# Generated by pormake.
# Topology bwt, (3,3)-cn, num edge types: 1
# Building blocks:
#     Node 0, Type 0, BuildingBlock: OLANEW_clean_sbu_2, # of connection points: 3
#     Node 1, Type 0, BuildingBlock: OLANEW_clean_sbu_2, # of connection points: 3
#     Node 2, Type 0, BuildingBlock: OLANEW_clean_sbu_2, # of connection points: 3
#     Node 3, Type 0, BuildingBlock: OLANEW_clean_sbu_2, # of connection points: 3
#     Node 4, Type 0, BuildingBlock: OLANEW_clean_sbu_2, # of connection points: 3
#     Node 5, Type 0, BuildingBlock: OLANEW_clean_sbu_2, # of connection points: 3
#     Node 6, Type 0, BuildingBlock: OLANEW_clean_sbu_2, # of connection points: 3
#     Node 7, Type 0, BuildingBlock: OLANEW_clean_sbu_2, # of connection points: 3
#     Node 8, Type 0, BuildingBlock: OLANEW_clean_sbu_2, # of connection points: 3
#     Node 9, Type 0, BuildingBlock: OLANEW_clean_sbu_2, # of connection points: 3
#     Node 10, Type 0, BuildingBlock: OLANEW_clean_sbu_2, # of connection points: 3
#     Node 11, Type 0, BuildingBlock: OLANEW_clean_sbu_2, # of connection points: 3
#     Node 12, Type 0, BuildingBlock: OLANEW_clean_sbu_2, # of connection points: 3
#     Node 13, Type 0, BuildingBlock: OLANEW_clean_sbu_2, # of connection points: 3
#     Node 14, Type 0, BuildingBlock: OLANEW_clean_sbu_2, # of connection points: 3
#     Node 15, Type 0, BuildingBlock: OLANEW_clean_sbu_2, # of connection points: 3
#     Node 16, Type 0, BuildingBlock: OLANEW_clean_sbu_2, # of connection points: 3
#     Node 17, Type 0, BuildingBlock: OLANEW_clean_sbu_2, # of connection points: 3
#     Node 18, Type 0, BuildingBlock: OLANEW_clean_sbu_2, # of connection points: 3
#     Node 19, Type 0, BuildingBlock: OLANEW_clean_sbu_2, # of connection points: 3
#     Node 20, Type 0, BuildingBlock: OLANEW_clean_sbu_2, # of connection points: 3
#     Node 21, Type 0, BuildingBlock: OLANEW_clean_sbu_2, # of connection points: 3
#     Node 22, Type 0, BuildingBlock: OLANEW_clean_sbu_2, # of connection points: 3
#     Node 23, Type 0, BuildingBlock: OLANEW_clean_sbu_2, # of connection points: 3
#     Node 24, Type 1, BuildingBlock: QEWDON_clean_linker_0, # of connection points: 3
#     Node 25, Type 1, BuildingBlock: QEWDON_clean_linker_0, # of connection points: 3
#     Node 26, Type 1, BuildingBlock: QEWDON_clean_linker_0, # of connection points: 3
#     Node 27, Type 1, BuildingBlock: QEWDON_clean_linker_0, # of connection points: 3
#     Node 28, Type 1, BuildingBlock: QEWDON_clean_linker_0, # of connection points: 3
#     Node 29, Type 1, BuildingBlock: QEWDON_clean_linker_0, # of connection points: 3
#     Node 30, Type 1, BuildingBlock: QEWDON_clean_linker_0, # of connection points: 3
#     Node 31, Type 1, BuildingBlock: QEWDON_clean_linker_0, # of connection points: 3
#     Node 32, Type 1, BuildingBlock: QEWDON_clean_linker_0, # of connection points: 3
#     Node 33, Type 1, BuildingBlock: QEWDON_clean_linker_0, # of connection points: 3
#     Node 34, Type 1, BuildingBlock: QEWDON_clean_linker_0, # of connection points: 3
#     Node 35, Type 1, BuildingBlock: QEWDON_clean_linker_0, # of connection points: 3
#     Node 36, Type 1, BuildingBlock: QEWDON_clean_linker_0, # of connection points: 3
#     Node 37, Type 1, BuildingBlock: QEWDON_clean_linker_0, # of connection points: 3
#     Node 38, Type 1, BuildingBlock: QEWDON_clean_linker_0, # of connection points: 3
#     Node 39, Type 1, BuildingBlock: QEWDON_clean_linker_0, # of connection points: 3
#     Node 40, Type 1, BuildingBlock: QEWDON_clean_linker_0, # of connection points: 3
#     Node 41, Type 1, BuildingBlock: QEWDON_clean_linker_0, # of connection points: 3
#     Node 42, Type 1, BuildingBlock: QEWDON_clean_linker_0, # of connection points: 3
#     Node 43, Type 1, BuildingBlock: QEWDON_clean_linker_0, # of connection points: 3
#     Node 44, Type 1, BuildingBlock: QEWDON_clean_linker_0, # of connection points: 3
#     Node 45, Type 1, BuildingBlock: QEWDON_clean_linker_0, # of connection points: 3
#     Node 46, Type 1, BuildingBlock: QEWDON_clean_linker_0, # of connection points: 3
#     Node 47, Type 1, BuildingBlock: QEWDON_clean_linker_0, # of connection points: 3
#     Edge 48, Type (0, 1), BuildingBlock: UVAHIK_clean_linker_0, # of connection points: 2
#     Edge 49, Type (0, 1), BuildingBlock: UVAHIK_clean_linker_0, # of connection points: 2
#     Edge 50, Type (0, 1), BuildingBlock: UVAHIK_clean_linker_0, # of connection points: 2
#     Edge 51, Type (0, 1), BuildingBlock: UVAHIK_clean_linker_0, # of connection points: 2
#     Edge 52, Type (0, 1), BuildingBlock: UVAHIK_clean_linker_0, # of connection points: 2
#     Edge 53, Type (0, 1), BuildingBlock: UVAHIK_clean_linker_0, # of connection points: 2
#     Edge 54, Type (0, 1), BuildingBlock: UVAHIK_clean_linker_0, # of connection points: 2
#     Edge 55, Type (0, 1), BuildingBlock: UVAHIK_clean_linker_0, # of connection points: 2
#     Edge 56, Type (0, 1), BuildingBlock: UVAHIK_clean_linker_0, # of connection points: 2
#     Edge 57, Type (0, 1), BuildingBlock: UVAHIK_clean_linker_0, # of connection points: 2
#     Edge 58, Type (0, 1), BuildingBlock: UVAHIK_clean_linker_0, # of connection points: 2
#     Edge 59, Type (0, 1), BuildingBlock: UVAHIK_clean_linker_0, # of connection points: 2
#     Edge 60, Type (0, 1), BuildingBlock: UVAHIK_clean_linker_0, # of connection points: 2
#     Edge 61, Type (0, 1), BuildingBlock: UVAHIK_clean_linker_0, # of connection points: 2
#     Edge 62, Type (0, 1), BuildingBlock: UVAHIK_clean_linker_0, # of connection points: 2
#     Edge 63, Type (0, 1), BuildingBlock: UVAHIK_clean_linker_0, # of connection points: 2
#     Edge 64, Type (0, 1), BuildingBlock: UVAHIK_clean_linker_0, # of connection points: 2
#     Edge 65, Type (0, 1), BuildingBlock: UVAHIK_clean_linker_0, # of connection points: 2
#     Edge 66, Type (0, 1), BuildingBlock: UVAHIK_clean_linker_0, # of connection points: 2
#     Edge 67, Type (0, 1), BuildingBlock: UVAHIK_clean_linker_0, # of connection points: 2
#     Edge 68, Type (0, 1), BuildingBlock: UVAHIK_clean_linker_0, # of connection points: 2
#     Edge 69, Type (0, 1), BuildingBlock: UVAHIK_clean_linker_0, # of connection points: 2
#     Edge 70, Type (0, 1), BuildingBlock: UVAHIK_clean_linker_0, # of connection points: 2
#     Edge 71, Type (0, 1), BuildingBlock: UVAHIK_clean_linker_0, # of connection points: 2
#     Edge 72, Type (0, 1), BuildingBlock: UVAHIK_clean_linker_0, # of connection points: 2
#     Edge 73, Type (0, 1), BuildingBlock: UVAHIK_clean_linker_0, # of connection points: 2
#     Edge 74, Type (0, 1), BuildingBlock: UVAHIK_clean_linker_0, # of connection points: 2
#     Edge 75, Type (0, 1), BuildingBlock: UVAHIK_clean_linker_0, # of connection points: 2
#     Edge 76, Type (0, 1), BuildingBlock: UVAHIK_clean_linker_0, # of connection points: 2
#     Edge 77, Type (0, 1), BuildingBlock: UVAHIK_clean_linker_0, # of connection points: 2
#     Edge 78, Type (0, 1), BuildingBlock: UVAHIK_clean_linker_0, # of connection points: 2
#     Edge 79, Type (0, 1), BuildingBlock: UVAHIK_clean_linker_0, # of connection points: 2
#     Edge 80, Type (0, 1), BuildingBlock: UVAHIK_clean_linker_0, # of connection points: 2
#     Edge 81, Type (0, 1), BuildingBlock: UVAHIK_clean_linker_0, # of connection points: 2
#     Edge 82, Type (0, 1), BuildingBlock: UVAHIK_clean_linker_0, # of connection points: 2
#     Edge 83, Type (0, 1), BuildingBlock: UVAHIK_clean_linker_0, # of connection points: 2
#     Edge 84, Type (0, 1), BuildingBlock: UVAHIK_clean_linker_0, # of connection points: 2
#     Edge 85, Type (0, 1), BuildingBlock: UVAHIK_clean_linker_0, # of connection points: 2
#     Edge 86, Type (0, 1), BuildingBlock: UVAHIK_clean_linker_0, # of connection points: 2
#     Edge 87, Type (0, 1), BuildingBlock: UVAHIK_clean_linker_0, # of connection points: 2
#     Edge 88, Type (0, 1), BuildingBlock: UVAHIK_clean_linker_0, # of connection points: 2
#     Edge 89, Type (0, 1), BuildingBlock: UVAHIK_clean_linker_0, # of connection points: 2
#     Edge 90, Type (0, 1), BuildingBlock: UVAHIK_clean_linker_0, # of connection points: 2
#     Edge 91, Type (0, 1), BuildingBlock: UVAHIK_clean_linker_0, # of connection points: 2
#     Edge 92, Type (0, 1), BuildingBlock: UVAHIK_clean_linker_0, # of connection points: 2
#     Edge 93, Type (0, 1), BuildingBlock: UVAHIK_clean_linker_0, # of connection points: 2
#     Edge 94, Type (0, 1), BuildingBlock: UVAHIK_clean_linker_0, # of connection points: 2
#     Edge 95, Type (0, 1), BuildingBlock: UVAHIK_clean_linker_0, # of connection points: 2
#     Edge 96, Type (0, 1), BuildingBlock: UVAHIK_clean_linker_0, # of connection points: 2
#     Edge 97, Type (0, 1), BuildingBlock: UVAHIK_clean_linker_0, # of connection points: 2
#     Edge 98, Type (0, 1), BuildingBlock: UVAHIK_clean_linker_0, # of connection points: 2
#     Edge 99, Type (0, 1), BuildingBlock: UVAHIK_clean_linker_0, # of connection points: 2
#     Edge 100, Type (0, 1), BuildingBlock: UVAHIK_clean_linker_0, # of connection points: 2
#     Edge 101, Type (0, 1), BuildingBlock: UVAHIK_clean_linker_0, # of connection points: 2
#     Edge 102, Type (0, 1), BuildingBlock: UVAHIK_clean_linker_0, # of connection points: 2
#     Edge 103, Type (0, 1), BuildingBlock: UVAHIK_clean_linker_0, # of connection points: 2
#     Edge 104, Type (0, 1), BuildingBlock: UVAHIK_clean_linker_0, # of connection points: 2
#     Edge 105, Type (0, 1), BuildingBlock: UVAHIK_clean_linker_0, # of connection points: 2
#     Edge 106, Type (0, 1), BuildingBlock: UVAHIK_clean_linker_0, # of connection points: 2
#     Edge 107, Type (0, 1), BuildingBlock: UVAHIK_clean_linker_0, # of connection points: 2
#     Edge 108, Type (0, 1), BuildingBlock: UVAHIK_clean_linker_0, # of connection points: 2
#     Edge 109, Type (0, 1), BuildingBlock: UVAHIK_clean_linker_0, # of connection points: 2
#     Edge 110, Type (0, 1), BuildingBlock: UVAHIK_clean_linker_0, # of connection points: 2
#     Edge 111, Type (0, 1), BuildingBlock: UVAHIK_clean_linker_0, # of connection points: 2
#     Edge 112, Type (0, 1), BuildingBlock: UVAHIK_clean_linker_0, # of connection points: 2
#     Edge 113, Type (0, 1), BuildingBlock: UVAHIK_clean_linker_0, # of connection points: 2
#     Edge 114, Type (0, 1), BuildingBlock: UVAHIK_clean_linker_0, # of connection points: 2
#     Edge 115, Type (0, 1), BuildingBlock: UVAHIK_clean_linker_0, # of connection points: 2
#     Edge 116, Type (0, 1), BuildingBlock: UVAHIK_clean_linker_0, # of connection points: 2
#     Edge 117, Type (0, 1), BuildingBlock: UVAHIK_clean_linker_0, # of connection points: 2
#     Edge 118, Type (0, 1), BuildingBlock: UVAHIK_clean_linker_0, # of connection points: 2
#     Edge 119, Type (0, 1), BuildingBlock: UVAHIK_clean_linker_0, # of connection points: 2
# Relax obj value: 0.034
# Max RMSD: 0.068
# Mean RMSD: 0.041
data_MOF--net-bwt--node1-OLANEW_clean_sbu_2--node2-QEWDON_clean_linker_0--edge1-UVAHIK_clean_linker_0
_symmetry_space_group_name_H-M    P1
_symmetry_Int_Tables_number       1
_symmetry_cell_setting            triclinic
loop_
_symmetry_equiv_pos_as_xyz
'x, y, z'
_cell_length_a     78.888959
_cell_length_b     78.889055
_cell_length_c     78.929302
_cell_angle_alpha  90.843819
_cell_angle_beta   90.850852
_cell_angle_gamma 90.846254
loop_
_atom_site_label
_atom_site_type_symbol
_atom_site_fract_x
_atom_site_fract_y
_atom_site_fract_z
_atom_type_partial_charge
O0 O 0.19137 0.47985 0.33107 0.0
Cd1 Cd 0.19108 0.49052 0.30211 0.0
O2 O 0.19121 0.50544 0.34251 0.0
Cd3 Cd 0.19668 0.51741 0.31843 0.0
O4 O 0.21289 0.52523 0.29771 0.0
C5 C 0.2286 0.5262 0.30146 0.0
O6 O 0.23346 0.52289 0.31705 0.0
C7 C 0.19063 0.48942 0.34414 0.0
C8 C 0.15788 0.49768 0.29219 0.0
O9 O 0.16415 0.48299 0.2896 0.0
O10 O 0.1674 0.50911 0.29924 0.0
O11 O 0.32314 0.50144 0.81494 0.0
Cd12 Cd 0.32417 0.47759 0.79486 0.0
O13 O 0.29529 0.50227 0.81588 0.0
Cd14 Cd 0.29 0.48261 0.79666 0.0
O15 O 0.27283 0.4672 0.78056 0.0
C16 C 0.26539 0.47431 0.76823 0.0
O17 O 0.26916 0.49022 0.76505 0.0
C18 C 0.30974 0.50783 0.8209 0.0
C19 C 0.35799 0.46875 0.79062 0.0
O20 O 0.35052 0.47848 0.7801 0.0
O21 O 0.34936 0.46289 0.80291 0.0
O22 O 0.67574 0.03745 0.67135 0.0
Cd23 Cd 0.67615 0.02783 0.70066 0.0
O24 O 0.6748 0.01097 0.66218 0.0
Cd25 Cd 0.6845 0.00088 0.68601 0.0
O26 O 0.70425 0.99138 0.70299 0.0
C27 C 0.71319 0.0017 0.712 0.0
O28 O 0.70968 0.01792 0.71167 0.0
C29 C 0.67378 0.02675 0.65925 0.0
C30 C 0.64312 0.01865 0.70942 0.0
O31 O 0.64901 0.03364 0.71246 0.0
O32 O 0.65299 0.00786 0.70257 0.0
O33 O 0.84869 0.94104 0.2023 0.0
Cd34 Cd 0.85622 0.95471 0.22939 0.0
O35 O 0.82847 0.95954 0.20338 0.0
Cd36 Cd 0.80479 0.97168 0.19623 0.0
O37 O 0.78023 0.98223 0.20235 0.0
C38 C 0.76981 0.97239 0.2096 0.0
O39 O 0.77401 0.95653 0.21191 0.0
C40 C 0.83576 0.94763 0.19546 0.0
C41 C 0.88934 0.96725 0.22966 0.0
O42 O 0.88565 0.95305 0.2365 0.0
O43 O 0.87735 0.97559 0.22271 0.0
O44 O 0.34094 0.18637 0.49392 0.0
Cd45 Cd 0.31597 0.18385 0.51175 0.0
O46 O 0.34185 0.21425 0.49453 0.0
Cd47 Cd 0.31915 0.21736 0.5097 0.0
O48 O 0.29875 0.23093 0.52216 0.0
C49 C 0.28731 0.23745 0.51293 0.0
O50 O 0.28768 0.23489 0.49645 0.0
C51 C 0.34797 0.20023 0.48964 0.0
C52 C 0.31222 0.15015 0.52139 0.0
O53 O 0.30558 0.15548 0.50758 0.0
O54 O 0.32036 0.16087 0.53091 0.0
O55 O 0.19244 0.81712 0.96161 0.0
Cd56 Cd 0.21929 0.82119 0.97707 0.0
O57 O 0.17804 0.81604 0.98521 0.0
Cd58 Cd 0.20077 0.80999 -8e-05 0.0
O59 O 0.22037 0.79312 0.00946 0.0
C60 C 0.22845 0.78448 0.99862 0.0
O61 O 0.22518 0.78665 0.98243 0.0
C62 C 0.1783 0.81695 0.96914 0.0
C63 C 0.22293 0.85588 0.98367 0.0
O64 O 0.22852 0.84912 0.97002 0.0
O65 O 0.21611 0.84611 0.99456 0.0
O66 O 0.81262 0.31914 0.51954 0.0
Cd67 Cd 0.78962 0.31695 0.49845 0.0
O68 O 0.82838 0.30143 0.50515 0.0
Cd69 Cd 0.80779 0.29302 0.48814 0.0
O70 O 0.78967 0.2743 0.47775 0.0
C71 C 0.79334 0.25903 0.48092 0.0
O72 O 0.80735 0.25606 0.48952 0.0
C73 C 0.82665 0.31169 0.51757 0.0
C74 C 0.78556 0.34856 0.48373 0.0
O75 O 0.77617 0.34384 0.49596 0.0
O76 O 0.7966 0.33818 0.4782 0.0
O77 O 0.65739 0.67662 0.04554 0.0
Cd78 Cd 0.68527 0.67898 0.0326 0.0
O79 O 0.64407 0.67848 0.02096 0.0
Cd80 Cd 0.6669 0.68716 0.00818 0.0
O81 O 0.68779 0.7033 -0.00029 0.0
C82 C 0.69494 0.71315 0.01062 0.0
O83 O 0.6897 0.71293 0.02634 0.0
C84 C 0.64368 0.67601 0.03684 0.0
C85 C 0.69558 0.64708 0.02158 0.0
O86 O 0.69952 0.65279 0.03643 0.0
O87 O 0.68695 0.6566 0.01177 0.0
O88 O 0.47501 0.33497 0.19114 0.0
Cd89 Cd 0.48745 0.30672 0.19118 0.0
O90 O 0.49981 0.348 0.19332 0.0
Cd91 Cd 0.51282 0.32458 0.19925 0.0
O92 O 0.52102 0.30318 0.21435 0.0
C93 C 0.52444 0.30651 0.22984 0.0
O94 O 0.5234 0.32227 0.2353 0.0
C95 C 0.48379 0.34863 0.19143 0.0
C96 C 0.4985 0.29843 0.15871 0.0
O97 O 0.48337 0.29483 0.16333 0.0
O98 O 0.50853 0.30571 0.16955 0.0
O99 O 0.97217 0.1886 0.82065 0.0
Cd100 Cd 0.98444 0.21714 0.82404 0.0
O101 O 0.99732 0.177 0.82229 0.0
Cd102 Cd 0.0104 0.20125 0.81915 0.0
O103 O 0.01682 0.2227 0.80322 0.0
C104 C 0.01828 0.21893 0.78761 0.0
O105 O 0.01658 0.20296 0.78282 0.0
C106 C 0.98125 0.17542 0.82135 0.0
C107 C 0.98966 0.22475 0.85834 0.0
O108 O 0.97651 0.23 0.85039 0.0
O109 O 0.00046 0.21611 0.85004 0.0
O110 O 0.4979 0.81883 0.30606 0.0
Cd111 Cd 0.48209 0.79192 0.30662 0.0
O112 O 0.47469 0.83345 0.30997 0.0
Cd113 Cd 0.45833 0.81149 0.30443 0.0
O114 O 0.44856 0.79142 0.2875 0.0
C115 C 0.44765 0.79544 0.27198 0.0
O116 O 0.45186 0.81098 0.26778 0.0
C117 C 0.49075 0.83297 0.30867 0.0
C118 C 0.47747 0.78246 0.34015 0.0
O119 O 0.48933 0.77604 0.33131 0.0
O120 O 0.46763 0.7931 0.33308 0.0
O121 O 0.02954 0.65609 0.67348 0.0
Cd122 Cd 0.01573 0.68364 0.67547 0.0
O123 O 0.00508 0.64252 0.67034 0.0
Cd124 Cd 0.99078 0.66485 0.67757 0.0
O125 O 0.98363 0.68556 0.69451 0.0
C126 C 0.98444 0.68222 0.71019 0.0
O127 O 0.98878 0.66689 0.71471 0.0
C128 C 0.02122 0.64236 0.67068 0.0
C129 C 0.00818 0.69545 0.64313 0.0
O130 O 0.02145 0.70074 0.65126 0.0
O131 O 0.99837 0.68478 0.65035 0.0
O132 O 0.82452 0.48999 0.66887 0.0
Cd133 Cd 0.8238 0.47556 0.69607 0.0
O134 O 0.8241 0.5158 0.67973 0.0
Cd135 Cd 0.81524 0.5064 0.70397 0.0
O136 O 0.79146 0.50225 0.71729 0.0
C137 C 0.77873 0.50804 0.7093 0.0
O138 O 0.78129 0.5156 0.69481 0.0
C139 C 0.82551 0.50596 0.66695 0.0
C140 C 0.85671 0.46608 0.70484 0.0
O141 O 0.84712 0.45637 0.69558 0.0
O142 O 0.8506 0.48009 0.71025 0.0
O143 O 0.66155 0.55422 0.18822 0.0
Cd144 Cd 0.65182 0.5759 0.20815 0.0
O145 O 0.67746 0.54296 0.20798 0.0
Cd146 Cd 0.69829 0.52686 0.2161 0.0
O147 O 0.72358 0.51733 0.22155 0.0
C148 C 0.73134 0.5222 0.23502 0.0
O149 O 0.72356 0.53226 0.2457 0.0
C150 C 0.67209 0.54307 0.19271 0.0
C151 C 0.61657 0.57639 0.2098 0.0
O152 O 0.62446 0.58507 0.19872 0.0
O153 O 0.62536 0.56755 0.2201 0.0
O154 O 0.34015 0.04955 0.36288 0.0
Cd155 Cd 0.3477 0.07275 0.3441 0.0
O156 O 0.33549 0.03233 0.34121 0.0
Cd157 Cd 0.32459 0.00961 0.32889 0.0
O158 O 0.30554 0.99345 0.31618 0.0
C159 C 0.30245 0.99545 0.3005 0.0
O160 O 0.31162 0.00646 0.29213 0.0
C161 C 0.33564 0.03501 0.35714 0.0
C162 C 0.38109 0.07083 0.33345 0.0
O163 O 0.37741 0.07873 0.34719 0.0
O164 O 0.36895 0.06387 0.32476 0.0
O165 O 0.16091 0.0185 0.79287 0.0
Cd166 Cd 0.16 0.00424 0.76515 0.0
O167 O 0.16891 0.04362 0.78392 0.0
Cd168 Cd 0.17794 0.03333 0.7599 0.0
O169 O 0.20272 0.02838 0.7489 0.0
C170 C 0.21474 0.02986 0.75977 0.0
O171 O 0.21095 0.03366 0.77552 0.0
C172 C 0.16384 0.03417 0.79579 0.0
C173 C 0.12695 0.9921 0.75908 0.0
O174 O 0.13784 0.98315 0.76699 0.0
O175 O 0.1318 0.00661 0.7537 0.0
O176 O 0.68072 0.82525 0.48861 0.0
Cd177 Cd 0.7056 0.82685 0.47054 0.0
O178 O 0.694 0.81296 0.50972 0.0
Cd179 Cd 0.71657 0.80685 0.49532 0.0
O180 O 0.72774 0.78233 0.48937 0.0
C181 C 0.71896 0.77025 0.49537 0.0
O182 O 0.70521 0.77398 0.50377 0.0
C183 C 0.6807 0.81957 0.50361 0.0
C184 C 0.71188 0.8606 0.46228 0.0
O185 O 0.70189 0.85122 0.45312 0.0
O186 O 0.71914 0.85391 0.47514 0.0
O187 O 0.79555 0.14942 0.97919 0.0
Cd188 Cd 0.77171 0.13952 0.96132 0.0
O189 O 0.77943 0.16818 0.99152 0.0
Cd190 Cd 0.77545 0.19115 0.0067 0.0
O191 O 0.77191 0.21744 0.01474 0.0
C192 C 0.75753 0.22418 0.01249 0.0
O193 O 0.745 0.21488 0.00605 0.0
C194 C 0.79386 0.16142 0.98992 0.0
C195 C 0.76904 0.10427 0.9611 0.0
O196 O 0.77853 0.11195 0.95054 0.0
O197 O 0.76072 0.1133 0.97166 0.0
O198 O 0.19166 0.66569 0.50585 0.0
Cd199 Cd 0.21487 0.66754 0.52672 0.0
O200 O 0.20167 0.68531 0.489 0.0
Cd201 Cd 0.22284 0.69345 0.5054 0.0
O202 O 0.23479 0.71697 0.51482 0.0
C203 C 0.22478 0.72945 0.51465 0.0
O204 O 0.20897 0.72675 0.50973 0.0
C205 C 0.19044 0.67418 0.49234 0.0
C206 C 0.22141 0.6351 0.53857 0.0
O207 O 0.21007 0.64431 0.54542 0.0
O208 O 0.2299 0.64139 0.52637 0.0
O209 O 0.32468 0.3437 0.99503 0.0
Cd210 Cd 0.29843 0.34551 0.01097 0.0
O211 O 0.31675 0.32176 0.97911 0.0
Cd212 Cd 0.29271 0.31639 0.99141 0.0
O213 O 0.27813 0.29338 0.99678 0.0
C214 C 0.28554 0.28019 0.9914 0.0
O215 O 0.30014 0.28207 0.98379 0.0
C216 C 0.32771 0.33313 0.98319 0.0
C217 C 0.29161 0.3796 0.01729 0.0
O218 O 0.30122 0.3713 0.02732 0.0
O219 O 0.28494 0.37168 0.0045 0.0
O220 O 0.47386 0.66584 0.84335 0.0
Cd221 Cd 0.45247 0.68668 0.85084 0.0
O222 O 0.48066 0.68215 0.82232 0.0
Cd223 Cd 0.49315 0.69129 0.79956 0.0
O224 O 0.49737 0.69981 0.77377 0.0
C225 C 0.48421 0.70108 0.76441 0.0
O226 O 0.46935 0.69736 0.7708 0.0
C227 C 0.48279 0.66845 0.83035 0.0
C228 C 0.4446 0.68627 0.88512 0.0
O229 O 0.43671 0.6765 0.87444 0.0
O230 O 0.45621 0.69617 0.87956 0.0
O231 O 0.99122 0.79627 0.13681 0.0
Cd232 Cd 0.96908 0.77585 0.12799 0.0
O233 O 0.99492 0.7817 0.15988 0.0
Cd234 Cd 0.0054 0.77466 0.18459 0.0
O235 O 0.00916 0.76956 0.21148 0.0
C236 C 0.01678 0.78034 0.2211 0.0
O237 O 0.02298 0.79427 0.21451 0.0
C238 C 0.99879 0.79448 0.15097 0.0
C239 C 0.96288 0.77713 0.09321 0.0
O240 O 0.95483 0.78668 0.10351 0.0
O241 O 0.97374 0.76691 0.09941 0.0
O242 O 0.53308 0.18905 0.6503 0.0
Cd243 Cd 0.55695 0.20768 0.64329 0.0
O244 O 0.5303 0.20406 0.67354 0.0
Cd245 Cd 0.52203 0.21041 0.69914 0.0
O246 O 0.51967 0.21886 0.72541 0.0
C247 C 0.51266 0.20955 0.73636 0.0
O248 O 0.50633 0.1947 0.73162 0.0
C249 C 0.52548 0.19159 0.66417 0.0
C250 C 0.56417 0.20639 0.60887 0.0
O251 O 0.57083 0.19585 0.61913 0.0
O252 O 0.55416 0.21752 0.61493 0.0
O253 O 0.01722 0.32037 0.36201 0.0
Cd254 Cd 0.03584 0.29834 0.3727 0.0
O255 O 0.01008 0.30452 0.33996 0.0
Cd256 Cd 0.99722 0.29787 0.31594 0.0
O257 O 0.99022 0.29375 0.28932 0.0
C258 C 0.99988 0.30045 0.27847 0.0
O259 O 0.01314 0.30938 0.28384 0.0
C260 C 0.009 0.31849 0.34812 0.0
C261 C 0.04084 0.30196 0.4076 0.0
O262 O 0.05039 0.30986 0.39726 0.0
O263 O 0.02905 0.29226 0.40141 0.0
H264 H 0.19527 0.41516 0.52078 0.0
C265 C 0.19973 0.427 0.52655 0.0
C266 C 0.20545 0.44013 0.51621 0.0
C267 C 0.19979 0.42911 0.5443 0.0
H268 H 0.21532 0.46568 0.51568 0.0
C269 C 0.21124 0.45537 0.52369 0.0
C270 C 0.21104 0.45785 0.54129 0.0
C271 C 0.20513 0.44474 0.55159 0.0
C272 C 0.19478 0.41479 0.5552 0.0
H273 H 0.20515 0.44656 0.56523 0.0
C274 C 0.2016 0.39865 0.55239 0.0
C275 C 0.19731 0.38497 0.56281 0.0
C276 C 0.18345 0.41716 0.56855 0.0
H277 H 0.17799 0.42947 0.57095 0.0
C278 C 0.17891 0.40358 0.57879 0.0
H279 H 0.21041 0.39678 0.54214 0.0
C280 C 0.18577 0.38756 0.57596 0.0
H281 H 0.1823 0.37731 0.58427 0.0
H282 H 0.17012 0.40549 0.58902 0.0
H283 H 0.31693 0.60166 0.98888 0.0
C284 C 0.31249 0.5897 0.99391 0.0
C285 C 0.30695 0.57673 0.98273 0.0
C286 C 0.31242 0.58722 0.01153 0.0
H287 H 0.29748 0.55108 0.98057 0.0
C288 C 0.30129 0.56126 0.98926 0.0
C289 C 0.30138 0.55844 0.00676 0.0
C290 C 0.30709 0.57145 0.01787 0.0
C291 C 0.31777 0.60116 0.02331 0.0
H292 H 0.30703 0.56942 0.03142 0.0
C293 C 0.31106 0.61745 0.02144 0.0
C294 C 0.31585 0.63075 0.03266 0.0
C295 C 0.32944 0.59826 0.03652 0.0
H296 H 0.33483 0.58583 0.03818 0.0
C297 C 0.33444 0.61147 0.04755 0.0
H298 H 0.30199 0.61972 0.0113 0.0
C299 C 0.32773 0.62764 0.04566 0.0
H300 H 0.33158 0.63761 0.05455 0.0
H301 H 0.3435 0.60916 0.05766 0.0
H302 H 0.67837 0.08198 0.47576 0.0
C303 C 0.6834 0.06992 0.47163 0.0
C304 C 0.68419 0.05647 0.48304 0.0
C305 C 0.68845 0.06756 0.45471 0.0
H306 H 0.6917 0.0306 0.48653 0.0
C307 C 0.69079 0.04094 0.47766 0.0
C308 C 0.6961 0.03847 0.46099 0.0
C309 C 0.69461 0.05169 0.44942 0.0
C310 C 0.68735 0.08164 0.44254 0.0
H311 H 0.69869 0.04977 0.43649 0.0
C312 C 0.69402 0.09778 0.44687 0.0
C313 C 0.69361 0.11105 0.43513 0.0
C314 C 0.68001 0.07891 0.42639 0.0
H315 H 0.6747 0.06661 0.42279 0.0
C316 C 0.67932 0.09208 0.4148 0.0
H317 H 0.70011 0.09981 0.45915 0.0
C318 C 0.68611 0.10804 0.41908 0.0
H319 H 0.68544 0.11805 0.40986 0.0
H320 H 0.67356 0.08989 0.40241 0.0
H321 H 0.80885 0.88975 0.0163 0.0
C322 C 0.80353 0.90083 0.0104 0.0
C323 C 0.79916 0.91498 0.02037 0.0
C324 C 0.80169 0.90114 0.99266 0.0
H325 H 0.78844 0.93998 0.01984 0.0
C326 C 0.79226 0.92913 0.01233 0.0
C327 C 0.79056 0.92969 0.99463 0.0
C328 C 0.79552 0.91572 0.98481 0.0
C329 C 0.80601 0.8861 0.98232 0.0
H330 H 0.79417 0.91601 0.97113 0.0
C331 C 0.79771 0.87054 0.98503 0.0
C332 C 0.80132 0.85622 0.97496 0.0
C333 C 0.8181 0.8873 0.96953 0.0
H334 H 0.82459 0.89923 0.96723 0.0
C335 C 0.82203 0.87303 0.95974 0.0
H336 H 0.78829 0.86965 0.99485 0.0
C337 C 0.81372 0.85755 0.96242 0.0
H338 H 0.81669 0.84675 0.95444 0.0
H339 H 0.83144 0.874 0.94995 0.0
H340 H 0.51235 0.18276 0.39383 0.0
C341 C 0.52021 0.18508 0.40503 0.0
C342 C 0.5128 0.19104 0.41996 0.0
C343 C 0.53778 0.18224 0.40451 0.0
H344 H 0.51714 0.19845 0.44599 0.0
C345 C 0.52298 0.19415 0.43437 0.0
C346 C 0.54045 0.19112 0.43418 0.0
C347 C 0.54778 0.185 0.41924 0.0
C348 C 0.54578 0.17714 0.3884 0.0
H349 H 0.56133 0.18292 0.41894 0.0
C350 C 0.54244 0.18622 0.37358 0.0
C351 C 0.5505 0.1821 0.35832 0.0
C352 C 0.55721 0.16367 0.38785 0.0
H353 H 0.55997 0.15647 0.39911 0.0
C354 C 0.56508 0.15933 0.37268 0.0
H355 H 0.53405 0.19697 0.37413 0.0
C356 C 0.56182 0.1685 0.358 0.0
H357 H 0.56811 0.16493 0.34641 0.0
H358 H 0.57382 0.14889 0.37233 0.0
H359 H 0.00776 0.81505 0.87747 0.0
C360 C 0.00136 0.81175 0.88905 0.0
C361 C 0.0109 0.80784 0.90357 0.0
C362 C 0.98353 0.81124 0.88943 0.0
H363 H 0.00993 0.80057 0.9297 0.0
C364 C 0.00254 0.80332 0.91841 0.0
C365 C 0.98478 0.80289 0.91903 0.0
C366 C 0.97531 0.80709 0.90453 0.0
C367 C 0.97347 0.81403 0.87381 0.0
H368 H 0.96158 0.80651 0.90481 0.0
C369 C 0.97608 0.80381 0.85941 0.0
C370 C 0.96585 0.80544 0.84478 0.0
C371 C 0.96075 0.82626 0.87345 0.0
H372 H 0.9585 0.83422 0.88446 0.0
C373 C 0.95087 0.82832 0.8588 0.0
H374 H 0.98587 0.79431 0.85977 0.0
C375 C 0.95334 0.81796 0.84456 0.0
H376 H 0.94517 0.81945 0.83355 0.0
H377 H 0.9411 0.83779 0.85858 0.0
H378 H 0.98787 0.34772 0.62083 0.0
C379 C 0.99479 0.34497 0.60937 0.0
C380 C 0.98592 0.34155 0.59415 0.0
C381 C 0.01264 0.34537 0.60967 0.0
H382 H 0.98805 0.3348 0.56777 0.0
C383 C 0.99494 0.33775 0.57946 0.0
C384 C 0.0127 0.33751 0.5797 0.0
C385 C 0.02154 0.34178 0.59475 0.0
C386 C 0.02205 0.34908 0.62564 0.0
H387 H 0.03528 0.34165 0.59505 0.0
C388 C 0.01981 0.33865 0.63971 0.0
C389 C 0.02933 0.34154 0.65473 0.0
C390 C 0.03369 0.36269 0.6267 0.0
H391 H 0.03561 0.37084 0.61595 0.0
C392 C 0.04283 0.36593 0.64172 0.0
H393 H 0.01086 0.3281 0.63882 0.0
C394 C 0.04072 0.35543 0.65566 0.0
H395 H 0.04832 0.35792 0.66699 0.0
H396 H 0.05175 0.37648 0.64249 0.0
H397 H 0.46661 0.66594 0.1082 0.0
C398 C 0.46141 0.6682 0.09566 0.0
C399 C 0.47236 0.67171 0.0823 0.0
C400 C 0.44374 0.66779 0.09289 0.0
H401 H 0.47412 0.67728 0.0558 0.0
C402 C 0.46559 0.67483 0.06617 0.0
C403 C 0.44803 0.67427 0.06313 0.0
C404 C 0.43713 0.67053 0.07651 0.0
C405 C 0.43219 0.66547 0.10729 0.0
H406 H 0.42353 0.67039 0.07435 0.0
C407 C 0.43392 0.67601 0.12171 0.0
C408 C 0.42265 0.67451 0.13527 0.0
C409 C 0.41915 0.65317 0.10654 0.0
H410 H 0.41757 0.64493 0.09551 0.0
C411 C 0.40815 0.65133 0.12013 0.0
H412 H 0.44393 0.68558 0.12225 0.0
C413 C 0.40986 0.66192 0.13443 0.0
H414 H 0.40095 0.66052 0.14464 0.0
H415 H 0.39816 0.64178 0.11951 0.0
H416 H 0.3974 0.51965 0.18514 0.0
C417 C 0.40895 0.52656 0.1886 0.0
C418 C 0.42313 0.51765 0.19428 0.0
C419 C 0.40964 0.54436 0.1875 0.0
H420 H 0.44908 0.5196 0.20287 0.0
C421 C 0.43802 0.52657 0.19881 0.0
C422 C 0.43907 0.54424 0.19745 0.0
C423 C 0.42488 0.5531 0.19164 0.0
C424 C 0.39425 0.55384 0.18271 0.0
H425 H 0.42556 0.56681 0.19086 0.0
C426 C 0.37873 0.55011 0.19045 0.0
C427 C 0.36412 0.55941 0.18662 0.0
C428 C 0.39503 0.56696 0.17089 0.0
H429 H 0.40682 0.57005 0.1647 0.0
C430 C 0.38053 0.57613 0.16688 0.0
H431 H 0.3782 0.54036 0.19997 0.0
C432 C 0.36516 0.57245 0.17472 0.0
H433 H 0.3541 0.57974 0.17144 0.0
H434 H 0.38121 0.58617 0.15772 0.0
H435 H 0.90683 0.99973 0.78618 0.0
C436 C 0.91869 0.99506 0.78131 0.0
C437 C 0.93185 0.00659 0.77796 0.0
C438 C 0.92086 0.97755 0.77858 0.0
H439 H 0.95763 0.00945 0.76994 0.0
C440 C 0.94727 0.00055 0.77193 0.0
C441 C 0.94984 0.98315 0.76939 0.0
C442 C 0.93658 0.97167 0.7728 0.0
C443 C 0.90673 0.96546 0.78191 0.0
H444 H 0.93841 0.95822 0.77067 0.0
C445 C 0.89012 0.96898 0.77638 0.0
C446 C 0.87659 0.95773 0.77969 0.0
C447 C 0.90971 0.95044 0.79075 0.0
H448 H 0.92233 0.94746 0.79528 0.0
C449 C 0.89634 0.93925 0.79412 0.0
H450 H 0.88771 0.98051 0.76951 0.0
C451 C 0.87987 0.94286 0.78868 0.0
H452 H 0.86975 0.93389 0.79129 0.0
H453 H 0.89874 0.92774 0.801 0.0
H454 H 0.59177 0.99831 0.30672 0.0
C455 C 0.58058 0.00603 0.30547 0.0
C456 C 0.56487 0.9982 0.30177 0.0
C457 C 0.58184 0.02378 0.30756 0.0
H458 H 0.53816 0.00201 0.29793 0.0
C459 C 0.55038 0.00814 0.30029 0.0
C460 C 0.55131 0.02576 0.30274 0.0
C461 C 0.56708 0.03353 0.30643 0.0
C462 C 0.5986 0.03213 0.3106 0.0
H463 H 0.56787 0.04719 0.30804 0.0
C464 C 0.61261 0.02735 0.30092 0.0
C465 C 0.62853 0.03533 0.30344 0.0
C466 C 0.60066 0.04504 0.32294 0.0
H467 H 0.59011 0.04891 0.33066 0.0
C468 C 0.61646 0.05294 0.3256 0.0
H469 H 0.61109 0.01742 0.29136 0.0
C470 C 0.63033 0.04814 0.31594 0.0
H471 H 0.6424 0.05459 0.31809 0.0
H472 H 0.61795 0.06285 0.33515 0.0
H473 H 0.08132 0.46338 0.68909 0.0
C474 C 0.06867 0.46037 0.69343 0.0
C475 C 0.05719 0.4735 0.69604 0.0
C476 C 0.06389 0.4434 0.6964 0.0
H477 H 0.03177 0.47973 0.70305 0.0
C478 C 0.0408 0.46961 0.7015 0.0
C479 C 0.03564 0.4528 0.70419 0.0
C480 C 0.04721 0.43969 0.70153 0.0
C481 C 0.07644 0.42968 0.6944 0.0
H482 H 0.04334 0.4267 0.70387 0.0
C483 C 0.09313 0.432 0.70063 0.0
C484 C 0.10523 0.41921 0.69875 0.0
C485 C 0.0719 0.41426 0.68628 0.0
H486 H 0.05919 0.41215 0.68125 0.0
C487 C 0.08387 0.40153 0.68431 0.0
H488 H 0.09672 0.44383 0.70696 0.0
C489 C 0.10044 0.40396 0.69045 0.0
H490 H 0.10944 0.39384 0.68891 0.0
H491 H 0.08028 0.38972 0.67798 0.0
H492 H 0.77121 0.56776 0.4999 0.0
C493 C 0.77387 0.55636 0.49265 0.0
C494 C 0.78615 0.54519 0.49879 0.0
C495 C 0.76443 0.55243 0.47776 0.0
H496 H 0.79781 0.52091 0.4951 0.0
C497 C 0.78905 0.53001 0.4899 0.0
C498 C 0.77946 0.52564 0.47537 0.0
C499 C 0.76744 0.53701 0.46917 0.0
C500 C 0.75048 0.56367 0.47205 0.0
H501 H 0.76018 0.53356 0.45785 0.0
C502 C 0.75192 0.58145 0.47391 0.0
C503 C 0.73824 0.59189 0.46964 0.0
C504 C 0.73524 0.55659 0.46542 0.0
H505 H 0.73343 0.543 0.46419 0.0
C506 C 0.72184 0.56695 0.46075 0.0
H507 H 0.76351 0.58718 0.47902 0.0
C508 C 0.72326 0.58448 0.46292 0.0
H509 H 0.7126 0.59225 0.4594 0.0
H510 H 0.71019 0.56134 0.4557 0.0
H511 H 0.73752 0.43507 0.04725 0.0
C512 C 0.73318 0.44545 0.03953 0.0
C513 C 0.7225 0.45765 0.04659 0.0
C514 C 0.73879 0.44703 0.02276 0.0
H515 H 0.71 0.4813 0.04268 0.0
C516 C 0.71746 0.47143 0.03683 0.0
C517 C 0.72321 0.47346 0.02024 0.0
C518 C 0.7337 0.46107 0.01321 0.0
C519 C 0.75072 0.4346 0.01548 0.0
H520 H 0.73808 0.46248 0.00035 0.0
C521 C 0.74807 0.41706 0.01746 0.0
C522 C 0.75921 0.40533 0.01018 0.0
C523 C 0.76484 0.44029 0.00636 0.0
H524 H 0.76736 0.45372 0.00486 0.0
C525 C 0.77599 0.42873 0.99927 0.0
H526 H 0.73707 0.41254 0.02422 0.0
C527 C 0.77321 0.41136 0.00111 0.0
H528 H 0.78213 0.40265 0.99557 0.0
H529 H 0.78686 0.43324 0.99234 0.0
H530 H 0.2845 0.93095 0.50723 0.0
C531 C 0.28963 0.94212 0.51374 0.0
C532 C 0.29987 0.95351 0.5048 0.0
C533 C 0.28553 0.94546 0.53079 0.0
H534 H 0.31289 0.97764 0.50575 0.0
C535 C 0.30586 0.96836 0.51295 0.0
C536 C 0.30158 0.97218 0.52972 0.0
C537 C 0.29164 0.96057 0.53866 0.0
C538 C 0.27411 0.93373 0.54009 0.0
H539 H 0.28855 0.96346 0.55171 0.0
C540 C 0.27501 0.91602 0.53769 0.0
C541 C 0.26396 0.90498 0.54623 0.0
C542 C 0.26197 0.94022 0.55126 0.0
H543 H 0.26058 0.95375 0.55312 0.0
C544 C 0.25116 0.92934 0.55991 0.0
H545 H 0.28445 0.91078 0.52936 0.0
C546 C 0.25209 0.91186 0.55743 0.0
H547 H 0.24322 0.90375 0.56397 0.0
H548 H 0.24183 0.93451 0.5684 0.0
H549 H 0.21731 0.08439 0.97149 0.0
C550 C 0.21523 0.0715 0.97562 0.0
C551 C 0.20453 0.06078 0.96584 0.0
C552 C 0.22367 0.06544 0.99016 0.0
H553 H 0.19498 0.03532 0.96216 0.0
C554 C 0.20268 0.04375 0.9702 0.0
C555 C 0.21161 0.03718 0.98404 0.0
C556 C 0.2215 0.0482 0.99439 0.0
C557 C 0.23575 0.07671 3e-05 0.0
H558 H 0.22809 0.04309 0.00525 0.0
C559 C 0.23309 0.09433 0.00135 0.0
C560 C 0.24521 0.1052 0.00931 0.0
C561 C 0.25053 0.07007 0.00745 0.0
H562 H 0.25341 0.05673 0.00635 0.0
C563 C 0.26225 0.08067 0.01593 0.0
H564 H 0.22163 0.09967 0.9961 0.0
C565 C 0.25972 0.0981 0.01676 0.0
H566 H 0.26946 0.10606 0.02273 0.0
H567 H 0.27361 0.0754 0.02145 0.0
H568 H 0.51523 0.75248 0.56179 0.0
C569 C 0.50882 0.75464 0.54982 0.0
C570 C 0.51561 0.76666 0.53866 0.0
C571 C 0.49431 0.74486 0.54527 0.0
H572 H 0.51302 0.77739 0.51372 0.0
C573 C 0.50747 0.76897 0.52291 0.0
C574 C 0.49302 0.75942 0.5182 0.0
C575 C 0.48637 0.74761 0.52948 0.0
C576 C 0.48823 0.73089 0.55633 0.0
H577 H 0.47513 0.74036 0.52573 0.0
C578 C 0.48937 0.7323 0.57415 0.0
C579 C 0.48443 0.7187 0.58443 0.0
C580 C 0.48183 0.71566 0.549 0.0
H581 H 0.48122 0.71381 0.53539 0.0
C582 C 0.4765 0.70235 0.55914 0.0
H583 H 0.49432 0.74386 0.58006 0.0
C584 C 0.47779 0.70381 0.57671 0.0
H585 H 0.47356 0.69326 0.58427 0.0
H586 H 0.47155 0.69076 0.55333 0.0
H587 H 0.93998 0.25702 0.07364 0.0
C588 C 0.9481 0.2544 0.06298 0.0
C589 C 0.94431 0.24057 0.05209 0.0
C590 C 0.96181 0.26536 0.05959 0.0
H591 H 0.95123 0.22728 0.02922 0.0
C592 C 0.95457 0.23752 0.03804 0.0
C593 C 0.96798 0.2486 0.03427 0.0
C594 C 0.9716 0.26245 0.04513 0.0
C595 C 0.9653 0.28051 0.07046 0.0
H596 H 0.98191 0.27111 0.04216 0.0
C597 C 0.96707 0.27906 0.08814 0.0
C598 C 0.97118 0.29339 0.09831 0.0
C599 C 0.96725 0.2965 0.06306 0.0
H600 H 0.96579 0.29796 0.04949 0.0
C601 C 0.97097 0.31079 0.07312 0.0
H602 H 0.9659 0.26669 0.09386 0.0
C603 C 0.97299 0.30928 0.09062 0.0
H604 H 0.97589 0.32056 0.09815 0.0
H605 H 0.97237 0.32307 0.06733 0.0
H606 H 0.03119 0.73326 0.42411 0.0
C607 C 0.02448 0.73113 0.43578 0.0
C608 C 0.02957 0.71792 0.44639 0.0
C609 C 0.0114 0.74212 0.44058 0.0
H610 H 0.02575 0.70613 0.47055 0.0
C611 C 0.02128 0.71562 0.46182 0.0
C612 C 0.00843 0.72655 0.46693 0.0
C613 C 0.00337 0.73958 0.45617 0.0
C614 C 0.00705 0.75697 0.42999 0.0
H615 H 0.99336 0.74792 0.46019 0.0
C616 C 0.00726 0.75584 0.41215 0.0
C617 C 0.00379 0.77008 0.4022 0.0
C618 C 0.00316 0.77262 0.43771 0.0
H619 H 0.00331 0.77415 0.45137 0.0
C620 C 0.99945 0.78668 0.42791 0.0
H621 H 0.00994 0.74384 0.40598 0.0
C622 C 0.99979 0.78547 0.41029 0.0
H623 H 0.9973 0.79672 0.403 0.0
H624 H 0.99657 0.79865 0.43401 0.0
H625 H 0.49663 0.2726 0.93672 0.0
C626 C 0.50257 0.27531 0.94893 0.0
C627 C 0.49541 0.28754 0.95965 0.0
C628 C 0.5169 0.26617 0.95419 0.0
H629 H 0.49621 0.29891 0.98457 0.0
C630 C 0.50247 0.29038 0.97588 0.0
C631 C 0.51658 0.28129 0.9815 0.0
C632 C 0.524 0.26959 0.97039 0.0
C633 C 0.52371 0.25227 0.94332 0.0
H634 H 0.53517 0.26292 0.97457 0.0
C635 C 0.52326 0.25327 0.92549 0.0
C636 C 0.52898 0.23977 0.9153 0.0
C637 C 0.53018 0.23752 0.95076 0.0
H638 H 0.53028 0.23596 0.96436 0.0
C639 C 0.5362 0.2243 0.94072 0.0
H640 H 0.51861 0.26458 0.91947 0.0
C641 C 0.53559 0.22536 0.92312 0.0
H642 H 0.53987 0.21468 0.91563 0.0
H643 H 0.54107 0.21303 0.94661 0.0
H644 H 0.57448 0.51471 0.76364 0.0
C645 C 0.56372 0.5069 0.7672 0.0
C646 C 0.55175 0.51352 0.77842 0.0
C647 C 0.56143 0.49057 0.75998 0.0
H648 H 0.52787 0.50891 0.79062 0.0
C649 C 0.53755 0.50359 0.78259 0.0
C650 C 0.53486 0.48751 0.7752 0.0
C651 C 0.54687 0.481 0.76404 0.0
C652 C 0.57359 0.48394 0.74737 0.0
H653 H 0.54473 0.46853 0.7584 0.0
C654 C 0.59122 0.48626 0.74977 0.0
C655 C 0.60267 0.48008 0.73769 0.0
C656 C 0.56755 0.47537 0.73268 0.0
H657 H 0.55408 0.47367 0.73027 0.0
C658 C 0.57881 0.46921 0.72071 0.0
H659 H 0.59602 0.49259 0.76117 0.0
C660 C 0.59623 0.47155 0.72314 0.0
H661 H 0.60463 0.46695 0.71343 0.0
H662 H 0.574 0.46275 0.7094 0.0
H663 H 0.10141 0.93376 0.23699 0.0
C664 C 0.09129 0.9426 0.23461 0.0
C665 C 0.07949 0.93923 0.22142 0.0
C666 C 0.08941 0.95681 0.24533 0.0
H667 H 0.05641 0.94728 0.20926 0.0
C668 C 0.06603 0.95038 0.21882 0.0
C669 C 0.06377 0.96434 0.22969 0.0
C670 C 0.07565 0.96762 0.24276 0.0
C671 C 0.1009 0.95971 0.26011 0.0
H672 H 0.07388 0.97835 0.25126 0.0
C673 C 0.1186 0.96006 0.2582 0.0
C674 C 0.12933 0.96392 0.27216 0.0
C675 C 0.09408 0.96266 0.27623 0.0
H676 H 0.08049 0.96226 0.27805 0.0
C677 C 0.10471 0.96611 0.29015 0.0
H678 H 0.12395 0.95805 0.24577 0.0
C679 C 0.12223 0.96686 0.28815 0.0
H680 H 0.13025 0.9697 0.29911 0.0
H681 H 0.09935 0.96835 0.30252 0.0
H682 H 0.42334 0.04307 0.73095 0.0
C683 C 0.43498 0.0365 0.72827 0.0
C684 C 0.44887 0.04571 0.72209 0.0
C685 C 0.43653 0.01911 0.73193 0.0
H686 H 0.47495 0.04476 0.71468 0.0
C687 C 0.46417 0.03749 0.71917 0.0
C688 C 0.46596 0.02025 0.72255 0.0
C689 C 0.45212 0.0111 0.72887 0.0
C690 C 0.42234 0.00953 0.73985 0.0
H691 H 0.45355 0.99773 0.73139 0.0
C692 C 0.40527 0.0125 0.73532 0.0
C693 C 0.39196 0.0036 0.74317 0.0
C694 C 0.42585 0.99751 0.75239 0.0
H695 H 0.43873 0.99519 0.75656 0.0
C696 C 0.41275 0.98856 0.76005 0.0
H697 H 0.40234 0.02155 0.72555 0.0
C698 C 0.39595 0.99158 0.75553 0.0
H699 H 0.38604 0.98476 0.76206 0.0
H700 H 0.41564 0.97943 0.76973 0.0
H701 H 0.93664 0.47173 0.26207 0.0
C702 C 0.94843 0.47861 0.26455 0.0
C703 C 0.95999 0.47243 0.27654 0.0
C704 C 0.95233 0.49332 0.25541 0.0
H705 H 0.98474 0.47549 0.28794 0.0
C706 C 0.97554 0.48089 0.27929 0.0
C707 C 0.97987 0.49533 0.27004 0.0
C708 C 0.96806 0.50162 0.2583 0.0
C709 C 0.94039 0.49958 0.24228 0.0
H710 H 0.97119 0.51294 0.25131 0.0
C711 C 0.92286 0.50024 0.24532 0.0
C712 C 0.9116 0.50639 0.23292 0.0
C713 C 0.9465 0.50498 0.22657 0.0
H714 H 0.95987 0.50436 0.22374 0.0
C715 C 0.93539 0.511 0.21422 0.0
H716 H 0.91805 0.4964 0.25749 0.0
C717 C 0.91806 0.51173 0.21734 0.0
H718 H 0.90969 0.51629 0.20747 0.0
H719 H 0.94022 0.51504 0.20214 0.0
C720 C 0.13306 0.51718 0.2908 0.0
C721 C 0.14 0.50114 0.28767 0.0
C722 C 0.11592 0.52012 0.28732 0.0
C723 C 0.07851 0.5024 0.26364 0.0
H724 H 0.05274 0.52633 0.29767 0.0
C725 C 0.00585 0.50344 0.28726 0.0
C726 C 0.99735 0.50257 0.27148 0.0
C727 C 0.02318 0.50726 0.28826 0.0
C728 C 0.05975 0.51964 0.28803 0.0
H729 H 0.13443 0.47568 0.27819 0.0
H730 H 0.1046 0.48071 0.27237 0.0
H731 H 0.08344 0.52446 0.30091 0.0
H732 H 0.00022 0.50624 0.24448 0.0
H733 H 0.03031 0.51347 0.24628 0.0
H734 H 0.05483 0.49673 0.25124 0.0
C735 C 0.11241 0.49113 0.27725 0.0
C736 C 0.07738 0.51872 0.28979 0.0
C737 C 0.12951 0.4882 0.28071 0.0
C738 C 0.00633 0.50685 0.25686 0.0
C739 C 0.02365 0.51077 0.25786 0.0
C740 C 0.06091 0.50326 0.26191 0.0
C741 C 0.10536 0.50708 0.28063 0.0
C742 C 0.08692 0.50974 0.27781 0.0
C743 C 0.03242 0.51042 0.2735 0.0
C744 C 0.05126 0.51157 0.27427 0.0
H745 H 0.14082 0.52744 0.29612 0.0
H746 H 0.11094 0.5326 0.2899 0.0
H747 H 0.0855 0.49563 0.25404 0.0
H748 H 0.99924 0.50048 0.29881 0.0
H749 H 0.02949 0.50678 0.30052 0.0
C750 C 0.38556 0.45936 0.80316 0.0
C751 C 0.37626 0.46516 0.78912 0.0
C752 C 0.40314 0.45761 0.8023 0.0
C753 C 0.43892 0.45308 0.77359 0.0
H754 H 0.46424 0.47983 0.80716 0.0
C755 C 0.50796 0.4748 0.7635 0.0
C756 C 0.51841 0.47869 0.77759 0.0
C757 C 0.4912 0.4694 0.76568 0.0
C758 C 0.45752 0.4719 0.79791 0.0
H759 H 0.37793 0.47285 0.76293 0.0
H760 H 0.40863 0.46943 0.76135 0.0
H761 H 0.43368 0.47688 0.80945 0.0
H762 H 0.52009 0.4789 0.80497 0.0
H763 H 0.4911 0.46858 0.8089 0.0
H764 H 0.46269 0.44794 0.76205 0.0
C765 C 0.40231 0.46637 0.77303 0.0
C766 C 0.43994 0.47031 0.7992 0.0
C767 C 0.38477 0.46842 0.77397 0.0
C768 C 0.51219 0.47605 0.79391 0.0
C769 C 0.49553 0.47032 0.79612 0.0
C770 C 0.45657 0.45439 0.77245 0.0
C771 C 0.41169 0.4613 0.78729 0.0
C772 C 0.43044 0.46121 0.78686 0.0
C773 C 0.48459 0.46751 0.78205 0.0
C774 C 0.4661 0.46417 0.78437 0.0
H775 H 0.37936 0.45677 0.81502 0.0
H776 H 0.4101 0.45363 0.81345 0.0
H777 H 0.43186 0.44585 0.76399 0.0
H778 H 0.51243 0.47695 0.75078 0.0
H779 H 0.48322 0.46764 0.75451 0.0
C780 C 0.61487 0.02585 0.72141 0.0
C781 C 0.62524 0.0142 0.71301 0.0
C782 C 0.59769 0.02221 0.72375 0.0
C783 C 0.56249 0.99746 0.70485 0.0
H784 H 0.53925 0.01176 0.74546 0.0
C785 C 0.49046 0.00399 0.73419 0.0
C786 C 0.48283 0.01247 0.72061 0.0
C787 C 0.5076 0.9997 0.73361 0.0
C788 C 0.54554 0.00739 0.73413 0.0
H789 H 0.62578 0.98936 0.70088 0.0
H790 H 0.59571 0.98303 0.70494 0.0
H791 H 0.57013 0.01303 0.74481 0.0
H792 H 0.48665 0.02191 0.6953 0.0
H793 H 0.51648 0.01445 0.69425 0.0
H794 H 0.53786 0.99222 0.69404 0.0
C795 C 0.6009 0.99502 0.70963 0.0
C796 C 0.56323 0.00832 0.7337 0.0
C797 C 0.61813 0.99863 0.70738 0.0
C798 C 0.49228 0.01547 0.70598 0.0
C799 C 0.50934 0.01108 0.70535 0.0
C800 C 0.54478 0.9966 0.70526 0.0
C801 C 0.59045 0.00686 0.71768 0.0
C802 C 0.57188 0.00377 0.71891 0.0
C803 C 0.51735 0.00368 0.71939 0.0
C804 C 0.53609 0.00195 0.71977 0.0
H805 H 0.61994 0.03797 0.7259 0.0
H806 H 0.58995 0.0317 0.72981 0.0
H807 H 0.56876 0.99394 0.69323 0.0
H808 H 0.48348 0.00161 0.74565 0.0
H809 H 0.51338 0.99382 0.74454 0.0
C810 C 0.91257 0.98436 0.21664 0.0
C811 C 0.90701 0.9736 0.22953 0.0
C812 C 0.92966 0.98927 0.21583 0.0
C813 C 0.96887 0.99473 0.24022 0.0
H814 H 0.99205 0.97609 0.20137 0.0
C815 C 0.03799 0.97512 0.24385 0.0
C816 C 0.04759 0.9736 0.2291 0.0
C817 C 0.02135 0.98078 0.243 0.0
C818 C 0.98588 0.9819 0.2121 0.0
H819 H 0.91464 0.96019 0.25209 0.0
H820 H 0.94438 0.96919 0.25096 0.0
H821 H 0.96124 0.97585 0.2017 0.0
H822 H 0.04787 0.97805 0.20211 0.0
H823 H 0.01893 0.98865 0.20065 0.0
H824 H 0.99337 0.00073 0.25075 0.0
C825 C 0.93557 0.97366 0.24142 0.0
C826 C 0.96818 0.98165 0.21229 0.0
C827 C 0.91862 0.96842 0.24198 0.0
C828 C 0.04065 0.97899 0.21364 0.0
C829 C 0.02404 0.98493 0.21282 0.0
C830 C 0.98657 0.99533 0.2399 0.0
C831 C 0.94127 0.98387 0.22818 0.0
C832 C 0.95959 0.98744 0.22662 0.0
C833 C 0.01394 0.98528 0.22739 0.0
C834 C 0.99534 0.98821 0.22616 0.0
H835 H 0.90386 0.98849 0.20685 0.0
H836 H 0.93385 0.99707 0.20548 0.0
H837 H 0.96244 0.99941 0.25134 0.0
H838 H 0.04293 0.97083 0.2559 0.0
H839 H 0.01401 0.98054 0.25448 0.0
C840 C 0.30501 0.12002 0.51376 0.0
C841 C 0.31118 0.13199 0.52577 0.0
C842 C 0.30516 0.10274 0.51728 0.0
C843 C 0.30602 0.07156 0.55104 0.0
H844 H 0.32427 0.04241 0.51599 0.0
C845 C 0.29291 0.99935 0.54366 0.0
C846 C 0.30574 0.98932 0.53673 0.0
C847 C 0.29555 0.01678 0.54621 0.0
C848 C 0.31937 0.05036 0.52604 0.0
H849 H 0.32181 0.13525 0.55114 0.0
H850 H 0.32183 0.10491 0.55737 0.0
H851 H 0.32434 0.07295 0.5122 0.0
H852 H 0.33192 0.98926 0.52882 0.0
H853 H 0.33655 0.01967 0.53335 0.0
H854 H 0.30067 0.04878 0.56467 0.0
C855 C 0.31697 0.10899 0.54521 0.0
C856 C 0.31922 0.06784 0.52376 0.0
C857 C 0.31701 0.12632 0.54161 0.0
C858 C 0.32173 0.99675 0.53393 0.0
C859 C 0.32436 0.01414 0.53647 0.0
C860 C 0.306 0.05397 0.55325 0.0
C861 C 0.31133 0.09704 0.53295 0.0
C862 C 0.31234 0.0786 0.5361 0.0
C863 C 0.31105 0.02446 0.54187 0.0
C864 C 0.31254 0.04318 0.54068 0.0
H865 H 0.3004 0.12395 0.50145 0.0
H866 H 0.30052 0.0938 0.50769 0.0
H867 H 0.30062 0.0796 0.56074 0.0
H868 H 0.28042 0.994 0.54583 0.0
H869 H 0.28503 0.02441 0.55033 0.0
C870 C 0.21798 0.88198 0.00145 0.0
C871 C 0.22328 0.87451 0.98616 0.0
C872 C 0.2168 0.89962 0.00308 0.0
C873 C 0.20908 0.93647 0.97707 0.0
H874 H 0.22836 0.96364 0.01411 0.0
C875 C 0.21535 0.00819 0.97193 0.0
C876 C 0.21228 0.01855 0.98615 0.0
C877 C 0.21614 0.99067 0.97342 0.0
C878 C 0.22266 0.9562 0.00384 0.0
H879 H 0.23208 0.87974 0.96082 0.0
H880 H 0.22984 0.91041 0.96362 0.0
H881 H 0.23124 0.93272 0.01419 0.0
H882 H 0.20803 0.0187 0.01319 0.0
H883 H 0.20915 0.98774 0.01581 0.0
H884 H 0.20031 0.95963 0.96672 0.0
C885 C 0.22653 0.90262 0.97431 0.0
C886 C 0.22437 0.93853 0.00386 0.0
C887 C 0.2279 0.88506 0.97275 0.0
C888 C 0.21034 0.01098 0.00202 0.0
C889 C 0.21104 0.9933 0.00351 0.0
C890 C 0.20721 0.954 0.97713 0.0
C891 C 0.22069 0.91006 0.98937 0.0
C892 C 0.21793 0.92858 0.99026 0.0
C893 C 0.2138 0.98294 0.98915 0.0
C894 C 0.21434 0.96415 0.99027 0.0
H895 H 0.21437 0.87418 0.01203 0.0
H896 H 0.21224 0.90506 0.01481 0.0
H897 H 0.20365 0.92904 0.96663 0.0
H898 H 0.21738 0.01368 0.95961 0.0
H899 H 0.21881 0.98317 0.96219 0.0
C900 C 0.79789 0.37292 0.46784 0.0
C901 C 0.78436 0.36586 0.47689 0.0
C902 C 0.79759 0.38989 0.46299 0.0
C903 C 0.77029 0.42629 0.45553 0.0
H904 H 0.80783 0.45331 0.47394 0.0
C905 C 0.76547 0.49803 0.46766 0.0
C906 C 0.78024 0.50814 0.46844 0.0
C907 C 0.76641 0.48062 0.4644 0.0
C908 C 0.79744 0.44603 0.46825 0.0
H909 H 0.75954 0.37074 0.48717 0.0
H910 H 0.75887 0.40031 0.47835 0.0
H911 H 0.80847 0.42263 0.4758 0.0
H912 H 0.80743 0.50836 0.46524 0.0
H913 H 0.80909 0.47809 0.45864 0.0
H914 H 0.75922 0.4496 0.44789 0.0
C915 C 0.76974 0.39273 0.47514 0.0
C916 C 0.79779 0.4284 0.46943 0.0
C917 C 0.77017 0.37585 0.48027 0.0
C918 C 0.79587 0.50077 0.46478 0.0
C919 C 0.7968 0.4834 0.46119 0.0
C920 C 0.77006 0.44394 0.45404 0.0
C921 C 0.78361 0.4 0.4668 0.0
C922 C 0.78405 0.41841 0.46347 0.0
C923 C 0.78216 0.47296 0.46159 0.0
C924 C 0.78343 0.4541 0.46082 0.0
H925 H 0.80901 0.36554 0.46508 0.0
H926 H 0.80841 0.39521 0.45654 0.0
H927 H 0.7596 0.41881 0.45069 0.0
H928 H 0.75328 0.50337 0.47067 0.0
H929 H 0.75487 0.4731 0.4651 0.0
C930 C 0.69485 0.62297 0.00044 0.0
C931 C 0.70035 0.62977 0.01618 0.0
C932 C 0.69849 0.60621 0.9959 0.0
C933 C 0.72616 0.57028 0.00723 0.0
H934 H 0.68885 0.54223 0.98989 0.0
C935 C 0.70403 0.49738 0.01276 0.0
C936 C 0.71987 0.48959 0.01138 0.0
C937 C 0.70198 0.51419 0.00793 0.0
C938 C 0.69943 0.5499 0.99464 0.0
H939 H 0.71434 0.62444 0.03932 0.0
H940 H 0.72053 0.5953 0.03152 0.0
H941 H 0.68536 0.57281 0.99272 0.0
H942 H 0.74554 0.49283 0.00238 0.0
H943 H 0.74181 0.522 0.99346 0.0
H944 H 0.73988 0.54739 0.01021 0.0
C945 C 0.71359 0.60292 0.02255 0.0
C946 C 0.69749 0.56746 0.99611 0.0
C947 C 0.70992 0.61962 0.02709 0.0
C948 C 0.73317 0.49845 0.00361 0.0
C949 C 0.73109 0.51525 0.99869 0.0
C950 C 0.72808 0.55277 0.00581 0.0
C951 C 0.70778 0.59595 0.00698 0.0
C952 C 0.71066 0.57777 0.00294 0.0
C953 C 0.7157 0.52356 0.00151 0.0
C954 C 0.71457 0.54229 -1e-05 0.0
H955 H 0.68747 0.63049 0.99173 0.0
H956 H 0.69396 0.60125 0.98376 0.0
H957 H 0.73665 0.57792 0.01225 0.0
H958 H 0.69347 0.49078 0.01846 0.0
H959 H 0.68996 0.52014 0.01035 0.0
C960 C 0.52061 0.29874 0.13618 0.0
C961 C 0.50402 0.29475 0.14121 0.0
C962 C 0.52552 0.29599 0.11941 0.0
C963 C 0.51282 0.27286 0.07979 0.0
H964 H 0.53854 0.3083 0.05776 0.0
C965 C 0.52566 0.26793 0.00877 0.0
C966 C 0.52205 0.28263 0.99961 0.0
C967 C 0.52762 0.26868 0.02639 0.0
C968 C 0.53137 0.29828 0.06373 0.0
H969 H 0.47963 0.28455 0.13264 0.0
H970 H 0.48807 0.28001 0.10344 0.0
H971 H 0.53302 0.31066 0.08802 0.0
H972 H 0.51921 0.30988 0.00166 0.0
H973 H 0.52204 0.31113 0.03238 0.0
H974 H 0.5103 0.26093 0.05543 0.0
C975 C 0.49742 0.28499 0.11246 0.0
C976 C 0.52836 0.29954 0.08112 0.0
C977 C 0.49253 0.28771 0.1292 0.0
C978 C 0.52167 0.29827 0.00836 0.0
C979 C 0.5235 0.29901 0.02599 0.0
C980 C 0.51576 0.27164 0.06243 0.0
C981 C 0.51393 0.28919 0.10732 0.0
C982 C 0.51872 0.28702 0.08928 0.0
C983 C 0.5259 0.28413 0.03528 0.0
C984 C 0.52478 0.28449 0.05409 0.0
H985 H 0.52978 0.30414 0.14514 0.0
H986 H 0.53838 0.29919 0.11591 0.0
H987 H 0.5056 0.26285 0.08572 0.0
H988 H 0.52597 0.25564 0.00249 0.0
H989 H 0.52982 0.25703 0.0331 0.0
C990 C 0.98359 0.24151 0.88463 0.0
C991 C 0.99202 0.22807 0.87669 0.0
C992 C 0.98516 0.24414 0.90213 0.0
C993 C 0.98973 0.22149 0.94072 0.0
H994 H 0.00162 0.26492 0.9616 0.0
C995 C 0.9832 0.23133 0.01256 0.0
C996 C 0.97656 0.24691 0.01781 0.0
C997 C 0.98908 0.22916 0.99606 0.0
C998 C 0.9981 0.25274 0.95601 0.0
H999 H 0.0088 0.20693 0.88075 0.0
H1000 H 0.01101 0.21121 0.91152 0.0
H1001 H 0.00381 0.26114 0.93096 0.0
H1002 H 0.97114 0.27253 0.01021 0.0
H1003 H 0.98065 0.26867 0.98131 0.0
H1004 H 0.98285 0.21329 0.96532 0.0
C1005 C 0.00346 0.21983 0.9041 0.0
C1006 C 0.99949 0.25058 0.93848 0.0
C1007 C 0.00221 0.21743 0.88654 0.0
C1008 C 0.97644 0.26046 0.00651 0.0
C1009 C 0.98198 0.25822 0.98993 0.0
C1010 C 0.98798 0.22373 0.95818 0.0
C1011 C 0.99488 0.23316 0.91203 0.0
C1012 C 0.99509 0.23502 0.93068 0.0
C1013 C 0.98805 0.24242 0.98433 0.0
C1014 C 0.99186 0.23949 0.96606 0.0
H1015 H 0.9757 0.24994 0.87733 0.0
H1016 H 0.97831 0.25442 0.90802 0.0
H1017 H 0.98612 0.20941 0.93493 0.0
H1018 H 0.98348 0.22072 0.02112 0.0
H1019 H 0.99405 0.21695 0.9924 0.0
C1020 C 0.4821 0.76308 0.36452 0.0
C1021 C 0.47563 0.77824 0.3582 0.0
C1022 C 0.48115 0.75953 0.38177 0.0
C1023 C 0.46166 0.77438 0.42241 0.0
H1024 H 0.49986 0.75098 0.44219 0.0
C1025 C 0.48271 0.77616 0.49345 0.0
C1026 C 0.48625 0.7604 0.50066 0.0
C1027 C 0.47857 0.7772 0.47621 0.0
C1028 C 0.48902 0.75737 0.43679 0.0
H1029 H 0.46295 0.80152 0.36487 0.0
H1030 H 0.46207 0.79584 0.39504 0.0
H1031 H 0.49852 0.75502 0.41175 0.0
H1032 H 0.48788 0.73339 0.49573 0.0
H1033 H 0.48103 0.73529 0.46547 0.0
H1034 H 0.45286 0.77753 0.44788 0.0
C1035 C 0.46735 0.78632 0.38671 0.0
C1036 C 0.48815 0.75961 0.4193 0.0
C1037 C 0.46795 0.78967 0.36939 0.0
C1038 C 0.48503 0.74566 0.49049 0.0
C1039 C 0.48122 0.74674 0.47321 0.0
C1040 C 0.46274 0.77243 0.43999 0.0
C1041 C 0.47409 0.77126 0.3932 0.0
C1042 C 0.47449 0.7682 0.41182 0.0
C1043 C 0.47827 0.76255 0.46588 0.0
C1044 C 0.47645 0.76393 0.44729 0.0
H1045 H 0.48792 0.75395 0.35612 0.0
H1046 H 0.48608 0.7476 0.38613 0.0
H1047 H 0.45076 0.78076 0.41717 0.0
H1048 H 0.4836 0.78769 0.50106 0.0
H1049 H 0.47644 0.78954 0.47078 0.0
C1050 C 0.99464 0.69079 0.6146 0.0
C1051 C 0.00459 0.701 0.62568 0.0
C1052 C 0.99226 0.69538 0.5977 0.0
C1053 C 0.01152 0.72299 0.56511 0.0
H1054 H 0.97171 0.7088 0.53885 0.0
C1055 C 0.00342 0.74009 0.49513 0.0
C1056 C 0.00218 0.72568 0.48449 0.0
C1057 C 0.00074 0.73872 0.51251 0.0
C1058 C 0.98284 0.71289 0.5461 0.0
H1059 H 0.01913 0.72443 0.6281 0.0
H1060 H 0.01428 0.73295 0.59892 0.0
H1061 H 0.97272 0.70394 0.56936 0.0
H1062 H 0.99611 0.69883 0.48338 0.0
H1063 H 0.991 0.6965 0.51383 0.0
H1064 H 0.02145 0.73216 0.54183 0.0
C1065 C 0.00887 0.72102 0.60297 0.0
C1066 C 0.98353 0.71 0.56355 0.0
C1067 C 0.01157 0.71622 0.61975 0.0
C1068 C 0.99712 0.71011 0.49135 0.0
C1069 C 0.99415 0.7088 0.5087 0.0
C1070 C 0.01066 0.72617 0.54778 0.0
C1071 C 0.99949 0.71048 0.59158 0.0
C1072 C 0.99802 0.71476 0.57326 0.0
C1073 C 0.99651 0.72298 0.51949 0.0
C1074 C 0.99644 0.72094 0.53808 0.0
H1075 H 0.98919 0.67893 0.61881 0.0
H1076 H 0.98521 0.68675 0.58936 0.0
H1077 H 0.02307 0.72651 0.57195 0.0
H1078 H 0.00748 0.75221 0.49019 0.0
H1079 H 0.00258 0.74983 0.5206 0.0
C1080 C 0.88221 0.44818 0.6998 0.0
C1081 C 0.87456 0.46167 0.7085 0.0
C1082 C 0.89949 0.44502 0.7021 0.0
C1083 C 0.939 0.4673 0.71554 0.0
H1084 H 0.9583 0.42239 0.71332 0.0
C1085 C 0.01049 0.4592 0.7219 0.0
C1086 C 0.01788 0.44932 0.70911 0.0
C1087 C 0.99304 0.45844 0.72445 0.0
C1088 C 0.95307 0.435 0.71393 0.0
H1089 H 0.87883 0.48183 0.7271 0.0
H1090 H 0.90881 0.47608 0.73143 0.0
H1091 H 0.92747 0.4255 0.71304 0.0
H1092 H 0.01302 0.43006 0.68975 0.0
H1093 H 0.98236 0.42876 0.69415 0.0
H1094 H 0.96447 0.47685 0.71621 0.0
C1095 C 0.90161 0.46821 0.72248 0.0
C1096 C 0.93543 0.4368 0.71373 0.0
C1097 C 0.88438 0.47146 0.72007 0.0
C1098 C 0.00764 0.43775 0.69974 0.0
C1099 C 0.9901 0.43703 0.70227 0.0
C1100 C 0.95656 0.4655 0.71583 0.0
C1101 C 0.90948 0.4552 0.71324 0.0
C1102 C 0.92818 0.453 0.71442 0.0
C1103 C 0.98256 0.44784 0.71423 0.0
C1104 C 0.96383 0.44936 0.71494 0.0
H1105 H 0.87498 0.44041 0.69077 0.0
H1106 H 0.90512 0.43501 0.69464 0.0
H1107 H 0.93394 0.47998 0.71568 0.0
H1108 H 0.01815 0.46804 0.72948 0.0
H1109 H 0.98767 0.46664 0.73404 0.0
C1110 C 0.58813 0.58402 0.19775 0.0
C1111 C 0.59783 0.57629 0.21048 0.0
C1112 C 0.57042 0.58309 0.19795 0.0
C1113 C 0.53589 0.55667 0.21493 0.0
H1114 H 0.50711 0.59327 0.20024 0.0
C1115 C 0.46404 0.54903 0.21676 0.0
C1116 C 0.45534 0.55298 0.20172 0.0
C1117 C 0.48074 0.55456 0.21948 0.0
C1118 C 0.51501 0.58294 0.20432 0.0
H1119 H 0.59654 0.56212 0.23378 0.0
H1120 H 0.56571 0.56077 0.23431 0.0
H1121 H 0.53788 0.59766 0.20188 0.0
H1122 H 0.45679 0.56673 0.17823 0.0
H1123 H 0.48618 0.57637 0.1829 0.0
H1124 H 0.51319 0.54187 0.21719 0.0
C1125 C 0.57176 0.56722 0.22394 0.0
C1126 C 0.53262 0.58542 0.20523 0.0
C1127 C 0.58945 0.56806 0.22368 0.0
C1128 C 0.46323 0.56359 0.18996 0.0
C1129 C 0.48003 0.56908 0.19265 0.0
C1130 C 0.51836 0.55422 0.21409 0.0
C1131 C 0.56202 0.57447 0.21093 0.0
C1132 C 0.54326 0.57227 0.21049 0.0
C1133 C 0.48915 0.56408 0.20716 0.0
C1134 C 0.5077 0.56729 0.20874 0.0
H1135 H 0.59422 0.59046 0.18739 0.0
H1136 H 0.56333 0.58866 0.18764 0.0
H1137 H 0.54369 0.54613 0.21865 0.0
H1138 H 0.45813 0.54107 0.22613 0.0
H1139 H 0.48729 0.55085 0.23096 0.0
C1140 C 0.40265 0.06157 0.31243 0.0
C1141 C 0.39887 0.06947 0.32796 0.0
C1142 C 0.41946 0.05955 0.3076 0.0
C1143 C 0.46373 0.07391 0.31699 0.0
H1144 H 0.47468 0.02966 0.29858 0.0
C1145 C 0.53147 0.04653 0.31579 0.0
C1146 C 0.5355 0.03562 0.30227 0.0
C1147 C 0.51524 0.05335 0.31686 0.0
C1148 C 0.47184 0.0422 0.3034 0.0
H1149 H 0.40976 0.08182 0.35041 0.0
H1150 H 0.43911 0.078 0.34212 0.0
H1151 H 0.44539 0.03626 0.30445 0.0
H1152 H 0.52636 0.02446 0.27855 0.0
H1153 H 0.49814 0.03654 0.28026 0.0
H1154 H 0.49037 0.07961 0.31631 0.0
C1155 C 0.42908 0.07359 0.33355 0.0
C1156 C 0.45501 0.04599 0.30678 0.0
C1157 C 0.41225 0.07567 0.33836 0.0
C1158 C 0.52346 0.03263 0.28924 0.0
C1159 C 0.50731 0.03949 0.29026 0.0
C1160 C 0.48063 0.0701 0.31362 0.0
C1161 C 0.43289 0.06531 0.31821 0.0
C1162 C 0.45074 0.06183 0.31374 0.0
C1163 C 0.50281 0.0494 0.30439 0.0
C1164 C 0.48487 0.05415 0.30689 0.0
H1165 H 0.39263 0.05678 0.30406 0.0
H1166 H 0.42195 0.05336 0.29557 0.0
H1167 H 0.46083 0.08631 0.32217 0.0
H1168 H 0.5405 0.04895 0.32604 0.0
H1169 H 0.51215 0.06086 0.32795 0.0
C1170 C 0.10311 0.97191 0.76553 0.0
C1171 C 0.1091 0.98625 0.75695 0.0
C1172 C 0.08592 0.96727 0.76469 0.0
C1173 C 0.04595 0.97359 0.74056 0.0
H1174 H 0.02448 0.96693 0.78387 0.0
C1175 C 0.97555 0.98614 0.75143 0.0
C1176 C 0.9668 0.97735 0.76404 0.0
C1177 C 0.99262 0.98303 0.7485 0.0
C1178 C 0.03024 0.96833 0.77159 0.0
H1179 H 0.10185 0.00656 0.74022 0.0
H1180 H 0.07193 0.99843 0.7387 0.0
H1181 H 0.05521 0.96941 0.7826 0.0
H1182 H 0.96875 0.95751 0.78262 0.0
H1183 H 0.99859 0.95173 0.77723 0.0
H1184 H 0.02097 0.97286 0.72958 0.0
C1185 C 0.08051 0.99074 0.74604 0.0
C1186 C 0.0479 0.96981 0.77089 0.0
C1187 C 0.09765 0.99547 0.74701 0.0
C1188 C 0.97516 0.96448 0.77281 0.0
C1189 C 0.99231 0.96132 0.76985 0.0
C1190 C 0.02829 0.97197 0.74124 0.0
C1191 C 0.0744 0.97677 0.7551 0.0
C1192 C 0.05591 0.97292 0.75543 0.0
C1193 C 0.00139 0.97096 0.75805 0.0
C1194 C 0.02018 0.96982 0.75684 0.0
H1195 H 0.1116 0.96452 0.77329 0.0
H1196 H 0.08161 0.95637 0.7717 0.0
H1197 H 0.05179 0.9757 0.72842 0.0
H1198 H 0.96936 0.996 0.74432 0.0
H1199 H 0.99916 0.99081 0.7394 0.0
C1200 C 0.70441 0.88668 0.44616 0.0
C1201 C 0.7143 0.87883 0.45867 0.0
C1202 C 0.70553 0.90421 0.44391 0.0
C1203 C 0.71702 0.94291 0.46813 0.0
H1204 H 0.71216 0.96502 0.42479 0.0
C1205 C 0.71623 0.01494 0.46557 0.0
C1206 C 0.70291 0.02179 0.45605 0.0
C1207 C 0.72057 0.99799 0.46343 0.0
C1208 C 0.71349 0.95901 0.43698 0.0
H1209 H 0.73382 0.88309 0.47797 0.0
H1210 H 0.73596 0.91358 0.47387 0.0
H1211 H 0.71433 0.93412 0.42575 0.0
H1212 H 0.68432 0.01676 0.43611 0.0
H1213 H 0.69168 0.98686 0.43249 0.0
H1214 H 0.71576 0.96756 0.47945 0.0
C1215 C 0.72706 0.90626 0.46605 0.0
C1216 C 0.71472 0.94132 0.43753 0.0
C1217 C 0.72588 0.88876 0.46835 0.0
C1218 C 0.69472 0.01173 0.44351 0.0
C1219 C 0.69895 0.99464 0.44146 0.0
C1220 C 0.7158 0.9605 0.46758 0.0
C1221 C 0.71661 0.91426 0.45408 0.0
C1222 C 0.71638 0.93307 0.45315 0.0
C1223 C 0.7115 0.98744 0.45187 0.0
C1224 C 0.71393 0.96879 0.45203 0.0
H1225 H 0.69536 0.87937 0.43848 0.0
H1226 H 0.69719 0.90996 0.43469 0.0
H1227 H 0.71788 0.93698 0.4804 0.0
H1228 H 0.72281 0.02255 0.47522 0.0
H1229 H 0.73057 0.99295 0.47135 0.0
C1230 C 0.75656 0.07732 0.97209 0.0
C1231 C 0.76811 0.08554 0.96149 0.0
C1232 C 0.75641 0.05968 0.97332 0.0
C1233 C 0.7719 0.01999 0.95316 0.0
H1234 H 0.76856 0.00298 0.99884 0.0
C1235 C 0.79342 0.95327 0.97387 0.0
C1236 C 0.78422 0.94533 0.9867 0.0
C1237 C 0.78908 0.9695 0.96854 0.0
C1238 C 0.76921 0.00745 0.98595 0.0
H1239 H 0.78825 0.08167 0.94348 0.0
H1240 H 0.78826 0.0509 0.94593 0.0
H1241 H 0.76552 0.03307 0.99394 0.0
H1242 H 0.76242 0.94737 0.00294 0.0
H1243 H 0.75471 0.97557 0.99353 0.0
H1244 H 0.77611 0.99424 0.94534 0.0
C1245 C 0.77911 0.05805 0.95308 0.0
C1246 C 0.76746 0.02474 0.98313 0.0
C1247 C 0.77918 0.07571 0.95177 0.0
C1248 C 0.7699 0.95336 0.99323 0.0
C1249 C 0.76553 0.96951 0.98788 0.0
C1250 C 0.77372 0.00262 0.95601 0.0
C1251 C 0.7679 0.04985 0.96409 0.0
C1252 C 0.76888 0.03126 0.96673 0.0
C1253 C 0.77542 0.97801 0.97593 0.0
C1254 C 0.77247 0.99619 0.97246 0.0
H1255 H 0.74774 0.08452 0.97962 0.0
H1256 H 0.74739 0.05375 0.98167 0.0
H1257 H 0.77288 0.02457 0.94035 0.0
H1258 H 0.80457 0.94738 0.96869 0.0
H1259 H 0.797 0.97575 0.95937 0.0
C1260 C 0.21206 0.60921 0.55412 0.0
C1261 C 0.22398 0.6174 0.54388 0.0
C1262 C 0.21347 0.59193 0.55754 0.0
C1263 C 0.23205 0.55354 0.53883 0.0
H1264 H 0.21683 0.53235 0.58007 0.0
C1265 C 0.23194 0.48176 0.54351 0.0
C1266 C 0.21642 0.47456 0.54838 0.0
C1267 C 0.2355 0.49889 0.54667 0.0
C1268 C 0.22113 0.53811 0.56849 0.0
H1269 H 0.24732 0.6142 0.53012 0.0
H1270 H 0.25006 0.58424 0.53645 0.0
H1271 H 0.21837 0.56331 0.57853 0.0
H1272 H 0.19298 0.47916 0.56146 0.0
H1273 H 0.19908 0.5093 0.56687 0.0
H1274 H 0.23448 0.52853 0.52863 0.0
C1275 C 0.23933 0.59099 0.54144 0.0
C1276 C 0.22197 0.55583 0.56758 0.0
C1277 C 0.23782 0.6082 0.53787 0.0
C1278 C 0.20508 0.48444 0.55768 0.0
C1279 C 0.20859 0.50167 0.56076 0.0
C1280 C 0.23128 0.53592 0.53978 0.0
C1281 C 0.22692 0.58252 0.55091 0.0
C1282 C 0.22727 0.56376 0.55265 0.0
C1283 C 0.22352 0.50923 0.55462 0.0
C1284 C 0.22567 0.52797 0.55453 0.0
H1285 H 0.20124 0.61596 0.55893 0.0
H1286 H 0.2036 0.58582 0.56474 0.0
H1287 H 0.23579 0.55913 0.52698 0.0
H1288 H 0.24094 0.47432 0.53644 0.0
H1289 H 0.24728 0.50425 0.54213 0.0
C1290 C 0.29946 0.40743 0.03122 0.0
C1291 C 0.28903 0.398 0.01986 0.0
C1292 C 0.29817 0.42507 0.03237 0.0
C1293 C 0.28368 0.46099 0.00673 0.0
H1294 H 0.29255 0.48714 0.04799 0.0
C1295 C 0.2818 0.53322 0.00605 0.0
C1296 C 0.29624 0.54151 0.013 0.0
C1297 C 0.27852 0.51619 0.00942 0.0
C1298 C 0.29006 0.47998 0.03639 0.0
H1299 H 0.2684 0.39954 0.00152 0.0
H1300 H 0.26579 0.43019 0.00386 0.0
H1301 H 0.29096 0.45617 0.04907 0.0
H1302 H 0.31793 0.53881 0.02985 0.0
H1303 H 0.3122 0.50893 0.03578 0.0
H1304 H 0.28294 0.48467 0.99401 0.0
C1305 C 0.27533 0.42407 0.01153 0.0
C1306 C 0.2892 0.46225 0.03697 0.0
C1307 C 0.27675 0.40647 0.01025 0.0
C1308 C 0.30667 0.53276 0.02438 0.0
C1309 C 0.30339 0.51565 0.02776 0.0
C1310 C 0.28441 0.47864 0.00617 0.0
C1311 C 0.28631 0.43365 0.02229 0.0
C1312 C 0.28614 0.45253 0.0221 0.0
C1313 C 0.28961 0.50705 0.01982 0.0
C1314 C 0.28774 0.48835 0.02095 0.0
H1315 H 0.30907 0.40127 0.03878 0.0
H1316 H 0.30695 0.43201 0.04066 0.0
H1317 H 0.28171 0.45398 0.99495 0.0
H1318 H 0.27338 0.53976 0.99746 0.0
H1319 H 0.26761 0.51001 0.00341 0.0
C1320 C 0.42904 0.67399 0.90969 0.0
C1321 C 0.44056 0.68602 0.90337 0.0
C1322 C 0.4257 0.67345 0.92703 0.0
C1323 C 0.4294 0.69869 0.96686 0.0
H1324 H 0.43233 0.65496 0.98842 0.0
C1325 C 0.44804 0.69116 0.03663 0.0
C1326 C 0.44142 0.67754 0.04583 0.0
C1327 C 0.44377 0.69304 0.01957 0.0
C1328 C 0.43108 0.66723 0.9826 0.0
H1329 H 0.45732 0.70714 0.91024 0.0
H1330 H 0.45155 0.70616 0.94043 0.0
H1331 H 0.43286 0.65653 0.95762 0.0
H1332 H 0.42442 0.65573 0.04469 0.0
H1333 H 0.41678 0.65909 0.01473 0.0
H1334 H 0.42809 0.70944 0.99185 0.0
C1335 C 0.44498 0.69723 0.93198 0.0
C1336 C 0.43143 0.66813 0.96494 0.0
C1337 C 0.4484 0.69771 0.91469 0.0
C1338 C 0.42968 0.66635 0.03787 0.0
C1339 C 0.42544 0.6682 0.02072 0.0
C1340 C 0.42899 0.69779 0.98451 0.0
C1341 C 0.43371 0.68502 0.93837 0.0
C1342 C 0.43107 0.68391 0.95691 0.0
C1343 C 0.43277 0.68134 0.01128 0.0
C1344 C 0.43032 0.68209 0.9926 0.0
H1345 H 0.42276 0.66483 0.90128 0.0
H1346 H 0.41687 0.66397 0.93157 0.0
H1347 H 0.42877 0.711 0.96101 0.0
H1348 H 0.45697 0.70008 0.04251 0.0
H1349 H 0.44979 0.7032 0.01268 0.0
C1350 C 0.94928 0.79043 0.06784 0.0
C1351 C 0.96009 0.77819 0.07468 0.0
C1352 C 0.94748 0.79206 0.05029 0.0
C1353 C 0.95531 0.77003 0.00935 0.0
H1354 H 0.96053 0.81554 0.99207 0.0
C1355 C 0.9822 0.78405 0.94402 0.0
C1356 C 0.97642 0.79808 0.93497 0.0
C1357 C 0.97598 0.78061 0.96007 0.0
C1358 C 0.95867 0.80278 0.99663 0.0
H1359 H 0.97709 0.75773 0.06846 0.0
H1360 H 0.97408 0.76065 0.03792 0.0
H1361 H 0.95752 0.81143 0.02239 0.0
H1362 H 0.959 0.81904 0.93521 0.0
H1363 H 0.94799 0.81299 0.96339 0.0
H1364 H 0.95705 0.76136 0.98361 0.0
C1365 C 0.96684 0.76889 0.04609 0.0
C1366 C 0.95697 0.80042 0.01403 0.0
C1367 C 0.96868 0.7673 0.06361 0.0
C1368 C 0.96364 0.80813 0.94192 0.0
C1369 C 0.95746 0.80474 0.95808 0.0
C1370 C 0.95699 0.7724 0.99194 0.0
C1371 C 0.9564 0.78142 0.03922 0.0
C1372 C 0.95576 0.78399 0.02063 0.0
C1373 C 0.96384 0.79115 0.96747 0.0
C1374 C 0.95918 0.78877 0.98544 0.0
H1375 H 0.94243 0.79898 0.07604 0.0
H1376 H 0.93923 0.80174 0.04538 0.0
H1377 H 0.95407 0.75724 0.01402 0.0
H1378 H 0.99192 0.77598 0.93887 0.0
H1379 H 0.98131 0.77016 0.967 0.0
C1380 C 0.56143 0.21806 0.57968 0.0
C1381 C 0.56762 0.20552 0.5905 0.0
C1382 C 0.56388 0.21684 0.56223 0.0
C1383 C 0.56947 0.18529 0.52868 0.0
H1384 H 0.57754 0.22485 0.50117 0.0
C1385 C 0.56121 0.18143 0.45626 0.0
C1386 C 0.55063 0.19407 0.4499 0.0
C1387 C 0.56841 0.18312 0.47254 0.0
C1388 C 0.57532 0.21367 0.50867 0.0
H1389 H 0.58163 0.18209 0.59155 0.0
H1390 H 0.58578 0.17991 0.56097 0.0
H1391 H 0.58033 0.22722 0.53196 0.0
H1392 H 0.54038 0.21895 0.45486 0.0
H1393 H 0.55267 0.22185 0.48319 0.0
H1394 H 0.56364 0.17192 0.50553 0.0
C1395 C 0.579 0.19065 0.56603 0.0
C1396 C 0.57691 0.21503 0.52629 0.0
C1397 C 0.57666 0.19193 0.58353 0.0
C1398 C 0.54834 0.20893 0.45956 0.0
C1399 C 0.55554 0.21064 0.47574 0.0
C1400 C 0.56781 0.18394 0.51106 0.0
C1401 C 0.57248 0.20301 0.55518 0.0
C1402 C 0.57348 0.20099 0.5365 0.0
C1403 C 0.56522 0.19754 0.48265 0.0
C1404 C 0.57018 0.19825 0.50089 0.0
H1405 H 0.55445 0.22871 0.58465 0.0
H1406 H 0.55849 0.22645 0.55419 0.0
H1407 H 0.56661 0.17427 0.5362 0.0
H1408 H 0.56316 0.16984 0.44906 0.0
H1409 H 0.57597 0.17289 0.47743 0.0
C1410 C 0.05414 0.31684 0.43289 0.0
C1411 C 0.04301 0.3043 0.42614 0.0
C1412 C 0.05537 0.31968 0.45041 0.0
C1413 C 0.0456 0.30046 0.49171 0.0
H1414 H 0.04053 0.34691 0.50733 0.0
C1415 C 0.01617 0.31766 0.55519 0.0
C1416 C 0.02167 0.33227 0.56417 0.0
C1417 C 0.02306 0.31354 0.53954 0.0
C1418 C 0.04236 0.33391 0.50325 0.0
H1419 H 0.02483 0.28459 0.4325 0.0
H1420 H 0.02697 0.28955 0.46298 0.0
H1421 H 0.04464 0.34097 0.47729 0.0
H1422 H 0.03927 0.3536 0.56428 0.0
H1423 H 0.05147 0.34636 0.53672 0.0
H1424 H 0.04279 0.29334 0.51758 0.0
C1425 C 0.03484 0.29711 0.45477 0.0
C1426 C 0.04468 0.3305 0.48601 0.0
C1427 C 0.03351 0.29436 0.43729 0.0
C1428 C 0.03482 0.34226 0.55758 0.0
C1429 C 0.04169 0.33818 0.54179 0.0
C1430 C 0.04335 0.30386 0.50893 0.0
C1431 C 0.04562 0.30994 0.46152 0.0
C1432 C 0.04578 0.3137 0.48 0.0
C1433 C 0.03564 0.32394 0.53246 0.0
C1434 C 0.04114 0.32058 0.51482 0.0
H1435 H 0.06165 0.3247 0.42463 0.0
H1436 H 0.06387 0.32958 0.45525 0.0
H1437 H 0.04675 0.2874 0.48748 0.0
H1438 H 0.00617 0.30964 0.56008 0.0
H1439 H 0.01795 0.3026 0.53264 0.0
C1440 C 0.19139 0.46441 0.36347 0.0
C1441 C 0.19007 0.48201 0.36127 0.0
C1442 C 0.19238 0.45765 0.37975 0.0
C1443 C 0.20534 0.47027 0.42307 0.0
H1444 H 0.18286 0.42858 0.43633 0.0
C1445 C 0.18919 0.43546 0.48904 0.0
C1446 C 0.2047 0.43868 0.49751 0.0
C1447 C 0.18774 0.43787 0.47154 0.0
C1448 C 0.1892 0.44024 0.43279 0.0
H1449 H 0.18792 0.5062 0.37446 0.0
H1450 H 0.18944 0.49441 0.40273 0.0
H1451 H 0.17845 0.43933 0.40765 0.0
H1452 H 0.23115 0.4454 0.49434 0.0
H1453 H 0.22879 0.44915 0.46378 0.0
H1454 H 0.21574 0.47156 0.44815 0.0
C1455 C 0.19007 0.48586 0.3919 0.0
C1456 C 0.18677 0.44633 0.41636 0.0
C1457 C 0.1891 0.49261 0.37567 0.0
C1458 C 0.21902 0.44301 0.48807 0.0
C1459 C 0.21762 0.44527 0.47062 0.0
C1460 C 0.20779 0.4642 0.43939 0.0
C1461 C 0.19208 0.46835 0.39413 0.0
C1462 C 0.1947 0.46151 0.41139 0.0
C1463 C 0.20181 0.44346 0.46227 0.0
C1464 C 0.19973 0.44915 0.4445 0.0
H1465 H 0.19214 0.45588 0.35264 0.0
H1466 H 0.194 0.44412 0.38104 0.0
H1467 H 0.21186 0.48186 0.41958 0.0
H1468 H 0.17796 0.43222 0.4961 0.0
H1469 H 0.17537 0.43642 0.46551 0.0
C1470 C 0.29616 0.52661 0.84247 0.0
C1471 C 0.3109 0.52107 0.83441 0.0
C1472 C 0.29724 0.53788 0.85627 0.0
C1473 C 0.32699 0.55113 0.8904 0.0
H1474 H 0.29092 0.58213 0.90137 0.0
C1475 C 0.32346 0.58208 0.95649 0.0
C1476 C 0.30788 0.57855 0.96415 0.0
C1477 C 0.32511 0.58017 0.93893 0.0
C1478 C 0.30115 0.57362 0.89842 0.0
H1479 H 0.33831 0.52376 0.834 0.0
H1480 H 0.34015 0.54366 0.85795 0.0
H1481 H 0.29179 0.56908 0.87314 0.0
H1482 H 0.28155 0.57158 0.95956 0.0
H1483 H 0.28432 0.56844 0.92894 0.0
H1484 H 0.33606 0.55529 0.91582 0.0
C1485 C 0.32778 0.53901 0.85379 0.0
C1486 C 0.30162 0.56608 0.88229 0.0
C1487 C 0.3267 0.52765 0.84002 0.0
C1488 C 0.2937 0.57435 0.9539 0.0
C1489 C 0.29529 0.57265 0.93638 0.0
C1490 C 0.32659 0.55877 0.90646 0.0
C1491 C 0.31307 0.54399 0.86232 0.0
C1492 C 0.3142 0.55427 0.87829 0.0
C1493 C 0.31114 0.57492 0.92878 0.0
C1494 C 0.31335 0.56965 0.91083 0.0
H1495 H 0.28379 0.52183 0.83851 0.0
H1496 H 0.28565 0.54118 0.86264 0.0
H1497 H 0.33676 0.54197 0.88788 0.0
H1498 H 0.33459 0.58523 0.96417 0.0
H1499 H 0.33745 0.58211 0.93338 0.0
C1500 C 0.67618 0.04879 0.63675 0.0
C1501 C 0.67107 0.03246 0.64167 0.0
C1502 C 0.67519 0.05343 0.61971 0.0
C1503 C 0.67345 0.03322 0.57709 0.0
H1504 H 0.66449 0.07866 0.56145 0.0
C1505 C 0.66704 0.04554 0.50679 0.0
C1506 C 0.67806 0.05805 0.50061 0.0
C1507 C 0.6638 0.04464 0.52405 0.0
C1508 C 0.66704 0.06594 0.5657 0.0
H1509 H 0.65985 0.00863 0.63285 0.0
H1510 H 0.65749 0.01688 0.60338 0.0
H1511 H 0.66307 0.07253 0.5918 0.0
H1512 H 0.69329 0.08026 0.50733 0.0
H1513 H 0.6876 0.0787 0.53782 0.0
H1514 H 0.6773 0.02656 0.55114 0.0
C1515 C 0.6629 0.02593 0.61247 0.0
C1516 C 0.66629 0.06242 0.58305 0.0
C1517 C 0.66415 0.02121 0.6294 0.0
C1518 C 0.68473 0.07052 0.51183 0.0
C1519 C 0.68148 0.06961 0.52922 0.0
C1520 C 0.674 0.03668 0.55986 0.0
C1521 C 0.66888 0.0419 0.6073 0.0
C1522 C 0.66941 0.04596 0.58893 0.0
C1523 C 0.67154 0.05623 0.53553 0.0
C1524 C 0.67073 0.05302 0.55395 0.0
H1525 H 0.68158 0.05773 0.64595 0.0
H1526 H 0.68 0.0658 0.6162 0.0
H1527 H 0.67648 0.02054 0.58112 0.0
H1528 H 0.66155 0.03593 0.49834 0.0
H1529 H 0.65583 0.0344 0.52854 0.0
C1530 C 0.82249 0.95322 0.16726 0.0
C1531 C 0.82957 0.94171 0.17862 0.0
C1532 C 0.81757 0.94796 0.15094 0.0
C1533 C 0.82489 0.91403 0.11892 0.0
H1534 H 0.78796 0.93641 0.09575 0.0
C1535 C 0.79983 0.90092 0.049 0.0
C1536 C 0.8022 0.91544 0.03907 0.0
C1537 C 0.80221 0.90183 0.06663 0.0
C1538 C 0.79819 0.92996 0.10216 0.0
H1539 H 0.837 0.91563 0.18195 0.0
H1540 H 0.82787 0.90621 0.15357 0.0
H1541 H 0.79299 0.94195 0.12589 0.0
H1542 H 0.80985 0.94205 0.03999 0.0
H1543 H 0.81309 0.94368 0.07064 0.0
H1544 H 0.82987 0.90199 0.09494 0.0
C1545 C 0.82639 0.91941 0.15712 0.0
C1546 C 0.80122 0.93323 0.11936 0.0
C1547 C 0.83153 0.92476 0.17341 0.0
C1548 C 0.80733 0.93073 0.04718 0.0
C1549 C 0.80934 0.93168 0.06473 0.0
C1550 C 0.82165 0.91053 0.10173 0.0
C1551 C 0.81947 0.93098 0.14561 0.0
C1552 C 0.81494 0.92574 0.12787 0.0
C1553 C 0.8067 0.9173 0.07459 0.0
C1554 C 0.80856 0.91882 0.09317 0.0
H1555 H 0.82137 0.96648 0.17073 0.0
H1556 H 0.81279 0.95739 0.14234 0.0
H1557 H 0.83567 0.90814 0.12494 0.0
H1558 H 0.7958 0.88897 0.04323 0.0
H1559 H 0.80014 0.89058 0.07408 0.0
C1560 C 0.36977 0.1848 0.47268 0.0
C1561 C 0.3635 0.20009 0.47929 0.0
C1562 C 0.3848 0.18468 0.46349 0.0
C1563 C 0.42437 0.20878 0.4594 0.0
H1564 H 0.43028 0.18193 0.41841 0.0
C1565 C 0.48827 0.20941 0.42642 0.0
C1566 C 0.49436 0.19363 0.42108 0.0
C1567 C 0.47126 0.21121 0.43062 0.0
C1568 C 0.42887 0.1894 0.42991 0.0
H1569 H 0.3679 0.22729 0.48105 0.0
H1570 H 0.39412 0.22702 0.46514 0.0
H1571 H 0.40246 0.18283 0.43168 0.0
H1572 H 0.48751 0.16754 0.41517 0.0
H1573 H 0.4578 0.17046 0.42296 0.0
H1574 H 0.45072 0.21491 0.45816 0.0
C1575 C 0.38746 0.21513 0.46714 0.0
C1576 C 0.41294 0.18992 0.43748 0.0
C1577 C 0.3724 0.21528 0.47622 0.0
C1578 C 0.483 0.17987 0.41912 0.0
C1579 C 0.466 0.18159 0.42357 0.0
C1580 C 0.44027 0.20814 0.45195 0.0
C1581 C 0.39392 0.19982 0.46084 0.0
C1582 C 0.41056 0.19959 0.45233 0.0
C1583 C 0.46005 0.19716 0.4299 0.0
C1584 C 0.44277 0.19843 0.43713 0.0
H1585 H 0.3632 0.17288 0.47477 0.0
H1586 H 0.38955 0.17267 0.4589 0.0
H1587 H 0.42301 0.21609 0.47101 0.0
H1588 H 0.49683 0.22021 0.42793 0.0
H1589 H 0.46705 0.2235 0.43498 0.0
C1590 C 0.16201 0.8148 0.94163 0.0
C1591 C 0.16223 0.81766 0.95927 0.0
C1592 C 0.14672 0.81497 0.93242 0.0
C1593 C 0.10305 0.83048 0.93376 0.0
H1594 H 0.09175 0.79172 0.90473 0.0
C1595 C 0.03906 0.79516 0.90974 0.0
C1596 C 0.02963 0.80884 0.90375 0.0
C1597 C 0.05648 0.79693 0.9127 0.0
C1598 C 0.09481 0.80269 0.91266 0.0
H1599 H 0.14665 0.82329 0.981 0.0
H1600 H 0.12004 0.82376 0.96489 0.0
H1601 H 0.11995 0.79409 0.91797 0.0
H1602 H 0.031 0.83484 0.89541 0.0
H1603 H 0.06161 0.83805 0.90079 0.0
H1604 H 0.07777 0.83883 0.92891 0.0
C1605 C 0.13168 0.82139 0.9582 0.0
C1606 C 0.11095 0.80409 0.92016 0.0
C1607 C 0.14691 0.821 0.96744 0.0
C1608 C 0.03805 0.82409 0.89994 0.0
C1609 C 0.05549 0.82594 0.90313 0.0
C1610 C 0.08699 0.82918 0.92611 0.0
C1611 C 0.13142 0.81825 0.94063 0.0
C1612 C 0.11507 0.81779 0.93112 0.0
C1613 C 0.06478 0.8125 0.90993 0.0
C1614 C 0.08258 0.81507 0.91582 0.0
H1615 H 0.1736 0.81218 0.93496 0.0
H1616 H 0.14686 0.81258 0.91887 0.0
H1617 H 0.10596 0.84124 0.94204 0.0
H1618 H 0.0328 0.78328 0.91275 0.0
H1619 H 0.06327 0.78639 0.91807 0.0
C1620 C 0.85633 0.3063 0.52752 0.0
C1621 C 0.84101 0.31491 0.52956 0.0
C1622 C 0.87004 0.30948 0.53854 0.0
C1623 C 0.88829 0.34227 0.56691 0.0
H1624 H 0.91819 0.30598 0.58002 0.0
C1625 C 0.95752 0.32998 0.60232 0.0
C1626 C 0.96722 0.34162 0.59313 0.0
C1627 C 0.94019 0.32778 0.59869 0.0
C1628 C 0.90983 0.31624 0.57678 0.0
H1629 H 0.82803 0.33348 0.545 0.0
H1630 H 0.85206 0.33904 0.56429 0.0
H1631 H 0.89133 0.29919 0.56565 0.0
H1632 H 0.96644 0.36083 0.57386 0.0
H1633 H 0.93626 0.35717 0.56762 0.0
H1634 H 0.90703 0.35933 0.57768 0.0
C1635 C 0.85344 0.32989 0.55406 0.0
C1636 C 0.89454 0.31236 0.56834 0.0
C1637 C 0.83967 0.32666 0.54304 0.0
C1638 C 0.95916 0.3518 0.58112 0.0
C1639 C 0.94187 0.34974 0.57762 0.0
C1640 C 0.90362 0.34615 0.57531 0.0
C1641 C 0.8688 0.32136 0.55189 0.0
C1642 C 0.88383 0.32535 0.56288 0.0
C1643 C 0.93229 0.33733 0.58596 0.0
C1644 C 0.91478 0.3332 0.5799 0.0
H1645 H 0.85784 0.29718 0.51728 0.0
H1646 H 0.88179 0.30291 0.53633 0.0
H1647 H 0.88036 0.35257 0.56283 0.0
H1648 H 0.96354 0.32192 0.61156 0.0
H1649 H 0.93309 0.3182 0.60541 0.0
C1650 C 0.61276 0.6685 0.0355 0.0
C1651 C 0.62728 0.67295 0.0452 0.0
C1652 C 0.59708 0.66641 0.04324 0.0
C1653 C 0.57312 0.6814 0.07911 0.0
H1654 H 0.542 0.64472 0.06635 0.0
C1655 C 0.49931 0.65717 0.08992 0.0
C1656 C 0.49096 0.67184 0.08473 0.0
C1657 C 0.51699 0.65633 0.08915 0.0
C1658 C 0.55063 0.65489 0.07028 0.0
H1659 H 0.63677 0.67845 0.07066 0.0
H1660 H 0.6092 0.67512 0.08413 0.0
H1661 H 0.57125 0.64418 0.05659 0.0
H1662 H 0.49434 0.69744 0.07574 0.0
H1663 H 0.52522 0.69613 0.07471 0.0
H1664 H 0.55226 0.69249 0.09215 0.0
C1665 C 0.61006 0.67316 0.07056 0.0
C1666 C 0.5673 0.65465 0.06457 0.0
C1667 C 0.62582 0.675 0.06285 0.0
C1668 C 0.50055 0.68601 0.07982 0.0
C1669 C 0.5182 0.68527 0.07931 0.0
C1670 C 0.55637 0.68175 0.08464 0.0
C1671 C 0.59553 0.66894 0.0608 0.0
C1672 C 0.57859 0.66809 0.06862 0.0
C1673 C 0.52655 0.67024 0.08345 0.0
C1674 C 0.54488 0.66867 0.07998 0.0
H1675 H 0.61347 0.66677 0.02189 0.0
H1676 H 0.58605 0.66333 0.03539 0.0
H1677 H 0.58154 0.69197 0.08235 0.0
H1678 H 0.49211 0.64607 0.09364 0.0
H1679 H 0.52315 0.64463 0.09248 0.0
C1680 C 0.45762 0.36638 0.19074 0.0
C1681 C 0.47539 0.36525 0.19033 0.0
C1682 C 0.44982 0.38219 0.19093 0.0
C1683 C 0.45919 0.42689 0.20227 0.0
H1684 H 0.41758 0.43605 0.17751 0.0
C1685 C 0.42788 0.49103 0.2101 0.0
C1686 C 0.42304 0.49895 0.19503 0.0
C1687 C 0.43131 0.47374 0.21014 0.0
C1688 C 0.42921 0.43369 0.18447 0.0
H1689 H 0.49884 0.37986 0.18906 0.0
H1690 H 0.48527 0.40733 0.18909 0.0
H1691 H 0.43025 0.408 0.17531 0.0
H1692 H 0.41699 0.49503 0.16842 0.0
H1693 H 0.42334 0.46476 0.16833 0.0
H1694 H 0.45863 0.45258 0.21097 0.0
C1695 C 0.47736 0.39602 0.18968 0.0
C1696 C 0.4364 0.41758 0.18332 0.0
C1697 C 0.48514 0.38025 0.18955 0.0
C1698 C 0.4206 0.48912 0.18022 0.0
C1699 C 0.42423 0.4718 0.1802 0.0
C1700 C 0.45207 0.44292 0.20339 0.0
C1701 C 0.45963 0.39721 0.19068 0.0
C1702 C 0.45158 0.41408 0.19209 0.0
C1703 C 0.43024 0.46406 0.19504 0.0
C1704 C 0.43703 0.44657 0.19447 0.0
H1705 H 0.44973 0.35506 0.19135 0.0
H1706 H 0.43615 0.38266 0.19181 0.0
H1707 H 0.47073 0.42456 0.20942 0.0
H1708 H 0.42973 0.4984 0.22169 0.0
H1709 H 0.43546 0.4681 0.22189 0.0
C1710 C 0.98351 0.14384 0.82049 0.0
C1711 C 0.97336 0.15831 0.81976 0.0
C1712 C 0.97655 0.12779 0.81701 0.0
C1713 C 0.93678 0.10274 0.81245 0.0
H1714 H 0.96375 0.07582 0.78176 0.0
C1715 C 0.92628 0.03075 0.79794 0.0
C1716 C 0.93029 0.02494 0.7816 0.0
C1717 C 0.9285 0.04791 0.80235 0.0
C1718 C 0.95593 0.08323 0.79017 0.0
H1719 H 0.94771 0.16713 0.81568 0.0
H1720 H 0.93558 0.13899 0.80947 0.0
H1721 H 0.97398 0.10366 0.79095 0.0
H1722 H 0.93815 0.03253 0.75663 0.0
H1723 H 0.94166 0.06249 0.76417 0.0
H1724 H 0.91869 0.08212 0.81153 0.0
C1725 C 0.94892 0.14013 0.8128 0.0
C1726 C 0.96194 0.0991 0.79564 0.0
C1727 C 0.9559 0.15625 0.8163 0.0
C1728 C 0.93518 0.03671 0.76937 0.0
C1729 C 0.93727 0.05381 0.77372 0.0
C1730 C 0.93078 0.08673 0.80701 0.0
C1731 C 0.95928 0.1258 0.81268 0.0
C1732 C 0.95252 0.10899 0.80694 0.0
C1733 C 0.93469 0.05948 0.79045 0.0
C1734 C 0.94032 0.07682 0.79579 0.0
H1735 H 0.99697 0.14493 0.8233 0.0
H1736 H 0.98479 0.11693 0.81735 0.0
H1737 H 0.92927 0.1101 0.82118 0.0
H1738 H 0.92258 0.02188 0.8076 0.0
H1739 H 0.92644 0.05188 0.81534 0.0
C1740 C 0.51815 0.84909 0.30514 0.0
C1741 C 0.50086 0.84893 0.30929 0.0
C1742 C 0.52723 0.86443 0.30431 0.0
C1743 C 0.51988 0.90984 0.29768 0.0
H1744 H 0.5664 0.91601 0.31341 0.0
C1745 C 0.55449 0.97232 0.28616 0.0
C1746 C 0.563 0.97957 0.30028 0.0
C1747 C 0.54961 0.95525 0.28609 0.0
C1748 C 0.5534 0.91447 0.30898 0.0
H1749 H 0.47982 0.8647 0.31666 0.0
H1750 H 0.49568 0.89129 0.31549 0.0
H1751 H 0.55201 0.8886 0.31691 0.0
H1752 H 0.57402 0.9746 0.32495 0.0
H1753 H 0.56518 0.94474 0.32505 0.0
H1754 H 0.52091 0.93569 0.29025 0.0
C1755 C 0.50213 0.87963 0.31247 0.0
C1756 C 0.54521 0.89875 0.31087 0.0
C1757 C 0.49306 0.86436 0.31324 0.0
C1758 C 0.56755 0.96922 0.31388 0.0
C1759 C 0.56249 0.95214 0.3139 0.0
C1760 C 0.52802 0.92548 0.29581 0.0
C1761 C 0.51922 0.87989 0.30764 0.0
C1762 C 0.52828 0.89633 0.30539 0.0
C1763 C 0.5529 0.94514 0.30026 0.0
C1764 C 0.54485 0.92804 0.30148 0.0
H1765 H 0.52455 0.83742 0.30204 0.0
H1766 H 0.54035 0.8642 0.30048 0.0
H1767 H 0.50694 0.90834 0.29306 0.0
H1768 H 0.55099 0.98005 0.27547 0.0
H1769 H 0.54264 0.95015 0.2752 0.0
C1770 C 0.02107 0.61122 0.66422 0.0
C1771 C 0.03014 0.62606 0.66892 0.0
C1772 C 0.02899 0.59552 0.66425 0.0
C1773 C 0.06308 0.57374 0.68605 0.0
H1774 H 0.05081 0.53742 0.65436 0.0
C1775 C 0.06788 0.49594 0.67657 0.0
C1776 C 0.06175 0.49135 0.6925 0.0
C1777 C 0.06919 0.51305 0.67223 0.0
C1778 C 0.05469 0.54745 0.66316 0.0
H1779 H 0.05487 0.63612 0.67659 0.0
H1780 H 0.06869 0.60858 0.67673 0.0
H1781 H 0.04308 0.56647 0.64798 0.0
H1782 H 0.05342 0.50088 0.71681 0.0
H1783 H 0.05572 0.53065 0.70934 0.0
H1784 H 0.07415 0.55463 0.70151 0.0
C1785 C 0.05541 0.60916 0.67311 0.0
C1786 C 0.05009 0.56407 0.65958 0.0
C1787 C 0.04751 0.62492 0.67296 0.0
C1788 C 0.05809 0.50412 0.70441 0.0
C1789 C 0.05954 0.52116 0.70016 0.0
C1790 C 0.06762 0.55711 0.68966 0.0
C1791 C 0.04615 0.59426 0.66905 0.0
C1792 C 0.05372 0.5773 0.67126 0.0
C1793 C 0.06457 0.52582 0.68384 0.0
C1794 C 0.06296 0.54371 0.67853 0.0
H1795 H 0.0077 0.61165 0.66097 0.0
H1796 H 0.02143 0.58427 0.66125 0.0
H1797 H 0.06601 0.58363 0.69534 0.0
H1798 H 0.07072 0.48631 0.66715 0.0
H1799 H 0.07323 0.51628 0.65961 0.0
C1800 C 0.82615 0.50219 0.63543 0.0
C1801 C 0.82698 0.51301 0.64973 0.0
C1802 C 0.82565 0.50881 0.61914 0.0
C1803 C 0.81342 0.54749 0.59668 0.0
H1804 H 0.83094 0.52253 0.55825 0.0
C1805 C 0.81169 0.54505 0.51809 0.0
C1806 C 0.7943 0.54796 0.51567 0.0
C1807 C 0.81874 0.54465 0.53443 0.0
C1808 C 0.82623 0.52993 0.56879 0.0
H1809 H 0.82884 0.53932 0.65805 0.0
H1810 H 0.82833 0.55088 0.62953 0.0
H1811 H 0.83879 0.51427 0.58677 0.0
H1812 H 0.77081 0.55345 0.52837 0.0
H1813 H 0.78292 0.5524 0.55681 0.0
H1814 H 0.80093 0.56321 0.57867 0.0
C1815 C 0.82768 0.53726 0.63096 0.0
C1816 C 0.83054 0.525 0.5852 0.0
C1817 C 0.82807 0.53062 0.64731 0.0
C1818 C 0.7843 0.5514 0.52984 0.0
C1819 C 0.79129 0.55081 0.54618 0.0
C1820 C 0.80924 0.55253 0.58025 0.0
C1821 C 0.82612 0.52644 0.61668 0.0
C1822 C 0.82374 0.53335 0.59936 0.0
C1823 C 0.8085 0.54692 0.54872 0.0
C1824 C 0.81514 0.54347 0.56609 0.0
H1825 H 0.82526 0.48856 0.63681 0.0
H1826 H 0.82418 0.50006 0.6085 0.0
H1827 H 0.80788 0.5542 0.60725 0.0
H1828 H 0.8197 0.54251 0.50735 0.0
H1829 H 0.8321 0.542 0.53588 0.0
C1830 C 0.68183 0.53654 0.16349 0.0
C1831 C 0.67872 0.53107 0.18 0.0
C1832 C 0.6881 0.52531 0.15134 0.0
C1833 C 0.6884 0.48135 0.13825 0.0
H1834 H 0.72708 0.49494 0.11159 0.0
C1835 C 0.70132 0.45978 0.06965 0.0
C1836 C 0.71821 0.45767 0.06476 0.0
C1837 C 0.69757 0.46439 0.08632 0.0
C1838 C 0.71645 0.4908 0.1191 0.0
H1839 H 0.67903 0.50948 0.19665 0.0
H1840 H 0.68972 0.48966 0.17519 0.0
H1841 H 0.71862 0.51253 0.13563 0.0
H1842 H 0.74432 0.45754 0.07357 0.0
H1843 H 0.73779 0.46578 0.10277 0.0
H1844 H 0.68572 0.46007 0.1211 0.0
C1845 C 0.68763 0.50273 0.17182 0.0
C1846 C 0.71153 0.50095 0.13274 0.0
C1847 C 0.68166 0.51408 0.18409 0.0
C1848 C 0.73119 0.45895 0.07709 0.0
C1849 C 0.72747 0.46379 0.09373 0.0
C1850 C 0.69316 0.47132 0.12439 0.0
C1851 C 0.69101 0.50831 0.15538 0.0
C1852 C 0.69728 0.4965 0.14223 0.0
C1853 C 0.71069 0.46721 0.09831 0.0
C1854 C 0.70707 0.47611 0.11451 0.0
H1855 H 0.6796 0.54956 0.16001 0.0
H1856 H 0.69042 0.52986 0.13869 0.0
H1857 H 0.67732 0.47771 0.14536 0.0
H1858 H 0.69112 0.45893 0.06031 0.0
H1859 H 0.68455 0.46705 0.08945 0.0
C1860 C 0.32178 0.02679 0.38401 0.0
C1861 C 0.32974 0.0219 0.36896 0.0
C1862 C 0.31665 0.01466 0.39563 0.0
C1863 C 0.32658 0.97234 0.41061 0.0
H1864 H 0.28526 0.97862 0.43578 0.0
C1865 C 0.31906 0.95463 0.47997 0.0
C1866 C 0.30283 0.95143 0.48639 0.0
C1867 C 0.32121 0.95753 0.46273 0.0
C1868 C 0.29667 0.97634 0.42869 0.0
H1869 H 0.33908 0.00049 0.35453 0.0
H1870 H 0.32995 0.97917 0.37486 0.0
H1871 H 0.29042 0.99547 0.41081 0.0
H1872 H 0.27641 0.94705 0.47965 0.0
H1873 H 0.28019 0.95181 0.44938 0.0
H1874 H 0.33304 0.95352 0.42882 0.0
C1875 C 0.3275 0.99241 0.37752 0.0
C1876 C 0.29973 0.9862 0.41448 0.0
C1877 C 0.33254 0.00459 0.36579 0.0
C1878 C 0.28906 0.94946 0.47502 0.0
C1879 C 0.29121 0.95239 0.45773 0.0
C1880 C 0.32353 0.96246 0.42486 0.0
C1881 C 0.31951 0.99734 0.39258 0.0
C1882 C 0.315 0.98477 0.40567 0.0
C1883 C 0.30717 0.9573 0.45154 0.0
C1884 C 0.30881 0.96478 0.43443 0.0
H1885 H 0.31954 0.04004 0.38683 0.0
H1886 H 0.31084 0.01892 0.40726 0.0
H1887 H 0.33847 0.97093 0.40409 0.0
H1888 H 0.3299 0.9561 0.48848 0.0
H1889 H 0.33367 0.96134 0.45849 0.0
C1890 C 0.16096 0.03 0.82696 0.0
C1891 C 0.16274 0.04106 0.8133 0.0
C1892 C 0.16189 0.03614 0.84362 0.0
C1893 C 0.17937 0.07242 0.86879 0.0
H1894 H 0.15738 0.04829 0.90497 0.0
C1895 C 0.17936 0.06509 0.94699 0.0
C1896 C 0.19693 0.0664 0.94971 0.0
C1897 C 0.17246 0.06681 0.9307 0.0
C1898 C 0.16339 0.05553 0.89513 0.0
H1899 H 0.16596 0.06742 0.80644 0.0
H1900 H 0.16706 0.07824 0.83556 0.0
H1901 H 0.14906 0.04221 0.87588 0.0
H1902 H 0.22107 0.07121 0.93796 0.0
H1903 H 0.20928 0.07351 0.90944 0.0
H1904 H 0.19348 0.08599 0.88809 0.0
C1905 C 0.16542 0.06473 0.8334 0.0
C1906 C 0.1588 0.05178 0.87833 0.0
C1907 C 0.16468 0.05854 0.81669 0.0
C1908 C 0.20744 0.07038 0.93614 0.0
C1909 C 0.2006 0.07174 0.91979 0.0
C1910 C 0.18377 0.07638 0.88563 0.0
C1911 C 0.1644 0.05356 0.8471 0.0
C1912 C 0.16719 0.05968 0.86491 0.0
C1913 C 0.18307 0.06938 0.91674 0.0
C1914 C 0.1763 0.06754 0.89903 0.0
H1915 H 0.15953 0.01645 0.82484 0.0
H1916 H 0.16136 0.02706 0.85376 0.0
H1917 H 0.18617 0.07878 0.85884 0.0
H1918 H 0.17105 0.06203 0.95735 0.0
H1919 H 0.15887 0.06538 0.92898 0.0
C1920 C 0.66357 0.80878 0.52773 0.0
C1921 C 0.66473 0.81889 0.51324 0.0
C1922 C 0.64792 0.80576 0.53523 0.0
C1923 C 0.60351 0.81915 0.53797 0.0
H1924 H 0.59354 0.77092 0.53891 0.0
C1925 C 0.53534 0.79188 0.53631 0.0
C1926 C 0.53214 0.77548 0.54238 0.0
C1927 C 0.55169 0.79894 0.53698 0.0
C1928 C 0.5961 0.78444 0.53925 0.0
H1929 H 0.65055 0.83481 0.4961 0.0
H1930 H 0.6232 0.82966 0.50938 0.0
H1931 H 0.622 0.78069 0.53275 0.0
H1932 H 0.54361 0.75429 0.55531 0.0
H1933 H 0.57168 0.76704 0.55758 0.0
H1934 H 0.57759 0.82294 0.54447 0.0
C1935 C 0.63443 0.82402 0.51483 0.0
C1936 C 0.61247 0.79003 0.53559 0.0
C1937 C 0.65007 0.82688 0.50718 0.0
C1938 C 0.54545 0.76695 0.55051 0.0
C1939 C 0.56172 0.77417 0.55152 0.0
C1940 C 0.58713 0.81356 0.54194 0.0
C1941 C 0.63313 0.81297 0.52856 0.0
C1942 C 0.61626 0.80741 0.53456 0.0
C1943 C 0.56524 0.78993 0.5441 0.0
C1944 C 0.58309 0.7961 0.54223 0.0
H1945 H 0.67461 0.80247 0.53278 0.0
H1946 H 0.64726 0.7973 0.5459 0.0
H1947 H 0.60616 0.83263 0.53735 0.0
H1948 H 0.52534 0.79905 0.53037 0.0
H1949 H 0.55379 0.81107 0.53108 0.0
C1950 C 0.82472 0.16846 0.99196 0.0
C1951 C 0.80878 0.16795 0.99959 0.0
C1952 C 0.83891 0.17475 0.00091 0.0
C1953 C 0.85137 0.20105 0.03871 0.0
H1954 H 0.89569 0.18389 0.02773 0.0
C1955 C 0.92826 0.21304 0.05325 0.0
C1956 C 0.92826 0.23082 0.05352 0.0
C1957 C 0.9131 0.20386 0.05086 0.0
C1958 C 0.88345 0.18867 0.03133 0.0
H1959 H 0.79528 0.17279 0.0228 0.0
H1960 H 0.82013 0.18341 0.03866 0.0
H1961 H 0.87063 0.1702 0.01559 0.0
H1962 H 0.9125 0.25299 0.05226 0.0
H1963 H 0.88618 0.23716 0.04743 0.0
H1964 H 0.86421 0.21918 0.05491 0.0
C1965 C 0.82162 0.17954 0.02556 0.0
C1966 C 0.869 0.18098 0.02403 0.0
C1967 C 0.80735 0.17348 0.01648 0.0
C1968 C 0.91278 0.23926 0.05233 0.0
C1969 C 0.89766 0.23012 0.04958 0.0
C1970 C 0.86583 0.20857 0.04627 0.0
C1971 C 0.8376 0.18035 0.01786 0.0
C1972 C 0.85279 0.18738 0.02719 0.0
C1973 C 0.89768 0.21229 0.04823 0.0
C1974 C 0.88212 0.2028 0.0423 0.0
H1975 H 0.82615 0.16431 0.97892 0.0
H1976 H 0.85085 0.17551 0.99436 0.0
H1977 H 0.83914 0.20641 0.04146 0.0
H1978 H 0.94009 0.20628 0.05418 0.0
H1979 H 0.91361 0.19015 0.05041 0.0
C1980 C 0.163 0.65953 0.48415 0.0
C1981 C 0.1751 0.6724 0.48136 0.0
C1982 C 0.14741 0.65942 0.47546 0.0
C1983 C 0.12294 0.68086 0.44091 0.0
H1984 H 0.08538 0.67378 0.47123 0.0
C1985 C 0.05986 0.71612 0.4374 0.0
C1986 C 0.04497 0.70793 0.44275 0.0
C1987 C 0.07527 0.70762 0.43746 0.0
C1988 C 0.09564 0.67544 0.46241 0.0
H1989 H 0.18071 0.69465 0.46648 0.0
H1990 H 0.1535 0.6948 0.45183 0.0
H1991 H 0.11372 0.66617 0.48021 0.0
H1992 H 0.03429 0.6839 0.45072 0.0
H1993 H 0.06128 0.66911 0.451 0.0
H1994 H 0.10477 0.69121 0.42357 0.0
C1995 C 0.15605 0.68455 0.46044 0.0
C1996 C 0.11197 0.67104 0.46756 0.0
C1997 C 0.17167 0.68455 0.46897 0.0
C1998 C 0.0456 0.69065 0.44684 0.0
C1999 C 0.06104 0.68218 0.44698 0.0
C2000 C 0.10659 0.68543 0.43582 0.0
C2001 C 0.1435 0.67229 0.46394 0.0
C2002 C 0.12593 0.67417 0.45711 0.0
C2003 C 0.07613 0.69078 0.44294 0.0
C2004 C 0.09285 0.6832 0.44673 0.0
H2005 H 0.16532 0.64985 0.49346 0.0
H2006 H 0.13821 0.64955 0.4782 0.0
H2007 H 0.13333 0.68312 0.43237 0.0
H2008 H 0.05988 0.72946 0.43435 0.0
H2009 H 0.0867 0.71465 0.43442 0.0
C2010 C 0.34912 0.31941 0.96456 0.0
C2011 C 0.34454 0.33306 0.9751 0.0
C2012 C 0.36566 0.31809 0.95869 0.0
C2013 C 0.4089 0.33169 0.97111 0.0
H2014 H 0.42065 0.3084 0.92938 0.0
C2015 C 0.47752 0.31351 0.95892 0.0
C2016 C 0.4795 0.29624 0.95491 0.0
C2017 C 0.46166 0.32101 0.95746 0.0
C2018 C 0.41756 0.31498 0.94105 0.0
H2019 H 0.35346 0.35668 0.98673 0.0
H2020 H 0.38226 0.3546 0.97617 0.0
H2021 H 0.39132 0.31667 0.93401 0.0
H2022 H 0.46664 0.27358 0.94515 0.0
H2023 H 0.43893 0.28668 0.94256 0.0
H2024 H 0.43497 0.32964 0.97836 0.0
C2025 C 0.37316 0.34465 0.97281 0.0
C2026 C 0.40076 0.31968 0.94374 0.0
C2027 C 0.35663 0.3459 0.9788 0.0
C2028 C 0.46555 0.28695 0.94822 0.0
C2029 C 0.44966 0.29447 0.94674 0.0
C2030 C 0.42566 0.32711 0.96838 0.0
C2031 C 0.37802 0.33048 0.9631 0.0
C2032 C 0.39615 0.3277 0.95901 0.0
C2033 C 0.44743 0.31141 0.95193 0.0
C2034 C 0.43012 0.31834 0.95351 0.0
H2035 H 0.34012 0.30929 0.96143 0.0
H2036 H 0.36894 0.3069 0.95143 0.0
H2037 H 0.40584 0.33756 0.98315 0.0
H2038 H 0.48812 0.32105 0.96386 0.0
H2039 H 0.46039 0.33417 0.96127 0.0
C2040 C 0.50102 0.64353 0.83636 0.0
C2041 C 0.49489 0.65538 0.82473 0.0
C2042 C 0.51128 0.63025 0.83102 0.0
C2043 C 0.521 0.60545 0.79234 0.0
H2044 H 0.55469 0.58526 0.82176 0.0
C2045 C 0.55435 0.54448 0.77235 0.0
C2046 C 0.55259 0.53149 0.78421 0.0
C2047 C 0.55145 0.56133 0.77706 0.0
C2048 C 0.54537 0.59083 0.81339 0.0
H2049 H 0.49453 0.66219 0.79822 0.0
H2050 H 0.5132 0.63978 0.78909 0.0
H2051 H 0.54166 0.61194 0.8302 0.0
H2052 H 0.54777 0.52602 0.81053 0.0
H2053 H 0.54282 0.55547 0.8188 0.0
H2054 H 0.52456 0.58425 0.77565 0.0
C2055 C 0.50995 0.64062 0.80235 0.0
C2056 C 0.53783 0.60606 0.81824 0.0
C2057 C 0.49952 0.65379 0.80767 0.0
C2058 C 0.54914 0.5358 0.80113 0.0
C2059 C 0.5464 0.55266 0.80587 0.0
C2060 C 0.52868 0.59036 0.78742 0.0
C2061 C 0.51573 0.62848 0.8139 0.0
C2062 C 0.52524 0.61337 0.80796 0.0
C2063 C 0.54688 0.56551 0.79374 0.0
C2064 C 0.54067 0.58269 0.79804 0.0
H2065 H 0.49759 0.64431 0.84958 0.0
H2066 H 0.51518 0.62102 0.84026 0.0
H2067 H 0.51117 0.61046 0.7842 0.0
H2068 H 0.55687 0.5415 0.75919 0.0
H2069 H 0.55206 0.57101 0.76748 0.0
C2070 C 0.02011 0.81727 0.14491 0.0
C2071 C 0.01154 0.80733 0.1568 0.0
C2072 C 0.03134 0.83022 0.15024 0.0
C2073 C 0.05745 0.84616 0.18609 0.0
H2074 H 0.04754 0.89069 0.16874 0.0
C2075 C 0.07774 0.9077 0.22119 0.0
C2076 C 0.07923 0.92281 0.21215 0.0
C2077 C 0.07336 0.89251 0.21279 0.0
C2078 C 0.05089 0.87834 0.17345 0.0
H2079 H 0.00751 0.80386 0.18363 0.0
H2080 H 0.02771 0.82584 0.19293 0.0
H2081 H 0.03252 0.86598 0.1571 0.0
H2082 H 0.07873 0.93379 0.1872 0.0
H2083 H 0.072 0.90712 0.17232 0.0
H2084 H 0.07585 0.85842 0.20243 0.0
C2085 C 0.02597 0.82334 0.17948 0.0
C2086 C 0.04215 0.86417 0.16681 0.0
C2087 C 0.01454 0.81057 0.17414 0.0
C2088 C 0.07759 0.92226 0.19443 0.0
C2089 C 0.07352 0.90701 0.18597 0.0
C2090 C 0.06643 0.86031 0.19255 0.0
C2091 C 0.03432 0.83341 0.16758 0.0
C2092 C 0.04505 0.84801 0.17333 0.0
C2093 C 0.0706 0.89207 0.19511 0.0
C2094 C 0.06297 0.87667 0.18663 0.0
H2095 H 0.01798 0.81517 0.13144 0.0
H2096 H 0.03759 0.83783 0.14081 0.0
H2097 H 0.06003 0.83378 0.19121 0.0
H2098 H 0.07871 0.90785 0.2349 0.0
H2099 H 0.07106 0.88141 0.22036 0.0
C2100 C 0.49947 0.18424 0.68086 0.0
C2101 C 0.51224 0.17941 0.66962 0.0
C2102 C 0.48754 0.17231 0.68643 0.0
C2103 C 0.46987 0.1291 0.67697 0.0
H2104 H 0.46261 0.12758 0.72539 0.0
C2105 C 0.45975 0.07488 0.72811 0.0
C2106 C 0.44821 0.06416 0.71932 0.0
C2107 C 0.46231 0.09155 0.72301 0.0
C2108 C 0.46438 0.1279 0.71181 0.0
H2109 H 0.52208 0.15847 0.65485 0.0
H2110 H 0.50151 0.13771 0.6646 0.0
H2111 H 0.47782 0.15164 0.71349 0.0
H2112 H 0.42943 0.06259 0.6991 0.0
H2113 H 0.43378 0.09199 0.69012 0.0
H2114 H 0.45747 0.10485 0.6754 0.0
C2115 C 0.50054 0.15071 0.66907 0.0
C2116 C 0.47299 0.14177 0.70497 0.0
C2117 C 0.51243 0.16259 0.66355 0.0
C2118 C 0.43833 0.07071 0.70611 0.0
C2119 C 0.44095 0.08745 0.7009 0.0
C2120 C 0.46132 0.11522 0.68381 0.0
C2121 C 0.48806 0.15535 0.68072 0.0
C2122 C 0.47639 0.14222 0.68754 0.0
C2123 C 0.45344 0.09784 0.70892 0.0
C2124 C 0.45903 0.11415 0.7014 0.0
H2125 H 0.49852 0.19724 0.68521 0.0
H2126 H 0.47792 0.17637 0.69519 0.0
H2127 H 0.47198 0.12922 0.66344 0.0
H2128 H 0.46754 0.07001 0.73831 0.0
H2129 H 0.47216 0.09905 0.72938 0.0
C2130 C 0.99206 0.34453 0.35313 0.0
C2131 C 0.99878 0.33267 0.34168 0.0
C2132 C 0.98365 0.3588 0.34723 0.0
C2133 C 0.96269 0.37745 0.31001 0.0
H2134 H 0.98025 0.42002 0.32863 0.0
C2135 C 0.95633 0.44102 0.27552 0.0
C2136 C 0.95699 0.45616 0.28505 0.0
C2137 C 0.95745 0.4254 0.28357 0.0
C2138 C 0.9748 0.40832 0.32352 0.0
H2139 H 0.00242 0.32691 0.31506 0.0
H2140 H 0.98719 0.35144 0.30477 0.0
H2141 H 0.98955 0.39354 0.34062 0.0
H2142 H 0.95803 0.46702 0.31036 0.0
H2143 H 0.95903 0.43977 0.32458 0.0
H2144 H 0.94796 0.39222 0.29285 0.0
C2145 C 0.98811 0.34946 0.31831 0.0
C2146 C 0.98025 0.3931 0.33038 0.0
C2147 C 0.99669 0.33528 0.32421 0.0
C2148 C 0.95752 0.45545 0.30279 0.0
C2149 C 0.95831 0.43985 0.31087 0.0
C2150 C 0.95703 0.39271 0.30327 0.0
C2151 C 0.98175 0.3615 0.32976 0.0
C2152 C 0.97451 0.37752 0.3235 0.0
C2153 C 0.95905 0.42464 0.30135 0.0
C2154 C 0.96328 0.40837 0.30972 0.0
H2155 H 0.99353 0.3429 0.36667 0.0
H2156 H 0.97883 0.36786 0.35634 0.0
H2157 H 0.95795 0.36558 0.30457 0.0
H2158 H 0.95614 0.44133 0.2618 0.0
H2159 H 0.95815 0.41405 0.27575 0.0
C2160 C 0.25865 0.53098 0.29299 0.0
C2161 C 0.24135 0.53028 0.28851 0.0
C2162 C 0.27087 0.53414 0.28079 0.0
C2163 C 0.27738 0.55188 0.23842 0.0
H2164 H 0.31834 0.52533 0.24023 0.0
C2165 C 0.33839 0.56919 0.20214 0.0
C2166 C 0.34808 0.55585 0.19562 0.0
C2167 C 0.32414 0.5658 0.21194 0.0
C2168 C 0.30691 0.53273 0.2394 0.0
H2169 H 0.22328 0.53265 0.26772 0.0
H2170 H 0.24472 0.53811 0.24633 0.0
H2171 H 0.29589 0.51994 0.26033 0.0
H2172 H 0.34988 0.52851 0.19344 0.0
H2173 H 0.325 0.52259 0.21047 0.0
H2174 H 0.28845 0.56461 0.21737 0.0
C2175 C 0.24878 0.5363 0.25934 0.0
C2176 C 0.29413 0.52978 0.25107 0.0
C2177 C 0.23651 0.53311 0.27158 0.0
C2178 C 0.34284 0.53906 0.19856 0.0
C2179 C 0.3286 0.53567 0.20832 0.0
C2180 C 0.29022 0.55486 0.22673 0.0
C2181 C 0.26611 0.53667 0.2638 0.0
C2182 C 0.27929 0.53943 0.25084 0.0
C2183 C 0.31928 0.549 0.2154 0.0
C2184 C 0.30518 0.54538 0.22717 0.0
H2185 H 0.26283 0.52896 0.30592 0.0
H2186 H 0.28409 0.53465 0.2847 0.0
H2187 H 0.26613 0.55958 0.23797 0.0
H2188 H 0.34219 0.58226 0.20024 0.0
H2189 H 0.31735 0.57635 0.21736 0.0
C2190 C 0.24256 0.47383 0.74583 0.0
C2191 C 0.25134 0.46552 0.75885 0.0
C2192 C 0.22817 0.46635 0.73816 0.0
C2193 C 0.19408 0.4358 0.74722 0.0
H2194 H 0.18256 0.44151 0.69973 0.0
C2195 C 0.12561 0.42956 0.72145 0.0
C2196 C 0.12279 0.42189 0.70545 0.0
C2197 C 0.14208 0.43275 0.72752 0.0
C2198 C 0.18566 0.43961 0.71297 0.0
H2199 H 0.25231 0.44246 0.77346 0.0
H2200 H 0.22726 0.42935 0.75995 0.0
H2201 H 0.21052 0.45047 0.71041 0.0
H2202 H 0.13509 0.41139 0.68335 0.0
H2203 H 0.16393 0.41683 0.69405 0.0
H2204 H 0.16922 0.42501 0.74981 0.0
C2205 C 0.23138 0.44178 0.75587 0.0
C2206 C 0.20162 0.44491 0.71913 0.0
C2207 C 0.2458 0.44925 0.76353 0.0
C2208 C 0.13685 0.41722 0.69577 0.0
C2209 C 0.15336 0.42048 0.70183 0.0
C2210 C 0.17812 0.43054 0.74107 0.0
C2211 C 0.22221 0.45038 0.74331 0.0
C2212 C 0.20592 0.44331 0.73638 0.0
C2213 C 0.15616 0.42838 0.71774 0.0
C2214 C 0.17362 0.43263 0.72394 0.0
H2215 H 0.24649 0.48636 0.74189 0.0
H2216 H 0.22133 0.47341 0.72866 0.0
H2217 H 0.1969 0.43452 0.7606 0.0
H2218 H 0.11506 0.43312 0.7293 0.0
H2219 H 0.14377 0.43903 0.73974 0.0
C2220 C 0.73381 0.97898 0.71948 0.0
C2221 C 0.72837 0.99579 0.72134 0.0
C2222 C 0.74902 0.97386 0.727 0.0
C2223 C 0.78114 0.98535 0.75997 0.0
H2224 H 0.81148 0.95991 0.7313 0.0
C2225 C 0.84518 0.95908 0.78425 0.0
C2226 C 0.85914 0.96143 0.77362 0.0
C2227 C 0.82876 0.96261 0.77851 0.0
C2228 C 0.80317 0.96705 0.73944 0.0
H2229 H 0.73433 0.02022 0.73313 0.0
H2230 H 0.76083 0.01126 0.74626 0.0
H2231 H 0.78338 0.96716 0.72061 0.0
H2232 H 0.86679 0.96912 0.74858 0.0
H2233 H 0.83817 0.97538 0.73859 0.0
H2234 H 0.8011 0.98549 0.77869 0.0
C2235 C 0.75331 0.00203 0.73902 0.0
C2236 C 0.787 0.97104 0.73339 0.0
C2237 C 0.73816 0.00719 0.73141 0.0
C2238 C 0.85632 0.96732 0.75711 0.0
C2239 C 0.83991 0.97074 0.75134 0.0
C2240 C 0.79728 0.98125 0.76607 0.0
C2241 C 0.75906 0.9854 0.73665 0.0
C2242 C 0.77586 0.98037 0.74352 0.0
C2243 C 0.82594 0.96844 0.76197 0.0
C2244 C 0.80854 0.9722 0.7558 0.0
H2245 H 0.72655 0.96986 0.71185 0.0
H2246 H 0.753 0.96089 0.72514 0.0
H2247 H 0.77279 0.99244 0.76811 0.0
H2248 H 0.84696 0.95468 0.79707 0.0
H2249 H 0.81825 0.96061 0.78696 0.0
C2250 C 0.75041 0.99642 0.21633 0.0
C2251 C 0.75406 0.97905 0.21698 0.0
C2252 C 0.73638 0.00288 0.22475 0.0
C2253 C 0.70857 0.9932 0.26043 0.0
H2254 H 0.68009 0.02806 0.24155 0.0
C2255 C 0.65921 0.02798 0.3006 0.0
C2256 C 0.64317 0.03019 0.29305 0.0
C2257 C 0.6728 0.02243 0.29093 0.0
C2258 C 0.68789 0.01826 0.24695 0.0
H2259 H 0.74542 0.95473 0.22636 0.0
H2260 H 0.72089 0.96598 0.24084 0.0
H2261 H 0.70307 0.01645 0.22473 0.0
H2262 H 0.62895 0.02885 0.26932 0.0
H2263 H 0.6526 0.01889 0.2525 0.0
H2264 H 0.69328 0.99478 0.28253 0.0
C2265 C 0.72904 0.97465 0.23411 0.0
C2266 C 0.70113 0.01173 0.23738 0.0
C2267 C 0.74305 0.9682 0.2257 0.0
C2268 C 0.64111 0.02705 0.27555 0.0
C2269 C 0.6547 0.02154 0.26588 0.0
C2270 C 0.69539 0.99975 0.27 0.0
C2271 C 0.72572 0.9921 0.23398 0.0
C2272 C 0.71158 0.99907 0.244 0.0
C2273 C 0.67066 0.019 0.27349 0.0
C2274 C 0.68488 0.01234 0.26337 0.0
H2275 H 0.75865 0.00512 0.20972 0.0
H2276 H 0.73422 0.0164 0.2245 0.0
H2277 H 0.71654 0.98363 0.26599 0.0
H2278 H 0.66118 0.03019 0.31407 0.0
H2279 H 0.685 0.02079 0.29713 0.0
C2280 C 0.26345 0.25781 0.50983 0.0
C2281 C 0.275 0.24935 0.52034 0.0
C2282 C 0.25315 0.27047 0.51645 0.0
C2283 C 0.25268 0.30148 0.55154 0.0
H2284 H 0.20737 0.31022 0.5344 0.0
C2285 C 0.22256 0.36713 0.55666 0.0
C2286 C 0.20518 0.36817 0.5601 0.0
C2287 C 0.23 0.35145 0.55368 0.0
C2288 C 0.21993 0.30785 0.53949 0.0
H2289 H 0.28411 0.24691 0.54625 0.0
H2290 H 0.26599 0.26889 0.55784 0.0
H2291 H 0.2215 0.28413 0.52609 0.0
H2292 H 0.182 0.35354 0.56326 0.0
H2293 H 0.19507 0.32603 0.55819 0.0
H2294 H 0.25116 0.3252 0.56486 0.0
C2295 C 0.26513 0.26594 0.54441 0.0
C2296 C 0.22809 0.29298 0.53459 0.0
C2297 C 0.27545 0.25328 0.53778 0.0
C2298 C 0.19544 0.35313 0.56073 0.0
C2299 C 0.20289 0.3374 0.55768 0.0
C2300 C 0.24453 0.31633 0.55641 0.0
C2301 C 0.25414 0.27494 0.53375 0.0
C2302 C 0.24469 0.28977 0.54032 0.0
C2303 C 0.22026 0.3364 0.55407 0.0
C2304 C 0.2282 0.31985 0.55019 0.0
H2305 H 0.26275 0.25508 0.49635 0.0
H2306 H 0.24496 0.27725 0.50785 0.0
H2307 H 0.26552 0.29951 0.55607 0.0
H2308 H 0.23046 0.37846 0.55631 0.0
H2309 H 0.24336 0.35116 0.55072 0.0
C2310 C 0.2415 0.76643 0.02113 0.0
C2311 C 0.24021 0.77106 0.00403 0.0
C2312 C 0.25141 0.75268 0.0259 0.0
C2313 C 0.28543 0.72426 0.01135 0.0
H2314 H 0.26387 0.69152 0.04057 0.0
C2315 C 0.31826 0.66256 0.03229 0.0
C2316 C 0.30819 0.64774 0.03098 0.0
C2317 C 0.31098 0.67851 0.03044 0.0
C2318 C 0.27006 0.70055 0.0324 0.0
H2319 H 0.24888 0.76533 0.97865 0.0
H2320 H 0.26608 0.74139 0.98696 0.0
H2321 H 0.24984 0.71819 0.03466 0.0
H2322 H 0.28255 0.63803 0.0271 0.0
H2323 H 0.26989 0.66579 0.02373 0.0
H2324 H 0.30541 0.70637 0.00869 0.0
C2325 C 0.25951 0.74841 0.9967 0.0
C2326 C 0.26212 0.7159 0.02917 0.0
C2327 C 0.24955 0.76207 0.99192 0.0
C2328 C 0.29067 0.6492 0.02799 0.0
C2329 C 0.28339 0.66512 0.02626 0.0
C2330 C 0.29342 0.70893 0.01466 0.0
C2331 C 0.26032 0.74336 0.01369 0.0
C2332 C 0.26958 0.72782 0.01838 0.0
C2333 C 0.29346 0.67995 0.0274 0.0
C2334 C 0.28568 0.69679 0.02499 0.0
H2335 H 0.23451 0.77313 0.03078 0.0
H2336 H 0.25194 0.74921 0.03912 0.0
H2337 H 0.29156 0.73326 0.00312 0.0
H2338 H 0.33182 0.66182 0.03449 0.0
H2339 H 0.31905 0.68971 0.03148 0.0
C2340 C 0.76656 0.2477 0.46695 0.0
C2341 C 0.78193 0.24481 0.4756 0.0
C2342 C 0.75568 0.23414 0.46245 0.0
C2343 C 0.74596 0.18975 0.47366 0.0
H2344 H 0.72408 0.18714 0.42937 0.0
C2345 C 0.69955 0.13519 0.45557 0.0
C2346 C 0.70156 0.12778 0.43944 0.0
C2347 C 0.70778 0.1505 0.4599 0.0
C2348 C 0.73014 0.18767 0.44177 0.0
H2349 H 0.79806 0.22537 0.48603 0.0
H2350 H 0.77926 0.20183 0.47805 0.0
H2351 H 0.74191 0.21175 0.43699 0.0
H2352 H 0.71368 0.1307 0.41516 0.0
H2353 H 0.72812 0.15732 0.42272 0.0
H2354 H 0.73471 0.16548 0.47829 0.0
C2355 C 0.77543 0.21457 0.47499 0.0
C2356 C 0.7402 0.20185 0.4462 0.0
C2357 C 0.78628 0.22808 0.47946 0.0
C2358 C 0.71169 0.1362 0.42761 0.0
C2359 C 0.71995 0.15147 0.43195 0.0
C2360 C 0.73591 0.17561 0.46925 0.0
C2361 C 0.75995 0.21743 0.46655 0.0
C2362 C 0.74841 0.20293 0.46212 0.0
C2363 C 0.71825 0.15871 0.4482 0.0
C2364 C 0.72803 0.1743 0.45319 0.0
H2365 H 0.76284 0.26045 0.4638 0.0
H2366 H 0.74379 0.23676 0.45604 0.0
H2367 H 0.75191 0.1903 0.48612 0.0
H2368 H 0.69162 0.12915 0.46488 0.0
H2369 H 0.70598 0.15587 0.47244 0.0
C2370 C 0.7116 0.72826 0.98843 0.0
C2371 C 0.70822 0.72545 0.00561 0.0
C2372 C 0.72327 0.74082 0.98378 0.0
C2373 C 0.75884 0.76779 -6e-05 0.0
H2374 H 0.74358 0.79939 0.96596 0.0
C2375 C 0.80008 0.82453 0.97769 0.0
C2376 C 0.79172 0.84012 0.97719 0.0
C2377 C 0.79091 0.80943 0.97996 0.0
C2378 C 0.74802 0.79065 0.97545 0.0
H2379 H 0.7149 0.73316 0.03138 0.0
H2380 H 0.73525 0.75499 0.02327 0.0
H2381 H 0.72611 0.77454 0.97225 0.0
H2382 H 0.7672 0.85212 0.97824 0.0
H2383 H 0.75122 0.82582 0.98224 0.0
H2384 H 0.78056 0.78418 0.00344 0.0
C2385 C 0.72892 0.74748 0.01339 0.0
C2386 C 0.73811 0.77634 0.97893 0.0
C2387 C 0.71717 0.73505 0.01803 0.0
C2388 C 0.77401 0.84031 0.97877 0.0
C2389 C 0.76484 0.82524 0.98087 0.0
C2390 C 0.76883 0.78204 0.99636 0.0
C2391 C 0.73191 0.75068 0.99623 0.0
C2392 C 0.74326 0.76492 0.99142 0.0
C2393 C 0.77319 0.80965 0.98154 0.0
C2394 C 0.76337 0.79378 0.9843 0.0
H2395 H 0.70494 0.72105 0.97855 0.0
H2396 H 0.72544 0.74291 0.97045 0.0
H2397 H 0.7632 0.75913 0.00953 0.0
H2398 H 0.81374 0.82403 0.97658 0.0
H2399 H 0.79766 0.79758 0.98036 0.0
C2400 C 0.53149 0.29674 0.25905 0.0
C2401 C 0.52842 0.29283 0.24184 0.0
C2402 C 0.5342 0.28387 0.27068 0.0
C2403 C 0.54614 0.23909 0.27476 0.0
H2404 H 0.52306 0.2431 0.31765 0.0
C2405 C 0.56121 0.1976 0.33295 0.0
C2406 C 0.54757 0.1925 0.34304 0.0
C2407 C 0.55865 0.20864 0.31947 0.0
C2408 C 0.52946 0.24168 0.30568 0.0
H2409 H 0.52627 0.27234 0.22326 0.0
H2410 H 0.53097 0.24981 0.24367 0.0
H2411 H 0.51931 0.26479 0.29639 0.0
H2412 H 0.5204 0.19421 0.34631 0.0
H2413 H 0.51593 0.21345 0.32281 0.0
H2414 H 0.5562 0.21586 0.28411 0.0
C2415 C 0.53134 0.26287 0.24811 0.0
C2416 C 0.52748 0.25424 0.29358 0.0
C2417 C 0.52858 0.27577 0.23644 0.0
C2418 C 0.53122 0.19817 0.33897 0.0
C2419 C 0.52866 0.20918 0.32552 0.0
C2420 C 0.54817 0.22653 0.28693 0.0
C2421 C 0.53393 0.26678 0.2654 0.0
C2422 C 0.53587 0.25316 0.27803 0.0
C2423 C 0.54239 0.21479 0.31581 0.0
C2424 C 0.53988 0.22772 0.30255 0.0
H2425 H 0.53156 0.30975 0.26363 0.0
H2426 H 0.53646 0.28732 0.28387 0.0
H2427 H 0.55283 0.23796 0.26293 0.0
H2428 H 0.57399 0.19361 0.33586 0.0
H2429 H 0.56951 0.21285 0.31234 0.0
C2430 C 0.02182 0.22772 0.75758 0.0
C2431 C 0.02066 0.23225 0.7748 0.0
C2432 C 0.02293 0.24015 0.74524 0.0
C2433 C 0.03355 0.28511 0.73827 0.0
H2434 H 0.00591 0.27815 0.69764 0.0
C2435 C 0.02761 0.33569 0.68593 0.0
C2436 C 0.02791 0.32966 0.66909 0.0
C2437 C 0.0265 0.32437 0.69936 0.0
C2438 C 0.01384 0.28022 0.70882 0.0
H2439 H 0.0202 0.25343 0.79262 0.0
H2440 H 0.0221 0.27522 0.77098 0.0
H2441 H 0.00483 0.2574 0.72011 0.0
H2442 H 0.02775 0.307 0.65318 0.0
H2443 H 0.02583 0.28731 0.67652 0.0
H2444 H 0.04265 0.30792 0.72685 0.0
C2445 C 0.02222 0.262 0.76707 0.0
C2446 C 0.01321 0.26832 0.72171 0.0
C2447 C 0.02108 0.24952 0.77946 0.0
C2448 C 0.02717 0.31208 0.66598 0.0
C2449 C 0.02608 0.30079 0.67938 0.0
C2450 C 0.0342 0.29704 0.72533 0.0
C2451 C 0.0229 0.25743 0.74981 0.0
C2452 C 0.0232 0.27052 0.73649 0.0
C2453 C 0.02569 0.30678 0.69622 0.0
C2454 C 0.02448 0.29462 0.71038 0.0
H2455 H 0.02165 0.21453 0.75355 0.0
H2456 H 0.02376 0.23621 0.73208 0.0
H2457 H 0.04147 0.2871 0.74946 0.0
H2458 H 0.02802 0.34918 0.68872 0.0
H2459 H 0.02604 0.32939 0.71219 0.0
C2460 C 0.43991 0.76565 0.26275 0.0
C2461 C 0.44315 0.78267 0.25867 0.0
C2462 C 0.43681 0.7535 0.24993 0.0
C2463 C 0.44521 0.7458 0.20477 0.0
H2464 H 0.4101 0.71106 0.20745 0.0
C2465 C 0.42697 0.70382 0.1473 0.0
C2466 C 0.42403 0.68646 0.14996 0.0
C2467 C 0.42877 0.7151 0.161 0.0
C2468 C 0.42009 0.72056 0.20662 0.0
H2469 H 0.4451 0.80037 0.23797 0.0
H2470 H 0.43961 0.77927 0.21573 0.0
H2471 H 0.41403 0.73165 0.23072 0.0
H2472 H 0.42044 0.66735 0.16909 0.0
H2473 H 0.42369 0.68713 0.19313 0.0
H2474 H 0.45137 0.73479 0.1808 0.0
C2475 C 0.43972 0.77524 0.2288 0.0
C2476 C 0.42231 0.73236 0.21993 0.0
C2477 C 0.44278 0.78736 0.24157 0.0
C2478 C 0.42259 0.68068 0.16665 0.0
C2479 C 0.42443 0.692 0.1804 0.0
C2480 C 0.44301 0.73403 0.19154 0.0
C2481 C 0.43696 0.75814 0.2328 0.0
C2482 C 0.43479 0.74521 0.21904 0.0
C2483 C 0.42771 0.70933 0.17772 0.0
C2484 C 0.43032 0.72139 0.1922 0.0
H2485 H 0.4401 0.76164 0.27582 0.0
H2486 H 0.4348 0.7404 0.2534 0.0
H2487 H 0.45518 0.75532 0.20388 0.0
H2488 H 0.42777 0.70872 0.13459 0.0
H2489 H 0.43089 0.72842 0.15847 0.0
C2490 C 0.97844 0.71233 0.71873 0.0
C2491 C 0.98152 0.69547 0.72325 0.0
C2492 C 0.9766 0.72491 0.73124 0.0
C2493 C 0.98752 0.73403 0.77612 0.0
H2494 H 0.95305 0.76842 0.77286 0.0
C2495 C 0.97043 0.77624 0.83296 0.0
C2496 C 0.96776 0.79356 0.83017 0.0
C2497 C 0.97226 0.76496 0.81936 0.0
C2498 C 0.96287 0.75902 0.77384 0.0
H2499 H 0.9846 0.67851 0.74445 0.0
H2500 H 0.9812 0.70032 0.76615 0.0
H2501 H 0.9557 0.74735 0.75005 0.0
H2502 H 0.96486 0.81258 0.81082 0.0
H2503 H 0.968 0.79278 0.78697 0.0
H2504 H 0.99464 0.74555 0.79991 0.0
C2505 C 0.98053 0.70393 0.75297 0.0
C2506 C 0.96439 0.74696 0.76079 0.0
C2507 C 0.98236 0.69139 0.74051 0.0
C2508 C 0.96677 0.7993 0.8134 0.0
C2509 C 0.96857 0.78797 0.79975 0.0
C2510 C 0.986 0.74604 0.78914 0.0
C2511 C 0.97783 0.72086 0.7485 0.0
C2512 C 0.9766 0.7342 0.7619 0.0
C2513 C 0.97142 0.77068 0.8026 0.0
C2514 C 0.97353 0.75855 0.78826 0.0
H2515 H 0.97774 0.71589 0.70554 0.0
H2516 H 0.97464 0.73786 0.72739 0.0
H2517 H 0.99732 0.72461 0.7772 0.0
H2518 H 0.97087 0.77131 0.8457 0.0
H2519 H 0.9741 0.75167 0.82199 0.0
C2520 C 0.75805 0.4979 0.7311 0.0
C2521 C 0.76128 0.50609 0.71575 0.0
C2522 C 0.7414 0.49584 0.73675 0.0
C2523 C 0.69776 0.512 0.73011 0.0
H2524 H 0.68363 0.46837 0.7474 0.0
C2525 C 0.62789 0.4985 0.74589 0.0
C2526 C 0.62129 0.48286 0.73987 0.0
C2527 C 0.6454 0.50161 0.74636 0.0
C2528 C 0.68736 0.48063 0.74258 0.0
H2529 H 0.74953 0.51862 0.69437 0.0
H2530 H 0.72071 0.51482 0.70402 0.0
H2531 H 0.71344 0.47362 0.74126 0.0
H2532 H 0.62802 0.45786 0.7306 0.0
H2533 H 0.65839 0.46343 0.73088 0.0
H2534 H 0.67165 0.51873 0.73053 0.0
C2535 C 0.73098 0.51024 0.7119 0.0
C2536 C 0.7045 0.48371 0.73925 0.0
C2537 C 0.74755 0.5123 0.70629 0.0
C2538 C 0.63265 0.47016 0.73502 0.0
C2539 C 0.65012 0.47328 0.73542 0.0
C2540 C 0.68065 0.5089 0.73336 0.0
C2541 C 0.72766 0.50196 0.72717 0.0
C2542 C 0.70984 0.4993 0.7326 0.0
C2543 C 0.65672 0.48916 0.74078 0.0
C2544 C 0.67517 0.49305 0.73929 0.0
H2545 H 0.76837 0.49301 0.73871 0.0
H2546 H 0.73929 0.48952 0.74864 0.0
H2547 H 0.70148 0.52426 0.72528 0.0
H2548 H 0.61952 0.5086 0.74966 0.0
H2549 H 0.65005 0.5139 0.75081 0.0
C2550 C 0.75827 0.52426 0.25221 0.0
C2551 C 0.74936 0.51792 0.23786 0.0
C2552 C 0.77565 0.52153 0.25413 0.0
C2553 C 0.81121 0.49573 0.23826 0.0
H2554 H 0.83848 0.53524 0.25128 0.0
C2555 C 0.88445 0.49378 0.24374 0.0
C2556 C 0.89314 0.5073 0.23614 0.0
C2557 C 0.86692 0.4944 0.24601 0.0
C2558 C 0.83105 0.5241 0.24762 0.0
H2559 H 0.75162 0.50319 0.21459 0.0
H2560 H 0.78194 0.4986 0.21786 0.0
H2561 H 0.80768 0.53692 0.25134 0.0
H2562 H 0.89034 0.53232 0.22552 0.0
H2563 H 0.85979 0.53332 0.22927 0.0
H2564 H 0.83464 0.48312 0.23393 0.0
C2565 C 0.77548 0.50554 0.22772 0.0
C2566 C 0.81339 0.52499 0.24784 0.0
C2567 C 0.7581 0.50827 0.22579 0.0
C2568 C 0.88398 0.52161 0.23122 0.0
C2569 C 0.8665 0.52226 0.23356 0.0
C2570 C 0.8289 0.49483 0.23807 0.0
C2571 C 0.78452 0.5124 0.24176 0.0
C2572 C 0.80326 0.5109 0.24292 0.0
C2573 C 0.85773 0.50862 0.24085 0.0
C2574 C 0.83901 0.50909 0.24247 0.0
H2575 H 0.75191 0.53165 0.26181 0.0
H2576 H 0.78221 0.52677 0.26522 0.0
H2577 H 0.80376 0.48461 0.23456 0.0
H2578 H 0.89115 0.48254 0.24757 0.0
H2579 H 0.86054 0.48375 0.2518 0.0
C2580 C 0.28208 0.99189 0.27601 0.0
C2581 C 0.28717 0.98748 0.29249 0.0
C2582 C 0.26632 0.9865 0.26945 0.0
C2583 C 0.22942 0.95769 0.27656 0.0
H2584 H 0.20334 0.99544 0.25991 0.0
C2585 C 0.1571 0.9528 0.26193 0.0
C2586 C 0.1479 0.96556 0.2701 0.0
C2587 C 0.17479 0.95407 0.26102 0.0
C2588 C 0.21049 0.98474 0.26439 0.0
H2589 H 0.28027 0.97289 0.3145 0.0
H2590 H 0.25277 0.96363 0.30313 0.0
H2591 H 0.23374 0.99898 0.26485 0.0
H2592 H 0.14975 0.98994 0.28306 0.0
H2593 H 0.18051 0.99222 0.28141 0.0
H2594 H 0.2059 0.94374 0.27686 0.0
C2595 C 0.26095 0.97119 0.29523 0.0
C2596 C 0.22794 0.9867 0.26707 0.0
C2597 C 0.27668 0.97661 0.30181 0.0
C2598 C 0.15658 0.97985 0.27683 0.0
C2599 C 0.17416 0.98122 0.27573 0.0
C2600 C 0.21194 0.9557 0.27378 0.0
C2601 C 0.25536 0.97653 0.27921 0.0
C2602 C 0.23751 0.97336 0.27367 0.0
C2603 C 0.18348 0.96828 0.268 0.0
C2604 C 0.20225 0.96939 0.26819 0.0
H2605 H 0.28992 0.00012 0.26843 0.0
H2606 H 0.26245 0.99062 0.25696 0.0
H2607 H 0.2365 0.94714 0.2815 0.0
H2608 H 0.15067 0.94164 0.25668 0.0
H2609 H 0.18169 0.94394 0.25496 0.0
C2610 C 0.24554 0.02961 0.76746 0.0
C2611 C 0.2327 0.02783 0.755 0.0
C2612 C 0.26255 0.02809 0.76323 0.0
C2613 C 0.29096 0.01015 0.7313 0.0
H2614 H 0.32391 0.03984 0.7541 0.0
C2615 C 0.36172 0.99404 0.73839 0.0
C2616 C 0.37389 0.00725 0.7392 0.0
C2617 C 0.34446 0.99756 0.73694 0.0
C2618 C 0.31493 0.0316 0.74737 0.0
H2619 H 0.22771 0.0229 0.72827 0.0
H2620 H 0.25761 0.02029 0.72083 0.0
H2621 H 0.29384 0.0444 0.7581 0.0
H2622 H 0.37744 0.03453 0.73815 0.0
H2623 H 0.34734 0.04066 0.73517 0.0
H2624 H 0.31213 0.99734 0.72058 0.0
C2625 C 0.25441 0.02279 0.73392 0.0
C2626 C 0.29765 0.03408 0.74986 0.0
C2627 C 0.2373 0.02434 0.73817 0.0
C2628 C 0.36843 0.02404 0.73752 0.0
C2629 C 0.35114 0.02756 0.73602 0.0
C2630 C 0.30829 0.00768 0.72878 0.0
C2631 C 0.26723 0.02476 0.74641 0.0
C2632 C 0.28547 0.02314 0.74219 0.0
C2633 C 0.33892 0.01439 0.73618 0.0
C2634 C 0.3205 0.01816 0.73707 0.0
H2635 H 0.24248 0.03221 0.78056 0.0
H2636 H 0.27205 0.02932 0.77323 0.0
H2637 H 0.28191 0.00147 0.72523 0.0
H2638 H 0.36551 0.98095 0.73935 0.0
H2639 H 0.33545 0.98708 0.73722 0.0
C2640 C 0.73852 0.74778 0.48436 0.0
C2641 C 0.72384 0.75231 0.49314 0.0
C2642 C 0.74282 0.73068 0.48241 0.0
C2643 C 0.73401 0.68834 0.50054 0.0
H2644 H 0.74769 0.67087 0.45672 0.0
C2645 C 0.72586 0.61847 0.48132 0.0
C2646 C 0.73918 0.61043 0.47294 0.0
C2647 C 0.72647 0.63591 0.48445 0.0
C2648 C 0.74414 0.67562 0.4691 0.0
H2649 H 0.70215 0.74243 0.50667 0.0
H2650 H 0.70948 0.7129 0.50311 0.0
H2651 H 0.74429 0.70142 0.46094 0.0
H2652 H 0.76357 0.6143 0.46123 0.0
H2653 H 0.76454 0.64505 0.46656 0.0
H2654 H 0.73326 0.66254 0.50851 0.0
C2655 C 0.71788 0.72245 0.49798 0.0
C2656 C 0.74221 0.6931 0.47153 0.0
C2657 C 0.7136 0.73944 0.49991 0.0
C2658 C 0.75317 0.6202 0.46778 0.0
C2659 C 0.75368 0.63776 0.47073 0.0
C2660 C 0.73583 0.67093 0.49807 0.0
C2661 C 0.73256 0.71784 0.48927 0.0
C2662 C 0.7367 0.69961 0.48716 0.0
C2663 C 0.74034 0.64575 0.47916 0.0
C2664 C 0.7405 0.66435 0.48222 0.0
H2665 H 0.74667 0.75741 0.47901 0.0
H2666 H 0.75425 0.72754 0.4757 0.0
H2667 H 0.73016 0.69297 0.51286 0.0
H2668 H 0.715 0.61123 0.48558 0.0
H2669 H 0.71591 0.64175 0.4908 0.0
C2670 C 0.76906 0.2528 0.02138 0.0
C2671 C 0.75535 0.24257 0.01559 0.0
C2672 C 0.76741 0.27037 0.02285 0.0
C2673 C 0.74268 0.30501 0.00497 0.0
H2674 H 0.76497 0.33191 0.04053 0.0
C2675 C 0.75822 0.37592 0.99777 0.0
C2676 C 0.75626 0.3868 0.01183 0.0
C2677 C 0.75617 0.35842 0.99936 0.0
C2678 C 0.75849 0.32458 0.03062 0.0
H2679 H 0.72894 0.24274 0.00753 0.0
H2680 H 0.72605 0.27339 0.01021 0.0
H2681 H 0.76474 0.30101 0.04214 0.0
H2682 H 0.75039 0.38787 0.03857 0.0
H2683 H 0.7467 0.35718 0.04134 0.0
H2684 H 0.73652 0.32853 0.99338 0.0
C2685 C 0.73815 0.26783 0.01337 0.0
C2686 C 0.75852 0.30689 0.03146 0.0
C2687 C 0.73979 0.25025 0.01191 0.0
C2688 C 0.7519 0.3798 0.02749 0.0
C2689 C 0.74993 0.36224 0.0291 0.0
C2690 C 0.7427 0.32268 0.00411 0.0
C2691 C 0.75202 0.27812 0.01856 0.0
C2692 C 0.75081 0.2969 0.01851 0.0
C2693 C 0.75214 0.35136 0.01506 0.0
C2694 C 0.75084 0.33266 0.01678 0.0
H2695 H 0.78123 0.24729 0.02434 0.0
H2696 H 0.7784 0.27794 0.02673 0.0
H2697 H 0.73676 0.29771 0.99471 0.0
H2698 H 0.76139 0.38095 0.98549 0.0
H2699 H 0.75814 0.35038 0.98834 0.0
C2700 C 0.21949 0.76044 0.51791 0.0
C2701 C 0.23083 0.7469 0.51879 0.0
C2702 C 0.22513 0.77708 0.52081 0.0
C2703 C 0.25924 0.80316 0.54054 0.0
H2704 H 0.24156 0.83751 0.51068 0.0
C2705 C 0.26198 0.87496 0.55633 0.0
C2706 C 0.26419 0.88637 0.54299 0.0
C2707 C 0.26045 0.85754 0.55307 0.0
C2708 C 0.24682 0.82808 0.519 0.0
H2709 H 0.25698 0.74022 0.52381 0.0
H2710 H 0.26688 0.76944 0.52889 0.0
H2711 H 0.23388 0.80788 0.50561 0.0
H2712 H 0.26717 0.88833 0.51582 0.0
H2713 H 0.26482 0.85791 0.51016 0.0
H2714 H 0.27216 0.82347 0.55396 0.0
C2715 C 0.25359 0.76709 0.52599 0.0
C2716 C 0.24223 0.81111 0.51622 0.0
C2717 C 0.24793 0.75037 0.52303 0.0
C2718 C 0.26557 0.87989 0.52639 0.0
C2719 C 0.26403 0.86247 0.52313 0.0
C2720 C 0.2638 0.8202 0.54336 0.0
C2721 C 0.24227 0.78063 0.52467 0.0
C2722 C 0.24817 0.79848 0.5271 0.0
C2723 C 0.2611 0.85113 0.53638 0.0
C2724 C 0.25748 0.83287 0.53273 0.0
H2725 H 0.20621 0.75824 0.51479 0.0
H2726 H 0.21603 0.78719 0.52003 0.0
H2727 H 0.26397 0.79373 0.54917 0.0
H2728 H 0.26111 0.87952 0.56929 0.0
H2729 H 0.25809 0.84918 0.56356 0.0
C2730 C 0.26259 0.26046 0.00164 0.0
C2731 C 0.27812 0.26301 0.99346 0.0
C2732 C 0.25583 0.24406 0.0034 0.0
C2733 C 0.25886 0.20066 0.98526 0.0
H2734 H 0.24094 0.18611 0.02823 0.0
C2735 C 0.23757 0.13168 0.99381 0.0
C2736 C 0.24352 0.12396 0.00866 0.0
C2737 C 0.23811 0.1493 0.99229 0.0
C2738 C 0.2459 0.18999 0.01615 0.0
H2739 H 0.29877 0.25031 0.98087 0.0
H2740 H 0.28716 0.22194 0.98408 0.0
H2741 H 0.24957 0.21573 0.0247 0.0
H2742 H 0.25359 0.12889 0.03402 0.0
H2743 H 0.25514 0.15954 0.03113 0.0
H2744 H 0.25607 0.17493 0.9769 0.0
C2745 C 0.28001 0.23255 0.98889 0.0
C2746 C 0.25068 0.20699 0.01407 0.0
C2747 C 0.28674 0.24885 0.98715 0.0
C2748 C 0.24919 0.13438 0.02228 0.0
C2749 C 0.24986 0.152 0.02071 0.0
C2750 C 0.25415 0.18372 0.98734 0.0
C2751 C 0.26445 0.22993 0.99695 0.0
C2752 C 0.25758 0.21242 0.99872 0.0
C2753 C 0.24477 0.15965 0.00551 0.0
C2754 C 0.2479 0.17808 0.0029 0.0
H2755 H 0.25565 0.27112 0.00664 0.0
H2756 H 0.24378 0.24245 0.00962 0.0
H2757 H 0.26387 0.20449 0.97318 0.0
H2758 H 0.23321 0.1241 0.98301 0.0
H2759 H 0.23379 0.15477 0.98052 0.0
C2760 C 0.471 0.7061 0.73597 0.0
C2761 C 0.48553 0.70611 0.74648 0.0
C2762 C 0.4722 0.71016 0.71887 0.0
C2763 C 0.50278 0.71106 0.6841 0.0
H2764 H 0.46645 0.73426 0.66082 0.0
C2765 C 0.48237 0.73448 0.61229 0.0
C2766 C 0.48653 0.71971 0.60317 0.0
C2767 C 0.48379 0.73501 0.63 0.0
C2768 C 0.47684 0.72799 0.66713 0.0
H2769 H 0.51268 0.71085 0.74737 0.0
H2770 H 0.51475 0.71818 0.71752 0.0
H2771 H 0.46601 0.73192 0.69155 0.0
H2772 H 0.4961 0.69419 0.60543 0.0
H2773 H 0.49811 0.69494 0.63617 0.0
H2774 H 0.51366 0.70721 0.65971 0.0
C2775 C 0.50245 0.71476 0.72246 0.0
C2776 C 0.47648 0.72645 0.68474 0.0
C2777 C 0.50126 0.71062 0.73958 0.0
C2778 C 0.49252 0.70567 0.61209 0.0
C2779 C 0.49392 0.70619 0.62973 0.0
C2780 C 0.50318 0.71266 0.66651 0.0
C2781 C 0.48795 0.71442 0.71186 0.0
C2782 C 0.48925 0.71764 0.6934 0.0
C2783 C 0.48945 0.7208 0.63892 0.0
C2784 C 0.49002 0.7208 0.65777 0.0
H2785 H 0.45868 0.70265 0.74086 0.0
H2786 H 0.46081 0.70949 0.71105 0.0
H2787 H 0.51277 0.7041 0.69031 0.0
H2788 H 0.47764 0.74548 0.6058 0.0
H2789 H 0.4804 0.74652 0.63669 0.0
C2790 C 0.0102 0.76328 0.2468 0.0
C2791 C 0.01745 0.77786 0.23966 0.0
C2792 C 0.0097 0.76153 0.26439 0.0
C2793 C 0.01001 0.7873 0.30353 0.0
H2794 H 0.0174 0.74438 0.32561 0.0
C2795 C 0.99289 0.77741 0.37323 0.0
C2796 C 0.00485 0.76914 0.38343 0.0
C2797 C 0.99456 0.77761 0.35565 0.0
C2798 C 0.0154 0.75648 0.31963 0.0
H2799 H 0.03038 0.80177 0.24538 0.0
H2800 H 0.0296 0.79865 0.27604 0.0
H2801 H 0.0212 0.7465 0.29503 0.0
H2802 H 0.0278 0.75434 0.38312 0.0
H2803 H 0.03069 0.75465 0.35237 0.0
H2804 H 0.00439 0.79736 0.32808 0.0
C2805 C 0.02409 0.78869 0.26804 0.0
C2806 C 0.01743 0.75765 0.30211 0.0
C2807 C 0.02462 0.79042 0.25047 0.0
C2808 C 0.01826 0.76066 0.3756 0.0
C2809 C 0.01993 0.76085 0.35799 0.0
C2810 C 0.00793 0.78612 0.321 0.0
C2811 C 0.0164 0.77434 0.27521 0.0
C2812 C 0.01474 0.77308 0.29387 0.0
C2813 C 0.00824 0.76955 0.34785 0.0
C2814 C 0.01053 0.77068 0.32925 0.0
H2815 H 0.00457 0.75335 0.23884 0.0
H2816 H 0.00357 0.75039 0.2695 0.0
H2817 H 0.00764 0.79932 0.29754 0.0
H2818 H 0.98224 0.7838 0.37885 0.0
H2819 H 0.98515 0.78413 0.34815 0.0
C2820 C 0.50576 0.20435 0.76677 0.0
C2821 C 0.51259 0.21498 0.7544 0.0
C2822 C 0.5066 0.20908 0.7839 0.0
C2823 C 0.53142 0.23614 0.81375 0.0
H2824 H 0.49469 0.22614 0.84431 0.0
C2825 C 0.54046 0.23423 0.88629 0.0
C2826 C 0.52738 0.24027 0.89654 0.0
C2827 C 0.53836 0.23325 0.8687 0.0
C2828 C 0.50499 0.22922 0.83592 0.0
H2829 H 0.52521 0.23918 0.75029 0.0
H2830 H 0.52654 0.24746 0.78014 0.0
H2831 H 0.49087 0.22056 0.81401 0.0
H2832 H 0.50198 0.25042 0.89633 0.0
H2833 H 0.4984 0.24892 0.86555 0.0
H2834 H 0.54554 0.24479 0.83566 0.0
C2835 C 0.52076 0.23536 0.77662 0.0
C2836 C 0.50287 0.22583 0.81858 0.0
C2837 C 0.51991 0.23063 0.7595 0.0
C2838 C 0.51234 0.24582 0.88877 0.0
C2839 C 0.51022 0.24479 0.87116 0.0
C2840 C 0.53355 0.23949 0.83109 0.0
C2841 C 0.51428 0.22455 0.78904 0.0
C2842 C 0.51612 0.22908 0.80732 0.0
C2843 C 0.52311 0.23826 0.86096 0.0
C2844 C 0.52044 0.23589 0.8424 0.0
H2845 H 0.50004 0.1922 0.76328 0.0
H2846 H 0.50166 0.20038 0.79317 0.0
H2847 H 0.54194 0.23865 0.80544 0.0
H2848 H 0.55226 0.23003 0.8919 0.0
H2849 H 0.54849 0.22803 0.86123 0.0
C2850 C 0.00737 0.30553 0.24828 0.0
C2851 C 0.99649 0.29809 0.26008 0.0
C2852 C 0.00439 0.30327 0.23091 0.0
C2853 C 0.97089 0.29232 0.19943 0.0
H2854 H 0.0091 0.28591 0.16977 0.0
C2855 C 0.96302 0.28213 0.12676 0.0
C2856 C 0.97406 0.29184 0.11685 0.0
C2857 C 0.96558 0.28119 0.14431 0.0
C2858 C 0.9983 0.28777 0.17788 0.0
H2859 H 0.97389 0.28243 0.26287 0.0
H2860 H 0.96874 0.27839 0.23247 0.0
H2861 H 0.01378 0.28747 0.20034 0.0
H2862 H 0.99673 0.30773 0.11747 0.0
H2863 H 0.0011 0.30625 0.148 0.0
H2864 H 0.95545 0.2928 0.17689 0.0
C2865 C 0.97951 0.2861 0.23669 0.0
C2866 C 0.00099 0.28869 0.1954 0.0
C2867 C 0.98251 0.28836 0.2541 0.0
C2868 C 0.98788 0.30032 0.12479 0.0
C2869 C 0.99049 0.29931 0.14226 0.0
C2870 C 0.9682 0.29136 0.18188 0.0
C2871 C 0.99046 0.29349 0.2249 0.0
C2872 C 0.98736 0.29127 0.20637 0.0
C2873 C 0.97933 0.28982 0.15224 0.0
C2874 C 0.98192 0.28937 0.17091 0.0
H2875 H 0.01822 0.31316 0.25243 0.0
H2876 H 0.0129 0.30939 0.22218 0.0
H2877 H 0.96014 0.29446 0.20753 0.0
H2878 H 0.95222 0.27552 0.12099 0.0
H2879 H 0.95684 0.27368 0.15166 0.0
loop_
_geom_bond_atom_site_label_1
_geom_bond_atom_site_label_2
_geom_bond_distance
_geom_bond_site_symmetry_2
_ccdc_geom_bond_type
O0 Cd1 2.300 . S
O0 C7 1.275 . S
Cd1 O0 2.300 . S
Cd1 O9 2.381 . S
Cd1 O10 2.378 . S
O2 Cd3 2.385 . S
O2 C7 1.255 . S
Cd3 O2 2.385 . S
Cd3 O4 2.317 . S
O4 Cd3 2.317 . S
O4 C5 1.232 . S
C5 O4 1.232 . S
C5 O6 1.218 . S
O6 C5 1.218 . S
C7 O0 1.275 . S
C7 O2 1.255 . S
C8 O9 1.258 . S
C8 O10 1.256 . S
O9 Cd1 2.381 . S
O9 C8 1.258 . S
O10 Cd1 2.378 . S
O10 C8 1.256 . S
O11 Cd12 2.300 . S
O11 C18 1.275 . S
Cd12 O11 2.300 . S
Cd12 O20 2.381 . S
Cd12 O21 2.378 . S
O13 Cd14 2.385 . S
O13 C18 1.255 . S
Cd14 O13 2.385 . S
Cd14 O15 2.317 . S
O15 Cd14 2.317 . S
O15 C16 1.232 . S
C16 O15 1.232 . S
C16 O17 1.218 . S
O17 C16 1.218 . S
C18 O11 1.275 . S
C18 O13 1.255 . S
C19 O20 1.258 . S
C19 O21 1.256 . S
O20 Cd12 2.381 . S
O20 C19 1.258 . S
O21 Cd12 2.378 . S
O21 C19 1.256 . S
O22 Cd23 2.300 1_545 S
O22 C29 1.275 . S
Cd23 O22 2.300 1_565 S
Cd23 O31 2.381 1_565 S
Cd23 O32 2.378 . S
O24 Cd25 2.385 . S
O24 C29 1.255 1_565 S
Cd25 O24 2.385 . S
Cd25 O26 2.317 . S
O26 Cd25 2.317 . S
O26 C27 1.232 . S
C27 O26 1.232 . S
C27 O28 1.218 . S
O28 C27 1.218 . S
C29 O22 1.275 . S
C29 O24 1.255 1_545 S
C30 O31 1.258 1_565 S
C30 O32 1.256 . S
O31 Cd23 2.381 1_545 S
O31 C30 1.258 1_545 S
O32 Cd23 2.378 . S
O32 C30 1.256 . S
O33 Cd34 2.300 1_565 S
O33 C40 1.275 . S
Cd34 O33 2.300 1_545 S
Cd34 O42 2.381 1_545 S
Cd34 O43 2.378 . S
O35 Cd36 2.385 . S
O35 C40 1.255 1_545 S
Cd36 O35 2.385 . S
Cd36 O37 2.317 . S
O37 Cd36 2.317 . S
O37 C38 1.232 . S
C38 O37 1.232 . S
C38 O39 1.218 . S
O39 C38 1.218 . S
C40 O33 1.275 . S
C40 O35 1.255 1_565 S
C41 O42 1.258 1_545 S
C41 O43 1.256 . S
O42 Cd34 2.381 1_565 S
O42 C41 1.258 1_565 S
O43 Cd34 2.378 . S
O43 C41 1.256 . S
O44 Cd45 2.300 . S
O44 C51 1.275 . S
Cd45 O44 2.300 . S
Cd45 O53 2.381 . S
Cd45 O54 2.378 . S
O46 Cd47 2.385 . S
O46 C51 1.255 . S
Cd47 O46 2.385 . S
Cd47 O48 2.317 . S
O48 Cd47 2.317 . S
O48 C49 1.232 . S
C49 O48 1.232 . S
C49 O50 1.218 . S
O50 C49 1.218 . S
C51 O44 1.275 . S
C51 O46 1.255 . S
C52 O53 1.258 . S
C52 O54 1.256 . S
O53 Cd45 2.381 . S
O53 C52 1.258 . S
O54 Cd45 2.378 . S
O54 C52 1.256 . S
O55 Cd56 2.300 1_556 S
O55 C62 1.275 . S
Cd56 O55 2.300 1_554 S
Cd56 O64 2.381 1_554 S
Cd56 O65 2.378 . S
O57 Cd58 2.385 . S
O57 C62 1.255 1_554 S
Cd58 O57 2.385 . S
Cd58 O59 2.317 . S
O59 Cd58 2.317 . S
O59 C60 1.232 . S
C60 O59 1.232 . S
C60 O61 1.218 . S
O61 C60 1.218 . S
C62 O55 1.275 . S
C62 O57 1.255 1_556 S
C63 O64 1.258 1_554 S
C63 O65 1.256 . S
O64 Cd56 2.381 1_556 S
O64 C63 1.258 1_556 S
O65 Cd56 2.378 . S
O65 C63 1.256 . S
O66 Cd67 2.300 . S
O66 C73 1.275 . S
Cd67 O66 2.300 . S
Cd67 O75 2.381 . S
Cd67 O76 2.378 . S
O68 Cd69 2.385 . S
O68 C73 1.255 . S
Cd69 O68 2.385 . S
Cd69 O70 2.317 . S
O70 Cd69 2.317 . S
O70 C71 1.232 . S
C71 O70 1.232 . S
C71 O72 1.218 . S
O72 C71 1.218 . S
C73 O66 1.275 . S
C73 O68 1.255 . S
C74 O75 1.258 . S
C74 O76 1.256 . S
O75 Cd67 2.381 . S
O75 C74 1.258 . S
O76 Cd67 2.378 . S
O76 C74 1.256 . S
O77 Cd78 2.300 1_554 S
O77 C84 1.275 . S
Cd78 O77 2.300 1_556 S
Cd78 O86 2.381 1_556 S
Cd78 O87 2.378 . S
O79 Cd80 2.385 . S
O79 C84 1.255 1_556 S
Cd80 O79 2.385 . S
Cd80 O81 2.317 . S
O81 Cd80 2.317 . S
O81 C82 1.232 . S
C82 O81 1.232 . S
C82 O83 1.218 . S
O83 C82 1.218 . S
C84 O77 1.275 . S
C84 O79 1.255 1_554 S
C85 O86 1.258 1_556 S
C85 O87 1.256 . S
O86 Cd78 2.381 1_554 S
O86 C85 1.258 1_554 S
O87 Cd78 2.378 . S
O87 C85 1.256 . S
O88 Cd89 2.300 . S
O88 C95 1.275 . S
Cd89 O88 2.300 . S
Cd89 O97 2.381 . S
Cd89 O98 2.378 . S
O90 Cd91 2.385 . S
O90 C95 1.255 . S
Cd91 O90 2.385 . S
Cd91 O92 2.317 . S
O92 Cd91 2.317 . S
O92 C93 1.232 . S
C93 O92 1.232 . S
C93 O94 1.218 . S
O94 C93 1.218 . S
C95 O88 1.275 . S
C95 O90 1.255 . S
C96 O97 1.258 . S
C96 O98 1.256 . S
O97 Cd89 2.381 . S
O97 C96 1.258 . S
O98 Cd89 2.378 . S
O98 C96 1.256 . S
O99 Cd100 2.300 1_655 S
O99 C106 1.275 . S
Cd100 O99 2.300 1_455 S
Cd100 O108 2.381 1_455 S
Cd100 O109 2.378 . S
O101 Cd102 2.385 . S
O101 C106 1.255 1_455 S
Cd102 O101 2.385 . S
Cd102 O103 2.317 . S
O103 Cd102 2.317 . S
O103 C104 1.232 . S
C104 O103 1.232 . S
C104 O105 1.218 . S
O105 C104 1.218 . S
C106 O99 1.275 . S
C106 O101 1.255 1_655 S
C107 O108 1.258 1_455 S
C107 O109 1.256 . S
O108 Cd100 2.381 1_655 S
O108 C107 1.258 1_655 S
O109 Cd100 2.378 . S
O109 C107 1.256 . S
O110 Cd111 2.300 . S
O110 C117 1.275 . S
Cd111 O110 2.300 . S
Cd111 O119 2.381 . S
Cd111 O120 2.378 . S
O112 Cd113 2.385 . S
O112 C117 1.255 . S
Cd113 O112 2.385 . S
Cd113 O114 2.317 . S
O114 Cd113 2.317 . S
O114 C115 1.232 . S
C115 O114 1.232 . S
C115 O116 1.218 . S
O116 C115 1.218 . S
C117 O110 1.275 . S
C117 O112 1.255 . S
C118 O119 1.258 . S
C118 O120 1.256 . S
O119 Cd111 2.381 . S
O119 C118 1.258 . S
O120 Cd111 2.378 . S
O120 C118 1.256 . S
O121 Cd122 2.300 1_455 S
O121 C128 1.275 . S
Cd122 O121 2.300 1_655 S
Cd122 O130 2.381 1_655 S
Cd122 O131 2.378 . S
O123 Cd124 2.385 . S
O123 C128 1.255 1_655 S
Cd124 O123 2.385 . S
Cd124 O125 2.317 . S
O125 Cd124 2.317 . S
O125 C126 1.232 . S
C126 O125 1.232 . S
C126 O127 1.218 . S
O127 C126 1.218 . S
C128 O121 1.275 . S
C128 O123 1.255 1_455 S
C129 O130 1.258 1_655 S
C129 O131 1.256 . S
O130 Cd122 2.381 1_455 S
O130 C129 1.258 1_455 S
O131 Cd122 2.378 . S
O131 C129 1.256 . S
O132 Cd133 2.300 . S
O132 C139 1.275 . S
Cd133 O132 2.300 . S
Cd133 O141 2.381 . S
Cd133 O142 2.378 . S
O134 Cd135 2.385 . S
O134 C139 1.255 . S
Cd135 O134 2.385 . S
Cd135 O136 2.317 . S
O136 Cd135 2.317 . S
O136 C137 1.232 . S
C137 O136 1.232 . S
C137 O138 1.218 . S
O138 C137 1.218 . S
C139 O132 1.275 . S
C139 O134 1.255 . S
C140 O141 1.258 . S
C140 O142 1.256 . S
O141 Cd133 2.381 . S
O141 C140 1.258 . S
O142 Cd133 2.378 . S
O142 C140 1.256 . S
O143 Cd144 2.300 . S
O143 C150 1.275 . S
Cd144 O143 2.300 . S
Cd144 O152 2.381 . S
Cd144 O153 2.378 . S
O145 Cd146 2.385 . S
O145 C150 1.255 . S
Cd146 O145 2.385 . S
Cd146 O147 2.317 . S
O147 Cd146 2.317 . S
O147 C148 1.232 . S
C148 O147 1.232 . S
C148 O149 1.218 . S
O149 C148 1.218 . S
C150 O143 1.275 . S
C150 O145 1.255 . S
C151 O152 1.258 . S
C151 O153 1.256 . S
O152 Cd144 2.381 . S
O152 C151 1.258 . S
O153 Cd144 2.378 . S
O153 C151 1.256 . S
O154 Cd155 2.300 . S
O154 C161 1.275 . S
Cd155 O154 2.300 . S
Cd155 O163 2.381 1_565 S
Cd155 O164 2.378 . S
O156 Cd157 2.385 . S
O156 C161 1.255 . S
Cd157 O156 2.385 . S
Cd157 O158 2.317 . S
O158 Cd157 2.317 . S
O158 C159 1.232 . S
C159 O158 1.232 . S
C159 O160 1.218 . S
O160 C159 1.218 . S
C161 O154 1.275 . S
C161 O156 1.255 . S
C162 O163 1.258 . S
C162 O164 1.256 1_545 S
O163 Cd155 2.381 1_545 S
O163 C162 1.258 . S
O164 Cd155 2.378 . S
O164 C162 1.256 1_565 S
O165 Cd166 2.300 . S
O165 C172 1.275 . S
Cd166 O165 2.300 . S
Cd166 O174 2.381 1_545 S
Cd166 O175 2.378 . S
O167 Cd168 2.385 . S
O167 C172 1.255 . S
Cd168 O167 2.385 . S
Cd168 O169 2.317 . S
O169 Cd168 2.317 . S
O169 C170 1.232 . S
C170 O169 1.232 . S
C170 O171 1.218 . S
O171 C170 1.218 . S
C172 O165 1.275 . S
C172 O167 1.255 . S
C173 O174 1.258 . S
C173 O175 1.256 1_565 S
O174 Cd166 2.381 1_565 S
O174 C173 1.258 . S
O175 Cd166 2.378 . S
O175 C173 1.256 1_545 S
O176 Cd177 2.300 . S
O176 C183 1.275 . S
Cd177 O176 2.300 . S
Cd177 O185 2.381 . S
Cd177 O186 2.378 . S
O178 Cd179 2.385 . S
O178 C183 1.255 . S
Cd179 O178 2.385 . S
Cd179 O180 2.317 . S
O180 Cd179 2.317 . S
O180 C181 1.232 . S
C181 O180 1.232 . S
C181 O182 1.218 . S
O182 C181 1.218 . S
C183 O176 1.275 . S
C183 O178 1.255 . S
C184 O185 1.258 . S
C184 O186 1.256 . S
O185 Cd177 2.381 . S
O185 C184 1.258 . S
O186 Cd177 2.378 . S
O186 C184 1.256 . S
O187 Cd188 2.300 . S
O187 C194 1.275 . S
Cd188 O187 2.300 . S
Cd188 O196 2.381 1_554 S
Cd188 O197 2.378 . S
O189 Cd190 2.385 . S
O189 C194 1.255 . S
Cd190 O189 2.385 . S
Cd190 O191 2.317 . S
O191 Cd190 2.317 . S
O191 C192 1.232 . S
C192 O191 1.232 . S
C192 O193 1.218 . S
O193 C192 1.218 . S
C194 O187 1.275 . S
C194 O189 1.255 . S
C195 O196 1.258 . S
C195 O197 1.256 1_556 S
O196 Cd188 2.381 1_556 S
O196 C195 1.258 . S
O197 Cd188 2.378 . S
O197 C195 1.256 1_554 S
O198 Cd199 2.300 . S
O198 C205 1.275 . S
Cd199 O198 2.300 . S
Cd199 O207 2.381 . S
Cd199 O208 2.378 . S
O200 Cd201 2.385 . S
O200 C205 1.255 . S
Cd201 O200 2.385 . S
Cd201 O202 2.317 . S
O202 Cd201 2.317 . S
O202 C203 1.232 . S
C203 O202 1.232 . S
C203 O204 1.218 . S
O204 C203 1.218 . S
C205 O198 1.275 . S
C205 O200 1.255 . S
C206 O207 1.258 . S
C206 O208 1.256 . S
O207 Cd199 2.381 . S
O207 C206 1.258 . S
O208 Cd199 2.378 . S
O208 C206 1.256 . S
O209 Cd210 2.300 . S
O209 C216 1.275 . S
Cd210 O209 2.300 . S
Cd210 O218 2.381 1_556 S
Cd210 O219 2.378 . S
O211 Cd212 2.385 . S
O211 C216 1.255 . S
Cd212 O211 2.385 . S
Cd212 O213 2.317 . S
O213 Cd212 2.317 . S
O213 C214 1.232 . S
C214 O213 1.232 . S
C214 O215 1.218 . S
O215 C214 1.218 . S
C216 O209 1.275 . S
C216 O211 1.255 . S
C217 O218 1.258 . S
C217 O219 1.256 1_554 S
O218 Cd210 2.381 1_554 S
O218 C217 1.258 . S
O219 Cd210 2.378 . S
O219 C217 1.256 1_556 S
O220 Cd221 2.300 . S
O220 C227 1.275 . S
Cd221 O220 2.300 . S
Cd221 O229 2.381 . S
Cd221 O230 2.378 . S
O222 Cd223 2.385 . S
O222 C227 1.255 . S
Cd223 O222 2.385 . S
Cd223 O224 2.317 . S
O224 Cd223 2.317 . S
O224 C225 1.232 . S
C225 O224 1.232 . S
C225 O226 1.218 . S
O226 C225 1.218 . S
C227 O220 1.275 . S
C227 O222 1.255 . S
C228 O229 1.258 . S
C228 O230 1.256 . S
O229 Cd221 2.381 . S
O229 C228 1.258 . S
O230 Cd221 2.378 . S
O230 C228 1.256 . S
O231 Cd232 2.300 . S
O231 C238 1.275 . S
Cd232 O231 2.300 . S
Cd232 O240 2.381 1_455 S
Cd232 O241 2.378 . S
O233 Cd234 2.385 . S
O233 C238 1.255 . S
Cd234 O233 2.385 . S
Cd234 O235 2.317 . S
O235 Cd234 2.317 . S
O235 C236 1.232 . S
C236 O235 1.232 . S
C236 O237 1.218 . S
O237 C236 1.218 . S
C238 O231 1.275 . S
C238 O233 1.255 . S
C239 O240 1.258 . S
C239 O241 1.256 1_655 S
O240 Cd232 2.381 1_655 S
O240 C239 1.258 . S
O241 Cd232 2.378 . S
O241 C239 1.256 1_455 S
O242 Cd243 2.300 . S
O242 C249 1.275 . S
Cd243 O242 2.300 . S
Cd243 O251 2.381 . S
Cd243 O252 2.378 . S
O244 Cd245 2.385 . S
O244 C249 1.255 . S
Cd245 O244 2.385 . S
Cd245 O246 2.317 . S
O246 Cd245 2.317 . S
O246 C247 1.232 . S
C247 O246 1.232 . S
C247 O248 1.218 . S
O248 C247 1.218 . S
C249 O242 1.275 . S
C249 O244 1.255 . S
C250 O251 1.258 . S
C250 O252 1.256 . S
O251 Cd243 2.381 . S
O251 C250 1.258 . S
O252 Cd243 2.378 . S
O252 C250 1.256 . S
O253 Cd254 2.300 . S
O253 C260 1.275 . S
Cd254 O253 2.300 . S
Cd254 O262 2.381 1_655 S
Cd254 O263 2.378 . S
O255 Cd256 2.385 . S
O255 C260 1.255 . S
Cd256 O255 2.385 . S
Cd256 O257 2.317 . S
O257 Cd256 2.317 . S
O257 C258 1.232 . S
C258 O257 1.232 . S
C258 O259 1.218 . S
O259 C258 1.218 . S
C260 O253 1.275 . S
C260 O255 1.255 . S
C261 O262 1.258 . S
C261 O263 1.256 1_455 S
O262 Cd254 2.381 1_455 S
O262 C261 1.258 . S
O263 Cd254 2.378 . S
O263 C261 1.256 1_655 S
H264 C265 0.949 . S
C265 H264 0.949 . S
C265 C266 1.395 . S
C265 C267 1.391 . S
C266 C265 1.395 . S
C266 C269 1.390 . S
C267 C265 1.391 . S
C267 C271 1.387 . S
C267 C272 1.491 . S
H268 C269 0.950 . S
C269 C266 1.390 . S
C269 H268 0.950 . S
C269 C270 1.378 . S
C270 C269 1.378 . S
C270 C271 1.409 . S
C271 C267 1.387 . S
C271 C270 1.409 . S
C271 H273 0.951 . S
C272 C267 1.491 . S
C272 C274 1.382 . S
C272 C276 1.404 . S
H273 C271 0.951 . S
C274 C272 1.382 . S
C274 C275 1.390 . S
C274 H279 0.949 . S
C275 C274 1.390 . S
C275 C280 1.399 . S
C276 C272 1.404 . S
C276 H277 0.950 . S
C276 C278 1.375 . S
H277 C276 0.950 . S
C278 C276 1.375 . S
C278 C280 1.382 . S
C278 H282 0.950 . S
H279 C274 0.949 . S
C280 C275 1.399 . S
C280 C278 1.382 . S
C280 H281 0.952 . S
H281 C280 0.952 . S
H282 C278 0.950 . S
H283 C284 0.949 . S
C284 H283 0.949 . S
C284 C285 1.395 . S
C284 C286 1.391 . S
C285 C284 1.395 . S
C285 C288 1.390 . S
C286 C284 1.391 . S
C286 C290 1.387 1_556 S
C286 C291 1.491 1_556 S
H287 C288 0.950 . S
C288 C285 1.390 . S
C288 H287 0.950 . S
C288 C289 1.378 . S
C289 C288 1.378 . S
C289 C290 1.409 1_556 S
C290 C286 1.387 1_554 S
C290 C289 1.409 1_554 S
C290 H292 0.951 . S
C291 C286 1.491 1_554 S
C291 C293 1.382 1_554 S
C291 C295 1.404 . S
H292 C290 0.951 . S
C293 C291 1.382 1_556 S
C293 C294 1.390 1_556 S
C293 H298 0.949 . S
C294 C293 1.390 1_554 S
C294 C299 1.399 . S
C295 C291 1.404 . S
C295 H296 0.950 . S
C295 C297 1.375 . S
H296 C295 0.950 . S
C297 C295 1.375 . S
C297 C299 1.382 . S
C297 H301 0.950 . S
H298 C293 0.949 . S
C299 C294 1.399 . S
C299 C297 1.382 . S
C299 H300 0.952 . S
H300 C299 0.952 . S
H301 C297 0.950 . S
H302 C303 0.949 . S
C303 H302 0.949 . S
C303 C304 1.395 . S
C303 C305 1.391 . S
C304 C303 1.395 . S
C304 C307 1.390 . S
C305 C303 1.391 . S
C305 C309 1.387 . S
C305 C310 1.491 . S
H306 C307 0.950 . S
C307 C304 1.390 . S
C307 H306 0.950 . S
C307 C308 1.378 . S
C308 C307 1.378 . S
C308 C309 1.409 . S
C309 C305 1.387 . S
C309 C308 1.409 . S
C309 H311 0.951 . S
C310 C305 1.491 . S
C310 C312 1.382 . S
C310 C314 1.404 . S
H311 C309 0.951 . S
C312 C310 1.382 . S
C312 C313 1.390 . S
C312 H317 0.949 . S
C313 C312 1.390 . S
C313 C318 1.399 . S
C314 C310 1.404 . S
C314 H315 0.950 . S
C314 C316 1.375 . S
H315 C314 0.950 . S
C316 C314 1.375 . S
C316 C318 1.382 . S
C316 H320 0.950 . S
H317 C312 0.949 . S
C318 C313 1.399 . S
C318 C316 1.382 . S
C318 H319 0.952 . S
H319 C318 0.952 . S
H320 C316 0.950 . S
H321 C322 0.949 . S
C322 H321 0.949 . S
C322 C323 1.395 . S
C322 C324 1.391 . S
C323 C322 1.395 . S
C323 C326 1.390 . S
C324 C322 1.391 . S
C324 C328 1.387 1_554 S
C324 C329 1.491 1_554 S
H325 C326 0.950 . S
C326 C323 1.390 . S
C326 H325 0.950 . S
C326 C327 1.378 . S
C327 C326 1.378 . S
C327 C328 1.409 1_554 S
C328 C324 1.387 1_556 S
C328 C327 1.409 1_556 S
C328 H330 0.951 . S
C329 C324 1.491 1_556 S
C329 C331 1.370 1_556 S
C329 C333 1.404 . S
H330 C328 0.951 . S
C331 C329 1.370 1_554 S
C331 C332 1.377 1_554 S
C331 H336 0.974 . S
C332 C331 1.377 1_556 S
C332 C337 1.399 . S
C333 C329 1.404 . S
C333 H334 0.950 . S
C333 C335 1.375 . S
H334 C333 0.950 . S
C335 C333 1.375 . S
C335 C337 1.382 . S
C335 H339 0.950 . S
H336 C331 0.974 . S
C337 C332 1.399 . S
C337 C335 1.382 . S
C337 H338 0.952 . S
H338 C337 0.952 . S
H339 C335 0.950 . S
H340 C341 0.949 . S
C341 H340 0.949 . S
C341 C342 1.395 . S
C341 C343 1.391 . S
C342 C341 1.395 . S
C342 C345 1.390 . S
C343 C341 1.391 . S
C343 C347 1.387 . S
C343 C348 1.491 . S
H344 C345 0.950 . S
C345 C342 1.390 . S
C345 H344 0.950 . S
C345 C346 1.378 . S
C346 C345 1.378 . S
C346 C347 1.409 . S
C347 C343 1.387 . S
C347 C346 1.409 . S
C347 H349 0.951 . S
C348 C343 1.491 . S
C348 C350 1.382 . S
C348 C352 1.404 . S
H349 C347 0.951 . S
C350 C348 1.382 . S
C350 C351 1.390 . S
C350 H355 0.949 . S
C351 C350 1.390 . S
C351 C356 1.399 . S
C352 C348 1.404 . S
C352 H353 0.950 . S
C352 C354 1.375 . S
H353 C352 0.950 . S
C354 C352 1.375 . S
C354 C356 1.382 . S
C354 H358 0.950 . S
H355 C350 0.949 . S
C356 C351 1.399 . S
C356 C354 1.382 . S
C356 H357 0.952 . S
H357 C356 0.952 . S
H358 C354 0.950 . S
H359 C360 0.949 . S
C360 H359 0.949 . S
C360 C361 1.395 . S
C360 C362 1.391 . S
C361 C360 1.395 . S
C361 C364 1.390 . S
C362 C360 1.391 . S
C362 C366 1.387 1_455 S
C362 C367 1.491 1_455 S
H363 C364 0.950 . S
C364 C361 1.390 . S
C364 H363 0.950 . S
C364 C365 1.378 . S
C365 C364 1.378 . S
C365 C366 1.409 1_455 S
C366 C362 1.387 1_655 S
C366 C365 1.409 1_655 S
C366 H368 0.951 . S
C367 C362 1.491 1_655 S
C367 C369 1.370 1_655 S
C367 C371 1.404 . S
H368 C366 0.951 . S
C369 C367 1.370 1_455 S
C369 C370 1.377 1_455 S
C369 H374 0.974 . S
C370 C369 1.377 1_655 S
C370 C375 1.399 . S
C371 C367 1.404 . S
C371 H372 0.950 . S
C371 C373 1.375 . S
H372 C371 0.950 . S
C373 C371 1.375 . S
C373 C375 1.382 . S
C373 H377 0.950 . S
H374 C369 0.974 . S
C375 C370 1.399 . S
C375 C373 1.382 . S
C375 H376 0.952 . S
H376 C375 0.952 . S
H377 C373 0.950 . S
H378 C379 0.949 . S
C379 H378 0.949 . S
C379 C380 1.395 . S
C379 C381 1.391 . S
C380 C379 1.395 . S
C380 C383 1.390 . S
C381 C379 1.391 . S
C381 C385 1.387 1_655 S
C381 C386 1.491 1_655 S
H382 C383 0.950 . S
C383 C380 1.390 . S
C383 H382 0.950 . S
C383 C384 1.378 . S
C384 C383 1.378 . S
C384 C385 1.409 1_655 S
C385 C381 1.387 1_455 S
C385 C384 1.409 1_455 S
C385 H387 0.951 . S
C386 C381 1.491 1_455 S
C386 C388 1.382 1_455 S
C386 C390 1.404 . S
H387 C385 0.951 . S
C388 C386 1.382 1_655 S
C388 C389 1.390 1_655 S
C388 H393 0.949 . S
C389 C388 1.390 1_455 S
C389 C394 1.399 . S
C390 C386 1.404 . S
C390 H391 0.950 . S
C390 C392 1.375 . S
H391 C390 0.950 . S
C392 C390 1.375 . S
C392 C394 1.382 . S
C392 H396 0.950 . S
H393 C388 0.949 . S
C394 C389 1.399 . S
C394 C392 1.382 . S
C394 H395 0.952 . S
H395 C394 0.952 . S
H396 C392 0.950 . S
H397 C398 0.949 . S
C398 H397 0.949 . S
C398 C399 1.395 . S
C398 C400 1.391 . S
C399 C398 1.395 . S
C399 C402 1.390 . S
C400 C398 1.391 . S
C400 C404 1.387 . S
C400 C405 1.491 . S
H401 C402 0.950 . S
C402 C399 1.390 . S
C402 H401 0.950 . S
C402 C403 1.378 . S
C403 C402 1.378 . S
C403 C404 1.409 . S
C404 C400 1.387 . S
C404 C403 1.409 . S
C404 H406 0.951 . S
C405 C400 1.491 . S
C405 C407 1.382 . S
C405 C409 1.404 . S
H406 C404 0.951 . S
C407 C405 1.382 . S
C407 C408 1.390 . S
C407 H412 0.949 . S
C408 C407 1.390 . S
C408 C413 1.399 . S
C409 C405 1.404 . S
C409 H410 0.950 . S
C409 C411 1.375 . S
H410 C409 0.950 . S
C411 C409 1.375 . S
C411 C413 1.382 . S
C411 H415 0.950 . S
H412 C407 0.949 . S
C413 C408 1.399 . S
C413 C411 1.382 . S
C413 H414 0.952 . S
H414 C413 0.952 . S
H415 C411 0.950 . S
H416 C417 0.949 . S
C417 H416 0.949 . S
C417 C418 1.395 . S
C417 C419 1.391 . S
C418 C417 1.395 . S
C418 C421 1.390 . S
C419 C417 1.391 . S
C419 C423 1.387 . S
C419 C424 1.491 . S
H420 C421 0.950 . S
C421 C418 1.390 . S
C421 H420 0.950 . S
C421 C422 1.378 . S
C422 C421 1.378 . S
C422 C423 1.409 . S
C423 C419 1.387 . S
C423 C422 1.409 . S
C423 H425 0.951 . S
C424 C419 1.491 . S
C424 C426 1.382 . S
C424 C428 1.404 . S
H425 C423 0.951 . S
C426 C424 1.382 . S
C426 C427 1.390 . S
C426 H431 0.949 . S
C427 C426 1.390 . S
C427 C432 1.399 . S
C428 C424 1.404 . S
C428 H429 0.950 . S
C428 C430 1.375 . S
H429 C428 0.950 . S
C430 C428 1.375 . S
C430 C432 1.382 . S
C430 H434 0.950 . S
H431 C426 0.949 . S
C432 C427 1.399 . S
C432 C430 1.382 . S
C432 H433 0.952 . S
H433 C432 0.952 . S
H434 C430 0.950 . S
H435 C436 0.949 . S
C436 H435 0.949 . S
C436 C437 1.395 . S
C436 C438 1.391 . S
C437 C436 1.395 . S
C437 C440 1.390 . S
C438 C436 1.391 . S
C438 C442 1.387 1_545 S
C438 C443 1.491 1_545 S
H439 C440 0.950 . S
C440 C437 1.390 . S
C440 H439 0.950 . S
C440 C441 1.378 . S
C441 C440 1.378 . S
C441 C442 1.409 1_545 S
C442 C438 1.387 1_565 S
C442 C441 1.409 1_565 S
C442 H444 0.951 . S
C443 C438 1.491 1_565 S
C443 C445 1.370 1_565 S
C443 C447 1.404 . S
H444 C442 0.951 . S
C445 C443 1.370 1_545 S
C445 C446 1.377 1_545 S
C445 H450 0.974 . S
C446 C445 1.377 1_565 S
C446 C451 1.399 . S
C447 C443 1.404 . S
C447 H448 0.950 . S
C447 C449 1.375 . S
H448 C447 0.950 . S
C449 C447 1.375 . S
C449 C451 1.382 . S
C449 H453 0.950 . S
H450 C445 0.974 . S
C451 C446 1.399 . S
C451 C449 1.382 . S
C451 H452 0.952 . S
H452 C451 0.952 . S
H453 C449 0.950 . S
H454 C455 0.949 . S
C455 H454 0.949 . S
C455 C456 1.395 . S
C455 C457 1.391 . S
C456 C455 1.395 . S
C456 C459 1.390 . S
C457 C455 1.391 . S
C457 C461 1.387 1_565 S
C457 C462 1.491 1_565 S
H458 C459 0.950 . S
C459 C456 1.390 . S
C459 H458 0.950 . S
C459 C460 1.378 . S
C460 C459 1.378 . S
C460 C461 1.409 1_565 S
C461 C457 1.387 1_545 S
C461 C460 1.409 1_545 S
C461 H463 0.951 . S
C462 C457 1.491 1_545 S
C462 C464 1.382 1_545 S
C462 C466 1.404 . S
H463 C461 0.951 . S
C464 C462 1.382 1_565 S
C464 C465 1.390 1_565 S
C464 H469 0.949 . S
C465 C464 1.390 1_545 S
C465 C470 1.399 . S
C466 C462 1.404 . S
C466 H467 0.950 . S
C466 C468 1.375 . S
H467 C466 0.950 . S
C468 C466 1.375 . S
C468 C470 1.382 . S
C468 H472 0.950 . S
H469 C464 0.949 . S
C470 C465 1.399 . S
C470 C468 1.382 . S
C470 H471 0.952 . S
H471 C470 0.952 . S
H472 C468 0.950 . S
H473 C474 0.949 . S
C474 H473 0.949 . S
C474 C475 1.395 . S
C474 C476 1.391 . S
C475 C474 1.395 . S
C475 C478 1.390 . S
C476 C474 1.391 . S
C476 C480 1.387 . S
C476 C481 1.491 . S
H477 C478 0.950 . S
C478 C475 1.390 . S
C478 H477 0.950 . S
C478 C479 1.378 . S
C479 C478 1.378 . S
C479 C480 1.409 . S
C480 C476 1.387 . S
C480 C479 1.409 . S
C480 H482 0.951 . S
C481 C476 1.491 . S
C481 C483 1.382 . S
C481 C485 1.404 . S
H482 C480 0.951 . S
C483 C481 1.382 . S
C483 C484 1.390 . S
C483 H488 0.949 . S
C484 C483 1.390 . S
C484 C489 1.399 . S
C485 C481 1.404 . S
C485 H486 0.950 . S
C485 C487 1.375 . S
H486 C485 0.950 . S
C487 C485 1.375 . S
C487 C489 1.382 . S
C487 H491 0.950 . S
H488 C483 0.949 . S
C489 C484 1.399 . S
C489 C487 1.382 . S
C489 H490 0.952 . S
H490 C489 0.952 . S
H491 C487 0.950 . S
H492 C493 0.949 . S
C493 H492 0.949 . S
C493 C494 1.395 . S
C493 C495 1.391 . S
C494 C493 1.395 . S
C494 C497 1.390 . S
C495 C493 1.391 . S
C495 C499 1.387 . S
C495 C500 1.491 . S
H496 C497 0.950 . S
C497 C494 1.390 . S
C497 H496 0.950 . S
C497 C498 1.378 . S
C498 C497 1.378 . S
C498 C499 1.409 . S
C499 C495 1.387 . S
C499 C498 1.409 . S
C499 H501 0.951 . S
C500 C495 1.491 . S
C500 C502 1.382 . S
C500 C504 1.404 . S
H501 C499 0.951 . S
C502 C500 1.382 . S
C502 C503 1.390 . S
C502 H507 0.949 . S
C503 C502 1.390 . S
C503 C508 1.399 . S
C504 C500 1.404 . S
C504 H505 0.950 . S
C504 C506 1.375 . S
H505 C504 0.950 . S
C506 C504 1.375 . S
C506 C508 1.382 . S
C506 H510 0.950 . S
H507 C502 0.949 . S
C508 C503 1.399 . S
C508 C506 1.382 . S
C508 H509 0.952 . S
H509 C508 0.952 . S
H510 C506 0.950 . S
H511 C512 0.949 . S
C512 H511 0.949 . S
C512 C513 1.395 . S
C512 C514 1.391 . S
C513 C512 1.395 . S
C513 C516 1.390 . S
C514 C512 1.391 . S
C514 C518 1.387 1_554 S
C514 C519 1.491 1_554 S
H515 C516 0.950 . S
C516 C513 1.390 . S
C516 H515 0.950 . S
C516 C517 1.378 . S
C517 C516 1.378 . S
C517 C518 1.409 1_554 S
C518 C514 1.387 1_556 S
C518 C517 1.409 1_556 S
C518 H520 0.951 . S
C519 C514 1.491 1_556 S
C519 C521 1.382 1_556 S
C519 C523 1.404 . S
H520 C518 0.951 . S
C521 C519 1.382 1_554 S
C521 C522 1.390 1_554 S
C521 H526 0.949 . S
C522 C521 1.390 1_556 S
C522 C527 1.399 . S
C523 C519 1.404 . S
C523 H524 0.950 . S
C523 C525 1.375 . S
H524 C523 0.950 . S
C525 C523 1.375 . S
C525 C527 1.382 . S
C525 H529 0.950 . S
H526 C521 0.949 . S
C527 C522 1.399 . S
C527 C525 1.382 . S
C527 H528 0.952 . S
H528 C527 0.952 . S
H529 C525 0.950 . S
H530 C531 0.949 . S
C531 H530 0.949 . S
C531 C532 1.395 . S
C531 C533 1.391 . S
C532 C531 1.395 . S
C532 C535 1.390 . S
C533 C531 1.391 . S
C533 C537 1.387 . S
C533 C538 1.491 . S
H534 C535 0.950 . S
C535 C532 1.390 . S
C535 H534 0.950 . S
C535 C536 1.378 . S
C536 C535 1.378 . S
C536 C537 1.409 . S
C537 C533 1.387 . S
C537 C536 1.409 . S
C537 H539 0.951 . S
C538 C533 1.491 . S
C538 C540 1.382 . S
C538 C542 1.404 . S
H539 C537 0.951 . S
C540 C538 1.382 . S
C540 C541 1.390 . S
C540 H545 0.949 . S
C541 C540 1.390 . S
C541 C546 1.399 . S
C542 C538 1.404 . S
C542 H543 0.950 . S
C542 C544 1.375 . S
H543 C542 0.950 . S
C544 C542 1.375 . S
C544 C546 1.382 . S
C544 H548 0.950 . S
H545 C540 0.949 . S
C546 C541 1.399 . S
C546 C544 1.382 . S
C546 H547 0.952 . S
H547 C546 0.952 . S
H548 C544 0.950 . S
H549 C550 0.949 . S
C550 H549 0.949 . S
C550 C551 1.395 . S
C550 C552 1.391 . S
C551 C550 1.395 . S
C551 C554 1.390 . S
C552 C550 1.391 . S
C552 C556 1.387 1_556 S
C552 C557 1.491 1_556 S
H553 C554 0.950 . S
C554 C551 1.390 . S
C554 H553 0.950 . S
C554 C555 1.378 . S
C555 C554 1.378 . S
C555 C556 1.409 1_556 S
C556 C552 1.387 1_554 S
C556 C555 1.409 1_554 S
C556 H558 0.951 . S
C557 C552 1.491 1_554 S
C557 C559 1.374 1_554 S
C557 C561 1.404 . S
H558 C556 0.951 . S
C559 C557 1.374 1_556 S
C559 C560 1.369 1_556 S
C559 H564 0.982 . S
C560 C559 1.369 1_554 S
C560 C565 1.399 . S
C561 C557 1.404 . S
C561 H562 0.950 . S
C561 C563 1.375 . S
H562 C561 0.950 . S
C563 C561 1.375 . S
C563 C565 1.382 . S
C563 H567 0.950 . S
H564 C559 0.982 . S
C565 C560 1.399 . S
C565 C563 1.382 . S
C565 H566 0.952 . S
H566 C565 0.952 . S
H567 C563 0.950 . S
H568 C569 0.949 . S
C569 H568 0.949 . S
C569 C570 1.395 . S
C569 C571 1.391 . S
C570 C569 1.395 . S
C570 C573 1.390 . S
C571 C569 1.391 . S
C571 C575 1.387 . S
C571 C576 1.491 . S
H572 C573 0.950 . S
C573 C570 1.390 . S
C573 H572 0.950 . S
C573 C574 1.378 . S
C574 C573 1.378 . S
C574 C575 1.409 . S
C575 C571 1.387 . S
C575 C574 1.409 . S
C575 H577 0.951 . S
C576 C571 1.491 . S
C576 C578 1.382 . S
C576 C580 1.404 . S
H577 C575 0.951 . S
C578 C576 1.382 . S
C578 C579 1.390 . S
C578 H583 0.949 . S
C579 C578 1.390 . S
C579 C584 1.399 . S
C580 C576 1.404 . S
C580 H581 0.950 . S
C580 C582 1.375 . S
H581 C580 0.950 . S
C582 C580 1.375 . S
C582 C584 1.382 . S
C582 H586 0.950 . S
H583 C578 0.949 . S
C584 C579 1.399 . S
C584 C582 1.382 . S
C584 H585 0.952 . S
H585 C584 0.952 . S
H586 C582 0.950 . S
H587 C588 0.949 . S
C588 H587 0.949 . S
C588 C589 1.395 . S
C588 C590 1.391 . S
C589 C588 1.395 . S
C589 C592 1.390 . S
C590 C588 1.391 . S
C590 C594 1.387 1_655 S
C590 C595 1.491 1_655 S
H591 C592 0.950 . S
C592 C589 1.390 . S
C592 H591 0.950 . S
C592 C593 1.378 . S
C593 C592 1.378 . S
C593 C594 1.409 1_655 S
C594 C590 1.387 1_455 S
C594 C593 1.409 1_455 S
C594 H596 0.951 . S
C595 C590 1.491 1_455 S
C595 C597 1.374 1_455 S
C595 C599 1.404 . S
H596 C594 0.951 . S
C597 C595 1.374 1_655 S
C597 C598 1.369 1_655 S
C597 H602 0.982 . S
C598 C597 1.369 1_455 S
C598 C603 1.399 . S
C599 C595 1.404 . S
C599 H600 0.950 . S
C599 C601 1.375 . S
H600 C599 0.950 . S
C601 C599 1.375 . S
C601 C603 1.382 . S
C601 H605 0.950 . S
H602 C597 0.982 . S
C603 C598 1.399 . S
C603 C601 1.382 . S
C603 H604 0.952 . S
H604 C603 0.952 . S
H605 C601 0.950 . S
H606 C607 0.949 . S
C607 H606 0.949 . S
C607 C608 1.395 . S
C607 C609 1.391 . S
C608 C607 1.395 . S
C608 C611 1.390 . S
C609 C607 1.391 . S
C609 C613 1.387 1_455 S
C609 C614 1.491 1_455 S
H610 C611 0.950 . S
C611 C608 1.390 . S
C611 H610 0.950 . S
C611 C612 1.378 . S
C612 C611 1.378 . S
C612 C613 1.409 1_455 S
C613 C609 1.387 1_655 S
C613 C612 1.409 1_655 S
C613 H615 0.951 . S
C614 C609 1.491 1_655 S
C614 C616 1.382 1_655 S
C614 C618 1.404 . S
H615 C613 0.951 . S
C616 C614 1.382 1_455 S
C616 C617 1.390 1_455 S
C616 H621 0.949 . S
C617 C616 1.390 1_655 S
C617 C622 1.399 . S
C618 C614 1.404 . S
C618 H619 0.950 . S
C618 C620 1.375 . S
H619 C618 0.950 . S
C620 C618 1.375 . S
C620 C622 1.382 . S
C620 H624 0.950 . S
H621 C616 0.949 . S
C622 C617 1.399 . S
C622 C620 1.382 . S
C622 H623 0.952 . S
H623 C622 0.952 . S
H624 C620 0.950 . S
H625 C626 0.949 . S
C626 H625 0.949 . S
C626 C627 1.395 . S
C626 C628 1.391 . S
C627 C626 1.395 . S
C627 C630 1.390 . S
C628 C626 1.391 . S
C628 C632 1.387 . S
C628 C633 1.491 . S
H629 C630 0.950 . S
C630 C627 1.390 . S
C630 H629 0.950 . S
C630 C631 1.378 . S
C631 C630 1.378 . S
C631 C632 1.409 . S
C632 C628 1.387 . S
C632 C631 1.409 . S
C632 H634 0.951 . S
C633 C628 1.491 . S
C633 C635 1.382 . S
C633 C637 1.404 . S
H634 C632 0.951 . S
C635 C633 1.382 . S
C635 C636 1.390 . S
C635 H640 0.949 . S
C636 C635 1.390 . S
C636 C641 1.399 . S
C637 C633 1.404 . S
C637 H638 0.950 . S
C637 C639 1.375 . S
H638 C637 0.950 . S
C639 C637 1.375 . S
C639 C641 1.382 . S
C639 H643 0.950 . S
H640 C635 0.949 . S
C641 C636 1.399 . S
C641 C639 1.382 . S
C641 H642 0.952 . S
H642 C641 0.952 . S
H643 C639 0.950 . S
H644 C645 0.949 . S
C645 H644 0.949 . S
C645 C646 1.395 . S
C645 C647 1.391 . S
C646 C645 1.395 . S
C646 C649 1.390 . S
C647 C645 1.391 . S
C647 C651 1.387 . S
C647 C652 1.491 . S
H648 C649 0.950 . S
C649 C646 1.390 . S
C649 H648 0.950 . S
C649 C650 1.378 . S
C650 C649 1.378 . S
C650 C651 1.409 . S
C651 C647 1.387 . S
C651 C650 1.409 . S
C651 H653 0.951 . S
C652 C647 1.491 . S
C652 C654 1.382 . S
C652 C656 1.404 . S
H653 C651 0.951 . S
C654 C652 1.382 . S
C654 C655 1.390 . S
C654 H659 0.949 . S
C655 C654 1.390 . S
C655 C660 1.399 . S
C656 C652 1.404 . S
C656 H657 0.950 . S
C656 C658 1.375 . S
H657 C656 0.950 . S
C658 C656 1.375 . S
C658 C660 1.382 . S
C658 H662 0.950 . S
H659 C654 0.949 . S
C660 C655 1.399 . S
C660 C658 1.382 . S
C660 H661 0.952 . S
H661 C660 0.952 . S
H662 C658 0.950 . S
H663 C664 0.949 . S
C664 H663 0.949 . S
C664 C665 1.395 . S
C664 C666 1.391 . S
C665 C664 1.395 . S
C665 C668 1.390 . S
C666 C664 1.391 . S
C666 C670 1.387 1_565 S
C666 C671 1.491 1_565 S
H667 C668 0.950 . S
C668 C665 1.390 . S
C668 H667 0.950 . S
C668 C669 1.378 . S
C669 C668 1.378 . S
C669 C670 1.409 1_565 S
C670 C666 1.387 1_545 S
C670 C669 1.409 1_545 S
C670 H672 0.951 . S
C671 C666 1.491 1_545 S
C671 C673 1.374 1_545 S
C671 C675 1.404 . S
H672 C670 0.951 . S
C673 C671 1.374 1_565 S
C673 C674 1.369 1_565 S
C673 H678 0.982 . S
C674 C673 1.369 1_545 S
C674 C679 1.399 . S
C675 C671 1.404 . S
C675 H676 0.950 . S
C675 C677 1.375 . S
H676 C675 0.950 . S
C677 C675 1.375 . S
C677 C679 1.382 . S
C677 H681 0.950 . S
H678 C673 0.982 . S
C679 C674 1.399 . S
C679 C677 1.382 . S
C679 H680 0.952 . S
H680 C679 0.952 . S
H681 C677 0.950 . S
H682 C683 0.949 . S
C683 H682 0.949 . S
C683 C684 1.395 . S
C683 C685 1.391 . S
C684 C683 1.395 . S
C684 C687 1.390 . S
C685 C683 1.391 . S
C685 C689 1.387 1_545 S
C685 C690 1.491 1_545 S
H686 C687 0.950 . S
C687 C684 1.390 . S
C687 H686 0.950 . S
C687 C688 1.378 . S
C688 C687 1.378 . S
C688 C689 1.409 1_545 S
C689 C685 1.387 1_565 S
C689 C688 1.409 1_565 S
C689 H691 0.951 . S
C690 C685 1.491 1_565 S
C690 C692 1.382 1_565 S
C690 C694 1.404 . S
H691 C689 0.951 . S
C692 C690 1.382 1_545 S
C692 C693 1.390 1_545 S
C692 H697 0.949 . S
C693 C692 1.390 1_565 S
C693 C698 1.399 . S
C694 C690 1.404 . S
C694 H695 0.950 . S
C694 C696 1.375 . S
H695 C694 0.950 . S
C696 C694 1.375 . S
C696 C698 1.382 . S
C696 H700 0.950 . S
H697 C692 0.949 . S
C698 C693 1.399 . S
C698 C696 1.382 . S
C698 H699 0.952 . S
H699 C698 0.952 . S
H700 C696 0.950 . S
H701 C702 0.949 . S
C702 H701 0.949 . S
C702 C703 1.395 . S
C702 C704 1.391 . S
C703 C702 1.395 . S
C703 C706 1.390 . S
C704 C702 1.391 . S
C704 C708 1.387 . S
C704 C709 1.491 . S
H705 C706 0.950 . S
C706 C703 1.390 . S
C706 H705 0.950 . S
C706 C707 1.378 . S
C707 C706 1.378 . S
C707 C708 1.409 . S
C708 C704 1.387 . S
C708 C707 1.409 . S
C708 H710 0.951 . S
C709 C704 1.491 . S
C709 C711 1.382 . S
C709 C713 1.404 . S
H710 C708 0.951 . S
C711 C709 1.382 . S
C711 C712 1.390 . S
C711 H716 0.949 . S
C712 C711 1.390 . S
C712 C717 1.399 . S
C713 C709 1.404 . S
C713 H714 0.950 . S
C713 C715 1.375 . S
H714 C713 0.950 . S
C715 C713 1.375 . S
C715 C717 1.382 . S
C715 H719 0.950 . S
H716 C711 0.949 . S
C717 C712 1.399 . S
C717 C715 1.382 . S
C717 H718 0.952 . S
H718 C717 0.952 . S
H719 C715 0.950 . S
C720 C721 1.349 . S
C720 C722 1.327 . S
C720 H745 0.950 . S
C721 C720 1.349 . S
C721 C737 1.349 . S
C722 C720 1.327 . S
C722 C741 1.429 . S
C722 H746 0.950 . S
C723 C740 1.574 . S
C723 C742 1.368 . S
C723 H747 0.949 . S
H724 C728 0.949 . S
C725 C726 1.349 . S
C725 C727 1.327 . S
C725 H748 0.950 . S
C726 C725 1.349 . S
C726 C738 1.349 . S
C727 C725 1.327 . S
C727 C743 1.429 . S
C727 H749 0.950 . S
C728 H724 0.949 . S
C728 C736 1.574 . S
C728 C744 1.368 . S
H729 C737 0.950 . S
H730 C735 0.950 . S
H731 C736 0.949 . S
H732 C738 0.950 . S
H733 C739 0.950 . S
H734 C740 0.949 . S
C735 H730 0.950 . S
C735 C737 1.327 . S
C735 C741 1.429 . S
C736 C728 1.574 . S
C736 H731 0.949 . S
C736 C742 1.368 . S
C737 C721 1.349 . S
C737 H729 0.950 . S
C737 C735 1.327 . S
C738 C726 1.349 . S
C738 H732 0.950 . S
C738 C739 1.327 . S
C739 H733 0.950 . S
C739 C738 1.327 . S
C739 C743 1.429 . S
C740 C723 1.574 . S
C740 H734 0.949 . S
C740 C744 1.368 . S
C741 C722 1.429 . S
C741 C735 1.429 . S
C741 C742 1.523 . S
C742 C723 1.368 . S
C742 C736 1.368 . S
C742 C741 1.523 . S
C743 C727 1.429 . S
C743 C739 1.429 . S
C743 C744 1.523 1_655 S
C744 C728 1.368 . S
C744 C740 1.368 . S
C744 C743 1.523 1_455 S
H745 C720 0.950 . S
H746 C722 0.950 . S
H747 C723 0.949 . S
H748 C725 0.950 . S
H749 C727 0.950 . S
C750 C751 1.349 . S
C750 C752 1.327 . S
C750 H775 0.950 . S
C751 C750 1.349 . S
C751 C767 1.349 . S
C752 C750 1.327 . S
C752 C771 1.429 . S
C752 H776 0.950 . S
C753 C770 1.574 . S
C753 C772 1.368 . S
C753 H777 0.949 . S
H754 C758 0.949 . S
C755 C756 1.349 . S
C755 C757 1.327 . S
C755 H778 0.950 . S
C756 C755 1.349 . S
C756 C768 1.349 . S
C757 C755 1.327 . S
C757 C773 1.429 . S
C757 H779 0.950 . S
C758 H754 0.949 . S
C758 C766 1.574 . S
C758 C774 1.368 . S
H759 C767 0.950 . S
H760 C765 0.950 . S
H761 C766 0.949 . S
H762 C768 0.950 . S
H763 C769 0.950 . S
H764 C770 0.949 . S
C765 H760 0.950 . S
C765 C767 1.327 . S
C765 C771 1.429 . S
C766 C758 1.574 . S
C766 H761 0.949 . S
C766 C772 1.368 . S
C767 C751 1.349 . S
C767 H759 0.950 . S
C767 C765 1.327 . S
C768 C756 1.349 . S
C768 H762 0.950 . S
C768 C769 1.327 . S
C769 H763 0.950 . S
C769 C768 1.327 . S
C769 C773 1.429 . S
C770 C753 1.574 . S
C770 H764 0.949 . S
C770 C774 1.368 . S
C771 C752 1.429 . S
C771 C765 1.429 . S
C771 C772 1.523 . S
C772 C753 1.368 . S
C772 C766 1.368 . S
C772 C771 1.523 . S
C773 C757 1.429 . S
C773 C769 1.429 . S
C773 C774 1.523 . S
C774 C758 1.368 . S
C774 C770 1.368 . S
C774 C773 1.523 . S
H775 C750 0.950 . S
H776 C752 0.950 . S
H777 C753 0.949 . S
H778 C755 0.950 . S
H779 C757 0.950 . S
C780 C781 1.349 1_545 S
C780 C782 1.327 . S
C780 H805 0.950 . S
C781 C780 1.349 1_565 S
C781 C797 1.349 . S
C782 C780 1.327 . S
C782 C801 1.429 1_545 S
C782 H806 0.950 . S
C783 C800 1.574 . S
C783 C802 1.368 . S
C783 H807 0.949 . S
H784 C788 0.949 . S
C785 C786 1.349 . S
C785 C787 1.327 . S
C785 H808 0.950 . S
C786 C785 1.349 . S
C786 C798 1.349 1_565 S
C787 C785 1.327 . S
C787 C803 1.429 . S
C787 H809 0.950 . S
C788 H784 0.949 . S
C788 C796 1.574 . S
C788 C804 1.368 1_545 S
H789 C797 0.950 . S
H790 C795 0.950 . S
H791 C796 0.949 . S
H792 C798 0.950 . S
H793 C799 0.950 . S
H794 C800 0.949 . S
C795 H790 0.950 . S
C795 C797 1.327 . S
C795 C801 1.429 . S
C796 C788 1.574 . S
C796 H791 0.949 . S
C796 C802 1.368 1_545 S
C797 C781 1.349 . S
C797 H789 0.950 . S
C797 C795 1.327 . S
C798 C786 1.349 1_545 S
C798 H792 0.950 . S
C798 C799 1.327 . S
C799 H793 0.950 . S
C799 C798 1.327 . S
C799 C803 1.429 1_545 S
C800 C783 1.574 . S
C800 H794 0.949 . S
C800 C804 1.368 . S
C801 C782 1.429 1_565 S
C801 C795 1.429 . S
C801 C802 1.523 . S
C802 C783 1.368 . S
C802 C796 1.368 1_565 S
C802 C801 1.523 . S
C803 C787 1.429 . S
C803 C799 1.429 1_565 S
C803 C804 1.523 . S
C804 C788 1.368 1_565 S
C804 C800 1.368 . S
C804 C803 1.523 . S
H805 C780 0.950 . S
H806 C782 0.950 . S
H807 C783 0.949 . S
H808 C785 0.950 . S
H809 C787 0.950 . S
C810 C811 1.349 . S
C810 C812 1.329 . S
C810 H835 0.950 1_545 S
C811 C810 1.349 . S
C811 C827 1.349 . S
C812 C810 1.329 . S
C812 C831 1.437 . S
C812 H836 0.940 1_545 S
C813 C830 1.574 . S
C813 C832 1.368 . S
C813 H837 0.949 . S
H814 C818 0.925 1_455 S
C815 C816 1.349 . S
C815 C817 1.327 . S
C815 H838 0.950 . S
C816 C815 1.349 . S
C816 C828 1.349 1_545 S
C817 C815 1.327 . S
C817 C833 1.429 . S
C817 H839 0.950 . S
C818 H814 0.925 1_655 S
C818 C826 1.578 . S
C818 C834 1.369 1_565 S
H819 C827 0.950 . S
H820 C825 0.950 . S
H821 C826 0.966 . S
H822 C828 0.950 . S
H823 C829 0.950 . S
H824 C830 0.949 . S
C825 H820 0.950 . S
C825 C827 1.327 . S
C825 C831 1.429 . S
C826 C818 1.578 . S
C826 H821 0.966 . S
C826 C832 1.350 1_565 S
C827 C811 1.349 . S
C827 H819 0.950 . S
C827 C825 1.327 . S
C828 C816 1.349 1_565 S
C828 H822 0.950 . S
C828 C829 1.327 . S
C829 H823 0.950 . S
C829 C828 1.327 . S
C829 C833 1.429 1_565 S
C830 C813 1.574 . S
C830 H824 0.949 . S
C830 C834 1.369 . S
C831 C812 1.437 . S
C831 C825 1.429 . S
C831 C832 1.523 . S
C832 C813 1.368 . S
C832 C826 1.350 1_545 S
C832 C831 1.523 . S
C833 C817 1.429 . S
C833 C829 1.429 1_545 S
C833 C834 1.521 1_455 S
C834 C818 1.369 1_545 S
C834 C830 1.369 . S
C834 C833 1.521 1_655 S
H835 C810 0.950 1_565 S
H836 C812 0.940 1_565 S
H837 C813 0.949 . S
H838 C815 0.950 . S
H839 C817 0.950 . S
C840 C841 1.349 . S
C840 C842 1.327 . S
C840 H865 0.950 . S
C841 C840 1.349 . S
C841 C857 1.349 . S
C842 C840 1.327 . S
C842 C861 1.429 . S
C842 H866 0.950 . S
C843 C860 1.574 . S
C843 C862 1.368 . S
C843 H867 0.949 . S
H844 C848 0.949 . S
C845 C846 1.349 . S
C845 C847 1.327 . S
C845 H868 0.950 . S
C846 C845 1.349 . S
C846 C858 1.349 . S
C847 C845 1.327 . S
C847 C863 1.429 . S
C847 H869 0.950 . S
C848 H844 0.949 . S
C848 C856 1.574 . S
C848 C864 1.368 . S
H849 C857 0.950 . S
H850 C855 0.950 . S
H851 C856 0.949 . S
H852 C858 0.950 . S
H853 C859 0.950 . S
H854 C860 0.949 . S
C855 H850 0.950 . S
C855 C857 1.327 . S
C855 C861 1.429 . S
C856 C848 1.574 . S
C856 H851 0.949 . S
C856 C862 1.368 . S
C857 C841 1.349 . S
C857 H849 0.950 . S
C857 C855 1.327 . S
C858 C846 1.349 . S
C858 H852 0.950 . S
C858 C859 1.327 . S
C859 H853 0.950 . S
C859 C858 1.327 . S
C859 C863 1.429 . S
C860 C843 1.574 . S
C860 H854 0.949 . S
C860 C864 1.368 . S
C861 C842 1.429 . S
C861 C855 1.429 . S
C861 C862 1.523 . S
C862 C843 1.368 . S
C862 C856 1.368 . S
C862 C861 1.523 . S
C863 C847 1.429 . S
C863 C859 1.429 . S
C863 C864 1.523 1_565 S
C864 C848 1.368 . S
C864 C860 1.368 . S
C864 C863 1.523 1_545 S
H865 C840 0.950 . S
H866 C842 0.950 . S
H867 C843 0.949 . S
H868 C845 0.950 . S
H869 C847 0.950 . S
C870 C871 1.349 . S
C870 C872 1.327 . S
C870 H895 0.950 . S
C871 C870 1.349 . S
C871 C887 1.349 1_554 S
C872 C870 1.327 . S
C872 C891 1.429 . S
C872 H896 0.950 . S
C873 C890 1.574 . S
C873 C892 1.368 1_556 S
C873 H897 0.949 . S
H874 C878 0.947 1_545 S
C875 C876 1.349 1_556 S
C875 C877 1.327 . S
C875 H898 0.950 . S
C876 C875 1.349 1_554 S
C876 C888 1.349 . S
C877 C875 1.327 . S
C877 C893 1.429 1_556 S
C877 H899 0.950 . S
C878 H874 0.947 1_565 S
C878 C886 1.574 . S
C878 C894 1.369 . S
H879 C887 0.950 . S
H880 C885 0.950 . S
H881 C886 0.949 . S
H882 C888 0.950 . S
H883 C889 0.950 . S
H884 C890 0.968 . S
C885 H880 0.950 . S
C885 C887 1.327 . S
C885 C891 1.429 1_556 S
C886 C878 1.574 . S
C886 H881 0.949 . S
C886 C892 1.368 . S
C887 C871 1.349 1_556 S
C887 H879 0.950 . S
C887 C885 1.327 . S
C888 C876 1.349 . S
C888 H882 0.950 . S
C888 C889 1.327 . S
C889 H883 0.950 . S
C889 C888 1.327 . S
C889 C893 1.429 . S
C890 C873 1.574 . S
C890 H884 0.968 . S
C890 C894 1.369 1_556 S
C891 C872 1.429 . S
C891 C885 1.429 1_554 S
C891 C892 1.523 . S
C892 C873 1.368 1_554 S
C892 C886 1.368 . S
C892 C891 1.523 . S
C893 C877 1.429 1_554 S
C893 C889 1.429 . S
C893 C894 1.521 1_545 S
C894 C878 1.369 . S
C894 C890 1.369 1_554 S
C894 C893 1.521 1_565 S
H895 C870 0.950 . S
H896 C872 0.950 . S
H897 C873 0.949 . S
H898 C875 0.950 . S
H899 C877 0.950 . S
C900 C901 1.349 . S
C900 C902 1.327 . S
C900 H925 0.950 . S
C901 C900 1.349 . S
C901 C917 1.349 . S
C902 C900 1.327 . S
C902 C921 1.429 . S
C902 H926 0.950 . S
C903 C920 1.574 . S
C903 C922 1.368 . S
C903 H927 0.949 . S
H904 C908 0.949 . S
C905 C906 1.349 . S
C905 C907 1.327 . S
C905 H928 0.950 . S
C906 C905 1.349 . S
C906 C918 1.349 . S
C907 C905 1.327 . S
C907 C923 1.429 . S
C907 H929 0.950 . S
C908 H904 0.949 . S
C908 C916 1.574 . S
C908 C924 1.368 . S
H909 C917 0.950 . S
H910 C915 0.950 . S
H911 C916 0.949 . S
H912 C918 0.950 . S
H913 C919 0.950 . S
H914 C920 0.949 . S
C915 H910 0.950 . S
C915 C917 1.327 . S
C915 C921 1.429 . S
C916 C908 1.574 . S
C916 H911 0.949 . S
C916 C922 1.368 . S
C917 C901 1.349 . S
C917 H909 0.950 . S
C917 C915 1.327 . S
C918 C906 1.349 . S
C918 H912 0.950 . S
C918 C919 1.327 . S
C919 H913 0.950 . S
C919 C918 1.327 . S
C919 C923 1.429 . S
C920 C903 1.574 . S
C920 H914 0.949 . S
C920 C924 1.368 . S
C921 C902 1.429 . S
C921 C915 1.429 . S
C921 C922 1.523 . S
C922 C903 1.368 . S
C922 C916 1.368 . S
C922 C921 1.523 . S
C923 C907 1.429 . S
C923 C919 1.429 . S
C923 C924 1.523 . S
C924 C908 1.368 . S
C924 C920 1.368 . S
C924 C923 1.523 . S
H925 C900 0.950 . S
H926 C902 0.950 . S
H927 C903 0.949 . S
H928 C905 0.950 . S
H929 C907 0.950 . S
C930 C931 1.349 . S
C930 C932 1.327 . S
C930 H955 0.950 . S
C931 C930 1.349 . S
C931 C947 1.349 1_556 S
C932 C930 1.327 . S
C932 C951 1.429 . S
C932 H956 0.950 . S
C933 C950 1.574 . S
C933 C952 1.368 1_554 S
C933 H957 0.949 . S
H934 C938 0.949 . S
C935 C936 1.349 1_554 S
C935 C937 1.327 . S
C935 H958 0.950 . S
C936 C935 1.349 1_556 S
C936 C948 1.349 . S
C937 C935 1.327 . S
C937 C953 1.429 1_554 S
C937 H959 0.950 . S
C938 H934 0.949 . S
C938 C946 1.574 . S
C938 C954 1.368 . S
H939 C947 0.950 . S
H940 C945 0.950 . S
H941 C946 0.949 . S
H942 C948 0.950 . S
H943 C949 0.950 . S
H944 C950 0.949 . S
C945 H940 0.950 . S
C945 C947 1.327 . S
C945 C951 1.429 1_554 S
C946 C938 1.574 . S
C946 H941 0.949 . S
C946 C952 1.368 . S
C947 C931 1.349 1_554 S
C947 H939 0.950 . S
C947 C945 1.327 . S
C948 C936 1.349 . S
C948 H942 0.950 . S
C948 C949 1.327 . S
C949 H943 0.950 . S
C949 C948 1.327 . S
C949 C953 1.429 . S
C950 C933 1.574 . S
C950 H944 0.949 . S
C950 C954 1.368 1_554 S
C951 C932 1.429 . S
C951 C945 1.429 1_556 S
C951 C952 1.523 . S
C952 C933 1.368 1_556 S
C952 C946 1.368 . S
C952 C951 1.523 . S
C953 C937 1.429 1_556 S
C953 C949 1.429 . S
C953 C954 1.523 . S
C954 C938 1.368 . S
C954 C950 1.368 1_556 S
C954 C953 1.523 . S
H955 C930 0.950 . S
H956 C932 0.950 . S
H957 C933 0.949 . S
H958 C935 0.950 . S
H959 C937 0.950 . S
C960 C961 1.349 . S
C960 C962 1.327 . S
C960 H985 0.950 . S
C961 C960 1.349 . S
C961 C977 1.349 . S
C962 C960 1.327 . S
C962 C981 1.429 . S
C962 H986 0.950 . S
C963 C980 1.574 . S
C963 C982 1.368 . S
C963 H987 0.949 . S
H964 C968 0.949 . S
C965 C966 1.349 . S
C965 C967 1.327 . S
C965 H988 0.950 . S
C966 C965 1.349 . S
C966 C978 1.349 . S
C967 C965 1.327 . S
C967 C983 1.429 . S
C967 H989 0.950 . S
C968 H964 0.949 . S
C968 C976 1.574 . S
C968 C984 1.368 . S
H969 C977 0.950 . S
H970 C975 0.950 . S
H971 C976 0.949 . S
H972 C978 0.950 . S
H973 C979 0.950 . S
H974 C980 0.949 . S
C975 H970 0.950 . S
C975 C977 1.327 . S
C975 C981 1.429 . S
C976 C968 1.574 . S
C976 H971 0.949 . S
C976 C982 1.368 . S
C977 C961 1.349 . S
C977 H969 0.950 . S
C977 C975 1.327 . S
C978 C966 1.349 . S
C978 H972 0.950 . S
C978 C979 1.327 . S
C979 H973 0.950 . S
C979 C978 1.327 . S
C979 C983 1.429 . S
C980 C963 1.574 . S
C980 H974 0.949 . S
C980 C984 1.368 . S
C981 C962 1.429 . S
C981 C975 1.429 . S
C981 C982 1.523 . S
C982 C963 1.368 . S
C982 C976 1.368 . S
C982 C981 1.523 . S
C983 C967 1.429 . S
C983 C979 1.429 . S
C983 C984 1.523 1_556 S
C984 C968 1.368 . S
C984 C980 1.368 . S
C984 C983 1.523 1_554 S
H985 C960 0.950 . S
H986 C962 0.950 . S
H987 C963 0.949 . S
H988 C965 0.950 . S
H989 C967 0.950 . S
C990 C991 1.349 1_655 S
C990 C992 1.327 . S
C990 H1015 0.950 . S
C991 C990 1.349 1_455 S
C991 C1007 1.349 . S
C992 C990 1.327 . S
C992 C1011 1.429 1_655 S
C992 H1016 0.950 . S
C993 C1010 1.574 . S
C993 C1012 1.368 . S
C993 H1017 0.949 . S
H994 C998 0.949 . S
C995 C996 1.349 . S
C995 C997 1.327 . S
C995 H1018 0.950 . S
C996 C995 1.349 . S
C996 C1008 1.349 1_455 S
C997 C995 1.327 . S
C997 C1013 1.429 . S
C997 H1019 0.950 . S
C998 H994 0.949 . S
C998 C1006 1.574 . S
C998 C1014 1.369 1_655 S
H999 C1007 0.950 . S
H1000 C1005 0.950 . S
H1001 C1006 0.949 . S
H1002 C1008 0.950 . S
H1003 C1009 0.950 . S
H1004 C1010 0.949 1_554 S
C1005 H1000 0.950 . S
C1005 C1007 1.327 . S
C1005 C1011 1.429 . S
C1006 C998 1.574 . S
C1006 H1001 0.949 . S
C1006 C1012 1.368 1_655 S
C1007 C991 1.349 . S
C1007 H999 0.950 . S
C1007 C1005 1.327 . S
C1008 C996 1.349 1_655 S
C1008 H1002 0.950 . S
C1008 C1009 1.327 . S
C1009 H1003 0.950 . S
C1009 C1008 1.327 . S
C1009 C1013 1.429 1_655 S
C1010 C993 1.574 . S
C1010 H1004 0.949 1_556 S
C1010 C1014 1.369 . S
C1011 C992 1.429 1_455 S
C1011 C1005 1.429 . S
C1011 C1012 1.523 . S
C1012 C993 1.368 . S
C1012 C1006 1.368 1_455 S
C1012 C1011 1.523 . S
C1013 C997 1.429 . S
C1013 C1009 1.429 1_455 S
C1013 C1014 1.521 1_554 S
C1014 C998 1.369 1_455 S
C1014 C1010 1.369 . S
C1014 C1013 1.521 1_556 S
H1015 C990 0.950 . S
H1016 C992 0.950 . S
H1017 C993 0.949 . S
H1018 C995 0.950 . S
H1019 C997 0.950 . S
C1020 C1021 1.349 . S
C1020 C1022 1.327 . S
C1020 H1045 0.950 . S
C1021 C1020 1.349 . S
C1021 C1037 1.349 . S
C1022 C1020 1.327 . S
C1022 C1041 1.429 . S
C1022 H1046 0.950 . S
C1023 C1040 1.574 . S
C1023 C1042 1.368 . S
C1023 H1047 0.949 . S
H1024 C1028 0.949 . S
C1025 C1026 1.349 . S
C1025 C1027 1.327 . S
C1025 H1048 0.950 . S
C1026 C1025 1.349 . S
C1026 C1038 1.349 . S
C1027 C1025 1.327 . S
C1027 C1043 1.429 . S
C1027 H1049 0.950 . S
C1028 H1024 0.949 . S
C1028 C1036 1.574 . S
C1028 C1044 1.368 . S
H1029 C1037 0.950 . S
H1030 C1035 0.950 . S
H1031 C1036 0.949 . S
H1032 C1038 0.950 . S
H1033 C1039 0.950 . S
H1034 C1040 0.949 . S
C1035 H1030 0.950 . S
C1035 C1037 1.327 . S
C1035 C1041 1.429 . S
C1036 C1028 1.574 . S
C1036 H1031 0.949 . S
C1036 C1042 1.368 . S
C1037 C1021 1.349 . S
C1037 H1029 0.950 . S
C1037 C1035 1.327 . S
C1038 C1026 1.349 . S
C1038 H1032 0.950 . S
C1038 C1039 1.327 . S
C1039 H1033 0.950 . S
C1039 C1038 1.327 . S
C1039 C1043 1.429 . S
C1040 C1023 1.574 . S
C1040 H1034 0.949 . S
C1040 C1044 1.368 . S
C1041 C1022 1.429 . S
C1041 C1035 1.429 . S
C1041 C1042 1.523 . S
C1042 C1023 1.368 . S
C1042 C1036 1.368 . S
C1042 C1041 1.523 . S
C1043 C1027 1.429 . S
C1043 C1039 1.429 . S
C1043 C1044 1.523 . S
C1044 C1028 1.368 . S
C1044 C1040 1.368 . S
C1044 C1043 1.523 . S
H1045 C1020 0.950 . S
H1046 C1022 0.950 . S
H1047 C1023 0.949 . S
H1048 C1025 0.950 . S
H1049 C1027 0.950 . S
C1050 C1051 1.349 . S
C1050 C1052 1.327 . S
C1050 H1075 0.950 . S
C1051 C1050 1.349 . S
C1051 C1067 1.349 1_655 S
C1052 C1050 1.327 . S
C1052 C1071 1.429 . S
C1052 H1076 0.950 . S
C1053 C1070 1.574 . S
C1053 C1072 1.368 1_455 S
C1053 H1077 0.949 . S
H1054 C1058 0.949 . S
C1055 C1056 1.349 1_455 S
C1055 C1057 1.327 . S
C1055 H1078 0.950 . S
C1056 C1055 1.349 1_655 S
C1056 C1068 1.349 . S
C1057 C1055 1.327 . S
C1057 C1073 1.429 1_455 S
C1057 H1079 0.950 . S
C1058 H1054 0.949 . S
C1058 C1066 1.574 . S
C1058 C1074 1.368 . S
H1059 C1067 0.950 . S
H1060 C1065 0.950 . S
H1061 C1066 0.949 . S
H1062 C1068 0.950 . S
H1063 C1069 0.950 . S
H1064 C1070 0.949 . S
C1065 H1060 0.950 . S
C1065 C1067 1.327 . S
C1065 C1071 1.429 1_455 S
C1066 C1058 1.574 . S
C1066 H1061 0.949 . S
C1066 C1072 1.368 . S
C1067 C1051 1.349 1_455 S
C1067 H1059 0.950 . S
C1067 C1065 1.327 . S
C1068 C1056 1.349 . S
C1068 H1062 0.950 . S
C1068 C1069 1.327 . S
C1069 H1063 0.950 . S
C1069 C1068 1.327 . S
C1069 C1073 1.429 . S
C1070 C1053 1.574 . S
C1070 H1064 0.949 . S
C1070 C1074 1.368 1_455 S
C1071 C1052 1.429 . S
C1071 C1065 1.429 1_655 S
C1071 C1072 1.523 . S
C1072 C1053 1.368 1_655 S
C1072 C1066 1.368 . S
C1072 C1071 1.523 . S
C1073 C1057 1.429 1_655 S
C1073 C1069 1.429 . S
C1073 C1074 1.523 . S
C1074 C1058 1.368 . S
C1074 C1070 1.368 1_655 S
C1074 C1073 1.523 . S
H1075 C1050 0.950 . S
H1076 C1052 0.950 . S
H1077 C1053 0.949 . S
H1078 C1055 0.950 . S
H1079 C1057 0.950 . S
C1080 C1081 1.349 . S
C1080 C1082 1.327 . S
C1080 H1105 0.950 . S
C1081 C1080 1.349 . S
C1081 C1097 1.349 . S
C1082 C1080 1.327 . S
C1082 C1101 1.429 . S
C1082 H1106 0.950 . S
C1083 C1100 1.574 . S
C1083 C1102 1.368 . S
C1083 H1107 0.949 . S
H1084 C1088 0.949 . S
C1085 C1086 1.349 . S
C1085 C1087 1.327 . S
C1085 H1108 0.950 . S
C1086 C1085 1.349 . S
C1086 C1098 1.349 . S
C1087 C1085 1.327 . S
C1087 C1103 1.429 . S
C1087 H1109 0.950 . S
C1088 H1084 0.949 . S
C1088 C1096 1.574 . S
C1088 C1104 1.368 . S
H1089 C1097 0.950 . S
H1090 C1095 0.950 . S
H1091 C1096 0.949 . S
H1092 C1098 0.950 . S
H1093 C1099 0.950 . S
H1094 C1100 0.949 . S
C1095 H1090 0.950 . S
C1095 C1097 1.327 . S
C1095 C1101 1.429 . S
C1096 C1088 1.574 . S
C1096 H1091 0.949 . S
C1096 C1102 1.368 . S
C1097 C1081 1.349 . S
C1097 H1089 0.950 . S
C1097 C1095 1.327 . S
C1098 C1086 1.349 . S
C1098 H1092 0.950 . S
C1098 C1099 1.327 . S
C1099 H1093 0.950 . S
C1099 C1098 1.327 . S
C1099 C1103 1.429 . S
C1100 C1083 1.574 . S
C1100 H1094 0.949 . S
C1100 C1104 1.368 . S
C1101 C1082 1.429 . S
C1101 C1095 1.429 . S
C1101 C1102 1.523 . S
C1102 C1083 1.368 . S
C1102 C1096 1.368 . S
C1102 C1101 1.523 . S
C1103 C1087 1.429 . S
C1103 C1099 1.429 . S
C1103 C1104 1.523 1_455 S
C1104 C1088 1.368 . S
C1104 C1100 1.368 . S
C1104 C1103 1.523 1_655 S
H1105 C1080 0.950 . S
H1106 C1082 0.950 . S
H1107 C1083 0.949 . S
H1108 C1085 0.950 . S
H1109 C1087 0.950 . S
C1110 C1111 1.349 . S
C1110 C1112 1.327 . S
C1110 H1135 0.950 . S
C1111 C1110 1.349 . S
C1111 C1127 1.349 . S
C1112 C1110 1.327 . S
C1112 C1131 1.429 . S
C1112 H1136 0.950 . S
C1113 C1130 1.574 . S
C1113 C1132 1.368 . S
C1113 H1137 0.949 . S
H1114 C1118 0.949 . S
C1115 C1116 1.349 . S
C1115 C1117 1.327 . S
C1115 H1138 0.950 . S
C1116 C1115 1.349 . S
C1116 C1128 1.349 . S
C1117 C1115 1.327 . S
C1117 C1133 1.429 . S
C1117 H1139 0.950 . S
C1118 H1114 0.949 . S
C1118 C1126 1.574 . S
C1118 C1134 1.368 . S
H1119 C1127 0.950 . S
H1120 C1125 0.950 . S
H1121 C1126 0.949 . S
H1122 C1128 0.950 . S
H1123 C1129 0.950 . S
H1124 C1130 0.949 . S
C1125 H1120 0.950 . S
C1125 C1127 1.327 . S
C1125 C1131 1.429 . S
C1126 C1118 1.574 . S
C1126 H1121 0.949 . S
C1126 C1132 1.368 . S
C1127 C1111 1.349 . S
C1127 H1119 0.950 . S
C1127 C1125 1.327 . S
C1128 C1116 1.349 . S
C1128 H1122 0.950 . S
C1128 C1129 1.327 . S
C1129 H1123 0.950 . S
C1129 C1128 1.327 . S
C1129 C1133 1.429 . S
C1130 C1113 1.574 . S
C1130 H1124 0.949 . S
C1130 C1134 1.368 . S
C1131 C1112 1.429 . S
C1131 C1125 1.429 . S
C1131 C1132 1.523 . S
C1132 C1113 1.368 . S
C1132 C1126 1.368 . S
C1132 C1131 1.523 . S
C1133 C1117 1.429 . S
C1133 C1129 1.429 . S
C1133 C1134 1.523 . S
C1134 C1118 1.368 . S
C1134 C1130 1.368 . S
C1134 C1133 1.523 . S
H1135 C1110 0.950 . S
H1136 C1112 0.950 . S
H1137 C1113 0.949 . S
H1138 C1115 0.950 . S
H1139 C1117 0.950 . S
C1140 C1141 1.349 1_565 S
C1140 C1142 1.327 . S
C1140 H1165 0.950 . S
C1141 C1140 1.349 1_545 S
C1141 C1157 1.349 . S
C1142 C1140 1.327 . S
C1142 C1161 1.429 1_565 S
C1142 H1166 0.950 . S
C1143 C1160 1.574 . S
C1143 C1162 1.368 . S
C1143 H1167 0.949 . S
H1144 C1148 0.949 . S
C1145 C1146 1.349 . S
C1145 C1147 1.327 . S
C1145 H1168 0.950 . S
C1146 C1145 1.349 . S
C1146 C1158 1.349 1_545 S
C1147 C1145 1.327 . S
C1147 C1163 1.429 . S
C1147 H1169 0.950 . S
C1148 H1144 0.949 . S
C1148 C1156 1.574 . S
C1148 C1164 1.368 1_565 S
H1149 C1157 0.950 . S
H1150 C1155 0.950 . S
H1151 C1156 0.949 . S
H1152 C1158 0.950 . S
H1153 C1159 0.950 . S
H1154 C1160 0.949 . S
C1155 H1150 0.950 . S
C1155 C1157 1.327 . S
C1155 C1161 1.429 . S
C1156 C1148 1.574 . S
C1156 H1151 0.949 . S
C1156 C1162 1.368 1_565 S
C1157 C1141 1.349 . S
C1157 H1149 0.950 . S
C1157 C1155 1.327 . S
C1158 C1146 1.349 1_565 S
C1158 H1152 0.950 . S
C1158 C1159 1.327 . S
C1159 H1153 0.950 . S
C1159 C1158 1.327 . S
C1159 C1163 1.429 1_565 S
C1160 C1143 1.574 . S
C1160 H1154 0.949 . S
C1160 C1164 1.368 . S
C1161 C1142 1.429 1_545 S
C1161 C1155 1.429 . S
C1161 C1162 1.523 . S
C1162 C1143 1.368 . S
C1162 C1156 1.368 1_545 S
C1162 C1161 1.523 . S
C1163 C1147 1.429 . S
C1163 C1159 1.429 1_545 S
C1163 C1164 1.523 . S
C1164 C1148 1.368 1_545 S
C1164 C1160 1.368 . S
C1164 C1163 1.523 . S
H1165 C1140 0.950 . S
H1166 C1142 0.950 . S
H1167 C1143 0.949 . S
H1168 C1145 0.950 . S
H1169 C1147 0.950 . S
C1170 C1171 1.349 . S
C1170 C1172 1.327 . S
C1170 H1195 0.950 . S
C1171 C1170 1.349 . S
C1171 C1187 1.349 . S
C1172 C1170 1.327 . S
C1172 C1191 1.429 . S
C1172 H1196 0.950 . S
C1173 C1190 1.576 . S
C1173 C1192 1.368 . S
C1173 H1197 0.945 1_565 S
H1174 C1178 0.949 1_655 S
C1175 C1176 1.342 1_545 S
C1175 C1177 1.326 . S
C1175 H1198 0.961 . S
C1176 C1175 1.342 1_565 S
C1176 C1188 1.349 . S
C1177 C1175 1.326 . S
C1177 C1193 1.426 1_545 S
C1177 H1199 0.952 . S
C1178 H1174 0.949 1_455 S
C1178 C1186 1.574 . S
C1178 C1194 1.369 . S
H1179 C1187 0.950 . S
H1180 C1185 0.952 . S
H1181 C1186 0.949 . S
H1182 C1188 0.950 . S
H1183 C1189 0.950 . S
H1184 C1190 0.941 1_545 S
C1185 H1180 0.952 . S
C1185 C1187 1.327 . S
C1185 C1191 1.429 . S
C1186 C1178 1.574 . S
C1186 H1181 0.949 . S
C1186 C1192 1.368 . S
C1187 C1171 1.349 . S
C1187 H1179 0.950 . S
C1187 C1185 1.327 . S
C1188 C1176 1.349 . S
C1188 H1182 0.950 . S
C1188 C1189 1.327 . S
C1189 H1183 0.950 . S
C1189 C1188 1.327 . S
C1189 C1193 1.429 . S
C1190 C1173 1.576 . S
C1190 H1184 0.941 1_565 S
C1190 C1194 1.378 . S
C1191 C1172 1.429 . S
C1191 C1185 1.429 . S
C1191 C1192 1.523 . S
C1192 C1173 1.368 . S
C1192 C1186 1.368 . S
C1192 C1191 1.523 . S
C1193 C1177 1.426 1_565 S
C1193 C1189 1.429 . S
C1193 C1194 1.521 1_655 S
C1194 C1178 1.369 . S
C1194 C1190 1.378 . S
C1194 C1193 1.521 1_455 S
H1195 C1170 0.950 . S
H1196 C1172 0.950 . S
H1197 C1173 0.945 1_545 S
H1198 C1175 0.961 . S
H1199 C1177 0.952 . S
C1200 C1201 1.349 . S
C1200 C1202 1.327 . S
C1200 H1225 0.950 . S
C1201 C1200 1.349 . S
C1201 C1217 1.349 . S
C1202 C1200 1.327 . S
C1202 C1221 1.429 . S
C1202 H1226 0.950 . S
C1203 C1220 1.574 . S
C1203 C1222 1.368 . S
C1203 H1227 0.949 . S
H1204 C1208 0.949 . S
C1205 C1206 1.349 . S
C1205 C1207 1.327 . S
C1205 H1228 0.950 . S
C1206 C1205 1.349 . S
C1206 C1218 1.349 . S
C1207 C1205 1.327 . S
C1207 C1223 1.429 . S
C1207 H1229 0.950 . S
C1208 H1204 0.949 . S
C1208 C1216 1.574 . S
C1208 C1224 1.368 . S
H1209 C1217 0.950 . S
H1210 C1215 0.950 . S
H1211 C1216 0.949 . S
H1212 C1218 0.950 . S
H1213 C1219 0.950 . S
H1214 C1220 0.949 . S
C1215 H1210 0.950 . S
C1215 C1217 1.327 . S
C1215 C1221 1.429 . S
C1216 C1208 1.574 . S
C1216 H1211 0.949 . S
C1216 C1222 1.368 . S
C1217 C1201 1.349 . S
C1217 H1209 0.950 . S
C1217 C1215 1.327 . S
C1218 C1206 1.349 . S
C1218 H1212 0.950 . S
C1218 C1219 1.327 . S
C1219 H1213 0.950 . S
C1219 C1218 1.327 . S
C1219 C1223 1.429 . S
C1220 C1203 1.574 . S
C1220 H1214 0.949 . S
C1220 C1224 1.368 . S
C1221 C1202 1.429 . S
C1221 C1215 1.429 . S
C1221 C1222 1.523 . S
C1222 C1203 1.368 . S
C1222 C1216 1.368 . S
C1222 C1221 1.523 . S
C1223 C1207 1.429 . S
C1223 C1219 1.429 . S
C1223 C1224 1.523 1_545 S
C1224 C1208 1.368 . S
C1224 C1220 1.368 . S
C1224 C1223 1.523 1_565 S
H1225 C1200 0.950 . S
H1226 C1202 0.950 . S
H1227 C1203 0.949 . S
H1228 C1205 0.950 . S
H1229 C1207 0.950 . S
C1230 C1231 1.349 1_554 S
C1230 C1232 1.327 . S
C1230 H1255 0.950 . S
C1231 C1230 1.349 1_556 S
C1231 C1247 1.349 . S
C1232 C1230 1.327 . S
C1232 C1251 1.429 1_554 S
C1232 H1256 0.950 . S
C1233 C1250 1.574 . S
C1233 C1252 1.368 . S
C1233 H1257 0.949 . S
H1234 C1238 0.949 . S
C1235 C1236 1.349 . S
C1235 C1237 1.327 . S
C1235 H1258 0.950 . S
C1236 C1235 1.349 . S
C1236 C1248 1.349 1_556 S
C1237 C1235 1.327 . S
C1237 C1253 1.429 . S
C1237 H1259 0.950 . S
C1238 H1234 0.949 . S
C1238 C1246 1.574 . S
C1238 C1254 1.369 1_554 S
H1239 C1247 0.950 . S
H1240 C1245 0.950 . S
H1241 C1246 0.949 . S
H1242 C1248 0.950 . S
H1243 C1249 0.950 . S
H1244 C1250 0.949 1_565 S
C1245 H1240 0.950 . S
C1245 C1247 1.327 . S
C1245 C1251 1.429 . S
C1246 C1238 1.574 . S
C1246 H1241 0.949 . S
C1246 C1252 1.368 1_554 S
C1247 C1231 1.349 . S
C1247 H1239 0.950 . S
C1247 C1245 1.327 . S
C1248 C1236 1.349 1_554 S
C1248 H1242 0.950 . S
C1248 C1249 1.327 . S
C1249 H1243 0.950 . S
C1249 C1248 1.327 . S
C1249 C1253 1.429 1_554 S
C1250 C1233 1.574 . S
C1250 H1244 0.949 1_545 S
C1250 C1254 1.369 . S
C1251 C1232 1.429 1_556 S
C1251 C1245 1.429 . S
C1251 C1252 1.523 . S
C1252 C1233 1.368 . S
C1252 C1246 1.368 1_556 S
C1252 C1251 1.523 . S
C1253 C1237 1.429 . S
C1253 C1249 1.429 1_556 S
C1253 C1254 1.521 1_565 S
C1254 C1238 1.369 1_556 S
C1254 C1250 1.369 . S
C1254 C1253 1.521 1_545 S
H1255 C1230 0.950 . S
H1256 C1232 0.950 . S
H1257 C1233 0.949 . S
H1258 C1235 0.950 . S
H1259 C1237 0.950 . S
C1260 C1261 1.349 . S
C1260 C1262 1.327 . S
C1260 H1285 0.950 . S
C1261 C1260 1.349 . S
C1261 C1277 1.349 . S
C1262 C1260 1.327 . S
C1262 C1281 1.429 . S
C1262 H1286 0.950 . S
C1263 C1280 1.574 . S
C1263 C1282 1.368 . S
C1263 H1287 0.949 . S
H1264 C1268 0.949 . S
C1265 C1266 1.349 . S
C1265 C1267 1.327 . S
C1265 H1288 0.950 . S
C1266 C1265 1.349 . S
C1266 C1278 1.349 . S
C1267 C1265 1.327 . S
C1267 C1283 1.429 . S
C1267 H1289 0.950 . S
C1268 H1264 0.949 . S
C1268 C1276 1.574 . S
C1268 C1284 1.368 . S
H1269 C1277 0.950 . S
H1270 C1275 0.950 . S
H1271 C1276 0.949 . S
H1272 C1278 0.950 . S
H1273 C1279 0.950 . S
H1274 C1280 0.949 . S
C1275 H1270 0.950 . S
C1275 C1277 1.327 . S
C1275 C1281 1.429 . S
C1276 C1268 1.574 . S
C1276 H1271 0.949 . S
C1276 C1282 1.368 . S
C1277 C1261 1.349 . S
C1277 H1269 0.950 . S
C1277 C1275 1.327 . S
C1278 C1266 1.349 . S
C1278 H1272 0.950 . S
C1278 C1279 1.327 . S
C1279 H1273 0.950 . S
C1279 C1278 1.327 . S
C1279 C1283 1.429 . S
C1280 C1263 1.574 . S
C1280 H1274 0.949 . S
C1280 C1284 1.368 . S
C1281 C1262 1.429 . S
C1281 C1275 1.429 . S
C1281 C1282 1.523 . S
C1282 C1263 1.368 . S
C1282 C1276 1.368 . S
C1282 C1281 1.523 . S
C1283 C1267 1.429 . S
C1283 C1279 1.429 . S
C1283 C1284 1.523 . S
C1284 C1268 1.368 . S
C1284 C1280 1.368 . S
C1284 C1283 1.523 . S
H1285 C1260 0.950 . S
H1286 C1262 0.950 . S
H1287 C1263 0.949 . S
H1288 C1265 0.950 . S
H1289 C1267 0.950 . S
C1290 C1291 1.349 . S
C1290 C1292 1.327 . S
C1290 H1315 0.950 . S
C1291 C1290 1.349 . S
C1291 C1307 1.349 1_554 S
C1292 C1290 1.327 . S
C1292 C1311 1.429 . S
C1292 H1316 0.950 . S
C1293 C1310 1.574 . S
C1293 C1312 1.368 1_556 S
C1293 H1317 0.949 . S
H1294 C1298 0.949 . S
C1295 C1296 1.349 1_556 S
C1295 C1297 1.327 . S
C1295 H1318 0.950 . S
C1296 C1295 1.349 1_554 S
C1296 C1308 1.349 . S
C1297 C1295 1.327 . S
C1297 C1313 1.429 1_556 S
C1297 H1319 0.950 . S
C1298 H1294 0.949 . S
C1298 C1306 1.574 . S
C1298 C1314 1.368 . S
H1299 C1307 0.950 . S
H1300 C1305 0.950 . S
H1301 C1306 0.949 . S
H1302 C1308 0.950 . S
H1303 C1309 0.950 . S
H1304 C1310 0.949 . S
C1305 H1300 0.950 . S
C1305 C1307 1.327 . S
C1305 C1311 1.429 1_556 S
C1306 C1298 1.574 . S
C1306 H1301 0.949 . S
C1306 C1312 1.368 . S
C1307 C1291 1.349 1_556 S
C1307 H1299 0.950 . S
C1307 C1305 1.327 . S
C1308 C1296 1.349 . S
C1308 H1302 0.950 . S
C1308 C1309 1.327 . S
C1309 H1303 0.950 . S
C1309 C1308 1.327 . S
C1309 C1313 1.429 . S
C1310 C1293 1.574 . S
C1310 H1304 0.949 . S
C1310 C1314 1.368 1_556 S
C1311 C1292 1.429 . S
C1311 C1305 1.429 1_554 S
C1311 C1312 1.523 . S
C1312 C1293 1.368 1_554 S
C1312 C1306 1.368 . S
C1312 C1311 1.523 . S
C1313 C1297 1.429 1_554 S
C1313 C1309 1.429 . S
C1313 C1314 1.523 . S
C1314 C1298 1.368 . S
C1314 C1310 1.368 1_554 S
C1314 C1313 1.523 . S
H1315 C1290 0.950 . S
H1316 C1292 0.950 . S
H1317 C1293 0.949 . S
H1318 C1295 0.950 . S
H1319 C1297 0.950 . S
C1320 C1321 1.349 . S
C1320 C1322 1.327 . S
C1320 H1345 0.950 . S
C1321 C1320 1.349 . S
C1321 C1337 1.349 . S
C1322 C1320 1.327 . S
C1322 C1341 1.429 . S
C1322 H1346 0.950 . S
C1323 C1340 1.574 . S
C1323 C1342 1.368 . S
C1323 H1347 0.949 . S
H1324 C1328 0.949 . S
C1325 C1326 1.349 . S
C1325 C1327 1.327 . S
C1325 H1348 0.950 . S
C1326 C1325 1.349 . S
C1326 C1338 1.349 . S
C1327 C1325 1.327 . S
C1327 C1343 1.429 . S
C1327 H1349 0.950 . S
C1328 H1324 0.949 . S
C1328 C1336 1.574 . S
C1328 C1344 1.368 . S
H1329 C1337 0.950 . S
H1330 C1335 0.950 . S
H1331 C1336 0.949 . S
H1332 C1338 0.950 . S
H1333 C1339 0.950 . S
H1334 C1340 0.949 . S
C1335 H1330 0.950 . S
C1335 C1337 1.327 . S
C1335 C1341 1.429 . S
C1336 C1328 1.574 . S
C1336 H1331 0.949 . S
C1336 C1342 1.368 . S
C1337 C1321 1.349 . S
C1337 H1329 0.950 . S
C1337 C1335 1.327 . S
C1338 C1326 1.349 . S
C1338 H1332 0.950 . S
C1338 C1339 1.327 . S
C1339 H1333 0.950 . S
C1339 C1338 1.327 . S
C1339 C1343 1.429 . S
C1340 C1323 1.574 . S
C1340 H1334 0.949 . S
C1340 C1344 1.368 . S
C1341 C1322 1.429 . S
C1341 C1335 1.429 . S
C1341 C1342 1.523 . S
C1342 C1323 1.368 . S
C1342 C1336 1.368 . S
C1342 C1341 1.523 . S
C1343 C1327 1.429 . S
C1343 C1339 1.429 . S
C1343 C1344 1.523 1_554 S
C1344 C1328 1.368 . S
C1344 C1340 1.368 . S
C1344 C1343 1.523 1_556 S
H1345 C1320 0.950 . S
H1346 C1322 0.950 . S
H1347 C1323 0.949 . S
H1348 C1325 0.950 . S
H1349 C1327 0.950 . S
C1350 C1351 1.349 1_455 S
C1350 C1352 1.327 . S
C1350 H1375 0.950 . S
C1351 C1350 1.349 1_655 S
C1351 C1367 1.349 . S
C1352 C1350 1.327 . S
C1352 C1371 1.429 1_455 S
C1352 H1376 0.950 . S
C1353 C1370 1.574 . S
C1353 C1372 1.368 . S
C1353 H1377 0.949 . S
H1354 C1358 0.944 1_556 S
C1355 C1356 1.349 . S
C1355 C1357 1.327 . S
C1355 H1378 0.950 . S
C1356 C1355 1.349 . S
C1356 C1368 1.349 1_655 S
C1357 C1355 1.327 . S
C1357 C1373 1.429 . S
C1357 H1379 0.950 . S
C1358 H1354 0.944 1_554 S
C1358 C1366 1.574 . S
C1358 C1374 1.369 1_455 S
H1359 C1367 0.950 . S
H1360 C1365 0.950 . S
H1361 C1366 0.949 . S
H1362 C1368 0.950 . S
H1363 C1369 0.950 . S
H1364 C1370 0.969 . S
C1365 H1360 0.950 . S
C1365 C1367 1.327 . S
C1365 C1371 1.429 . S
C1366 C1358 1.574 . S
C1366 H1361 0.949 . S
C1366 C1372 1.368 1_455 S
C1367 C1351 1.349 . S
C1367 H1359 0.950 . S
C1367 C1365 1.327 . S
C1368 C1356 1.349 1_455 S
C1368 H1362 0.950 . S
C1368 C1369 1.327 . S
C1369 H1363 0.950 . S
C1369 C1368 1.327 . S
C1369 C1373 1.429 1_455 S
C1370 C1353 1.574 . S
C1370 H1364 0.969 . S
C1370 C1374 1.369 . S
C1371 C1352 1.429 1_655 S
C1371 C1365 1.429 . S
C1371 C1372 1.523 . S
C1372 C1353 1.368 . S
C1372 C1366 1.368 1_655 S
C1372 C1371 1.523 . S
C1373 C1357 1.429 . S
C1373 C1369 1.429 1_655 S
C1373 C1374 1.521 1_556 S
C1374 C1358 1.369 1_655 S
C1374 C1370 1.369 . S
C1374 C1373 1.521 1_554 S
H1375 C1350 0.950 . S
H1376 C1352 0.950 . S
H1377 C1353 0.949 . S
H1378 C1355 0.950 . S
H1379 C1357 0.950 . S
C1380 C1381 1.349 . S
C1380 C1382 1.327 . S
C1380 H1405 0.950 . S
C1381 C1380 1.349 . S
C1381 C1397 1.349 . S
C1382 C1380 1.327 . S
C1382 C1401 1.429 . S
C1382 H1406 0.950 . S
C1383 C1400 1.574 . S
C1383 C1402 1.368 . S
C1383 H1407 0.949 . S
H1384 C1388 0.949 . S
C1385 C1386 1.349 . S
C1385 C1387 1.327 . S
C1385 H1408 0.950 . S
C1386 C1385 1.349 . S
C1386 C1398 1.349 . S
C1387 C1385 1.327 . S
C1387 C1403 1.429 . S
C1387 H1409 0.950 . S
C1388 H1384 0.949 . S
C1388 C1396 1.574 . S
C1388 C1404 1.368 . S
H1389 C1397 0.950 . S
H1390 C1395 0.950 . S
H1391 C1396 0.949 . S
H1392 C1398 0.950 . S
H1393 C1399 0.950 . S
H1394 C1400 0.949 . S
C1395 H1390 0.950 . S
C1395 C1397 1.327 . S
C1395 C1401 1.429 . S
C1396 C1388 1.574 . S
C1396 H1391 0.949 . S
C1396 C1402 1.368 . S
C1397 C1381 1.349 . S
C1397 H1389 0.950 . S
C1397 C1395 1.327 . S
C1398 C1386 1.349 . S
C1398 H1392 0.950 . S
C1398 C1399 1.327 . S
C1399 H1393 0.950 . S
C1399 C1398 1.327 . S
C1399 C1403 1.429 . S
C1400 C1383 1.574 . S
C1400 H1394 0.949 . S
C1400 C1404 1.368 . S
C1401 C1382 1.429 . S
C1401 C1395 1.429 . S
C1401 C1402 1.523 . S
C1402 C1383 1.368 . S
C1402 C1396 1.368 . S
C1402 C1401 1.523 . S
C1403 C1387 1.429 . S
C1403 C1399 1.429 . S
C1403 C1404 1.523 . S
C1404 C1388 1.368 . S
C1404 C1400 1.368 . S
C1404 C1403 1.523 . S
H1405 C1380 0.950 . S
H1406 C1382 0.950 . S
H1407 C1383 0.949 . S
H1408 C1385 0.950 . S
H1409 C1387 0.950 . S
C1410 C1411 1.349 1_655 S
C1410 C1412 1.327 . S
C1410 H1435 0.950 . S
C1411 C1410 1.349 1_455 S
C1411 C1427 1.349 . S
C1412 C1410 1.327 . S
C1412 C1431 1.429 1_655 S
C1412 H1436 0.950 . S
C1413 C1430 1.574 . S
C1413 C1432 1.368 . S
C1413 H1437 0.949 . S
H1414 C1418 0.949 . S
C1415 C1416 1.349 . S
C1415 C1417 1.327 . S
C1415 H1438 0.950 . S
C1416 C1415 1.349 . S
C1416 C1428 1.349 1_455 S
C1417 C1415 1.327 . S
C1417 C1433 1.429 . S
C1417 H1439 0.950 . S
C1418 H1414 0.949 . S
C1418 C1426 1.574 . S
C1418 C1434 1.368 1_655 S
H1419 C1427 0.950 . S
H1420 C1425 0.950 . S
H1421 C1426 0.949 . S
H1422 C1428 0.950 . S
H1423 C1429 0.950 . S
H1424 C1430 0.949 . S
C1425 H1420 0.950 . S
C1425 C1427 1.327 . S
C1425 C1431 1.429 . S
C1426 C1418 1.574 . S
C1426 H1421 0.949 . S
C1426 C1432 1.368 1_655 S
C1427 C1411 1.349 . S
C1427 H1419 0.950 . S
C1427 C1425 1.327 . S
C1428 C1416 1.349 1_655 S
C1428 H1422 0.950 . S
C1428 C1429 1.327 . S
C1429 H1423 0.950 . S
C1429 C1428 1.327 . S
C1429 C1433 1.429 1_655 S
C1430 C1413 1.574 . S
C1430 H1424 0.949 . S
C1430 C1434 1.368 . S
C1431 C1412 1.429 1_455 S
C1431 C1425 1.429 . S
C1431 C1432 1.523 . S
C1432 C1413 1.368 . S
C1432 C1426 1.368 1_455 S
C1432 C1431 1.523 . S
C1433 C1417 1.429 . S
C1433 C1429 1.429 1_455 S
C1433 C1434 1.523 . S
C1434 C1418 1.368 1_455 S
C1434 C1430 1.368 . S
C1434 C1433 1.523 . S
H1435 C1410 0.950 . S
H1436 C1412 0.950 . S
H1437 C1413 0.949 . S
H1438 C1415 0.950 . S
H1439 C1417 0.950 . S
C1440 C1441 1.349 . S
C1440 C1442 1.327 . S
C1440 H1465 0.950 . S
C1441 C1440 1.349 . S
C1441 C1457 1.349 . S
C1442 C1440 1.327 . S
C1442 C1461 1.429 . S
C1442 H1466 0.950 . S
C1443 C1460 1.574 . S
C1443 C1462 1.368 . S
C1443 H1467 0.949 . S
H1444 C1448 0.949 . S
C1445 C1446 1.349 . S
C1445 C1447 1.327 . S
C1445 H1468 0.950 . S
C1446 C1445 1.349 . S
C1446 C1458 1.349 . S
C1447 C1445 1.327 . S
C1447 C1463 1.429 . S
C1447 H1469 0.950 . S
C1448 H1444 0.949 . S
C1448 C1456 1.574 . S
C1448 C1464 1.368 . S
H1449 C1457 0.950 . S
H1450 C1455 0.950 . S
H1451 C1456 0.949 . S
H1452 C1458 0.950 . S
H1453 C1459 0.950 . S
H1454 C1460 0.949 . S
C1455 H1450 0.950 . S
C1455 C1457 1.327 . S
C1455 C1461 1.429 . S
C1456 C1448 1.574 . S
C1456 H1451 0.949 . S
C1456 C1462 1.368 . S
C1457 C1441 1.349 . S
C1457 H1449 0.950 . S
C1457 C1455 1.327 . S
C1458 C1446 1.349 . S
C1458 H1452 0.950 . S
C1458 C1459 1.327 . S
C1459 H1453 0.950 . S
C1459 C1458 1.327 . S
C1459 C1463 1.429 . S
C1460 C1443 1.574 . S
C1460 H1454 0.949 . S
C1460 C1464 1.368 . S
C1461 C1442 1.429 . S
C1461 C1455 1.429 . S
C1461 C1462 1.523 . S
C1462 C1443 1.368 . S
C1462 C1456 1.368 . S
C1462 C1461 1.523 . S
C1463 C1447 1.429 . S
C1463 C1459 1.429 . S
C1463 C1464 1.523 . S
C1464 C1448 1.368 . S
C1464 C1460 1.368 . S
C1464 C1463 1.523 . S
H1465 C1440 0.950 . S
H1466 C1442 0.950 . S
H1467 C1443 0.949 . S
H1468 C1445 0.950 . S
H1469 C1447 0.950 . S
C1470 C1471 1.349 . S
C1470 C1472 1.327 . S
C1470 H1495 0.950 . S
C1471 C1470 1.349 . S
C1471 C1487 1.349 . S
C1472 C1470 1.327 . S
C1472 C1491 1.429 . S
C1472 H1496 0.950 . S
C1473 C1490 1.574 . S
C1473 C1492 1.368 . S
C1473 H1497 0.949 . S
H1474 C1478 0.949 . S
C1475 C1476 1.349 . S
C1475 C1477 1.327 . S
C1475 H1498 0.950 . S
C1476 C1475 1.349 . S
C1476 C1488 1.349 . S
C1477 C1475 1.327 . S
C1477 C1493 1.429 . S
C1477 H1499 0.950 . S
C1478 H1474 0.949 . S
C1478 C1486 1.574 . S
C1478 C1494 1.368 . S
H1479 C1487 0.950 . S
H1480 C1485 0.950 . S
H1481 C1486 0.949 . S
H1482 C1488 0.950 . S
H1483 C1489 0.950 . S
H1484 C1490 0.949 . S
C1485 H1480 0.950 . S
C1485 C1487 1.327 . S
C1485 C1491 1.429 . S
C1486 C1478 1.574 . S
C1486 H1481 0.949 . S
C1486 C1492 1.368 . S
C1487 C1471 1.349 . S
C1487 H1479 0.950 . S
C1487 C1485 1.327 . S
C1488 C1476 1.349 . S
C1488 H1482 0.950 . S
C1488 C1489 1.327 . S
C1489 H1483 0.950 . S
C1489 C1488 1.327 . S
C1489 C1493 1.429 . S
C1490 C1473 1.574 . S
C1490 H1484 0.949 . S
C1490 C1494 1.368 . S
C1491 C1472 1.429 . S
C1491 C1485 1.429 . S
C1491 C1492 1.523 . S
C1492 C1473 1.368 . S
C1492 C1486 1.368 . S
C1492 C1491 1.523 . S
C1493 C1477 1.429 . S
C1493 C1489 1.429 . S
C1493 C1494 1.523 . S
C1494 C1478 1.368 . S
C1494 C1490 1.368 . S
C1494 C1493 1.523 . S
H1495 C1470 0.950 . S
H1496 C1472 0.950 . S
H1497 C1473 0.949 . S
H1498 C1475 0.950 . S
H1499 C1477 0.950 . S
C1500 C1501 1.349 . S
C1500 C1502 1.327 . S
C1500 H1525 0.950 . S
C1501 C1500 1.349 . S
C1501 C1517 1.349 . S
C1502 C1500 1.327 . S
C1502 C1521 1.429 . S
C1502 H1526 0.950 . S
C1503 C1520 1.574 . S
C1503 C1522 1.368 . S
C1503 H1527 0.949 . S
H1504 C1508 0.949 . S
C1505 C1506 1.349 . S
C1505 C1507 1.327 . S
C1505 H1528 0.950 . S
C1506 C1505 1.349 . S
C1506 C1518 1.349 . S
C1507 C1505 1.327 . S
C1507 C1523 1.429 . S
C1507 H1529 0.950 . S
C1508 H1504 0.949 . S
C1508 C1516 1.574 . S
C1508 C1524 1.368 . S
H1509 C1517 0.994 . S
H1510 C1515 0.950 . S
H1511 C1516 0.949 . S
H1512 C1518 0.950 . S
H1513 C1519 0.950 . S
H1514 C1520 0.949 . S
C1515 H1510 0.950 . S
C1515 C1517 1.327 . S
C1515 C1521 1.429 . S
C1516 C1508 1.574 . S
C1516 H1511 0.949 . S
C1516 C1522 1.368 . S
C1517 C1501 1.349 . S
C1517 H1509 0.994 . S
C1517 C1515 1.327 . S
C1518 C1506 1.349 . S
C1518 H1512 0.950 . S
C1518 C1519 1.327 . S
C1519 H1513 0.950 . S
C1519 C1518 1.327 . S
C1519 C1523 1.429 . S
C1520 C1503 1.574 . S
C1520 H1514 0.949 . S
C1520 C1524 1.368 . S
C1521 C1502 1.429 . S
C1521 C1515 1.429 . S
C1521 C1522 1.523 . S
C1522 C1503 1.368 . S
C1522 C1516 1.368 . S
C1522 C1521 1.523 . S
C1523 C1507 1.429 . S
C1523 C1519 1.429 . S
C1523 C1524 1.523 . S
C1524 C1508 1.368 . S
C1524 C1520 1.368 . S
C1524 C1523 1.523 . S
H1525 C1500 0.950 . S
H1526 C1502 0.950 . S
H1527 C1503 0.949 . S
H1528 C1505 0.950 . S
H1529 C1507 0.950 . S
C1530 C1531 1.349 . S
C1530 C1532 1.327 . S
C1530 H1555 0.982 . S
C1531 C1530 1.349 . S
C1531 C1547 1.349 . S
C1532 C1530 1.327 . S
C1532 C1551 1.429 . S
C1532 H1556 0.950 . S
C1533 C1550 1.574 . S
C1533 C1552 1.368 . S
C1533 H1557 0.949 . S
H1534 C1538 0.949 . S
C1535 C1536 1.349 . S
C1535 C1537 1.327 . S
C1535 H1558 0.950 . S
C1536 C1535 1.349 . S
C1536 C1548 1.349 . S
C1537 C1535 1.327 . S
C1537 C1553 1.429 . S
C1537 H1559 0.950 . S
C1538 H1534 0.949 . S
C1538 C1546 1.574 . S
C1538 C1554 1.368 . S
H1539 C1547 0.950 . S
H1540 C1545 0.950 . S
H1541 C1546 0.949 . S
H1542 C1548 0.950 . S
H1543 C1549 0.950 . S
H1544 C1550 0.949 . S
C1545 H1540 0.950 . S
C1545 C1547 1.327 . S
C1545 C1551 1.429 . S
C1546 C1538 1.574 . S
C1546 H1541 0.949 . S
C1546 C1552 1.368 . S
C1547 C1531 1.349 . S
C1547 H1539 0.950 . S
C1547 C1545 1.327 . S
C1548 C1536 1.349 . S
C1548 H1542 0.950 . S
C1548 C1549 1.327 . S
C1549 H1543 0.950 . S
C1549 C1548 1.327 . S
C1549 C1553 1.429 . S
C1550 C1533 1.574 . S
C1550 H1544 0.949 . S
C1550 C1554 1.368 . S
C1551 C1532 1.429 . S
C1551 C1545 1.429 . S
C1551 C1552 1.523 . S
C1552 C1533 1.368 . S
C1552 C1546 1.368 . S
C1552 C1551 1.523 . S
C1553 C1537 1.429 . S
C1553 C1549 1.429 . S
C1553 C1554 1.523 . S
C1554 C1538 1.368 . S
C1554 C1550 1.368 . S
C1554 C1553 1.523 . S
H1555 C1530 0.982 . S
H1556 C1532 0.950 . S
H1557 C1533 0.949 . S
H1558 C1535 0.950 . S
H1559 C1537 0.950 . S
C1560 C1561 1.349 . S
C1560 C1562 1.327 . S
C1560 H1585 0.950 . S
C1561 C1560 1.349 . S
C1561 C1577 1.349 . S
C1562 C1560 1.327 . S
C1562 C1581 1.429 . S
C1562 H1586 0.950 . S
C1563 C1580 1.574 . S
C1563 C1582 1.368 . S
C1563 H1587 0.949 . S
H1564 C1568 0.949 . S
C1565 C1566 1.349 . S
C1565 C1567 1.327 . S
C1565 H1588 0.950 . S
C1566 C1565 1.349 . S
C1566 C1578 1.349 . S
C1567 C1565 1.327 . S
C1567 C1583 1.429 . S
C1567 H1589 0.950 . S
C1568 H1564 0.949 . S
C1568 C1576 1.574 . S
C1568 C1584 1.368 . S
H1569 C1577 0.950 . S
H1570 C1575 0.950 . S
H1571 C1576 0.949 . S
H1572 C1578 0.950 . S
H1573 C1579 0.950 . S
H1574 C1580 0.949 . S
C1575 H1570 0.950 . S
C1575 C1577 1.327 . S
C1575 C1581 1.429 . S
C1576 C1568 1.574 . S
C1576 H1571 0.949 . S
C1576 C1582 1.368 . S
C1577 C1561 1.349 . S
C1577 H1569 0.950 . S
C1577 C1575 1.327 . S
C1578 C1566 1.349 . S
C1578 H1572 0.950 . S
C1578 C1579 1.327 . S
C1579 H1573 0.950 . S
C1579 C1578 1.327 . S
C1579 C1583 1.429 . S
C1580 C1563 1.574 . S
C1580 H1574 0.949 . S
C1580 C1584 1.368 . S
C1581 C1562 1.429 . S
C1581 C1575 1.429 . S
C1581 C1582 1.523 . S
C1582 C1563 1.368 . S
C1582 C1576 1.368 . S
C1582 C1581 1.523 . S
C1583 C1567 1.429 . S
C1583 C1579 1.429 . S
C1583 C1584 1.523 . S
C1584 C1568 1.368 . S
C1584 C1580 1.368 . S
C1584 C1583 1.523 . S
H1585 C1560 0.950 . S
H1586 C1562 0.950 . S
H1587 C1563 0.949 . S
H1588 C1565 0.950 . S
H1589 C1567 0.950 . S
C1590 C1591 1.349 . S
C1590 C1592 1.327 . S
C1590 H1615 0.950 . S
C1591 C1590 1.349 . S
C1591 C1607 1.349 . S
C1592 C1590 1.327 . S
C1592 C1611 1.429 . S
C1592 H1616 0.950 . S
C1593 C1610 1.574 . S
C1593 C1612 1.368 . S
C1593 H1617 0.949 . S
H1594 C1598 0.949 . S
C1595 C1596 1.349 . S
C1595 C1597 1.327 . S
C1595 H1618 0.950 . S
C1596 C1595 1.349 . S
C1596 C1608 1.349 . S
C1597 C1595 1.327 . S
C1597 C1613 1.429 . S
C1597 H1619 0.950 . S
C1598 H1594 0.949 . S
C1598 C1606 1.574 . S
C1598 C1614 1.368 . S
H1599 C1607 0.950 . S
H1600 C1605 0.950 . S
H1601 C1606 0.949 . S
H1602 C1608 0.950 . S
H1603 C1609 0.950 . S
H1604 C1610 0.949 . S
C1605 H1600 0.950 . S
C1605 C1607 1.327 . S
C1605 C1611 1.429 . S
C1606 C1598 1.574 . S
C1606 H1601 0.949 . S
C1606 C1612 1.368 . S
C1607 C1591 1.349 . S
C1607 H1599 0.950 . S
C1607 C1605 1.327 . S
C1608 C1596 1.349 . S
C1608 H1602 0.950 . S
C1608 C1609 1.327 . S
C1609 H1603 0.950 . S
C1609 C1608 1.327 . S
C1609 C1613 1.429 . S
C1610 C1593 1.574 . S
C1610 H1604 0.949 . S
C1610 C1614 1.368 . S
C1611 C1592 1.429 . S
C1611 C1605 1.429 . S
C1611 C1612 1.523 . S
C1612 C1593 1.368 . S
C1612 C1606 1.368 . S
C1612 C1611 1.523 . S
C1613 C1597 1.429 . S
C1613 C1609 1.429 . S
C1613 C1614 1.523 . S
C1614 C1598 1.368 . S
C1614 C1610 1.368 . S
C1614 C1613 1.523 . S
H1615 C1590 0.950 . S
H1616 C1592 0.950 . S
H1617 C1593 0.949 . S
H1618 C1595 0.950 . S
H1619 C1597 0.950 . S
C1620 C1621 1.349 . S
C1620 C1622 1.327 . S
C1620 H1645 0.950 . S
C1621 C1620 1.349 . S
C1621 C1637 1.349 . S
C1622 C1620 1.327 . S
C1622 C1641 1.429 . S
C1622 H1646 0.950 . S
C1623 C1640 1.574 . S
C1623 C1642 1.368 . S
C1623 H1647 0.949 . S
H1624 C1628 0.949 . S
C1625 C1626 1.349 . S
C1625 C1627 1.327 . S
C1625 H1648 0.950 . S
C1626 C1625 1.349 . S
C1626 C1638 1.349 . S
C1627 C1625 1.327 . S
C1627 C1643 1.429 . S
C1627 H1649 0.950 . S
C1628 H1624 0.949 . S
C1628 C1636 1.574 . S
C1628 C1644 1.368 . S
H1629 C1637 0.950 . S
H1630 C1635 0.950 . S
H1631 C1636 0.949 . S
H1632 C1638 0.950 . S
H1633 C1639 0.950 . S
H1634 C1640 0.949 . S
C1635 H1630 0.950 . S
C1635 C1637 1.327 . S
C1635 C1641 1.429 . S
C1636 C1628 1.574 . S
C1636 H1631 0.949 . S
C1636 C1642 1.368 . S
C1637 C1621 1.349 . S
C1637 H1629 0.950 . S
C1637 C1635 1.327 . S
C1638 C1626 1.349 . S
C1638 H1632 0.950 . S
C1638 C1639 1.327 . S
C1639 H1633 0.950 . S
C1639 C1638 1.327 . S
C1639 C1643 1.429 . S
C1640 C1623 1.574 . S
C1640 H1634 0.949 . S
C1640 C1644 1.368 . S
C1641 C1622 1.429 . S
C1641 C1635 1.429 . S
C1641 C1642 1.523 . S
C1642 C1623 1.368 . S
C1642 C1636 1.368 . S
C1642 C1641 1.523 . S
C1643 C1627 1.429 . S
C1643 C1639 1.429 . S
C1643 C1644 1.523 . S
C1644 C1628 1.368 . S
C1644 C1640 1.368 . S
C1644 C1643 1.523 . S
H1645 C1620 0.950 . S
H1646 C1622 0.950 . S
H1647 C1623 0.949 . S
H1648 C1625 0.950 . S
H1649 C1627 0.950 . S
C1650 C1651 1.349 . S
C1650 C1652 1.327 . S
C1650 H1675 0.950 1_554 S
C1651 C1650 1.349 . S
C1651 C1667 1.349 . S
C1652 C1650 1.327 . S
C1652 C1671 1.429 . S
C1652 H1676 0.950 . S
C1653 C1670 1.574 . S
C1653 C1672 1.368 . S
C1653 H1677 0.949 . S
H1654 C1658 0.949 . S
C1655 C1656 1.349 . S
C1655 C1657 1.327 . S
C1655 H1678 0.950 . S
C1656 C1655 1.349 . S
C1656 C1668 1.349 . S
C1657 C1655 1.327 . S
C1657 C1673 1.429 . S
C1657 H1679 0.950 . S
C1658 H1654 0.949 . S
C1658 C1666 1.574 . S
C1658 C1674 1.368 . S
H1659 C1667 0.950 . S
H1660 C1665 0.950 . S
H1661 C1666 0.949 . S
H1662 C1668 0.950 . S
H1663 C1669 0.950 . S
H1664 C1670 0.949 . S
C1665 H1660 0.950 . S
C1665 C1667 1.327 . S
C1665 C1671 1.429 . S
C1666 C1658 1.574 . S
C1666 H1661 0.949 . S
C1666 C1672 1.368 . S
C1667 C1651 1.349 . S
C1667 H1659 0.950 . S
C1667 C1665 1.327 . S
C1668 C1656 1.349 . S
C1668 H1662 0.950 . S
C1668 C1669 1.327 . S
C1669 H1663 0.950 . S
C1669 C1668 1.327 . S
C1669 C1673 1.429 . S
C1670 C1653 1.574 . S
C1670 H1664 0.949 . S
C1670 C1674 1.368 . S
C1671 C1652 1.429 . S
C1671 C1665 1.429 . S
C1671 C1672 1.523 . S
C1672 C1653 1.368 . S
C1672 C1666 1.368 . S
C1672 C1671 1.523 . S
C1673 C1657 1.429 . S
C1673 C1669 1.429 . S
C1673 C1674 1.523 . S
C1674 C1658 1.368 . S
C1674 C1670 1.368 . S
C1674 C1673 1.523 . S
H1675 C1650 0.950 1_556 S
H1676 C1652 0.950 . S
H1677 C1653 0.949 . S
H1678 C1655 0.950 . S
H1679 C1657 0.950 . S
C1680 C1681 1.349 . S
C1680 C1682 1.327 . S
C1680 H1705 0.950 . S
C1681 C1680 1.349 . S
C1681 C1697 1.349 . S
C1682 C1680 1.327 . S
C1682 C1701 1.429 . S
C1682 H1706 0.950 . S
C1683 C1700 1.574 . S
C1683 C1702 1.368 . S
C1683 H1707 0.949 . S
H1684 C1688 0.949 . S
C1685 C1686 1.349 . S
C1685 C1687 1.327 . S
C1685 H1708 0.950 . S
C1686 C1685 1.349 . S
C1686 C1698 1.349 . S
C1687 C1685 1.327 . S
C1687 C1703 1.429 . S
C1687 H1709 0.950 . S
C1688 H1684 0.949 . S
C1688 C1696 1.574 . S
C1688 C1704 1.368 . S
H1689 C1697 0.950 . S
H1690 C1695 0.950 . S
H1691 C1696 0.949 . S
H1692 C1698 0.950 . S
H1693 C1699 0.950 . S
H1694 C1700 0.949 . S
C1695 H1690 0.950 . S
C1695 C1697 1.327 . S
C1695 C1701 1.429 . S
C1696 C1688 1.574 . S
C1696 H1691 0.949 . S
C1696 C1702 1.368 . S
C1697 C1681 1.349 . S
C1697 H1689 0.950 . S
C1697 C1695 1.327 . S
C1698 C1686 1.349 . S
C1698 H1692 0.950 . S
C1698 C1699 1.327 . S
C1699 H1693 0.950 . S
C1699 C1698 1.327 . S
C1699 C1703 1.429 . S
C1700 C1683 1.574 . S
C1700 H1694 0.949 . S
C1700 C1704 1.368 . S
C1701 C1682 1.429 . S
C1701 C1695 1.429 . S
C1701 C1702 1.523 . S
C1702 C1683 1.368 . S
C1702 C1696 1.368 . S
C1702 C1701 1.523 . S
C1703 C1687 1.429 . S
C1703 C1699 1.429 . S
C1703 C1704 1.523 . S
C1704 C1688 1.368 . S
C1704 C1700 1.368 . S
C1704 C1703 1.523 . S
H1705 C1680 0.950 . S
H1706 C1682 0.950 . S
H1707 C1683 0.949 . S
H1708 C1685 0.950 . S
H1709 C1687 0.950 . S
C1710 C1711 1.349 . S
C1710 C1712 1.327 . S
C1710 H1735 0.950 . S
C1711 C1710 1.349 . S
C1711 C1727 1.349 . S
C1712 C1710 1.327 . S
C1712 C1731 1.429 . S
C1712 H1736 0.950 . S
C1713 C1730 1.574 . S
C1713 C1732 1.368 . S
C1713 H1737 0.949 . S
H1714 C1718 0.949 . S
C1715 C1716 1.349 . S
C1715 C1717 1.327 . S
C1715 H1738 0.950 . S
C1716 C1715 1.349 . S
C1716 C1728 1.349 . S
C1717 C1715 1.327 . S
C1717 C1733 1.429 . S
C1717 H1739 0.950 . S
C1718 H1714 0.949 . S
C1718 C1726 1.574 . S
C1718 C1734 1.368 . S
H1719 C1727 0.950 . S
H1720 C1725 0.950 . S
H1721 C1726 0.949 . S
H1722 C1728 0.950 . S
H1723 C1729 0.950 . S
H1724 C1730 0.949 . S
C1725 H1720 0.950 . S
C1725 C1727 1.327 . S
C1725 C1731 1.429 . S
C1726 C1718 1.574 . S
C1726 H1721 0.949 . S
C1726 C1732 1.368 . S
C1727 C1711 1.349 . S
C1727 H1719 0.950 . S
C1727 C1725 1.327 . S
C1728 C1716 1.349 . S
C1728 H1722 0.950 . S
C1728 C1729 1.327 . S
C1729 H1723 0.950 . S
C1729 C1728 1.327 . S
C1729 C1733 1.429 . S
C1730 C1713 1.574 . S
C1730 H1724 0.949 . S
C1730 C1734 1.368 . S
C1731 C1712 1.429 . S
C1731 C1725 1.429 . S
C1731 C1732 1.523 . S
C1732 C1713 1.368 . S
C1732 C1726 1.368 . S
C1732 C1731 1.523 . S
C1733 C1717 1.429 . S
C1733 C1729 1.429 . S
C1733 C1734 1.523 . S
C1734 C1718 1.368 . S
C1734 C1730 1.368 . S
C1734 C1733 1.523 . S
H1735 C1710 0.950 . S
H1736 C1712 0.950 . S
H1737 C1713 0.949 . S
H1738 C1715 0.950 . S
H1739 C1717 0.950 . S
C1740 C1741 1.349 . S
C1740 C1742 1.327 . S
C1740 H1765 0.950 . S
C1741 C1740 1.349 . S
C1741 C1757 1.349 . S
C1742 C1740 1.327 . S
C1742 C1761 1.429 . S
C1742 H1766 0.950 . S
C1743 C1760 1.574 . S
C1743 C1762 1.368 . S
C1743 H1767 0.949 . S
H1744 C1748 0.949 . S
C1745 C1746 1.349 . S
C1745 C1747 1.327 . S
C1745 H1768 0.950 . S
C1746 C1745 1.349 . S
C1746 C1758 1.349 . S
C1747 C1745 1.327 . S
C1747 C1763 1.429 . S
C1747 H1769 0.950 . S
C1748 H1744 0.949 . S
C1748 C1756 1.574 . S
C1748 C1764 1.368 . S
H1749 C1757 0.950 . S
H1750 C1755 0.950 . S
H1751 C1756 0.949 . S
H1752 C1758 0.950 . S
H1753 C1759 0.950 . S
H1754 C1760 0.949 . S
C1755 H1750 0.950 . S
C1755 C1757 1.327 . S
C1755 C1761 1.429 . S
C1756 C1748 1.574 . S
C1756 H1751 0.949 . S
C1756 C1762 1.368 . S
C1757 C1741 1.349 . S
C1757 H1749 0.950 . S
C1757 C1755 1.327 . S
C1758 C1746 1.349 . S
C1758 H1752 0.950 . S
C1758 C1759 1.327 . S
C1759 H1753 0.950 . S
C1759 C1758 1.327 . S
C1759 C1763 1.429 . S
C1760 C1743 1.574 . S
C1760 H1754 0.949 . S
C1760 C1764 1.368 . S
C1761 C1742 1.429 . S
C1761 C1755 1.429 . S
C1761 C1762 1.523 . S
C1762 C1743 1.368 . S
C1762 C1756 1.368 . S
C1762 C1761 1.523 . S
C1763 C1747 1.429 . S
C1763 C1759 1.429 . S
C1763 C1764 1.523 . S
C1764 C1748 1.368 . S
C1764 C1760 1.368 . S
C1764 C1763 1.523 . S
H1765 C1740 0.950 . S
H1766 C1742 0.950 . S
H1767 C1743 0.949 . S
H1768 C1745 0.950 . S
H1769 C1747 0.950 . S
C1770 C1771 1.349 . S
C1770 C1772 1.327 . S
C1770 H1795 0.950 1_455 S
C1771 C1770 1.349 . S
C1771 C1787 1.349 . S
C1772 C1770 1.327 . S
C1772 C1791 1.429 . S
C1772 H1796 0.950 . S
C1773 C1790 1.574 . S
C1773 C1792 1.368 . S
C1773 H1797 0.949 . S
H1774 C1778 0.949 . S
C1775 C1776 1.349 . S
C1775 C1777 1.327 . S
C1775 H1798 0.950 . S
C1776 C1775 1.349 . S
C1776 C1788 1.349 . S
C1777 C1775 1.327 . S
C1777 C1793 1.429 . S
C1777 H1799 0.950 . S
C1778 H1774 0.949 . S
C1778 C1786 1.574 . S
C1778 C1794 1.368 . S
H1779 C1787 0.950 . S
H1780 C1785 0.950 . S
H1781 C1786 0.949 . S
H1782 C1788 0.950 . S
H1783 C1789 0.950 . S
H1784 C1790 0.949 . S
C1785 H1780 0.950 . S
C1785 C1787 1.327 . S
C1785 C1791 1.429 . S
C1786 C1778 1.574 . S
C1786 H1781 0.949 . S
C1786 C1792 1.368 . S
C1787 C1771 1.349 . S
C1787 H1779 0.950 . S
C1787 C1785 1.327 . S
C1788 C1776 1.349 . S
C1788 H1782 0.950 . S
C1788 C1789 1.327 . S
C1789 H1783 0.950 . S
C1789 C1788 1.327 . S
C1789 C1793 1.429 . S
C1790 C1773 1.574 . S
C1790 H1784 0.949 . S
C1790 C1794 1.368 . S
C1791 C1772 1.429 . S
C1791 C1785 1.429 . S
C1791 C1792 1.523 . S
C1792 C1773 1.368 . S
C1792 C1786 1.368 . S
C1792 C1791 1.523 . S
C1793 C1777 1.429 . S
C1793 C1789 1.429 . S
C1793 C1794 1.523 . S
C1794 C1778 1.368 . S
C1794 C1790 1.368 . S
C1794 C1793 1.523 . S
H1795 C1770 0.950 1_655 S
H1796 C1772 0.950 . S
H1797 C1773 0.949 . S
H1798 C1775 0.950 . S
H1799 C1777 0.950 . S
C1800 C1801 1.349 . S
C1800 C1802 1.327 . S
C1800 H1825 0.950 . S
C1801 C1800 1.349 . S
C1801 C1817 1.349 . S
C1802 C1800 1.327 . S
C1802 C1821 1.429 . S
C1802 H1826 0.950 . S
C1803 C1820 1.574 . S
C1803 C1822 1.368 . S
C1803 H1827 0.949 . S
H1804 C1808 0.949 . S
C1805 C1806 1.349 . S
C1805 C1807 1.327 . S
C1805 H1828 0.950 . S
C1806 C1805 1.349 . S
C1806 C1818 1.349 . S
C1807 C1805 1.327 . S
C1807 C1823 1.429 . S
C1807 H1829 0.950 . S
C1808 H1804 0.949 . S
C1808 C1816 1.574 . S
C1808 C1824 1.368 . S
H1809 C1817 0.950 . S
H1810 C1815 0.950 . S
H1811 C1816 0.949 . S
H1812 C1818 0.950 . S
H1813 C1819 0.950 . S
H1814 C1820 0.949 . S
C1815 H1810 0.950 . S
C1815 C1817 1.327 . S
C1815 C1821 1.429 . S
C1816 C1808 1.574 . S
C1816 H1811 0.949 . S
C1816 C1822 1.368 . S
C1817 C1801 1.349 . S
C1817 H1809 0.950 . S
C1817 C1815 1.327 . S
C1818 C1806 1.349 . S
C1818 H1812 0.950 . S
C1818 C1819 1.327 . S
C1819 H1813 0.950 . S
C1819 C1818 1.327 . S
C1819 C1823 1.429 . S
C1820 C1803 1.574 . S
C1820 H1814 0.949 . S
C1820 C1824 1.368 . S
C1821 C1802 1.429 . S
C1821 C1815 1.429 . S
C1821 C1822 1.523 . S
C1822 C1803 1.368 . S
C1822 C1816 1.368 . S
C1822 C1821 1.523 . S
C1823 C1807 1.429 . S
C1823 C1819 1.429 . S
C1823 C1824 1.523 . S
C1824 C1808 1.368 . S
C1824 C1820 1.368 . S
C1824 C1823 1.523 . S
H1825 C1800 0.950 . S
H1826 C1802 0.950 . S
H1827 C1803 0.949 . S
H1828 C1805 0.950 . S
H1829 C1807 0.950 . S
C1830 C1831 1.349 . S
C1830 C1832 1.327 . S
C1830 H1855 0.950 . S
C1831 C1830 1.349 . S
C1831 C1847 1.349 . S
C1832 C1830 1.327 . S
C1832 C1851 1.429 . S
C1832 H1856 0.950 . S
C1833 C1850 1.574 . S
C1833 C1852 1.368 . S
C1833 H1857 0.949 . S
H1834 C1838 0.949 . S
C1835 C1836 1.349 . S
C1835 C1837 1.327 . S
C1835 H1858 0.950 . S
C1836 C1835 1.349 . S
C1836 C1848 1.349 . S
C1837 C1835 1.327 . S
C1837 C1853 1.429 . S
C1837 H1859 0.950 . S
C1838 H1834 0.949 . S
C1838 C1846 1.574 . S
C1838 C1854 1.368 . S
H1839 C1847 0.950 . S
H1840 C1845 0.950 . S
H1841 C1846 0.949 . S
H1842 C1848 0.950 . S
H1843 C1849 0.950 . S
H1844 C1850 0.949 . S
C1845 H1840 0.950 . S
C1845 C1847 1.327 . S
C1845 C1851 1.429 . S
C1846 C1838 1.574 . S
C1846 H1841 0.949 . S
C1846 C1852 1.368 . S
C1847 C1831 1.349 . S
C1847 H1839 0.950 . S
C1847 C1845 1.327 . S
C1848 C1836 1.349 . S
C1848 H1842 0.950 . S
C1848 C1849 1.327 . S
C1849 H1843 0.950 . S
C1849 C1848 1.327 . S
C1849 C1853 1.429 . S
C1850 C1833 1.574 . S
C1850 H1844 0.949 . S
C1850 C1854 1.368 . S
C1851 C1832 1.429 . S
C1851 C1845 1.429 . S
C1851 C1852 1.523 . S
C1852 C1833 1.368 . S
C1852 C1846 1.368 . S
C1852 C1851 1.523 . S
C1853 C1837 1.429 . S
C1853 C1849 1.429 . S
C1853 C1854 1.523 . S
C1854 C1838 1.368 . S
C1854 C1850 1.368 . S
C1854 C1853 1.523 . S
H1855 C1830 0.950 . S
H1856 C1832 0.950 . S
H1857 C1833 0.949 . S
H1858 C1835 0.950 . S
H1859 C1837 0.950 . S
C1860 C1861 1.349 . S
C1860 C1862 1.327 . S
C1860 H1885 0.950 1_565 S
C1861 C1860 1.349 . S
C1861 C1877 1.349 . S
C1862 C1860 1.327 . S
C1862 C1881 1.429 . S
C1862 H1886 0.950 . S
C1863 C1880 1.574 . S
C1863 C1882 1.368 . S
C1863 H1887 0.949 . S
H1864 C1868 0.949 . S
C1865 C1866 1.349 . S
C1865 C1867 1.327 . S
C1865 H1888 0.950 . S
C1866 C1865 1.349 . S
C1866 C1878 1.349 . S
C1867 C1865 1.327 . S
C1867 C1883 1.429 . S
C1867 H1889 0.950 . S
C1868 H1864 0.949 . S
C1868 C1876 1.574 . S
C1868 C1884 1.368 . S
H1869 C1877 0.950 . S
H1870 C1875 0.950 . S
H1871 C1876 0.949 . S
H1872 C1878 0.950 . S
H1873 C1879 0.950 . S
H1874 C1880 0.949 . S
C1875 H1870 0.950 . S
C1875 C1877 1.327 . S
C1875 C1881 1.429 . S
C1876 C1868 1.574 . S
C1876 H1871 0.949 . S
C1876 C1882 1.368 . S
C1877 C1861 1.349 . S
C1877 H1869 0.950 . S
C1877 C1875 1.327 . S
C1878 C1866 1.349 . S
C1878 H1872 0.950 . S
C1878 C1879 1.327 . S
C1879 H1873 0.950 . S
C1879 C1878 1.327 . S
C1879 C1883 1.429 . S
C1880 C1863 1.574 . S
C1880 H1874 0.949 . S
C1880 C1884 1.368 . S
C1881 C1862 1.429 . S
C1881 C1875 1.429 . S
C1881 C1882 1.523 . S
C1882 C1863 1.368 . S
C1882 C1876 1.368 . S
C1882 C1881 1.523 . S
C1883 C1867 1.429 . S
C1883 C1879 1.429 . S
C1883 C1884 1.523 . S
C1884 C1868 1.368 . S
C1884 C1880 1.368 . S
C1884 C1883 1.523 . S
H1885 C1860 0.950 1_545 S
H1886 C1862 0.950 . S
H1887 C1863 0.949 . S
H1888 C1865 0.950 . S
H1889 C1867 0.950 . S
C1890 C1891 1.349 . S
C1890 C1892 1.327 . S
C1890 H1915 0.950 1_545 S
C1891 C1890 1.349 . S
C1891 C1907 1.349 . S
C1892 C1890 1.327 . S
C1892 C1911 1.429 . S
C1892 H1916 0.950 . S
C1893 C1910 1.574 . S
C1893 C1912 1.368 . S
C1893 H1917 0.949 . S
H1894 C1898 0.949 . S
C1895 C1896 1.349 . S
C1895 C1897 1.327 . S
C1895 H1918 0.950 . S
C1896 C1895 1.349 . S
C1896 C1908 1.349 . S
C1897 C1895 1.327 . S
C1897 C1913 1.429 . S
C1897 H1919 0.950 . S
C1898 H1894 0.949 . S
C1898 C1906 1.574 . S
C1898 C1914 1.368 . S
H1899 C1907 0.950 . S
H1900 C1905 0.950 . S
H1901 C1906 0.949 . S
H1902 C1908 0.950 . S
H1903 C1909 0.950 . S
H1904 C1910 0.949 . S
C1905 H1900 0.950 . S
C1905 C1907 1.327 . S
C1905 C1911 1.429 . S
C1906 C1898 1.574 . S
C1906 H1901 0.949 . S
C1906 C1912 1.368 . S
C1907 C1891 1.349 . S
C1907 H1899 0.950 . S
C1907 C1905 1.327 . S
C1908 C1896 1.349 . S
C1908 H1902 0.950 . S
C1908 C1909 1.327 . S
C1909 H1903 0.950 . S
C1909 C1908 1.327 . S
C1909 C1913 1.429 . S
C1910 C1893 1.574 . S
C1910 H1904 0.949 . S
C1910 C1914 1.368 . S
C1911 C1892 1.429 . S
C1911 C1905 1.429 . S
C1911 C1912 1.523 . S
C1912 C1893 1.368 . S
C1912 C1906 1.368 . S
C1912 C1911 1.523 . S
C1913 C1897 1.429 . S
C1913 C1909 1.429 . S
C1913 C1914 1.523 . S
C1914 C1898 1.368 . S
C1914 C1910 1.368 . S
C1914 C1913 1.523 . S
H1915 C1890 0.950 1_565 S
H1916 C1892 0.950 . S
H1917 C1893 0.949 . S
H1918 C1895 0.950 . S
H1919 C1897 0.950 . S
C1920 C1921 1.349 . S
C1920 C1922 1.327 . S
C1920 H1945 0.950 . S
C1921 C1920 1.349 . S
C1921 C1937 1.349 . S
C1922 C1920 1.327 . S
C1922 C1941 1.429 . S
C1922 H1946 0.950 . S
C1923 C1940 1.574 . S
C1923 C1942 1.368 . S
C1923 H1947 0.949 . S
H1924 C1928 0.949 . S
C1925 C1926 1.349 . S
C1925 C1927 1.327 . S
C1925 H1948 0.950 . S
C1926 C1925 1.349 . S
C1926 C1938 1.349 . S
C1927 C1925 1.327 . S
C1927 C1943 1.429 . S
C1927 H1949 0.950 . S
C1928 H1924 0.949 . S
C1928 C1936 1.574 . S
C1928 C1944 1.368 . S
H1929 C1937 0.950 . S
H1930 C1935 0.950 . S
H1931 C1936 0.949 . S
H1932 C1938 0.950 . S
H1933 C1939 0.950 . S
H1934 C1940 0.949 . S
C1935 H1930 0.950 . S
C1935 C1937 1.327 . S
C1935 C1941 1.429 . S
C1936 C1928 1.574 . S
C1936 H1931 0.949 . S
C1936 C1942 1.368 . S
C1937 C1921 1.349 . S
C1937 H1929 0.950 . S
C1937 C1935 1.327 . S
C1938 C1926 1.349 . S
C1938 H1932 0.950 . S
C1938 C1939 1.327 . S
C1939 H1933 0.950 . S
C1939 C1938 1.327 . S
C1939 C1943 1.429 . S
C1940 C1923 1.574 . S
C1940 H1934 0.949 . S
C1940 C1944 1.368 . S
C1941 C1922 1.429 . S
C1941 C1935 1.429 . S
C1941 C1942 1.523 . S
C1942 C1923 1.368 . S
C1942 C1936 1.368 . S
C1942 C1941 1.523 . S
C1943 C1927 1.429 . S
C1943 C1939 1.429 . S
C1943 C1944 1.523 . S
C1944 C1928 1.368 . S
C1944 C1940 1.368 . S
C1944 C1943 1.523 . S
H1945 C1920 0.950 . S
H1946 C1922 0.950 . S
H1947 C1923 0.949 . S
H1948 C1925 0.950 . S
H1949 C1927 0.950 . S
C1950 C1951 1.349 . S
C1950 C1952 1.327 . S
C1950 H1975 0.950 1_554 S
C1951 C1950 1.349 . S
C1951 C1967 1.349 . S
C1952 C1950 1.327 . S
C1952 C1971 1.429 . S
C1952 H1976 0.950 . S
C1953 C1970 1.574 . S
C1953 C1972 1.368 . S
C1953 H1977 0.949 . S
H1954 C1958 0.949 . S
C1955 C1956 1.349 . S
C1955 C1957 1.327 . S
C1955 H1978 0.950 . S
C1956 C1955 1.349 . S
C1956 C1968 1.349 . S
C1957 C1955 1.327 . S
C1957 C1973 1.429 . S
C1957 H1979 0.950 . S
C1958 H1954 0.949 . S
C1958 C1966 1.574 . S
C1958 C1974 1.368 . S
H1959 C1967 0.950 . S
H1960 C1965 0.950 . S
H1961 C1966 0.949 . S
H1962 C1968 0.950 . S
H1963 C1969 0.950 . S
H1964 C1970 0.949 . S
C1965 H1960 0.950 . S
C1965 C1967 1.327 . S
C1965 C1971 1.429 . S
C1966 C1958 1.574 . S
C1966 H1961 0.949 . S
C1966 C1972 1.368 . S
C1967 C1951 1.349 . S
C1967 H1959 0.950 . S
C1967 C1965 1.327 . S
C1968 C1956 1.349 . S
C1968 H1962 0.950 . S
C1968 C1969 1.327 . S
C1969 H1963 0.950 . S
C1969 C1968 1.327 . S
C1969 C1973 1.429 . S
C1970 C1953 1.574 . S
C1970 H1964 0.949 . S
C1970 C1974 1.368 . S
C1971 C1952 1.429 . S
C1971 C1965 1.429 . S
C1971 C1972 1.523 . S
C1972 C1953 1.368 . S
C1972 C1966 1.368 . S
C1972 C1971 1.523 . S
C1973 C1957 1.429 . S
C1973 C1969 1.429 . S
C1973 C1974 1.523 . S
C1974 C1958 1.368 . S
C1974 C1970 1.368 . S
C1974 C1973 1.523 . S
H1975 C1950 0.950 1_556 S
H1976 C1952 0.950 . S
H1977 C1953 0.949 . S
H1978 C1955 0.950 . S
H1979 C1957 0.950 . S
C1980 C1981 1.349 . S
C1980 C1982 1.327 . S
C1980 H2005 0.950 . S
C1981 C1980 1.349 . S
C1981 C1997 1.349 . S
C1982 C1980 1.327 . S
C1982 C2001 1.429 . S
C1982 H2006 0.950 . S
C1983 C2000 1.574 . S
C1983 C2002 1.368 . S
C1983 H2007 0.949 . S
H1984 C1988 0.949 . S
C1985 C1986 1.349 . S
C1985 C1987 1.327 . S
C1985 H2008 0.950 . S
C1986 C1985 1.349 . S
C1986 C1998 1.349 . S
C1987 C1985 1.327 . S
C1987 C2003 1.429 . S
C1987 H2009 0.950 . S
C1988 H1984 0.949 . S
C1988 C1996 1.574 . S
C1988 C2004 1.368 . S
H1989 C1997 0.950 . S
H1990 C1995 0.950 . S
H1991 C1996 0.949 . S
H1992 C1998 0.950 . S
H1993 C1999 0.950 . S
H1994 C2000 0.949 . S
C1995 H1990 0.950 . S
C1995 C1997 1.327 . S
C1995 C2001 1.429 . S
C1996 C1988 1.574 . S
C1996 H1991 0.949 . S
C1996 C2002 1.368 . S
C1997 C1981 1.349 . S
C1997 H1989 0.950 . S
C1997 C1995 1.327 . S
C1998 C1986 1.349 . S
C1998 H1992 0.950 . S
C1998 C1999 1.327 . S
C1999 H1993 0.950 . S
C1999 C1998 1.327 . S
C1999 C2003 1.429 . S
C2000 C1983 1.574 . S
C2000 H1994 0.949 . S
C2000 C2004 1.368 . S
C2001 C1982 1.429 . S
C2001 C1995 1.429 . S
C2001 C2002 1.523 . S
C2002 C1983 1.368 . S
C2002 C1996 1.368 . S
C2002 C2001 1.523 . S
C2003 C1987 1.429 . S
C2003 C1999 1.429 . S
C2003 C2004 1.523 . S
C2004 C1988 1.368 . S
C2004 C2000 1.368 . S
C2004 C2003 1.523 . S
H2005 C1980 0.950 . S
H2006 C1982 0.950 . S
H2007 C1983 0.949 . S
H2008 C1985 0.950 . S
H2009 C1987 0.950 . S
C2010 C2011 1.349 . S
C2010 C2012 1.327 . S
C2010 H2035 0.950 . S
C2011 C2010 1.349 . S
C2011 C2027 1.349 . S
C2012 C2010 1.327 . S
C2012 C2031 1.429 . S
C2012 H2036 0.950 . S
C2013 C2030 1.574 . S
C2013 C2032 1.368 . S
C2013 H2037 0.949 . S
H2014 C2018 0.949 . S
C2015 C2016 1.349 . S
C2015 C2017 1.327 . S
C2015 H2038 0.950 . S
C2016 C2015 1.349 . S
C2016 C2028 1.349 . S
C2017 C2015 1.327 . S
C2017 C2033 1.429 . S
C2017 H2039 0.950 . S
C2018 H2014 0.949 . S
C2018 C2026 1.574 . S
C2018 C2034 1.368 . S
H2019 C2027 0.950 . S
H2020 C2025 0.950 . S
H2021 C2026 0.949 . S
H2022 C2028 0.950 . S
H2023 C2029 0.950 . S
H2024 C2030 0.949 . S
C2025 H2020 0.950 . S
C2025 C2027 1.327 . S
C2025 C2031 1.429 . S
C2026 C2018 1.574 . S
C2026 H2021 0.949 . S
C2026 C2032 1.368 . S
C2027 C2011 1.349 . S
C2027 H2019 0.950 . S
C2027 C2025 1.327 . S
C2028 C2016 1.349 . S
C2028 H2022 0.950 . S
C2028 C2029 1.327 . S
C2029 H2023 0.950 . S
C2029 C2028 1.327 . S
C2029 C2033 1.429 . S
C2030 C2013 1.574 . S
C2030 H2024 0.949 . S
C2030 C2034 1.368 . S
C2031 C2012 1.429 . S
C2031 C2025 1.429 . S
C2031 C2032 1.523 . S
C2032 C2013 1.368 . S
C2032 C2026 1.368 . S
C2032 C2031 1.523 . S
C2033 C2017 1.429 . S
C2033 C2029 1.429 . S
C2033 C2034 1.523 . S
C2034 C2018 1.368 . S
C2034 C2030 1.368 . S
C2034 C2033 1.523 . S
H2035 C2010 0.950 . S
H2036 C2012 0.950 . S
H2037 C2013 0.949 . S
H2038 C2015 0.950 . S
H2039 C2017 0.950 . S
C2040 C2041 1.349 . S
C2040 C2042 1.327 . S
C2040 H2065 0.950 . S
C2041 C2040 1.349 . S
C2041 C2057 1.349 . S
C2042 C2040 1.327 . S
C2042 C2061 1.429 . S
C2042 H2066 0.950 . S
C2043 C2060 1.574 . S
C2043 C2062 1.368 . S
C2043 H2067 0.949 . S
H2044 C2048 0.949 . S
C2045 C2046 1.349 . S
C2045 C2047 1.327 . S
C2045 H2068 0.950 . S
C2046 C2045 1.349 . S
C2046 C2058 1.349 . S
C2047 C2045 1.327 . S
C2047 C2063 1.429 . S
C2047 H2069 0.950 . S
C2048 H2044 0.949 . S
C2048 C2056 1.574 . S
C2048 C2064 1.368 . S
H2049 C2057 0.950 . S
H2050 C2055 0.950 . S
H2051 C2056 0.949 . S
H2052 C2058 0.950 . S
H2053 C2059 0.950 . S
H2054 C2060 0.949 . S
C2055 H2050 0.950 . S
C2055 C2057 1.327 . S
C2055 C2061 1.429 . S
C2056 C2048 1.574 . S
C2056 H2051 0.949 . S
C2056 C2062 1.368 . S
C2057 C2041 1.349 . S
C2057 H2049 0.950 . S
C2057 C2055 1.327 . S
C2058 C2046 1.349 . S
C2058 H2052 0.950 . S
C2058 C2059 1.327 . S
C2059 H2053 0.950 . S
C2059 C2058 1.327 . S
C2059 C2063 1.429 . S
C2060 C2043 1.574 . S
C2060 H2054 0.949 . S
C2060 C2064 1.368 . S
C2061 C2042 1.429 . S
C2061 C2055 1.429 . S
C2061 C2062 1.523 . S
C2062 C2043 1.368 . S
C2062 C2056 1.368 . S
C2062 C2061 1.523 . S
C2063 C2047 1.429 . S
C2063 C2059 1.429 . S
C2063 C2064 1.523 . S
C2064 C2048 1.368 . S
C2064 C2060 1.368 . S
C2064 C2063 1.523 . S
H2065 C2040 0.950 . S
H2066 C2042 0.950 . S
H2067 C2043 0.949 . S
H2068 C2045 0.950 . S
H2069 C2047 0.950 . S
C2070 C2071 1.349 . S
C2070 C2072 1.327 . S
C2070 H2095 0.950 . S
C2071 C2070 1.349 . S
C2071 C2087 1.349 . S
C2072 C2070 1.327 . S
C2072 C2091 1.429 . S
C2072 H2096 0.950 . S
C2073 C2090 1.574 . S
C2073 C2092 1.368 . S
C2073 H2097 0.949 . S
H2074 C2078 0.949 . S
C2075 C2076 1.349 . S
C2075 C2077 1.327 . S
C2075 H2098 0.950 . S
C2076 C2075 1.349 . S
C2076 C2088 1.349 . S
C2077 C2075 1.327 . S
C2077 C2093 1.429 . S
C2077 H2099 0.950 . S
C2078 H2074 0.949 . S
C2078 C2086 1.574 . S
C2078 C2094 1.368 . S
H2079 C2087 0.950 . S
H2080 C2085 0.950 . S
H2081 C2086 0.949 . S
H2082 C2088 0.950 . S
H2083 C2089 0.950 . S
H2084 C2090 0.949 . S
C2085 H2080 0.950 . S
C2085 C2087 1.327 . S
C2085 C2091 1.429 . S
C2086 C2078 1.574 . S
C2086 H2081 0.949 . S
C2086 C2092 1.368 . S
C2087 C2071 1.349 . S
C2087 H2079 0.950 . S
C2087 C2085 1.327 . S
C2088 C2076 1.349 . S
C2088 H2082 0.950 . S
C2088 C2089 1.327 . S
C2089 H2083 0.950 . S
C2089 C2088 1.327 . S
C2089 C2093 1.429 . S
C2090 C2073 1.574 . S
C2090 H2084 0.949 . S
C2090 C2094 1.368 . S
C2091 C2072 1.429 . S
C2091 C2085 1.429 . S
C2091 C2092 1.523 . S
C2092 C2073 1.368 . S
C2092 C2086 1.368 . S
C2092 C2091 1.523 . S
C2093 C2077 1.429 . S
C2093 C2089 1.429 . S
C2093 C2094 1.523 . S
C2094 C2078 1.368 . S
C2094 C2090 1.368 . S
C2094 C2093 1.523 . S
H2095 C2070 0.950 . S
H2096 C2072 0.950 . S
H2097 C2073 0.949 . S
H2098 C2075 0.950 . S
H2099 C2077 0.950 . S
C2100 C2101 1.349 . S
C2100 C2102 1.327 . S
C2100 H2125 0.950 . S
C2101 C2100 1.349 . S
C2101 C2117 1.349 . S
C2102 C2100 1.327 . S
C2102 C2121 1.429 . S
C2102 H2126 0.950 . S
C2103 C2120 1.574 . S
C2103 C2122 1.368 . S
C2103 H2127 0.949 . S
H2104 C2108 0.949 . S
C2105 C2106 1.349 . S
C2105 C2107 1.327 . S
C2105 H2128 0.950 . S
C2106 C2105 1.349 . S
C2106 C2118 1.349 . S
C2107 C2105 1.327 . S
C2107 C2123 1.429 . S
C2107 H2129 0.950 . S
C2108 H2104 0.949 . S
C2108 C2116 1.574 . S
C2108 C2124 1.368 . S
H2109 C2117 0.950 . S
H2110 C2115 0.950 . S
H2111 C2116 0.949 . S
H2112 C2118 0.950 . S
H2113 C2119 0.950 . S
H2114 C2120 0.949 . S
C2115 H2110 0.950 . S
C2115 C2117 1.327 . S
C2115 C2121 1.429 . S
C2116 C2108 1.574 . S
C2116 H2111 0.949 . S
C2116 C2122 1.368 . S
C2117 C2101 1.349 . S
C2117 H2109 0.950 . S
C2117 C2115 1.327 . S
C2118 C2106 1.349 . S
C2118 H2112 0.950 . S
C2118 C2119 1.327 . S
C2119 H2113 0.950 . S
C2119 C2118 1.327 . S
C2119 C2123 1.429 . S
C2120 C2103 1.574 . S
C2120 H2114 0.949 . S
C2120 C2124 1.368 . S
C2121 C2102 1.429 . S
C2121 C2115 1.429 . S
C2121 C2122 1.523 . S
C2122 C2103 1.368 . S
C2122 C2116 1.368 . S
C2122 C2121 1.523 . S
C2123 C2107 1.429 . S
C2123 C2119 1.429 . S
C2123 C2124 1.523 . S
C2124 C2108 1.368 . S
C2124 C2120 1.368 . S
C2124 C2123 1.523 . S
H2125 C2100 0.950 . S
H2126 C2102 0.950 . S
H2127 C2103 0.949 . S
H2128 C2105 0.950 . S
H2129 C2107 0.950 . S
C2130 C2131 1.349 . S
C2130 C2132 1.327 . S
C2130 H2155 0.950 1_655 S
C2131 C2130 1.349 . S
C2131 C2147 1.349 . S
C2132 C2130 1.327 . S
C2132 C2151 1.429 . S
C2132 H2156 0.950 . S
C2133 C2150 1.574 . S
C2133 C2152 1.368 . S
C2133 H2157 0.949 . S
H2134 C2138 0.949 . S
C2135 C2136 1.349 . S
C2135 C2137 1.327 . S
C2135 H2158 0.950 . S
C2136 C2135 1.349 . S
C2136 C2148 1.349 . S
C2137 C2135 1.327 . S
C2137 C2153 1.429 . S
C2137 H2159 0.950 . S
C2138 H2134 0.949 . S
C2138 C2146 1.574 . S
C2138 C2154 1.368 . S
H2139 C2147 0.950 . S
H2140 C2145 0.950 . S
H2141 C2146 0.949 . S
H2142 C2148 0.950 . S
H2143 C2149 0.950 . S
H2144 C2150 0.949 . S
C2145 H2140 0.950 . S
C2145 C2147 1.327 . S
C2145 C2151 1.429 . S
C2146 C2138 1.574 . S
C2146 H2141 0.949 . S
C2146 C2152 1.368 . S
C2147 C2131 1.349 . S
C2147 H2139 0.950 . S
C2147 C2145 1.327 . S
C2148 C2136 1.349 . S
C2148 H2142 0.950 . S
C2148 C2149 1.327 . S
C2149 H2143 0.950 . S
C2149 C2148 1.327 . S
C2149 C2153 1.429 . S
C2150 C2133 1.574 . S
C2150 H2144 0.949 . S
C2150 C2154 1.368 . S
C2151 C2132 1.429 . S
C2151 C2145 1.429 . S
C2151 C2152 1.523 . S
C2152 C2133 1.368 . S
C2152 C2146 1.368 . S
C2152 C2151 1.523 . S
C2153 C2137 1.429 . S
C2153 C2149 1.429 . S
C2153 C2154 1.523 . S
C2154 C2138 1.368 . S
C2154 C2150 1.368 . S
C2154 C2153 1.523 . S
H2155 C2130 0.950 1_455 S
H2156 C2132 0.950 . S
H2157 C2133 0.949 . S
H2158 C2135 0.950 . S
H2159 C2137 0.950 . S
C2160 C2161 1.349 . S
C2160 C2162 1.327 . S
C2160 H2185 0.950 . S
C2161 C2160 1.349 . S
C2161 C2177 1.349 . S
C2162 C2160 1.327 . S
C2162 C2181 1.429 . S
C2162 H2186 0.950 . S
C2163 C2180 1.574 . S
C2163 C2182 1.368 . S
C2163 H2187 0.949 . S
H2164 C2168 0.949 . S
C2165 C2166 1.349 . S
C2165 C2167 1.327 . S
C2165 H2188 0.950 . S
C2166 C2165 1.349 . S
C2166 C2178 1.349 . S
C2167 C2165 1.327 . S
C2167 C2183 1.429 . S
C2167 H2189 0.950 . S
C2168 H2164 0.949 . S
C2168 C2176 1.574 . S
C2168 C2184 1.368 . S
H2169 C2177 0.950 . S
H2170 C2175 0.950 . S
H2171 C2176 0.949 . S
H2172 C2178 0.950 . S
H2173 C2179 0.950 . S
H2174 C2180 0.949 . S
C2175 H2170 0.950 . S
C2175 C2177 1.327 . S
C2175 C2181 1.429 . S
C2176 C2168 1.574 . S
C2176 H2171 0.949 . S
C2176 C2182 1.368 . S
C2177 C2161 1.349 . S
C2177 H2169 0.950 . S
C2177 C2175 1.327 . S
C2178 C2166 1.349 . S
C2178 H2172 0.950 . S
C2178 C2179 1.327 . S
C2179 H2173 0.950 . S
C2179 C2178 1.327 . S
C2179 C2183 1.429 . S
C2180 C2163 1.574 . S
C2180 H2174 0.949 . S
C2180 C2184 1.368 . S
C2181 C2162 1.429 . S
C2181 C2175 1.429 . S
C2181 C2182 1.523 . S
C2182 C2163 1.368 . S
C2182 C2176 1.368 . S
C2182 C2181 1.523 . S
C2183 C2167 1.429 . S
C2183 C2179 1.429 . S
C2183 C2184 1.523 . S
C2184 C2168 1.368 . S
C2184 C2180 1.368 . S
C2184 C2183 1.523 . S
H2185 C2160 0.950 . S
H2186 C2162 0.950 . S
H2187 C2163 0.949 . S
H2188 C2165 0.950 . S
H2189 C2167 0.950 . S
C2190 C2191 1.349 . S
C2190 C2192 1.327 . S
C2190 H2215 0.950 . S
C2191 C2190 1.349 . S
C2191 C2207 1.349 . S
C2192 C2190 1.327 . S
C2192 C2211 1.429 . S
C2192 H2216 0.950 . S
C2193 C2210 1.574 . S
C2193 C2212 1.368 . S
C2193 H2217 0.949 . S
H2194 C2198 0.949 . S
C2195 C2196 1.349 . S
C2195 C2197 1.327 . S
C2195 H2218 0.950 . S
C2196 C2195 1.349 . S
C2196 C2208 1.349 . S
C2197 C2195 1.327 . S
C2197 C2213 1.429 . S
C2197 H2219 0.950 . S
C2198 H2194 0.949 . S
C2198 C2206 1.574 . S
C2198 C2214 1.368 . S
H2199 C2207 0.950 . S
H2200 C2205 0.950 . S
H2201 C2206 0.949 . S
H2202 C2208 0.950 . S
H2203 C2209 0.950 . S
H2204 C2210 0.949 . S
C2205 H2200 0.950 . S
C2205 C2207 1.327 . S
C2205 C2211 1.429 . S
C2206 C2198 1.574 . S
C2206 H2201 0.949 . S
C2206 C2212 1.368 . S
C2207 C2191 1.349 . S
C2207 H2199 0.950 . S
C2207 C2205 1.327 . S
C2208 C2196 1.349 . S
C2208 H2202 0.950 . S
C2208 C2209 1.327 . S
C2209 H2203 0.950 . S
C2209 C2208 1.327 . S
C2209 C2213 1.429 . S
C2210 C2193 1.574 . S
C2210 H2204 0.949 . S
C2210 C2214 1.368 . S
C2211 C2192 1.429 . S
C2211 C2205 1.429 . S
C2211 C2212 1.523 . S
C2212 C2193 1.368 . S
C2212 C2206 1.368 . S
C2212 C2211 1.523 . S
C2213 C2197 1.429 . S
C2213 C2209 1.429 . S
C2213 C2214 1.523 . S
C2214 C2198 1.368 . S
C2214 C2210 1.368 . S
C2214 C2213 1.523 . S
H2215 C2190 0.950 . S
H2216 C2192 0.950 . S
H2217 C2193 0.949 . S
H2218 C2195 0.950 . S
H2219 C2197 0.950 . S
C2220 C2221 1.349 . S
C2220 C2222 1.327 . S
C2220 H2245 0.950 . S
C2221 C2220 1.349 . S
C2221 C2237 1.349 1_565 S
C2222 C2220 1.327 . S
C2222 C2241 1.429 . S
C2222 H2246 0.950 . S
C2223 C2240 1.574 . S
C2223 C2242 1.368 1_545 S
C2223 H2247 0.949 . S
H2224 C2228 0.949 . S
C2225 C2226 1.349 1_545 S
C2225 C2227 1.327 . S
C2225 H2248 0.950 . S
C2226 C2225 1.349 1_565 S
C2226 C2238 1.349 . S
C2227 C2225 1.327 . S
C2227 C2243 1.429 1_545 S
C2227 H2249 0.950 . S
C2228 H2224 0.949 . S
C2228 C2236 1.574 . S
C2228 C2244 1.368 . S
H2229 C2237 0.950 . S
H2230 C2235 0.950 . S
H2231 C2236 0.949 . S
H2232 C2238 0.950 . S
H2233 C2239 0.950 . S
H2234 C2240 0.949 . S
C2235 H2230 0.950 . S
C2235 C2237 1.327 . S
C2235 C2241 1.429 1_545 S
C2236 C2228 1.574 . S
C2236 H2231 0.949 . S
C2236 C2242 1.368 . S
C2237 C2221 1.349 1_545 S
C2237 H2229 0.950 . S
C2237 C2235 1.327 . S
C2238 C2226 1.349 . S
C2238 H2232 0.950 . S
C2238 C2239 1.327 . S
C2239 H2233 0.950 . S
C2239 C2238 1.327 . S
C2239 C2243 1.429 . S
C2240 C2223 1.574 . S
C2240 H2234 0.949 . S
C2240 C2244 1.368 1_545 S
C2241 C2222 1.429 . S
C2241 C2235 1.429 1_565 S
C2241 C2242 1.523 . S
C2242 C2223 1.368 1_565 S
C2242 C2236 1.368 . S
C2242 C2241 1.523 . S
C2243 C2227 1.429 1_565 S
C2243 C2239 1.429 . S
C2243 C2244 1.523 . S
C2244 C2228 1.368 . S
C2244 C2240 1.368 1_565 S
C2244 C2243 1.523 . S
H2245 C2220 0.950 . S
H2246 C2222 0.950 . S
H2247 C2223 0.949 . S
H2248 C2225 0.950 . S
H2249 C2227 0.950 . S
C2250 C2251 1.349 . S
C2250 C2252 1.327 . S
C2250 H2275 0.950 . S
C2251 C2250 1.349 . S
C2251 C2267 1.349 1_545 S
C2252 C2250 1.327 . S
C2252 C2271 1.429 . S
C2252 H2276 0.950 . S
C2253 C2270 1.574 . S
C2253 C2272 1.368 1_565 S
C2253 H2277 0.949 . S
H2254 C2258 0.949 . S
C2255 C2256 1.349 1_565 S
C2255 C2257 1.327 . S
C2255 H2278 0.950 . S
C2256 C2255 1.349 1_545 S
C2256 C2268 1.349 . S
C2257 C2255 1.327 . S
C2257 C2273 1.429 1_565 S
C2257 H2279 0.950 . S
C2258 H2254 0.949 . S
C2258 C2266 1.574 . S
C2258 C2274 1.368 . S
H2259 C2267 0.950 . S
H2260 C2265 0.950 . S
H2261 C2266 0.949 . S
H2262 C2268 0.950 . S
H2263 C2269 0.950 . S
H2264 C2270 0.949 . S
C2265 H2260 0.950 . S
C2265 C2267 1.327 . S
C2265 C2271 1.429 1_565 S
C2266 C2258 1.574 . S
C2266 H2261 0.949 . S
C2266 C2272 1.368 . S
C2267 C2251 1.349 1_565 S
C2267 H2259 0.950 . S
C2267 C2265 1.327 . S
C2268 C2256 1.349 . S
C2268 H2262 0.950 . S
C2268 C2269 1.327 . S
C2269 H2263 0.950 . S
C2269 C2268 1.327 . S
C2269 C2273 1.429 . S
C2270 C2253 1.574 . S
C2270 H2264 0.949 . S
C2270 C2274 1.368 1_565 S
C2271 C2252 1.429 . S
C2271 C2265 1.429 1_545 S
C2271 C2272 1.523 . S
C2272 C2253 1.368 1_545 S
C2272 C2266 1.368 . S
C2272 C2271 1.523 . S
C2273 C2257 1.429 1_545 S
C2273 C2269 1.429 . S
C2273 C2274 1.523 . S
C2274 C2258 1.368 . S
C2274 C2270 1.368 1_545 S
C2274 C2273 1.523 . S
H2275 C2250 0.950 . S
H2276 C2252 0.950 . S
H2277 C2253 0.949 . S
H2278 C2255 0.950 . S
H2279 C2257 0.950 . S
C2280 C2281 1.349 . S
C2280 C2282 1.327 . S
C2280 H2305 0.950 . S
C2281 C2280 1.349 . S
C2281 C2297 1.349 . S
C2282 C2280 1.327 . S
C2282 C2301 1.429 . S
C2282 H2306 0.950 . S
C2283 C2300 1.574 . S
C2283 C2302 1.368 . S
C2283 H2307 0.949 . S
H2284 C2288 0.949 . S
C2285 C2286 1.349 . S
C2285 C2287 1.327 . S
C2285 H2308 0.950 . S
C2286 C2285 1.349 . S
C2286 C2298 1.349 . S
C2287 C2285 1.327 . S
C2287 C2303 1.429 . S
C2287 H2309 0.950 . S
C2288 H2284 0.949 . S
C2288 C2296 1.574 . S
C2288 C2304 1.368 . S
H2289 C2297 0.950 . S
H2290 C2295 0.950 . S
H2291 C2296 0.949 . S
H2292 C2298 0.950 . S
H2293 C2299 0.950 . S
H2294 C2300 0.949 . S
C2295 H2290 0.950 . S
C2295 C2297 1.327 . S
C2295 C2301 1.429 . S
C2296 C2288 1.574 . S
C2296 H2291 0.949 . S
C2296 C2302 1.368 . S
C2297 C2281 1.349 . S
C2297 H2289 0.950 . S
C2297 C2295 1.327 . S
C2298 C2286 1.349 . S
C2298 H2292 0.950 . S
C2298 C2299 1.327 . S
C2299 H2293 0.950 . S
C2299 C2298 1.327 . S
C2299 C2303 1.429 . S
C2300 C2283 1.574 . S
C2300 H2294 0.949 . S
C2300 C2304 1.368 . S
C2301 C2282 1.429 . S
C2301 C2295 1.429 . S
C2301 C2302 1.523 . S
C2302 C2283 1.368 . S
C2302 C2296 1.368 . S
C2302 C2301 1.523 . S
C2303 C2287 1.429 . S
C2303 C2299 1.429 . S
C2303 C2304 1.523 . S
C2304 C2288 1.368 . S
C2304 C2300 1.368 . S
C2304 C2303 1.523 . S
H2305 C2280 0.950 . S
H2306 C2282 0.950 . S
H2307 C2283 0.949 . S
H2308 C2285 0.950 . S
H2309 C2287 0.950 . S
C2310 C2311 1.349 . S
C2310 C2312 1.327 . S
C2310 H2335 0.950 . S
C2311 C2310 1.349 . S
C2311 C2327 1.349 1_554 S
C2312 C2310 1.327 . S
C2312 C2331 1.429 . S
C2312 H2336 0.950 . S
C2313 C2330 1.574 . S
C2313 C2332 1.368 1_556 S
C2313 H2337 0.949 . S
H2314 C2318 0.949 . S
C2315 C2316 1.349 1_556 S
C2315 C2317 1.327 . S
C2315 H2338 0.950 . S
C2316 C2315 1.349 1_554 S
C2316 C2328 1.349 . S
C2317 C2315 1.327 . S
C2317 C2333 1.429 1_556 S
C2317 H2339 0.950 . S
C2318 H2314 0.949 . S
C2318 C2326 1.574 . S
C2318 C2334 1.368 . S
H2319 C2327 0.950 . S
H2320 C2325 0.950 . S
H2321 C2326 0.949 . S
H2322 C2328 0.950 . S
H2323 C2329 0.950 . S
H2324 C2330 0.949 . S
C2325 H2320 0.950 . S
C2325 C2327 1.327 . S
C2325 C2331 1.429 1_556 S
C2326 C2318 1.574 . S
C2326 H2321 0.949 . S
C2326 C2332 1.368 . S
C2327 C2311 1.349 1_556 S
C2327 H2319 0.950 . S
C2327 C2325 1.327 . S
C2328 C2316 1.349 . S
C2328 H2322 0.950 . S
C2328 C2329 1.327 . S
C2329 H2323 0.950 . S
C2329 C2328 1.327 . S
C2329 C2333 1.429 . S
C2330 C2313 1.574 . S
C2330 H2324 0.949 . S
C2330 C2334 1.368 1_556 S
C2331 C2312 1.429 . S
C2331 C2325 1.429 1_554 S
C2331 C2332 1.523 . S
C2332 C2313 1.368 1_554 S
C2332 C2326 1.368 . S
C2332 C2331 1.523 . S
C2333 C2317 1.429 1_554 S
C2333 C2329 1.429 . S
C2333 C2334 1.523 . S
C2334 C2318 1.368 . S
C2334 C2330 1.368 1_554 S
C2334 C2333 1.523 . S
H2335 C2310 0.950 . S
H2336 C2312 0.950 . S
H2337 C2313 0.949 . S
H2338 C2315 0.950 . S
H2339 C2317 0.950 . S
C2340 C2341 1.349 . S
C2340 C2342 1.327 . S
C2340 H2365 0.950 . S
C2341 C2340 1.349 . S
C2341 C2357 1.349 . S
C2342 C2340 1.327 . S
C2342 C2361 1.429 . S
C2342 H2366 0.950 . S
C2343 C2360 1.574 . S
C2343 C2362 1.368 . S
C2343 H2367 0.949 . S
H2344 C2348 0.949 . S
C2345 C2346 1.349 . S
C2345 C2347 1.327 . S
C2345 H2368 0.950 . S
C2346 C2345 1.349 . S
C2346 C2358 1.349 . S
C2347 C2345 1.327 . S
C2347 C2363 1.429 . S
C2347 H2369 0.950 . S
C2348 H2344 0.949 . S
C2348 C2356 1.574 . S
C2348 C2364 1.368 . S
H2349 C2357 0.950 . S
H2350 C2355 0.950 . S
H2351 C2356 0.949 . S
H2352 C2358 0.950 . S
H2353 C2359 0.950 . S
H2354 C2360 0.949 . S
C2355 H2350 0.950 . S
C2355 C2357 1.327 . S
C2355 C2361 1.429 . S
C2356 C2348 1.574 . S
C2356 H2351 0.949 . S
C2356 C2362 1.368 . S
C2357 C2341 1.349 . S
C2357 H2349 0.950 . S
C2357 C2355 1.327 . S
C2358 C2346 1.349 . S
C2358 H2352 0.950 . S
C2358 C2359 1.327 . S
C2359 H2353 0.950 . S
C2359 C2358 1.327 . S
C2359 C2363 1.429 . S
C2360 C2343 1.574 . S
C2360 H2354 0.949 . S
C2360 C2364 1.368 . S
C2361 C2342 1.429 . S
C2361 C2355 1.429 . S
C2361 C2362 1.523 . S
C2362 C2343 1.368 . S
C2362 C2356 1.368 . S
C2362 C2361 1.523 . S
C2363 C2347 1.429 . S
C2363 C2359 1.429 . S
C2363 C2364 1.523 . S
C2364 C2348 1.368 . S
C2364 C2360 1.368 . S
C2364 C2363 1.523 . S
H2365 C2340 0.950 . S
H2366 C2342 0.950 . S
H2367 C2343 0.949 . S
H2368 C2345 0.950 . S
H2369 C2347 0.950 . S
C2370 C2371 1.349 . S
C2370 C2372 1.327 . S
C2370 H2395 0.950 . S
C2371 C2370 1.349 . S
C2371 C2387 1.349 1_556 S
C2372 C2370 1.327 . S
C2372 C2391 1.429 . S
C2372 H2396 0.950 . S
C2373 C2390 1.574 . S
C2373 C2392 1.368 1_554 S
C2373 H2397 0.949 . S
H2374 C2378 0.949 . S
C2375 C2376 1.349 1_554 S
C2375 C2377 1.327 . S
C2375 H2398 0.950 . S
C2376 C2375 1.349 1_556 S
C2376 C2388 1.349 . S
C2377 C2375 1.327 . S
C2377 C2393 1.429 1_554 S
C2377 H2399 0.950 . S
C2378 H2374 0.949 . S
C2378 C2386 1.574 . S
C2378 C2394 1.368 . S
H2379 C2387 0.950 . S
H2380 C2385 0.950 . S
H2381 C2386 0.949 . S
H2382 C2388 0.950 . S
H2383 C2389 0.950 . S
H2384 C2390 0.949 . S
C2385 H2380 0.950 . S
C2385 C2387 1.327 . S
C2385 C2391 1.429 1_554 S
C2386 C2378 1.574 . S
C2386 H2381 0.949 . S
C2386 C2392 1.368 . S
C2387 C2371 1.349 1_554 S
C2387 H2379 0.950 . S
C2387 C2385 1.327 . S
C2388 C2376 1.349 . S
C2388 H2382 0.950 . S
C2388 C2389 1.327 . S
C2389 H2383 0.950 . S
C2389 C2388 1.327 . S
C2389 C2393 1.429 . S
C2390 C2373 1.574 . S
C2390 H2384 0.949 . S
C2390 C2394 1.368 1_554 S
C2391 C2372 1.429 . S
C2391 C2385 1.429 1_556 S
C2391 C2392 1.523 . S
C2392 C2373 1.368 1_556 S
C2392 C2386 1.368 . S
C2392 C2391 1.523 . S
C2393 C2377 1.429 1_556 S
C2393 C2389 1.429 . S
C2393 C2394 1.523 . S
C2394 C2378 1.368 . S
C2394 C2390 1.368 1_556 S
C2394 C2393 1.523 . S
H2395 C2370 0.950 . S
H2396 C2372 0.950 . S
H2397 C2373 0.949 . S
H2398 C2375 0.950 . S
H2399 C2377 0.950 . S
C2400 C2401 1.349 . S
C2400 C2402 1.327 . S
C2400 H2425 0.950 . S
C2401 C2400 1.349 . S
C2401 C2417 1.349 . S
C2402 C2400 1.327 . S
C2402 C2421 1.429 . S
C2402 H2426 0.950 . S
C2403 C2420 1.574 . S
C2403 C2422 1.368 . S
C2403 H2427 0.949 . S
H2404 C2408 0.949 . S
C2405 C2406 1.349 . S
C2405 C2407 1.327 . S
C2405 H2428 0.950 . S
C2406 C2405 1.349 . S
C2406 C2418 1.349 . S
C2407 C2405 1.327 . S
C2407 C2423 1.429 . S
C2407 H2429 0.950 . S
C2408 H2404 0.949 . S
C2408 C2416 1.574 . S
C2408 C2424 1.368 . S
H2409 C2417 0.950 . S
H2410 C2415 0.950 . S
H2411 C2416 0.949 . S
H2412 C2418 0.950 . S
H2413 C2419 0.950 . S
H2414 C2420 0.949 . S
C2415 H2410 0.950 . S
C2415 C2417 1.327 . S
C2415 C2421 1.429 . S
C2416 C2408 1.574 . S
C2416 H2411 0.949 . S
C2416 C2422 1.368 . S
C2417 C2401 1.349 . S
C2417 H2409 0.950 . S
C2417 C2415 1.327 . S
C2418 C2406 1.349 . S
C2418 H2412 0.950 . S
C2418 C2419 1.327 . S
C2419 H2413 0.950 . S
C2419 C2418 1.327 . S
C2419 C2423 1.429 . S
C2420 C2403 1.574 . S
C2420 H2414 0.949 . S
C2420 C2424 1.368 . S
C2421 C2402 1.429 . S
C2421 C2415 1.429 . S
C2421 C2422 1.523 . S
C2422 C2403 1.368 . S
C2422 C2416 1.368 . S
C2422 C2421 1.523 . S
C2423 C2407 1.429 . S
C2423 C2419 1.429 . S
C2423 C2424 1.523 . S
C2424 C2408 1.368 . S
C2424 C2420 1.368 . S
C2424 C2423 1.523 . S
H2425 C2400 0.950 . S
H2426 C2402 0.950 . S
H2427 C2403 0.949 . S
H2428 C2405 0.950 . S
H2429 C2407 0.950 . S
C2430 C2431 1.349 1_655 S
C2430 C2432 1.327 . S
C2430 H2455 0.950 . S
C2431 C2430 1.349 1_455 S
C2431 C2447 1.349 . S
C2432 C2430 1.327 . S
C2432 C2451 1.429 1_655 S
C2432 H2456 0.950 . S
C2433 C2450 1.574 . S
C2433 C2452 1.368 . S
C2433 H2457 0.949 . S
H2434 C2438 0.949 . S
C2435 C2436 1.349 . S
C2435 C2437 1.327 . S
C2435 H2458 0.950 . S
C2436 C2435 1.349 . S
C2436 C2448 1.349 1_455 S
C2437 C2435 1.327 . S
C2437 C2453 1.429 . S
C2437 H2459 0.950 . S
C2438 H2434 0.949 . S
C2438 C2446 1.574 . S
C2438 C2454 1.368 1_655 S
H2439 C2447 0.950 . S
H2440 C2445 0.950 . S
H2441 C2446 0.949 . S
H2442 C2448 0.950 . S
H2443 C2449 0.950 . S
H2444 C2450 0.949 . S
C2445 H2440 0.950 . S
C2445 C2447 1.327 . S
C2445 C2451 1.429 . S
C2446 C2438 1.574 . S
C2446 H2441 0.949 . S
C2446 C2452 1.368 1_655 S
C2447 C2431 1.349 . S
C2447 H2439 0.950 . S
C2447 C2445 1.327 . S
C2448 C2436 1.349 1_655 S
C2448 H2442 0.950 . S
C2448 C2449 1.327 . S
C2449 H2443 0.950 . S
C2449 C2448 1.327 . S
C2449 C2453 1.429 1_655 S
C2450 C2433 1.574 . S
C2450 H2444 0.949 . S
C2450 C2454 1.368 . S
C2451 C2432 1.429 1_455 S
C2451 C2445 1.429 . S
C2451 C2452 1.523 . S
C2452 C2433 1.368 . S
C2452 C2446 1.368 1_455 S
C2452 C2451 1.523 . S
C2453 C2437 1.429 . S
C2453 C2449 1.429 1_455 S
C2453 C2454 1.523 . S
C2454 C2438 1.368 1_455 S
C2454 C2450 1.368 . S
C2454 C2453 1.523 . S
H2455 C2430 0.950 . S
H2456 C2432 0.950 . S
H2457 C2433 0.949 . S
H2458 C2435 0.950 . S
H2459 C2437 0.950 . S
C2460 C2461 1.349 . S
C2460 C2462 1.327 . S
C2460 H2485 0.950 . S
C2461 C2460 1.349 . S
C2461 C2477 1.349 . S
C2462 C2460 1.327 . S
C2462 C2481 1.429 . S
C2462 H2486 0.950 . S
C2463 C2480 1.574 . S
C2463 C2482 1.368 . S
C2463 H2487 0.949 . S
H2464 C2468 0.949 . S
C2465 C2466 1.349 . S
C2465 C2467 1.327 . S
C2465 H2488 0.950 . S
C2466 C2465 1.349 . S
C2466 C2478 1.349 . S
C2467 C2465 1.327 . S
C2467 C2483 1.429 . S
C2467 H2489 0.950 . S
C2468 H2464 0.949 . S
C2468 C2476 1.574 . S
C2468 C2484 1.368 . S
H2469 C2477 0.950 . S
H2470 C2475 0.950 . S
H2471 C2476 0.949 . S
H2472 C2478 0.950 . S
H2473 C2479 0.950 . S
H2474 C2480 0.949 . S
C2475 H2470 0.950 . S
C2475 C2477 1.327 . S
C2475 C2481 1.429 . S
C2476 C2468 1.574 . S
C2476 H2471 0.949 . S
C2476 C2482 1.368 . S
C2477 C2461 1.349 . S
C2477 H2469 0.950 . S
C2477 C2475 1.327 . S
C2478 C2466 1.349 . S
C2478 H2472 0.950 . S
C2478 C2479 1.327 . S
C2479 H2473 0.950 . S
C2479 C2478 1.327 . S
C2479 C2483 1.429 . S
C2480 C2463 1.574 . S
C2480 H2474 0.949 . S
C2480 C2484 1.368 . S
C2481 C2462 1.429 . S
C2481 C2475 1.429 . S
C2481 C2482 1.523 . S
C2482 C2463 1.368 . S
C2482 C2476 1.368 . S
C2482 C2481 1.523 . S
C2483 C2467 1.429 . S
C2483 C2479 1.429 . S
C2483 C2484 1.523 . S
C2484 C2468 1.368 . S
C2484 C2480 1.368 . S
C2484 C2483 1.523 . S
H2485 C2460 0.950 . S
H2486 C2462 0.950 . S
H2487 C2463 0.949 . S
H2488 C2465 0.950 . S
H2489 C2467 0.950 . S
C2490 C2491 1.349 . S
C2490 C2492 1.327 . S
C2490 H2515 0.950 . S
C2491 C2490 1.349 . S
C2491 C2507 1.349 1_655 S
C2492 C2490 1.327 . S
C2492 C2511 1.429 . S
C2492 H2516 0.950 . S
C2493 C2510 1.574 . S
C2493 C2512 1.368 1_455 S
C2493 H2517 0.949 . S
H2494 C2498 0.949 . S
C2495 C2496 1.349 1_455 S
C2495 C2497 1.327 . S
C2495 H2518 0.950 . S
C2496 C2495 1.349 1_655 S
C2496 C2508 1.349 . S
C2497 C2495 1.327 . S
C2497 C2513 1.429 1_455 S
C2497 H2519 0.950 . S
C2498 H2494 0.949 . S
C2498 C2506 1.574 . S
C2498 C2514 1.368 . S
H2499 C2507 0.950 . S
H2500 C2505 0.950 . S
H2501 C2506 0.949 . S
H2502 C2508 0.950 . S
H2503 C2509 0.950 . S
H2504 C2510 0.949 . S
C2505 H2500 0.950 . S
C2505 C2507 1.327 . S
C2505 C2511 1.429 1_455 S
C2506 C2498 1.574 . S
C2506 H2501 0.949 . S
C2506 C2512 1.368 . S
C2507 C2491 1.349 1_455 S
C2507 H2499 0.950 . S
C2507 C2505 1.327 . S
C2508 C2496 1.349 . S
C2508 H2502 0.950 . S
C2508 C2509 1.327 . S
C2509 H2503 0.950 . S
C2509 C2508 1.327 . S
C2509 C2513 1.429 . S
C2510 C2493 1.574 . S
C2510 H2504 0.949 . S
C2510 C2514 1.368 1_455 S
C2511 C2492 1.429 . S
C2511 C2505 1.429 1_655 S
C2511 C2512 1.523 . S
C2512 C2493 1.368 1_655 S
C2512 C2506 1.368 . S
C2512 C2511 1.523 . S
C2513 C2497 1.429 1_655 S
C2513 C2509 1.429 . S
C2513 C2514 1.523 . S
C2514 C2498 1.368 . S
C2514 C2510 1.368 1_655 S
C2514 C2513 1.523 . S
H2515 C2490 0.950 . S
H2516 C2492 0.950 . S
H2517 C2493 0.949 . S
H2518 C2495 0.950 . S
H2519 C2497 0.950 . S
C2520 C2521 1.349 . S
C2520 C2522 1.327 . S
C2520 H2545 0.950 . S
C2521 C2520 1.349 . S
C2521 C2537 1.349 . S
C2522 C2520 1.327 . S
C2522 C2541 1.429 . S
C2522 H2546 0.950 . S
C2523 C2540 1.574 . S
C2523 C2542 1.368 . S
C2523 H2547 0.949 . S
H2524 C2528 0.949 . S
C2525 C2526 1.349 . S
C2525 C2527 1.327 . S
C2525 H2548 0.950 . S
C2526 C2525 1.349 . S
C2526 C2538 1.349 . S
C2527 C2525 1.327 . S
C2527 C2543 1.429 . S
C2527 H2549 0.950 . S
C2528 H2524 0.949 . S
C2528 C2536 1.574 . S
C2528 C2544 1.368 . S
H2529 C2537 0.950 . S
H2530 C2535 0.950 . S
H2531 C2536 0.949 . S
H2532 C2538 0.950 . S
H2533 C2539 0.950 . S
H2534 C2540 0.949 . S
C2535 H2530 0.950 . S
C2535 C2537 1.327 . S
C2535 C2541 1.429 . S
C2536 C2528 1.574 . S
C2536 H2531 0.949 . S
C2536 C2542 1.368 . S
C2537 C2521 1.349 . S
C2537 H2529 0.950 . S
C2537 C2535 1.327 . S
C2538 C2526 1.349 . S
C2538 H2532 0.950 . S
C2538 C2539 1.327 . S
C2539 H2533 0.950 . S
C2539 C2538 1.327 . S
C2539 C2543 1.429 . S
C2540 C2523 1.574 . S
C2540 H2534 0.949 . S
C2540 C2544 1.368 . S
C2541 C2522 1.429 . S
C2541 C2535 1.429 . S
C2541 C2542 1.523 . S
C2542 C2523 1.368 . S
C2542 C2536 1.368 . S
C2542 C2541 1.523 . S
C2543 C2527 1.429 . S
C2543 C2539 1.429 . S
C2543 C2544 1.523 . S
C2544 C2528 1.368 . S
C2544 C2540 1.368 . S
C2544 C2543 1.523 . S
H2545 C2520 0.950 . S
H2546 C2522 0.950 . S
H2547 C2523 0.949 . S
H2548 C2525 0.950 . S
H2549 C2527 0.950 . S
C2550 C2551 1.349 . S
C2550 C2552 1.327 . S
C2550 H2575 0.950 . S
C2551 C2550 1.349 . S
C2551 C2567 1.349 . S
C2552 C2550 1.327 . S
C2552 C2571 1.429 . S
C2552 H2576 0.950 . S
C2553 C2570 1.574 . S
C2553 C2572 1.368 . S
C2553 H2577 0.949 . S
H2554 C2558 0.949 . S
C2555 C2556 1.349 . S
C2555 C2557 1.327 . S
C2555 H2578 0.950 . S
C2556 C2555 1.349 . S
C2556 C2568 1.349 . S
C2557 C2555 1.327 . S
C2557 C2573 1.429 . S
C2557 H2579 0.950 . S
C2558 H2554 0.949 . S
C2558 C2566 1.574 . S
C2558 C2574 1.368 . S
H2559 C2567 0.950 . S
H2560 C2565 0.950 . S
H2561 C2566 0.949 . S
H2562 C2568 0.950 . S
H2563 C2569 0.950 . S
H2564 C2570 0.949 . S
C2565 H2560 0.950 . S
C2565 C2567 1.327 . S
C2565 C2571 1.429 . S
C2566 C2558 1.574 . S
C2566 H2561 0.949 . S
C2566 C2572 1.368 . S
C2567 C2551 1.349 . S
C2567 H2559 0.950 . S
C2567 C2565 1.327 . S
C2568 C2556 1.349 . S
C2568 H2562 0.950 . S
C2568 C2569 1.327 . S
C2569 H2563 0.950 . S
C2569 C2568 1.327 . S
C2569 C2573 1.429 . S
C2570 C2553 1.574 . S
C2570 H2564 0.949 . S
C2570 C2574 1.368 . S
C2571 C2552 1.429 . S
C2571 C2565 1.429 . S
C2571 C2572 1.523 . S
C2572 C2553 1.368 . S
C2572 C2566 1.368 . S
C2572 C2571 1.523 . S
C2573 C2557 1.429 . S
C2573 C2569 1.429 . S
C2573 C2574 1.523 . S
C2574 C2558 1.368 . S
C2574 C2570 1.368 . S
C2574 C2573 1.523 . S
H2575 C2550 0.950 . S
H2576 C2552 0.950 . S
H2577 C2553 0.949 . S
H2578 C2555 0.950 . S
H2579 C2557 0.950 . S
C2580 C2581 1.349 . S
C2580 C2582 1.327 . S
C2580 H2605 0.950 . S
C2581 C2580 1.349 . S
C2581 C2597 1.349 1_545 S
C2582 C2580 1.327 . S
C2582 C2601 1.429 . S
C2582 H2606 0.950 . S
C2583 C2600 1.574 . S
C2583 C2602 1.368 1_565 S
C2583 H2607 0.949 . S
H2584 C2588 0.949 . S
C2585 C2586 1.349 1_565 S
C2585 C2587 1.327 . S
C2585 H2608 0.950 . S
C2586 C2585 1.349 1_545 S
C2586 C2598 1.349 . S
C2587 C2585 1.327 . S
C2587 C2603 1.429 1_565 S
C2587 H2609 0.950 . S
C2588 H2584 0.949 . S
C2588 C2596 1.574 . S
C2588 C2604 1.368 . S
H2589 C2597 0.950 . S
H2590 C2595 0.950 . S
H2591 C2596 0.949 . S
H2592 C2598 0.950 . S
H2593 C2599 0.950 . S
H2594 C2600 0.949 . S
C2595 H2590 0.950 . S
C2595 C2597 1.327 . S
C2595 C2601 1.429 1_565 S
C2596 C2588 1.574 . S
C2596 H2591 0.949 . S
C2596 C2602 1.368 . S
C2597 C2581 1.349 1_565 S
C2597 H2589 0.950 . S
C2597 C2595 1.327 . S
C2598 C2586 1.349 . S
C2598 H2592 0.950 . S
C2598 C2599 1.327 . S
C2599 H2593 0.950 . S
C2599 C2598 1.327 . S
C2599 C2603 1.429 . S
C2600 C2583 1.574 . S
C2600 H2594 0.949 . S
C2600 C2604 1.368 1_565 S
C2601 C2582 1.429 . S
C2601 C2595 1.429 1_545 S
C2601 C2602 1.523 . S
C2602 C2583 1.368 1_545 S
C2602 C2596 1.368 . S
C2602 C2601 1.523 . S
C2603 C2587 1.429 1_545 S
C2603 C2599 1.429 . S
C2603 C2604 1.523 . S
C2604 C2588 1.368 . S
C2604 C2600 1.368 1_545 S
C2604 C2603 1.523 . S
H2605 C2580 0.950 . S
H2606 C2582 0.950 . S
H2607 C2583 0.949 . S
H2608 C2585 0.950 . S
H2609 C2587 0.950 . S
C2610 C2611 1.349 1_545 S
C2610 C2612 1.327 . S
C2610 H2635 0.950 . S
C2611 C2610 1.349 1_565 S
C2611 C2627 1.349 . S
C2612 C2610 1.327 . S
C2612 C2631 1.429 1_545 S
C2612 H2636 0.950 . S
C2613 C2630 1.574 . S
C2613 C2632 1.368 . S
C2613 H2637 0.949 . S
H2614 C2618 0.949 . S
C2615 C2616 1.349 . S
C2615 C2617 1.327 . S
C2615 H2638 0.950 . S
C2616 C2615 1.349 . S
C2616 C2628 1.349 1_565 S
C2617 C2615 1.327 . S
C2617 C2633 1.429 . S
C2617 H2639 0.950 . S
C2618 H2614 0.949 . S
C2618 C2626 1.574 . S
C2618 C2634 1.368 1_545 S
H2619 C2627 0.950 . S
H2620 C2625 0.950 . S
H2621 C2626 0.949 . S
H2622 C2628 0.950 . S
H2623 C2629 0.950 . S
H2624 C2630 0.949 . S
C2625 H2620 0.950 . S
C2625 C2627 1.327 . S
C2625 C2631 1.429 . S
C2626 C2618 1.574 . S
C2626 H2621 0.949 . S
C2626 C2632 1.368 1_545 S
C2627 C2611 1.349 . S
C2627 H2619 0.950 . S
C2627 C2625 1.327 . S
C2628 C2616 1.349 1_545 S
C2628 H2622 0.950 . S
C2628 C2629 1.327 . S
C2629 H2623 0.950 . S
C2629 C2628 1.327 . S
C2629 C2633 1.429 1_545 S
C2630 C2613 1.574 . S
C2630 H2624 0.949 . S
C2630 C2634 1.368 . S
C2631 C2612 1.429 1_565 S
C2631 C2625 1.429 . S
C2631 C2632 1.523 . S
C2632 C2613 1.368 . S
C2632 C2626 1.368 1_565 S
C2632 C2631 1.523 . S
C2633 C2617 1.429 . S
C2633 C2629 1.429 1_565 S
C2633 C2634 1.523 . S
C2634 C2618 1.368 1_565 S
C2634 C2630 1.368 . S
C2634 C2633 1.523 . S
H2635 C2610 0.950 . S
H2636 C2612 0.950 . S
H2637 C2613 0.949 . S
H2638 C2615 0.950 . S
H2639 C2617 0.950 . S
C2640 C2641 1.349 . S
C2640 C2642 1.327 . S
C2640 H2665 0.950 . S
C2641 C2640 1.349 . S
C2641 C2657 1.349 . S
C2642 C2640 1.327 . S
C2642 C2661 1.429 . S
C2642 H2666 0.950 . S
C2643 C2660 1.574 . S
C2643 C2662 1.368 . S
C2643 H2667 0.949 . S
H2644 C2648 0.949 . S
C2645 C2646 1.349 . S
C2645 C2647 1.327 . S
C2645 H2668 0.950 . S
C2646 C2645 1.349 . S
C2646 C2658 1.349 . S
C2647 C2645 1.327 . S
C2647 C2663 1.429 . S
C2647 H2669 0.950 . S
C2648 H2644 0.949 . S
C2648 C2656 1.574 . S
C2648 C2664 1.368 . S
H2649 C2657 0.950 . S
H2650 C2655 0.950 . S
H2651 C2656 0.949 . S
H2652 C2658 0.950 . S
H2653 C2659 0.950 . S
H2654 C2660 0.949 . S
C2655 H2650 0.950 . S
C2655 C2657 1.327 . S
C2655 C2661 1.429 . S
C2656 C2648 1.574 . S
C2656 H2651 0.949 . S
C2656 C2662 1.368 . S
C2657 C2641 1.349 . S
C2657 H2649 0.950 . S
C2657 C2655 1.327 . S
C2658 C2646 1.349 . S
C2658 H2652 0.950 . S
C2658 C2659 1.327 . S
C2659 H2653 0.950 . S
C2659 C2658 1.327 . S
C2659 C2663 1.429 . S
C2660 C2643 1.574 . S
C2660 H2654 0.949 . S
C2660 C2664 1.368 . S
C2661 C2642 1.429 . S
C2661 C2655 1.429 . S
C2661 C2662 1.523 . S
C2662 C2643 1.368 . S
C2662 C2656 1.368 . S
C2662 C2661 1.523 . S
C2663 C2647 1.429 . S
C2663 C2659 1.429 . S
C2663 C2664 1.523 . S
C2664 C2648 1.368 . S
C2664 C2660 1.368 . S
C2664 C2663 1.523 . S
H2665 C2640 0.950 . S
H2666 C2642 0.950 . S
H2667 C2643 0.949 . S
H2668 C2645 0.950 . S
H2669 C2647 0.950 . S
C2670 C2671 1.349 1_554 S
C2670 C2672 1.327 . S
C2670 H2695 0.950 . S
C2671 C2670 1.349 1_556 S
C2671 C2687 1.349 . S
C2672 C2670 1.327 . S
C2672 C2691 1.429 1_554 S
C2672 H2696 0.950 . S
C2673 C2690 1.574 . S
C2673 C2692 1.368 . S
C2673 H2697 0.949 . S
H2674 C2678 0.949 . S
C2675 C2676 1.349 . S
C2675 C2677 1.327 . S
C2675 H2698 0.950 . S
C2676 C2675 1.349 . S
C2676 C2688 1.349 1_556 S
C2677 C2675 1.327 . S
C2677 C2693 1.429 . S
C2677 H2699 0.950 . S
C2678 H2674 0.949 . S
C2678 C2686 1.574 . S
C2678 C2694 1.368 1_554 S
H2679 C2687 0.950 . S
H2680 C2685 0.950 . S
H2681 C2686 0.949 . S
H2682 C2688 0.950 . S
H2683 C2689 0.950 . S
H2684 C2690 0.949 . S
C2685 H2680 0.950 . S
C2685 C2687 1.327 . S
C2685 C2691 1.429 . S
C2686 C2678 1.574 . S
C2686 H2681 0.949 . S
C2686 C2692 1.368 1_554 S
C2687 C2671 1.349 . S
C2687 H2679 0.950 . S
C2687 C2685 1.327 . S
C2688 C2676 1.349 1_554 S
C2688 H2682 0.950 . S
C2688 C2689 1.327 . S
C2689 H2683 0.950 . S
C2689 C2688 1.327 . S
C2689 C2693 1.429 1_554 S
C2690 C2673 1.574 . S
C2690 H2684 0.949 . S
C2690 C2694 1.368 . S
C2691 C2672 1.429 1_556 S
C2691 C2685 1.429 . S
C2691 C2692 1.523 . S
C2692 C2673 1.368 . S
C2692 C2686 1.368 1_556 S
C2692 C2691 1.523 . S
C2693 C2677 1.429 . S
C2693 C2689 1.429 1_556 S
C2693 C2694 1.523 . S
C2694 C2678 1.368 1_556 S
C2694 C2690 1.368 . S
C2694 C2693 1.523 . S
H2695 C2670 0.950 . S
H2696 C2672 0.950 . S
H2697 C2673 0.949 . S
H2698 C2675 0.950 . S
H2699 C2677 0.950 . S
C2700 C2701 1.349 . S
C2700 C2702 1.327 . S
C2700 H2725 0.950 . S
C2701 C2700 1.349 . S
C2701 C2717 1.349 . S
C2702 C2700 1.327 . S
C2702 C2721 1.429 . S
C2702 H2726 0.950 . S
C2703 C2720 1.574 . S
C2703 C2722 1.368 . S
C2703 H2727 0.949 . S
H2704 C2708 0.949 . S
C2705 C2706 1.349 . S
C2705 C2707 1.327 . S
C2705 H2728 0.950 . S
C2706 C2705 1.349 . S
C2706 C2718 1.349 . S
C2707 C2705 1.327 . S
C2707 C2723 1.429 . S
C2707 H2729 0.950 . S
C2708 H2704 0.949 . S
C2708 C2716 1.574 . S
C2708 C2724 1.368 . S
H2709 C2717 0.950 . S
H2710 C2715 0.950 . S
H2711 C2716 0.949 . S
H2712 C2718 0.950 . S
H2713 C2719 0.950 . S
H2714 C2720 0.949 . S
C2715 H2710 0.950 . S
C2715 C2717 1.327 . S
C2715 C2721 1.429 . S
C2716 C2708 1.574 . S
C2716 H2711 0.949 . S
C2716 C2722 1.368 . S
C2717 C2701 1.349 . S
C2717 H2709 0.950 . S
C2717 C2715 1.327 . S
C2718 C2706 1.349 . S
C2718 H2712 0.950 . S
C2718 C2719 1.327 . S
C2719 H2713 0.950 . S
C2719 C2718 1.327 . S
C2719 C2723 1.429 . S
C2720 C2703 1.574 . S
C2720 H2714 0.949 . S
C2720 C2724 1.368 . S
C2721 C2702 1.429 . S
C2721 C2715 1.429 . S
C2721 C2722 1.523 . S
C2722 C2703 1.368 . S
C2722 C2716 1.368 . S
C2722 C2721 1.523 . S
C2723 C2707 1.429 . S
C2723 C2719 1.429 . S
C2723 C2724 1.523 . S
C2724 C2708 1.368 . S
C2724 C2720 1.368 . S
C2724 C2723 1.523 . S
H2725 C2700 0.950 . S
H2726 C2702 0.950 . S
H2727 C2703 0.949 . S
H2728 C2705 0.950 . S
H2729 C2707 0.950 . S
C2730 C2731 1.349 . S
C2730 C2732 1.327 . S
C2730 H2755 0.950 . S
C2731 C2730 1.349 . S
C2731 C2747 1.349 1_554 S
C2732 C2730 1.327 . S
C2732 C2751 1.429 . S
C2732 H2756 0.950 . S
C2733 C2750 1.574 . S
C2733 C2752 1.368 1_556 S
C2733 H2757 0.949 . S
H2734 C2738 0.949 . S
C2735 C2736 1.349 1_556 S
C2735 C2737 1.327 . S
C2735 H2758 0.950 . S
C2736 C2735 1.349 1_554 S
C2736 C2748 1.349 . S
C2737 C2735 1.327 . S
C2737 C2753 1.429 1_556 S
C2737 H2759 0.950 . S
C2738 H2734 0.949 . S
C2738 C2746 1.574 . S
C2738 C2754 1.368 . S
H2739 C2747 0.950 . S
H2740 C2745 0.950 . S
H2741 C2746 0.949 . S
H2742 C2748 0.950 . S
H2743 C2749 0.950 . S
H2744 C2750 0.949 . S
C2745 H2740 0.950 . S
C2745 C2747 1.327 . S
C2745 C2751 1.429 1_556 S
C2746 C2738 1.574 . S
C2746 H2741 0.949 . S
C2746 C2752 1.368 . S
C2747 C2731 1.349 1_556 S
C2747 H2739 0.950 . S
C2747 C2745 1.327 . S
C2748 C2736 1.349 . S
C2748 H2742 0.950 . S
C2748 C2749 1.327 . S
C2749 H2743 0.950 . S
C2749 C2748 1.327 . S
C2749 C2753 1.429 . S
C2750 C2733 1.574 . S
C2750 H2744 0.949 . S
C2750 C2754 1.368 1_556 S
C2751 C2732 1.429 . S
C2751 C2745 1.429 1_554 S
C2751 C2752 1.523 . S
C2752 C2733 1.368 1_554 S
C2752 C2746 1.368 . S
C2752 C2751 1.523 . S
C2753 C2737 1.429 1_554 S
C2753 C2749 1.429 . S
C2753 C2754 1.523 . S
C2754 C2738 1.368 . S
C2754 C2750 1.368 1_554 S
C2754 C2753 1.523 . S
H2755 C2730 0.950 . S
H2756 C2732 0.950 . S
H2757 C2733 0.949 . S
H2758 C2735 0.950 . S
H2759 C2737 0.950 . S
C2760 C2761 1.349 . S
C2760 C2762 1.327 . S
C2760 H2785 0.950 . S
C2761 C2760 1.349 . S
C2761 C2777 1.349 . S
C2762 C2760 1.327 . S
C2762 C2781 1.429 . S
C2762 H2786 0.950 . S
C2763 C2780 1.574 . S
C2763 C2782 1.368 . S
C2763 H2787 0.949 . S
H2764 C2768 0.949 . S
C2765 C2766 1.349 . S
C2765 C2767 1.327 . S
C2765 H2788 0.950 . S
C2766 C2765 1.349 . S
C2766 C2778 1.349 . S
C2767 C2765 1.327 . S
C2767 C2783 1.429 . S
C2767 H2789 0.950 . S
C2768 H2764 0.949 . S
C2768 C2776 1.574 . S
C2768 C2784 1.368 . S
H2769 C2777 0.950 . S
H2770 C2775 0.950 . S
H2771 C2776 0.949 . S
H2772 C2778 0.950 . S
H2773 C2779 0.950 . S
H2774 C2780 0.949 . S
C2775 H2770 0.950 . S
C2775 C2777 1.327 . S
C2775 C2781 1.429 . S
C2776 C2768 1.574 . S
C2776 H2771 0.949 . S
C2776 C2782 1.368 . S
C2777 C2761 1.349 . S
C2777 H2769 0.950 . S
C2777 C2775 1.327 . S
C2778 C2766 1.349 . S
C2778 H2772 0.950 . S
C2778 C2779 1.327 . S
C2779 H2773 0.950 . S
C2779 C2778 1.327 . S
C2779 C2783 1.429 . S
C2780 C2763 1.574 . S
C2780 H2774 0.949 . S
C2780 C2784 1.368 . S
C2781 C2762 1.429 . S
C2781 C2775 1.429 . S
C2781 C2782 1.523 . S
C2782 C2763 1.368 . S
C2782 C2776 1.368 . S
C2782 C2781 1.523 . S
C2783 C2767 1.429 . S
C2783 C2779 1.429 . S
C2783 C2784 1.523 . S
C2784 C2768 1.368 . S
C2784 C2780 1.368 . S
C2784 C2783 1.523 . S
H2785 C2760 0.950 . S
H2786 C2762 0.950 . S
H2787 C2763 0.949 . S
H2788 C2765 0.950 . S
H2789 C2767 0.950 . S
C2790 C2791 1.349 1_455 S
C2790 C2792 1.327 . S
C2790 H2815 0.950 . S
C2791 C2790 1.349 1_655 S
C2791 C2807 1.349 . S
C2792 C2790 1.327 . S
C2792 C2811 1.429 1_455 S
C2792 H2816 0.950 . S
C2793 C2810 1.574 . S
C2793 C2812 1.368 . S
C2793 H2817 0.949 . S
H2794 C2798 0.949 . S
C2795 C2796 1.349 . S
C2795 C2797 1.327 . S
C2795 H2818 0.950 . S
C2796 C2795 1.349 . S
C2796 C2808 1.349 1_655 S
C2797 C2795 1.327 . S
C2797 C2813 1.429 . S
C2797 H2819 0.950 . S
C2798 H2794 0.949 . S
C2798 C2806 1.574 . S
C2798 C2814 1.368 1_455 S
H2799 C2807 0.950 . S
H2800 C2805 0.950 . S
H2801 C2806 0.949 . S
H2802 C2808 0.950 . S
H2803 C2809 0.950 . S
H2804 C2810 0.949 . S
C2805 H2800 0.950 . S
C2805 C2807 1.327 . S
C2805 C2811 1.429 . S
C2806 C2798 1.574 . S
C2806 H2801 0.949 . S
C2806 C2812 1.368 1_455 S
C2807 C2791 1.349 . S
C2807 H2799 0.950 . S
C2807 C2805 1.327 . S
C2808 C2796 1.349 1_455 S
C2808 H2802 0.950 . S
C2808 C2809 1.327 . S
C2809 H2803 0.950 . S
C2809 C2808 1.327 . S
C2809 C2813 1.429 1_455 S
C2810 C2793 1.574 . S
C2810 H2804 0.949 . S
C2810 C2814 1.368 . S
C2811 C2792 1.429 1_655 S
C2811 C2805 1.429 . S
C2811 C2812 1.523 . S
C2812 C2793 1.368 . S
C2812 C2806 1.368 1_655 S
C2812 C2811 1.523 . S
C2813 C2797 1.429 . S
C2813 C2809 1.429 1_655 S
C2813 C2814 1.523 . S
C2814 C2798 1.368 1_655 S
C2814 C2810 1.368 . S
C2814 C2813 1.523 . S
H2815 C2790 0.950 . S
H2816 C2792 0.950 . S
H2817 C2793 0.949 . S
H2818 C2795 0.950 . S
H2819 C2797 0.950 . S
C2820 C2821 1.349 . S
C2820 C2822 1.327 . S
C2820 H2845 0.950 . S
C2821 C2820 1.349 . S
C2821 C2837 1.349 . S
C2822 C2820 1.327 . S
C2822 C2841 1.429 . S
C2822 H2846 0.950 . S
C2823 C2840 1.574 . S
C2823 C2842 1.368 . S
C2823 H2847 0.949 . S
H2824 C2828 0.949 . S
C2825 C2826 1.349 . S
C2825 C2827 1.327 . S
C2825 H2848 0.950 . S
C2826 C2825 1.349 . S
C2826 C2838 1.349 . S
C2827 C2825 1.327 . S
C2827 C2843 1.429 . S
C2827 H2849 0.950 . S
C2828 H2824 0.949 . S
C2828 C2836 1.574 . S
C2828 C2844 1.368 . S
H2829 C2837 0.950 . S
H2830 C2835 0.950 . S
H2831 C2836 0.949 . S
H2832 C2838 0.950 . S
H2833 C2839 0.950 . S
H2834 C2840 0.949 . S
C2835 H2830 0.950 . S
C2835 C2837 1.327 . S
C2835 C2841 1.429 . S
C2836 C2828 1.574 . S
C2836 H2831 0.949 . S
C2836 C2842 1.368 . S
C2837 C2821 1.349 . S
C2837 H2829 0.950 . S
C2837 C2835 1.327 . S
C2838 C2826 1.349 . S
C2838 H2832 0.950 . S
C2838 C2839 1.327 . S
C2839 H2833 0.950 . S
C2839 C2838 1.327 . S
C2839 C2843 1.429 . S
C2840 C2823 1.574 . S
C2840 H2834 0.949 . S
C2840 C2844 1.368 . S
C2841 C2822 1.429 . S
C2841 C2835 1.429 . S
C2841 C2842 1.523 . S
C2842 C2823 1.368 . S
C2842 C2836 1.368 . S
C2842 C2841 1.523 . S
C2843 C2827 1.429 . S
C2843 C2839 1.429 . S
C2843 C2844 1.523 . S
C2844 C2828 1.368 . S
C2844 C2840 1.368 . S
C2844 C2843 1.523 . S
H2845 C2820 0.950 . S
H2846 C2822 0.950 . S
H2847 C2823 0.949 . S
H2848 C2825 0.950 . S
H2849 C2827 0.950 . S
C2850 C2851 1.349 . S
C2850 C2852 1.327 . S
C2850 H2875 0.950 . S
C2851 C2850 1.349 . S
C2851 C2867 1.349 1_455 S
C2852 C2850 1.327 . S
C2852 C2871 1.429 . S
C2852 H2876 0.950 . S
C2853 C2870 1.574 . S
C2853 C2872 1.368 1_655 S
C2853 H2877 0.949 . S
H2854 C2858 0.949 . S
C2855 C2856 1.349 1_655 S
C2855 C2857 1.327 . S
C2855 H2878 0.950 . S
C2856 C2855 1.349 1_455 S
C2856 C2868 1.349 . S
C2857 C2855 1.327 . S
C2857 C2873 1.429 1_655 S
C2857 H2879 0.950 . S
C2858 H2854 0.949 . S
C2858 C2866 1.574 . S
C2858 C2874 1.368 . S
H2859 C2867 0.950 . S
H2860 C2865 0.950 . S
H2861 C2866 0.949 . S
H2862 C2868 0.950 . S
H2863 C2869 0.950 . S
H2864 C2870 0.949 . S
C2865 H2860 0.950 . S
C2865 C2867 1.327 . S
C2865 C2871 1.429 1_655 S
C2866 C2858 1.574 . S
C2866 H2861 0.949 . S
C2866 C2872 1.368 . S
C2867 C2851 1.349 1_655 S
C2867 H2859 0.950 . S
C2867 C2865 1.327 . S
C2868 C2856 1.349 . S
C2868 H2862 0.950 . S
C2868 C2869 1.327 . S
C2869 H2863 0.950 . S
C2869 C2868 1.327 . S
C2869 C2873 1.429 . S
C2870 C2853 1.574 . S
C2870 H2864 0.949 . S
C2870 C2874 1.368 1_655 S
C2871 C2852 1.429 . S
C2871 C2865 1.429 1_455 S
C2871 C2872 1.523 . S
C2872 C2853 1.368 1_455 S
C2872 C2866 1.368 . S
C2872 C2871 1.523 . S
C2873 C2857 1.429 1_455 S
C2873 C2869 1.429 . S
C2873 C2874 1.523 . S
C2874 C2858 1.368 . S
C2874 C2870 1.368 1_455 S
C2874 C2873 1.523 . S
H2875 C2850 0.950 . S
H2876 C2852 0.950 . S
H2877 C2853 0.949 . S
H2878 C2855 0.950 . S
H2879 C2857 0.950 . S
C726 C707 1.419 . S
C721 C8 1.452 . S
C756 C650 1.320 . S
C751 C19 1.347 . S
C786 C688 1.165 1_565 S
C781 C30 1.207 . S
C816 C669 1.350 1_545 S
C811 C41 1.378 . S
C846 C536 1.419 . S
C841 C52 1.452 . S
C871 C63 1.378 . S
C876 C555 1.348 1_554 S
C906 C498 1.320 . S
C901 C74 1.347 . S
C931 C85 1.208 . S
C936 C517 1.162 1_556 S
C966 C631 1.419 . S
C961 C96 1.452 . S
C991 C107 1.378 . S
C996 C593 1.348 1_455 S
C1021 C118 1.347 . S
C1026 C574 1.320 . S
C1056 C612 1.165 1_655 S
C1051 C129 1.207 . S
C1086 C479 1.421 . S
C1081 C140 1.431 . S
C1111 C151 1.319 . S
C1116 C422 1.322 . S
C1146 C460 1.167 1_545 S
C1141 C162 1.200 . S
C1171 C173 1.364 . S
C1176 C441 1.351 1_565 S
C1206 C308 1.421 . S
C1201 C184 1.431 . S
C1236 C327 1.353 1_556 S
C1231 C195 1.366 . S
C1261 C206 1.319 . S
C1266 C270 1.322 . S
C1291 C217 1.198 . S
C1296 C289 1.164 1_554 S
C1321 C228 1.431 . S
C1326 C403 1.421 . S
C1351 C239 1.365 . S
C1356 C365 1.351 1_655 S
C1386 C346 1.322 . S
C1381 C250 1.319 . S
C1411 C261 1.198 . S
C1416 C384 1.164 1_455 S
C1446 C266 1.395 . S
C1441 C7 1.433 . S
C1476 C285 1.279 . S
C1471 C18 1.328 . S
C1501 C29 1.287 . S
C1506 C304 1.266 . S
C1531 C40 1.276 . S
C1536 C323 1.252 . S
C1566 C342 1.395 . S
C1561 C51 1.433 . S
C1591 C62 1.276 . S
C1596 C361 1.252 . S
C1626 C380 1.279 . S
C1621 C73 1.328 . S
C1656 C399 1.267 . S
C1651 C84 1.283 . S
C1686 C418 1.395 . S
C1681 C95 1.433 . S
C1711 C106 1.276 . S
C1716 C437 1.252 . S
C1741 C117 1.328 . S
C1746 C456 1.279 . S
C1771 C128 1.287 . S
C1776 C475 1.266 . S
C1801 C139 1.382 . S
C1806 C494 1.395 . S
C1831 C150 1.263 . S
C1836 C513 1.278 . S
C1861 C161 1.252 . S
C1866 C532 1.265 . S
C1891 C172 1.241 . S
C1896 C551 1.251 . S
C1921 C183 1.382 . S
C1926 C570 1.395 . S
C1956 C589 1.253 . S
C1951 C194 1.240 . S
C1986 C608 1.278 . S
C1981 C205 1.263 . S
C2016 C627 1.266 . S
C2011 C216 1.251 . S
C2046 C646 1.395 . S
C2041 C227 1.382 . S
C2071 C238 1.241 . S
C2076 C665 1.251 . S
C2101 C249 1.263 . S
C2106 C684 1.278 . S
C2131 C260 1.252 . S
C2136 C703 1.265 . S
C2161 C5 1.360 . S
C2166 C427 1.468 . S
C2196 C484 1.499 . S
C2191 C16 1.393 . S
C2221 C27 1.317 . S
C2226 C446 1.457 . S
C2256 C465 1.432 . S
C2251 C38 1.302 . S
C2281 C49 1.360 . S
C2286 C275 1.468 . S
C2311 C60 1.305 . S
C2316 C294 1.434 . S
C2341 C71 1.393 . S
C2346 C313 1.499 . S
C2371 C82 1.317 . S
C2376 C332 1.457 . S
C2406 C351 1.468 . S
C2401 C93 1.360 . S
C2436 C389 1.432 . S
C2431 C104 1.302 . S
C2461 C115 1.393 . S
C2466 C408 1.499 . S
C2491 C126 1.317 . S
C2496 C370 1.457 . S
C2526 C655 1.441 . S
C2521 C137 1.266 . S
C2556 C712 1.468 . S
C2551 C148 1.268 . S
C2581 C159 1.265 1_545 S
C2586 C674 1.414 . S
C2616 C693 1.408 . S
C2611 C170 1.244 1_565 S
C2641 C181 1.266 . S
C2646 C503 1.441 . S
C2671 C192 1.240 1_556 S
C2676 C522 1.410 . S
C2701 C203 1.268 . S
C2706 C541 1.468 . S
C2736 C560 1.413 . S
C2731 C214 1.269 1_554 S
C2766 C579 1.441 . S
C2761 C225 1.266 . S
C2796 C617 1.408 . S
C2791 C236 1.244 1_655 S
C2821 C247 1.268 . S
C2826 C636 1.468 . S
C2856 C598 1.413 . S
C2851 C258 1.269 1_455 S
