# Generated by pormake.
# Topology tsx, (6,3)-cn, num edge types: 1
# Building blocks:
#     Node 0, Type 0, BuildingBlock: CIFDUS_clean_sbu_1, # of connection points: 6
#     Node 1, Type 0, BuildingBlock: CIFDUS_clean_sbu_1, # of connection points: 6
#     Node 2, Type 1, BuildingBlock: BELTOD_clean_linker_0, # of connection points: 3
#     Node 3, Type 1, BuildingBlock: BELTOD_clean_linker_0, # of connection points: 3
#     Node 4, Type 1, BuildingBlock: BELTOD_clean_linker_0, # of connection points: 3
#     Node 5, Type 1, BuildingBlock: BELTOD_clean_linker_0, # of connection points: 3
#     Edge 6, Type (0, 1), BuildingBlock: OJICUG_clean_linker_0, # of connection points: 2
#     Edge 7, Type (0, 1), BuildingBlock: OJICUG_clean_linker_0, # of connection points: 2
#     Edge 8, Type (0, 1), BuildingBlock: OJICUG_clean_linker_0, # of connection points: 2
#     Edge 9, Type (0, 1), BuildingBlock: OJICUG_clean_linker_0, # of connection points: 2
#     Edge 10, Type (0, 1), BuildingBlock: OJICUG_clean_linker_0, # of connection points: 2
#     Edge 11, Type (0, 1), BuildingBlock: OJICUG_clean_linker_0, # of connection points: 2
#     Edge 12, Type (0, 1), BuildingBlock: OJICUG_clean_linker_0, # of connection points: 2
#     Edge 13, Type (0, 1), BuildingBlock: OJICUG_clean_linker_0, # of connection points: 2
#     Edge 14, Type (0, 1), BuildingBlock: OJICUG_clean_linker_0, # of connection points: 2
#     Edge 15, Type (0, 1), BuildingBlock: OJICUG_clean_linker_0, # of connection points: 2
#     Edge 16, Type (0, 1), BuildingBlock: OJICUG_clean_linker_0, # of connection points: 2
#     Edge 17, Type (0, 1), BuildingBlock: OJICUG_clean_linker_0, # of connection points: 2
# Relax obj value: 0.115
# Max RMSD: 0.149
# Mean RMSD: 0.109
data_MOF--net-tsx--node1-CIFDUS_clean_sbu_1--node2-BELTOD_clean_linker_0--edge1-OJICUG_clean_linker_0
_symmetry_space_group_name_H-M    P1
_symmetry_Int_Tables_number       1
_symmetry_cell_setting            triclinic
loop_
_symmetry_equiv_pos_as_xyz
'x, y, z'
_cell_length_a     14.667025
_cell_length_b     19.589799
_cell_length_c     32.090304
_cell_angle_alpha  97.642491
_cell_angle_beta   97.124646
_cell_angle_gamma 92.489139
loop_
_atom_site_label
_atom_site_type_symbol
_atom_site_fract_x
_atom_site_fract_y
_atom_site_fract_z
_atom_type_partial_charge
O0 O 0.99322 0.10825 -0.00555 0.0
Mn1 Mn 0.05857 0.01461 -0.00702 0.0
O2 O 0.84556 0.08133 0.96605 0.0
Mn3 Mn 0.86052 -0.00917 0.94487 0.0
O4 O 0.12384 0.92051 0.99032 0.0
O5 O 0.18005 0.0689 0.00189 0.0
Mn6 Mn 0.25875 0.03594 0.03894 0.0
O7 O 0.05848 0.02008 0.05875 0.0
O8 O 0.27284 0.94601 0.01694 0.0
O9 O 0.05994 0.00938 0.92753 0.0
O10 O 0.91598 0.97771 0.89588 0.0
O11 O 0.31968 0.11066 0.02304 0.0
O12 O 0.2056 0.04742 0.08847 0.0
C13 C 0.87193 0.91602 0.98767 0.0
C14 C 0.91008 0.12477 0.9844 0.0
C15 C 0.20696 0.90327 -0.00055 0.0
C16 C 0.24147 0.11756 0.00093 0.0
C17 C 0.12038 0.03628 0.09112 0.0
C18 C 1.00115 -0.00846 0.89422 0.0
O19 O 0.93682 0.96043 0.98396 0.0
O20 O 0.79624 0.91964 0.9629 0.0
O21 O 0.49892 0.61229 0.49615 0.0
Mn22 Mn 0.55791 0.51588 0.49015 0.0
O23 O 0.34754 0.59132 0.47283 0.0
Mn24 Mn 0.35424 0.5011 0.44885 0.0
O25 O 0.61482 0.41831 0.48289 0.0
O26 O 0.68111 0.56697 0.49527 0.0
Mn27 Mn 0.7659 0.52201 0.52166 0.0
O28 O 0.57336 0.51736 0.55593 0.0
O29 O 0.76793 0.43834 0.4885 0.0
O30 O 0.54774 0.51359 0.42471 0.0
O31 O 0.39959 0.49004 0.39699 0.0
O32 O 0.82507 0.60145 0.51075 0.0
O33 O 0.72737 0.51792 0.57433 0.0
C34 C 0.36762 0.4231 0.4896 0.0
C35 C 0.41636 0.63214 0.48942 0.0
C36 C 0.69605 0.39805 0.47914 0.0
C37 C 0.74344 0.61548 0.49526 0.0
C38 C 0.64496 0.51672 0.5836 0.0
C39 C 0.48424 0.50074 0.39292 0.0
O40 O 0.43363 0.46576 0.48468 0.0
O41 O 0.28971 0.43063 0.46747 0.0
P42 P 0.17334 0.08858 0.41508 0.0
H43 H 0.13752 0.19497 0.48241 0.0
H44 H 0.99554 0.24437 0.50087 0.0
H45 H 0.83692 0.08948 0.40892 0.0
H46 H 0.97993 0.03731 0.39244 0.0
H47 H 0.34379 0.07102 0.46996 0.0
H48 H 0.4099 0.97008 0.49676 0.0
H49 H 0.17348 0.84272 0.43195 0.0
H50 H 0.10599 0.94421 0.40688 0.0
H51 H 0.07606 0.16987 0.35695 0.0
H52 H 0.21352 0.97914 0.34763 0.0
O53 O 0.25128 0.15518 0.42741 0.0
H54 H 1.03968 0.15594 0.27985 0.0
H55 H 0.17727 0.96504 0.27041 0.0
C56 C 0.0693 0.11262 0.43618 0.0
C57 C 0.07229 0.16951 0.46775 0.0
C58 C 0.99098 0.19786 0.47809 0.0
C59 C 0.90538 0.17071 0.45619 0.0
C60 C 0.90207 0.11112 0.4263 0.0
C61 C 0.98364 0.08146 0.41693 0.0
C62 C 0.21996 0.01496 0.43634 0.0
C63 C 0.30576 0.02147 0.46183 0.0
C64 C 0.3439 0.96374 0.47693 0.0
C65 C 0.29666 0.89861 0.46675 0.0
C66 C 0.21093 0.89245 0.44093 0.0
C67 C 0.17224 0.9503 0.4265 0.0
C68 C 0.14618 0.07506 0.35816 0.0
C69 C 0.09755 0.12456 0.33835 0.0
C70 C 0.07673 0.11659 0.2943 0.0
C71 C 0.10482 0.05906 0.26914 0.0
C72 C 0.15296 0.00911 0.28907 0.0
C73 C 0.17416 0.01734 0.33326 0.0
P74 P 0.16114 0.97516 0.58716 0.0
H75 H 0.11648 0.89077 0.50585 0.0
H76 H 0.97736 0.827 0.47114 0.0
H77 H 0.8233 0.93869 0.56203 0.0
H78 H 0.96674 0.00038 0.59743 0.0
H79 H 0.34779 0.01985 0.57553 0.0
H80 H 0.4162 0.12912 0.56178 0.0
H81 H 0.15128 0.21748 0.56318 0.0
H82 H 0.08351 0.1077 0.57649 0.0
H83 H 0.09329 0.87127 0.63343 0.0
H84 H 0.19439 0.08468 0.66148 0.0
O85 O 0.23463 0.91421 0.57712 0.0
H86 H 0.06365 0.87284 0.70676 0.0
H87 H 0.16372 0.08683 0.73487 0.0
C88 C 0.05273 0.94823 0.55475 0.0
C89 C 0.05256 0.90276 0.51745 0.0
C90 C 0.97155 0.86664 0.4974 0.0
C91 C 0.88777 0.87576 0.5142 0.0
C92 C 0.88649 0.92827 0.54881 0.0
C93 C 0.96852 0.96404 0.56904 0.0
C94 C 0.21013 0.05542 0.57608 0.0
C95 C 0.3043 0.06266 0.57257 0.0
C96 C 0.34351 0.12528 0.56482 0.0
C97 C 0.28941 0.18218 0.56117 0.0
C98 C 0.19543 0.17503 0.56614 0.0
C99 C 0.15607 0.11207 0.57324 0.0
C100 C 0.14506 0.97791 0.64194 0.0
C101 C 0.10932 0.91841 0.65545 0.0
C102 C 0.09218 0.91945 0.69729 0.0
C103 C 0.11079 0.98012 0.72646 0.0
C104 C 0.1493 0.03924 0.71314 0.0
C105 C 0.16616 0.03818 0.67109 0.0
P106 P 0.67509 0.58239 0.90961 0.0
H107 H 0.65576 0.69822 0.97363 0.0
H108 H 0.52252 0.75405 -0.00258 0.0
H109 H 0.34137 0.60064 0.91408 0.0
H110 H 0.47649 0.54319 0.89116 0.0
H111 H 0.83488 0.56449 0.97125 0.0
H112 H 0.89497 0.46241 -0.00099 0.0
H113 H 0.66013 0.33845 0.92927 0.0
H114 H 0.59836 0.4411 0.90372 0.0
H115 H 0.5713 0.64842 0.84386 0.0
H116 H 0.72873 0.4682 0.85011 0.0
O117 O 0.7603 0.64394 0.91832 0.0
H118 H 0.55078 0.62482 0.76639 0.0
H119 H 0.70445 0.44242 0.77331 0.0
C120 C 0.57593 0.61693 0.93057 0.0
C121 C 0.5876 0.67547 0.96121 0.0
C122 C 0.51127 0.70725 0.97482 0.0
C123 C 0.42157 0.68145 0.95768 0.0
C124 C 0.40977 0.62144 0.92777 0.0
C125 C 0.48671 0.58875 0.91475 0.0
C126 C 0.71271 0.51 0.93498 0.0
C127 C 0.79566 0.51548 0.96253 0.0
C128 C 0.83038 0.45702 0.97812 0.0
C129 C 0.78269 0.39218 0.96625 0.0
C130 C 0.69825 0.38765 0.93949 0.0
C131 C 0.66274 0.44626 0.92477 0.0
C132 C 0.64971 0.55927 0.85295 0.0
C133 C 0.59911 0.60266 0.82866 0.0
C134 C 0.58689 0.58888 0.78434 0.0
C135 C 0.6259 0.5317 0.76359 0.0
C136 C 0.67419 0.48729 0.78822 0.0
C137 C 0.68725 0.50157 0.83237 0.0
P138 P 0.64782 0.47572 0.08583 0.0
H139 H 0.61675 0.38002 0.00899 0.0
H140 H 0.48195 0.31516 0.97089 0.0
H141 H 0.31113 0.44368 0.04546 0.0
H142 H 0.44998 0.5065 0.08451 0.0
H143 H 0.83844 0.51988 0.0812 0.0
H144 H 0.91134 0.62787 0.06784 0.0
H145 H 0.64534 0.71513 0.05544 0.0
H146 H 0.57252 0.60609 0.06704 0.0
H147 H 0.68457 0.38808 0.15212 0.0
H148 H 0.55983 0.58092 0.13892 0.0
O149 O 0.72375 0.41524 0.07954 0.0
H150 H 0.64951 0.39633 0.22503 0.0
H151 H 0.52298 0.58847 0.2116 0.0
C152 C 0.54419 0.44591 0.05045 0.0
C153 C 0.55036 0.3952 0.01628 0.0
C154 C 0.47179 0.35849 -0.00585 0.0
C155 C 0.38394 0.37219 0.00561 0.0
C156 C 0.3773 0.42956 0.03656 0.0
C157 C 0.45696 0.4659 0.05899 0.0
C158 C 0.69985 0.55479 0.07462 0.0
C159 C 0.79562 0.56206 0.07521 0.0
C160 C 0.83743 0.62392 0.06775 0.0
C161 C 0.78428 0.68013 0.06056 0.0
C162 C 0.68846 0.673 0.06114 0.0
C163 C 0.6465 0.61058 0.06756 0.0
C164 C 0.62546 0.48416 0.1401 0.0
C165 C 0.65032 0.43249 0.16491 0.0
C166 C 0.63041 0.4372 0.20659 0.0
C167 C 0.58369 0.49305 0.22383 0.0
C168 C 0.55871 0.54473 0.19892 0.0
C169 C 0.58001 0.54053 0.15744 0.0
C170 C 0.26637 0.20311 0.95348 0.0
C171 C 0.22343 0.1847 0.98733 0.0
H172 H 0.34568 0.28089 0.93067 0.0
C173 C 0.20561 0.23686 0.01912 0.0
H174 H 0.28055 0.16374 0.92843 0.0
C175 C 0.24755 0.30306 0.02199 0.0
C176 C 0.30629 0.31821 -0.0076 0.0
H177 H 0.17253 0.22377 0.04565 0.0
H178 H 0.24372 0.33837 0.05056 0.0
C179 C 0.30579 0.27005 0.9555 0.0
C180 C 0.22729 0.80057 0.9473 0.0
C181 C 0.23174 0.83154 0.98957 0.0
H182 H 0.28507 0.72688 0.90381 0.0
C183 C 0.2835 0.8021 0.02165 0.0
H184 H 0.18885 0.82315 0.92204 0.0
C185 C 0.33833 0.74759 0.01138 0.0
C186 C 0.34272 0.72182 0.96879 0.0
H187 H 0.28808 0.82543 0.05448 0.0
H188 H 0.38322 0.72951 0.03652 0.0
C189 C 0.28263 0.74576 0.93692 0.0
C190 C 0.82084 0.86806 0.04832 0.0
C191 C 0.87846 0.86409 0.01648 0.0
H192 H 0.74767 0.81294 0.08828 0.0
C193 C 0.91689 0.80154 0.0041 0.0
H194 H 0.78921 0.91572 0.05767 0.0
C195 C 0.89127 0.74209 0.02072 0.0
C196 C 0.82689 0.7447 0.04993 0.0
H197 H 0.95949 0.79717 0.9787 0.0
H198 H 0.91601 0.6933 0.0081 0.0
C199 C 0.79583 0.809 0.06519 0.0
C200 C 0.94728 0.25082 0.9833 0.0
C201 C 0.8864 0.19758 0.99047 0.0
H202 H 0.96187 0.35477 0.96972 0.0
C203 C 0.79543 0.21219 -0.00409 0.0
H204 H 1.01741 0.24066 0.97841 0.0
C205 C 0.76343 0.27665 0.9905 0.0
C206 C 0.8217 0.32855 0.97981 0.0
H207 H 0.74714 0.17227 0.00186 0.0
H208 H 0.69159 0.28427 -0.00735 0.0
C209 C 0.91515 0.31599 0.97807 0.0
C210 C 0.76098 0.71332 0.4557 0.0
C211 C 0.72648 0.68707 0.48955 0.0
H212 H 0.83391 0.79735 0.43566 0.0
C213 C 0.71829 0.73249 0.52634 0.0
H214 H 0.76805 0.67919 0.42696 0.0
C215 C 0.76063 0.79908 0.53248 0.0
C216 C 0.81024 0.82158 0.50138 0.0
H217 H 0.69237 0.71321 0.55304 0.0
H218 H 0.76434 0.8286 0.56369 0.0
C219 C 0.80089 0.78069 0.46126 0.0
C220 C 0.72813 0.29621 0.42993 0.0
C221 C 0.71249 0.32451 0.47071 0.0
H222 H 0.80086 0.22255 0.39328 0.0
C223 C 0.74422 0.2914 0.50547 0.0
H224 H 0.70634 0.3221 0.40289 0.0
C225 C 0.80002 0.23568 0.50023 0.0
C226 C 0.82372 0.21179 0.46003 0.0
H227 H 0.73461 0.31346 0.53732 0.0
H228 H 0.83115 0.21524 0.52802 0.0
C229 C 0.78268 0.23958 0.42455 0.0
C230 C 0.41244 0.30661 0.50256 0.0
C231 C 0.37535 0.36882 0.51686 0.0
H232 H 0.41306 0.19798 0.50493 0.0
C233 C 0.32129 0.37133 0.55003 0.0
H234 H 0.45228 0.30333 0.47616 0.0
C235 C 0.29897 0.31143 0.5667 0.0
C236 C 0.32877 0.24754 0.54984 0.0
H237 H 0.2908 0.41876 0.56098 0.0
H238 H 0.25417 0.31461 0.59121 0.0
C239 C 0.38927 0.24627 0.51889 0.0
C240 C 0.45855 0.756 0.48443 0.0
C241 C 0.3982 0.70609 0.49586 0.0
H242 H 0.47316 0.85692 0.46589 0.0
C243 C 0.31021 0.72448 0.5044 0.0
H244 H 0.5264 0.74294 0.47721 0.0
C245 C 0.27949 0.78872 0.4974 0.0
C246 C 0.33623 0.83648 0.482 0.0
H247 H 0.26248 0.68722 0.51361 0.0
H248 H 0.20945 0.79936 0.50195 0.0
C249 C 0.42773 0.82097 0.47761 0.0
C250 C 0.06482 -0.01268 0.15194 0.0
C251 C 0.09464 0.04458 0.13411 0.0
H252 H 0.04499 0.94686 0.20941 0.0
C253 C 0.1182 0.10773 0.16014 0.0
H254 H 0.04794 0.93785 0.13235 0.0
C255 C 0.11635 0.11306 0.20373 0.0
C256 C 0.0924 0.05491 0.22228 0.0
H257 H 0.14274 0.15218 0.14695 0.0
H258 H 0.13926 0.16173 0.22319 0.0
C259 C 0.0643 -0.00767 0.1959 0.0
C260 C 0.97276 0.95591 0.81586 0.0
C261 C 1.0319 -0.01256 0.85176 0.0
H262 H 0.95112 0.92954 0.74852 0.0
C263 C 0.11854 0.01603 0.84627 0.0
H264 H 0.90557 0.93327 0.81882 0.0
C265 C 0.14468 0.01382 0.8056 0.0
C266 C 0.08508 0.98232 0.76984 0.0
H267 H 0.16559 0.04088 0.87326 0.0
H268 H 0.21164 0.03629 0.80213 0.0
C269 C 0.99907 0.9533 0.77549 0.0
C270 C 0.55243 0.53162 0.6453 0.0
C271 C 0.63457 0.51538 0.62885 0.0
H272 H 0.48464 0.54921 0.70108 0.0
C273 C 0.71069 0.50061 0.6567 0.0
H274 H 0.49252 0.54307 0.62467 0.0
C275 C 0.70637 0.50436 0.69994 0.0
C276 C 0.62562 0.52259 0.71684 0.0
H277 H 0.77501 0.48732 0.64529 0.0
H278 H 0.76791 0.49524 0.72032 0.0
C279 C 0.54814 0.53552 0.68902 0.0
C280 C 0.60119 0.48876 0.34216 0.0
C281 C 0.51009 0.49917 0.34974 0.0
H282 H 0.69568 0.47823 0.29612 0.0
C283 C 0.44385 0.50842 0.31567 0.0
H284 H 0.65372 0.48133 0.36775 0.0
C285 C 0.46823 0.50751 0.27491 0.0
C286 C 0.55893 0.49626 0.2673 0.0
H287 H 0.37321 0.51692 0.32052 0.0
H288 H 0.41578 0.51445 0.24917 0.0
C289 C 0.62518 0.48672 0.30123 0.0
loop_
_geom_bond_atom_site_label_1
_geom_bond_atom_site_label_2
_geom_bond_distance
_geom_bond_site_symmetry_2
_ccdc_geom_bond_type
O0 Mn1 2.163 1_654 S
O0 C14 1.244 1_554 S
Mn1 O0 2.163 1_456 S
Mn1 O4 2.160 1_545 S
Mn1 O5 2.221 1_556 S
Mn1 O7 2.163 1_556 S
Mn1 O9 2.160 . S
Mn1 O19 2.221 1_445 S
O2 Mn3 2.087 . S
O2 C14 1.256 . S
Mn3 O2 2.087 . S
Mn3 O10 2.089 . S
Mn3 O19 2.290 1_545 S
Mn3 O20 2.251 1_545 S
O4 Mn1 2.160 1_565 S
O4 C15 1.239 1_556 S
O5 Mn1 2.221 1_554 S
O5 Mn6 2.290 . S
O5 C16 1.278 . S
Mn6 O5 2.290 . S
Mn6 O8 2.089 1_545 S
Mn6 O11 2.251 . S
Mn6 O12 2.087 . S
O7 Mn1 2.163 1_554 S
O7 C17 1.244 . S
O8 Mn6 2.089 1_565 S
O8 C15 1.256 . S
O9 Mn1 2.160 . S
O9 C18 1.239 . S
O10 Mn3 2.089 . S
O10 C18 1.256 1_655 S
O11 Mn6 2.251 . S
O11 C16 1.241 . S
O12 Mn6 2.087 . S
O12 C17 1.256 . S
C13 O19 1.285 . S
C13 O20 1.244 . S
C14 O0 1.244 1_556 S
C14 O2 1.256 . S
C15 O4 1.239 1_554 S
C15 O8 1.256 . S
C16 O5 1.278 . S
C16 O11 1.241 . S
C17 O7 1.244 . S
C17 O12 1.256 . S
C18 O9 1.239 . S
C18 O10 1.256 1_455 S
O19 Mn1 2.221 1_665 S
O19 Mn3 2.290 1_565 S
O19 C13 1.285 . S
O20 Mn3 2.251 1_565 S
O20 C13 1.244 . S
O21 Mn22 2.163 . S
O21 C35 1.244 . S
Mn22 O21 2.163 . S
Mn22 O25 2.160 . S
Mn22 O26 2.221 . S
Mn22 O28 2.163 . S
Mn22 O30 2.160 . S
Mn22 O40 2.221 . S
O23 Mn24 2.087 . S
O23 C35 1.256 . S
Mn24 O23 2.087 . S
Mn24 O31 2.089 . S
Mn24 O40 2.290 . S
Mn24 O41 2.251 . S
O25 Mn22 2.160 . S
O25 C36 1.239 . S
O26 Mn22 2.221 . S
O26 Mn27 2.290 . S
O26 C37 1.278 . S
Mn27 O26 2.290 . S
Mn27 O29 2.089 . S
Mn27 O32 2.251 . S
Mn27 O33 2.087 . S
O28 Mn22 2.163 . S
O28 C38 1.244 . S
O29 Mn27 2.089 . S
O29 C36 1.256 . S
O30 Mn22 2.160 . S
O30 C39 1.239 . S
O31 Mn24 2.089 . S
O31 C39 1.256 . S
O32 Mn27 2.251 . S
O32 C37 1.241 . S
O33 Mn27 2.087 . S
O33 C38 1.256 . S
C34 O40 1.278 . S
C34 O41 1.241 . S
C35 O21 1.244 . S
C35 O23 1.256 . S
C36 O25 1.239 . S
C36 O29 1.256 . S
C37 O26 1.278 . S
C37 O32 1.241 . S
C38 O28 1.244 . S
C38 O33 1.256 . S
C39 O30 1.239 . S
C39 O31 1.256 . S
O40 Mn22 2.221 . S
O40 Mn24 2.290 . S
O40 C34 1.278 . S
O41 Mn24 2.251 . S
O41 C34 1.241 . S
P42 O53 1.490 . S
P42 C56 1.812 . S
P42 C62 1.803 1_545 S
P42 C68 1.819 . S
H43 C57 0.941 . S
H44 C58 0.939 . S
H45 C60 0.940 . S
H46 C61 0.940 . S
H47 C63 0.939 . S
H48 C64 0.942 . S
H49 C66 0.940 . S
H50 C67 0.939 . S
H51 C69 0.941 . S
H52 C73 0.939 . S
O53 P42 1.490 . S
H54 C70 0.939 . S
H55 C72 0.940 . S
C56 P42 1.812 . S
C56 C57 1.389 . S
C56 C61 1.391 1_455 S
C57 H43 0.941 . S
C57 C56 1.389 . S
C57 C58 1.397 1_455 S
C58 H44 0.939 . S
C58 C57 1.397 1_655 S
C58 C59 1.378 . S
C59 C58 1.378 . S
C59 C60 1.378 . S
C60 H45 0.940 . S
C60 C59 1.378 . S
C60 C61 1.396 . S
C61 H46 0.940 . S
C61 C56 1.391 1_655 S
C61 C60 1.396 . S
C62 P42 1.803 1_565 S
C62 C63 1.378 . S
C62 C67 1.400 . S
C63 H47 0.939 . S
C63 C62 1.378 . S
C63 C64 1.361 . S
C64 H48 0.942 . S
C64 C63 1.361 . S
C64 C65 1.369 . S
C65 C64 1.369 . S
C65 C66 1.404 . S
C66 H49 0.940 . S
C66 C65 1.404 . S
C66 C67 1.389 . S
C67 H50 0.939 . S
C67 C62 1.400 . S
C67 C66 1.389 . S
C68 P42 1.819 . S
C68 C69 1.391 . S
C68 C73 1.391 1_545 S
C69 H51 0.941 . S
C69 C68 1.391 . S
C69 C70 1.396 . S
C70 H54 0.939 . S
C70 C69 1.396 . S
C70 C71 1.397 . S
C71 C70 1.397 . S
C71 C72 1.385 1_545 S
C72 H55 0.940 . S
C72 C71 1.385 1_565 S
C72 C73 1.388 . S
C73 H52 0.939 . S
C73 C68 1.391 1_565 S
C73 C72 1.388 . S
P74 O85 1.490 1_545 S
P74 C88 1.802 1_445 S
P74 C94 1.803 . S
P74 C100 1.819 . S
H75 C89 0.941 . S
H76 C90 0.939 . S
H77 C92 0.940 . S
H78 C93 0.940 1_545 S
H79 C95 0.939 . S
H80 C96 0.942 . S
H81 C98 0.940 . S
H82 C99 0.939 . S
H83 C101 0.941 . S
H84 C105 0.939 . S
O85 P74 1.490 1_565 S
H86 C102 0.939 1_565 S
H87 C104 0.940 . S
C88 P74 1.802 1_665 S
C88 C89 1.388 1_655 S
C88 C93 1.402 . S
C89 H75 0.941 . S
C89 C88 1.388 1_455 S
C89 C90 1.397 1_455 S
C90 H76 0.939 . S
C90 C89 1.397 1_655 S
C90 C91 1.378 . S
C91 C90 1.378 . S
C91 C92 1.378 . S
C92 H77 0.940 . S
C92 C91 1.378 . S
C92 C93 1.396 . S
C93 H78 0.940 1_565 S
C93 C88 1.402 . S
C93 C92 1.396 . S
C94 P74 1.803 . S
C94 C95 1.378 . S
C94 C99 1.400 . S
C95 H79 0.939 . S
C95 C94 1.378 . S
C95 C96 1.361 . S
C96 H80 0.942 . S
C96 C95 1.361 . S
C96 C97 1.369 . S
C97 C96 1.369 . S
C97 C98 1.404 . S
C98 H81 0.940 . S
C98 C97 1.404 . S
C98 C99 1.389 . S
C99 H82 0.939 . S
C99 C94 1.400 . S
C99 C98 1.389 . S
C100 P74 1.819 . S
C100 C101 1.391 1_545 S
C100 C105 1.391 . S
C101 H83 0.941 . S
C101 C100 1.391 1_565 S
C101 C102 1.396 1_565 S
C102 H86 0.939 1_545 S
C102 C101 1.396 1_545 S
C102 C103 1.397 . S
C103 C102 1.397 . S
C103 C104 1.385 . S
C104 H87 0.940 . S
C104 C103 1.385 . S
C104 C105 1.388 . S
C105 H84 0.939 . S
C105 C100 1.391 . S
C105 C104 1.388 . S
P106 O117 1.490 . S
P106 C120 1.812 . S
P106 C126 1.803 . S
P106 C132 1.819 . S
H107 C121 0.941 . S
H108 C122 0.936 1_554 S
H109 C124 0.940 . S
H110 C125 0.940 . S
H111 C127 0.939 . S
H112 C128 0.942 . S
H113 C130 0.940 . S
H114 C131 0.939 . S
H115 C133 0.941 . S
H116 C137 0.939 . S
O117 P106 1.490 . S
H118 C134 0.939 . S
H119 C136 0.940 . S
C120 P106 1.812 . S
C120 C121 1.389 . S
C120 C125 1.391 . S
C121 H107 0.941 . S
C121 C120 1.389 . S
C121 C122 1.399 . S
C122 H108 0.936 1_556 S
C122 C121 1.399 . S
C122 C123 1.380 . S
C123 C122 1.380 . S
C123 C124 1.378 . S
C124 H109 0.940 . S
C124 C123 1.378 . S
C124 C125 1.396 . S
C125 H110 0.940 . S
C125 C120 1.391 . S
C125 C124 1.396 . S
C126 P106 1.803 . S
C126 C127 1.378 . S
C126 C131 1.400 . S
C127 H111 0.939 . S
C127 C126 1.378 . S
C127 C128 1.361 . S
C128 H112 0.942 . S
C128 C127 1.361 . S
C128 C129 1.369 . S
C129 C128 1.369 . S
C129 C130 1.404 . S
C130 H113 0.940 . S
C130 C129 1.404 . S
C130 C131 1.389 . S
C131 H114 0.939 . S
C131 C126 1.400 . S
C131 C130 1.389 . S
C132 P106 1.819 . S
C132 C133 1.391 . S
C132 C137 1.391 . S
C133 H115 0.941 . S
C133 C132 1.391 . S
C133 C134 1.396 . S
C134 H118 0.939 . S
C134 C133 1.396 . S
C134 C135 1.397 . S
C135 C134 1.397 . S
C135 C136 1.385 . S
C136 H119 0.940 . S
C136 C135 1.385 . S
C136 C137 1.388 . S
C137 H116 0.939 . S
C137 C132 1.391 . S
C137 C136 1.388 . S
P138 O149 1.490 . S
P138 C152 1.812 . S
P138 C158 1.803 . S
P138 C164 1.819 . S
H139 C153 0.941 . S
H140 C154 0.939 1_556 S
H141 C156 0.940 . S
H142 C157 0.940 . S
H143 C159 0.939 . S
H144 C160 0.942 . S
H145 C162 0.940 . S
H146 C163 0.939 . S
H147 C165 0.941 . S
H148 C169 0.939 . S
O149 P138 1.490 . S
H150 C166 0.939 . S
H151 C168 0.940 . S
C152 P138 1.812 . S
C152 C153 1.389 . S
C152 C157 1.391 . S
C153 H139 0.941 . S
C153 C152 1.389 . S
C153 C154 1.397 . S
C154 H140 0.939 1_554 S
C154 C153 1.397 . S
C154 C155 1.378 . S
C155 C154 1.378 . S
C155 C156 1.378 . S
C156 H141 0.940 . S
C156 C155 1.378 . S
C156 C157 1.396 . S
C157 H142 0.940 . S
C157 C152 1.391 . S
C157 C156 1.396 . S
C158 P138 1.803 . S
C158 C159 1.378 . S
C158 C163 1.400 . S
C159 H143 0.939 . S
C159 C158 1.378 . S
C159 C160 1.361 . S
C160 H144 0.942 . S
C160 C159 1.361 . S
C160 C161 1.369 . S
C161 C160 1.369 . S
C161 C162 1.404 . S
C162 H145 0.940 . S
C162 C161 1.404 . S
C162 C163 1.389 . S
C163 H146 0.939 . S
C163 C158 1.400 . S
C163 C162 1.389 . S
C164 P138 1.819 . S
C164 C165 1.391 . S
C164 C169 1.391 . S
C165 H147 0.941 . S
C165 C164 1.391 . S
C165 C166 1.396 . S
C166 H150 0.939 . S
C166 C165 1.396 . S
C166 C167 1.397 . S
C167 C166 1.397 . S
C167 C168 1.385 . S
C168 H151 0.940 . S
C168 C167 1.385 . S
C168 C169 1.388 . S
C169 H148 0.939 . S
C169 C164 1.391 . S
C169 C168 1.388 . S
C170 C171 1.387 1_556 S
C170 H174 0.950 . S
C170 C179 1.390 . S
C171 C170 1.387 1_554 S
C171 C173 1.387 . S
H172 C179 0.950 . S
C173 C171 1.387 . S
C173 C175 1.390 . S
C173 H177 0.950 . S
H174 C170 0.950 . S
C175 C173 1.390 . S
C175 C176 1.387 . S
C175 H178 0.950 . S
C176 C175 1.387 . S
C176 C179 1.387 1_554 S
H177 C173 0.950 . S
H178 C175 0.950 . S
C179 C170 1.390 . S
C179 H172 0.950 . S
C179 C176 1.387 1_556 S
C180 C181 1.373 1_556 S
C180 H184 0.950 . S
C180 C189 1.390 . S
C181 C180 1.373 1_554 S
C181 C183 1.403 . S
H182 C189 0.950 . S
C183 C181 1.403 . S
C183 C185 1.390 . S
C183 H187 0.950 . S
H184 C180 0.950 . S
C185 C183 1.390 . S
C185 C186 1.387 1_554 S
C185 H188 0.950 . S
C186 C185 1.387 1_556 S
C186 C189 1.387 . S
H187 C183 0.950 . S
H188 C185 0.950 . S
C189 C180 1.390 . S
C189 H182 0.950 . S
C189 C186 1.387 . S
C190 C191 1.387 . S
C190 H194 0.950 . S
C190 C199 1.390 . S
C191 C190 1.387 . S
C191 C193 1.387 1_554 S
H192 C199 0.950 . S
C193 C191 1.387 1_556 S
C193 C195 1.390 . S
C193 H197 0.950 . S
H194 C190 0.950 . S
C195 C193 1.390 . S
C195 C196 1.387 1_556 S
C195 H198 0.950 . S
C196 C195 1.387 1_554 S
C196 C199 1.387 . S
H197 C193 0.950 . S
H198 C195 0.950 . S
C199 C190 1.390 . S
C199 H192 0.950 . S
C199 C196 1.387 . S
C200 C201 1.387 . S
C200 H204 0.950 . S
C200 C209 1.390 . S
C201 C200 1.387 . S
C201 C203 1.387 1_556 S
H202 C209 0.950 . S
C203 C201 1.387 1_554 S
C203 C205 1.390 . S
C203 H207 0.950 . S
H204 C200 0.950 . S
C205 C203 1.390 . S
C205 C206 1.387 1_554 S
C205 H208 0.950 . S
C206 C205 1.387 1_556 S
C206 C209 1.387 . S
H207 C203 0.950 . S
H208 C205 0.950 . S
C209 C200 1.390 . S
C209 H202 0.950 . S
C209 C206 1.387 . S
C210 C211 1.387 . S
C210 H214 0.950 . S
C210 C219 1.390 . S
C211 C210 1.387 . S
C211 C213 1.387 . S
H212 C219 0.950 . S
C213 C211 1.387 . S
C213 C215 1.390 . S
C213 H217 0.950 . S
H214 C210 0.950 . S
C215 C213 1.390 . S
C215 C216 1.387 . S
C215 H218 0.950 . S
C216 C215 1.387 . S
C216 C219 1.387 . S
H217 C213 0.950 . S
H218 C215 0.950 . S
C219 C210 1.390 . S
C219 H212 0.950 . S
C219 C216 1.387 . S
C220 C221 1.387 . S
C220 H224 0.950 . S
C220 C229 1.390 . S
C221 C220 1.387 . S
C221 C223 1.387 . S
H222 C229 0.950 . S
C223 C221 1.387 . S
C223 C225 1.390 . S
C223 H227 0.950 . S
H224 C220 0.950 . S
C225 C223 1.390 . S
C225 C226 1.387 . S
C225 H228 0.950 . S
C226 C225 1.387 . S
C226 C229 1.387 . S
H227 C223 0.950 . S
H228 C225 0.950 . S
C229 C220 1.390 . S
C229 H222 0.950 . S
C229 C226 1.387 . S
C230 C231 1.387 . S
C230 H234 0.950 . S
C230 C239 1.390 . S
C231 C230 1.387 . S
C231 C233 1.387 . S
H232 C239 0.950 . S
C233 C231 1.387 . S
C233 C235 1.390 . S
C233 H237 0.950 . S
H234 C230 0.950 . S
C235 C233 1.390 . S
C235 C236 1.387 . S
C235 H238 0.950 . S
C236 C235 1.387 . S
C236 C239 1.387 . S
H237 C233 0.950 . S
H238 C235 0.950 . S
C239 C230 1.390 . S
C239 H232 0.950 . S
C239 C236 1.387 . S
C240 C241 1.387 . S
C240 H244 0.950 . S
C240 C249 1.390 . S
C241 C240 1.387 . S
C241 C243 1.387 . S
H242 C249 0.950 . S
C243 C241 1.387 . S
C243 C245 1.390 . S
C243 H247 0.950 . S
H244 C240 0.950 . S
C245 C243 1.390 . S
C245 C246 1.387 . S
C245 H248 0.950 . S
C246 C245 1.387 . S
C246 C249 1.387 . S
H247 C243 0.950 . S
H248 C245 0.950 . S
C249 C240 1.390 . S
C249 H242 0.950 . S
C249 C246 1.387 . S
C250 C251 1.387 1_565 S
C250 H254 0.950 1_455 S
C250 C259 1.390 . S
C251 C250 1.387 1_545 S
C251 C253 1.387 . S
H252 C259 0.950 1_655 S
C253 C251 1.387 . S
C253 C255 1.390 . S
C253 H257 0.950 . S
H254 C250 0.950 1_655 S
C255 C253 1.390 . S
C255 C256 1.387 1_545 S
C255 H258 0.950 . S
C256 C255 1.387 1_565 S
C256 C259 1.387 . S
H257 C253 0.950 . S
H258 C255 0.950 . S
C259 C250 1.390 . S
C259 H252 0.950 1_455 S
C259 C256 1.387 . S
C260 C261 1.387 1_565 S
C260 H264 0.950 . S
C260 C269 1.390 1_565 S
C261 C260 1.387 1_545 S
C261 C263 1.387 . S
H262 C269 0.950 1_665 S
C263 C261 1.387 . S
C263 C265 1.390 . S
C263 H267 0.950 . S
H264 C260 0.950 . S
C265 C263 1.390 . S
C265 C266 1.387 . S
C265 H268 0.950 . S
C266 C265 1.387 . S
C266 C269 1.387 . S
H267 C263 0.950 . S
H268 C265 0.950 . S
C269 C260 1.390 1_545 S
C269 H262 0.950 1_445 S
C269 C266 1.387 . S
C270 C271 1.387 . S
C270 H274 0.950 . S
C270 C279 1.390 . S
C271 C270 1.387 . S
C271 C273 1.387 . S
H272 C279 0.950 . S
C273 C271 1.387 . S
C273 C275 1.390 . S
C273 H277 0.950 . S
H274 C270 0.950 . S
C275 C273 1.390 . S
C275 C276 1.387 . S
C275 H278 0.950 . S
C276 C275 1.387 . S
C276 C279 1.387 . S
H277 C273 0.950 . S
H278 C275 0.950 . S
C279 C270 1.390 . S
C279 H272 0.950 . S
C279 C276 1.387 . S
C280 C281 1.387 . S
C280 H284 0.950 . S
C280 C289 1.390 . S
C281 C280 1.387 . S
C281 C283 1.387 . S
H282 C289 0.950 . S
C283 C281 1.387 . S
C283 C285 1.390 . S
C283 H287 0.950 . S
H284 C280 0.950 . S
C285 C283 1.390 . S
C285 C286 1.387 . S
C285 H288 0.950 . S
C286 C285 1.387 . S
C286 C289 1.387 . S
H287 C283 0.950 . S
H288 C285 0.950 . S
C289 C280 1.390 . S
C289 H282 0.950 . S
C289 C286 1.387 . S
C176 C155 1.456 . S
C171 C16 1.394 . S
C181 C15 1.548 . S
C186 C123 1.502 . S
C191 C13 1.288 1_554 S
C196 C161 1.453 . S
C201 C14 1.394 . S
C206 C129 1.403 . S
C211 C37 1.396 . S
C216 C91 1.456 . S
C221 C36 1.547 . S
C226 C59 1.502 . S
C236 C97 1.450 . S
C231 C34 1.289 . S
C246 C65 1.402 . S
C241 C35 1.394 . S
C251 C17 1.513 . S
C256 C71 1.514 1_565 S
C261 C18 1.397 . S
C266 C103 1.389 . S
C276 C135 1.515 . S
C271 C38 1.512 . S
C281 C39 1.397 . S
C286 C167 1.388 . S
