# Generated by pormake.
# Topology zzz, (3,6)-cn, num edge types: 1
# Building blocks:
#     Node 0, Type 0, BuildingBlock: CUQRIR_clean_linker_1, # of connection points: 3
#     Node 1, Type 0, BuildingBlock: CUQRIR_clean_linker_1, # of connection points: 3
#     Node 2, Type 0, BuildingBlock: CUQRIR_clean_linker_1, # of connection points: 3
#     Node 3, Type 0, BuildingBlock: CUQRIR_clean_linker_1, # of connection points: 3
#     Node 4, Type 0, BuildingBlock: CUQRIR_clean_linker_1, # of connection points: 3
#     Node 5, Type 0, BuildingBlock: CUQRIR_clean_linker_1, # of connection points: 3
#     Node 6, Type 0, BuildingBlock: CUQRIR_clean_linker_1, # of connection points: 3
#     Node 7, Type 0, BuildingBlock: CUQRIR_clean_linker_1, # of connection points: 3
#     Node 8, Type 1, BuildingBlock: BETGAK_clean_sbu_0, # of connection points: 6
#     Node 9, Type 1, BuildingBlock: BETGAK_clean_sbu_0, # of connection points: 6
#     Node 10, Type 1, BuildingBlock: BETGAK_clean_sbu_0, # of connection points: 6
#     Node 11, Type 1, BuildingBlock: BETGAK_clean_sbu_0, # of connection points: 6
#     Edge 12, Type (0, 1), None
#     Edge 13, Type (0, 1), None
#     Edge 14, Type (0, 1), None
#     Edge 15, Type (0, 1), None
#     Edge 16, Type (0, 1), None
#     Edge 17, Type (0, 1), None
#     Edge 18, Type (0, 1), None
#     Edge 19, Type (0, 1), None
#     Edge 20, Type (0, 1), None
#     Edge 21, Type (0, 1), None
#     Edge 22, Type (0, 1), None
#     Edge 23, Type (0, 1), None
#     Edge 24, Type (0, 1), None
#     Edge 25, Type (0, 1), None
#     Edge 26, Type (0, 1), None
#     Edge 27, Type (0, 1), None
#     Edge 28, Type (0, 1), None
#     Edge 29, Type (0, 1), None
#     Edge 30, Type (0, 1), None
#     Edge 31, Type (0, 1), None
#     Edge 32, Type (0, 1), None
#     Edge 33, Type (0, 1), None
#     Edge 34, Type (0, 1), None
#     Edge 35, Type (0, 1), None
# Relax obj value: 0.955
# Max RMSD: 0.282
# Mean RMSD: 0.145
data_MOF--net-zzz--node1-BETGAK_clean_sbu_0--node2-CUQRIR_clean_linker_1--edge1-none
_symmetry_space_group_name_H-M    P1
_symmetry_Int_Tables_number       1
_symmetry_cell_setting            triclinic
loop_
_symmetry_equiv_pos_as_xyz
'x, y, z'
_cell_length_a     20.449319
_cell_length_b     19.567287
_cell_length_c     6.3806719
_cell_angle_alpha  89.129719
_cell_angle_beta   85.402055
_cell_angle_gamma 90.062966
loop_
_atom_site_label
_atom_site_type_symbol
_atom_site_fract_x
_atom_site_fract_y
_atom_site_fract_z
_atom_type_partial_charge
C0 C 0.77111 0.6454 0.4706 0.0
N1 N 0.82976 0.60492 0.46556 0.0
N2 N 0.72366 0.62554 0.32783 0.0
C3 C 0.76451 0.71119 0.58334 0.0
C4 C 0.76535 0.58935 0.20245 0.0
N5 N 0.818 0.567 0.29866 0.0
C6 C 0.7735 0.60866 0.97468 0.0
H7 H 0.71829 0.71008 0.68509 0.0
H8 H 0.76066 0.7528 0.46533 0.0
H9 H 0.80727 0.72148 0.67435 0.0
H10 H 0.81069 0.65 0.9563 0.0
H11 H 0.7271 0.62725 0.91866 0.0
H12 H 0.7911 0.56672 0.87457 0.0
C13 C 0.97961 0.81019 0.34125 0.0
N14 N 1.02294 0.85108 0.46182 0.0
N15 N 1.00929 0.76192 0.19007 0.0
C16 C 0.90757 0.81073 0.38701 0.0
C17 C 0.07063 0.78503 0.20138 0.0
N18 N 0.08026 0.82532 0.37487 0.0
C19 C 0.11194 0.79148 0.99881 0.0
H20 H 0.88547 0.76324 0.33075 0.0
H21 H 0.88768 0.85462 0.30157 0.0
H22 H 0.89588 0.81534 0.5588 0.0
H23 H 0.08639 0.77505 0.86137 0.0
H24 H 0.15882 0.76416 0.99513 0.0
H25 H 0.1198 0.84634 0.98047 0.0
C26 C 0.79448 0.98711 0.49988 0.0
N27 N 0.73125 1.02337 0.53611 0.0
N28 N 0.83965 1.00628 0.31308 0.0
C29 C 0.80728 0.92446 0.62528 0.0
C30 C 0.79306 1.0443 0.22995 0.0
N31 N 0.74239 0.06469 0.36785 0.0
C32 C 0.77973 1.03535 1.00787 0.0
H33 H 0.85816 0.92484 0.67216 0.0
H34 H 0.80063 0.87998 0.52522 0.0
H35 H 0.77164 0.91797 0.76341 0.0
H36 H 0.74563 0.99154 1.00872 0.0
H37 H 0.82211 1.02319 0.90302 0.0
H38 H 0.75776 0.08098 0.94326 0.0
C39 C 0.59225 0.82615 0.53893 0.0
N40 N 0.55089 0.77101 0.62788 0.0
N41 N 0.56602 0.86995 0.37911 0.0
C42 C 0.6545 0.84381 0.62914 0.0
C43 C 0.51284 0.83088 0.3574 0.0
N44 N 0.49899 0.78279 0.51529 0.0
C45 C 0.48878 0.8236 0.14335 0.0
H46 H 0.64771 0.89265 0.71145 0.0
H47 H 0.6934 0.85052 0.49976 0.0
H48 H 0.66728 0.80561 0.74814 0.0
H49 H 0.52903 0.8309 0.01796 0.0
H50 H 0.44994 0.85944 0.1144 0.0
H51 H 0.46647 0.77371 0.13414 0.0
C52 C 0.3071 0.51288 0.73129 0.0
N53 N 0.24186 0.5072 0.82326 0.0
N54 N 0.35639 0.50278 0.87452 0.0
C55 C 0.3209 0.48998 0.51486 0.0
C56 C 0.31716 0.47121 0.02485 0.0
N57 N 0.25321 0.48618 1.01472 0.0
C58 C 0.33579 0.40295 0.10778 0.0
H59 H 0.31693 0.53314 0.40934 0.0
H60 H 0.37064 0.46754 0.4925 0.0
H61 H 0.28347 0.45145 0.4825 0.0
H62 H 0.38072 0.40951 0.19017 0.0
H63 H 0.34767 0.36837 0.97365 0.0
H64 H 0.29544 0.37936 0.21099 0.0
C65 C 0.07124 0.31764 0.24954 0.0
N66 N 1.02842 0.26049 0.21752 0.0
N67 N 0.04784 0.36671 0.40735 0.0
C68 C 0.13431 0.32772 0.11759 0.0
C69 C 1.00188 0.32487 0.49782 0.0
N70 N 0.98156 0.2752 0.37055 0.0
C71 C 0.99763 0.31523 0.73156 0.0
H72 H 0.17429 0.3389 0.21972 0.0
H73 H 0.12958 0.37196 1.00963 0.0
H74 H 0.14648 0.2822 0.02102 0.0
H75 H 0.04485 0.29355 0.77467 0.0
H76 H 0.95799 0.28018 0.78476 0.0
H77 H 0.99153 0.36435 0.81238 0.0
C78 C 0.25197 0.11871 0.33062 0.0
N79 N 0.31733 0.08657 0.31495 0.0
N80 N 0.20504 0.09761 0.50673 0.0
C81 C 0.24076 0.1857 0.22535 0.0
C82 C 0.25422 0.07398 0.61431 0.0
N83 N 0.30639 1.05055 0.49327 0.0
C84 C 0.26835 0.10794 0.81141 0.0
H85 H 0.28386 0.2017 0.11925 0.0
H86 H 0.23216 0.22512 0.34774 0.0
H87 H 0.19515 0.18264 0.14358 0.0
H88 H 0.25439 0.07302 0.94483 0.0
H89 H 0.24204 0.1572 0.8231 0.0
H90 H 0.32093 0.1211 0.80692 0.0
C91 C 0.47943 0.30314 0.44191 0.0
N92 N 0.52219 0.36106 0.3823 0.0
N93 N 0.50155 0.25512 0.59573 0.0
C94 C 0.41742 0.2891 0.34343 0.0
C95 C 0.54997 0.2962 0.65149 0.0
N96 N 0.56948 0.34626 0.50937 0.0
C97 C 0.5683 0.29878 0.87131 0.0
H98 H 0.37753 0.31931 0.42493 0.0
H99 H 0.40385 0.23431 0.36313 0.0
H100 H 0.42343 0.30204 0.17365 0.0
H101 H 0.52597 0.28755 0.98557 0.0
H102 H 0.59036 0.34821 0.9019 0.0
H103 H 0.60668 0.26159 0.8855 0.0
La104 La 0.05988 1.03755 0.95799 0.0
La105 La 0.98343 0.05867 0.8214 0.0
C106 C 0.15674 0.99231 0.14513 0.0
C107 C 0.17977 0.94002 0.28175 0.0
C108 C 0.21123 0.88077 0.20274 0.0
C109 C 0.19899 0.82114 0.32249 0.0
C110 C 0.14388 0.82414 0.46668 0.0
C111 C 0.15615 0.87635 0.59879 0.0
C112 C 0.16145 0.93936 0.49792 0.0
C113 C 0.13763 0.10946 0.61393 0.0
C114 C 1.01486 0.91185 0.61201 0.0
C115 C 0.88653 0.10536 0.64444 0.0
C116 C 0.86725 0.16208 0.52081 0.0
C117 C 0.8465 0.22198 0.62144 0.0
C118 C 0.86766 0.28219 0.52441 0.0
C119 C 0.91189 0.27584 0.34214 0.0
C120 C 0.8917 0.22829 0.20782 0.0
C121 C 0.88309 0.16536 0.30295 0.0
C122 C 0.90692 0.99189 0.19714 0.0
C123 C 0.03369 0.19384 0.09909 0.0
O124 O 0.11327 1.03437 0.22582 0.0
O125 O 0.1398 0.9717 0.96655 0.0
O126 O 0.12976 0.11897 0.81583 0.0
O127 O 0.08597 0.06683 0.6229 0.0
O128 O 0.04937 0.92731 0.7822 0.0
O129 O 0.97827 0.96678 0.58691 0.0
O130 O 0.93001 0.06455 0.55713 0.0
O131 O 0.90132 0.12075 0.83092 0.0
O132 O 0.91561 0.97816 0.99556 0.0
O133 O 0.95862 1.03477 0.16415 0.0
O134 O 0.99878 0.17423 0.93714 0.0
O135 O 0.06312 0.13729 0.16029 0.0
H136 H 0.24084 0.87943 0.05691 0.0
H137 H 0.23942 0.78929 0.35114 0.0
H138 H 0.18717 0.86797 0.72502 0.0
H139 H 0.16418 0.98311 0.58921 0.0
H140 H 0.82622 0.22243 0.78283 0.0
H141 H 0.86623 0.32479 0.62836 0.0
H142 H 0.90185 0.23362 0.04195 0.0
H143 H 0.88977 0.12258 0.20797 0.0
La144 La 0.54368 0.08483 0.01822 0.0
La145 La 0.51344 1.02876 0.90188 0.0
C146 C 0.59116 0.1861 0.18899 0.0
C147 C 0.63906 0.21703 0.31325 0.0
C148 C 0.69854 0.23249 0.19624 0.0
C149 C 0.74547 0.18248 0.21399 0.0
C150 C 0.73691 0.13711 0.38898 0.0
C151 C 0.7021 0.16245 0.56326 0.0
C152 C 0.64471 0.19142 0.51634 0.0
C153 C 0.47687 0.19503 0.72409 0.0
C154 C 0.66601 1.02269 0.6817 0.0
C155 C 0.46057 0.92557 0.75819 0.0
C156 C 0.40695 0.90938 0.63517 0.0
C157 C 0.34583 0.89871 0.74587 0.0
C158 C 0.29664 0.94125 0.68497 0.0
C159 C 0.30807 0.97759 0.49244 0.0
C160 C 0.35027 0.9482 0.34403 0.0
C161 C 0.40771 0.9312 0.42629 0.0
C162 C 0.58625 0.92779 0.2314 0.0
C163 C 0.38471 0.08906 0.18773 0.0
O164 O 0.61803 0.15103 0.03423 0.0
O165 O 0.53691 0.15787 0.26763 0.0
O166 O 0.50824 0.13522 0.72783 0.0
O167 O 0.50867 0.13417 0.73251 0.0
O168 O 0.65262 1.04461 0.88296 0.0
O169 O 0.60355 1.02293 0.62798 0.0
O170 O 0.5145 0.95247 0.67066 0.0
O171 O 0.4397 0.96005 0.9207 0.0
O172 O 0.54883 0.98302 0.20486 0.0
O173 O 0.54859 0.98368 0.20003 0.0
O174 O 0.40164 0.06708 0.99133 0.0
O175 O 0.44513 0.08826 0.26048 0.0
H176 H 0.69988 0.26178 0.05099 0.0
H177 H 0.78013 0.17436 0.08161 0.0
H178 H 0.70776 0.14369 0.71902 0.0
H179 H 0.60618 0.18499 0.63019 0.0
H180 H 0.34281 0.87748 0.90396 0.0
H181 H 0.25964 0.95714 0.80351 0.0
H182 H 0.34952 0.96345 0.18209 0.0
H183 H 0.45055 0.94318 0.33605 0.0
La184 La 0.50896 0.59043 0.12734 0.0
La185 La 0.57577 0.5544 0.95334 0.0
C186 C 0.40498 0.61991 0.34796 0.0
C187 C 0.35797 0.65463 0.49946 0.0
C188 C 0.33869 0.71625 0.41336 0.0
C189 C 0.38001 0.77088 0.44116 0.0
C190 C 0.43223 0.76049 0.57238 0.0
C191 C 0.41787 0.71476 0.73647 0.0
C192 C 0.37731 0.66071 0.70247 0.0
C193 C 0.42638 0.4934 0.87031 0.0
C194 C 0.56028 0.70881 0.76791 0.0
C195 C 0.67894 0.51567 0.73935 0.0
C196 C 0.69895 0.46176 0.59531 0.0
C197 C 0.71483 0.39813 0.68108 0.0
C198 C 0.68568 0.34184 0.6012 0.0
C199 C 0.63922 0.35453 0.45274 0.0
C200 C 0.65882 0.40315 0.30602 0.0
C201 C 0.68057 0.46256 0.38864 0.0
C202 C 0.65964 0.64554 0.26078 0.0
C203 C 0.51793 0.42801 0.26209 0.0
O204 O 0.43075 0.65463 0.18746 0.0
O205 O 0.44526 0.57327 0.40531 0.0
O206 O 0.46968 0.54348 0.84917 0.0
O207 O 0.47042 0.54374 0.85612 0.0
O208 O 0.54086 0.70045 0.97569 0.0
O209 O 0.56864 0.64465 0.70315 0.0
O210 O 0.65701 0.49274 0.92185 0.0
O211 O 0.64106 0.56414 0.67812 0.0
O212 O 0.61152 0.60058 0.24517 0.0
O213 O 0.61097 0.60012 0.24095 0.0
O214 O 0.54175 0.44133 0.06203 0.0
O215 O 0.51293 0.49056 0.34612 0.0
H216 H 0.31727 0.71663 0.26502 0.0
H217 H 0.37658 0.81211 0.33176 0.0
H218 H 0.43787 0.71961 0.88057 0.0
H219 H 0.36909 0.62274 0.82147 0.0
H220 H 0.73606 0.39265 0.82996 0.0
H221 H 0.6892 0.29506 0.68809 0.0
H222 H 0.64351 0.40015 0.15106 0.0
H223 H 0.67765 0.507 0.29884 0.0
La224 La 1.01578 0.54473 0.84018 0.0
La225 La 0.04409 0.59794 0.67454 0.0
C226 C 0.97478 0.47374 0.15961 0.0
C227 C 0.92697 0.4201 0.2173 0.0
C228 C 0.87848 0.41448 0.07543 0.0
C229 C 0.82473 0.45699 0.11488 0.0
C230 C 0.82198 0.49448 0.30262 0.0
C231 C 0.84646 0.46339 0.47283 0.0
C232 C 0.90232 0.42739 0.42868 0.0
C233 C 0.06673 0.43054 0.51006 0.0
C234 C 0.89264 0.60393 0.57427 0.0
C235 C 0.10416 0.67041 0.41397 0.0
C236 C 0.13833 0.63407 0.24789 0.0
C237 C 0.20323 0.65014 0.19246 0.0
C238 C 0.24772 0.59845 0.15488 0.0
C239 C 0.22672 0.53004 0.17066 0.0
C240 C 0.16445 0.51454 0.247 0.0
C241 C 0.11852 0.5662 0.2505 0.0
C242 C 0.99043 0.70598 0.04547 0.0
C243 C 0.17466 0.52382 0.77258 0.0
O244 O 1.02651 0.45894 0.04058 0.0
O245 O 0.94994 0.53131 0.10147 0.0
O246 O 1.02437 0.48152 0.55195 0.0
O247 O 1.02547 0.48334 0.56161 0.0
O248 O 0.90606 0.56641 0.74563 0.0
O249 O 0.95147 0.62237 0.48907 0.0
O250 O 0.12879 0.65622 0.5908 0.0
O251 O 0.04007 0.66423 0.42591 0.0
O252 O 0.03153 0.65569 0.98222 0.0
O253 O 1.03129 0.65421 0.9747 0.0
O254 O 0.15588 0.57042 0.64407 0.0
O255 O 0.12061 0.50451 0.88686 0.0
H256 H 0.88932 0.3962 0.9183 0.0
H257 H 0.79366 0.46766 0.99175 0.0
H258 H 0.83326 0.47943 0.63129 0.0
H259 H 0.92844 0.41879 0.5632 0.0
H260 H 0.21949 0.70143 0.17775 0.0
H261 H 0.29669 0.61128 0.09287 0.0
H262 H 0.14967 0.46226 0.23841 0.0
H263 H 0.06745 0.55429 0.2706 0.0
loop_
_geom_bond_atom_site_label_1
_geom_bond_atom_site_label_2
_geom_bond_distance
_geom_bond_site_symmetry_2
_ccdc_geom_bond_type
C0 N1 1.317 . S
C0 N2 1.348 . S
C0 C3 1.485 1_556 S
N1 C0 1.317 . S
N1 N5 1.370 . S
N2 C0 1.348 . S
N2 C4 1.346 . S
C3 C0 1.485 1_554 S
C3 H7 0.960 . S
C3 H8 0.961 . S
C3 H9 0.960 . S
C4 N2 1.346 . S
C4 N5 1.307 . S
C4 C6 1.486 . S
N5 N1 1.370 . S
N5 C4 1.307 . S
C6 C4 1.486 . S
C6 H10 0.960 . S
C6 H11 0.960 . S
C6 H12 0.959 . S
H7 C3 0.960 . S
H8 C3 0.961 . S
H9 C3 0.960 . S
H10 C6 0.960 . S
H11 C6 0.960 . S
H12 C6 0.959 . S
C13 N14 1.317 . S
C13 N15 1.348 . S
C13 C16 1.485 1_556 S
N14 C13 1.317 . S
N14 N18 1.371 . S
N15 C13 1.348 . S
N15 C17 1.346 1_655 S
C16 C13 1.485 1_554 S
C16 H20 0.960 1_655 S
C16 H21 0.961 . S
C16 H22 0.960 . S
C17 N15 1.346 1_455 S
C17 N18 1.307 1_455 S
C17 C19 1.486 . S
N18 N14 1.371 . S
N18 C17 1.307 1_655 S
C19 C17 1.486 . S
C19 H23 0.960 1_455 S
C19 H24 0.960 . S
C19 H25 0.959 . S
H20 C16 0.960 1_455 S
H21 C16 0.961 . S
H22 C16 0.960 . S
H23 C19 0.960 1_655 S
H24 C19 0.960 . S
H25 C19 0.959 . S
C26 N27 1.317 . S
C26 N28 1.348 . S
C26 C29 1.485 1_556 S
N27 C26 1.317 . S
N27 N31 1.371 . S
N28 C26 1.348 . S
N28 C30 1.346 1_565 S
C29 C26 1.485 1_554 S
C29 H33 0.960 1_565 S
C29 H34 0.961 . S
C29 H35 0.960 . S
C30 N28 1.346 1_545 S
C30 N31 1.307 1_545 S
C30 C32 1.486 . S
N31 N27 1.371 . S
N31 C30 1.307 1_565 S
C32 C30 1.486 . S
C32 H36 0.960 1_545 S
C32 H37 0.960 . S
C32 H38 0.959 . S
H33 C29 0.960 1_545 S
H34 C29 0.961 . S
H35 C29 0.960 . S
H36 C32 0.960 1_565 S
H37 C32 0.960 . S
H38 C32 0.959 . S
C39 N40 1.317 . S
C39 N41 1.348 . S
C39 C42 1.485 1_556 S
N40 C39 1.317 . S
N40 N44 1.370 . S
N41 C39 1.348 . S
N41 C43 1.346 . S
C42 C39 1.485 1_554 S
C42 H46 0.960 . S
C42 H47 0.961 . S
C42 H48 0.960 . S
C43 N41 1.346 . S
C43 N44 1.307 . S
C43 C45 1.486 . S
N44 N40 1.370 . S
N44 C43 1.307 . S
C45 C43 1.486 . S
C45 H49 0.960 . S
C45 H50 0.960 . S
C45 H51 0.959 . S
H46 C42 0.960 . S
H47 C42 0.961 . S
H48 C42 0.960 . S
H49 C45 0.960 . S
H50 C45 0.960 . S
H51 C45 0.959 . S
C52 N53 1.317 . S
C52 N54 1.348 1_556 S
C52 C55 1.485 . S
N53 C52 1.317 . S
N53 N57 1.370 1_556 S
N54 C52 1.348 1_554 S
N54 C56 1.346 . S
C55 C52 1.485 . S
C55 H59 0.960 . S
C55 H60 0.961 . S
C55 H61 0.960 . S
C56 N54 1.346 . S
C56 N57 1.307 . S
C56 C58 1.486 . S
N57 N53 1.370 1_554 S
N57 C56 1.307 . S
C58 C56 1.486 . S
C58 H62 0.960 . S
C58 H63 0.960 . S
C58 H64 0.959 . S
H59 C55 0.960 . S
H60 C55 0.961 . S
H61 C55 0.960 . S
H62 C58 0.960 . S
H63 C58 0.960 . S
H64 C58 0.959 . S
C65 N66 1.317 . S
C65 N67 1.348 1_556 S
C65 C68 1.485 . S
N66 C65 1.317 . S
N66 N70 1.371 1_556 S
N67 C65 1.348 1_554 S
N67 C69 1.346 1_655 S
C68 C65 1.485 . S
C68 H72 0.960 1_655 S
C68 H73 0.961 . S
C68 H74 0.960 . S
C69 N67 1.346 1_455 S
C69 N70 1.307 1_455 S
C69 C71 1.487 . S
N70 N66 1.371 1_554 S
N70 C69 1.307 1_655 S
C71 C69 1.487 . S
C71 H75 0.960 1_455 S
C71 H76 0.960 . S
C71 H77 0.959 . S
H72 C68 0.960 1_455 S
H73 C68 0.961 . S
H74 C68 0.960 . S
H75 C71 0.960 1_655 S
H76 C71 0.960 . S
H77 C71 0.959 . S
C78 N79 1.317 . S
C78 N80 1.348 1_556 S
C78 C81 1.485 . S
N79 C78 1.317 . S
N79 N83 1.371 1_556 S
N80 C78 1.348 1_554 S
N80 C82 1.346 1_565 S
C81 C78 1.485 . S
C81 H85 0.960 1_565 S
C81 H86 0.961 . S
C81 H87 0.960 . S
C82 N80 1.346 1_545 S
C82 N83 1.307 1_545 S
C82 C84 1.487 . S
N83 N79 1.371 1_554 S
N83 C82 1.307 1_565 S
C84 C82 1.487 . S
C84 H88 0.960 1_545 S
C84 H89 0.960 . S
C84 H90 0.959 . S
H85 C81 0.960 1_545 S
H86 C81 0.961 . S
H87 C81 0.960 . S
H88 C84 0.960 1_565 S
H89 C84 0.960 . S
H90 C84 0.959 . S
C91 N92 1.317 . S
C91 N93 1.348 1_556 S
C91 C94 1.485 . S
N92 C91 1.317 . S
N92 N96 1.370 1_556 S
N93 C91 1.348 1_554 S
N93 C95 1.346 . S
C94 C91 1.485 . S
C94 H98 0.960 . S
C94 H99 0.961 . S
C94 H100 0.960 . S
C95 N93 1.346 . S
C95 N96 1.307 . S
C95 C97 1.486 . S
N96 N92 1.370 1_554 S
N96 C95 1.307 . S
C97 C95 1.486 . S
C97 H101 0.960 . S
C97 H102 0.960 . S
C97 H103 0.959 . S
H98 C94 0.960 . S
H99 C94 0.961 . S
H100 C94 0.960 . S
H101 C97 0.960 . S
H102 C97 0.960 . S
H103 C97 0.959 . S
La104 C106 2.928 . S
La104 O124 2.521 . S
La104 O125 2.628 . S
La104 O126 2.554 1_554 S
La104 O127 2.757 1_564 S
La104 O128 2.470 1_554 S
La104 O133 2.482 1_455 S
La104 O135 2.503 1_565 S
La105 C115 2.928 . S
La105 O127 2.482 1_655 S
La105 O129 2.503 1_545 S
La105 O130 2.521 . S
La105 O131 2.628 . S
La105 O132 2.554 . S
La105 O133 2.757 1_546 S
La105 O134 2.470 . S
C106 La104 2.928 . S
C106 C107 1.503 . S
C106 O124 1.261 . S
C106 O125 1.243 . S
C107 C106 1.503 . S
C107 C108 1.394 . S
C107 C112 1.373 . S
C108 C107 1.394 . S
C108 C109 1.380 . S
C108 H136 0.930 . S
C109 C108 1.380 . S
C109 C110 1.376 . S
C109 H137 0.930 . S
C110 C109 1.376 . S
C110 C111 1.370 . S
C111 C110 1.370 . S
C111 C112 1.396 . S
C111 H138 0.929 . S
C112 C107 1.373 . S
C112 C111 1.396 . S
C112 H139 0.929 . S
C113 O126 1.240 . S
C113 O127 1.289 1_565 S
C114 O128 1.258 1_655 S
C114 O129 1.256 . S
C115 La105 2.928 . S
C115 C116 1.503 . S
C115 O130 1.261 . S
C115 O131 1.243 . S
C116 C115 1.503 . S
C116 C117 1.394 . S
C116 C121 1.373 . S
C117 C116 1.394 . S
C117 C118 1.380 . S
C117 H140 0.930 . S
C118 C117 1.380 . S
C118 C119 1.376 . S
C118 H141 0.930 . S
C119 C118 1.376 . S
C119 C120 1.370 . S
C120 C119 1.370 . S
C120 C121 1.396 . S
C120 H142 0.929 . S
C121 C116 1.373 . S
C121 C120 1.396 . S
C121 H143 0.929 . S
C122 O132 1.240 1_554 S
C122 O133 1.289 1_545 S
C123 O134 1.258 1_455 S
C123 O135 1.256 1_556 S
O124 La104 2.521 . S
O124 C106 1.261 . S
O125 La104 2.628 . S
O125 C106 1.243 . S
O126 La104 2.554 1_556 S
O126 C113 1.240 . S
O127 La104 2.757 1_546 S
O127 La105 2.482 1_455 S
O127 C113 1.289 1_545 S
O128 La104 2.470 1_556 S
O128 C114 1.258 1_455 S
O129 La105 2.503 1_565 S
O129 C114 1.256 . S
O130 La105 2.521 . S
O130 C115 1.261 . S
O131 La105 2.628 . S
O131 C115 1.243 . S
O132 La105 2.554 . S
O132 C122 1.240 1_556 S
O133 La104 2.482 1_655 S
O133 La105 2.757 1_564 S
O133 C122 1.289 1_565 S
O134 La105 2.470 . S
O134 C123 1.258 1_655 S
O135 La104 2.503 1_545 S
O135 C123 1.256 1_554 S
H136 C108 0.930 . S
H137 C109 0.930 . S
H138 C111 0.929 . S
H139 C112 0.929 . S
H140 C117 0.930 . S
H141 C118 0.930 . S
H142 C120 0.929 . S
H143 C121 0.929 . S
La144 C146 2.928 . S
La144 O164 2.521 . S
La144 O165 2.628 . S
La144 O166 2.554 1_554 S
La144 O167 2.757 1_554 S
La144 O168 2.470 1_554 S
La144 O173 2.482 1_545 S
La144 O175 2.503 . S
La145 C155 2.928 . S
La145 O167 2.482 1_565 S
La145 O169 2.503 . S
La145 O170 2.521 . S
La145 O171 2.628 . S
La145 O172 2.554 . S
La145 O173 2.757 1_556 S
La145 O174 2.470 . S
C146 La144 2.928 . S
C146 C147 1.503 . S
C146 O164 1.261 . S
C146 O165 1.243 . S
C147 C146 1.503 . S
C147 C148 1.394 . S
C147 C152 1.373 . S
C148 C147 1.394 . S
C148 C149 1.380 . S
C148 H176 0.930 . S
C149 C148 1.380 . S
C149 C150 1.376 . S
C149 H177 0.930 . S
C150 C149 1.376 . S
C150 C151 1.370 . S
C151 C150 1.370 . S
C151 C152 1.396 . S
C151 H178 0.929 . S
C152 C147 1.373 . S
C152 C151 1.396 . S
C152 H179 0.929 . S
C153 O166 1.240 . S
C153 O167 1.289 . S
C154 O168 1.258 1_565 S
C154 O169 1.256 . S
C155 La145 2.928 . S
C155 C156 1.503 . S
C155 O170 1.261 . S
C155 O171 1.243 . S
C156 C155 1.503 . S
C156 C157 1.394 . S
C156 C161 1.373 . S
C157 C156 1.394 . S
C157 C158 1.380 . S
C157 H180 0.930 . S
C158 C157 1.380 . S
C158 C159 1.376 . S
C158 H181 0.930 . S
C159 C158 1.376 . S
C159 C160 1.370 . S
C160 C159 1.370 . S
C160 C161 1.396 . S
C160 H182 0.929 . S
C161 C156 1.373 . S
C161 C160 1.396 . S
C161 H183 0.929 . S
C162 O172 1.240 1_554 S
C162 O173 1.289 . S
C163 O174 1.258 1_545 S
C163 O175 1.256 1_556 S
O164 La144 2.521 . S
O164 C146 1.261 . S
O165 La144 2.628 . S
O165 C146 1.243 . S
O166 La144 2.554 1_556 S
O166 C153 1.240 . S
O167 La144 2.757 1_556 S
O167 La145 2.482 1_545 S
O167 C153 1.289 . S
O168 La144 2.470 1_556 S
O168 C154 1.258 1_545 S
O169 La145 2.503 . S
O169 C154 1.256 . S
O170 La145 2.521 . S
O170 C155 1.261 . S
O171 La145 2.628 . S
O171 C155 1.243 . S
O172 La145 2.554 . S
O172 C162 1.240 1_556 S
O173 La144 2.482 1_565 S
O173 La145 2.757 1_554 S
O173 C162 1.289 . S
O174 La145 2.470 . S
O174 C163 1.258 1_565 S
O175 La144 2.503 . S
O175 C163 1.256 1_554 S
H176 C148 0.930 . S
H177 C149 0.930 . S
H178 C151 0.929 . S
H179 C152 0.929 . S
H180 C157 0.930 . S
H181 C158 0.930 . S
H182 C160 0.929 . S
H183 C161 0.929 . S
La184 C186 2.928 . S
La184 O204 2.521 . S
La184 O205 2.628 . S
La184 O206 2.554 1_554 S
La184 O207 2.757 1_554 S
La184 O208 2.470 1_554 S
La184 O213 2.482 . S
La184 O215 2.503 . S
La185 C195 2.928 . S
La185 O207 2.482 . S
La185 O209 2.503 . S
La185 O210 2.521 . S
La185 O211 2.628 . S
La185 O212 2.554 . S
La185 O213 2.757 1_556 S
La185 O214 2.470 . S
C186 La184 2.928 . S
C186 C187 1.503 . S
C186 O204 1.261 . S
C186 O205 1.243 . S
C187 C186 1.503 . S
C187 C188 1.394 . S
C187 C192 1.373 . S
C188 C187 1.394 . S
C188 C189 1.380 . S
C188 H216 0.930 . S
C189 C188 1.380 . S
C189 C190 1.376 . S
C189 H217 0.930 . S
C190 C189 1.376 . S
C190 C191 1.370 . S
C191 C190 1.370 . S
C191 C192 1.396 . S
C191 H218 0.929 . S
C192 C187 1.373 . S
C192 C191 1.396 . S
C192 H219 0.929 . S
C193 O206 1.240 . S
C193 O207 1.289 . S
C194 O208 1.258 . S
C194 O209 1.256 . S
C195 La185 2.928 . S
C195 C196 1.503 . S
C195 O210 1.261 . S
C195 O211 1.243 . S
C196 C195 1.503 . S
C196 C197 1.394 . S
C196 C201 1.373 . S
C197 C196 1.394 . S
C197 C198 1.380 . S
C197 H220 0.930 . S
C198 C197 1.380 . S
C198 C199 1.376 . S
C198 H221 0.930 . S
C199 C198 1.376 . S
C199 C200 1.370 . S
C200 C199 1.370 . S
C200 C201 1.396 . S
C200 H222 0.929 . S
C201 C196 1.373 . S
C201 C200 1.396 . S
C201 H223 0.929 . S
C202 O212 1.240 1_554 S
C202 O213 1.289 . S
C203 O214 1.258 . S
C203 O215 1.256 1_556 S
O204 La184 2.521 . S
O204 C186 1.261 . S
O205 La184 2.628 . S
O205 C186 1.243 . S
O206 La184 2.554 1_556 S
O206 C193 1.240 . S
O207 La184 2.757 1_556 S
O207 La185 2.482 . S
O207 C193 1.289 . S
O208 La184 2.470 1_556 S
O208 C194 1.258 . S
O209 La185 2.503 . S
O209 C194 1.256 . S
O210 La185 2.521 . S
O210 C195 1.261 . S
O211 La185 2.628 . S
O211 C195 1.243 . S
O212 La185 2.554 . S
O212 C202 1.240 1_556 S
O213 La184 2.482 . S
O213 La185 2.757 1_554 S
O213 C202 1.289 . S
O214 La185 2.470 . S
O214 C203 1.258 . S
O215 La184 2.503 . S
O215 C203 1.256 1_554 S
H216 C188 0.930 . S
H217 C189 0.930 . S
H218 C191 0.929 . S
H219 C192 0.929 . S
H220 C197 0.930 . S
H221 C198 0.930 . S
H222 C200 0.929 . S
H223 C201 0.929 . S
La224 C226 2.928 . S
La224 O244 2.521 . S
La224 O245 2.628 . S
La224 O246 2.554 1_554 S
La224 O247 2.757 1_654 S
La224 O248 2.470 1_554 S
La224 O253 2.482 . S
La224 O255 2.503 1_655 S
La225 C235 2.928 . S
La225 O247 2.482 . S
La225 O249 2.503 1_455 S
La225 O250 2.521 . S
La225 O251 2.628 . S
La225 O252 2.554 . S
La225 O253 2.757 1_456 S
La225 O254 2.470 . S
C226 La224 2.928 . S
C226 C227 1.503 . S
C226 O244 1.261 . S
C226 O245 1.243 . S
C227 C226 1.503 . S
C227 C228 1.394 . S
C227 C232 1.373 . S
C228 C227 1.394 . S
C228 C229 1.380 . S
C228 H256 0.930 . S
C229 C228 1.380 . S
C229 C230 1.376 . S
C229 H257 0.930 . S
C230 C229 1.376 . S
C230 C231 1.370 . S
C231 C230 1.370 . S
C231 C232 1.396 . S
C231 H258 0.929 . S
C232 C227 1.373 . S
C232 C231 1.396 . S
C232 H259 0.929 . S
C233 O246 1.245 . S
C233 O247 1.286 1_655 S
C234 O248 1.258 . S
C234 O249 1.256 . S
C235 La225 2.928 . S
C235 C236 1.503 . S
C235 O250 1.261 . S
C235 O251 1.243 . S
C236 C235 1.503 . S
C236 C237 1.394 . S
C236 C241 1.373 . S
C237 C236 1.394 . S
C237 C238 1.380 . S
C237 H260 0.930 . S
C238 C237 1.380 . S
C238 C239 1.376 . S
C238 H261 0.930 . S
C239 C238 1.376 . S
C239 C240 1.370 . S
C240 C239 1.370 . S
C240 C241 1.396 . S
C240 H262 0.929 . S
C241 C236 1.373 . S
C241 C240 1.396 . S
C241 H263 0.929 . S
C242 O252 1.246 1_554 S
C242 O253 1.285 1_455 S
C243 O254 1.258 . S
C243 O255 1.256 1_556 S
O244 La224 2.521 . S
O244 C226 1.261 . S
O245 La224 2.628 . S
O245 C226 1.243 . S
O246 La224 2.554 1_556 S
O246 C233 1.245 . S
O247 La224 2.757 1_456 S
O247 La225 2.482 . S
O247 C233 1.286 1_455 S
O248 La224 2.470 1_556 S
O248 C234 1.258 . S
O249 La225 2.503 1_655 S
O249 C234 1.256 . S
O250 La225 2.521 . S
O250 C235 1.261 . S
O251 La225 2.628 . S
O251 C235 1.243 . S
O252 La225 2.554 . S
O252 C242 1.246 1_556 S
O253 La224 2.482 . S
O253 La225 2.757 1_654 S
O253 C242 1.285 1_655 S
O254 La225 2.470 . S
O254 C243 1.258 . S
O255 La224 2.503 1_455 S
O255 C243 1.256 1_554 S
H256 C228 0.930 . S
H257 C229 0.930 . S
H258 C231 0.929 . S
H259 C232 0.929 . S
H260 C237 0.930 . S
H261 C238 0.930 . S
H262 C240 0.929 . S
H263 C241 0.929 . S
N80 C113 2.965 1_554 S
C153 N93 2.992 1_556 S
C193 N54 2.997 1_556 S
C233 N67 2.934 1_556 S
C122 N28 2.970 1_544 S
N41 C162 2.981 1_556 S
N2 C202 2.983 1_556 S
N15 C242 2.934 1_656 S
C119 N70 2.858 . S
C159 N83 2.672 . S
C199 N96 2.594 . S
N57 C239 2.742 . S
N18 C110 2.866 1_655 S
C150 N31 2.680 1_545 S
C190 N44 2.618 . S
N5 C230 2.766 . S
N66 C123 4.091 1_655 S
N79 C163 4.009 1_565 S
C203 N92 4.018 . S
C243 N53 4.094 . S
N14 C114 4.072 . S
C154 N27 3.984 . S
C194 N40 3.976 . S
N1 C234 4.059 . S
