# Generated by pormake.
# Topology zzz, (3,6)-cn, num edge types: 1
# Building blocks:
#     Node 0, Type 0, BuildingBlock: BELTOD_clean_linker_0, # of connection points: 3
#     Node 1, Type 0, BuildingBlock: BELTOD_clean_linker_0, # of connection points: 3
#     Node 2, Type 0, BuildingBlock: BELTOD_clean_linker_0, # of connection points: 3
#     Node 3, Type 0, BuildingBlock: BELTOD_clean_linker_0, # of connection points: 3
#     Node 4, Type 0, BuildingBlock: BELTOD_clean_linker_0, # of connection points: 3
#     Node 5, Type 0, BuildingBlock: BELTOD_clean_linker_0, # of connection points: 3
#     Node 6, Type 0, BuildingBlock: BELTOD_clean_linker_0, # of connection points: 3
#     Node 7, Type 0, BuildingBlock: BELTOD_clean_linker_0, # of connection points: 3
#     Node 8, Type 1, BuildingBlock: GEDQOX_clean_sbu_0, # of connection points: 6
#     Node 9, Type 1, BuildingBlock: GEDQOX_clean_sbu_0, # of connection points: 6
#     Node 10, Type 1, BuildingBlock: GEDQOX_clean_sbu_0, # of connection points: 6
#     Node 11, Type 1, BuildingBlock: GEDQOX_clean_sbu_0, # of connection points: 6
#     Edge 12, Type (0, 1), BuildingBlock: XIVTED_clean_linker_0, # of connection points: 2
#     Edge 13, Type (0, 1), BuildingBlock: XIVTED_clean_linker_0, # of connection points: 2
#     Edge 14, Type (0, 1), BuildingBlock: XIVTED_clean_linker_0, # of connection points: 2
#     Edge 15, Type (0, 1), BuildingBlock: XIVTED_clean_linker_0, # of connection points: 2
#     Edge 16, Type (0, 1), BuildingBlock: XIVTED_clean_linker_0, # of connection points: 2
#     Edge 17, Type (0, 1), BuildingBlock: XIVTED_clean_linker_0, # of connection points: 2
#     Edge 18, Type (0, 1), BuildingBlock: XIVTED_clean_linker_0, # of connection points: 2
#     Edge 19, Type (0, 1), BuildingBlock: XIVTED_clean_linker_0, # of connection points: 2
#     Edge 20, Type (0, 1), BuildingBlock: XIVTED_clean_linker_0, # of connection points: 2
#     Edge 21, Type (0, 1), BuildingBlock: XIVTED_clean_linker_0, # of connection points: 2
#     Edge 22, Type (0, 1), BuildingBlock: XIVTED_clean_linker_0, # of connection points: 2
#     Edge 23, Type (0, 1), BuildingBlock: XIVTED_clean_linker_0, # of connection points: 2
#     Edge 24, Type (0, 1), BuildingBlock: XIVTED_clean_linker_0, # of connection points: 2
#     Edge 25, Type (0, 1), BuildingBlock: XIVTED_clean_linker_0, # of connection points: 2
#     Edge 26, Type (0, 1), BuildingBlock: XIVTED_clean_linker_0, # of connection points: 2
#     Edge 27, Type (0, 1), BuildingBlock: XIVTED_clean_linker_0, # of connection points: 2
#     Edge 28, Type (0, 1), BuildingBlock: XIVTED_clean_linker_0, # of connection points: 2
#     Edge 29, Type (0, 1), BuildingBlock: XIVTED_clean_linker_0, # of connection points: 2
#     Edge 30, Type (0, 1), BuildingBlock: XIVTED_clean_linker_0, # of connection points: 2
#     Edge 31, Type (0, 1), BuildingBlock: XIVTED_clean_linker_0, # of connection points: 2
#     Edge 32, Type (0, 1), BuildingBlock: XIVTED_clean_linker_0, # of connection points: 2
#     Edge 33, Type (0, 1), BuildingBlock: XIVTED_clean_linker_0, # of connection points: 2
#     Edge 34, Type (0, 1), BuildingBlock: XIVTED_clean_linker_0, # of connection points: 2
#     Edge 35, Type (0, 1), BuildingBlock: XIVTED_clean_linker_0, # of connection points: 2
# Relax obj value: 0.288
# Max RMSD: 0.263
# Mean RMSD: 0.185
data_MOF--net-zzz--node1-GEDQOX_clean_sbu_0--node2-BELTOD_clean_linker_0--edge1-XIVTED_clean_linker_0
_symmetry_space_group_name_H-M    P1
_symmetry_Int_Tables_number       1
_symmetry_cell_setting            triclinic
loop_
_symmetry_equiv_pos_as_xyz
'x, y, z'
_cell_length_a     58.937819
_cell_length_b     54.840422
_cell_length_c     20.555223
_cell_angle_alpha  81.525236
_cell_angle_beta   90.852087
_cell_angle_gamma 102.53004
loop_
_atom_site_label
_atom_site_type_symbol
_atom_site_fract_x
_atom_site_fract_y
_atom_site_fract_z
_atom_type_partial_charge
P0 P 0.75249 0.39757 0.17261 0.0
H1 H 0.75675 0.39963 0.3144 0.0
H2 H 0.7834 0.42774 0.37733 0.0
H3 H 0.8124 0.47331 0.19571 0.0
H4 H 0.78632 0.44478 0.13352 0.0
H5 H 0.70431 0.37132 0.15918 0.0
H6 H 0.66947 0.38595 0.12025 0.0
H7 H 0.71008 0.46238 0.07905 0.0
H8 H 0.74483 0.44758 0.11713 0.0
H9 H 0.79357 0.37682 0.17514 0.0
H10 H 0.75317 0.41197 0.02805 0.0
O11 O 0.74445 0.36971 0.22054 0.0
H12 H 0.8242 0.38064 0.09389 0.0
H13 H 0.78342 0.41513 0.94553 0.0
C14 C 0.76982 0.41991 0.21937 0.0
C15 C 0.76874 0.41578 0.28827 0.0
C16 C 0.78388 0.43199 0.32416 0.0
C17 C 0.80023 0.45263 0.29153 0.0
C18 C 0.80038 0.45731 0.2224 0.0
C19 C 0.78535 0.44108 0.18674 0.0
C20 C 0.72706 0.40843 0.14235 0.0
C21 C 0.7057 0.39123 0.1419 0.0
C22 C 0.68579 0.39962 0.11977 0.0
C23 C 0.68698 0.42537 0.09709 0.0
C24 C 0.7086 0.44243 0.09587 0.0
C25 C 0.72847 0.43401 0.11826 0.0
C26 C 0.77114 0.39411 0.10774 0.0
C27 C 0.79094 0.38454 0.12467 0.0
C28 C 0.80845 0.38667 0.07789 0.0
C29 C 0.80643 0.39842 0.01306 0.0
C30 C 0.78573 0.40639 0.99525 0.0
C31 C 0.76829 0.40441 0.04236 0.0
P32 P 0.00228 0.71677 0.32093 0.0
H33 H 0.01464 0.72918 0.45155 0.0
H34 H 0.99551 0.74916 0.52586 0.0
H35 H 0.93341 0.7375 0.4098 0.0
H36 H 0.95289 0.71726 0.33499 0.0
H37 H 0.00548 0.66403 0.35163 0.0
H38 H 0.99573 0.62887 0.28854 0.0
H39 H 0.96139 0.6738 0.14542 0.0
H40 H 0.97118 0.70892 0.20906 0.0
H41 H 0.98945 0.76641 0.31326 0.0
H42 H 0.0259 0.72866 0.19257 0.0
O43 O 0.02836 0.71347 0.34873 0.0
H44 H 0.99438 0.80264 0.22773 0.0
H45 H 0.03126 0.76564 0.10628 0.0
C46 C 0.98517 0.72164 0.38782 0.0
C47 C 0.99658 0.72986 0.44349 0.0
C48 C 0.98556 0.74136 0.48614 0.0
C49 C 0.96299 0.7452 0.4734 0.0
C50 C 0.95088 0.73502 0.42057 0.0
C51 C 0.96188 0.72317 0.37825 0.0
C52 C 0.98957 0.68924 0.28414 0.0
C53 C 0.99538 0.66611 0.30751 0.0
C54 C 0.98972 0.64598 0.27144 0.0
C55 C 0.97814 0.64871 0.21133 0.0
C56 C 0.97072 0.67131 0.19087 0.0
C57 C 0.97623 0.69135 0.22734 0.0
C58 C 0.00684 0.7444 0.25893 0.0
C59 C -0.00169 0.76564 0.26827 0.0
C60 C 0.00114 0.78651 0.21911 0.0
C61 C 0.01289 0.78679 0.16002 0.0
C62 C 0.02206 0.76585 0.15136 0.0
C63 C 0.01899 0.74477 0.20048 0.0
P64 P 0.7858 0.07066 0.18039 0.0
H65 H 0.77993 0.06844 0.32283 0.0
H66 H 0.75134 0.04172 0.40226 0.0
H67 H 0.72306 0.99683 0.25186 0.0
H68 H 0.75118 0.02427 0.17228 0.0
H69 H 0.83031 0.0962 0.11893 0.0
H70 H 0.86263 0.0811 0.07793 0.0
H71 H 0.82579 0.00402 0.13878 0.0
H72 H 0.79383 0.01931 0.18098 0.0
H73 H 0.74573 0.0934 0.17102 0.0
H74 H 0.78456 0.06156 0.042 0.0
O75 O 0.79615 0.09741 0.21078 0.0
H76 H 0.71616 0.09581 0.08775 0.0
H77 H 0.75556 0.06485 0.95723 0.0
C78 C 0.76755 0.04844 0.24161 0.0
C79 C 0.76776 0.05266 0.3072 0.0
C80 C 0.75144 0.03723 0.35272 0.0
C81 C 0.7347 0.0172 0.33342 0.0
C82 C 0.73537 0.01235 0.2682 0.0
C83 C 0.75158 0.02789 0.22273 0.0
C84 C 0.80988 0.05893 0.15416 0.0
C85 C 0.82933 0.07606 0.1241 0.0
C86 C 0.84767 0.06737 0.10001 0.0
C87 C 0.84681 0.04132 0.10504 0.0
C88 C 0.82717 0.02419 0.13498 0.0
C89 C 0.80882 0.03294 0.15906 0.0
C90 C 0.7673 0.07732 0.1128 0.0
C91 C 0.74822 0.08765 0.1239 0.0
C92 C 0.73138 0.08915 0.07592 0.0
C93 C 0.73336 0.0804 0.01567 0.0
C94 C 0.75328 0.07139 1.00341 0.0
C95 C 0.77001 0.06968 0.05178 0.0
P96 P 0.51379 0.77384 0.49632 0.0
H97 H 0.53001 0.77329 0.63196 0.0
H98 H 0.54742 0.74233 0.70075 0.0
H99 H 0.56133 0.71128 0.52768 0.0
H100 H 0.54528 0.74332 0.45929 0.0
H101 H 0.50674 0.82489 0.49526 0.0
H102 H 0.51294 0.86152 0.41009 0.0
H103 H 0.55003 0.82374 0.29108 0.0
H104 H 0.54459 0.78727 0.3787 0.0
H105 H 0.49404 0.72054 0.53601 0.0
H106 H 0.49741 0.77416 0.35831 0.0
O107 O 0.49518 0.77875 0.55089 0.0
H108 H 0.47999 0.68595 0.47331 0.0
H109 H 0.48406 0.73961 0.2952 0.0
C110 C 0.53573 0.76012 0.54074 0.0
C111 C 0.53773 0.76053 0.60856 0.0
C112 C 0.54742 0.7425 0.64801 0.0
C113 C 0.55487 0.72347 0.62033 0.0
C114 C 0.55565 0.72537 0.55124 0.0
C115 C 0.54641 0.74379 0.51176 0.0
C116 C 0.52476 0.80311 0.44273 0.0
C117 C 0.51676 0.82464 0.45175 0.0
C118 C 0.52013 0.84556 0.40253 0.0
C119 C 0.53126 0.84525 0.34269 0.0
C120 C 0.54124 0.82457 0.33633 0.0
C121 C 0.53816 0.8037 0.38639 0.0
C122 C 0.49788 0.74985 0.45148 0.0
C123 C 0.49154 0.72492 0.48362 0.0
C124 C 0.4836 0.70515 0.44772 0.0
C125 C 0.48157 0.71004 0.37909 0.0
C126 C 0.48567 0.73524 0.34797 0.0
C127 C 0.49366 0.75504 0.38404 0.0
P128 P 0.24726 0.49424 0.60516 0.0
H129 H 0.23023 0.45195 0.53302 0.0
H130 H 0.21449 0.45065 0.42319 0.0
H131 H 0.2387 0.53157 0.37686 0.0
H132 H 0.25393 0.53277 0.48792 0.0
H133 H 0.27204 0.46629 0.70244 0.0
H134 H 0.31272 0.47134 0.73108 0.0
H135 H 0.33004 0.53783 0.58419 0.0
H136 H 0.28891 0.53235 0.55481 0.0
H137 H 0.20644 0.51237 0.55681 0.0
H138 H 0.25722 0.52744 0.70723 0.0
O139 O 0.23301 0.46703 0.64762 0.0
H140 H 0.18396 0.53906 0.59785 0.0
H141 H 0.23448 0.55449 0.74935 0.0
C142 C 0.24286 0.49251 0.51897 0.0
C143 C 0.23273 0.46935 0.49876 0.0
C144 C 0.22383 0.46861 0.43558 0.0
C145 C 0.22496 0.49108 0.39158 0.0
C146 C 0.23717 0.514 0.41005 0.0
C147 C 0.2461 0.51468 0.4733 0.0
C148 C 0.27747 0.49878 0.62594 0.0
C149 C 0.2845 0.48197 0.67618 0.0
C150 C 0.30783 0.48502 0.69299 0.0
C151 C 0.32465 0.50507 0.66015 0.0
C152 C 0.31753 0.52206 0.60998 0.0
C153 C 0.29405 0.51899 0.59321 0.0
C154 C 0.23385 0.51837 0.62784 0.0
C155 C 0.21327 0.52222 0.59721 0.0
C156 C 0.20038 0.53765 0.62079 0.0
C157 C 0.2075 0.54917 0.67662 0.0
C158 C 0.22857 0.54594 0.70613 0.0
C159 C 0.24163 0.53058 0.68196 0.0
P160 P 0.10431 0.30254 0.42067 0.0
H161 H 0.13855 0.29149 0.33507 0.0
H162 H 0.1332 0.26792 0.24296 0.0
H163 H 0.06151 0.27476 0.23058 0.0
H164 H 0.06694 0.2979 0.32458 0.0
H165 H 0.12518 0.35482 0.43538 0.0
H166 H 0.10934 0.38774 0.4744 0.0
H167 H 0.04019 0.34082 0.47489 0.0
H168 H 0.05625 0.30779 0.43643 0.0
H169 H 0.09113 0.24945 0.39876 0.0
H170 H 0.0846 0.29246 0.55477 0.0
O171 O 0.13191 0.30802 0.44463 0.0
H172 H 0.0697 0.21145 0.4648 0.0
H173 H 0.06277 0.25402 0.62154 0.0
C174 C 0.10317 0.29656 0.33672 0.0
C175 C 0.12194 0.28896 0.31082 0.0
C176 C 0.11882 0.27533 0.25789 0.0
C177 C 0.09677 0.26896 0.22997 0.0
C178 C 0.0786 0.27889 0.25179 0.0
C179 C 0.08176 0.29251 0.30492 0.0
C180 C 0.09193 0.32873 0.43398 0.0
C181 C 0.10656 0.35179 0.44267 0.0
C182 C 0.09745 0.37065 0.46485 0.0
C183 C 0.07352 0.36676 0.4787 0.0
C184 C 0.05874 0.3442 0.46587 0.0
C185 C 0.06788 0.32541 0.4433 0.0
C186 C 0.08888 0.27414 0.4708 0.0
C187 C 0.0848 0.25094 0.44677 0.0
C188 C 0.07239 0.22908 0.48463 0.0
C189 C 0.0641 0.22981 0.54783 0.0
C190 C 0.06881 0.25291 0.57278 0.0
C191 C 0.0812 0.27488 0.53459 0.0
P192 P 0.2964 0.07284 0.59672 0.0
H193 H 0.33277 0.11486 0.53861 0.0
H194 H 0.35754 0.12109 0.44115 0.0
H195 H 0.31736 0.05188 0.3845 0.0
H196 H 0.29208 0.04631 0.48129 0.0
H197 H 0.26625 0.04353 0.70243 0.0
H198 H 0.22442 0.02973 0.71513 0.0
H199 H 0.21643 0.06023 0.51179 0.0
H200 H 0.25881 0.07485 0.50025 0.0
H201 H 0.32745 0.07603 0.70918 0.0
H202 H 0.29676 0.0203 0.58736 0.0
O203 O 0.30057 0.09905 0.63161 0.0
H204 H 0.34873 0.04638 0.76823 0.0
H205 H 0.31827 0.9905 0.64606 0.0
C206 C 0.31035 0.0803 0.51676 0.0
C207 C 0.32881 0.10142 0.50419 0.0
C208 C 0.3432 0.10478 0.4488 0.0
C209 C 0.33967 0.08684 0.40528 0.0
C210 C 0.32049 0.06622 0.41653 0.0
C211 C 0.306 0.06297 0.47195 0.0
C212 C 0.26567 0.05963 0.59994 0.0
C213 C 0.25557 0.04679 0.66003 0.0
C214 C 0.23154 0.0388 0.66717 0.0
C215 C 0.21693 0.04357 0.61431 0.0
C216 C 0.22714 0.05631 0.55363 0.0
C217 C 0.25136 0.06444 0.54667 0.0
C218 C 0.31065 0.05039 0.64374 0.0
C219 C 0.32509 0.05732 0.6956 0.0
C220 C 0.33711 0.04026 0.72965 0.0
C221 C 0.33506 0.01606 0.71193 0.0
C222 C 0.32022 0.00903 0.66059 0.0
C223 C 0.308 0.02605 0.627 0.0
P224 P 0.4218 0.20091 0.29479 0.0
H225 H 0.40038 0.21405 0.16874 0.0
H226 H 0.41357 0.24881 0.08007 0.0
H227 H 0.48228 0.26153 0.16249 0.0
H228 H 0.46911 0.22613 0.24971 0.0
H229 H 0.40594 0.16489 0.40929 0.0
H230 H 0.42279 0.13298 0.47349 0.0
H231 H 0.47459 0.14163 0.31963 0.0
H232 H 0.45822 0.17524 0.25756 0.0
H233 H 0.40546 0.24529 0.31998 0.0
H234 H 0.46026 0.20731 0.38721 0.0
O235 O 0.39281 0.19453 0.29259 0.0
H236 H 0.42203 0.27966 0.38206 0.0
H237 H 0.47684 0.24135 0.44843 0.0
C238 C 0.4337 0.21754 0.21624 0.0
C239 C 0.41854 0.22357 0.16625 0.0
C240 C 0.42605 0.24376 0.11593 0.0
C241 C 0.44883 0.25851 0.11511 0.0
C242 C 0.46463 0.25067 0.16136 0.0
C243 C 0.45712 0.2303 0.21138 0.0
C244 C 0.43077 0.17237 0.32867 0.0
C245 C 0.42061 0.1595 0.3886 0.0
C246 C 0.43034 0.14103 0.42539 0.0
C247 C 0.45034 0.13455 0.40255 0.0
C248 C 0.45958 0.14643 0.33995 0.0
C249 C 0.45003 0.16542 0.30366 0.0
C250 C 0.43121 0.22341 0.35036 0.0
C251 C 0.42067 0.24402 0.34942 0.0
C252 C 0.4303 0.26374 0.38428 0.0
C253 C 0.45072 0.26317 0.42029 0.0
C254 C 0.46086 0.24214 0.42229 0.0
C255 C 0.45131 0.22257 0.38726 0.0
Nd256 Nd 0.00313 0.99656 0.78779 0.0
Nd257 Nd 0.03672 0.01412 0.89026 0.0
C258 C 0.96862 0.97159 0.72326 0.0
C259 C 0.96276 0.94597 0.70561 0.0
C260 C 0.94257 0.93818 0.67057 0.0
C261 C 0.93749 0.91413 0.65145 0.0
C262 C 0.95256 0.89747 0.66715 0.0
C263 C 0.97261 0.90533 0.70334 0.0
C264 C 0.97766 0.92934 0.72232 0.0
C265 C 0.04877 0.00739 0.74679 0.0
C266 C 0.02399 0.95515 0.89219 0.0
C267 C 0.06988 0.03987 0.95694 0.0
C268 C 0.07232 0.06463 0.97883 0.0
C269 C 0.09319 0.07637 0.0052 0.0
C270 C 0.0953 0.10001 0.02568 0.0
C271 C 0.07651 0.11225 0.02006 0.0
C272 C 0.05571 0.10043 0.99282 0.0
C273 C 0.05364 0.07686 0.97247 0.0
C274 C 0.99083 0.00423 0.93001 0.0
C275 C 0.0176 0.05602 0.78384 0.0
O276 O 0.96741 0.97311 0.78597 0.0
O277 O 0.98722 0.98644 0.69437 0.0
O278 O 0.03207 0.0128 0.70954 0.0
O279 O 0.0411 0.99571 0.80218 0.0
O280 O 0.00614 0.95984 0.8565 0.0
O281 O 0.04123 0.97362 0.90371 0.0
O282 O 0.07104 0.04033 0.89326 0.0
O283 O 0.05292 0.02209 0.985 0.0
O284 O 0.00732 0.99827 0.96724 0.0
O285 O -0.00113 0.01566 0.87478 0.0
O286 O 0.03442 0.05081 0.82282 0.0
O287 O 0.00055 0.038 0.76843 0.0
H288 H 0.93085 0.95078 0.65742 0.0
H289 H 0.92179 0.90861 0.62428 0.0
H290 H 0.98482 0.89323 0.71539 0.0
H291 H 0.99341 0.93509 0.7491 0.0
H292 H 0.1078 0.0672 0.01028 0.0
H293 H 0.11147 0.10847 0.04707 0.0
H294 H 0.04104 0.10946 0.9868 0.0
H295 H 0.03742 0.06813 0.95173 0.0
Nd296 Nd 0.53417 0.98644 0.82599 0.0
Nd297 Nd 0.52101 0.03017 0.89754 0.0
C298 C 0.54969 0.94761 0.79757 0.0
C299 C 0.56636 0.9461 0.74627 0.0
C300 C 0.5844 0.93339 0.76231 0.0
C301 C 0.60229 0.93513 0.71663 0.0
C302 C 0.60242 0.94963 0.65408 0.0
C303 C 0.58383 0.96155 0.63751 0.0
C304 C 0.56606 0.95988 0.68311 0.0
C305 C 0.52562 0.02554 0.73402 0.0
C306 C 0.5755 0.03451 0.85135 0.0
C307 C 0.51165 0.07023 0.93926 0.0
C308 C 0.4934 0.07448 0.98147 0.0
C309 C 0.49656 0.09693 0.00862 0.0
C310 C 0.47969 0.10058 0.05123 0.0
C311 C 0.45935 0.0818 0.06733 0.0
C312 C 0.45621 0.0594 0.03931 0.0
C313 C 0.47311 0.05575 0.99693 0.0
C314 C 0.52082 0.98501 0.97605 0.0
C315 C 0.47988 0.98592 0.85709 0.0
O316 O 0.55861 0.9607 0.84374 0.0
O317 O 0.52963 0.95226 0.77734 0.0
O318 O 0.53187 0.00592 0.71793 0.0
O319 O 0.52533 0.02373 0.79549 0.0
O320 O 0.56987 0.01241 0.83017 0.0
O321 O 0.56013 0.0452 0.87609 0.0
O322 O 0.50494 0.06344 0.88219 0.0
O323 O 0.52611 0.05733 0.96899 0.0
O324 O 0.50676 0.99955 0.98452 0.0
O325 O 0.53526 0.99531 0.93018 0.0
O326 O 0.48596 0.00997 0.86467 0.0
O327 O 0.49509 0.9717 0.85133 0.0
H328 H 0.58507 0.92284 0.81095 0.0
H329 H 0.61626 0.92555 0.73072 0.0
H330 H 0.58354 0.97323 0.5903 0.0
H331 H 0.55257 0.97021 0.66965 0.0
H332 H 0.51216 0.11155 0.99731 0.0
H333 H 0.48254 0.11814 0.07142 0.0
H334 H 0.44094 0.0444 0.05138 0.0
H335 H 0.47048 0.03816 0.97686 0.0
Nd336 Nd 0.50054 0.49656 0.92248 0.0
Nd337 Nd 0.53149 0.48839 0.81479 0.0
C338 C 0.47028 0.51179 0.99189 0.0
C339 C 0.47075 0.53336 0.02664 0.0
C340 C 0.4501 0.53719 0.05206 0.0
C341 C 0.45061 0.55714 0.08764 0.0
C342 C 0.47184 0.57342 0.09851 0.0
C343 C 0.49244 0.56979 0.07151 0.0
C344 C 0.49188 0.54995 0.03567 0.0
C345 C 0.54275 0.48796 0.96531 0.0
C346 C 0.53568 0.54561 0.836 0.0
C347 C 0.55807 0.47152 0.73791 0.0
C348 C 0.55148 0.45268 0.69298 0.0
C349 C 0.56322 0.43295 0.69425 0.0
C350 C 0.55489 0.4131 0.65848 0.0
C351 C 0.53473 0.41278 0.62078 0.0
C352 C 0.52349 0.43301 0.61806 0.0
C353 C 0.53169 0.45267 0.65399 0.0
C354 C 0.48814 0.49499 0.77474 0.0
C355 C 0.49819 0.4393 0.90553 0.0
O356 O 0.47216 0.51695 0.92776 0.0
O357 O 0.48295 0.49602 0.01709 0.0
O358 O 0.52369 0.48026 1.00015 0.0
O359 O 0.53961 0.50153 0.91233 0.0
O360 O 0.51607 0.53696 0.87041 0.0
O361 O 0.54775 0.53008 0.81748 0.0
O362 O 0.55482 0.4627 0.80051 0.0
O363 O 0.55129 0.49275 0.72163 0.0
O364 O 0.50669 0.50352 0.73838 0.0
O365 O 0.49261 0.4821 0.82697 0.0
O366 O 0.51807 0.4482 0.8725 0.0
O367 O 0.48535 0.45469 0.92055 0.0
H368 H 0.43365 0.52453 0.04525 0.0
H369 H 0.43451 0.55939 0.10827 0.0
H370 H 0.50899 0.58226 0.07834 0.0
H371 H 0.50797 0.54734 0.01573 0.0
H372 H 0.57837 0.43248 0.72455 0.0
H373 H 0.56398 0.39781 0.66116 0.0
H374 H 0.5077 0.43311 0.59047 0.0
H375 H 0.52199 0.46738 0.65304 0.0
Nd376 Nd 0.00257 0.5256 0.77749 0.0
Nd377 Nd 0.01591 0.48599 0.87522 0.0
C378 C 0.97976 0.55611 0.70594 0.0
C379 C 0.96153 0.55029 0.65745 0.0
C380 C 0.94362 0.56358 0.64873 0.0
C381 C 0.92551 0.55664 0.60559 0.0
C382 C 0.92522 0.53643 0.57039 0.0
C383 C 0.94325 0.52326 0.57936 0.0
C384 C 0.96112 0.53001 0.6227 0.0
C385 C 0.02012 0.49097 0.72111 0.0
C386 C 0.96357 0.47364 0.83242 0.0
C387 C 0.03822 0.45418 0.94428 0.0
C388 C 0.05924 0.45845 0.98388 0.0
C389 C 0.06897 0.43826 0.01168 0.0
C390 C 0.08899 0.44267 0.04958 0.0
C391 C 0.09963 0.46739 0.05983 0.0
C392 C 0.08986 0.48754 0.03083 0.0
C393 C 0.06977 0.48307 0.99376 0.0
C394 C -0.00204 0.52056 0.93095 0.0
C395 C 0.05484 0.53818 0.82197 0.0
O396 O 0.97393 0.54633 0.76686 0.0
O397 O 0.00042 0.55364 0.68966 0.0
O398 O 0.02437 0.51488 0.69913 0.0
O399 O 0.00606 0.48568 0.76931 0.0
O400 O 0.96768 0.49798 0.80926 0.0
O401 O 0.98067 0.4626 0.85249 0.0
O402 O 0.04147 0.46147 0.88098 0.0
O403 O 0.02029 0.46089 0.96718 0.0
O404 O 0.9935 0.49656 0.95255 0.0
O405 O 0.01229 0.52589 0.88337 0.0
O406 O 0.05069 0.5139 0.84566 0.0
O407 O 0.0379 0.54922 0.80013 0.0
H408 H 0.9435 0.57906 0.67584 0.0
H409 H 0.91181 0.5671 0.59957 0.0
H410 H 0.94326 0.50728 0.55401 0.0
H411 H 0.97447 0.51909 0.6298 0.0
H412 H 0.06099 0.41912 0.00457 0.0
H413 H 0.09583 0.42667 0.07187 0.0
H414 H 0.09773 0.50685 0.03655 0.0
H415 H 0.06237 0.49886 0.97289 0.0
H416 H 0.18413 0.0699 0.56436 0.0
H417 H 0.08359 0.98767 0.80775 0.0
H418 H 0.19095 1.00121 0.6885 0.0
H419 H 0.06929 0.03687 0.63552 0.0
H420 H 0.124 0.99495 0.76983 0.0
H421 H 0.14263 0.06006 0.5924 0.0
C422 C 0.17691 0.05257 0.59667 0.0
C423 C 0.19122 0.03651 0.62459 0.0
C424 C 0.11199 0.00405 0.74014 0.0
C425 C 0.14383 0.02554 0.65817 0.0
C426 C 0.08899 1.0 0.76192 0.0
C427 C 0.07315 0.01166 0.72455 0.0
C428 C 0.11929 0.0202 0.68113 0.0
C429 C 0.081 0.02747 0.66557 0.0
C430 C 0.15323 0.04708 0.61301 0.0
C431 C 0.1808 0.0145 0.66697 0.0
N432 N 0.1036 0.03143 0.64581 0.0
N433 N 0.15784 0.00983 0.68299 0.0
H434 H 0.49732 0.13472 0.40927 0.0
H435 H 0.49125 0.04997 0.75501 0.0
H436 H 0.43108 0.09456 0.49801 0.0
H437 H 0.53891 0.04216 0.60631 0.0
H438 H 0.47299 0.07613 0.67141 0.0
H439 H 0.51667 0.10891 0.4894 0.0
C440 C 0.48671 0.12039 0.44469 0.0
C441 C 0.46234 0.11719 0.44659 0.0
C442 C 0.48762 0.06886 0.6575 0.0
C443 C 0.48476 0.08852 0.54049 0.0
C444 C 0.49816 0.05423 0.70513 0.0
C445 C 0.51663 0.04409 0.68729 0.0
C446 C 0.49606 0.07386 0.59229 0.0
C447 C 0.52471 0.04974 0.62178 0.0
C448 C 0.49789 0.10588 0.49089 0.0
C449 C 0.44986 0.09848 0.49528 0.0
N450 N 0.51449 0.06445 0.57655 0.0
N451 N 0.46121 0.08517 0.54079 0.0
H452 H 0.34284 0.49846 0.78311 0.0
H453 H 0.47449 0.51845 0.65855 0.0
H454 H 0.36311 0.51744 0.5778 0.0
H455 H 0.44869 0.48013 0.85027 0.0
H456 H 0.4351 0.52403 0.63031 0.0
H457 H 0.3831 0.49807 0.81108 0.0
C458 C 0.35577 0.50257 0.74385 0.0
C459 C 0.3495 0.5076 0.67788 0.0
C460 C 0.43812 0.51447 0.67857 0.0
C461 C 0.39577 0.50741 0.70974 0.0
C462 C 0.46054 0.51129 0.69466 0.0
C463 C 0.46474 0.49876 0.75671 0.0
C464 C 0.41995 0.50526 0.7252 0.0
C465 C 0.44616 0.48987 0.80184 0.0
C466 C 0.37878 0.5024 0.7599 0.0
C467 C 0.36715 0.5135 0.6293 0.0
N468 N 0.42459 0.49332 0.78522 0.0
N469 N 0.38949 0.51308 0.64616 0.0
H470 H 0.08488 0.41856 0.45128 0.0
H471 H 0.00862 0.43932 0.75027 0.0
H472 H 0.04167 0.35738 0.58008 0.0
H473 H 0.04839 0.50006 0.61286 0.0
H474 H 0.02072 0.40884 0.68953 0.0
H475 H 0.07171 0.44867 0.51026 0.0
C476 C 0.07257 0.41145 0.49186 0.0
C477 C 0.06437 0.38538 0.51067 0.0
C478 C 0.02677 0.42884 0.67262 0.0
C479 C 0.04919 0.41978 0.57862 0.0
C480 C 0.0199 0.4462 0.70735 0.0
C481 C 0.02748 0.47219 0.68636 0.0
C482 C 0.04138 0.43758 0.61672 0.0
C483 C 0.04211 0.48016 0.63058 0.0
C484 C 0.065 0.42866 0.52545 0.0
C485 C 0.04824 0.3773 0.56326 0.0
N486 N 0.04858 0.46294 0.59773 0.0
N487 N 0.04127 0.39441 0.59555 0.0
H488 H 0.86594 1.00184 0.16027 0.0
H489 H 0.9728 0.98625 0.05358 0.0
H490 H 0.87209 0.05966 0.99058 0.0
H491 H 0.95677 0.02433 0.86527 0.0
H492 H 0.93661 0.99179 0.09884 0.0
H493 H 0.89881 0.98803 0.11875 0.0
C494 C 0.87422 0.01165 0.11424 0.0
C495 C 0.86639 0.03217 0.07934 0.0
C496 C 0.94056 0.9984 0.04723 0.0
C497 C 0.90476 0.01704 0.03239 0.0
C498 C 0.9614 0.99539 0.02149 0.0
C499 C 0.96779 0.00493 0.95573 0.0
C500 C 0.92597 0.01102 0.00672 0.0
C501 C 0.95248 0.01674 0.91634 0.0
C502 C 0.89329 0.00398 0.09094 0.0
C503 C 0.87784 0.04414 0.01997 0.0
N504 N 0.93239 0.01967 0.94264 0.0
N505 N 0.89644 0.03643 0.99852 0.0
H506 H 0.49439 0.86641 0.30626 0.0
H507 H 0.55598 0.95873 0.98945 0.0
H508 H 0.56491 0.86874 0.24728 0.0
H509 H 0.48948 0.9604 0.07132 0.0
H510 H 0.55897 0.9235 0.07626 0.0
H511 H 0.49185 0.89876 0.21413 0.0
C512 C 0.50952 0.87395 0.27436 0.0
C513 C 0.53008 0.86511 0.2856 0.0
C514 C 0.5437 0.93154 0.07488 0.0
C515 C 0.52706 0.90214 0.17802 0.0
C516 C 0.54194 0.95152 0.02527 0.0
C517 C 0.52249 0.96251 0.02356 0.0
C518 C 0.5258 0.92251 0.12251 0.0
C519 C 0.50483 0.95257 0.07108 0.0
C520 C 0.50796 0.89235 0.22117 0.0
C521 C 0.54874 0.87504 0.24072 0.0
N522 N 0.50694 0.93324 0.11852 0.0
N523 N 0.54684 0.89314 0.18899 0.0
H524 H 0.64413 0.41137 0.15723 0.0
H525 H 0.58426 0.50054 0.89688 0.0
H526 H 0.68126 0.46027 0.99103 0.0
H527 H 0.55068 0.45707 0.07507 0.0
H528 H 0.61977 0.48544 0.92784 0.0
H529 H 0.60929 0.4269 0.12459 0.0
C530 C 0.6449 0.42525 0.11352 0.0
C531 C 0.66563 0.43448 0.07672 0.0
C532 C 0.60465 0.4793 0.96023 0.0
C533 C 0.62579 0.45264 0.03936 0.0
C534 C 0.58444 0.48794 0.94264 0.0
C535 C 0.56461 0.48008 0.98367 0.0
C536 C 0.6049 0.46263 0.01905 0.0
C537 C 0.56564 0.46364 0.04215 0.0
C538 C 0.62503 0.43427 0.09515 0.0
C539 C 0.6657 0.45281 0.02117 0.0
N540 N 0.58541 0.45543 0.05801 0.0
N541 N 0.64606 0.46126 0.00409 0.0
H542 H 0.96566 0.59705 0.2436 0.0
H543 H 0.00693 0.57184 0.89599 0.0
H544 H 0.98682 0.65597 0.07883 0.0
H545 H 0.97463 0.51223 0.04859 0.0
H546 H -0.00145 0.60296 0.96098 0.0
H547 H 0.96751 0.56555 0.17208 0.0
C548 C 0.97048 0.60334 0.19224 0.0
C549 C 0.97615 0.62919 0.16724 0.0
C550 C 0.99313 0.58307 0.98008 0.0
C551 C 0.97851 0.59328 0.08517 0.0
C552 C -0.00204 0.56533 0.94304 0.0
C553 C 0.99164 0.53948 0.96729 0.0
C554 C 0.98208 0.57489 0.04206 0.0
C555 C 0.97992 0.53201 0.0283 0.0
C556 C 0.97149 0.58536 0.15137 0.0
C557 C 0.98209 0.63625 0.10012 0.0
N558 N 0.9757 0.54964 0.06387 0.0
N559 N 0.98335 0.61843 0.06165 0.0
H560 H 0.03036 0.19214 0.50909 0.0
H561 H 0.04068 0.09731 0.83433 0.0
H562 H 0.06967 0.21352 0.6783 0.0
H563 H 0.99731 0.07551 0.67248 0.0
H564 H 0.04716 0.14117 0.78326 0.0
H565 H 0.01407 0.15081 0.57246 0.0
C566 C 0.03541 0.18819 0.55979 0.0
C567 C 0.05166 0.20616 0.58821 0.0
C568 C 0.03601 0.12691 0.75905 0.0
C569 C 0.03305 0.15897 0.66097 0.0
C570 C 0.03232 0.10181 0.78819 0.0
C571 C 0.0187 0.08271 0.75705 0.0
C572 C 0.0263 0.13304 0.69769 0.0
C573 C 0.00804 0.08968 0.69787 0.0
C574 C 0.02601 0.16465 0.596 0.0
C575 C 0.0572 0.20028 0.65441 0.0
N576 N 0.01237 0.11431 0.66948 0.0
N577 N 0.04814 0.17708 0.68826 0.0
H578 H 0.34367 0.00515 0.84295 0.0
H579 H 0.45774 0.95994 0.76236 0.0
H580 H 0.36064 0.98919 0.65244 0.0
H581 H 0.44562 0.99025 0.93732 0.0
H582 H 0.41645 0.95604 0.73551 0.0
H583 H 0.37467 0.98539 0.8907 0.0
C584 C 0.35369 0.99708 0.81141 0.0
C585 C 0.35 0.99934 0.74345 0.0
C586 C 0.42269 0.96279 0.78084 0.0
C587 C 0.38558 0.97692 0.79749 0.0
C588 C 0.44615 0.96478 0.79638 0.0
C589 C 0.45492 0.97568 0.85158 0.0
C590 C 0.40818 0.97175 0.82108 0.0
C591 C 0.43942 0.982 0.89388 0.0
C592 C 0.37133 0.98574 0.83865 0.0
C593 C 0.36307 0.98804 0.70502 0.0
N594 N 0.41686 0.9803 0.87725 0.0
N595 N 0.38064 0.97778 0.73234 0.0
H596 H 0.47112 0.26273 0.5411 0.0
H597 H 0.51605 0.41293 0.49794 0.0
H598 H 0.45738 0.3134 0.37101 0.0
H599 H 0.5293 0.36256 0.66926 0.0
H600 H 0.49534 0.37653 0.44943 0.0
H601 H 0.49291 0.29897 0.58846 0.0
C602 C 0.47265 0.28149 0.51379 0.0
C603 C 0.4624 0.28504 0.45202 0.0
C604 C 0.50286 0.3734 0.4975 0.0
C605 C 0.48732 0.3266 0.50587 0.0
C606 C 0.51468 0.39418 0.52521 0.0
C607 C 0.52435 0.39077 0.58783 0.0
C608 C 0.50062 0.349 0.53269 0.0
C609 C 0.52232 0.36604 0.6206 0.0
C610 C 0.48507 0.30217 0.54086 0.0
C611 C 0.46472 0.3098 0.41914 0.0
N612 N 0.51057 0.34611 0.59279 0.0
N613 N 0.47699 0.32961 0.44638 0.0
H614 H 0.19714 0.54402 0.80797 0.0
H615 H 0.07464 0.57682 0.72593 0.0
H616 H 0.17968 0.58032 0.61882 0.0
H617 H 0.09067 0.53042 0.90114 0.0
H618 H 0.11639 0.59093 0.70014 0.0
H619 H 0.16264 0.55256 0.85579 0.0
C620 C 0.18648 0.55452 0.77677 0.0
C621 C 0.19099 0.56084 0.70883 0.0
C622 C 0.11077 0.57817 0.74514 0.0
C623 C 0.15099 0.56999 0.76305 0.0
C624 C 0.08697 0.57024 0.76001 0.0
C625 C 0.07928 0.55202 0.81496 0.0
C626 C 0.12678 0.56783 0.78578 0.0
C627 C 0.0959 0.54405 0.85751 0.0
C628 C 0.16661 0.55919 0.80408 0.0
C629 C 0.17645 0.5744 0.67108 0.0
N630 N 0.11884 0.5517 0.84154 0.0
N631 N 0.15679 0.578 0.69835 0.0
H632 H 0.05248 0.81232 0.09108 0.0
H633 H 0.06023 0.93739 0.95175 0.0
H634 H 0.97973 0.81214 0.11215 0.0
H635 H 0.98861 0.9132 0.8983 0.0
H636 H 0.0595 0.89476 0.00728 0.0
H637 H 0.0574 0.85194 0.01467 0.0
C638 C 0.03753 0.82055 0.07917 0.0
C639 C 0.01575 0.80923 0.10865 0.0
C640 C 0.04411 0.89856 0.98207 0.0
C641 C 0.0213 0.85468 0.02288 0.0
C642 C 0.04443 0.92302 0.95092 0.0
C643 C 0.0244 0.92891 0.9207 0.0
C644 C 0.02354 0.8799 0.98338 0.0
C645 C 0.00444 0.90952 0.92112 0.0
C646 C 0.0404 0.84331 0.0363 0.0
C647 C 0.99692 0.82058 0.09145 0.0
N648 N 0.00442 0.88596 0.95288 0.0
N649 N 0.00014 0.84273 0.04982 0.0
H650 H 0.71722 0.04196 0.94442 0.0
H651 H 0.61202 0.02233 0.79204 0.0
H652 H 0.70361 0.11271 0.98382 0.0
H653 H 0.59608 0.0742 0.91452 0.0
H654 H 0.65322 0.03737 0.81103 0.0
H655 H 0.68122 0.03436 0.88517 0.0
C656 C 0.70705 0.05635 0.93885 0.0
C657 C 0.71351 0.07797 0.96973 0.0
C658 C 0.64076 0.04538 0.83418 0.0
C659 C 0.67176 0.06929 0.90141 0.0
C660 C 0.61717 0.03697 0.82278 0.0
C661 C 0.60048 0.04654 0.85314 0.0
C662 C 0.6477 0.0632 0.87717 0.0
C663 C 0.60828 0.06596 0.89096 0.0
C664 C 0.68632 0.05198 0.90467 0.0
C665 C 0.69915 0.09554 0.96198 0.0
N666 N 0.63132 0.07339 0.90268 0.0
N667 N 0.67876 0.0906 0.92957 0.0
H668 H 0.45333 0.70312 0.2723 0.0
H669 H 0.50236 0.58523 0.19583 0.0
H670 H 0.50179 0.66946 0.39504 0.0
H671 H 0.44316 0.60687 0.09653 0.0
H672 H 0.50359 0.61792 0.26514 0.0
H673 H 0.45014 0.66952 0.20367 0.0
C674 C 0.46316 0.68859 0.285 0.0
C675 C 0.47773 0.68899 0.33966 0.0
C676 C 0.49028 0.61554 0.22831 0.0
C677 C 0.47434 0.65079 0.2614 0.0
C678 C 0.4897 0.59701 0.18837 0.0
C679 C 0.47269 0.59343 0.14021 0.0
C680 C 0.47384 0.63079 0.21986 0.0
C681 C 0.45647 0.60894 0.13342 0.0
C682 C 0.4613 0.66943 0.246 0.0
C683 C 0.49005 0.66968 0.35406 0.0
N684 N 0.4575 0.62706 0.17266 0.0
N685 N 0.48817 0.65149 0.31499 0.0
H686 H 0.83942 0.37086 0.99701 0.0
H687 H 0.92425 0.48973 0.79125 0.0
H688 H 0.82075 0.44191 0.92617 0.0
H689 H 0.94729 0.4248 0.892 0.0
H690 H 0.88414 0.46814 0.81886 0.0
H691 H 0.87671 0.38627 0.93798 0.0
C692 C 0.84299 0.38955 0.96844 0.0
C693 C 0.82698 0.40522 0.96754 0.0
C694 C 0.89794 0.45849 0.83433 0.0
C695 C 0.86954 0.42286 0.89948 0.0
C696 C 0.92089 0.4708 0.81857 0.0
C697 C 0.93922 0.45924 0.84041 0.0
C698 C 0.89324 0.43446 0.87243 0.0
C699 C 0.93373 0.43455 0.8748 0.0
C700 C 0.86425 0.39829 0.93461 0.0
C701 C 0.83238 0.42903 0.92829 0.0
N702 N 0.91123 0.4231 0.89051 0.0
N703 N 0.85328 0.43721 0.89657 0.0
H704 H 0.12493 0.26126 0.13212 0.0
H705 H 0.04371 0.12748 0.08791 0.0
H706 H 0.05828 0.23062 0.22961 0.0
H707 H 0.11341 0.15328 0.00707 0.0
H708 H 0.0471 0.16758 0.12909 0.0
H709 H 0.11927 0.22438 0.07473 0.0
C710 C 0.109 0.24697 0.14098 0.0
C711 C 0.09212 0.24911 0.18616 0.0
C712 C 0.06164 0.16456 0.10211 0.0
C713 C 0.08555 0.2068 0.12052 0.0
C714 C 0.05967 0.14167 0.07823 0.0
C715 C 0.07832 0.13692 0.04401 0.0
C716 C 0.08243 0.18297 0.09183 0.0
C717 C 0.09871 0.15595 0.03396 0.0
C718 C 0.10579 0.22591 0.10815 0.0
C719 C 0.07168 0.2301 0.19476 0.0
N720 N 0.10023 0.17811 0.05787 0.0
N721 N 0.06908 0.20972 0.16274 0.0
H722 H 0.33157 0.07583 0.27937 0.0
H723 H 0.46683 0.10195 0.1824 0.0
H724 H 0.38715 0.10157 0.40876 0.0
H725 H 0.41176 0.06929 0.06005 0.0
H726 H 0.43768 0.10559 0.26157 0.0
H727 H 0.36052 0.07654 0.19465 0.0
C728 C 0.34983 0.08169 0.28998 0.0
C729 C 0.35687 0.08866 0.35144 0.0
C730 C 0.43196 0.09774 0.21727 0.0
C731 C 0.39014 0.08968 0.25439 0.0
C732 C 0.44861 0.09578 0.1718 0.0
C733 C 0.44177 0.08519 0.11449 0.0
C734 C 0.40824 0.08912 0.20543 0.0
C735 C 0.41786 0.07721 0.10397 0.0
C736 C 0.36636 0.08219 0.24147 0.0
C737 C 0.38083 0.09644 0.36189 0.0
N738 N 0.40199 0.07929 0.14901 0.0
N739 N 0.39655 0.09665 0.31404 0.0
H740 H 0.4216 0.29306 0.08581 0.0
H741 H 0.52229 0.402 0.8993 0.0
H742 H 0.49038 0.28195 0.04998 0.0
H743 H 0.45637 0.41367 0.962 0.0
H744 H 0.50976 0.35696 0.94213 0.0
H745 H 0.43278 0.33584 0.02723 0.0
C746 C 0.43896 0.29939 0.06454 0.0
C747 C 0.45503 0.28367 0.07286 0.0
C748 C 0.49802 0.36938 0.94617 0.0
C749 C 0.46818 0.3333 0.00667 0.0
C750 C 0.50513 0.3951 0.92159 0.0
C751 C 0.49041 0.41173 0.92733 0.0
C752 C 0.47599 0.36018 0.97637 0.0
C753 C 0.46838 0.40166 0.95676 0.0
C754 C 0.44541 0.32403 0.03162 0.0
C755 C 0.47746 0.29339 0.04538 0.0
N756 N 0.46189 0.37662 0.98022 0.0
N757 N 0.4834 0.3176 0.01377 0.0
H758 H 0.19839 0.52454 0.34403 0.0
H759 H 0.13679 0.44398 0.07081 0.0
H760 H 0.21803 0.45677 0.30378 0.0
H761 H 0.10983 0.50177 0.14603 0.0
H762 H 0.17002 0.45174 0.1437 0.0
H763 H 0.17018 0.52066 0.25647 0.0
C764 C 0.19716 0.50912 0.31583 0.0
C765 C 0.2106 0.4909 0.33155 0.0
C766 C 0.15686 0.46279 0.1438 0.0
C767 C 0.17774 0.48598 0.232 0.0
C768 C 0.13779 0.45826 0.10257 0.0
C769 C 0.12037 0.4722 0.10215 0.0
C770 C 0.15859 0.48146 0.18468 0.0
C771 C 0.12291 0.49079 0.14362 0.0
C772 C 0.1808 0.50675 0.26627 0.0
C773 C 0.20783 0.47107 0.2939 0.0
N774 N 0.14159 0.49482 0.18313 0.0
N775 N 0.19158 0.46902 0.24614 0.0
H776 H 0.96499 0.74889 0.6055 0.0
H777 H 0.936 0.88592 0.5473 0.0
H778 H 0.94127 0.7828 0.42147 0.0
H779 H 0.9592 0.85207 0.73225 0.0
H780 H 0.93247 0.84592 0.5053 0.0
H781 H 0.95754 0.78382 0.65746 0.0
C782 C 0.95785 0.76346 0.57628 0.0
C783 C 0.95396 0.763 0.50885 0.0
C784 C 0.93812 0.84714 0.55531 0.0
C785 C 0.9456 0.80321 0.56785 0.0
C786 C 0.94001 0.86999 0.57953 0.0
C787 C 0.94815 0.87252 0.6433 0.0
C788 C 0.94449 0.82663 0.59493 0.0
C789 C 0.95333 0.8512 0.68233 0.0
C790 C 0.95362 0.78342 0.60595 0.0
C791 C 0.94442 0.78224 0.47363 0.0
N792 N 0.95161 0.82926 0.65736 0.0
N793 N 0.94089 0.80172 0.50329 0.0
H794 H 0.68879 1.00017 0.30615 0.0
H795 H 0.64888 0.95851 0.68256 0.0
H796 H 0.73698 1.00131 0.46656 0.0
H797 H 0.60193 0.95133 0.51988 0.0
H798 H 0.68167 0.97087 0.60455 0.0
H799 H 0.65724 0.97923 0.38341 0.0
C800 C 0.69286 0.99568 0.35747 0.0
C801 C 0.71568 1.00264 0.37971 0.0
C802 C 0.66421 0.96635 0.58593 0.0
C803 C 0.67931 0.97903 0.4691 0.0
C804 C 0.64545 0.95909 0.63051 0.0
C805 C 0.62255 0.95405 0.60779 0.0
C806 C 0.66007 0.96871 0.51805 0.0
C807 C 0.61924 0.95549 0.53964 0.0
C808 C 0.67473 0.98384 0.40175 0.0
C809 C 0.71965 0.99671 0.4472 0.0
N810 N 0.63775 0.96287 0.49725 0.0
N811 N 0.70164 0.98542 0.48952 0.0
H812 H 0.58502 0.69233 0.60315 0.0
H813 H 0.51948 0.58313 0.88127 0.0
H814 H 0.53093 0.69979 0.7336 0.0
H815 H 0.56912 0.57117 0.7435 0.0
H816 H 0.52848 0.62797 0.83806 0.0
H817 H 0.58417 0.6501 0.66347 0.0
C818 C 0.57318 0.68533 0.64479 0.0
C819 C 0.55793 0.69982 0.6627 0.0
C820 C 0.53759 0.61564 0.8175 0.0
C821 C 0.55699 0.65147 0.73221 0.0
C822 C 0.53245 0.58995 0.84223 0.0
C823 C 0.54335 0.57325 0.81547 0.0
C824 C 0.55365 0.62484 0.76507 0.0
C825 C 0.56021 0.58334 0.76542 0.0
C826 C 0.57276 0.66121 0.67932 0.0
C827 C 0.54328 0.68975 0.718 0.0
N828 N 0.56465 0.60845 0.74127 0.0
N829 N 0.54306 0.66623 0.75016 0.0
H830 H 0.84629 0.4707 0.25991 0.0
H831 H 0.87825 0.52955 0.5921 0.0
H832 H 0.7951 0.46981 0.40883 0.0
H833 H 0.92855 0.52469 0.44692 0.0
H834 H 0.84696 0.51194 0.52117 0.0
H835 H 0.87596 0.49458 0.32331 0.0
C836 C 0.84119 0.47581 0.30559 0.0
C837 C 0.8181 0.46823 0.32893 0.0
C838 C 0.86485 0.51491 0.5047 0.0
C839 C 0.85227 0.4953 0.40279 0.0
C840 C 0.88268 0.52511 0.54491 0.0
C841 C 0.90601 0.52837 0.52554 0.0
C842 C 0.87044 0.50806 0.44466 0.0
C843 C 0.91081 0.52211 0.46419 0.0
C844 C 0.85823 0.48932 0.3421 0.0
C845 C 0.81272 0.47499 0.38929 0.0
N846 N 0.89321 0.51217 0.42617 0.0
N847 N 0.8297 0.48808 0.42426 0.0
loop_
_geom_bond_atom_site_label_1
_geom_bond_atom_site_label_2
_geom_bond_distance
_geom_bond_site_symmetry_2
_ccdc_geom_bond_type
P0 O11 1.490 . S
P0 C14 1.812 . S
P0 C20 1.803 . S
P0 C26 1.819 . S
H1 C15 0.941 . S
H2 C16 0.939 . S
H3 C18 0.940 . S
H4 C19 0.940 . S
H5 C21 0.939 . S
H6 C22 0.942 1_556 S
H7 C24 0.940 . S
H8 C25 0.939 . S
H9 C27 0.941 . S
H10 C31 0.939 . S
O11 P0 1.490 . S
H12 C28 0.939 . S
H13 C30 0.940 . S
C14 P0 1.812 . S
C14 C15 1.389 . S
C14 C19 1.391 . S
C15 H1 0.941 . S
C15 C14 1.389 . S
C15 C16 1.397 . S
C16 H2 0.939 . S
C16 C15 1.397 . S
C16 C17 1.378 . S
C17 C16 1.378 . S
C17 C18 1.378 . S
C18 H3 0.940 . S
C18 C17 1.378 . S
C18 C19 1.396 . S
C19 H4 0.940 . S
C19 C14 1.391 . S
C19 C18 1.396 . S
C20 P0 1.803 . S
C20 C21 1.378 . S
C20 C25 1.400 . S
C21 H5 0.939 . S
C21 C20 1.378 . S
C21 C22 1.361 . S
C22 H6 0.942 1_554 S
C22 C21 1.361 . S
C22 C23 1.369 . S
C23 C22 1.369 . S
C23 C24 1.404 . S
C24 H7 0.940 . S
C24 C23 1.404 . S
C24 C25 1.389 . S
C25 H8 0.939 . S
C25 C20 1.400 . S
C25 C24 1.389 . S
C26 P0 1.819 . S
C26 C27 1.391 . S
C26 C31 1.391 1_554 S
C27 H9 0.941 . S
C27 C26 1.391 . S
C27 C28 1.396 1_554 S
C28 H12 0.939 . S
C28 C27 1.396 1_556 S
C28 C29 1.397 . S
C29 C28 1.397 . S
C29 C30 1.385 . S
C30 H13 0.940 . S
C30 C29 1.385 . S
C30 C31 1.388 . S
C31 H10 0.939 . S
C31 C26 1.391 1_556 S
C31 C30 1.388 . S
P32 O43 1.490 . S
P32 C46 1.812 . S
P32 C52 1.803 . S
P32 C58 1.819 . S
H33 C47 0.941 . S
H34 C48 0.939 . S
H35 C50 0.940 . S
H36 C51 0.940 . S
H37 C53 0.939 . S
H38 C54 0.942 . S
H39 C56 0.940 . S
H40 C57 0.939 . S
H41 C59 0.941 . S
H42 C63 0.939 . S
O43 P32 1.490 . S
H44 C60 0.939 . S
H45 C62 0.940 . S
C46 P32 1.812 . S
C46 C47 1.389 . S
C46 C51 1.391 . S
C47 H33 0.941 . S
C47 C46 1.389 . S
C47 C48 1.397 . S
C48 H34 0.939 . S
C48 C47 1.397 . S
C48 C49 1.378 . S
C49 C48 1.378 . S
C49 C50 1.378 . S
C50 H35 0.940 . S
C50 C49 1.378 . S
C50 C51 1.396 . S
C51 H36 0.940 . S
C51 C46 1.391 . S
C51 C50 1.396 . S
C52 P32 1.803 . S
C52 C53 1.378 . S
C52 C57 1.400 . S
C53 H37 0.939 . S
C53 C52 1.378 . S
C53 C54 1.361 . S
C54 H38 0.942 . S
C54 C53 1.361 . S
C54 C55 1.369 . S
C55 C54 1.369 . S
C55 C56 1.404 . S
C56 H39 0.940 . S
C56 C55 1.404 . S
C56 C57 1.389 . S
C57 H40 0.939 . S
C57 C52 1.400 . S
C57 C56 1.389 . S
C58 P32 1.819 . S
C58 C59 1.391 . S
C58 C63 1.391 1_554 S
C59 H41 0.941 . S
C59 C58 1.391 . S
C59 C60 1.396 1_554 S
C60 H44 0.939 . S
C60 C59 1.396 1_556 S
C60 C61 1.397 . S
C61 C60 1.397 . S
C61 C62 1.385 . S
C62 H45 0.940 . S
C62 C61 1.385 . S
C62 C63 1.388 . S
C63 H42 0.939 . S
C63 C58 1.391 1_556 S
C63 C62 1.388 . S
P64 O75 1.490 . S
P64 C78 1.812 1_556 S
P64 C84 1.803 . S
P64 C90 1.819 . S
H65 C79 0.941 . S
H66 C80 0.939 . S
H67 C82 0.940 . S
H68 C83 0.952 . S
H69 C85 0.939 . S
H70 C86 0.942 . S
H71 C88 0.940 1_554 S
H72 C89 0.952 . S
H73 C91 0.941 . S
H74 C95 0.923 1_565 S
O75 P64 1.490 . S
H76 C92 0.939 . S
H77 C94 0.940 . S
C78 P64 1.812 1_554 S
C78 C79 1.389 . S
C78 C83 1.377 1_545 S
C79 H65 0.941 . S
C79 C78 1.389 . S
C79 C80 1.397 . S
C80 H66 0.939 . S
C80 C79 1.397 . S
C80 C81 1.378 . S
C81 C80 1.378 . S
C81 C82 1.378 1_545 S
C82 H67 0.940 . S
C82 C81 1.378 1_565 S
C82 C83 1.399 . S
C83 H68 0.952 . S
C83 C78 1.377 1_565 S
C83 C82 1.399 . S
C84 P64 1.803 . S
C84 C85 1.378 . S
C84 C89 1.368 1_546 S
C85 H69 0.939 . S
C85 C84 1.378 . S
C85 C86 1.361 . S
C86 H70 0.942 . S
C86 C85 1.361 . S
C86 C87 1.369 . S
C87 C86 1.369 . S
C87 C88 1.404 1_545 S
C88 H71 0.940 1_556 S
C88 C87 1.404 1_565 S
C88 C89 1.410 1_556 S
C89 H72 0.952 . S
C89 C84 1.368 1_564 S
C89 C88 1.410 1_554 S
C90 P64 1.819 . S
C90 C91 1.391 . S
C90 C95 1.391 . S
C91 H73 0.941 . S
C91 C90 1.391 . S
C91 C92 1.396 . S
C92 H76 0.939 . S
C92 C91 1.396 . S
C92 C93 1.397 . S
C93 C92 1.397 . S
C93 C94 1.385 1_545 S
C94 H77 0.940 . S
C94 C93 1.385 1_565 S
C94 C95 1.388 1_565 S
C95 H74 0.923 1_545 S
C95 C90 1.391 . S
C95 C94 1.388 1_545 S
P96 O107 1.490 . S
P96 C110 1.812 . S
P96 C116 1.803 . S
P96 C122 1.819 . S
H97 C111 0.941 . S
H98 C112 0.939 . S
H99 C114 0.940 . S
H100 C115 0.940 . S
H101 C117 0.939 . S
H102 C118 0.942 . S
H103 C120 0.940 . S
H104 C121 0.939 . S
H105 C123 0.941 . S
H106 C127 0.939 . S
O107 P96 1.490 . S
H108 C124 0.939 . S
H109 C126 0.940 . S
C110 P96 1.812 . S
C110 C111 1.389 . S
C110 C115 1.391 . S
C111 H97 0.941 . S
C111 C110 1.389 . S
C111 C112 1.397 . S
C112 H98 0.939 . S
C112 C111 1.397 . S
C112 C113 1.378 . S
C113 C112 1.378 . S
C113 C114 1.378 . S
C114 H99 0.940 . S
C114 C113 1.378 . S
C114 C115 1.396 . S
C115 H100 0.940 . S
C115 C110 1.391 . S
C115 C114 1.396 . S
C116 P96 1.803 . S
C116 C117 1.378 . S
C116 C121 1.400 . S
C117 H101 0.939 . S
C117 C116 1.378 . S
C117 C118 1.361 . S
C118 H102 0.942 . S
C118 C117 1.361 . S
C118 C119 1.369 . S
C119 C118 1.369 . S
C119 C120 1.404 . S
C120 H103 0.940 . S
C120 C119 1.404 . S
C120 C121 1.389 . S
C121 H104 0.939 . S
C121 C116 1.400 . S
C121 C120 1.389 . S
C122 P96 1.819 . S
C122 C123 1.391 . S
C122 C127 1.391 . S
C123 H105 0.941 . S
C123 C122 1.391 . S
C123 C124 1.396 . S
C124 H108 0.939 . S
C124 C123 1.396 . S
C124 C125 1.397 . S
C125 C124 1.397 . S
C125 C126 1.385 . S
C126 H109 0.940 . S
C126 C125 1.385 . S
C126 C127 1.388 . S
C127 H106 0.939 . S
C127 C122 1.391 . S
C127 C126 1.388 . S
P128 O139 1.490 . S
P128 C142 1.812 . S
P128 C148 1.803 . S
P128 C154 1.819 . S
H129 C143 0.941 . S
H130 C144 0.939 . S
H131 C146 0.940 . S
H132 C147 0.940 . S
H133 C149 0.939 . S
H134 C150 0.942 . S
H135 C152 0.940 . S
H136 C153 0.939 . S
H137 C155 0.941 . S
H138 C159 0.939 . S
O139 P128 1.490 . S
H140 C156 0.939 . S
H141 C158 0.940 . S
C142 P128 1.812 . S
C142 C143 1.389 . S
C142 C147 1.391 . S
C143 H129 0.941 . S
C143 C142 1.389 . S
C143 C144 1.397 . S
C144 H130 0.939 . S
C144 C143 1.397 . S
C144 C145 1.378 . S
C145 C144 1.378 . S
C145 C146 1.378 . S
C146 H131 0.940 . S
C146 C145 1.378 . S
C146 C147 1.396 . S
C147 H132 0.940 . S
C147 C142 1.391 . S
C147 C146 1.396 . S
C148 P128 1.803 . S
C148 C149 1.378 . S
C148 C153 1.400 . S
C149 H133 0.939 . S
C149 C148 1.378 . S
C149 C150 1.361 . S
C150 H134 0.942 . S
C150 C149 1.361 . S
C150 C151 1.369 . S
C151 C150 1.369 . S
C151 C152 1.404 . S
C152 H135 0.940 . S
C152 C151 1.404 . S
C152 C153 1.389 . S
C153 H136 0.939 . S
C153 C148 1.400 . S
C153 C152 1.389 . S
C154 P128 1.819 . S
C154 C155 1.391 . S
C154 C159 1.391 . S
C155 H137 0.941 . S
C155 C154 1.391 . S
C155 C156 1.396 . S
C156 H140 0.939 . S
C156 C155 1.396 . S
C156 C157 1.397 . S
C157 C156 1.397 . S
C157 C158 1.385 . S
C158 H141 0.940 . S
C158 C157 1.385 . S
C158 C159 1.388 . S
C159 H138 0.939 . S
C159 C154 1.391 . S
C159 C158 1.388 . S
P160 O171 1.490 . S
P160 C174 1.812 . S
P160 C180 1.803 . S
P160 C186 1.819 . S
H161 C175 0.941 . S
H162 C176 0.939 . S
H163 C178 0.940 . S
H164 C179 0.940 . S
H165 C181 0.939 . S
H166 C182 0.942 . S
H167 C184 0.940 . S
H168 C185 0.939 . S
H169 C187 0.941 . S
H170 C191 0.939 . S
O171 P160 1.490 . S
H172 C188 0.939 . S
H173 C190 0.940 . S
C174 P160 1.812 . S
C174 C175 1.389 . S
C174 C179 1.391 . S
C175 H161 0.941 . S
C175 C174 1.389 . S
C175 C176 1.397 . S
C176 H162 0.939 . S
C176 C175 1.397 . S
C176 C177 1.378 . S
C177 C176 1.378 . S
C177 C178 1.378 . S
C178 H163 0.940 . S
C178 C177 1.378 . S
C178 C179 1.396 . S
C179 H164 0.940 . S
C179 C174 1.391 . S
C179 C178 1.396 . S
C180 P160 1.803 . S
C180 C181 1.378 . S
C180 C185 1.400 . S
C181 H165 0.939 . S
C181 C180 1.378 . S
C181 C182 1.361 . S
C182 H166 0.942 . S
C182 C181 1.361 . S
C182 C183 1.369 . S
C183 C182 1.369 . S
C183 C184 1.404 . S
C184 H167 0.940 . S
C184 C183 1.404 . S
C184 C185 1.389 . S
C185 H168 0.939 . S
C185 C180 1.400 . S
C185 C184 1.389 . S
C186 P160 1.819 . S
C186 C187 1.391 . S
C186 C191 1.391 . S
C187 H169 0.941 . S
C187 C186 1.391 . S
C187 C188 1.396 . S
C188 H172 0.939 . S
C188 C187 1.396 . S
C188 C189 1.397 . S
C189 C188 1.397 . S
C189 C190 1.385 . S
C190 H173 0.940 . S
C190 C189 1.385 . S
C190 C191 1.388 . S
C191 H170 0.939 . S
C191 C186 1.391 . S
C191 C190 1.388 . S
P192 O203 1.490 . S
P192 C206 1.812 . S
P192 C212 1.803 . S
P192 C218 1.819 . S
H193 C207 0.941 . S
H194 C208 0.939 . S
H195 C210 0.940 . S
H196 C211 0.943 . S
H197 C213 0.939 . S
H198 C214 0.942 . S
H199 C216 0.940 . S
H200 C217 0.958 . S
H201 C219 0.941 . S
H202 C223 0.937 1_565 S
O203 P192 1.490 . S
H204 C220 0.939 . S
H205 C222 0.940 . S
C206 P192 1.812 . S
C206 C207 1.389 . S
C206 C211 1.384 1_545 S
C207 H193 0.941 . S
C207 C206 1.389 . S
C207 C208 1.397 . S
C208 H194 0.939 . S
C208 C207 1.397 . S
C208 C209 1.378 . S
C209 C208 1.378 . S
C209 C210 1.378 1_545 S
C210 H195 0.940 . S
C210 C209 1.378 1_565 S
C210 C211 1.401 . S
C211 H196 0.943 . S
C211 C206 1.384 1_565 S
C211 C210 1.401 . S
C212 P192 1.803 . S
C212 C213 1.378 . S
C212 C217 1.379 1_545 S
C213 H197 0.939 . S
C213 C212 1.378 . S
C213 C214 1.361 . S
C214 H198 0.942 . S
C214 C213 1.361 . S
C214 C215 1.369 . S
C215 C214 1.369 . S
C215 C216 1.404 1_545 S
C216 H199 0.940 . S
C216 C215 1.404 1_565 S
C216 C217 1.392 . S
C217 H200 0.958 . S
C217 C212 1.379 1_565 S
C217 C216 1.392 . S
C218 P192 1.819 . S
C218 C219 1.391 . S
C218 C223 1.391 . S
C219 H201 0.941 . S
C219 C218 1.391 . S
C219 C220 1.396 . S
C220 H204 0.939 . S
C220 C219 1.396 . S
C220 C221 1.397 . S
C221 C220 1.397 . S
C221 C222 1.385 1_545 S
C222 H205 0.940 . S
C222 C221 1.385 1_565 S
C222 C223 1.388 1_565 S
C223 H202 0.937 1_545 S
C223 C218 1.391 . S
C223 C222 1.388 1_545 S
P224 O235 1.490 . S
P224 C238 1.812 . S
P224 C244 1.803 . S
P224 C250 1.819 . S
H225 C239 0.941 . S
H226 C240 0.939 . S
H227 C242 0.940 . S
H228 C243 0.940 . S
H229 C245 0.939 . S
H230 C246 0.942 . S
H231 C248 0.940 . S
H232 C249 0.939 . S
H233 C251 0.941 . S
H234 C255 0.939 . S
O235 P224 1.490 . S
H236 C252 0.939 . S
H237 C254 0.940 . S
C238 P224 1.812 . S
C238 C239 1.389 . S
C238 C243 1.391 . S
C239 H225 0.941 . S
C239 C238 1.389 . S
C239 C240 1.397 . S
C240 H226 0.939 . S
C240 C239 1.397 . S
C240 C241 1.378 . S
C241 C240 1.378 . S
C241 C242 1.378 . S
C242 H227 0.940 . S
C242 C241 1.378 . S
C242 C243 1.396 . S
C243 H228 0.940 . S
C243 C238 1.391 . S
C243 C242 1.396 . S
C244 P224 1.803 . S
C244 C245 1.378 . S
C244 C249 1.400 . S
C245 H229 0.939 . S
C245 C244 1.378 . S
C245 C246 1.361 . S
C246 H230 0.942 . S
C246 C245 1.361 . S
C246 C247 1.369 . S
C247 C246 1.369 . S
C247 C248 1.404 . S
C248 H231 0.940 . S
C248 C247 1.404 . S
C248 C249 1.389 . S
C249 H232 0.939 . S
C249 C244 1.400 . S
C249 C248 1.389 . S
C250 P224 1.819 . S
C250 C251 1.391 . S
C250 C255 1.391 . S
C251 H233 0.941 . S
C251 C250 1.391 . S
C251 C252 1.396 . S
C252 H236 0.939 . S
C252 C251 1.396 . S
C252 C253 1.397 . S
C253 C252 1.397 . S
C253 C254 1.385 . S
C254 H237 0.940 . S
C254 C253 1.385 . S
C254 C255 1.388 . S
C255 H234 0.939 . S
C255 C250 1.391 . S
C255 C254 1.388 . S
Nd256 C258 2.836 1_455 S
Nd256 O276 2.500 1_455 S
Nd256 O277 2.492 . S
Nd256 O278 2.487 . S
Nd256 O279 2.682 1_565 S
Nd256 O280 2.410 . S
Nd256 O285 2.414 1_455 S
Nd256 O287 2.424 1_565 S
Nd257 C267 2.836 1_556 S
Nd257 O279 2.414 . S
Nd257 O281 2.424 1_545 S
Nd257 O282 2.500 . S
Nd257 O283 2.492 1_556 S
Nd257 O284 2.487 1_455 S
Nd257 O285 2.682 1_445 S
Nd257 O286 2.410 . S
C258 Nd256 2.836 1_655 S
C258 C259 1.498 . S
C258 O276 1.258 . S
C258 O277 1.239 1_655 S
C259 C258 1.498 . S
C259 C260 1.366 . S
C259 C264 1.407 . S
C260 C259 1.366 . S
C260 C261 1.392 . S
C260 H288 0.930 . S
C261 C260 1.392 . S
C261 C262 1.398 . S
C261 H289 0.929 . S
C262 C261 1.398 . S
C262 C263 1.352 . S
C263 C262 1.352 . S
C263 C264 1.384 . S
C263 H290 0.930 . S
C264 C259 1.407 . S
C264 C263 1.384 . S
C264 H291 0.929 1_655 S
C265 O278 1.241 . S
C265 O279 1.273 1_565 S
C266 O280 1.251 . S
C266 O281 1.268 . S
C267 Nd257 2.836 1_554 S
C267 C268 1.498 . S
C267 O282 1.258 1_554 S
C267 O283 1.239 . S
C268 C267 1.498 . S
C268 C269 1.366 . S
C268 C273 1.407 . S
C269 C268 1.366 . S
C269 C270 1.392 . S
C269 H292 0.930 . S
C270 C269 1.392 . S
C270 C271 1.398 . S
C270 H293 0.929 . S
C271 C270 1.398 . S
C271 C272 1.352 . S
C272 C271 1.352 . S
C272 C273 1.384 . S
C272 H294 0.930 . S
C273 C268 1.407 . S
C273 C272 1.384 . S
C273 H295 0.929 . S
C274 O284 1.241 . S
C274 O285 1.273 1_545 S
C275 O286 1.251 . S
C275 O287 1.268 . S
O276 Nd256 2.500 1_655 S
O276 C258 1.258 . S
O277 Nd256 2.492 . S
O277 C258 1.239 1_455 S
O278 Nd256 2.487 . S
O278 C265 1.241 . S
O279 Nd256 2.682 1_545 S
O279 Nd257 2.414 . S
O279 C265 1.273 1_545 S
O280 Nd256 2.410 . S
O280 C266 1.251 . S
O281 Nd257 2.424 1_565 S
O281 C266 1.268 . S
O282 Nd257 2.500 . S
O282 C267 1.258 1_556 S
O283 Nd257 2.492 1_554 S
O283 C267 1.239 . S
O284 Nd257 2.487 1_655 S
O284 C274 1.241 . S
O285 Nd256 2.414 1_655 S
O285 Nd257 2.682 1_665 S
O285 C274 1.273 1_565 S
O286 Nd257 2.410 . S
O286 C275 1.251 . S
O287 Nd256 2.424 1_545 S
O287 C275 1.268 . S
H288 C260 0.930 . S
H289 C261 0.929 . S
H290 C263 0.930 . S
H291 C264 0.929 1_455 S
H292 C269 0.930 . S
H293 C270 0.929 . S
H294 C272 0.930 . S
H295 C273 0.929 . S
Nd296 C298 2.836 . S
Nd296 O316 2.500 . S
Nd296 O317 2.492 . S
Nd296 O318 2.487 1_565 S
Nd296 O319 2.682 1_565 S
Nd296 O320 2.410 1_565 S
Nd296 O325 2.414 . S
Nd296 O327 2.424 . S
Nd297 C307 2.836 1_556 S
Nd297 O319 2.414 . S
Nd297 O321 2.424 . S
Nd297 O322 2.500 . S
Nd297 O323 2.492 1_556 S
Nd297 O324 2.487 1_545 S
Nd297 O325 2.682 1_545 S
Nd297 O326 2.410 1_545 S
C298 Nd296 2.836 . S
C298 C299 1.498 . S
C298 O316 1.258 . S
C298 O317 1.239 . S
C299 C298 1.498 . S
C299 C300 1.366 . S
C299 C304 1.407 . S
C300 C299 1.366 . S
C300 C301 1.392 . S
C300 H328 0.930 . S
C301 C300 1.392 . S
C301 C302 1.398 . S
C301 H329 0.929 . S
C302 C301 1.398 . S
C302 C303 1.352 . S
C303 C302 1.352 . S
C303 C304 1.384 . S
C303 H330 0.930 . S
C304 C299 1.407 . S
C304 C303 1.384 . S
C304 H331 0.929 1_565 S
C305 O318 1.241 . S
C305 O319 1.273 . S
C306 O320 1.251 . S
C306 O321 1.268 . S
C307 Nd297 2.836 1_554 S
C307 C308 1.498 . S
C307 O322 1.258 1_554 S
C307 O323 1.239 . S
C308 C307 1.498 . S
C308 C309 1.366 . S
C308 C313 1.407 . S
C309 C308 1.366 . S
C309 C310 1.392 . S
C309 H332 0.930 1_554 S
C310 C309 1.392 . S
C310 C311 1.398 . S
C310 H333 0.929 . S
C311 C310 1.398 . S
C311 C312 1.352 . S
C312 C311 1.352 . S
C312 C313 1.384 . S
C312 H334 0.930 . S
C313 C308 1.407 . S
C313 C312 1.384 . S
C313 H335 0.929 1_545 S
C314 O324 1.241 . S
C314 O325 1.273 . S
C315 O326 1.251 . S
C315 O327 1.268 . S
O316 Nd296 2.500 . S
O316 C298 1.258 . S
O317 Nd296 2.492 . S
O317 C298 1.239 . S
O318 Nd296 2.487 1_545 S
O318 C305 1.241 . S
O319 Nd296 2.682 1_545 S
O319 Nd297 2.414 . S
O319 C305 1.273 . S
O320 Nd296 2.410 1_545 S
O320 C306 1.251 . S
O321 Nd297 2.424 . S
O321 C306 1.268 . S
O322 Nd297 2.500 . S
O322 C307 1.258 1_556 S
O323 Nd297 2.492 1_554 S
O323 C307 1.239 . S
O324 Nd297 2.487 1_565 S
O324 C314 1.241 . S
O325 Nd296 2.414 . S
O325 Nd297 2.682 1_565 S
O325 C314 1.273 . S
O326 Nd297 2.410 1_565 S
O326 C315 1.251 . S
O327 Nd296 2.424 . S
O327 C315 1.268 . S
H328 C300 0.930 . S
H329 C301 0.929 . S
H330 C303 0.930 . S
H331 C304 0.929 1_545 S
H332 C309 0.930 1_556 S
H333 C310 0.929 . S
H334 C312 0.930 . S
H335 C313 0.929 1_565 S
Nd336 C338 2.836 . S
Nd336 O356 2.500 . S
Nd336 O357 2.492 . S
Nd336 O358 2.487 . S
Nd336 O359 2.682 . S
Nd336 O360 2.410 . S
Nd336 O365 2.414 . S
Nd336 O367 2.424 . S
Nd337 C347 2.836 . S
Nd337 O359 2.414 . S
Nd337 O361 2.424 . S
Nd337 O362 2.500 . S
Nd337 O363 2.492 . S
Nd337 O364 2.487 . S
Nd337 O365 2.682 . S
Nd337 O366 2.410 . S
C338 Nd336 2.836 . S
C338 C339 1.498 . S
C338 O356 1.258 . S
C338 O357 1.239 . S
C339 C338 1.498 . S
C339 C340 1.366 . S
C339 C344 1.407 1_556 S
C340 C339 1.366 . S
C340 C341 1.392 . S
C340 H368 0.930 . S
C341 C340 1.392 . S
C341 C342 1.398 1_556 S
C341 H369 0.929 . S
C342 C341 1.398 1_554 S
C342 C343 1.352 . S
C343 C342 1.352 . S
C343 C344 1.384 . S
C343 H370 0.930 . S
C344 C339 1.407 1_554 S
C344 C343 1.384 . S
C344 H371 0.929 . S
C345 O358 1.241 . S
C345 O359 1.273 . S
C346 O360 1.251 . S
C346 O361 1.268 . S
C347 Nd337 2.836 . S
C347 C348 1.498 . S
C347 O362 1.258 . S
C347 O363 1.239 . S
C348 C347 1.498 . S
C348 C349 1.366 . S
C348 C353 1.407 . S
C349 C348 1.366 . S
C349 C350 1.392 . S
C349 H372 0.930 . S
C350 C349 1.392 . S
C350 C351 1.398 . S
C350 H373 0.929 . S
C351 C350 1.398 . S
C351 C352 1.352 . S
C352 C351 1.352 . S
C352 C353 1.384 . S
C352 H374 0.930 . S
C353 C348 1.407 . S
C353 C352 1.384 . S
C353 H375 0.929 . S
C354 O364 1.241 . S
C354 O365 1.273 . S
C355 O366 1.251 . S
C355 O367 1.268 . S
O356 Nd336 2.500 . S
O356 C338 1.258 . S
O357 Nd336 2.492 . S
O357 C338 1.239 . S
O358 Nd336 2.487 . S
O358 C345 1.241 . S
O359 Nd336 2.682 . S
O359 Nd337 2.414 . S
O359 C345 1.273 . S
O360 Nd336 2.410 . S
O360 C346 1.251 . S
O361 Nd337 2.424 . S
O361 C346 1.268 . S
O362 Nd337 2.500 . S
O362 C347 1.258 . S
O363 Nd337 2.492 . S
O363 C347 1.239 . S
O364 Nd337 2.487 . S
O364 C354 1.241 . S
O365 Nd336 2.414 . S
O365 Nd337 2.682 . S
O365 C354 1.273 . S
O366 Nd337 2.410 . S
O366 C355 1.251 . S
O367 Nd336 2.424 . S
O367 C355 1.268 . S
H368 C340 0.930 . S
H369 C341 0.929 . S
H370 C343 0.930 . S
H371 C344 0.929 . S
H372 C349 0.930 . S
H373 C350 0.929 . S
H374 C352 0.930 . S
H375 C353 0.929 . S
Nd376 C378 2.836 1_455 S
Nd376 O396 2.500 1_455 S
Nd376 O397 2.492 1_455 S
Nd376 O398 2.487 . S
Nd376 O399 2.682 . S
Nd376 O400 2.410 1_455 S
Nd376 O405 2.414 . S
Nd376 O407 2.424 . S
Nd377 C387 2.836 1_556 S
Nd377 O399 2.414 . S
Nd377 O401 2.424 1_455 S
Nd377 O402 2.500 . S
Nd377 O403 2.492 1_556 S
Nd377 O404 2.487 . S
Nd377 O405 2.682 . S
Nd377 O406 2.410 . S
C378 Nd376 2.836 1_655 S
C378 C379 1.498 . S
C378 O396 1.258 . S
C378 O397 1.239 . S
C379 C378 1.498 . S
C379 C380 1.366 . S
C379 C384 1.407 . S
C380 C379 1.366 . S
C380 C381 1.392 . S
C380 H408 0.930 . S
C381 C380 1.392 . S
C381 C382 1.398 . S
C381 H409 0.929 . S
C382 C381 1.398 . S
C382 C383 1.352 . S
C383 C382 1.352 . S
C383 C384 1.384 . S
C383 H410 0.930 . S
C384 C379 1.407 . S
C384 C383 1.384 . S
C384 H411 0.929 . S
C385 O398 1.241 . S
C385 O399 1.273 . S
C386 O400 1.251 . S
C386 O401 1.268 . S
C387 Nd377 2.836 1_554 S
C387 C388 1.498 . S
C387 O402 1.258 1_554 S
C387 O403 1.239 . S
C388 C387 1.498 . S
C388 C389 1.366 . S
C388 C393 1.407 . S
C389 C388 1.366 . S
C389 C390 1.392 . S
C389 H412 0.930 . S
C390 C389 1.392 . S
C390 C391 1.398 . S
C390 H413 0.929 . S
C391 C390 1.398 . S
C391 C392 1.352 . S
C392 C391 1.352 . S
C392 C393 1.384 . S
C392 H414 0.930 . S
C393 C388 1.407 . S
C393 C392 1.384 . S
C393 H415 0.929 . S
C394 O404 1.241 . S
C394 O405 1.273 . S
C395 O406 1.251 . S
C395 O407 1.268 . S
O396 Nd376 2.500 1_655 S
O396 C378 1.258 . S
O397 Nd376 2.492 1_655 S
O397 C378 1.239 . S
O398 Nd376 2.487 . S
O398 C385 1.241 . S
O399 Nd376 2.682 . S
O399 Nd377 2.414 . S
O399 C385 1.273 . S
O400 Nd376 2.410 1_655 S
O400 C386 1.251 . S
O401 Nd377 2.424 1_655 S
O401 C386 1.268 . S
O402 Nd377 2.500 . S
O402 C387 1.258 1_556 S
O403 Nd377 2.492 1_554 S
O403 C387 1.239 . S
O404 Nd377 2.487 . S
O404 C394 1.241 . S
O405 Nd376 2.414 . S
O405 Nd377 2.682 . S
O405 C394 1.273 . S
O406 Nd377 2.410 . S
O406 C395 1.251 . S
O407 Nd376 2.424 . S
O407 C395 1.268 . S
H408 C380 0.930 . S
H409 C381 0.929 . S
H410 C383 0.930 . S
H411 C384 0.929 . S
H412 C389 0.930 . S
H413 C390 0.929 . S
H414 C392 0.930 . S
H415 C393 0.929 . S
H416 C422 0.930 . S
H417 C426 0.930 . S
H418 C431 0.929 . S
H419 C429 0.929 . S
H420 C424 0.929 . S
H421 C430 0.929 . S
C422 H416 0.930 . S
C422 C423 1.375 . S
C422 C430 1.378 . S
C423 C422 1.375 . S
C423 C431 1.428 1_545 S
C424 H420 0.929 . S
C424 C426 1.378 . S
C424 C428 1.350 . S
C425 C428 1.457 . S
C425 C430 1.337 1_565 S
C425 N433 1.448 . S
C426 H417 0.930 . S
C426 C424 1.378 . S
C426 C427 1.367 . S
C427 C426 1.367 . S
C427 C429 1.433 1_565 S
C428 C424 1.350 . S
C428 C425 1.457 . S
C428 N432 1.427 1_565 S
C429 H419 0.929 . S
C429 C427 1.433 1_545 S
C429 N432 1.384 . S
C430 H421 0.929 . S
C430 C422 1.378 . S
C430 C425 1.337 1_545 S
C431 H418 0.929 . S
C431 C423 1.428 1_565 S
C431 N433 1.384 . S
N432 C428 1.427 1_545 S
N432 C429 1.384 . S
N433 C425 1.448 . S
N433 C431 1.384 . S
H434 C440 0.930 . S
H435 C444 0.930 . S
H436 C449 0.929 . S
H437 C447 0.929 . S
H438 C442 0.929 . S
H439 C448 0.929 . S
C440 H434 0.930 . S
C440 C441 1.367 . S
C440 C448 1.378 . S
C441 C440 1.367 . S
C441 C449 1.433 . S
C442 H438 0.929 . S
C442 C444 1.378 . S
C442 C446 1.350 . S
C443 C446 1.463 . S
C443 C448 1.350 . S
C443 N451 1.427 . S
C444 H435 0.930 . S
C444 C442 1.378 . S
C444 C445 1.367 . S
C445 C444 1.367 . S
C445 C447 1.433 . S
C446 C442 1.350 . S
C446 C443 1.463 . S
C446 N450 1.427 . S
C447 H437 0.929 . S
C447 C445 1.433 . S
C447 N450 1.384 . S
C448 H439 0.929 . S
C448 C440 1.378 . S
C448 C443 1.350 . S
C449 H436 0.929 . S
C449 C441 1.433 . S
C449 N451 1.384 . S
N450 C446 1.427 . S
N450 C447 1.384 . S
N451 C443 1.427 . S
N451 C449 1.384 . S
H452 C458 0.930 . S
H453 C462 0.930 . S
H454 C467 0.929 . S
H455 C465 0.929 . S
H456 C460 0.929 . S
H457 C466 0.929 . S
C458 H452 0.930 . S
C458 C459 1.367 . S
C458 C466 1.378 . S
C459 C458 1.367 . S
C459 C467 1.433 . S
C460 H456 0.929 . S
C460 C462 1.378 . S
C460 C464 1.350 . S
C461 C464 1.463 . S
C461 C466 1.350 . S
C461 N469 1.427 . S
C462 H453 0.930 . S
C462 C460 1.378 . S
C462 C463 1.367 . S
C463 C462 1.367 . S
C463 C465 1.433 . S
C464 C460 1.350 . S
C464 C461 1.463 . S
C464 N468 1.427 . S
C465 H455 0.929 . S
C465 C463 1.433 . S
C465 N468 1.384 . S
C466 H457 0.929 . S
C466 C458 1.378 . S
C466 C461 1.350 . S
C467 H454 0.929 . S
C467 C459 1.433 . S
C467 N469 1.384 . S
N468 C464 1.427 . S
N468 C465 1.384 . S
N469 C461 1.427 . S
N469 C467 1.384 . S
H470 C476 0.930 . S
H471 C480 0.930 . S
H472 C485 0.929 . S
H473 C483 0.929 . S
H474 C478 0.929 . S
H475 C484 0.929 . S
C476 H470 0.930 . S
C476 C477 1.367 . S
C476 C484 1.378 . S
C477 C476 1.367 . S
C477 C485 1.433 . S
C478 H474 0.929 . S
C478 C480 1.378 . S
C478 C482 1.350 . S
C479 C482 1.463 . S
C479 C484 1.350 . S
C479 N487 1.427 . S
C480 H471 0.930 . S
C480 C478 1.378 . S
C480 C481 1.367 . S
C481 C480 1.367 . S
C481 C483 1.433 . S
C482 C478 1.350 . S
C482 C479 1.463 . S
C482 N486 1.427 . S
C483 H473 0.929 . S
C483 C481 1.433 . S
C483 N486 1.384 . S
C484 H475 0.929 . S
C484 C476 1.378 . S
C484 C479 1.350 . S
C485 H472 0.929 . S
C485 C477 1.433 . S
C485 N487 1.384 . S
N486 C482 1.427 . S
N486 C483 1.384 . S
N487 C479 1.427 . S
N487 C485 1.384 . S
H488 C494 0.930 1_554 S
H489 C498 0.930 . S
H490 C503 0.929 . S
H491 C501 0.929 . S
H492 C496 0.929 . S
H493 C502 0.929 . S
C494 H488 0.930 1_556 S
C494 C495 1.379 . S
C494 C502 1.378 . S
C495 C494 1.379 . S
C495 C503 1.416 1_545 S
C496 H492 0.929 . S
C496 C498 1.378 . S
C496 C500 1.350 1_565 S
C497 C500 1.463 . S
C497 C502 1.350 . S
C497 N505 1.427 1_545 S
C498 H489 0.930 . S
C498 C496 1.378 . S
C498 C499 1.367 1_565 S
C499 C498 1.367 1_545 S
C499 C501 1.433 . S
C500 C496 1.350 1_545 S
C500 C497 1.463 . S
C500 N504 1.427 . S
C501 H491 0.929 . S
C501 C499 1.433 . S
C501 N504 1.384 . S
C502 H493 0.929 . S
C502 C494 1.378 . S
C502 C497 1.350 . S
C503 H490 0.929 . S
C503 C495 1.416 1_565 S
C503 N505 1.384 . S
N504 C500 1.427 . S
N504 C501 1.384 . S
N505 C497 1.427 1_565 S
N505 C503 1.384 . S
H506 C512 0.930 . S
H507 C516 0.930 1_556 S
H508 C521 0.929 . S
H509 C519 0.932 . S
H510 C514 0.929 . S
H511 C520 0.929 . S
C512 H506 0.930 . S
C512 C513 1.367 . S
C512 C520 1.378 . S
C513 C512 1.367 . S
C513 C521 1.433 . S
C514 H510 0.929 . S
C514 C516 1.378 . S
C514 C518 1.350 . S
C515 C518 1.463 . S
C515 C520 1.350 . S
C515 N523 1.427 . S
C516 H507 0.930 1_554 S
C516 C514 1.378 . S
C516 C517 1.367 1_554 S
C517 C516 1.367 1_556 S
C517 C519 1.433 1_556 S
C518 C514 1.350 . S
C518 C515 1.463 . S
C518 N522 1.427 . S
C519 H509 0.932 . S
C519 C517 1.433 1_554 S
C519 N522 1.384 . S
C520 H511 0.929 . S
C520 C512 1.378 . S
C520 C515 1.350 . S
C521 H508 0.929 . S
C521 C513 1.433 . S
C521 N523 1.384 . S
N522 C518 1.427 . S
N522 C519 1.384 . S
N523 C515 1.427 . S
N523 C521 1.384 . S
H524 C530 0.930 . S
H525 C534 0.930 . S
H526 C539 0.928 1_554 S
H527 C537 0.929 . S
H528 C532 0.929 . S
H529 C538 0.929 . S
C530 H524 0.930 . S
C530 C531 1.365 1_556 S
C530 C538 1.378 . S
C531 C530 1.365 1_554 S
C531 C539 1.434 1_554 S
C532 H528 0.929 . S
C532 C534 1.378 . S
C532 C536 1.350 . S
C533 C536 1.463 . S
C533 C538 1.350 . S
C533 N541 1.427 . S
C534 H525 0.930 . S
C534 C532 1.378 . S
C534 C535 1.367 . S
C535 C534 1.367 . S
C535 C537 1.433 . S
C536 C532 1.350 . S
C536 C533 1.463 . S
C536 N540 1.427 . S
C537 H527 0.929 . S
C537 C535 1.433 . S
C537 N540 1.384 . S
C538 H529 0.929 . S
C538 C530 1.378 . S
C538 C533 1.350 . S
C539 H526 0.928 1_556 S
C539 C531 1.434 1_556 S
C539 N541 1.384 . S
N540 C536 1.427 . S
N540 C537 1.384 . S
N541 C533 1.427 . S
N541 C539 1.384 . S
H542 C548 0.930 . S
H543 C552 0.930 . S
H544 C557 0.929 . S
H545 C555 0.929 . S
H546 C550 0.929 . S
H547 C556 0.929 . S
C548 H542 0.930 . S
C548 C549 1.367 . S
C548 C556 1.378 . S
C549 C548 1.367 . S
C549 C557 1.433 1_554 S
C550 H546 0.929 . S
C550 C552 1.378 . S
C550 C554 1.350 . S
C551 C554 1.463 . S
C551 C556 1.350 1_556 S
C551 N559 1.427 . S
C552 H543 0.930 . S
C552 C550 1.378 . S
C552 C553 1.367 . S
C553 C552 1.367 . S
C553 C555 1.433 . S
C554 C550 1.350 . S
C554 C551 1.463 . S
C554 N558 1.427 . S
C555 H545 0.929 . S
C555 C553 1.433 . S
C555 N558 1.384 . S
C556 H547 0.929 . S
C556 C548 1.378 . S
C556 C551 1.350 1_554 S
C557 H544 0.929 . S
C557 C549 1.433 1_556 S
C557 N559 1.384 . S
N558 C554 1.427 . S
N558 C555 1.384 . S
N559 C551 1.427 . S
N559 C557 1.384 . S
H560 C566 0.930 . S
H561 C570 0.930 . S
H562 C575 0.929 . S
H563 C573 0.929 . S
H564 C568 0.929 . S
H565 C574 0.929 . S
C566 H560 0.930 . S
C566 C567 1.367 . S
C566 C574 1.378 . S
C567 C566 1.367 . S
C567 C575 1.433 . S
C568 H564 0.929 . S
C568 C570 1.378 . S
C568 C572 1.350 . S
C569 C572 1.463 . S
C569 C574 1.350 . S
C569 N577 1.427 . S
C570 H561 0.930 . S
C570 C568 1.378 . S
C570 C571 1.367 . S
C571 C570 1.367 . S
C571 C573 1.433 . S
C572 C568 1.350 . S
C572 C569 1.463 . S
C572 N576 1.427 . S
C573 H563 0.929 . S
C573 C571 1.433 . S
C573 N576 1.384 . S
C574 H565 0.929 . S
C574 C566 1.378 . S
C574 C569 1.350 . S
C575 H562 0.929 . S
C575 C567 1.433 . S
C575 N577 1.384 . S
N576 C572 1.427 . S
N576 C573 1.384 . S
N577 C569 1.427 . S
N577 C575 1.384 . S
H578 C584 0.930 . S
H579 C588 0.930 . S
H580 C593 0.929 . S
H581 C591 0.929 . S
H582 C586 0.929 1_545 S
H583 C592 0.929 . S
C584 H578 0.930 . S
C584 C585 1.373 . S
C584 C592 1.378 . S
C585 C584 1.373 . S
C585 C593 1.433 1_565 S
C586 H582 0.929 1_565 S
C586 C588 1.378 . S
C586 C590 1.350 . S
C587 C590 1.463 . S
C587 C592 1.350 . S
C587 N595 1.427 1_565 S
C588 H579 0.930 . S
C588 C586 1.378 . S
C588 C589 1.367 . S
C589 C588 1.367 . S
C589 C591 1.433 . S
C590 C586 1.350 . S
C590 C587 1.463 . S
C590 N594 1.427 . S
C591 H581 0.929 . S
C591 C589 1.433 . S
C591 N594 1.384 . S
C592 H583 0.929 . S
C592 C584 1.378 . S
C592 C587 1.350 . S
C593 H580 0.929 . S
C593 C585 1.433 1_545 S
C593 N595 1.384 . S
N594 C590 1.427 . S
N594 C591 1.384 . S
N595 C587 1.427 1_545 S
N595 C593 1.384 . S
H596 C602 0.930 . S
H597 C606 0.930 . S
H598 C611 0.929 . S
H599 C609 0.929 . S
H600 C604 0.929 . S
H601 C610 0.929 . S
C602 H596 0.930 . S
C602 C603 1.367 . S
C602 C610 1.378 . S
C603 C602 1.367 . S
C603 C611 1.433 . S
C604 H600 0.929 . S
C604 C606 1.378 . S
C604 C608 1.350 . S
C605 C608 1.463 . S
C605 C610 1.350 . S
C605 N613 1.427 . S
C606 H597 0.930 . S
C606 C604 1.378 . S
C606 C607 1.367 . S
C607 C606 1.367 . S
C607 C609 1.433 . S
C608 C604 1.350 . S
C608 C605 1.463 . S
C608 N612 1.427 . S
C609 H599 0.929 . S
C609 C607 1.433 . S
C609 N612 1.384 . S
C610 H601 0.929 . S
C610 C602 1.378 . S
C610 C605 1.350 . S
C611 H598 0.929 . S
C611 C603 1.433 . S
C611 N613 1.384 . S
N612 C608 1.427 . S
N612 C609 1.384 . S
N613 C605 1.427 . S
N613 C611 1.384 . S
H614 C620 0.930 . S
H615 C624 0.930 . S
H616 C629 0.929 . S
H617 C627 0.929 . S
H618 C622 0.929 . S
H619 C628 0.929 . S
C620 H614 0.930 . S
C620 C621 1.367 . S
C620 C628 1.378 . S
C621 C620 1.367 . S
C621 C629 1.433 . S
C622 H618 0.929 . S
C622 C624 1.378 . S
C622 C626 1.350 . S
C623 C626 1.463 . S
C623 C628 1.350 . S
C623 N631 1.427 . S
C624 H615 0.930 . S
C624 C622 1.378 . S
C624 C625 1.367 . S
C625 C624 1.367 . S
C625 C627 1.433 . S
C626 C622 1.350 . S
C626 C623 1.463 . S
C626 N630 1.427 . S
C627 H617 0.929 . S
C627 C625 1.433 . S
C627 N630 1.384 . S
C628 H619 0.929 . S
C628 C620 1.378 . S
C628 C623 1.350 . S
C629 H616 0.929 . S
C629 C621 1.433 . S
C629 N631 1.384 . S
N630 C626 1.427 . S
N630 C627 1.384 . S
N631 C623 1.427 . S
N631 C629 1.384 . S
H632 C638 0.930 . S
H633 C642 0.930 . S
H634 C647 0.929 . S
H635 C645 0.929 1_455 S
H636 C640 0.929 . S
H637 C646 0.929 . S
C638 H632 0.930 . S
C638 C639 1.367 . S
C638 C646 1.378 . S
C639 C638 1.367 . S
C639 C647 1.433 . S
C640 H636 0.929 . S
C640 C642 1.378 . S
C640 C644 1.350 . S
C641 C644 1.463 . S
C641 C646 1.350 . S
C641 N649 1.427 . S
C642 H633 0.930 . S
C642 C640 1.378 . S
C642 C643 1.367 . S
C643 C642 1.367 . S
C643 C645 1.433 . S
C644 C640 1.350 . S
C644 C641 1.463 . S
C644 N648 1.427 . S
C645 H635 0.929 1_655 S
C645 C643 1.433 . S
C645 N648 1.384 . S
C646 H637 0.929 . S
C646 C638 1.378 . S
C646 C641 1.350 . S
C647 H634 0.929 . S
C647 C639 1.433 . S
C647 N649 1.384 . S
N648 C644 1.427 . S
N648 C645 1.384 . S
N649 C641 1.427 . S
N649 C647 1.384 . S
H650 C656 0.930 . S
H651 C660 0.930 1_565 S
H652 C665 0.929 . S
H653 C663 0.929 . S
H654 C658 0.930 . S
H655 C664 0.929 . S
C656 H650 0.930 . S
C656 C657 1.392 . S
C656 C664 1.378 . S
C657 C656 1.392 . S
C657 C665 1.420 1_545 S
C658 H654 0.930 . S
C658 C660 1.377 1_565 S
C658 C662 1.349 1_565 S
C659 C662 1.463 . S
C659 C664 1.350 . S
C659 N667 1.427 1_545 S
C660 H651 0.930 1_545 S
C660 C658 1.377 1_545 S
C660 C661 1.367 . S
C661 C660 1.367 . S
C661 C663 1.433 . S
C662 C658 1.349 1_545 S
C662 C659 1.463 . S
C662 N666 1.427 . S
C663 H653 0.929 . S
C663 C661 1.433 . S
C663 N666 1.384 . S
C664 H655 0.929 . S
C664 C656 1.378 . S
C664 C659 1.350 . S
C665 H652 0.929 . S
C665 C657 1.420 1_565 S
C665 N667 1.384 . S
N666 C662 1.427 . S
N666 C663 1.384 . S
N667 C659 1.427 1_565 S
N667 C665 1.384 . S
H668 C674 0.930 . S
H669 C678 0.930 . S
H670 C683 0.929 . S
H671 C681 0.929 1_556 S
H672 C676 0.929 . S
H673 C682 0.929 . S
C674 H668 0.930 . S
C674 C675 1.367 . S
C674 C682 1.378 . S
C675 C674 1.367 . S
C675 C683 1.433 . S
C676 H672 0.929 . S
C676 C678 1.378 . S
C676 C680 1.350 . S
C677 C680 1.463 . S
C677 C682 1.350 . S
C677 N685 1.427 . S
C678 H669 0.930 . S
C678 C676 1.378 . S
C678 C679 1.367 . S
C679 C678 1.367 . S
C679 C681 1.433 . S
C680 C676 1.350 . S
C680 C677 1.463 . S
C680 N684 1.427 . S
C681 H671 0.929 1_554 S
C681 C679 1.433 . S
C681 N684 1.384 . S
C682 H673 0.929 . S
C682 C674 1.378 . S
C682 C677 1.350 . S
C683 H670 0.929 . S
C683 C675 1.433 . S
C683 N685 1.384 . S
N684 C680 1.427 . S
N684 C681 1.384 . S
N685 C677 1.427 . S
N685 C683 1.384 . S
H686 C692 0.930 . S
H687 C696 0.930 . S
H688 C701 0.929 . S
H689 C699 0.929 . S
H690 C694 0.929 . S
H691 C700 0.929 . S
C692 H686 0.930 . S
C692 C693 1.367 . S
C692 C700 1.378 . S
C693 C692 1.367 . S
C693 C701 1.433 . S
C694 H690 0.929 . S
C694 C696 1.378 . S
C694 C698 1.350 . S
C695 C698 1.463 . S
C695 C700 1.350 . S
C695 N703 1.427 . S
C696 H687 0.930 . S
C696 C694 1.378 . S
C696 C697 1.367 . S
C697 C696 1.367 . S
C697 C699 1.433 . S
C698 C694 1.350 . S
C698 C695 1.463 . S
C698 N702 1.427 . S
C699 H689 0.929 . S
C699 C697 1.433 . S
C699 N702 1.384 . S
C700 H691 0.929 . S
C700 C692 1.378 . S
C700 C695 1.350 . S
C701 H688 0.929 . S
C701 C693 1.433 . S
C701 N703 1.384 . S
N702 C698 1.427 . S
N702 C699 1.384 . S
N703 C695 1.427 . S
N703 C701 1.384 . S
H704 C710 0.930 . S
H705 C714 0.930 . S
H706 C719 0.929 . S
H707 C717 0.929 . S
H708 C712 0.929 . S
H709 C718 0.929 . S
C710 H704 0.930 . S
C710 C711 1.367 . S
C710 C718 1.378 . S
C711 C710 1.367 . S
C711 C719 1.433 . S
C712 H708 0.929 . S
C712 C714 1.378 . S
C712 C716 1.350 . S
C713 C716 1.463 . S
C713 C718 1.350 . S
C713 N721 1.427 . S
C714 H705 0.930 . S
C714 C712 1.378 . S
C714 C715 1.367 . S
C715 C714 1.367 . S
C715 C717 1.433 . S
C716 C712 1.350 . S
C716 C713 1.463 . S
C716 N720 1.427 . S
C717 H707 0.929 . S
C717 C715 1.433 . S
C717 N720 1.384 . S
C718 H709 0.929 . S
C718 C710 1.378 . S
C718 C713 1.350 . S
C719 H706 0.929 . S
C719 C711 1.433 . S
C719 N721 1.384 . S
N720 C716 1.427 . S
N720 C717 1.384 . S
N721 C713 1.427 . S
N721 C719 1.384 . S
H722 C728 0.930 . S
H723 C732 0.930 . S
H724 C737 0.929 . S
H725 C735 0.929 1_565 S
H726 C730 0.929 . S
H727 C736 0.929 . S
C728 H722 0.930 . S
C728 C729 1.367 1_565 S
C728 C736 1.378 . S
C729 C728 1.367 1_545 S
C729 C737 1.433 . S
C730 H726 0.929 . S
C730 C732 1.378 . S
C730 C734 1.350 . S
C731 C734 1.463 . S
C731 C736 1.350 1_545 S
C731 N739 1.427 . S
C732 H723 0.930 . S
C732 C730 1.378 . S
C732 C733 1.367 . S
C733 C732 1.367 . S
C733 C735 1.433 . S
C734 C730 1.350 . S
C734 C731 1.463 . S
C734 N738 1.427 1_545 S
C735 H725 0.929 1_545 S
C735 C733 1.433 . S
C735 N738 1.384 1_545 S
C736 H727 0.929 . S
C736 C728 1.378 . S
C736 C731 1.350 1_565 S
C737 H724 0.929 . S
C737 C729 1.433 . S
C737 N739 1.384 . S
N738 C734 1.427 1_565 S
N738 C735 1.384 1_565 S
N739 C731 1.427 . S
N739 C737 1.384 . S
H740 C746 0.930 . S
H741 C750 0.930 . S
H742 C755 0.929 . S
H743 C753 0.929 . S
H744 C748 0.929 . S
H745 C754 0.929 . S
C746 H740 0.930 . S
C746 C747 1.367 . S
C746 C754 1.378 . S
C747 C746 1.367 . S
C747 C755 1.433 . S
C748 H744 0.929 . S
C748 C750 1.378 . S
C748 C752 1.350 1_556 S
C749 C752 1.463 . S
C749 C754 1.350 . S
C749 N757 1.427 . S
C750 H741 0.930 . S
C750 C748 1.378 . S
C750 C751 1.367 . S
C751 C750 1.367 . S
C751 C753 1.433 . S
C752 C748 1.350 1_554 S
C752 C749 1.463 . S
C752 N756 1.427 . S
C753 H743 0.929 . S
C753 C751 1.433 . S
C753 N756 1.384 1_556 S
C754 H745 0.929 . S
C754 C746 1.378 . S
C754 C749 1.350 . S
C755 H742 0.929 . S
C755 C747 1.433 . S
C755 N757 1.384 . S
N756 C752 1.427 . S
N756 C753 1.384 1_554 S
N757 C749 1.427 . S
N757 C755 1.384 . S
H758 C764 0.930 . S
H759 C768 0.930 . S
H760 C773 0.929 . S
H761 C771 0.929 . S
H762 C766 0.929 . S
H763 C772 0.929 . S
C764 H758 0.930 . S
C764 C765 1.367 . S
C764 C772 1.378 . S
C765 C764 1.367 . S
C765 C773 1.433 . S
C766 H762 0.929 . S
C766 C768 1.378 . S
C766 C770 1.350 . S
C767 C770 1.463 . S
C767 C772 1.350 . S
C767 N775 1.427 . S
C768 H759 0.930 . S
C768 C766 1.378 . S
C768 C769 1.367 . S
C769 C768 1.367 . S
C769 C771 1.433 . S
C770 C766 1.350 . S
C770 C767 1.463 . S
C770 N774 1.427 . S
C771 H761 0.929 . S
C771 C769 1.433 . S
C771 N774 1.384 . S
C772 H763 0.929 . S
C772 C764 1.378 . S
C772 C767 1.350 . S
C773 H760 0.929 . S
C773 C765 1.433 . S
C773 N775 1.384 . S
N774 C770 1.427 . S
N774 C771 1.384 . S
N775 C767 1.427 . S
N775 C773 1.384 . S
H776 C782 0.930 . S
H777 C786 0.930 . S
H778 C791 0.929 . S
H779 C789 0.929 . S
H780 C784 0.929 . S
H781 C790 0.929 . S
C782 H776 0.930 . S
C782 C783 1.367 . S
C782 C790 1.378 . S
C783 C782 1.367 . S
C783 C791 1.433 . S
C784 H780 0.929 . S
C784 C786 1.378 . S
C784 C788 1.350 . S
C785 C788 1.463 . S
C785 C790 1.350 . S
C785 N793 1.427 . S
C786 H777 0.930 . S
C786 C784 1.378 . S
C786 C787 1.367 . S
C787 C786 1.367 . S
C787 C789 1.433 . S
C788 C784 1.350 . S
C788 C785 1.463 . S
C788 N792 1.427 . S
C789 H779 0.929 . S
C789 C787 1.433 . S
C789 N792 1.384 . S
C790 H781 0.929 . S
C790 C782 1.378 . S
C790 C785 1.350 . S
C791 H778 0.929 . S
C791 C783 1.433 . S
C791 N793 1.384 . S
N792 C788 1.427 . S
N792 C789 1.384 . S
N793 C785 1.427 . S
N793 C791 1.384 . S
H794 C800 0.930 . S
H795 C804 0.930 . S
H796 C809 0.929 . S
H797 C807 0.929 . S
H798 C802 0.929 . S
H799 C808 0.923 1_545 S
C800 H794 0.930 . S
C800 C801 1.367 1_545 S
C800 C808 1.379 1_545 S
C801 C800 1.367 1_565 S
C801 C809 1.433 . S
C802 H798 0.929 . S
C802 C804 1.378 . S
C802 C806 1.350 . S
C803 C806 1.463 . S
C803 C808 1.354 . S
C803 N811 1.427 . S
C804 H795 0.930 . S
C804 C802 1.378 . S
C804 C805 1.367 . S
C805 C804 1.367 . S
C805 C807 1.433 . S
C806 C802 1.350 . S
C806 C803 1.463 . S
C806 N810 1.427 . S
C807 H797 0.929 . S
C807 C805 1.433 . S
C807 N810 1.384 . S
C808 H799 0.923 1_565 S
C808 C800 1.379 1_565 S
C808 C803 1.354 . S
C809 H796 0.929 . S
C809 C801 1.433 . S
C809 N811 1.384 . S
N810 C806 1.427 . S
N810 C807 1.384 . S
N811 C803 1.427 . S
N811 C809 1.384 . S
H812 C818 0.930 . S
H813 C822 0.930 . S
H814 C827 0.929 . S
H815 C825 0.929 . S
H816 C820 0.929 . S
H817 C826 0.929 . S
C818 H812 0.930 . S
C818 C819 1.367 . S
C818 C826 1.378 . S
C819 C818 1.367 . S
C819 C827 1.433 . S
C820 H816 0.929 . S
C820 C822 1.378 . S
C820 C824 1.350 . S
C821 C824 1.463 . S
C821 C826 1.350 . S
C821 N829 1.427 . S
C822 H813 0.930 . S
C822 C820 1.378 . S
C822 C823 1.367 . S
C823 C822 1.367 . S
C823 C825 1.433 . S
C824 C820 1.350 . S
C824 C821 1.463 . S
C824 N828 1.427 . S
C825 H815 0.929 . S
C825 C823 1.433 . S
C825 N828 1.384 . S
C826 H817 0.929 . S
C826 C818 1.378 . S
C826 C821 1.350 . S
C827 H814 0.929 . S
C827 C819 1.433 . S
C827 N829 1.384 . S
N828 C824 1.427 . S
N828 C825 1.384 . S
N829 C821 1.427 . S
N829 C827 1.384 . S
H830 C836 0.930 . S
H831 C840 0.930 . S
H832 C845 0.929 . S
H833 C843 0.929 . S
H834 C838 0.929 . S
H835 C844 0.929 . S
C836 H830 0.930 . S
C836 C837 1.367 . S
C836 C844 1.378 . S
C837 C836 1.367 . S
C837 C845 1.433 . S
C838 H834 0.929 . S
C838 C840 1.378 . S
C838 C842 1.350 . S
C839 C842 1.463 . S
C839 C844 1.350 . S
C839 N847 1.427 . S
C840 H831 0.930 . S
C840 C838 1.378 . S
C840 C841 1.367 . S
C841 C840 1.367 . S
C841 C843 1.433 . S
C842 C838 1.350 . S
C842 C839 1.463 . S
C842 N846 1.427 . S
C843 H833 0.929 . S
C843 C841 1.433 . S
C843 N846 1.384 . S
C844 H835 0.929 . S
C844 C836 1.378 . S
C844 C839 1.350 . S
C845 H832 0.929 . S
C845 C837 1.433 . S
C845 N847 1.384 . S
N846 C842 1.427 . S
N846 C843 1.384 . S
N847 C839 1.427 . S
N847 C845 1.384 . S
C423 C215 1.011 . S
C427 C265 1.005 . S
C445 C305 1.760 . S
C441 C247 1.882 . S
C463 C354 1.588 . S
C459 C151 1.487 . S
C481 C385 2.070 . S
C477 C183 2.168 . S
C499 C274 1.006 . S
C495 C87 1.013 . S
C513 C119 1.684 . S
C517 C314 1.758 . S
C531 C23 1.647 . S
C535 C345 1.590 . S
C549 C55 1.954 . S
C553 C394 2.071 1_655 S
C571 C275 1.273 . S
C567 C189 1.193 . S
C589 C315 0.881 . S
C585 C221 0.857 1_565 S
C607 C351 0.630 . S
C603 C253 0.633 . S
C621 C157 1.183 . S
C625 C395 1.395 . S
C639 C61 0.998 . S
C643 C266 1.275 1_655 S
C661 C306 0.875 . S
C657 C93 0.819 . S
C679 C342 0.636 . S
C675 C125 0.690 . S
C693 C29 1.324 . S
C697 C386 1.399 . S
C711 C177 1.969 . S
C715 C271 2.004 . S
C729 C209 1.594 . S
C733 C311 1.634 . S
C751 C355 2.587 . S
C747 C241 2.417 . S
C769 C391 1.649 . S
C765 C145 1.518 . S
C783 C49 1.852 . S
C787 C262 2.011 . S
C805 C302 1.635 . S
C801 C81 1.633 1_565 S
C823 C346 2.587 . S
C819 C113 2.274 . S
C837 C17 1.654 . S
C841 C382 1.654 . S
