# Generated by pormake.
# Topology tsx, (6,3)-cn, num edge types: 1
# Building blocks:
#     Node 0, Type 0, BuildingBlock: MIDCAF_clean_sbu_0, # of connection points: 6
#     Node 1, Type 0, BuildingBlock: MIDCAF_clean_sbu_0, # of connection points: 6
#     Node 2, Type 1, BuildingBlock: QEWDON_clean_linker_0, # of connection points: 3
#     Node 3, Type 1, BuildingBlock: QEWDON_clean_linker_0, # of connection points: 3
#     Node 4, Type 1, BuildingBlock: QEWDON_clean_linker_0, # of connection points: 3
#     Node 5, Type 1, BuildingBlock: QEWDON_clean_linker_0, # of connection points: 3
#     Edge 6, Type (0, 1), BuildingBlock: EZIPEK_clean_linker_0, # of connection points: 2
#     Edge 7, Type (0, 1), BuildingBlock: EZIPEK_clean_linker_0, # of connection points: 2
#     Edge 8, Type (0, 1), BuildingBlock: EZIPEK_clean_linker_0, # of connection points: 2
#     Edge 9, Type (0, 1), BuildingBlock: EZIPEK_clean_linker_0, # of connection points: 2
#     Edge 10, Type (0, 1), BuildingBlock: EZIPEK_clean_linker_0, # of connection points: 2
#     Edge 11, Type (0, 1), BuildingBlock: EZIPEK_clean_linker_0, # of connection points: 2
#     Edge 12, Type (0, 1), BuildingBlock: EZIPEK_clean_linker_0, # of connection points: 2
#     Edge 13, Type (0, 1), BuildingBlock: EZIPEK_clean_linker_0, # of connection points: 2
#     Edge 14, Type (0, 1), BuildingBlock: EZIPEK_clean_linker_0, # of connection points: 2
#     Edge 15, Type (0, 1), BuildingBlock: EZIPEK_clean_linker_0, # of connection points: 2
#     Edge 16, Type (0, 1), BuildingBlock: EZIPEK_clean_linker_0, # of connection points: 2
#     Edge 17, Type (0, 1), BuildingBlock: EZIPEK_clean_linker_0, # of connection points: 2
# Relax obj value: 0.088
# Max RMSD: 0.146
# Mean RMSD: 0.144
data_MOF--net-tsx--node1-MIDCAF_clean_sbu_0--node2-QEWDON_clean_linker_0--edge1-EZIPEK_clean_linker_0
_symmetry_space_group_name_H-M    P1
_symmetry_Int_Tables_number       1
_symmetry_cell_setting            triclinic
loop_
_symmetry_equiv_pos_as_xyz
'x, y, z'
_cell_length_a     16.302511
_cell_length_b     17.406479
_cell_length_c     25.243705
_cell_angle_alpha  90.605458
_cell_angle_beta   115.46853
_cell_angle_gamma 89.714153
loop_
_atom_site_label
_atom_site_type_symbol
_atom_site_fract_x
_atom_site_fract_y
_atom_site_fract_z
_atom_type_partial_charge
Zn0 Zn 0.92509 -0.00635 0.94075 0.0
Zn1 Zn 0.1899 -0.03314 0.1429 0.0
Zn2 Zn 0.05676 -0.02898 0.04139 0.0
C3 C 0.19397 0.11169 0.10465 0.0
C4 C 0.2233 0.85617 0.07724 0.0
O5 O 0.93824 0.91138 0.04123 0.0
O6 O 0.8427 0.91692 0.94692 0.0
C7 C 0.96354 0.13555 0.98964 0.0
O8 O 0.11548 0.0871 0.06785 0.0
O9 O 0.24941 0.0666 0.14176 0.0
O10 O 0.24376 0.87045 0.13052 0.0
O11 O 0.15994 0.8944 0.03646 0.0
O12 O 0.89984 0.10365 0.94666 0.0
O13 O 0.03011 0.09542 1.02602 0.0
O14 O 0.1011 0.91528 0.97788 0.0
O15 O 0.99303 0.96251 0.89666 0.0
C16 C 0.06593 0.9251 0.92191 0.0
O17 O 0.99768 0.92678 0.09971 0.0
O18 O 0.11142 0.96119 0.18366 0.0
C19 C 0.8633 0.89177 0.99767 0.0
C20 C 0.03118 0.93686 0.1557 0.0
Zn21 Zn 0.71592 0.49928 0.62782 0.0
Zn22 Zn 0.44877 0.45297 0.42411 0.0
Zn23 Zn 0.58777 0.46785 0.52801 0.0
C24 C 0.61479 0.41983 0.41643 0.0
C25 C 0.44494 0.60328 0.46031 0.0
O26 O 0.54381 0.417 0.59174 0.0
O27 O 0.64371 0.47674 0.67071 0.0
C28 C 0.78438 0.39104 0.57744 0.0
O29 O 0.65012 0.41998 0.47285 0.0
O30 O 0.5323 0.43763 0.38697 0.0
O31 O 0.39226 0.55588 0.42323 0.0
O32 O 0.52372 0.58142 0.49844 0.0
O33 O 0.80043 0.41921 0.62711 0.0
O34 O 0.71127 0.40884 0.5319 0.0
O35 O 0.60921 0.59387 0.53916 0.0
O36 O 0.74061 0.60767 0.61705 0.0
C37 C 0.6753 0.63655 0.5737 0.0
O38 O 0.48685 0.39005 0.53482 0.0
O39 O 0.39443 0.36163 0.44245 0.0
C40 C 0.57393 0.43515 0.64644 0.0
C41 C 0.42074 0.35049 0.49661 0.0
H42 H 0.0428 0.01555 0.4028 0.0
C43 C 0.10104 -0.02184 0.41841 0.0
C44 C 0.11217 0.93122 0.37626 0.0
C45 C 0.16699 -0.01972 0.47784 0.0
H46 H 0.19676 0.84528 0.36268 0.0
C47 C 0.18766 0.88269 0.39441 0.0
C48 C 0.24923 0.87847 0.4534 0.0
C49 C 0.24019 0.92804 0.49492 0.0
C50 C 0.15975 0.03735 0.52096 0.0
H51 H 0.28826 0.9229 0.5404 0.0
C52 C 0.05779 0.08062 0.50434 0.0
C53 C 0.06713 0.17866 0.58658 0.0
C54 C 0.25215 0.05964 0.58435 0.0
H55 H 0.31536 0.03158 0.59192 0.0
C56 C 0.25909 0.12186 0.63887 0.0
H57 H 1.00068 0.06355 0.46345 0.0
C58 C 0.17505 0.17869 0.64196 0.0
H59 H 0.18983 0.21498 0.68004 0.0
H60 H 0.32449 0.12405 0.67655 0.0
H61 H 0.09015 0.0082 0.68879 0.0
C62 C 0.02493 -0.0194 0.66561 0.0
C63 C 0.99513 0.93122 0.69752 0.0
C64 C 0.96903 -0.00138 0.60621 0.0
H65 H 0.88772 0.85446 0.69055 0.0
C66 C 0.91114 0.89457 0.66746 0.0
C67 C 0.85835 0.90648 0.60727 0.0
C68 C 0.88442 0.96235 0.57775 0.0
C69 C 1.00134 0.05395 0.57472 0.0
H70 H 0.84226 -0.02755 0.53163 0.0
C71 C 0.11501 0.06055 0.59753 0.0
C72 C 0.15732 0.17127 0.54366 0.0
C73 C 0.92848 0.11307 0.52185 0.0
H74 H 0.857 0.10572 0.51038 0.0
C75 C 0.95386 0.1849 0.48529 0.0
H76 H 0.15716 0.01862 0.62995 0.0
C77 C 0.05864 0.21432 0.49409 0.0
H78 H 0.0632 0.26096 0.46749 0.0
H79 H 0.89657 0.21577 0.45325 0.0
H80 H 0.53892 0.51129 0.88368 0.0
C81 C 0.60298 0.4812 0.90419 0.0
C82 C 0.62886 0.43318 0.86869 0.0
C83 C 0.66267 0.49565 0.96377 0.0
H84 H 0.73156 0.35405 0.8695 0.0
C85 C 0.71127 0.39319 0.89541 0.0
C86 C 0.76731 0.40166 0.95555 0.0
C87 C 0.74558 0.4562 0.9887 0.0
C88 C 0.63855 0.55215 0.99941 0.0
H89 H 0.79058 0.46335 0.03483 0.0
C90 C 0.52671 0.56818 0.98078 0.0
C91 C 0.50494 0.67725 0.04663 0.0
C92 C 0.72083 0.60264 0.05508 0.0
H93 H 0.79037 0.59035 0.06349 0.0
C94 C 0.70811 0.67263 0.09914 0.0
H95 H 0.47759 0.53285 0.94532 0.0
C96 C 0.60963 0.70915 0.09685 0.0
H97 H 0.61321 0.75377 0.12794 0.0
H98 H 0.77017 0.6972 0.132 0.0
H99 H 0.60385 0.51434 0.17446 0.0
C100 C 0.5436 0.47931 0.15796 0.0
C101 C 0.53172 0.43074 0.19816 0.0
C102 C 0.47648 0.48576 0.09928 0.0
H103 H 0.44442 0.34553 0.20837 0.0
C104 C 0.45403 0.38461 0.17831 0.0
C105 C 0.39072 0.38491 0.11949 0.0
C106 C 0.40023 0.43706 0.08035 0.0
C107 C 0.48675 0.54332 0.05883 0.0
H108 H 0.35054 0.43638 0.03498 0.0
C109 C 0.59267 0.57727 0.07522 0.0
C110 C 0.58907 0.68122 0.99954 0.0
C111 C 0.39465 0.57666 0.99946 0.0
H112 H 0.32914 0.55411 0.99249 0.0
C113 C 0.39144 0.64339 0.94926 0.0
H114 H 0.64932 0.55326 0.11326 0.0
C115 C 0.4799 0.69272 0.94715 0.0
H116 H 0.46674 0.73258 0.91178 0.0
H117 H 0.32506 0.65578 0.91464 0.0
C118 C 0.28124 0.19103 0.06563 0.0
C119 C 0.22593 0.18777 0.09602 0.0
C120 C 0.25163 0.32485 0.11946 0.0
C121 C 0.32088 0.32353 0.09955 0.0
N122 N 0.40573 0.25399 0.05602 0.0
N123 N 0.1533 0.25063 0.1498 0.0
C124 C 0.33561 0.25676 0.07208 0.0
C125 C 0.20824 0.25485 0.12157 0.0
N126 N 0.28149 0.13096 0.03051 0.0
N127 N 0.22874 0.39306 0.13681 0.0
H128 H 0.11953 0.20028 0.15077 0.0
H129 H 0.14442 0.29545 0.17444 0.0
H130 H 0.25982 0.44474 0.1352 0.0
H131 H 0.1745 0.39965 0.14784 0.0
H132 H 0.31376 0.13257 1.00279 0.0
H133 H 0.24118 0.08252 1.02475 0.0
H134 H 0.42697 0.20356 0.04311 0.0
H135 H 0.44712 0.30087 0.05923 0.0
C136 C 0.33524 0.84051 0.0356 0.0
C137 C 0.28626 0.80761 0.06392 0.0
C138 C 0.39134 0.69945 0.09149 0.0
C139 C 0.42567 0.72217 0.05092 0.0
N140 N 0.41808 0.81569 0.97895 0.0
N141 N 0.2605 0.69867 0.11306 0.0
C142 C 0.39336 0.79327 1.02114 0.0
C143 C 0.31114 0.73419 0.08932 0.0
N144 N 0.33385 0.91814 1.02752 0.0
N145 N 0.43989 0.65138 0.13623 0.0
H146 H 0.20108 0.72284 0.11199 0.0
H147 H 0.27339 0.64244 0.12845 0.0
H148 H 0.50668 0.63677 0.14573 0.0
H149 H 0.41929 0.63688 0.16863 0.0
H150 H 0.37823 0.94584 1.01414 0.0
H151 H 0.29745 0.95609 0.04146 0.0
H152 H 0.39096 0.86299 0.95183 0.0
H153 H 0.39096 0.86299 0.95183 0.0
C154 C 0.7407 0.86202 1.02808 0.0
C155 C 0.80052 0.83694 1.00439 0.0
C156 C 0.71032 0.72097 0.96561 0.0
C157 C 0.65663 0.74006 0.9952 0.0
N158 N 0.59757 0.84035 0.0335 0.0
N159 N 0.85272 0.73773 0.95899 0.0
C160 C 0.66569 0.81457 1.02073 0.0
C161 C 0.78851 0.76482 0.97576 0.0
N162 N 0.75689 0.93012 0.05838 0.0
N163 N 0.68122 0.66577 0.92324 0.0
H164 H 0.91155 0.7684 0.96628 0.0
H165 H 0.85201 0.68194 0.9434 0.0
H166 H 0.61662 0.6421 0.90915 0.0
H167 H 0.71447 0.65303 0.89707 0.0
H168 H 0.72415 0.94741 0.08393 0.0
H169 H 0.80879 -0.03263 0.06177 0.0
H170 H 0.59217 0.89581 0.04764 0.0
H171 H 0.59217 0.89581 0.04764 0.0
C172 C 0.96113 0.27496 0.96754 0.0
C173 C 0.95219 0.2163 1.0028 0.0
C174 C 0.84267 0.29137 1.02286 0.0
C175 C 0.8449 0.34812 0.98335 0.0
N176 N 0.927 0.40703 0.93478 0.0
N177 N 0.91916 0.18303 0.08351 0.0
C178 C 0.9122 0.34457 0.96175 0.0
C179 C 0.90581 0.2303 0.03782 0.0
N180 N 1.01294 0.26222 0.93787 0.0
N181 N 0.77516 0.2906 0.04133 0.0
H182 H 0.96503 0.13738 0.09464 0.0
H183 H 0.89307 0.19482 0.11386 0.0
H184 H 0.72391 0.33159 0.02973 0.0
H185 H 0.76532 0.24503 0.06441 0.0
H186 H 0.01512 0.29928 0.9064 0.0
H187 H 0.05226 0.21258 0.94428 0.0
H188 H 0.9788 0.40993 0.92117 0.0
H189 H 0.89188 0.45858 0.93085 0.0
C190 C 0.66623 0.77754 0.58975 0.0
C191 C 0.68332 0.7167 0.55851 0.0
C192 C 0.79014 0.79459 0.53874 0.0
C193 C 0.78144 0.85318 0.57574 0.0
N194 N 0.69063 0.91234 0.61879 0.0
N195 N 0.7265 0.67845 0.48265 0.0
C196 C 0.71116 0.8489 0.5946 0.0
C197 C 0.73249 0.72978 0.52532 0.0
N198 N 0.6108 0.76535 0.61678 0.0
N199 N 0.85883 0.7963 0.52139 0.0
H200 H 0.68434 0.63037 0.47272 0.0
H201 H 0.75454 0.68854 0.45328 0.0
H202 H 0.90438 0.84154 0.5304 0.0
H203 H 0.87471 0.74988 0.50111 0.0
H204 H 0.60206 0.80465 0.64529 0.0
H205 H 0.57477 0.71409 0.61106 0.0
H206 H 0.63689 0.91479 0.63064 0.0
H207 H 0.72352 0.96479 0.62225 0.0
C208 C 0.85908 0.2634 0.60006 0.0
C209 C 0.85168 0.33655 0.57446 0.0
C210 C 0.99903 0.31749 0.57297 0.0
C211 C 1.00309 0.24074 0.59353 0.0
N212 N 0.96198 0.16346 0.65573 0.0
N213 N 0.91793 0.43654 0.54009 0.0
C214 C 0.94015 0.22026 0.61566 0.0
C215 C 0.92227 0.36421 0.56167 0.0
N216 N 0.78821 0.23481 0.60903 0.0
N217 N 0.07011 0.3501 0.56751 0.0
H218 H 0.86317 0.47339 0.53171 0.0
H219 H 0.96861 0.45889 0.52983 0.0
H220 H 0.13252 0.32308 0.58048 0.0
H221 H 0.13252 0.32308 0.58048 0.0
H222 H 0.78637 0.17854 0.62218 0.0
H223 H 0.72764 0.26508 0.59782 0.0
H224 H 0.92156 0.14928 0.67679 0.0
H225 H 0.02678 0.1393 0.67305 0.0
C226 C 0.32867 0.32812 0.5522 0.0
C227 C 0.36614 0.29951 0.5152 0.0
C228 C 0.26498 0.19061 0.49404 0.0
C229 C 0.24417 0.20797 0.54273 0.0
N230 N 0.30139 0.29198 0.63248 0.0
N231 N 0.37621 0.19397 0.45538 0.0
C232 C 0.28855 0.27619 0.57638 0.0
C233 C 0.33918 0.22616 0.48959 0.0
N234 N 0.32883 0.40483 0.56369 0.0
N235 N 0.20872 0.15029 0.44604 0.0
H236 H 0.43141 0.21827 0.45106 0.0
H237 H 0.35473 0.14051 0.43494 0.0
H238 H 0.1425 0.13554 0.43753 0.0
H239 H 0.1425 0.13554 0.43753 0.0
H240 H 0.29377 0.42809 0.58629 0.0
H241 H 0.3541 0.4452 0.54459 0.0
H242 H 0.32899 0.34379 0.65367 0.0
H243 H 0.31245 0.2512 0.66389 0.0
C244 C 0.34359 0.67772 0.49263 0.0
C245 C 0.40796 0.67797 0.46871 0.0
C246 C 0.39087 0.81749 0.45668 0.0
C247 C 0.31545 0.81425 0.47069 0.0
N248 N 0.21596 0.74084 0.49928 0.0
N249 N 0.49529 0.74682 0.42844 0.0
C250 C 0.29166 0.74452 0.48896 0.0
C251 C 0.43358 0.74782 0.45172 0.0
N252 N 0.33307 0.61347 0.5196 0.0
N253 N 0.42056 0.88729 0.44781 0.0
H254 H 0.52754 0.69654 0.42465 0.0
H255 H 0.51108 0.79449 0.41007 0.0
H256 H 0.38988 0.93867 0.45137 0.0
H257 H 0.47942 0.89491 0.44199 0.0
H258 H 0.29433 0.61176 0.54333 0.0
H259 H 0.37083 0.5639 0.52313 0.0
H260 H 0.18819 0.68946 0.50477 0.0
H261 H 0.17703 0.78874 0.49877 0.0
C262 C 0.98873 0.85823 0.22004 0.0
C263 C 0.97787 0.92782 0.18991 0.0
C264 C 0.02328 0.00116 0.27961 0.0
C265 C 0.04668 0.93185 0.31244 0.0
N266 N 0.01353 0.79644 0.31164 0.0
N267 N 0.92975 0.05795 0.18536 0.0
C268 C 0.0155 0.8607 0.28175 0.0
C269 C 0.97207 -0.00403 0.21816 0.0
N270 N 0.98087 0.79087 0.19031 0.0
N271 N 0.05933 0.07013 0.30457 0.0
H272 H 0.89611 0.05332 0.13973 0.0
H273 H 0.92103 0.10942 0.20387 0.0
H274 H 0.11007 0.07502 0.34695 0.0
H275 H 0.04805 0.12057 0.28052 0.0
H276 H 0.99731 0.73753 0.21055 0.0
H277 H 0.95988 0.79026 0.14491 0.0
H278 H 0.98704 0.74418 0.29105 0.0
H279 H 0.03059 0.79807 0.35653 0.0
C280 C 0.13668 -0.03125 0.86207 0.0
C281 C 0.11239 0.90422 0.88487 0.0
C282 C 0.05887 0.84463 0.78752 0.0
C283 C 0.04961 0.9193 0.76261 0.0
N284 N 0.06679 0.05638 0.78323 0.0
N285 N 0.06513 0.773 0.87163 0.0
C286 C 0.08811 -0.01728 0.80156 0.0
C287 C 0.08062 0.83864 0.8485 0.0
N288 N 0.19296 0.02234 0.89931 0.0
N289 N 0.04717 0.78057 0.75349 0.0
H290 H 0.08277 0.76894 0.91652 0.0
H291 H 0.03253 0.72517 0.84626 0.0
H292 H 0.03598 0.78379 0.70964 0.0
H293 H 0.05812 0.72518 0.77045 0.0
H294 H 0.21453 0.07069 0.8847 0.0
H295 H 0.22373 0.01273 0.9443 0.0
H296 H 0.08986 0.1038 0.81134 0.0
H297 H 0.01375 0.06846 0.74305 0.0
C298 C 0.50225 0.48359 0.70568 0.0
C299 C 0.52472 0.41785 0.68213 0.0
C300 C 0.56111 0.35319 0.77487 0.0
C301 C 0.57378 0.42653 0.80316 0.0
N302 N 0.56535 0.56506 0.79018 0.0
N303 N 0.55825 0.28353 0.68983 0.0
C304 C 0.54312 0.49298 0.7672 0.0
C305 C 0.54613 0.34967 0.71491 0.0
N306 N 0.45597 0.54176 0.66935 0.0
N307 N 0.56471 0.28803 0.8053 0.0
H308 H 0.54493 0.28117 0.64549 0.0
H309 H 0.58361 0.23314 0.71318 0.0
H310 H 0.57253 0.29001 0.84858 0.0
H311 H 0.55094 0.23363 0.78586 0.0
H312 H 0.43403 0.5905 0.68398 0.0
H313 H 0.43352 0.53656 0.62409 0.0
H314 H 0.54924 0.61452 0.76475 0.0
H315 H 0.61236 0.57436 0.8329 0.0
C316 C 0.68035 0.4807 0.35943 0.0
C317 C 0.6695 0.4112 0.3831 0.0
C318 C 0.6266 0.35177 0.28704 0.0
C319 C 0.59971 0.42567 0.26124 0.0
N320 N 0.60122 0.56403 0.27818 0.0
N321 N 0.65737 0.27493 0.37377 0.0
C322 C 0.62964 0.49188 0.29848 0.0
C323 C 0.65396 0.34429 0.34845 0.0
N324 N 0.72839 0.53836 0.39617 0.0
N325 N 0.62388 0.28976 0.25285 0.0
H326 H 0.67823 0.27076 0.41902 0.0
H327 H 0.63725 0.22361 0.35012 0.0
H328 H 0.60643 0.29506 0.20811 0.0
H329 H 0.64711 0.23549 0.26984 0.0
H330 H 0.74234 0.58983 0.38088 0.0
H331 H 0.76092 0.52991 0.44143 0.0
H332 H 0.61661 0.61212 0.30573 0.0
H333 H 0.55397 0.57498 0.2357 0.0
loop_
_geom_bond_atom_site_label_1
_geom_bond_atom_site_label_2
_geom_bond_distance
_geom_bond_site_symmetry_2
_ccdc_geom_bond_type
Zn0 O6 1.920 1_545 S
Zn0 O12 1.898 . S
Zn0 O15 1.905 1_545 S
Zn1 O9 1.905 . S
Zn1 O10 1.898 1_545 S
Zn1 O18 1.920 1_545 S
Zn2 O5 2.080 1_444 S
Zn2 O8 2.114 . S
Zn2 O11 2.120 1_545 S
Zn2 O13 2.120 1_455 S
Zn2 O14 2.114 1_554 S
Zn2 O17 2.080 . S
C3 O8 1.166 . S
C3 O9 1.182 . S
C4 O10 1.167 . S
C4 O11 1.299 . S
O5 Zn2 2.080 1_666 S
O5 C19 1.305 . S
O6 Zn0 1.920 1_565 S
O6 C19 1.234 . S
C7 O12 1.167 . S
C7 O13 1.299 1_556 S
O8 Zn2 2.114 . S
O8 C3 1.166 . S
O9 Zn1 1.905 . S
O9 C3 1.182 . S
O10 Zn1 1.898 1_565 S
O10 C4 1.167 . S
O11 Zn2 2.120 1_565 S
O11 C4 1.299 . S
O12 Zn0 1.898 . S
O12 C7 1.167 . S
O13 Zn2 2.120 1_655 S
O13 C7 1.299 1_554 S
O14 Zn2 2.114 1_556 S
O14 C16 1.166 1_445 S
O15 Zn0 1.905 1_565 S
O15 C16 1.182 . S
C16 O14 1.166 1_665 S
C16 O15 1.182 . S
O17 Zn2 2.080 . S
O17 C20 1.305 1_545 S
O18 Zn1 1.920 1_565 S
O18 C20 1.234 . S
C19 O5 1.305 . S
C19 O6 1.234 . S
C20 O17 1.305 1_565 S
C20 O18 1.234 . S
Zn21 O27 1.920 . S
Zn21 O33 1.898 . S
Zn21 O36 1.905 . S
Zn22 O30 1.905 . S
Zn22 O31 1.898 . S
Zn22 O39 1.920 . S
Zn23 O26 2.080 . S
Zn23 O29 2.114 . S
Zn23 O32 2.120 . S
Zn23 O34 2.120 . S
Zn23 O35 2.114 . S
Zn23 O38 2.080 . S
C24 O29 1.166 . S
C24 O30 1.182 . S
C25 O31 1.167 . S
C25 O32 1.299 . S
O26 Zn23 2.080 . S
O26 C40 1.305 . S
O27 Zn21 1.920 . S
O27 C40 1.234 . S
C28 O33 1.167 . S
C28 O34 1.299 . S
O29 Zn23 2.114 . S
O29 C24 1.166 . S
O30 Zn22 1.905 . S
O30 C24 1.182 . S
O31 Zn22 1.898 . S
O31 C25 1.167 . S
O32 Zn23 2.120 . S
O32 C25 1.299 . S
O33 Zn21 1.898 . S
O33 C28 1.167 . S
O34 Zn23 2.120 . S
O34 C28 1.299 . S
O35 Zn23 2.114 . S
O35 C37 1.166 . S
O36 Zn21 1.905 . S
O36 C37 1.182 . S
C37 O35 1.166 . S
C37 O36 1.182 . S
O38 Zn23 2.080 . S
O38 C41 1.305 . S
O39 Zn22 1.920 . S
O39 C41 1.234 . S
C40 O26 1.305 . S
C40 O27 1.234 . S
C41 O38 1.305 . S
C41 O39 1.234 . S
H42 C43 0.949 . S
C43 H42 0.949 . S
C43 C44 1.395 . S
C43 C45 1.391 . S
C44 C43 1.395 . S
C44 C47 1.390 1_545 S
C45 C43 1.391 . S
C45 C49 1.387 1_545 S
C45 C50 1.491 . S
H46 C47 0.950 . S
C47 C44 1.390 1_565 S
C47 H46 0.950 . S
C47 C48 1.378 . S
C48 C47 1.378 . S
C48 C49 1.409 . S
C49 C45 1.387 1_565 S
C49 C48 1.409 . S
C49 H51 0.951 . S
C50 C45 1.491 . S
C50 C52 1.382 . S
C50 C54 1.404 . S
H51 C49 0.951 . S
C52 C50 1.382 . S
C52 C53 1.390 1_455 S
C52 H57 0.949 1_455 S
C53 C52 1.390 1_655 S
C53 C58 1.399 1_655 S
C54 C50 1.404 . S
C54 H55 0.950 . S
C54 C56 1.375 . S
H55 C54 0.950 . S
C56 C54 1.375 . S
C56 C58 1.382 . S
C56 H60 0.950 . S
H57 C52 0.949 1_655 S
C58 C53 1.399 1_455 S
C58 C56 1.382 . S
C58 H59 0.952 . S
H59 C58 0.952 . S
H60 C56 0.950 . S
H61 C62 0.949 . S
C62 H61 0.949 . S
C62 C63 1.395 1_455 S
C62 C64 1.391 1_455 S
C63 C62 1.395 1_655 S
C63 C66 1.390 1_545 S
C64 C62 1.391 1_655 S
C64 C68 1.387 1_545 S
C64 C69 1.491 1_655 S
H65 C66 0.950 . S
C66 C63 1.390 1_565 S
C66 H65 0.950 . S
C66 C67 1.378 . S
C67 C66 1.378 . S
C67 C68 1.409 . S
C68 C64 1.387 1_565 S
C68 C67 1.409 . S
C68 H70 0.951 . S
C69 C64 1.491 1_455 S
C69 C71 1.382 . S
C69 C73 1.404 1_455 S
H70 C68 0.951 . S
C71 C69 1.382 . S
C71 C72 1.390 . S
C71 H76 0.949 . S
C72 C71 1.390 . S
C72 C77 1.399 . S
C73 C69 1.404 1_655 S
C73 H74 0.950 . S
C73 C75 1.375 . S
H74 C73 0.950 . S
C75 C73 1.375 . S
C75 C77 1.382 1_655 S
C75 H79 0.950 . S
H76 C71 0.949 . S
C77 C72 1.399 . S
C77 C75 1.382 1_455 S
C77 H78 0.952 . S
H78 C77 0.952 . S
H79 C75 0.950 . S
H80 C81 0.949 . S
C81 H80 0.949 . S
C81 C82 1.395 . S
C81 C83 1.391 . S
C82 C81 1.395 . S
C82 C85 1.390 . S
C83 C81 1.391 . S
C83 C87 1.387 . S
C83 C88 1.491 . S
H84 C85 0.950 . S
C85 C82 1.390 . S
C85 H84 0.950 . S
C85 C86 1.378 . S
C86 C85 1.378 . S
C86 C87 1.409 . S
C87 C83 1.387 . S
C87 C86 1.409 . S
C87 H89 0.951 1_556 S
C88 C83 1.491 . S
C88 C90 1.382 . S
C88 C92 1.404 1_556 S
H89 C87 0.951 1_554 S
C90 C88 1.382 . S
C90 C91 1.392 . S
C90 H95 0.949 . S
C91 C90 1.392 . S
C91 C96 1.397 1_556 S
C92 C88 1.404 1_554 S
C92 H93 0.950 . S
C92 C94 1.375 . S
H93 C92 0.950 . S
C94 C92 1.375 . S
C94 C96 1.382 . S
C94 H98 0.950 . S
H95 C90 0.949 . S
C96 C91 1.397 1_554 S
C96 C94 1.382 . S
C96 H97 0.952 . S
H97 C96 0.952 . S
H98 C94 0.950 . S
H99 C100 0.949 . S
C100 H99 0.949 . S
C100 C101 1.395 . S
C100 C102 1.391 . S
C101 C100 1.395 . S
C101 C104 1.390 . S
C102 C100 1.391 . S
C102 C106 1.387 . S
C102 C107 1.491 . S
H103 C104 0.950 . S
C104 C101 1.390 . S
C104 H103 0.950 . S
C104 C105 1.378 . S
C105 C104 1.378 . S
C105 C106 1.409 . S
C106 C102 1.387 . S
C106 C105 1.409 . S
C106 H108 0.951 . S
C107 C102 1.491 . S
C107 C109 1.382 . S
C107 C111 1.404 1_554 S
H108 C106 0.951 . S
C109 C107 1.382 . S
C109 C110 1.390 . S
C109 H114 0.949 . S
C110 C109 1.390 . S
C110 C115 1.399 1_554 S
C111 C107 1.404 1_556 S
C111 H112 0.950 . S
C111 C113 1.375 . S
H112 C111 0.950 . S
C113 C111 1.375 . S
C113 C115 1.382 . S
C113 H117 0.950 . S
H114 C109 0.949 . S
C115 C110 1.399 1_556 S
C115 C113 1.382 . S
C115 H116 0.952 . S
H116 C115 0.952 . S
H117 C113 0.950 . S
C118 C119 1.363 . S
C118 C124 1.379 . S
C118 N126 1.356 1_554 S
C119 C118 1.363 . S
C119 C125 1.363 . S
C120 C121 1.363 . S
C120 C125 1.379 . S
C120 N127 1.356 . S
C121 C120 1.363 . S
C121 C124 1.363 . S
N122 C124 1.361 . S
N122 H134 0.978 1_554 S
N122 H135 0.986 . S
N123 C125 1.356 . S
N123 H128 0.984 . S
N123 H129 0.985 . S
C124 C118 1.379 . S
C124 C121 1.363 . S
C124 N122 1.361 . S
C125 C119 1.363 . S
C125 C120 1.379 . S
C125 N123 1.356 . S
N126 C118 1.356 1_556 S
N126 H132 0.984 . S
N126 H133 0.984 . S
N127 C120 1.356 . S
N127 H130 0.984 . S
N127 H131 0.985 . S
H128 N123 0.984 . S
H129 N123 0.985 . S
H130 N127 0.984 . S
H131 N127 0.985 . S
H132 N126 0.984 . S
H133 N126 0.984 . S
H134 N122 0.978 1_556 S
H135 N122 0.986 . S
C136 C137 1.363 . S
C136 C142 1.379 . S
C136 N144 1.356 . S
C137 C136 1.363 . S
C137 C143 1.363 1_556 S
C138 C139 1.363 1_554 S
C138 C143 1.379 . S
C138 N145 1.356 . S
C139 C138 1.363 1_556 S
C139 C142 1.363 . S
N140 C142 1.356 . S
N140 H152 0.984 . S
N140 H153 0.985 . S
N141 C143 1.356 . S
N141 H146 0.984 . S
N141 H147 0.985 . S
C142 C136 1.379 . S
C142 C139 1.363 . S
C142 N140 1.356 . S
C143 C137 1.363 1_554 S
C143 C138 1.379 . S
C143 N141 1.356 . S
N144 C136 1.356 . S
N144 H150 0.984 . S
N144 H151 0.984 . S
N145 C138 1.356 . S
N145 H148 0.984 . S
N145 H149 0.985 . S
H146 N141 0.984 . S
H147 N141 0.985 . S
H148 N145 0.984 . S
H149 N145 0.985 . S
H150 N144 0.984 . S
H151 N144 0.984 . S
H152 N140 0.984 . S
H153 N140 0.985 . S
C154 C155 1.363 . S
C154 C160 1.379 . S
C154 N162 1.356 . S
C155 C154 1.363 . S
C155 C161 1.363 1_554 S
C156 C157 1.363 1_556 S
C156 C161 1.379 . S
C156 N163 1.356 . S
C157 C156 1.363 1_554 S
C157 C160 1.363 . S
N158 C160 1.356 . S
N158 H170 0.984 . S
N158 H171 0.985 . S
N159 C161 1.356 . S
N159 H164 0.984 . S
N159 H165 0.985 . S
C160 C154 1.379 . S
C160 C157 1.363 . S
C160 N158 1.356 . S
C161 C155 1.363 1_556 S
C161 C156 1.379 . S
C161 N159 1.356 . S
N162 C154 1.356 . S
N162 H168 0.984 . S
N162 H169 0.984 . S
N163 C156 1.356 . S
N163 H166 0.984 . S
N163 H167 0.985 . S
H164 N159 0.984 . S
H165 N159 0.985 . S
H166 N163 0.984 . S
H167 N163 0.985 . S
H168 N162 0.984 . S
H169 N162 0.984 . S
H170 N158 0.984 . S
H171 N158 0.985 . S
C172 C173 1.363 . S
C172 C178 1.379 . S
C172 N180 1.356 . S
C173 C172 1.363 . S
C173 C179 1.363 1_556 S
C174 C175 1.363 . S
C174 C179 1.379 1_556 S
C174 N181 1.356 1_556 S
C175 C174 1.363 . S
C175 C178 1.363 . S
N176 C178 1.356 . S
N176 H188 0.984 . S
N176 H189 0.985 . S
N177 C179 1.356 . S
N177 H182 0.984 . S
N177 H183 0.985 . S
C178 C172 1.379 . S
C178 C175 1.363 . S
C178 N176 1.356 . S
C179 C173 1.363 1_554 S
C179 C174 1.379 1_554 S
C179 N177 1.356 . S
N180 C172 1.356 . S
N180 H186 0.984 . S
N180 H187 0.984 . S
N181 C174 1.356 1_554 S
N181 H184 0.989 . S
N181 H185 0.985 . S
H182 N177 0.984 . S
H183 N177 0.985 . S
H184 N181 0.989 . S
H185 N181 0.985 . S
H186 N180 0.984 . S
H187 N180 0.984 . S
H188 N176 0.984 . S
H189 N176 0.985 . S
C190 C191 1.363 . S
C190 C196 1.379 . S
C190 N198 1.356 . S
C191 C190 1.363 . S
C191 C197 1.363 . S
C192 C193 1.363 . S
C192 C197 1.379 . S
C192 N199 1.356 . S
C193 C192 1.363 . S
C193 C196 1.363 . S
N194 C196 1.356 . S
N194 H206 0.984 . S
N194 H207 0.985 . S
N195 C197 1.356 . S
N195 H200 0.984 . S
N195 H201 0.985 . S
C196 C190 1.379 . S
C196 C193 1.363 . S
C196 N194 1.356 . S
C197 C191 1.363 . S
C197 C192 1.379 . S
C197 N195 1.356 . S
N198 C190 1.356 . S
N198 H204 0.984 . S
N198 H205 0.984 . S
N199 C192 1.356 . S
N199 H202 0.984 . S
N199 H203 0.985 . S
H200 N195 0.984 . S
H201 N195 0.985 . S
H202 N199 0.984 . S
H203 N199 0.985 . S
H204 N198 0.984 . S
H205 N198 0.984 . S
H206 N194 0.984 . S
H207 N194 0.985 . S
C208 C209 1.363 . S
C208 C214 1.379 . S
C208 N216 1.356 . S
C209 C208 1.363 . S
C209 C215 1.363 . S
C210 C211 1.363 . S
C210 C215 1.379 . S
C210 N217 1.356 . S
C211 C210 1.363 . S
C211 C214 1.363 . S
N212 C214 1.356 . S
N212 H224 0.984 . S
N212 H225 0.985 . S
N213 C215 1.356 . S
N213 H218 0.984 . S
N213 H219 0.985 . S
C214 C208 1.379 . S
C214 C211 1.363 . S
C214 N212 1.356 . S
C215 C209 1.363 . S
C215 C210 1.379 . S
C215 N213 1.356 . S
N216 C208 1.356 . S
N216 H222 0.984 . S
N216 H223 0.984 . S
N217 C210 1.356 . S
N217 H220 0.984 1_655 S
N217 H221 0.985 . S
H218 N213 0.984 . S
H219 N213 0.985 . S
H220 N217 0.984 1_455 S
H221 N217 0.985 . S
H222 N216 0.984 . S
H223 N216 0.984 . S
H224 N212 0.984 . S
H225 N212 0.985 . S
C226 C227 1.363 . S
C226 C232 1.379 . S
C226 N234 1.356 . S
C227 C226 1.363 . S
C227 C233 1.363 . S
C228 C229 1.363 . S
C228 C233 1.379 . S
C228 N235 1.356 . S
C229 C228 1.363 . S
C229 C232 1.363 . S
N230 C232 1.356 . S
N230 H242 0.984 . S
N230 H243 0.985 . S
N231 C233 1.356 . S
N231 H236 0.984 . S
N231 H237 0.985 . S
C232 C226 1.379 . S
C232 C229 1.363 . S
C232 N230 1.356 . S
C233 C227 1.363 . S
C233 C228 1.379 . S
C233 N231 1.356 . S
N234 C226 1.356 . S
N234 H240 0.984 . S
N234 H241 0.984 . S
N235 C228 1.356 . S
N235 H238 0.984 . S
N235 H239 0.985 . S
H236 N231 0.984 . S
H237 N231 0.985 . S
H238 N235 0.984 . S
H239 N235 0.985 . S
H240 N234 0.984 . S
H241 N234 0.984 . S
H242 N230 0.984 . S
H243 N230 0.985 . S
C244 C245 1.363 . S
C244 C250 1.379 . S
C244 N252 1.356 . S
C245 C244 1.363 . S
C245 C251 1.363 . S
C246 C247 1.363 . S
C246 C251 1.379 . S
C246 N253 1.356 . S
C247 C246 1.363 . S
C247 C250 1.363 . S
N248 C250 1.356 . S
N248 H260 0.984 . S
N248 H261 0.985 . S
N249 C251 1.356 . S
N249 H254 0.984 . S
N249 H255 0.985 . S
C250 C244 1.379 . S
C250 C247 1.363 . S
C250 N248 1.356 . S
C251 C245 1.363 . S
C251 C246 1.379 . S
C251 N249 1.356 . S
N252 C244 1.356 . S
N252 H258 0.984 . S
N252 H259 0.984 . S
N253 C246 1.356 . S
N253 H256 0.984 . S
N253 H257 0.985 . S
H254 N249 0.984 . S
H255 N249 0.985 . S
H256 N253 0.984 . S
H257 N253 0.985 . S
H258 N252 0.984 . S
H259 N252 0.984 . S
H260 N248 0.984 . S
H261 N248 0.985 . S
C262 C263 1.363 . S
C262 C268 1.379 . S
C262 N270 1.356 . S
C263 C262 1.363 . S
C263 C269 1.363 1_565 S
C264 C265 1.363 . S
C264 C269 1.379 . S
C264 N271 1.356 . S
C265 C264 1.363 . S
C265 C268 1.363 1_545 S
N266 C268 1.356 . S
N266 H278 0.984 . S
N266 H279 0.985 . S
N267 C269 1.356 . S
N267 H272 0.984 . S
N267 H273 0.985 . S
C268 C262 1.379 . S
C268 C265 1.363 1_565 S
C268 N266 1.356 . S
C269 C263 1.363 1_545 S
C269 C264 1.379 . S
C269 N267 1.356 . S
N270 C262 1.356 . S
N270 H276 0.984 1_455 S
N270 H277 0.984 . S
N271 C264 1.356 . S
N271 H274 0.984 . S
N271 H275 0.985 . S
H272 N267 0.984 . S
H273 N267 0.985 . S
H274 N271 0.984 . S
H275 N271 0.985 . S
H276 N270 0.984 1_655 S
H277 N270 0.984 . S
H278 N266 0.984 . S
H279 N266 0.985 . S
C280 C281 1.363 1_645 S
C280 C286 1.379 . S
C280 N288 1.356 . S
C281 C280 1.363 1_465 S
C281 C287 1.363 . S
C282 C283 1.363 1_465 S
C282 C287 1.379 . S
C282 N289 1.356 . S
C283 C282 1.363 1_645 S
C283 C286 1.363 . S
N284 C286 1.356 . S
N284 H296 0.984 . S
N284 H297 0.985 . S
N285 C287 1.356 . S
N285 H290 0.984 . S
N285 H291 0.985 . S
C286 C280 1.379 . S
C286 C283 1.363 . S
C286 N284 1.356 . S
C287 C281 1.363 . S
C287 C282 1.379 . S
C287 N285 1.356 . S
N288 C280 1.356 . S
N288 H294 0.984 . S
N288 H295 0.984 . S
N289 C282 1.356 . S
N289 H292 0.984 . S
N289 H293 0.985 . S
H290 N285 0.984 . S
H291 N285 0.985 . S
H292 N289 0.984 . S
H293 N289 0.985 . S
H294 N288 0.984 . S
H295 N288 0.984 . S
H296 N284 0.984 . S
H297 N284 0.985 . S
C298 C299 1.363 . S
C298 C304 1.379 . S
C298 N306 1.356 . S
C299 C298 1.363 . S
C299 C305 1.363 . S
C300 C301 1.363 . S
C300 C305 1.379 . S
C300 N307 1.356 . S
C301 C300 1.363 . S
C301 C304 1.363 . S
N302 C304 1.356 . S
N302 H314 0.984 . S
N302 H315 0.985 . S
N303 C305 1.356 . S
N303 H308 0.984 . S
N303 H309 0.985 . S
C304 C298 1.379 . S
C304 C301 1.363 . S
C304 N302 1.356 . S
C305 C299 1.363 . S
C305 C300 1.379 . S
C305 N303 1.356 . S
N306 C298 1.356 . S
N306 H312 0.984 . S
N306 H313 0.984 . S
N307 C300 1.356 . S
N307 H310 0.984 . S
N307 H311 0.985 . S
H308 N303 0.984 . S
H309 N303 0.985 . S
H310 N307 0.984 . S
H311 N307 0.985 . S
H312 N306 0.984 . S
H313 N306 0.984 . S
H314 N302 0.984 . S
H315 N302 0.985 . S
C316 C317 1.363 . S
C316 C322 1.379 . S
C316 N324 1.356 . S
C317 C316 1.363 . S
C317 C323 1.363 . S
C318 C319 1.363 . S
C318 C323 1.379 . S
C318 N325 1.356 . S
C319 C318 1.363 . S
C319 C322 1.363 . S
N320 C322 1.356 . S
N320 H332 0.984 . S
N320 H333 0.985 . S
N321 C323 1.356 . S
N321 H326 0.984 . S
N321 H327 0.985 . S
C322 C316 1.379 . S
C322 C319 1.363 . S
C322 N320 1.356 . S
C323 C317 1.363 . S
C323 C318 1.379 . S
C323 N321 1.356 . S
N324 C316 1.356 . S
N324 H330 0.984 . S
N324 H331 0.984 . S
N325 C318 1.356 . S
N325 H328 0.984 . S
N325 H329 0.985 . S
H326 N321 0.984 . S
H327 N321 0.985 . S
H328 N325 0.984 . S
H329 N325 0.985 . S
H330 N324 0.984 . S
H331 N324 0.984 . S
H332 N320 0.984 . S
H333 N320 0.985 . S
C121 C105 1.425 . S
C119 C3 1.335 . S
C137 C4 1.418 1_556 S
C139 C91 1.517 . S
C155 C19 1.438 1_554 S
C157 C110 1.522 . S
C173 C7 1.339 . S
C175 C86 1.433 . S
C191 C37 1.335 . S
C193 C67 1.425 . S
C209 C28 1.418 . S
C211 C53 1.517 . S
C229 C72 1.522 . S
C227 C41 1.438 . S
C247 C48 1.433 . S
C245 C25 1.339 . S
C263 C20 1.403 . S
C265 C44 1.535 . S
C281 C16 1.441 1_455 S
C283 C63 1.568 . S
C301 C82 1.534 . S
C299 C40 1.403 . S
C317 C24 1.441 . S
C319 C101 1.568 . S
