# Generated by pormake.
# Topology pyr, (3,6)-cn, num edge types: 1
# Building blocks:
#     Node 0, Type 0, BuildingBlock: QEWDON_clean_linker_0, # of connection points: 3
#     Node 1, Type 0, BuildingBlock: QEWDON_clean_linker_0, # of connection points: 3
#     Node 2, Type 0, BuildingBlock: QEWDON_clean_linker_0, # of connection points: 3
#     Node 3, Type 0, BuildingBlock: QEWDON_clean_linker_0, # of connection points: 3
#     Node 4, Type 0, BuildingBlock: QEWDON_clean_linker_0, # of connection points: 3
#     Node 5, Type 0, BuildingBlock: QEWDON_clean_linker_0, # of connection points: 3
#     Node 6, Type 0, BuildingBlock: QEWDON_clean_linker_0, # of connection points: 3
#     Node 7, Type 0, BuildingBlock: QEWDON_clean_linker_0, # of connection points: 3
#     Node 8, Type 1, BuildingBlock: VOLQOD_clean_sbu_1, # of connection points: 6
#     Node 9, Type 1, BuildingBlock: VOLQOD_clean_sbu_1, # of connection points: 6
#     Node 10, Type 1, BuildingBlock: VOLQOD_clean_sbu_1, # of connection points: 6
#     Node 11, Type 1, BuildingBlock: VOLQOD_clean_sbu_1, # of connection points: 6
#     Edge 12, Type (0, 1), BuildingBlock: XIVTED_clean_linker_0, # of connection points: 2
#     Edge 13, Type (0, 1), BuildingBlock: XIVTED_clean_linker_0, # of connection points: 2
#     Edge 14, Type (0, 1), BuildingBlock: XIVTED_clean_linker_0, # of connection points: 2
#     Edge 15, Type (0, 1), BuildingBlock: XIVTED_clean_linker_0, # of connection points: 2
#     Edge 16, Type (0, 1), BuildingBlock: XIVTED_clean_linker_0, # of connection points: 2
#     Edge 17, Type (0, 1), BuildingBlock: XIVTED_clean_linker_0, # of connection points: 2
#     Edge 18, Type (0, 1), BuildingBlock: XIVTED_clean_linker_0, # of connection points: 2
#     Edge 19, Type (0, 1), BuildingBlock: XIVTED_clean_linker_0, # of connection points: 2
#     Edge 20, Type (0, 1), BuildingBlock: XIVTED_clean_linker_0, # of connection points: 2
#     Edge 21, Type (0, 1), BuildingBlock: XIVTED_clean_linker_0, # of connection points: 2
#     Edge 22, Type (0, 1), BuildingBlock: XIVTED_clean_linker_0, # of connection points: 2
#     Edge 23, Type (0, 1), BuildingBlock: XIVTED_clean_linker_0, # of connection points: 2
#     Edge 24, Type (0, 1), BuildingBlock: XIVTED_clean_linker_0, # of connection points: 2
#     Edge 25, Type (0, 1), BuildingBlock: XIVTED_clean_linker_0, # of connection points: 2
#     Edge 26, Type (0, 1), BuildingBlock: XIVTED_clean_linker_0, # of connection points: 2
#     Edge 27, Type (0, 1), BuildingBlock: XIVTED_clean_linker_0, # of connection points: 2
#     Edge 28, Type (0, 1), BuildingBlock: XIVTED_clean_linker_0, # of connection points: 2
#     Edge 29, Type (0, 1), BuildingBlock: XIVTED_clean_linker_0, # of connection points: 2
#     Edge 30, Type (0, 1), BuildingBlock: XIVTED_clean_linker_0, # of connection points: 2
#     Edge 31, Type (0, 1), BuildingBlock: XIVTED_clean_linker_0, # of connection points: 2
#     Edge 32, Type (0, 1), BuildingBlock: XIVTED_clean_linker_0, # of connection points: 2
#     Edge 33, Type (0, 1), BuildingBlock: XIVTED_clean_linker_0, # of connection points: 2
#     Edge 34, Type (0, 1), BuildingBlock: XIVTED_clean_linker_0, # of connection points: 2
#     Edge 35, Type (0, 1), BuildingBlock: XIVTED_clean_linker_0, # of connection points: 2
# Relax obj value: 0.168
# Max RMSD: 0.274
# Mean RMSD: 0.204
data_MOF--net-pry--node1-VOLQOD_clean_sbu_1--node2-QEWDON_clean_linker_0--edge1-XIVTED_clean_linker_0
_symmetry_space_group_name_H-M    P1
_symmetry_Int_Tables_number       1
_symmetry_cell_setting            triclinic
loop_
_symmetry_equiv_pos_as_xyz
'x, y, z'
_cell_length_a     37.080521
_cell_length_b     37.391302
_cell_length_c     40.009104
_cell_angle_alpha  89.939784
_cell_angle_beta   90.865967
_cell_angle_gamma 99.205457
loop_
_atom_site_label
_atom_site_type_symbol
_atom_site_fract_x
_atom_site_fract_y
_atom_site_fract_z
_atom_type_partial_charge
H0 H 0.21155 0.23371 0.1432 0.0
C1 C 0.19796 0.21986 0.16445 0.0
C2 C 0.20281 0.18411 0.17228 0.0
C3 C 0.17757 0.239 0.18524 0.0
H4 H 0.18868 0.1402 0.20752 0.0
C5 C 0.18455 0.16714 0.20015 0.0
C6 C 0.16333 0.18574 0.22064 0.0
C7 C 0.1604 0.22188 0.2133 0.0
C8 C 0.1797 0.27853 0.1811 0.0
H9 H 0.14543 0.23698 0.22982 0.0
C10 C 0.161 0.29345 0.15498 0.0
C11 C 0.16513 0.33136 0.15103 0.0
C12 C 0.20206 0.30159 0.20328 0.0
H13 H 0.21668 0.29051 0.22345 0.0
C14 C 0.20626 0.33904 0.19931 0.0
H15 H 0.14363 0.27576 0.13782 0.0
C16 C 0.18808 0.35388 0.1733 0.0
H17 H 0.19148 0.38309 0.17088 0.0
H18 H 0.2237 0.35663 0.21643 0.0
H19 H 0.3586 0.92024 0.77418 0.0
C20 C 0.37651 0.9065 0.75943 0.0
C21 C 0.41268 0.90584 0.7703 0.0
C22 C 0.36223 0.88696 0.7311 0.0
H23 H 0.46258 0.8852 0.75976 0.0
C24 C 0.43467 0.8858 0.75171 0.0
C25 C 0.42061 0.86621 0.72298 0.0
C26 C 0.38424 0.86706 0.71303 0.0
C27 C 0.32269 0.8819 0.7238 0.0
H28 H 0.37216 0.8506 0.6922 0.0
C29 C 0.30669 0.90789 0.70589 0.0
C30 C 0.26871 0.90217 0.69962 0.0
C31 C 0.30083 0.85016 0.73497 0.0
H32 H 0.31288 0.82988 0.74866 0.0
C33 C 0.26332 0.84439 0.72869 0.0
H34 H 0.32356 0.93241 0.69721 0.0
C35 C 0.2473 0.87019 0.71121 0.0
H36 H 0.2181 0.86492 0.70638 0.0
H37 H 0.24659 0.81983 0.73736 0.0
H38 H 0.62278 0.50343 0.97431 0.0
C39 C 0.61412 0.47698 0.98522 0.0
C40 C 0.64016 0.45524 0.99474 0.0
C41 C 0.57662 0.46441 0.98876 0.0
H42 H 0.6476 0.40325 0.01473 0.0
C43 C 0.62794 0.42048 0.00757 0.0
C44 C 0.59049 0.4071 0.01018 0.0
C45 C 0.56499 0.42955 1.00137 0.0
C46 C 0.54942 0.48615 0.97614 0.0
H47 H 0.536 0.41946 0.00314 0.0
C48 C 0.55124 0.49835 0.94297 0.0
C49 C 0.52378 0.516 0.92932 0.0
C50 C 0.5203 0.49263 0.99608 0.0
H51 H 0.51837 0.48332 0.02174 0.0
C52 C 0.49337 0.51105 0.98288 0.0
H53 H 0.57301 0.49224 0.9272 0.0
C54 C 0.49484 0.52241 0.94956 0.0
H55 H 0.47332 0.53597 0.93954 0.0
H56 H 0.47097 0.51598 0.99834 0.0
H57 H 0.87151 0.70003 0.36453 0.0
C58 C 0.86038 0.688 0.38758 0.0
C59 C 0.87194 0.70451 0.41827 0.0
C60 C 0.83355 0.65685 0.38651 0.0
H61 H 0.86431 0.70295 0.47169 0.0
C62 C 0.85648 0.68962 0.44803 0.0
C63 C 0.82955 0.65874 0.44736 0.0
C64 C 0.81875 0.64216 0.41657 0.0
C65 C 0.81932 0.64081 0.35403 0.0
H66 H 0.79762 0.61851 0.4159 0.0
C67 C 0.84315 0.63727 0.32765 0.0
C68 C 0.82962 0.62165 0.2971 0.0
C69 C 0.78161 0.62898 0.34925 0.0
H70 H 0.76243 0.63206 0.36878 0.0
C71 C 0.76811 0.61348 0.31897 0.0
H72 H 0.87231 0.64578 0.33114 0.0
C73 C 0.7919 0.6097 0.29305 0.0
H74 H 0.78075 0.59792 0.26964 0.0
H75 H 0.73906 0.60453 0.31554 0.0
H76 H 0.85233 0.89948 0.90648 0.0
C77 C 0.86882 0.9108 0.88573 0.0
C78 C 0.90173 0.89813 0.8787 0.0
C79 C 0.85624 0.93676 0.86515 0.0
H80 H 0.94702 0.90194 0.8447 0.0
C81 C 0.9223 0.91231 0.85097 0.0
C82 C 0.91018 0.93872 0.83045 0.0
C83 C 0.87749 0.95102 0.83812 0.0
C84 C 0.81962 0.94717 0.86973 0.0
H85 H 0.86759 0.97077 0.822 0.0
C86 C 0.80757 0.95593 0.90149 0.0
C87 C 0.77372 0.96793 0.90461 0.0
C88 C 0.79668 0.94916 0.84162 0.0
H89 H 0.80478 0.94172 0.81701 0.0
C90 C 0.763 0.96068 0.84488 0.0
H91 H 0.82479 0.95454 0.92343 0.0
C92 C 0.75167 0.97034 0.87614 0.0
H93 H 0.72542 0.97933 0.87822 0.0
H94 H 0.74567 0.96223 0.82308 0.0
H95 H 0.6758 0.15966 0.49006 0.0
C96 C 0.66554 0.15701 0.46454 0.0
C97 C 0.68637 0.14404 0.43944 0.0
C98 C 0.63104 0.16618 0.45712 0.0
H99 H 0.68672 0.1289 0.38741 0.0
C100 C 0.67192 0.14055 0.40665 0.0
C101 C 0.63743 0.14974 0.39879 0.0
C102 C 0.61726 0.16283 0.42424 0.0
C103 C 0.60746 0.17463 0.4845 0.0
H104 H 0.59036 0.16942 0.41877 0.0
C105 C 0.60029 0.21004 0.4898 0.0
C106 C 0.57747 0.21732 0.51614 0.0
C107 C 0.5917 0.14647 0.50537 0.0
H108 H 0.59692 0.11908 0.50156 0.0
C109 C 0.56864 0.15327 0.53094 0.0
H110 H 0.61312 0.23178 0.47395 0.0
C111 C 0.56143 0.18828 0.53626 0.0
H112 H 0.54292 0.19245 0.55603 0.0
H113 H 0.55619 0.13128 0.54668 0.0
H114 H 0.42135 0.68303 0.21446 0.0
C115 C 0.39487 0.67804 0.20196 0.0
C116 C 0.37982 0.70725 0.1889 0.0
C117 C 0.376 0.64243 0.19862 0.0
H118 H 0.33484 0.72334 0.16133 0.0
C119 C 0.34585 0.7008 0.17239 0.0
C120 C 0.32701 0.66551 0.16822 0.0
C121 C 0.34225 0.63632 0.18131 0.0
C122 C 0.39137 0.61177 0.21362 0.0
H123 H 0.32747 0.60899 0.17866 0.0
C124 C 0.40522 0.61431 0.24658 0.0
C125 C 0.41934 0.58525 0.26142 0.0
C126 C 0.39195 0.57982 0.19536 0.0
H127 H 0.38165 0.57726 0.16986 0.0
C128 C 0.40633 0.55101 0.20978 0.0
H129 H 0.40476 0.6389 0.26077 0.0
C130 C 0.41993 0.55361 0.24258 0.0
H131 H 0.43026 0.53062 0.25339 0.0
H132 H 0.40675 0.52649 0.19554 0.0
H133 H 0.12825 0.47716 0.64967 0.0
C134 C 0.12106 0.45705 0.63034 0.0
C135 C 0.14933 0.44825 0.61062 0.0
C136 C 0.08492 0.43832 0.62634 0.0
H137 H 0.16465 0.41258 0.57331 0.0
C138 C 0.14225 0.42001 0.58746 0.0
C139 C 0.10722 0.39995 0.58393 0.0
C140 C 0.07847 0.41086 0.60172 0.0
C141 C 0.0548 0.44476 0.64946 0.0
H142 H 0.05138 0.39617 0.59748 0.0
C143 C 0.05801 0.47617 0.66969 0.0
C144 C 0.03122 0.48041 0.69323 0.0
C145 C 0.02313 0.41835 0.65317 0.0
H146 H 0.01934 0.39268 0.6403 0.0
C147 C 0.99559 0.42369 0.675 0.0
H148 H 0.08137 0.49739 0.66797 0.0
C149 C -0.00043 0.45439 0.69502 0.0
H150 H 0.97871 0.45681 0.71318 0.0
H151 H 0.97163 0.40315 0.67736 0.0
O152 O 0.01547 0.12109 0.54471 0.0
Zn153 Zn 0.99042 0.0695 0.54149 0.0
O154 O 0.01909 0.04219 0.5138 0.0
Zn155 Zn 0.99542 0.03318 0.46992 0.0
Zn156 Zn 0.06906 0.06822 0.50895 0.0
Zn157 Zn 0.02116 0.99706 0.53642 0.0
O158 O 0.98563 0.97929 0.46017 0.0
O159 O 0.0054 0.9549 0.50626 0.0
O160 O 0.94131 0.07129 0.52003 0.0
O161 O 0.9469 0.05223 0.46803 0.0
O162 O 0.02858 0.05701 0.43374 0.0
O163 O 0.0818 0.07418 0.46016 0.0
O164 O 0.10707 0.0452 0.5356 0.0
O165 O 0.98259 0.04782 0.58791 0.0
O166 O 0.0715 0.99556 0.55319 0.0
O167 O 0.99212 0.99168 0.57849 0.0
C168 C 0.04743 0.1367 0.5373 0.0
C169 C 0.99166 0.95173 0.47687 0.0
C170 C 0.06237 0.07076 0.43342 0.0
C171 C 0.92856 0.06525 0.49047 0.0
C172 C 0.10248 0.01572 0.55219 0.0
C173 C 0.9821 0.01526 0.59767 0.0
O174 O 0.07085 0.11927 0.52487 0.0
O175 O 0.50428 0.12212 0.04226 0.0
Zn176 Zn 0.47843 0.07131 0.05087 0.0
O177 O 0.50572 0.04707 0.08403 0.0
Zn178 Zn 0.51556 0.00159 0.06547 0.0
Zn179 Zn 0.55242 0.07739 0.09482 0.0
Zn180 Zn 0.47737 0.03781 0.12498 0.0
O181 O 0.49694 0.95985 0.09528 0.0
O182 O 0.46817 0.98445 0.13545 0.0
O183 O 0.47078 0.043 0.00711 0.0
O184 O 0.49308 0.9928 0.0194 0.0
O185 O 0.56925 0.00211 0.0597 0.0
O186 O 0.59531 0.05687 0.07634 0.0
O187 O 0.55943 0.08454 0.14453 0.0
O188 O 0.4294 0.07794 0.069 0.0
O189 O 0.50512 0.06232 0.16498 0.0
O190 O 0.42876 0.0556 0.12056 0.0
C191 C 0.53309 0.14066 0.05486 0.0
C192 C 0.47843 0.95699 0.12196 0.0
C193 C 0.59752 0.02592 0.06401 0.0
C194 C 0.47746 0.01175 0.99893 0.0
C195 C 0.53783 0.07857 0.16909 0.0
C196 C 0.41365 0.07093 0.09688 0.0
O197 O 0.55334 0.12677 0.07548 0.0
O198 O 0.54827 0.5718 0.66779 0.0
Zn199 Zn 0.55023 0.59325 0.62145 0.0
O200 O 0.51602 0.56268 0.59113 0.0
Zn201 Zn 0.54209 0.54663 0.55366 0.0
Zn202 Zn 0.49258 0.51925 0.6144 0.0
Zn203 Zn 0.47933 0.59093 0.57435 0.0
O204 O 0.52363 0.56333 0.50988 0.0
O205 O 0.48004 0.59457 0.52394 0.0
O206 O 0.60227 0.59931 0.60464 0.0
O207 O 0.59513 0.56571 0.55844 0.0
O208 O 0.53823 0.49254 0.55121 0.0
O209 O 0.50661 0.47268 0.59591 0.0
O210 O 0.43798 0.51585 0.61191 0.0
O211 O 0.53554 0.64268 0.62737 0.0
O212 O 0.42886 0.56672 0.58679 0.0
O213 O 0.48658 0.64124 0.59448 0.0
C214 C 0.52841 0.54448 0.68073 0.0
C215 C 0.49895 0.58193 0.50181 0.0
C216 C 0.5243 0.46667 0.56997 0.0
C217 C 0.61539 0.58574 0.5792 0.0
C218 C 0.41662 0.53694 0.60117 0.0
C219 C 0.50969 0.65773 0.61539 0.0
O220 O 0.50593 0.52274 0.6631 0.0
O221 O 0.96703 0.56614 0.0762 0.0
Zn222 Zn 0.97731 0.54816 0.03087 0.0
O223 O 0.0034 0.58826 0.00505 0.0
Zn224 Zn 0.97246 0.5985 0.96807 0.0
Zn225 Zn 0.01488 0.63253 0.03227 0.0
Zn226 Zn 0.04805 0.57348 0.98838 0.0
O227 O 0.99538 0.58976 0.92463 0.0
O228 O 0.04977 0.57555 0.93784 0.0
O229 O 0.92787 0.5292 0.0106 0.0
O230 O 0.92263 0.56869 0.97005 0.0
O231 O 0.96533 0.65015 0.96773 0.0
O232 O -0.0003 0.67699 0.00924 0.0
O233 O 0.06886 0.64184 0.04297 0.0
O234 O 0.00593 0.50691 0.0367 0.0
O235 O 0.09186 0.60449 0.00902 0.0
O236 O 0.05337 0.52294 0.00383 0.0
C237 C 0.97179 0.59689 0.09063 0.0
C238 C 0.0261 0.58189 0.91609 0.0
C239 C 0.97818 0.67845 0.98426 0.0
C240 C 0.90924 0.54153 0.98757 0.0
C241 C 0.09602 0.62905 0.03142 0.0
C242 C 0.03545 0.50049 0.02386 0.0
O243 O 0.98863 0.62513 0.07642 0.0
H244 H 0.11997 0.11965 0.22651 0.0
H245 H 0.12414 0.12062 0.42559 0.0
H246 H 0.17045 0.21181 0.28454 0.0
H247 H 0.03758 0.05539 0.36915 0.0
H248 H 0.14833 0.14838 0.37352 0.0
H249 H 0.09557 0.09015 0.27818 0.0
C250 C 0.12579 0.13365 0.25015 0.0
C251 C 0.14702 0.16825 0.25135 0.0
C252 C 0.12411 0.12791 0.37256 0.0
C253 C 0.1199 0.13457 0.31031 0.0
C254 C 0.11042 0.11183 0.40223 0.0
C255 C 0.07874 0.08562 0.40176 0.0
C256 C 0.10639 0.11734 0.34208 0.0
C257 C 0.06199 0.07556 0.3707 0.0
C258 C 0.11185 0.11689 0.27951 0.0
C259 C 0.15385 0.18528 0.28254 0.0
N260 N 0.0761 0.09134 0.34206 0.0
N261 N 0.14057 0.16815 0.31083 0.0
H262 H 0.45337 0.87951 0.81971 0.0
H263 H 0.44337 0.04294 0.94736 0.0
H264 H 0.40149 0.97176 0.79514 0.0
H265 H 0.49051 0.94771 0.97211 0.0
H266 H 0.42973 0.01877 0.89089 0.0
H267 H 0.47023 0.90609 0.87457 0.0
C268 C 0.44597 0.90562 0.82562 0.0
C269 C 0.42595 0.92337 0.80265 0.0
C270 C 0.44306 0.00319 0.90871 0.0
C271 C 0.44462 0.95376 0.86595 0.0
C272 C 0.45081 0.01696 0.94101 0.0
C273 C 0.46808 0.99736 0.96469 0.0
C274 C 0.4527 0.96961 0.89991 0.0
C275 C 0.47711 0.96384 0.95486 0.0
C276 C 0.45532 0.92065 0.85714 0.0
C277 C 0.41656 0.95687 0.81213 0.0
N278 N 0.46935 0.9511 0.92332 0.0
N279 N 0.42587 0.9709 0.84303 0.0
H280 H 0.58083 0.5505 0.89286 0.0
H281 H 0.48021 0.49891 0.71832 0.0
H282 H 0.46799 0.50026 0.88388 0.0
H283 H 0.57751 0.57931 0.72679 0.0
H284 H 0.47858 0.49444 0.77906 0.0
H285 H 0.58277 0.55805 0.832 0.0
C286 C 0.55639 0.5414 0.87804 0.0
C287 C 0.52418 0.52478 0.89328 0.0
C288 C 0.50029 0.51305 0.76762 0.0
C289 C 0.52636 0.53275 0.82395 0.0
C290 C 0.50145 0.51543 0.73291 0.0
C291 C 0.52906 0.53956 0.71739 0.0
C292 C 0.52714 0.53465 0.78704 0.0
C293 C 0.55569 0.56039 0.73769 0.0
C294 C 0.55751 0.54571 0.84341 0.0
C295 C 0.49324 0.51352 0.87309 0.0
N296 N 0.55412 0.5574 0.77152 0.0
N297 N 0.4952 0.51739 0.83939 0.0
H298 H 0.88513 0.67213 0.2734 0.0
H299 H 0.93348 0.54249 0.12748 0.0
H300 H 0.83099 0.56231 0.25779 0.0
H301 H 0.9728 0.65767 0.1297 0.0
H302 H 0.90261 0.54788 0.17997 0.0
H303 H 0.92402 0.66578 0.22542 0.0
C304 C 0.88169 0.6466 0.26004 0.0
C305 C 0.85466 0.61777 0.26935 0.0
C306 C 0.9181 0.57198 0.16908 0.0
C307 C 0.89882 0.61037 0.21463 0.0
C308 C 0.93585 0.56895 0.13907 0.0
C309 C 0.95553 0.59976 0.12389 0.0
C310 C 0.91997 0.60606 0.18421 0.0
C311 C 0.95775 0.63323 0.14035 0.0
C312 C 0.90372 0.64307 0.23261 0.0
C313 C 0.85113 0.58537 0.25112 0.0
N314 N 0.93999 0.63553 0.16958 0.0
N315 N 0.8729 0.58257 0.22462 0.0
H316 H 0.26697 0.21583 0.14285 0.0
H317 H 0.35986 0.04344 0.14048 0.0
H318 H 0.20212 0.11088 0.16071 0.0
H319 H 0.38786 0.12785 0.06736 0.0
H320 H 0.3046 0.06892 0.15349 0.0
H321 H 0.31421 0.18582 0.11919 0.0
C322 C 0.26205 0.18657 0.14131 0.0
C323 C 0.23009 0.16608 0.15416 0.0
C324 C 0.32267 0.08148 0.1343 0.0
C325 C 0.28546 0.13158 0.12824 0.0
C326 C 0.35421 0.06711 0.12698 0.0
C327 C 0.37848 0.0836 0.10284 0.0
C328 C 0.31599 0.11313 0.11807 0.0
C329 C 0.36982 0.1142 0.08604 0.0
C330 C 0.2894 0.16947 0.12799 0.0
C331 C 0.22647 0.12804 0.15207 0.0
N332 N 0.33961 0.12836 0.09438 0.0
N333 N 0.25407 0.11203 0.13995 0.0
H334 H 0.20885 0.93021 0.71796 0.0
H335 H 0.17772 0.02738 0.54368 0.0
H336 H 0.28708 0.93428 0.63885 0.0
H337 H 0.09328 0.9823 0.61174 0.0
H338 H 0.2236 0.00696 0.58176 0.0
H339 H 0.17247 0.9651 0.68342 0.0
C340 C 0.21854 0.93886 0.69337 0.0
C341 C 0.2506 0.92882 0.68097 0.0
C342 C 0.19499 0.00186 0.58823 0.0
C343 C 0.20886 0.9685 0.64101 0.0
C344 C 0.16893 0.0135 0.56663 0.0
C345 C 0.13167 0.006 0.57437 0.0
C346 C 0.18348 0.9836 0.61793 0.0
C347 C 0.12163 0.98809 0.60445 0.0
C348 C 0.19776 0.95871 0.67362 0.0
C349 C 0.26234 0.94136 0.64919 0.0
N350 N 0.14728 0.97762 0.62501 0.0
N351 N 0.24114 0.96017 0.62997 0.0
H352 H 0.67779 0.52466 1.00166 0.0
H353 H 0.87471 0.47327 0.00286 0.0
H354 H 0.69378 0.41562 0.97756 0.0
H355 H 0.85481 0.57624 0.96409 0.0
H356 H 0.80862 0.45156 1.0013 0.0
H357 H 0.74329 0.54485 0.99535 0.0
C358 C 0.69482 0.50495 0.99481 0.0
C359 C 0.67995 0.46823 0.9904 0.0
C360 C 0.81891 0.47875 0.99282 0.0
C361 C 0.7551 0.49119 0.98418 0.0
C362 C 0.85647 0.49114 0.99375 0.0
C363 C 0.87016 0.52654 0.98354 0.0
C364 C 0.795 0.5023 0.98252 0.0
C365 C 0.84538 0.54866 0.97197 0.0
C366 C 0.73224 0.51654 0.99136 0.0
C367 C 0.70386 0.44398 0.98218 0.0
N368 N 0.8089 0.53636 0.97226 0.0
N369 N 0.7403 0.45582 0.97972 0.0
H370 H 0.80925 0.5891 0.4693 0.0
H371 H 0.66334 0.64786 0.59374 0.0
H372 H 0.80305 0.70008 0.49466 0.0
H373 H 0.65655 0.54234 0.54838 0.0
H374 H 0.72527 0.66429 0.57165 0.0
H375 H 0.76468 0.56897 0.51252 0.0
C376 C 0.79896 0.6092 0.48437 0.0
C377 C 0.80925 0.64627 0.47795 0.0
C378 C 0.71043 0.63731 0.56715 0.0
C379 C 0.7582 0.62353 0.52721 0.0
C380 C 0.67523 0.62792 0.57983 0.0
C381 C 0.6547 0.59402 0.5722 0.0
C382 C 0.72501 0.6124 0.54711 0.0
C383 C 0.67127 0.56907 0.55418 0.0
C384 C 0.7736 0.59774 0.50905 0.0
C385 C 0.79574 0.67121 0.49868 0.0
N386 N 0.70528 0.57889 0.54194 0.0
N387 N 0.77035 0.65939 0.52201 0.0
H388 H 0.19373 0.38024 0.10418 0.0
H389 H 0.00408 0.44405 0.06334 0.0
H390 H 0.09136 0.32192 0.1386 0.0
H391 H 0.10334 0.48396 0.01092 0.0
H392 H 0.03412 0.39657 0.0883 0.0
H393 H 0.16034 0.41576 0.06698 0.0
C394 C 0.16414 0.37458 0.10344 0.0
C395 C 0.1452 0.34828 0.1245 0.0
C396 C 0.04914 0.4154 0.07096 0.0
C397 C 0.10668 0.3893 0.08253 0.0
C398 C 0.03201 0.44258 0.05669 0.0
C399 C 0.05129 0.46839 0.03523 0.0
C400 C 0.08597 0.41422 0.06408 0.0
C401 C 0.08739 0.46489 0.02745 0.0
C402 C 0.14506 0.39484 0.08223 0.0
C403 C 0.10691 0.3419 0.12261 0.0
N404 N 0.10367 0.4387 0.04221 0.0
N405 N 0.08885 0.3627 0.1024 0.0
H406 H 0.53594 0.35882 0.98084 0.0
H407 H 0.58939 0.18942 0.08068 0.0
H408 H 0.61799 0.36755 0.05941 0.0
H409 H 0.49668 0.18138 0.01282 0.0
H410 H 0.60129 0.25455 0.07153 0.0
H411 H 0.52091 0.29393 0.99185 0.0
C412 C 0.5504 0.34721 1.00078 0.0
C413 C 0.57837 0.36864 0.01918 0.0
C414 C 0.57834 0.23858 0.05861 0.0
C415 C 0.56189 0.29425 0.03132 0.0
C416 C 0.57162 0.20128 0.06367 0.0
C417 C 0.54195 0.1798 0.04748 0.0
C418 C 0.55537 0.25465 0.0371 0.0
C419 C 0.51987 0.19684 0.02581 0.0
C420 C 0.54202 0.31009 0.00683 0.0
C421 C 0.59661 0.35197 0.04429 0.0
N422 N 0.52704 0.23329 0.02124 0.0
N423 N 0.5882 0.31574 0.04948 0.0
H424 H 0.87091 0.7645 0.37921 0.0
H425 H 0.01006 0.88855 0.5007 0.0
H426 H 0.93034 0.72377 0.46056 0.0
H427 H 0.94997 0.93109 0.42068 0.0
H428 H 0.98814 0.82747 0.48059 0.0
H429 H 0.90687 0.82463 0.38786 0.0
C430 C 0.89208 0.76806 0.39842 0.0
C431 C 0.89742 0.73927 0.41949 0.0
C432 C 0.97995 0.85012 0.46721 0.0
C433 C 0.93812 0.80798 0.42988 0.0
C434 C 0.9924 0.88508 0.47874 0.0
C435 C 0.98135 0.91499 0.46267 0.0
C436 C 0.95596 0.84489 0.43954 0.0
C437 C 0.95891 0.90879 0.43402 0.0
C438 C 0.91241 0.80243 0.4035 0.0
C439 C 0.92495 0.74543 0.44417 0.0
N440 N 0.94656 0.87436 0.4236 0.0
N441 N 0.944 0.77919 0.44892 0.0
H442 H 0.42277 0.85437 0.65535 0.0
H443 H 0.54014 0.69304 0.67163 0.0
H444 H 0.46723 0.8225 0.7491 0.0
H445 H 0.4664 0.70414 0.58911 0.0
H446 H 0.52489 0.74858 0.69619 0.0
H447 H 0.45005 0.80767 0.62697 0.0
C448 C 0.43851 0.83777 0.66998 0.0
C449 C 0.44214 0.8421 0.70483 0.0
C450 C 0.51238 0.73902 0.67254 0.0
C451 C 0.47387 0.78874 0.67226 0.0
C452 C 0.52118 0.70741 0.65838 0.0
C453 C 0.5043 0.69367 0.62834 0.0
C454 C 0.48683 0.75731 0.65638 0.0
C455 C 0.47985 0.71349 0.61242 0.0
C456 C 0.45413 0.81116 0.6537 0.0
C457 C 0.46371 0.82034 0.72224 0.0
N458 N 0.47177 0.74419 0.62669 0.0
N459 N 0.47848 0.7944 0.70582 0.0
H460 H 0.93627 0.89741 0.7827 0.0
H461 H 0.96419 0.0584 0.64853 0.0
H462 H 0.92501 0.00777 0.80559 0.0
H463 H 0.97866 0.94851 0.6268 0.0
H464 H 0.95184 0.04093 0.70669 0.0
H465 H 0.95619 0.91656 0.72655 0.0
C466 C 0.93875 0.92581 0.77616 0.0
C467 C 0.92873 0.95097 0.79881 0.0
C468 C 0.95773 0.02066 0.68917 0.0
C469 C 0.95058 0.97298 0.73427 0.0
C470 C 0.96459 0.03057 0.65588 0.0
C471 C 0.97235 0.0049 0.6326 0.0
C472 C 0.95861 0.98478 0.69931 0.0
C473 C 0.97271 0.96927 0.64375 0.0
C474 C 0.94972 0.93668 0.74396 0.0
C475 C 0.93199 0.98737 0.78876 0.0
N476 N 0.96592 0.96031 0.67622 0.0
N477 N 0.94229 0.9972 0.75718 0.0
H478 H 0.6719 0.164 0.33894 0.0
H479 H 0.50049 0.07089 0.22819 0.0
H480 H 0.56739 0.11997 0.38036 0.0
H481 H 0.60562 0.11438 0.18749 0.0
H482 H 0.52353 0.09081 0.28381 0.0
H483 H 0.64708 0.14841 0.28298 0.0
C484 C 0.64368 0.15114 0.33626 0.0
C485 C 0.62176 0.14318 0.36445 0.0
C486 C 0.54152 0.09606 0.26269 0.0
C487 C 0.59306 0.12525 0.30031 0.0
C488 C 0.52839 0.08465 0.23088 0.0
C489 C 0.55115 0.09082 0.20302 0.0
C490 C 0.5777 0.11377 0.26676 0.0
C491 C 0.58705 0.10889 0.20816 0.0
C492 C 0.62948 0.14232 0.30427 0.0
C493 C 0.58521 0.12695 0.35937 0.0
N494 N 0.59919 0.11962 0.23935 0.0
N495 N 0.57209 0.11835 0.32798 0.0
H496 H 0.38879 0.61414 0.31499 0.0
H497 H 0.53425 0.56008 0.44764 0.0
H498 H 0.48006 0.56191 0.2883 0.0
H499 H 0.44427 0.61443 0.47403 0.0
H500 H 0.51676 0.56349 0.38887 0.0
H501 H 0.41049 0.61724 0.37295 0.0
C502 C 0.41359 0.6036 0.32125 0.0
C503 C 0.43262 0.58773 0.29669 0.0
C504 C 0.50096 0.57486 0.40748 0.0
C505 C 0.4574 0.59079 0.36322 0.0
C506 C 0.51095 0.57298 0.44111 0.0
C507 C 0.49056 0.58679 0.46593 0.0
C508 C 0.47025 0.59056 0.39851 0.0
C509 C 0.46074 0.60331 0.45583 0.0
C510 C 0.42587 0.60522 0.35442 0.0
C511 C 0.46424 0.57395 0.30645 0.0
N512 N 0.45136 0.60453 0.42292 0.0
N513 N 0.47559 0.57574 0.33895 0.0
H514 H 0.0928 0.49947 0.73144 0.0
H515 H 0.98469 0.59928 0.86328 0.0
H516 H 0.98462 0.52512 0.71475 0.0
H517 H 0.08384 0.55688 0.88663 0.0
H518 H 0.99233 0.58637 0.80443 0.0
H519 H 0.09791 0.53514 0.78299 0.0
C520 C 0.07056 0.51353 0.73812 0.0
C521 C 0.03801 0.50898 0.71913 0.0
C522 C 0.01265 0.58026 0.82236 0.0
C523 C 0.0434 0.54912 0.77824 0.0
C524 C 0.00829 0.58754 0.85603 0.0
C525 C 0.03325 0.5784 0.88008 0.0
C526 C 0.04208 0.56354 0.81255 0.0
C527 C 0.06364 0.56389 0.86903 0.0
C528 C 0.07336 0.53358 0.76769 0.0
C529 C 0.00993 0.52751 0.72903 0.0
N530 N 0.06693 0.55642 0.83607 0.0
N531 N 0.01306 0.54636 0.75818 0.0
H532 H 0.7521 0.92344 0.95697 0.0
H533 H 0.65758 0.07475 0.04669 0.0
H534 H 0.76356 0.0347 0.9251 0.0
H535 H 0.61739 0.95998 0.05147 0.0
H536 H 0.71054 0.06174 0.01579 0.0
H537 H 0.71698 0.9384 0.00524 0.0
C538 C 0.74811 0.95121 0.9608 0.0
C539 C 0.76042 0.97793 0.93726 0.0
C540 C 0.69042 0.03943 0.02418 0.0
C541 C 0.72039 0.99513 0.99173 0.0
C542 C 0.66028 0.0468 0.04192 0.0
C543 C 0.63273 0.01842 0.05114 0.0
C544 C 0.69314 0.00345 0.01597 0.0
C545 C 0.63769 0.98271 0.04432 0.0
C546 C 0.72794 0.95968 0.98809 0.0
C547 C 0.75431 0.01344 0.94285 0.0
N548 N 0.66711 0.97625 0.02685 0.0
N549 N 0.73441 0.02099 0.9694 0.0
H550 H 0.7068 0.11067 0.49661 0.0
H551 H 0.89939 0.07596 0.42838 0.0
H552 H 0.74799 0.15015 0.40073 0.0
H553 H 0.87486 0.07664 0.53348 0.0
H554 H 0.84034 0.09495 0.41576 0.0
H555 H 0.76518 0.09086 0.50881 0.0
C556 C 0.72811 0.11557 0.4782 0.0
C557 C 0.72222 0.13237 0.44757 0.0
C558 C 0.84794 0.09087 0.44156 0.0
C559 C 0.78899 0.10858 0.46116 0.0
C560 C 0.88152 0.07983 0.44877 0.0
C561 C 0.89217 0.07479 0.48206 0.0
C562 C 0.82461 0.09636 0.46776 0.0
C563 C 0.86791 0.08038 0.50747 0.0
C564 C 0.76139 0.10393 0.48513 0.0
C565 C 0.75084 0.13689 0.42446 0.0
N566 N 0.83527 0.09073 0.4998 0.0
N567 N 0.78286 0.12494 0.43166 0.0
H568 H 0.26945 0.70231 0.17388 0.0
H569 H 0.15875 0.60181 0.01852 0.0
H570 H 0.30578 0.61618 0.11837 0.0
H571 H 0.11598 0.67787 0.08216 0.0
H572 H 0.21524 0.61095 0.05159 0.0
H573 H 0.21467 0.69651 0.13834 0.0
C574 C 0.26576 0.68206 0.15424 0.0
C575 C 0.29214 0.6597 0.14898 0.0
C576 C 0.19359 0.62582 0.05817 0.0
C577 C 0.22969 0.65306 0.10809 0.0
C578 C 0.16137 0.62085 0.03914 0.0
C579 C 0.13236 0.63892 0.04768 0.0
C580 C 0.19694 0.6491 0.08592 0.0
C581 C 0.13748 0.66323 0.07469 0.0
C582 C 0.23453 0.67878 0.13397 0.0
C583 C 0.28592 0.6337 0.12343 0.0
N584 N 0.16904 0.66743 0.09298 0.0
N585 N 0.25538 0.63121 0.1038 0.0
H586 H 0.20319 0.41666 0.6381 0.0
H587 H 0.36184 0.57462 0.58218 0.0
H588 H 0.18188 0.51704 0.59521 0.0
H589 H 0.38051 0.47608 0.63121 0.0
H590 H 0.29613 0.55632 0.58963 0.0
H591 H 0.26845 0.44062 0.6398 0.0
C592 C 0.21245 0.44407 0.62958 0.0
C593 C 0.18753 0.46507 0.61658 0.0
C594 C 0.31466 0.53884 0.5989 0.0
C595 C 0.26199 0.49244 0.61758 0.0
C596 C 0.35219 0.54919 0.59456 0.0
C597 C 0.37679 0.52671 0.60585 0.0
C598 C 0.30165 0.50576 0.61456 0.0
C599 C 0.36266 0.49419 0.62188 0.0
C600 C 0.24962 0.45771 0.63038 0.0
C601 C 0.20051 0.50027 0.60559 0.0
N602 N 0.32608 0.48466 0.6256 0.0
N603 N 0.23705 0.5128 0.60598 0.0
H604 H 0.85838 0.836 0.89845 0.0
H605 H 0.01572 0.74818 0.99159 0.0
H606 H 0.97 0.89067 0.90333 0.0
H607 H 0.91526 0.68743 0.95242 0.0
H608 H 0.99724 0.80402 0.96887 0.0
H609 H 0.87662 0.78478 0.92831 0.0
C610 C 0.8867 0.83744 0.90619 0.0
C611 C 0.91269 0.86773 0.89839 0.0
C612 C 0.97928 0.7784 0.9655 0.0
C613 C 0.93391 0.80876 0.9324 0.0
C614 C 0.98969 0.74666 0.97859 0.0
C615 C 0.9671 0.71312 0.97367 0.0
C616 C 0.94581 0.77647 0.94805 0.0
C617 C 0.93371 0.71261 0.95651 0.0
C618 C 0.89715 0.80803 0.92303 0.0
C619 C 0.94915 0.86771 0.90861 0.0
N620 N 0.92412 0.7437 0.94442 0.0
N621 N 0.95873 0.83864 0.92511 0.0
H622 H 0.35623 0.76833 0.21083 0.0
H623 H 0.50597 0.89515 0.10803 0.0
H624 H 0.44899 0.73055 0.16743 0.0
H625 H 0.42927 0.93685 0.17169 0.0
H626 H 0.48767 0.83519 0.13214 0.0
H627 H 0.38504 0.83083 0.20065 0.0
C628 C 0.38306 0.77337 0.19978 0.0
C629 C 0.40024 0.74448 0.18969 0.0
C630 C 0.4751 0.85752 0.14109 0.0
C631 C 0.43296 0.81556 0.1773 0.0
C632 C 0.48534 0.89173 0.12716 0.0
C633 C 0.46877 0.92098 0.13755 0.0
C634 C 0.44774 0.85236 0.16528 0.0
C635 C 0.44257 0.91503 0.16275 0.0
C636 C 0.39947 0.80895 0.19393 0.0
C637 C 0.43497 0.7522 0.17559 0.0
N638 N 0.43254 0.88127 0.17548 0.0
N639 N 0.44995 0.78707 0.16924 0.0
H640 H 0.15461 0.35085 0.58287 0.0
H641 H 0.00075 0.18576 0.54461 0.0
H642 H 0.0473 0.36596 0.54747 0.0
H643 H 0.1153 0.17797 0.53698 0.0
H644 H 0.01682 0.25168 0.54805 0.0
H645 H 0.14124 0.28788 0.56604 0.0
C646 C 0.12855 0.34139 0.57073 0.0
C647 C 0.10188 0.36401 0.56703 0.0
C648 C 0.03836 0.23549 0.54539 0.0
C649 C 0.08595 0.291 0.54905 0.0
C650 C 0.02928 0.19789 0.54384 0.0
C651 C 0.05678 0.17635 0.54083 0.0
C652 C 0.0752 0.25157 0.54445 0.0
C653 C 0.09325 0.19354 0.53945 0.0
C654 C 0.12083 0.30512 0.56146 0.0
C655 C 0.06836 0.34944 0.55175 0.0
N656 N 0.10143 0.23016 0.54159 0.0
N657 N 0.06106 0.31363 0.54391 0.0
H658 H 0.56929 0.27182 0.47125 0.0
H659 H 0.51377 0.40624 0.61003 0.0
H660 H 0.56933 0.24877 0.57708 0.0
H661 H 0.54818 0.44186 0.51119 0.0
H662 H 0.52663 0.3457 0.59654 0.0
H663 H 0.5556 0.33227 0.48382 0.0
C664 C 0.56669 0.2794 0.4971 0.0
C665 C 0.57029 0.2548 0.52307 0.0
C666 C 0.53131 0.36679 0.57781 0.0
C667 C 0.55378 0.32383 0.53753 0.0
C668 C 0.52379 0.40131 0.58544 0.0
C669 C 0.53001 0.42928 0.56177 0.0
C670 C 0.54475 0.35999 0.54616 0.0
C671 C 0.54315 0.42123 0.53031 0.0
C672 C 0.55862 0.31388 0.50423 0.0
C673 C 0.566 0.26627 0.55608 0.0
N674 N 0.55 0.38737 0.5234 0.0
N675 N 0.55782 0.29975 0.5623 0.0
loop_
_geom_bond_atom_site_label_1
_geom_bond_atom_site_label_2
_geom_bond_distance
_geom_bond_site_symmetry_2
_ccdc_geom_bond_type
H0 C1 0.949 . S
C1 H0 0.949 . S
C1 C2 1.395 . S
C1 C3 1.391 . S
C2 C1 1.395 . S
C2 C5 1.390 . S
C3 C1 1.391 . S
C3 C7 1.387 . S
C3 C8 1.491 . S
H4 C5 0.950 . S
C5 C2 1.390 . S
C5 H4 0.950 . S
C5 C6 1.378 . S
C6 C5 1.378 . S
C6 C7 1.409 . S
C7 C3 1.387 . S
C7 C6 1.409 . S
C7 H9 0.951 . S
C8 C3 1.491 . S
C8 C10 1.382 . S
C8 C12 1.404 . S
H9 C7 0.951 . S
C10 C8 1.382 . S
C10 C11 1.390 . S
C10 H15 0.949 . S
C11 C10 1.390 . S
C11 C16 1.399 . S
C12 C8 1.404 . S
C12 H13 0.950 . S
C12 C14 1.375 . S
H13 C12 0.950 . S
C14 C12 1.375 . S
C14 C16 1.382 . S
C14 H18 0.950 . S
H15 C10 0.949 . S
C16 C11 1.399 . S
C16 C14 1.382 . S
C16 H17 0.952 . S
H17 C16 0.952 . S
H18 C14 0.950 . S
H19 C20 0.949 . S
C20 H19 0.949 . S
C20 C21 1.395 . S
C20 C22 1.391 . S
C21 C20 1.395 . S
C21 C24 1.390 . S
C22 C20 1.391 . S
C22 C26 1.387 . S
C22 C27 1.491 . S
H23 C24 0.950 . S
C24 C21 1.390 . S
C24 H23 0.950 . S
C24 C25 1.378 . S
C25 C24 1.378 . S
C25 C26 1.409 . S
C26 C22 1.387 . S
C26 C25 1.409 . S
C26 H28 0.951 . S
C27 C22 1.491 . S
C27 C29 1.382 . S
C27 C31 1.404 . S
H28 C26 0.951 . S
C29 C27 1.382 . S
C29 C30 1.390 . S
C29 H34 0.949 . S
C30 C29 1.390 . S
C30 C35 1.399 . S
C31 C27 1.404 . S
C31 H32 0.950 . S
C31 C33 1.375 . S
H32 C31 0.950 . S
C33 C31 1.375 . S
C33 C35 1.382 . S
C33 H37 0.950 . S
H34 C29 0.949 . S
C35 C30 1.399 . S
C35 C33 1.382 . S
C35 H36 0.952 . S
H36 C35 0.952 . S
H37 C33 0.950 . S
H38 C39 0.949 . S
C39 H38 0.949 . S
C39 C40 1.395 . S
C39 C41 1.391 . S
C40 C39 1.395 . S
C40 C43 1.390 . S
C41 C39 1.391 . S
C41 C45 1.387 . S
C41 C46 1.491 . S
H42 C43 0.950 . S
C43 C40 1.390 . S
C43 H42 0.950 . S
C43 C44 1.378 . S
C44 C43 1.378 . S
C44 C45 1.409 . S
C45 C41 1.387 . S
C45 C44 1.409 . S
C45 H47 0.951 . S
C46 C41 1.491 . S
C46 C48 1.382 . S
C46 C50 1.404 . S
H47 C45 0.951 . S
C48 C46 1.382 . S
C48 C49 1.390 . S
C48 H53 0.949 . S
C49 C48 1.390 . S
C49 C54 1.399 . S
C50 C46 1.404 . S
C50 H51 0.950 . S
C50 C52 1.375 . S
H51 C50 0.950 . S
C52 C50 1.375 . S
C52 C54 1.382 . S
C52 H56 0.950 . S
H53 C48 0.949 . S
C54 C49 1.399 . S
C54 C52 1.382 . S
C54 H55 0.952 . S
H55 C54 0.952 . S
H56 C52 0.950 . S
H57 C58 0.949 . S
C58 H57 0.949 . S
C58 C59 1.395 . S
C58 C60 1.391 . S
C59 C58 1.395 . S
C59 C62 1.390 . S
C60 C58 1.391 . S
C60 C64 1.387 . S
C60 C65 1.491 . S
H61 C62 0.950 . S
C62 C59 1.390 . S
C62 H61 0.950 . S
C62 C63 1.378 . S
C63 C62 1.378 . S
C63 C64 1.409 . S
C64 C60 1.387 . S
C64 C63 1.409 . S
C64 H66 0.951 . S
C65 C60 1.491 . S
C65 C67 1.382 . S
C65 C69 1.404 . S
H66 C64 0.951 . S
C67 C65 1.382 . S
C67 C68 1.390 . S
C67 H72 0.949 . S
C68 C67 1.390 . S
C68 C73 1.399 . S
C69 C65 1.404 . S
C69 H70 0.950 . S
C69 C71 1.375 . S
H70 C69 0.950 . S
C71 C69 1.375 . S
C71 C73 1.382 . S
C71 H75 0.950 . S
H72 C67 0.949 . S
C73 C68 1.399 . S
C73 C71 1.382 . S
C73 H74 0.952 . S
H74 C73 0.952 . S
H75 C71 0.950 . S
H76 C77 0.949 . S
C77 H76 0.949 . S
C77 C78 1.395 . S
C77 C79 1.391 . S
C78 C77 1.395 . S
C78 C81 1.390 . S
C79 C77 1.391 . S
C79 C83 1.387 1_565 S
C79 C84 1.491 1_565 S
H80 C81 0.950 . S
C81 C78 1.390 . S
C81 H80 0.950 . S
C81 C82 1.378 . S
C82 C81 1.378 . S
C82 C83 1.409 1_565 S
C83 C79 1.387 1_545 S
C83 C82 1.409 1_545 S
C83 H85 0.951 . S
C84 C79 1.491 1_545 S
C84 C86 1.382 . S
C84 C88 1.404 . S
H85 C83 0.951 . S
C86 C84 1.382 . S
C86 C87 1.390 . S
C86 H91 0.949 . S
C87 C86 1.390 . S
C87 C92 1.399 . S
C88 C84 1.404 . S
C88 H89 0.950 . S
C88 C90 1.375 . S
H89 C88 0.950 . S
C90 C88 1.375 . S
C90 C92 1.382 . S
C90 H94 0.950 . S
H91 C86 0.949 . S
C92 C87 1.399 . S
C92 C90 1.382 . S
C92 H93 0.952 . S
H93 C92 0.952 . S
H94 C90 0.950 . S
H95 C96 0.949 . S
C96 H95 0.949 . S
C96 C97 1.395 . S
C96 C98 1.391 . S
C97 C96 1.395 . S
C97 C100 1.390 . S
C98 C96 1.391 . S
C98 C102 1.387 . S
C98 C103 1.491 . S
H99 C100 0.950 . S
C100 C97 1.390 . S
C100 H99 0.950 . S
C100 C101 1.378 . S
C101 C100 1.378 . S
C101 C102 1.409 . S
C102 C98 1.387 . S
C102 C101 1.409 . S
C102 H104 0.951 . S
C103 C98 1.491 . S
C103 C105 1.382 . S
C103 C107 1.404 . S
H104 C102 0.951 . S
C105 C103 1.382 . S
C105 C106 1.390 . S
C105 H110 0.949 . S
C106 C105 1.390 . S
C106 C111 1.399 . S
C107 C103 1.404 . S
C107 H108 0.950 . S
C107 C109 1.375 . S
H108 C107 0.950 . S
C109 C107 1.375 . S
C109 C111 1.382 . S
C109 H113 0.950 . S
H110 C105 0.949 . S
C111 C106 1.399 . S
C111 C109 1.382 . S
C111 H112 0.952 . S
H112 C111 0.952 . S
H113 C109 0.950 . S
H114 C115 0.949 . S
C115 H114 0.949 . S
C115 C116 1.395 . S
C115 C117 1.391 . S
C116 C115 1.395 . S
C116 C119 1.390 . S
C117 C115 1.391 . S
C117 C121 1.387 . S
C117 C122 1.491 . S
H118 C119 0.950 . S
C119 C116 1.390 . S
C119 H118 0.950 . S
C119 C120 1.378 . S
C120 C119 1.378 . S
C120 C121 1.409 . S
C121 C117 1.387 . S
C121 C120 1.409 . S
C121 H123 0.951 . S
C122 C117 1.491 . S
C122 C124 1.382 . S
C122 C126 1.404 . S
H123 C121 0.951 . S
C124 C122 1.382 . S
C124 C125 1.390 . S
C124 H129 0.949 . S
C125 C124 1.390 . S
C125 C130 1.399 . S
C126 C122 1.404 . S
C126 H127 0.950 . S
C126 C128 1.375 . S
H127 C126 0.950 . S
C128 C126 1.375 . S
C128 C130 1.382 . S
C128 H132 0.950 . S
H129 C124 0.949 . S
C130 C125 1.399 . S
C130 C128 1.382 . S
C130 H131 0.952 . S
H131 C130 0.952 . S
H132 C128 0.950 . S
H133 C134 0.949 . S
C134 H133 0.949 . S
C134 C135 1.395 . S
C134 C136 1.391 . S
C135 C134 1.395 . S
C135 C138 1.390 . S
C136 C134 1.391 . S
C136 C140 1.387 . S
C136 C141 1.491 . S
H137 C138 0.950 . S
C138 C135 1.390 . S
C138 H137 0.950 . S
C138 C139 1.378 . S
C139 C138 1.378 . S
C139 C140 1.409 . S
C140 C136 1.387 . S
C140 C139 1.409 . S
C140 H142 0.951 . S
C141 C136 1.491 . S
C141 C143 1.382 . S
C141 C145 1.404 . S
H142 C140 0.951 . S
C143 C141 1.382 . S
C143 C144 1.390 . S
C143 H148 0.949 . S
C144 C143 1.390 . S
C144 C149 1.399 . S
C145 C141 1.404 . S
C145 H146 0.950 . S
C145 C147 1.375 . S
H146 C145 0.950 . S
C147 C145 1.375 . S
C147 C149 1.382 . S
C147 H151 0.950 . S
H148 C143 0.949 . S
C149 C144 1.399 . S
C149 C147 1.382 . S
C149 H150 0.952 . S
H150 C149 0.952 . S
H151 C147 0.950 . S
O152 Zn153 1.953 . S
O152 C168 1.225 1_655 S
Zn153 O152 1.953 . S
Zn153 O154 1.949 1_655 S
Zn153 O160 1.919 . S
Zn153 O165 1.924 . S
O154 Zn153 1.949 1_455 S
O154 Zn155 1.923 1_455 S
O154 Zn156 1.950 . S
O154 Zn157 1.939 1_545 S
Zn155 O154 1.923 1_655 S
Zn155 O158 1.933 1_545 S
Zn155 O161 1.941 . S
Zn155 O162 1.965 1_655 S
Zn156 O154 1.950 . S
Zn156 O163 1.938 . S
Zn156 O164 1.906 . S
Zn156 O174 1.953 . S
Zn157 O154 1.939 1_565 S
Zn157 O159 1.938 1_455 S
Zn157 O166 1.978 . S
Zn157 O167 1.909 1_465 S
O158 Zn155 1.933 1_565 S
O158 C169 1.226 . S
O159 Zn157 1.938 1_655 S
O159 C169 1.307 . S
O160 Zn153 1.919 . S
O160 C171 1.253 . S
O161 Zn155 1.941 . S
O161 C171 1.283 . S
O162 Zn155 1.965 1_455 S
O162 C170 1.303 . S
O163 Zn156 1.938 . S
O163 C170 1.247 . S
O164 Zn156 1.906 . S
O164 C172 1.304 . S
O165 Zn153 1.924 . S
O165 C173 1.311 . S
O166 Zn157 1.978 . S
O166 C172 1.272 1_565 S
O167 Zn157 1.909 1_645 S
O167 C173 1.231 . S
C168 O152 1.225 1_455 S
C168 O174 1.298 . S
C169 O158 1.226 . S
C169 O159 1.307 . S
C170 O162 1.303 . S
C170 O163 1.247 . S
C171 O160 1.253 . S
C171 O161 1.283 . S
C172 O164 1.304 . S
C172 O166 1.272 1_545 S
C173 O165 1.311 . S
C173 O167 1.231 . S
O174 Zn156 1.953 . S
O174 C168 1.298 . S
O175 Zn176 1.953 . S
O175 C191 1.225 . S
Zn176 O175 1.953 . S
Zn176 O177 1.949 . S
Zn176 O183 1.919 . S
Zn176 O188 1.924 . S
O177 Zn176 1.949 . S
O177 Zn178 1.923 1_545 S
O177 Zn179 1.950 . S
O177 Zn180 1.945 . S
Zn178 O177 1.923 1_565 S
Zn178 O181 1.933 . S
Zn178 O184 1.941 . S
Zn178 O185 1.965 1_565 S
Zn179 O177 1.950 . S
Zn179 O186 1.938 . S
Zn179 O187 1.906 . S
Zn179 O197 1.953 . S
Zn180 O177 1.945 . S
Zn180 O182 1.932 1_545 S
Zn180 O189 1.977 . S
Zn180 O190 1.910 . S
O181 Zn178 1.933 . S
O181 C192 1.226 . S
O182 Zn180 1.932 1_565 S
O182 C192 1.307 . S
O183 Zn176 1.919 . S
O183 C194 1.252 1_554 S
O184 Zn178 1.941 . S
O184 C194 1.279 1_564 S
O185 Zn178 1.965 1_545 S
O185 C193 1.303 . S
O186 Zn179 1.938 . S
O186 C193 1.247 . S
O187 Zn179 1.906 . S
O187 C195 1.304 . S
O188 Zn176 1.924 . S
O188 C196 1.311 . S
O189 Zn180 1.977 . S
O189 C195 1.272 . S
O190 Zn180 1.910 . S
O190 C196 1.231 . S
C191 O175 1.225 . S
C191 O197 1.298 . S
C192 O181 1.226 . S
C192 O182 1.307 . S
C193 O185 1.303 . S
C193 O186 1.247 . S
C194 O183 1.252 1_556 S
C194 O184 1.279 1_546 S
C195 O187 1.304 . S
C195 O189 1.272 . S
C196 O188 1.311 . S
C196 O190 1.231 . S
O197 Zn179 1.953 . S
O197 C191 1.298 . S
O198 Zn199 1.953 . S
O198 C214 1.225 . S
Zn199 O198 1.953 . S
Zn199 O200 1.949 . S
Zn199 O206 1.919 . S
Zn199 O211 1.924 . S
O200 Zn199 1.949 . S
O200 Zn201 1.923 . S
O200 Zn202 1.950 . S
O200 Zn203 1.945 . S
Zn201 O200 1.923 . S
Zn201 O204 1.933 . S
Zn201 O207 1.941 . S
Zn201 O208 1.965 . S
Zn202 O200 1.950 . S
Zn202 O209 1.938 . S
Zn202 O210 1.906 . S
Zn202 O220 1.953 . S
Zn203 O200 1.945 . S
Zn203 O205 1.932 . S
Zn203 O212 1.977 . S
Zn203 O213 1.910 . S
O204 Zn201 1.933 . S
O204 C215 1.226 . S
O205 Zn203 1.932 . S
O205 C215 1.307 . S
O206 Zn199 1.919 . S
O206 C217 1.253 . S
O207 Zn201 1.941 . S
O207 C217 1.283 . S
O208 Zn201 1.965 . S
O208 C216 1.303 . S
O209 Zn202 1.938 . S
O209 C216 1.247 . S
O210 Zn202 1.906 . S
O210 C218 1.304 . S
O211 Zn199 1.924 . S
O211 C219 1.311 . S
O212 Zn203 1.977 . S
O212 C218 1.272 . S
O213 Zn203 1.910 . S
O213 C219 1.231 . S
C214 O198 1.225 . S
C214 O220 1.298 . S
C215 O204 1.226 . S
C215 O205 1.307 . S
C216 O208 1.303 . S
C216 O209 1.247 . S
C217 O206 1.253 . S
C217 O207 1.283 . S
C218 O210 1.304 . S
C218 O212 1.272 . S
C219 O211 1.311 . S
C219 O213 1.231 . S
O220 Zn202 1.953 . S
O220 C214 1.298 . S
O221 Zn222 1.953 . S
O221 C237 1.225 . S
Zn222 O221 1.953 . S
Zn222 O223 1.949 1_655 S
Zn222 O229 1.919 . S
Zn222 O234 1.924 . S
O223 Zn222 1.949 1_455 S
O223 Zn224 1.923 1_454 S
O223 Zn225 1.950 . S
O223 Zn226 1.945 . S
Zn224 O223 1.923 1_656 S
Zn224 O227 1.933 1_655 S
Zn224 O230 1.941 . S
Zn224 O231 1.964 . S
Zn225 O223 1.950 . S
Zn225 O232 1.938 . S
Zn225 O233 1.906 . S
Zn225 O243 1.953 . S
Zn226 O223 1.945 . S
Zn226 O228 1.932 1_554 S
Zn226 O235 1.977 . S
Zn226 O236 1.910 . S
O227 Zn224 1.933 1_455 S
O227 C238 1.226 . S
O228 Zn226 1.932 1_556 S
O228 C238 1.307 . S
O229 Zn222 1.919 . S
O229 C240 1.253 1_554 S
O230 Zn224 1.941 . S
O230 C240 1.283 . S
O231 Zn224 1.964 . S
O231 C239 1.304 1_656 S
O232 Zn225 1.938 . S
O232 C239 1.247 . S
O233 Zn225 1.906 . S
O233 C241 1.304 . S
O234 Zn222 1.924 . S
O234 C242 1.311 1_655 S
O235 Zn226 1.977 . S
O235 C241 1.272 . S
O236 Zn226 1.910 . S
O236 C242 1.231 . S
C237 O221 1.225 . S
C237 O243 1.298 1_655 S
C238 O227 1.226 . S
C238 O228 1.307 . S
C239 O231 1.304 1_454 S
C239 O232 1.247 . S
C240 O229 1.253 1_556 S
C240 O230 1.283 . S
C241 O233 1.304 . S
C241 O235 1.272 . S
C242 O234 1.311 1_455 S
C242 O236 1.231 . S
O243 Zn225 1.953 . S
O243 C237 1.298 1_455 S
H244 C250 0.930 . S
H245 C254 0.930 . S
H246 C259 0.929 . S
H247 C257 0.929 . S
H248 C252 0.929 . S
H249 C258 0.929 . S
C250 H244 0.930 . S
C250 C251 1.367 . S
C250 C258 1.378 . S
C251 C250 1.367 . S
C251 C259 1.433 . S
C252 H248 0.929 . S
C252 C254 1.378 . S
C252 C256 1.350 . S
C253 C256 1.463 . S
C253 C258 1.350 . S
C253 N261 1.427 . S
C254 H245 0.930 . S
C254 C252 1.378 . S
C254 C255 1.367 . S
C255 C254 1.367 . S
C255 C257 1.433 . S
C256 C252 1.350 . S
C256 C253 1.463 . S
C256 N260 1.427 . S
C257 H247 0.929 . S
C257 C255 1.433 . S
C257 N260 1.384 . S
C258 H249 0.929 . S
C258 C250 1.378 . S
C258 C253 1.350 . S
C259 H246 0.929 . S
C259 C251 1.433 . S
C259 N261 1.384 . S
N260 C256 1.427 . S
N260 C257 1.384 . S
N261 C253 1.427 . S
N261 C259 1.384 . S
H262 C268 0.930 . S
H263 C272 0.930 . S
H264 C277 0.929 . S
H265 C275 0.929 . S
H266 C270 0.929 1_545 S
H267 C276 0.929 . S
C268 H262 0.930 . S
C268 C269 1.367 . S
C268 C276 1.378 . S
C269 C268 1.367 . S
C269 C277 1.433 . S
C270 H266 0.929 1_565 S
C270 C272 1.378 1_565 S
C270 C274 1.350 . S
C271 C274 1.463 . S
C271 C276 1.350 . S
C271 N279 1.427 . S
C272 H263 0.930 . S
C272 C270 1.378 1_545 S
C272 C273 1.367 1_545 S
C273 C272 1.367 1_565 S
C273 C275 1.433 . S
C274 C270 1.350 . S
C274 C271 1.463 . S
C274 N278 1.427 . S
C275 H265 0.929 . S
C275 C273 1.433 . S
C275 N278 1.384 . S
C276 H267 0.929 . S
C276 C268 1.378 . S
C276 C271 1.350 . S
C277 H264 0.929 . S
C277 C269 1.433 . S
C277 N279 1.384 . S
N278 C274 1.427 . S
N278 C275 1.384 . S
N279 C271 1.427 . S
N279 C277 1.384 . S
H280 C286 0.930 . S
H281 C290 0.930 . S
H282 C295 0.929 . S
H283 C293 0.929 . S
H284 C288 0.929 . S
H285 C294 0.929 . S
C286 H280 0.930 . S
C286 C287 1.367 . S
C286 C294 1.378 . S
C287 C286 1.367 . S
C287 C295 1.433 . S
C288 H284 0.929 . S
C288 C290 1.378 . S
C288 C292 1.350 . S
C289 C292 1.463 . S
C289 C294 1.350 . S
C289 N297 1.427 . S
C290 H281 0.930 . S
C290 C288 1.378 . S
C290 C291 1.367 . S
C291 C290 1.367 . S
C291 C293 1.433 . S
C292 C288 1.350 . S
C292 C289 1.463 . S
C292 N296 1.427 . S
C293 H283 0.929 . S
C293 C291 1.433 . S
C293 N296 1.384 . S
C294 H285 0.929 . S
C294 C286 1.378 . S
C294 C289 1.350 . S
C295 H282 0.929 . S
C295 C287 1.433 . S
C295 N297 1.384 . S
N296 C292 1.427 . S
N296 C293 1.384 . S
N297 C289 1.427 . S
N297 C295 1.384 . S
H298 C304 0.930 . S
H299 C308 0.930 . S
H300 C313 0.929 . S
H301 C311 0.929 . S
H302 C306 0.929 . S
H303 C312 0.929 . S
C304 H298 0.930 . S
C304 C305 1.367 . S
C304 C312 1.378 . S
C305 C304 1.367 . S
C305 C313 1.433 . S
C306 H302 0.929 . S
C306 C308 1.378 . S
C306 C310 1.350 . S
C307 C310 1.463 . S
C307 C312 1.350 . S
C307 N315 1.427 . S
C308 H299 0.930 . S
C308 C306 1.378 . S
C308 C309 1.367 . S
C309 C308 1.367 . S
C309 C311 1.433 . S
C310 C306 1.350 . S
C310 C307 1.463 . S
C310 N314 1.427 . S
C311 H301 0.929 . S
C311 C309 1.433 . S
C311 N314 1.384 . S
C312 H303 0.929 . S
C312 C304 1.378 . S
C312 C307 1.350 . S
C313 H300 0.929 . S
C313 C305 1.433 . S
C313 N315 1.384 . S
N314 C310 1.427 . S
N314 C311 1.384 . S
N315 C307 1.427 . S
N315 C313 1.384 . S
H316 C322 0.930 . S
H317 C326 0.930 . S
H318 C331 0.929 . S
H319 C329 0.929 . S
H320 C324 0.929 . S
H321 C330 0.929 . S
C322 H316 0.930 . S
C322 C323 1.367 . S
C322 C330 1.378 . S
C323 C322 1.367 . S
C323 C331 1.433 . S
C324 H320 0.929 . S
C324 C326 1.378 . S
C324 C328 1.350 . S
C325 C328 1.463 . S
C325 C330 1.350 . S
C325 N333 1.427 . S
C326 H317 0.930 . S
C326 C324 1.378 . S
C326 C327 1.367 . S
C327 C326 1.367 . S
C327 C329 1.433 . S
C328 C324 1.350 . S
C328 C325 1.463 . S
C328 N332 1.427 . S
C329 H319 0.929 . S
C329 C327 1.433 . S
C329 N332 1.384 . S
C330 H321 0.929 . S
C330 C322 1.378 . S
C330 C325 1.350 . S
C331 H318 0.929 . S
C331 C323 1.433 . S
C331 N333 1.384 . S
N332 C328 1.427 . S
N332 C329 1.384 . S
N333 C325 1.427 . S
N333 C331 1.384 . S
H334 C340 0.930 . S
H335 C344 0.930 . S
H336 C349 0.944 . S
H337 C347 0.929 . S
H338 C342 0.929 . S
H339 C348 0.929 . S
C340 H334 0.930 . S
C340 C341 1.367 . S
C340 C348 1.378 . S
C341 C340 1.367 . S
C341 C349 1.410 1_565 S
C342 H338 0.929 . S
C342 C344 1.378 . S
C342 C346 1.350 1_545 S
C343 C346 1.463 . S
C343 C348 1.350 . S
C343 N351 1.427 1_565 S
C344 H335 0.930 . S
C344 C342 1.378 . S
C344 C345 1.367 1_545 S
C345 C344 1.367 1_565 S
C345 C347 1.433 . S
C346 C342 1.350 1_565 S
C346 C343 1.463 . S
C346 N350 1.427 . S
C347 H337 0.929 . S
C347 C345 1.433 . S
C347 N350 1.384 . S
C348 H339 0.929 . S
C348 C340 1.378 . S
C348 C343 1.350 . S
C349 H336 0.944 . S
C349 C341 1.410 1_545 S
C349 N351 1.392 . S
N350 C346 1.427 . S
N350 C347 1.384 . S
N351 C343 1.427 1_545 S
N351 C349 1.392 . S
H352 C358 0.930 . S
H353 C362 0.930 . S
H354 C367 0.929 . S
H355 C365 0.929 . S
H356 C360 0.929 . S
H357 C366 0.929 . S
C358 H352 0.930 . S
C358 C359 1.367 . S
C358 C366 1.378 . S
C359 C358 1.367 . S
C359 C367 1.433 . S
C360 H356 0.929 . S
C360 C362 1.378 . S
C360 C364 1.350 . S
C361 C364 1.463 . S
C361 C366 1.350 . S
C361 N369 1.427 . S
C362 H353 0.930 . S
C362 C360 1.378 . S
C362 C363 1.367 . S
C363 C362 1.367 . S
C363 C365 1.433 . S
C364 C360 1.350 . S
C364 C361 1.463 . S
C364 N368 1.427 . S
C365 H355 0.929 . S
C365 C363 1.433 . S
C365 N368 1.384 . S
C366 H357 0.929 . S
C366 C358 1.378 . S
C366 C361 1.350 . S
C367 H354 0.929 . S
C367 C359 1.433 . S
C367 N369 1.384 . S
N368 C364 1.427 . S
N368 C365 1.384 . S
N369 C361 1.427 . S
N369 C367 1.384 . S
H370 C376 0.930 . S
H371 C380 0.930 . S
H372 C385 0.929 . S
H373 C383 0.929 . S
H374 C378 0.929 . S
H375 C384 0.929 . S
C376 H370 0.930 . S
C376 C377 1.367 . S
C376 C384 1.378 . S
C377 C376 1.367 . S
C377 C385 1.433 . S
C378 H374 0.929 . S
C378 C380 1.378 . S
C378 C382 1.350 . S
C379 C382 1.463 . S
C379 C384 1.350 . S
C379 N387 1.427 . S
C380 H371 0.930 . S
C380 C378 1.378 . S
C380 C381 1.367 . S
C381 C380 1.367 . S
C381 C383 1.433 . S
C382 C378 1.350 . S
C382 C379 1.463 . S
C382 N386 1.427 . S
C383 H373 0.929 . S
C383 C381 1.433 . S
C383 N386 1.384 . S
C384 H375 0.929 . S
C384 C376 1.378 . S
C384 C379 1.350 . S
C385 H372 0.929 . S
C385 C377 1.433 . S
C385 N387 1.384 . S
N386 C382 1.427 . S
N386 C383 1.384 . S
N387 C379 1.427 . S
N387 C385 1.384 . S
H388 C394 0.930 . S
H389 C398 0.930 . S
H390 C403 0.929 . S
H391 C401 0.929 . S
H392 C396 0.929 . S
H393 C402 0.929 . S
C394 H388 0.930 . S
C394 C395 1.367 . S
C394 C402 1.378 . S
C395 C394 1.367 . S
C395 C403 1.433 . S
C396 H392 0.929 . S
C396 C398 1.378 . S
C396 C400 1.350 . S
C397 C400 1.463 . S
C397 C402 1.350 . S
C397 N405 1.427 . S
C398 H389 0.930 . S
C398 C396 1.378 . S
C398 C399 1.367 . S
C399 C398 1.367 . S
C399 C401 1.433 . S
C400 C396 1.350 . S
C400 C397 1.463 . S
C400 N404 1.427 . S
C401 H391 0.929 . S
C401 C399 1.433 . S
C401 N404 1.384 . S
C402 H393 0.929 . S
C402 C394 1.378 . S
C402 C397 1.350 . S
C403 H390 0.929 . S
C403 C395 1.433 . S
C403 N405 1.384 . S
N404 C400 1.427 . S
N404 C401 1.384 . S
N405 C397 1.427 . S
N405 C403 1.384 . S
H406 C412 0.930 . S
H407 C416 0.930 . S
H408 C421 0.929 . S
H409 C419 0.929 1_556 S
H410 C414 0.929 . S
H411 C420 0.929 . S
C412 H406 0.930 . S
C412 C413 1.367 . S
C412 C420 1.378 . S
C413 C412 1.367 . S
C413 C421 1.433 1_556 S
C414 H410 0.929 . S
C414 C416 1.378 . S
C414 C418 1.350 . S
C415 C418 1.463 . S
C415 C420 1.350 1_554 S
C415 N423 1.427 . S
C416 H407 0.930 . S
C416 C414 1.378 . S
C416 C417 1.367 . S
C417 C416 1.367 . S
C417 C419 1.433 . S
C418 C414 1.350 . S
C418 C415 1.463 . S
C418 N422 1.427 1_554 S
C419 H409 0.929 1_554 S
C419 C417 1.433 . S
C419 N422 1.384 1_554 S
C420 H411 0.929 . S
C420 C412 1.378 . S
C420 C415 1.350 1_556 S
C421 H408 0.929 . S
C421 C413 1.433 1_554 S
C421 N423 1.384 . S
N422 C418 1.427 1_556 S
N422 C419 1.384 1_556 S
N423 C415 1.427 . S
N423 C421 1.384 . S
H424 C430 0.930 . S
H425 C434 0.930 . S
H426 C439 0.929 . S
H427 C437 0.929 . S
H428 C432 0.929 . S
H429 C438 0.929 . S
C430 H424 0.930 . S
C430 C431 1.367 . S
C430 C438 1.378 . S
C431 C430 1.367 . S
C431 C439 1.433 . S
C432 H428 0.929 . S
C432 C434 1.378 . S
C432 C436 1.350 . S
C433 C436 1.463 . S
C433 C438 1.350 . S
C433 N441 1.427 . S
C434 H425 0.930 . S
C434 C432 1.378 . S
C434 C435 1.367 . S
C435 C434 1.367 . S
C435 C437 1.433 . S
C436 C432 1.350 . S
C436 C433 1.463 . S
C436 N440 1.427 . S
C437 H427 0.929 . S
C437 C435 1.433 . S
C437 N440 1.384 . S
C438 H429 0.929 . S
C438 C430 1.378 . S
C438 C433 1.350 . S
C439 H426 0.929 . S
C439 C431 1.433 . S
C439 N441 1.384 . S
N440 C436 1.427 . S
N440 C437 1.384 . S
N441 C433 1.427 . S
N441 C439 1.384 . S
H442 C448 0.930 . S
H443 C452 0.930 . S
H444 C457 0.929 . S
H445 C455 0.929 . S
H446 C450 0.929 . S
H447 C456 0.929 . S
C448 H442 0.930 . S
C448 C449 1.367 . S
C448 C456 1.378 . S
C449 C448 1.367 . S
C449 C457 1.433 . S
C450 H446 0.929 . S
C450 C452 1.378 . S
C450 C454 1.350 . S
C451 C454 1.463 . S
C451 C456 1.350 . S
C451 N459 1.427 . S
C452 H443 0.930 . S
C452 C450 1.378 . S
C452 C453 1.367 . S
C453 C452 1.367 . S
C453 C455 1.433 . S
C454 C450 1.350 . S
C454 C451 1.463 . S
C454 N458 1.427 . S
C455 H445 0.929 . S
C455 C453 1.433 . S
C455 N458 1.384 . S
C456 H447 0.929 . S
C456 C448 1.378 . S
C456 C451 1.350 . S
C457 H444 0.929 . S
C457 C449 1.433 . S
C457 N459 1.384 . S
N458 C454 1.427 . S
N458 C455 1.384 . S
N459 C451 1.427 . S
N459 C457 1.384 . S
H460 C466 0.930 . S
H461 C470 0.930 1_455 S
H462 C475 0.929 . S
H463 C473 0.929 . S
H464 C468 0.929 . S
H465 C474 0.929 . S
C466 H460 0.930 . S
C466 C467 1.367 1_565 S
C466 C474 1.378 . S
C467 C466 1.367 1_545 S
C467 C475 1.433 . S
C468 H464 0.929 . S
C468 C470 1.378 . S
C468 C472 1.350 . S
C469 C472 1.463 . S
C469 C474 1.350 1_545 S
C469 N477 1.427 . S
C470 H461 0.930 1_655 S
C470 C468 1.378 . S
C470 C471 1.367 . S
C471 C470 1.367 . S
C471 C473 1.433 1_545 S
C472 C468 1.350 . S
C472 C469 1.463 . S
C472 N476 1.427 1_545 S
C473 H463 0.929 . S
C473 C471 1.433 1_565 S
C473 N476 1.384 . S
C474 H465 0.929 . S
C474 C466 1.378 . S
C474 C469 1.350 1_565 S
C475 H462 0.929 . S
C475 C467 1.433 . S
C475 N477 1.384 . S
N476 C472 1.427 1_565 S
N476 C473 1.384 . S
N477 C469 1.427 . S
N477 C475 1.384 . S
H478 C484 0.930 . S
H479 C488 0.930 . S
H480 C493 0.929 . S
H481 C491 0.929 . S
H482 C486 0.929 . S
H483 C492 0.929 . S
C484 H478 0.930 . S
C484 C485 1.367 . S
C484 C492 1.378 . S
C485 C484 1.367 . S
C485 C493 1.433 . S
C486 H482 0.929 . S
C486 C488 1.378 . S
C486 C490 1.350 . S
C487 C490 1.463 . S
C487 C492 1.350 . S
C487 N495 1.427 . S
C488 H479 0.930 . S
C488 C486 1.378 . S
C488 C489 1.367 . S
C489 C488 1.367 . S
C489 C491 1.433 . S
C490 C486 1.350 . S
C490 C487 1.463 . S
C490 N494 1.427 . S
C491 H481 0.929 . S
C491 C489 1.433 . S
C491 N494 1.384 . S
C492 H483 0.929 . S
C492 C484 1.378 . S
C492 C487 1.350 . S
C493 H480 0.929 . S
C493 C485 1.433 . S
C493 N495 1.384 . S
N494 C490 1.427 . S
N494 C491 1.384 . S
N495 C487 1.427 . S
N495 C493 1.384 . S
H496 C502 0.930 . S
H497 C506 0.930 . S
H498 C511 0.929 . S
H499 C509 0.929 . S
H500 C504 0.929 . S
H501 C510 0.929 . S
C502 H496 0.930 . S
C502 C503 1.367 . S
C502 C510 1.378 . S
C503 C502 1.367 . S
C503 C511 1.433 . S
C504 H500 0.929 . S
C504 C506 1.378 . S
C504 C508 1.350 . S
C505 C508 1.463 . S
C505 C510 1.350 . S
C505 N513 1.427 . S
C506 H497 0.930 . S
C506 C504 1.378 . S
C506 C507 1.367 . S
C507 C506 1.367 . S
C507 C509 1.433 . S
C508 C504 1.350 . S
C508 C505 1.463 . S
C508 N512 1.427 . S
C509 H499 0.929 . S
C509 C507 1.433 . S
C509 N512 1.384 . S
C510 H501 0.929 . S
C510 C502 1.378 . S
C510 C505 1.350 . S
C511 H498 0.929 . S
C511 C503 1.433 . S
C511 N513 1.384 . S
N512 C508 1.427 . S
N512 C509 1.384 . S
N513 C505 1.427 . S
N513 C511 1.384 . S
H514 C520 0.930 . S
H515 C524 0.930 . S
H516 C529 0.929 . S
H517 C527 0.929 . S
H518 C522 0.929 . S
H519 C528 0.929 . S
C520 H514 0.930 . S
C520 C521 1.367 . S
C520 C528 1.378 . S
C521 C520 1.367 . S
C521 C529 1.433 . S
C522 H518 0.929 . S
C522 C524 1.378 . S
C522 C526 1.350 . S
C523 C526 1.463 . S
C523 C528 1.350 . S
C523 N531 1.427 . S
C524 H515 0.930 . S
C524 C522 1.378 . S
C524 C525 1.367 . S
C525 C524 1.367 . S
C525 C527 1.433 . S
C526 C522 1.350 . S
C526 C523 1.463 . S
C526 N530 1.427 . S
C527 H517 0.929 . S
C527 C525 1.433 . S
C527 N530 1.384 . S
C528 H519 0.929 . S
C528 C520 1.378 . S
C528 C523 1.350 . S
C529 H516 0.929 . S
C529 C521 1.433 . S
C529 N531 1.384 . S
N530 C526 1.427 . S
N530 C527 1.384 . S
N531 C523 1.427 . S
N531 C529 1.384 . S
H532 C538 0.930 . S
H533 C542 0.930 . S
H534 C547 0.929 . S
H535 C545 0.929 1_565 S
H536 C540 0.929 . S
H537 C546 0.934 . S
C538 H532 0.930 . S
C538 C539 1.364 1_566 S
C538 C546 1.380 1_556 S
C539 C538 1.364 1_544 S
C539 C547 1.445 . S
C540 H536 0.929 . S
C540 C542 1.378 . S
C540 C544 1.350 . S
C541 C544 1.463 . S
C541 C546 1.343 1_545 S
C541 N549 1.427 . S
C542 H533 0.930 . S
C542 C540 1.378 . S
C542 C543 1.367 . S
C543 C542 1.367 . S
C543 C545 1.433 . S
C544 C540 1.350 . S
C544 C541 1.463 . S
C544 N548 1.427 . S
C545 H535 0.929 1_545 S
C545 C543 1.433 . S
C545 N548 1.384 . S
C546 H537 0.934 . S
C546 C538 1.380 1_554 S
C546 C541 1.343 1_565 S
C547 H534 0.929 . S
C547 C539 1.445 . S
C547 N549 1.384 . S
N548 C544 1.427 . S
N548 C545 1.384 . S
N549 C541 1.427 . S
N549 C547 1.384 . S
H550 C556 0.930 . S
H551 C560 0.930 . S
H552 C565 0.929 . S
H553 C563 0.929 . S
H554 C558 0.929 . S
H555 C564 0.929 . S
C556 H550 0.930 . S
C556 C557 1.367 . S
C556 C564 1.378 . S
C557 C556 1.367 . S
C557 C565 1.433 . S
C558 H554 0.929 . S
C558 C560 1.378 . S
C558 C562 1.350 . S
C559 C562 1.463 . S
C559 C564 1.350 . S
C559 N567 1.427 . S
C560 H551 0.930 . S
C560 C558 1.378 . S
C560 C561 1.367 . S
C561 C560 1.367 . S
C561 C563 1.433 . S
C562 C558 1.350 . S
C562 C559 1.463 . S
C562 N566 1.427 . S
C563 H553 0.929 . S
C563 C561 1.433 . S
C563 N566 1.384 . S
C564 H555 0.929 . S
C564 C556 1.378 . S
C564 C559 1.350 . S
C565 H552 0.929 . S
C565 C557 1.433 . S
C565 N567 1.384 . S
N566 C562 1.427 . S
N566 C563 1.384 . S
N567 C559 1.427 . S
N567 C565 1.384 . S
H568 C574 0.930 . S
H569 C578 0.930 1_556 S
H570 C583 0.929 . S
H571 C581 0.929 . S
H572 C576 0.929 . S
H573 C582 0.929 . S
C574 H568 0.930 . S
C574 C575 1.367 . S
C574 C582 1.378 . S
C575 C574 1.367 . S
C575 C583 1.433 . S
C576 H572 0.929 . S
C576 C578 1.378 . S
C576 C580 1.350 . S
C577 C580 1.463 . S
C577 C582 1.350 . S
C577 N585 1.427 . S
C578 H569 0.930 1_554 S
C578 C576 1.378 . S
C578 C579 1.367 . S
C579 C578 1.367 . S
C579 C581 1.433 . S
C580 C576 1.350 . S
C580 C577 1.463 . S
C580 N584 1.427 . S
C581 H571 0.929 . S
C581 C579 1.433 . S
C581 N584 1.384 . S
C582 H573 0.929 . S
C582 C574 1.378 . S
C582 C577 1.350 . S
C583 H570 0.929 . S
C583 C575 1.433 . S
C583 N585 1.384 . S
N584 C580 1.427 . S
N584 C581 1.384 . S
N585 C577 1.427 . S
N585 C583 1.384 . S
H586 C592 0.930 . S
H587 C596 0.930 . S
H588 C601 0.929 . S
H589 C599 0.929 . S
H590 C594 0.929 . S
H591 C600 0.929 . S
C592 H586 0.930 . S
C592 C593 1.367 . S
C592 C600 1.378 . S
C593 C592 1.367 . S
C593 C601 1.433 . S
C594 H590 0.929 . S
C594 C596 1.378 . S
C594 C598 1.350 . S
C595 C598 1.463 . S
C595 C600 1.350 . S
C595 N603 1.427 . S
C596 H587 0.930 . S
C596 C594 1.378 . S
C596 C597 1.367 . S
C597 C596 1.367 . S
C597 C599 1.433 . S
C598 C594 1.350 . S
C598 C595 1.463 . S
C598 N602 1.427 . S
C599 H589 0.929 . S
C599 C597 1.433 . S
C599 N602 1.384 . S
C600 H591 0.929 . S
C600 C592 1.378 . S
C600 C595 1.350 . S
C601 H588 0.929 . S
C601 C593 1.433 . S
C601 N603 1.384 . S
N602 C598 1.427 . S
N602 C599 1.384 . S
N603 C595 1.427 . S
N603 C601 1.384 . S
H604 C610 0.930 . S
H605 C614 0.930 . S
H606 C619 0.929 1_455 S
H607 C617 0.929 1_554 S
H608 C612 0.929 . S
H609 C618 0.929 . S
C610 H604 0.930 . S
C610 C611 1.367 . S
C610 C618 1.378 . S
C611 C610 1.367 . S
C611 C619 1.433 . S
C612 H608 0.929 . S
C612 C614 1.378 . S
C612 C616 1.350 1_455 S
C613 C616 1.463 . S
C613 C618 1.350 . S
C613 N621 1.427 . S
C614 H605 0.930 . S
C614 C612 1.378 . S
C614 C615 1.367 1_455 S
C615 C614 1.367 1_655 S
C615 C617 1.433 . S
C616 C612 1.350 1_655 S
C616 C613 1.463 . S
C616 N620 1.427 . S
C617 H607 0.929 1_556 S
C617 C615 1.433 . S
C617 N620 1.384 . S
C618 H609 0.929 . S
C618 C610 1.378 . S
C618 C613 1.350 . S
C619 H606 0.929 1_655 S
C619 C611 1.433 . S
C619 N621 1.384 . S
N620 C616 1.427 . S
N620 C617 1.384 . S
N621 C613 1.427 . S
N621 C619 1.384 . S
H622 C628 0.930 . S
H623 C632 0.930 . S
H624 C637 0.929 . S
H625 C635 0.929 . S
H626 C630 0.929 . S
H627 C636 0.929 . S
C628 H622 0.930 . S
C628 C629 1.367 . S
C628 C636 1.378 . S
C629 C628 1.367 . S
C629 C637 1.433 . S
C630 H626 0.929 . S
C630 C632 1.378 . S
C630 C634 1.350 . S
C631 C634 1.463 . S
C631 C636 1.350 . S
C631 N639 1.427 . S
C632 H623 0.930 . S
C632 C630 1.378 . S
C632 C633 1.367 . S
C633 C632 1.367 . S
C633 C635 1.433 . S
C634 C630 1.350 . S
C634 C631 1.463 . S
C634 N638 1.427 . S
C635 H625 0.929 . S
C635 C633 1.433 . S
C635 N638 1.384 . S
C636 H627 0.929 . S
C636 C628 1.378 . S
C636 C631 1.350 . S
C637 H624 0.929 . S
C637 C629 1.433 . S
C637 N639 1.384 . S
N638 C634 1.427 . S
N638 C635 1.384 . S
N639 C631 1.427 . S
N639 C637 1.384 . S
H640 C646 0.930 . S
H641 C650 0.930 1_655 S
H642 C655 0.929 . S
H643 C653 0.929 . S
H644 C648 0.929 . S
H645 C654 0.929 . S
C646 H640 0.930 . S
C646 C647 1.367 . S
C646 C654 1.378 . S
C647 C646 1.367 . S
C647 C655 1.433 . S
C648 H644 0.929 . S
C648 C650 1.378 . S
C648 C652 1.350 . S
C649 C652 1.463 . S
C649 C654 1.350 . S
C649 N657 1.427 . S
C650 H641 0.930 1_455 S
C650 C648 1.378 . S
C650 C651 1.367 . S
C651 C650 1.367 . S
C651 C653 1.433 . S
C652 C648 1.350 . S
C652 C649 1.463 . S
C652 N656 1.427 . S
C653 H643 0.929 . S
C653 C651 1.433 . S
C653 N656 1.384 . S
C654 H645 0.929 . S
C654 C646 1.378 . S
C654 C649 1.350 . S
C655 H642 0.929 . S
C655 C647 1.433 . S
C655 N657 1.384 . S
N656 C652 1.427 . S
N656 C653 1.384 . S
N657 C649 1.427 . S
N657 C655 1.384 . S
H658 C664 0.930 . S
H659 C668 0.930 . S
H660 C673 0.929 . S
H661 C671 0.929 . S
H662 C666 0.929 . S
H663 C672 0.929 . S
C664 H658 0.930 . S
C664 C665 1.367 . S
C664 C672 1.378 . S
C665 C664 1.367 . S
C665 C673 1.433 . S
C666 H662 0.929 . S
C666 C668 1.378 . S
C666 C670 1.350 . S
C667 C670 1.463 . S
C667 C672 1.350 . S
C667 N675 1.427 . S
C668 H659 0.930 . S
C668 C666 1.378 . S
C668 C669 1.367 . S
C669 C668 1.367 . S
C669 C671 1.433 . S
C670 C666 1.350 . S
C670 C667 1.463 . S
C670 N674 1.427 . S
C671 H661 0.929 . S
C671 C669 1.433 . S
C671 N674 1.384 . S
C672 H663 0.929 . S
C672 C664 1.378 . S
C672 C667 1.350 . S
C673 H660 0.929 . S
C673 C665 1.433 . S
C673 N675 1.384 . S
N674 C670 1.427 . S
N674 C671 1.384 . S
N675 C667 1.427 . S
N675 C673 1.384 . S
C251 C6 1.859 . S
C255 C170 1.829 . S
C269 C21 2.161 . S
C273 C194 2.105 1_565 S
C291 C214 0.857 . S
C287 C49 0.856 . S
C305 C68 1.144 . S
C309 C237 1.273 . S
C327 C196 2.361 . S
C323 C2 2.372 . S
C345 C172 1.386 1_565 S
C341 C30 1.270 . S
C363 C240 1.436 . S
C359 C40 1.495 . S
C381 C217 1.353 . S
C377 C63 1.371 . S
C395 C11 1.317 . S
C399 C242 1.464 . S
C417 C191 1.777 . S
C413 C44 1.759 . S
C431 C59 1.258 . S
C435 C169 1.272 . S
C449 C25 1.715 . S
C453 C219 1.686 . S
C471 C173 2.101 . S
C467 C82 2.065 1_545 S
C485 C101 1.844 . S
C489 C195 1.857 . S
C503 C125 1.500 . S
C507 C215 1.559 . S
C521 C144 1.140 . S
C525 C238 1.290 . S
C539 C87 1.145 1_554 S
C543 C193 1.348 . S
C561 C171 2.157 . S
C557 C97 2.169 . S
C579 C241 1.311 . S
C575 C120 1.374 . S
C597 C218 1.333 . S
C593 C135 1.329 . S
C611 C78 2.134 . S
C615 C239 2.122 1_656 S
C633 C192 1.171 . S
C629 C116 1.145 . S
C651 C168 1.690 . S
C647 C139 1.658 . S
C665 C106 1.668 . S
C669 C216 1.744 . S
