# Generated by pormake.
# Topology cml, (3,6)-cn, num edge types: 1
# Building blocks:
#     Node 0, Type 0, BuildingBlock: INOVEN_clean_linker_0, # of connection points: 3
#     Node 1, Type 0, BuildingBlock: INOVEN_clean_linker_0, # of connection points: 3
#     Node 2, Type 0, BuildingBlock: INOVEN_clean_linker_0, # of connection points: 3
#     Node 3, Type 0, BuildingBlock: INOVEN_clean_linker_0, # of connection points: 3
#     Node 4, Type 0, BuildingBlock: INOVEN_clean_linker_0, # of connection points: 3
#     Node 5, Type 0, BuildingBlock: INOVEN_clean_linker_0, # of connection points: 3
#     Node 6, Type 0, BuildingBlock: INOVEN_clean_linker_0, # of connection points: 3
#     Node 7, Type 0, BuildingBlock: INOVEN_clean_linker_0, # of connection points: 3
#     Node 8, Type 1, BuildingBlock: OJICUG_clean_sbu_0, # of connection points: 6
#     Node 9, Type 1, BuildingBlock: OJICUG_clean_sbu_0, # of connection points: 6
#     Node 10, Type 1, BuildingBlock: OJICUG_clean_sbu_0, # of connection points: 6
#     Node 11, Type 1, BuildingBlock: OJICUG_clean_sbu_0, # of connection points: 6
#     Edge 12, Type (0, 1), BuildingBlock: EZIPEK_clean_linker_0, # of connection points: 2
#     Edge 13, Type (0, 1), BuildingBlock: EZIPEK_clean_linker_0, # of connection points: 2
#     Edge 14, Type (0, 1), BuildingBlock: EZIPEK_clean_linker_0, # of connection points: 2
#     Edge 15, Type (0, 1), BuildingBlock: EZIPEK_clean_linker_0, # of connection points: 2
#     Edge 16, Type (0, 1), BuildingBlock: EZIPEK_clean_linker_0, # of connection points: 2
#     Edge 17, Type (0, 1), BuildingBlock: EZIPEK_clean_linker_0, # of connection points: 2
#     Edge 18, Type (0, 1), BuildingBlock: EZIPEK_clean_linker_0, # of connection points: 2
#     Edge 19, Type (0, 1), BuildingBlock: EZIPEK_clean_linker_0, # of connection points: 2
#     Edge 20, Type (0, 1), BuildingBlock: EZIPEK_clean_linker_0, # of connection points: 2
#     Edge 21, Type (0, 1), BuildingBlock: EZIPEK_clean_linker_0, # of connection points: 2
#     Edge 22, Type (0, 1), BuildingBlock: EZIPEK_clean_linker_0, # of connection points: 2
#     Edge 23, Type (0, 1), BuildingBlock: EZIPEK_clean_linker_0, # of connection points: 2
#     Edge 24, Type (0, 1), BuildingBlock: EZIPEK_clean_linker_0, # of connection points: 2
#     Edge 25, Type (0, 1), BuildingBlock: EZIPEK_clean_linker_0, # of connection points: 2
#     Edge 26, Type (0, 1), BuildingBlock: EZIPEK_clean_linker_0, # of connection points: 2
#     Edge 27, Type (0, 1), BuildingBlock: EZIPEK_clean_linker_0, # of connection points: 2
#     Edge 28, Type (0, 1), BuildingBlock: EZIPEK_clean_linker_0, # of connection points: 2
#     Edge 29, Type (0, 1), BuildingBlock: EZIPEK_clean_linker_0, # of connection points: 2
#     Edge 30, Type (0, 1), BuildingBlock: EZIPEK_clean_linker_0, # of connection points: 2
#     Edge 31, Type (0, 1), BuildingBlock: EZIPEK_clean_linker_0, # of connection points: 2
#     Edge 32, Type (0, 1), BuildingBlock: EZIPEK_clean_linker_0, # of connection points: 2
#     Edge 33, Type (0, 1), BuildingBlock: EZIPEK_clean_linker_0, # of connection points: 2
#     Edge 34, Type (0, 1), BuildingBlock: EZIPEK_clean_linker_0, # of connection points: 2
#     Edge 35, Type (0, 1), BuildingBlock: EZIPEK_clean_linker_0, # of connection points: 2
# Relax obj value: 0.008
# Max RMSD: 0.047
# Mean RMSD: 0.042
data_MOF--net-cml--node1-OJICUG_clean_sbu_0--node2-INOVEN_clean_linker_0--edge1-EZIPEK_clean_linker_0
_symmetry_space_group_name_H-M    P1
_symmetry_Int_Tables_number       1
_symmetry_cell_setting            triclinic
loop_
_symmetry_equiv_pos_as_xyz
'x, y, z'
_cell_length_a     29.984653
_cell_length_b     28.936283
_cell_length_c     26.29489
_cell_angle_alpha  88.959701
_cell_angle_beta   91.263403
_cell_angle_gamma 90.590578
loop_
_atom_site_label
_atom_site_type_symbol
_atom_site_fract_x
_atom_site_fract_y
_atom_site_fract_z
_atom_type_partial_charge
H0 H 0.26472 0.34795 0.07078 0.0
H1 H 0.37516 0.43801 0.0345 0.0
H2 H 0.27053 0.41639 0.92389 0.0
N3 N 0.22591 0.35165 0.97974 0.0
N4 N 0.21562 0.34752 0.93386 0.0
C5 C 0.28144 0.37128 0.04453 0.0
C6 C 0.32249 0.39164 0.05855 0.0
C7 C 0.26344 0.37843 -0.00465 0.0
C8 C 0.28447 0.40975 0.96165 0.0
C9 C 0.32393 0.43238 0.9768 0.0
C10 C 0.34342 0.42199 0.0242 0.0
H11 H 0.7309 0.67094 0.56545 0.0
H12 H 0.63973 0.55915 0.53351 0.0
H13 H 0.7521 0.58331 0.43759 0.0
N14 N 0.78339 0.65836 0.48824 0.0
N15 N 0.81358 0.64524 0.46023 0.0
C16 C 0.72142 0.64119 0.54304 0.0
C17 C 0.68337 0.61526 0.5554 0.0
C18 C 0.7469 0.62939 0.50131 0.0
C19 C 0.73377 0.59156 0.47124 0.0
C20 C 0.69471 0.56663 0.48255 0.0
C21 C 0.67023 0.57804 0.52515 0.0
H22 H 0.72874 0.32535 0.04967 0.0
H23 H 0.62592 0.42512 0.02303 0.0
H24 H 0.736 0.41912 0.92068 0.0
N25 N 0.77444 0.3436 0.96803 0.0
N26 N 0.7949 0.35221 0.92813 0.0
C27 C 0.71475 0.35339 0.02675 0.0
C28 C 0.67546 0.37435 0.04156 0.0
C29 C 0.73613 0.36824 0.98247 0.0
C30 C 0.71875 0.40609 0.95382 0.0
C31 C 0.67852 0.42678 0.9681 0.0
C32 C 0.6568 0.40962 0.01142 0.0
H33 H 0.28747 0.57272 0.41114 0.0
H34 H 0.37441 0.56488 0.54317 0.0
H35 H 0.25927 0.6518 0.54365 0.0
N36 N 0.23091 0.63183 0.44834 0.0
N37 N 0.19764 0.64513 0.47123 0.0
C38 C 0.29544 0.58218 0.45002 0.0
C39 C 0.33322 0.56388 0.47504 0.0
C40 C 0.26784 0.61259 0.47513 0.0
C41 C 0.27909 0.62634 0.52491 0.0
C42 C 0.31821 0.60999 0.54878 0.0
C43 C 0.3442 0.57762 0.52451 0.0
H44 H 0.76132 0.84498 0.06902 0.0
H45 H 0.86478 0.94713 0.0424 0.0
H46 H 0.76747 0.91842 0.92698 0.0
N47 N 0.72484 0.85024 0.97942 0.0
N48 N 0.71172 0.85184 0.93409 0.0
C49 C 0.77642 0.87258 0.04748 0.0
C50 C 0.81211 0.89983 0.0671 0.0
C51 C 0.76009 0.87913 -0.00259 0.0
C52 C 0.77983 0.91267 0.96558 0.0
C53 C 0.8175 0.93695 0.9826 0.0
C54 C 0.83397 0.9295 0.03204 0.0
H55 H 0.24132 0.15947 0.57425 0.0
H56 H 0.13361 0.06895 0.52772 0.0
H57 H 0.24621 0.08814 0.43193 0.0
N58 N 0.28577 0.15521 0.48883 0.0
N59 N 0.2995 0.15771 0.44443 0.0
C60 C 0.2264 0.13582 0.54713 0.0
C61 C 0.18468 0.11526 0.55677 0.0
C62 C 0.24777 0.12799 0.50116 0.0
C63 C 0.22943 0.09572 0.46684 0.0
C64 C 0.18877 0.07373 0.47729 0.0
C65 C 0.16585 0.08501 0.52092 0.0
H66 H 0.23859 0.83052 0.06311 0.0
H67 H 0.14132 0.93751 0.04609 0.0
H68 H 0.23578 0.9174 0.92794 0.0
N69 N 0.27839 0.845 0.97662 0.0
N70 N 0.29612 0.85219 0.93475 0.0
C71 C 0.22514 0.85977 0.04172 0.0
C72 C 0.18834 0.88313 0.05995 0.0
C73 C 0.24307 0.87221 -0.00541 0.0
C74 C 0.22368 0.90873 0.96546 0.0
C75 C 0.18707 0.93271 0.98443 0.0
C76 C 0.17046 0.92023 0.03211 0.0
H77 H 0.77983 0.06376 0.42407 0.0
H78 H 0.87228 0.05278 0.55075 0.0
H79 H 0.76364 0.14757 0.55616 0.0
N80 N 0.73049 0.12899 0.46171 0.0
N81 N 0.70726 0.15809 0.48286 0.0
C82 C 0.78972 0.07287 0.46254 0.0
C83 C 0.82781 0.05318 0.48537 0.0
C84 C 0.76579 0.10622 0.48812 0.0
C85 C 0.78033 0.12007 0.53692 0.0
C86 C 0.81895 0.10097 0.55913 0.0
C87 C 0.84171 0.06664 0.534 0.0
Sc88 Sc 0.00197 0.79622 0.28925 0.0
Sc89 Sc 0.01107 0.91571 0.29354 0.0
Sc90 Sc 0.01639 0.85117 0.40513 0.0
O91 O 0.01023 0.85437 0.32925 0.0
C92 C 0.94384 0.77168 0.38095 0.0
C93 C 0.93749 0.86638 0.22925 0.0
C94 C 0.95243 0.93392 0.39084 0.0
C95 C 0.06874 0.85145 0.2226 0.0
C96 C 0.07198 0.76732 0.37816 0.0
C97 C 0.08169 0.93644 0.37683 0.0
O98 O 0.9449 0.77679 0.33286 0.0
O99 O 0.94901 0.90005 0.25681 0.0
O100 O 0.96063 0.89561 0.41324 0.0
O101 O 0.05885 0.81332 0.24452 0.0
O102 O 0.072 0.80625 0.39974 0.0
O103 O 0.07258 0.93588 0.32957 0.0
O104 O 0.04494 0.75697 0.34185 0.0
O105 O 0.05004 0.88963 0.23203 0.0
O106 O 0.06171 0.91055 0.40904 0.0
O107 O 0.95774 0.82785 0.23144 0.0
O108 O 0.97143 0.79186 0.411 0.0
O109 O 0.97244 0.94812 0.35122 0.0
Sc110 Sc 0.00126 0.20547 0.78636 0.0
Sc111 Sc 0.00323 0.0859 0.79599 0.0
Sc112 Sc 0.00236 0.14994 0.90656 0.0
O113 O 0.00197 0.14725 0.83004 0.0
C114 C 0.06961 0.23172 0.87308 0.0
C115 C 0.06737 0.14038 0.72643 0.0
C116 C 0.06736 0.06669 0.89263 0.0
C117 C 0.93612 0.14414 0.72424 0.0
C118 C 0.9372 0.23159 0.87734 0.0
C119 C 0.93588 0.06439 0.88176 0.0
O120 O 0.05888 0.23183 0.82602 0.0
O121 O 0.06197 0.10644 0.75681 0.0
O122 O 0.05855 0.10377 0.91544 0.0
O123 O 0.94325 0.18276 0.74503 0.0
O124 O 0.94627 0.19635 0.90519 0.0
O125 O 0.94535 0.06235 0.83504 0.0
O126 O 0.95746 0.2413 0.83643 0.0
O127 O 0.9592 0.10832 0.73422 0.0
O128 O 0.95557 0.09184 0.91276 0.0
O129 O 0.04397 0.17682 0.72864 0.0
O130 O 0.04971 0.20741 0.90684 0.0
O131 O 0.04672 0.05424 0.85241 0.0
Sc132 Sc 0.50888 0.29489 0.29096 0.0
Sc133 Sc 0.51565 0.41445 0.29326 0.0
Sc134 Sc 0.51646 0.35261 0.40688 0.0
O135 O 0.51439 0.35368 0.33058 0.0
C136 C 0.44508 0.27272 0.38092 0.0
C137 C 0.44331 0.36373 0.22978 0.0
C138 C 0.45661 0.43802 0.38802 0.0
C139 C 0.57234 0.34992 0.2212 0.0
C140 C 0.57589 0.26863 0.38328 0.0
C141 C 0.58604 0.43414 0.37728 0.0
O142 O 0.45184 0.27302 0.33334 0.0
O143 O 0.45292 0.39756 0.25802 0.0
O144 O 0.46178 0.39934 0.41069 0.0
O145 O 0.56541 0.31254 0.24587 0.0
O146 O 0.57056 0.30544 0.40783 0.0
O147 O 0.57751 0.4336 0.32972 0.0
O148 O 0.5531 0.25792 0.34365 0.0
O149 O 0.5529 0.3876 0.23067 0.0
O150 O 0.56428 0.40994 0.40964 0.0
O151 O 0.46472 0.32586 0.23288 0.0
O152 O 0.46876 0.29581 0.41253 0.0
O153 O 0.47865 0.45048 0.34939 0.0
Sc154 Sc 0.49786 0.71072 0.78095 0.0
Sc155 Sc 0.49641 0.58984 0.78652 0.0
Sc156 Sc 0.50328 0.65213 0.89829 0.0
O157 O 0.49901 0.65108 0.82188 0.0
C158 C 0.56773 0.73611 0.86627 0.0
C159 C 0.5609 0.64572 0.71649 0.0
C160 C 0.5664 0.56947 0.87816 0.0
C161 C 0.42955 0.65181 0.71809 0.0
C162 C 0.43576 0.73268 0.87506 0.0
C163 C 0.43565 0.56702 0.87711 0.0
O164 O 0.55627 0.73674 0.81953 0.0
O165 O 0.55212 0.6086 0.74091 0.0
O166 O 0.56116 0.60841 0.89869 0.0
O167 O 0.43903 0.68978 0.73931 0.0
O168 O 0.44627 0.69704 0.90169 0.0
O169 O 0.44039 0.56737 0.82933 0.0
O170 O 0.45456 0.74402 0.83365 0.0
O171 O 0.45027 0.61447 0.72805 0.0
O172 O 0.4588 0.59243 0.90707 0.0
O173 O 0.5411 0.68382 0.72346 0.0
O174 O 0.54875 0.71076 0.89957 0.0
O175 O 0.54177 0.55622 0.84098 0.0
C176 C 0.18767 0.27775 0.89331 0.0
C177 C 0.17903 0.31925 0.91864 0.0
C178 C 0.09878 0.30297 0.91562 0.0
C179 C 0.10729 0.26167 0.88919 0.0
N180 N 0.15839 0.21128 0.84791 0.0
N181 N 0.12807 0.3759 0.94751 0.0
C182 C 0.1514 0.24953 0.87645 0.0
C183 C 0.13499 0.33303 0.92836 0.0
N184 N 0.23094 0.26495 0.88709 0.0
N185 N 0.05605 0.31348 0.92798 0.0
H186 H 0.15425 0.3987 0.95605 0.0
H187 H 0.09679 0.39037 0.95167 0.0
H188 H 0.02846 0.29424 0.91559 0.0
H189 H 0.04779 0.3401 0.95199 0.0
H190 H 0.24045 0.23307 0.87353 0.0
H191 H 0.25792 0.28573 0.89839 0.0
H192 H 0.18898 0.20295 0.83281 0.0
H193 H 0.13289 0.18853 0.83697 0.0
C194 C 0.8604 0.71625 0.47081 0.0
C195 C 0.84954 0.67473 0.44511 0.0
C196 C 0.90758 0.69279 0.38359 0.0
C197 C 0.91135 0.73829 0.40297 0.0
N198 N 0.8846 0.79557 0.46062 0.0
N199 N 0.86149 0.62389 0.37568 0.0
C200 C 0.88584 0.75073 0.44538 0.0
C201 C 0.87296 0.66311 0.40115 0.0
N202 N 0.84947 0.72162 0.52046 0.0
N203 N 0.93831 0.67693 0.35063 0.0
H204 H 0.83733 0.6006 0.38876 0.0
H205 H 0.87381 0.61618 0.34007 0.0
H206 H 0.96586 0.69639 0.33914 0.0
H207 H 0.93927 0.6427 0.33917 0.0
H208 H 0.85957 0.75026 0.54143 0.0
H209 H 0.83664 0.69469 0.54272 0.0
H210 H 0.86313 0.80661 0.48852 0.0
H211 H 0.90122 0.82243 0.44184 0.0
C212 C 0.83101 0.30256 0.86794 0.0
C213 C 0.8323 0.32514 0.91508 0.0
C214 C 0.9038 0.28817 0.93744 0.0
C215 C 0.90037 0.26243 0.89188 0.0
N216 N 0.85726 0.2392 0.81791 0.0
N217 N 0.86995 0.34271 -0.00587 0.0
C218 C 0.86315 0.26826 0.85802 0.0
C219 C 0.8687 0.3187 0.94984 0.0
N220 N 0.79863 0.31409 0.83274 0.0
N221 N 0.94143 0.28482 0.9676 0.0
H222 H 0.84805 0.36955 0.00098 0.0
H223 H 0.89202 0.336 0.02436 0.0
H224 H 0.96724 0.26218 0.96045 0.0
H225 H 0.9485 0.3058 -0.00151 0.0
H226 H 0.79802 0.3025 0.79548 0.0
H227 H 0.77423 0.33851 0.83981 0.0
H228 H 0.82874 0.23865 0.79463 0.0
H229 H 0.87906 0.21239 0.81062 0.0
C230 C 0.13242 0.69322 0.47714 0.0
C231 C 0.16108 0.66789 0.44649 0.0
C232 C 0.1299 0.70558 0.36995 0.0
C233 C 0.10088 0.73089 0.40068 0.0
N234 N 0.06446 0.73691 0.48151 0.0
N235 N 0.17174 0.63509 0.36371 0.0
C236 C 0.099 0.72111 0.45378 0.0
C237 C 0.15542 0.66942 0.39271 0.0
N238 N 0.1382 0.69162 0.52882 0.0
N239 N 0.13458 0.71699 0.31971 0.0
H240 H 0.18523 0.60493 0.37962 0.0
H241 H 0.1657 0.63334 0.3246 0.0
H242 H 0.11744 0.74411 0.30174 0.0
H243 H 0.15867 0.70226 0.29724 0.0
H244 H 0.122 0.71368 0.5531 0.0
H245 H 0.16133 0.66993 0.54713 0.0
H246 H 0.05942 0.72718 0.5193 0.0
H247 H 0.03807 0.75565 0.46539 0.0
C248 C 0.63918 0.84275 0.8922 0.0
C249 C 0.67703 0.82233 0.91585 0.0
C250 C 0.64564 0.745 0.9012 0.0
C251 C 0.60562 0.76577 0.88261 0.0
N252 N 0.5621 0.83402 0.86408 0.0
N253 N 0.71881 0.75487 0.94128 0.0
C254 C 0.60187 0.8146 0.87869 0.0
C255 C 0.68089 0.7736 0.92022 0.0
N256 N 0.63937 0.88931 0.88251 0.0
N257 N 0.65074 0.6982 0.89791 0.0
H258 H 0.74739 0.77444 0.94935 0.0
H259 H 0.72187 0.72021 0.95186 0.0
H260 H 0.62613 0.67639 0.8828 0.0
H261 H 0.68033 0.68099 0.90641 0.0
H262 H 0.61492 0.9062 0.86071 0.0
H263 H 0.66604 0.91073 0.89329 0.0
H264 H 0.55569 0.86922 0.86593 0.0
H265 H 0.53408 0.81461 0.85334 0.0
C266 C 0.33538 0.23497 0.44064 0.0
C267 C 0.33592 0.18687 0.43075 0.0
C268 C 0.40943 0.19476 0.39265 0.0
C269 C 0.40832 0.24318 0.40035 0.0
N270 N 0.3693 0.3107 0.42718 0.0
N271 N 0.36848 0.12197 0.39073 0.0
C272 C 0.37127 0.26364 0.42382 0.0
C273 C 0.37152 0.1672 0.40464 0.0
N274 N 0.29972 0.25338 0.46433 0.0
N275 N 0.44747 0.17489 0.37582 0.0
H276 H 0.34153 0.1007 0.40045 0.0
H277 H 0.39077 0.10643 0.36669 0.0
H278 H 0.47616 0.19383 0.3671 0.0
H279 H 0.45212 0.13935 0.37451 0.0
H280 H 0.29944 0.28645 0.47915 0.0
H281 H 0.27 0.23524 0.47 0.0
H282 H 0.34161 0.32862 0.439 0.0
H283 H 0.39485 0.33271 0.41535 0.0
C284 C 0.37534 0.83786 0.92269 0.0
C285 C 0.33053 0.82258 0.91892 0.0
C286 C 0.3543 0.74859 0.8849 0.0
C287 C 0.39948 0.76261 0.89231 0.0
N288 N 0.45371 0.81738 0.92451 0.0
N289 N 0.27609 0.76356 0.90016 0.0
C290 C 0.41024 0.8065 0.91283 0.0
C291 C 0.31967 0.77783 0.90122 0.0
N292 N 0.38418 0.88262 0.93545 0.0
N293 N 0.34461 0.70832 0.86032 0.0
H294 H 0.24999 0.78542 0.9089 0.0
H295 H 0.26588 0.72975 0.89315 0.0
H296 H 0.36915 0.68614 0.84785 0.0
H297 H 0.31254 0.69816 0.84916 0.0
H298 H 0.41578 0.89777 0.93435 0.0
H299 H 0.35892 0.9057 0.9438 0.0
H300 H 0.46365 0.84709 0.94357 0.0
H301 H 0.47986 0.79468 0.91881 0.0
C302 C 0.62897 0.17402 0.46459 0.0
C303 C 0.67434 0.1829 0.45478 0.0
C304 C 0.65427 0.2418 0.39072 0.0
C305 C 0.609 0.23588 0.40387 0.0
N306 N 0.5523 0.19927 0.45488 0.0
N307 N 0.73172 0.22809 0.4145 0.0
C308 C 0.59595 0.20249 0.44102 0.0
C309 C 0.68749 0.21731 0.41906 0.0
N310 N 0.61786 0.13777 0.49601 0.0
N311 N 0.66527 0.27073 0.35113 0.0
H312 H 0.75669 0.21114 0.43559 0.0
H313 H 0.74356 0.25597 0.393 0.0
H314 H 0.64156 0.28962 0.3301 0.0
H315 H 0.69719 0.27339 0.33652 0.0
H316 H 0.58531 0.1262 0.50144 0.0
H317 H 0.6419 0.11713 0.51425 0.0
H318 H 0.54121 0.17909 0.4853 0.0
H319 H 0.52709 0.21888 0.43746 0.0
C320 C 0.33591 0.51338 0.94459 0.0
C321 C 0.34717 0.4659 0.94303 0.0
C322 C 0.41385 0.48452 0.89415 0.0
C323 C 0.40446 0.53238 0.89893 0.0
N324 N 0.35713 0.5934 0.92655 0.0
N325 N 0.39464 0.40488 0.9163 0.0
C326 C 0.36544 0.54712 0.92337 0.0
C327 C 0.3852 0.45107 0.91702 0.0
N328 N 0.29696 0.5258 0.96658 0.0
N329 N 0.45061 0.4712 0.86833 0.0
H330 H 0.37286 0.37945 0.93003 0.0
H331 H 0.42416 0.39119 0.90343 0.0
H332 H 0.47489 0.49425 0.85535 0.0
H333 H 0.45704 0.4374 0.85821 0.0
H334 H 0.28483 0.55928 0.96712 0.0
H335 H 0.27498 0.5018 0.98264 0.0
H336 H 0.33134 0.60742 0.94681 0.0
H337 H 0.37708 0.61873 0.90952 0.0
C338 C 0.64445 0.54784 0.40906 0.0
C339 C 0.67528 0.53229 0.44702 0.0
C340 C 0.65572 0.45184 0.42812 0.0
C341 C 0.61976 0.46768 0.39664 0.0
N342 N 0.57699 0.53144 0.36064 0.0
N343 N 0.7109 0.47022 0.49391 0.0
C344 C 0.61378 0.51584 0.38719 0.0
C345 C 0.68148 0.48439 0.45654 0.0
N346 N 0.64403 0.59346 0.39452 0.0
N347 N 0.66565 0.40583 0.42994 0.0
H348 H 0.73168 0.49323 0.51361 0.0
H349 H 0.71323 0.43616 0.50706 0.0
H350 H 0.64781 0.38138 0.40878 0.0
H351 H 0.69378 0.39243 0.44858 0.0
H352 H 0.62581 0.60601 0.36314 0.0
H353 H 0.66507 0.61825 0.41085 0.0
H354 H 0.56798 0.56609 0.35847 0.0
H355 H 0.55288 0.50984 0.34439 0.0
C356 C 0.64694 0.50641 0.97024 0.0
C357 C 0.65887 0.468 0.94089 0.0
C358 C 0.62298 0.50602 0.86694 0.0
C359 C 0.60125 0.5372 0.89942 0.0
N360 N 0.58667 0.55749 0.98698 0.0
N361 N 0.65196 0.4288 0.86045 0.0
C362 C 0.61194 0.53538 0.95249 0.0
C363 C 0.64557 0.46716 0.88874 0.0
N364 N 0.66819 0.51452 0.0157 0.0
N365 N 0.62337 0.51399 0.81562 0.0
H366 H 0.66647 0.39873 0.87514 0.0
H367 H 0.63883 0.42556 0.82361 0.0
H368 H 0.61064 0.54403 0.79858 0.0
H369 H 0.64152 0.49377 0.79117 0.0
H370 H 0.66248 0.54403 0.03672 0.0
H371 H 0.69485 0.49445 0.02911 0.0
H372 H 0.59208 0.55368 0.02614 0.0
H373 H 0.55682 0.57395 0.97769 0.0
C374 C 0.34892 0.48774 0.43474 0.0
C375 C 0.36352 0.53265 0.44869 0.0
C376 C 0.43981 0.51401 0.42633 0.0
C377 C 0.42448 0.47074 0.40819 0.0
N378 N 0.36288 0.42135 0.38298 0.0
N379 N 0.42021 0.59253 0.44532 0.0
C380 C 0.37851 0.45897 0.40877 0.0
C381 C 0.4082 0.54708 0.44055 0.0
N382 N 0.30767 0.47177 0.44805 0.0
N383 N 0.48449 0.52275 0.43224 0.0
H384 H 0.39754 0.61813 0.45423 0.0
H385 H 0.45141 0.60548 0.43528 0.0
H386 H 0.50871 0.49847 0.42431 0.0
H387 H 0.4973 0.55213 0.44991 0.0
H388 H 0.29741 0.43756 0.44336 0.0
H389 H 0.28518 0.49144 0.46796 0.0
H390 H 0.32902 0.41369 0.3783 0.0
H391 H 0.3835 0.40051 0.36188 0.0
C392 C 0.83655 0.01798 0.95471 0.0
C393 C 0.84171 0.9697 0.9488 0.0
C394 C 0.90664 0.9833 0.89557 0.0
C395 C 0.90154 0.03183 0.90139 0.0
N396 N 0.85528 0.09538 0.92464 0.0
N397 N 0.87466 0.90641 0.90527 0.0
C398 C 0.86453 0.04921 0.92748 0.0
C399 C 0.87432 0.95245 0.91616 0.0
N400 N 0.80563 0.03385 0.98743 0.0
N401 N 0.94374 0.96633 0.87329 0.0
H402 H 0.85276 0.88237 0.92135 0.0
H403 H 0.89405 0.89252 0.87707 0.0
H404 H 0.96852 0.98698 0.85727 0.0
H405 H 0.95215 0.93151 0.8742 0.0
H406 H 0.80402 0.06816 -0.00153 0.0
H407 H 0.78286 0.01209 0.00574 0.0
H408 H 0.82642 0.10966 0.93875 0.0
H409 H 0.87438 0.11901 0.90377 0.0
C410 C 0.1372 0.05253 0.40566 0.0
C411 C 0.16897 0.0385 0.44316 0.0
C412 C 0.15109 0.95719 0.42669 0.0
C413 C 0.11424 0.97143 0.39572 0.0
N414 N 0.06935 0.03347 0.3592 0.0
N415 N 0.20633 0.97811 0.49126 0.0
C416 C 0.10689 0.01931 0.38532 0.0
C417 C 0.17633 0.99092 0.45385 0.0
N418 N 0.13576 0.0978 0.38996 0.0
N419 N 0.16254 0.91158 0.42905 0.0
H420 H 0.22682 0.00185 0.51026 0.0
H421 H 0.20926 0.94439 0.50532 0.0
H422 H 0.14521 0.88621 0.40871 0.0
H423 H 0.19148 0.8995 0.44715 0.0
H424 H 0.11655 0.10944 0.35893 0.0
H425 H 0.15707 0.12308 0.40495 0.0
H426 H 0.05964 0.06787 0.35618 0.0
H427 H 0.04538 0.01095 0.34426 0.0
C428 C 0.17534 0.01255 0.94542 0.0
C429 C 0.16052 0.9662 0.95294 0.0
C430 C 0.08466 0.98827 0.92796 0.0
C431 C 0.09976 0.03362 0.91591 0.0
N432 N 0.16101 0.08737 0.90516 0.0
N433 N 0.10402 0.90778 0.93824 0.0
C434 C 0.14565 0.04542 0.92227 0.0
C435 C 0.11614 0.95341 0.93953 0.0
N436 N 0.21701 0.02551 0.96204 0.0
N437 N 0.04005 0.97916 0.93168 0.0
H438 H 0.12664 0.8812 0.9458 0.0
H439 H 0.07299 0.89645 0.92455 0.0
H440 H 0.01611 0.00494 0.92775 0.0
H441 H 0.02732 0.94758 0.94479 0.0
H442 H 0.22791 0.05978 0.96285 0.0
H443 H 0.23978 0.0021 0.978 0.0
H444 H 0.19475 0.09614 0.90408 0.0
H445 H 0.14014 0.11218 0.88837 0.0
C446 C 0.84473 0.97726 0.44529 0.0
C447 C 0.85734 0.02343 0.45625 0.0
C448 C 0.93292 0.00938 0.42821 0.0
C449 C 0.91948 0.96452 0.4131 0.0
N450 N 0.86045 0.90886 0.39727 0.0
N451 N 0.90947 0.08693 0.44586 0.0
C452 C 0.87468 0.94925 0.4187 0.0
C453 C 0.90021 0.04063 0.44366 0.0
N454 N 0.80501 0.95971 0.4618 0.0
N455 N 0.97714 0.02128 0.43065 0.0
H456 H 0.88588 0.11117 0.456 0.0
H457 H 0.93895 0.10166 0.43257 0.0
H458 H 0.00242 0.99822 0.42268 0.0
H459 H 0.98891 0.05215 0.44602 0.0
H460 H 0.79635 0.92483 0.45978 0.0
H461 H 0.78208 0.97936 0.48113 0.0
H462 H 0.82713 0.8983 0.39602 0.0
H463 H 0.88127 0.88792 0.37656 0.0
C464 C 0.36116 0.42084 0.13639 0.0
C465 C 0.34488 0.38249 0.10881 0.0
C466 C 0.38212 0.33189 0.17161 0.0
C467 C 0.40761 0.37014 0.18988 0.0
N468 N 0.42814 0.451 0.17473 0.0
N469 N 0.34734 0.2996 0.09653 0.0
C470 C 0.39882 0.41494 0.16874 0.0
C471 C 0.35701 0.33722 0.12547 0.0
N472 N 0.34201 0.46319 0.13003 0.0
N473 N 0.38056 0.2911 0.19844 0.0
H474 H 0.33155 0.30174 0.06093 0.0
H475 H 0.35934 0.26675 0.10587 0.0
H476 H 0.39491 0.287 0.23468 0.0
H477 H 0.35992 0.26363 0.18751 0.0
H478 H 0.35169 0.49148 0.15186 0.0
H479 H 0.31354 0.46827 0.10709 0.0
H480 H 0.42318 0.48308 0.15686 0.0
H481 H 0.46021 0.44732 0.19015 0.0
C482 C 0.61221 0.64796 0.58571 0.0
C483 C 0.65464 0.62898 0.59758 0.0
C484 C 0.63855 0.63077 0.68844 0.0
C485 C 0.59399 0.64335 0.67588 0.0
N486 N 0.53605 0.65612 0.61201 0.0
N487 N 0.7073 0.59777 0.65949 0.0
C488 C 0.58019 0.65032 0.62437 0.0
C489 C 0.66781 0.61945 0.64883 0.0
N490 N 0.60266 0.66398 0.5375 0.0
N491 N 0.65302 0.63048 0.73812 0.0
H492 H 0.72979 0.58931 0.63151 0.0
H493 H 0.71633 0.58515 0.69556 0.0
H494 H 0.63246 0.63899 0.76801 0.0
H495 H 0.68623 0.62592 0.74932 0.0
H496 H 0.57385 0.68226 0.52788 0.0
H497 H 0.62551 0.66296 0.50818 0.0
H498 H 0.52355 0.65639 0.57473 0.0
H499 H 0.51119 0.65603 0.63906 0.0
C500 C 0.66722 0.38404 0.13538 0.0
C501 C 0.65406 0.36124 0.09004 0.0
C502 C 0.58931 0.32715 0.13221 0.0
C503 C 0.6027 0.3496 0.17774 0.0
N504 N 0.65882 0.39042 0.2266 0.0
N505 N 0.60914 0.30372 0.04752 0.0
C506 C 0.64316 0.37523 0.18054 0.0
C507 C 0.61725 0.33021 0.08931 0.0
N508 N 0.70154 0.41553 0.13467 0.0
N509 N 0.54875 0.3052 0.12904 0.0
H510 H 0.6288 0.3057 0.01528 0.0
H511 H 0.58554 0.2771 0.04638 0.0
H512 H 0.52739 0.30183 0.15966 0.0
H513 H 0.53473 0.29308 0.09519 0.0
H514 H 0.70922 0.43745 0.16464 0.0
H515 H 0.72089 0.42181 0.10274 0.0
H516 H 0.69019 0.40546 0.23215 0.0
H517 H 0.64195 0.38421 0.26039 0.0
C518 C 0.36572 0.66838 0.59284 0.0
C519 C 0.33603 0.63011 0.59644 0.0
C520 C 0.3575 0.61852 0.68595 0.0
C521 C 0.39322 0.65042 0.67922 0.0
N522 N 0.43202 0.70635 0.62634 0.0
N523 N 0.30141 0.5694 0.64571 0.0
C524 C 0.39693 0.67646 0.63313 0.0
C525 C 0.33072 0.6058 0.64313 0.0
N526 N 0.36458 0.69636 0.55037 0.0
N527 N 0.34912 0.60098 0.73345 0.0
H528 H 0.27987 0.56089 0.61551 0.0
H529 H 0.29969 0.54661 0.67671 0.0
H530 H 0.36775 0.61068 0.7656 0.0
H531 H 0.32147 0.58042 0.74185 0.0
H532 H 0.38208 0.72752 0.54747 0.0
H533 H 0.34292 0.69062 0.51952 0.0
H534 H 0.43994 0.72129 0.59134 0.0
H535 H 0.45537 0.71423 0.65483 0.0
C536 C 0.86019 0.93111 0.13849 0.0
C537 C 0.83098 0.89603 0.12122 0.0
C538 C 0.86386 0.84348 0.18584 0.0
C539 C 0.9006 0.87487 0.19151 0.0
N540 N 0.93574 0.94702 0.16432 0.0
N541 N 0.78639 0.83592 0.15908 0.0
C542 C 0.89907 0.91863 0.16601 0.0
C543 C 0.82729 0.85587 0.15267 0.0
N544 N 0.85006 0.97639 0.12937 0.0
N545 N 0.86301 0.80272 0.21283 0.0
H546 H 0.75744 0.8532 0.14748 0.0
H547 H 0.78039 0.80804 0.18364 0.0
H548 H 0.88593 0.79453 0.24183 0.0
H549 H 0.84024 0.77623 0.20501 0.0
H550 H 0.86898 0.00352 0.14448 0.0
H551 H 0.82011 0.98589 0.11118 0.0
H552 H 0.9362 0.97766 0.14279 0.0
H553 H 0.96706 0.93735 0.1786 0.0
C554 C 0.14329 0.08475 0.63186 0.0
C555 C 0.16018 0.12348 0.60453 0.0
C556 C 0.12471 0.17366 0.66557 0.0
C557 C 0.09998 0.13522 0.6849 0.0
N558 N 0.07728 0.05529 0.67119 0.0
N559 N 0.1584 0.20651 0.59039 0.0
C560 C 0.10696 0.09086 0.66408 0.0
C561 C 0.14876 0.16863 0.61998 0.0
N562 N 0.16144 0.04205 0.62674 0.0
N563 N 0.12679 0.21431 0.69111 0.0
H564 H 0.17334 0.20445 0.55512 0.0
H565 H 0.14706 0.23944 0.59857 0.0
H566 H 0.11281 0.21839 0.72667 0.0
H567 H 0.14722 0.24185 0.67984 0.0
H568 H 0.15149 0.01355 0.64872 0.0
H569 H 0.18958 0.03664 0.60501 0.0
H570 H 0.08047 0.02356 0.65348 0.0
H571 H 0.04645 0.05935 0.688 0.0
C572 C 0.1264 0.83668 0.09706 0.0
C573 C 0.16405 0.86596 0.10494 0.0
C574 C 0.14456 0.87491 0.19403 0.0
C575 C 0.10343 0.85189 0.18377 0.0
N576 N 0.05329 0.81264 0.12555 0.0
N577 N 0.20975 0.91365 0.15957 0.0
C578 C 0.09408 0.83251 0.13553 0.0
C579 C 0.17372 0.88483 0.15331 0.0
N580 N 0.12151 0.81329 0.05253 0.0
N581 N 0.1558 0.88662 0.24285 0.0
H582 H 0.23275 0.91989 0.13097 0.0
H583 H 0.21575 0.93305 0.192 0.0
H584 H 0.13516 0.87942 0.2735 0.0
H585 H 0.18693 0.89978 0.25376 0.0
H586 H 0.09718 0.78799 0.04626 0.0
H587 H 0.1443 0.81623 0.02321 0.0
H588 H 0.04238 0.80295 0.0894 0.0
H589 H 0.0288 0.80858 0.15288 0.0
C590 C 0.87408 0.15532 0.59764 0.0
C591 C 0.84054 0.12107 0.60476 0.0
C592 C 0.86257 0.11265 0.6945 0.0
C593 C 0.9006 0.14075 0.68493 0.0
N594 N 0.94463 0.18738 0.62739 0.0
N595 N 0.80155 0.06698 0.65875 0.0
C596 C 0.90655 0.16248 0.63677 0.0
C597 C 0.83396 0.10012 0.65313 0.0
N598 N 0.87514 0.1804 0.5531 0.0
N599 N 0.85377 0.09853 0.7432 0.0
H600 H 0.77884 0.05875 0.62957 0.0
H601 H 0.79832 0.04633 0.69131 0.0
H602 H 0.87407 0.10765 0.77426 0.0
H603 H 0.82463 0.08126 0.7535 0.0
H604 H 0.89599 0.20892 0.5474 0.0
H605 H 0.85229 0.17533 0.52319 0.0
H606 H 0.95348 0.19917 0.59133 0.0
H607 H 0.96928 0.19364 0.65507 0.0
loop_
_geom_bond_atom_site_label_1
_geom_bond_atom_site_label_2
_geom_bond_distance
_geom_bond_site_symmetry_2
_ccdc_geom_bond_type
H0 C5 0.929 . S
H1 C10 0.931 . S
H2 C8 0.930 . S
N3 N4 1.234 . S
N3 C7 1.453 1_556 S
N4 N3 1.234 . S
C5 H0 0.929 . S
C5 C6 1.373 . S
C5 C7 1.368 . S
C6 C5 1.373 . S
C6 C10 1.397 . S
C7 N3 1.453 1_554 S
C7 C5 1.368 . S
C7 C8 1.373 1_554 S
C8 H2 0.930 . S
C8 C7 1.373 1_556 S
C8 C9 1.371 . S
C9 C8 1.371 . S
C9 C10 1.383 1_556 S
C10 H1 0.931 . S
C10 C6 1.397 . S
C10 C9 1.383 1_554 S
H11 C16 0.929 . S
H12 C21 0.931 . S
H13 C19 0.930 . S
N14 N15 1.234 . S
N14 C18 1.453 . S
N15 N14 1.234 . S
C16 H11 0.929 . S
C16 C17 1.373 . S
C16 C18 1.368 . S
C17 C16 1.373 . S
C17 C21 1.397 . S
C18 N14 1.453 . S
C18 C16 1.368 . S
C18 C19 1.373 . S
C19 H13 0.930 . S
C19 C18 1.373 . S
C19 C20 1.371 . S
C20 C19 1.371 . S
C20 C21 1.383 . S
C21 H12 0.931 . S
C21 C17 1.397 . S
C21 C20 1.383 . S
H22 C27 0.929 . S
H23 C32 0.931 . S
H24 C30 0.930 . S
N25 N26 1.234 1_554 S
N25 C29 1.453 . S
N26 N25 1.234 1_556 S
C27 H22 0.929 . S
C27 C28 1.373 . S
C27 C29 1.368 . S
C28 C27 1.373 . S
C28 C32 1.397 . S
C29 N25 1.453 . S
C29 C27 1.368 . S
C29 C30 1.373 1_554 S
C30 H24 0.930 . S
C30 C29 1.373 1_556 S
C30 C31 1.371 . S
C31 C30 1.371 . S
C31 C32 1.383 1_556 S
C32 H23 0.931 . S
C32 C28 1.397 . S
C32 C31 1.383 1_554 S
H33 C38 0.929 . S
H34 C43 0.931 . S
H35 C41 0.930 . S
N36 N37 1.234 . S
N36 C40 1.453 . S
N37 N36 1.234 . S
C38 H33 0.929 . S
C38 C39 1.373 . S
C38 C40 1.368 . S
C39 C38 1.373 . S
C39 C43 1.397 . S
C40 N36 1.453 . S
C40 C38 1.368 . S
C40 C41 1.373 . S
C41 H35 0.930 . S
C41 C40 1.373 . S
C41 C42 1.371 . S
C42 C41 1.371 . S
C42 C43 1.383 . S
C43 H34 0.931 . S
C43 C39 1.397 . S
C43 C42 1.383 . S
H44 C49 0.929 . S
H45 C54 0.931 . S
H46 C52 0.930 . S
N47 N48 1.234 . S
N47 C51 1.453 1_556 S
N48 N47 1.234 . S
C49 H44 0.929 . S
C49 C50 1.373 . S
C49 C51 1.368 . S
C50 C49 1.373 . S
C50 C54 1.397 . S
C51 N47 1.453 1_554 S
C51 C49 1.368 . S
C51 C52 1.373 1_554 S
C52 H46 0.930 . S
C52 C51 1.373 1_556 S
C52 C53 1.371 . S
C53 C52 1.371 . S
C53 C54 1.383 1_556 S
C54 H45 0.931 . S
C54 C50 1.397 . S
C54 C53 1.383 1_554 S
H55 C60 0.929 . S
H56 C65 0.931 . S
H57 C63 0.930 . S
N58 N59 1.234 . S
N58 C62 1.453 . S
N59 N58 1.234 . S
C60 H55 0.929 . S
C60 C61 1.373 . S
C60 C62 1.368 . S
C61 C60 1.373 . S
C61 C65 1.397 . S
C62 N58 1.453 . S
C62 C60 1.368 . S
C62 C63 1.373 . S
C63 H57 0.930 . S
C63 C62 1.373 . S
C63 C64 1.371 . S
C64 C63 1.371 . S
C64 C65 1.383 . S
C65 H56 0.931 . S
C65 C61 1.397 . S
C65 C64 1.383 . S
H66 C71 0.929 . S
H67 C76 0.931 . S
H68 C74 0.930 . S
N69 N70 1.234 1_554 S
N69 C73 1.453 . S
N70 N69 1.234 1_556 S
C71 H66 0.929 . S
C71 C72 1.373 . S
C71 C73 1.368 . S
C72 C71 1.373 . S
C72 C76 1.397 . S
C73 N69 1.453 . S
C73 C71 1.368 . S
C73 C74 1.373 1_554 S
C74 H68 0.930 . S
C74 C73 1.373 1_556 S
C74 C75 1.371 . S
C75 C74 1.371 . S
C75 C76 1.383 1_556 S
C76 H67 0.931 . S
C76 C72 1.397 . S
C76 C75 1.383 1_554 S
H77 C82 0.929 . S
H78 C87 0.931 . S
H79 C85 0.930 . S
N80 N81 1.234 . S
N80 C84 1.453 . S
N81 N80 1.234 . S
C82 H77 0.929 . S
C82 C83 1.373 . S
C82 C84 1.368 . S
C83 C82 1.373 . S
C83 C87 1.397 . S
C84 N80 1.453 . S
C84 C82 1.368 . S
C84 C85 1.373 . S
C85 H79 0.930 . S
C85 C84 1.373 . S
C85 C86 1.371 . S
C86 C85 1.371 . S
C86 C87 1.383 . S
C87 H78 0.931 . S
C87 C83 1.397 . S
C87 C86 1.383 . S
Sc88 O91 2.025 . S
Sc88 O98 2.105 1_455 S
Sc88 O101 2.105 . S
Sc88 O104 2.105 . S
Sc88 O107 2.105 1_455 S
Sc89 O91 2.025 . S
Sc89 O99 2.105 1_455 S
Sc89 O103 2.105 . S
Sc89 O105 2.105 . S
Sc89 O109 2.105 1_455 S
Sc90 O91 2.025 . S
Sc90 O100 2.105 1_455 S
Sc90 O102 2.105 . S
Sc90 O106 2.105 . S
Sc90 O108 2.105 1_455 S
O91 Sc88 2.025 . S
O91 Sc89 2.025 . S
O91 Sc90 2.025 . S
C92 O98 1.268 . S
C92 O108 1.268 . S
C93 O99 1.268 . S
C93 O107 1.268 . S
C94 O100 1.268 . S
C94 O109 1.268 . S
C95 O101 1.268 . S
C95 O105 1.268 . S
C96 O102 1.268 . S
C96 O104 1.268 . S
C97 O103 1.268 . S
C97 O106 1.268 . S
O98 Sc88 2.105 1_655 S
O98 C92 1.268 . S
O99 Sc89 2.105 1_655 S
O99 C93 1.268 . S
O100 Sc90 2.105 1_655 S
O100 C94 1.268 . S
O101 Sc88 2.105 . S
O101 C95 1.268 . S
O102 Sc90 2.105 . S
O102 C96 1.268 . S
O103 Sc89 2.105 . S
O103 C97 1.268 . S
O104 Sc88 2.105 . S
O104 C96 1.268 . S
O105 Sc89 2.105 . S
O105 C95 1.268 . S
O106 Sc90 2.105 . S
O106 C97 1.268 . S
O107 Sc88 2.105 1_655 S
O107 C93 1.268 . S
O108 Sc90 2.105 1_655 S
O108 C92 1.268 . S
O109 Sc89 2.105 1_655 S
O109 C94 1.268 . S
Sc110 O113 2.025 . S
Sc110 O120 2.105 . S
Sc110 O123 2.105 1_455 S
Sc110 O126 2.105 1_455 S
Sc110 O129 2.105 . S
Sc111 O113 2.025 . S
Sc111 O121 2.105 . S
Sc111 O125 2.105 1_455 S
Sc111 O127 2.105 1_455 S
Sc111 O131 2.105 . S
Sc112 O113 2.025 . S
Sc112 O122 2.105 . S
Sc112 O124 2.105 1_455 S
Sc112 O128 2.105 1_455 S
Sc112 O130 2.105 . S
O113 Sc110 2.025 . S
O113 Sc111 2.025 . S
O113 Sc112 2.025 . S
C114 O120 1.268 . S
C114 O130 1.268 . S
C115 O121 1.268 . S
C115 O129 1.268 . S
C116 O122 1.268 . S
C116 O131 1.268 . S
C117 O123 1.268 . S
C117 O127 1.268 . S
C118 O124 1.268 . S
C118 O126 1.268 . S
C119 O125 1.268 . S
C119 O128 1.268 . S
O120 Sc110 2.105 . S
O120 C114 1.268 . S
O121 Sc111 2.105 . S
O121 C115 1.268 . S
O122 Sc112 2.105 . S
O122 C116 1.268 . S
O123 Sc110 2.105 1_655 S
O123 C117 1.268 . S
O124 Sc112 2.105 1_655 S
O124 C118 1.268 . S
O125 Sc111 2.105 1_655 S
O125 C119 1.268 . S
O126 Sc110 2.105 1_655 S
O126 C118 1.268 . S
O127 Sc111 2.105 1_655 S
O127 C117 1.268 . S
O128 Sc112 2.105 1_655 S
O128 C119 1.268 . S
O129 Sc110 2.105 . S
O129 C115 1.268 . S
O130 Sc112 2.105 . S
O130 C114 1.268 . S
O131 Sc111 2.105 . S
O131 C116 1.268 . S
Sc132 O135 2.025 . S
Sc132 O142 2.105 . S
Sc132 O145 2.105 . S
Sc132 O148 2.105 . S
Sc132 O151 2.105 . S
Sc133 O135 2.025 . S
Sc133 O143 2.105 . S
Sc133 O147 2.105 . S
Sc133 O149 2.105 . S
Sc133 O153 2.105 . S
Sc134 O135 2.025 . S
Sc134 O144 2.105 . S
Sc134 O146 2.105 . S
Sc134 O150 2.105 . S
Sc134 O152 2.105 . S
O135 Sc132 2.025 . S
O135 Sc133 2.025 . S
O135 Sc134 2.025 . S
C136 O142 1.268 . S
C136 O152 1.268 . S
C137 O143 1.268 . S
C137 O151 1.268 . S
C138 O144 1.268 . S
C138 O153 1.268 . S
C139 O145 1.268 . S
C139 O149 1.268 . S
C140 O146 1.268 . S
C140 O148 1.268 . S
C141 O147 1.268 . S
C141 O150 1.268 . S
O142 Sc132 2.105 . S
O142 C136 1.268 . S
O143 Sc133 2.105 . S
O143 C137 1.268 . S
O144 Sc134 2.105 . S
O144 C138 1.268 . S
O145 Sc132 2.105 . S
O145 C139 1.268 . S
O146 Sc134 2.105 . S
O146 C140 1.268 . S
O147 Sc133 2.105 . S
O147 C141 1.268 . S
O148 Sc132 2.105 . S
O148 C140 1.268 . S
O149 Sc133 2.105 . S
O149 C139 1.268 . S
O150 Sc134 2.105 . S
O150 C141 1.268 . S
O151 Sc132 2.105 . S
O151 C137 1.268 . S
O152 Sc134 2.105 . S
O152 C136 1.268 . S
O153 Sc133 2.105 . S
O153 C138 1.268 . S
Sc154 O157 2.025 . S
Sc154 O164 2.105 . S
Sc154 O167 2.105 . S
Sc154 O170 2.105 . S
Sc154 O173 2.105 . S
Sc155 O157 2.025 . S
Sc155 O165 2.105 . S
Sc155 O169 2.105 . S
Sc155 O171 2.105 . S
Sc155 O175 2.105 . S
Sc156 O157 2.025 . S
Sc156 O166 2.105 . S
Sc156 O168 2.105 . S
Sc156 O172 2.105 . S
Sc156 O174 2.105 . S
O157 Sc154 2.025 . S
O157 Sc155 2.025 . S
O157 Sc156 2.025 . S
C158 O164 1.268 . S
C158 O174 1.268 . S
C159 O165 1.268 . S
C159 O173 1.268 . S
C160 O166 1.268 . S
C160 O175 1.268 . S
C161 O167 1.268 . S
C161 O171 1.268 . S
C162 O168 1.268 . S
C162 O170 1.268 . S
C163 O169 1.268 . S
C163 O172 1.268 . S
O164 Sc154 2.105 . S
O164 C158 1.268 . S
O165 Sc155 2.105 . S
O165 C159 1.268 . S
O166 Sc156 2.105 . S
O166 C160 1.268 . S
O167 Sc154 2.105 . S
O167 C161 1.268 . S
O168 Sc156 2.105 . S
O168 C162 1.268 . S
O169 Sc155 2.105 . S
O169 C163 1.268 . S
O170 Sc154 2.105 . S
O170 C162 1.268 . S
O171 Sc155 2.105 . S
O171 C161 1.268 . S
O172 Sc156 2.105 . S
O172 C163 1.268 . S
O173 Sc154 2.105 . S
O173 C159 1.268 . S
O174 Sc156 2.105 . S
O174 C158 1.268 . S
O175 Sc155 2.105 . S
O175 C160 1.268 . S
C176 C177 1.363 . S
C176 C182 1.379 . S
C176 N184 1.356 . S
C177 C176 1.363 . S
C177 C183 1.363 . S
C178 C179 1.363 . S
C178 C183 1.379 . S
C178 N185 1.356 . S
C179 C178 1.363 . S
C179 C182 1.363 . S
N180 C182 1.356 . S
N180 H192 0.984 . S
N180 H193 0.985 . S
N181 C183 1.356 . S
N181 H186 0.984 . S
N181 H187 0.985 . S
C182 C176 1.379 . S
C182 C179 1.363 . S
C182 N180 1.356 . S
C183 C177 1.363 . S
C183 C178 1.379 . S
C183 N181 1.356 . S
N184 C176 1.356 . S
N184 H190 0.984 . S
N184 H191 0.984 . S
N185 C178 1.356 . S
N185 H188 0.984 . S
N185 H189 0.985 . S
H186 N181 0.984 . S
H187 N181 0.985 . S
H188 N185 0.984 . S
H189 N185 0.985 . S
H190 N184 0.984 . S
H191 N184 0.984 . S
H192 N180 0.984 . S
H193 N180 0.985 . S
C194 C195 1.363 . S
C194 C200 1.379 . S
C194 N202 1.356 . S
C195 C194 1.363 . S
C195 C201 1.363 . S
C196 C197 1.363 . S
C196 C201 1.379 . S
C196 N203 1.356 . S
C197 C196 1.363 . S
C197 C200 1.363 . S
N198 C200 1.356 . S
N198 H210 0.984 . S
N198 H211 0.985 . S
N199 C201 1.356 . S
N199 H204 0.984 . S
N199 H205 0.985 . S
C200 C194 1.379 . S
C200 C197 1.363 . S
C200 N198 1.356 . S
C201 C195 1.363 . S
C201 C196 1.379 . S
C201 N199 1.356 . S
N202 C194 1.356 . S
N202 H208 0.984 . S
N202 H209 0.984 . S
N203 C196 1.356 . S
N203 H206 0.984 . S
N203 H207 0.985 . S
H204 N199 0.984 . S
H205 N199 0.985 . S
H206 N203 0.984 . S
H207 N203 0.985 . S
H208 N202 0.984 . S
H209 N202 0.984 . S
H210 N198 0.984 . S
H211 N198 0.985 . S
C212 C213 1.363 . S
C212 C218 1.379 . S
C212 N220 1.356 . S
C213 C212 1.363 . S
C213 C219 1.363 . S
C214 C215 1.363 . S
C214 C219 1.379 . S
C214 N221 1.356 . S
C215 C214 1.363 . S
C215 C218 1.363 . S
N216 C218 1.356 . S
N216 H228 0.984 . S
N216 H229 0.985 . S
N217 C219 1.356 1_554 S
N217 H222 0.984 . S
N217 H223 0.985 . S
C218 C212 1.379 . S
C218 C215 1.363 . S
C218 N216 1.356 . S
C219 C213 1.363 . S
C219 C214 1.379 . S
C219 N217 1.356 1_556 S
N220 C212 1.356 . S
N220 H226 0.984 . S
N220 H227 0.984 . S
N221 C214 1.356 . S
N221 H224 0.984 . S
N221 H225 0.985 1_556 S
H222 N217 0.984 . S
H223 N217 0.985 . S
H224 N221 0.984 . S
H225 N221 0.985 1_554 S
H226 N220 0.984 . S
H227 N220 0.984 . S
H228 N216 0.984 . S
H229 N216 0.985 . S
C230 C231 1.363 . S
C230 C236 1.379 . S
C230 N238 1.356 . S
C231 C230 1.363 . S
C231 C237 1.363 . S
C232 C233 1.363 . S
C232 C237 1.379 . S
C232 N239 1.356 . S
C233 C232 1.363 . S
C233 C236 1.363 . S
N234 C236 1.356 . S
N234 H246 0.984 . S
N234 H247 0.985 . S
N235 C237 1.356 . S
N235 H240 0.984 . S
N235 H241 0.985 . S
C236 C230 1.379 . S
C236 C233 1.363 . S
C236 N234 1.356 . S
C237 C231 1.363 . S
C237 C232 1.379 . S
C237 N235 1.356 . S
N238 C230 1.356 . S
N238 H244 0.984 . S
N238 H245 0.984 . S
N239 C232 1.356 . S
N239 H242 0.984 . S
N239 H243 0.985 . S
H240 N235 0.984 . S
H241 N235 0.985 . S
H242 N239 0.984 . S
H243 N239 0.985 . S
H244 N238 0.984 . S
H245 N238 0.984 . S
H246 N234 0.984 . S
H247 N234 0.985 . S
C248 C249 1.363 . S
C248 C254 1.379 . S
C248 N256 1.356 . S
C249 C248 1.363 . S
C249 C255 1.363 . S
C250 C251 1.363 . S
C250 C255 1.379 . S
C250 N257 1.356 . S
C251 C250 1.363 . S
C251 C254 1.363 . S
N252 C254 1.356 . S
N252 H264 0.984 . S
N252 H265 0.985 . S
N253 C255 1.356 . S
N253 H258 0.988 . S
N253 H259 0.985 1_556 S
C254 C248 1.379 . S
C254 C251 1.363 . S
C254 N252 1.356 . S
C255 C249 1.363 . S
C255 C250 1.379 . S
C255 N253 1.356 . S
N256 C248 1.356 . S
N256 H262 0.984 . S
N256 H263 0.984 . S
N257 C250 1.356 . S
N257 H260 0.984 . S
N257 H261 0.985 . S
H258 N253 0.988 . S
H259 N253 0.985 1_554 S
H260 N257 0.984 . S
H261 N257 0.985 . S
H262 N256 0.984 . S
H263 N256 0.984 . S
H264 N252 0.984 . S
H265 N252 0.985 . S
C266 C267 1.363 . S
C266 C272 1.379 . S
C266 N274 1.356 . S
C267 C266 1.363 . S
C267 C273 1.363 . S
C268 C269 1.363 . S
C268 C273 1.379 . S
C268 N275 1.356 . S
C269 C268 1.363 . S
C269 C272 1.363 . S
N270 C272 1.356 . S
N270 H282 0.984 . S
N270 H283 0.985 . S
N271 C273 1.356 . S
N271 H276 0.984 . S
N271 H277 0.985 . S
C272 C266 1.379 . S
C272 C269 1.363 . S
C272 N270 1.356 . S
C273 C267 1.363 . S
C273 C268 1.379 . S
C273 N271 1.356 . S
N274 C266 1.356 . S
N274 H280 0.984 . S
N274 H281 0.984 . S
N275 C268 1.356 . S
N275 H278 0.984 . S
N275 H279 0.985 . S
H276 N271 0.984 . S
H277 N271 0.985 . S
H278 N275 0.984 . S
H279 N275 0.985 . S
H280 N274 0.984 . S
H281 N274 0.984 . S
H282 N270 0.984 . S
H283 N270 0.985 . S
C284 C285 1.363 . S
C284 C290 1.379 . S
C284 N292 1.356 . S
C285 C284 1.363 . S
C285 C291 1.363 . S
C286 C287 1.363 . S
C286 C291 1.379 . S
C286 N293 1.356 . S
C287 C286 1.363 . S
C287 C290 1.363 . S
N288 C290 1.356 . S
N288 H300 0.984 . S
N288 H301 0.985 . S
N289 C291 1.356 . S
N289 H294 0.984 1_556 S
N289 H295 0.985 1_556 S
C290 C284 1.379 . S
C290 C287 1.363 . S
C290 N288 1.356 . S
C291 C285 1.363 . S
C291 C286 1.379 . S
C291 N289 1.356 . S
N292 C284 1.356 . S
N292 H298 0.984 . S
N292 H299 0.984 . S
N293 C286 1.356 . S
N293 H296 0.984 . S
N293 H297 0.985 . S
H294 N289 0.984 1_554 S
H295 N289 0.985 1_554 S
H296 N293 0.984 . S
H297 N293 0.985 . S
H298 N292 0.984 . S
H299 N292 0.984 . S
H300 N288 0.984 . S
H301 N288 0.985 . S
C302 C303 1.363 . S
C302 C308 1.379 . S
C302 N310 1.356 . S
C303 C302 1.363 . S
C303 C309 1.363 . S
C304 C305 1.363 . S
C304 C309 1.379 . S
C304 N311 1.356 . S
C305 C304 1.363 . S
C305 C308 1.363 . S
N306 C308 1.356 . S
N306 H318 0.984 . S
N306 H319 0.985 . S
N307 C309 1.356 . S
N307 H312 0.984 . S
N307 H313 0.985 . S
C308 C302 1.379 . S
C308 C305 1.363 . S
C308 N306 1.356 . S
C309 C303 1.363 . S
C309 C304 1.379 . S
C309 N307 1.356 . S
N310 C302 1.356 . S
N310 H316 0.984 . S
N310 H317 0.984 . S
N311 C304 1.356 . S
N311 H314 0.984 . S
N311 H315 0.985 . S
H312 N307 0.984 . S
H313 N307 0.985 . S
H314 N311 0.984 . S
H315 N311 0.985 . S
H316 N310 0.984 . S
H317 N310 0.984 . S
H318 N306 0.984 . S
H319 N306 0.985 . S
C320 C321 1.363 . S
C320 C326 1.379 . S
C320 N328 1.356 1_556 S
C321 C320 1.363 . S
C321 C327 1.363 . S
C322 C323 1.363 . S
C322 C327 1.379 . S
C322 N329 1.356 . S
C323 C322 1.363 . S
C323 C326 1.363 . S
N324 C326 1.356 . S
N324 H336 0.984 . S
N324 H337 0.985 . S
N325 C327 1.356 . S
N325 H330 0.984 . S
N325 H331 0.985 . S
C326 C320 1.379 . S
C326 C323 1.363 . S
C326 N324 1.356 . S
C327 C321 1.363 . S
C327 C322 1.379 . S
C327 N325 1.356 . S
N328 C320 1.356 1_554 S
N328 H334 0.984 . S
N328 H335 0.984 . S
N329 C322 1.356 . S
N329 H332 0.984 . S
N329 H333 0.985 . S
H330 N325 0.984 . S
H331 N325 0.985 . S
H332 N329 0.984 . S
H333 N329 0.985 . S
H334 N328 0.984 . S
H335 N328 0.984 . S
H336 N324 0.984 . S
H337 N324 0.985 . S
C338 C339 1.363 . S
C338 C344 1.379 . S
C338 N346 1.356 . S
C339 C338 1.363 . S
C339 C345 1.363 . S
C340 C341 1.363 . S
C340 C345 1.379 . S
C340 N347 1.356 . S
C341 C340 1.363 . S
C341 C344 1.363 . S
N342 C344 1.356 . S
N342 H354 0.984 . S
N342 H355 0.985 . S
N343 C345 1.356 . S
N343 H348 0.984 . S
N343 H349 0.985 . S
C344 C338 1.379 . S
C344 C341 1.363 . S
C344 N342 1.356 . S
C345 C339 1.363 . S
C345 C340 1.379 . S
C345 N343 1.356 . S
N346 C338 1.356 . S
N346 H352 0.984 . S
N346 H353 0.984 . S
N347 C340 1.356 . S
N347 H350 0.984 . S
N347 H351 0.985 . S
H348 N343 0.984 . S
H349 N343 0.985 . S
H350 N347 0.984 . S
H351 N347 0.985 . S
H352 N346 0.984 . S
H353 N346 0.984 . S
H354 N342 0.984 . S
H355 N342 0.985 . S
C356 C357 1.363 . S
C356 C362 1.379 . S
C356 N364 1.356 1_556 S
C357 C356 1.363 . S
C357 C363 1.363 . S
C358 C359 1.363 . S
C358 C363 1.379 . S
C358 N365 1.356 . S
C359 C358 1.363 . S
C359 C362 1.363 . S
N360 C362 1.356 . S
N360 H372 0.984 1_556 S
N360 H373 0.985 . S
N361 C363 1.356 . S
N361 H366 0.984 . S
N361 H367 0.985 . S
C362 C356 1.379 . S
C362 C359 1.363 . S
C362 N360 1.356 . S
C363 C357 1.363 . S
C363 C358 1.379 . S
C363 N361 1.356 . S
N364 C356 1.356 1_554 S
N364 H370 0.984 . S
N364 H371 0.984 . S
N365 C358 1.356 . S
N365 H368 0.984 . S
N365 H369 0.985 . S
H366 N361 0.984 . S
H367 N361 0.985 . S
H368 N365 0.984 . S
H369 N365 0.985 . S
H370 N364 0.984 . S
H371 N364 0.984 . S
H372 N360 0.984 1_554 S
H373 N360 0.985 . S
C374 C375 1.363 . S
C374 C380 1.379 . S
C374 N382 1.356 . S
C375 C374 1.363 . S
C375 C381 1.363 . S
C376 C377 1.363 . S
C376 C381 1.379 . S
C376 N383 1.356 . S
C377 C376 1.363 . S
C377 C380 1.363 . S
N378 C380 1.356 . S
N378 H390 0.984 . S
N378 H391 0.985 . S
N379 C381 1.356 . S
N379 H384 0.984 . S
N379 H385 0.985 . S
C380 C374 1.379 . S
C380 C377 1.363 . S
C380 N378 1.356 . S
C381 C375 1.363 . S
C381 C376 1.379 . S
C381 N379 1.356 . S
N382 C374 1.356 . S
N382 H388 0.984 . S
N382 H389 0.984 . S
N383 C376 1.356 . S
N383 H386 0.984 . S
N383 H387 0.985 . S
H384 N379 0.984 . S
H385 N379 0.985 . S
H386 N383 0.984 . S
H387 N383 0.985 . S
H388 N382 0.984 . S
H389 N382 0.984 . S
H390 N378 0.984 . S
H391 N378 0.985 . S
C392 C393 1.363 1_545 S
C392 C398 1.379 . S
C392 N400 1.356 1_556 S
C393 C392 1.363 1_565 S
C393 C399 1.363 . S
C394 C395 1.363 1_565 S
C394 C399 1.379 . S
C394 N401 1.356 . S
C395 C394 1.363 1_545 S
C395 C398 1.363 . S
N396 C398 1.356 . S
N396 H408 0.984 . S
N396 H409 0.985 . S
N397 C399 1.356 . S
N397 H402 0.984 . S
N397 H403 0.985 . S
C398 C392 1.379 . S
C398 C395 1.363 . S
C398 N396 1.356 . S
C399 C393 1.363 . S
C399 C394 1.379 . S
C399 N397 1.356 . S
N400 C392 1.356 1_554 S
N400 H406 0.984 . S
N400 H407 0.984 1_545 S
N401 C394 1.356 . S
N401 H404 0.984 1_565 S
N401 H405 0.985 . S
H402 N397 0.984 . S
H403 N397 0.985 . S
H404 N401 0.984 1_545 S
H405 N401 0.985 . S
H406 N400 0.984 . S
H407 N400 0.984 1_565 S
H408 N396 0.984 . S
H409 N396 0.985 . S
C410 C411 1.363 . S
C410 C416 1.379 . S
C410 N418 1.356 . S
C411 C410 1.363 . S
C411 C417 1.363 1_545 S
C412 C413 1.363 . S
C412 C417 1.379 . S
C412 N419 1.356 . S
C413 C412 1.363 . S
C413 C416 1.363 1_565 S
N414 C416 1.356 . S
N414 H426 0.984 . S
N414 H427 0.985 1_545 S
N415 C417 1.356 . S
N415 H420 0.984 1_565 S
N415 H421 0.985 . S
C416 C410 1.379 . S
C416 C413 1.363 1_545 S
C416 N414 1.356 . S
C417 C411 1.363 1_565 S
C417 C412 1.379 . S
C417 N415 1.356 . S
N418 C410 1.356 . S
N418 H424 0.984 . S
N418 H425 0.984 . S
N419 C412 1.356 . S
N419 H422 0.984 . S
N419 H423 0.985 . S
H420 N415 0.984 1_545 S
H421 N415 0.985 . S
H422 N419 0.984 . S
H423 N419 0.985 . S
H424 N418 0.984 . S
H425 N418 0.984 . S
H426 N414 0.984 . S
H427 N414 0.985 1_565 S
C428 C429 1.363 1_545 S
C428 C434 1.379 . S
C428 N436 1.356 . S
C429 C428 1.363 1_565 S
C429 C435 1.363 . S
C430 C431 1.363 1_565 S
C430 C435 1.379 . S
C430 N437 1.356 . S
C431 C430 1.363 1_545 S
C431 C434 1.363 . S
N432 C434 1.356 . S
N432 H444 0.984 . S
N432 H445 0.985 . S
N433 C435 1.356 . S
N433 H438 0.984 . S
N433 H439 0.985 . S
C434 C428 1.379 . S
C434 C431 1.363 . S
C434 N432 1.356 . S
C435 C429 1.363 . S
C435 C430 1.379 . S
C435 N433 1.356 . S
N436 C428 1.356 . S
N436 H442 0.984 1_556 S
N436 H443 0.984 1_546 S
N437 C430 1.356 . S
N437 H440 0.984 . S
N437 H441 0.985 . S
H438 N433 0.984 . S
H439 N433 0.985 . S
H440 N437 0.984 . S
H441 N437 0.985 . S
H442 N436 0.984 1_554 S
H443 N436 0.984 1_564 S
H444 N432 0.984 . S
H445 N432 0.985 . S
C446 C447 1.363 1_565 S
C446 C452 1.379 . S
C446 N454 1.356 1_565 S
C447 C446 1.363 1_545 S
C447 C453 1.363 . S
C448 C449 1.364 1_545 S
C448 C453 1.377 . S
C448 N455 1.357 1_545 S
C449 C448 1.364 1_565 S
C449 C452 1.363 . S
N450 C452 1.356 . S
N450 H462 0.984 . S
N450 H463 0.985 . S
N451 C453 1.356 . S
N451 H456 0.984 . S
N451 H457 0.985 . S
C452 C446 1.379 . S
C452 C449 1.363 . S
C452 N450 1.356 . S
C453 C447 1.363 . S
C453 C448 1.377 . S
C453 N451 1.356 . S
N454 C446 1.356 1_545 S
N454 H460 0.984 1_545 S
N454 H461 0.984 . S
N455 C448 1.357 1_565 S
N455 H458 0.984 . S
N455 H459 0.985 1_565 S
H456 N451 0.984 . S
H457 N451 0.985 . S
H458 N455 0.984 . S
H459 N455 0.985 1_545 S
H460 N454 0.984 1_565 S
H461 N454 0.984 . S
H462 N450 0.984 . S
H463 N450 0.985 . S
C464 C465 1.363 . S
C464 C470 1.379 . S
C464 N472 1.356 . S
C465 C464 1.363 . S
C465 C471 1.363 . S
C466 C467 1.363 . S
C466 C471 1.379 . S
C466 N473 1.356 . S
C467 C466 1.363 . S
C467 C470 1.363 . S
N468 C470 1.356 . S
N468 H480 0.984 . S
N468 H481 0.985 . S
N469 C471 1.356 . S
N469 H474 0.984 . S
N469 H475 0.985 . S
C470 C464 1.379 . S
C470 C467 1.363 . S
C470 N468 1.356 . S
C471 C465 1.363 . S
C471 C466 1.379 . S
C471 N469 1.356 . S
N472 C464 1.356 . S
N472 H478 0.984 . S
N472 H479 0.984 . S
N473 C466 1.356 . S
N473 H476 0.984 . S
N473 H477 0.985 . S
H474 N469 0.984 . S
H475 N469 0.985 . S
H476 N473 0.984 . S
H477 N473 0.985 . S
H478 N472 0.984 . S
H479 N472 0.984 . S
H480 N468 0.984 . S
H481 N468 0.985 . S
C482 C483 1.363 . S
C482 C488 1.379 . S
C482 N490 1.356 . S
C483 C482 1.363 . S
C483 C489 1.363 . S
C484 C485 1.363 . S
C484 C489 1.379 . S
C484 N491 1.356 . S
C485 C484 1.363 . S
C485 C488 1.363 . S
N486 C488 1.356 . S
N486 H498 0.984 . S
N486 H499 0.985 . S
N487 C489 1.356 . S
N487 H492 0.984 . S
N487 H493 0.985 . S
C488 C482 1.379 . S
C488 C485 1.363 . S
C488 N486 1.356 . S
C489 C483 1.363 . S
C489 C484 1.379 . S
C489 N487 1.356 . S
N490 C482 1.356 . S
N490 H496 0.984 . S
N490 H497 0.984 . S
N491 C484 1.356 . S
N491 H494 0.984 . S
N491 H495 0.985 . S
H492 N487 0.984 . S
H493 N487 0.985 . S
H494 N491 0.984 . S
H495 N491 0.985 . S
H496 N490 0.984 . S
H497 N490 0.984 . S
H498 N486 0.984 . S
H499 N486 0.985 . S
C500 C501 1.363 . S
C500 C506 1.379 . S
C500 N508 1.356 . S
C501 C500 1.363 . S
C501 C507 1.363 . S
C502 C503 1.363 . S
C502 C507 1.379 . S
C502 N509 1.356 . S
C503 C502 1.363 . S
C503 C506 1.363 . S
N504 C506 1.356 . S
N504 H516 0.984 . S
N504 H517 0.985 . S
N505 C507 1.356 . S
N505 H510 0.984 . S
N505 H511 0.985 . S
C506 C500 1.379 . S
C506 C503 1.363 . S
C506 N504 1.356 . S
C507 C501 1.363 . S
C507 C502 1.379 . S
C507 N505 1.356 . S
N508 C500 1.356 . S
N508 H514 0.984 . S
N508 H515 0.984 . S
N509 C502 1.356 . S
N509 H512 0.984 . S
N509 H513 0.985 . S
H510 N505 0.984 . S
H511 N505 0.985 . S
H512 N509 0.984 . S
H513 N509 0.985 . S
H514 N508 0.984 . S
H515 N508 0.984 . S
H516 N504 0.984 . S
H517 N504 0.985 . S
C518 C519 1.363 . S
C518 C524 1.379 . S
C518 N526 1.356 . S
C519 C518 1.363 . S
C519 C525 1.363 . S
C520 C521 1.363 . S
C520 C525 1.379 . S
C520 N527 1.356 . S
C521 C520 1.363 . S
C521 C524 1.363 . S
N522 C524 1.356 . S
N522 H534 0.984 . S
N522 H535 0.985 . S
N523 C525 1.356 . S
N523 H528 0.984 . S
N523 H529 0.985 . S
C524 C518 1.379 . S
C524 C521 1.363 . S
C524 N522 1.356 . S
C525 C519 1.363 . S
C525 C520 1.379 . S
C525 N523 1.356 . S
N526 C518 1.356 . S
N526 H532 0.984 . S
N526 H533 0.984 . S
N527 C520 1.356 . S
N527 H530 0.984 . S
N527 H531 0.985 . S
H528 N523 0.984 . S
H529 N523 0.985 . S
H530 N527 0.984 . S
H531 N527 0.985 . S
H532 N526 0.984 . S
H533 N526 0.984 . S
H534 N522 0.984 . S
H535 N522 0.985 . S
C536 C537 1.363 . S
C536 C542 1.379 . S
C536 N544 1.356 . S
C537 C536 1.363 . S
C537 C543 1.363 . S
C538 C539 1.363 . S
C538 C543 1.379 . S
C538 N545 1.356 . S
C539 C538 1.363 . S
C539 C542 1.363 . S
N540 C542 1.356 . S
N540 H552 0.984 . S
N540 H553 0.985 . S
N541 C543 1.356 . S
N541 H546 0.984 . S
N541 H547 0.985 . S
C542 C536 1.379 . S
C542 C539 1.363 . S
C542 N540 1.356 . S
C543 C537 1.363 . S
C543 C538 1.379 . S
C543 N541 1.356 . S
N544 C536 1.356 . S
N544 H550 0.984 . S
N544 H551 0.984 . S
N545 C538 1.356 . S
N545 H548 0.984 . S
N545 H549 0.985 . S
H546 N541 0.984 . S
H547 N541 0.985 . S
H548 N545 0.984 . S
H549 N545 0.985 . S
H550 N544 0.984 . S
H551 N544 0.984 . S
H552 N540 0.984 . S
H553 N540 0.985 . S
C554 C555 1.363 . S
C554 C560 1.379 . S
C554 N562 1.356 . S
C555 C554 1.363 . S
C555 C561 1.363 . S
C556 C557 1.363 . S
C556 C561 1.379 . S
C556 N563 1.356 . S
C557 C556 1.363 . S
C557 C560 1.363 . S
N558 C560 1.356 . S
N558 H570 0.984 . S
N558 H571 0.985 . S
N559 C561 1.356 . S
N559 H564 0.984 . S
N559 H565 0.985 . S
C560 C554 1.379 . S
C560 C557 1.363 . S
C560 N558 1.356 . S
C561 C555 1.363 . S
C561 C556 1.379 . S
C561 N559 1.356 . S
N562 C554 1.356 . S
N562 H568 0.984 . S
N562 H569 0.984 . S
N563 C556 1.356 . S
N563 H566 0.984 . S
N563 H567 0.985 . S
H564 N559 0.984 . S
H565 N559 0.985 . S
H566 N563 0.984 . S
H567 N563 0.985 . S
H568 N562 0.984 . S
H569 N562 0.984 . S
H570 N558 0.984 . S
H571 N558 0.985 . S
C572 C573 1.363 . S
C572 C578 1.379 . S
C572 N580 1.356 . S
C573 C572 1.363 . S
C573 C579 1.363 . S
C574 C575 1.363 . S
C574 C579 1.379 . S
C574 N581 1.356 . S
C575 C574 1.363 . S
C575 C578 1.363 . S
N576 C578 1.356 . S
N576 H588 0.984 . S
N576 H589 0.985 . S
N577 C579 1.356 . S
N577 H582 0.984 . S
N577 H583 0.985 . S
C578 C572 1.379 . S
C578 C575 1.363 . S
C578 N576 1.356 . S
C579 C573 1.363 . S
C579 C574 1.379 . S
C579 N577 1.356 . S
N580 C572 1.356 . S
N580 H586 0.984 . S
N580 H587 0.984 . S
N581 C574 1.356 . S
N581 H584 0.984 . S
N581 H585 0.985 . S
H582 N577 0.984 . S
H583 N577 0.985 . S
H584 N581 0.984 . S
H585 N581 0.985 . S
H586 N580 0.984 . S
H587 N580 0.984 . S
H588 N576 0.984 . S
H589 N576 0.985 . S
C590 C591 1.363 . S
C590 C596 1.379 . S
C590 N598 1.356 . S
C591 C590 1.363 . S
C591 C597 1.363 . S
C592 C593 1.363 . S
C592 C597 1.379 . S
C592 N599 1.356 . S
C593 C592 1.363 . S
C593 C596 1.363 . S
N594 C596 1.356 . S
N594 H606 0.984 . S
N594 H607 0.985 . S
N595 C597 1.356 . S
N595 H600 0.984 . S
N595 H601 0.985 . S
C596 C590 1.379 . S
C596 C593 1.363 . S
C596 N594 1.356 . S
C597 C591 1.363 . S
C597 C592 1.379 . S
C597 N595 1.356 . S
N598 C590 1.356 . S
N598 H604 0.984 . S
N598 H605 0.984 . S
N599 C592 1.356 . S
N599 H602 0.984 . S
N599 H603 0.985 . S
H600 N595 0.984 . S
H601 N595 0.985 . S
H602 N599 0.984 . S
H603 N599 0.985 . S
H604 N598 0.984 . S
H605 N598 0.984 . S
H606 N594 0.984 . S
H607 N594 0.985 . S
C177 N4 1.531 . S
C179 C114 1.508 . S
C197 C92 1.511 . S
C195 N15 1.532 . S
C215 C118 1.571 . S
C213 N26 1.589 . S
C233 C96 1.463 . S
C231 N37 1.489 . S
C251 C158 1.508 . S
C249 N48 1.531 . S
C269 C136 1.512 . S
C267 N59 1.532 . S
C285 N70 1.588 . S
C287 C162 1.571 . S
C305 C140 1.463 . S
C303 N81 1.489 . S
C321 C9 1.502 . S
C323 C163 1.533 . S
C341 C141 1.506 . S
C339 C20 1.478 . S
C357 C31 1.555 . S
C359 C160 1.587 . S
C375 C39 1.429 . S
C377 C138 1.444 . S
C395 C119 1.533 . S
C393 C53 1.502 . S
C411 C64 1.478 . S
C413 C97 1.506 . S
C431 C116 1.587 . S
C429 C75 1.555 . S
C449 C94 1.444 . S
C447 C83 1.429 . S
C467 C137 1.489 . S
C465 C6 1.484 . S
C485 C159 1.491 . S
C483 C17 1.478 . S
C501 C28 1.499 . S
C503 C139 1.486 . S
C521 C161 1.491 . S
C519 C42 1.467 . S
C539 C93 1.489 . S
C537 C50 1.484 . S
C555 C61 1.478 . S
C557 C115 1.491 . S
C573 C72 1.499 . S
C575 C95 1.486 . S
C591 C86 1.467 . S
C593 C117 1.490 . S
