# Generated by pormake.
# Topology anh, (6,3)-cn, num edge types: 1
# Building blocks:
#     Node 0, Type 0, BuildingBlock: HISSIN_clean_sbu_0, # of connection points: 6
#     Node 1, Type 0, BuildingBlock: HISSIN_clean_sbu_0, # of connection points: 6
#     Node 2, Type 0, BuildingBlock: HISSIN_clean_sbu_0, # of connection points: 6
#     Node 3, Type 1, BuildingBlock: CUQRIR_clean_linker_1, # of connection points: 3
#     Node 4, Type 1, BuildingBlock: CUQRIR_clean_linker_1, # of connection points: 3
#     Node 5, Type 1, BuildingBlock: CUQRIR_clean_linker_1, # of connection points: 3
#     Node 6, Type 1, BuildingBlock: CUQRIR_clean_linker_1, # of connection points: 3
#     Node 7, Type 1, BuildingBlock: CUQRIR_clean_linker_1, # of connection points: 3
#     Node 8, Type 1, BuildingBlock: CUQRIR_clean_linker_1, # of connection points: 3
#     Edge 9, Type (0, 1), BuildingBlock: UVAHIK_clean_linker_0, # of connection points: 2
#     Edge 10, Type (0, 1), BuildingBlock: UVAHIK_clean_linker_0, # of connection points: 2
#     Edge 11, Type (0, 1), BuildingBlock: UVAHIK_clean_linker_0, # of connection points: 2
#     Edge 12, Type (0, 1), BuildingBlock: UVAHIK_clean_linker_0, # of connection points: 2
#     Edge 13, Type (0, 1), BuildingBlock: UVAHIK_clean_linker_0, # of connection points: 2
#     Edge 14, Type (0, 1), BuildingBlock: UVAHIK_clean_linker_0, # of connection points: 2
#     Edge 15, Type (0, 1), BuildingBlock: UVAHIK_clean_linker_0, # of connection points: 2
#     Edge 16, Type (0, 1), BuildingBlock: UVAHIK_clean_linker_0, # of connection points: 2
#     Edge 17, Type (0, 1), BuildingBlock: UVAHIK_clean_linker_0, # of connection points: 2
#     Edge 18, Type (0, 1), BuildingBlock: UVAHIK_clean_linker_0, # of connection points: 2
#     Edge 19, Type (0, 1), BuildingBlock: UVAHIK_clean_linker_0, # of connection points: 2
#     Edge 20, Type (0, 1), BuildingBlock: UVAHIK_clean_linker_0, # of connection points: 2
#     Edge 21, Type (0, 1), BuildingBlock: UVAHIK_clean_linker_0, # of connection points: 2
#     Edge 22, Type (0, 1), BuildingBlock: UVAHIK_clean_linker_0, # of connection points: 2
#     Edge 23, Type (0, 1), BuildingBlock: UVAHIK_clean_linker_0, # of connection points: 2
#     Edge 24, Type (0, 1), BuildingBlock: UVAHIK_clean_linker_0, # of connection points: 2
#     Edge 25, Type (0, 1), BuildingBlock: UVAHIK_clean_linker_0, # of connection points: 2
#     Edge 26, Type (0, 1), BuildingBlock: UVAHIK_clean_linker_0, # of connection points: 2
# Relax obj value: 0.225
# Max RMSD: 0.204
# Mean RMSD: 0.155
data_MOF--net-anh--node1-HISSIN_clean_sbu_0--node2-CUQRIR_clean_linker_1--edge1-UVAHIK_clean_linker_0
_symmetry_space_group_name_H-M    P1
_symmetry_Int_Tables_number       1
_symmetry_cell_setting            triclinic
loop_
_symmetry_equiv_pos_as_xyz
'x, y, z'
_cell_length_a     36.655796
_cell_length_b     36.523239
_cell_length_c     61.157517
_cell_angle_alpha  87.01952
_cell_angle_beta   92.735899
_cell_angle_gamma 120.19994
loop_
_atom_site_label
_atom_site_type_symbol
_atom_site_fract_x
_atom_site_fract_y
_atom_site_fract_z
_atom_type_partial_charge
Eu0 Eu 1.04659 0.49199 0.16681 0.0
Eu1 Eu 1.10088 0.59546 0.16124 0.0
C2 C 1.07999 0.54964 0.20852 0.0
C3 C 0.95141 0.38788 0.16534 0.0
C4 C 0.92423 0.35032 0.17682 0.0
C5 C 0.89115 0.39307 0.15103 0.0
C6 C 0.88071 0.33477 0.17582 0.0
C7 C 0.93449 0.4083 0.15181 0.0
C8 C 0.86421 0.35709 0.16361 0.0
C9 C 0.99671 0.41065 0.17073 0.0
O10 O 0.15051 0.57601 0.16623 0.0
O11 O 0.11225 0.50464 0.15969 0.0
C12 C 0.1486 0.53993 0.1624 0.0
O13 O 1.03611 0.50779 0.13209 0.0
O14 O 0.14935 0.65713 0.17278 0.0
O15 O 0.11639 0.65299 0.14176 0.0
O16 O 1.09887 0.56915 0.12837 0.0
C17 C 1.06572 0.5367 0.11975 0.0
O18 O 0.99725 0.51202 0.16866 0.0
O19 O 1.03383 0.58245 0.15758 0.0
O20 O 1.08012 0.58047 0.19641 0.0
O21 O 1.02168 0.42868 0.15419 0.0
O22 O 1.00689 0.43602 0.18702 0.0
O23 O 1.07828 0.51712 0.1994 0.0
C24 C 0.18974 0.69899 0.14266 0.0
C25 C 0.19376 0.72471 0.12402 0.0
C26 C 0.25987 0.7104 0.13691 0.0
C27 C 0.23064 0.74323 0.11192 0.0
C28 C 0.22306 0.69182 0.1489 0.0
C29 C 0.26422 0.73641 0.11829 0.0
C30 C 0.14935 0.67633 0.15413 0.0
C31 C 0.99843 0.54777 0.16264 0.0
H32 H 0.9368 0.33458 0.18757 0.0
H33 H 0.87881 0.41037 0.14141 0.0
H34 H 0.86027 0.30701 0.18576 0.0
H35 H 0.95503 0.43761 0.14296 0.0
H36 H 0.16816 0.73007 0.11869 0.0
H37 H 0.28537 0.70522 0.14265 0.0
H38 H 0.23289 0.76294 0.09761 0.0
H39 H 0.22079 0.6717 0.16303 0.0
Eu40 Eu 0.66523 1.06366 0.50989 0.0
Eu41 Eu 0.61825 0.11949 0.50507 0.0
C42 C 0.64393 0.09767 0.55191 0.0
C43 C 0.68463 0.97089 0.5168 0.0
C44 C 0.68802 0.95149 0.53658 0.0
C45 C 0.65108 0.90243 0.49969 0.0
C46 C 0.67302 0.90807 0.53798 0.0
C47 C 0.66567 0.94598 0.49836 0.0
C48 C 0.65472 0.88316 0.51953 0.0
C49 C 0.69986 1.01669 0.51623 0.0
O50 O 0.68824 0.1674 0.50896 0.0
O51 O 0.71681 0.12844 0.49788 0.0
C52 C 0.72051 0.16522 0.50196 0.0
O53 O 0.63382 1.0514 0.47655 0.0
O54 O 0.60885 0.17039 0.51538 0.0
O55 O 0.57646 0.13628 0.48615 0.0
O56 O 0.64157 0.117 0.47208 0.0
C57 C 0.63529 0.08192 0.46376 0.0
O58 O 0.59638 1.01412 0.51432 0.0
O59 O 0.56315 1.05193 0.50392 0.0
O60 O 0.61344 0.09957 0.54078 0.0
O61 O 0.69972 1.0351 0.49735 0.0
O62 O 0.68673 1.02953 0.53199 0.0
O63 O 0.67333 0.09513 0.54188 0.0
C64 C 0.60861 0.21095 0.48455 0.0
C65 C 0.6295 0.21493 0.46509 0.0
C66 C 0.6422 0.28752 0.48516 0.0
C67 C 0.65763 0.25493 0.4562 0.0
C68 C 0.61385 0.24747 0.49397 0.0
C69 C 0.66579 0.29169 0.46671 0.0
C70 C 0.58871 0.17041 0.49718 0.0
C71 C 0.56195 1.01587 0.50919 0.0
H72 H 0.70251 0.97005 0.55101 0.0
H73 H 0.63726 0.88387 0.48522 0.0
H74 H 0.6771 0.89422 0.55334 0.0
H75 H 0.66228 0.96005 0.48293 0.0
H76 H 0.6263 0.18729 0.45749 0.0
H77 H 0.64798 0.31508 0.49387 0.0
H78 H 0.67476 0.25702 0.4418 0.0
H79 H 0.59843 0.24514 0.50909 0.0
Eu80 Eu 0.67636 0.66551 0.83382 0.0
Eu81 Eu 0.77792 0.71903 0.84417 0.0
C82 C 0.71402 0.68342 0.8839 0.0
C83 C 0.5576 0.61665 0.83952 0.0
C84 C 0.55242 0.65063 0.84505 0.0
C85 C 0.49214 0.56768 0.85754 0.0
C86 C 0.51705 0.64304 0.85648 0.0
C87 C 0.52724 0.5752 0.84591 0.0
C88 C 0.48656 0.60149 0.86279 0.0
C89 C 0.59463 0.62357 0.82758 0.0
O90 O 0.76058 0.64958 0.84811 0.0
O91 O 0.6984 0.61922 0.82806 0.0
C92 C 0.72991 0.61689 0.83786 0.0
O93 O 0.70613 0.68664 0.80045 0.0
O94 O 0.83829 0.72724 0.85688 0.0
O95 O 0.83595 0.78005 0.84075 0.0
O96 O 0.77175 0.69704 0.81013 0.0
C97 C 0.74284 0.6917 0.7952 0.0
O98 O 0.69073 0.7307 0.84323 0.0
O99 O 0.75715 0.76483 0.83025 0.0
O100 O 0.75042 0.71433 0.87695 0.0
O101 O 0.61908 0.66139 0.81907 0.0
O102 O 0.61596 0.60698 0.83686 0.0
O103 O 0.68405 0.65782 0.87034 0.0
C104 C 0.89105 0.76851 0.83168 0.0
C105 C 0.88351 0.77098 0.80901 0.0
C106 C 0.94735 0.7549 0.82405 0.0
C107 C 0.90656 0.76369 0.79404 0.0
C108 C 0.92437 0.76234 0.83902 0.0
C109 C 0.93726 0.75345 0.80146 0.0
C110 C 0.85991 0.76456 0.84736 0.0
C111 C 0.72343 0.76559 0.83587 0.0
H112 H 0.57556 0.683 0.84053 0.0
H113 H 0.46881 0.5353 0.86193 0.0
H114 H 0.51352 0.66966 0.86043 0.0
H115 H 0.53063 0.54855 0.84185 0.0
H116 H 0.85787 0.7756 0.80284 0.0
H117 H 0.97048 0.74667 0.83039 0.0
H118 H 0.8984 0.76327 0.77676 0.0
H119 H 0.93054 0.76007 0.8564 0.0
C120 C 0.55357 1.05416 0.19803 0.0
N121 N 0.557 1.06609 0.21895 0.0
N122 N 0.5495 1.01526 0.19747 0.0
C123 C 0.55949 0.08264 0.17815 0.0
C124 C 0.55126 1.00424 0.21885 0.0
N125 N 0.55646 1.03548 0.23187 0.0
C126 C 0.54509 0.96203 0.22708 0.0
H127 H 0.56973 0.07271 0.16392 0.0
H128 H 0.58345 0.11599 0.18156 0.0
H129 H 0.52916 0.08139 0.17381 0.0
H130 H 0.57602 0.96335 0.22764 0.0
H131 H 0.52328 0.93653 0.216 0.0
H132 H 0.53232 0.95425 0.24384 0.0
C133 C 0.84942 0.63944 0.54489 0.0
N134 N 0.83373 0.65039 0.56131 0.0
N135 N 0.87819 0.62888 0.55282 0.0
C136 C 0.83197 0.63271 0.52165 0.0
C137 C 0.87847 0.63275 0.57477 0.0
N138 N 0.85154 0.64601 0.57993 0.0
C139 C 0.9052 0.62373 0.59104 0.0
H140 H 0.82949 0.60374 0.51513 0.0
H141 H 0.8537 0.66022 0.51117 0.0
H142 H 0.8002 0.62942 0.52039 0.0
H143 H 0.93343 0.62716 0.58313 0.0
H144 H 0.88642 0.59073 0.59763 0.0
H145 H 0.91519 0.64542 0.60493 0.0
C146 C 1.06412 0.47834 0.85724 0.0
N147 N 1.06934 0.475 0.87918 0.0
N148 N 1.02989 0.48242 0.85237 0.0
C149 C 1.09607 0.4843 0.84074 0.0
C150 C 1.01452 0.48154 0.87222 0.0
N151 N 1.03852 0.47721 0.88849 0.0
C152 C 0.97909 0.48998 0.87564 0.0
H153 H 0.1265 0.51348 0.8443 0.0
H154 H 1.08532 0.4866 0.82373 0.0
H155 H 1.10173 0.45716 0.84206 0.0
H156 H 0.95444 0.47557 0.86255 0.0
H157 H 0.99167 0.52471 0.87478 0.0
H158 H 0.96475 0.47723 0.89185 0.0
C159 C 0.13816 0.59172 0.47535 0.0
N160 N 0.10993 0.56423 0.46045 0.0
N161 N 0.17012 0.62649 0.46518 0.0
C162 C 0.13266 0.58662 0.49971 0.0
C163 C 0.16043 0.61884 0.44363 0.0
N164 N 0.12403 0.58177 0.44076 0.0
C165 C 0.18777 0.64647 0.42515 0.0
H166 H 0.14738 0.61796 0.50736 0.0
H167 H 0.1484 0.56932 0.50672 0.0
H168 H 1.09872 0.5682 0.50374 0.0
H169 H 0.22144 0.66461 0.4305 0.0
H170 H 0.17724 0.66911 0.41948 0.0
H171 H 0.18484 0.62711 0.41106 0.0
C172 C 0.71534 0.18633 0.81557 0.0
N173 N 0.70708 0.15534 0.80131 0.0
N174 N 0.71158 0.21837 0.80533 0.0
C175 C 0.72772 0.18578 0.83929 0.0
C176 C 0.70041 0.20555 0.78449 0.0
N177 N 0.69748 0.16755 0.78206 0.0
C178 C 0.69299 0.23061 0.76629 0.0
H179 H 0.71285 0.15279 0.8461 0.0
H180 H 0.71863 0.20457 0.84903 0.0
H181 H 0.76251 0.20012 0.84074 0.0
H182 H 0.72329 0.25169 0.75808 0.0
H183 H 0.68129 0.25053 0.77278 0.0
H184 H 0.66995 0.20935 0.7539 0.0
C185 C 0.57895 0.55619 0.14003 0.0
N186 N 0.61195 0.56764 0.12654 0.0
N187 N 0.54856 0.56237 0.12977 0.0
C188 C 0.5762 0.53902 0.16314 0.0
C189 C 0.56443 0.57849 0.10976 0.0
N190 N 0.60269 0.5819 0.10782 0.0
C191 C 0.54139 0.58912 0.09174 0.0
H192 H 0.5617 0.50408 0.16287 0.0
H193 H 0.5561 0.546 0.17309 0.0
H194 H 0.60806 0.5525 0.17101 0.0
H195 H 0.5199 0.59848 0.0986 0.0
H196 H 0.52222 0.56065 0.08185 0.0
H197 H 0.56335 0.61506 0.08065 0.0
C198 C 0.2269 0.5775 0.15609 0.0
C199 C 0.18912 0.53969 0.16081 0.0
C200 C 0.26506 0.57773 0.1543 0.0
C201 C 0.30935 0.50519 0.14846 0.0
H202 H 0.41474 0.60733 0.16154 0.0
C203 C 0.47072 0.52534 0.1256 0.0
C204 C 0.50768 0.55294 0.13731 0.0
C205 C 0.43175 0.52144 0.13019 0.0
C206 C 0.38579 0.57813 0.15812 0.0
H207 H 0.16236 0.47238 0.16761 0.0
H208 H 0.22888 0.47283 0.16549 0.0
H209 H 0.3485 0.60489 0.16678 0.0
H210 H 0.53255 0.59749 0.16338 0.0
H211 H 0.46435 0.58898 0.17252 0.0
H212 H 0.34661 0.47773 0.14084 0.0
C213 C 0.2291 0.50238 0.16244 0.0
C214 C 0.34735 0.57701 0.16073 0.0
C215 C 0.19072 0.50207 0.16383 0.0
C216 C 0.50447 0.5754 0.15435 0.0
C217 C 0.4653 0.57106 0.15923 0.0
C218 C 0.34778 0.50609 0.14619 0.0
C219 C 0.26707 0.54023 0.15757 0.0
C220 C 0.30832 0.54072 0.15567 0.0
C221 C 0.42828 0.5447 0.1469 0.0
C222 C 0.38685 0.54277 0.15069 0.0
H223 H 0.22694 0.60705 0.15335 0.0
H224 H 0.29285 0.60747 0.14997 0.0
H225 H 0.28046 0.47665 0.1441 0.0
H226 H 0.4724 0.508 0.11222 0.0
H227 H 0.40472 0.50135 0.11994 0.0
C228 C 0.79603 0.20536 0.4889 0.0
C229 C 0.76174 0.20548 0.49832 0.0
C230 C 0.83417 0.2434 0.48499 0.0
C231 C 0.87912 0.36153 0.48033 0.0
H232 H 0.98658 0.36521 0.48322 0.0
C233 C 1.03297 0.51467 0.45421 0.0
C234 C 1.07153 0.52398 0.46469 0.0
C235 C 0.99602 0.4756 0.45807 0.0
C236 C 0.957 0.36517 0.48256 0.0
H237 H 0.74159 0.24648 0.51123 0.0
H238 H 0.80769 0.31198 0.50507 0.0
H239 H 0.92208 0.29872 0.49114 0.0
H240 H 1.10122 0.49912 0.48749 0.0
H241 H 1.03681 0.4319 0.49508 0.0
H242 H 0.91374 0.42806 0.47262 0.0
C243 C 0.80514 0.28273 0.50014 0.0
C244 C 0.91962 0.32653 0.48682 0.0
C245 C 0.76701 0.24482 0.50389 0.0
C246 C 1.072 0.49314 0.47928 0.0
C247 C 1.03496 0.45419 0.48337 0.0
C248 C 0.91635 0.40016 0.47629 0.0
C249 C 0.83943 0.28288 0.49045 0.0
C250 C 0.87989 0.32402 0.48583 0.0
C251 C 0.99616 0.44457 0.47282 0.0
C252 C 0.95613 0.40284 0.47727 0.0
H253 H 0.79328 0.17585 0.48425 0.0
H254 H 0.85923 0.24178 0.47724 0.0
H255 H 0.84943 0.36099 0.47892 0.0
H256 H 1.0312 0.53783 0.44314 0.0
H257 H 0.96739 0.46975 0.44925 0.0
C258 C 0.75178 0.84019 0.82027 0.0
C259 C 0.72186 0.80581 0.83302 0.0
C260 C 0.75012 0.87774 0.81723 0.0
C261 C 0.67863 0.92296 0.82397 0.0
H262 H 0.7819 1.02942 0.81387 0.0
C263 C 0.67474 0.07718 0.79956 0.0
C264 C 0.70884 0.11666 0.80555 0.0
C265 C 0.6765 1.03978 0.80313 0.0
C266 C 0.75263 1.00024 0.81695 0.0
H267 H 0.66694 0.78469 0.85284 0.0
H268 H 0.66493 0.85037 0.84836 0.0
H269 H 0.78481 0.96494 0.82053 0.0
H270 H 0.77163 0.14755 0.82021 0.0
H271 H 0.77421 0.08251 0.82758 0.0
H272 H 0.6467 0.95856 0.8215 0.0
C273 C 0.68911 0.84815 0.84004 0.0
C274 C 0.75422 0.96268 0.82041 0.0
C275 C 0.69041 0.81031 0.8428 0.0
C276 C 0.74466 0.11765 0.81555 0.0
C277 C 0.74627 0.08015 0.81945 0.0
C278 C 0.67711 0.9606 0.82082 0.0
C279 C 0.71885 0.88262 0.82711 0.0
C280 C 0.71722 0.92318 0.82385 0.0
C281 C 0.71227 1.04041 0.81321 0.0
C282 C 0.71405 1.00002 0.81709 0.0
H283 H 0.77629 0.83791 0.8123 0.0
H284 H 0.77316 0.90269 0.80676 0.0
H285 H 0.64916 0.89355 0.82622 0.0
H286 H 0.64635 0.07511 0.79227 0.0
H287 H 0.64976 1.01041 0.79769 0.0
C288 C 0.92089 0.51387 0.15285 0.0
C289 C 0.95814 0.54872 0.16076 0.0
C290 C 0.88349 0.51553 0.14972 0.0
C291 C 0.84266 0.59319 0.14847 0.0
H292 H 0.73487 0.48947 0.14492 0.0
C293 C 0.68996 0.59933 0.12528 0.0
C294 C 0.65019 0.56534 0.13109 0.0
C295 C 0.72679 0.59684 0.12897 0.0
C296 C 0.76433 0.51908 0.14623 0.0
H297 H 0.98489 0.61234 0.17231 0.0
H298 H 0.9197 0.61453 0.16856 0.0
H299 H 0.79797 0.48592 0.15282 0.0
H300 H 0.61842 0.50175 0.14534 0.0
H301 H 0.68216 0.49861 0.15374 0.0
H302 H 0.80881 0.62641 0.14376 0.0
C303 C 0.91911 0.58629 0.16355 0.0
C304 C 0.80135 0.51699 0.15032 0.0
C305 C 0.9568 0.585 0.16601 0.0
C306 C 0.64848 0.52894 0.14103 0.0
C307 C 0.68544 0.52689 0.1454 0.0
C308 C 0.80556 0.59529 0.14508 0.0
C309 C 0.88167 0.55183 0.155 0.0
C310 C 0.84149 0.55399 0.15131 0.0
C311 C 0.72553 0.56069 0.13931 0.0
C312 C 0.76549 0.5583 0.14361 0.0
H313 H 0.92107 0.48576 0.1483 0.0
H314 H 0.85642 0.48841 0.14263 0.0
H315 H 0.87231 0.62279 0.14858 0.0
H316 H 0.69275 0.62817 0.1179 0.0
H317 H 0.75614 0.62347 0.12339 0.0
C318 C 0.48226 0.97413 0.51121 0.0
C319 C 0.52058 0.97527 0.50815 0.0
C320 C 0.44343 0.93606 0.50944 0.0
C321 C 0.39605 0.81707 0.50353 0.0
H322 H 0.29642 0.82375 0.48677 0.0
C323 C 0.23332 0.663 0.4901 0.0
C324 C 0.20499 0.66474 0.47436 0.0
C325 C 0.26999 0.70033 0.4967 0.0
C326 C 0.3238 0.8208 0.49109 0.0
H327 H 0.5478 0.93698 0.50045 0.0
H328 H 0.48087 0.87176 0.49605 0.0
H329 H 0.36292 0.88802 0.49189 0.0
H330 H 0.19189 0.7073 0.45416 0.0
H331 H 0.25599 0.77136 0.46428 0.0
H332 H 0.35742 0.74986 0.50106 0.0
C333 C 0.48016 0.89948 0.50083 0.0
C334 C 0.3624 0.85827 0.49457 0.0
C335 C 0.51897 0.93728 0.5032 0.0
C336 C 0.2134 0.70478 0.46606 0.0
C337 C 0.25025 0.74185 0.47223 0.0
C338 C 0.35761 0.77959 0.4995 0.0
C339 C 0.44144 0.89795 0.50388 0.0
C340 C 0.39951 0.85735 0.50078 0.0
C341 C 0.27973 0.74054 0.48749 0.0
C342 C 0.32065 0.78062 0.49304 0.0
H343 H 0.48227 1.00268 0.51519 0.0
H344 H 0.41504 0.93682 0.51257 0.0
H345 H 0.42305 0.81409 0.50879 0.0
H346 H 0.22778 0.63265 0.4968 0.0
H347 H 0.29082 0.69739 0.50888 0.0
C348 C 0.76308 0.57102 0.84694 0.0
C349 C 0.73064 0.57628 0.83677 0.0
C350 C 0.76302 0.53254 0.84571 0.0
C351 C 0.69151 0.4178 0.83292 0.0
H352 H 0.79611 0.41765 0.82671 0.0
C353 C 0.69241 0.25949 0.82867 0.0
C354 C 0.71948 0.25829 0.8136 0.0
C355 C 0.69592 0.29826 0.83387 0.0
C356 C 0.76648 0.41694 0.82833 0.0
H357 H 0.67284 0.54454 0.81709 0.0
H358 H 0.67307 0.47856 0.81472 0.0
H359 H 0.79769 0.48461 0.83043 0.0
H360 H 0.77174 0.29664 0.79241 0.0
H361 H 0.77796 0.36413 0.8012 0.0
H362 H 0.66013 0.35042 0.83005 0.0
C363 C 0.69827 0.50367 0.82406 0.0
C364 C 0.76745 0.45555 0.83074 0.0
C365 C 0.69832 0.54195 0.82529 0.0
C366 C 0.75086 0.29678 0.80431 0.0
C367 C 0.75439 0.3355 0.80944 0.0
C368 C 0.69054 0.37927 0.83049 0.0
C369 C 0.73048 0.49812 0.83429 0.0
C370 C 0.72992 0.45671 0.83283 0.0
C371 C 0.72648 0.33692 0.82401 0.0
C372 C 0.72795 0.37811 0.82794 0.0
H373 H 0.78852 0.59658 0.85594 0.0
H374 H 0.78824 0.52963 0.854 0.0
H375 H 0.66189 0.41695 0.83484 0.0
H376 H 0.6675 0.23023 0.83577 0.0
H377 H 0.67417 0.29778 0.8454 0.0
C378 C 0.66076 0.82384 0.50538 0.0
C379 C 0.64411 0.83837 0.52071 0.0
C380 C 0.66072 0.78591 0.5094 0.0
C381 C 0.66837 0.72751 0.55782 0.0
H382 H 0.6902 0.66953 0.51338 0.0
C383 C 0.76298 0.63701 0.57048 0.0
C384 C 0.80077 0.66082 0.55913 0.0
C385 C 0.72992 0.64551 0.56686 0.0
C386 C 0.68328 0.68471 0.52602 0.0
H387 H 0.60956 0.82242 0.55077 0.0
H388 H 0.60852 0.75541 0.5576 0.0
H389 H 0.64944 0.70445 0.50363 0.0
H390 H 0.83427 0.71196 0.53551 0.0
H391 H 0.77608 0.72614 0.52865 0.0
H392 H 0.70382 0.70895 0.57992 0.0
C393 C 0.62283 0.7739 0.54283 0.0
C394 C 0.66028 0.70495 0.52046 0.0
C395 C 0.62329 0.81214 0.5389 0.0
C396 C 0.80525 0.69327 0.5443 0.0
C397 C 0.77206 0.70109 0.54032 0.0
C398 C 0.69072 0.7066 0.56344 0.0
C399 C 0.64371 0.76157 0.52877 0.0
C400 C 0.65495 0.72891 0.53596 0.0
C401 C 0.73412 0.6771 0.55144 0.0
C402 C 0.70027 0.68718 0.54728 0.0
H403 H 0.67717 0.84353 0.49127 0.0
H404 H 0.67748 0.77786 0.49824 0.0
H405 H 0.66521 0.74577 0.57022 0.0
H406 H 0.75878 0.61139 0.58174 0.0
H407 H 0.70093 0.627 0.57571 0.0
C408 C 0.9939 0.74019 0.78942 0.0
C409 C 0.95275 0.73347 0.78672 0.0
C410 C 1.00403 0.71153 0.78123 0.0
C411 C 1.0175 0.64201 0.76589 0.0
H412 H 0.92964 0.53938 0.79367 0.0
C413 C 0.98707 0.48161 0.81987 0.0
C414 C 1.02378 0.50259 0.83293 0.0
C415 C 0.97906 0.50359 0.80264 0.0
C416 C 0.95418 0.56695 0.78517 0.0
H417 H 0.89183 0.69507 0.77048 0.0
H418 H 0.90983 0.64566 0.75593 0.0
H419 H 0.9149 0.59439 0.78121 0.0
H420 H 1.08166 0.56163 0.83813 0.0
H421 H 1.06772 0.60052 0.80865 0.0
H422 H 1.05756 0.61527 0.77127 0.0
C423 C 0.93401 0.67253 0.76475 0.0
C424 C 0.94566 0.59877 0.77795 0.0
C425 C 0.92382 0.70112 0.773 0.0
C426 C 1.05335 0.54501 0.828 0.0
C427 C 1.04541 0.56701 0.81095 0.0
C428 C 1.02594 0.60992 0.77295 0.0
C429 C 0.97313 0.67567 0.77018 0.0
C430 C 0.97805 0.63781 0.76966 0.0
C431 C 1.00755 0.54701 0.79845 0.0
C432 C 0.99522 0.57338 0.78413 0.0
H433 H 1.01712 0.7654 0.79951 0.0
H434 H 1.03457 0.71507 0.78567 0.0
H435 H 1.04282 0.67141 0.75913 0.0
H436 H 0.96406 0.44877 0.82353 0.0
H437 H 0.94978 0.48711 0.79323 0.0
C438 C 0.32251 0.80296 0.10162 0.0
C439 C 0.30546 0.7598 0.10729 0.0
C440 C 0.36527 0.82814 0.0972 0.0
C441 C 0.45645 0.83053 0.12171 0.0
H442 H 0.50359 0.94582 0.09868 0.0
C443 C 0.56412 0.96955 0.17519 0.0
C444 C 0.54154 0.99043 0.17848 0.0
C445 C 0.5542 0.94361 0.1572 0.0
C446 C 0.49176 0.91357 0.10486 0.0
H447 H 0.31822 0.70777 0.10916 0.0
H448 H 0.39339 0.75212 0.10193 0.0
H449 H 0.44572 0.88806 0.07879 0.0
H450 H 0.49204 1.00173 0.16552 0.0
H451 H 0.47536 0.95768 0.13402 0.0
H452 H 0.49954 0.85647 0.14887 0.0
C453 C 0.3738 0.76659 0.10124 0.0
C454 C 0.45856 0.8805 0.09352 0.0
C455 C 0.33084 0.74129 0.10558 0.0
C456 C 0.51031 0.9865 0.16311 0.0
C457 C 0.50106 0.96152 0.145 0.0
C458 C 0.48982 0.86355 0.13296 0.0
C459 C 0.392 0.81075 0.09852 0.0
C460 C 0.43776 0.83939 0.10307 0.0
C461 C 0.52225 0.93911 0.14206 0.0
C462 C 0.50475 0.90565 0.12568 0.0
H463 H 0.30399 0.81835 0.10273 0.0
H464 H 0.37798 0.86203 0.09528 0.0
H465 H 0.44169 0.79919 0.12946 0.0
H466 H 0.5888 0.97271 0.18671 0.0
H467 H 0.57059 0.92622 0.15543 0.0
C468 C 0.74161 0.33631 0.45637 0.0
C469 C 0.70289 0.33346 0.46081 0.0
C470 C 0.77892 0.37551 0.45623 0.0
C471 C 0.82401 0.49145 0.46254 0.0
H472 H 0.89114 0.47619 0.50919 0.0
C473 C 0.91241 0.62261 0.52079 0.0
C474 C 0.89336 0.60631 0.5411 0.0
C475 C 0.9116 0.59534 0.50532 0.0
C476 C 0.87357 0.48125 0.49579 0.0
H477 H 0.67241 0.37001 0.46579 0.0
H478 H 0.73763 0.43806 0.46649 0.0
H479 H 0.83971 0.4157 0.48871 0.0
H480 H 0.8644 0.55056 0.56248 0.0
H481 H 0.86394 0.50321 0.53605 0.0
H482 H 0.85386 0.55605 0.47165 0.0
C483 C 0.73921 0.41016 0.46291 0.0
C484 C 0.84437 0.44658 0.48382 0.0
C485 C 0.70182 0.37105 0.46283 0.0
C486 C 0.87958 0.56387 0.54701 0.0
C487 C 0.87923 0.53673 0.53172 0.0
C488 C 0.85297 0.52613 0.47468 0.0
C489 C 0.77836 0.41245 0.46083 0.0
C490 C 0.8176 0.45085 0.46793 0.0
C491 C 0.89227 0.5516 0.51018 0.0
C492 C 0.87592 0.52067 0.49242 0.0
H493 H 0.74378 0.30809 0.45475 0.0
H494 H 0.80855 0.3766 0.45399 0.0
H495 H 0.80409 0.49574 0.45024 0.0
H496 H 0.9235 0.65546 0.51607 0.0
H497 H 0.92242 0.60777 0.48896 0.0
C498 C 0.42434 0.61139 0.86493 0.0
C499 C 0.44771 0.593 0.87361 0.0
C500 C 0.38547 0.60026 0.87357 0.0
C501 C 0.29857 0.51267 0.90422 0.0
H502 H 0.25491 0.58975 0.89799 0.0
C503 C 0.12403 0.45548 0.88652 0.0
C504 C 0.10808 0.48233 0.88998 0.0
C505 C 0.16575 0.46766 0.89254 0.0
C506 C 0.26641 0.56772 0.90048 0.0
H507 H 0.45004 0.55029 0.89885 0.0
H508 H 0.38237 0.53154 0.91443 0.0
H509 H 0.32953 0.6169 0.89433 0.0
H510 H 0.12179 0.54137 0.90382 0.0
H511 H 0.19307 0.56095 0.91622 0.0
H512 H 0.23547 0.46358 0.91082 0.0
C513 C 0.39355 0.55376 0.90057 0.0
C514 C 0.30939 0.58334 0.89793 0.0
C515 C 0.43231 0.56455 0.89171 0.0
C516 C 0.13311 0.51972 0.90133 0.0
C517 C 0.17436 0.53135 0.90797 0.0
C518 C 0.2556 0.49713 0.90723 0.0
C519 C 0.36923 0.57084 0.89131 0.0
C520 C 0.32567 0.55573 0.89867 0.0
C521 C 0.19205 0.50666 0.90257 0.0
C522 C 0.23858 0.52411 0.90438 0.0
H523 H 0.43521 0.63296 0.85079 0.0
H524 H 0.36736 0.6134 0.86563 0.0
H525 H 0.30988 0.49037 0.90497 0.0
H526 H 1.105 0.42638 0.87789 0.0
H527 H 0.17797 0.44776 0.88788 0.0
C528 C 0.81104 0.37464 0.17566 0.0
C529 C 0.82006 0.34581 0.16629 0.0
C530 C 0.7701 0.3615 0.18219 0.0
C531 C 0.65943 0.27492 0.17887 0.0
H532 H 0.66605 0.26815 0.24229 0.0
C533 C 0.60765 0.13368 0.23512 0.0
C534 C 0.56794 0.1077 0.22545 0.0
C535 C 0.62506 0.17754 0.23426 0.0
C536 C 0.66311 0.27069 0.22464 0.0
H537 H 0.79372 0.28222 0.15478 0.0
H538 H 0.72193 0.25939 0.16559 0.0
H539 H 0.7263 0.32272 0.22214 0.0
H540 H 0.51232 0.10554 0.21054 0.0
H541 H 0.54297 0.18264 0.20859 0.0
H542 H 0.59839 0.22011 0.18106 0.0
C543 C 0.74627 0.29203 0.16797 0.0
C544 C 0.69756 0.30204 0.21309 0.0
C545 C 0.78727 0.30483 0.16195 0.0
C546 C 0.54332 0.12544 0.21782 0.0
C547 C 0.56081 0.1694 0.21677 0.0
C548 C 0.62494 0.2438 0.1904 0.0
C549 C 0.73764 0.31974 0.17887 0.0
C550 C 0.69716 0.30184 0.19011 0.0
C551 C 0.60311 0.1959 0.22338 0.0
C552 C 0.62809 0.23897 0.21328 0.0
H553 H 0.83615 0.40642 0.17924 0.0
H554 H 0.76421 0.38319 0.19074 0.0
H555 H 0.65832 0.27461 0.16114 0.0
H556 H 0.62712 0.12053 0.24101 0.0
H557 H 0.65775 0.19688 0.2395 0.0
C558 C 1.0374 0.49112 0.08722 0.0
C559 C 1.06198 0.5316 0.09582 0.0
C560 C 1.03394 0.48577 0.06464 0.0
C561 C 1.08372 0.54142 0.01204 0.0
H562 H 0.98053 0.44989 0.98716 0.0
C563 C 1.04237 0.52049 0.91903 0.0
C564 C 1.03664 0.48225 0.91149 0.0
C565 C 1.04438 0.52691 0.94147 0.0
C566 C 1.00949 0.47549 0.99397 0.0
H567 H 1.10166 0.59837 0.08761 0.0
H568 H 1.09399 0.5895 0.0481 0.0
H569 H 0.98571 0.46173 0.02634 0.0
H570 H 1.02816 0.42075 0.92099 0.0
H571 H 1.02982 0.43117 0.96058 0.0
H572 H 0.10646 0.55592 0.97923 0.0
C573 C 1.07853 0.56153 0.05874 0.0
C574 C 1.01273 0.48218 0.01644 0.0
C575 C 1.08275 0.56675 0.0814 0.0
C576 C 1.03213 0.45019 0.92663 0.0
C577 C 1.03313 0.45619 0.94909 0.0
C578 C 1.08004 0.53528 0.9895 0.0
C579 C 1.05418 0.52089 0.05002 0.0
C580 C 1.0501 0.51493 0.02587 0.0
C581 C 1.03981 0.49481 0.95665 0.0
C582 C 1.04308 0.50202 0.98036 0.0
H583 H 1.0214 0.46335 0.09797 0.0
H584 H 1.01582 0.45386 0.05874 0.0
H585 H 0.11329 0.56644 0.01861 0.0
H586 H 1.04675 0.54584 0.90752 0.0
H587 H 1.04961 0.55693 0.94699 0.0
C588 C 0.63916 0.1118 0.42568 0.0
C589 C 0.62915 0.07669 0.43986 0.0
C590 C 0.63187 0.10669 0.40313 0.0
C591 C 0.61006 1.03088 0.35931 0.0
H592 H 0.57137 0.09969 0.32702 0.0
C593 C 0.59602 1.03316 0.265 0.0
C594 C 0.5628 1.03717 0.25522 0.0
C595 C 0.60375 1.03713 0.28757 0.0
C596 C 0.58164 0.07981 0.3358 0.0
H597 H 0.60368 1.00868 0.44156 0.0
H598 H 0.58977 0.9995 0.40232 0.0
H599 H 0.58502 0.10767 0.36622 0.0
H600 H 0.51129 1.04787 0.26088 0.0
H601 H 0.52359 1.05348 0.30057 0.0
H602 H 0.605 1.0018 0.32903 0.0
C603 C 0.60423 1.03119 0.40849 0.0
C604 C 0.59018 0.0849 0.35827 0.0
C605 C 0.61202 1.0364 0.43103 0.0
C606 C 0.53708 1.04475 0.26826 0.0
C607 C 0.54443 1.04827 0.29088 0.0
C608 C 0.60108 1.02547 0.33687 0.0
C609 C 0.61388 1.06625 0.39426 0.0
C610 C 0.60468 1.06064 0.37032 0.0
C611 C 0.5781 1.04483 0.30082 0.0
C612 C 0.5869 1.04997 0.3248 0.0
H613 H 0.65271 0.14333 0.43198 0.0
H614 H 0.64053 0.13454 0.39266 0.0
H615 H 0.62163 1.01198 0.36797 0.0
H616 H 0.6166 1.02806 0.25504 0.0
H617 H 0.63044 1.03513 0.29453 0.0
C618 C 0.79178 0.69533 0.76711 0.0
C619 C 0.75199 0.6892 0.77215 0.0
C620 C 0.80065 0.69083 0.74588 0.0
C621 C 0.76776 0.6889 0.68796 0.0
H622 H 0.83068 0.63067 0.68223 0.0
C623 C 0.84298 0.68895 0.6068 0.0
C624 C 0.84078 0.65101 0.60145 0.0
C625 C 0.83011 0.69293 0.62727 0.0
C626 C 0.81276 0.64666 0.68348 0.0
H627 H 0.6905 0.67427 0.75853 0.0
H628 H 0.70602 0.66594 0.72114 0.0
H629 H 0.81062 0.63819 0.71831 0.0
H630 H 0.8224 0.58713 0.6127 0.0
H631 H 0.8002 0.59388 0.64862 0.0
H632 H 0.76959 0.69685 0.65297 0.0
C633 C 0.7304 0.67463 0.7338 0.0
C634 C 0.80165 0.65139 0.7042 0.0
C635 C 0.72146 0.67926 0.7552 0.0
C636 C 0.82541 0.61703 0.61679 0.0
C637 C 0.81256 0.62092 0.63725 0.0
C638 C 0.77895 0.68418 0.66715 0.0
C639 C 0.76994 0.67978 0.72902 0.0
C640 C 0.77944 0.67296 0.70673 0.0
C641 C 0.81477 0.65893 0.64275 0.0
C642 C 0.80183 0.66323 0.6647 0.0
H643 H 0.81619 0.7031 0.77965 0.0
H644 H 0.83172 0.69593 0.74269 0.0
H645 H 0.75082 0.70583 0.68937 0.0
H646 H 0.85461 0.7154 0.59507 0.0
H647 H 0.83269 0.72278 0.63108 0.0
C648 C 0.62822 0.1186 0.58727 0.0
C649 C 0.64626 0.09918 0.57612 0.0
C650 C 0.63232 0.12131 0.61012 0.0
C651 C 0.69582 0.11157 0.65762 0.0
H652 H 0.61034 0.11458 0.69105 0.0
C653 C 0.65101 0.1205 0.75325 0.0
C654 C 0.69177 0.14809 0.76138 0.0
C655 C 0.64444 0.10865 0.73138 0.0
C656 C 0.6343 0.113 0.68214 0.0
H657 H 0.68117 1.06578 0.58022 0.0
H658 H 0.68651 1.06851 0.61989 0.0
H659 H 0.59939 0.10414 0.65197 0.0
H660 H 0.7575 0.18551 0.75339 0.0
H661 H 0.74653 0.16636 0.71501 0.0
H662 H 0.72982 0.11842 0.68792 0.0
C663 C 0.67075 0.08339 0.61114 0.0
C664 C 0.62835 0.10786 0.65949 0.0
C665 C 0.66743 0.08151 0.58832 0.0
C666 C 0.72601 0.16314 0.74748 0.0
C667 C 0.7195 0.15206 0.7255 0.0
C668 C 0.70141 0.11591 0.68032 0.0
C669 C 0.6538 0.10386 0.62243 0.0
C670 C 0.65926 0.1076 0.6468 0.0
C671 C 0.67846 0.12532 0.71695 0.0
C672 C 0.67102 0.11731 0.69293 0.0
H673 H 0.61191 0.1327 0.57828 0.0
H674 H 0.61939 0.13798 0.61802 0.0
H675 H 0.72079 0.1122 0.64856 0.0
H676 H 0.6241 0.10962 0.76361 0.0
H677 H 0.61248 0.08737 0.72567 0.0
C678 C 0.66569 0.65314 0.91572 0.0
C679 C 0.70693 0.67596 0.90778 0.0
C680 C 0.65888 0.64493 0.9382 0.0
C681 C 0.70534 0.63073 0.98965 0.0
H682 H 0.62843 0.6573 0.01691 0.0
C683 C 0.6287 0.56609 0.07516 0.0
C684 C 0.62699 0.59561 0.08821 0.0
C685 C 0.64486 0.57799 0.05402 0.0
C686 C 0.65018 0.64993 0.00956 0.0
H687 H 0.77338 0.7076 0.91721 0.0
H688 H 0.76134 0.69237 0.95654 0.0
H689 H 0.64256 0.67367 0.97792 0.0
H690 H 0.64326 0.6609 0.09048 0.0
H691 H 0.67112 0.68187 0.05343 0.0
H692 H 0.71198 0.6059 0.0213 0.0
C693 C 0.73439 0.68124 0.9453 0.0
C694 C 0.65801 0.65902 0.98723 0.0
C695 C 0.74122 0.6902 0.92283 0.0
C696 C 0.64423 0.63776 0.08051 0.0
C697 C 0.65983 0.64956 0.05936 0.0
C698 C 0.69686 0.62086 0.01197 0.0
C699 C 0.69314 0.65863 0.95321 0.0
C700 C 0.68565 0.64954 0.97703 0.0
C701 C 0.65909 0.61949 0.04564 0.0
C702 C 0.66929 0.63052 0.02215 0.0
H703 H 0.6386 0.64174 0.90457 0.0
H704 H 0.62676 0.62727 0.94386 0.0
H705 H 0.72661 0.62288 0.98214 0.0
H706 H 0.61539 0.53341 0.08089 0.0
H707 H 0.64389 0.55418 0.04377 0.0
C708 C 1.07596 0.58118 0.24334 0.0
C709 C 1.08094 0.55072 0.23282 0.0
C710 C 1.07561 0.58114 0.26624 0.0
C711 C 1.06269 0.51309 0.31643 0.0
H712 H 0.11693 0.62069 0.34517 0.0
C713 C 0.10701 0.53471 0.40977 0.0
C714 C 1.10377 0.56657 0.4198 0.0
C715 C 1.09792 0.5282 0.38727 0.0
C716 C 1.10109 0.59031 0.33742 0.0
H717 H 1.08988 0.49652 0.23826 0.0
H718 H 1.09039 0.49715 0.27802 0.0
H719 H 0.11525 0.6197 0.30543 0.0
H720 H 1.08648 0.61486 0.41495 0.0
H721 H 1.06955 0.60308 0.37586 0.0
H722 H 1.04959 0.48389 0.34868 0.0
C723 C 1.08574 0.52052 0.26864 0.0
C724 C 1.10009 0.58973 0.31456 0.0
C725 C 1.08581 0.5204 0.24577 0.0
C726 C 1.0887 0.58985 0.40745 0.0
C727 C 1.07963 0.58345 0.38509 0.0
C728 C 1.06396 0.51369 0.33938 0.0
C729 C 1.08053 0.55081 0.27924 0.0
C730 C 1.08089 0.55115 0.30369 0.0
C731 C 1.08573 0.55372 0.37452 0.0
C732 C 1.08309 0.55234 0.35014 0.0
H733 H 1.07179 0.60479 0.23389 0.0
H734 H 1.0709 0.6046 0.27374 0.0
H735 H 1.04707 0.48272 0.30869 0.0
H736 H 0.11935 0.51703 0.41901 0.0
H737 H 1.10308 0.50514 0.37963 0.0
loop_
_geom_bond_atom_site_label_1
_geom_bond_atom_site_label_2
_geom_bond_distance
_geom_bond_site_symmetry_2
_ccdc_geom_bond_type
Eu0 C9 2.828 . S
Eu0 O11 2.392 1_655 S
Eu0 O13 2.418 . S
Eu0 O18 2.373 . S
Eu0 O21 2.488 . S
Eu0 O22 2.471 . S
Eu0 O23 2.349 . S
Eu1 O10 2.373 . S
Eu1 O14 2.488 . S
Eu1 O15 2.471 . S
Eu1 O16 2.349 . S
Eu1 O19 2.392 1_455 S
Eu1 O20 2.418 . S
Eu1 C30 2.828 . S
C2 O20 1.244 . S
C2 O23 1.265 1_455 S
C3 C4 1.379 . S
C3 C7 1.373 . S
C3 C9 1.505 . S
C4 C3 1.379 . S
C4 C6 1.369 . S
C4 H32 0.930 . S
C5 C7 1.383 . S
C5 C8 1.382 . S
C5 H33 0.930 . S
C6 C4 1.369 . S
C6 C8 1.392 . S
C6 H34 0.930 . S
C7 C3 1.373 . S
C7 C5 1.383 . S
C7 H35 0.931 . S
C8 C5 1.382 . S
C8 C6 1.392 . S
C9 Eu0 2.828 . S
C9 C3 1.505 . S
C9 O21 1.249 . S
C9 O22 1.244 . S
O10 Eu1 2.373 . S
O10 C12 1.258 . S
O11 Eu0 2.392 1_455 S
O11 C12 1.242 . S
C12 O10 1.258 . S
C12 O11 1.242 . S
O13 Eu0 2.418 . S
O13 C17 1.244 . S
O14 Eu1 2.488 . S
O14 C30 1.249 . S
O15 Eu1 2.471 . S
O15 C30 1.244 . S
O16 Eu1 2.349 . S
O16 C17 1.265 1_455 S
C17 O13 1.244 . S
C17 O16 1.265 1_655 S
O18 Eu0 2.373 . S
O18 C31 1.258 . S
O19 Eu1 2.392 1_655 S
O19 C31 1.242 . S
O20 Eu1 2.418 . S
O20 C2 1.244 . S
O21 Eu0 2.488 . S
O21 C9 1.249 . S
O22 Eu0 2.471 . S
O22 C9 1.244 . S
O23 Eu0 2.349 . S
O23 C2 1.265 1_655 S
C24 C25 1.379 . S
C24 C28 1.373 . S
C24 C30 1.505 . S
C25 C24 1.379 . S
C25 C27 1.369 . S
C25 H36 0.930 . S
C26 C28 1.383 . S
C26 C29 1.382 . S
C26 H37 0.930 . S
C27 C25 1.369 . S
C27 C29 1.392 . S
C27 H38 0.930 . S
C28 C24 1.373 . S
C28 C26 1.383 . S
C28 H39 0.931 . S
C29 C26 1.382 . S
C29 C27 1.392 . S
C30 Eu1 2.828 . S
C30 O14 1.249 . S
C30 O15 1.244 . S
C30 C24 1.505 . S
C31 O18 1.258 . S
C31 O19 1.242 . S
H32 C4 0.930 . S
H33 C5 0.930 . S
H34 C6 0.930 . S
H35 C7 0.931 . S
H36 C25 0.930 . S
H37 C26 0.930 . S
H38 C27 0.930 . S
H39 C28 0.931 . S
Eu40 C49 2.828 . S
Eu40 O51 2.392 1_565 S
Eu40 O53 2.418 . S
Eu40 O58 2.373 . S
Eu40 O61 2.488 . S
Eu40 O62 2.471 . S
Eu40 O63 2.349 1_565 S
Eu41 O50 2.373 . S
Eu41 O54 2.488 . S
Eu41 O55 2.471 . S
Eu41 O56 2.349 . S
Eu41 O59 2.392 1_545 S
Eu41 O60 2.418 . S
Eu41 C70 2.828 . S
C42 O60 1.244 . S
C42 O63 1.265 . S
C43 C44 1.379 . S
C43 C47 1.373 . S
C43 C49 1.505 . S
C44 C43 1.379 . S
C44 C46 1.369 . S
C44 H72 0.930 . S
C45 C47 1.383 . S
C45 C48 1.382 . S
C45 H73 0.930 . S
C46 C44 1.369 . S
C46 C48 1.392 . S
C46 H74 0.930 . S
C47 C43 1.373 . S
C47 C45 1.383 . S
C47 H75 0.931 . S
C48 C45 1.382 . S
C48 C46 1.392 . S
C49 Eu40 2.828 . S
C49 C43 1.505 . S
C49 O61 1.249 . S
C49 O62 1.244 . S
O50 Eu41 2.373 . S
O50 C52 1.258 . S
O51 Eu40 2.392 1_545 S
O51 C52 1.242 . S
C52 O50 1.258 . S
C52 O51 1.242 . S
O53 Eu40 2.418 . S
O53 C57 1.244 1_565 S
O54 Eu41 2.488 . S
O54 C70 1.249 . S
O55 Eu41 2.471 . S
O55 C70 1.244 . S
O56 Eu41 2.349 . S
O56 C57 1.265 . S
C57 O53 1.244 1_545 S
C57 O56 1.265 . S
O58 Eu40 2.373 . S
O58 C71 1.258 . S
O59 Eu41 2.392 1_565 S
O59 C71 1.242 . S
O60 Eu41 2.418 . S
O60 C42 1.244 . S
O61 Eu40 2.488 . S
O61 C49 1.249 . S
O62 Eu40 2.471 . S
O62 C49 1.244 . S
O63 Eu40 2.349 1_545 S
O63 C42 1.265 . S
C64 C65 1.379 . S
C64 C68 1.373 . S
C64 C70 1.505 . S
C65 C64 1.379 . S
C65 C67 1.369 . S
C65 H76 0.930 . S
C66 C68 1.383 . S
C66 C69 1.382 . S
C66 H77 0.930 . S
C67 C65 1.369 . S
C67 C69 1.392 . S
C67 H78 0.930 . S
C68 C64 1.373 . S
C68 C66 1.383 . S
C68 H79 0.931 . S
C69 C66 1.382 . S
C69 C67 1.392 . S
C70 Eu41 2.828 . S
C70 O54 1.249 . S
C70 O55 1.244 . S
C70 C64 1.505 . S
C71 O58 1.258 . S
C71 O59 1.242 . S
H72 C44 0.930 . S
H73 C45 0.930 . S
H74 C46 0.930 . S
H75 C47 0.931 . S
H76 C65 0.930 . S
H77 C66 0.930 . S
H78 C67 0.930 . S
H79 C68 0.931 . S
Eu80 C89 2.828 . S
Eu80 O91 2.392 . S
Eu80 O93 2.418 . S
Eu80 O98 2.373 . S
Eu80 O101 2.488 . S
Eu80 O102 2.471 . S
Eu80 O103 2.349 . S
Eu81 O90 2.373 . S
Eu81 O94 2.488 . S
Eu81 O95 2.471 . S
Eu81 O96 2.349 . S
Eu81 O99 2.392 . S
Eu81 O100 2.418 . S
Eu81 C110 2.828 . S
C82 O100 1.244 . S
C82 O103 1.265 . S
C83 C84 1.379 . S
C83 C87 1.373 . S
C83 C89 1.505 . S
C84 C83 1.379 . S
C84 C86 1.369 . S
C84 H112 0.930 . S
C85 C87 1.383 . S
C85 C88 1.382 . S
C85 H113 0.930 . S
C86 C84 1.369 . S
C86 C88 1.392 . S
C86 H114 0.930 . S
C87 C83 1.373 . S
C87 C85 1.383 . S
C87 H115 0.931 . S
C88 C85 1.382 . S
C88 C86 1.392 . S
C89 Eu80 2.828 . S
C89 C83 1.505 . S
C89 O101 1.249 . S
C89 O102 1.244 . S
O90 Eu81 2.373 . S
O90 C92 1.258 . S
O91 Eu80 2.392 . S
O91 C92 1.242 . S
C92 O90 1.258 . S
C92 O91 1.242 . S
O93 Eu80 2.418 . S
O93 C97 1.244 . S
O94 Eu81 2.488 . S
O94 C110 1.249 . S
O95 Eu81 2.471 . S
O95 C110 1.244 . S
O96 Eu81 2.349 . S
O96 C97 1.265 . S
C97 O93 1.244 . S
C97 O96 1.265 . S
O98 Eu80 2.373 . S
O98 C111 1.258 . S
O99 Eu81 2.392 . S
O99 C111 1.242 . S
O100 Eu81 2.418 . S
O100 C82 1.244 . S
O101 Eu80 2.488 . S
O101 C89 1.249 . S
O102 Eu80 2.471 . S
O102 C89 1.244 . S
O103 Eu80 2.349 . S
O103 C82 1.265 . S
C104 C105 1.379 . S
C104 C108 1.373 . S
C104 C110 1.505 . S
C105 C104 1.379 . S
C105 C107 1.369 . S
C105 H116 0.930 . S
C106 C108 1.383 . S
C106 C109 1.382 . S
C106 H117 0.930 . S
C107 C105 1.369 . S
C107 C109 1.392 . S
C107 H118 0.930 . S
C108 C104 1.373 . S
C108 C106 1.383 . S
C108 H119 0.931 . S
C109 C106 1.382 . S
C109 C107 1.392 . S
C110 Eu81 2.828 . S
C110 O94 1.249 . S
C110 O95 1.244 . S
C110 C104 1.505 . S
C111 O98 1.258 . S
C111 O99 1.242 . S
H112 C84 0.930 . S
H113 C85 0.930 . S
H114 C86 0.930 . S
H115 C87 0.931 . S
H116 C105 0.930 . S
H117 C106 0.930 . S
H118 C107 0.930 . S
H119 C108 0.931 . S
C120 N121 1.320 . S
C120 N122 1.345 1_545 S
C120 C123 1.485 . S
N121 C120 1.320 . S
N121 N125 1.370 . S
N122 C120 1.345 1_565 S
N122 C124 1.346 . S
C123 C120 1.485 . S
C123 H127 0.960 . S
C123 H128 0.961 1_545 S
C123 H129 0.960 . S
C124 N122 1.346 . S
C124 N125 1.307 1_565 S
C124 C126 1.486 . S
N125 N121 1.370 . S
N125 C124 1.307 1_545 S
C126 C124 1.486 . S
C126 H130 0.960 . S
C126 H131 0.960 . S
C126 H132 0.959 . S
H127 C123 0.960 . S
H128 C123 0.961 1_565 S
H129 C123 0.960 . S
H130 C126 0.960 . S
H131 C126 0.960 . S
H132 C126 0.959 . S
C133 N134 1.317 . S
C133 N135 1.348 . S
C133 C136 1.485 . S
N134 C133 1.317 . S
N134 N138 1.370 . S
N135 C133 1.348 . S
N135 C137 1.346 . S
C136 C133 1.485 . S
C136 H140 0.960 . S
C136 H141 0.961 . S
C136 H142 0.960 . S
C137 N135 1.346 . S
C137 N138 1.307 . S
C137 C139 1.486 . S
N138 N134 1.370 . S
N138 C137 1.307 . S
C139 C137 1.486 . S
C139 H143 0.960 . S
C139 H144 0.960 . S
C139 H145 0.959 . S
H140 C136 0.960 . S
H141 C136 0.961 . S
H142 C136 0.960 . S
H143 C139 0.960 . S
H144 C139 0.960 . S
H145 C139 0.959 . S
C146 N147 1.317 . S
C146 N148 1.373 . S
C146 C149 1.485 . S
N147 C146 1.317 . S
N147 N151 1.370 . S
N148 C146 1.373 . S
N148 C150 1.350 . S
C149 C146 1.485 . S
C149 H153 0.960 . S
C149 H154 0.961 . S
C149 H155 0.960 . S
C150 N148 1.350 . S
C150 N151 1.307 . S
C150 C152 1.486 1_455 S
N151 N147 1.370 . S
N151 C150 1.307 . S
C152 C150 1.486 1_655 S
C152 H156 0.960 . S
C152 H157 0.960 . S
C152 H158 0.959 . S
H153 C149 0.960 . S
H154 C149 0.961 . S
H155 C149 0.960 . S
H156 C152 0.960 . S
H157 C152 0.960 . S
H158 C152 0.959 . S
C159 N160 1.317 . S
C159 N161 1.348 . S
C159 C162 1.485 . S
N160 C159 1.317 . S
N160 N164 1.370 . S
N161 C159 1.348 . S
N161 C163 1.346 . S
C162 C159 1.485 . S
C162 H166 0.960 . S
C162 H167 0.961 . S
C162 H168 0.960 . S
C163 N161 1.346 . S
C163 N164 1.307 . S
C163 C165 1.486 . S
N164 N160 1.370 . S
N164 C163 1.307 . S
C165 C163 1.486 . S
C165 H169 0.960 . S
C165 H170 0.960 . S
C165 H171 0.959 . S
H166 C162 0.960 . S
H167 C162 0.961 . S
H168 C162 0.960 . S
H169 C165 0.960 . S
H170 C165 0.960 . S
H171 C165 0.959 . S
C172 N173 1.317 . S
C172 N174 1.348 . S
C172 C175 1.485 . S
N173 C172 1.317 . S
N173 N177 1.370 . S
N174 C172 1.348 . S
N174 C176 1.346 . S
C175 C172 1.485 . S
C175 H179 0.960 . S
C175 H180 0.961 . S
C175 H181 0.960 . S
C176 N174 1.346 . S
C176 N177 1.307 . S
C176 C178 1.486 . S
N177 N173 1.370 . S
N177 C176 1.307 . S
C178 C176 1.486 . S
C178 H182 0.960 . S
C178 H183 0.960 . S
C178 H184 0.959 . S
H179 C175 0.960 . S
H180 C175 0.961 . S
H181 C175 0.960 . S
H182 C178 0.960 . S
H183 C178 0.960 . S
H184 C178 0.959 . S
C185 N186 1.317 . S
C185 N187 1.348 . S
C185 C188 1.485 . S
N186 C185 1.317 . S
N186 N190 1.370 . S
N187 C185 1.348 . S
N187 C189 1.346 . S
C188 C185 1.485 . S
C188 H192 0.960 . S
C188 H193 0.961 . S
C188 H194 0.960 . S
C189 N187 1.346 . S
C189 N190 1.307 . S
C189 C191 1.486 . S
N190 N186 1.370 . S
N190 C189 1.307 . S
C191 C189 1.486 . S
C191 H195 0.960 . S
C191 H196 0.960 . S
C191 H197 0.959 . S
H192 C188 0.960 . S
H193 C188 0.961 . S
H194 C188 0.960 . S
H195 C191 0.960 . S
H196 C191 0.960 . S
H197 C191 0.959 . S
C198 C199 1.349 . S
C198 C200 1.327 . S
C198 H223 0.950 . S
C199 C198 1.349 . S
C199 C215 1.349 . S
C200 C198 1.327 . S
C200 C219 1.429 . S
C200 H224 0.950 . S
C201 C218 1.574 . S
C201 C220 1.368 . S
C201 H225 0.949 . S
H202 C206 0.949 . S
C203 C204 1.349 . S
C203 C205 1.327 . S
C203 H226 0.950 . S
C204 C203 1.349 . S
C204 C216 1.349 . S
C205 C203 1.327 . S
C205 C221 1.429 . S
C205 H227 0.950 . S
C206 H202 0.949 . S
C206 C214 1.574 . S
C206 C222 1.368 . S
H207 C215 0.950 . S
H208 C213 0.950 . S
H209 C214 0.949 . S
H210 C216 0.950 . S
H211 C217 0.950 . S
H212 C218 0.949 . S
C213 H208 0.950 . S
C213 C215 1.327 . S
C213 C219 1.429 . S
C214 C206 1.574 . S
C214 H209 0.949 . S
C214 C220 1.368 . S
C215 C199 1.349 . S
C215 H207 0.950 . S
C215 C213 1.327 . S
C216 C204 1.349 . S
C216 H210 0.950 . S
C216 C217 1.327 . S
C217 H211 0.950 . S
C217 C216 1.327 . S
C217 C221 1.429 . S
C218 C201 1.574 . S
C218 H212 0.949 . S
C218 C222 1.368 . S
C219 C200 1.429 . S
C219 C213 1.429 . S
C219 C220 1.523 . S
C220 C201 1.368 . S
C220 C214 1.368 . S
C220 C219 1.523 . S
C221 C205 1.429 . S
C221 C217 1.429 . S
C221 C222 1.523 . S
C222 C206 1.368 . S
C222 C218 1.368 . S
C222 C221 1.523 . S
H223 C198 0.950 . S
H224 C200 0.950 . S
H225 C201 0.949 . S
H226 C203 0.950 . S
H227 C205 0.950 . S
C228 C229 1.349 . S
C228 C230 1.327 . S
C228 H253 0.950 . S
C229 C228 1.349 . S
C229 C245 1.349 . S
C230 C228 1.327 . S
C230 C249 1.429 . S
C230 H254 0.950 . S
C231 C248 1.574 . S
C231 C250 1.368 . S
C231 H255 0.949 . S
H232 C236 0.949 . S
C233 C234 1.349 . S
C233 C235 1.327 . S
C233 H256 0.950 . S
C234 C233 1.349 . S
C234 C246 1.349 . S
C235 C233 1.327 . S
C235 C251 1.429 . S
C235 H257 0.950 . S
C236 H232 0.949 . S
C236 C244 1.574 . S
C236 C252 1.368 . S
H237 C245 0.950 . S
H238 C243 0.950 . S
H239 C244 0.949 . S
H240 C246 0.950 . S
H241 C247 0.950 . S
H242 C248 0.949 . S
C243 H238 0.950 . S
C243 C245 1.327 . S
C243 C249 1.429 . S
C244 C236 1.574 . S
C244 H239 0.949 . S
C244 C250 1.368 . S
C245 C229 1.349 . S
C245 H237 0.950 . S
C245 C243 1.327 . S
C246 C234 1.349 . S
C246 H240 0.950 . S
C246 C247 1.327 . S
C247 H241 0.950 . S
C247 C246 1.327 . S
C247 C251 1.429 . S
C248 C231 1.574 . S
C248 H242 0.949 . S
C248 C252 1.368 . S
C249 C230 1.429 . S
C249 C243 1.429 . S
C249 C250 1.523 . S
C250 C231 1.368 . S
C250 C244 1.368 . S
C250 C249 1.523 . S
C251 C235 1.429 . S
C251 C247 1.429 . S
C251 C252 1.523 . S
C252 C236 1.368 . S
C252 C248 1.368 . S
C252 C251 1.523 . S
H253 C228 0.950 . S
H254 C230 0.950 . S
H255 C231 0.949 . S
H256 C233 0.950 . S
H257 C235 0.950 . S
C258 C259 1.349 . S
C258 C260 1.327 . S
C258 H283 0.950 . S
C259 C258 1.349 . S
C259 C275 1.349 . S
C260 C258 1.327 . S
C260 C279 1.429 . S
C260 H284 0.950 . S
C261 C278 1.574 . S
C261 C280 1.368 . S
C261 H285 0.949 . S
H262 C266 0.949 . S
C263 C264 1.349 . S
C263 C265 1.327 . S
C263 H286 0.950 . S
C264 C263 1.349 . S
C264 C276 1.349 . S
C265 C263 1.327 . S
C265 C281 1.429 . S
C265 H287 0.950 . S
C266 H262 0.949 . S
C266 C274 1.574 . S
C266 C282 1.368 . S
H267 C275 0.950 . S
H268 C273 0.950 . S
H269 C274 0.949 . S
H270 C276 0.950 . S
H271 C277 0.950 . S
H272 C278 0.949 . S
C273 H268 0.950 . S
C273 C275 1.327 . S
C273 C279 1.429 . S
C274 C266 1.574 . S
C274 H269 0.949 . S
C274 C280 1.368 . S
C275 C259 1.349 . S
C275 H267 0.950 . S
C275 C273 1.327 . S
C276 C264 1.349 . S
C276 H270 0.950 . S
C276 C277 1.327 . S
C277 H271 0.950 . S
C277 C276 1.327 . S
C277 C281 1.429 . S
C278 C261 1.574 . S
C278 H272 0.949 . S
C278 C282 1.368 . S
C279 C260 1.429 . S
C279 C273 1.429 . S
C279 C280 1.523 . S
C280 C261 1.368 . S
C280 C274 1.368 . S
C280 C279 1.523 . S
C281 C265 1.429 . S
C281 C277 1.429 . S
C281 C282 1.523 . S
C282 C266 1.368 . S
C282 C278 1.368 . S
C282 C281 1.523 . S
H283 C258 0.950 . S
H284 C260 0.950 . S
H285 C261 0.949 . S
H286 C263 0.950 . S
H287 C265 0.950 . S
C288 C289 1.349 . S
C288 C290 1.327 . S
C288 H313 0.950 . S
C289 C288 1.349 . S
C289 C305 1.349 . S
C290 C288 1.327 . S
C290 C309 1.429 . S
C290 H314 0.950 . S
C291 C308 1.574 . S
C291 C310 1.368 . S
C291 H315 0.949 . S
H292 C296 0.949 . S
C293 C294 1.349 . S
C293 C295 1.327 . S
C293 H316 0.950 . S
C294 C293 1.349 . S
C294 C306 1.349 . S
C295 C293 1.327 . S
C295 C311 1.429 . S
C295 H317 0.950 . S
C296 H292 0.949 . S
C296 C304 1.574 . S
C296 C312 1.368 . S
H297 C305 0.950 . S
H298 C303 0.950 . S
H299 C304 0.949 . S
H300 C306 0.950 . S
H301 C307 0.950 . S
H302 C308 0.949 . S
C303 H298 0.950 . S
C303 C305 1.327 . S
C303 C309 1.429 . S
C304 C296 1.574 . S
C304 H299 0.949 . S
C304 C310 1.368 . S
C305 C289 1.349 . S
C305 H297 0.950 . S
C305 C303 1.327 . S
C306 C294 1.349 . S
C306 H300 0.950 . S
C306 C307 1.327 . S
C307 H301 0.950 . S
C307 C306 1.327 . S
C307 C311 1.429 . S
C308 C291 1.574 . S
C308 H302 0.949 . S
C308 C312 1.368 . S
C309 C290 1.429 . S
C309 C303 1.429 . S
C309 C310 1.523 . S
C310 C291 1.368 . S
C310 C304 1.368 . S
C310 C309 1.523 . S
C311 C295 1.429 . S
C311 C307 1.429 . S
C311 C312 1.523 . S
C312 C296 1.368 . S
C312 C308 1.368 . S
C312 C311 1.523 . S
H313 C288 0.950 . S
H314 C290 0.950 . S
H315 C291 0.949 . S
H316 C293 0.950 . S
H317 C295 0.950 . S
C318 C319 1.349 . S
C318 C320 1.327 . S
C318 H343 0.950 . S
C319 C318 1.349 . S
C319 C335 1.349 . S
C320 C318 1.327 . S
C320 C339 1.429 . S
C320 H344 0.950 . S
C321 C338 1.574 . S
C321 C340 1.368 . S
C321 H345 0.949 . S
H322 C326 0.949 . S
C323 C324 1.349 . S
C323 C325 1.327 . S
C323 H346 0.950 . S
C324 C323 1.349 . S
C324 C336 1.349 . S
C325 C323 1.327 . S
C325 C341 1.429 . S
C325 H347 0.950 . S
C326 H322 0.949 . S
C326 C334 1.574 . S
C326 C342 1.368 . S
H327 C335 0.950 . S
H328 C333 0.950 . S
H329 C334 0.949 . S
H330 C336 0.950 . S
H331 C337 0.950 . S
H332 C338 0.949 . S
C333 H328 0.950 . S
C333 C335 1.327 . S
C333 C339 1.429 . S
C334 C326 1.574 . S
C334 H329 0.949 . S
C334 C340 1.368 . S
C335 C319 1.349 . S
C335 H327 0.950 . S
C335 C333 1.327 . S
C336 C324 1.349 . S
C336 H330 0.950 . S
C336 C337 1.327 . S
C337 H331 0.950 . S
C337 C336 1.327 . S
C337 C341 1.429 . S
C338 C321 1.574 . S
C338 H332 0.949 . S
C338 C342 1.368 . S
C339 C320 1.429 . S
C339 C333 1.429 . S
C339 C340 1.523 . S
C340 C321 1.368 . S
C340 C334 1.368 . S
C340 C339 1.523 . S
C341 C325 1.429 . S
C341 C337 1.429 . S
C341 C342 1.523 . S
C342 C326 1.368 . S
C342 C338 1.368 . S
C342 C341 1.523 . S
H343 C318 0.950 . S
H344 C320 0.950 . S
H345 C321 0.949 . S
H346 C323 0.950 . S
H347 C325 0.950 . S
C348 C349 1.349 . S
C348 C350 1.327 . S
C348 H373 0.950 . S
C349 C348 1.349 . S
C349 C365 1.349 . S
C350 C348 1.327 . S
C350 C369 1.429 . S
C350 H374 0.950 . S
C351 C368 1.574 . S
C351 C370 1.368 . S
C351 H375 0.949 . S
H352 C356 0.949 . S
C353 C354 1.349 . S
C353 C355 1.327 . S
C353 H376 0.950 . S
C354 C353 1.349 . S
C354 C366 1.349 . S
C355 C353 1.327 . S
C355 C371 1.429 . S
C355 H377 0.950 . S
C356 H352 0.949 . S
C356 C364 1.574 . S
C356 C372 1.368 . S
H357 C365 0.950 . S
H358 C363 0.950 . S
H359 C364 0.949 . S
H360 C366 0.950 . S
H361 C367 0.950 . S
H362 C368 0.949 . S
C363 H358 0.950 . S
C363 C365 1.327 . S
C363 C369 1.429 . S
C364 C356 1.574 . S
C364 H359 0.949 . S
C364 C370 1.368 . S
C365 C349 1.349 . S
C365 H357 0.950 . S
C365 C363 1.327 . S
C366 C354 1.349 . S
C366 H360 0.950 . S
C366 C367 1.327 . S
C367 H361 0.950 . S
C367 C366 1.327 . S
C367 C371 1.429 . S
C368 C351 1.574 . S
C368 H362 0.949 . S
C368 C372 1.368 . S
C369 C350 1.429 . S
C369 C363 1.429 . S
C369 C370 1.523 . S
C370 C351 1.368 . S
C370 C364 1.368 . S
C370 C369 1.523 . S
C371 C355 1.429 . S
C371 C367 1.429 . S
C371 C372 1.523 . S
C372 C356 1.368 . S
C372 C368 1.368 . S
C372 C371 1.523 . S
H373 C348 0.950 . S
H374 C350 0.950 . S
H375 C351 0.949 . S
H376 C353 0.950 . S
H377 C355 0.950 . S
C378 C379 1.349 . S
C378 C380 1.327 . S
C378 H403 0.950 . S
C379 C378 1.349 . S
C379 C395 1.349 . S
C380 C378 1.327 . S
C380 C399 1.429 . S
C380 H404 0.950 . S
C381 C398 1.574 . S
C381 C400 1.368 . S
C381 H405 0.949 . S
H382 C386 0.949 . S
C383 C384 1.349 . S
C383 C385 1.327 . S
C383 H406 0.950 . S
C384 C383 1.349 . S
C384 C396 1.349 . S
C385 C383 1.327 . S
C385 C401 1.429 . S
C385 H407 0.950 . S
C386 H382 0.949 . S
C386 C394 1.574 . S
C386 C402 1.368 . S
H387 C395 0.950 . S
H388 C393 0.950 . S
H389 C394 0.949 . S
H390 C396 0.950 . S
H391 C397 0.950 . S
H392 C398 0.949 . S
C393 H388 0.950 . S
C393 C395 1.327 . S
C393 C399 1.429 . S
C394 C386 1.574 . S
C394 H389 0.949 . S
C394 C400 1.368 . S
C395 C379 1.349 . S
C395 H387 0.950 . S
C395 C393 1.327 . S
C396 C384 1.349 . S
C396 H390 0.950 . S
C396 C397 1.327 . S
C397 H391 0.950 . S
C397 C396 1.327 . S
C397 C401 1.429 . S
C398 C381 1.574 . S
C398 H392 0.949 . S
C398 C402 1.368 . S
C399 C380 1.429 . S
C399 C393 1.429 . S
C399 C400 1.523 . S
C400 C381 1.368 . S
C400 C394 1.368 . S
C400 C399 1.523 . S
C401 C385 1.429 . S
C401 C397 1.429 . S
C401 C402 1.523 . S
C402 C386 1.368 . S
C402 C398 1.368 . S
C402 C401 1.523 . S
H403 C378 0.950 . S
H404 C380 0.950 . S
H405 C381 0.949 . S
H406 C383 0.950 . S
H407 C385 0.950 . S
C408 C409 1.349 . S
C408 C410 1.327 . S
C408 H433 0.950 . S
C409 C408 1.349 . S
C409 C425 1.349 . S
C410 C408 1.327 . S
C410 C429 1.429 . S
C410 H434 0.950 . S
C411 C428 1.574 . S
C411 C430 1.368 . S
C411 H435 0.949 . S
H412 C416 0.949 . S
C413 C414 1.349 1_655 S
C413 C415 1.327 . S
C413 H436 0.950 . S
C414 C413 1.349 1_455 S
C414 C426 1.349 . S
C415 C413 1.327 . S
C415 C431 1.429 . S
C415 H437 0.950 . S
C416 H412 0.949 . S
C416 C424 1.574 . S
C416 C432 1.368 . S
H417 C425 0.950 . S
H418 C423 0.950 . S
H419 C424 0.949 . S
H420 C426 0.950 . S
H421 C427 0.950 . S
H422 C428 0.949 . S
C423 H418 0.950 . S
C423 C425 1.327 . S
C423 C429 1.429 . S
C424 C416 1.574 . S
C424 H419 0.949 . S
C424 C430 1.368 . S
C425 C409 1.349 . S
C425 H417 0.950 . S
C425 C423 1.327 . S
C426 C414 1.349 . S
C426 H420 0.950 . S
C426 C427 1.327 1_455 S
C427 H421 0.950 . S
C427 C426 1.327 1_655 S
C427 C431 1.429 . S
C428 C411 1.574 . S
C428 H422 0.949 . S
C428 C432 1.368 . S
C429 C410 1.429 . S
C429 C423 1.429 . S
C429 C430 1.523 . S
C430 C411 1.368 . S
C430 C424 1.368 . S
C430 C429 1.523 . S
C431 C415 1.429 . S
C431 C427 1.429 . S
C431 C432 1.523 . S
C432 C416 1.368 . S
C432 C428 1.368 . S
C432 C431 1.523 . S
H433 C408 0.950 . S
H434 C410 0.950 . S
H435 C411 0.949 . S
H436 C413 0.950 . S
H437 C415 0.950 . S
C438 C439 1.349 . S
C438 C440 1.327 . S
C438 H463 0.950 . S
C439 C438 1.349 . S
C439 C455 1.349 . S
C440 C438 1.327 . S
C440 C459 1.429 . S
C440 H464 0.950 . S
C441 C458 1.574 . S
C441 C460 1.368 . S
C441 H465 0.949 . S
H442 C446 0.949 . S
C443 C444 1.349 . S
C443 C445 1.327 . S
C443 H466 0.950 . S
C444 C443 1.349 . S
C444 C456 1.349 . S
C445 C443 1.327 . S
C445 C461 1.429 . S
C445 H467 0.950 . S
C446 H442 0.949 . S
C446 C454 1.574 . S
C446 C462 1.368 . S
H447 C455 0.950 . S
H448 C453 0.950 . S
H449 C454 0.949 . S
H450 C456 0.950 . S
H451 C457 0.950 . S
H452 C458 0.949 . S
C453 H448 0.950 . S
C453 C455 1.327 . S
C453 C459 1.429 . S
C454 C446 1.574 . S
C454 H449 0.949 . S
C454 C460 1.368 . S
C455 C439 1.349 . S
C455 H447 0.950 . S
C455 C453 1.327 . S
C456 C444 1.349 . S
C456 H450 0.950 . S
C456 C457 1.327 . S
C457 H451 0.950 . S
C457 C456 1.327 . S
C457 C461 1.429 . S
C458 C441 1.574 . S
C458 H452 0.949 . S
C458 C462 1.368 . S
C459 C440 1.429 . S
C459 C453 1.429 . S
C459 C460 1.523 . S
C460 C441 1.368 . S
C460 C454 1.368 . S
C460 C459 1.523 . S
C461 C445 1.429 . S
C461 C457 1.429 . S
C461 C462 1.523 . S
C462 C446 1.368 . S
C462 C458 1.368 . S
C462 C461 1.523 . S
H463 C438 0.950 . S
H464 C440 0.950 . S
H465 C441 0.949 . S
H466 C443 0.950 . S
H467 C445 0.950 . S
C468 C469 1.349 . S
C468 C470 1.327 . S
C468 H493 0.950 . S
C469 C468 1.349 . S
C469 C485 1.349 . S
C470 C468 1.327 . S
C470 C489 1.429 . S
C470 H494 0.950 . S
C471 C488 1.574 . S
C471 C490 1.368 . S
C471 H495 0.949 . S
H472 C476 0.949 . S
C473 C474 1.349 . S
C473 C475 1.327 . S
C473 H496 0.950 . S
C474 C473 1.349 . S
C474 C486 1.349 . S
C475 C473 1.327 . S
C475 C491 1.429 . S
C475 H497 0.950 . S
C476 H472 0.949 . S
C476 C484 1.574 . S
C476 C492 1.368 . S
H477 C485 0.950 . S
H478 C483 0.950 . S
H479 C484 0.949 . S
H480 C486 0.950 . S
H481 C487 0.950 . S
H482 C488 0.949 . S
C483 H478 0.950 . S
C483 C485 1.327 . S
C483 C489 1.429 . S
C484 C476 1.574 . S
C484 H479 0.949 . S
C484 C490 1.368 . S
C485 C469 1.349 . S
C485 H477 0.950 . S
C485 C483 1.327 . S
C486 C474 1.349 . S
C486 H480 0.950 . S
C486 C487 1.327 . S
C487 H481 0.950 . S
C487 C486 1.327 . S
C487 C491 1.429 . S
C488 C471 1.574 . S
C488 H482 0.949 . S
C488 C492 1.368 . S
C489 C470 1.429 . S
C489 C483 1.429 . S
C489 C490 1.523 . S
C490 C471 1.368 . S
C490 C484 1.368 . S
C490 C489 1.523 . S
C491 C475 1.429 . S
C491 C487 1.429 . S
C491 C492 1.523 . S
C492 C476 1.368 . S
C492 C488 1.368 . S
C492 C491 1.523 . S
H493 C468 0.950 . S
H494 C470 0.950 . S
H495 C471 0.949 . S
H496 C473 0.950 . S
H497 C475 0.950 . S
C498 C499 1.349 . S
C498 C500 1.327 . S
C498 H523 0.950 . S
C499 C498 1.349 . S
C499 C515 1.349 . S
C500 C498 1.327 . S
C500 C519 1.429 . S
C500 H524 0.950 . S
C501 C518 1.574 . S
C501 C520 1.368 . S
C501 H525 0.949 . S
H502 C506 0.949 . S
C503 C504 1.349 . S
C503 C505 1.327 . S
C503 H526 0.950 . S
C504 C503 1.349 . S
C504 C516 1.349 . S
C505 C503 1.327 . S
C505 C521 1.429 . S
C505 H527 0.950 . S
C506 H502 0.949 . S
C506 C514 1.574 . S
C506 C522 1.368 . S
H507 C515 0.950 . S
H508 C513 0.950 . S
H509 C514 0.949 . S
H510 C516 0.950 . S
H511 C517 0.950 . S
H512 C518 0.949 . S
C513 H508 0.950 . S
C513 C515 1.327 . S
C513 C519 1.429 . S
C514 C506 1.574 . S
C514 H509 0.949 . S
C514 C520 1.368 . S
C515 C499 1.349 . S
C515 H507 0.950 . S
C515 C513 1.327 . S
C516 C504 1.349 . S
C516 H510 0.950 . S
C516 C517 1.327 . S
C517 H511 0.950 . S
C517 C516 1.327 . S
C517 C521 1.429 . S
C518 C501 1.574 . S
C518 H512 0.949 . S
C518 C522 1.368 . S
C519 C500 1.429 . S
C519 C513 1.429 . S
C519 C520 1.523 . S
C520 C501 1.368 . S
C520 C514 1.368 . S
C520 C519 1.523 . S
C521 C505 1.429 . S
C521 C517 1.429 . S
C521 C522 1.523 . S
C522 C506 1.368 . S
C522 C518 1.368 . S
C522 C521 1.523 . S
H523 C498 0.950 . S
H524 C500 0.950 . S
H525 C501 0.949 . S
H526 C503 0.950 . S
H527 C505 0.950 . S
C528 C529 1.349 . S
C528 C530 1.327 . S
C528 H553 0.950 . S
C529 C528 1.349 . S
C529 C545 1.349 . S
C530 C528 1.327 . S
C530 C549 1.429 . S
C530 H554 0.950 . S
C531 C548 1.574 . S
C531 C550 1.368 . S
C531 H555 0.949 . S
H532 C536 0.949 . S
C533 C534 1.349 . S
C533 C535 1.327 . S
C533 H556 0.950 . S
C534 C533 1.349 . S
C534 C546 1.349 . S
C535 C533 1.327 . S
C535 C551 1.429 . S
C535 H557 0.950 . S
C536 H532 0.949 . S
C536 C544 1.574 . S
C536 C552 1.368 . S
H537 C545 0.950 . S
H538 C543 0.950 . S
H539 C544 0.949 . S
H540 C546 0.950 . S
H541 C547 0.950 . S
H542 C548 0.949 . S
C543 H538 0.950 . S
C543 C545 1.327 . S
C543 C549 1.429 . S
C544 C536 1.574 . S
C544 H539 0.949 . S
C544 C550 1.368 . S
C545 C529 1.349 . S
C545 H537 0.950 . S
C545 C543 1.327 . S
C546 C534 1.349 . S
C546 H540 0.950 . S
C546 C547 1.327 . S
C547 H541 0.950 . S
C547 C546 1.327 . S
C547 C551 1.429 . S
C548 C531 1.574 . S
C548 H542 0.949 . S
C548 C552 1.368 . S
C549 C530 1.429 . S
C549 C543 1.429 . S
C549 C550 1.523 . S
C550 C531 1.368 . S
C550 C544 1.368 . S
C550 C549 1.523 . S
C551 C535 1.429 . S
C551 C547 1.429 . S
C551 C552 1.523 . S
C552 C536 1.368 . S
C552 C548 1.368 . S
C552 C551 1.523 . S
H553 C528 0.950 . S
H554 C530 0.950 . S
H555 C531 0.949 . S
H556 C533 0.950 . S
H557 C535 0.950 . S
C558 C559 1.349 1_655 S
C558 C560 1.327 . S
C558 H583 0.950 . S
C559 C558 1.349 1_455 S
C559 C575 1.349 . S
C560 C558 1.327 . S
C560 C579 1.429 1_655 S
C560 H584 0.950 . S
C561 C578 1.575 1_554 S
C561 C580 1.368 . S
C561 H585 0.949 . S
H562 C566 0.949 . S
C563 C564 1.349 . S
C563 C565 1.327 . S
C563 H586 0.950 . S
C564 C563 1.349 . S
C564 C576 1.349 . S
C565 C563 1.327 . S
C565 C581 1.429 . S
C565 H587 0.950 . S
C566 H562 0.949 . S
C566 C574 1.574 1_556 S
C566 C582 1.368 1_655 S
H567 C575 0.950 . S
H568 C573 0.950 . S
H569 C574 0.949 . S
H570 C576 0.950 1_655 S
H571 C577 0.940 1_655 S
H572 C578 0.949 . S
C573 H568 0.950 . S
C573 C575 1.327 . S
C573 C579 1.429 . S
C574 C566 1.574 1_554 S
C574 H569 0.949 . S
C574 C580 1.368 1_655 S
C575 C559 1.349 . S
C575 H567 0.950 . S
C575 C573 1.327 . S
C576 C564 1.349 . S
C576 H570 0.950 1_455 S
C576 C577 1.328 . S
C577 H571 0.940 1_455 S
C577 C576 1.328 . S
C577 C581 1.437 . S
C578 C561 1.575 1_556 S
C578 H572 0.949 . S
C578 C582 1.368 . S
C579 C560 1.429 1_455 S
C579 C573 1.429 . S
C579 C580 1.523 . S
C580 C561 1.368 . S
C580 C574 1.368 1_455 S
C580 C579 1.523 . S
C581 C565 1.429 . S
C581 C577 1.437 . S
C581 C582 1.523 . S
C582 C566 1.368 1_455 S
C582 C578 1.368 . S
C582 C581 1.523 . S
H583 C558 0.950 . S
H584 C560 0.950 . S
H585 C561 0.949 . S
H586 C563 0.950 . S
H587 C565 0.950 . S
C588 C589 1.349 . S
C588 C590 1.327 . S
C588 H613 0.950 . S
C589 C588 1.349 . S
C589 C605 1.349 1_545 S
C590 C588 1.327 . S
C590 C609 1.429 . S
C590 H614 0.950 . S
C591 C608 1.574 . S
C591 C610 1.368 1_565 S
C591 H615 0.949 . S
H592 C596 0.949 . S
C593 C594 1.349 1_565 S
C593 C595 1.327 . S
C593 H616 0.950 . S
C594 C593 1.349 1_545 S
C594 C606 1.349 . S
C595 C593 1.327 . S
C595 C611 1.429 1_565 S
C595 H617 0.950 . S
C596 H592 0.949 . S
C596 C604 1.574 . S
C596 C612 1.368 . S
H597 C605 0.950 . S
H598 C603 0.950 . S
H599 C604 0.949 . S
H600 C606 0.950 . S
H601 C607 0.950 . S
H602 C608 0.949 . S
C603 H598 0.950 . S
C603 C605 1.327 . S
C603 C609 1.429 1_565 S
C604 C596 1.574 . S
C604 H599 0.949 . S
C604 C610 1.368 . S
C605 C589 1.349 1_565 S
C605 H597 0.950 . S
C605 C603 1.327 . S
C606 C594 1.349 . S
C606 H600 0.950 . S
C606 C607 1.327 . S
C607 H601 0.950 . S
C607 C606 1.327 . S
C607 C611 1.429 . S
C608 C591 1.574 . S
C608 H602 0.949 . S
C608 C612 1.368 1_565 S
C609 C590 1.429 . S
C609 C603 1.429 1_545 S
C609 C610 1.523 . S
C610 C591 1.368 1_545 S
C610 C604 1.368 . S
C610 C609 1.523 . S
C611 C595 1.429 1_545 S
C611 C607 1.429 . S
C611 C612 1.523 . S
C612 C596 1.368 . S
C612 C608 1.368 1_545 S
C612 C611 1.523 . S
H613 C588 0.950 . S
H614 C590 0.950 . S
H615 C591 0.949 . S
H616 C593 0.950 . S
H617 C595 0.950 . S
C618 C619 1.349 . S
C618 C620 1.327 . S
C618 H643 0.950 . S
C619 C618 1.349 . S
C619 C635 1.349 . S
C620 C618 1.327 . S
C620 C639 1.429 . S
C620 H644 0.950 . S
C621 C638 1.574 . S
C621 C640 1.368 . S
C621 H645 0.949 . S
H622 C626 0.949 . S
C623 C624 1.349 . S
C623 C625 1.327 . S
C623 H646 0.950 . S
C624 C623 1.349 . S
C624 C636 1.349 . S
C625 C623 1.327 . S
C625 C641 1.429 . S
C625 H647 0.950 . S
C626 H622 0.949 . S
C626 C634 1.574 . S
C626 C642 1.368 . S
H627 C635 0.950 . S
H628 C633 0.950 . S
H629 C634 0.949 . S
H630 C636 0.950 . S
H631 C637 0.950 . S
H632 C638 0.949 . S
C633 H628 0.950 . S
C633 C635 1.327 . S
C633 C639 1.429 . S
C634 C626 1.574 . S
C634 H629 0.949 . S
C634 C640 1.368 . S
C635 C619 1.349 . S
C635 H627 0.950 . S
C635 C633 1.327 . S
C636 C624 1.349 . S
C636 H630 0.950 . S
C636 C637 1.327 . S
C637 H631 0.950 . S
C637 C636 1.327 . S
C637 C641 1.429 . S
C638 C621 1.574 . S
C638 H632 0.949 . S
C638 C642 1.368 . S
C639 C620 1.429 . S
C639 C633 1.429 . S
C639 C640 1.523 . S
C640 C621 1.368 . S
C640 C634 1.368 . S
C640 C639 1.523 . S
C641 C625 1.429 . S
C641 C637 1.429 . S
C641 C642 1.523 . S
C642 C626 1.368 . S
C642 C638 1.368 . S
C642 C641 1.523 . S
H643 C618 0.950 . S
H644 C620 0.950 . S
H645 C621 0.949 . S
H646 C623 0.950 . S
H647 C625 0.950 . S
C648 C649 1.349 . S
C648 C650 1.327 . S
C648 H673 0.950 . S
C649 C648 1.349 . S
C649 C665 1.349 1_545 S
C650 C648 1.327 . S
C650 C669 1.429 . S
C650 H674 0.950 . S
C651 C668 1.572 1_565 S
C651 C670 1.357 1_565 S
C651 H675 0.961 . S
H652 C656 0.949 . S
C653 C654 1.349 . S
C653 C655 1.327 . S
C653 H676 0.950 1_545 S
C654 C653 1.349 . S
C654 C666 1.349 . S
C655 C653 1.327 . S
C655 C671 1.429 . S
C655 H677 0.950 1_545 S
C656 H652 0.949 . S
C656 C664 1.574 . S
C656 C672 1.368 . S
H657 C665 0.950 . S
H658 C663 0.950 . S
H659 C664 0.949 . S
H660 C666 0.950 . S
H661 C667 0.950 . S
H662 C668 0.949 1_565 S
C663 H658 0.950 . S
C663 C665 1.327 . S
C663 C669 1.429 1_565 S
C664 C656 1.574 . S
C664 H659 0.949 . S
C664 C670 1.368 . S
C665 C649 1.349 1_565 S
C665 H657 0.950 . S
C665 C663 1.327 . S
C666 C654 1.349 . S
C666 H660 0.950 . S
C666 C667 1.327 . S
C667 H661 0.950 . S
C667 C666 1.327 . S
C667 C671 1.429 . S
C668 C651 1.572 1_545 S
C668 H662 0.949 1_545 S
C668 C672 1.368 . S
C669 C650 1.429 . S
C669 C663 1.429 1_545 S
C669 C670 1.523 . S
C670 C651 1.357 1_545 S
C670 C664 1.368 . S
C670 C669 1.523 . S
C671 C655 1.429 . S
C671 C667 1.429 . S
C671 C672 1.523 . S
C672 C656 1.368 . S
C672 C668 1.368 . S
C672 C671 1.523 . S
H673 C648 0.950 . S
H674 C650 0.950 . S
H675 C651 0.961 . S
H676 C653 0.950 1_565 S
H677 C655 0.950 1_565 S
C678 C679 1.349 . S
C678 C680 1.327 . S
C678 H703 0.950 . S
C679 C678 1.349 . S
C679 C695 1.349 . S
C680 C678 1.327 . S
C680 C699 1.429 . S
C680 H704 0.950 . S
C681 C698 1.574 1_556 S
C681 C700 1.368 . S
C681 H705 0.949 . S
H682 C686 0.949 . S
C683 C684 1.349 . S
C683 C685 1.327 . S
C683 H706 0.950 . S
C684 C683 1.349 . S
C684 C696 1.349 . S
C685 C683 1.327 . S
C685 C701 1.429 . S
C685 H707 0.950 . S
C686 H682 0.949 . S
C686 C694 1.574 1_554 S
C686 C702 1.368 . S
H687 C695 0.950 . S
H688 C693 0.950 . S
H689 C694 0.949 . S
H690 C696 0.950 . S
H691 C697 0.950 . S
H692 C698 0.949 . S
C693 H688 0.950 . S
C693 C695 1.327 . S
C693 C699 1.429 . S
C694 C686 1.574 1_556 S
C694 H689 0.949 . S
C694 C700 1.368 . S
C695 C679 1.349 . S
C695 H687 0.950 . S
C695 C693 1.327 . S
C696 C684 1.349 . S
C696 H690 0.950 . S
C696 C697 1.327 . S
C697 H691 0.950 . S
C697 C696 1.327 . S
C697 C701 1.429 . S
C698 C681 1.574 1_554 S
C698 H692 0.949 . S
C698 C702 1.368 . S
C699 C680 1.429 . S
C699 C693 1.429 . S
C699 C700 1.523 . S
C700 C681 1.368 . S
C700 C694 1.368 . S
C700 C699 1.523 . S
C701 C685 1.429 . S
C701 C697 1.429 . S
C701 C702 1.523 . S
C702 C686 1.368 . S
C702 C698 1.368 . S
C702 C701 1.523 . S
H703 C678 0.950 . S
H704 C680 0.950 . S
H705 C681 0.949 . S
H706 C683 0.950 . S
H707 C685 0.950 . S
C708 C709 1.349 . S
C708 C710 1.327 . S
C708 H733 0.950 . S
C709 C708 1.349 . S
C709 C725 1.355 1_455 S
C710 C708 1.327 . S
C710 C729 1.429 . S
C710 H734 0.950 . S
C711 C728 1.574 . S
C711 C730 1.368 . S
C711 H735 0.949 . S
H712 C716 0.949 . S
C713 C714 1.349 . S
C713 C715 1.327 . S
C713 H736 0.950 . S
C714 C713 1.349 . S
C714 C726 1.349 . S
C715 C713 1.327 . S
C715 C731 1.429 . S
C715 H737 0.950 . S
C716 H712 0.949 . S
C716 C724 1.574 . S
C716 C732 1.368 . S
H717 C725 0.946 . S
H718 C723 0.950 . S
H719 C724 0.949 . S
H720 C726 0.950 . S
H721 C727 0.950 . S
H722 C728 0.949 . S
C723 H718 0.950 . S
C723 C725 1.325 1_455 S
C723 C729 1.429 . S
C724 C716 1.574 . S
C724 H719 0.949 . S
C724 C730 1.368 . S
C725 C709 1.355 1_655 S
C725 H717 0.946 . S
C725 C723 1.325 1_655 S
C726 C714 1.349 . S
C726 H720 0.950 . S
C726 C727 1.327 . S
C727 H721 0.950 . S
C727 C726 1.327 . S
C727 C731 1.429 . S
C728 C711 1.574 . S
C728 H722 0.949 . S
C728 C732 1.368 . S
C729 C710 1.429 . S
C729 C723 1.429 . S
C729 C730 1.523 . S
C730 C711 1.368 . S
C730 C724 1.368 . S
C730 C729 1.523 . S
C731 C715 1.429 . S
C731 C727 1.429 . S
C731 C732 1.523 . S
C732 C716 1.368 . S
C732 C728 1.368 . S
C732 C731 1.523 . S
H733 C708 0.950 . S
H734 C710 0.950 . S
H735 C711 0.949 . S
H736 C713 0.950 . S
H737 C715 0.950 . S
C199 C12 2.565 . S
C204 N187 2.526 . S
C229 C52 2.785 . S
C234 N160 2.785 1_655 S
C259 C111 2.824 . S
C264 N173 2.825 1_565 S
C289 C31 3.393 . S
C294 N186 3.404 . S
C324 N161 3.110 . S
C319 C71 3.139 . S
C354 N174 3.067 . S
C349 C92 3.094 . S
C379 C48 0.220 . S
C384 N134 0.148 . S
C409 C109 0.396 . S
C414 N148 0.286 . S
C439 C29 0.489 . S
C444 N122 0.404 . S
C474 N135 0.283 . S
C469 C69 0.422 . S
C504 N147 0.545 . S
C499 C88 0.558 . S
C529 C8 0.168 . S
C534 N121 0.199 . S
C564 N151 1.257 . S
C559 C17 1.267 1_455 S
C589 C57 1.312 . S
C594 N125 1.310 . S
C619 C97 1.246 . S
C624 N138 1.272 . S
C654 N177 1.805 . S
C649 C42 1.719 . S
C684 N190 1.729 . S
C679 C82 1.713 . S
C709 C2 1.695 . S
C714 N164 1.758 . S
