# Generated by pormake.
# Topology anh, (6,3)-cn, num edge types: 1
# Building blocks:
#     Node 0, Type 0, BuildingBlock: BETDEL_clean_sbu_0, # of connection points: 6
#     Node 1, Type 0, BuildingBlock: BETDEL_clean_sbu_0, # of connection points: 6
#     Node 2, Type 0, BuildingBlock: BETDEL_clean_sbu_0, # of connection points: 6
#     Node 3, Type 1, BuildingBlock: VETTIZ_charged_linker_0, # of connection points: 3
#     Node 4, Type 1, BuildingBlock: VETTIZ_charged_linker_0, # of connection points: 3
#     Node 5, Type 1, BuildingBlock: VETTIZ_charged_linker_0, # of connection points: 3
#     Node 6, Type 1, BuildingBlock: VETTIZ_charged_linker_0, # of connection points: 3
#     Node 7, Type 1, BuildingBlock: VETTIZ_charged_linker_0, # of connection points: 3
#     Node 8, Type 1, BuildingBlock: VETTIZ_charged_linker_0, # of connection points: 3
#     Edge 9, Type (0, 1), BuildingBlock: AJUNOK_clean_linker_0, # of connection points: 2
#     Edge 10, Type (0, 1), BuildingBlock: AJUNOK_clean_linker_0, # of connection points: 2
#     Edge 11, Type (0, 1), BuildingBlock: AJUNOK_clean_linker_0, # of connection points: 2
#     Edge 12, Type (0, 1), BuildingBlock: AJUNOK_clean_linker_0, # of connection points: 2
#     Edge 13, Type (0, 1), BuildingBlock: AJUNOK_clean_linker_0, # of connection points: 2
#     Edge 14, Type (0, 1), BuildingBlock: AJUNOK_clean_linker_0, # of connection points: 2
#     Edge 15, Type (0, 1), BuildingBlock: AJUNOK_clean_linker_0, # of connection points: 2
#     Edge 16, Type (0, 1), BuildingBlock: AJUNOK_clean_linker_0, # of connection points: 2
#     Edge 17, Type (0, 1), BuildingBlock: AJUNOK_clean_linker_0, # of connection points: 2
#     Edge 18, Type (0, 1), BuildingBlock: AJUNOK_clean_linker_0, # of connection points: 2
#     Edge 19, Type (0, 1), BuildingBlock: AJUNOK_clean_linker_0, # of connection points: 2
#     Edge 20, Type (0, 1), BuildingBlock: AJUNOK_clean_linker_0, # of connection points: 2
#     Edge 21, Type (0, 1), BuildingBlock: AJUNOK_clean_linker_0, # of connection points: 2
#     Edge 22, Type (0, 1), BuildingBlock: AJUNOK_clean_linker_0, # of connection points: 2
#     Edge 23, Type (0, 1), BuildingBlock: AJUNOK_clean_linker_0, # of connection points: 2
#     Edge 24, Type (0, 1), BuildingBlock: AJUNOK_clean_linker_0, # of connection points: 2
#     Edge 25, Type (0, 1), BuildingBlock: AJUNOK_clean_linker_0, # of connection points: 2
#     Edge 26, Type (0, 1), BuildingBlock: AJUNOK_clean_linker_0, # of connection points: 2
# Relax obj value: 0.152
# Max RMSD: 0.168
# Mean RMSD: 0.138
data_MOF--net-anh--node1-BETDEL_clean_sbu_0--node2-VETTIZ_charged_linker_0--edge1-AJUNOK_clean_linker_0
_symmetry_space_group_name_H-M    P1
_symmetry_Int_Tables_number       1
_symmetry_cell_setting            triclinic
loop_
_symmetry_equiv_pos_as_xyz
'x, y, z'
_cell_length_a     28.230047
_cell_length_b     28.164197
_cell_length_c     50.448638
_cell_angle_alpha  90.059499
_cell_angle_beta   89.948861
_cell_angle_gamma 120.05007
loop_
_atom_site_label
_atom_site_type_symbol
_atom_site_fract_x
_atom_site_fract_y
_atom_site_fract_z
_atom_type_partial_charge
Dy0 Dy 0.07392 0.4868 0.16613 0.0
C1 C 0.93755 0.57911 0.18317 0.0
C2 C 0.15257 0.45957 0.15927 0.0
Dy3 Dy 1.00915 0.54765 0.16636 0.0
O4 O 0.12444 0.45135 0.18074 0.0
O5 O 0.13536 0.47984 0.14103 0.0
O6 O 0.04214 0.4553 0.20652 0.0
O7 O 0.05755 0.53378 0.19535 0.0
C8 C 0.03877 0.49791 0.21335 0.0
C9 C 0.02108 0.52515 0.11599 0.0
O10 O 0.09516 0.62346 0.16948 0.0
O11 O 0.14353 0.57706 0.16557 0.0
O12 O 0.97647 0.60537 0.16594 0.0
O13 O 0.94062 0.53764 0.19234 0.0
O14 O 0.99664 0.55206 0.12249 0.0
O15 O 0.0376 0.51306 0.1366 0.0
O16 O 0.98965 0.41269 0.15797 0.0
O17 O 0.94122 0.45666 0.16878 0.0
C18 C 0.14285 0.62416 0.16748 0.0
C19 C 0.9422 0.41069 0.16316 0.0
Dy20 Dy 0.46135 0.0179 0.49799 0.0
C21 C 0.68103 0.16059 0.52483 0.0
C22 C 0.35701 0.93652 0.49123 0.0
Dy23 Dy 0.58706 0.08456 0.50102 0.0
O24 O 0.37653 0.9639 0.51292 0.0
O25 O 0.39368 0.95636 0.47256 0.0
O26 O 0.45853 0.05038 0.53772 0.0
O27 O 0.52198 0.03427 0.5285 0.0
C28 C 0.50323 0.05276 0.54584 0.0
C29 C 0.55711 0.07313 0.44999 0.0
O30 O 0.57822 0.99891 0.50337 0.0
O31 O 0.48359 0.9497 0.49806 0.0
O32 O 0.67817 0.12723 0.50609 0.0
O33 O 0.63197 0.14908 0.53141 0.0
O34 O 0.6081 0.09901 0.45741 0.0
O35 O 0.527 0.0559 0.47014 0.0
O36 O 0.47006 0.10127 0.48939 0.0
O37 O 0.56225 0.15137 0.50057 0.0
C38 C 0.53138 0.95098 0.50076 0.0
C39 C 0.51515 0.14925 0.49436 0.0
Dy40 Dy 0.60582 0.63121 0.83618 0.0
C41 C 0.52809 0.41316 0.85211 0.0
C42 C 0.63059 0.7369 0.84055 0.0
Dy43 Dy 0.54894 0.51124 0.83189 0.0
O44 O 0.60487 0.69917 0.85805 0.0
O45 O 0.64464 0.71736 0.82051 0.0
O46 O 0.64078 0.62331 0.87435 0.0
O47 O 0.55971 0.56566 0.86417 0.0
C48 C 0.59664 0.57907 0.88135 0.0
C49 C 0.5681 0.545 0.78206 0.0
O50 O 0.47111 0.51789 0.83413 0.0
O51 O 0.51738 0.61241 0.83039 0.0
O52 O 0.49949 0.41921 0.83349 0.0
O53 O 0.56611 0.46098 0.86 0.0
O54 O 0.54309 0.49373 0.78897 0.0
O55 O 0.58208 0.57694 0.80193 0.0
O56 O 0.68349 0.62748 0.82887 0.0
O57 O 0.63959 0.53304 0.83156 0.0
C58 C 0.4704 0.56484 0.8318 0.0
C59 C 0.68572 0.58135 0.82967 0.0
C60 C 0.68533 0.15896 0.16837 0.0
C61 C 0.72983 0.20431 0.18233 0.0
C62 C 0.72492 0.20557 0.20992 0.0
C63 C 0.63656 0.12059 0.21011 0.0
C64 C 0.63856 0.11704 0.18287 0.0
C65 C 0.58613 0.0642 0.17334 0.0
H66 H 0.33625 0.83423 0.21648 0.0
C67 C 0.58502 0.07308 0.22045 0.0
C68 C 0.5534 0.03844 0.1993 0.0
H69 H 0.38869 0.86104 0.13514 0.0
H70 H 0.47328 0.94744 0.14788 0.0
H71 H 0.44937 0.8625 0.2399 0.0
H72 H 0.36567 0.95267 0.2288 0.0
H73 H 0.40044 0.97708 0.25889 0.0
H74 H 0.34949 0.90535 0.25564 0.0
H75 H 0.39185 0.85164 0.2596 0.0
H76 H 0.46103 0.90072 0.26899 0.0
C77 C 0.60249 0.02547 0.15997 0.0
C78 C 0.55357 0.07973 0.15436 0.0
C79 C 0.55849 0.06357 0.32052 0.0
C80 C 0.51515 0.02894 0.33747 0.0
C81 C 0.46703 0.9862 0.32604 0.0
C82 C 0.463 0.97719 0.29856 0.0
C83 C 0.50695 0.01206 0.28192 0.0
C84 C 0.55308 0.0549 0.29307 0.0
C85 C 0.59411 0.09023 0.27255 0.0
C86 C 0.56611 0.06032 0.24706 0.0
C87 C 0.5154 0.01444 0.25269 0.0
C88 C 0.64767 0.0889 0.27783 0.0
C89 C 0.59956 0.14798 0.27414 0.0
C90 C 0.3653 0.85825 0.20112 0.0
C91 C 0.35453 0.83997 0.17487 0.0
C92 C 0.39494 0.87354 0.15573 0.0
C93 C 0.44411 0.92357 0.16307 0.0
C94 C 0.4539 0.94074 0.18992 0.0
C95 C 0.41376 0.90704 0.20802 0.0
C96 C 0.42784 0.92769 0.23565 0.0
C97 C 0.48283 0.97905 0.23202 0.0
C98 C 0.5003 0.9891 0.20513 0.0
C99 C 0.43249 0.88354 0.25211 0.0
C100 C 0.38363 0.94113 0.2455 0.0
H101 H 0.68102 0.17018 0.24453 0.0
H102 H 0.68721 0.15599 0.14705 0.0
H103 H 0.54315 0.10871 0.16415 0.0
H104 H 0.51487 0.04294 0.14825 0.0
H105 H 0.57789 0.09977 0.13626 0.0
H106 H 0.62718 0.01577 0.17375 0.0
H107 H 0.62731 0.04478 0.14191 0.0
H108 H 0.56589 0.98638 0.15415 0.0
H109 H 0.59621 0.097 0.32835 0.0
H110 H 0.43195 0.96001 0.33822 0.0
H111 H 0.4255 0.94332 0.29144 0.0
H112 H 0.63868 0.04862 0.28612 0.0
H113 H 0.6743 0.12107 0.29226 0.0
H114 H 0.67133 0.09339 0.2596 0.0
H115 H 0.56211 0.14599 0.28251 0.0
H116 H 0.60409 0.16697 0.25441 0.0
H117 H 0.63447 0.17618 0.28692 0.0
H118 H 0.75707 0.23869 0.22132 0.0
C119 C 0.67975 0.165 0.22356 0.0
C120 C 0.52782 0.69442 0.50144 0.0
C121 C 0.53693 0.7431 0.51556 0.0
C122 C 0.55132 0.74698 0.54234 0.0
C123 C 0.54382 0.65682 0.54198 0.0
C124 C 0.53212 0.65148 0.51522 0.0
C125 C 0.52609 0.59623 0.50533 0.0
H126 H 0.51834 0.35173 0.54807 0.0
C127 C 0.54225 0.60636 0.55206 0.0
C128 C 0.53252 0.56919 0.53094 0.0
H129 H 0.51514 0.39027 0.46585 0.0
H130 H 0.52033 0.4782 0.47885 0.0
H131 H 0.61157 0.46377 0.56399 0.0
H132 H 0.43709 0.38766 0.56769 0.0
H133 H 0.45967 0.42738 0.59659 0.0
H134 H 0.4754 0.37323 0.5914 0.0
H135 H 0.57085 0.41199 0.58783 0.0
H136 H 0.5985 0.4839 0.59464 0.0
C137 C 0.57211 0.60841 0.48548 0.0
C138 C 0.46948 0.56025 0.49281 0.0
C139 C 0.5644 0.59652 0.65187 0.0
C140 C 0.56023 0.55481 0.66869 0.0
C141 C 0.54643 0.50354 0.65753 0.0
C142 C 0.53863 0.49445 0.63023 0.0
C143 C 0.54411 0.53684 0.61352 0.0
C144 C 0.5556 0.58629 0.62453 0.0
C145 C 0.55708 0.62546 0.60399 0.0
C146 C 0.54598 0.59186 0.57864 0.0
C147 C 0.53928 0.54046 0.58435 0.0
C148 C 0.61561 0.67653 0.60413 0.0
C149 C 0.50997 0.63707 0.6106 0.0
C150 C 0.51819 0.37811 0.53249 0.0
C151 C 0.51548 0.36227 0.50595 0.0
C152 C 0.51707 0.40032 0.48668 0.0
C153 C 0.52014 0.45142 0.49415 0.0
C154 C 0.52276 0.46598 0.52127 0.0
C155 C 0.52191 0.42844 0.53947 0.0
C156 C 0.52637 0.44748 0.56729 0.0
C157 C 0.53161 0.50319 0.56364 0.0
C158 C 0.52876 0.51604 0.53665 0.0
C159 C 0.57915 0.45179 0.57932 0.0
C160 C 0.47223 0.40691 0.5817 0.0
H161 H 0.56545 0.71256 0.57578 0.0
H162 H 0.51728 0.6898 0.48061 0.0
H163 H 0.43668 0.55274 0.50725 0.0
H164 H 0.46409 0.51999 0.48667 0.0
H165 H 0.46437 0.5806 0.47507 0.0
H166 H 0.61276 0.63543 0.49466 0.0
H167 H 0.56835 0.62943 0.46765 0.0
H168 H 0.57084 0.57025 0.47901 0.0
H169 H 0.57516 0.63654 0.65962 0.0
H170 H 0.54164 0.47011 0.66999 0.0
H171 H 0.52925 0.45472 0.62332 0.0
H172 H 0.64669 0.66585 0.6108 0.0
H173 H 0.61819 0.70889 0.61765 0.0
H174 H 0.62965 0.69416 0.58411 0.0
H175 H 0.47543 0.6016 0.62082 0.0
H176 H 0.49087 0.64315 0.59278 0.0
H177 H 0.5243 0.67322 0.62384 0.0
H178 H 0.55908 0.78287 0.55372 0.0
C179 C 0.55482 0.7052 0.55531 0.0
C180 C 0.21839 0.56953 0.8356 0.0
C181 C 0.25991 0.56373 0.8498 0.0
C182 C 0.25125 0.55274 0.87702 0.0
C183 C 0.16691 0.5568 0.87671 0.0
C184 C 0.17158 0.56574 0.84969 0.0
C185 C 0.12157 0.57043 0.83999 0.0
H186 H 0.87953 0.56714 0.88302 0.0
C187 C 0.1171 0.55642 0.88689 0.0
C188 C 0.08823 0.56377 0.86572 0.0
H189 H 0.92868 0.58544 0.80123 0.0
H190 H 1.01084 0.57922 0.81393 0.0
H191 H 0.90154 0.47329 0.89543 0.0
H192 H 0.99215 0.64754 0.90544 0.0
H193 H 1.0075 0.62225 0.93384 0.0
H194 H 0.93741 0.60345 0.92718 0.0
H195 H 0.88686 0.50783 0.92125 0.0
H196 H 0.93395 0.48286 0.92611 0.0
C197 C 0.08776 0.52403 0.82027 0.0
C198 C 0.14148 0.62695 0.82741 0.0
C199 C 0.08621 0.53554 0.98693 0.0
C200 C 0.04438 0.53215 0.00331 0.0
C201 C 1.00112 0.53616 0.99184 0.0
C202 C 0.99927 0.54319 0.96451 0.0
C203 C 0.04101 0.54601 0.94813 0.0
C204 C 0.08337 0.54211 0.95946 0.0
C205 C 0.12308 0.54432 0.93903 0.0
C206 C 0.09812 0.55113 0.91346 0.0
C207 C 0.05024 0.55213 0.91899 0.0
C208 C 0.12187 0.48848 0.93995 0.0
C209 C 0.17945 0.59565 0.94521 0.0
C210 C 0.90755 0.57044 0.86749 0.0
C211 C 0.89669 0.57778 0.84119 0.0
C212 C 0.93504 0.58002 0.8219 0.0
C213 C 0.98281 0.5765 0.82921 0.0
C214 C 0.99278 0.56986 0.85614 0.0
C215 C 0.95416 0.56681 0.87429 0.0
C216 C 0.96728 0.55944 0.90191 0.0
C217 C 0.01991 0.5584 0.89829 0.0
C218 C 0.0372 0.56439 0.87141 0.0
C219 C 0.92006 0.5033 0.91196 0.0
C220 C 0.97624 0.61034 0.91814 0.0
H221 H 0.20496 0.5418 0.91095 0.0
H222 H 0.22275 0.57769 0.81453 0.0
H223 H 0.16678 0.66008 0.84175 0.0
H224 H 0.10637 0.63187 0.82145 0.0
H225 H 0.16674 0.63226 0.80955 0.0
H226 H 0.07455 0.48345 0.8295 0.0
H227 H 0.11235 0.52794 0.80234 0.0
H228 H 0.05062 0.52492 0.81398 0.0
H229 H 0.11976 0.5321 0.9952 0.0
H230 H 0.9687 0.53421 0.00414 0.0
H231 H 0.96502 0.54592 0.95736 0.0
H232 H 0.08287 0.4552 0.9484 0.0
H233 H 0.15568 0.49117 0.95229 0.0
H234 H 0.12382 0.47324 0.91995 0.0
H235 H 0.17436 0.62964 0.95327 0.0
H236 H 0.20532 0.61347 0.92745 0.0
H237 H 0.20238 0.58619 0.96016 0.0
H238 H 0.28038 0.54709 0.88861 0.0
C239 C 0.20632 0.54943 0.8902 0.0
C240 C 0.89116 0.41215 0.49928 0.0
C241 C 0.84575 0.36498 0.48933 0.0
C242 C 0.83591 0.35873 0.46187 0.0
C243 C 0.91784 0.44551 0.45427 0.0
C244 C 0.92645 0.45217 0.48137 0.0
C245 C 0.97665 0.50543 0.48831 0.0
H246 H 0.19915 0.73619 0.44584 0.0
C247 C 0.9627 0.49341 0.44108 0.0
C248 C 0.9972 0.52879 0.46092 0.0
H249 H 0.15066 0.68786 0.52702 0.0
H250 H 0.06975 0.60451 0.51185 0.0
H251 H 0.17017 0.6169 0.42443 0.0
H252 H 0.08921 0.71138 0.42564 0.0
H253 H 0.06719 0.6734 0.39617 0.0
H254 H 0.13908 0.72201 0.40084 0.0
H255 H 0.19068 0.67683 0.4045 0.0
H256 H 0.14055 0.60953 0.39303 0.0
C257 C 0.01681 0.49245 0.50321 0.0
C258 C 0.95857 0.54068 0.50427 0.0
C259 C 0.97844 0.50084 0.34054 0.0
C260 C 0.01694 0.5404 0.32322 0.0
C261 C 0.0593 0.59002 0.33347 0.0
C262 C 0.06405 0.59976 0.36072 0.0
C263 C 0.02631 0.55926 0.37793 0.0
C264 C 0.98377 0.51125 0.36781 0.0
C265 C 0.94709 0.47362 0.38926 0.0
C266 C 0.97552 0.50673 0.4139 0.0
C267 C 0.02206 0.5562 0.40699 0.0
C268 C 0.94891 0.41963 0.38786 0.0
C269 C 0.88924 0.46625 0.38559 0.0
C270 C 0.17154 0.70712 0.46037 0.0
C271 C 0.18125 0.7171 0.48749 0.0
C272 C 0.14375 0.67989 0.50596 0.0
C273 C 0.09709 0.63201 0.49708 0.0
C274 C 0.08829 0.62245 0.4696 0.0
C275 C 0.12533 0.66006 0.45192 0.0
C276 C 0.10989 0.6451 0.42358 0.0
C277 C 0.05692 0.59177 0.42688 0.0
C278 C 0.04456 0.57834 0.45374 0.0
C279 C 0.15505 0.6369 0.41044 0.0
C280 C 0.10116 0.69023 0.41067 0.0
H281 H 0.86268 0.39155 0.4235 0.0
H282 H 0.89895 0.41761 0.52041 0.0
H283 H 0.91917 0.53514 0.49658 0.0
H284 H 0.98766 0.58512 0.50261 0.0
H285 H 0.9526 0.52893 0.52554 0.0
H286 H 0.01555 0.45527 0.49483 0.0
H287 H 1.00607 0.48463 0.52456 0.0
H288 H 0.05992 0.52524 0.50138 0.0
H289 H 0.94546 0.46237 0.33303 0.0
H290 H 0.08997 0.62054 0.32046 0.0
H291 H 0.09776 0.63797 0.36729 0.0
H292 H 0.99165 0.42851 0.38488 0.0
H293 H 0.92392 0.39368 0.37106 0.0
H294 H 0.93478 0.39523 0.40622 0.0
H295 H 0.89118 0.50232 0.37552 0.0
H296 H 0.86866 0.4633 0.40469 0.0
H297 H 0.8628 0.42948 0.37339 0.0
H298 H 0.80073 0.32223 0.45407 0.0
C299 C 0.87183 0.39878 0.44423 0.0
C300 C 0.58692 0.94859 0.82446 0.0
C301 C 0.59015 0.90646 0.81137 0.0
C302 C 0.57931 0.89789 0.7841 0.0
C303 C 0.56923 0.97769 0.78223 0.0
C304 C 0.57648 0.98399 0.8094 0.0
C305 C 0.57452 0.03327 0.81937 0.0
H306 H 0.56373 0.26169 0.79055 0.0
C307 C 0.56595 0.02448 0.77186 0.0
C308 C 0.56874 0.05719 0.79344 0.0
H309 H 0.56102 0.19545 0.86807 0.0
H310 H 0.5666 0.12004 0.84788 0.0
H311 H 0.65466 0.24362 0.76574 0.0
H312 H 0.47927 0.14704 0.76386 0.0
H313 H 0.50307 0.14787 0.73156 0.0
H314 H 0.51805 0.21148 0.74704 0.0
H315 H 0.61501 0.25818 0.74287 0.0
H316 H 0.63864 0.21101 0.73472 0.0
C317 C 0.62937 0.07201 0.83343 0.0
C318 C 0.52328 0.01307 0.83726 0.0
C319 C 0.55858 0.04744 0.67244 0.0
C320 C 0.55975 0.08945 0.65698 0.0
C321 C 0.56625 0.1371 0.66946 0.0
C322 C 0.56968 0.14219 0.69702 0.0
C323 C 0.56657 0.09915 0.71231 0.0
C324 C 0.56236 0.05334 0.70001 0.0
C325 C 0.56222 0.01303 0.71954 0.0
C326 C 0.56524 0.04161 0.74555 0.0
C327 C 0.56728 0.09161 0.74113 0.0
C328 C 0.61425 1.00886 0.71439 0.0
C329 C 0.50746 0.95812 0.7167 0.0
C330 C 0.56478 0.23106 0.80314 0.0
C331 C 0.56209 0.23397 0.83079 0.0
C332 C 0.56276 0.19335 0.84668 0.0
C333 C 0.56595 0.14987 0.83492 0.0
C334 C 0.56804 0.14725 0.8071 0.0
C335 C 0.5674 0.18748 0.79176 0.0
C336 C 0.56801 0.1775 0.76259 0.0
C337 C 0.56822 0.12395 0.76284 0.0
C338 C 0.56863 0.10667 0.78887 0.0
C339 C 0.62152 0.225 0.75065 0.0
C340 C 0.51463 0.1709 0.75038 0.0
H341 H 0.56127 0.92509 0.74863 0.0
H342 H 0.59428 0.95488 0.84559 0.0
H343 H 0.49037 0.97132 0.83141 0.0
H344 H 0.5042 0.03896 0.83552 0.0
H345 H 0.53328 0.01113 0.85837 0.0
H346 H 0.66439 0.07509 0.82187 0.0
H347 H 0.63062 0.05649 0.8535 0.0
H348 H 0.6374 0.11443 0.83533 0.0
H349 H 0.55301 0.01007 0.66341 0.0
H350 H 0.56764 0.1701 0.65783 0.0
H351 H 0.57377 0.1791 0.70534 0.0
H352 H 0.64883 0.04878 0.7075 0.0
H353 H 0.60672 0.97784 0.69888 0.0
H354 H 0.63007 0.99927 0.73236 0.0
H355 H 0.47349 0.9655 0.71126 0.0
H356 H 0.49405 0.93469 0.73544 0.0
H357 H 0.51019 0.93184 0.70105 0.0
H358 H 0.58045 0.86443 0.77405 0.0
C359 C 0.56845 0.93315 0.76944 0.0
C360 C 0.67794 0.51591 0.16405 0.0
C361 C 0.72325 0.51616 0.15252 0.0
C362 C 0.71961 0.49622 0.12658 0.0
C363 C 0.63201 0.48997 0.1215 0.0
C364 C 0.63227 0.50231 0.14809 0.0
C365 C 0.58139 0.50352 0.15587 0.0
H366 H 0.36254 0.51913 0.11444 0.0
C367 C 0.58569 0.49065 0.1088 0.0
C368 C 0.55532 0.49787 0.12884 0.0
H369 H 0.39662 0.49151 0.19465 0.0
H370 H 0.48034 0.49479 0.1795 0.0
H371 H 0.48524 0.6078 0.09791 0.0
H372 H 0.38244 0.43375 0.08944 0.0
H373 H 0.417 0.45748 0.05918 0.0
H374 H 0.3733 0.4827 0.07068 0.0
H375 H 0.43514 0.57831 0.0721 0.0
H376 H 0.5044 0.59213 0.06749 0.0
C377 C 0.59789 0.55935 0.16902 0.0
C378 C 0.54604 0.45339 0.17389 0.0
C379 C 0.58085 0.50302 0.00836 0.0
C380 C 0.55117 0.51809 0.99136 0.0
C381 C 0.51046 0.52747 0.00205 0.0
C382 C 0.50005 0.5228 0.02925 0.0
C383 C 0.5309 0.50894 0.04605 0.0
C384 C 0.57086 0.49987 0.03563 0.0
C385 C 0.6034 0.49149 0.05683 0.0
C386 C 0.57444 0.49444 0.08169 0.0
C387 C 0.53217 0.50451 0.07505 0.0
C388 C 0.663 0.53998 0.05479 0.0
C389 C 0.59735 0.4341 0.05307 0.0
C390 C 0.38867 0.51527 0.12897 0.0
C391 C 0.37365 0.50557 0.15568 0.0
C392 C 0.40769 0.4989 0.17389 0.0
C393 C 0.45577 0.50055 0.16507 0.0
C394 C 0.46899 0.50846 0.13791 0.0
C395 C 0.43551 0.51575 0.1205 0.0
C396 C 0.45208 0.51852 0.09215 0.0
C397 C 0.49993 0.50922 0.09513 0.0
C398 C 0.51072 0.5049 0.12188 0.0
C399 C 0.46987 0.57693 0.08164 0.0
C400 C 0.40389 0.47106 0.07683 0.0
H401 H 0.67388 0.46962 0.09105 0.0
H402 H 0.67966 0.52949 0.18429 0.0
H403 H 0.55685 0.42067 0.1715 0.0
H404 H 0.50198 0.43325 0.16885 0.0
H405 H 0.5515 0.46521 0.19516 0.0
H406 H 0.62858 0.59365 0.15662 0.0
H407 H 0.61616 0.56242 0.18888 0.0
H408 H 0.56299 0.56625 0.17156 0.0
H409 H 0.61209 0.4951 0.00072 0.0
H410 H 0.48764 0.54 0.98942 0.0
H411 H 0.46898 0.53109 0.03612 0.0
H412 H 0.66339 0.57942 0.05221 0.0
H413 H 0.68428 0.53475 0.03746 0.0
H414 H 0.68793 0.54587 0.07252 0.0
H415 H 0.55731 0.4049 0.04387 0.0
H416 H 0.59764 0.41483 0.07213 0.0
H417 H 0.63008 0.4362 0.04004 0.0
H418 H 0.75377 0.49441 0.11785 0.0
C419 C 0.67377 0.48257 0.11103 0.0
C420 C 0.25027 0.52082 0.15071 0.0
C421 C 0.20861 0.47006 0.16001 0.0
C422 C 0.30489 0.5348 0.15253 0.0
C423 C 0.31958 0.49755 0.16272 0.0
H424 H 0.24064 0.55011 0.14196 0.0
H425 H 0.33574 0.5737 0.14431 0.0
S426 S 0.22544 0.36089 0.19149 0.0
N427 N 0.18503 0.38459 0.18218 0.0
N428 N 0.28834 0.40899 0.18373 0.0
C429 C 0.27844 0.4476 0.17328 0.0
C430 C 0.22262 0.43413 0.17219 0.0
C431 C 0.71384 0.25858 0.51886 0.0
C432 C 0.7261 0.21736 0.52551 0.0
C433 C 0.75444 0.30926 0.50932 0.0
C434 C 0.80856 0.32062 0.50697 0.0
H435 H 0.67182 0.24978 0.51824 0.0
H436 H 0.74276 0.33799 0.50181 0.0
S437 S 0.86346 0.23144 0.52747 0.0
N438 N 0.79687 0.19396 0.53284 0.0
N439 N 0.87427 0.29103 0.51601 0.0
C440 C 0.82248 0.28249 0.51658 0.0
C441 C 0.78081 0.23018 0.52562 0.0
C442 C 0.66542 0.83155 0.82461 0.0
C443 C 0.62697 0.78676 0.83944 0.0
C444 C 0.65549 0.87376 0.81776 0.0
C445 C 0.60657 0.87166 0.8253 0.0
H446 H 0.70171 0.83236 0.81698 0.0
H447 H 0.68428 0.90623 0.80489 0.0
S448 S 0.49438 0.76482 0.86552 0.0
N449 N 0.53992 0.74453 0.86314 0.0
N450 N 0.52095 0.8237 0.84943 0.0
C451 C 0.56956 0.82918 0.84163 0.0
C452 C 0.5799 0.78654 0.84895 0.0
C453 C 0.8401 0.53733 0.19626 0.0
C454 C 0.88521 0.57858 0.18226 0.0
C455 C 0.78641 0.51971 0.18799 0.0
C456 C 0.77683 0.5432 0.16565 0.0
H457 H 0.84629 0.51487 0.21201 0.0
H458 H 0.75276 0.48477 0.19768 0.0
S459 S 0.87956 0.66019 0.12597 0.0
N460 N 0.91587 0.64866 0.14798 0.0
N461 N 0.81498 0.61517 0.13246 0.0
C462 C 0.82099 0.58867 0.15358 0.0
C463 C 0.87539 0.60679 0.16202 0.0
C464 C 0.26375 0.86533 0.50505 0.0
C465 C 0.31289 0.8797 0.49183 0.0
C466 C 0.22192 0.81043 0.50634 0.0
C467 C 0.22929 0.76893 0.49514 0.0
H468 H 0.25691 0.89679 0.51348 0.0
H469 H 0.1826 0.80085 0.5145 0.0
S470 S 0.35493 0.78481 0.46356 0.0
N471 N 0.36959 0.84797 0.47069 0.0
N472 N 0.29173 0.74462 0.47415 0.0
C473 C 0.28033 0.78254 0.48433 0.0
C474 C 0.32199 0.83816 0.48227 0.0
C475 C 0.58721 0.37659 0.83955 0.0
C476 C 0.53868 0.36755 0.85177 0.0
C477 C 0.59647 0.33325 0.83472 0.0
C478 C 0.5577 0.2796 0.8422 0.0
H479 H 0.61689 0.417 0.83231 0.0
H480 H 0.63281 0.34123 0.82379 0.0
S481 S 0.42799 0.23627 0.87827 0.0
N482 N 0.4541 0.30291 0.87366 0.0
N483 N 0.47184 0.2205 0.8649 0.0
C484 C 0.51092 0.27066 0.85624 0.0
C485 C 0.50113 0.31498 0.86085 0.0
C486 C 0.57577 0.89031 0.49342 0.0
C487 C 0.53083 0.89594 0.50182 0.0
C488 C 0.57558 0.83943 0.49516 0.0
C489 C 0.53031 0.79077 0.50521 0.0
H490 H 0.61205 0.92588 0.48581 0.0
H491 H 0.61246 0.83892 0.48979 0.0
S492 S 0.40372 0.7829 0.53184 0.0
N493 N 0.4403 0.84702 0.52161 0.0
N494 N 0.44034 0.75359 0.52488 0.0
C495 C 0.48517 0.79595 0.51344 0.0
C496 C 0.48525 0.84743 0.51168 0.0
C497 C 0.75261 0.54747 0.81587 0.0
C498 C 0.74138 0.58364 0.83069 0.0
C499 C 0.80347 0.54781 0.8179 0.0
C500 C 0.84574 0.58328 0.83547 0.0
H501 H 0.72157 0.51825 0.80257 0.0
H502 H 0.80876 0.51837 0.80635 0.0
S503 S 0.83692 0.68457 0.87978 0.0
N504 N 0.77795 0.65559 0.86382 0.0
N505 N 0.87097 0.6554 0.86822 0.0
C506 C 0.8347 0.61952 0.85034 0.0
C507 C 0.78366 0.61993 0.84783 0.0
C508 C 0.20028 0.73059 0.16474 0.0
C509 C 0.19777 0.67924 0.16779 0.0
C510 C 0.25071 0.78178 0.16549 0.0
C511 C 0.30212 0.78512 0.16906 0.0
H512 H 0.1627 0.73149 0.16203 0.0
H513 H 0.24923 0.81936 0.16392 0.0
S514 S 0.32038 0.66474 0.17935 0.0
N515 N 0.25364 0.63706 0.17533 0.0
N516 N 0.3463 0.73166 0.17664 0.0
C517 C 0.30032 0.73441 0.17209 0.0
C518 C 0.24919 0.68235 0.17139 0.0
C519 C 0.55072 0.25102 0.48192 0.0
C520 C 0.51223 0.2023 0.49515 0.0
C521 C 0.54972 0.30129 0.48393 0.0
C522 C 0.51112 0.30636 0.49992 0.0
H523 H 0.58231 0.25046 0.46996 0.0
H524 H 0.58099 0.33714 0.47371 0.0
S525 S 0.40257 0.19204 0.53961 0.0
N526 N 0.4346 0.1636 0.52498 0.0
N527 N 0.43342 0.25637 0.52939 0.0
C528 C 0.47248 0.25769 0.51315 0.0
C529 C 0.47285 0.20654 0.51063 0.0
C530 C 0.41322 0.60588 0.84896 0.0
C531 C 0.41653 0.56627 0.83307 0.0
C532 C 0.36394 0.60751 0.85209 0.0
C533 C 0.31424 0.57029 0.83918 0.0
H534 H 0.44877 0.63479 0.86017 0.0
H535 H 0.36416 0.63705 0.86593 0.0
S536 S 0.30138 0.46295 0.79201 0.0
N537 N 0.36574 0.49179 0.80199 0.0
N538 N 0.27407 0.49506 0.80771 0.0
C539 C 0.31765 0.53232 0.82198 0.0
C540 C 0.36806 0.53019 0.81903 0.0
C541 C 0.83701 0.35019 0.15786 0.0
C542 C 0.88833 0.35512 0.16416 0.0
C543 C 0.78618 0.29996 0.16098 0.0
C544 C 0.78325 0.25134 0.17069 0.0
H545 H 0.83586 0.38603 0.15103 0.0
H546 H 0.74855 0.30014 0.15713 0.0
S547 S 0.90438 0.24169 0.19187 0.0
N548 N 0.93143 0.30552 0.18126 0.0
N549 N 0.83763 0.21332 0.18757 0.0
C550 C 0.83432 0.25576 0.1768 0.0
C551 C 0.88596 0.30655 0.17338 0.0
C552 C 0.99204 0.47999 0.07236 0.0
C553 C 0.03392 0.51884 0.08853 0.0
C554 C 0.99741 0.48249 0.04472 0.0
C555 C 0.0446 0.52438 0.03236 0.0
H556 H 0.95368 0.44934 0.08107 0.0
H557 H 0.96327 0.45304 0.03286 0.0
S558 S 0.16636 0.63519 0.06632 0.0
N559 N 0.12463 0.59914 0.09068 0.0
N560 N 0.13482 0.60437 0.03856 0.0
C561 C 0.08792 0.5619 0.04844 0.0
C562 C 0.08244 0.55912 0.07663 0.0
C563 C 0.55832 0.10345 0.40379 0.0
C564 C 0.5393 0.06062 0.42224 0.0
C565 C 0.5482 0.09268 0.37664 0.0
C566 C 0.52039 0.03852 0.36676 0.0
H567 H 0.58174 0.14568 0.41038 0.0
H568 H 0.56318 0.12731 0.36328 0.0
S569 S 0.46433 0.91183 0.40768 0.0
N570 N 0.49098 0.96237 0.42947 0.0
N571 N 0.47491 0.94136 0.37831 0.0
C572 C 0.50074 0.99518 0.38532 0.0
C573 C 0.50964 1.00643 0.41309 0.0
C574 C 0.60286 0.54025 0.73797 0.0
C575 C 0.57739 0.56149 0.75409 0.0
C576 C 0.60022 0.54192 0.71035 0.0
C577 C 0.57053 0.56343 0.69774 0.0
H578 H 0.62289 0.51985 0.74682 0.0
H579 H 0.61956 0.52386 0.69879 0.0
S580 S 0.49887 0.62686 0.73155 0.0
N581 N 0.52485 0.60807 0.75599 0.0
N582 N 0.51764 0.60943 0.70385 0.0
C583 C 0.54732 0.58762 0.71374 0.0
C584 C 0.55112 0.58687 0.74201 0.0
C585 C 0.49543 0.08332 0.59069 0.0
C586 C 0.52175 0.06462 0.57351 0.0
C587 C 0.50868 0.09172 0.61753 0.0
C588 C 0.5489 0.08192 0.62823 0.0
H589 H 0.4636 0.0908 0.58348 0.0
H590 H 0.48631 0.1049 0.63014 0.0
S591 S 0.63169 0.03489 0.5914 0.0
N592 N 0.591 0.03783 0.56876 0.0
N593 N 0.61646 0.05429 0.61954 0.0
C594 C 0.57632 0.06402 0.61124 0.0
C595 C 0.56276 0.05542 0.58375 0.0
C596 C 0.53282 0.52292 0.91731 0.0
C597 C 0.58667 0.55735 0.90849 0.0
C598 C 0.52187 0.50842 0.94404 0.0
C599 C 0.56441 0.52771 0.9628 0.0
H600 H 0.4987 0.50887 0.90371 0.0
H601 H 0.47966 0.48311 0.95019 0.0
S602 S 0.71302 0.61465 0.94901 0.0
N603 N 0.68333 0.60633 0.91987 0.0
N604 N 0.66279 0.58057 0.97033 0.0
C605 C 0.6187 0.55989 0.95392 0.0
C606 C 0.62981 0.57435 0.92668 0.0
C607 C 0.02172 0.47004 0.26055 0.0
C608 C 0.02828 0.50795 0.24074 0.0
C609 C 0.01607 0.48006 0.28714 0.0
C610 C 0.0164 0.52815 0.29479 0.0
H611 H 0.02259 0.43302 0.25563 0.0
H612 H 0.01341 0.45089 0.3019 0.0
S613 S 0.02707 0.63788 0.25041 0.0
N614 N 0.03186 0.59404 0.23039 0.0
N615 N 0.01962 0.61212 0.28053 0.0
C616 C 0.02077 0.56541 0.27514 0.0
C617 C 0.02704 0.55546 0.24804 0.0
loop_
_geom_bond_atom_site_label_1
_geom_bond_atom_site_label_2
_geom_bond_distance
_geom_bond_site_symmetry_2
_ccdc_geom_bond_type
Dy0 O4 2.398 . S
Dy0 O5 2.491 . S
Dy0 O6 2.403 . S
Dy0 O7 2.664 . S
Dy0 O11 2.326 . S
Dy0 O15 2.310 . S
Dy0 O16 2.351 1_455 S
C1 O12 1.185 . S
C1 O13 1.355 . S
C2 O4 1.185 . S
C2 O5 1.355 . S
Dy3 O7 2.310 1_655 S
Dy3 O10 2.351 1_655 S
Dy3 O12 2.398 . S
Dy3 O13 2.491 . S
Dy3 O14 2.404 . S
Dy3 O15 2.664 1_655 S
Dy3 O17 2.326 . S
O4 Dy0 2.398 . S
O4 C2 1.185 . S
O5 Dy0 2.491 . S
O5 C2 1.355 . S
O6 Dy0 2.403 . S
O6 C8 1.254 . S
O7 Dy0 2.664 . S
O7 Dy3 2.310 1_455 S
O7 C8 1.268 . S
C8 O6 1.254 . S
C8 O7 1.268 . S
C9 O14 1.250 1_455 S
C9 O15 1.268 . S
O10 Dy3 2.351 1_455 S
O10 C18 1.249 . S
O11 Dy0 2.326 . S
O11 C18 1.267 . S
O12 C1 1.185 . S
O12 Dy3 2.398 . S
O13 C1 1.355 . S
O13 Dy3 2.491 . S
O14 Dy3 2.404 . S
O14 C9 1.250 1_655 S
O15 Dy0 2.310 . S
O15 Dy3 2.664 1_455 S
O15 C9 1.268 . S
O16 Dy0 2.351 1_655 S
O16 C19 1.249 . S
O17 Dy3 2.326 . S
O17 C19 1.267 . S
C18 O10 1.249 . S
C18 O11 1.267 . S
C19 O16 1.249 . S
C19 O17 1.267 . S
Dy20 O24 2.398 . S
Dy20 O25 2.491 . S
Dy20 O26 2.403 1_565 S
Dy20 O27 2.664 1_565 S
Dy20 O31 2.326 . S
Dy20 O35 2.310 1_565 S
Dy20 O36 2.351 1_565 S
C21 O32 1.185 . S
C21 O33 1.355 . S
C22 O24 1.185 . S
C22 O25 1.355 . S
Dy23 O27 2.310 . S
Dy23 O30 2.351 1_545 S
Dy23 O32 2.398 . S
Dy23 O33 2.491 . S
Dy23 O34 2.403 . S
Dy23 O35 2.664 . S
Dy23 O37 2.326 . S
O24 Dy20 2.398 . S
O24 C22 1.185 . S
O25 Dy20 2.491 . S
O25 C22 1.355 . S
O26 Dy20 2.403 1_545 S
O26 C28 1.254 . S
O27 Dy20 2.664 1_545 S
O27 Dy23 2.310 . S
O27 C28 1.268 . S
C28 O26 1.254 . S
C28 O27 1.268 . S
C29 O34 1.254 . S
C29 O35 1.268 . S
O30 Dy23 2.351 1_565 S
O30 C38 1.249 . S
O31 Dy20 2.326 . S
O31 C38 1.267 . S
O32 C21 1.185 . S
O32 Dy23 2.398 . S
O33 C21 1.355 . S
O33 Dy23 2.491 . S
O34 Dy23 2.403 . S
O34 C29 1.254 . S
O35 Dy20 2.310 1_545 S
O35 Dy23 2.664 . S
O35 C29 1.268 . S
O36 Dy20 2.351 1_545 S
O36 C39 1.249 . S
O37 Dy23 2.326 . S
O37 C39 1.267 . S
C38 O30 1.249 . S
C38 O31 1.267 . S
C39 O36 1.249 . S
C39 O37 1.267 . S
Dy40 O44 2.398 . S
Dy40 O45 2.491 . S
Dy40 O46 2.403 . S
Dy40 O47 2.664 . S
Dy40 O51 2.326 . S
Dy40 O55 2.310 . S
Dy40 O56 2.351 . S
C41 O52 1.185 . S
C41 O53 1.355 . S
C42 O44 1.185 . S
C42 O45 1.355 . S
Dy43 O47 2.310 . S
Dy43 O50 2.351 . S
Dy43 O52 2.398 . S
Dy43 O53 2.491 . S
Dy43 O54 2.403 . S
Dy43 O55 2.664 . S
Dy43 O57 2.326 . S
O44 Dy40 2.398 . S
O44 C42 1.185 . S
O45 Dy40 2.491 . S
O45 C42 1.355 . S
O46 Dy40 2.403 . S
O46 C48 1.254 . S
O47 Dy40 2.664 . S
O47 Dy43 2.310 . S
O47 C48 1.268 . S
C48 O46 1.254 . S
C48 O47 1.268 . S
C49 O54 1.254 . S
C49 O55 1.268 . S
O50 Dy43 2.351 . S
O50 C58 1.249 . S
O51 Dy40 2.326 . S
O51 C58 1.267 . S
O52 C41 1.185 . S
O52 Dy43 2.398 . S
O53 C41 1.355 . S
O53 Dy43 2.491 . S
O54 Dy43 2.403 . S
O54 C49 1.254 . S
O55 Dy40 2.310 . S
O55 Dy43 2.664 . S
O55 C49 1.268 . S
O56 Dy40 2.351 . S
O56 C59 1.249 . S
O57 Dy43 2.326 . S
O57 C59 1.267 . S
C58 O50 1.249 . S
C58 O51 1.267 . S
C59 O56 1.249 . S
C59 O57 1.267 . S
C60 C61 1.391 . S
C60 C64 1.391 . S
C60 H102 0.948 . S
C61 C60 1.391 . S
C61 C62 1.391 . S
C62 C61 1.391 . S
C62 H118 0.947 . S
C62 C119 1.392 . S
C63 C64 1.391 . S
C63 C67 1.397 . S
C63 C119 1.419 . S
C64 C60 1.391 . S
C64 C63 1.391 . S
C64 C65 1.399 . S
C65 C64 1.399 . S
C65 C68 1.396 . S
C65 C77 1.453 . S
C65 C78 1.684 . S
H66 C90 0.948 . S
C67 C63 1.397 . S
C67 C68 1.394 . S
C67 C86 1.723 . S
C68 C65 1.396 . S
C68 C67 1.394 . S
C68 C98 1.723 1_545 S
H69 C92 0.947 . S
H70 C93 0.948 . S
H71 C99 0.982 . S
H72 C100 0.979 . S
H73 C100 0.980 . S
H74 C100 0.983 . S
H75 C99 0.979 . S
H76 C99 0.977 . S
C77 C65 1.453 . S
C77 H106 0.982 . S
C77 H107 0.979 . S
C77 H108 0.977 1_545 S
C78 C65 1.684 . S
C78 H103 0.979 . S
C78 H104 0.980 . S
C78 H105 0.983 . S
C79 C80 1.391 . S
C79 C84 1.391 . S
C79 H109 0.948 . S
C80 C79 1.391 . S
C80 C81 1.391 1_545 S
C81 C80 1.391 1_565 S
C81 C82 1.392 . S
C81 H110 0.947 . S
C82 C81 1.392 . S
C82 C83 1.419 1_565 S
C82 H111 0.948 . S
C83 C82 1.419 1_545 S
C83 C84 1.391 . S
C83 C87 1.397 . S
C84 C79 1.391 . S
C84 C83 1.391 . S
C84 C85 1.399 . S
C85 C84 1.399 . S
C85 C86 1.396 . S
C85 C88 1.453 . S
C85 C89 1.684 . S
C86 C67 1.723 . S
C86 C85 1.396 . S
C86 C87 1.394 . S
C87 C83 1.397 . S
C87 C86 1.394 . S
C87 C97 1.723 1_545 S
C88 C85 1.453 . S
C88 H112 0.982 . S
C88 H113 0.979 . S
C88 H114 0.977 . S
C89 C85 1.684 . S
C89 H115 0.979 . S
C89 H116 0.980 . S
C89 H117 0.983 . S
C90 H66 0.948 . S
C90 C91 1.391 . S
C90 C95 1.391 . S
C91 C90 1.391 . S
C91 C92 1.391 . S
C92 H69 0.947 . S
C92 C91 1.391 . S
C92 C93 1.392 . S
C93 H70 0.948 . S
C93 C92 1.392 . S
C93 C94 1.419 . S
C94 C93 1.419 . S
C94 C95 1.391 . S
C94 C98 1.397 . S
C95 C90 1.391 . S
C95 C94 1.391 . S
C95 C96 1.399 . S
C96 C95 1.399 . S
C96 C97 1.396 . S
C96 C99 1.453 . S
C96 C100 1.684 . S
C97 C87 1.723 1_565 S
C97 C96 1.396 . S
C97 C98 1.394 . S
C98 C68 1.723 1_565 S
C98 C94 1.397 . S
C98 C97 1.394 . S
C99 H71 0.982 . S
C99 H75 0.979 . S
C99 H76 0.977 . S
C99 C96 1.453 . S
C100 H72 0.979 . S
C100 H73 0.980 . S
C100 H74 0.983 . S
C100 C96 1.684 . S
H101 C119 0.948 . S
H102 C60 0.948 . S
H103 C78 0.979 . S
H104 C78 0.980 . S
H105 C78 0.983 . S
H106 C77 0.982 . S
H107 C77 0.979 . S
H108 C77 0.977 1_565 S
H109 C79 0.948 . S
H110 C81 0.947 . S
H111 C82 0.948 . S
H112 C88 0.982 . S
H113 C88 0.979 . S
H114 C88 0.977 . S
H115 C89 0.979 . S
H116 C89 0.980 . S
H117 C89 0.983 . S
H118 C62 0.947 . S
C119 C62 1.392 . S
C119 C63 1.419 . S
C119 H101 0.948 . S
C120 C121 1.391 . S
C120 C124 1.391 . S
C120 H162 0.948 . S
C121 C120 1.391 . S
C121 C122 1.391 . S
C122 C121 1.391 . S
C122 H178 0.947 . S
C122 C179 1.392 . S
C123 C124 1.391 . S
C123 C127 1.397 . S
C123 C179 1.419 . S
C124 C120 1.391 . S
C124 C123 1.391 . S
C124 C125 1.399 . S
C125 C124 1.399 . S
C125 C128 1.396 . S
C125 C137 1.453 . S
C125 C138 1.684 . S
H126 C150 0.948 . S
C127 C123 1.397 . S
C127 C128 1.394 . S
C127 C146 1.723 . S
C128 C125 1.396 . S
C128 C127 1.394 . S
C128 C158 1.723 . S
H129 C152 0.947 . S
H130 C153 0.948 . S
H131 C159 0.982 . S
H132 C160 0.979 . S
H133 C160 0.980 . S
H134 C160 0.983 . S
H135 C159 0.979 . S
H136 C159 0.977 . S
C137 C125 1.453 . S
C137 H166 0.982 . S
C137 H167 0.979 . S
C137 H168 0.977 . S
C138 C125 1.684 . S
C138 H163 0.979 . S
C138 H164 0.980 . S
C138 H165 0.983 . S
C139 C140 1.391 . S
C139 C144 1.391 . S
C139 H169 0.948 . S
C140 C139 1.391 . S
C140 C141 1.391 . S
C141 C140 1.391 . S
C141 C142 1.392 . S
C141 H170 0.947 . S
C142 C141 1.392 . S
C142 C143 1.419 . S
C142 H171 0.948 . S
C143 C142 1.419 . S
C143 C144 1.391 . S
C143 C147 1.397 . S
C144 C139 1.391 . S
C144 C143 1.391 . S
C144 C145 1.399 . S
C145 C144 1.399 . S
C145 C146 1.396 . S
C145 C148 1.453 . S
C145 C149 1.684 . S
C146 C127 1.723 . S
C146 C145 1.396 . S
C146 C147 1.394 . S
C147 C143 1.397 . S
C147 C146 1.394 . S
C147 C157 1.723 . S
C148 C145 1.453 . S
C148 H172 0.982 . S
C148 H173 0.979 . S
C148 H174 0.977 . S
C149 C145 1.684 . S
C149 H175 0.979 . S
C149 H176 0.980 . S
C149 H177 0.983 . S
C150 H126 0.948 . S
C150 C151 1.391 . S
C150 C155 1.391 . S
C151 C150 1.391 . S
C151 C152 1.391 . S
C152 H129 0.947 . S
C152 C151 1.391 . S
C152 C153 1.392 . S
C153 H130 0.948 . S
C153 C152 1.392 . S
C153 C154 1.419 . S
C154 C153 1.419 . S
C154 C155 1.391 . S
C154 C158 1.397 . S
C155 C150 1.391 . S
C155 C154 1.391 . S
C155 C156 1.399 . S
C156 C155 1.399 . S
C156 C157 1.396 . S
C156 C159 1.453 . S
C156 C160 1.684 . S
C157 C147 1.723 . S
C157 C156 1.396 . S
C157 C158 1.394 . S
C158 C128 1.723 . S
C158 C154 1.397 . S
C158 C157 1.394 . S
C159 H131 0.982 . S
C159 H135 0.979 . S
C159 H136 0.977 . S
C159 C156 1.453 . S
C160 H132 0.979 . S
C160 H133 0.980 . S
C160 H134 0.983 . S
C160 C156 1.684 . S
H161 C179 0.948 . S
H162 C120 0.948 . S
H163 C138 0.979 . S
H164 C138 0.980 . S
H165 C138 0.983 . S
H166 C137 0.982 . S
H167 C137 0.979 . S
H168 C137 0.977 . S
H169 C139 0.948 . S
H170 C141 0.947 . S
H171 C142 0.948 . S
H172 C148 0.982 . S
H173 C148 0.979 . S
H174 C148 0.977 . S
H175 C149 0.979 . S
H176 C149 0.980 . S
H177 C149 0.983 . S
H178 C122 0.947 . S
C179 C122 1.392 . S
C179 C123 1.419 . S
C179 H161 0.948 . S
C180 C181 1.391 . S
C180 C184 1.391 . S
C180 H222 0.948 . S
C181 C180 1.391 . S
C181 C182 1.391 . S
C182 C181 1.391 . S
C182 H238 0.947 . S
C182 C239 1.392 . S
C183 C184 1.391 . S
C183 C187 1.397 . S
C183 C239 1.419 . S
C184 C180 1.391 . S
C184 C183 1.391 . S
C184 C185 1.399 . S
C185 C184 1.399 . S
C185 C188 1.396 . S
C185 C197 1.453 . S
C185 C198 1.684 . S
H186 C210 0.948 . S
C187 C183 1.397 . S
C187 C188 1.394 . S
C187 C206 1.723 . S
C188 C185 1.396 . S
C188 C187 1.394 . S
C188 C218 1.723 . S
H189 C212 0.947 . S
H190 C213 0.948 1_455 S
H191 C219 0.982 . S
H192 C220 0.979 . S
H193 C220 0.980 . S
H194 C220 0.983 . S
H195 C219 0.979 . S
H196 C219 0.977 . S
C197 C185 1.453 . S
C197 H226 0.982 . S
C197 H227 0.979 . S
C197 H228 0.977 . S
C198 C185 1.684 . S
C198 H223 0.979 . S
C198 H224 0.980 . S
C198 H225 0.983 . S
C199 C200 1.391 1_556 S
C199 C204 1.391 . S
C199 H229 0.948 . S
C200 C199 1.391 1_554 S
C200 C201 1.397 1_554 S
C201 C200 1.397 1_556 S
C201 C202 1.390 1_455 S
C201 H230 0.918 1_456 S
C202 C201 1.390 1_655 S
C202 C203 1.402 1_655 S
C202 H231 0.966 . S
C203 C202 1.402 1_455 S
C203 C204 1.391 . S
C203 C207 1.397 . S
C204 C199 1.391 . S
C204 C203 1.391 . S
C204 C205 1.399 . S
C205 C204 1.399 . S
C205 C206 1.396 . S
C205 C208 1.453 . S
C205 C209 1.684 . S
C206 C187 1.723 . S
C206 C205 1.396 . S
C206 C207 1.394 . S
C207 C203 1.397 . S
C207 C206 1.394 . S
C207 C217 1.711 1_455 S
C208 C205 1.453 . S
C208 H232 0.982 . S
C208 H233 0.979 . S
C208 H234 0.977 . S
C209 C205 1.684 . S
C209 H235 0.979 . S
C209 H236 0.980 . S
C209 H237 0.983 . S
C210 H186 0.948 . S
C210 C211 1.391 . S
C210 C215 1.391 . S
C211 C210 1.391 . S
C211 C212 1.391 . S
C212 H189 0.947 . S
C212 C211 1.391 . S
C212 C213 1.392 . S
C213 H190 0.948 1_655 S
C213 C212 1.392 . S
C213 C214 1.419 . S
C214 C213 1.419 . S
C214 C215 1.391 . S
C214 C218 1.397 1_655 S
C215 C210 1.391 . S
C215 C214 1.391 . S
C215 C216 1.399 . S
C216 C215 1.399 . S
C216 C217 1.411 . S
C216 C219 1.453 . S
C216 C220 1.684 . S
C217 C207 1.711 1_655 S
C217 C216 1.411 . S
C217 C218 1.389 1_655 S
C218 C188 1.723 . S
C218 C214 1.397 1_455 S
C218 C217 1.389 1_455 S
C219 H191 0.982 . S
C219 H195 0.979 . S
C219 H196 0.977 . S
C219 C216 1.453 . S
C220 H192 0.979 . S
C220 H193 0.980 . S
C220 H194 0.983 . S
C220 C216 1.684 . S
H221 C239 0.948 . S
H222 C180 0.948 . S
H223 C198 0.979 . S
H224 C198 0.980 . S
H225 C198 0.983 . S
H226 C197 0.982 . S
H227 C197 0.979 . S
H228 C197 0.977 . S
H229 C199 0.948 . S
H230 C201 0.918 1_654 S
H231 C202 0.966 . S
H232 C208 0.982 . S
H233 C208 0.979 . S
H234 C208 0.977 . S
H235 C209 0.979 . S
H236 C209 0.980 . S
H237 C209 0.983 . S
H238 C182 0.947 . S
C239 C182 1.392 . S
C239 C183 1.419 . S
C239 H221 0.948 . S
C240 C241 1.391 . S
C240 C244 1.391 . S
C240 H282 0.948 . S
C241 C240 1.391 . S
C241 C242 1.391 . S
C242 C241 1.391 . S
C242 H298 0.947 . S
C242 C299 1.392 . S
C243 C244 1.391 . S
C243 C247 1.397 . S
C243 C299 1.419 . S
C244 C240 1.391 . S
C244 C243 1.391 . S
C244 C245 1.399 . S
C245 C244 1.399 . S
C245 C248 1.396 . S
C245 C257 1.453 . S
C245 C258 1.684 . S
H246 C270 0.948 . S
C247 C243 1.397 . S
C247 C248 1.394 . S
C247 C266 1.723 . S
C248 C245 1.396 . S
C248 C247 1.394 . S
C248 C278 1.723 1_655 S
H249 C272 0.947 . S
H250 C273 0.948 . S
H251 C279 0.982 . S
H252 C280 0.979 . S
H253 C280 0.980 . S
H254 C280 0.983 . S
H255 C279 0.979 . S
H256 C279 0.977 . S
C257 C245 1.453 . S
C257 H286 0.982 1_655 S
C257 H287 0.979 . S
C257 H288 0.977 1_655 S
C258 C245 1.684 . S
C258 H283 0.979 . S
C258 H284 0.980 . S
C258 H285 0.983 . S
C259 C260 1.391 1_655 S
C259 C264 1.391 . S
C259 H289 0.948 . S
C260 C259 1.391 1_455 S
C260 C261 1.391 . S
C261 C260 1.391 . S
C261 C262 1.392 . S
C261 H290 0.947 . S
C262 C261 1.392 . S
C262 C263 1.419 . S
C262 H291 0.948 . S
C263 C262 1.419 . S
C263 C264 1.391 1_455 S
C263 C267 1.397 . S
C264 C259 1.391 . S
C264 C263 1.391 1_655 S
C264 C265 1.399 . S
C265 C264 1.399 . S
C265 C266 1.396 . S
C265 C268 1.453 . S
C265 C269 1.684 . S
C266 C247 1.723 . S
C266 C265 1.396 . S
C266 C267 1.394 1_655 S
C267 C263 1.397 . S
C267 C266 1.394 1_455 S
C267 C277 1.723 . S
C268 C265 1.453 . S
C268 H292 0.982 . S
C268 H293 0.979 . S
C268 H294 0.977 . S
C269 C265 1.684 . S
C269 H295 0.979 . S
C269 H296 0.980 . S
C269 H297 0.983 . S
C270 H246 0.948 . S
C270 C271 1.391 . S
C270 C275 1.391 . S
C271 C270 1.391 . S
C271 C272 1.391 . S
C272 H249 0.947 . S
C272 C271 1.391 . S
C272 C273 1.392 . S
C273 H250 0.948 . S
C273 C272 1.392 . S
C273 C274 1.419 . S
C274 C273 1.419 . S
C274 C275 1.391 . S
C274 C278 1.397 . S
C275 C270 1.391 . S
C275 C274 1.391 . S
C275 C276 1.399 . S
C276 C275 1.399 . S
C276 C277 1.396 . S
C276 C279 1.453 . S
C276 C280 1.684 . S
C277 C267 1.723 . S
C277 C276 1.396 . S
C277 C278 1.394 . S
C278 C248 1.723 1_455 S
C278 C274 1.397 . S
C278 C277 1.394 . S
C279 H251 0.982 . S
C279 H255 0.979 . S
C279 H256 0.977 . S
C279 C276 1.453 . S
C280 H252 0.979 . S
C280 H253 0.980 . S
C280 H254 0.983 . S
C280 C276 1.684 . S
H281 C299 0.948 . S
H282 C240 0.948 . S
H283 C258 0.979 . S
H284 C258 0.980 . S
H285 C258 0.983 . S
H286 C257 0.982 1_455 S
H287 C257 0.979 . S
H288 C257 0.977 1_455 S
H289 C259 0.948 . S
H290 C261 0.947 . S
H291 C262 0.948 . S
H292 C268 0.982 . S
H293 C268 0.979 . S
H294 C268 0.977 . S
H295 C269 0.979 . S
H296 C269 0.980 . S
H297 C269 0.983 . S
H298 C242 0.947 . S
C299 C242 1.392 . S
C299 C243 1.419 . S
C299 H281 0.948 . S
C300 C301 1.391 . S
C300 C304 1.391 . S
C300 H342 0.948 . S
C301 C300 1.391 . S
C301 C302 1.391 . S
C302 C301 1.391 . S
C302 H358 0.947 . S
C302 C359 1.392 . S
C303 C304 1.391 . S
C303 C307 1.397 1_565 S
C303 C359 1.419 . S
C304 C300 1.391 . S
C304 C303 1.391 . S
C304 C305 1.399 1_565 S
C305 C304 1.399 1_545 S
C305 C308 1.396 . S
C305 C317 1.453 . S
C305 C318 1.684 . S
H306 C330 0.948 . S
C307 C303 1.397 1_545 S
C307 C308 1.394 . S
C307 C326 1.723 . S
C308 C305 1.396 . S
C308 C307 1.394 . S
C308 C338 1.723 . S
H309 C332 0.947 . S
H310 C333 0.948 . S
H311 C339 0.982 . S
H312 C340 0.979 . S
H313 C340 0.980 . S
H314 C340 0.983 . S
H315 C339 0.979 . S
H316 C339 0.977 . S
C317 C305 1.453 . S
C317 H346 0.982 . S
C317 H347 0.979 . S
C317 H348 0.977 . S
C318 C305 1.684 . S
C318 H343 0.979 1_545 S
C318 H344 0.980 . S
C318 H345 0.983 . S
C319 C320 1.391 . S
C319 C324 1.391 . S
C319 H349 0.948 1_545 S
C320 C319 1.391 . S
C320 C321 1.391 . S
C321 C320 1.391 . S
C321 C322 1.392 . S
C321 H350 0.947 . S
C322 C321 1.392 . S
C322 C323 1.419 . S
C322 H351 0.948 . S
C323 C322 1.419 . S
C323 C324 1.391 . S
C323 C327 1.397 . S
C324 C319 1.391 . S
C324 C323 1.391 . S
C324 C325 1.399 1_545 S
C325 C324 1.399 1_565 S
C325 C326 1.396 1_565 S
C325 C328 1.453 . S
C325 C329 1.684 . S
C326 C307 1.723 . S
C326 C325 1.396 1_545 S
C326 C327 1.394 . S
C327 C323 1.397 . S
C327 C326 1.394 . S
C327 C337 1.723 . S
C328 C325 1.453 . S
C328 H352 0.982 1_565 S
C328 H353 0.979 . S
C328 H354 0.977 . S
C329 C325 1.684 . S
C329 H355 0.979 . S
C329 H356 0.980 . S
C329 H357 0.983 . S
C330 H306 0.948 . S
C330 C331 1.391 . S
C330 C335 1.391 . S
C331 C330 1.391 . S
C331 C332 1.391 . S
C332 H309 0.947 . S
C332 C331 1.391 . S
C332 C333 1.392 . S
C333 H310 0.948 . S
C333 C332 1.392 . S
C333 C334 1.419 . S
C334 C333 1.419 . S
C334 C335 1.391 . S
C334 C338 1.397 . S
C335 C330 1.391 . S
C335 C334 1.391 . S
C335 C336 1.399 . S
C336 C335 1.399 . S
C336 C337 1.396 . S
C336 C339 1.453 . S
C336 C340 1.684 . S
C337 C327 1.723 . S
C337 C336 1.396 . S
C337 C338 1.394 . S
C338 C308 1.723 . S
C338 C334 1.397 . S
C338 C337 1.394 . S
C339 H311 0.982 . S
C339 H315 0.979 . S
C339 H316 0.977 . S
C339 C336 1.453 . S
C340 H312 0.979 . S
C340 H313 0.980 . S
C340 H314 0.983 . S
C340 C336 1.684 . S
H341 C359 0.948 . S
H342 C300 0.948 . S
H343 C318 0.979 1_565 S
H344 C318 0.980 . S
H345 C318 0.983 . S
H346 C317 0.982 . S
H347 C317 0.979 . S
H348 C317 0.977 . S
H349 C319 0.948 1_565 S
H350 C321 0.947 . S
H351 C322 0.948 . S
H352 C328 0.982 1_545 S
H353 C328 0.979 . S
H354 C328 0.977 . S
H355 C329 0.979 . S
H356 C329 0.980 . S
H357 C329 0.983 . S
H358 C302 0.947 . S
C359 C302 1.392 . S
C359 C303 1.419 . S
C359 H341 0.948 . S
C360 C361 1.391 . S
C360 C364 1.391 . S
C360 H402 0.948 . S
C361 C360 1.391 . S
C361 C362 1.391 . S
C362 C361 1.391 . S
C362 H418 0.947 . S
C362 C419 1.392 . S
C363 C364 1.391 . S
C363 C367 1.397 . S
C363 C419 1.419 . S
C364 C360 1.391 . S
C364 C363 1.391 . S
C364 C365 1.399 . S
C365 C364 1.399 . S
C365 C368 1.396 . S
C365 C377 1.453 . S
C365 C378 1.684 . S
H366 C390 0.948 . S
C367 C363 1.397 . S
C367 C368 1.394 . S
C367 C386 1.723 . S
C368 C365 1.396 . S
C368 C367 1.394 . S
C368 C398 1.723 . S
H369 C392 0.947 . S
H370 C393 0.948 . S
H371 C399 0.982 . S
H372 C400 0.979 . S
H373 C400 0.980 . S
H374 C400 0.983 . S
H375 C399 0.979 . S
H376 C399 0.977 . S
C377 C365 1.453 . S
C377 H406 0.982 . S
C377 H407 0.979 . S
C377 H408 0.977 . S
C378 C365 1.684 . S
C378 H403 0.979 . S
C378 H404 0.980 . S
C378 H405 0.983 . S
C379 C380 1.391 1_554 S
C379 C384 1.391 . S
C379 H409 0.948 . S
C380 C379 1.391 1_556 S
C380 C381 1.391 1_556 S
C381 C380 1.391 1_554 S
C381 C382 1.392 . S
C381 H410 0.947 1_554 S
C382 C381 1.392 . S
C382 C383 1.419 . S
C382 H411 0.948 . S
C383 C382 1.419 . S
C383 C384 1.391 . S
C383 C387 1.397 . S
C384 C379 1.391 . S
C384 C383 1.391 . S
C384 C385 1.399 . S
C385 C384 1.399 . S
C385 C386 1.396 . S
C385 C388 1.453 . S
C385 C389 1.684 . S
C386 C367 1.723 . S
C386 C385 1.396 . S
C386 C387 1.394 . S
C387 C383 1.397 . S
C387 C386 1.394 . S
C387 C397 1.723 . S
C388 C385 1.453 . S
C388 H412 0.982 . S
C388 H413 0.979 . S
C388 H414 0.977 . S
C389 C385 1.684 . S
C389 H415 0.979 . S
C389 H416 0.980 . S
C389 H417 0.983 . S
C390 H366 0.948 . S
C390 C391 1.391 . S
C390 C395 1.391 . S
C391 C390 1.391 . S
C391 C392 1.391 . S
C392 H369 0.947 . S
C392 C391 1.391 . S
C392 C393 1.392 . S
C393 H370 0.948 . S
C393 C392 1.392 . S
C393 C394 1.419 . S
C394 C393 1.419 . S
C394 C395 1.391 . S
C394 C398 1.397 . S
C395 C390 1.391 . S
C395 C394 1.391 . S
C395 C396 1.399 . S
C396 C395 1.399 . S
C396 C397 1.396 . S
C396 C399 1.453 . S
C396 C400 1.684 . S
C397 C387 1.723 . S
C397 C396 1.396 . S
C397 C398 1.394 . S
C398 C368 1.723 . S
C398 C394 1.397 . S
C398 C397 1.394 . S
C399 H371 0.982 . S
C399 H375 0.979 . S
C399 H376 0.977 . S
C399 C396 1.453 . S
C400 H372 0.979 . S
C400 H373 0.980 . S
C400 H374 0.983 . S
C400 C396 1.684 . S
H401 C419 0.948 . S
H402 C360 0.948 . S
H403 C378 0.979 . S
H404 C378 0.980 . S
H405 C378 0.983 . S
H406 C377 0.982 . S
H407 C377 0.979 . S
H408 C377 0.977 . S
H409 C379 0.948 . S
H410 C381 0.947 1_556 S
H411 C382 0.948 . S
H412 C388 0.982 . S
H413 C388 0.979 . S
H414 C388 0.977 . S
H415 C389 0.979 . S
H416 C389 0.980 . S
H417 C389 0.983 . S
H418 C362 0.947 . S
C419 C362 1.392 . S
C419 C363 1.419 . S
C419 H401 0.948 . S
C420 C421 1.369 . S
C420 C422 1.419 . S
C420 H424 0.930 . S
C421 C420 1.369 . S
C421 C430 1.429 . S
C422 C420 1.419 . S
C422 C423 1.363 . S
C422 H425 0.929 . S
C423 C422 1.363 . S
C423 C429 1.428 . S
H424 C420 0.930 . S
H425 C422 0.929 . S
S426 N427 1.613 . S
S426 N428 1.610 . S
N427 S426 1.613 . S
N427 C430 1.350 . S
N428 S426 1.610 . S
N428 C429 1.351 . S
C429 C423 1.428 . S
C429 N428 1.351 . S
C429 C430 1.434 . S
C430 C421 1.429 . S
C430 N427 1.350 . S
C430 C429 1.434 . S
C431 C432 1.369 . S
C431 C433 1.419 . S
C431 H435 0.930 . S
C432 C431 1.369 . S
C432 C441 1.429 . S
C433 C431 1.419 . S
C433 C434 1.363 . S
C433 H436 0.929 . S
C434 C433 1.363 . S
C434 C440 1.428 . S
H435 C431 0.930 . S
H436 C433 0.929 . S
S437 N438 1.613 . S
S437 N439 1.610 . S
N438 S437 1.613 . S
N438 C441 1.350 . S
N439 S437 1.610 . S
N439 C440 1.351 . S
C440 C434 1.428 . S
C440 N439 1.351 . S
C440 C441 1.434 . S
C441 C432 1.429 . S
C441 N438 1.350 . S
C441 C440 1.434 . S
C442 C443 1.369 . S
C442 C444 1.419 . S
C442 H446 0.930 . S
C443 C442 1.369 . S
C443 C452 1.429 . S
C444 C442 1.419 . S
C444 C445 1.363 . S
C444 H447 0.929 . S
C445 C444 1.363 . S
C445 C451 1.428 . S
H446 C442 0.930 . S
H447 C444 0.929 . S
S448 N449 1.613 . S
S448 N450 1.610 . S
N449 S448 1.613 . S
N449 C452 1.350 . S
N450 S448 1.610 . S
N450 C451 1.351 . S
C451 C445 1.428 . S
C451 N450 1.351 . S
C451 C452 1.434 . S
C452 C443 1.429 . S
C452 N449 1.350 . S
C452 C451 1.434 . S
C453 C454 1.369 . S
C453 C455 1.419 . S
C453 H457 0.930 . S
C454 C453 1.369 . S
C454 C463 1.429 . S
C455 C453 1.419 . S
C455 C456 1.363 . S
C455 H458 0.929 . S
C456 C455 1.363 . S
C456 C462 1.428 . S
H457 C453 0.930 . S
H458 C455 0.929 . S
S459 N460 1.613 . S
S459 N461 1.610 . S
N460 S459 1.613 . S
N460 C463 1.350 . S
N461 S459 1.610 . S
N461 C462 1.351 . S
C462 C456 1.428 . S
C462 N461 1.351 . S
C462 C463 1.434 . S
C463 C454 1.429 . S
C463 N460 1.350 . S
C463 C462 1.434 . S
C464 C465 1.369 . S
C464 C466 1.419 . S
C464 H468 0.930 . S
C465 C464 1.369 . S
C465 C474 1.429 . S
C466 C464 1.419 . S
C466 C467 1.363 . S
C466 H469 0.929 . S
C467 C466 1.363 . S
C467 C473 1.428 . S
H468 C464 0.930 . S
H469 C466 0.929 . S
S470 N471 1.613 . S
S470 N472 1.610 . S
N471 S470 1.613 . S
N471 C474 1.350 . S
N472 S470 1.610 . S
N472 C473 1.351 . S
C473 C467 1.428 . S
C473 N472 1.351 . S
C473 C474 1.434 . S
C474 C465 1.429 . S
C474 N471 1.350 . S
C474 C473 1.434 . S
C475 C476 1.369 . S
C475 C477 1.419 . S
C475 H479 0.930 . S
C476 C475 1.369 . S
C476 C485 1.429 . S
C477 C475 1.419 . S
C477 C478 1.363 . S
C477 H480 0.929 . S
C478 C477 1.363 . S
C478 C484 1.428 . S
H479 C475 0.930 . S
H480 C477 0.929 . S
S481 N482 1.613 . S
S481 N483 1.610 . S
N482 S481 1.613 . S
N482 C485 1.350 . S
N483 S481 1.610 . S
N483 C484 1.351 . S
C484 C478 1.428 . S
C484 N483 1.351 . S
C484 C485 1.434 . S
C485 C476 1.429 . S
C485 N482 1.350 . S
C485 C484 1.434 . S
C486 C487 1.369 . S
C486 C488 1.419 . S
C486 H490 0.930 . S
C487 C486 1.369 . S
C487 C496 1.429 . S
C488 C486 1.419 . S
C488 C489 1.363 . S
C488 H491 0.929 . S
C489 C488 1.363 . S
C489 C495 1.428 . S
H490 C486 0.930 . S
H491 C488 0.929 . S
S492 N493 1.613 . S
S492 N494 1.610 . S
N493 S492 1.613 . S
N493 C496 1.350 . S
N494 S492 1.610 . S
N494 C495 1.351 . S
C495 C489 1.428 . S
C495 N494 1.351 . S
C495 C496 1.434 . S
C496 C487 1.429 . S
C496 N493 1.350 . S
C496 C495 1.434 . S
C497 C498 1.369 . S
C497 C499 1.419 . S
C497 H501 0.930 . S
C498 C497 1.369 . S
C498 C507 1.429 . S
C499 C497 1.419 . S
C499 C500 1.363 . S
C499 H502 0.929 . S
C500 C499 1.363 . S
C500 C506 1.428 . S
H501 C497 0.930 . S
H502 C499 0.929 . S
S503 N504 1.613 . S
S503 N505 1.610 . S
N504 S503 1.613 . S
N504 C507 1.350 . S
N505 S503 1.610 . S
N505 C506 1.351 . S
C506 C500 1.428 . S
C506 N505 1.351 . S
C506 C507 1.434 . S
C507 C498 1.429 . S
C507 N504 1.350 . S
C507 C506 1.434 . S
C508 C509 1.369 . S
C508 C510 1.419 . S
C508 H512 0.930 . S
C509 C508 1.369 . S
C509 C518 1.429 . S
C510 C508 1.419 . S
C510 C511 1.363 . S
C510 H513 0.929 . S
C511 C510 1.363 . S
C511 C517 1.428 . S
H512 C508 0.930 . S
H513 C510 0.929 . S
S514 N515 1.613 . S
S514 N516 1.610 . S
N515 S514 1.613 . S
N515 C518 1.350 . S
N516 S514 1.610 . S
N516 C517 1.351 . S
C517 C511 1.428 . S
C517 N516 1.351 . S
C517 C518 1.434 . S
C518 C509 1.429 . S
C518 N515 1.350 . S
C518 C517 1.434 . S
C519 C520 1.369 . S
C519 C521 1.419 . S
C519 H523 0.930 . S
C520 C519 1.369 . S
C520 C529 1.429 . S
C521 C519 1.419 . S
C521 C522 1.363 . S
C521 H524 0.929 . S
C522 C521 1.363 . S
C522 C528 1.428 . S
H523 C519 0.930 . S
H524 C521 0.929 . S
S525 N526 1.613 . S
S525 N527 1.610 . S
N526 S525 1.613 . S
N526 C529 1.350 . S
N527 S525 1.610 . S
N527 C528 1.351 . S
C528 C522 1.428 . S
C528 N527 1.351 . S
C528 C529 1.434 . S
C529 C520 1.429 . S
C529 N526 1.350 . S
C529 C528 1.434 . S
C530 C531 1.369 . S
C530 C532 1.419 . S
C530 H534 0.930 . S
C531 C530 1.369 . S
C531 C540 1.429 . S
C532 C530 1.419 . S
C532 C533 1.363 . S
C532 H535 0.929 . S
C533 C532 1.363 . S
C533 C539 1.428 . S
H534 C530 0.930 . S
H535 C532 0.929 . S
S536 N537 1.613 . S
S536 N538 1.610 . S
N537 S536 1.613 . S
N537 C540 1.350 . S
N538 S536 1.610 . S
N538 C539 1.351 . S
C539 C533 1.428 . S
C539 N538 1.351 . S
C539 C540 1.434 . S
C540 C531 1.429 . S
C540 N537 1.350 . S
C540 C539 1.434 . S
C541 C542 1.369 . S
C541 C543 1.419 . S
C541 H545 0.930 . S
C542 C541 1.369 . S
C542 C551 1.429 . S
C543 C541 1.419 . S
C543 C544 1.363 . S
C543 H546 0.929 . S
C544 C543 1.363 . S
C544 C550 1.428 . S
H545 C541 0.930 . S
H546 C543 0.929 . S
S547 N548 1.613 . S
S547 N549 1.610 . S
N548 S547 1.613 . S
N548 C551 1.350 . S
N549 S547 1.610 . S
N549 C550 1.351 . S
C550 C544 1.428 . S
C550 N549 1.351 . S
C550 C551 1.434 . S
C551 C542 1.429 . S
C551 N548 1.350 . S
C551 C550 1.434 . S
C552 C553 1.369 . S
C552 C554 1.419 . S
C552 H556 0.930 1_455 S
C553 C552 1.369 . S
C553 C562 1.429 . S
C554 C552 1.419 . S
C554 C555 1.363 . S
C554 H557 0.929 1_455 S
C555 C554 1.363 . S
C555 C561 1.428 . S
H556 C552 0.930 1_655 S
H557 C554 0.929 1_655 S
S558 N559 1.613 . S
S558 N560 1.610 . S
N559 S558 1.613 . S
N559 C562 1.350 . S
N560 S558 1.610 . S
N560 C561 1.351 . S
C561 C555 1.428 . S
C561 N560 1.351 . S
C561 C562 1.434 . S
C562 C553 1.429 . S
C562 N559 1.350 . S
C562 C561 1.434 . S
C563 C564 1.369 . S
C563 C565 1.419 . S
C563 H567 0.930 . S
C564 C563 1.369 . S
C564 C573 1.429 1_545 S
C565 C563 1.419 . S
C565 C566 1.363 . S
C565 H568 0.929 . S
C566 C565 1.363 . S
C566 C572 1.428 1_545 S
H567 C563 0.930 . S
H568 C565 0.929 . S
S569 N570 1.613 . S
S569 N571 1.610 . S
N570 S569 1.613 . S
N570 C573 1.350 . S
N571 S569 1.610 . S
N571 C572 1.351 . S
C572 C566 1.428 1_565 S
C572 N571 1.351 . S
C572 C573 1.434 . S
C573 C564 1.429 1_565 S
C573 N570 1.350 . S
C573 C572 1.434 . S
C574 C575 1.369 . S
C574 C576 1.419 . S
C574 H578 0.930 . S
C575 C574 1.369 . S
C575 C584 1.429 . S
C576 C574 1.419 . S
C576 C577 1.363 . S
C576 H579 0.929 . S
C577 C576 1.363 . S
C577 C583 1.428 . S
H578 C574 0.930 . S
H579 C576 0.929 . S
S580 N581 1.613 . S
S580 N582 1.610 . S
N581 S580 1.613 . S
N581 C584 1.350 . S
N582 S580 1.610 . S
N582 C583 1.351 . S
C583 C577 1.428 . S
C583 N582 1.351 . S
C583 C584 1.434 . S
C584 C575 1.429 . S
C584 N581 1.350 . S
C584 C583 1.434 . S
C585 C586 1.369 . S
C585 C587 1.419 . S
C585 H589 0.930 . S
C586 C585 1.369 . S
C586 C595 1.429 . S
C587 C585 1.419 . S
C587 C588 1.363 . S
C587 H590 0.929 . S
C588 C587 1.363 . S
C588 C594 1.428 . S
H589 C585 0.930 . S
H590 C587 0.929 . S
S591 N592 1.613 . S
S591 N593 1.610 . S
N592 S591 1.613 . S
N592 C595 1.350 . S
N593 S591 1.610 . S
N593 C594 1.351 . S
C594 C588 1.428 . S
C594 N593 1.351 . S
C594 C595 1.434 . S
C595 C586 1.429 . S
C595 N592 1.350 . S
C595 C594 1.434 . S
C596 C597 1.369 . S
C596 C598 1.419 . S
C596 H600 0.930 . S
C597 C596 1.369 . S
C597 C606 1.429 . S
C598 C596 1.419 . S
C598 C599 1.363 . S
C598 H601 0.929 . S
C599 C598 1.363 . S
C599 C605 1.428 . S
H600 C596 0.930 . S
H601 C598 0.929 . S
S602 N603 1.613 . S
S602 N604 1.610 . S
N603 S602 1.613 . S
N603 C606 1.350 . S
N604 S602 1.610 . S
N604 C605 1.351 . S
C605 C599 1.428 . S
C605 N604 1.351 . S
C605 C606 1.434 . S
C606 C597 1.429 . S
C606 N603 1.350 . S
C606 C605 1.434 . S
C607 C608 1.369 . S
C607 C609 1.419 . S
C607 H611 0.930 . S
C608 C607 1.369 . S
C608 C617 1.429 . S
C609 C607 1.419 . S
C609 C610 1.363 . S
C609 H612 0.929 . S
C610 C609 1.363 . S
C610 C616 1.428 . S
H611 C607 0.930 . S
H612 C609 0.929 . S
S613 N614 1.613 . S
S613 N615 1.610 . S
N614 S613 1.613 . S
N614 C617 1.350 1_655 S
N615 S613 1.610 . S
N615 C616 1.351 1_655 S
C616 C610 1.428 . S
C616 N615 1.351 1_455 S
C616 C617 1.434 . S
C617 C608 1.429 . S
C617 N614 1.350 1_455 S
C617 C616 1.434 . S
C421 C2 1.152 . S
C423 C391 1.163 . S
C432 C21 1.111 . S
C434 C241 1.045 . S
C443 C42 1.160 . S
C445 C301 1.069 . S
C454 C1 1.109 . S
C456 C361 1.033 . S
C467 C271 1.161 . S
C465 C22 1.158 . S
C478 C331 1.111 . S
C476 C41 1.111 . S
C487 C38 2.013 . S
C489 C121 1.824 . S
C498 C59 2.050 . S
C500 C211 2.039 . S
C509 C18 2.015 . S
C511 C91 1.996 . S
C522 C151 2.039 . S
C520 C39 2.049 . S
C533 C181 1.833 . S
C531 C58 2.015 . S
C542 C19 2.049 . S
C544 C61 1.870 . S
C555 C200 1.556 . S
C553 C9 1.506 . S
C564 C29 1.509 . S
C566 C80 1.546 . S
C575 C49 1.510 . S
C577 C140 1.558 . S
C588 C320 1.362 . S
C586 C28 1.365 . S
C599 C380 1.376 . S
C597 C48 1.365 . S
C608 C8 1.366 . S
C610 C260 1.372 . S
