# Generated by pormake.
# Topology pto, (3,4)-cn, num edge types: 1
# Building blocks:
#     Node 0, Type 0, BuildingBlock: CUQRIR_clean_linker_1, # of connection points: 3
#     Node 1, Type 0, BuildingBlock: CUQRIR_clean_linker_1, # of connection points: 3
#     Node 2, Type 0, BuildingBlock: CUQRIR_clean_linker_1, # of connection points: 3
#     Node 3, Type 0, BuildingBlock: CUQRIR_clean_linker_1, # of connection points: 3
#     Node 4, Type 0, BuildingBlock: CUQRIR_clean_linker_1, # of connection points: 3
#     Node 5, Type 0, BuildingBlock: CUQRIR_clean_linker_1, # of connection points: 3
#     Node 6, Type 0, BuildingBlock: CUQRIR_clean_linker_1, # of connection points: 3
#     Node 7, Type 0, BuildingBlock: CUQRIR_clean_linker_1, # of connection points: 3
#     Node 8, Type 1, BuildingBlock: KOZSID_clean_sbu_0, # of connection points: 4
#     Node 9, Type 1, BuildingBlock: KOZSID_clean_sbu_0, # of connection points: 4
#     Node 10, Type 1, BuildingBlock: KOZSID_clean_sbu_0, # of connection points: 4
#     Node 11, Type 1, BuildingBlock: KOZSID_clean_sbu_0, # of connection points: 4
#     Node 12, Type 1, BuildingBlock: KOZSID_clean_sbu_0, # of connection points: 4
#     Node 13, Type 1, BuildingBlock: KOZSID_clean_sbu_0, # of connection points: 4
#     Edge 14, Type (0, 1), BuildingBlock: XIVTED_clean_linker_0, # of connection points: 2
#     Edge 15, Type (0, 1), BuildingBlock: XIVTED_clean_linker_0, # of connection points: 2
#     Edge 16, Type (0, 1), BuildingBlock: XIVTED_clean_linker_0, # of connection points: 2
#     Edge 17, Type (0, 1), BuildingBlock: XIVTED_clean_linker_0, # of connection points: 2
#     Edge 18, Type (0, 1), BuildingBlock: XIVTED_clean_linker_0, # of connection points: 2
#     Edge 19, Type (0, 1), BuildingBlock: XIVTED_clean_linker_0, # of connection points: 2
#     Edge 20, Type (0, 1), BuildingBlock: XIVTED_clean_linker_0, # of connection points: 2
#     Edge 21, Type (0, 1), BuildingBlock: XIVTED_clean_linker_0, # of connection points: 2
#     Edge 22, Type (0, 1), BuildingBlock: XIVTED_clean_linker_0, # of connection points: 2
#     Edge 23, Type (0, 1), BuildingBlock: XIVTED_clean_linker_0, # of connection points: 2
#     Edge 24, Type (0, 1), BuildingBlock: XIVTED_clean_linker_0, # of connection points: 2
#     Edge 25, Type (0, 1), BuildingBlock: XIVTED_clean_linker_0, # of connection points: 2
#     Edge 26, Type (0, 1), BuildingBlock: XIVTED_clean_linker_0, # of connection points: 2
#     Edge 27, Type (0, 1), BuildingBlock: XIVTED_clean_linker_0, # of connection points: 2
#     Edge 28, Type (0, 1), BuildingBlock: XIVTED_clean_linker_0, # of connection points: 2
#     Edge 29, Type (0, 1), BuildingBlock: XIVTED_clean_linker_0, # of connection points: 2
#     Edge 30, Type (0, 1), BuildingBlock: XIVTED_clean_linker_0, # of connection points: 2
#     Edge 31, Type (0, 1), BuildingBlock: XIVTED_clean_linker_0, # of connection points: 2
#     Edge 32, Type (0, 1), BuildingBlock: XIVTED_clean_linker_0, # of connection points: 2
#     Edge 33, Type (0, 1), BuildingBlock: XIVTED_clean_linker_0, # of connection points: 2
#     Edge 34, Type (0, 1), BuildingBlock: XIVTED_clean_linker_0, # of connection points: 2
#     Edge 35, Type (0, 1), BuildingBlock: XIVTED_clean_linker_0, # of connection points: 2
#     Edge 36, Type (0, 1), BuildingBlock: XIVTED_clean_linker_0, # of connection points: 2
#     Edge 37, Type (0, 1), BuildingBlock: XIVTED_clean_linker_0, # of connection points: 2
# Relax obj value: 0.020
# Max RMSD: 0.180
# Mean RMSD: 0.078
data_MOF--net-pto--node1-KOZSID_clean_sbu_0--node2-CUQRIR_clean_linker_1--edge1-XIVTED_clean_linker_0
_symmetry_space_group_name_H-M    P1
_symmetry_Int_Tables_number       1
_symmetry_cell_setting            triclinic
loop_
_symmetry_equiv_pos_as_xyz
'x, y, z'
_cell_length_a     36.405646
_cell_length_b     47.151104
_cell_length_c     41.490396
_cell_angle_alpha  77.578619
_cell_angle_beta   92.601226
_cell_angle_gamma 99.070792
loop_
_atom_site_label
_atom_site_type_symbol
_atom_site_fract_x
_atom_site_fract_y
_atom_site_fract_z
_atom_type_partial_charge
C0 C 0.29154 0.26448 0.30125 0.0
N1 N 0.30829 0.24477 0.29001 0.0
N2 N 0.29555 0.29062 0.27951 0.0
C3 C 0.27402 0.25925 0.3346 0.0
C4 C 0.31554 0.28634 0.25478 0.0
N5 N 0.32357 0.25857 0.26125 0.0
C6 C 0.32518 0.30871 0.22341 0.0
H7 H 0.24452 0.24914 0.33296 0.0
H8 H 0.2747 0.28019 0.34288 0.0
H9 H 0.28856 0.24417 0.35328 0.0
H10 H 0.35364 0.32058 0.22597 0.0
H11 H 0.30556 0.32495 0.21838 0.0
H12 H 0.32482 0.29789 0.20211 0.0
C13 C 0.32215 0.74033 0.70156 0.0
N14 N 0.34477 0.75721 0.71916 0.0
N15 N 0.30961 0.71376 0.72067 0.0
C16 C 0.31031 0.75061 0.6663 0.0
C17 C 0.32515 0.71515 0.75068 0.0
N18 N 0.34617 0.74176 0.74991 0.0
C19 C 0.31881 0.69079 0.78088 0.0
H20 H 0.29239 0.7678 0.66511 0.0
H21 H 0.29488 0.73235 0.65588 0.0
H22 H 0.33501 0.76061 0.65088 0.0
H23 H 0.34358 0.691 0.79746 0.0
H24 H 0.31244 0.669 0.77425 0.0
H25 H 0.29472 0.69392 0.79448 0.0
C26 C 0.9016 0.79054 0.34552 0.0
N27 N 0.88898 0.77457 0.32261 0.0
N28 N 0.88438 0.81458 0.34185 0.0
C29 C 0.93309 0.78417 0.3694 0.0
C30 C 0.86092 0.81262 0.31583 0.0
N31 N 0.86402 0.78854 0.30395 0.0
C32 C 0.83308 0.83303 0.30341 0.0
H33 H 0.9216 0.7694 0.39242 0.0
H34 H 0.94823 0.80466 0.37562 0.0
H35 H 0.95297 0.77301 0.35903 0.0
H36 H 0.84569 0.85081 0.28314 0.0
H37 H 0.82493 0.84307 0.32334 0.0
H38 H 0.80778 0.82119 0.29349 0.0
C39 C 0.76451 0.22934 0.75134 0.0
N40 N 0.78997 0.24436 0.72855 0.0
N41 N 0.74684 0.24806 0.76323 0.0
C42 C 0.75484 0.1964 0.76022 0.0
C43 C 0.76225 0.275 0.74679 0.0
N44 N 0.78811 0.27275 0.72538 0.0
C45 C 0.75396 0.30353 0.75332 0.0
H46 H 0.72626 0.1896 0.77012 0.0
H47 H 0.7747 0.18753 0.7794 0.0
H48 H 0.757 0.18672 0.73838 0.0
H49 H 0.74353 0.30061 0.77871 0.0
H50 H 0.73226 0.31151 0.73554 0.0
H51 H 0.77908 0.32053 0.74987 0.0
C52 C 0.79849 0.74446 0.76624 0.0
N53 N 0.81385 0.75642 0.73631 0.0
N54 N 0.77808 0.76296 0.77541 0.0
C55 C 0.80257 0.71438 0.78601 0.0
C56 C 0.78164 0.78663 0.75005 0.0
N57 N 0.80304 0.78255 0.72599 0.0
C58 C 0.76749 0.81492 0.75046 0.0
H59 H 0.80533 0.69917 0.76954 0.0
H60 H 0.77843 0.70521 0.80241 0.0
H61 H 0.82816 0.71605 0.80149 0.0
H62 H 0.76392 0.81737 0.77608 0.0
H63 H 0.7401 0.81485 0.73759 0.0
H64 H 0.78688 0.83415 0.73756 0.0
C65 C 0.85564 0.24585 0.26105 0.0
N66 N 0.8824 0.2583 0.27969 0.0
N67 N 0.83837 0.26664 0.24125 0.0
C68 C 0.84344 0.21325 0.26485 0.0
C69 C 0.85512 0.29214 0.24882 0.0
N70 N 0.88156 0.28706 0.27251 0.0
C71 C 0.84725 0.32211 0.23158 0.0
H72 H 0.86105 0.20468 0.24916 0.0
H73 H 0.81397 0.20827 0.25713 0.0
H74 H 0.84661 0.2016 0.29082 0.0
H75 H 0.83572 0.32184 0.20641 0.0
H76 H 0.87291 0.33852 0.22982 0.0
H77 H 0.82655 0.32898 0.24599 0.0
C78 C 0.23058 0.2672 0.7458 0.0
N79 N 0.25163 0.24634 0.74408 0.0
N80 N 0.21328 0.2757 0.71651 0.0
C81 C 0.22976 0.28129 0.77502 0.0
C82 C 0.2249 0.25949 0.69679 0.0
N83 N 0.24846 0.24176 0.7135 0.0
C84 C 0.21152 0.25978 0.66192 0.0
H85 H 0.20775 0.26823 0.79208 0.0
H86 H 0.22353 0.30407 0.76727 0.0
H87 H 0.25672 0.28176 0.78862 0.0
H88 H 0.23147 0.27541 0.64475 0.0
H89 H 0.18378 0.26696 0.65779 0.0
H90 H 0.20993 0.23768 0.6562 0.0
C91 C 0.33379 0.79318 0.32363 0.0
N92 N 0.3419 0.77802 0.30134 0.0
N93 N 0.36265 0.81423 0.32728 0.0
C94 C 0.29848 0.78641 0.34316 0.0
C95 C 0.38874 0.81121 0.30647 0.0
N96 N 0.3762 0.78898 0.29085 0.0
C97 C 0.42488 0.83166 0.2992 0.0
H98 H 0.27717 0.79845 0.32879 0.0
H99 H 0.3031 0.79338 0.3671 0.0
H100 H 0.28761 0.76257 0.3478 0.0
H101 H 0.44716 0.82204 0.31495 0.0
H102 H 0.42317 0.85345 0.30461 0.0
H103 H 0.4326 0.83463 0.27299 0.0
C104 C 0.16059 0.57798 0.31973 0.0
C105 C 0.17824 0.5844 0.34826 0.0
C106 C 0.16116 0.56453 0.37411 0.0
C107 C 0.13412 0.54724 0.36001 0.0
N108 N 0.13307 0.55464 0.32663 0.0
Co109 Co 0.09716 0.53595 0.29633 0.0
N110 N 0.07197 0.50677 0.33446 0.0
C111 C 0.07999 0.50498 0.36692 0.0
C112 C 0.05965 0.48147 0.38714 0.0
C113 C 0.03787 0.46697 0.36635 0.0
C114 C 0.04614 0.48264 0.33453 0.0
N115 N 0.0611 0.51736 0.26609 0.0
C116 C 0.036 0.49246 0.27281 0.0
C117 C 0.01716 0.48663 0.24455 0.0
C118 C 0.03162 0.5082 0.21889 0.0
C119 C 0.05822 0.52595 0.2329 0.0
N120 N 0.12265 0.56474 0.25812 0.0
C121 C 0.11415 0.56672 0.22569 0.0
C122 C 0.13645 0.58879 0.20523 0.0
C123 C 0.16047 0.60186 0.22579 0.0
C124 C 0.15129 0.58701 0.25774 0.0
N125 N 0.13149 0.50785 0.29336 0.0
C126 C 0.17458 0.46394 0.29014 0.0
C127 C 0.15731 0.47822 0.26192 0.0
C128 C 0.13643 0.50018 0.26399 0.0
C129 C 0.17107 0.47269 0.31978 0.0
C130 C 0.14939 0.49443 0.32087 0.0
N131 N 0.06257 0.56415 0.29929 0.0
C132 C 0.02431 0.60038 0.27274 0.0
C133 C 0.01686 0.60665 0.303 0.0
C134 C 0.03207 0.59071 0.33145 0.0
C135 C 0.05445 0.56971 0.32907 0.0
C136 C 0.04699 0.57935 0.27147 0.0
H137 H 0.06522 0.5586 0.35168 0.0
H138 H 0.05172 0.57604 0.24758 0.0
H139 H 0.12402 0.51029 0.24159 0.0
H140 H 0.14688 0.49959 0.34437 0.0
C141 C 0.10903 0.52413 0.37743 0.0
C142 C 0.1699 0.5955 0.28684 0.0
C143 C 0.03071 0.47278 0.30508 0.0
C144 C 0.08385 0.54856 0.21531 0.0
H145 H 0.20075 0.60191 0.35024 0.0
H146 H 0.16738 0.56311 0.40012 0.0
H147 H 0.06162 0.47492 0.41374 0.0
H148 H 0.01899 0.44664 0.37374 0.0
H149 H 0.99606 0.46812 0.2426 0.0
H150 H 0.0248 0.50993 0.19294 0.0
H151 H 0.13494 0.59499 0.17858 0.0
H152 H 0.18198 0.62052 0.2182 0.0
H153 H 0.15984 0.47245 0.2383 0.0
H154 H 0.18395 0.46214 0.34229 0.0
H155 H 0.01266 0.6116 0.24995 0.0
H156 H 0.02757 0.59482 0.35555 0.0
C157 C 0.07467 0.55231 0.70939 0.0
C158 C 0.08543 0.55807 0.74023 0.0
C159 C 0.05516 0.54827 0.76029 0.0
C160 C 0.02764 0.53706 0.7408 0.0
N161 N 0.03896 0.53879 0.70984 0.0
Co162 Co 0.00735 0.52628 0.67374 0.0
N163 N 0.97019 0.50171 0.70535 0.0
C164 C 0.96548 0.50419 0.7365 0.0
C165 C 0.93794 0.48314 0.75242 0.0
C166 C 0.92477 0.46644 0.72977 0.0
C167 C 0.94521 0.47829 0.70133 0.0
N168 N 0.97525 0.51367 0.63803 0.0
C169 C 0.94972 0.48924 0.63966 0.0
C170 C 0.93466 0.48753 0.6087 0.0
C171 C 0.95151 0.51197 0.58709 0.0
C172 C 0.97594 0.52709 0.60598 0.0
N173 N 0.04442 0.55078 0.64178 0.0
C174 C 0.03845 0.55994 0.60917 0.0
C175 C 0.06905 0.57704 0.59323 0.0
C176 C 0.09569 0.57914 0.6174 0.0
C177 C 0.07975 0.56324 0.64692 0.0
N178 N 0.03355 0.49268 0.67675 0.0
C179 C 0.06893 0.44328 0.68146 0.0
C180 C 0.06249 0.46108 0.65066 0.0
C181 C 0.04477 0.48563 0.64885 0.0
C182 C 0.05756 0.451 0.70982 0.0
C183 C 0.04005 0.47571 0.70694 0.0
N184 N 0.98121 0.5601 0.67097 0.0
C185 C 0.98388 0.61112 0.67252 0.0
C186 C 0.94503 0.60799 0.67339 0.0
C187 C 0.92456 0.58054 0.67139 0.0
C188 C 0.94318 0.55692 0.67007 0.0
C189 C 0.00128 0.58708 0.67148 0.0
H190 H 0.92686 0.53587 0.66924 0.0
H191 H 0.03117 0.59035 0.67191 0.0
H192 H 0.03982 0.49875 0.62484 0.0
H193 H 0.03155 0.48099 0.72921 0.0
C194 C 0.99267 0.52166 0.75165 0.0
C195 C 0.0972 0.56378 0.67952 0.0
C196 C 0.93949 0.46789 0.67041 0.0
C197 C 0.00559 0.54908 0.59394 0.0
H198 H 0.11203 0.56904 0.74725 0.0
H199 H 0.05362 0.5489 0.78612 0.0
H200 H 0.92991 0.47924 0.77798 0.0
H201 H 0.90301 0.44759 0.73377 0.0
H202 H 0.91435 0.47025 0.60222 0.0
H203 H 0.94821 0.51694 0.56051 0.0
H204 H 0.07192 0.58644 0.5671 0.0
H205 H 0.12335 0.59162 0.61386 0.0
H206 H 0.0705 0.45586 0.62805 0.0
H207 H 0.06249 0.43823 0.73419 0.0
H208 H 0.00099 0.63199 0.67314 0.0
H209 H 0.89446 0.57698 0.67202 0.0
C210 C 0.39262 0.98664 0.5915 0.0
C211 C 0.42756 0.98649 0.60626 0.0
C212 C 0.44832 0.01305 0.59295 0.0
C213 C 0.42491 0.02785 0.57095 0.0
N214 N 0.39085 0.01222 0.56963 0.0
Co215 Co 0.3487 0.02481 0.54113 0.0
N216 N 0.38237 0.05526 0.51096 0.0
C217 C 0.41738 0.06638 0.51839 0.0
C218 C 0.43356 0.08827 0.49356 0.0
C219 C 0.40697 0.09139 0.46915 0.0
C220 C 0.37585 0.07103 0.4804 0.0
N221 N 0.30635 0.03723 0.51266 0.0
C222 C 0.30618 0.05324 0.48135 0.0
C223 C 0.26991 0.05496 0.46998 0.0
C224 C 0.2469 0.04074 0.49557 0.0
C225 C 0.27015 0.03065 0.52092 0.0
N226 N 0.31525 0.99455 0.57162 0.0
C227 C 0.27835 0.99341 0.57437 0.0
C228 C 0.26264 0.96942 0.59715 0.0
C229 C 0.29151 0.95462 0.60949 0.0
C230 C 0.32336 0.9706 0.59359 0.0
N231 N 0.3433 0.05364 0.5676 0.0
C232 C 0.33311 0.09482 0.6049 0.0
C233 C 0.33196 0.10197 0.57034 0.0
C234 C 0.33713 0.08122 0.55226 0.0
C235 C 0.33981 0.06655 0.62039 0.0
C236 C 0.3449 0.04634 0.60132 0.0
N237 N 0.35391 0.99615 0.51457 0.0
C238 C 0.32565 0.95874 0.48609 0.0
C239 C 0.36029 0.95669 0.47409 0.0
C240 C 0.39186 0.97438 0.48352 0.0
C241 C 0.38806 0.99396 0.50373 0.0
C242 C 0.32308 0.9785 0.50622 0.0
H243 H 0.41269 0.00759 0.51026 0.0
H244 H 0.29599 0.97965 0.51479 0.0
H245 H 0.33563 0.0875 0.52578 0.0
H246 H 0.34985 0.02473 0.61389 0.0
C247 C 0.43547 0.05341 0.54705 0.0
C248 C 0.361 0.96321 0.60027 0.0
C249 C 0.33945 0.06995 0.46328 0.0
C250 C 0.25884 0.01116 0.55048 0.0
H251 H 0.43692 0.96906 0.62471 0.0
H252 H 0.47744 0.02013 0.59769 0.0
H253 H 0.46151 0.10027 0.49303 0.0
H254 H 0.40997 0.10745 0.44614 0.0
H255 H 0.2609 0.06581 0.4459 0.0
H256 H 0.2168 0.03732 0.49529 0.0
H257 H 0.23342 0.96251 0.60272 0.0
H258 H 0.28913 0.93425 0.62771 0.0
H259 H 0.3262 0.1233 0.55717 0.0
H260 H 0.34129 0.06008 0.64703 0.0
H261 H 0.30057 0.94511 0.48005 0.0
H262 H 0.41918 0.97365 0.47474 0.0
C263 C 0.53752 0.79026 0.08158 0.0
C264 C 0.53167 0.81798 0.08453 0.0
C265 C 0.55453 0.83778 0.06245 0.0
C266 C 0.573 0.82114 0.04733 0.0
N267 N 0.56315 0.79183 0.05827 0.0
Co268 Co 0.58334 0.75968 0.04317 0.0
N269 N 0.61907 0.78889 0.01261 0.0
C270 C 0.6245 0.81847 0.00891 0.0
C271 C 0.6508 0.83268 0.98596 0.0
C272 C 0.66264 0.81092 0.97403 0.0
C273 C 0.64265 0.78461 0.99038 0.0
N274 N 0.60282 0.72755 0.02744 0.0
C275 C 0.62747 0.72919 0.00333 0.0
C276 C 0.6319 0.70153 0.99905 0.0
C277 C 0.60899 0.68168 0.02103 0.0
C278 C 0.59187 0.69828 0.03732 0.0
N279 N 0.54829 0.73047 0.07439 0.0
C280 C 0.54428 0.70084 0.07936 0.0
C281 C 0.51898 0.68655 0.10315 0.0
C282 C 0.50637 0.70832 0.11443 0.0
C283 C 0.52485 0.73473 0.0968 0.0
N284 N 0.54515 0.76082 0.00722 0.0
C285 C 0.49659 0.7619 0.95213 0.0
C286 C 0.49861 0.73579 0.97522 0.0
C287 C 0.52301 0.73571 0.0023 0.0
C288 C 0.5182 0.78759 0.95774 0.0
C289 C 0.54172 0.78662 0.98537 0.0
N290 N 0.62191 0.75864 0.07881 0.0
C291 C 0.65991 0.73175 0.12025 0.0
C292 C 0.67927 0.7579 0.12705 0.0
C293 C 0.66868 0.7843 0.1099 0.0
C294 C 0.64022 0.78417 0.08624 0.0
C295 C 0.63155 0.73262 0.09623 0.0
H296 H 0.63367 0.80508 0.07426 0.0
H297 H 0.61802 0.71197 0.09203 0.0
H298 H 0.52398 0.715 0.01855 0.0
H299 H 0.55727 0.80703 0.9882 0.0
C300 C 0.60197 0.83234 0.02499 0.0
C301 C 0.51954 0.7632 0.10264 0.0
C302 C 0.64592 0.75633 0.98288 0.0
C303 C 0.56487 0.68708 0.06145 0.0
H304 H 0.51343 0.82337 0.10146 0.0
H305 H 0.55815 0.86149 0.05863 0.0
H306 H 0.65942 0.85612 0.97806 0.0
H307 H 0.68304 0.81406 0.9549 0.0
H308 H 0.64936 0.69624 0.98143 0.0
H309 H 0.60477 0.658 0.02432 0.0
H310 H 0.51095 0.66309 0.11152 0.0
H311 H 0.4861 0.70514 0.13367 0.0
H312 H 0.48232 0.71531 0.97187 0.0
H313 H 0.51699 0.80844 0.94085 0.0
H314 H 0.66702 0.71069 0.13291 0.0
H315 H 0.68208 0.80516 0.11484 0.0
C316 C 0.90024 0.99439 0.58611 0.0
C317 C 0.9263 0.98534 0.61002 0.0
C318 C 0.95614 0.00754 0.60633 0.0
C319 C 0.94658 0.02887 0.58058 0.0
N320 N 0.91259 0.02143 0.56805 0.0
Co321 Co 0.88784 0.0454 0.53086 0.0
N322 N 0.93597 0.06905 0.51452 0.0
C323 C 0.96797 0.07098 0.5321 0.0
C324 C 0.9965 0.08987 0.51489 0.0
C325 C 0.98136 0.10085 0.4848 0.0
C326 C 0.94427 0.08805 0.48538 0.0
N327 N 0.86266 0.06948 0.49391 0.0
C328 C 0.87703 0.08813 0.46634 0.0
C329 C 0.84919 0.10097 0.44727 0.0
C330 C 0.81658 0.09042 0.46393 0.0
C331 C 0.82615 0.07172 0.49208 0.0
N332 N 0.84001 0.02153 0.54741 0.0
C333 C 0.80588 0.02875 0.53988 0.0
C334 C 0.77803 0.00662 0.5529 0.0
C335 C 0.79579 0.98415 0.56964 0.0
C336 C 0.83375 0.99403 0.56637 0.0
N337 N 0.88242 0.07353 0.5583 0.0
C338 C 0.87131 0.11447 0.59566 0.0
C339 C 0.86432 0.08416 0.60909 0.0
C340 C 0.87004 0.06409 0.59001 0.0
C341 C 0.88484 0.12369 0.56347 0.0
C342 C 0.89015 0.10303 0.54533 0.0
N343 N 0.89304 0.01744 0.50334 0.0
C344 C 0.86603 0.98791 0.46519 0.0
C345 C 0.89839 0.97517 0.46634 0.0
C346 C 0.92826 0.98424 0.4861 0.0
C347 C 0.92519 0.0057 0.50408 0.0
C348 C 0.8638 0.00874 0.48404 0.0
H349 H 0.94867 0.01253 0.51889 0.0
H350 H 0.83812 0.01749 0.48333 0.0
H351 H 0.86391 0.0409 0.60072 0.0
H352 H 0.90012 0.11111 0.52056 0.0
C353 C 0.97103 0.05259 0.56321 0.0
C354 C 0.8634 0.97762 0.58211 0.0
C355 C 0.91695 0.09728 0.4597 0.0
C356 C 0.80116 0.05292 0.51468 0.0
H357 H 0.92409 0.96482 0.62803 0.0
H358 H 0.98239 0.00739 0.61965 0.0
H359 H 0.02499 0.09486 0.52307 0.0
H360 H 0.99567 0.11709 0.46506 0.0
H361 H 0.85224 0.11694 0.42416 0.0
H362 H 0.7891 0.09535 0.45608 0.0
H363 H 0.74837 0.00601 0.54877 0.0
H364 H 0.78203 0.96284 0.582 0.0
H365 H 0.8536 0.07595 0.63381 0.0
H366 H 0.89135 0.14682 0.5522 0.0
H367 H 0.84221 0.98128 0.45042 0.0
H368 H 0.95386 0.97503 0.48742 0.0
C369 C 0.46975 0.24772 0.05422 0.0
C370 C 0.46472 0.27493 0.05963 0.0
C371 C 0.49221 0.29517 0.04293 0.0
C372 C 0.51222 0.27935 0.02804 0.0
N373 N 0.49869 0.25044 0.03379 0.0
Co374 Co 0.5196 0.22001 0.01683 0.0
N375 N 0.55013 0.25031 0.98376 0.0
C376 C 0.55901 0.27902 0.98432 0.0
C377 C 0.5811 0.29458 0.95858 0.0
C378 C 0.58667 0.27438 0.94075 0.0
C379 C 0.56745 0.24752 0.95665 0.0
N380 N 0.54062 0.18971 0.99978 0.0
C381 C 0.5583 0.192 0.97109 0.0
C382 C 0.56732 0.16505 0.96841 0.0
C383 C 0.55554 0.14544 0.99674 0.0
C384 C 0.53975 0.16134 0.01495 0.0
N385 N 0.48929 0.18963 0.05015 0.0
C386 C 0.49404 0.16125 0.05977 0.0
C387 C 0.46987 0.1455 0.08386 0.0
C388 C 0.44888 0.16523 0.09027 0.0
C389 C 0.4615 0.19206 0.06963 0.0
N390 N 0.47888 0.21839 0.98463 0.0
C391 C 0.42706 0.21651 0.93297 0.0
C392 C 0.43439 0.19056 0.95417 0.0
C393 C 0.46054 0.19198 0.97976 0.0
C394 C 0.44494 0.2434 0.93907 0.0
C395 C 0.47041 0.24386 0.96514 0.0
N396 N 0.56073 0.22184 0.04871 0.0
C397 C 0.58383 0.2269 0.10276 0.0
C398 C 0.62054 0.2291 0.09258 0.0
C399 C 0.62652 0.22671 0.06022 0.0
C400 C 0.59635 0.223 0.0388 0.0
C401 C 0.55442 0.22326 0.08052 0.0
H402 H 0.60203 0.22173 0.01394 0.0
H403 H 0.52665 0.22207 0.08903 0.0
H404 H 0.46668 0.17167 0.99497 0.0
H405 H 0.48403 0.2649 0.96889 0.0
C406 C 0.54114 0.29125 0.00586 0.0
C407 C 0.44986 0.21978 0.07257 0.0
C408 C 0.56912 0.21958 0.94707 0.0
C409 C 0.51854 0.14952 0.0432 0.0
H410 H 0.44406 0.27953 0.07496 0.0
H411 H 0.49676 0.31866 0.04151 0.0
H412 H 0.59093 0.31798 0.95279 0.0
H413 H 0.60332 0.27891 0.91876 0.0
H414 H 0.58101 0.16005 0.94816 0.0
H415 H 0.55692 0.12212 0.00269 0.0
H416 H 0.46749 0.12236 0.09516 0.0
H417 H 0.42745 0.16059 0.10873 0.0
H418 H 0.42106 0.16932 0.95029 0.0
H419 H 0.43948 0.26398 0.92362 0.0
H420 H 0.57777 0.22805 0.12772 0.0
H421 H 0.65438 0.22854 0.05108 0.0
H422 H 0.33364 0.34441 0.28017 0.0
H423 H 0.24356 0.45506 0.31589 0.0
H424 H 0.22325 0.2954 0.28299 0.0
H425 H 0.15165 0.41679 0.26202 0.0
H426 H 0.27601 0.41361 0.31419 0.0
H427 H 0.30699 0.3886 0.28316 0.0
C428 C 0.30378 0.34312 0.2816 0.0
C429 C 0.28043 0.31652 0.28156 0.0
C430 C 0.249 0.41451 0.30232 0.0
C431 C 0.24978 0.36636 0.28523 0.0
C432 C 0.23035 0.43798 0.30358 0.0
C433 C 0.19505 0.43942 0.28882 0.0
C434 C 0.23197 0.3922 0.28652 0.0
C435 C 0.17907 0.4167 0.27325 0.0
C436 C 0.2886 0.36811 0.2836 0.0
C437 C 0.24194 0.31562 0.28326 0.0
N438 N 0.19751 0.39389 0.27277 0.0
N439 N 0.22773 0.34027 0.28475 0.0
H440 H 0.31494 0.65779 0.71786 0.0
H441 H 0.09968 0.62275 0.66797 0.0
H442 H 0.23848 0.72028 0.70557 0.0
H443 H 0.16882 0.5552 0.69731 0.0
H444 H 0.15253 0.65969 0.676 0.0
H445 H 0.264 0.62046 0.7055 0.0
C446 C 0.2873 0.66347 0.71256 0.0
C447 C 0.28048 0.69183 0.71286 0.0
C448 C 0.15637 0.63685 0.68051 0.0
C449 C 0.22254 0.64985 0.6984 0.0
C450 C 0.1263 0.61587 0.67573 0.0
C451 C 0.1303 0.58613 0.68172 0.0
C452 C 0.19071 0.62802 0.69149 0.0
C453 C 0.165 0.57806 0.6922 0.0
C454 C 0.25835 0.64234 0.70547 0.0
C455 C 0.24455 0.69854 0.70552 0.0
N456 N 0.194 0.59894 0.69682 0.0
N457 N 0.2169 0.67771 0.69859 0.0
H458 H 0.91927 0.7676 0.26717 0.0
H459 H 0.96673 0.60738 0.35054 0.0
H460 H 0.88972 0.7234 0.36657 0.0
H461 H 0.01517 0.65951 0.25953 0.0
H462 H 0.93213 0.64699 0.354 0.0
H463 H 0.94745 0.72514 0.26062 0.0
C464 C 0.91832 0.74867 0.28739 0.0
C465 C 0.90235 0.74877 0.31742 0.0
C466 C 0.95024 0.64969 0.33322 0.0
C467 C 0.93468 0.70045 0.31047 0.0
C468 C 0.97023 0.62713 0.3313 0.0
C469 C 0.9942 0.63003 0.30477 0.0
C470 C 0.95401 0.67539 0.30838 0.0
C471 C 0.99677 0.65599 0.28025 0.0
C472 C 0.93458 0.72459 0.28381 0.0
C473 C 0.90205 0.72401 0.34314 0.0
N474 N 0.97705 0.67763 0.2827 0.0
N475 N 0.91809 0.70085 0.33915 0.0
H476 H 0.76991 0.31327 0.67355 0.0
H477 H 0.86773 0.45424 0.65008 0.0
H478 H 0.86119 0.28797 0.73675 0.0
H479 H 0.96245 0.41488 0.69276 0.0
H480 H 0.83135 0.40555 0.65533 0.0
H481 H 0.80743 0.3607 0.65159 0.0
C482 C 0.79832 0.31774 0.6822 0.0
C483 C 0.81272 0.29698 0.70677 0.0
C484 C 0.86032 0.40712 0.66267 0.0
C485 C 0.85525 0.35191 0.68381 0.0
C486 C 0.88103 0.43511 0.65974 0.0
C487 C 0.91817 0.43836 0.67042 0.0
C488 C 0.87688 0.38211 0.6766 0.0
C489 C 0.93391 0.41308 0.68388 0.0
C490 C 0.81959 0.34506 0.67028 0.0
C491 C 0.84943 0.30353 0.71758 0.0
N492 N 0.91314 0.38601 0.68676 0.0
N493 N 0.8693 0.33061 0.70638 0.0
H494 H 0.25287 0.20266 0.31741 0.0
H495 H 0.36905 0.07818 0.40142 0.0
H496 H 0.37128 0.21993 0.30249 0.0
H497 H 0.30049 0.11559 0.45814 0.0
H498 H 0.3618 0.1185 0.35343 0.0
H499 H 0.26039 0.15703 0.357 0.0
C500 C 0.28034 0.19651 0.32208 0.0
C501 C 0.3116 0.21527 0.30735 0.0
C502 C 0.34809 0.11746 0.37637 0.0
C503 C 0.32018 0.16295 0.35147 0.0
C504 C 0.35211 0.09461 0.40356 0.0
C505 C 0.33462 0.09327 0.43344 0.0
C506 C 0.32566 0.13842 0.37911 0.0
C507 C 0.31353 0.11534 0.43528 0.0
C508 C 0.28457 0.17057 0.34448 0.0
C509 C 0.34655 0.20601 0.31345 0.0
N510 N 0.30922 0.13676 0.40838 0.0
N511 N 0.35005 0.18049 0.33537 0.0
H512 H 0.41915 0.7639 0.75156 0.0
H513 H 0.4241 0.73635 0.94743 0.0
H514 H 0.32003 0.74132 0.81005 0.0
H515 H 0.51523 0.78818 0.88831 0.0
H516 H 0.38618 0.73608 0.89717 0.0
H517 H 0.45572 0.77266 0.80077 0.0
C518 C 0.40512 0.76129 0.7747 0.0
C519 C 0.36679 0.75141 0.77708 0.0
C520 C 0.41438 0.74771 0.8952 0.0
C521 C 0.40812 0.76064 0.83337 0.0
C522 C 0.43608 0.74768 0.92385 0.0
C523 C 0.47284 0.76227 0.92201 0.0
C524 C 0.42973 0.762 0.86439 0.0
C525 C 0.48691 0.77684 0.89083 0.0
C526 C 0.4259 0.76608 0.80277 0.0
C527 C 0.34972 0.74822 0.80754 0.0
N528 N 0.46547 0.7761 0.8632 0.0
N529 N 0.37054 0.75237 0.83462 0.0
H530 H 0.88526 0.80826 0.40835 0.0
H531 H 0.88242 0.97763 0.40102 0.0
H532 H 0.8971 0.87317 0.31744 0.0
H533 H 0.91832 0.92061 0.48849 0.0
H534 H 0.88221 0.93853 0.37049 0.0
H535 H 0.89262 0.84795 0.43917 0.0
C536 C 0.88973 0.83089 0.39497 0.0
C537 C 0.89034 0.83756 0.36038 0.0
C538 C 0.89041 0.93463 0.3963 0.0
C539 C 0.89796 0.88287 0.39516 0.0
C540 C 0.89039 0.95686 0.41371 0.0
C541 C 0.90043 0.95227 0.44725 0.0
C542 C 0.89982 0.90738 0.41269 0.0
C543 C 0.91067 0.92504 0.46257 0.0
C544 C 0.89382 0.85348 0.41248 0.0
C545 C 0.89578 0.86719 0.34408 0.0
N546 N 0.90973 0.90346 0.44525 0.0
N547 N 0.89902 0.88875 0.36157 0.0
H548 H 0.75403 0.21656 0.82486 0.0
H549 H 0.55335 0.23635 0.88137 0.0
H550 H 0.67843 0.26395 0.75987 0.0
H551 H 0.63885 0.20529 0.94882 0.0
H552 H 0.59538 0.24124 0.83504 0.0
H553 H 0.70865 0.20648 0.86936 0.0
C554 C 0.72762 0.22459 0.82007 0.0
C555 C 0.71972 0.24108 0.78897 0.0
C556 C 0.60479 0.23305 0.85995 0.0
C557 C 0.66785 0.22995 0.83941 0.0
C558 C 0.5808 0.23015 0.88623 0.0
C559 C 0.59263 0.21994 0.91864 0.0
C560 C 0.64078 0.22573 0.86633 0.0
C561 C 0.6286 0.21269 0.92401 0.0
C562 C 0.70183 0.219 0.84537 0.0
C563 C 0.68538 0.25131 0.78374 0.0
N564 N 0.65141 0.2157 0.89811 0.0
N565 N 0.66063 0.24561 0.80876 0.0
H566 H 0.39844 0.78133 0.6747 0.0
H567 H 0.38725 0.91978 0.57894 0.0
H568 H 0.32049 0.8025 0.73728 0.0
H569 H 0.34829 0.94087 0.66608 0.0
H570 H 0.39203 0.87021 0.61015 0.0
H571 H 0.41148 0.83323 0.64703 0.0
C572 C 0.38455 0.79722 0.68279 0.0
C573 C 0.35829 0.78796 0.70795 0.0
C574 C 0.38331 0.8857 0.6229 0.0
C575 C 0.37133 0.84699 0.67561 0.0
C576 C 0.38027 0.91393 0.60489 0.0
C577 C 0.3669 0.93403 0.61997 0.0
C578 C 0.37304 0.87765 0.65635 0.0
C579 C 0.35822 0.92566 0.65359 0.0
C580 C 0.39143 0.82673 0.6667 0.0
C581 C 0.34096 0.80906 0.71792 0.0
N582 N 0.36095 0.89795 0.67056 0.0
N583 N 0.34747 0.83761 0.70147 0.0
H584 H 0.86678 0.8185 0.24116 0.0
H585 H 0.68403 0.7208 0.18781 0.0
H586 H 0.81451 0.73925 0.30452 0.0
H587 H 0.74536 0.79526 0.12258 0.0
H588 H 0.73356 0.7243 0.22945 0.0
H589 H 0.82519 0.80765 0.19587 0.0
C590 C 0.84676 0.79854 0.24516 0.0
C591 C 0.84373 0.77973 0.27628 0.0
C592 C 0.73628 0.7397 0.20591 0.0
C593 C 0.79553 0.76728 0.22514 0.0
C594 C 0.70807 0.73766 0.18207 0.0
C595 C 0.71024 0.75803 0.15177 0.0
C596 C 0.76686 0.76229 0.19942 0.0
C597 C 0.742 0.77951 0.14584 0.0
C598 C 0.82296 0.79233 0.21948 0.0
C599 C 0.81751 0.75412 0.28065 0.0
N600 N 0.76882 0.78119 0.16947 0.0
N601 N 0.79399 0.74877 0.25543 0.0
H602 H 0.83786 0.20591 0.74976 0.0
H603 H 0.84089 0.16477 0.57266 0.0
H604 H 0.78893 0.25295 0.66215 0.0
H605 H 0.88425 0.11443 0.66161 0.0
H606 H 0.82818 0.20054 0.60369 0.0
H607 H 0.86261 0.17618 0.71655 0.0
C608 C 0.83308 0.21028 0.72333 0.0
C609 C 0.81128 0.23164 0.70853 0.0
C610 C 0.84066 0.18177 0.61642 0.0
C611 C 0.83879 0.19763 0.67043 0.0
C612 C 0.84809 0.16134 0.59868 0.0
C613 C 0.8637 0.13645 0.61451 0.0
C614 C 0.84879 0.17739 0.65037 0.0
C615 C 0.87177 0.13303 0.64843 0.0
C616 C 0.84694 0.19326 0.70441 0.0
C617 C 0.80581 0.23672 0.67428 0.0
N618 N 0.86416 0.15321 0.66521 0.0
N619 N 0.81908 0.21958 0.65639 0.0
H620 H 0.2948 0.21407 0.23181 0.0
H621 H 0.37488 0.20581 0.08404 0.0
H622 H 0.39401 0.27504 0.24042 0.0
H623 H 0.47906 0.23462 0.12906 0.0
H624 H 0.34225 0.20938 0.13326 0.0
H625 H 0.32376 0.19869 0.18719 0.0
C626 C 0.32294 0.22379 0.22449 0.0
C627 C 0.34221 0.24582 0.23937 0.0
C628 C 0.37228 0.21433 0.13276 0.0
C629 C 0.37503 0.22937 0.18806 0.0
C630 C 0.39075 0.21257 0.10455 0.0
C631 C 0.42945 0.22022 0.10263 0.0
C632 C 0.39289 0.22384 0.15907 0.0
C633 C 0.44907 0.22881 0.12967 0.0
C634 C 0.33925 0.21544 0.19875 0.0
C635 C 0.37845 0.25804 0.22923 0.0
N636 N 0.43054 0.23073 0.15659 0.0
N637 N 0.39368 0.24973 0.20412 0.0
H638 H 0.88485 0.75 0.75069 0.0
H639 H 0.8795 0.62538 0.64553 0.0
H640 H 0.79413 0.72981 0.68539 0.0
H641 H 0.96833 0.64739 0.71258 0.0
H642 H 0.84993 0.66606 0.65531 0.0
H643 H 0.91928 0.71646 0.73114 0.0
C644 C 0.87283 0.73903 0.73142 0.0
C645 C 0.83712 0.74277 0.71917 0.0
C646 C 0.87607 0.66208 0.66762 0.0
C647 C 0.87526 0.70345 0.69755 0.0
C648 C 0.89283 0.63872 0.66224 0.0
C649 C 0.9266 0.63289 0.67814 0.0
C650 C 0.8931 0.67968 0.68916 0.0
C651 C 0.94271 0.65121 0.69926 0.0
C652 C 0.89215 0.71965 0.7205 0.0
C653 C 0.82198 0.72768 0.69487 0.0
N654 N 0.92581 0.67358 0.70418 0.0
N655 N 0.84094 0.70834 0.68507 0.0
H656 H 0.95656 0.29803 0.27135 0.0
H657 H 0.96058 0.45081 0.32786 0.0
H658 H 0.86036 0.32626 0.30364 0.0
H659 H 0.05481 0.42685 0.28677 0.0
H660 H 0.92573 0.40196 0.32706 0.0
H661 H 0.99573 0.34129 0.28544 0.0
C662 C 0.94398 0.3131 0.28211 0.0
C663 C 0.90542 0.309 0.28616 0.0
C664 C 0.95416 0.4072 0.31853 0.0
C665 C 0.94939 0.35847 0.3018 0.0
C666 C 0.97395 0.435 0.31908 0.0
C667 C 0.01042 0.44254 0.30746 0.0
C668 C 0.97097 0.38696 0.30604 0.0
C669 C 0.02666 0.4216 0.29598 0.0
C670 C 0.96612 0.33785 0.28988 0.0
C671 C 0.89005 0.32905 0.29992 0.0
N672 N 0.00676 0.39476 0.29539 0.0
N673 N 0.91201 0.35309 0.30697 0.0
H674 H 0.22287 0.32354 0.66669 0.0
H675 H 0.05198 0.38935 0.72286 0.0
H676 H 0.15108 0.27906 0.7475 0.0
H677 H 0.12832 0.43704 0.6463 0.0
H678 H 0.08494 0.34721 0.7292 0.0
H679 H 0.18531 0.36361 0.6553 0.0
C680 C 0.19884 0.32216 0.68171 0.0
C681 C 0.18988 0.29819 0.70803 0.0
C682 C 0.09444 0.36684 0.71092 0.0
C683 C 0.14714 0.34379 0.69563 0.0
C684 C 0.07574 0.391 0.70741 0.0
C685 C 0.08758 0.41694 0.68422 0.0
C686 C 0.12531 0.36851 0.69112 0.0
C687 C 0.11804 0.41748 0.66436 0.0
C688 C 0.17757 0.34502 0.6754 0.0
C689 C 0.15884 0.29738 0.72713 0.0
N690 N 0.13597 0.39371 0.66839 0.0
N691 N 0.13864 0.31991 0.72065 0.0
H692 H 0.2745 0.77866 0.27219 0.0
H693 H 0.15031 0.64991 0.27599 0.0
H694 H 0.35577 0.72235 0.30924 0.0
H695 H 0.24592 0.60514 0.29052 0.0
H696 H 0.1909 0.69646 0.27418 0.0
H697 H 0.2313 0.73628 0.26221 0.0
C698 C 0.283 0.75712 0.27816 0.0
C699 C 0.31826 0.75367 0.29181 0.0
C700 C 0.20356 0.67683 0.27695 0.0
C701 C 0.26863 0.70453 0.28208 0.0
C702 C 0.18013 0.65018 0.27823 0.0
C703 C 0.19501 0.62397 0.28334 0.0
C704 C 0.24231 0.67724 0.28063 0.0
C705 C 0.23363 0.6251 0.28648 0.0
C706 C 0.25823 0.73274 0.27291 0.0
C707 C 0.32861 0.72563 0.29875 0.0
N708 N 0.25598 0.65132 0.28527 0.0
N709 N 0.30374 0.70204 0.29413 0.0
H710 H 0.8733 0.80611 0.70613 0.0
H711 H 0.81556 0.95403 0.63336 0.0
H712 H 0.75797 0.80879 0.67997 0.0
H713 H 0.89477 0.93083 0.57315 0.0
H714 H 0.8014 0.90235 0.66154 0.0
H715 H 0.89014 0.85249 0.66531 0.0
C716 C 0.85175 0.8159 0.6909 0.0
C717 C 0.81421 0.80392 0.69638 0.0
C718 C 0.82159 0.90861 0.64189 0.0
C719 C 0.83292 0.85691 0.65126 0.0
C720 C 0.82943 0.93793 0.62566 0.0
C721 C 0.85503 0.94636 0.59987 0.0
C722 C 0.84074 0.88778 0.63336 0.0
C723 C 0.8741 0.92492 0.59237 0.0
C724 C 0.86128 0.84236 0.66795 0.0
C725 C 0.78715 0.81764 0.67654 0.0
N726 N 0.86677 0.89646 0.60923 0.0
N727 N 0.79689 0.84388 0.65554 0.0
H728 H 0.83529 0.23694 0.19225 0.0
H729 H 0.62815 0.2651 0.13714 0.0
H730 H 0.77224 0.28607 0.23953 0.0
H731 H 0.6859 0.20602 0.09943 0.0
H732 H 0.68144 0.27481 0.17316 0.0
H733 H 0.78193 0.22753 0.15571 0.0
C734 C 0.81009 0.24576 0.19474 0.0
C735 C 0.80788 0.26226 0.2187 0.0
C736 C 0.68242 0.25968 0.15704 0.0
C737 C 0.74695 0.2518 0.17726 0.0
C738 C 0.65187 0.25395 0.13661 0.0
C739 C 0.65244 0.23465 0.1152 0.0
C740 C 0.7139 0.24612 0.15604 0.0
C741 C 0.68435 0.22134 0.11518 0.0
C742 C 0.77971 0.24044 0.174 0.0
C743 C 0.77493 0.27349 0.22104 0.0
N744 N 0.71378 0.22735 0.13524 0.0
N745 N 0.74567 0.26803 0.20059 0.0
H746 H 0.24406 0.18383 0.73984 0.0
H747 H 0.35697 0.15431 0.59191 0.0
H748 H 0.29146 0.25181 0.65965 0.0
H749 H 0.29333 0.08512 0.66211 0.0
H750 H 0.34031 0.19028 0.62085 0.0
H751 H 0.26927 0.14735 0.7164 0.0
C752 C 0.26015 0.19098 0.71745 0.0
C753 C 0.2655 0.22061 0.70135 0.0
C754 C 0.33014 0.16722 0.63005 0.0
C755 C 0.29422 0.17938 0.67433 0.0
C756 C 0.33951 0.14664 0.61344 0.0
C757 C 0.32616 0.11659 0.62429 0.0
C758 C 0.30727 0.15781 0.65785 0.0
C759 C 0.30443 0.10798 0.65288 0.0
C760 C 0.27435 0.17025 0.70399 0.0
C761 C 0.28637 0.22902 0.67239 0.0
N762 N 0.29545 0.1285 0.66853 0.0
N763 N 0.29987 0.20849 0.65971 0.0
H764 H 0.34948 0.78793 0.22934 0.0
H765 H 0.54014 0.7533 0.16743 0.0
H766 H 0.44442 0.77298 0.29275 0.0
H767 H 0.44886 0.77591 0.10235 0.0
H768 H 0.50366 0.75636 0.21458 0.0
H769 H 0.38306 0.77897 0.1834 0.0
C770 C 0.37726 0.78232 0.23356 0.0
C771 C 0.39439 0.78116 0.26462 0.0
C772 C 0.4915 0.76061 0.19003 0.0
C773 C 0.43321 0.77138 0.21242 0.0
C774 C 0.5123 0.75887 0.16325 0.0
C775 C 0.49735 0.76458 0.13125 0.0
C776 C 0.45547 0.76804 0.18467 0.0
C777 C 0.46123 0.77155 0.12681 0.0
C778 C 0.39653 0.77744 0.20739 0.0
C779 C 0.43055 0.77423 0.26898 0.0
N780 N 0.44149 0.77318 0.15324 0.0
N781 N 0.44887 0.76971 0.24312 0.0
H782 H 0.88413 0.26135 0.34397 0.0
H783 H 0.93257 0.10113 0.39498 0.0
H784 H 0.92666 0.21866 0.27499 0.0
H785 H 0.92319 0.15386 0.46613 0.0
H786 H 0.93734 0.14558 0.35091 0.0
H787 H 0.90571 0.22519 0.38965 0.0
C788 C 0.89917 0.24489 0.33857 0.0
C789 C 0.90338 0.24261 0.30591 0.0
C790 C 0.93514 0.14761 0.37623 0.0
C791 C 0.92695 0.20067 0.35762 0.0
C792 C 0.93253 0.12227 0.40126 0.0
C793 C 0.92761 0.12413 0.43392 0.0
C794 C 0.93194 0.17474 0.38403 0.0
C795 C 0.92714 0.1518 0.44107 0.0
C796 C 0.9112 0.22409 0.36455 0.0
C797 C 0.92259 0.22074 0.3 0.0
N798 N 0.92863 0.176 0.41625 0.0
N799 N 0.93296 0.20018 0.32559 0.0
H800 H 0.32599 0.25271 0.73875 0.0
H801 H 0.35713 0.1851 0.93073 0.0
H802 H 0.23586 0.21546 0.8058 0.0
H803 H 0.43966 0.24618 0.86946 0.0
H804 H 0.31466 0.18687 0.88284 0.0
H805 H 0.37055 0.24063 0.78403 0.0
C806 C 0.31577 0.24137 0.76295 0.0
C807 C 0.27753 0.23506 0.76889 0.0
C808 C 0.34216 0.19971 0.8799 0.0
C809 C 0.32776 0.22155 0.82065 0.0
C810 C 0.36638 0.19864 0.90713 0.0
C811 C 0.40172 0.2158 0.90406 0.0
C812 C 0.35363 0.21775 0.84936 0.0
C813 C 0.41239 0.23301 0.87297 0.0
C814 C 0.34102 0.23472 0.78878 0.0
C815 C 0.2653 0.22068 0.80058 0.0
N816 N 0.38844 0.23359 0.84685 0.0
N817 N 0.29036 0.21454 0.82543 0.0
H818 H 0.3138 0.85186 0.32544 0.0
H819 H 0.41353 0.92134 0.47316 0.0
H820 H 0.41434 0.82623 0.37338 0.0
H821 H 0.31338 0.94642 0.42305 0.0
H822 H 0.41606 0.88766 0.43608 0.0
H823 H 0.31449 0.88771 0.36035 0.0
C824 C 0.33599 0.85389 0.34346 0.0
C825 C 0.36389 0.83612 0.34687 0.0
C826 C 0.39358 0.90058 0.4332 0.0
C827 C 0.3652 0.87705 0.38681 0.0
C828 C 0.39222 0.91992 0.45425 0.0
C829 C 0.36304 0.93661 0.4514 0.0
C830 C 0.36562 0.89797 0.40905 0.0
C831 C 0.336 0.93363 0.42662 0.0
C832 C 0.33652 0.87436 0.3633 0.0
C833 C 0.39243 0.8397 0.37014 0.0
N834 N 0.33793 0.91469 0.40652 0.0
N835 N 0.39231 0.85971 0.38939 0.0
H836 H 0.70597 0.76755 0.7808 0.0
H837 H 0.71536 0.74266 0.97834 0.0
H838 H 0.80457 0.74994 0.83796 0.0
H839 H 0.62071 0.76804 0.91956 0.0
H840 H 0.74753 0.742 0.92772 0.0
H841 H 0.67281 0.7644 0.83185 0.0
C842 C 0.72044 0.76286 0.80428 0.0
C843 C 0.75786 0.75902 0.80543 0.0
C844 C 0.71971 0.74765 0.92585 0.0
C845 C 0.72048 0.75539 0.86384 0.0
C846 C 0.70148 0.748 0.95465 0.0
C847 C 0.66557 0.75538 0.95274 0.0
C848 C 0.70174 0.75473 0.89509 0.0
C849 C 0.64848 0.76224 0.92176 0.0
C850 C 0.70164 0.76107 0.83336 0.0
C851 C 0.77558 0.75279 0.83627 0.0
N852 N 0.66672 0.76176 0.89408 0.0
N853 N 0.75677 0.75127 0.86433 0.0
loop_
_geom_bond_atom_site_label_1
_geom_bond_atom_site_label_2
_geom_bond_distance
_geom_bond_site_symmetry_2
_ccdc_geom_bond_type
C0 N1 1.317 . S
C0 N2 1.348 . S
C0 C3 1.485 . S
N1 C0 1.317 . S
N1 N5 1.370 . S
N2 C0 1.348 . S
N2 C4 1.346 . S
C3 C0 1.485 . S
C3 H7 0.960 . S
C3 H8 0.961 . S
C3 H9 0.960 . S
C4 N2 1.346 . S
C4 N5 1.307 . S
C4 C6 1.486 . S
N5 N1 1.370 . S
N5 C4 1.307 . S
C6 C4 1.486 . S
C6 H10 0.960 . S
C6 H11 0.960 . S
C6 H12 0.959 . S
H7 C3 0.960 . S
H8 C3 0.961 . S
H9 C3 0.960 . S
H10 C6 0.960 . S
H11 C6 0.960 . S
H12 C6 0.959 . S
C13 N14 1.317 . S
C13 N15 1.348 . S
C13 C16 1.485 . S
N14 C13 1.317 . S
N14 N18 1.370 . S
N15 C13 1.348 . S
N15 C17 1.346 . S
C16 C13 1.485 . S
C16 H20 0.960 . S
C16 H21 0.961 . S
C16 H22 0.960 . S
C17 N15 1.346 . S
C17 N18 1.307 . S
C17 C19 1.486 . S
N18 N14 1.370 . S
N18 C17 1.307 . S
C19 C17 1.486 . S
C19 H23 0.960 . S
C19 H24 0.960 . S
C19 H25 0.959 . S
H20 C16 0.960 . S
H21 C16 0.961 . S
H22 C16 0.960 . S
H23 C19 0.960 . S
H24 C19 0.960 . S
H25 C19 0.959 . S
C26 N27 1.317 . S
C26 N28 1.348 . S
C26 C29 1.485 . S
N27 C26 1.317 . S
N27 N31 1.370 . S
N28 C26 1.348 . S
N28 C30 1.346 . S
C29 C26 1.485 . S
C29 H33 0.960 . S
C29 H34 0.961 . S
C29 H35 0.960 . S
C30 N28 1.346 . S
C30 N31 1.307 . S
C30 C32 1.486 . S
N31 N27 1.370 . S
N31 C30 1.307 . S
C32 C30 1.486 . S
C32 H36 0.960 . S
C32 H37 0.960 . S
C32 H38 0.959 . S
H33 C29 0.960 . S
H34 C29 0.961 . S
H35 C29 0.960 . S
H36 C32 0.960 . S
H37 C32 0.960 . S
H38 C32 0.959 . S
C39 N40 1.317 . S
C39 N41 1.348 . S
C39 C42 1.485 . S
N40 C39 1.317 . S
N40 N44 1.370 . S
N41 C39 1.348 . S
N41 C43 1.346 . S
C42 C39 1.485 . S
C42 H46 0.960 . S
C42 H47 0.961 . S
C42 H48 0.960 . S
C43 N41 1.346 . S
C43 N44 1.307 . S
C43 C45 1.486 . S
N44 N40 1.370 . S
N44 C43 1.307 . S
C45 C43 1.486 . S
C45 H49 0.960 . S
C45 H50 0.960 . S
C45 H51 0.959 . S
H46 C42 0.960 . S
H47 C42 0.961 . S
H48 C42 0.960 . S
H49 C45 0.960 . S
H50 C45 0.960 . S
H51 C45 0.959 . S
C52 N53 1.317 . S
C52 N54 1.348 . S
C52 C55 1.485 . S
N53 C52 1.317 . S
N53 N57 1.370 . S
N54 C52 1.348 . S
N54 C56 1.346 . S
C55 C52 1.485 . S
C55 H59 0.960 . S
C55 H60 0.961 . S
C55 H61 0.960 . S
C56 N54 1.346 . S
C56 N57 1.307 . S
C56 C58 1.486 . S
N57 N53 1.370 . S
N57 C56 1.307 . S
C58 C56 1.486 . S
C58 H62 0.960 . S
C58 H63 0.960 . S
C58 H64 0.959 . S
H59 C55 0.960 . S
H60 C55 0.961 . S
H61 C55 0.960 . S
H62 C58 0.960 . S
H63 C58 0.960 . S
H64 C58 0.959 . S
C65 N66 1.317 . S
C65 N67 1.348 . S
C65 C68 1.485 . S
N66 C65 1.317 . S
N66 N70 1.370 . S
N67 C65 1.348 . S
N67 C69 1.346 . S
C68 C65 1.485 . S
C68 H72 0.960 . S
C68 H73 0.961 . S
C68 H74 0.960 . S
C69 N67 1.346 . S
C69 N70 1.307 . S
C69 C71 1.486 . S
N70 N66 1.370 . S
N70 C69 1.307 . S
C71 C69 1.486 . S
C71 H75 0.960 . S
C71 H76 0.960 . S
C71 H77 0.959 . S
H72 C68 0.960 . S
H73 C68 0.961 . S
H74 C68 0.960 . S
H75 C71 0.960 . S
H76 C71 0.960 . S
H77 C71 0.959 . S
C78 N79 1.317 . S
C78 N80 1.348 . S
C78 C81 1.485 . S
N79 C78 1.317 . S
N79 N83 1.370 . S
N80 C78 1.348 . S
N80 C82 1.346 . S
C81 C78 1.485 . S
C81 H85 0.960 . S
C81 H86 0.961 . S
C81 H87 0.960 . S
C82 N80 1.346 . S
C82 N83 1.307 . S
C82 C84 1.486 . S
N83 N79 1.370 . S
N83 C82 1.307 . S
C84 C82 1.486 . S
C84 H88 0.960 . S
C84 H89 0.960 . S
C84 H90 0.959 . S
H85 C81 0.960 . S
H86 C81 0.961 . S
H87 C81 0.960 . S
H88 C84 0.960 . S
H89 C84 0.960 . S
H90 C84 0.959 . S
C91 N92 1.317 . S
C91 N93 1.348 . S
C91 C94 1.485 . S
N92 C91 1.317 . S
N92 N96 1.370 . S
N93 C91 1.348 . S
N93 C95 1.346 . S
C94 C91 1.485 . S
C94 H98 0.960 . S
C94 H99 0.961 . S
C94 H100 0.960 . S
C95 N93 1.346 . S
C95 N96 1.307 . S
C95 C97 1.486 . S
N96 N92 1.370 . S
N96 C95 1.307 . S
C97 C95 1.486 . S
C97 H101 0.960 . S
C97 H102 0.960 . S
C97 H103 0.959 . S
H98 C94 0.960 . S
H99 C94 0.961 . S
H100 C94 0.960 . S
H101 C97 0.960 . S
H102 C97 0.960 . S
H103 C97 0.959 . S
C104 C105 1.443 . S
C104 N108 1.376 . S
C104 C142 1.389 . S
C105 C104 1.443 . S
C105 C106 1.340 . S
C105 H145 0.951 . S
C106 C105 1.340 . S
C106 C107 1.439 . S
C106 H146 0.950 . S
C107 C106 1.439 . S
C107 N108 1.374 . S
C107 C141 1.395 . S
N108 C104 1.376 . S
N108 C107 1.374 . S
N108 Co109 2.008 . S
Co109 N108 2.008 . S
Co109 N110 1.995 . S
Co109 N115 2.008 . S
Co109 N120 1.995 . S
Co109 N125 2.282 . S
Co109 N131 2.282 . S
N110 Co109 1.995 . S
N110 C111 1.376 . S
N110 C114 1.383 . S
C111 N110 1.376 . S
C111 C112 1.446 . S
C111 C141 1.391 . S
C112 C111 1.446 . S
C112 C113 1.339 . S
C112 H147 0.949 . S
C113 C112 1.339 . S
C113 C114 1.439 . S
C113 H148 0.950 1_455 S
C114 N110 1.383 . S
C114 C113 1.439 . S
C114 C143 1.392 . S
N115 Co109 2.008 . S
N115 C116 1.376 . S
N115 C119 1.374 . S
C116 N115 1.376 . S
C116 C117 1.443 . S
C116 C143 1.389 . S
C117 C116 1.443 . S
C117 C118 1.340 . S
C117 H149 0.951 . S
C118 C117 1.340 . S
C118 C119 1.439 . S
C118 H150 0.950 . S
C119 N115 1.374 . S
C119 C118 1.439 . S
C119 C144 1.395 . S
N120 Co109 1.995 . S
N120 C121 1.376 . S
N120 C124 1.383 . S
C121 N120 1.376 . S
C121 C122 1.446 . S
C121 C144 1.391 . S
C122 C121 1.446 . S
C122 C123 1.339 . S
C122 H151 0.949 . S
C123 C122 1.339 . S
C123 C124 1.439 . S
C123 H152 0.950 . S
C124 N120 1.383 . S
C124 C123 1.439 . S
C124 C142 1.392 . S
N125 Co109 2.282 . S
N125 C128 1.332 . S
N125 C130 1.332 . S
C126 C127 1.386 . S
C126 C129 1.388 . S
C127 C126 1.386 . S
C127 C128 1.382 . S
C127 H153 0.950 . S
C128 N125 1.332 . S
C128 C127 1.382 . S
C128 H139 0.952 . S
C129 C126 1.388 . S
C129 C130 1.382 . S
C129 H154 0.950 . S
C130 N125 1.332 . S
C130 C129 1.382 . S
C130 H140 0.948 . S
N131 Co109 2.282 . S
N131 C135 1.332 . S
N131 C136 1.332 . S
C132 C133 1.388 . S
C132 C136 1.382 . S
C132 H155 0.950 . S
C133 C132 1.388 . S
C133 C134 1.386 . S
C134 C133 1.386 . S
C134 C135 1.382 . S
C134 H156 0.950 . S
C135 N131 1.332 . S
C135 C134 1.382 . S
C135 H137 0.952 . S
C136 N131 1.332 . S
C136 C132 1.382 . S
C136 H138 0.948 . S
H137 C135 0.952 . S
H138 C136 0.948 . S
H139 C128 0.952 . S
H140 C130 0.948 . S
C141 C107 1.395 . S
C141 C111 1.391 . S
C142 C104 1.389 . S
C142 C124 1.392 . S
C143 C114 1.392 . S
C143 C116 1.389 . S
C144 C119 1.395 . S
C144 C121 1.391 . S
H145 C105 0.951 . S
H146 C106 0.950 . S
H147 C112 0.949 . S
H148 C113 0.950 1_655 S
H149 C117 0.951 . S
H150 C118 0.950 . S
H151 C122 0.949 . S
H152 C123 0.950 . S
H153 C127 0.950 . S
H154 C129 0.950 . S
H155 C132 0.950 . S
H156 C134 0.950 . S
C157 C158 1.443 . S
C157 N161 1.376 . S
C157 C195 1.389 . S
C158 C157 1.443 . S
C158 C159 1.340 . S
C158 H198 0.951 . S
C159 C158 1.340 . S
C159 C160 1.439 . S
C159 H199 0.950 . S
C160 C159 1.439 . S
C160 N161 1.374 . S
C160 C194 1.395 1_455 S
N161 C157 1.376 . S
N161 C160 1.374 . S
N161 Co162 2.008 . S
Co162 N161 2.008 . S
Co162 N163 1.995 1_455 S
Co162 N168 2.008 1_455 S
Co162 N173 1.995 . S
Co162 N178 2.282 . S
Co162 N184 2.282 1_455 S
N163 Co162 1.995 1_655 S
N163 C164 1.376 . S
N163 C167 1.383 . S
C164 N163 1.376 . S
C164 C165 1.446 . S
C164 C194 1.391 . S
C165 C164 1.446 . S
C165 C166 1.339 . S
C165 H200 0.949 . S
C166 C165 1.339 . S
C166 C167 1.439 . S
C166 H201 0.950 . S
C167 N163 1.383 . S
C167 C166 1.439 . S
C167 C196 1.392 . S
N168 Co162 2.008 1_655 S
N168 C169 1.376 . S
N168 C172 1.374 . S
C169 N168 1.376 . S
C169 C170 1.443 . S
C169 C196 1.389 . S
C170 C169 1.443 . S
C170 C171 1.340 . S
C170 H202 0.951 . S
C171 C170 1.340 . S
C171 C172 1.439 . S
C171 H203 0.950 . S
C172 N168 1.374 . S
C172 C171 1.439 . S
C172 C197 1.395 1_655 S
N173 Co162 1.995 . S
N173 C174 1.376 . S
N173 C177 1.383 . S
C174 N173 1.376 . S
C174 C175 1.446 . S
C174 C197 1.391 . S
C175 C174 1.446 . S
C175 C176 1.339 . S
C175 H204 0.949 . S
C176 C175 1.339 . S
C176 C177 1.439 . S
C176 H205 0.950 . S
C177 N173 1.383 . S
C177 C176 1.439 . S
C177 C195 1.392 . S
N178 Co162 2.282 . S
N178 C181 1.332 . S
N178 C183 1.332 . S
C179 C180 1.386 . S
C179 C182 1.388 . S
C180 C179 1.386 . S
C180 C181 1.382 . S
C180 H206 0.950 . S
C181 N178 1.332 . S
C181 C180 1.382 . S
C181 H192 0.952 . S
C182 C179 1.388 . S
C182 C183 1.382 . S
C182 H207 0.950 . S
C183 N178 1.332 . S
C183 C182 1.382 . S
C183 H193 0.948 . S
N184 Co162 2.282 1_655 S
N184 C188 1.332 . S
N184 C189 1.332 . S
C185 C186 1.388 . S
C185 C189 1.382 . S
C185 H208 0.950 . S
C186 C185 1.388 . S
C186 C187 1.386 . S
C187 C186 1.386 . S
C187 C188 1.382 . S
C187 H209 0.950 . S
C188 N184 1.332 . S
C188 C187 1.382 . S
C188 H190 0.952 . S
C189 N184 1.332 . S
C189 C185 1.382 . S
C189 H191 0.948 . S
H190 C188 0.952 . S
H191 C189 0.948 . S
H192 C181 0.952 . S
H193 C183 0.948 . S
C194 C160 1.395 1_655 S
C194 C164 1.391 . S
C195 C157 1.389 . S
C195 C177 1.392 . S
C196 C167 1.392 . S
C196 C169 1.389 . S
C197 C172 1.395 1_455 S
C197 C174 1.391 . S
H198 C158 0.951 . S
H199 C159 0.950 . S
H200 C165 0.949 . S
H201 C166 0.950 . S
H202 C170 0.951 . S
H203 C171 0.950 . S
H204 C175 0.949 . S
H205 C176 0.950 . S
H206 C180 0.950 . S
H207 C182 0.950 . S
H208 C185 0.950 . S
H209 C187 0.950 . S
C210 C211 1.443 . S
C210 N214 1.376 1_565 S
C210 C248 1.389 . S
C211 C210 1.443 . S
C211 C212 1.340 . S
C211 H251 0.951 . S
C212 C211 1.340 . S
C212 C213 1.439 1_565 S
C212 H252 0.950 . S
C213 C212 1.439 1_545 S
C213 N214 1.374 . S
C213 C247 1.395 . S
N214 C210 1.376 1_545 S
N214 C213 1.374 . S
N214 Co215 2.008 . S
Co215 N214 2.008 . S
Co215 N216 1.995 . S
Co215 N221 2.008 . S
Co215 N226 1.995 . S
Co215 N231 2.282 . S
Co215 N237 2.271 1_545 S
N216 Co215 1.995 . S
N216 C217 1.376 . S
N216 C220 1.383 . S
C217 N216 1.376 . S
C217 C218 1.446 . S
C217 C247 1.391 . S
C218 C217 1.446 . S
C218 C219 1.339 . S
C218 H253 0.949 . S
C219 C218 1.339 . S
C219 C220 1.439 . S
C219 H254 0.950 . S
C220 N216 1.383 . S
C220 C219 1.439 . S
C220 C249 1.392 . S
N221 Co215 2.008 . S
N221 C222 1.376 . S
N221 C225 1.374 . S
C222 N221 1.376 . S
C222 C223 1.443 . S
C222 C249 1.389 . S
C223 C222 1.443 . S
C223 C224 1.340 . S
C223 H255 0.951 . S
C224 C223 1.340 . S
C224 C225 1.439 . S
C224 H256 0.950 . S
C225 N221 1.374 . S
C225 C224 1.439 . S
C225 C250 1.395 . S
N226 Co215 1.995 . S
N226 C227 1.378 1_545 S
N226 C230 1.383 1_545 S
C227 N226 1.378 1_565 S
C227 C228 1.473 . S
C227 C250 1.368 1_565 S
C228 C227 1.473 . S
C228 C229 1.339 . S
C228 H257 0.949 . S
C229 C228 1.339 . S
C229 C230 1.439 . S
C229 H258 0.950 . S
C230 N226 1.383 1_565 S
C230 C229 1.439 . S
C230 C248 1.392 . S
N231 Co215 2.282 . S
N231 C234 1.332 . S
N231 C236 1.332 . S
C232 C233 1.386 . S
C232 C235 1.388 . S
C233 C232 1.386 . S
C233 C234 1.382 . S
C233 H259 0.950 . S
C234 N231 1.332 . S
C234 C233 1.382 . S
C234 H245 0.952 . S
C235 C232 1.388 . S
C235 C236 1.382 . S
C235 H260 0.950 . S
C236 N231 1.332 . S
C236 C235 1.382 . S
C236 H246 0.948 . S
N237 Co215 2.271 1_565 S
N237 C241 1.336 . S
N237 C242 1.342 . S
C238 C239 1.388 . S
C238 C242 1.382 . S
C238 H261 0.950 . S
C239 C238 1.388 . S
C239 C240 1.386 . S
C240 C239 1.386 . S
C240 C241 1.382 . S
C240 H262 0.950 . S
C241 N237 1.336 . S
C241 C240 1.382 . S
C241 H243 0.952 1_565 S
C242 N237 1.342 . S
C242 C238 1.382 . S
C242 H244 0.948 . S
H243 C241 0.952 1_545 S
H244 C242 0.948 . S
H245 C234 0.952 . S
H246 C236 0.948 . S
C247 C213 1.395 . S
C247 C217 1.391 . S
C248 C210 1.389 . S
C248 C230 1.392 . S
C249 C220 1.392 . S
C249 C222 1.389 . S
C250 C225 1.395 . S
C250 C227 1.368 1_545 S
H251 C211 0.951 . S
H252 C212 0.950 . S
H253 C218 0.949 . S
H254 C219 0.950 . S
H255 C223 0.951 . S
H256 C224 0.950 . S
H257 C228 0.949 . S
H258 C229 0.950 . S
H259 C233 0.950 . S
H260 C235 0.950 . S
H261 C238 0.950 . S
H262 C240 0.950 . S
C263 C264 1.443 . S
C263 N267 1.376 . S
C263 C301 1.389 . S
C264 C263 1.443 . S
C264 C265 1.340 . S
C264 H304 0.951 . S
C265 C264 1.340 . S
C265 C266 1.439 . S
C265 H305 0.950 . S
C266 C265 1.439 . S
C266 N267 1.374 . S
C266 C300 1.395 . S
N267 C263 1.376 . S
N267 C266 1.374 . S
N267 Co268 2.008 . S
Co268 N267 2.008 . S
Co268 N269 1.995 . S
Co268 N274 2.008 . S
Co268 N279 1.995 . S
Co268 N284 2.282 . S
Co268 N290 2.282 . S
N269 Co268 1.995 . S
N269 C270 1.376 . S
N269 C273 1.383 1_554 S
C270 N269 1.376 . S
C270 C271 1.446 1_554 S
C270 C300 1.391 . S
C271 C270 1.446 1_556 S
C271 C272 1.339 . S
C271 H306 0.949 . S
C272 C271 1.339 . S
C272 C273 1.439 . S
C272 H307 0.950 . S
C273 N269 1.383 1_556 S
C273 C272 1.439 . S
C273 C302 1.392 . S
N274 Co268 2.008 . S
N274 C275 1.376 1_554 S
N274 C278 1.374 . S
C275 N274 1.376 1_556 S
C275 C276 1.443 . S
C275 C302 1.389 . S
C276 C275 1.443 . S
C276 C277 1.340 1_556 S
C276 H308 0.951 . S
C277 C276 1.340 1_554 S
C277 C278 1.439 . S
C277 H309 0.950 . S
C278 N274 1.374 . S
C278 C277 1.439 . S
C278 C303 1.395 . S
N279 Co268 1.995 . S
N279 C280 1.376 . S
N279 C283 1.383 . S
C280 N279 1.376 . S
C280 C281 1.446 . S
C280 C303 1.391 . S
C281 C280 1.446 . S
C281 C282 1.339 . S
C281 H310 0.949 . S
C282 C281 1.339 . S
C282 C283 1.439 . S
C282 H311 0.950 . S
C283 N279 1.383 . S
C283 C282 1.439 . S
C283 C301 1.392 . S
N284 Co268 2.282 . S
N284 C287 1.332 . S
N284 C289 1.332 1_554 S
C285 C286 1.386 . S
C285 C288 1.388 . S
C286 C285 1.386 . S
C286 C287 1.382 1_556 S
C286 H312 0.950 . S
C287 N284 1.332 . S
C287 C286 1.382 1_554 S
C287 H298 0.952 . S
C288 C285 1.388 . S
C288 C289 1.382 . S
C288 H313 0.950 . S
C289 N284 1.332 1_556 S
C289 C288 1.382 . S
C289 H299 0.948 . S
N290 Co268 2.282 . S
N290 C294 1.332 . S
N290 C295 1.332 . S
C291 C292 1.388 . S
C291 C295 1.382 . S
C291 H314 0.950 . S
C292 C291 1.388 . S
C292 C293 1.386 . S
C293 C292 1.386 . S
C293 C294 1.382 . S
C293 H315 0.950 . S
C294 N290 1.332 . S
C294 C293 1.382 . S
C294 H296 0.952 . S
C295 N290 1.332 . S
C295 C291 1.382 . S
C295 H297 0.948 . S
H296 C294 0.952 . S
H297 C295 0.948 . S
H298 C287 0.952 . S
H299 C289 0.948 . S
C300 C266 1.395 . S
C300 C270 1.391 . S
C301 C263 1.389 . S
C301 C283 1.392 . S
C302 C273 1.392 . S
C302 C275 1.389 . S
C303 C278 1.395 . S
C303 C280 1.391 . S
H304 C264 0.951 . S
H305 C265 0.950 . S
H306 C271 0.949 . S
H307 C272 0.950 . S
H308 C276 0.951 . S
H309 C277 0.950 . S
H310 C281 0.949 . S
H311 C282 0.950 . S
H312 C286 0.950 . S
H313 C288 0.950 . S
H314 C291 0.950 . S
H315 C293 0.950 . S
C316 C317 1.431 1_645 S
C316 N320 1.376 . S
C316 C354 1.389 1_545 S
C317 C316 1.431 1_465 S
C317 C318 1.320 1_565 S
C317 H357 0.980 . S
C318 C317 1.320 1_545 S
C318 C319 1.439 . S
C318 H358 0.950 . S
C319 C318 1.439 . S
C319 N320 1.374 1_455 S
C319 C353 1.395 . S
N320 C316 1.376 . S
N320 C319 1.374 1_655 S
N320 Co321 2.008 . S
Co321 N320 2.008 . S
Co321 N322 1.995 . S
Co321 N327 2.008 . S
Co321 N332 1.995 . S
Co321 N337 2.282 . S
Co321 N343 2.282 . S
N322 Co321 1.995 . S
N322 C323 1.376 1_655 S
N322 C326 1.383 . S
C323 N322 1.376 1_455 S
C323 C324 1.446 . S
C323 C353 1.391 . S
C324 C323 1.446 . S
C324 C325 1.339 . S
C324 H359 0.949 . S
C325 C324 1.339 . S
C325 C326 1.439 1_455 S
C325 H360 0.950 . S
C326 N322 1.383 . S
C326 C325 1.439 1_655 S
C326 C355 1.392 . S
N327 Co321 2.008 . S
N327 C328 1.376 . S
N327 C331 1.374 . S
C328 N327 1.376 . S
C328 C329 1.443 . S
C328 C355 1.389 . S
C329 C328 1.443 . S
C329 C330 1.340 . S
C329 H361 0.951 . S
C330 C329 1.340 . S
C330 C331 1.439 . S
C330 H362 0.950 . S
C331 N327 1.374 . S
C331 C330 1.439 . S
C331 C356 1.395 . S
N332 Co321 1.995 . S
N332 C333 1.376 . S
N332 C336 1.383 1_545 S
C333 N332 1.376 . S
C333 C334 1.446 1_545 S
C333 C356 1.391 . S
C334 C333 1.446 1_565 S
C334 C335 1.339 . S
C334 H363 0.949 . S
C335 C334 1.339 . S
C335 C336 1.439 . S
C335 H364 0.950 . S
C336 N332 1.383 1_565 S
C336 C335 1.439 . S
C336 C354 1.392 . S
N337 Co321 2.282 . S
N337 C340 1.332 . S
N337 C342 1.332 . S
C338 C339 1.386 . S
C338 C341 1.388 . S
C339 C338 1.386 . S
C339 C340 1.382 . S
C339 H365 0.950 . S
C340 N337 1.332 . S
C340 C339 1.382 . S
C340 H351 0.952 . S
C341 C338 1.388 . S
C341 C342 1.382 . S
C341 H366 0.950 . S
C342 N337 1.332 . S
C342 C341 1.382 . S
C342 H352 0.948 . S
N343 Co321 2.282 . S
N343 C347 1.332 . S
N343 C348 1.332 . S
C344 C345 1.388 . S
C344 C348 1.382 1_565 S
C344 H367 0.950 . S
C345 C344 1.388 . S
C345 C346 1.380 1_565 S
C346 C345 1.380 1_545 S
C346 C347 1.389 . S
C346 H368 0.951 1_655 S
C347 N343 1.332 . S
C347 C346 1.389 . S
C347 H349 0.968 . S
C348 N343 1.332 . S
C348 C344 1.382 1_545 S
C348 H350 0.948 . S
H349 C347 0.968 . S
H350 C348 0.948 . S
H351 C340 0.952 . S
H352 C342 0.948 . S
C353 C319 1.395 . S
C353 C323 1.391 . S
C354 C316 1.389 1_565 S
C354 C336 1.392 . S
C355 C326 1.392 . S
C355 C328 1.389 . S
C356 C331 1.395 . S
C356 C333 1.391 . S
H357 C317 0.980 . S
H358 C318 0.950 . S
H359 C324 0.949 . S
H360 C325 0.950 . S
H361 C329 0.951 . S
H362 C330 0.950 . S
H363 C334 0.949 . S
H364 C335 0.950 . S
H365 C339 0.950 . S
H366 C341 0.950 . S
H367 C344 0.950 . S
H368 C346 0.951 1_455 S
C369 C370 1.443 . S
C369 N373 1.376 . S
C369 C407 1.389 . S
C370 C369 1.443 . S
C370 C371 1.340 . S
C370 H410 0.951 . S
C371 C370 1.340 . S
C371 C372 1.439 . S
C371 H411 0.950 . S
C372 C371 1.439 . S
C372 N373 1.374 . S
C372 C406 1.395 . S
N373 C369 1.376 . S
N373 C372 1.374 . S
N373 Co374 2.008 . S
Co374 N373 2.008 . S
Co374 N375 1.995 1_554 S
Co374 N380 2.008 1_554 S
Co374 N385 1.995 . S
Co374 N390 2.282 1_554 S
Co374 N396 2.282 . S
N375 Co374 1.995 1_556 S
N375 C376 1.376 . S
N375 C379 1.383 . S
C376 N375 1.376 . S
C376 C377 1.446 . S
C376 C406 1.391 1_556 S
C377 C376 1.446 . S
C377 C378 1.339 . S
C377 H412 0.949 . S
C378 C377 1.339 . S
C378 C379 1.439 . S
C378 H413 0.950 . S
C379 N375 1.383 . S
C379 C378 1.439 . S
C379 C408 1.392 . S
N380 Co374 2.008 1_556 S
N380 C381 1.376 . S
N380 C384 1.374 1_556 S
C381 N380 1.376 . S
C381 C382 1.443 . S
C381 C408 1.389 . S
C382 C381 1.443 . S
C382 C383 1.340 . S
C382 H414 0.951 . S
C383 C382 1.340 . S
C383 C384 1.439 1_556 S
C383 H415 0.950 . S
C384 N380 1.374 1_554 S
C384 C383 1.439 1_554 S
C384 C409 1.395 . S
N385 Co374 1.995 . S
N385 C386 1.376 . S
N385 C389 1.383 . S
C386 N385 1.376 . S
C386 C387 1.446 . S
C386 C409 1.391 . S
C387 C386 1.446 . S
C387 C388 1.339 . S
C387 H416 0.949 . S
C388 C387 1.339 . S
C388 C389 1.439 . S
C388 H417 0.950 . S
C389 N385 1.383 . S
C389 C388 1.439 . S
C389 C407 1.392 . S
N390 Co374 2.282 1_556 S
N390 C393 1.332 . S
N390 C395 1.332 . S
C391 C392 1.386 . S
C391 C394 1.388 . S
C392 C391 1.386 . S
C392 C393 1.382 . S
C392 H418 0.950 . S
C393 N390 1.332 . S
C393 C392 1.382 . S
C393 H404 0.952 . S
C394 C391 1.388 . S
C394 C395 1.382 . S
C394 H419 0.950 . S
C395 N390 1.332 . S
C395 C394 1.382 . S
C395 H405 0.948 . S
N396 Co374 2.282 . S
N396 C400 1.332 . S
N396 C401 1.332 . S
C397 C398 1.388 . S
C397 C401 1.382 . S
C397 H420 0.950 . S
C398 C397 1.388 . S
C398 C399 1.386 . S
C399 C398 1.386 . S
C399 C400 1.382 . S
C399 H421 0.950 . S
C400 N396 1.332 . S
C400 C399 1.382 . S
C400 H402 0.952 . S
C401 N396 1.332 . S
C401 C397 1.382 . S
C401 H403 0.948 . S
H402 C400 0.952 . S
H403 C401 0.948 . S
H404 C393 0.952 . S
H405 C395 0.948 . S
C406 C372 1.395 . S
C406 C376 1.391 1_554 S
C407 C369 1.389 . S
C407 C389 1.392 . S
C408 C379 1.392 . S
C408 C381 1.389 . S
C409 C384 1.395 . S
C409 C386 1.391 . S
H410 C370 0.951 . S
H411 C371 0.950 . S
H412 C377 0.949 . S
H413 C378 0.950 . S
H414 C382 0.951 . S
H415 C383 0.950 . S
H416 C387 0.949 . S
H417 C388 0.950 . S
H418 C392 0.950 . S
H419 C394 0.950 . S
H420 C397 0.950 . S
H421 C399 0.950 . S
H422 C428 0.930 . S
H423 C432 0.930 . S
H424 C437 0.929 . S
H425 C435 0.929 . S
H426 C430 0.929 . S
H427 C436 0.929 . S
C428 H422 0.930 . S
C428 C429 1.367 . S
C428 C436 1.378 . S
C429 C428 1.367 . S
C429 C437 1.433 . S
C430 H426 0.929 . S
C430 C432 1.378 . S
C430 C434 1.350 . S
C431 C434 1.463 . S
C431 C436 1.350 . S
C431 N439 1.427 . S
C432 H423 0.930 . S
C432 C430 1.378 . S
C432 C433 1.367 . S
C433 C432 1.367 . S
C433 C435 1.433 . S
C434 C430 1.350 . S
C434 C431 1.463 . S
C434 N438 1.427 . S
C435 H425 0.929 . S
C435 C433 1.433 . S
C435 N438 1.384 . S
C436 H427 0.929 . S
C436 C428 1.378 . S
C436 C431 1.350 . S
C437 H424 0.929 . S
C437 C429 1.433 . S
C437 N439 1.384 . S
N438 C434 1.427 . S
N438 C435 1.384 . S
N439 C431 1.427 . S
N439 C437 1.384 . S
H440 C446 0.930 . S
H441 C450 0.930 . S
H442 C455 0.929 . S
H443 C453 0.929 . S
H444 C448 0.929 . S
H445 C454 0.929 . S
C446 H440 0.930 . S
C446 C447 1.367 . S
C446 C454 1.378 . S
C447 C446 1.367 . S
C447 C455 1.433 . S
C448 H444 0.929 . S
C448 C450 1.378 . S
C448 C452 1.350 . S
C449 C452 1.463 . S
C449 C454 1.350 . S
C449 N457 1.427 . S
C450 H441 0.930 . S
C450 C448 1.378 . S
C450 C451 1.367 . S
C451 C450 1.367 . S
C451 C453 1.433 . S
C452 C448 1.350 . S
C452 C449 1.463 . S
C452 N456 1.427 . S
C453 H443 0.929 . S
C453 C451 1.433 . S
C453 N456 1.384 . S
C454 H445 0.929 . S
C454 C446 1.378 . S
C454 C449 1.350 . S
C455 H442 0.929 . S
C455 C447 1.433 . S
C455 N457 1.384 . S
N456 C452 1.427 . S
N456 C453 1.384 . S
N457 C449 1.427 . S
N457 C455 1.384 . S
H458 C464 0.930 . S
H459 C468 0.930 . S
H460 C473 0.929 . S
H461 C471 0.929 . S
H462 C466 0.929 . S
H463 C472 0.929 . S
C464 H458 0.930 . S
C464 C465 1.367 . S
C464 C472 1.378 . S
C465 C464 1.367 . S
C465 C473 1.433 . S
C466 H462 0.929 . S
C466 C468 1.378 . S
C466 C470 1.350 . S
C467 C470 1.463 . S
C467 C472 1.350 . S
C467 N475 1.427 . S
C468 H459 0.930 . S
C468 C466 1.378 . S
C468 C469 1.344 1_655 S
C469 C468 1.344 1_455 S
C469 C471 1.443 . S
C470 C466 1.350 . S
C470 C467 1.463 . S
C470 N474 1.427 1_655 S
C471 H461 0.929 . S
C471 C469 1.443 . S
C471 N474 1.384 . S
C472 H463 0.929 . S
C472 C464 1.378 . S
C472 C467 1.350 . S
C473 H460 0.929 . S
C473 C465 1.433 . S
C473 N475 1.384 . S
N474 C470 1.427 1_455 S
N474 C471 1.384 . S
N475 C467 1.427 . S
N475 C473 1.384 . S
H476 C482 0.930 . S
H477 C486 0.930 . S
H478 C491 0.929 . S
H479 C489 0.929 . S
H480 C484 0.929 . S
H481 C490 0.929 . S
C482 H476 0.930 . S
C482 C483 1.367 . S
C482 C490 1.378 . S
C483 C482 1.367 . S
C483 C491 1.433 . S
C484 H480 0.929 . S
C484 C486 1.378 . S
C484 C488 1.350 . S
C485 C488 1.463 . S
C485 C490 1.350 . S
C485 N493 1.427 . S
C486 H477 0.930 . S
C486 C484 1.378 . S
C486 C487 1.367 . S
C487 C486 1.367 . S
C487 C489 1.433 . S
C488 C484 1.350 . S
C488 C485 1.463 . S
C488 N492 1.427 . S
C489 H479 0.929 . S
C489 C487 1.433 . S
C489 N492 1.384 . S
C490 H481 0.929 . S
C490 C482 1.378 . S
C490 C485 1.350 . S
C491 H478 0.929 . S
C491 C483 1.433 . S
C491 N493 1.384 . S
N492 C488 1.427 . S
N492 C489 1.384 . S
N493 C485 1.427 . S
N493 C491 1.384 . S
H494 C500 0.930 . S
H495 C504 0.930 . S
H496 C509 0.929 . S
H497 C507 0.929 . S
H498 C502 0.929 . S
H499 C508 0.929 . S
C500 H494 0.930 . S
C500 C501 1.367 . S
C500 C508 1.378 . S
C501 C500 1.367 . S
C501 C509 1.433 . S
C502 H498 0.929 . S
C502 C504 1.378 . S
C502 C506 1.350 . S
C503 C506 1.463 . S
C503 C508 1.350 . S
C503 N511 1.427 . S
C504 H495 0.930 . S
C504 C502 1.378 . S
C504 C505 1.367 . S
C505 C504 1.367 . S
C505 C507 1.433 . S
C506 C502 1.350 . S
C506 C503 1.463 . S
C506 N510 1.427 . S
C507 H497 0.929 . S
C507 C505 1.433 . S
C507 N510 1.384 . S
C508 H499 0.929 . S
C508 C500 1.378 . S
C508 C503 1.350 . S
C509 H496 0.929 . S
C509 C501 1.433 . S
C509 N511 1.384 . S
N510 C506 1.427 . S
N510 C507 1.384 . S
N511 C503 1.427 . S
N511 C509 1.384 . S
H512 C518 0.930 . S
H513 C522 0.930 . S
H514 C527 0.929 . S
H515 C525 0.929 . S
H516 C520 0.929 . S
H517 C526 0.929 . S
C518 H512 0.930 . S
C518 C519 1.367 . S
C518 C526 1.378 . S
C519 C518 1.367 . S
C519 C527 1.433 . S
C520 H516 0.929 . S
C520 C522 1.378 . S
C520 C524 1.350 . S
C521 C524 1.463 . S
C521 C526 1.350 . S
C521 N529 1.427 . S
C522 H513 0.930 . S
C522 C520 1.378 . S
C522 C523 1.367 . S
C523 C522 1.367 . S
C523 C525 1.433 . S
C524 C520 1.350 . S
C524 C521 1.463 . S
C524 N528 1.427 . S
C525 H515 0.929 . S
C525 C523 1.433 . S
C525 N528 1.384 . S
C526 H517 0.929 . S
C526 C518 1.378 . S
C526 C521 1.350 . S
C527 H514 0.929 . S
C527 C519 1.433 . S
C527 N529 1.384 . S
N528 C524 1.427 . S
N528 C525 1.384 . S
N529 C521 1.427 . S
N529 C527 1.384 . S
H530 C536 0.930 . S
H531 C540 0.930 . S
H532 C545 0.929 . S
H533 C543 0.929 . S
H534 C538 0.929 . S
H535 C544 0.929 . S
C536 H530 0.930 . S
C536 C537 1.367 . S
C536 C544 1.378 . S
C537 C536 1.367 . S
C537 C545 1.433 . S
C538 H534 0.929 . S
C538 C540 1.378 . S
C538 C542 1.350 . S
C539 C542 1.463 . S
C539 C544 1.350 . S
C539 N547 1.427 . S
C540 H531 0.930 . S
C540 C538 1.378 . S
C540 C541 1.367 . S
C541 C540 1.367 . S
C541 C543 1.433 . S
C542 C538 1.350 . S
C542 C539 1.463 . S
C542 N546 1.427 . S
C543 H533 0.929 . S
C543 C541 1.433 . S
C543 N546 1.384 . S
C544 H535 0.929 . S
C544 C536 1.378 . S
C544 C539 1.350 . S
C545 H532 0.929 . S
C545 C537 1.433 . S
C545 N547 1.384 . S
N546 C542 1.427 . S
N546 C543 1.384 . S
N547 C539 1.427 . S
N547 C545 1.384 . S
H548 C554 0.930 . S
H549 C558 0.930 . S
H550 C563 0.929 . S
H551 C561 0.929 . S
H552 C556 0.929 . S
H553 C562 0.929 . S
C554 H548 0.930 . S
C554 C555 1.367 . S
C554 C562 1.378 . S
C555 C554 1.367 . S
C555 C563 1.433 . S
C556 H552 0.929 . S
C556 C558 1.378 . S
C556 C560 1.350 . S
C557 C560 1.463 . S
C557 C562 1.350 . S
C557 N565 1.427 . S
C558 H549 0.930 . S
C558 C556 1.378 . S
C558 C559 1.367 . S
C559 C558 1.367 . S
C559 C561 1.433 . S
C560 C556 1.350 . S
C560 C557 1.463 . S
C560 N564 1.427 . S
C561 H551 0.929 . S
C561 C559 1.433 . S
C561 N564 1.384 . S
C562 H553 0.929 . S
C562 C554 1.378 . S
C562 C557 1.350 . S
C563 H550 0.929 . S
C563 C555 1.433 . S
C563 N565 1.384 . S
N564 C560 1.427 . S
N564 C561 1.384 . S
N565 C557 1.427 . S
N565 C563 1.384 . S
H566 C572 0.930 . S
H567 C576 0.930 . S
H568 C581 0.929 . S
H569 C579 0.929 . S
H570 C574 0.929 . S
H571 C580 0.929 . S
C572 H566 0.930 . S
C572 C573 1.367 . S
C572 C580 1.378 . S
C573 C572 1.367 . S
C573 C581 1.433 . S
C574 H570 0.929 . S
C574 C576 1.378 . S
C574 C578 1.350 . S
C575 C578 1.463 . S
C575 C580 1.350 . S
C575 N583 1.427 . S
C576 H567 0.930 . S
C576 C574 1.378 . S
C576 C577 1.367 . S
C577 C576 1.367 . S
C577 C579 1.433 . S
C578 C574 1.350 . S
C578 C575 1.463 . S
C578 N582 1.427 . S
C579 H569 0.929 . S
C579 C577 1.433 . S
C579 N582 1.384 . S
C580 H571 0.929 . S
C580 C572 1.378 . S
C580 C575 1.350 . S
C581 H568 0.929 . S
C581 C573 1.433 . S
C581 N583 1.384 . S
N582 C578 1.427 . S
N582 C579 1.384 . S
N583 C575 1.427 . S
N583 C581 1.384 . S
H584 C590 0.930 . S
H585 C594 0.930 . S
H586 C599 0.929 . S
H587 C597 0.929 . S
H588 C592 0.929 . S
H589 C598 0.929 . S
C590 H584 0.930 . S
C590 C591 1.367 . S
C590 C598 1.378 . S
C591 C590 1.367 . S
C591 C599 1.433 . S
C592 H588 0.929 . S
C592 C594 1.378 . S
C592 C596 1.350 . S
C593 C596 1.463 . S
C593 C598 1.350 . S
C593 N601 1.427 . S
C594 H585 0.930 . S
C594 C592 1.378 . S
C594 C595 1.367 . S
C595 C594 1.367 . S
C595 C597 1.433 . S
C596 C592 1.350 . S
C596 C593 1.463 . S
C596 N600 1.427 . S
C597 H587 0.929 . S
C597 C595 1.433 . S
C597 N600 1.384 . S
C598 H589 0.929 . S
C598 C590 1.378 . S
C598 C593 1.350 . S
C599 H586 0.929 . S
C599 C591 1.433 . S
C599 N601 1.384 . S
N600 C596 1.427 . S
N600 C597 1.384 . S
N601 C593 1.427 . S
N601 C599 1.384 . S
H602 C608 0.930 . S
H603 C612 0.930 . S
H604 C617 0.929 . S
H605 C615 0.929 . S
H606 C610 0.929 . S
H607 C616 0.929 . S
C608 H602 0.930 . S
C608 C609 1.367 . S
C608 C616 1.378 . S
C609 C608 1.367 . S
C609 C617 1.433 . S
C610 H606 0.929 . S
C610 C612 1.378 . S
C610 C614 1.350 . S
C611 C614 1.463 . S
C611 C616 1.350 . S
C611 N619 1.427 . S
C612 H603 0.930 . S
C612 C610 1.378 . S
C612 C613 1.367 . S
C613 C612 1.367 . S
C613 C615 1.433 . S
C614 C610 1.350 . S
C614 C611 1.463 . S
C614 N618 1.427 . S
C615 H605 0.929 . S
C615 C613 1.433 . S
C615 N618 1.384 . S
C616 H607 0.929 . S
C616 C608 1.378 . S
C616 C611 1.350 . S
C617 H604 0.929 . S
C617 C609 1.433 . S
C617 N619 1.384 . S
N618 C614 1.427 . S
N618 C615 1.384 . S
N619 C611 1.427 . S
N619 C617 1.384 . S
H620 C626 0.930 . S
H621 C630 0.930 . S
H622 C635 0.929 . S
H623 C633 0.929 . S
H624 C628 0.929 . S
H625 C634 0.929 . S
C626 H620 0.930 . S
C626 C627 1.367 . S
C626 C634 1.378 . S
C627 C626 1.367 . S
C627 C635 1.433 . S
C628 H624 0.929 . S
C628 C630 1.378 . S
C628 C632 1.350 . S
C629 C632 1.463 . S
C629 C634 1.350 . S
C629 N637 1.427 . S
C630 H621 0.930 . S
C630 C628 1.378 . S
C630 C631 1.367 . S
C631 C630 1.367 . S
C631 C633 1.433 . S
C632 C628 1.350 . S
C632 C629 1.463 . S
C632 N636 1.427 . S
C633 H623 0.929 . S
C633 C631 1.433 . S
C633 N636 1.384 . S
C634 H625 0.929 . S
C634 C626 1.378 . S
C634 C629 1.350 . S
C635 H622 0.929 . S
C635 C627 1.433 . S
C635 N637 1.384 . S
N636 C632 1.427 . S
N636 C633 1.384 . S
N637 C629 1.427 . S
N637 C635 1.384 . S
H638 C644 0.930 . S
H639 C648 0.930 . S
H640 C653 0.929 . S
H641 C651 0.929 . S
H642 C646 0.929 . S
H643 C652 0.929 . S
C644 H638 0.930 . S
C644 C645 1.367 . S
C644 C652 1.378 . S
C645 C644 1.367 . S
C645 C653 1.433 . S
C646 H642 0.929 . S
C646 C648 1.378 . S
C646 C650 1.350 . S
C647 C650 1.463 . S
C647 C652 1.350 . S
C647 N655 1.427 . S
C648 H639 0.930 . S
C648 C646 1.378 . S
C648 C649 1.367 . S
C649 C648 1.367 . S
C649 C651 1.433 . S
C650 C646 1.350 . S
C650 C647 1.463 . S
C650 N654 1.427 . S
C651 H641 0.929 . S
C651 C649 1.433 . S
C651 N654 1.384 . S
C652 H643 0.929 . S
C652 C644 1.378 . S
C652 C647 1.350 . S
C653 H640 0.929 . S
C653 C645 1.433 . S
C653 N655 1.384 . S
N654 C650 1.427 . S
N654 C651 1.384 . S
N655 C647 1.427 . S
N655 C653 1.384 . S
H656 C662 0.930 . S
H657 C666 0.930 . S
H658 C671 0.929 . S
H659 C669 0.929 1_455 S
H660 C664 0.929 . S
H661 C670 0.929 . S
C662 H656 0.930 . S
C662 C663 1.367 . S
C662 C670 1.378 . S
C663 C662 1.367 . S
C663 C671 1.433 . S
C664 H660 0.929 . S
C664 C666 1.378 . S
C664 C668 1.350 . S
C665 C668 1.463 . S
C665 C670 1.350 . S
C665 N673 1.427 . S
C666 H657 0.930 . S
C666 C664 1.378 . S
C666 C667 1.367 . S
C667 C666 1.367 . S
C667 C669 1.433 . S
C668 C664 1.350 . S
C668 C665 1.463 . S
C668 N672 1.427 . S
C669 H659 0.929 1_655 S
C669 C667 1.433 . S
C669 N672 1.384 . S
C670 H661 0.929 . S
C670 C662 1.378 . S
C670 C665 1.350 . S
C671 H658 0.929 . S
C671 C663 1.433 . S
C671 N673 1.384 . S
N672 C668 1.427 . S
N672 C669 1.384 . S
N673 C665 1.427 . S
N673 C671 1.384 . S
H674 C680 0.930 . S
H675 C684 0.930 . S
H676 C689 0.929 . S
H677 C687 0.929 . S
H678 C682 0.929 . S
H679 C688 0.929 . S
C680 H674 0.930 . S
C680 C681 1.367 . S
C680 C688 1.378 . S
C681 C680 1.367 . S
C681 C689 1.433 . S
C682 H678 0.929 . S
C682 C684 1.378 . S
C682 C686 1.350 . S
C683 C686 1.463 . S
C683 C688 1.350 . S
C683 N691 1.427 . S
C684 H675 0.930 . S
C684 C682 1.378 . S
C684 C685 1.367 . S
C685 C684 1.367 . S
C685 C687 1.433 . S
C686 C682 1.350 . S
C686 C683 1.463 . S
C686 N690 1.427 . S
C687 H677 0.929 . S
C687 C685 1.433 . S
C687 N690 1.384 . S
C688 H679 0.929 . S
C688 C680 1.378 . S
C688 C683 1.350 . S
C689 H676 0.929 . S
C689 C681 1.433 . S
C689 N691 1.384 . S
N690 C686 1.427 . S
N690 C687 1.384 . S
N691 C683 1.427 . S
N691 C689 1.384 . S
H692 C698 0.930 . S
H693 C702 0.930 . S
H694 C707 0.929 . S
H695 C705 0.929 . S
H696 C700 0.929 . S
H697 C706 0.929 . S
C698 H692 0.930 . S
C698 C699 1.367 . S
C698 C706 1.378 . S
C699 C698 1.367 . S
C699 C707 1.433 . S
C700 H696 0.929 . S
C700 C702 1.378 . S
C700 C704 1.350 . S
C701 C704 1.463 . S
C701 C706 1.350 . S
C701 N709 1.427 . S
C702 H693 0.930 . S
C702 C700 1.378 . S
C702 C703 1.367 . S
C703 C702 1.367 . S
C703 C705 1.433 . S
C704 C700 1.350 . S
C704 C701 1.463 . S
C704 N708 1.427 . S
C705 H695 0.929 . S
C705 C703 1.433 . S
C705 N708 1.384 . S
C706 H697 0.929 . S
C706 C698 1.378 . S
C706 C701 1.350 . S
C707 H694 0.929 . S
C707 C699 1.433 . S
C707 N709 1.384 . S
N708 C704 1.427 . S
N708 C705 1.384 . S
N709 C701 1.427 . S
N709 C707 1.384 . S
H710 C716 0.930 . S
H711 C720 0.930 . S
H712 C725 0.929 . S
H713 C723 0.929 . S
H714 C718 0.929 . S
H715 C724 0.929 . S
C716 H710 0.930 . S
C716 C717 1.367 . S
C716 C724 1.378 . S
C717 C716 1.367 . S
C717 C725 1.433 . S
C718 H714 0.929 . S
C718 C720 1.378 . S
C718 C722 1.350 . S
C719 C722 1.463 . S
C719 C724 1.350 . S
C719 N727 1.427 . S
C720 H711 0.930 . S
C720 C718 1.378 . S
C720 C721 1.367 . S
C721 C720 1.367 . S
C721 C723 1.433 . S
C722 C718 1.350 . S
C722 C719 1.463 . S
C722 N726 1.427 . S
C723 H713 0.929 . S
C723 C721 1.433 . S
C723 N726 1.384 . S
C724 H715 0.929 . S
C724 C716 1.378 . S
C724 C719 1.350 . S
C725 H712 0.929 . S
C725 C717 1.433 . S
C725 N727 1.384 . S
N726 C722 1.427 . S
N726 C723 1.384 . S
N727 C719 1.427 . S
N727 C725 1.384 . S
H728 C734 0.930 . S
H729 C738 0.930 . S
H730 C743 0.929 . S
H731 C741 0.929 . S
H732 C736 0.929 . S
H733 C742 0.929 . S
C734 H728 0.930 . S
C734 C735 1.367 . S
C734 C742 1.378 . S
C735 C734 1.367 . S
C735 C743 1.433 . S
C736 H732 0.929 . S
C736 C738 1.378 . S
C736 C740 1.350 . S
C737 C740 1.463 . S
C737 C742 1.350 . S
C737 N745 1.427 . S
C738 H729 0.930 . S
C738 C736 1.378 . S
C738 C739 1.367 . S
C739 C738 1.367 . S
C739 C741 1.433 . S
C740 C736 1.350 . S
C740 C737 1.463 . S
C740 N744 1.427 . S
C741 H731 0.929 . S
C741 C739 1.433 . S
C741 N744 1.384 . S
C742 H733 0.929 . S
C742 C734 1.378 . S
C742 C737 1.350 . S
C743 H730 0.929 . S
C743 C735 1.433 . S
C743 N745 1.384 . S
N744 C740 1.427 . S
N744 C741 1.384 . S
N745 C737 1.427 . S
N745 C743 1.384 . S
H746 C752 0.930 . S
H747 C756 0.930 . S
H748 C761 0.929 . S
H749 C759 0.929 . S
H750 C754 0.929 . S
H751 C760 0.929 . S
C752 H746 0.930 . S
C752 C753 1.367 . S
C752 C760 1.378 . S
C753 C752 1.367 . S
C753 C761 1.433 . S
C754 H750 0.929 . S
C754 C756 1.378 . S
C754 C758 1.350 . S
C755 C758 1.463 . S
C755 C760 1.350 . S
C755 N763 1.427 . S
C756 H747 0.930 . S
C756 C754 1.378 . S
C756 C757 1.367 . S
C757 C756 1.367 . S
C757 C759 1.433 . S
C758 C754 1.350 . S
C758 C755 1.463 . S
C758 N762 1.427 . S
C759 H749 0.929 . S
C759 C757 1.433 . S
C759 N762 1.384 . S
C760 H751 0.929 . S
C760 C752 1.378 . S
C760 C755 1.350 . S
C761 H748 0.929 . S
C761 C753 1.433 . S
C761 N763 1.384 . S
N762 C758 1.427 . S
N762 C759 1.384 . S
N763 C755 1.427 . S
N763 C761 1.384 . S
H764 C770 0.930 . S
H765 C774 0.930 . S
H766 C779 0.929 . S
H767 C777 0.929 . S
H768 C772 0.929 . S
H769 C778 0.929 . S
C770 H764 0.930 . S
C770 C771 1.367 . S
C770 C778 1.378 . S
C771 C770 1.367 . S
C771 C779 1.433 . S
C772 H768 0.929 . S
C772 C774 1.378 . S
C772 C776 1.350 . S
C773 C776 1.463 . S
C773 C778 1.350 . S
C773 N781 1.427 . S
C774 H765 0.930 . S
C774 C772 1.378 . S
C774 C775 1.367 . S
C775 C774 1.367 . S
C775 C777 1.433 . S
C776 C772 1.350 . S
C776 C773 1.463 . S
C776 N780 1.427 . S
C777 H767 0.929 . S
C777 C775 1.433 . S
C777 N780 1.384 . S
C778 H769 0.929 . S
C778 C770 1.378 . S
C778 C773 1.350 . S
C779 H766 0.929 . S
C779 C771 1.433 . S
C779 N781 1.384 . S
N780 C776 1.427 . S
N780 C777 1.384 . S
N781 C773 1.427 . S
N781 C779 1.384 . S
H782 C788 0.930 . S
H783 C792 0.930 . S
H784 C797 0.929 . S
H785 C795 0.929 . S
H786 C790 0.929 . S
H787 C796 0.929 . S
C788 H782 0.930 . S
C788 C789 1.367 . S
C788 C796 1.378 . S
C789 C788 1.367 . S
C789 C797 1.433 . S
C790 H786 0.929 . S
C790 C792 1.378 . S
C790 C794 1.350 . S
C791 C794 1.463 . S
C791 C796 1.350 . S
C791 N799 1.427 . S
C792 H783 0.930 . S
C792 C790 1.378 . S
C792 C793 1.367 . S
C793 C792 1.367 . S
C793 C795 1.433 . S
C794 C790 1.350 . S
C794 C791 1.463 . S
C794 N798 1.427 . S
C795 H785 0.929 . S
C795 C793 1.433 . S
C795 N798 1.384 . S
C796 H787 0.929 . S
C796 C788 1.378 . S
C796 C791 1.350 . S
C797 H784 0.929 . S
C797 C789 1.433 . S
C797 N799 1.384 . S
N798 C794 1.427 . S
N798 C795 1.384 . S
N799 C791 1.427 . S
N799 C797 1.384 . S
H800 C806 0.930 . S
H801 C810 0.930 . S
H802 C815 0.929 . S
H803 C813 0.929 . S
H804 C808 0.929 . S
H805 C814 0.929 . S
C806 H800 0.930 . S
C806 C807 1.367 . S
C806 C814 1.378 . S
C807 C806 1.367 . S
C807 C815 1.433 . S
C808 H804 0.929 . S
C808 C810 1.378 . S
C808 C812 1.350 . S
C809 C812 1.463 . S
C809 C814 1.350 . S
C809 N817 1.427 . S
C810 H801 0.930 . S
C810 C808 1.378 . S
C810 C811 1.367 . S
C811 C810 1.367 . S
C811 C813 1.433 . S
C812 C808 1.350 . S
C812 C809 1.463 . S
C812 N816 1.427 . S
C813 H803 0.929 . S
C813 C811 1.433 . S
C813 N816 1.384 . S
C814 H805 0.929 . S
C814 C806 1.378 . S
C814 C809 1.350 . S
C815 H802 0.929 . S
C815 C807 1.433 . S
C815 N817 1.384 . S
N816 C812 1.427 . S
N816 C813 1.384 . S
N817 C809 1.427 . S
N817 C815 1.384 . S
H818 C824 0.930 . S
H819 C828 0.930 . S
H820 C833 0.929 . S
H821 C831 0.929 . S
H822 C826 0.929 . S
H823 C832 0.929 . S
C824 H818 0.930 . S
C824 C825 1.367 . S
C824 C832 1.378 . S
C825 C824 1.367 . S
C825 C833 1.433 . S
C826 H822 0.929 . S
C826 C828 1.378 . S
C826 C830 1.350 . S
C827 C830 1.463 . S
C827 C832 1.350 . S
C827 N835 1.427 . S
C828 H819 0.930 . S
C828 C826 1.378 . S
C828 C829 1.367 . S
C829 C828 1.367 . S
C829 C831 1.433 . S
C830 C826 1.350 . S
C830 C827 1.463 . S
C830 N834 1.427 . S
C831 H821 0.929 . S
C831 C829 1.433 . S
C831 N834 1.384 . S
C832 H823 0.929 . S
C832 C824 1.378 . S
C832 C827 1.350 . S
C833 H820 0.929 . S
C833 C825 1.433 . S
C833 N835 1.384 . S
N834 C830 1.427 . S
N834 C831 1.384 . S
N835 C827 1.427 . S
N835 C833 1.384 . S
H836 C842 0.930 . S
H837 C846 0.930 . S
H838 C851 0.929 . S
H839 C849 0.929 . S
H840 C844 0.929 . S
H841 C850 0.929 . S
C842 H836 0.930 . S
C842 C843 1.367 . S
C842 C850 1.378 . S
C843 C842 1.367 . S
C843 C851 1.433 . S
C844 H840 0.929 . S
C844 C846 1.378 . S
C844 C848 1.350 . S
C845 C848 1.463 . S
C845 C850 1.350 . S
C845 N853 1.427 . S
C846 H837 0.930 . S
C846 C844 1.378 . S
C846 C847 1.367 . S
C847 C846 1.367 . S
C847 C849 1.433 . S
C848 C844 1.350 . S
C848 C845 1.463 . S
C848 N852 1.427 . S
C849 H839 0.929 . S
C849 C847 1.433 . S
C849 N852 1.384 . S
C850 H841 0.929 . S
C850 C842 1.378 . S
C850 C845 1.350 . S
C851 H838 0.929 . S
C851 C843 1.433 . S
C851 N853 1.384 . S
N852 C848 1.427 . S
N852 C849 1.384 . S
N853 C845 1.427 . S
N853 C851 1.384 . S
C433 C126 1.385 . S
C429 N2 1.387 . S
C451 C195 1.602 . S
C447 N15 1.626 . S
C469 C133 1.548 . S
C465 N27 1.523 . S
C487 C196 1.795 . S
C483 N44 1.823 . S
C505 C249 1.685 . S
C501 N1 1.707 . S
C523 C285 1.734 . S
C519 N18 1.721 . S
C537 N28 1.732 . S
C541 C345 1.688 . S
C559 C408 1.665 . S
C555 N41 1.667 . S
C577 C248 1.647 . S
C573 N14 1.666 . S
C591 N31 1.669 . S
C595 C292 1.671 . S
C613 C338 1.912 . S
C609 N40 1.916 . S
C631 C407 1.723 . S
C627 N5 1.751 . S
C645 N53 1.935 . S
C649 C186 1.905 . S
C667 C143 1.619 1_655 S
C663 N70 1.603 . S
C681 N80 1.689 . S
C685 C179 1.656 . S
C699 N92 1.600 . S
C703 C142 1.600 . S
C721 C354 1.897 . S
C717 N57 1.925 . S
C739 C398 1.556 . S
C735 N67 1.563 . S
C757 C232 1.735 . S
C753 N83 1.760 . S
C771 N96 1.635 . S
C775 C301 1.633 . S
C793 C355 1.720 . S
C789 N66 1.759 . S
C811 C391 1.622 . S
C807 N79 1.633 . S
C829 C239 1.670 . S
C825 N93 1.697 . S
C843 N54 1.480 . S
C847 C302 1.477 . S
