# Generated by pormake.
# Topology llk, (3,12)-cn, num edge types: 1
# Building blocks:
#     Node 0, Type 0, BuildingBlock: BETDIP_clean_linker_0, # of connection points: 3
#     Node 1, Type 0, BuildingBlock: BETDIP_clean_linker_0, # of connection points: 3
#     Node 2, Type 0, BuildingBlock: BETDIP_clean_linker_0, # of connection points: 3
#     Node 3, Type 0, BuildingBlock: BETDIP_clean_linker_0, # of connection points: 3
#     Node 4, Type 0, BuildingBlock: BETDIP_clean_linker_0, # of connection points: 3
#     Node 5, Type 0, BuildingBlock: BETDIP_clean_linker_0, # of connection points: 3
#     Node 6, Type 0, BuildingBlock: BETDIP_clean_linker_0, # of connection points: 3
#     Node 7, Type 0, BuildingBlock: BETDIP_clean_linker_0, # of connection points: 3
#     Node 8, Type 0, BuildingBlock: BETDIP_clean_linker_0, # of connection points: 3
#     Node 9, Type 0, BuildingBlock: BETDIP_clean_linker_0, # of connection points: 3
#     Node 10, Type 0, BuildingBlock: BETDIP_clean_linker_0, # of connection points: 3
#     Node 11, Type 0, BuildingBlock: BETDIP_clean_linker_0, # of connection points: 3
#     Node 12, Type 0, BuildingBlock: BETDIP_clean_linker_0, # of connection points: 3
#     Node 13, Type 0, BuildingBlock: BETDIP_clean_linker_0, # of connection points: 3
#     Node 14, Type 0, BuildingBlock: BETDIP_clean_linker_0, # of connection points: 3
#     Node 15, Type 0, BuildingBlock: BETDIP_clean_linker_0, # of connection points: 3
#     Node 16, Type 0, BuildingBlock: BETDIP_clean_linker_0, # of connection points: 3
#     Node 17, Type 0, BuildingBlock: BETDIP_clean_linker_0, # of connection points: 3
#     Node 18, Type 0, BuildingBlock: BETDIP_clean_linker_0, # of connection points: 3
#     Node 19, Type 0, BuildingBlock: BETDIP_clean_linker_0, # of connection points: 3
#     Node 20, Type 0, BuildingBlock: BETDIP_clean_linker_0, # of connection points: 3
#     Node 21, Type 0, BuildingBlock: BETDIP_clean_linker_0, # of connection points: 3
#     Node 22, Type 0, BuildingBlock: BETDIP_clean_linker_0, # of connection points: 3
#     Node 23, Type 0, BuildingBlock: BETDIP_clean_linker_0, # of connection points: 3
#     Node 24, Type 1, BuildingBlock: EZIPEK_clean_sbu_0, # of connection points: 12
#     Node 25, Type 1, BuildingBlock: EZIPEK_clean_sbu_0, # of connection points: 12
#     Node 26, Type 1, BuildingBlock: EZIPEK_clean_sbu_0, # of connection points: 12
#     Node 27, Type 1, BuildingBlock: EZIPEK_clean_sbu_0, # of connection points: 12
#     Node 28, Type 1, BuildingBlock: EZIPEK_clean_sbu_0, # of connection points: 12
#     Node 29, Type 1, BuildingBlock: EZIPEK_clean_sbu_0, # of connection points: 12
#     Edge 30, Type (0, 1), BuildingBlock: XUDNAN_clean_linker_2, # of connection points: 2
#     Edge 31, Type (0, 1), BuildingBlock: XUDNAN_clean_linker_2, # of connection points: 2
#     Edge 32, Type (0, 1), BuildingBlock: XUDNAN_clean_linker_2, # of connection points: 2
#     Edge 33, Type (0, 1), BuildingBlock: XUDNAN_clean_linker_2, # of connection points: 2
#     Edge 34, Type (0, 1), BuildingBlock: XUDNAN_clean_linker_2, # of connection points: 2
#     Edge 35, Type (0, 1), BuildingBlock: XUDNAN_clean_linker_2, # of connection points: 2
#     Edge 36, Type (0, 1), BuildingBlock: XUDNAN_clean_linker_2, # of connection points: 2
#     Edge 37, Type (0, 1), BuildingBlock: XUDNAN_clean_linker_2, # of connection points: 2
#     Edge 38, Type (0, 1), BuildingBlock: XUDNAN_clean_linker_2, # of connection points: 2
#     Edge 39, Type (0, 1), BuildingBlock: XUDNAN_clean_linker_2, # of connection points: 2
#     Edge 40, Type (0, 1), BuildingBlock: XUDNAN_clean_linker_2, # of connection points: 2
#     Edge 41, Type (0, 1), BuildingBlock: XUDNAN_clean_linker_2, # of connection points: 2
#     Edge 42, Type (0, 1), BuildingBlock: XUDNAN_clean_linker_2, # of connection points: 2
#     Edge 43, Type (0, 1), BuildingBlock: XUDNAN_clean_linker_2, # of connection points: 2
#     Edge 44, Type (0, 1), BuildingBlock: XUDNAN_clean_linker_2, # of connection points: 2
#     Edge 45, Type (0, 1), BuildingBlock: XUDNAN_clean_linker_2, # of connection points: 2
#     Edge 46, Type (0, 1), BuildingBlock: XUDNAN_clean_linker_2, # of connection points: 2
#     Edge 47, Type (0, 1), BuildingBlock: XUDNAN_clean_linker_2, # of connection points: 2
#     Edge 48, Type (0, 1), BuildingBlock: XUDNAN_clean_linker_2, # of connection points: 2
#     Edge 49, Type (0, 1), BuildingBlock: XUDNAN_clean_linker_2, # of connection points: 2
#     Edge 50, Type (0, 1), BuildingBlock: XUDNAN_clean_linker_2, # of connection points: 2
#     Edge 51, Type (0, 1), BuildingBlock: XUDNAN_clean_linker_2, # of connection points: 2
#     Edge 52, Type (0, 1), BuildingBlock: XUDNAN_clean_linker_2, # of connection points: 2
#     Edge 53, Type (0, 1), BuildingBlock: XUDNAN_clean_linker_2, # of connection points: 2
#     Edge 54, Type (0, 1), BuildingBlock: XUDNAN_clean_linker_2, # of connection points: 2
#     Edge 55, Type (0, 1), BuildingBlock: XUDNAN_clean_linker_2, # of connection points: 2
#     Edge 56, Type (0, 1), BuildingBlock: XUDNAN_clean_linker_2, # of connection points: 2
#     Edge 57, Type (0, 1), BuildingBlock: XUDNAN_clean_linker_2, # of connection points: 2
#     Edge 58, Type (0, 1), BuildingBlock: XUDNAN_clean_linker_2, # of connection points: 2
#     Edge 59, Type (0, 1), BuildingBlock: XUDNAN_clean_linker_2, # of connection points: 2
#     Edge 60, Type (0, 1), BuildingBlock: XUDNAN_clean_linker_2, # of connection points: 2
#     Edge 61, Type (0, 1), BuildingBlock: XUDNAN_clean_linker_2, # of connection points: 2
#     Edge 62, Type (0, 1), BuildingBlock: XUDNAN_clean_linker_2, # of connection points: 2
#     Edge 63, Type (0, 1), BuildingBlock: XUDNAN_clean_linker_2, # of connection points: 2
#     Edge 64, Type (0, 1), BuildingBlock: XUDNAN_clean_linker_2, # of connection points: 2
#     Edge 65, Type (0, 1), BuildingBlock: XUDNAN_clean_linker_2, # of connection points: 2
#     Edge 66, Type (0, 1), BuildingBlock: XUDNAN_clean_linker_2, # of connection points: 2
#     Edge 67, Type (0, 1), BuildingBlock: XUDNAN_clean_linker_2, # of connection points: 2
#     Edge 68, Type (0, 1), BuildingBlock: XUDNAN_clean_linker_2, # of connection points: 2
#     Edge 69, Type (0, 1), BuildingBlock: XUDNAN_clean_linker_2, # of connection points: 2
#     Edge 70, Type (0, 1), BuildingBlock: XUDNAN_clean_linker_2, # of connection points: 2
#     Edge 71, Type (0, 1), BuildingBlock: XUDNAN_clean_linker_2, # of connection points: 2
#     Edge 72, Type (0, 1), BuildingBlock: XUDNAN_clean_linker_2, # of connection points: 2
#     Edge 73, Type (0, 1), BuildingBlock: XUDNAN_clean_linker_2, # of connection points: 2
#     Edge 74, Type (0, 1), BuildingBlock: XUDNAN_clean_linker_2, # of connection points: 2
#     Edge 75, Type (0, 1), BuildingBlock: XUDNAN_clean_linker_2, # of connection points: 2
#     Edge 76, Type (0, 1), BuildingBlock: XUDNAN_clean_linker_2, # of connection points: 2
#     Edge 77, Type (0, 1), BuildingBlock: XUDNAN_clean_linker_2, # of connection points: 2
#     Edge 78, Type (0, 1), BuildingBlock: XUDNAN_clean_linker_2, # of connection points: 2
#     Edge 79, Type (0, 1), BuildingBlock: XUDNAN_clean_linker_2, # of connection points: 2
#     Edge 80, Type (0, 1), BuildingBlock: XUDNAN_clean_linker_2, # of connection points: 2
#     Edge 81, Type (0, 1), BuildingBlock: XUDNAN_clean_linker_2, # of connection points: 2
#     Edge 82, Type (0, 1), BuildingBlock: XUDNAN_clean_linker_2, # of connection points: 2
#     Edge 83, Type (0, 1), BuildingBlock: XUDNAN_clean_linker_2, # of connection points: 2
#     Edge 84, Type (0, 1), BuildingBlock: XUDNAN_clean_linker_2, # of connection points: 2
#     Edge 85, Type (0, 1), BuildingBlock: XUDNAN_clean_linker_2, # of connection points: 2
#     Edge 86, Type (0, 1), BuildingBlock: XUDNAN_clean_linker_2, # of connection points: 2
#     Edge 87, Type (0, 1), BuildingBlock: XUDNAN_clean_linker_2, # of connection points: 2
#     Edge 88, Type (0, 1), BuildingBlock: XUDNAN_clean_linker_2, # of connection points: 2
#     Edge 89, Type (0, 1), BuildingBlock: XUDNAN_clean_linker_2, # of connection points: 2
#     Edge 90, Type (0, 1), BuildingBlock: XUDNAN_clean_linker_2, # of connection points: 2
#     Edge 91, Type (0, 1), BuildingBlock: XUDNAN_clean_linker_2, # of connection points: 2
#     Edge 92, Type (0, 1), BuildingBlock: XUDNAN_clean_linker_2, # of connection points: 2
#     Edge 93, Type (0, 1), BuildingBlock: XUDNAN_clean_linker_2, # of connection points: 2
#     Edge 94, Type (0, 1), BuildingBlock: XUDNAN_clean_linker_2, # of connection points: 2
#     Edge 95, Type (0, 1), BuildingBlock: XUDNAN_clean_linker_2, # of connection points: 2
#     Edge 96, Type (0, 1), BuildingBlock: XUDNAN_clean_linker_2, # of connection points: 2
#     Edge 97, Type (0, 1), BuildingBlock: XUDNAN_clean_linker_2, # of connection points: 2
#     Edge 98, Type (0, 1), BuildingBlock: XUDNAN_clean_linker_2, # of connection points: 2
#     Edge 99, Type (0, 1), BuildingBlock: XUDNAN_clean_linker_2, # of connection points: 2
#     Edge 100, Type (0, 1), BuildingBlock: XUDNAN_clean_linker_2, # of connection points: 2
#     Edge 101, Type (0, 1), BuildingBlock: XUDNAN_clean_linker_2, # of connection points: 2
# Relax obj value: 0.074
# Max RMSD: 0.173
# Mean RMSD: 0.134
data_MOF--net-llk--node1-EZIPEK_clean_sbu_0--node2-BETDIP_clean_linker_0--edge1-XUDNAN_clean_linker_2
_symmetry_space_group_name_H-M    P1
_symmetry_Int_Tables_number       1
_symmetry_cell_setting            triclinic
loop_
_symmetry_equiv_pos_as_xyz
'x, y, z'
_cell_length_a     46.937618
_cell_length_b     47.164675
_cell_length_c     47.565716
_cell_angle_alpha  90.033705
_cell_angle_beta   89.903229
_cell_angle_gamma 89.965483
loop_
_atom_site_label
_atom_site_type_symbol
_atom_site_fract_x
_atom_site_fract_y
_atom_site_fract_z
_atom_type_partial_charge
H0 H 0.99186 0.26135 0.22924 0.0
H1 H 0.01082 0.27412 0.31668 0.0
H2 H 0.01377 0.34469 0.26053 0.0
H3 H 0.03694 0.23135 0.30591 0.0
C4 C 0.01701 0.22111 0.30024 0.0
C5 C 0.9978 0.2754 0.24625 0.0
C6 C 1.00131 0.30496 0.24125 0.0
C7 C 0.00232 0.26395 0.27341 0.0
C8 C 0.00909 0.28237 0.2955 0.0
C9 C 0.01309 0.31132 0.29093 0.0
C10 C 0.00947 0.32238 0.2639 0.0
N11 N 0.99984 0.23422 0.27901 0.0
H12 H 0.79364 0.97817 0.26434 0.0
H13 H 0.70521 1.00114 0.27189 0.0
H14 H 0.76175 0.01597 0.34079 0.0
H15 H 0.70585 0.95451 0.24506 0.0
C16 C 0.71685 0.96707 0.22924 0.0
C17 C 0.77637 0.98721 0.27654 0.0
C18 C 0.78102 0.99596 0.30465 0.0
C19 C 0.74886 0.98897 0.26465 0.0
C20 C 0.72643 1.00011 0.28074 0.0
C21 C 0.73094 0.00941 0.30826 0.0
C22 C 0.75827 0.00788 0.31974 0.0
N23 N 0.74349 0.97959 0.23665 0.0
H24 H 0.01604 0.79169 0.26147 0.0
H25 H 0.02921 0.70257 0.2773 0.0
H26 H 0.02852 0.76075 0.34595 0.0
H27 H 0.05386 0.70907 0.23452 0.0
C28 C 0.03498 0.71706 0.22391 0.0
C29 C 0.0198 0.77449 0.27606 0.0
C30 C 0.02295 0.78017 0.30521 0.0
C31 C 0.02252 0.74644 0.26568 0.0
C32 C 0.02754 0.72422 0.28474 0.0
C33 C 0.03054 0.72958 0.31342 0.0
C34 C 0.02766 0.75726 0.32345 0.0
N35 N 0.02004 0.74036 0.23632 0.0
H36 H 0.21965 0.0299 0.26625 0.0
H37 H 0.30855 0.00959 0.27545 0.0
H38 H 0.25289 1.0023 0.34622 0.0
H39 H 0.30771 0.05598 0.24841 0.0
C40 C 0.29675 0.04369 0.23238 0.0
C41 C 0.23713 0.02279 0.2793 0.0
C42 C 0.23227 0.01512 0.30771 0.0
C43 C 0.26492 0.02177 0.26788 0.0
C44 C 0.28744 0.0117 0.28447 0.0
C45 C 0.28297 1.004 0.31244 0.0
C46 C 0.25565 0.00643 0.32399 0.0
N47 N 0.27042 0.03046 0.23971 0.0
H48 H 0.00195 0.75211 0.79935 0.0
H49 H 0.03351 0.7502 0.71447 0.0
H50 H 0.03893 0.67556 0.7657 0.0
H51 H 0.04829 0.80562 0.74641 0.0
C52 C 0.02647 0.80349 0.73914 0.0
C53 C 0.01227 0.74066 0.78242 0.0
C54 C 0.02027 0.71194 0.78609 0.0
C55 C 0.01766 0.75466 0.75674 0.0
C56 C 0.03029 0.73973 0.73451 0.0
C57 C 0.03747 0.71109 0.73751 0.0
C58 C 0.03297 0.69763 0.76341 0.0
N59 N 0.00853 0.78308 0.75236 0.0
H60 H 0.21968 0.01207 0.75948 0.0
H61 H 0.3085 0.992 0.74811 0.0
H62 H 0.25319 0.9932 0.6769 0.0
H63 H 0.2954 0.96551 0.7902 0.0
C64 C 0.29001 0.98552 0.80027 0.0
C65 C 0.23728 0.00658 0.74576 0.0
C66 C 0.23289 1.00391 0.71635 0.0
C67 C 0.26451 1.00162 0.75747 0.0
C68 C 0.28734 0.99509 0.73955 0.0
C69 C 0.28321 0.99203 0.7107 0.0
C70 C 0.25612 0.99621 0.6993 0.0
N71 N 0.26925 1.00323 0.78707 0.0
H72 H 0.02189 0.21767 0.75626 0.0
H73 H 0.00175 0.30609 0.74752 0.0
H74 H 0.98402 0.24909 0.67967 0.0
H75 H 0.04749 0.30567 0.77376 0.0
C76 C 0.03561 0.29472 0.79012 0.0
C77 C 0.01322 0.23487 0.74386 0.0
C78 C 0.00387 0.22989 0.71593 0.0
C79 C 0.01261 0.26256 0.75529 0.0
C80 C 0.00189 0.28483 0.73895 0.0
C81 C 0.99178 0.28017 0.71167 0.0
C82 C 0.99249 0.2527 0.70054 0.0
N83 N 0.02246 0.26827 0.78314 0.0
H84 H 0.75686 0.97941 0.80318 0.0
H85 H 0.74903 0.97675 0.71341 0.0
H86 H 0.67379 0.98107 0.76388 0.0
H87 H 0.78809 0.94005 0.72615 0.0
C88 C 0.79894 0.95947 0.73225 0.0
C89 C 0.74343 0.97927 0.78471 0.0
C90 C 0.71323 0.98028 0.78742 0.0
C91 C 0.75635 0.97718 0.7579 0.0
C92 C 0.73911 0.97691 0.73399 0.0
C93 C 0.70946 0.97769 0.7361 0.0
C94 C 0.69675 0.97971 0.76268 0.0
N95 N 0.78657 0.97589 0.75446 0.0
H96 H 0.21688 0.25528 0.00797 0.0
H97 H 0.30789 0.26214 0.01404 0.0
H98 H 0.25596 0.33426 0.03298 0.0
H99 H 0.28842 0.23231 0.9644 0.0
C100 C 0.28646 0.2182 0.98238 0.0
C101 C 0.23552 0.26785 0.01286 0.0
C102 C 0.23274 0.29702 0.01967 0.0
C103 C 0.26274 0.25522 0.01089 0.0
C104 C 0.28701 0.27169 0.01605 0.0
C105 C 0.28461 0.30026 0.02357 0.0
C106 C 0.25755 0.31246 0.02597 0.0
N107 N 0.2661 0.22618 1.00319 0.0
H108 H 0.21473 0.75583 0.03005 0.0
H109 H 0.30573 0.74798 0.03573 0.0
H110 H 0.25422 0.6732 0.03346 0.0
H111 H 0.29394 0.78669 0.06905 0.0
C112 C 0.28589 0.79826 0.05094 0.0
C113 C 0.23353 0.74258 0.03145 0.0
C114 C 0.23092 0.71263 0.0316 0.0
C115 C 0.26056 0.75542 0.03402 0.0
C116 C 0.28486 0.7382 0.0354 0.0
C117 C 0.28269 0.70864 0.03552 0.0
C118 C 0.25576 0.6961 0.03365 0.0
N119 N 0.26369 0.78551 0.0348 0.0
H120 H 0.75722 0.21592 0.98934 0.0
H121 H 0.74626 0.30512 1.00424 0.0
H122 H 0.67574 0.24912 0.01608 0.0
H123 H 0.77489 0.30145 0.95759 0.0
C124 C 0.79052 0.29192 0.97156 0.0
C125 C 0.74358 0.23342 0.99538 0.0
C126 C 0.71496 0.22851 1.00348 0.0
C127 C 0.75457 0.2612 0.99462 0.0
C128 C 0.73746 0.28389 1.00345 0.0
C129 C 0.70936 0.27939 0.01199 0.0
C130 C 0.69811 0.25194 0.01125 0.0
N131 N 0.78306 0.26638 0.98577 0.0
H132 H 0.75395 0.79429 0.01653 0.0
H133 H 0.74888 0.70593 0.99475 0.0
H134 H 0.67411 0.75743 0.99011 0.0
H135 H 0.7762 0.71021 0.0431 0.0
C136 C 0.79177 0.72009 0.02926 0.0
C137 C 0.74154 0.77643 0.00916 0.0
C138 C 0.71223 0.77978 1.00277 0.0
C139 C 0.75465 0.74958 0.00691 0.0
C140 C 0.73877 0.72646 0.99713 0.0
C141 C 0.70999 0.72945 0.99053 0.0
C142 C 0.69687 0.75592 0.99357 0.0
N143 N 0.78357 0.74534 0.0149 0.0
H144 H 0.52314 0.76147 0.72818 0.0
H145 H 0.4967 0.77111 0.81423 0.0
H146 H 0.48577 0.84011 0.75697 0.0
H147 H 0.54132 0.74512 0.81756 0.0
C148 C 0.5313 0.7281 0.80572 0.0
C149 C 0.51358 0.77426 0.74459 0.0
C150 C 0.50536 0.80272 0.739 0.0
C151 C 0.51069 0.76282 0.77195 0.0
C152 C 0.49873 0.77965 0.7932 0.0
C153 C 0.4902 0.80754 0.78801 0.0
C154 C 0.49313 0.81871 0.76091 0.0
N155 N 0.51997 0.73469 0.77855 0.0
H156 H 0.29881 0.48819 0.76512 0.0
H157 H 0.20981 0.46994 0.77867 0.0
H158 H 0.26583 0.47627 0.84895 0.0
H159 H 0.21988 0.44526 0.73521 0.0
C160 C 0.22628 0.46524 0.7257 0.0
C161 C 0.28134 0.48361 0.7793 0.0
C162 C 0.28624 0.48156 0.80862 0.0
C163 C 0.25378 0.47895 0.76825 0.0
C164 C 0.23116 0.47299 0.78672 0.0
C165 C 0.2357 0.47136 0.81566 0.0
C166 C 0.26298 0.47604 0.82635 0.0
N167 N 0.2485 0.4811 0.73879 0.0
H168 H 0.51688 0.29427 0.76616 0.0
H169 H 0.49937 0.20537 0.77609 0.0
H170 H 0.48907 0.26111 0.8463 0.0
H171 H 0.54472 0.20764 0.74758 0.0
C172 C 0.53117 0.21759 0.73189 0.0
C173 C 0.5099 0.2768 0.77922 0.0
C174 C 0.50256 0.28154 0.80784 0.0
C175 C 0.50897 0.24912 0.76774 0.0
C176 C 0.49997 0.22661 0.78474 0.0
C177 C 0.4927 0.2309 0.81291 0.0
C178 C 0.49395 0.25824 0.82422 0.0
N179 N 0.51713 0.2435 0.73931 0.0
H180 H 0.714 0.51761 0.76389 0.0
H181 H 0.80479 0.52649 0.76348 0.0
H182 H 0.76011 0.52206 0.84216 0.0
H183 H 0.77441 0.56231 0.71653 0.0
C184 C 0.7769 0.53955 0.71405 0.0
C185 C 0.73368 0.51972 0.77555 0.0
C186 C 0.73348 0.51989 0.80531 0.0
C187 C 0.75934 0.52288 0.76054 0.0
C188 C 0.78501 0.52554 0.77521 0.0
C189 C 0.78548 0.52499 0.80467 0.0
C190 C 0.75965 0.52256 0.81944 0.0
N191 N 0.75964 0.52126 0.7307 0.0
H192 H 0.50099 0.25353 0.29865 0.0
H193 H 0.52352 0.24245 0.21163 0.0
H194 H 0.52247 0.17056 0.26623 0.0
H195 H 0.5494 0.28498 0.22529 0.0
C196 C 0.52924 0.29512 0.23048 0.0
C197 C 0.50732 0.23973 0.28154 0.0
C198 C 0.51052 0.21017 0.28603 0.0
C199 C 0.51282 0.25162 0.25485 0.0
C200 C 0.52013 0.2337 0.23243 0.0
C201 C 0.52347 0.2046 0.23652 0.0
C202 C 0.51909 0.19308 0.26327 0.0
N203 N 0.51097 0.28146 0.2503 0.0
H204 H 0.72484 0.49344 0.26225 0.0
H205 H 0.81108 0.52166 0.2483 0.0
H206 H 0.75127 0.52291 0.18057 0.0
H207 H 0.81632 0.4783 0.27697 0.0
C208 C 0.80426 0.48889 0.29347 0.0
C209 C 0.74102 0.502 0.2484 0.0
C210 C 0.73458 0.50751 0.21983 0.0
C211 C 0.76899 0.50635 0.25861 0.0
C212 C 0.78982 0.51752 0.24049 0.0
C213 C 0.78352 0.52346 0.21241 0.0
C214 C 0.75599 0.51855 0.20243 0.0
N215 N 0.77649 0.49939 0.28685 0.0
H216 H 0.50873 0.71681 0.26096 0.0
H217 H 0.48976 0.80564 0.25603 0.0
H218 H 0.48824 0.75504 0.18112 0.0
H219 H 0.46286 0.77847 0.30672 0.0
C220 C 0.48575 0.78125 0.30877 0.0
C221 C 0.50264 0.735 0.24845 0.0
C222 C 0.49825 0.73214 0.21909 0.0
C223 C 0.49858 0.76142 0.26189 0.0
C224 C 0.49118 0.78515 0.24582 0.0
C225 C 0.48781 0.78305 0.21663 0.0
C226 C 0.49083 0.75648 0.20367 0.0
N227 N 0.50409 0.76487 0.29114 0.0
H228 H 0.25589 0.49961 0.30078 0.0
H229 H 0.23907 0.51522 0.21319 0.0
H230 H 0.17018 0.51484 0.27209 0.0
H231 H 0.27137 0.47312 0.21279 0.0
C232 C 0.28713 0.48667 0.22279 0.0
C233 C 0.24092 0.50422 0.2841 0.0
C234 C 0.21167 0.5086 0.29039 0.0
C235 C 0.25068 0.50543 0.25592 0.0
C236 C 0.23141 0.51256 0.23451 0.0
C237 C 0.20253 0.51664 0.24036 0.0
C238 C 0.19286 0.51371 0.26803 0.0
N239 N 0.27976 0.49998 0.24884 0.0
H240 H 0.71295 0.75557 0.50565 0.0
H241 H 0.80308 0.75266 0.49117 0.0
H242 H 0.76169 0.83289 0.50387 0.0
H243 H 0.76869 0.69854 0.46224 0.0
C244 C 0.77513 0.70282 0.48374 0.0
C245 C 0.73297 0.76667 0.50311 0.0
C246 C 0.73377 0.79667 0.50349 0.0
C247 C 0.75799 0.75075 0.49878 0.0
C248 C 0.7839 0.76487 0.49481 0.0
C249 C 0.78552 0.79446 0.49705 0.0
C250 C 0.76039 0.81013 0.50116 0.0
N251 N 0.75726 0.72062 0.50036 0.0
H252 H 0.71992 0.25901 0.53003 0.0
H253 H 0.80867 0.24012 0.5449 0.0
H254 H 0.74863 0.17261 0.53844 0.0
H255 H 0.80424 0.28255 0.56923 0.0
C256 C 0.79578 0.29426 0.55141 0.0
C257 C 0.73678 0.24375 0.5336 0.0
C258 C 0.7304 0.21441 0.53494 0.0
C259 C 0.76507 0.25335 0.53773 0.0
C260 C 0.78681 0.23331 0.54232 0.0
C261 C 0.7807 0.20437 0.54338 0.0
C262 C 0.75279 0.19521 0.53916 0.0
N263 N 0.77184 0.28288 0.53669 0.0
H264 H 0.26197 0.71417 0.50171 0.0
H265 H 0.25767 0.80487 0.49828 0.0
H266 H 0.18092 0.75696 0.50931 0.0
H267 H 0.2943 0.78837 0.45888 0.0
C268 C 0.30555 0.78229 0.47792 0.0
C269 C 0.2493 0.73336 0.50222 0.0
C270 C 0.21936 0.73194 0.50544 0.0
C271 C 0.26302 0.75963 0.49907 0.0
C272 C 0.24698 0.78463 0.50041 0.0
C273 C 0.21751 0.78385 0.50483 0.0
C274 C 0.20382 0.75748 0.50679 0.0
N275 N 0.29306 0.7611 0.49532 0.0
H276 H 0.25474 0.293 0.53206 0.0
H277 H 0.24177 0.20477 0.5127 0.0
H278 H 0.17204 0.26273 0.50658 0.0
H279 H 0.27084 0.20516 0.55803 0.0
C280 C 0.28692 0.21541 0.54506 0.0
C281 C 0.24081 0.27603 0.52531 0.0
C282 C 0.21207 0.28177 0.51835 0.0
C283 C 0.25135 0.24801 0.52411 0.0
C284 C 0.23349 0.22612 0.51475 0.0
C285 C 0.20513 0.23154 0.50777 0.0
C286 C 0.19455 0.25913 0.51016 0.0
N287 N 0.27992 0.2417 0.53197 0.0
C288 C 0.00899 0.93143 0.5765 0.0
C289 C 0.01162 0.93865 0.43937 0.0
C290 C 0.00219 0.06859 0.58311 0.0
C291 C 0.99576 0.0742 0.44573 0.0
C292 C 0.93061 0.06389 0.52049 0.0
C293 C 0.94455 0.92767 0.5064 0.0
C294 C 0.06764 0.0779 0.50925 0.0
C295 C 0.08148 0.94163 0.51077 0.0
C296 C 0.0746 0.01449 0.44412 0.0
C297 C 0.93813 1.00012 0.44172 0.0
C298 C 0.07349 0.00512 0.58159 0.0
C299 C 0.93648 0.99621 0.57954 0.0
Eu300 Eu 0.01136 0.94964 0.50876 0.0
O301 O 0.9833 0.97681 0.4853 0.0
O302 O 0.03346 0.97924 0.53548 0.0
Eu303 Eu 0.95157 0.99753 0.51078 0.0
Eu304 Eu 0.05998 0.00844 0.51258 0.0
O305 O 0.98274 0.97423 0.53473 0.0
O306 O 0.03419 0.98182 0.48576 0.0
Eu307 Eu 0.00532 1.00066 0.56413 0.0
Eu308 Eu 0.00619 0.00591 0.45901 0.0
O309 O 0.97823 0.02419 0.53641 0.0
O310 O 0.97769 0.02723 0.48757 0.0
O311 O 0.02872 0.03169 0.48866 0.0
O312 O 0.02853 0.03 0.53798 0.0
Eu313 Eu 1.00044 0.05695 0.5138 0.0
O314 O 0.01046 0.92388 0.54941 0.0
O315 O 0.01366 0.92823 0.46549 0.0
O316 O 0.00174 0.07887 0.55684 0.0
O317 O 0.99577 0.08233 0.47276 0.0
O318 O 0.92443 0.03648 0.51722 0.0
O319 O 0.93273 0.95342 0.50749 0.0
O320 O 0.07939 0.05229 0.51194 0.0
O321 O 0.08753 0.96921 0.51236 0.0
O322 O 0.0475 0.01374 0.43586 0.0
O323 O 0.96546 1.00247 0.43465 0.0
O324 O 0.04628 1.00139 0.58862 0.0
O325 O 0.96346 0.99955 0.58758 0.0
O326 O 0.03987 0.08388 0.50929 0.0
O327 O 0.95641 0.07569 0.51911 0.0
O328 O 0.05549 0.93029 0.509 0.0
O329 O 0.97235 0.92191 0.50673 0.0
O330 O 0.00902 0.966 0.4328 0.0
O331 O 0.99921 0.04768 0.43667 0.0
O332 O 0.00742 0.95799 0.58613 0.0
O333 O 0.00304 0.04111 0.58981 0.0
O334 O 0.9276 0.99331 0.55289 0.0
O335 O 0.92824 0.99838 0.46817 0.0
O336 O 0.08309 0.0091 0.55528 0.0
O337 O 0.08384 0.01167 0.47062 0.0
C338 C 0.49664 0.94081 0.08333 0.0
C339 C 0.5192 0.07563 0.0788 0.0
C340 C 0.49654 0.93574 0.94744 0.0
C341 C 0.50526 0.07211 0.94298 0.0
C342 C 0.57615 0.99836 0.94509 0.0
C343 C 0.57553 1.00375 0.08057 0.0
C344 C 0.4374 0.01122 0.94478 0.0
C345 C 0.43663 0.01307 0.08066 0.0
C346 C 0.4428 0.0811 0.01128 0.0
C347 C 0.58063 0.06916 0.00746 0.0
C348 C 0.4315 0.94387 0.01429 0.0
C349 C 0.57049 0.93315 0.01768 0.0
Eu350 Eu 0.50604 0.00804 0.06634 0.0
O351 O 0.53293 0.03 0.03694 0.0
O352 O 0.47933 0.9843 0.03828 0.0
Eu353 Eu 0.55945 1.00221 0.01276 0.0
Eu354 Eu 0.45281 0.01115 0.01284 0.0
O355 O 0.52927 0.97993 0.03886 0.0
O356 O 0.48268 0.03516 0.03782 0.0
Eu357 Eu 0.50204 0.95243 0.0148 0.0
Eu358 Eu 0.5106 0.06009 0.01146 0.0
O359 O 0.52972 0.97756 0.98838 0.0
O360 O 0.53334 0.0289 0.98679 0.0
O361 O 0.48394 0.03217 0.98741 0.0
O362 O 0.47942 0.98256 0.98904 0.0
Eu363 Eu 0.50654 1.00408 0.95945 0.0
O364 O 0.4987 0.96791 0.09098 0.0
O365 O 0.5153 0.04928 0.08807 0.0
O366 O 0.50096 0.96192 0.93784 0.0
O367 O 0.50524 0.04497 0.93514 0.0
O368 O 0.58385 0.99806 0.97205 0.0
O369 O 0.58353 0.00487 0.05369 0.0
O370 O 0.42934 0.01437 0.9715 0.0
O371 O 0.42868 0.01162 0.05381 0.0
O372 O 0.47061 0.08718 0.01176 0.0
O373 O 0.55449 0.08035 0.00857 0.0
O374 O 0.45763 0.93274 0.01672 0.0
O375 O 0.543 0.9257 0.01573 0.0
O376 O 0.46402 0.00612 0.93594 0.0
O377 O 0.54924 1.00035 0.93579 0.0
O378 O 0.46363 0.01373 0.0898 0.0
O379 O 0.54851 1.00289 0.08974 0.0
O380 O 0.51712 0.08446 0.05221 0.0
O381 O 0.50806 0.08193 0.96917 0.0
O382 O 0.49859 0.93072 0.05716 0.0
O383 O 0.49635 0.92783 0.97437 0.0
O384 O 0.5805 0.95956 0.01751 0.0
O385 O 0.58686 0.04157 0.00842 0.0
O386 O 0.42551 0.97144 0.01169 0.0
O387 O 0.43187 0.05491 0.01184 0.0
C388 C 1.00018 0.43571 0.07857 0.0
C389 C 0.01039 0.43468 0.94307 0.0
C390 C 0.99963 0.57469 0.07689 0.0
C391 C 0.01526 0.57371 0.94219 0.0
C392 C 0.93963 0.57507 1.00123 0.0
C393 C 0.93691 0.4367 0.00623 0.0
C394 C 0.07616 0.57285 0.01395 0.0
C395 C 0.07337 0.43414 0.0193 0.0
C396 C 0.08241 0.49551 0.95046 0.0
C397 C 0.9461 0.50804 0.93464 0.0
C398 C 0.06716 0.50891 0.08547 0.0
C399 C 0.93057 0.51103 0.07007 0.0
Eu400 Eu 0.00557 0.45192 0.01076 0.0
O401 O 0.98372 0.47997 0.98229 0.0
O402 O 0.02876 0.47956 0.03844 0.0
Eu403 Eu 0.95257 0.50551 1.00405 0.0
Eu404 Eu 0.06065 0.5038 0.01633 0.0
O405 O 0.97751 0.4803 0.03283 0.0
O406 O 0.03389 0.47963 0.98852 0.0
Eu407 Eu 1.00039 0.50503 0.06351 0.0
Eu408 Eu 0.01282 0.50431 0.95662 0.0
O409 O 0.97915 0.52989 0.03187 0.0
O410 O 0.98468 0.52959 0.98219 0.0
O411 O 0.03563 0.52913 0.9875 0.0
O412 O 0.02922 0.52929 0.03766 0.0
Eu413 Eu 0.00746 0.55758 0.00961 0.0
O414 O 0.00275 0.4279 0.05174 0.0
O415 O 0.00775 0.42724 0.97002 0.0
O416 O 0.00203 0.58245 0.05003 0.0
O417 O 0.01184 0.58143 0.96891 0.0
O418 O 0.92975 0.54842 1.00131 0.0
O419 O 0.92804 0.46352 1.00312 0.0
O420 O 0.08521 0.54593 0.01566 0.0
O421 O 0.0831 0.46082 0.02103 0.0
O422 O 0.05706 0.49926 0.93836 0.0
O423 O 0.97394 0.50784 0.92896 0.0
O424 O 0.03931 0.50776 0.09088 0.0
O425 O 0.95615 0.50815 0.08189 0.0
O426 O 0.04908 0.58108 0.01229 0.0
O427 O 0.96688 0.58253 1.00363 0.0
O428 O 0.04631 0.42685 0.01491 0.0
O429 O 0.96386 0.42854 0.00942 0.0
O430 O 0.01272 0.46139 0.93364 0.0
O431 O 0.01666 0.54681 0.93303 0.0
O432 O 0.99839 0.46265 0.08752 0.0
O433 O 0.99919 0.54791 0.0863 0.0
O434 O 0.92484 0.51044 0.04261 0.0
O435 O 0.93417 0.50633 0.96009 0.0
O436 O 0.07941 0.50716 0.06016 0.0
O437 O 0.08805 0.49682 0.97792 0.0
C438 C 0.50536 0.44059 0.08468 0.0
C439 C 0.51366 0.57713 0.08017 0.0
C440 C 0.51257 0.43534 0.94774 0.0
C441 C 0.50876 0.5723 0.94299 0.0
C442 C 0.57912 0.50366 0.94604 0.0
C443 C 0.57724 0.50754 0.0842 0.0
C444 C 0.44169 0.50452 0.94469 0.0
C445 C 0.44017 0.5104 0.08219 0.0
C446 C 0.44115 0.5748 0.01694 0.0
C447 C 0.57844 0.57389 1.00361 0.0
C448 C 0.44145 0.43699 0.01933 0.0
C449 C 0.57878 0.43804 0.022 0.0
Eu450 Eu 0.50912 0.50838 0.06652 0.0
O451 O 0.53557 0.5329 0.03843 0.0
O452 O 0.4843 0.48212 0.03906 0.0
Eu453 Eu 0.56458 0.50625 0.01485 0.0
Eu454 Eu 0.455 0.50587 0.01357 0.0
O455 O 0.53496 0.48211 0.03982 0.0
O456 O 0.48396 0.5321 0.03728 0.0
Eu457 Eu 0.51 0.45249 0.01583 0.0
Eu458 Eu 0.5098 0.55997 0.01214 0.0
O459 O 0.53591 0.48011 0.99043 0.0
O460 O 0.5351 0.52987 0.98928 0.0
O461 O 0.48419 0.53055 0.98826 0.0
O462 O 0.48411 0.47959 0.98968 0.0
Eu463 Eu 0.51015 0.50422 0.96153 0.0
O464 O 0.50468 0.46794 0.09177 0.0
O465 O 0.51249 0.55039 0.08909 0.0
O466 O 0.51232 0.46212 0.93884 0.0
O467 O 0.51029 0.54488 0.93615 0.0
O468 O 0.58844 0.5042 0.97268 0.0
O469 O 0.58733 0.50817 0.05776 0.0
O470 O 0.43192 0.50438 0.97118 0.0
O471 O 0.43103 0.5068 0.05573 0.0
O472 O 0.46822 0.58321 0.01599 0.0
O473 O 0.55136 0.58242 1.00414 0.0
O474 O 0.46861 0.42884 0.01863 0.0
O475 O 0.5517 0.42956 0.02153 0.0
O476 O 0.46901 0.50454 0.93703 0.0
O477 O 0.5519 0.50388 0.93809 0.0
O478 O 0.46739 0.5125 0.08993 0.0
O479 O 0.54981 0.50664 0.09127 0.0
O480 O 0.51289 0.58542 0.05322 0.0
O481 O 0.50769 0.58237 0.96934 0.0
O482 O 0.50827 0.43045 0.05856 0.0
O483 O 0.51143 0.42703 0.97466 0.0
O484 O 0.58822 0.4645 0.01858 0.0
O485 O 0.58803 0.54783 0.00903 0.0
O486 O 0.43189 0.46361 0.01703 0.0
O487 O 0.43171 0.54813 0.01499 0.0
C488 C 0.99948 0.44078 0.58513 0.0
C489 C 0.01157 0.44215 0.44961 0.0
C490 C 0.02 0.57638 0.58727 0.0
C491 C 0.01777 0.57907 0.45182 0.0
C492 C 0.94247 0.58176 0.51807 0.0
C493 C 0.93687 0.44452 0.51625 0.0
C494 C 0.08098 0.57511 0.51468 0.0
C495 C 0.07561 0.43905 0.52399 0.0
C496 C 0.07889 0.50425 0.45087 0.0
C497 C 0.93969 0.51385 0.44983 0.0
C498 C 0.078 0.50775 0.58629 0.0
C499 C 0.93937 0.51271 0.58594 0.0
Eu500 Eu 0.00691 0.45606 0.51759 0.0
O501 O 0.98289 0.48602 0.4926 0.0
O502 O 0.03318 0.48278 0.54351 0.0
Eu503 Eu 0.9555 0.51261 0.51786 0.0
Eu504 Eu 0.06231 0.50749 0.51857 0.0
O505 O 0.98311 0.48599 0.54224 0.0
O506 O 0.03308 0.48403 0.49289 0.0
Eu507 Eu 0.00878 0.50895 0.57174 0.0
Eu508 Eu 0.00922 0.51065 0.46455 0.0
O509 O 0.98443 0.53629 0.54425 0.0
O510 O 0.98505 0.53709 0.49313 0.0
O511 O 0.03463 0.53398 0.49421 0.0
O512 O 0.03474 0.53347 0.54364 0.0
Eu513 Eu 0.01115 0.56384 0.51945 0.0
O514 O 1.00136 0.43219 0.55846 0.0
O515 O 0.01097 0.43317 0.47617 0.0
O516 O 0.01713 0.58627 0.56115 0.0
O517 O 0.01633 0.58731 0.47859 0.0
O518 O 0.93311 0.55512 0.51637 0.0
O519 O 0.92968 0.47193 0.51672 0.0
O520 O 0.08787 0.5477 0.51384 0.0
O521 O 0.08481 0.46571 0.52396 0.0
O522 O 0.05228 0.50868 0.44164 0.0
O523 O 0.96673 0.51232 0.44082 0.0
O524 O 0.05114 0.5041 0.59508 0.0
O525 O 0.96631 0.51127 0.59498 0.0
O526 O 0.05465 0.58552 0.51795 0.0
O527 O 0.96979 0.5896 0.52027 0.0
O528 O 0.04848 0.43076 0.52112 0.0
O529 O 0.96349 0.43431 0.51624 0.0
O530 O 0.00972 0.46899 0.44093 0.0
O531 O 0.01451 0.55271 0.44209 0.0
O532 O 0.00224 0.46738 0.59424 0.0
O533 O 0.01695 0.54952 0.59546 0.0
O534 O 0.93104 0.51371 0.55913 0.0
O535 O 0.93156 0.51431 0.47671 0.0
O536 O 0.08611 0.51126 0.55965 0.0
O537 O 0.08657 0.50203 0.47776 0.0
C538 C 0.51134 0.93543 0.57806 0.0
C539 C 0.51018 0.93976 0.44174 0.0
C540 C 0.50666 0.0745 0.58202 0.0
C541 C 0.50489 0.07803 0.44642 0.0
C542 C 0.43771 0.07382 0.51384 0.0
C543 C 0.44211 0.93556 0.51319 0.0
C544 C 0.57482 0.07782 0.51282 0.0
C545 C 0.5792 0.93929 0.51077 0.0
C546 C 0.57494 0.01591 0.4425 0.0
C547 C 0.43806 1.00156 0.4458 0.0
C548 C 0.57914 1.00224 0.57783 0.0
C549 C 0.44155 0.99628 0.58106 0.0
Eu550 Eu 0.51003 0.95359 0.51032 0.0
O551 O 0.48322 0.98178 0.4868 0.0
O552 O 0.53469 0.98212 0.53566 0.0
Eu553 Eu 0.45444 0.00514 0.51334 0.0
Eu554 Eu 0.56256 0.00805 0.51064 0.0
O555 O 0.48505 0.98092 0.53668 0.0
O556 O 0.53426 0.98287 0.48498 0.0
Eu557 Eu 0.50976 0.00541 0.56604 0.0
Eu558 Eu 0.50692 0.00833 0.4584 0.0
O559 O 0.48253 0.03045 0.53911 0.0
O560 O 0.48145 0.03183 0.4881 0.0
O561 O 0.53199 0.03257 0.4875 0.0
O562 O 0.534 0.03179 0.5376 0.0
Eu563 Eu 0.50676 0.0596 0.51377 0.0
O564 O 0.51079 0.9284 0.55087 0.0
O565 O 0.50873 0.93056 0.46826 0.0
O566 O 0.50547 0.08283 0.55526 0.0
O567 O 0.50651 0.085 0.47355 0.0
O568 O 0.4291 0.04675 0.5151 0.0
O569 O 0.43201 0.96209 0.51243 0.0
O570 O 0.58492 0.05123 0.51341 0.0
O571 O 0.58784 0.96631 0.50905 0.0
O572 O 0.54777 0.01498 0.43453 0.0
O573 O 0.46454 1.00433 0.43595 0.0
O574 O 0.55257 1.00374 0.58775 0.0
O575 O 0.46828 0.9997 0.59 0.0
O576 O 0.5474 0.08512 0.51239 0.0
O577 O 0.4647 0.08244 0.51294 0.0
O578 O 0.55216 0.93074 0.51132 0.0
O579 O 0.46947 0.92816 0.513 0.0
O580 O 0.51104 0.96694 0.43373 0.0
O581 O 0.50369 0.05147 0.43643 0.0
O582 O 0.51152 0.96206 0.58802 0.0
O583 O 0.50884 0.0475 0.59067 0.0
O584 O 0.43239 0.99821 0.55466 0.0
O585 O 0.43016 1.00206 0.47272 0.0
O586 O 0.58708 1.00364 0.55097 0.0
O587 O 0.58474 0.01273 0.46865 0.0
H588 H 0.20104 0.17859 0.53111 0.0
H589 H 0.16508 0.23247 0.46619 0.0
H590 H 0.12769 0.19691 0.45744 0.0
H591 H 0.18493 0.10964 0.49466 0.0
H592 H 0.1772 0.09228 0.52755 0.0
H593 H 0.20322 0.12036 0.52623 0.0
H594 H 0.17548 0.14721 0.56518 0.0
H595 H 0.14919 0.11951 0.56627 0.0
H596 H 0.1384 0.15562 0.55984 0.0
H597 H 0.09054 0.1602 0.46106 0.0
H598 H 0.0584 0.12055 0.47263 0.0
H599 H 0.11988 0.08835 0.53257 0.0
C600 C 0.18589 0.18246 0.51439 0.0
C601 C 0.18577 0.20832 0.49945 0.0
C602 C 0.16525 0.21292 0.47814 0.0
C603 C 0.14407 0.19282 0.47289 0.0
C604 C 0.14412 0.16806 0.48876 0.0
C605 C 0.1648 0.16245 0.50864 0.0
C606 C 0.15896 0.13484 0.52383 0.0
C607 C 0.18247 0.11298 0.51769 0.0
C608 C 0.15528 0.13961 0.55565 0.0
C609 C 0.13114 0.12648 0.51015 0.0
C610 C 0.12303 0.14598 0.48998 0.0
C611 C 0.09693 0.14439 0.47628 0.0
C612 C 0.07873 0.12205 0.48318 0.0
C613 C 0.08687 0.10155 0.5033 0.0
C614 C 0.11347 0.10362 0.51679 0.0
H615 H 0.83369 0.20202 0.51905 0.0
H616 H 0.77826 0.15847 0.57804 0.0
H617 H 0.81235 0.11883 0.58045 0.0
H618 H 0.85419 0.14389 0.48065 0.0
H619 H 0.89088 0.15398 0.47566 0.0
H620 H 0.86415 0.18081 0.48099 0.0
H621 H 0.89218 0.20082 0.52349 0.0
H622 H 0.91934 0.17434 0.51798 0.0
H623 H 0.90218 0.17743 0.55178 0.0
H624 H 0.84799 0.08152 0.57122 0.0
H625 H 0.88705 0.05038 0.5553 0.0
H626 H 0.92131 0.11886 0.50459 0.0
C627 C 0.82921 0.18457 0.53316 0.0
C628 C 0.8033 0.18312 0.54819 0.0
C629 C 0.79786 0.15972 0.56606 0.0
C630 C 0.81712 0.13721 0.56769 0.0
C631 C 0.84191 0.13873 0.55173 0.0
C632 C 0.84839 0.16201 0.53528 0.0
C633 C 0.87589 0.15754 0.51918 0.0
C634 C 0.87096 0.15915 0.48723 0.0
C635 C 0.89875 0.1788 0.52869 0.0
C636 C 0.88317 0.12771 0.52835 0.0
C637 C 0.86326 0.11731 0.54715 0.0
C638 C 0.86406 0.08954 0.55695 0.0
C639 C 0.88607 0.07196 0.54756 0.0
C640 C 0.90698 0.08237 0.52877 0.0
C641 C 0.90564 0.11061 0.5192 0.0
H642 H 0.79956 0.84664 0.475 0.0
H643 H 0.83503 0.77526 0.52097 0.0
H644 H 0.88077 0.80028 0.52465 0.0
H645 H 0.86466 0.86714 0.43827 0.0
H646 H 0.85854 0.90462 0.44207 0.0
H647 H 0.82874 0.88066 0.43954 0.0
H648 H 0.80803 0.89875 0.48655 0.0
H649 H 0.83686 0.92374 0.48908 0.0
H650 H 0.83025 0.89923 0.51743 0.0
H651 H 0.92163 0.83374 0.52601 0.0
H652 H 0.95446 0.87455 0.52655 0.0
H653 H 0.89126 0.92562 0.48329 0.0
C654 C 0.81694 0.83616 0.48572 0.0
C655 C 0.81367 0.80879 0.49739 0.0
C656 C 0.83711 0.79585 0.51115 0.0
C657 C 0.86318 0.80997 0.51355 0.0
C658 C 0.86544 0.83708 0.50229 0.0
C659 C 0.84298 0.85011 0.48873 0.0
C660 C 0.85041 0.88015 0.4803 0.0
C661 C 0.85058 0.88332 0.44813 0.0
C662 C 0.83019 0.90173 0.49418 0.0
C663 C 0.88021 0.88223 0.49213 0.0
C664 C 0.88869 0.85695 0.50417 0.0
C665 C 0.91531 0.85364 0.51657 0.0
C666 C 0.93378 0.87691 0.51678 0.0
C667 C 0.92524 0.9032 0.50513 0.0
C668 C 0.89817 0.90581 0.49258 0.0
H669 H 0.16396 0.79635 0.48449 0.0
H670 H 0.23402 0.832 0.53254 0.0
H671 H 0.20757 0.8768 0.53736 0.0
H672 H 0.14293 0.85999 0.44822 0.0
H673 H 0.10535 0.85268 0.45111 0.0
H674 H 0.1305 0.82386 0.44982 0.0
H675 H 0.11022 0.80432 0.49673 0.0
H676 H 0.08506 0.83313 0.498 0.0
H677 H 0.10882 0.82712 0.52714 0.0
H678 H 0.17392 0.91755 0.53711 0.0
H679 H 0.13359 0.95098 0.53432 0.0
H680 H 0.08413 0.88782 0.48926 0.0
C681 C 0.17371 0.81346 0.49619 0.0
C682 C 0.20126 0.81069 0.50784 0.0
C683 C 0.21326 0.83379 0.5228 0.0
C684 C 0.19834 0.85928 0.52583 0.0
C685 C 0.17132 0.86127 0.51406 0.0
C686 C 0.15897 0.83895 0.49975 0.0
C687 C 0.12912 0.84629 0.49017 0.0
C688 C 0.12687 0.84567 0.45791 0.0
C689 C 0.107 0.82654 0.50384 0.0
C690 C 0.12669 0.87621 0.50141 0.0
C691 C 0.15139 0.88451 0.51485 0.0
C692 C 0.15442 0.91133 0.52669 0.0
C693 C 0.13146 0.93017 0.5249 0.0
C694 C 0.10577 0.92191 0.51165 0.0
C695 C 0.10344 0.8946 0.49973 0.0
H696 H 0.4993 0.20338 0.18437 0.0
H697 H 0.56474 0.16381 0.23533 0.0
H698 H 0.57519 0.13032 0.19674 0.0
H699 H 0.47182 0.1419 0.15671 0.0
H700 H 0.46457 0.15566 0.1221 0.0
H701 H 0.46519 0.17924 0.1518 0.0
H702 H 0.50339 0.21018 0.12709 0.0
H703 H 0.50282 0.18665 0.09719 0.0
H704 H 0.53595 0.19399 0.11487 0.0
H705 H 0.5741 0.09779 0.1563 0.0
H706 H 0.56137 0.06741 0.11605 0.0
H707 H 0.49754 0.12841 0.09001 0.0
C708 C 0.51637 0.18816 0.18703 0.0
C709 C 0.53132 0.18612 0.21268 0.0
C710 C 0.55299 0.16552 0.21583 0.0
C711 C 0.55923 0.14665 0.19397 0.0
C712 C 0.54374 0.14887 0.16911 0.0
C713 C 0.52284 0.16916 0.16541 0.0
C714 C 0.50746 0.1652 0.13771 0.0
C715 C 0.47538 0.16019 0.14238 0.0
C716 C 0.51273 0.19051 0.11805 0.0
C717 C 0.52217 0.13876 0.12697 0.0
C718 C 0.54332 0.13001 0.14528 0.0
C719 C 0.55806 0.1047 0.1415 0.0
C720 C 0.55059 0.08757 0.11873 0.0
C721 C 0.5287 0.0959 0.10007 0.0
C722 C 0.51479 0.12208 0.10375 0.0
H723 H 0.83797 0.50299 0.20919 0.0
H724 H 0.77971 0.56252 0.16992 0.0
H725 H 0.81275 0.56754 0.12995 0.0
H726 H 0.90516 0.53994 0.18374 0.0
H727 H 0.92318 0.50643 0.17961 0.0
H728 H 0.89686 0.51084 0.20691 0.0
H729 H 0.86967 0.46725 0.18754 0.0
H730 H 0.89535 0.46317 0.15975 0.0
H731 H 0.85811 0.46713 0.1514 0.0
H732 H 0.84598 0.55787 0.09076 0.0
H733 H 0.88413 0.54321 0.05813 0.0
H734 H 0.9234 0.49377 0.12451 0.0
C735 C 0.8327 0.51804 0.19282 0.0
C736 C 0.80609 0.53203 0.19242 0.0
C737 C 0.79975 0.55113 0.17032 0.0
C738 C 0.81841 0.55424 0.14762 0.0
C739 C 0.84363 0.53877 0.14785 0.0
C740 C 0.85135 0.52183 0.17028 0.0
C741 C 0.87912 0.50651 0.16459 0.0
C742 C 0.90247 0.51654 0.18492 0.0
C743 C 0.8753 0.4741 0.16589 0.0
C744 C 0.88495 0.51639 0.13492 0.0
C745 C 0.86413 0.53486 0.12565 0.0
C746 C 0.86311 0.5444 0.09802 0.0
C747 C 0.8846 0.53564 0.07958 0.0
C748 C 0.90683 0.51777 0.089 0.0
C749 C 0.90692 0.50794 0.11698 0.0
H750 H 0.51053 0.79493 0.16475 0.0
H751 H 0.4553 0.83002 0.22945 0.0
H752 H 0.45098 0.87417 0.20193 0.0
H753 H 0.54735 0.85652 0.14738 0.0
H754 H 0.54841 0.84966 0.11011 0.0
H755 H 0.54661 0.82056 0.13449 0.0
H756 H 0.50107 0.80181 0.10987 0.0
H757 H 0.50295 0.83071 0.08518 0.0
H758 H 0.47096 0.82512 0.10543 0.0
H759 H 0.45563 0.91554 0.16895 0.0
H760 H 0.46577 0.94989 0.13102 0.0
H761 H 0.51449 0.8858 0.08642 0.0
C762 C 0.49686 0.81148 0.17294 0.0
C763 C 0.48325 0.80889 0.19935 0.0
C764 C 0.4663 0.8316 0.20949 0.0
C765 C 0.46354 0.85669 0.19393 0.0
C766 C 0.47746 0.8585 0.16811 0.0
C767 C 0.49342 0.83634 0.1575 0.0
C768 C 0.50637 0.84361 0.12928 0.0
C769 C 0.53912 0.84253 0.13041 0.0
C770 C 0.49463 0.82416 0.10607 0.0
C771 C 0.49571 0.87362 0.12593 0.0
C772 C 0.47917 0.88188 0.1486 0.0
C773 C 0.46823 0.90922 0.15093 0.0
C774 C 0.47427 0.92858 0.12943 0.0
C775 C 0.49082 0.92034 0.10587 0.0
C776 C 0.50148 0.89248 0.10406 0.0
H777 H 0.20161 0.49577 0.18619 0.0
H778 H 0.15691 0.55265 0.24314 0.0
H779 H 0.11887 0.55854 0.2082 0.0
H780 H 0.18161 0.53616 0.12082 0.0
H781 H 0.17881 0.50402 0.10048 0.0
H782 H 0.20397 0.50619 0.12901 0.0
H783 H 0.18153 0.46129 0.15126 0.0
H784 H 0.15603 0.45926 0.12314 0.0
H785 H 0.14393 0.4609 0.15909 0.0
H786 H 0.08248 0.55138 0.17204 0.0
H787 H 0.05247 0.53868 0.13176 0.0
H788 H 0.12263 0.49198 0.09446 0.0
C789 C 0.1843 0.51016 0.19101 0.0
C790 C 0.18199 0.5233 0.21766 0.0
C791 C 0.15875 0.54169 0.22321 0.0
C792 C 0.13716 0.54541 0.20341 0.0
C793 C 0.13956 0.53129 0.17787 0.0
C794 C 0.16284 0.51469 0.17119 0.0
C795 C 0.15957 0.50136 0.14235 0.0
C796 C 0.18234 0.51261 0.12196 0.0
C797 C 0.1603 0.46878 0.14409 0.0
C798 C 0.13021 0.51205 0.13457 0.0
C799 C 0.11913 0.52916 0.15552 0.0
C800 C 0.09123 0.53896 0.15495 0.0
C801 C 0.07433 0.53154 0.13204 0.0
C802 C 0.08549 0.51508 0.10971 0.0
C803 C 0.11385 0.50524 0.11094 0.0
H804 H 0.50605 0.86223 0.7982 0.0
H805 H 0.45498 0.79352 0.83206 0.0
H806 H 0.44845 0.82048 0.87609 0.0
H807 H 0.543 0.878 0.85706 0.0
H808 H 0.54306 0.916 0.85303 0.0
H809 H 0.5402 0.89362 0.82258 0.0
H810 H 0.49317 0.91855 0.80811 0.0
H811 H 0.4963 0.94153 0.83824 0.0
H812 H 0.46433 0.92105 0.83308 0.0
H813 H 0.45404 0.85125 0.91857 0.0
H814 H 0.46642 0.88665 0.95487 0.0
H815 H 0.51202 0.93588 0.89217 0.0
C816 C 0.49251 0.8533 0.81438 0.0
C817 C 0.48114 0.82573 0.81178 0.0
C818 C 0.46418 0.8145 0.83379 0.0
C819 C 0.46023 0.82969 0.85879 0.0
C820 C 0.4729 0.85626 0.86115 0.0
C821 C 0.48812 0.86828 0.8393 0.0
C822 C 0.50106 0.89636 0.84777 0.0
C823 C 0.53375 0.89593 0.84494 0.0
C824 C 0.48792 0.92082 0.8308 0.0
C825 C 0.4919 0.89753 0.87819 0.0
C826 C 0.47552 0.87434 0.88549 0.0
C827 C 0.46635 0.86982 0.913 0.0
C828 C 0.47377 0.88983 0.9335 0.0
C829 C 0.49011 0.91397 0.92625 0.0
C830 C 0.49919 0.91779 0.89824 0.0
H831 H 0.18282 0.49597 0.81588 0.0
H832 H 0.23561 0.43508 0.86014 0.0
H833 H 0.19958 0.43192 0.89772 0.0
H834 H 0.16089 0.53381 0.87265 0.0
H835 H 0.1246 0.53971 0.86179 0.0
H836 H 0.15189 0.53402 0.83581 0.0
H837 H 0.12353 0.49186 0.81489 0.0
H838 H 0.09577 0.49782 0.84047 0.0
H839 H 0.1122 0.46339 0.83759 0.0
H840 H 0.16308 0.4413 0.93327 0.0
H841 H 0.1243 0.4585 0.96385 0.0
H842 H 0.09313 0.51162 0.89603 0.0
C843 C 0.18624 0.48121 0.83297 0.0
C844 C 0.21196 0.46586 0.83529 0.0
C845 C 0.21611 0.44722 0.85823 0.0
C846 C 0.19574 0.44516 0.87954 0.0
C847 C 0.17117 0.4615 0.87728 0.0
C848 C 0.16596 0.47872 0.85435 0.0
C849 C 0.13871 0.49554 0.85823 0.0
C850 C 0.14439 0.52766 0.85706 0.0
C851 C 0.11622 0.48661 0.8365 0.0
C852 C 0.13036 0.48617 0.88752 0.0
C853 C 0.14932 0.46638 0.89794 0.0
C854 C 0.14767 0.4563 0.92533 0.0
C855 C 0.12585 0.46648 0.94256 0.0
C856 C 0.1059 0.4864 0.93222 0.0
C857 C 0.10802 0.49618 0.90428 0.0
H858 H 0.51244 0.22103 0.86602 0.0
H859 H 0.4597 0.18467 0.80032 0.0
H860 H 0.45572 0.14039 0.82767 0.0
H861 H 0.5514 0.16173 0.88152 0.0
H862 H 0.55254 0.16689 0.91905 0.0
H863 H 0.54878 0.19694 0.89609 0.0
H864 H 0.50246 0.21203 0.92186 0.0
H865 H 0.5064 0.18232 0.94535 0.0
H866 H 0.47385 0.18684 0.92581 0.0
H867 H 0.4625 0.09872 0.85892 0.0
H868 H 0.4751 0.06337 0.89496 0.0
H869 H 0.52138 0.12784 0.94144 0.0
C870 C 0.49922 0.20417 0.85779 0.0
C871 C 0.48643 0.20622 0.83103 0.0
C872 C 0.46995 0.18336 0.82066 0.0
C873 C 0.46744 0.15823 0.83607 0.0
C874 C 0.48115 0.15659 0.86194 0.0
C875 C 0.49622 0.17912 0.87302 0.0
C876 C 0.50997 0.17144 0.90072 0.0
C877 C 0.5426 0.17442 0.89923 0.0
C878 C 0.49741 0.18921 0.92486 0.0
C879 C 0.50111 0.14075 0.90297 0.0
C880 C 0.48446 0.13264 0.88041 0.0
C881 C 0.47514 0.10488 0.87692 0.0
C882 C 0.4827 0.08493 0.89732 0.0
C883 C 0.49928 0.09296 0.92087 0.0
C884 C 0.50852 0.12123 0.92372 0.0
H885 H 0.7997 0.49568 0.85257 0.0
H886 H 0.83385 0.55534 0.7916 0.0
H887 H 0.87985 0.55494 0.8166 0.0
H888 H 0.83221 0.52857 0.91231 0.0
H889 H 0.83816 0.49545 0.93027 0.0
H890 H 0.80873 0.49895 0.90631 0.0
H891 H 0.82717 0.45545 0.87831 0.0
H892 H 0.85686 0.45209 0.902 0.0
H893 H 0.86307 0.45554 0.86476 0.0
H894 H 0.92212 0.54801 0.84835 0.0
H895 H 0.95607 0.5384 0.88687 0.0
H896 H 0.89246 0.48669 0.92882 0.0
C897 C 0.81661 0.50902 0.84455 0.0
C898 C 0.81304 0.52549 0.81999 0.0
C899 C 0.83613 0.54212 0.81006 0.0
C900 C 0.86232 0.54215 0.82418 0.0
C901 C 0.86496 0.52569 0.84833 0.0
C902 C 0.84262 0.50972 0.85862 0.0
C903 C 0.85041 0.49503 0.88578 0.0
C904 C 0.83124 0.50512 0.9101 0.0
C905 C 0.84931 0.46261 0.88249 0.0
C906 C 0.88065 0.50536 0.88925 0.0
C907 C 0.88882 0.52266 0.86722 0.0
C908 C 0.91595 0.53452 0.86572 0.0
C909 C 0.9351 0.52884 0.88758 0.0
C910 C 0.92675 0.51185 0.91071 0.0
C911 C 0.89926 0.49987 0.91142 0.0
H912 H 0.70908 0.67804 0.01661 0.0
H913 H 0.67151 0.72524 0.94778 0.0
H914 H 0.63789 0.68594 0.93925 0.0
H915 H 0.6982 0.60461 0.98515 0.0
H916 H 0.69015 0.59 0.01926 0.0
H917 H 0.71501 0.61897 0.01609 0.0
H918 H 0.68501 0.64803 0.0517 0.0
H919 H 0.6599 0.61945 0.05465 0.0
H920 H 0.6478 0.65429 0.04463 0.0
H921 H 0.60403 0.64666 0.94341 0.0
H922 H 0.57147 0.60901 0.95954 0.0
H923 H 0.63122 0.5859 0.02507 0.0
C924 C 0.69452 0.67955 0.99904 0.0
C925 C 0.69289 0.70445 0.98268 0.0
C926 C 0.67297 0.70625 0.96048 0.0
C927 C 0.65402 0.68398 0.95537 0.0
C928 C 0.65553 0.66007 0.97248 0.0
C929 C 0.67545 0.65751 0.99369 0.0
C930 C 0.67029 0.63119 0.01121 0.0
C931 C 0.69488 0.60993 0.00771 0.0
C932 C 0.66545 0.63871 0.04237 0.0
C933 C 0.64333 0.62032 0.9976 0.0
C934 C 0.63557 0.63702 0.97496 0.0
C935 C 0.61002 0.63313 0.96076 0.0
C936 C 0.59162 0.61193 0.97022 0.0
C937 C 0.59901 0.59484 0.99353 0.0
C938 C 0.62544 0.59856 0.00696 0.0
H939 H 0.29406 0.65846 0.00808 0.0
H940 H 0.33019 0.71862 0.06742 0.0
H941 H 0.37442 0.69061 0.06883 0.0
H942 H 0.32441 0.59569 0.04177 0.0
H943 H 0.33016 0.57765 0.00883 0.0
H944 H 0.30121 0.60251 0.01237 0.0
H945 H 0.3204 0.63065 0.96954 0.0
H946 H 0.34952 0.60602 0.966 0.0
H947 H 0.35661 0.64338 0.96984 0.0
H948 H 0.41527 0.65829 0.06176 0.0
H949 H 0.44966 0.62083 0.04965 0.0
H950 H 0.38587 0.57899 0.99835 0.0
C951 C 0.31103 0.66553 0.02178 0.0
C952 C 0.30871 0.69094 0.03743 0.0
C953 C 0.33167 0.6996 0.05473 0.0
C954 C 0.3568 0.68373 0.05587 0.0
C955 C 0.35841 0.65903 0.03997 0.0
C956 C 0.33606 0.64969 0.02358 0.0
C957 C 0.34333 0.62219 0.00877 0.0
C958 C 0.32361 0.59808 0.01853 0.0
C959 C 0.34241 0.62579 0.97664 0.0
C960 C 0.37348 0.61782 0.01908 0.0
C961 C 0.38173 0.63948 0.0369 0.0
C962 C 0.409 0.64104 0.04809 0.0
C963 C 0.42839 0.61978 0.04096 0.0
C964 C 0.42028 0.59711 0.02316 0.0
C965 C 0.39243 0.596 0.01222 0.0
H966 H 0.29407 0.35449 1.00517 0.0
H967 H 0.33349 0.28546 0.05138 0.0
H968 H 0.37729 0.31392 0.05648 0.0
H969 H 0.355 0.376 0.96735 0.0
H970 H 0.34745 0.41341 0.96946 0.0
H971 H 0.3187 0.38819 0.97034 0.0
H972 H 0.30107 0.4093 0.01764 0.0
H973 H 0.32971 0.43472 0.01677 0.0
H974 H 0.3254 0.41185 0.04683 0.0
H975 H 0.41708 0.34836 0.05457 0.0
H976 H 0.45082 0.38745 0.04682 0.0
H977 H 0.38518 0.43514 1.0032 0.0
C978 C 0.31173 0.34554 0.01681 0.0
C979 C 0.31041 0.31776 0.02791 0.0
C980 C 0.33418 0.30658 0.04247 0.0
C981 C 0.35903 0.32263 0.04562 0.0
C982 C 0.35964 0.34983 0.03427 0.0
C983 C 0.33662 0.36131 0.0203 0.0
C984 C 0.34313 0.39084 0.00952 0.0
C985 C 0.34094 0.39217 0.97726 0.0
C986 C 0.32367 0.41298 0.02354 0.0
C987 C 0.37363 0.39394 0.01924 0.0
C988 C 0.38264 0.37002 0.0335 0.0
C989 C 0.41026 0.36728 0.04361 0.0
C990 C 0.42929 0.38954 0.03891 0.0
C991 C 0.42059 0.41426 0.02431 0.0
C992 C 0.3923 0.41659 0.01462 0.0
H993 H 0.70438 0.33177 0.98756 0.0
H994 H 0.67363 0.28084 0.05727 0.0
H995 H 0.64063 0.31924 0.07073 0.0
H996 H 0.69833 0.40197 0.02415 0.0
H997 H 0.68702 0.4195 0.99241 0.0
H998 H 0.71093 0.38963 0.99047 0.0
H999 H 0.676 0.36419 0.95669 0.0
H1000 H 0.65198 0.39383 0.95864 0.0
H1001 H 0.63956 0.35878 0.96749 0.0
H1002 H 0.60709 0.35932 0.07276 0.0
H1003 H 0.57522 0.3999 0.06382 0.0
H1004 H 0.62853 0.42635 0.99421 0.0
C1005 C 0.69126 0.32906 0.00613 0.0
C1006 C 0.69146 0.30339 0.02139 0.0
C1007 C 0.67354 0.30028 0.04515 0.0
C1008 C 0.65497 0.32204 0.05311 0.0
C1009 C 0.65487 0.34685 0.03728 0.0
C1010 C 0.67268 0.35064 0.01443 0.0
C1011 C 0.66662 0.37843 0.99965 0.0
C1012 C 0.69225 0.39858 1.00181 0.0
C1013 C 0.65802 0.37349 0.9688 0.0
C1014 C 0.64178 0.38904 0.01703 0.0
C1015 C 0.63563 0.37059 0.03884 0.0
C1016 C 0.61202 0.37424 0.05618 0.0
C1017 C 0.59397 0.39714 0.05085 0.0
C1018 C 0.5997 0.41604 0.02851 0.0
C1019 C 0.62419 0.41239 0.01177 0.0
H1020 H 0.01424 0.7114 0.68504 0.0
H1021 H 0.08001 0.67138 0.73525 0.0
H1022 H 0.08682 0.63532 0.69828 0.0
H1023 H 0.98164 0.65286 0.66364 0.0
H1024 H 0.97367 0.66341 0.62809 0.0
H1025 H 0.97813 0.68989 0.65487 0.0
H1026 H 0.01779 0.71435 0.62575 0.0
H1027 H 0.01297 0.68831 0.59839 0.0
H1028 H 0.04774 0.69383 0.61344 0.0
H1029 H 0.07886 0.59862 0.66227 0.0
H1030 H 0.06097 0.56613 0.62569 0.0
H1031 H 0.00225 0.63086 0.59684 0.0
C1032 C 0.03104 0.69588 0.68763 0.0
C1033 C 0.04658 0.69408 0.71296 0.0
C1034 C 0.06776 0.67295 0.71603 0.0
C1035 C 0.07188 0.65251 0.6951 0.0
C1036 C 0.05505 0.65391 0.67105 0.0
C1037 C 0.03555 0.67546 0.66682 0.0
C1038 C 0.0181 0.6704 0.64051 0.0
C1039 C 0.986 0.66905 0.64721 0.0
C1040 C 0.02455 0.69307 0.6182 0.0
C1041 C 0.02953 0.64176 0.63171 0.0
C1042 C 0.05105 0.6328 0.64948 0.0
C1043 C 0.06265 0.6057 0.64772 0.0
C1044 C 0.05211 0.58731 0.62718 0.0
C1045 C 0.03033 0.59621 0.60864 0.0
C1046 C 0.01923 0.62387 0.6106 0.0
H1047 H 0.33551 0.01712 0.70854 0.0
H1048 H 0.28466 0.95026 0.67118 0.0
H1049 H 0.3236 0.93987 0.63776 0.0
H1050 H 0.36217 0.04376 0.64665 0.0
H1051 H 0.39728 0.05199 0.65959 0.0
H1052 H 0.36754 0.05125 0.68344 0.0
H1053 H 0.39377 0.01443 0.71451 0.0
H1054 H 0.42372 0.01514 0.69072 0.0
H1055 H 0.40659 0.98196 0.69895 0.0
H1056 H 0.36406 0.941 0.6051 0.0
H1057 H 0.40426 0.95367 0.57421 0.0
H1058 H 0.43014 0.01919 0.63284 0.0
C1059 C 0.333 0.99979 0.6938 0.0
C1060 C 0.3073 0.98437 0.69233 0.0
C1061 C 0.30425 0.96233 0.67241 0.0
C1062 C 0.32629 0.95613 0.65359 0.0
C1063 C 0.3512 0.97208 0.6552 0.0
C1064 C 0.35479 0.99339 0.67483 0.0
C1065 C 0.38247 0.0092 0.67017 0.0
C1066 C 0.37702 0.04091 0.66462 0.0
C1067 C 0.40284 0.00491 0.69507 0.0
C1068 C 0.39326 0.99424 0.64411 0.0
C1069 C 0.37504 0.97261 0.63616 0.0
C1070 C 0.37881 0.95745 0.61136 0.0
C1071 C 0.40151 0.96491 0.59392 0.0
C1072 C 0.42008 0.98727 0.60143 0.0
C1073 C 0.41643 1.00166 0.6271 0.0
H1074 H 0.00271 0.28907 0.65575 0.0
H1075 H 0.961 0.32687 0.72826 0.0
H1076 H 0.95481 0.37135 0.70186 0.0
H1077 H 0.04138 0.3449 0.63529 0.0
H1078 H 0.03696 0.34106 0.59785 0.0
H1079 H 0.03405 0.31055 0.62027 0.0
H1080 H 0.98354 0.29991 0.60096 0.0
H1081 H 0.98652 0.33008 0.57788 0.0
H1082 H 0.95672 0.32729 0.60164 0.0
H1083 H 0.96191 0.41356 0.67168 0.0
H1084 H 0.97523 0.44955 0.63658 0.0
H1085 H 0.00816 0.38343 0.58188 0.0
C1086 C 0.99118 0.30624 0.66574 0.0
C1087 C 0.98268 0.30459 0.69421 0.0
C1088 C 0.96826 0.32784 0.70666 0.0
C1089 C 0.9644 0.35311 0.69177 0.0
C1090 C 0.97432 0.35446 0.66422 0.0
C1091 C 0.98663 0.33141 0.65099 0.0
C1092 C 0.99706 0.33903 0.62182 0.0
C1093 C 0.02927 0.33357 0.61866 0.0
C1094 C 0.97993 0.32314 0.59925 0.0
C1095 C 0.99035 0.37037 0.62151 0.0
C1096 C 0.97704 0.37878 0.64608 0.0
C1097 C 0.97148 0.40715 0.65195 0.0
C1098 C 0.97934 0.42745 0.63198 0.0
C1099 C 0.99233 0.41922 0.60634 0.0
C1100 C 0.99774 0.39028 0.60106 0.0
H1101 H 0.66006 0.00703 0.72448 0.0
H1102 H 0.71918 0.94549 0.6892 0.0
H1103 H 0.69264 0.94623 0.64469 0.0
H1104 H 0.59689 0.97574 0.69155 0.0
H1105 H 0.58005 0.00969 0.68638 0.0
H1106 H 0.60389 0.00448 0.71558 0.0
H1107 H 0.63405 0.04736 0.69879 0.0
H1108 H 0.61049 0.0524 0.66938 0.0
H1109 H 0.64813 0.04758 0.6635 0.0
H1110 H 0.66215 0.95571 0.60348 0.0
H1111 H 0.62538 0.96909 0.56901 0.0
H1112 H 0.58334 0.02097 0.63213 0.0
C1113 C 0.66717 0.99331 0.70763 0.0
C1114 C 0.692 0.97656 0.71023 0.0
C1115 C 0.70068 0.95912 0.68747 0.0
C1116 C 0.68566 0.95921 0.66217 0.0
C1117 C 0.66168 0.97637 0.66017 0.0
C1118 C 0.65209 0.99266 0.68239 0.0
C1119 C 0.62523 0.00866 0.67479 0.0
C1120 C 0.60003 0.99905 0.69316 0.0
C1121 C 0.62977 0.04091 0.67673 0.0
C1122 C 0.62163 0.99917 0.64464 0.0
C1123 C 0.64307 0.98074 0.63663 0.0
C1124 C 0.64506 0.9699 0.60951 0.0
C1125 C 0.62427 0.9778 0.59007 0.0
C1126 C 0.60172 0.99605 0.59807 0.0
C1127 C 0.60035 0.00685 0.62566 0.0
H1128 H 0.99047 0.36333 0.30347 0.0
H1129 H 0.05172 0.30095 0.33263 0.0
H1130 H 0.05931 0.32897 0.37577 0.0
H1131 H 0.02779 0.42641 0.33214 0.0
H1132 H 0.9947 0.44358 0.34124 0.0
H1133 H 0.99624 0.41987 0.31156 0.0
H1134 H 0.95482 0.39101 0.33306 0.0
H1135 H 0.95376 0.41359 0.36355 0.0
H1136 H 0.95865 0.37598 0.36771 0.0
H1137 H 0.05609 0.36029 0.41759 0.0
H1138 H 0.04585 0.39612 0.45408 0.0
H1139 H 0.98881 0.43968 0.39682 0.0
C1140 C 0.00609 0.356 0.31855 0.0
C1141 C 0.02041 0.32995 0.31484 0.0
C1142 C 0.04025 0.32071 0.3353 0.0
C1143 C 0.04482 0.33651 0.35975 0.0
C1144 C 0.02968 0.36165 0.36317 0.0
C1145 C 0.01108 0.37163 0.34297 0.0
C1146 C 0.99649 0.39861 0.35248 0.0
C1147 C 0.00429 0.4236 0.33321 0.0
C1148 C 0.96401 0.39453 0.35429 0.0
C1149 C 0.00949 0.40194 0.38135 0.0
C1150 C 0.02846 0.38029 0.38713 0.0
C1151 C 0.04166 0.37763 0.41318 0.0
C1152 C 0.03552 0.39787 0.4338 0.0
C1153 C 0.01665 0.42054 0.42805 0.0
C1154 C 0.00359 0.42268 0.40149 0.0
H1155 H 0.72112 0.99502 0.36281 0.0
H1156 H 0.68552 0.04302 0.29335 0.0
H1157 H 0.6425 0.05288 0.32178 0.0
H1158 H 0.65942 0.9622 0.38387 0.0
H1159 H 0.66645 0.96403 0.42107 0.0
H1160 H 0.69559 0.96335 0.39651 0.0
H1161 H 0.7153 0.01018 0.41739 0.0
H1162 H 0.68633 0.01083 0.4423 0.0
H1163 H 0.69245 0.04084 0.41963 0.0
H1164 H 0.60168 0.05269 0.35558 0.0
H1165 H 0.56666 0.04485 0.39356 0.0
H1166 H 0.63036 0.99876 0.44135 0.0
C1167 C 0.70473 0.00839 0.35384 0.0
C1168 C 0.70665 0.01836 0.32594 0.0
C1169 C 0.68432 0.03502 0.31465 0.0
C1170 C 0.65995 0.04087 0.33067 0.0
C1171 C 0.65855 0.03019 0.35793 0.0
C1172 C 0.6805 0.01461 0.36955 0.0
C1173 C 0.67314 1.00413 0.39867 0.0
C1174 C 0.67367 0.9715 0.40008 0.0
C1175 C 0.69298 0.0173 0.4208 0.0
C1176 C 0.64322 0.01552 0.4013 0.0
C1177 C 0.63522 0.03058 0.37765 0.0
C1178 C 0.60782 0.04136 0.3744 0.0
C1179 C 0.58807 0.0366 0.39594 0.0
C1180 C 0.59597 0.02129 0.42032 0.0
C1181 C 0.62395 0.01092 0.42311 0.0
H1182 H 0.00439 0.6777 0.31726 0.0
H1183 H 0.07039 0.72975 0.35481 0.0
H1184 H 0.07731 0.69393 0.39187 0.0
H1185 H 0.97277 0.65614 0.3788 0.0
H1186 H 0.96517 0.62025 0.36817 0.0
H1187 H 0.96796 0.64774 0.34213 0.0
H1188 H 0.007 0.61917 0.31589 0.0
H1189 H 0.00408 0.59136 0.34173 0.0
H1190 H 0.03817 0.60749 0.33473 0.0
H1191 H 0.07242 0.6571 0.42787 0.0
H1192 H 0.05809 0.61879 0.46008 0.0
H1193 H 0.99673 0.58863 0.39884 0.0
C1194 C 0.02087 0.68107 0.33282 0.0
C1195 C 0.03682 0.70643 0.33335 0.0
C1196 C 0.05779 0.71052 0.35431 0.0
C1197 C 0.06201 0.69025 0.37527 0.0
C1198 C 0.04535 0.66588 0.37471 0.0
C1199 C 0.02546 0.66093 0.35389 0.0
C1200 C 0.00894 0.6339 0.3595 0.0
C1201 C 0.97682 0.63989 0.36232 0.0
C1202 C 0.01492 0.61166 0.3366 0.0
C1203 C 0.02184 0.62521 0.38734 0.0
C1204 C 0.04296 0.6439 0.39552 0.0
C1205 C 0.05635 0.64196 0.4215 0.0
C1206 C 0.04788 0.62036 0.43972 0.0
C1207 C 0.02637 0.60097 0.43176 0.0
C1208 C 0.0135 0.60307 0.4051 0.0
H1209 H 0.33694 0.02618 0.31506 0.0
H1210 H 0.28268 0.96068 0.3504 0.0
H1211 H 0.31968 0.94951 0.3853 0.0
H1212 H 0.40655 0.987 0.32775 0.0
H1213 H 0.42482 0.01963 0.33573 0.0
H1214 H 0.39603 0.01947 0.31067 0.0
H1215 H 0.37044 0.05858 0.33947 0.0
H1216 H 0.39885 0.05855 0.36476 0.0
H1217 H 0.36269 0.0525 0.37612 0.0
H1218 H 0.35661 0.95227 0.42124 0.0
H1219 H 0.3954 0.96447 0.45374 0.0
H1220 H 0.42925 0.02443 0.39336 0.0
C1221 C 0.3333 0.0088 0.32948 0.0
C1222 C 0.30689 0.99443 0.33024 0.0
C1223 C 0.30262 0.97223 0.34979 0.0
C1224 C 0.32357 0.96556 0.3695 0.0
C1225 C 0.34888 0.98088 0.36893 0.0
C1226 C 0.35421 1.0016 0.3491 0.0
C1227 C 0.3824 0.01626 0.35459 0.0
C1228 C 0.40372 0.01022 0.33077 0.0
C1229 C 0.37832 0.04836 0.35901 0.0
C1230 C 0.39118 1.00164 0.38153 0.0
C1231 C 0.37152 0.98121 0.38925 0.0
C1232 C 0.37274 0.96739 0.41501 0.0
C1233 C 0.39473 0.97452 0.43335 0.0
C1234 C 0.41551 0.99477 0.42565 0.0
C1235 C 0.41397 0.00829 0.39929 0.0
H1236 H 0.03707 0.20877 0.35216 0.0
H1237 H 0.97442 0.18136 0.29112 0.0
H1238 H 0.96025 0.14205 0.32302 0.0
H1239 H 0.05917 0.14092 0.37562 0.0
H1240 H 0.06286 0.15112 0.41194 0.0
H1241 H 0.06744 0.17712 0.38463 0.0
H1242 H 0.02859 0.20862 0.40756 0.0
H1243 H 0.02398 0.18269 0.43501 0.0
H1244 H 0.99381 0.19393 0.41441 0.0
H1245 H 0.95628 0.10319 0.3604 0.0
H1246 H 0.96032 0.07035 0.40077 0.0
H1247 H 0.02248 0.12589 0.43926 0.0
C1248 C 0.02023 0.19456 0.34557 0.0
C1249 C 0.00689 0.19799 0.3191 0.0
C1250 C 0.98486 0.17913 0.31128 0.0
C1251 C 0.97674 0.15677 0.32929 0.0
C1252 C 0.99049 0.15392 0.35524 0.0
C1253 C 0.01153 0.17259 0.36349 0.0
C1254 C 0.02299 0.16511 0.39241 0.0
C1255 C 0.05501 0.15815 0.39105 0.0
C1256 C 0.01697 0.18901 0.4136 0.0
C1257 C 0.00553 0.13892 0.39908 0.0
C1258 C 0.98704 0.13267 0.37728 0.0
C1259 C 0.97029 0.10825 0.37773 0.0
C1260 C 0.97272 0.08972 0.40076 0.0
C1261 C 0.99136 0.09581 0.4234 0.0
C1262 C 0.0076 0.12101 0.42265 0.0
H1263 H 0.79044 0.97982 0.35937 0.0
H1264 H 0.83485 0.00587 0.28353 0.0
H1265 H 0.88003 0.00755 0.31028 0.0
H1266 H 0.82614 0.02684 0.40451 0.0
H1267 H 0.827 1.00311 0.43419 0.0
H1268 H 0.79894 1.00018 0.40859 0.0
H1269 H 0.81171 0.9473 0.39995 0.0
H1270 H 0.83906 0.95027 0.42628 0.0
H1271 H 0.84796 0.93785 0.39148 0.0
H1272 H 0.91906 0.01063 0.34598 0.0
H1273 H 0.95036 0.01268 0.38699 0.0
H1274 H 0.88026 0.98647 0.44093 0.0
C1275 C 0.80969 0.98567 0.34822 0.0
C1276 C 0.80901 0.99289 0.31924 0.0
C1277 C 0.83481 0.99998 0.30553 0.0
C1278 C 0.86052 1.00118 0.32065 0.0
C1279 C 0.86006 0.99516 0.34942 0.0
C1280 C 0.83535 0.98732 0.36303 0.0
C1281 C 0.84021 0.98364 0.39441 0.0
C1282 C 0.82199 0.0047 0.41142 0.0
C1283 C 0.8344 0.95292 0.40354 0.0
C1284 C 0.87162 0.99079 0.39644 0.0
C1285 C 0.88256 0.99728 0.37018 0.0
C1286 C 0.91078 0.00528 0.36656 0.0
C1287 C 0.92842 0.00638 0.39021 0.0
C1288 C 0.91798 0.99955 0.41749 0.0
C1289 C 0.88902 0.99179 0.42053 0.0
H1290 H 0.05407 0.80186 0.3493 0.0
H1291 H 0.98707 0.82444 0.29059 0.0
H1292 H 0.97903 0.86902 0.31704 0.0
H1293 H 0.01668 0.82245 0.40971 0.0
H1294 H 0.04761 0.83498 0.42839 0.0
H1295 H 0.05127 0.8075 0.40238 0.0
H1296 H 0.0888 0.83761 0.37598 0.0
H1297 H 0.08526 0.86532 0.40185 0.0
H1298 H 0.07999 0.87318 0.36516 0.0
H1299 H 0.9763 0.90976 0.35224 0.0
H1300 H 0.97833 0.94239 0.39286 0.0
H1301 H 0.04321 0.88982 0.43142 0.0
C1302 C 0.03771 0.81612 0.34177 0.0
C1303 C 0.02101 0.8093 0.31781 0.0
C1304 C 1.00037 0.82913 0.30857 0.0
C1305 C 0.99552 0.85444 0.32365 0.0
C1306 C 0.01138 0.85959 0.34799 0.0
C1307 C 0.03211 0.84093 0.35693 0.0
C1308 C 0.04472 0.85003 0.38491 0.0
C1309 C 0.03976 0.8274 0.40768 0.0
C1310 C 0.07658 0.85695 0.38178 0.0
C1311 C 0.02747 0.87654 0.39074 0.0
C1312 C 0.00877 0.88202 0.36891 0.0
C1313 C 0.99088 0.9056 0.36935 0.0
C1314 C 0.99219 0.92401 0.39253 0.0
C1315 C 0.01081 0.91854 0.41536 0.0
C1316 C 0.02856 0.89437 0.41443 0.0
H1317 H 0.20992 0.98012 0.34854 0.0
H1318 H 0.18988 0.05513 0.29944 0.0
H1319 H 0.14637 0.06217 0.32805 0.0
H1320 H 0.13764 0.95636 0.36315 0.0
H1321 H 0.1462 0.94596 0.39861 0.0
H1322 H 0.17317 0.94466 0.37164 0.0
H1323 H 0.20567 0.97676 0.40201 0.0
H1324 H 0.17868 0.97847 0.4289 0.0
H1325 H 0.19256 0.01069 0.41382 0.0
H1326 H 0.10601 0.0621 0.364 0.0
H1327 H 0.07282 0.05524 0.40394 0.0
H1328 H 0.12314 0.98396 0.43284 0.0
C1329 C 0.19648 0.99809 0.3436 0.0
C1330 C 0.20368 0.0172 0.32167 0.0
C1331 C 0.18486 0.03994 0.31576 0.0
C1332 C 0.16018 0.04426 0.33212 0.0
C1333 C 0.15468 0.02579 0.35444 0.0
C1334 C 0.17235 1.00314 0.36014 0.0
C1335 C 0.16305 0.9875 0.38646 0.0
C1336 C 0.1545 0.95681 0.37954 0.0
C1337 C 0.18638 0.98842 0.40913 0.0
C1338 C 0.13743 0.00503 0.39498 0.0
C1339 C 0.13266 0.02676 0.37599 0.0
C1340 C 0.10969 0.04525 0.379 0.0
C1341 C 0.09102 0.04125 0.40176 0.0
C1342 C 0.09575 0.01936 0.42159 0.0
C1343 C 0.11941 1.0012 0.41826 0.0
H1344 H 0.04754 0.85417 0.72139 0.0
H1345 H 0.98591 0.78936 0.69985 0.0
H1346 H 0.97518 0.81463 0.65542 0.0
H1347 H 0.00576 0.91367 0.6939 0.0
H1348 H 0.03684 0.9326 0.6819 0.0
H1349 H 0.03929 0.90936 0.71184 0.0
H1350 H 0.08027 0.88194 0.68735 0.0
H1351 H 0.07766 0.90494 0.65725 0.0
H1352 H 0.07457 0.8671 0.65287 0.0
H1353 H 0.97446 0.84528 0.61122 0.0
H1354 H 0.97854 0.88216 0.57431 0.0
H1355 H 0.03727 0.9292 0.62681 0.0
C1356 C 0.03153 0.84554 0.70743 0.0
C1357 C 0.01747 0.81989 0.71403 0.0
C1358 C 0.99668 0.80914 0.69533 0.0
C1359 C 0.99063 0.82326 0.66996 0.0
C1360 C 0.00515 0.84837 0.66388 0.0
C1361 C 0.02473 0.85973 0.6824 0.0
C1362 C 0.03685 0.88739 0.67132 0.0
C1363 C 0.02922 0.91222 0.6909 0.0
C1364 C 0.06926 0.88519 0.66694 0.0
C1365 C 0.02135 0.88966 0.64347 0.0
C1366 C 0.00349 0.86674 0.63934 0.0
C1367 C 0.98809 0.86349 0.61446 0.0
C1368 C 0.99067 0.88441 0.59353 0.0
C1369 C 0.00806 0.90853 0.59781 0.0
C1370 C 0.02357 0.9111 0.62313 0.0
H1371 H 0.22031 0.02837 0.66512 0.0
H1372 H 0.1808 0.98582 0.73608 0.0
H1373 H 0.13541 0.98375 0.70988 0.0
H1374 H 0.15732 0.0685 0.64131 0.0
H1375 H 0.16585 0.06341 0.60469 0.0
H1376 H 0.19396 0.065 0.63041 0.0
H1377 H 0.21258 0.01623 0.61334 0.0
H1378 H 0.18434 0.01431 0.58784 0.0
H1379 H 0.18882 0.9862 0.61312 0.0
H1380 H 0.09594 0.98196 0.67442 0.0
H1381 H 0.06401 0.9829 0.63369 0.0
H1382 H 0.12949 0.02481 0.58417 0.0
C1383 C 0.20206 0.01888 0.67537 0.0
C1384 C 0.20429 0.00717 0.70281 0.0
C1385 C 0.17968 0.99529 0.71538 0.0
C1386 C 0.15384 0.9938 0.70051 0.0
C1387 C 0.15286 1.00436 0.67309 0.0
C1388 C 0.17624 0.01693 0.66072 0.0
C1389 C 0.17007 0.02512 0.63039 0.0
C1390 C 0.1719 0.05743 0.62648 0.0
C1391 C 0.19015 0.00953 0.60998 0.0
C1392 C 0.13964 0.01472 0.62742 0.0
C1393 C 0.13015 1.00301 0.65242 0.0
C1394 C 0.10306 0.99139 0.65489 0.0
C1395 C 0.08504 0.99207 0.63146 0.0
C1396 C 0.094 1.00417 0.60554 0.0
C1397 C 0.12189 0.01545 0.60356 0.0
H1398 H 0.01863 0.21844 0.66105 0.0
H1399 H 0.99332 0.17691 0.73857 0.0
H1400 H 0.99165 0.13094 0.71336 0.0
H1401 H 0.97212 0.18042 0.61651 0.0
H1402 H 0.99662 0.17884 0.58733 0.0
H1403 H 0.99856 0.20776 0.61198 0.0
H1404 H 0.05164 0.19623 0.62153 0.0
H1405 H 0.04994 0.16739 0.59674 0.0
H1406 H 0.06156 0.16093 0.63226 0.0
H1407 H 0.99 0.08991 0.67861 0.0
H1408 H 0.98971 0.05716 0.63827 0.0
H1409 H 0.01399 0.12622 0.58284 0.0
C1410 C 0.01275 0.19972 0.67288 0.0
C1411 C 0.0059 0.20147 0.70192 0.0
C1412 C 0.99891 0.17622 0.71649 0.0
C1413 C 0.99771 0.15003 0.70225 0.0
C1414 C 0.00364 0.14937 0.67343 0.0
C1415 C 0.01119 0.17358 0.65898 0.0
C1416 C 0.01552 0.16753 0.62789 0.0
C1417 C 0.99445 0.18465 0.60988 0.0
C1418 C 0.04651 0.17336 0.6191 0.0
C1419 C 0.00885 0.1361 0.62691 0.0
C1420 C 0.00227 0.12599 0.65344 0.0
C1421 C 0.99527 0.09765 0.65783 0.0
C1422 C 0.99518 0.07916 0.63465 0.0
C1423 C 0.00187 0.08896 0.60718 0.0
C1424 C 0.00865 0.11796 0.60342 0.0
H1425 H 0.81324 0.93785 0.68116 0.0
H1426 H 0.83342 0.00672 0.73812 0.0
H1427 H 0.869 0.0248 0.70391 0.0
H1428 H 0.88382 0.92533 0.65559 0.0
H1429 H 0.87279 0.91805 0.62004 0.0
H1430 H 0.84891 0.91095 0.64884 0.0
H1431 H 0.81054 0.94271 0.62564 0.0
H1432 H 0.8344 0.95002 0.59682 0.0
H1433 H 0.81914 0.97885 0.61669 0.0
H1434 H 0.90402 0.0338 0.66431 0.0
H1435 H 0.93523 0.03376 0.62248 0.0
H1436 H 0.89068 0.9604 0.58968 0.0
C1437 C 0.82519 0.95675 0.68643 0.0
C1438 C 0.82069 0.97083 0.71239 0.0
C1439 C 0.83654 0.99558 0.71844 0.0
C1440 C 0.85675 0.00599 0.69908 0.0
C1441 C 0.86059 0.99161 0.67363 0.0
C1442 C 0.84513 0.96758 0.66721 0.0
C1443 C 0.85331 0.95601 0.63845 0.0
C1444 C 0.86543 0.9258 0.64089 0.0
C1445 C 0.82783 0.95696 0.61821 0.0
C1446 C 0.87618 0.977 0.62975 0.0
C1447 C 0.88004 0.99734 0.65041 0.0
C1448 C 0.90092 0.01816 0.64794 0.0
C1449 C 0.91856 0.01795 0.62409 0.0
C1450 C 0.91518 0.99728 0.60268 0.0
C1451 C 0.89336 0.9768 0.60539 0.0
H1452 H 0.35198 0.05642 0.22099 0.0
H1453 H 0.27827 0.01379 0.18598 0.0
H1454 H 0.30674 1.00044 0.1441 0.0
H1455 H 0.37987 0.0842 0.15606 0.0
H1456 H 0.41659 0.07853 0.16557 0.0
H1457 H 0.39035 0.08487 0.19251 0.0
H1458 H 0.40484 0.03802 0.21707 0.0
H1459 H 0.43103 0.03147 0.1901 0.0
H1460 H 0.40408 0.00529 0.19747 0.0
H1461 H 0.34293 0.99245 0.10601 0.0
H1462 H 0.384 0.99011 0.07392 0.0
H1463 H 0.43529 0.03677 0.1341 0.0
C1464 C 0.34182 0.04439 0.2044 0.0
C1465 C 0.31289 0.03623 0.20659 0.0
C1466 C 0.30035 0.0203 0.18467 0.0
C1467 C 0.31639 0.01261 0.16086 0.0
C1468 C 0.34494 0.02084 0.15946 0.0
C1469 C 0.35758 0.03634 0.18066 0.0
C1470 C 0.3887 0.04231 0.17408 0.0
C1471 C 0.39419 0.07438 0.17192 0.0
C1472 C 0.40832 0.02844 0.19598 0.0
C1473 C 0.39157 0.02797 0.14567 0.0
C1474 C 0.36602 0.01575 0.1377 0.0
C1475 C 0.36301 1.00189 0.11207 0.0
C1476 C 0.38653 1.00077 0.09394 0.0
C1477 C 0.41294 0.01332 0.10142 0.0
C1478 C 0.41552 0.02677 0.12787 0.0
H1479 H 0.98046 0.35834 0.22806 0.0
H1480 H 0.01563 0.28249 0.18943 0.0
H1481 H 0.01651 0.30707 0.14358 0.0
H1482 H 0.93807 0.38301 0.16824 0.0
H1483 H 0.94638 0.41976 0.17456 0.0
H1484 H 0.9451 0.39514 0.20349 0.0
H1485 H 0.99647 0.40928 0.21744 0.0
H1486 H 0.998 0.43377 0.18846 0.0
H1487 H 0.02467 0.40647 0.19181 0.0
H1488 H 0.01699 0.34101 0.10267 0.0
H1489 H 0.01649 0.38084 0.06954 0.0
H1490 H 0.98397 0.43631 0.13515 0.0
C1491 C 0.9883 0.34669 0.21003 0.0
C1492 C 0.99812 0.31825 0.21268 0.0
C1493 C 0.00761 0.30397 0.18817 0.0
C1494 C 0.00841 0.31791 0.162 0.0
C1495 C 0.99967 0.3462 0.16052 0.0
C1496 C 0.98967 0.36041 0.18388 0.0
C1497 C 0.98315 0.39127 0.17704 0.0
C1498 C 0.95128 0.39766 0.18107 0.0
C1499 C 0.00168 0.41138 0.19474 0.0
C1500 C 0.99146 0.39238 0.14619 0.0
C1501 C 1.00063 0.36603 0.13709 0.0
C1502 C 0.00968 0.36164 0.10958 0.0
C1503 C 0.00928 0.38459 0.09085 0.0
C1504 C 1.00011 0.41199 0.0995 0.0
C1505 C 0.99115 0.4158 0.12773 0.0
H1506 H 0.6615 0.95483 0.21786 0.0
H1507 H 0.73472 0.99945 0.18417 0.0
H1508 H 0.70574 0.015 0.14349 0.0
H1509 H 0.63312 0.93047 0.15187 0.0
H1510 H 0.59647 0.93537 0.16217 0.0
H1511 H 0.62304 0.92777 0.18837 0.0
H1512 H 0.60849 0.97315 0.21559 0.0
H1513 H 0.582 0.98097 0.18934 0.0
H1514 H 0.60887 0.00688 0.19779 0.0
H1515 H 0.669 0.02485 0.10622 0.0
H1516 H 0.62763 0.02816 0.07459 0.0
H1517 H 0.57732 0.97827 0.13306 0.0
C1518 C 0.67144 0.96778 0.20181 0.0
C1519 C 0.70039 0.97586 0.20406 0.0
C1520 C 0.71264 0.99297 0.18283 0.0
C1521 C 0.6963 1.00193 0.15971 0.0
C1522 C 0.66773 0.99376 0.15826 0.0
C1523 C 0.65539 0.97707 0.17876 0.0
C1524 C 0.62424 0.97128 0.17224 0.0
C1525 C 0.61892 0.93933 0.16843 0.0
C1526 C 0.60475 0.98382 0.19511 0.0
C1527 C 0.62099 0.9871 0.14468 0.0
C1528 C 0.64637 0.9999 0.13705 0.0
C1529 C 0.64903 0.015 0.11206 0.0
C1530 C 0.62536 0.0167 0.0942 0.0
C1531 C 0.59916 1.00352 0.10133 0.0
C1532 C 0.5969 0.98888 0.12718 0.0
H1533 H 0.04981 0.66327 0.21084 0.0
H1534 H 0.99459 0.7317 0.18394 0.0
H1535 H 0.97777 0.70194 0.14413 0.0
H1536 H 0.07035 0.63883 0.14333 0.0
H1537 H 0.07005 0.60179 0.15255 0.0
H1538 H 0.07723 0.62807 0.17905 0.0
H1539 H 0.03587 0.60891 0.2096 0.0
H1540 H 0.02872 0.58222 0.18344 0.0
H1541 H 1.00072 0.60587 0.19466 0.0
H1542 H 0.97011 0.66519 0.10499 0.0
H1543 H 0.96976 0.62422 0.07234 0.0
H1544 H 0.02696 0.57886 0.12762 0.0
C1545 C 0.03407 0.67196 0.1966 0.0
C1546 C 0.02357 0.69982 0.20032 0.0
C1547 C 0.00288 0.71041 0.18145 0.0
C1548 C 0.99326 0.69364 0.15881 0.0
C1549 C 0.00419 0.66621 0.1557 0.0
C1550 C 0.0239 0.65536 0.17436 0.0
C1551 C 0.03234 0.62529 0.16665 0.0
C1552 C 0.06439 0.6234 0.16 0.0
C1553 C 0.02389 0.60434 0.18998 0.0
C1554 C 0.01455 0.62086 0.14049 0.0
C1555 C 0.99864 0.64476 0.1343 0.0
C1556 C 0.98213 0.64626 0.10998 0.0
C1557 C 0.98208 0.62291 0.09154 0.0
C1558 C 0.998 0.59813 0.0977 0.0
C1559 C 0.01408 0.59712 0.12271 0.0
H1560 H 0.34102 0.96308 0.81485 0.0
H1561 H 0.28212 0.03033 0.83702 0.0
H1562 H 0.31464 0.04548 0.87528 0.0
H1563 H 0.36312 0.94487 0.88412 0.0
H1564 H 0.39976 0.93861 0.87451 0.0
H1565 H 0.37197 0.93349 0.84898 0.0
H1566 H 0.39735 0.96844 0.81519 0.0
H1567 H 0.42516 0.97365 0.84075 0.0
H1568 H 0.4058 1.0037 0.82721 0.0
H1569 H 0.3524 0.05108 0.91296 0.0
H1570 H 0.39316 0.0484 0.94567 0.0
H1571 H 0.42918 0.97944 0.89683 0.0
C1572 C 0.335 0.98104 0.82777 0.0
C1573 C 0.309 0.99548 0.82315 0.0
C1574 C 0.30191 0.019 0.84025 0.0
C1575 C 0.32027 0.02771 0.86198 0.0
C1576 C 0.34579 0.01295 0.86598 0.0
C1577 C 0.35328 0.99027 0.84915 0.0
C1578 C 0.38195 0.97804 0.85765 0.0
C1579 C 0.37901 0.94692 0.86687 0.0
C1580 C 0.40386 0.98116 0.83378 0.0
C1581 C 0.38927 0.99705 0.8823 0.0
C1582 C 0.36807 0.01698 0.88682 0.0
C1583 C 0.36924 0.03582 0.90936 0.0
C1584 C 0.39245 0.03409 0.92785 0.0
C1585 C 0.41445 0.01393 0.92358 0.0
C1586 C 0.41297 0.99545 0.90025 0.0
H1587 H 0.05083 0.34904 0.80215 0.0
H1588 H 0.00551 0.27706 0.83701 0.0
H1589 H 0.99383 0.30544 0.87937 0.0
H1590 H 0.08051 0.37515 0.86751 0.0
H1591 H 0.07623 0.41195 0.8582 0.0
H1592 H 0.08151 0.38576 0.83111 0.0
H1593 H 0.035 0.40218 0.80681 0.0
H1594 H 0.02953 0.42829 0.83394 0.0
H1595 H 0.00215 0.40259 0.82651 0.0
H1596 H 0.98731 0.34169 0.91793 0.0
H1597 H 0.9861 0.38268 0.94996 0.0
H1598 H 0.0346 0.4322 0.88968 0.0
C1599 C 0.0386 0.3392 0.81882 0.0
C1600 C 0.02919 0.31076 0.81636 0.0
C1601 C 0.01302 0.29871 0.83845 0.0
C1602 C 0.00627 0.31472 0.86256 0.0
C1603 C 0.01571 0.34279 0.8642 0.0
C1604 C 0.03153 0.35494 0.84291 0.0
C1605 C 0.03874 0.38565 0.84969 0.0
C1606 C 0.07117 0.38986 0.85176 0.0
C1607 C 0.02556 0.40587 0.82794 0.0
C1608 C 0.02455 0.38892 0.87821 0.0
C1609 C 0.01148 0.36387 0.88617 0.0
C1610 C 0.99745 0.36137 0.91185 0.0
C1611 C 0.99695 0.38485 0.92996 0.0
C1612 C 0.01025 0.41081 0.92245 0.0
C1613 C 0.02399 0.41284 0.89599 0.0
H1614 H 0.65975 0.9597 0.80276 0.0
H1615 H 0.73197 0.00662 0.8361 0.0
H1616 H 0.70533 0.01432 0.88018 0.0
H1617 H 0.60733 0.00783 0.82882 0.0
H1618 H 0.58127 0.98066 0.83586 0.0
H1619 H 0.60713 0.9757 0.80827 0.0
H1620 H 0.62328 0.92858 0.83117 0.0
H1621 H 0.59747 0.93341 0.85884 0.0
H1622 H 0.63453 0.92843 0.8674 0.0
H1623 H 0.67046 0.01762 0.92046 0.0
H1624 H 0.62972 0.01843 0.95299 0.0
H1625 H 0.57748 0.9755 0.89103 0.0
C1626 C 0.67015 0.97192 0.81901 0.0
C1627 C 0.69828 0.98269 0.8154 0.0
C1628 C 0.71085 0.99766 0.83808 0.0
C1629 C 0.69571 1.00239 0.86323 0.0
C1630 C 0.6678 0.99237 0.86544 0.0
C1631 C 0.65508 0.97758 0.84387 0.0
C1632 C 0.6242 0.97059 0.85084 0.0
C1633 C 0.60378 0.98453 0.82969 0.0
C1634 C 0.61961 0.93834 0.85214 0.0
C1635 C 0.62143 0.98395 0.87975 0.0
C1636 C 0.64704 0.99594 0.8879 0.0
C1637 C 0.65028 0.00858 0.91412 0.0
C1638 C 0.62687 0.00902 0.93245 0.0
C1639 C 0.60011 0.99757 0.92447 0.0
C1640 C 0.59742 0.98492 0.8976 0.0
H1641 H 0.00427 0.65603 0.7945 0.0
H1642 H 0.02833 0.73244 0.83959 0.0
H1643 H 0.02855 0.70534 0.88401 0.0
H1644 H 0.95968 0.62475 0.84982 0.0
H1645 H 0.97155 0.58915 0.84248 0.0
H1646 H 0.97039 0.61507 0.81468 0.0
H1647 H 0.02371 0.60577 0.80402 0.0
H1648 H 0.02513 0.58005 0.83195 0.0
H1649 H 0.04955 0.60953 0.83178 0.0
H1650 H 0.02955 0.66961 0.92276 0.0
H1651 H 0.02873 0.62853 0.95423 0.0
H1652 H 0.00609 0.57386 0.88418 0.0
C1653 C 0.00948 0.6672 0.8137 0.0
C1654 C 0.01642 0.69655 0.81338 0.0
C1655 C 0.02258 0.71021 0.83917 0.0
C1656 C 0.023 0.69489 0.86451 0.0
C1657 C 0.01715 0.66587 0.8638 0.0
C1658 C 0.01023 0.65217 0.83913 0.0
C1659 C 0.00586 0.62057 0.84404 0.0
C1660 C 0.97504 0.61188 0.83736 0.0
C1661 C 0.02734 0.60295 0.82693 0.0
C1662 C 0.01186 0.61855 0.87534 0.0
C1663 C 0.01814 0.64503 0.88622 0.0
C1664 C 0.02451 0.64884 0.91448 0.0
C1665 C 0.02404 0.62517 0.93221 0.0
C1666 C 0.01741 0.59769 0.92183 0.0
C1667 C 0.01148 0.59441 0.89282 0.0
H1668 H 0.22193 0.35261 1.00497 0.0
H1669 H 0.17946 0.27643 0.03469 0.0
H1670 H 0.13419 0.30318 0.03768 0.0
H1671 H 0.18602 0.39947 0.05302 0.0
H1672 H 0.18494 0.42852 0.02845 0.0
H1673 H 0.21335 0.4029 0.02657 0.0
H1674 H 0.20101 0.39238 0.97435 0.0
H1675 H 0.17324 0.4186 0.97646 0.0
H1676 H 0.16493 0.38304 0.9652 0.0
H1677 H 0.09359 0.3389 0.03785 0.0
H1678 H 0.06118 0.37991 0.03538 0.0
H1679 H 0.13164 0.4337 0.00989 0.0
C1680 C 0.20333 0.34137 0.0125 0.0
C1681 C 0.20463 0.31221 0.01987 0.0
C1682 C 0.17923 0.29854 0.02864 0.0
C1683 C 0.15341 0.31368 0.03064 0.0
C1684 C 0.15333 0.34255 0.02406 0.0
C1685 C 0.1777 0.35624 0.01527 0.0
C1686 C 0.1724 0.38761 0.0105 0.0
C1687 C 0.19024 0.40568 0.03085 0.0
C1688 C 0.17823 0.39584 0.97977 0.0
C1689 C 0.14096 0.3895 0.01745 0.0
C1690 C 0.13035 0.36325 0.02517 0.0
C1691 C 0.10174 0.3595 0.0319 0.0
C1692 C 0.08347 0.38301 0.03037 0.0
C1693 C 0.09377 0.41016 0.02237 0.0
C1694 C 0.12307 0.41338 0.01622 0.0
H1695 H 0.213 0.66371 0.05806 0.0
H1696 H 0.18565 0.7272 0.99775 0.0
H1697 H 0.14279 0.69855 0.98758 0.0
H1698 H 0.19441 0.60456 0.0166 0.0
H1699 H 0.18304 0.58284 0.0457 0.0
H1700 H 0.20966 0.60979 0.05097 0.0
H1701 H 0.17899 0.63249 0.09035 0.0
H1702 H 0.15246 0.60535 0.08544 0.0
H1703 H 0.14258 0.64221 0.08309 0.0
H1704 H 0.10462 0.66161 0.98181 0.0
H1705 H 0.0727 0.62016 0.98205 0.0
H1706 H 0.12672 0.57869 0.04346 0.0
C1707 C 0.198 0.67177 0.04276 0.0
C1708 C 0.20292 0.69781 0.02859 0.0
C1709 C 0.18231 0.70763 0.00917 0.0
C1710 C 0.15802 0.69132 1.00306 0.0
C1711 C 0.15463 0.66522 0.0165 0.0
C1712 C 0.17396 0.65557 0.03609 0.0
C1713 C 0.16616 0.62614 0.04654 0.0
C1714 C 0.18972 0.60457 0.03952 0.0
C1715 C 0.15965 0.62658 0.07824 0.0
C1716 C 0.13948 0.62052 0.02952 0.0
C1717 C 0.13313 0.64349 0.01252 0.0
C1718 C 0.10938 0.6436 0.99508 0.0
C1719 C 0.09139 0.61991 0.99536 0.0
C1720 C 0.09728 0.59617 0.0127 0.0
C1721 C 0.1219 0.59636 0.02974 0.0
H1722 H 0.29172 0.16303 1.00238 0.0
H1723 H 0.34027 0.23686 0.97694 0.0
H1724 H 0.38507 0.21063 0.98458 0.0
H1725 H 0.34224 0.13576 0.05548 0.0
H1726 H 0.33701 0.09919 0.04575 0.0
H1727 H 0.30852 0.12444 0.04128 0.0
H1728 H 0.30506 0.11095 0.9886 0.0
H1729 H 0.33357 0.08576 0.99292 0.0
H1730 H 0.3364 0.11323 0.96674 0.0
H1731 H 0.42436 0.17668 0.99295 0.0
H1732 H 0.45645 0.13614 0.99939 0.0
H1733 H 0.38366 0.08196 0.01697 0.0
C1734 C 0.31186 0.17371 0.99907 0.0
C1735 C 0.31267 0.20217 0.98962 0.0
C1736 C 0.3393 0.21522 0.98453 0.0
C1737 C 0.36483 0.20049 0.98882 0.0
C1738 C 0.36349 0.17242 0.99776 0.0
C1739 C 0.33778 0.15897 1.00266 0.0
C1740 C 0.34267 0.12792 0.01005 0.0
C1741 C 0.33197 0.12145 0.03992 0.0
C1742 C 0.32858 0.10831 0.98828 0.0
C1743 C 0.37502 0.12614 0.00837 0.0
C1744 C 0.38646 0.15222 1.00156 0.0
C1745 C 0.41568 0.15616 0.99843 0.0
C1746 C 0.43379 0.13286 1.00221 0.0
C1747 C 0.4228 0.10564 0.00884 0.0
C1748 C 0.39288 0.10239 0.012 0.0
H1749 H 0.80284 0.34555 0.95452 0.0
H1750 H 0.83337 0.27803 0.00857 0.0
H1751 H 0.87272 0.30888 0.02457 0.0
H1752 H 0.87182 0.37189 0.93367 0.0
H1753 H 0.86113 0.40859 0.93383 0.0
H1754 H 0.83532 0.38134 0.92652 0.0
H1755 H 0.80342 0.39995 0.96698 0.0
H1756 H 0.82911 0.42731 0.97441 0.0
H1757 H 0.81808 0.40332 1.00183 0.0
H1758 H 0.90871 0.34654 0.03429 0.0
H1759 H 0.94032 0.38809 0.03632 0.0
H1760 H 0.8863 0.43227 0.97667 0.0
C1761 C 0.81795 0.33726 0.96961 0.0
C1762 C 0.81517 0.3094 0.98028 0.0
C1763 C 0.83515 0.29926 1.0001 0.0
C1764 C 0.8575 0.31667 0.00935 0.0
C1765 C 0.85945 0.34415 0.99866 0.0
C1766 C 0.84029 0.35441 0.97916 0.0
C1767 C 0.84735 0.38472 0.9709 0.0
C1768 C 0.85432 0.38674 0.93936 0.0
C1769 C 0.82304 0.40502 0.97902 0.0
C1770 C 0.87359 0.38988 0.98874 0.0
C1771 C 0.8801 0.36614 1.00457 0.0
C1772 C 0.90378 0.36525 0.02206 0.0
C1773 C 0.92162 0.38898 0.02302 0.0
C1774 C 0.91574 0.41345 0.00669 0.0
C1775 C 0.89109 0.41405 0.98968 0.0
H1776 H 0.66758 0.80191 0.97193 0.0
H1777 H 0.72011 0.81911 0.0451 0.0
H1778 H 0.68944 0.86005 0.05671 0.0
H1779 H 0.64952 0.87466 0.95432 0.0
H1780 H 0.61347 0.86583 0.94471 0.0
H1781 H 0.64141 0.83996 0.94058 0.0
H1782 H 0.61266 0.8046 0.97114 0.0
H1783 H 0.58482 0.8305 0.9757 0.0
H1784 H 0.60165 0.81489 0.00601 0.0
H1785 H 0.6518 0.89818 0.06132 0.0
H1786 H 0.61107 0.93125 0.05783 0.0
H1787 H 0.58033 0.88622 0.98448 0.0
C1788 C 0.67281 0.81421 0.99043 0.0
C1789 C 0.69644 0.80699 0.00762 0.0
C1790 C 0.70256 0.82425 0.03126 0.0
C1791 C 0.68502 0.84742 0.03822 0.0
C1792 C 0.66127 0.85303 0.02148 0.0
C1793 C 0.65522 0.83697 0.998 0.0
C1794 C 0.62773 0.84658 0.98416 0.0
C1795 C 0.63338 0.8574 0.95417 0.0
C1796 C 0.6054 0.82272 0.98427 0.0
C1797 C 0.61908 0.87056 1.00361 0.0
C1798 C 0.63889 0.87407 0.02487 0.0
C1799 C 0.63612 0.89547 0.04488 0.0
C1800 C 0.61288 0.91405 0.04281 0.0
C1801 C 0.59238 0.9109 0.02121 0.0
C1802 C 0.59533 0.88862 1.00158 0.0
H1803 H 0.80209 0.6654 0.04327 0.0
H1804 H 0.83753 0.73557 0.99592 0.0
H1805 H 0.87828 0.70522 0.98167 0.0
H1806 H 0.86794 0.63774 0.06849 0.0
H1807 H 0.85781 0.60108 0.0654 0.0
H1808 H 0.83102 0.62768 0.07173 0.0
H1809 H 0.80317 0.61195 0.0276 0.0
H1810 H 0.82927 0.58465 0.02129 0.0
H1811 H 0.82121 0.61009 0.99416 0.0
H1812 H 0.91621 0.66741 0.97458 0.0
H1813 H 0.94775 0.62543 0.97438 0.0
H1814 H 0.88577 0.57905 0.02388 0.0
C1815 C 0.81847 0.67438 0.02991 0.0
C1816 C 0.81679 0.70284 0.02077 0.0
C1817 C 0.83847 0.71384 1.00319 0.0
C1818 C 0.86162 0.69672 0.99497 0.0
C1819 C 0.86253 0.66863 1.00426 0.0
C1820 C 0.84143 0.65752 0.02126 0.0
C1821 C 0.84739 0.62678 0.02853 0.0
C1822 C 0.85125 0.62312 0.06044 0.0
C1823 C 0.82386 0.60722 0.01721 0.0
C1824 C 0.87522 0.6222 0.01301 0.0
C1825 C 0.88371 0.64666 0.99932 0.0
C1826 C 0.90957 0.6481 0.98497 0.0
C1827 C 0.92733 0.62414 0.98498 0.0
C1828 C 0.91908 0.59886 0.99892 0.0
C1829 C 0.89242 0.59784 0.01266 0.0
H1830 H 0.33966 0.8113 0.06671 0.0
H1831 H 0.27167 0.83921 0.01174 0.0
H1832 H 0.30188 0.87934 0.99572 0.0
H1833 H 0.36533 0.87952 0.08738 0.0
H1834 H 0.4023 0.86917 0.08701 0.0
H1835 H 0.37515 0.84319 0.09413 0.0
H1836 H 0.39414 0.81211 0.05323 0.0
H1837 H 0.42133 0.83806 0.04603 0.0
H1838 H 0.39731 0.82718 0.01854 0.0
H1839 H 0.3392 0.91787 0.98783 0.0
H1840 H 0.38114 0.94957 0.98613 0.0
H1841 H 0.42587 0.89413 0.04386 0.0
C1842 C 0.33112 0.82592 0.05132 0.0
C1843 C 0.30328 0.82237 0.04057 0.0
C1844 C 0.29292 0.84163 0.02023 0.0
C1845 C 0.30993 0.86445 0.01107 0.0
C1846 C 0.33736 0.86735 0.02215 0.0
C1847 C 0.34797 0.84837 0.04162 0.0
C1848 C 0.37831 0.85569 0.04985 0.0
C1849 C 0.38037 0.86229 0.08146 0.0
C1850 C 0.39899 0.83184 0.0414 0.0
C1851 C 0.3831 0.88204 0.03229 0.0
C1852 C 0.35917 0.88856 0.01661 0.0
C1853 C 0.3581 0.91274 0.99979 0.0
C1854 C 0.382 0.93066 0.99902 0.0
C1855 C 0.40686 0.92418 0.01465 0.0
C1856 C 0.40738 0.89938 0.0313 0.0
H1857 H 0.67287 0.20726 0.03826 0.0
H1858 H 0.72611 0.18406 0.967 0.0
H1859 H 0.69976 0.139 0.96274 0.0
H1860 H 0.66024 0.13674 0.06682 0.0
H1861 H 0.62351 0.14436 0.07499 0.0
H1862 H 0.64953 0.17244 0.07535 0.0
H1863 H 0.61896 0.20093 0.0399 0.0
H1864 H 0.59298 0.17289 0.03932 0.0
H1865 H 0.60905 0.1848 0.00697 0.0
H1866 H 0.66536 0.09751 0.96451 0.0
H1867 H 0.62489 0.06449 0.97087 0.0
H1868 H 0.5908 0.11811 0.03677 0.0
C1869 C 0.67916 0.19289 0.02163 0.0
C1870 C 0.7017 0.19961 1.00287 0.0
C1871 C 0.70937 0.1795 0.982 0.0
C1872 C 0.69432 0.15385 0.97925 0.0
C1873 C 0.67148 0.14867 0.99735 0.0
C1874 C 0.66389 0.16772 0.01807 0.0
C1875 C 0.63698 0.15854 0.0332 0.0
C1876 C 0.64293 0.15266 0.06444 0.0
C1877 C 0.61309 0.1806 0.02961 0.0
C1878 C 0.6303 0.13145 0.0175 0.0
C1879 C 0.65077 0.1258 0.99728 0.0
C1880 C 0.64928 0.10176 0.9803 0.0
C1881 C 0.6263 0.08309 0.98408 0.0
C1882 C 0.60484 0.08885 1.00421 0.0
C1883 C 0.60685 0.11338 0.02106 0.0
H1884 H 0.53736 0.71892 0.86169 0.0
H1885 H 0.51112 0.67703 0.78486 0.0
H1886 H 0.50143 0.63307 0.81194 0.0
H1887 H 0.57192 0.65975 0.89481 0.0
H1888 H 0.55922 0.66901 0.92943 0.0
H1889 H 0.56442 0.69624 0.90345 0.0
H1890 H 0.51188 0.71195 0.91097 0.0
H1891 H 0.50685 0.68408 0.93638 0.0
H1892 H 0.48367 0.68646 0.90631 0.0
H1893 H 0.49628 0.59324 0.84758 0.0
H1894 H 0.49469 0.5611 0.88831 0.0
H1895 H 0.52237 0.62967 0.94274 0.0
C1896 C 0.52963 0.70044 0.85055 0.0
C1897 C 0.52516 0.70129 0.82111 0.0
C1898 C 0.51474 0.67684 0.80733 0.0
C1899 C 0.50919 0.65181 0.82259 0.0
C1900 C 0.51383 0.65172 0.85164 0.0
C1901 C 0.52363 0.6755 0.8655 0.0
C1902 C 0.5264 0.67011 0.89689 0.0
C1903 C 0.55735 0.674 0.90669 0.0
C1904 C 0.50598 0.68929 0.91362 0.0
C1905 C 0.5173 0.63929 0.89857 0.0
C1906 C 0.51009 0.62912 0.87222 0.0
C1907 C 0.50175 0.60108 0.86827 0.0
C1908 C 0.50099 0.58293 0.89166 0.0
C1909 C 0.50837 0.59271 0.91894 0.0
C1910 C 0.51634 0.62148 0.92233 0.0
H1911 H 0.30871 0.45324 0.85394 0.0
H1912 H 0.32827 0.5201 0.79425 0.0
H1913 H 0.37142 0.53202 0.82175 0.0
H1914 H 0.32466 0.49336 0.9139 0.0
H1915 H 0.33888 0.46407 0.93377 0.0
H1916 H 0.31239 0.45779 0.90717 0.0
H1917 H 0.34602 0.42209 0.88226 0.0
H1918 H 0.37241 0.428 0.90908 0.0
H1919 H 0.3815 0.43303 0.87259 0.0
H1920 H 0.41104 0.53827 0.85776 0.0
H1921 H 0.44344 0.53849 0.89875 0.0
H1922 H 0.39407 0.4714 0.9375 0.0
C1923 C 0.32206 0.47035 0.84641 0.0
C1924 C 0.31482 0.48588 0.82188 0.0
C1925 C 0.33339 0.50765 0.81268 0.0
C1926 C 0.35783 0.51472 0.82835 0.0
C1927 C 0.36332 0.49993 0.85322 0.0
C1928 C 0.34594 0.47813 0.86212 0.0
C1929 C 0.35506 0.46687 0.89061 0.0
C1930 C 0.33133 0.47077 0.91265 0.0
C1931 C 0.3643 0.43565 0.88849 0.0
C1932 C 0.38019 0.48599 0.89665 0.0
C1933 C 0.38492 0.5046 0.87462 0.0
C1934 C 0.40741 0.52386 0.87509 0.0
C1935 C 0.42564 0.52388 0.89846 0.0
C1936 C 0.42096 0.50523 0.92135 0.0
C1937 C 0.39777 0.48623 0.9205 0.0
H1938 H 0.46803 0.30553 0.84853 0.0
H1939 H 0.54548 0.32084 0.8009 0.0
H1940 H 0.55577 0.36232 0.83104 0.0
H1941 H 0.45024 0.3798 0.8643 0.0
H1942 H 0.43799 0.37143 0.89926 0.0
H1943 H 0.43492 0.34553 0.87157 0.0
H1944 H 0.46299 0.30952 0.90191 0.0
H1945 H 0.46658 0.33543 0.92949 0.0
H1946 H 0.49785 0.31887 0.91477 0.0
H1947 H 0.55957 0.39993 0.86894 0.0
H1948 H 0.55524 0.43212 0.90979 0.0
H1949 H 0.47711 0.39038 0.93484 0.0
C1950 C 0.48706 0.31772 0.84414 0.0
C1951 C 0.506 0.30967 0.82219 0.0
C1952 C 0.53039 0.32663 0.81715 0.0
C1953 C 0.53656 0.3501 0.83442 0.0
C1954 C 0.51817 0.35643 0.85669 0.0
C1955 C 0.49375 0.34087 0.86141 0.0
C1956 C 0.47827 0.35103 0.88766 0.0
C1957 C 0.4486 0.36264 0.88025 0.0
C1958 C 0.47632 0.3273 0.90976 0.0
C1959 C 0.498 0.37455 0.8973 0.0
C1960 C 0.52076 0.37746 0.87896 0.0
C1961 C 0.54177 0.39786 0.88328 0.0
C1962 C 0.53916 0.41605 0.90652 0.0
C1963 C 0.51597 0.41365 0.92542 0.0
C1964 C 0.49529 0.39238 0.92092 0.0
H1965 H 0.71952 0.54199 0.8578 0.0
H1966 H 0.68619 0.48809 0.79131 0.0
H1967 H 0.64352 0.47891 0.81999 0.0
H1968 H 0.69772 0.4963 0.9142 0.0
H1969 H 0.68946 0.52495 0.93796 0.0
H1970 H 0.71642 0.52955 0.91136 0.0
H1971 H 0.68984 0.57374 0.89245 0.0
H1972 H 0.66288 0.56932 0.91909 0.0
H1973 H 0.65291 0.57075 0.88254 0.0
H1974 H 0.60444 0.47553 0.85554 0.0
H1975 H 0.572 0.47692 0.89613 0.0
H1976 H 0.6328 0.52808 0.94236 0.0
C1977 C 0.70349 0.52802 0.84916 0.0
C1978 C 0.70657 0.51585 0.82195 0.0
C1979 C 0.68442 0.49827 0.81162 0.0
C1980 C 0.66012 0.49265 0.82794 0.0
C1981 C 0.65828 0.50442 0.85478 0.0
C1982 C 0.6794 0.52163 0.86542 0.0
C1983 C 0.67266 0.53065 0.89541 0.0
C1984 C 0.69542 0.5197 0.91594 0.0
C1985 C 0.66937 0.56304 0.89748 0.0
C1986 C 0.64437 0.51577 0.89997 0.0
C1987 C 0.63642 0.50105 0.87607 0.0
C1988 C 0.61063 0.48667 0.87447 0.0
C1989 C 0.59238 0.48749 0.89775 0.0
C1990 C 0.60009 0.50204 0.9227 0.0
C1991 C 0.62661 0.51621 0.92385 0.0
H1992 H 0.5515 0.30937 0.18001 0.0
H1993 H 0.48539 0.33338 0.23914 0.0
H1994 H 0.47098 0.3727 0.20746 0.0
H1995 H 0.57143 0.37888 0.15799 0.0
H1996 H 0.57692 0.36904 0.12176 0.0
H1997 H 0.5819 0.34318 0.14915 0.0
H1998 H 0.54558 0.30986 0.12489 0.0
H1999 H 0.54058 0.33564 0.09741 0.0
H2000 H 0.51033 0.3228 0.11703 0.0
H2001 H 0.46642 0.41147 0.17034 0.0
H2002 H 0.46946 0.44403 0.12961 0.0
H2003 H 0.5355 0.39147 0.09291 0.0
C2004 C 0.53397 0.32293 0.18627 0.0
C2005 C 0.51964 0.31856 0.21205 0.0
C2006 C 0.49663 0.33646 0.21948 0.0
C2007 C 0.48837 0.3588 0.20162 0.0
C2008 C 0.50303 0.36255 0.17628 0.0
C2009 C 0.52513 0.34485 0.16849 0.0
C2010 C 0.53719 0.35295 0.14001 0.0
C2011 C 0.56873 0.36153 0.14239 0.0
C2012 C 0.53316 0.32888 0.11857 0.0
C2013 C 0.51863 0.37823 0.133 0.0
C2014 C 0.49927 0.38366 0.15432 0.0
C2015 C 0.4812 0.40712 0.15339 0.0
C2016 C 0.48312 0.42551 0.13023 0.0
C2017 C 0.50255 0.42007 0.10805 0.0
C2018 C 0.52019 0.39588 0.10935 0.0
H2019 H 0.72295 0.4835 0.16857 0.0
H2020 H 0.68178 0.52152 0.24109 0.0
H2021 H 0.6363 0.52312 0.21473 0.0
H2022 H 0.6916 0.52752 0.11924 0.0
H2023 H 0.68814 0.50112 0.09205 0.0
H2024 H 0.7159 0.49793 0.11791 0.0
H2025 H 0.69791 0.44787 0.1315 0.0
H2026 H 0.67036 0.45064 0.10529 0.0
H2027 H 0.66112 0.44303 0.1413 0.0
H2028 H 0.59703 0.52545 0.1787 0.0
H2029 H 0.56594 0.52618 0.13723 0.0
H2030 H 0.6338 0.48989 0.0865 0.0
C2031 C 0.70423 0.49167 0.17917 0.0
C2032 C 0.70598 0.50249 0.20699 0.0
C2033 C 0.68094 0.5128 0.22005 0.0
C2034 C 0.65509 0.51402 0.20509 0.0
C2035 C 0.65467 0.50479 0.17714 0.0
C2036 C 0.67855 0.49352 0.16441 0.0
C2037 C 0.67323 0.48724 0.1335 0.0
C2038 C 0.69342 0.50448 0.11457 0.0
C2039 C 0.6758 0.4553 0.12755 0.0
C2040 C 0.64271 0.49727 0.13056 0.0
C2041 C 0.63236 0.50699 0.15609 0.0
C2042 C 0.60488 0.51767 0.15873 0.0
C2043 C 0.58739 0.51805 0.13489 0.0
C2044 C 0.59735 0.50813 0.10841 0.0
C2045 C 0.62557 0.49782 0.10629 0.0
H2046 H 0.46944 0.71195 0.17234 0.0
H2047 H 0.53782 0.68999 0.22985 0.0
H2048 H 0.54879 0.64795 0.20079 0.0
H2049 H 0.44758 0.64092 0.15334 0.0
H2050 H 0.44158 0.65001 0.11702 0.0
H2051 H 0.4372 0.67649 0.14399 0.0
H2052 H 0.4732 0.70895 0.11809 0.0
H2053 H 0.47782 0.68241 0.09122 0.0
H2054 H 0.50832 0.69569 0.11008 0.0
H2055 H 0.55313 0.60873 0.1644 0.0
H2056 H 0.5504 0.57579 0.12402 0.0
H2057 H 0.48287 0.62645 0.08766 0.0
C2058 C 0.48687 0.69851 0.17896 0.0
C2059 C 0.50283 0.70471 0.20359 0.0
C2060 C 0.5249 0.68578 0.21149 0.0
C2061 C 0.53151 0.66192 0.1949 0.0
C2062 C 0.51605 0.65727 0.17026 0.0
C2063 C 0.49417 0.67507 0.16233 0.0
C2064 C 0.48167 0.66623 0.1342 0.0
C2065 C 0.45014 0.65791 0.13734 0.0
C2066 C 0.48549 0.68972 0.1121 0.0
C2067 C 0.5 0.64065 0.12741 0.0
C2068 C 0.5195 0.63565 0.14865 0.0
C2069 C 0.53807 0.61261 0.14764 0.0
C2070 C 0.5364 0.59405 0.1246 0.0
C2071 C 0.51669 0.59879 0.10257 0.0
C2072 C 0.49851 0.62263 0.10388 0.0
H2073 H 0.29926 0.47023 0.16937 0.0
H2074 H 0.33307 0.51989 0.23841 0.0
H2075 H 0.37499 0.53246 0.20918 0.0
H2076 H 0.36615 0.44264 0.14409 0.0
H2077 H 0.35627 0.44479 0.10755 0.0
H2078 H 0.32926 0.43972 0.134 0.0
H2079 H 0.30261 0.48421 0.11586 0.0
H2080 H 0.32969 0.48947 0.08949 0.0
H2081 H 0.32119 0.51758 0.11379 0.0
H2082 H 0.41356 0.53876 0.17258 0.0
H2083 H 0.4461 0.53847 0.13189 0.0
H2084 H 0.38663 0.48573 0.08565 0.0
C2085 C 0.31558 0.48368 0.17836 0.0
C2086 C 0.313 0.49401 0.20622 0.0
C2087 C 0.33463 0.51169 0.2172 0.0
C2088 C 0.35847 0.51896 0.2007 0.0
C2089 C 0.36025 0.50853 0.17323 0.0
C2090 C 0.33935 0.49127 0.16212 0.0
C2091 C 0.34629 0.48293 0.13199 0.0
C2092 C 0.3497 0.4506 0.12926 0.0
C2093 C 0.32359 0.49423 0.11158 0.0
C2094 C 0.37453 0.49801 0.12786 0.0
C2095 C 0.38216 0.51262 0.15195 0.0
C2096 C 0.40771 0.52749 0.15363 0.0
C2097 C 0.42609 0.52714 0.13034 0.0
C2098 C 0.41894 0.51215 0.10544 0.0
C2099 C 0.39256 0.49771 0.10416 0.0
H2100 H 0.8022 0.567 0.67036 0.0
H2101 H 0.80466 0.48823 0.7172 0.0
H2102 H 0.84676 0.47293 0.68962 0.0
H2103 H 0.82206 0.53548 0.60255 0.0
H2104 H 0.84256 0.56594 0.59189 0.0
H2105 H 0.81252 0.57029 0.61512 0.0
H2106 H 0.84505 0.59549 0.65129 0.0
H2107 H 0.87522 0.59094 0.62829 0.0
H2108 H 0.87659 0.57771 0.66381 0.0
H2109 H 0.89113 0.46816 0.65939 0.0
H2110 H 0.93048 0.47152 0.62476 0.0
H2111 H 0.89683 0.55149 0.5949 0.0
C2112 C 0.81145 0.54638 0.67453 0.0
C2113 C 0.80021 0.52876 0.69585 0.0
C2114 C 0.81279 0.50195 0.7008 0.0
C2115 C 0.8368 0.49317 0.68535 0.0
C2116 C 0.84762 0.51124 0.66468 0.0
C2117 C 0.83499 0.53705 0.65886 0.0
C2118 C 0.85039 0.55225 0.63519 0.0
C2119 C 0.83071 0.55621 0.60967 0.0
C2120 C 0.86253 0.58078 0.64526 0.0
C2121 C 0.87398 0.53122 0.6289 0.0
C2122 C 0.87222 0.50785 0.64638 0.0
C2123 C 0.89249 0.48622 0.64543 0.0
C2124 C 0.91489 0.48838 0.62591 0.0
C2125 C 0.91661 0.51174 0.60737 0.0
C2126 C 0.89583 0.53335 0.60881 0.0
H2127 H 0.52133 0.85798 0.72804 0.0
H2128 H 0.49818 0.77957 0.68605 0.0
H2129 H 0.49954 0.80455 0.6403 0.0
H2130 H 0.47716 0.90256 0.6874 0.0
H2131 H 0.50161 0.93201 0.68698 0.0
H2132 H 0.50196 0.90741 0.7159 0.0
H2133 H 0.55565 0.8978 0.70749 0.0
H2134 H 0.5555 0.92252 0.67862 0.0
H2135 H 0.56762 0.88666 0.67318 0.0
H2136 H 0.50019 0.8391 0.59943 0.0
H2137 H 0.50089 0.87941 0.56672 0.0
H2138 H 0.52135 0.9362 0.63573 0.0
C2139 C 0.51655 0.84589 0.70928 0.0
C2140 C 0.50942 0.81664 0.71087 0.0
C2141 C 0.50397 0.80178 0.68556 0.0
C2142 C 0.5045 0.8159 0.65945 0.0
C2143 C 0.51061 0.84491 0.65889 0.0
C2144 C 0.51669 0.85969 0.68318 0.0
C2145 C 0.52126 0.89102 0.67714 0.0
C2146 C 0.49918 0.90932 0.69278 0.0
C2147 C 0.55182 0.90002 0.68455 0.0
C2148 C 0.5164 0.89174 0.64562 0.0
C2149 C 0.51053 0.86486 0.63551 0.0
C2150 C 0.50495 0.86015 0.60716 0.0
C2151 C 0.50542 0.88336 0.58869 0.0
C2152 C 0.51127 0.91125 0.59844 0.0
C2153 C 0.5168 0.91531 0.62744 0.0
H2154 H 0.17475 0.44525 0.70954 0.0
H2155 H 0.23534 0.5124 0.69236 0.0
H2156 H 0.20283 0.5318 0.65606 0.0
H2157 H 0.15125 0.43417 0.6388 0.0
H2158 H 0.11466 0.42797 0.64852 0.0
H2159 H 0.14278 0.41964 0.67285 0.0
H2160 H 0.11892 0.45176 0.71039 0.0
H2161 H 0.09083 0.46032 0.68605 0.0
H2162 H 0.11135 0.48828 0.70206 0.0
H2163 H 0.16448 0.5422 0.62002 0.0
H2164 H 0.12298 0.54382 0.58809 0.0
H2165 H 0.08594 0.47159 0.63094 0.0
C2166 C 0.18118 0.46403 0.69807 0.0
C2167 C 0.2076 0.47728 0.70359 0.0
C2168 C 0.21522 0.50192 0.6884 0.0
C2169 C 0.19687 0.51306 0.6678 0.0
C2170 C 0.17086 0.4995 0.66296 0.0
C2171 C 0.16296 0.4756 0.6778 0.0
C2172 C 0.13383 0.46507 0.66876 0.0
C2173 C 0.13576 0.43493 0.6565 0.0
C2174 C 0.11248 0.46645 0.69328 0.0
C2175 C 0.12661 0.48658 0.64623 0.0
C2176 C 0.14832 0.50618 0.64312 0.0
C2177 C 0.14725 0.52717 0.62254 0.0
C2178 C 0.12363 0.52791 0.6045 0.0
C2179 C 0.10116 0.50807 0.60735 0.0
C2180 C 0.10252 0.4874 0.62876 0.0
H2181 H 0.54806 0.16363 0.72024 0.0
H2182 H 0.49712 0.2325 0.68683 0.0
H2183 H 0.48417 0.20249 0.646 0.0
H2184 H 0.57508 0.13759 0.65411 0.0
H2185 H 0.57329 0.10081 0.66423 0.0
H2186 H 0.57854 0.12774 0.69057 0.0
H2187 H 0.5343 0.10939 0.71762 0.0
H2188 H 0.52886 0.08253 0.69123 0.0
H2189 H 0.50055 0.10692 0.69975 0.0
H2190 H 0.47758 0.16528 0.6085 0.0
H2191 H 0.47784 0.12413 0.57664 0.0
H2192 H 0.53203 0.07818 0.63478 0.0
C2193 C 0.53425 0.17242 0.70424 0.0
C2194 C 0.52367 0.20048 0.70663 0.0
C2195 C 0.50552 0.21116 0.68542 0.0
C2196 C 0.49803 0.19421 0.6622 0.0
C2197 C 0.5087 0.16656 0.66059 0.0
C2198 C 0.52642 0.15571 0.68106 0.0
C2199 C 0.53493 0.12529 0.67436 0.0
C2200 C 0.56738 0.12272 0.67059 0.0
C2201 C 0.524 0.10483 0.6971 0.0
C2202 C 0.51944 0.12075 0.64671 0.0
C2203 C 0.50446 0.14488 0.63923 0.0
C2204 C 0.48915 0.14629 0.61424 0.0
C2205 C 0.48949 0.12274 0.59624 0.0
C2206 C 0.5049 0.09779 0.60316 0.0
C2207 C 0.51974 0.09672 0.62903 0.0
H2208 H 0.85986 0.47869 0.30504 0.0
H2209 H 0.78321 0.51463 0.34155 0.0
H2210 H 0.81013 0.52638 0.38485 0.0
H2211 H 0.88795 0.44746 0.3679 0.0
H2212 H 0.92446 0.45588 0.35959 0.0
H2213 H 0.89916 0.45034 0.33172 0.0
H2214 H 0.91155 0.49973 0.31131 0.0
H2215 H 0.93684 0.50529 0.33923 0.0
H2216 H 0.9087 0.53065 0.33345 0.0
H2217 H 0.84549 0.53328 0.42445 0.0
H2218 H 0.88582 0.53449 0.45747 0.0
H2219 H 0.94012 0.49501 0.39464 0.0
C2220 C 0.84873 0.48897 0.32222 0.0
C2221 C 0.81942 0.49566 0.32003 0.0
C2222 C 0.80561 0.50926 0.3428 0.0
C2223 C 0.82077 0.51605 0.36743 0.0
C2224 C 0.84973 0.50927 0.36882 0.0
C2225 C 0.86357 0.49606 0.34677 0.0
C2226 C 0.89481 0.49111 0.35348 0.0
C2227 C 0.90199 0.45929 0.35315 0.0
C2228 C 0.91411 0.50769 0.33316 0.0
C2229 C 0.89638 0.50317 0.38299 0.0
C2230 C 0.87015 0.51362 0.39138 0.0
C2231 C 0.86608 0.52519 0.41802 0.0
C2232 C 0.88921 0.52572 0.43668 0.0
C2233 C 0.91627 0.51483 0.42874 0.0
C2234 C 0.91987 0.50376 0.40131 0.0
H2235 H 0.45884 0.80372 0.35447 0.0
H2236 H 0.53598 0.81116 0.30483 0.0
H2237 H 0.55049 0.85281 0.3332 0.0
H2238 H 0.44518 0.87711 0.36392 0.0
H2239 H 0.43329 0.87411 0.39984 0.0
H2240 H 0.42904 0.84467 0.37609 0.0
H2241 H 0.45695 0.81207 0.41005 0.0
H2242 H 0.46082 0.84128 0.43414 0.0
H2243 H 0.49191 0.82254 0.42178 0.0
H2244 H 0.55416 0.89659 0.36454 0.0
H2245 H 0.55024 0.93453 0.40051 0.0
H2246 H 0.4732 0.89574 0.43275 0.0
C2247 C 0.47898 0.81393 0.34986 0.0
C2248 C 0.49636 0.80418 0.32752 0.0
C2249 C 0.5225 0.81807 0.32201 0.0
C2250 C 0.53079 0.84187 0.33792 0.0
C2251 C 0.51296 0.8512 0.35959 0.0
C2252 C 0.48787 0.83727 0.36596 0.0
C2253 C 0.47283 0.85114 0.39072 0.0
C2254 C 0.44334 0.86242 0.38211 0.0
C2255 C 0.47051 0.83053 0.41565 0.0
C2256 C 0.49319 0.87526 0.39712 0.0
C2257 C 0.51597 0.87524 0.37863 0.0
C2258 C 0.53665 0.8965 0.37937 0.0
C2259 C 0.5342 0.91803 0.39973 0.0
C2260 C 0.51162 0.91783 0.41947 0.0
C2261 C 0.4909 0.89612 0.41811 0.0
H2262 H 0.16853 0.54112 0.31276 0.0
H2263 H 0.22591 0.47219 0.33396 0.0
H2264 H 0.19945 0.465 0.37853 0.0
H2265 H 0.15425 0.56747 0.38365 0.0
H2266 H 0.11722 0.57409 0.3761 0.0
H2267 H 0.14338 0.57646 0.34843 0.0
H2268 H 0.11467 0.54004 0.31913 0.0
H2269 H 0.08865 0.53732 0.34684 0.0
H2270 H 0.1064 0.50592 0.33413 0.0
H2271 H 0.16423 0.4637 0.41972 0.0
H2272 H 0.12407 0.46803 0.45321 0.0
H2273 H 0.08683 0.5341 0.40167 0.0
C2274 C 0.17579 0.52453 0.32674 0.0
C2275 C 0.19937 0.50706 0.31952 0.0
C2276 C 0.20825 0.48609 0.33895 0.0
C2277 C 0.19313 0.4817 0.36425 0.0
C2278 C 0.16909 0.49836 0.3698 0.0
C2279 C 0.16057 0.51941 0.35153 0.0
C2280 C 0.13284 0.53303 0.36101 0.0
C2281 C 0.1372 0.56463 0.3677 0.0
C2282 C 0.10925 0.52881 0.33896 0.0
C2283 C 0.12676 0.51617 0.38743 0.0
C2284 C 0.14815 0.49658 0.39242 0.0
C2285 C 0.14743 0.47894 0.41591 0.0
C2286 C 0.12451 0.48154 0.4348 0.0
C2287 C 0.10219 0.50121 0.4299 0.0
C2288 C 0.10333 0.51858 0.40574 0.0
H2289 H 0.4889 0.15696 0.29814 0.0
H2290 H 0.5237 0.23213 0.33822 0.0
H2291 H 0.52291 0.20729 0.38388 0.0
H2292 H 0.44475 0.13193 0.35658 0.0
H2293 H 0.45323 0.09522 0.35012 0.0
H2294 H 0.45277 0.12012 0.3214 0.0
H2295 H 0.50455 0.10601 0.30856 0.0
H2296 H 0.50522 0.08125 0.33734 0.0
H2297 H 0.53201 0.10851 0.33491 0.0
H2298 H 0.5219 0.17313 0.42447 0.0
H2299 H 0.52065 0.13277 0.45707 0.0
H2300 H 0.48993 0.0783 0.38994 0.0
C2301 C 0.49632 0.1684 0.31644 0.0
C2302 C 0.50648 0.19669 0.3143 0.0
C2303 C 0.5154 0.21075 0.33912 0.0
C2304 C 0.51524 0.19668 0.36519 0.0
C2305 C 0.50618 0.16851 0.36619 0.0
C2306 C 0.49681 0.15453 0.34247 0.0
C2307 C 0.49007 0.12367 0.34879 0.0
C2308 C 0.45832 0.11737 0.34394 0.0
C2309 C 0.5091 0.10369 0.33137 0.0
C2310 C 0.49751 0.12231 0.37976 0.0
C2311 C 0.50643 0.14852 0.38941 0.0
C2312 C 0.51478 0.15259 0.41716 0.0
C2313 C 0.51396 0.12939 0.43555 0.0
C2314 C 0.50512 0.10216 0.42621 0.0
C2315 C 0.49683 0.09872 0.39782 0.0
H2316 H 0.72118 0.84902 0.48018 0.0
H2317 H 0.68659 0.78478 0.53609 0.0
H2318 H 0.64424 0.81469 0.54398 0.0
H2319 H 0.6982 0.90914 0.52158 0.0
H2320 H 0.69029 0.93093 0.49146 0.0
H2321 H 0.71754 0.9041 0.48918 0.0
H2322 H 0.69193 0.88175 0.44637 0.0
H2323 H 0.6647 0.90859 0.44851 0.0
H2324 H 0.65503 0.87162 0.44946 0.0
H2325 H 0.60582 0.85122 0.54607 0.0
H2326 H 0.57319 0.8918 0.54197 0.0
H2327 H 0.63325 0.93438 0.48683 0.0
C2328 C 0.70486 0.84122 0.49428 0.0
C2329 C 0.70744 0.81427 0.50745 0.0
C2330 C 0.68514 0.80493 0.52531 0.0
C2331 C 0.66105 0.82194 0.53015 0.0
C2332 C 0.65951 0.84841 0.51717 0.0
C2333 C 0.6808 0.85807 0.49961 0.0
C2334 C 0.67393 0.88756 0.48852 0.0
C2335 C 0.69632 0.90921 0.49827 0.0
C2336 C 0.67123 0.88736 0.4563 0.0
C2337 C 0.64533 0.89293 0.50252 0.0
C2338 C 0.6375 0.86995 0.51888 0.0
C2339 C 0.61176 0.86931 0.53337 0.0
C2340 C 0.59332 0.8925 0.53082 0.0
C2341 C 0.6006 0.91629 0.51403 0.0
C2342 C 0.62721 0.91665 0.50001 0.0
H2343 H 0.70642 0.17078 0.56455 0.0
H2344 H 0.68864 0.22958 0.49671 0.0
H2345 H 0.6451 0.20217 0.48506 0.0
H2346 H 0.69106 0.11026 0.52589 0.0
H2347 H 0.67625 0.09052 0.55486 0.0
H2348 H 0.7025 0.11753 0.56132 0.0
H2349 H 0.66808 0.14308 0.59565 0.0
H2350 H 0.64187 0.11584 0.5897 0.0
H2351 H 0.63281 0.15253 0.58397 0.0
H2352 H 0.60533 0.16552 0.47884 0.0
H2353 H 0.57332 0.12379 0.47851 0.0
H2354 H 0.62153 0.08621 0.54658 0.0
C2355 C 0.6932 0.17825 0.54744 0.0
C2356 C 0.70112 0.20238 0.53144 0.0
C2357 C 0.68293 0.21147 0.5095 0.0
C2358 C 0.6583 0.19582 0.5026 0.0
C2359 C 0.65226 0.17112 0.51776 0.0
C2360 C 0.66923 0.16251 0.53982 0.0
C2361 C 0.65998 0.13392 0.55123 0.0
C2362 C 0.68387 0.11176 0.54813 0.0
C2363 C 0.65009 0.13651 0.58196 0.0
C2364 C 0.63528 0.1274 0.5319 0.0
C2365 C 0.6308 0.14933 0.51306 0.0
C2366 C 0.60876 0.1483 0.49347 0.0
C2367 C 0.59077 0.1245 0.49338 0.0
C2368 C 0.59526 0.10169 0.51226 0.0
C2369 C 0.61797 0.10312 0.53159 0.0
H2370 H 0.79983 0.6552 0.4628 0.0
H2371 H 0.80755 0.71633 0.53041 0.0
H2372 H 0.85219 0.69302 0.54594 0.0
H2373 H 0.82448 0.59474 0.50407 0.0
H2374 H 0.84227 0.57852 0.47453 0.0
H2375 H 0.81137 0.60043 0.46892 0.0
H2376 H 0.84049 0.63164 0.43444 0.0
H2377 H 0.87149 0.60993 0.44029 0.0
H2378 H 0.87325 0.64764 0.4462 0.0
H2379 H 0.89853 0.66441 0.5516 0.0
H2380 H 0.93798 0.62926 0.55119 0.0
H2381 H 0.89685 0.58446 0.48286 0.0
C2382 C 0.81084 0.66353 0.48101 0.0
C2383 C 0.80039 0.68771 0.49525 0.0
C2384 C 0.81519 0.69788 0.51913 0.0
C2385 C 0.84063 0.68482 0.52803 0.0
C2386 C 0.85061 0.66121 0.51321 0.0
C2387 C 0.83575 0.6503 0.49059 0.0
C2388 C 0.85024 0.62408 0.47887 0.0
C2389 C 0.83094 0.59789 0.48179 0.0
C2390 C 0.85941 0.62861 0.44813 0.0
C2391 C 0.87583 0.62211 0.49813 0.0
C2392 C 0.87599 0.64392 0.51756 0.0
C2393 C 0.89835 0.64707 0.53669 0.0
C2394 C 0.92075 0.62717 0.53621 0.0
C2395 C 0.9203 0.60412 0.51715 0.0
C2396 C 0.89755 0.60173 0.49788 0.0
H2397 H 0.32395 0.83065 0.45313 0.0
H2398 H 0.33781 0.77751 0.52621 0.0
H2399 H 0.37353 0.81179 0.54393 0.0
H2400 H 0.39726 0.85364 0.44421 0.0
H2401 H 0.38722 0.88894 0.43362 0.0
H2402 H 0.36381 0.85956 0.42657 0.0
H2403 H 0.32316 0.88587 0.4528 0.0
H2404 H 0.34669 0.915 0.46051 0.0
H2405 H 0.32845 0.897 0.48868 0.0
H2406 H 0.40837 0.85193 0.55314 0.0
H2407 H 0.43918 0.89462 0.55311 0.0
H2408 H 0.40086 0.92206 0.47505 0.0
C2409 C 0.33472 0.82613 0.47276 0.0
C2410 C 0.32826 0.80142 0.48827 0.0
C2411 C 0.34252 0.79628 0.51397 0.0
C2412 C 0.36278 0.81566 0.52419 0.0
C2413 C 0.36838 0.84005 0.50852 0.0
C2414 C 0.35478 0.84529 0.4833 0.0
C2415 C 0.36427 0.87323 0.47063 0.0
C2416 C 0.37902 0.86854 0.44208 0.0
C2417 C 0.33914 0.89399 0.46801 0.0
C2418 C 0.38527 0.88301 0.49271 0.0
C2419 C 0.38751 0.86352 0.51432 0.0
C2420 C 0.40652 0.86743 0.53648 0.0
C2421 C 0.42384 0.89171 0.53635 0.0
C2422 C 0.42169 0.91191 0.51447 0.0
C2423 C 0.40208 0.90752 0.49252 0.0
H2424 H 0.17193 0.306 0.48392 0.0
H2425 H 0.22125 0.32223 0.55937 0.0
H2426 H 0.19246 0.36531 0.56821 0.0
H2427 H 0.15733 0.3796 0.46379 0.0
H2428 H 0.12151 0.37141 0.45287 0.0
H2429 H 0.14901 0.34487 0.45025 0.0
H2430 H 0.11809 0.31068 0.48008 0.0
H2431 H 0.09078 0.33731 0.48319 0.0
H2432 H 0.10597 0.32175 0.51436 0.0
H2433 H 0.15585 0.40495 0.57034 0.0
H2434 H 0.11538 0.43821 0.56514 0.0
H2435 H 0.08678 0.39227 0.49149 0.0
C2436 C 0.17697 0.31869 0.50223 0.0
C2437 C 0.19889 0.3105 0.52105 0.0
C2438 C 0.20492 0.32812 0.54443 0.0
C2439 C 0.18845 0.3525 0.54976 0.0
C2440 C 0.16597 0.35889 0.53161 0.0
C2441 C 0.16034 0.34251 0.50822 0.0
C2442 C 0.13371 0.35248 0.49313 0.0
C2443 C 0.14083 0.36271 0.46324 0.0
C2444 C 0.11079 0.32916 0.49268 0.0
C2445 C 0.12493 0.37691 0.51186 0.0
C2446 C 0.14405 0.38053 0.53371 0.0
C2447 C 0.14077 0.40221 0.55337 0.0
C2448 C 0.11769 0.42087 0.55033 0.0
C2449 C 0.09784 0.41739 0.5282 0.0
C2450 C 0.10135 0.39495 0.50892 0.0
H2451 H 0.29875 0.16111 0.56009 0.0
H2452 H 0.33203 0.23149 0.51144 0.0
H2453 H 0.37296 0.20183 0.49673 0.0
H2454 H 0.36626 0.13432 0.58437 0.0
H2455 H 0.35588 0.09762 0.58176 0.0
H2456 H 0.32938 0.12443 0.58841 0.0
H2457 H 0.30095 0.10741 0.54492 0.0
H2458 H 0.32752 0.0807 0.538 0.0
H2459 H 0.31828 0.10597 0.5111 0.0
H2460 H 0.41033 0.16496 0.48797 0.0
H2461 H 0.44264 0.12388 0.48635 0.0
H2462 H 0.38483 0.07638 0.53982 0.0
C2463 C 0.31477 0.17029 0.54644 0.0
C2464 C 0.31234 0.19861 0.53695 0.0
C2465 C 0.33353 0.20989 0.51899 0.0
C2466 C 0.35678 0.19316 0.51048 0.0
C2467 C 0.35839 0.16521 0.52001 0.0
C2468 C 0.338 0.15383 0.53764 0.0
C2469 C 0.34484 0.12322 0.54492 0.0
C2470 C 0.34937 0.11971 0.57676 0.0
C2471 C 0.32151 0.10314 0.53408 0.0
C2472 C 0.37245 0.11917 0.52881 0.0
C2473 C 0.37978 0.14371 0.51459 0.0
C2474 C 0.40475 0.14565 0.49894 0.0
C2475 C 0.42298 0.12216 0.4982 0.0
C2476 C 0.41624 0.09687 0.51292 0.0
C2477 C 0.39035 0.09524 0.52805 0.0
H2478 H 0.84988 0.30768 0.56593 0.0
H2479 H 0.77979 0.33609 0.51382 0.0
H2480 H 0.8088 0.3772 0.49822 0.0
H2481 H 0.87475 0.3757 0.58807 0.0
H2482 H 0.91193 0.36622 0.5864 0.0
H2483 H 0.88558 0.33941 0.59337 0.0
H2484 H 0.90415 0.31013 0.55105 0.0
H2485 H 0.93052 0.33694 0.54401 0.0
H2486 H 0.90604 0.32637 0.51679 0.0
H2487 H 0.8449 0.41674 0.49071 0.0
H2488 H 0.88587 0.4497 0.48928 0.0
H2489 H 0.93363 0.39335 0.54367 0.0
C2490 C 0.84065 0.32259 0.55121 0.0
C2491 C 0.81254 0.31888 0.54118 0.0
C2492 C 0.80125 0.33859 0.52176 0.0
C2493 C 0.81759 0.36197 0.51283 0.0
C2494 C 0.84528 0.36502 0.52321 0.0
C2495 C 0.85682 0.34566 0.54176 0.0
C2496 C 0.88722 0.35341 0.54945 0.0
C2497 C 0.89001 0.35903 0.5812 0.0
C2498 C 0.90822 0.33034 0.53973 0.0
C2499 C 0.89094 0.38043 0.53263 0.0
C2500 C 0.86644 0.3869 0.5178 0.0
C2501 C 0.86426 0.41166 0.50195 0.0
C2502 C 0.88761 0.43028 0.50131 0.0
C2503 C 0.91302 0.4239 0.51607 0.0
C2504 C 0.9147 0.39849 0.53171 0.0
H2505 H 0.17019 0.71806 0.53484 0.0
H2506 H 0.23271 0.68276 0.47702 0.0
H2507 H 0.20496 0.63854 0.47478 0.0
H2508 H 0.15138 0.65326 0.57125 0.0
H2509 H 0.11404 0.66204 0.5731 0.0
H2510 H 0.14033 0.68986 0.57259 0.0
H2511 H 0.11558 0.71226 0.52928 0.0
H2512 H 0.08932 0.68443 0.52961 0.0
H2513 H 0.10991 0.69102 0.49827 0.0
H2514 H 0.16963 0.59882 0.47724 0.0
H2515 H 0.12894 0.56647 0.48377 0.0
H2516 H 0.08701 0.62905 0.5365 0.0
C2517 C 0.17816 0.70119 0.52157 0.0
C2518 C 0.2039 0.70419 0.50613 0.0
C2519 C 0.21352 0.68106 0.48955 0.0
C2520 C 0.19772 0.65586 0.48792 0.0
C2521 C 0.17215 0.65408 0.50275 0.0
C2522 C 0.16238 0.67613 0.51921 0.0
C2523 C 0.13342 0.66938 0.53182 0.0
C2524 C 0.1349 0.66858 0.56411 0.0
C2525 C 0.11072 0.69053 0.52163 0.0
C2526 C 0.12838 0.64007 0.51974 0.0
C2527 C 0.15116 0.63158 0.50327 0.0
C2528 C 0.15171 0.60523 0.4901 0.0
C2529 C 0.1285 0.58699 0.49401 0.0
C2530 C 0.10482 0.59524 0.51066 0.0
C2531 C 0.10472 0.62227 0.52349 0.0
loop_
_geom_bond_atom_site_label_1
_geom_bond_atom_site_label_2
_geom_bond_distance
_geom_bond_site_symmetry_2
_ccdc_geom_bond_type
H0 C5 0.933 . S
H1 C8 0.929 1_655 S
H2 C10 0.930 . S
H3 C4 1.016 . S
C4 H3 1.016 . S
C4 N11 1.286 1_455 S
C5 H0 0.933 . S
C5 C6 1.393 1_655 S
C5 C7 1.362 . S
C6 C5 1.393 1_455 S
C6 C10 1.390 . S
C7 C5 1.362 . S
C7 C8 1.392 1_655 S
C7 N11 1.413 . S
C8 H1 0.929 1_455 S
C8 C7 1.392 1_455 S
C8 C9 1.402 . S
C9 C8 1.402 . S
C9 C10 1.381 . S
C10 H2 0.930 . S
C10 C6 1.390 . S
C10 C9 1.381 . S
N11 C4 1.286 1_655 S
N11 C7 1.413 . S
H12 C17 0.930 . S
H13 C20 0.930 . S
H14 C22 0.930 . S
H15 C16 1.020 . S
C16 H15 1.020 . S
C16 N23 1.280 1_565 S
C17 H12 0.930 . S
C17 C18 1.397 . S
C17 C19 1.361 . S
C18 C17 1.397 . S
C18 C22 1.390 1_545 S
C19 C17 1.361 . S
C19 C20 1.393 . S
C19 N23 1.413 . S
C20 H13 0.930 . S
C20 C19 1.393 . S
C20 C21 1.399 . S
C21 C20 1.399 . S
C21 C22 1.381 1_545 S
C22 H14 0.930 . S
C22 C18 1.390 1_565 S
C22 C21 1.381 1_565 S
N23 C16 1.280 1_545 S
N23 C19 1.413 . S
H24 C29 0.934 . S
H25 C32 0.928 1_655 S
H26 C34 0.930 . S
H27 C28 1.016 . S
C28 H27 1.016 . S
C28 N35 1.286 1_455 S
C29 H24 0.934 . S
C29 C30 1.392 1_655 S
C29 C31 1.363 . S
C30 C29 1.392 1_455 S
C30 C34 1.390 . S
C31 C29 1.363 . S
C31 C32 1.390 1_655 S
C31 N35 1.413 . S
C32 H25 0.928 1_455 S
C32 C31 1.390 1_455 S
C32 C33 1.405 . S
C33 C32 1.405 . S
C33 C34 1.381 . S
C34 H26 0.930 . S
C34 C30 1.390 . S
C34 C33 1.381 . S
N35 C28 1.286 1_655 S
N35 C31 1.413 . S
H36 C41 0.930 . S
H37 C44 0.930 . S
H38 C46 0.930 . S
H39 C40 1.016 . S
C40 H39 1.016 . S
C40 N47 1.286 1_545 S
C41 H36 0.930 . S
C41 C42 1.404 . S
C41 C43 1.361 . S
C42 C41 1.404 . S
C42 C46 1.386 1_565 S
C43 C41 1.361 . S
C43 C44 1.393 . S
C43 N47 1.413 . S
C44 H37 0.930 . S
C44 C43 1.393 . S
C44 C45 1.399 . S
C45 C44 1.399 . S
C45 C46 1.380 1_565 S
C46 H38 0.930 . S
C46 C42 1.386 1_545 S
C46 C45 1.380 1_545 S
N47 C40 1.286 1_565 S
N47 C43 1.413 . S
H48 C53 0.935 . S
H49 C56 0.930 1_655 S
H50 C58 0.930 . S
H51 C52 1.016 . S
C52 H51 1.016 . S
C52 N59 1.286 1_455 S
C53 H48 0.935 . S
C53 C54 1.391 1_655 S
C53 C55 1.363 . S
C54 C53 1.391 1_455 S
C54 C58 1.390 . S
C55 C53 1.363 . S
C55 C56 1.393 1_655 S
C55 N59 1.413 . S
C56 H49 0.930 1_455 S
C56 C55 1.393 1_455 S
C56 C57 1.400 . S
C57 C56 1.400 . S
C57 C58 1.381 . S
C58 H50 0.930 . S
C58 C54 1.390 . S
C58 C57 1.381 . S
N59 C52 1.286 1_655 S
N59 C55 1.413 . S
H60 C65 0.930 . S
H61 C68 0.930 . S
H62 C70 0.930 . S
H63 C64 1.026 . S
C64 H63 1.026 . S
C64 N71 1.272 1_565 S
C65 H60 0.930 . S
C65 C66 1.397 . S
C65 C67 1.361 . S
C66 C65 1.397 . S
C66 C70 1.390 1_545 S
C67 C65 1.361 . S
C67 C68 1.393 . S
C67 N71 1.413 . S
C68 H61 0.930 . S
C68 C67 1.393 . S
C68 C69 1.404 . S
C69 C68 1.404 . S
C69 C70 1.378 1_545 S
C70 H62 0.930 . S
C70 C66 1.390 1_565 S
C70 C69 1.378 1_565 S
N71 C64 1.272 1_545 S
N71 C67 1.413 . S
H72 C77 0.937 . S
H73 C80 0.928 1_655 S
H74 C82 0.930 . S
H75 C76 1.016 . S
C76 H75 1.016 . S
C76 N83 1.286 1_455 S
C77 H72 0.937 . S
C77 C78 1.390 1_655 S
C77 C79 1.363 . S
C78 C77 1.390 1_455 S
C78 C82 1.390 . S
C79 C77 1.363 . S
C79 C80 1.391 1_655 S
C79 N83 1.413 . S
C80 H73 0.928 1_455 S
C80 C79 1.391 1_455 S
C80 C81 1.403 . S
C81 C80 1.403 . S
C81 C82 1.381 . S
C82 H74 0.930 . S
C82 C78 1.390 . S
C82 C81 1.381 . S
N83 C76 1.286 1_655 S
N83 C79 1.413 . S
H84 C89 0.930 . S
H85 C92 0.930 . S
H86 C94 0.930 . S
H87 C88 1.026 . S
C88 H87 1.026 . S
C88 N95 1.272 1_565 S
C89 H84 0.930 . S
C89 C90 1.397 . S
C89 C91 1.361 . S
C90 C89 1.397 . S
C90 C94 1.390 1_545 S
C91 C89 1.361 . S
C91 C92 1.393 . S
C91 N95 1.413 . S
C92 H85 0.930 . S
C92 C91 1.393 . S
C92 C93 1.404 . S
C93 C92 1.404 . S
C93 C94 1.378 1_545 S
C94 H86 0.930 . S
C94 C90 1.390 1_565 S
C94 C93 1.378 1_565 S
N95 C88 1.272 1_545 S
N95 C91 1.413 . S
H96 C101 0.930 . S
H97 C104 0.930 . S
H98 C106 0.930 . S
H99 C100 1.018 1_556 S
C100 H99 1.018 1_554 S
C100 N107 1.286 . S
C101 H96 0.930 . S
C101 C102 1.397 . S
C101 C103 1.361 . S
C102 C101 1.397 . S
C102 C106 1.390 . S
C103 C101 1.361 . S
C103 C104 1.393 . S
C103 N107 1.413 . S
C104 H97 0.930 . S
C104 C103 1.393 . S
C104 C105 1.399 . S
C105 C104 1.399 . S
C105 C106 1.381 . S
C106 H98 0.930 . S
C106 C102 1.390 . S
C106 C105 1.381 . S
N107 C100 1.286 . S
N107 C103 1.413 . S
H108 C113 0.926 1_556 S
H109 C116 0.930 . S
H110 C118 0.930 . S
H111 C112 1.016 . S
C112 H111 1.016 . S
C112 N119 1.286 1_554 S
C113 H108 0.926 1_554 S
C113 C114 1.397 . S
C113 C115 1.363 . S
C114 C113 1.397 . S
C114 C118 1.390 . S
C115 C113 1.363 . S
C115 C116 1.396 . S
C115 N119 1.409 1_554 S
C116 H109 0.930 . S
C116 C115 1.396 . S
C116 C117 1.399 . S
C117 C116 1.399 . S
C117 C118 1.381 . S
C118 H110 0.930 . S
C118 C114 1.390 . S
C118 C117 1.381 . S
N119 C112 1.286 1_556 S
N119 C115 1.409 1_556 S
H120 C125 0.930 . S
H121 C128 0.930 . S
H122 C130 0.930 . S
H123 C124 1.016 . S
C124 H123 1.016 . S
C124 N131 1.286 . S
C125 H120 0.930 . S
C125 C126 1.397 . S
C125 C127 1.361 . S
C126 C125 1.397 . S
C126 C130 1.390 . S
C127 C125 1.361 . S
C127 C128 1.393 . S
C127 N131 1.413 . S
C128 H121 0.930 . S
C128 C127 1.393 . S
C128 C129 1.399 . S
C129 C128 1.399 . S
C129 C130 1.381 . S
C130 H122 0.930 . S
C130 C126 1.390 . S
C130 C129 1.381 . S
N131 C124 1.286 . S
N131 C127 1.413 . S
H132 C137 0.926 1_556 S
H133 C140 0.930 . S
H134 C142 0.930 . S
H135 C136 1.016 . S
C136 H135 1.016 . S
C136 N143 1.286 1_554 S
C137 H132 0.926 1_554 S
C137 C138 1.397 . S
C137 C139 1.361 . S
C138 C137 1.397 . S
C138 C142 1.390 . S
C139 C137 1.361 . S
C139 C140 1.393 . S
C139 N143 1.413 1_554 S
C140 H133 0.930 . S
C140 C139 1.393 . S
C140 C141 1.399 . S
C141 C140 1.399 . S
C141 C142 1.381 . S
C142 H134 0.930 . S
C142 C138 1.390 . S
C142 C141 1.381 . S
N143 C136 1.286 1_556 S
N143 C139 1.413 1_556 S
H144 C149 0.930 . S
H145 C152 0.930 . S
H146 C154 0.930 . S
H147 C148 1.016 . S
C148 H147 1.016 . S
C148 N155 1.286 . S
C149 H144 0.930 . S
C149 C150 1.397 . S
C149 C151 1.361 . S
C150 C149 1.397 . S
C150 C154 1.390 . S
C151 C149 1.361 . S
C151 C152 1.393 . S
C151 N155 1.413 . S
C152 H145 0.930 . S
C152 C151 1.393 . S
C152 C153 1.399 . S
C153 C152 1.399 . S
C153 C154 1.381 . S
C154 H146 0.930 . S
C154 C150 1.390 . S
C154 C153 1.381 . S
N155 C148 1.286 . S
N155 C151 1.413 . S
H156 C161 0.930 . S
H157 C164 0.930 . S
H158 C166 0.930 . S
H159 C160 1.016 . S
C160 H159 1.016 . S
C160 N167 1.286 . S
C161 H156 0.930 . S
C161 C162 1.397 . S
C161 C163 1.361 . S
C162 C161 1.397 . S
C162 C166 1.390 . S
C163 C161 1.361 . S
C163 C164 1.393 . S
C163 N167 1.413 . S
C164 H157 0.930 . S
C164 C163 1.393 . S
C164 C165 1.399 . S
C165 C164 1.399 . S
C165 C166 1.381 . S
C166 H158 0.930 . S
C166 C162 1.390 . S
C166 C165 1.381 . S
N167 C160 1.286 . S
N167 C163 1.413 . S
H168 C173 0.930 . S
H169 C176 0.930 . S
H170 C178 0.930 . S
H171 C172 1.016 . S
C172 H171 1.016 . S
C172 N179 1.286 . S
C173 H168 0.930 . S
C173 C174 1.397 . S
C173 C175 1.361 . S
C174 C173 1.397 . S
C174 C178 1.390 . S
C175 C173 1.361 . S
C175 C176 1.393 . S
C175 N179 1.413 . S
C176 H169 0.930 . S
C176 C175 1.393 . S
C176 C177 1.399 . S
C177 C176 1.399 . S
C177 C178 1.381 . S
C178 H170 0.930 . S
C178 C174 1.390 . S
C178 C177 1.381 . S
N179 C172 1.286 . S
N179 C175 1.413 . S
H180 C185 0.930 . S
H181 C188 0.930 . S
H182 C190 0.930 . S
H183 C184 1.016 . S
C184 H183 1.016 . S
C184 N191 1.286 . S
C185 H180 0.930 . S
C185 C186 1.397 . S
C185 C187 1.361 . S
C186 C185 1.397 . S
C186 C190 1.390 . S
C187 C185 1.361 . S
C187 C188 1.393 . S
C187 N191 1.413 . S
C188 H181 0.930 . S
C188 C187 1.393 . S
C188 C189 1.399 . S
C189 C188 1.399 . S
C189 C190 1.381 . S
C190 H182 0.930 . S
C190 C186 1.390 . S
C190 C189 1.381 . S
N191 C184 1.286 . S
N191 C187 1.413 . S
H192 C197 0.930 . S
H193 C200 0.930 . S
H194 C202 0.930 . S
H195 C196 1.016 . S
C196 H195 1.016 . S
C196 N203 1.286 . S
C197 H192 0.930 . S
C197 C198 1.397 . S
C197 C199 1.361 . S
C198 C197 1.397 . S
C198 C202 1.390 . S
C199 C197 1.361 . S
C199 C200 1.393 . S
C199 N203 1.413 . S
C200 H193 0.930 . S
C200 C199 1.393 . S
C200 C201 1.399 . S
C201 C200 1.399 . S
C201 C202 1.381 . S
C202 H194 0.930 . S
C202 C198 1.390 . S
C202 C201 1.381 . S
N203 C196 1.286 . S
N203 C199 1.413 . S
H204 C209 0.930 . S
H205 C212 0.930 . S
H206 C214 0.930 . S
H207 C208 1.016 . S
C208 H207 1.016 . S
C208 N215 1.286 . S
C209 H204 0.930 . S
C209 C210 1.397 . S
C209 C211 1.361 . S
C210 C209 1.397 . S
C210 C214 1.390 . S
C211 C209 1.361 . S
C211 C212 1.393 . S
C211 N215 1.413 . S
C212 H205 0.930 . S
C212 C211 1.393 . S
C212 C213 1.399 . S
C213 C212 1.399 . S
C213 C214 1.381 . S
C214 H206 0.930 . S
C214 C210 1.390 . S
C214 C213 1.381 . S
N215 C208 1.286 . S
N215 C211 1.413 . S
H216 C221 0.930 . S
H217 C224 0.930 . S
H218 C226 0.930 . S
H219 C220 1.016 . S
C220 H219 1.016 . S
C220 N227 1.286 . S
C221 H216 0.930 . S
C221 C222 1.397 . S
C221 C223 1.361 . S
C222 C221 1.397 . S
C222 C226 1.390 . S
C223 C221 1.361 . S
C223 C224 1.393 . S
C223 N227 1.413 . S
C224 H217 0.930 . S
C224 C223 1.393 . S
C224 C225 1.399 . S
C225 C224 1.399 . S
C225 C226 1.381 . S
C226 H218 0.930 . S
C226 C222 1.390 . S
C226 C225 1.381 . S
N227 C220 1.286 . S
N227 C223 1.413 . S
H228 C233 0.930 . S
H229 C236 0.930 . S
H230 C238 0.930 . S
H231 C232 1.016 . S
C232 H231 1.016 . S
C232 N239 1.286 . S
C233 H228 0.930 . S
C233 C234 1.397 . S
C233 C235 1.361 . S
C234 C233 1.397 . S
C234 C238 1.390 . S
C235 C233 1.361 . S
C235 C236 1.393 . S
C235 N239 1.413 . S
C236 H229 0.930 . S
C236 C235 1.393 . S
C236 C237 1.399 . S
C237 C236 1.399 . S
C237 C238 1.381 . S
C238 H230 0.930 . S
C238 C234 1.390 . S
C238 C237 1.381 . S
N239 C232 1.286 . S
N239 C235 1.413 . S
H240 C245 0.930 . S
H241 C248 0.930 . S
H242 C250 0.930 . S
H243 C244 1.016 . S
C244 H243 1.016 . S
C244 N251 1.286 . S
C245 H240 0.930 . S
C245 C246 1.397 . S
C245 C247 1.361 . S
C246 C245 1.397 . S
C246 C250 1.390 . S
C247 C245 1.361 . S
C247 C248 1.393 . S
C247 N251 1.413 . S
C248 H241 0.930 . S
C248 C247 1.393 . S
C248 C249 1.399 . S
C249 C248 1.399 . S
C249 C250 1.381 . S
C250 H242 0.930 . S
C250 C246 1.390 . S
C250 C249 1.381 . S
N251 C244 1.286 . S
N251 C247 1.413 . S
H252 C257 0.930 . S
H253 C260 0.930 . S
H254 C262 0.930 . S
H255 C256 1.016 . S
C256 H255 1.016 . S
C256 N263 1.286 . S
C257 H252 0.930 . S
C257 C258 1.397 . S
C257 C259 1.361 . S
C258 C257 1.397 . S
C258 C262 1.390 . S
C259 C257 1.361 . S
C259 C260 1.393 . S
C259 N263 1.413 . S
C260 H253 0.930 . S
C260 C259 1.393 . S
C260 C261 1.399 . S
C261 C260 1.399 . S
C261 C262 1.381 . S
C262 H254 0.930 . S
C262 C258 1.390 . S
C262 C261 1.381 . S
N263 C256 1.286 . S
N263 C259 1.413 . S
H264 C269 0.930 . S
H265 C272 0.930 . S
H266 C274 0.930 . S
H267 C268 1.016 . S
C268 H267 1.016 . S
C268 N275 1.286 . S
C269 H264 0.930 . S
C269 C270 1.397 . S
C269 C271 1.361 . S
C270 C269 1.397 . S
C270 C274 1.390 . S
C271 C269 1.361 . S
C271 C272 1.393 . S
C271 N275 1.413 . S
C272 H265 0.930 . S
C272 C271 1.393 . S
C272 C273 1.399 . S
C273 C272 1.399 . S
C273 C274 1.381 . S
C274 H266 0.930 . S
C274 C270 1.390 . S
C274 C273 1.381 . S
N275 C268 1.286 . S
N275 C271 1.413 . S
H276 C281 0.930 . S
H277 C284 0.930 . S
H278 C286 0.930 . S
H279 C280 1.016 . S
C280 H279 1.016 . S
C280 N287 1.286 . S
C281 H276 0.930 . S
C281 C282 1.397 . S
C281 C283 1.361 . S
C282 C281 1.397 . S
C282 C286 1.390 . S
C283 C281 1.361 . S
C283 C284 1.393 . S
C283 N287 1.413 . S
C284 H277 0.930 . S
C284 C283 1.393 . S
C284 C285 1.399 . S
C285 C284 1.399 . S
C285 C286 1.381 . S
C286 H278 0.930 . S
C286 C282 1.390 . S
C286 C285 1.381 . S
N287 C280 1.286 . S
N287 C283 1.413 . S
C288 O314 1.283 . S
C288 O332 1.283 . S
C289 O315 1.283 . S
C289 O330 1.283 . S
C290 O316 1.283 . S
C290 O333 1.283 . S
C291 O317 1.283 . S
C291 O331 1.283 . S
C292 O318 1.283 . S
C292 O327 1.283 . S
C293 O319 1.283 . S
C293 O329 1.283 . S
C294 O320 1.283 . S
C294 O326 1.283 . S
C295 O321 1.283 . S
C295 O328 1.283 . S
C296 O322 1.283 . S
C296 O337 1.283 . S
C297 O323 1.283 . S
C297 O335 1.283 . S
C298 O324 1.283 . S
C298 O336 1.283 . S
C299 O325 1.283 . S
C299 O334 1.283 . S
Eu300 O301 2.370 1_455 S
Eu300 O302 2.370 . S
Eu300 O305 2.370 1_455 S
Eu300 O306 2.370 . S
Eu300 O314 2.363 . S
Eu300 O315 2.363 . S
Eu300 O328 2.363 . S
Eu300 O329 2.363 1_455 S
O301 Eu300 2.370 1_655 S
O301 Eu303 2.367 1_565 S
O301 Eu308 2.366 1_665 S
O302 Eu300 2.370 . S
O302 Eu304 2.367 1_565 S
O302 Eu307 2.368 1_565 S
Eu303 O301 2.367 1_545 S
Eu303 O305 2.367 1_545 S
Eu303 O309 2.373 . S
Eu303 O310 2.373 . S
Eu303 O318 2.368 . S
Eu303 O319 2.358 1_545 S
Eu303 O334 2.363 . S
Eu303 O335 2.363 . S
Eu304 O302 2.367 1_545 S
Eu304 O306 2.367 1_545 S
Eu304 O311 2.373 . S
Eu304 O312 2.373 . S
Eu304 O320 2.368 . S
Eu304 O321 2.358 1_545 S
Eu304 O336 2.363 . S
Eu304 O337 2.363 . S
O305 Eu300 2.370 1_655 S
O305 Eu303 2.367 1_565 S
O305 Eu307 2.368 1_665 S
O306 Eu300 2.370 . S
O306 Eu304 2.367 1_565 S
O306 Eu308 2.366 1_565 S
Eu307 O302 2.368 1_545 S
Eu307 O305 2.368 1_445 S
Eu307 O309 2.372 1_455 S
Eu307 O312 2.372 . S
Eu307 O324 2.363 . S
Eu307 O325 2.363 1_455 S
Eu307 O332 2.359 1_545 S
Eu307 O333 2.367 . S
Eu308 O301 2.366 1_445 S
Eu308 O306 2.366 1_545 S
Eu308 O310 2.374 1_455 S
Eu308 O311 2.374 . S
Eu308 O322 2.363 . S
Eu308 O323 2.363 1_455 S
Eu308 O330 2.356 1_545 S
Eu308 O331 2.370 . S
O309 Eu303 2.373 . S
O309 Eu307 2.372 1_655 S
O309 Eu313 2.370 1_655 S
O310 Eu303 2.373 . S
O310 Eu308 2.374 1_655 S
O310 Eu313 2.370 1_655 S
O311 Eu304 2.373 . S
O311 Eu308 2.374 . S
O311 Eu313 2.370 . S
O312 Eu304 2.373 . S
O312 Eu307 2.372 . S
O312 Eu313 2.370 . S
Eu313 O309 2.370 1_455 S
Eu313 O310 2.370 1_455 S
Eu313 O311 2.370 . S
Eu313 O312 2.370 . S
Eu313 O316 2.363 . S
Eu313 O317 2.363 . S
Eu313 O326 2.363 . S
Eu313 O327 2.363 1_455 S
O314 C288 1.283 . S
O314 Eu300 2.363 . S
O315 C289 1.283 . S
O315 Eu300 2.363 . S
O316 C290 1.283 . S
O316 Eu313 2.363 . S
O317 C291 1.283 . S
O317 Eu313 2.363 . S
O318 C292 1.283 . S
O318 Eu303 2.368 . S
O319 C293 1.283 . S
O319 Eu303 2.358 1_565 S
O320 C294 1.283 . S
O320 Eu304 2.368 . S
O321 C295 1.283 . S
O321 Eu304 2.358 1_565 S
O322 C296 1.283 . S
O322 Eu308 2.363 . S
O323 C297 1.283 . S
O323 Eu308 2.363 1_655 S
O324 C298 1.283 . S
O324 Eu307 2.363 . S
O325 C299 1.283 . S
O325 Eu307 2.363 1_655 S
O326 C294 1.283 . S
O326 Eu313 2.363 . S
O327 C292 1.283 . S
O327 Eu313 2.363 1_655 S
O328 C295 1.283 . S
O328 Eu300 2.363 . S
O329 C293 1.283 . S
O329 Eu300 2.363 1_655 S
O330 C289 1.283 . S
O330 Eu308 2.356 1_565 S
O331 C291 1.283 . S
O331 Eu308 2.370 . S
O332 C288 1.283 . S
O332 Eu307 2.359 1_565 S
O333 C290 1.283 . S
O333 Eu307 2.367 . S
O334 C299 1.283 . S
O334 Eu303 2.363 . S
O335 C297 1.283 . S
O335 Eu303 2.363 . S
O336 C298 1.283 . S
O336 Eu304 2.363 . S
O337 C296 1.283 . S
O337 Eu304 2.363 . S
C338 O364 1.283 . S
C338 O382 1.283 . S
C339 O365 1.283 . S
C339 O380 1.283 . S
C340 O366 1.283 . S
C340 O383 1.283 . S
C341 O367 1.283 . S
C341 O381 1.283 . S
C342 O368 1.283 . S
C342 O377 1.283 . S
C343 O369 1.283 . S
C343 O379 1.283 . S
C344 O370 1.283 . S
C344 O376 1.283 . S
C345 O371 1.283 . S
C345 O378 1.283 . S
C346 O372 1.283 . S
C346 O387 1.283 . S
C347 O373 1.283 . S
C347 O385 1.283 . S
C348 O374 1.283 . S
C348 O386 1.283 . S
C349 O375 1.283 . S
C349 O384 1.283 . S
Eu350 O351 2.374 . S
Eu350 O352 2.366 1_545 S
Eu350 O355 2.366 1_545 S
Eu350 O356 2.374 . S
Eu350 O364 2.356 1_545 S
Eu350 O365 2.370 . S
Eu350 O378 2.363 . S
Eu350 O379 2.363 . S
O351 Eu350 2.374 . S
O351 Eu353 2.373 . S
O351 Eu358 2.370 . S
O352 Eu350 2.366 1_565 S
O352 Eu354 2.367 1_565 S
O352 Eu357 2.370 . S
Eu353 O351 2.373 . S
Eu353 O355 2.367 1_545 S
Eu353 O359 2.367 1_544 S
Eu353 O360 2.373 1_554 S
Eu353 O368 2.363 1_554 S
Eu353 O369 2.363 . S
Eu353 O384 2.358 1_545 S
Eu353 O385 2.368 . S
Eu354 O352 2.367 1_545 S
Eu354 O356 2.373 . S
Eu354 O361 2.373 1_554 S
Eu354 O362 2.367 1_544 S
Eu354 O370 2.363 1_554 S
Eu354 O371 2.363 . S
Eu354 O386 2.358 1_545 S
Eu354 O387 2.368 . S
O355 Eu350 2.366 1_565 S
O355 Eu353 2.367 1_565 S
O355 Eu357 2.370 . S
O356 Eu350 2.374 . S
O356 Eu354 2.373 . S
O356 Eu358 2.370 . S
Eu357 O352 2.370 . S
Eu357 O355 2.370 . S
Eu357 O359 2.370 1_554 S
Eu357 O362 2.370 1_554 S
Eu357 O374 2.363 . S
Eu357 O375 2.363 . S
Eu357 O382 2.363 . S
Eu357 O383 2.363 1_554 S
Eu358 O351 2.370 . S
Eu358 O356 2.370 . S
Eu358 O360 2.370 1_554 S
Eu358 O361 2.370 1_554 S
Eu358 O372 2.363 . S
Eu358 O373 2.363 . S
Eu358 O380 2.363 . S
Eu358 O381 2.363 1_554 S
O359 Eu353 2.367 1_566 S
O359 Eu357 2.370 1_556 S
O359 Eu363 2.368 1_565 S
O360 Eu353 2.373 1_556 S
O360 Eu358 2.370 1_556 S
O360 Eu363 2.372 . S
O361 Eu354 2.373 1_556 S
O361 Eu358 2.370 1_556 S
O361 Eu363 2.372 . S
O362 Eu354 2.367 1_566 S
O362 Eu357 2.370 1_556 S
O362 Eu363 2.368 1_565 S
Eu363 O359 2.368 1_545 S
Eu363 O360 2.372 . S
Eu363 O361 2.372 . S
Eu363 O362 2.368 1_545 S
Eu363 O366 2.360 1_545 S
Eu363 O367 2.366 . S
Eu363 O376 2.363 . S
Eu363 O377 2.363 . S
O364 C338 1.283 . S
O364 Eu350 2.356 1_565 S
O365 C339 1.283 . S
O365 Eu350 2.370 . S
O366 C340 1.283 . S
O366 Eu363 2.360 1_565 S
O367 C341 1.283 . S
O367 Eu363 2.366 . S
O368 C342 1.283 . S
O368 Eu353 2.363 1_556 S
O369 C343 1.283 . S
O369 Eu353 2.363 . S
O370 C344 1.283 . S
O370 Eu354 2.363 1_556 S
O371 C345 1.283 . S
O371 Eu354 2.363 . S
O372 C346 1.283 . S
O372 Eu358 2.363 . S
O373 C347 1.283 . S
O373 Eu358 2.363 . S
O374 C348 1.283 . S
O374 Eu357 2.363 . S
O375 C349 1.283 . S
O375 Eu357 2.363 . S
O376 C344 1.283 . S
O376 Eu363 2.363 . S
O377 C342 1.283 . S
O377 Eu363 2.363 . S
O378 C345 1.283 . S
O378 Eu350 2.363 . S
O379 C343 1.283 . S
O379 Eu350 2.363 . S
O380 C339 1.283 . S
O380 Eu358 2.363 . S
O381 C341 1.283 . S
O381 Eu358 2.363 1_556 S
O382 C338 1.283 . S
O382 Eu357 2.363 . S
O383 C340 1.283 . S
O383 Eu357 2.363 1_556 S
O384 C349 1.283 . S
O384 Eu353 2.358 1_565 S
O385 C347 1.283 . S
O385 Eu353 2.368 . S
O386 C348 1.283 . S
O386 Eu354 2.358 1_565 S
O387 C346 1.283 . S
O387 Eu354 2.368 . S
C388 O414 1.283 . S
C388 O432 1.283 . S
C389 O415 1.283 . S
C389 O430 1.283 . S
C390 O416 1.283 . S
C390 O433 1.283 . S
C391 O417 1.283 . S
C391 O431 1.283 . S
C392 O418 1.283 . S
C392 O427 1.283 . S
C393 O419 1.283 . S
C393 O429 1.283 . S
C394 O420 1.283 . S
C394 O426 1.283 . S
C395 O421 1.283 . S
C395 O428 1.283 . S
C396 O422 1.283 . S
C396 O437 1.283 . S
C397 O423 1.283 . S
C397 O435 1.283 . S
C398 O424 1.283 . S
C398 O436 1.283 . S
C399 O425 1.283 . S
C399 O434 1.283 . S
Eu400 O401 2.370 1_454 S
Eu400 O402 2.370 . S
Eu400 O405 2.370 1_455 S
Eu400 O406 2.370 1_554 S
Eu400 O414 2.363 . S
Eu400 O415 2.363 1_554 S
Eu400 O428 2.363 . S
Eu400 O429 2.363 1_455 S
O401 Eu400 2.370 1_656 S
O401 Eu403 2.370 1_556 S
O401 Eu408 2.370 1_655 S
O402 Eu400 2.370 . S
O402 Eu404 2.370 . S
O402 Eu407 2.370 . S
Eu403 O401 2.370 1_554 S
Eu403 O405 2.370 . S
Eu403 O409 2.370 . S
Eu403 O410 2.370 1_554 S
Eu403 O418 2.363 . S
Eu403 O419 2.363 . S
Eu403 O434 2.363 . S
Eu403 O435 2.363 1_554 S
Eu404 O402 2.370 . S
Eu404 O406 2.370 1_554 S
Eu404 O411 2.370 1_554 S
Eu404 O412 2.370 . S
Eu404 O420 2.363 . S
Eu404 O421 2.363 . S
Eu404 O436 2.363 . S
Eu404 O437 2.363 1_554 S
O405 Eu400 2.370 1_655 S
O405 Eu403 2.370 . S
O405 Eu407 2.370 1_655 S
O406 Eu400 2.370 1_556 S
O406 Eu404 2.370 1_556 S
O406 Eu408 2.370 . S
Eu407 O402 2.370 . S
Eu407 O405 2.370 1_455 S
Eu407 O409 2.370 1_455 S
Eu407 O412 2.370 . S
Eu407 O424 2.363 . S
Eu407 O425 2.363 1_455 S
Eu407 O432 2.363 . S
Eu407 O433 2.363 . S
Eu408 O401 2.370 1_455 S
Eu408 O406 2.370 . S
Eu408 O410 2.370 1_455 S
Eu408 O411 2.370 . S
Eu408 O422 2.363 . S
Eu408 O423 2.363 1_455 S
Eu408 O430 2.363 . S
Eu408 O431 2.363 . S
O409 Eu403 2.370 . S
O409 Eu407 2.370 1_655 S
O409 Eu413 2.370 1_655 S
O410 Eu403 2.370 1_556 S
O410 Eu408 2.370 1_655 S
O410 Eu413 2.370 1_656 S
O411 Eu404 2.370 1_556 S
O411 Eu408 2.370 . S
O411 Eu413 2.370 1_556 S
O412 Eu404 2.370 . S
O412 Eu407 2.370 . S
O412 Eu413 2.370 . S
Eu413 O409 2.370 1_455 S
Eu413 O410 2.370 1_454 S
Eu413 O411 2.370 1_554 S
Eu413 O412 2.370 . S
Eu413 O416 2.363 . S
Eu413 O417 2.363 1_554 S
Eu413 O426 2.363 . S
Eu413 O427 2.363 1_455 S
O414 C388 1.283 . S
O414 Eu400 2.363 . S
O415 C389 1.283 . S
O415 Eu400 2.363 1_556 S
O416 C390 1.283 . S
O416 Eu413 2.363 . S
O417 C391 1.283 . S
O417 Eu413 2.363 1_556 S
O418 C392 1.283 . S
O418 Eu403 2.363 . S
O419 C393 1.283 . S
O419 Eu403 2.363 . S
O420 C394 1.283 . S
O420 Eu404 2.363 . S
O421 C395 1.283 . S
O421 Eu404 2.363 . S
O422 C396 1.283 . S
O422 Eu408 2.363 . S
O423 C397 1.283 . S
O423 Eu408 2.363 1_655 S
O424 C398 1.283 . S
O424 Eu407 2.363 . S
O425 C399 1.283 . S
O425 Eu407 2.363 1_655 S
O426 C394 1.283 . S
O426 Eu413 2.363 . S
O427 C392 1.283 . S
O427 Eu413 2.363 1_655 S
O428 C395 1.283 . S
O428 Eu400 2.363 . S
O429 C393 1.283 . S
O429 Eu400 2.363 1_655 S
O430 C389 1.283 . S
O430 Eu408 2.363 . S
O431 C391 1.283 . S
O431 Eu408 2.363 . S
O432 C388 1.283 . S
O432 Eu407 2.363 . S
O433 C390 1.283 . S
O433 Eu407 2.363 . S
O434 C399 1.283 . S
O434 Eu403 2.363 . S
O435 C397 1.283 . S
O435 Eu403 2.363 1_556 S
O436 C398 1.283 . S
O436 Eu404 2.363 . S
O437 C396 1.283 . S
O437 Eu404 2.363 1_556 S
C438 O464 1.283 . S
C438 O482 1.283 . S
C439 O465 1.283 . S
C439 O480 1.283 . S
C440 O466 1.283 . S
C440 O483 1.283 . S
C441 O467 1.283 . S
C441 O481 1.283 . S
C442 O468 1.283 . S
C442 O477 1.283 . S
C443 O469 1.283 . S
C443 O479 1.283 . S
C444 O470 1.283 . S
C444 O476 1.283 . S
C445 O471 1.283 . S
C445 O478 1.283 . S
C446 O472 1.283 . S
C446 O487 1.283 . S
C447 O473 1.283 . S
C447 O485 1.283 . S
C448 O474 1.283 . S
C448 O486 1.283 . S
C449 O475 1.283 . S
C449 O484 1.283 . S
Eu450 O451 2.370 . S
Eu450 O452 2.370 . S
Eu450 O455 2.370 . S
Eu450 O456 2.370 . S
Eu450 O464 2.363 . S
Eu450 O465 2.363 . S
Eu450 O478 2.363 . S
Eu450 O479 2.363 . S
O451 Eu450 2.370 . S
O451 Eu453 2.370 . S
O451 Eu458 2.370 . S
O452 Eu450 2.370 . S
O452 Eu454 2.370 . S
O452 Eu457 2.370 . S
Eu453 O451 2.370 . S
Eu453 O455 2.370 . S
Eu453 O459 2.370 1_554 S
Eu453 O460 2.370 1_554 S
Eu453 O468 2.363 1_554 S
Eu453 O469 2.363 . S
Eu453 O484 2.363 . S
Eu453 O485 2.363 . S
Eu454 O452 2.370 . S
Eu454 O456 2.370 . S
Eu454 O461 2.370 1_554 S
Eu454 O462 2.370 1_554 S
Eu454 O470 2.363 1_554 S
Eu454 O471 2.363 . S
Eu454 O486 2.363 . S
Eu454 O487 2.363 . S
O455 Eu450 2.370 . S
O455 Eu453 2.370 . S
O455 Eu457 2.370 . S
O456 Eu450 2.370 . S
O456 Eu454 2.370 . S
O456 Eu458 2.370 . S
Eu457 O452 2.370 . S
Eu457 O455 2.370 . S
Eu457 O459 2.370 1_554 S
Eu457 O462 2.370 1_554 S
Eu457 O474 2.363 . S
Eu457 O475 2.363 . S
Eu457 O482 2.363 . S
Eu457 O483 2.363 1_554 S
Eu458 O451 2.370 . S
Eu458 O456 2.370 . S
Eu458 O460 2.370 1_554 S
Eu458 O461 2.370 1_554 S
Eu458 O472 2.363 . S
Eu458 O473 2.363 . S
Eu458 O480 2.363 . S
Eu458 O481 2.363 1_554 S
O459 Eu453 2.370 1_556 S
O459 Eu457 2.370 1_556 S
O459 Eu463 2.370 . S
O460 Eu453 2.370 1_556 S
O460 Eu458 2.370 1_556 S
O460 Eu463 2.370 . S
O461 Eu454 2.370 1_556 S
O461 Eu458 2.370 1_556 S
O461 Eu463 2.370 . S
O462 Eu454 2.370 1_556 S
O462 Eu457 2.370 1_556 S
O462 Eu463 2.370 . S
Eu463 O459 2.370 . S
Eu463 O460 2.370 . S
Eu463 O461 2.370 . S
Eu463 O462 2.370 . S
Eu463 O466 2.363 . S
Eu463 O467 2.363 . S
Eu463 O476 2.363 . S
Eu463 O477 2.363 . S
O464 C438 1.283 . S
O464 Eu450 2.363 . S
O465 C439 1.283 . S
O465 Eu450 2.363 . S
O466 C440 1.283 . S
O466 Eu463 2.363 . S
O467 C441 1.283 . S
O467 Eu463 2.363 . S
O468 C442 1.283 . S
O468 Eu453 2.363 1_556 S
O469 C443 1.283 . S
O469 Eu453 2.363 . S
O470 C444 1.283 . S
O470 Eu454 2.363 1_556 S
O471 C445 1.283 . S
O471 Eu454 2.363 . S
O472 C446 1.283 . S
O472 Eu458 2.363 . S
O473 C447 1.283 . S
O473 Eu458 2.363 . S
O474 C448 1.283 . S
O474 Eu457 2.363 . S
O475 C449 1.283 . S
O475 Eu457 2.363 . S
O476 C444 1.283 . S
O476 Eu463 2.363 . S
O477 C442 1.283 . S
O477 Eu463 2.363 . S
O478 C445 1.283 . S
O478 Eu450 2.363 . S
O479 C443 1.283 . S
O479 Eu450 2.363 . S
O480 C439 1.283 . S
O480 Eu458 2.363 . S
O481 C441 1.283 . S
O481 Eu458 2.363 1_556 S
O482 C438 1.283 . S
O482 Eu457 2.363 . S
O483 C440 1.283 . S
O483 Eu457 2.363 1_556 S
O484 C449 1.283 . S
O484 Eu453 2.363 . S
O485 C447 1.283 . S
O485 Eu453 2.363 . S
O486 C448 1.283 . S
O486 Eu454 2.363 . S
O487 C446 1.283 . S
O487 Eu454 2.363 . S
C488 O514 1.283 . S
C488 O532 1.283 . S
C489 O515 1.283 . S
C489 O530 1.283 . S
C490 O516 1.283 . S
C490 O533 1.283 . S
C491 O517 1.283 . S
C491 O531 1.283 . S
C492 O518 1.283 . S
C492 O527 1.283 . S
C493 O519 1.283 . S
C493 O529 1.283 . S
C494 O520 1.283 . S
C494 O526 1.283 . S
C495 O521 1.283 . S
C495 O528 1.283 . S
C496 O522 1.283 . S
C496 O537 1.283 . S
C497 O523 1.283 . S
C497 O535 1.283 . S
C498 O524 1.283 . S
C498 O536 1.283 . S
C499 O525 1.283 . S
C499 O534 1.283 . S
Eu500 O501 2.370 1_455 S
Eu500 O502 2.370 . S
Eu500 O505 2.370 1_455 S
Eu500 O506 2.370 . S
Eu500 O514 2.363 . S
Eu500 O515 2.363 . S
Eu500 O528 2.363 . S
Eu500 O529 2.363 1_455 S
O501 Eu500 2.370 1_655 S
O501 Eu503 2.370 . S
O501 Eu508 2.370 1_655 S
O502 Eu500 2.370 . S
O502 Eu504 2.370 . S
O502 Eu507 2.370 . S
Eu503 O501 2.370 . S
Eu503 O505 2.370 . S
Eu503 O509 2.370 . S
Eu503 O510 2.370 . S
Eu503 O518 2.363 . S
Eu503 O519 2.363 . S
Eu503 O534 2.363 . S
Eu503 O535 2.363 . S
Eu504 O502 2.370 . S
Eu504 O506 2.370 . S
Eu504 O511 2.370 . S
Eu504 O512 2.370 . S
Eu504 O520 2.363 . S
Eu504 O521 2.363 . S
Eu504 O536 2.363 . S
Eu504 O537 2.363 . S
O505 Eu500 2.370 1_655 S
O505 Eu503 2.370 . S
O505 Eu507 2.370 1_655 S
O506 Eu500 2.370 . S
O506 Eu504 2.370 . S
O506 Eu508 2.370 . S
Eu507 O502 2.370 . S
Eu507 O505 2.370 1_455 S
Eu507 O509 2.370 1_455 S
Eu507 O512 2.370 . S
Eu507 O524 2.363 . S
Eu507 O525 2.363 1_455 S
Eu507 O532 2.363 . S
Eu507 O533 2.363 . S
Eu508 O501 2.370 1_455 S
Eu508 O506 2.370 . S
Eu508 O510 2.370 1_455 S
Eu508 O511 2.370 . S
Eu508 O522 2.363 . S
Eu508 O523 2.363 1_455 S
Eu508 O530 2.363 . S
Eu508 O531 2.363 . S
O509 Eu503 2.370 . S
O509 Eu507 2.370 1_655 S
O509 Eu513 2.370 1_655 S
O510 Eu503 2.370 . S
O510 Eu508 2.370 1_655 S
O510 Eu513 2.370 1_655 S
O511 Eu504 2.370 . S
O511 Eu508 2.370 . S
O511 Eu513 2.370 . S
O512 Eu504 2.370 . S
O512 Eu507 2.370 . S
O512 Eu513 2.370 . S
Eu513 O509 2.370 1_455 S
Eu513 O510 2.370 1_455 S
Eu513 O511 2.370 . S
Eu513 O512 2.370 . S
Eu513 O516 2.363 . S
Eu513 O517 2.363 . S
Eu513 O526 2.363 . S
Eu513 O527 2.363 1_455 S
O514 C488 1.283 . S
O514 Eu500 2.363 . S
O515 C489 1.283 . S
O515 Eu500 2.363 . S
O516 C490 1.283 . S
O516 Eu513 2.363 . S
O517 C491 1.283 . S
O517 Eu513 2.363 . S
O518 C492 1.283 . S
O518 Eu503 2.363 . S
O519 C493 1.283 . S
O519 Eu503 2.363 . S
O520 C494 1.283 . S
O520 Eu504 2.363 . S
O521 C495 1.283 . S
O521 Eu504 2.363 . S
O522 C496 1.283 . S
O522 Eu508 2.363 . S
O523 C497 1.283 . S
O523 Eu508 2.363 1_655 S
O524 C498 1.283 . S
O524 Eu507 2.363 . S
O525 C499 1.283 . S
O525 Eu507 2.363 1_655 S
O526 C494 1.283 . S
O526 Eu513 2.363 . S
O527 C492 1.283 . S
O527 Eu513 2.363 1_655 S
O528 C495 1.283 . S
O528 Eu500 2.363 . S
O529 C493 1.283 . S
O529 Eu500 2.363 1_655 S
O530 C489 1.283 . S
O530 Eu508 2.363 . S
O531 C491 1.283 . S
O531 Eu508 2.363 . S
O532 C488 1.283 . S
O532 Eu507 2.363 . S
O533 C490 1.283 . S
O533 Eu507 2.363 . S
O534 C499 1.283 . S
O534 Eu503 2.363 . S
O535 C497 1.283 . S
O535 Eu503 2.363 . S
O536 C498 1.283 . S
O536 Eu504 2.363 . S
O537 C496 1.283 . S
O537 Eu504 2.363 . S
C538 O564 1.283 . S
C538 O582 1.283 . S
C539 O565 1.283 . S
C539 O580 1.283 . S
C540 O566 1.283 . S
C540 O583 1.283 . S
C541 O567 1.283 . S
C541 O581 1.283 . S
C542 O568 1.283 . S
C542 O577 1.283 . S
C543 O569 1.283 . S
C543 O579 1.283 . S
C544 O570 1.283 . S
C544 O576 1.283 . S
C545 O571 1.283 . S
C545 O578 1.283 . S
C546 O572 1.283 . S
C546 O587 1.283 . S
C547 O573 1.283 . S
C547 O585 1.283 . S
C548 O574 1.283 . S
C548 O586 1.283 . S
C549 O575 1.283 . S
C549 O584 1.283 . S
Eu550 O551 2.370 . S
Eu550 O552 2.370 . S
Eu550 O555 2.370 . S
Eu550 O556 2.370 . S
Eu550 O564 2.363 . S
Eu550 O565 2.363 . S
Eu550 O578 2.363 . S
Eu550 O579 2.363 . S
O551 Eu550 2.370 . S
O551 Eu553 2.367 1_565 S
O551 Eu558 2.366 1_565 S
O552 Eu550 2.370 . S
O552 Eu554 2.367 1_565 S
O552 Eu557 2.368 1_565 S
Eu553 O551 2.367 1_545 S
Eu553 O555 2.367 1_545 S
Eu553 O559 2.373 . S
Eu553 O560 2.373 . S
Eu553 O568 2.368 . S
Eu553 O569 2.357 1_545 S
Eu553 O584 2.363 . S
Eu553 O585 2.363 . S
Eu554 O552 2.367 1_545 S
Eu554 O556 2.367 1_545 S
Eu554 O561 2.373 . S
Eu554 O562 2.373 . S
Eu554 O570 2.369 . S
Eu554 O571 2.357 1_545 S
Eu554 O586 2.363 . S
Eu554 O587 2.363 . S
O555 Eu550 2.370 . S
O555 Eu553 2.367 1_565 S
O555 Eu557 2.368 1_565 S
O556 Eu550 2.370 . S
O556 Eu554 2.367 1_565 S
O556 Eu558 2.366 1_565 S
Eu557 O552 2.368 1_545 S
Eu557 O555 2.368 1_545 S
Eu557 O559 2.373 . S
Eu557 O562 2.373 . S
Eu557 O574 2.363 . S
Eu557 O575 2.363 . S
Eu557 O582 2.359 1_545 S
Eu557 O583 2.367 . S
Eu558 O551 2.366 1_545 S
Eu558 O556 2.366 1_545 S
Eu558 O560 2.374 . S
Eu558 O561 2.374 . S
Eu558 O572 2.363 . S
Eu558 O573 2.363 . S
Eu558 O580 2.356 1_545 S
Eu558 O581 2.370 . S
O559 Eu553 2.373 . S
O559 Eu557 2.373 . S
O559 Eu563 2.370 . S
O560 Eu553 2.373 . S
O560 Eu558 2.374 . S
O560 Eu563 2.370 . S
O561 Eu554 2.373 . S
O561 Eu558 2.374 . S
O561 Eu563 2.370 . S
O562 Eu554 2.373 . S
O562 Eu557 2.373 . S
O562 Eu563 2.370 . S
Eu563 O559 2.370 . S
Eu563 O560 2.370 . S
Eu563 O561 2.370 . S
Eu563 O562 2.370 . S
Eu563 O566 2.363 . S
Eu563 O567 2.363 . S
Eu563 O576 2.363 . S
Eu563 O577 2.363 . S
O564 C538 1.283 . S
O564 Eu550 2.363 . S
O565 C539 1.283 . S
O565 Eu550 2.363 . S
O566 C540 1.283 . S
O566 Eu563 2.363 . S
O567 C541 1.283 . S
O567 Eu563 2.363 . S
O568 C542 1.283 . S
O568 Eu553 2.368 . S
O569 C543 1.283 . S
O569 Eu553 2.357 1_565 S
O570 C544 1.283 . S
O570 Eu554 2.369 . S
O571 C545 1.283 . S
O571 Eu554 2.357 1_565 S
O572 C546 1.283 . S
O572 Eu558 2.363 . S
O573 C547 1.283 . S
O573 Eu558 2.363 . S
O574 C548 1.283 . S
O574 Eu557 2.363 . S
O575 C549 1.283 . S
O575 Eu557 2.363 . S
O576 C544 1.283 . S
O576 Eu563 2.363 . S
O577 C542 1.283 . S
O577 Eu563 2.363 . S
O578 C545 1.283 . S
O578 Eu550 2.363 . S
O579 C543 1.283 . S
O579 Eu550 2.363 . S
O580 C539 1.283 . S
O580 Eu558 2.356 1_565 S
O581 C541 1.283 . S
O581 Eu558 2.370 . S
O582 C538 1.283 . S
O582 Eu557 2.359 1_565 S
O583 C540 1.283 . S
O583 Eu557 2.367 . S
O584 C549 1.283 . S
O584 Eu553 2.363 . S
O585 C547 1.283 . S
O585 Eu553 2.363 . S
O586 C548 1.283 . S
O586 Eu554 2.363 . S
O587 C546 1.283 . S
O587 Eu554 2.363 . S
H588 C600 0.930 . S
H589 C602 0.930 . S
H590 C603 0.930 . S
H591 C607 0.959 . S
H592 C607 0.959 . S
H593 C607 0.961 . S
H594 C608 0.960 . S
H595 C608 0.961 . S
H596 C608 0.959 . S
H597 C611 0.929 . S
H598 C612 0.931 . S
H599 C614 0.930 . S
C600 H588 0.930 . S
C600 C601 1.399 . S
C600 C605 1.399 . S
C601 C600 1.399 . S
C601 C602 1.376 . S
C602 H589 0.930 . S
C602 C601 1.376 . S
C602 C603 1.388 . S
C603 H590 0.930 . S
C603 C602 1.388 . S
C603 C604 1.390 . S
C604 C603 1.390 . S
C604 C605 1.394 . S
C604 C610 1.465 . S
C605 C600 1.399 . S
C605 C604 1.394 . S
C605 C606 1.516 . S
C606 C605 1.516 . S
C606 C607 1.502 . S
C606 C608 1.561 . S
C606 C609 1.526 . S
C607 H591 0.959 . S
C607 H592 0.959 . S
C607 H593 0.961 . S
C607 C606 1.502 . S
C608 H594 0.960 . S
C608 H595 0.961 . S
C608 H596 0.959 . S
C608 C606 1.561 . S
C609 C606 1.526 . S
C609 C610 1.396 . S
C609 C614 1.390 . S
C610 C604 1.465 . S
C610 C609 1.396 . S
C610 C611 1.399 . S
C611 H597 0.929 . S
C611 C610 1.399 . S
C611 C612 1.385 . S
C612 H598 0.931 . S
C612 C611 1.385 . S
C612 C613 1.389 . S
C613 C612 1.389 . S
C613 C614 1.387 . S
C614 H599 0.930 . S
C614 C609 1.390 . S
C614 C613 1.387 . S
H615 C627 0.930 . S
H616 C629 0.930 . S
H617 C630 0.930 . S
H618 C634 0.959 . S
H619 C634 0.959 . S
H620 C634 0.961 . S
H621 C635 0.960 . S
H622 C635 0.961 . S
H623 C635 0.959 . S
H624 C638 0.929 . S
H625 C639 0.931 . S
H626 C641 0.930 . S
C627 H615 0.930 . S
C627 C628 1.399 . S
C627 C632 1.399 . S
C628 C627 1.399 . S
C628 C629 1.376 . S
C629 H616 0.930 . S
C629 C628 1.376 . S
C629 C630 1.388 . S
C630 H617 0.930 . S
C630 C629 1.388 . S
C630 C631 1.390 . S
C631 C630 1.390 . S
C631 C632 1.394 . S
C631 C637 1.465 . S
C632 C627 1.399 . S
C632 C631 1.394 . S
C632 C633 1.516 . S
C633 C632 1.516 . S
C633 C634 1.502 . S
C633 C635 1.561 . S
C633 C636 1.526 . S
C634 H618 0.959 . S
C634 H619 0.959 . S
C634 H620 0.961 . S
C634 C633 1.502 . S
C635 H621 0.960 . S
C635 H622 0.961 . S
C635 H623 0.959 . S
C635 C633 1.561 . S
C636 C633 1.526 . S
C636 C637 1.396 . S
C636 C641 1.390 . S
C637 C631 1.465 . S
C637 C636 1.396 . S
C637 C638 1.399 . S
C638 H624 0.929 . S
C638 C637 1.399 . S
C638 C639 1.385 . S
C639 H625 0.931 . S
C639 C638 1.385 . S
C639 C640 1.389 . S
C640 C639 1.389 . S
C640 C641 1.387 . S
C641 H626 0.930 . S
C641 C636 1.390 . S
C641 C640 1.387 . S
H642 C654 0.930 . S
H643 C656 0.930 . S
H644 C657 0.930 . S
H645 C661 0.959 . S
H646 C661 0.959 . S
H647 C661 0.961 . S
H648 C662 0.960 . S
H649 C662 0.961 . S
H650 C662 0.959 . S
H651 C665 0.929 . S
H652 C666 0.931 . S
H653 C668 0.930 . S
C654 H642 0.930 . S
C654 C655 1.399 . S
C654 C659 1.399 . S
C655 C654 1.399 . S
C655 C656 1.376 . S
C656 H643 0.930 . S
C656 C655 1.376 . S
C656 C657 1.388 . S
C657 H644 0.930 . S
C657 C656 1.388 . S
C657 C658 1.390 . S
C658 C657 1.390 . S
C658 C659 1.394 . S
C658 C664 1.465 . S
C659 C654 1.399 . S
C659 C658 1.394 . S
C659 C660 1.516 . S
C660 C659 1.516 . S
C660 C661 1.502 . S
C660 C662 1.561 . S
C660 C663 1.526 . S
C661 H645 0.959 . S
C661 H646 0.959 . S
C661 H647 0.961 . S
C661 C660 1.502 . S
C662 H648 0.960 . S
C662 H649 0.961 . S
C662 H650 0.959 . S
C662 C660 1.561 . S
C663 C660 1.526 . S
C663 C664 1.396 . S
C663 C668 1.390 . S
C664 C658 1.465 . S
C664 C663 1.396 . S
C664 C665 1.399 . S
C665 H651 0.929 . S
C665 C664 1.399 . S
C665 C666 1.385 . S
C666 H652 0.931 . S
C666 C665 1.385 . S
C666 C667 1.389 . S
C667 C666 1.389 . S
C667 C668 1.387 . S
C668 H653 0.930 . S
C668 C663 1.390 . S
C668 C667 1.387 . S
H669 C681 0.930 . S
H670 C683 0.930 . S
H671 C684 0.930 . S
H672 C688 0.959 . S
H673 C688 0.959 . S
H674 C688 0.961 . S
H675 C689 0.960 . S
H676 C689 0.961 . S
H677 C689 0.959 . S
H678 C692 0.929 . S
H679 C693 0.931 . S
H680 C695 0.930 . S
C681 H669 0.930 . S
C681 C682 1.399 . S
C681 C686 1.399 . S
C682 C681 1.399 . S
C682 C683 1.376 . S
C683 H670 0.930 . S
C683 C682 1.376 . S
C683 C684 1.388 . S
C684 H671 0.930 . S
C684 C683 1.388 . S
C684 C685 1.390 . S
C685 C684 1.390 . S
C685 C686 1.394 . S
C685 C691 1.465 . S
C686 C681 1.399 . S
C686 C685 1.394 . S
C686 C687 1.516 . S
C687 C686 1.516 . S
C687 C688 1.502 . S
C687 C689 1.561 . S
C687 C690 1.526 . S
C688 H672 0.959 . S
C688 H673 0.959 . S
C688 H674 0.961 . S
C688 C687 1.502 . S
C689 H675 0.960 . S
C689 H676 0.961 . S
C689 H677 0.959 . S
C689 C687 1.561 . S
C690 C687 1.526 . S
C690 C691 1.396 . S
C690 C695 1.390 . S
C691 C685 1.465 . S
C691 C690 1.396 . S
C691 C692 1.399 . S
C692 H678 0.929 . S
C692 C691 1.399 . S
C692 C693 1.385 . S
C693 H679 0.931 . S
C693 C692 1.385 . S
C693 C694 1.389 . S
C694 C693 1.389 . S
C694 C695 1.387 . S
C695 H680 0.930 . S
C695 C690 1.390 . S
C695 C694 1.387 . S
H696 C708 0.930 . S
H697 C710 0.930 . S
H698 C711 0.930 . S
H699 C715 0.959 . S
H700 C715 0.959 . S
H701 C715 0.961 . S
H702 C716 0.960 . S
H703 C716 0.961 . S
H704 C716 0.959 . S
H705 C719 0.929 . S
H706 C720 0.931 . S
H707 C722 0.930 . S
C708 H696 0.930 . S
C708 C709 1.399 . S
C708 C713 1.399 . S
C709 C708 1.399 . S
C709 C710 1.376 . S
C710 H697 0.930 . S
C710 C709 1.376 . S
C710 C711 1.388 . S
C711 H698 0.930 . S
C711 C710 1.388 . S
C711 C712 1.390 . S
C712 C711 1.390 . S
C712 C713 1.394 . S
C712 C718 1.465 . S
C713 C708 1.399 . S
C713 C712 1.394 . S
C713 C714 1.516 . S
C714 C713 1.516 . S
C714 C715 1.502 . S
C714 C716 1.561 . S
C714 C717 1.526 . S
C715 H699 0.959 . S
C715 H700 0.959 . S
C715 H701 0.961 . S
C715 C714 1.502 . S
C716 H702 0.960 . S
C716 H703 0.961 . S
C716 H704 0.959 . S
C716 C714 1.561 . S
C717 C714 1.526 . S
C717 C718 1.396 . S
C717 C722 1.390 . S
C718 C712 1.465 . S
C718 C717 1.396 . S
C718 C719 1.399 . S
C719 H705 0.929 . S
C719 C718 1.399 . S
C719 C720 1.385 . S
C720 H706 0.931 . S
C720 C719 1.385 . S
C720 C721 1.389 . S
C721 C720 1.389 . S
C721 C722 1.387 . S
C722 H707 0.930 . S
C722 C717 1.390 . S
C722 C721 1.387 . S
H723 C735 0.930 . S
H724 C737 0.930 . S
H725 C738 0.930 . S
H726 C742 0.959 . S
H727 C742 0.959 . S
H728 C742 0.961 . S
H729 C743 0.960 . S
H730 C743 0.961 . S
H731 C743 0.959 . S
H732 C746 0.929 . S
H733 C747 0.931 . S
H734 C749 0.930 . S
C735 H723 0.930 . S
C735 C736 1.399 . S
C735 C740 1.399 . S
C736 C735 1.399 . S
C736 C737 1.376 . S
C737 H724 0.930 . S
C737 C736 1.376 . S
C737 C738 1.388 . S
C738 H725 0.930 . S
C738 C737 1.388 . S
C738 C739 1.390 . S
C739 C738 1.390 . S
C739 C740 1.394 . S
C739 C745 1.465 . S
C740 C735 1.399 . S
C740 C739 1.394 . S
C740 C741 1.516 . S
C741 C740 1.516 . S
C741 C742 1.502 . S
C741 C743 1.561 . S
C741 C744 1.526 . S
C742 H726 0.959 . S
C742 H727 0.959 . S
C742 H728 0.961 . S
C742 C741 1.502 . S
C743 H729 0.960 . S
C743 H730 0.961 . S
C743 H731 0.959 . S
C743 C741 1.561 . S
C744 C741 1.526 . S
C744 C745 1.396 . S
C744 C749 1.390 . S
C745 C739 1.465 . S
C745 C744 1.396 . S
C745 C746 1.399 . S
C746 H732 0.929 . S
C746 C745 1.399 . S
C746 C747 1.385 . S
C747 H733 0.931 . S
C747 C746 1.385 . S
C747 C748 1.389 . S
C748 C747 1.389 . S
C748 C749 1.387 . S
C749 H734 0.930 . S
C749 C744 1.390 . S
C749 C748 1.387 . S
H750 C762 0.930 . S
H751 C764 0.930 . S
H752 C765 0.930 . S
H753 C769 0.959 . S
H754 C769 0.959 . S
H755 C769 0.961 . S
H756 C770 0.960 . S
H757 C770 0.961 . S
H758 C770 0.959 . S
H759 C773 0.929 . S
H760 C774 0.931 . S
H761 C776 0.930 . S
C762 H750 0.930 . S
C762 C763 1.399 . S
C762 C767 1.399 . S
C763 C762 1.399 . S
C763 C764 1.376 . S
C764 H751 0.930 . S
C764 C763 1.376 . S
C764 C765 1.388 . S
C765 H752 0.930 . S
C765 C764 1.388 . S
C765 C766 1.390 . S
C766 C765 1.390 . S
C766 C767 1.394 . S
C766 C772 1.465 . S
C767 C762 1.399 . S
C767 C766 1.394 . S
C767 C768 1.516 . S
C768 C767 1.516 . S
C768 C769 1.502 . S
C768 C770 1.561 . S
C768 C771 1.526 . S
C769 H753 0.959 . S
C769 H754 0.959 . S
C769 H755 0.961 . S
C769 C768 1.502 . S
C770 H756 0.960 . S
C770 H757 0.961 . S
C770 H758 0.959 . S
C770 C768 1.561 . S
C771 C768 1.526 . S
C771 C772 1.396 . S
C771 C776 1.390 . S
C772 C766 1.465 . S
C772 C771 1.396 . S
C772 C773 1.399 . S
C773 H759 0.929 . S
C773 C772 1.399 . S
C773 C774 1.385 . S
C774 H760 0.931 . S
C774 C773 1.385 . S
C774 C775 1.389 . S
C775 C774 1.389 . S
C775 C776 1.387 . S
C776 H761 0.930 . S
C776 C771 1.390 . S
C776 C775 1.387 . S
H777 C789 0.930 . S
H778 C791 0.930 . S
H779 C792 0.930 . S
H780 C796 0.959 . S
H781 C796 0.959 . S
H782 C796 0.961 . S
H783 C797 0.960 . S
H784 C797 0.961 . S
H785 C797 0.959 . S
H786 C800 0.929 . S
H787 C801 0.931 . S
H788 C803 0.930 . S
C789 H777 0.930 . S
C789 C790 1.399 . S
C789 C794 1.399 . S
C790 C789 1.399 . S
C790 C791 1.376 . S
C791 H778 0.930 . S
C791 C790 1.376 . S
C791 C792 1.388 . S
C792 H779 0.930 . S
C792 C791 1.388 . S
C792 C793 1.390 . S
C793 C792 1.390 . S
C793 C794 1.394 . S
C793 C799 1.465 . S
C794 C789 1.399 . S
C794 C793 1.394 . S
C794 C795 1.516 . S
C795 C794 1.516 . S
C795 C796 1.502 . S
C795 C797 1.561 . S
C795 C798 1.526 . S
C796 H780 0.959 . S
C796 H781 0.959 . S
C796 H782 0.961 . S
C796 C795 1.502 . S
C797 H783 0.960 . S
C797 H784 0.961 . S
C797 H785 0.959 . S
C797 C795 1.561 . S
C798 C795 1.526 . S
C798 C799 1.396 . S
C798 C803 1.390 . S
C799 C793 1.465 . S
C799 C798 1.396 . S
C799 C800 1.399 . S
C800 H786 0.929 . S
C800 C799 1.399 . S
C800 C801 1.385 . S
C801 H787 0.931 . S
C801 C800 1.385 . S
C801 C802 1.389 . S
C802 C801 1.389 . S
C802 C803 1.387 . S
C803 H788 0.930 . S
C803 C798 1.390 . S
C803 C802 1.387 . S
H804 C816 0.930 . S
H805 C818 0.930 . S
H806 C819 0.930 . S
H807 C823 0.959 . S
H808 C823 0.959 . S
H809 C823 0.961 . S
H810 C824 0.960 . S
H811 C824 0.961 . S
H812 C824 0.959 . S
H813 C827 0.929 . S
H814 C828 0.931 . S
H815 C830 0.930 . S
C816 H804 0.930 . S
C816 C817 1.399 . S
C816 C821 1.399 . S
C817 C816 1.399 . S
C817 C818 1.376 . S
C818 H805 0.930 . S
C818 C817 1.376 . S
C818 C819 1.388 . S
C819 H806 0.930 . S
C819 C818 1.388 . S
C819 C820 1.390 . S
C820 C819 1.390 . S
C820 C821 1.394 . S
C820 C826 1.465 . S
C821 C816 1.399 . S
C821 C820 1.394 . S
C821 C822 1.516 . S
C822 C821 1.516 . S
C822 C823 1.502 . S
C822 C824 1.561 . S
C822 C825 1.526 . S
C823 H807 0.959 . S
C823 H808 0.959 . S
C823 H809 0.961 . S
C823 C822 1.502 . S
C824 H810 0.960 . S
C824 H811 0.961 . S
C824 H812 0.959 . S
C824 C822 1.561 . S
C825 C822 1.526 . S
C825 C826 1.396 . S
C825 C830 1.390 . S
C826 C820 1.465 . S
C826 C825 1.396 . S
C826 C827 1.399 . S
C827 H813 0.929 . S
C827 C826 1.399 . S
C827 C828 1.385 . S
C828 H814 0.931 . S
C828 C827 1.385 . S
C828 C829 1.389 . S
C829 C828 1.389 . S
C829 C830 1.387 . S
C830 H815 0.930 . S
C830 C825 1.390 . S
C830 C829 1.387 . S
H831 C843 0.930 . S
H832 C845 0.930 . S
H833 C846 0.930 . S
H834 C850 0.959 . S
H835 C850 0.959 . S
H836 C850 0.961 . S
H837 C851 0.960 . S
H838 C851 0.961 . S
H839 C851 0.959 . S
H840 C854 0.929 . S
H841 C855 0.931 . S
H842 C857 0.930 . S
C843 H831 0.930 . S
C843 C844 1.399 . S
C843 C848 1.399 . S
C844 C843 1.399 . S
C844 C845 1.376 . S
C845 H832 0.930 . S
C845 C844 1.376 . S
C845 C846 1.388 . S
C846 H833 0.930 . S
C846 C845 1.388 . S
C846 C847 1.390 . S
C847 C846 1.390 . S
C847 C848 1.394 . S
C847 C853 1.465 . S
C848 C843 1.399 . S
C848 C847 1.394 . S
C848 C849 1.516 . S
C849 C848 1.516 . S
C849 C850 1.502 . S
C849 C851 1.561 . S
C849 C852 1.526 . S
C850 H834 0.959 . S
C850 H835 0.959 . S
C850 H836 0.961 . S
C850 C849 1.502 . S
C851 H837 0.960 . S
C851 H838 0.961 . S
C851 H839 0.959 . S
C851 C849 1.561 . S
C852 C849 1.526 . S
C852 C853 1.396 . S
C852 C857 1.390 . S
C853 C847 1.465 . S
C853 C852 1.396 . S
C853 C854 1.399 . S
C854 H840 0.929 . S
C854 C853 1.399 . S
C854 C855 1.385 . S
C855 H841 0.931 . S
C855 C854 1.385 . S
C855 C856 1.389 . S
C856 C855 1.389 . S
C856 C857 1.387 . S
C857 H842 0.930 . S
C857 C852 1.390 . S
C857 C856 1.387 . S
H858 C870 0.930 . S
H859 C872 0.930 . S
H860 C873 0.930 . S
H861 C877 0.959 . S
H862 C877 0.959 . S
H863 C877 0.961 . S
H864 C878 0.960 . S
H865 C878 0.961 . S
H866 C878 0.959 . S
H867 C881 0.929 . S
H868 C882 0.931 . S
H869 C884 0.930 . S
C870 H858 0.930 . S
C870 C871 1.399 . S
C870 C875 1.399 . S
C871 C870 1.399 . S
C871 C872 1.376 . S
C872 H859 0.930 . S
C872 C871 1.376 . S
C872 C873 1.388 . S
C873 H860 0.930 . S
C873 C872 1.388 . S
C873 C874 1.390 . S
C874 C873 1.390 . S
C874 C875 1.394 . S
C874 C880 1.465 . S
C875 C870 1.399 . S
C875 C874 1.394 . S
C875 C876 1.516 . S
C876 C875 1.516 . S
C876 C877 1.502 . S
C876 C878 1.561 . S
C876 C879 1.526 . S
C877 H861 0.959 . S
C877 H862 0.959 . S
C877 H863 0.961 . S
C877 C876 1.502 . S
C878 H864 0.960 . S
C878 H865 0.961 . S
C878 H866 0.959 . S
C878 C876 1.561 . S
C879 C876 1.526 . S
C879 C880 1.396 . S
C879 C884 1.390 . S
C880 C874 1.465 . S
C880 C879 1.396 . S
C880 C881 1.399 . S
C881 H867 0.929 . S
C881 C880 1.399 . S
C881 C882 1.385 . S
C882 H868 0.931 . S
C882 C881 1.385 . S
C882 C883 1.389 . S
C883 C882 1.389 . S
C883 C884 1.387 . S
C884 H869 0.930 . S
C884 C879 1.390 . S
C884 C883 1.387 . S
H885 C897 0.930 . S
H886 C899 0.930 . S
H887 C900 0.930 . S
H888 C904 0.959 . S
H889 C904 0.959 . S
H890 C904 0.961 . S
H891 C905 0.960 . S
H892 C905 0.961 . S
H893 C905 0.959 . S
H894 C908 0.929 . S
H895 C909 0.931 . S
H896 C911 0.930 . S
C897 H885 0.930 . S
C897 C898 1.399 . S
C897 C902 1.399 . S
C898 C897 1.399 . S
C898 C899 1.376 . S
C899 H886 0.930 . S
C899 C898 1.376 . S
C899 C900 1.388 . S
C900 H887 0.930 . S
C900 C899 1.388 . S
C900 C901 1.390 . S
C901 C900 1.390 . S
C901 C902 1.394 . S
C901 C907 1.465 . S
C902 C897 1.399 . S
C902 C901 1.394 . S
C902 C903 1.516 . S
C903 C902 1.516 . S
C903 C904 1.502 . S
C903 C905 1.561 . S
C903 C906 1.526 . S
C904 H888 0.959 . S
C904 H889 0.959 . S
C904 H890 0.961 . S
C904 C903 1.502 . S
C905 H891 0.960 . S
C905 H892 0.961 . S
C905 H893 0.959 . S
C905 C903 1.561 . S
C906 C903 1.526 . S
C906 C907 1.396 . S
C906 C911 1.390 . S
C907 C901 1.465 . S
C907 C906 1.396 . S
C907 C908 1.399 . S
C908 H894 0.929 . S
C908 C907 1.399 . S
C908 C909 1.385 . S
C909 H895 0.931 . S
C909 C908 1.385 . S
C909 C910 1.389 . S
C910 C909 1.389 . S
C910 C911 1.387 . S
C911 H896 0.930 . S
C911 C906 1.390 . S
C911 C910 1.387 . S
H912 C924 0.930 . S
H913 C926 0.930 . S
H914 C927 0.930 . S
H915 C931 0.959 . S
H916 C931 0.959 . S
H917 C931 0.961 . S
H918 C932 0.960 . S
H919 C932 0.961 . S
H920 C932 0.959 . S
H921 C935 0.929 . S
H922 C936 0.931 . S
H923 C938 0.930 . S
C924 H912 0.930 . S
C924 C925 1.399 . S
C924 C929 1.399 . S
C925 C924 1.399 . S
C925 C926 1.376 1_554 S
C926 H913 0.930 . S
C926 C925 1.376 1_556 S
C926 C927 1.388 . S
C927 H914 0.930 . S
C927 C926 1.388 . S
C927 C928 1.390 . S
C928 C927 1.390 . S
C928 C929 1.394 1_556 S
C928 C934 1.465 . S
C929 C924 1.399 . S
C929 C928 1.394 1_554 S
C929 C930 1.516 . S
C930 C929 1.516 . S
C930 C931 1.502 . S
C930 C932 1.561 . S
C930 C933 1.526 . S
C931 H915 0.959 . S
C931 H916 0.959 . S
C931 H917 0.961 . S
C931 C930 1.502 . S
C932 H918 0.960 . S
C932 H919 0.961 . S
C932 H920 0.959 . S
C932 C930 1.561 . S
C933 C930 1.526 . S
C933 C934 1.396 1_554 S
C933 C938 1.390 . S
C934 C928 1.465 . S
C934 C933 1.396 1_556 S
C934 C935 1.399 . S
C935 H921 0.929 . S
C935 C934 1.399 . S
C935 C936 1.385 . S
C936 H922 0.931 . S
C936 C935 1.385 . S
C936 C937 1.389 1_556 S
C937 C936 1.389 1_554 S
C937 C938 1.387 . S
C938 H923 0.930 . S
C938 C933 1.390 . S
C938 C937 1.387 . S
H939 C951 0.930 . S
H940 C953 0.930 . S
H941 C954 0.930 . S
H942 C958 0.959 . S
H943 C958 0.959 . S
H944 C958 0.961 . S
H945 C959 0.960 . S
H946 C959 0.961 . S
H947 C959 0.959 . S
H948 C962 0.929 . S
H949 C963 0.931 . S
H950 C965 0.930 . S
C951 H939 0.930 . S
C951 C952 1.399 1_556 S
C951 C956 1.399 . S
C952 C951 1.399 1_554 S
C952 C953 1.376 . S
C953 H940 0.930 . S
C953 C952 1.376 . S
C953 C954 1.388 . S
C954 H941 0.930 . S
C954 C953 1.388 . S
C954 C955 1.390 . S
C955 C954 1.390 . S
C955 C956 1.394 1_554 S
C955 C961 1.465 . S
C956 C951 1.399 . S
C956 C955 1.394 1_556 S
C956 C957 1.516 . S
C957 C956 1.516 . S
C957 C958 1.502 . S
C957 C959 1.561 . S
C957 C960 1.526 . S
C958 H942 0.959 . S
C958 H943 0.959 . S
C958 H944 0.961 . S
C958 C957 1.502 . S
C959 H945 0.960 . S
C959 H946 0.961 . S
C959 H947 0.959 . S
C959 C957 1.561 . S
C960 C957 1.526 . S
C960 C961 1.396 1_556 S
C960 C965 1.390 . S
C961 C955 1.465 . S
C961 C960 1.396 1_554 S
C961 C962 1.399 . S
C962 H948 0.929 . S
C962 C961 1.399 . S
C962 C963 1.385 . S
C963 H949 0.931 . S
C963 C962 1.385 . S
C963 C964 1.389 . S
C964 C963 1.389 . S
C964 C965 1.387 1_554 S
C965 H950 0.930 . S
C965 C960 1.390 . S
C965 C964 1.387 1_556 S
H966 C978 0.930 . S
H967 C980 0.930 . S
H968 C981 0.930 . S
H969 C985 0.959 . S
H970 C985 0.959 . S
H971 C985 0.961 . S
H972 C986 0.960 . S
H973 C986 0.961 . S
H974 C986 0.959 . S
H975 C989 0.929 . S
H976 C990 0.931 . S
H977 C992 0.930 . S
C978 H966 0.930 . S
C978 C979 1.399 1_556 S
C978 C983 1.399 . S
C979 C978 1.399 1_554 S
C979 C980 1.376 . S
C980 H967 0.930 . S
C980 C979 1.376 . S
C980 C981 1.388 . S
C981 H968 0.930 . S
C981 C980 1.388 . S
C981 C982 1.390 . S
C982 C981 1.390 . S
C982 C983 1.394 1_554 S
C982 C988 1.465 . S
C983 C978 1.399 . S
C983 C982 1.394 1_556 S
C983 C984 1.516 . S
C984 C983 1.516 . S
C984 C985 1.502 . S
C984 C986 1.561 . S
C984 C987 1.526 . S
C985 H969 0.959 . S
C985 H970 0.959 . S
C985 H971 0.961 . S
C985 C984 1.502 . S
C986 H972 0.960 . S
C986 H973 0.961 . S
C986 H974 0.959 . S
C986 C984 1.561 . S
C987 C984 1.526 . S
C987 C988 1.396 1_556 S
C987 C992 1.390 . S
C988 C982 1.465 . S
C988 C987 1.396 1_554 S
C988 C989 1.399 . S
C989 H975 0.929 . S
C989 C988 1.399 . S
C989 C990 1.385 . S
C990 H976 0.931 . S
C990 C989 1.385 . S
C990 C991 1.389 . S
C991 C990 1.389 . S
C991 C992 1.387 1_554 S
C992 H977 0.930 . S
C992 C987 1.390 . S
C992 C991 1.387 1_556 S
H993 C1005 0.930 . S
H994 C1007 0.930 . S
H995 C1008 0.930 . S
H996 C1012 0.959 . S
H997 C1012 0.959 . S
H998 C1012 0.961 . S
H999 C1013 0.960 . S
H1000 C1013 0.961 . S
H1001 C1013 0.959 . S
H1002 C1016 0.929 . S
H1003 C1017 0.931 . S
H1004 C1019 0.930 . S
C1005 H993 0.930 . S
C1005 C1006 1.399 1_556 S
C1005 C1010 1.399 . S
C1006 C1005 1.399 1_554 S
C1006 C1007 1.376 . S
C1007 H994 0.930 . S
C1007 C1006 1.376 . S
C1007 C1008 1.388 . S
C1008 H995 0.930 . S
C1008 C1007 1.388 . S
C1008 C1009 1.390 . S
C1009 C1008 1.390 . S
C1009 C1010 1.394 1_554 S
C1009 C1015 1.465 . S
C1010 C1005 1.399 . S
C1010 C1009 1.394 1_556 S
C1010 C1011 1.516 . S
C1011 C1010 1.516 . S
C1011 C1012 1.502 . S
C1011 C1013 1.561 . S
C1011 C1014 1.526 . S
C1012 H996 0.959 . S
C1012 H997 0.959 . S
C1012 H998 0.961 . S
C1012 C1011 1.502 . S
C1013 H999 0.960 . S
C1013 H1000 0.961 . S
C1013 H1001 0.959 . S
C1013 C1011 1.561 . S
C1014 C1011 1.526 . S
C1014 C1015 1.396 1_556 S
C1014 C1019 1.390 . S
C1015 C1009 1.465 . S
C1015 C1014 1.396 1_554 S
C1015 C1016 1.399 . S
C1016 H1002 0.929 . S
C1016 C1015 1.399 . S
C1016 C1017 1.385 . S
C1017 H1003 0.931 . S
C1017 C1016 1.385 . S
C1017 C1018 1.389 . S
C1018 C1017 1.389 . S
C1018 C1019 1.387 1_554 S
C1019 H1004 0.930 . S
C1019 C1014 1.390 . S
C1019 C1018 1.387 1_556 S
H1020 C1032 0.930 1_655 S
H1021 C1034 0.930 . S
H1022 C1035 0.930 . S
H1023 C1039 0.959 . S
H1024 C1039 0.959 . S
H1025 C1039 0.961 . S
H1026 C1040 0.960 . S
H1027 C1040 0.961 . S
H1028 C1040 0.959 . S
H1029 C1043 0.929 . S
H1030 C1044 0.931 . S
H1031 C1046 0.930 1_655 S
C1032 H1020 0.930 1_455 S
C1032 C1033 1.399 . S
C1032 C1037 1.399 . S
C1033 C1032 1.399 . S
C1033 C1034 1.376 . S
C1034 H1021 0.930 . S
C1034 C1033 1.376 . S
C1034 C1035 1.388 . S
C1035 H1022 0.930 . S
C1035 C1034 1.388 . S
C1035 C1036 1.390 . S
C1036 C1035 1.390 . S
C1036 C1037 1.394 . S
C1036 C1042 1.465 . S
C1037 C1032 1.399 . S
C1037 C1036 1.394 . S
C1037 C1038 1.512 1_455 S
C1038 C1037 1.512 1_655 S
C1038 C1039 1.526 . S
C1038 C1040 1.542 1_655 S
C1038 C1041 1.522 1_655 S
C1039 H1023 0.959 . S
C1039 H1024 0.959 . S
C1039 H1025 0.961 . S
C1039 C1038 1.526 . S
C1040 H1026 0.960 . S
C1040 H1027 0.961 . S
C1040 H1028 0.959 . S
C1040 C1038 1.542 1_455 S
C1041 C1038 1.522 1_455 S
C1041 C1042 1.396 . S
C1041 C1046 1.390 . S
C1042 C1036 1.465 . S
C1042 C1041 1.396 . S
C1042 C1043 1.399 . S
C1043 H1029 0.929 . S
C1043 C1042 1.399 . S
C1043 C1044 1.385 . S
C1044 H1030 0.931 . S
C1044 C1043 1.385 . S
C1044 C1045 1.389 . S
C1045 C1044 1.389 . S
C1045 C1046 1.387 . S
C1046 H1031 0.930 1_455 S
C1046 C1041 1.390 . S
C1046 C1045 1.387 . S
H1047 C1059 0.930 . S
H1048 C1061 0.930 . S
H1049 C1062 0.930 . S
H1050 C1066 0.959 . S
H1051 C1066 0.959 . S
H1052 C1066 0.961 . S
H1053 C1067 0.960 . S
H1054 C1067 0.961 . S
H1055 C1067 0.959 1_565 S
H1056 C1070 0.929 . S
H1057 C1071 0.931 . S
H1058 C1073 0.930 . S
C1059 H1047 0.930 . S
C1059 C1060 1.399 1_545 S
C1059 C1064 1.399 . S
C1060 C1059 1.399 1_565 S
C1060 C1061 1.376 . S
C1061 H1048 0.930 . S
C1061 C1060 1.376 . S
C1061 C1062 1.388 . S
C1062 H1049 0.930 . S
C1062 C1061 1.388 . S
C1062 C1063 1.390 . S
C1063 C1062 1.390 . S
C1063 C1064 1.394 1_565 S
C1063 C1069 1.465 . S
C1064 C1059 1.399 . S
C1064 C1063 1.394 1_545 S
C1064 C1065 1.516 . S
C1065 C1064 1.516 . S
C1065 C1066 1.502 . S
C1065 C1067 1.561 . S
C1065 C1068 1.526 . S
C1066 H1050 0.959 . S
C1066 H1051 0.959 . S
C1066 H1052 0.961 . S
C1066 C1065 1.502 . S
C1067 H1053 0.960 . S
C1067 H1054 0.961 . S
C1067 H1055 0.959 1_545 S
C1067 C1065 1.561 . S
C1068 C1065 1.526 . S
C1068 C1069 1.396 1_545 S
C1068 C1073 1.390 . S
C1069 C1063 1.465 . S
C1069 C1068 1.396 1_565 S
C1069 C1070 1.399 . S
C1070 H1056 0.929 . S
C1070 C1069 1.399 . S
C1070 C1071 1.385 . S
C1071 H1057 0.931 . S
C1071 C1070 1.385 . S
C1071 C1072 1.389 . S
C1072 C1071 1.389 . S
C1072 C1073 1.387 1_565 S
C1073 H1058 0.930 . S
C1073 C1068 1.390 . S
C1073 C1072 1.387 1_545 S
H1074 C1086 0.930 . S
H1075 C1088 0.930 . S
H1076 C1089 0.930 . S
H1077 C1093 0.959 . S
H1078 C1093 0.959 . S
H1079 C1093 0.961 . S
H1080 C1094 0.960 . S
H1081 C1094 0.961 . S
H1082 C1094 0.959 . S
H1083 C1097 0.929 . S
H1084 C1098 0.931 . S
H1085 C1100 0.930 . S
C1086 H1074 0.930 . S
C1086 C1087 1.399 . S
C1086 C1091 1.399 . S
C1087 C1086 1.399 . S
C1087 C1088 1.376 1_455 S
C1088 H1075 0.930 . S
C1088 C1087 1.376 1_655 S
C1088 C1089 1.388 . S
C1089 H1076 0.930 . S
C1089 C1088 1.388 . S
C1089 C1090 1.390 . S
C1090 C1089 1.390 . S
C1090 C1091 1.394 1_655 S
C1090 C1096 1.466 . S
C1091 C1086 1.399 . S
C1091 C1090 1.394 1_455 S
C1091 C1092 1.516 . S
C1092 C1091 1.516 . S
C1092 C1093 1.502 . S
C1092 C1094 1.561 1_455 S
C1092 C1095 1.526 . S
C1093 H1077 0.959 . S
C1093 H1078 0.959 . S
C1093 H1079 0.961 . S
C1093 C1092 1.502 . S
C1094 H1080 0.960 . S
C1094 H1081 0.961 . S
C1094 H1082 0.959 . S
C1094 C1092 1.561 1_655 S
C1095 C1092 1.526 . S
C1095 C1096 1.390 1_455 S
C1095 C1100 1.390 . S
C1096 C1090 1.466 . S
C1096 C1095 1.390 1_655 S
C1096 C1097 1.404 . S
C1097 H1083 0.929 . S
C1097 C1096 1.404 . S
C1097 C1098 1.385 . S
C1098 H1084 0.931 . S
C1098 C1097 1.385 . S
C1098 C1099 1.389 1_655 S
C1099 C1098 1.389 1_455 S
C1099 C1100 1.387 . S
C1100 H1085 0.930 . S
C1100 C1095 1.390 . S
C1100 C1099 1.387 . S
H1101 C1113 0.930 . S
H1102 C1115 0.930 . S
H1103 C1116 0.930 . S
H1104 C1120 0.959 . S
H1105 C1120 0.959 . S
H1106 C1120 0.961 . S
H1107 C1121 0.960 . S
H1108 C1121 0.961 . S
H1109 C1121 0.959 . S
H1110 C1124 0.929 . S
H1111 C1125 0.931 . S
H1112 C1127 0.930 . S
C1113 H1101 0.930 . S
C1113 C1114 1.399 1_545 S
C1113 C1118 1.399 . S
C1114 C1113 1.399 1_565 S
C1114 C1115 1.376 . S
C1115 H1102 0.930 . S
C1115 C1114 1.376 . S
C1115 C1116 1.388 . S
C1116 H1103 0.930 . S
C1116 C1115 1.388 . S
C1116 C1117 1.390 . S
C1117 C1116 1.390 . S
C1117 C1118 1.394 1_565 S
C1117 C1123 1.465 . S
C1118 C1113 1.399 . S
C1118 C1117 1.394 1_545 S
C1118 C1119 1.516 . S
C1119 C1118 1.516 . S
C1119 C1120 1.502 . S
C1119 C1121 1.561 . S
C1119 C1122 1.526 . S
C1120 H1104 0.959 . S
C1120 H1105 0.959 . S
C1120 H1106 0.961 . S
C1120 C1119 1.502 . S
C1121 H1107 0.960 . S
C1121 H1108 0.961 . S
C1121 H1109 0.959 . S
C1121 C1119 1.561 . S
C1122 C1119 1.526 . S
C1122 C1123 1.396 1_545 S
C1122 C1127 1.390 . S
C1123 C1117 1.465 . S
C1123 C1122 1.396 1_565 S
C1123 C1124 1.399 . S
C1124 H1110 0.929 . S
C1124 C1123 1.399 . S
C1124 C1125 1.385 . S
C1125 H1111 0.931 . S
C1125 C1124 1.385 . S
C1125 C1126 1.389 . S
C1126 C1125 1.389 . S
C1126 C1127 1.387 1_565 S
C1127 H1112 0.930 . S
C1127 C1122 1.390 . S
C1127 C1126 1.387 1_545 S
H1128 C1140 0.930 . S
H1129 C1142 0.930 . S
H1130 C1143 0.928 1_655 S
H1131 C1147 0.959 . S
H1132 C1147 0.959 . S
H1133 C1147 0.961 . S
H1134 C1148 0.960 . S
H1135 C1148 0.961 . S
H1136 C1148 0.959 . S
H1137 C1151 0.928 1_655 S
H1138 C1152 0.931 . S
H1139 C1154 0.930 . S
C1140 H1128 0.930 . S
C1140 C1141 1.399 . S
C1140 C1145 1.399 . S
C1141 C1140 1.399 . S
C1141 C1142 1.376 . S
C1142 H1129 0.930 . S
C1142 C1141 1.376 . S
C1142 C1143 1.389 . S
C1143 H1130 0.928 1_455 S
C1143 C1142 1.389 . S
C1143 C1144 1.391 . S
C1144 C1143 1.391 . S
C1144 C1145 1.394 . S
C1144 C1150 1.465 . S
C1145 C1140 1.399 . S
C1145 C1144 1.394 . S
C1145 C1146 1.516 . S
C1146 C1145 1.516 . S
C1146 C1147 1.502 . S
C1146 C1148 1.561 1_455 S
C1146 C1149 1.526 . S
C1147 H1131 0.959 . S
C1147 H1132 0.959 . S
C1147 H1133 0.961 . S
C1147 C1146 1.502 . S
C1148 H1134 0.960 . S
C1148 H1135 0.961 . S
C1148 H1136 0.959 . S
C1148 C1146 1.561 1_655 S
C1149 C1146 1.526 . S
C1149 C1150 1.396 . S
C1149 C1154 1.390 . S
C1150 C1144 1.465 . S
C1150 C1149 1.396 . S
C1150 C1151 1.399 . S
C1151 H1137 0.928 1_455 S
C1151 C1150 1.399 . S
C1151 C1152 1.385 . S
C1152 H1138 0.931 . S
C1152 C1151 1.385 . S
C1152 C1153 1.389 . S
C1153 C1152 1.389 . S
C1153 C1154 1.387 . S
C1154 H1139 0.930 . S
C1154 C1149 1.390 . S
C1154 C1153 1.387 . S
H1155 C1167 0.930 . S
H1156 C1169 0.930 . S
H1157 C1170 0.930 . S
H1158 C1174 0.959 . S
H1159 C1174 0.959 . S
H1160 C1174 0.961 . S
H1161 C1175 0.960 . S
H1162 C1175 0.961 . S
H1163 C1175 0.959 . S
H1164 C1178 0.929 . S
H1165 C1179 0.931 . S
H1166 C1181 0.930 . S
C1167 H1155 0.930 . S
C1167 C1168 1.399 1_565 S
C1167 C1172 1.399 . S
C1168 C1167 1.399 1_545 S
C1168 C1169 1.376 . S
C1169 H1156 0.930 . S
C1169 C1168 1.376 . S
C1169 C1170 1.388 . S
C1170 H1157 0.930 . S
C1170 C1169 1.388 . S
C1170 C1171 1.390 . S
C1171 C1170 1.390 . S
C1171 C1172 1.394 1_545 S
C1171 C1177 1.465 . S
C1172 C1167 1.399 . S
C1172 C1171 1.394 1_565 S
C1172 C1173 1.516 . S
C1173 C1172 1.516 . S
C1173 C1174 1.502 . S
C1173 C1175 1.561 . S
C1173 C1176 1.526 . S
C1174 H1158 0.959 . S
C1174 H1159 0.959 . S
C1174 H1160 0.961 . S
C1174 C1173 1.502 . S
C1175 H1161 0.960 . S
C1175 H1162 0.961 . S
C1175 H1163 0.959 . S
C1175 C1173 1.561 . S
C1176 C1173 1.526 . S
C1176 C1177 1.396 1_565 S
C1176 C1181 1.390 . S
C1177 C1171 1.465 . S
C1177 C1176 1.396 1_545 S
C1177 C1178 1.399 . S
C1178 H1164 0.929 . S
C1178 C1177 1.399 . S
C1178 C1179 1.385 . S
C1179 H1165 0.931 . S
C1179 C1178 1.385 . S
C1179 C1180 1.389 . S
C1180 C1179 1.389 . S
C1180 C1181 1.387 1_545 S
C1181 H1166 0.930 . S
C1181 C1176 1.390 . S
C1181 C1180 1.387 1_565 S
H1182 C1194 0.937 . S
H1183 C1196 0.930 . S
H1184 C1197 0.930 . S
H1185 C1201 0.959 . S
H1186 C1201 0.959 . S
H1187 C1201 0.961 . S
H1188 C1202 0.960 . S
H1189 C1202 0.961 . S
H1190 C1202 0.959 . S
H1191 C1205 0.929 . S
H1192 C1206 0.931 . S
H1193 C1208 0.930 . S
C1194 H1182 0.937 . S
C1194 C1195 1.399 . S
C1194 C1199 1.399 . S
C1195 C1194 1.399 . S
C1195 C1196 1.376 . S
C1196 H1183 0.930 . S
C1196 C1195 1.376 . S
C1196 C1197 1.388 . S
C1197 H1184 0.930 . S
C1197 C1196 1.388 . S
C1197 C1198 1.390 . S
C1198 C1197 1.390 . S
C1198 C1199 1.394 . S
C1198 C1204 1.465 . S
C1199 C1194 1.399 . S
C1199 C1198 1.394 . S
C1199 C1200 1.516 . S
C1200 C1199 1.516 . S
C1200 C1201 1.502 1_455 S
C1200 C1202 1.561 . S
C1200 C1203 1.526 . S
C1201 H1185 0.959 . S
C1201 H1186 0.959 . S
C1201 H1187 0.961 . S
C1201 C1200 1.502 1_655 S
C1202 H1188 0.960 . S
C1202 H1189 0.961 . S
C1202 H1190 0.959 . S
C1202 C1200 1.561 . S
C1203 C1200 1.526 . S
C1203 C1204 1.396 . S
C1203 C1208 1.390 . S
C1204 C1198 1.465 . S
C1204 C1203 1.396 . S
C1204 C1205 1.399 . S
C1205 H1191 0.929 . S
C1205 C1204 1.399 . S
C1205 C1206 1.385 . S
C1206 H1192 0.931 . S
C1206 C1205 1.385 . S
C1206 C1207 1.389 . S
C1207 C1206 1.389 . S
C1207 C1208 1.387 . S
C1208 H1193 0.930 . S
C1208 C1203 1.390 . S
C1208 C1207 1.387 . S
H1209 C1221 0.930 . S
H1210 C1223 0.930 . S
H1211 C1224 0.930 . S
H1212 C1228 0.959 . S
H1213 C1228 0.959 . S
H1214 C1228 0.961 . S
H1215 C1229 0.960 . S
H1216 C1229 0.961 . S
H1217 C1229 0.959 . S
H1218 C1232 0.929 . S
H1219 C1233 0.931 . S
H1220 C1235 0.930 . S
C1221 H1209 0.930 . S
C1221 C1222 1.399 1_545 S
C1221 C1226 1.399 . S
C1222 C1221 1.399 1_565 S
C1222 C1223 1.376 . S
C1223 H1210 0.930 . S
C1223 C1222 1.376 . S
C1223 C1224 1.388 . S
C1224 H1211 0.930 . S
C1224 C1223 1.388 . S
C1224 C1225 1.390 . S
C1225 C1224 1.390 . S
C1225 C1226 1.394 1_565 S
C1225 C1231 1.465 . S
C1226 C1221 1.399 . S
C1226 C1225 1.394 1_545 S
C1226 C1227 1.516 . S
C1227 C1226 1.516 . S
C1227 C1228 1.502 . S
C1227 C1229 1.561 . S
C1227 C1230 1.526 . S
C1228 H1212 0.959 . S
C1228 H1213 0.959 . S
C1228 H1214 0.961 . S
C1228 C1227 1.502 . S
C1229 H1215 0.960 . S
C1229 H1216 0.961 . S
C1229 H1217 0.959 . S
C1229 C1227 1.561 . S
C1230 C1227 1.526 . S
C1230 C1231 1.396 1_545 S
C1230 C1235 1.390 . S
C1231 C1225 1.465 . S
C1231 C1230 1.396 1_565 S
C1231 C1232 1.399 . S
C1232 H1218 0.929 . S
C1232 C1231 1.399 . S
C1232 C1233 1.385 . S
C1233 H1219 0.931 . S
C1233 C1232 1.385 . S
C1233 C1234 1.389 . S
C1234 C1233 1.389 . S
C1234 C1235 1.387 1_565 S
C1235 H1220 0.930 . S
C1235 C1230 1.390 . S
C1235 C1234 1.387 1_545 S
H1236 C1248 0.930 . S
H1237 C1250 0.930 . S
H1238 C1251 0.930 . S
H1239 C1255 0.959 . S
H1240 C1255 0.959 . S
H1241 C1255 0.961 . S
H1242 C1256 0.960 . S
H1243 C1256 0.961 . S
H1244 C1256 0.959 . S
H1245 C1259 0.929 . S
H1246 C1260 0.931 . S
H1247 C1262 0.930 . S
C1248 H1236 0.930 . S
C1248 C1249 1.399 . S
C1248 C1253 1.399 . S
C1249 C1248 1.399 . S
C1249 C1250 1.376 1_455 S
C1250 H1237 0.930 . S
C1250 C1249 1.376 1_655 S
C1250 C1251 1.388 . S
C1251 H1238 0.930 . S
C1251 C1250 1.388 . S
C1251 C1252 1.390 . S
C1252 C1251 1.390 . S
C1252 C1253 1.394 1_655 S
C1252 C1258 1.465 . S
C1253 C1248 1.399 . S
C1253 C1252 1.394 1_455 S
C1253 C1254 1.516 . S
C1254 C1253 1.516 . S
C1254 C1255 1.502 . S
C1254 C1256 1.561 1_455 S
C1254 C1257 1.526 . S
C1255 H1239 0.959 . S
C1255 H1240 0.959 . S
C1255 H1241 0.961 . S
C1255 C1254 1.502 . S
C1256 H1242 0.960 . S
C1256 H1243 0.961 . S
C1256 H1244 0.959 . S
C1256 C1254 1.561 1_655 S
C1257 C1254 1.526 . S
C1257 C1258 1.396 1_455 S
C1257 C1262 1.390 . S
C1258 C1252 1.465 . S
C1258 C1257 1.396 1_655 S
C1258 C1259 1.399 . S
C1259 H1245 0.929 . S
C1259 C1258 1.399 . S
C1259 C1260 1.385 . S
C1260 H1246 0.931 . S
C1260 C1259 1.385 . S
C1260 C1261 1.389 1_655 S
C1261 C1260 1.389 1_455 S
C1261 C1262 1.387 . S
C1262 H1247 0.930 . S
C1262 C1257 1.390 . S
C1262 C1261 1.387 . S
H1263 C1275 0.930 . S
H1264 C1277 0.930 . S
H1265 C1278 0.930 . S
H1266 C1282 0.959 . S
H1267 C1282 0.959 . S
H1268 C1282 0.961 . S
H1269 C1283 0.960 . S
H1270 C1283 0.961 . S
H1271 C1283 0.959 . S
H1272 C1286 0.929 . S
H1273 C1287 0.931 . S
H1274 C1289 0.930 . S
C1275 H1263 0.930 . S
C1275 C1276 1.399 1_565 S
C1275 C1280 1.399 . S
C1276 C1275 1.399 1_545 S
C1276 C1277 1.376 . S
C1277 H1264 0.930 . S
C1277 C1276 1.376 . S
C1277 C1278 1.388 . S
C1278 H1265 0.930 . S
C1278 C1277 1.388 . S
C1278 C1279 1.390 . S
C1279 C1278 1.390 . S
C1279 C1280 1.394 1_545 S
C1279 C1285 1.465 . S
C1280 C1275 1.399 . S
C1280 C1279 1.394 1_565 S
C1280 C1281 1.516 . S
C1281 C1280 1.516 . S
C1281 C1282 1.502 . S
C1281 C1283 1.561 . S
C1281 C1284 1.526 . S
C1282 H1266 0.959 . S
C1282 H1267 0.959 . S
C1282 H1268 0.961 . S
C1282 C1281 1.502 . S
C1283 H1269 0.960 . S
C1283 H1270 0.961 . S
C1283 H1271 0.959 . S
C1283 C1281 1.561 . S
C1284 C1281 1.526 . S
C1284 C1285 1.396 1_565 S
C1284 C1289 1.390 . S
C1285 C1279 1.465 . S
C1285 C1284 1.396 1_545 S
C1285 C1286 1.399 . S
C1286 H1272 0.929 . S
C1286 C1285 1.399 . S
C1286 C1287 1.385 . S
C1287 H1273 0.931 . S
C1287 C1286 1.385 . S
C1287 C1288 1.389 . S
C1288 C1287 1.389 . S
C1288 C1289 1.387 1_545 S
C1289 H1274 0.930 . S
C1289 C1284 1.390 . S
C1289 C1288 1.387 1_565 S
H1290 C1302 0.930 . S
H1291 C1304 0.930 . S
H1292 C1305 0.930 . S
H1293 C1309 0.956 1_655 S
H1294 C1309 0.959 . S
H1295 C1309 0.961 . S
H1296 C1310 0.960 . S
H1297 C1310 0.961 . S
H1298 C1310 0.959 . S
H1299 C1313 0.929 . S
H1300 C1314 0.931 . S
H1301 C1316 0.930 . S
C1302 H1290 0.930 . S
C1302 C1303 1.399 . S
C1302 C1307 1.399 . S
C1303 C1302 1.399 . S
C1303 C1304 1.376 1_455 S
C1304 H1291 0.930 . S
C1304 C1303 1.376 1_655 S
C1304 C1305 1.388 . S
C1305 H1292 0.930 . S
C1305 C1304 1.388 . S
C1305 C1306 1.390 . S
C1306 C1305 1.390 . S
C1306 C1307 1.394 1_655 S
C1306 C1312 1.465 . S
C1307 C1302 1.399 . S
C1307 C1306 1.394 1_455 S
C1307 C1308 1.516 . S
C1308 C1307 1.516 . S
C1308 C1309 1.502 . S
C1308 C1310 1.561 . S
C1308 C1311 1.526 . S
C1309 H1293 0.956 1_455 S
C1309 H1294 0.959 . S
C1309 H1295 0.961 . S
C1309 C1308 1.502 . S
C1310 H1296 0.960 . S
C1310 H1297 0.961 . S
C1310 H1298 0.959 . S
C1310 C1308 1.561 . S
C1311 C1308 1.526 . S
C1311 C1312 1.396 1_455 S
C1311 C1316 1.390 . S
C1312 C1306 1.465 . S
C1312 C1311 1.396 1_655 S
C1312 C1313 1.399 . S
C1313 H1299 0.929 . S
C1313 C1312 1.399 . S
C1313 C1314 1.385 . S
C1314 H1300 0.931 . S
C1314 C1313 1.385 . S
C1314 C1315 1.389 1_655 S
C1315 C1314 1.389 1_455 S
C1315 C1316 1.387 . S
C1316 H1301 0.930 . S
C1316 C1311 1.390 . S
C1316 C1315 1.387 . S
H1317 C1329 0.930 . S
H1318 C1331 0.930 . S
H1319 C1332 0.930 . S
H1320 C1336 0.959 . S
H1321 C1336 0.959 . S
H1322 C1336 0.961 . S
H1323 C1337 0.960 . S
H1324 C1337 0.961 . S
H1325 C1337 0.959 . S
H1326 C1340 0.929 . S
H1327 C1341 0.931 . S
H1328 C1343 0.930 . S
C1329 H1317 0.930 . S
C1329 C1330 1.399 1_565 S
C1329 C1334 1.399 . S
C1330 C1329 1.399 1_545 S
C1330 C1331 1.376 . S
C1331 H1318 0.930 . S
C1331 C1330 1.376 . S
C1331 C1332 1.388 . S
C1332 H1319 0.930 . S
C1332 C1331 1.388 . S
C1332 C1333 1.390 . S
C1333 C1332 1.390 . S
C1333 C1334 1.394 1_545 S
C1333 C1339 1.465 . S
C1334 C1329 1.399 . S
C1334 C1333 1.394 1_565 S
C1334 C1335 1.516 . S
C1335 C1334 1.516 . S
C1335 C1336 1.502 . S
C1335 C1337 1.561 . S
C1335 C1338 1.526 . S
C1336 H1320 0.959 . S
C1336 H1321 0.959 . S
C1336 H1322 0.961 . S
C1336 C1335 1.502 . S
C1337 H1323 0.960 . S
C1337 H1324 0.961 . S
C1337 H1325 0.959 . S
C1337 C1335 1.561 . S
C1338 C1335 1.526 . S
C1338 C1339 1.396 1_565 S
C1338 C1343 1.390 . S
C1339 C1333 1.465 . S
C1339 C1338 1.396 1_545 S
C1339 C1340 1.399 . S
C1340 H1326 0.929 . S
C1340 C1339 1.399 . S
C1340 C1341 1.385 . S
C1341 H1327 0.931 . S
C1341 C1340 1.385 . S
C1341 C1342 1.389 . S
C1342 C1341 1.389 . S
C1342 C1343 1.387 1_545 S
C1343 H1328 0.930 . S
C1343 C1338 1.390 . S
C1343 C1342 1.387 1_565 S
H1344 C1356 0.923 1_655 S
H1345 C1358 0.930 . S
H1346 C1359 0.930 . S
H1347 C1363 0.959 . S
H1348 C1363 0.959 . S
H1349 C1363 0.961 . S
H1350 C1364 0.960 . S
H1351 C1364 0.961 . S
H1352 C1364 0.959 . S
H1353 C1367 0.929 . S
H1354 C1368 0.931 . S
H1355 C1370 0.940 . S
C1356 H1344 0.923 1_455 S
C1356 C1357 1.404 . S
C1356 C1361 1.401 . S
C1357 C1356 1.404 . S
C1357 C1358 1.376 . S
C1358 H1345 0.930 . S
C1358 C1357 1.376 . S
C1358 C1359 1.388 . S
C1359 H1346 0.930 . S
C1359 C1358 1.388 . S
C1359 C1360 1.390 . S
C1360 C1359 1.390 . S
C1360 C1361 1.394 . S
C1360 C1366 1.465 . S
C1361 C1356 1.401 . S
C1361 C1360 1.394 . S
C1361 C1362 1.516 1_455 S
C1362 C1361 1.516 1_655 S
C1362 C1363 1.502 . S
C1362 C1364 1.561 1_655 S
C1362 C1365 1.526 1_655 S
C1363 H1347 0.959 . S
C1363 H1348 0.959 . S
C1363 H1349 0.961 . S
C1363 C1362 1.502 . S
C1364 H1350 0.960 . S
C1364 H1351 0.961 . S
C1364 H1352 0.959 . S
C1364 C1362 1.561 1_455 S
C1365 C1362 1.526 1_455 S
C1365 C1366 1.396 . S
C1365 C1370 1.386 1_455 S
C1366 C1360 1.465 . S
C1366 C1365 1.396 . S
C1366 C1367 1.399 . S
C1367 H1353 0.929 . S
C1367 C1366 1.399 . S
C1367 C1368 1.385 . S
C1368 H1354 0.931 . S
C1368 C1367 1.385 . S
C1368 C1369 1.389 . S
C1369 C1368 1.389 . S
C1369 C1370 1.381 1_455 S
C1370 H1355 0.940 . S
C1370 C1365 1.386 1_655 S
C1370 C1369 1.381 1_655 S
H1371 C1383 0.930 . S
H1372 C1385 0.930 . S
H1373 C1386 0.930 . S
H1374 C1390 0.959 . S
H1375 C1390 0.959 . S
H1376 C1390 0.961 . S
H1377 C1391 0.960 . S
H1378 C1391 0.961 . S
H1379 C1391 0.959 . S
H1380 C1394 0.929 . S
H1381 C1395 0.931 . S
H1382 C1397 0.930 . S
C1383 H1371 0.930 . S
C1383 C1384 1.399 1_545 S
C1383 C1388 1.399 . S
C1384 C1383 1.399 1_565 S
C1384 C1385 1.376 . S
C1385 H1372 0.930 . S
C1385 C1384 1.376 . S
C1385 C1386 1.388 . S
C1386 H1373 0.930 . S
C1386 C1385 1.388 . S
C1386 C1387 1.390 . S
C1387 C1386 1.390 . S
C1387 C1388 1.394 1_565 S
C1387 C1393 1.465 . S
C1388 C1383 1.399 . S
C1388 C1387 1.394 1_545 S
C1388 C1389 1.516 . S
C1389 C1388 1.516 . S
C1389 C1390 1.502 . S
C1389 C1391 1.561 1_545 S
C1389 C1392 1.526 . S
C1390 H1374 0.959 . S
C1390 H1375 0.959 . S
C1390 H1376 0.961 . S
C1390 C1389 1.502 . S
C1391 H1377 0.960 . S
C1391 H1378 0.961 . S
C1391 H1379 0.959 . S
C1391 C1389 1.561 1_565 S
C1392 C1389 1.526 . S
C1392 C1393 1.396 1_545 S
C1392 C1397 1.390 . S
C1393 C1387 1.465 . S
C1393 C1392 1.396 1_565 S
C1393 C1394 1.399 . S
C1394 H1380 0.929 . S
C1394 C1393 1.399 . S
C1394 C1395 1.385 . S
C1395 H1381 0.931 . S
C1395 C1394 1.385 . S
C1395 C1396 1.389 . S
C1396 C1395 1.389 . S
C1396 C1397 1.387 1_565 S
C1397 H1382 0.930 . S
C1397 C1392 1.390 . S
C1397 C1396 1.387 1_545 S
H1398 C1410 0.930 . S
H1399 C1412 0.930 . S
H1400 C1413 0.930 . S
H1401 C1417 0.959 . S
H1402 C1417 0.959 . S
H1403 C1417 0.961 . S
H1404 C1418 0.960 . S
H1405 C1418 0.961 . S
H1406 C1418 0.959 1_655 S
H1407 C1421 0.929 . S
H1408 C1422 0.931 . S
H1409 C1424 0.930 . S
C1410 H1398 0.930 . S
C1410 C1411 1.399 . S
C1410 C1415 1.399 . S
C1411 C1410 1.399 . S
C1411 C1412 1.376 1_455 S
C1412 H1399 0.930 . S
C1412 C1411 1.376 1_655 S
C1412 C1413 1.388 . S
C1413 H1400 0.930 . S
C1413 C1412 1.388 . S
C1413 C1414 1.390 . S
C1414 C1413 1.390 . S
C1414 C1415 1.394 1_655 S
C1414 C1420 1.465 . S
C1415 C1410 1.399 . S
C1415 C1414 1.394 1_455 S
C1415 C1416 1.516 . S
C1416 C1415 1.516 . S
C1416 C1417 1.502 . S
C1416 C1418 1.561 . S
C1416 C1419 1.526 . S
C1417 H1401 0.959 . S
C1417 H1402 0.959 . S
C1417 H1403 0.961 . S
C1417 C1416 1.502 . S
C1418 H1404 0.960 . S
C1418 H1405 0.961 . S
C1418 H1406 0.959 1_455 S
C1418 C1416 1.561 . S
C1419 C1416 1.526 . S
C1419 C1420 1.396 1_455 S
C1419 C1424 1.390 . S
C1420 C1414 1.465 . S
C1420 C1419 1.396 1_655 S
C1420 C1421 1.399 . S
C1421 H1407 0.929 . S
C1421 C1420 1.399 . S
C1421 C1422 1.385 . S
C1422 H1408 0.931 . S
C1422 C1421 1.385 . S
C1422 C1423 1.388 1_655 S
C1423 C1422 1.388 1_455 S
C1423 C1424 1.388 . S
C1424 H1409 0.930 . S
C1424 C1419 1.390 . S
C1424 C1423 1.388 . S
H1425 C1437 0.930 . S
H1426 C1439 0.930 . S
H1427 C1440 0.930 . S
H1428 C1444 0.959 . S
H1429 C1444 0.959 . S
H1430 C1444 0.961 . S
H1431 C1445 0.960 . S
H1432 C1445 0.961 . S
H1433 C1445 0.959 . S
H1434 C1448 0.929 . S
H1435 C1449 0.931 . S
H1436 C1451 0.930 . S
C1437 H1425 0.930 . S
C1437 C1438 1.399 1_565 S
C1437 C1442 1.399 . S
C1438 C1437 1.399 1_545 S
C1438 C1439 1.376 . S
C1439 H1426 0.930 . S
C1439 C1438 1.376 . S
C1439 C1440 1.388 . S
C1440 H1427 0.930 . S
C1440 C1439 1.388 . S
C1440 C1441 1.390 . S
C1441 C1440 1.390 . S
C1441 C1442 1.394 1_545 S
C1441 C1447 1.465 . S
C1442 C1437 1.399 . S
C1442 C1441 1.394 1_565 S
C1442 C1443 1.516 . S
C1443 C1442 1.516 . S
C1443 C1444 1.502 . S
C1443 C1445 1.561 . S
C1443 C1446 1.526 . S
C1444 H1428 0.959 . S
C1444 H1429 0.959 . S
C1444 H1430 0.961 . S
C1444 C1443 1.502 . S
C1445 H1431 0.960 . S
C1445 H1432 0.961 . S
C1445 H1433 0.959 . S
C1445 C1443 1.561 . S
C1446 C1443 1.526 . S
C1446 C1447 1.396 1_565 S
C1446 C1451 1.390 . S
C1447 C1441 1.465 . S
C1447 C1446 1.396 1_545 S
C1447 C1448 1.399 . S
C1448 H1434 0.929 . S
C1448 C1447 1.399 . S
C1448 C1449 1.385 . S
C1449 H1435 0.931 . S
C1449 C1448 1.385 . S
C1449 C1450 1.389 . S
C1450 C1449 1.389 . S
C1450 C1451 1.387 1_545 S
C1451 H1436 0.930 . S
C1451 C1446 1.390 . S
C1451 C1450 1.387 1_565 S
H1452 C1464 0.930 . S
H1453 C1466 0.930 . S
H1454 C1467 0.930 . S
H1455 C1471 0.959 . S
H1456 C1471 0.959 . S
H1457 C1471 0.961 . S
H1458 C1472 0.960 . S
H1459 C1472 0.961 . S
H1460 C1472 0.959 . S
H1461 C1475 0.929 . S
H1462 C1476 0.931 . S
H1463 C1478 0.930 . S
C1464 H1452 0.930 . S
C1464 C1465 1.399 1_565 S
C1464 C1469 1.399 . S
C1465 C1464 1.399 1_545 S
C1465 C1466 1.376 . S
C1466 H1453 0.930 . S
C1466 C1465 1.376 . S
C1466 C1467 1.388 . S
C1467 H1454 0.930 . S
C1467 C1466 1.388 . S
C1467 C1468 1.390 . S
C1468 C1467 1.390 . S
C1468 C1469 1.394 1_545 S
C1468 C1474 1.465 . S
C1469 C1464 1.399 . S
C1469 C1468 1.394 1_565 S
C1469 C1470 1.516 . S
C1470 C1469 1.516 . S
C1470 C1471 1.502 . S
C1470 C1472 1.561 . S
C1470 C1473 1.526 . S
C1471 H1455 0.959 . S
C1471 H1456 0.959 . S
C1471 H1457 0.961 . S
C1471 C1470 1.502 . S
C1472 H1458 0.960 . S
C1472 H1459 0.961 . S
C1472 H1460 0.959 . S
C1472 C1470 1.561 . S
C1473 C1470 1.526 . S
C1473 C1474 1.396 1_565 S
C1473 C1478 1.390 . S
C1474 C1468 1.465 . S
C1474 C1473 1.396 1_545 S
C1474 C1475 1.399 . S
C1475 H1461 0.929 . S
C1475 C1474 1.399 . S
C1475 C1476 1.385 . S
C1476 H1462 0.931 . S
C1476 C1475 1.385 . S
C1476 C1477 1.389 . S
C1477 C1476 1.389 . S
C1477 C1478 1.387 1_545 S
C1478 H1463 0.930 . S
C1478 C1473 1.390 . S
C1478 C1477 1.387 1_565 S
H1479 C1491 0.930 . S
H1480 C1493 0.930 . S
H1481 C1494 0.930 . S
H1482 C1498 0.959 . S
H1483 C1498 0.959 . S
H1484 C1498 0.961 . S
H1485 C1499 0.967 . S
H1486 C1499 0.970 . S
H1487 C1499 0.935 1_455 S
H1488 C1502 0.929 . S
H1489 C1503 0.931 . S
H1490 C1505 0.930 . S
C1491 H1479 0.930 . S
C1491 C1492 1.399 1_655 S
C1491 C1496 1.396 1_655 S
C1492 C1491 1.399 1_455 S
C1492 C1493 1.376 . S
C1493 H1480 0.930 . S
C1493 C1492 1.376 . S
C1493 C1494 1.388 . S
C1494 H1481 0.930 . S
C1494 C1493 1.388 . S
C1494 C1495 1.390 . S
C1495 C1494 1.390 . S
C1495 C1496 1.404 . S
C1495 C1501 1.465 . S
C1496 C1491 1.396 1_455 S
C1496 C1495 1.404 . S
C1496 C1497 1.510 1_455 S
C1497 C1496 1.510 1_655 S
C1497 C1498 1.502 . S
C1497 C1499 1.569 . S
C1497 C1500 1.526 1_655 S
C1498 H1482 0.959 . S
C1498 H1483 0.959 . S
C1498 H1484 0.961 . S
C1498 C1497 1.502 . S
C1499 H1485 0.967 . S
C1499 H1486 0.970 . S
C1499 H1487 0.935 1_655 S
C1499 C1497 1.569 . S
C1500 C1497 1.526 1_455 S
C1500 C1501 1.396 . S
C1500 C1505 1.390 1_455 S
C1501 C1495 1.465 . S
C1501 C1500 1.396 . S
C1501 C1502 1.399 . S
C1502 H1488 0.929 . S
C1502 C1501 1.399 . S
C1502 C1503 1.385 . S
C1503 H1489 0.931 . S
C1503 C1502 1.385 . S
C1503 C1504 1.389 . S
C1504 C1503 1.389 . S
C1504 C1505 1.387 1_455 S
C1505 H1490 0.930 . S
C1505 C1500 1.390 1_655 S
C1505 C1504 1.387 1_655 S
H1506 C1518 0.930 . S
H1507 C1520 0.930 . S
H1508 C1521 0.930 . S
H1509 C1525 0.959 . S
H1510 C1525 0.959 . S
H1511 C1525 0.961 . S
H1512 C1526 0.960 . S
H1513 C1526 0.961 . S
H1514 C1526 0.959 . S
H1515 C1529 0.929 . S
H1516 C1530 0.931 . S
H1517 C1532 0.930 . S
C1518 H1506 0.930 . S
C1518 C1519 1.399 1_545 S
C1518 C1523 1.399 . S
C1519 C1518 1.399 1_565 S
C1519 C1520 1.376 . S
C1520 H1507 0.930 . S
C1520 C1519 1.376 . S
C1520 C1521 1.388 . S
C1521 H1508 0.930 . S
C1521 C1520 1.388 . S
C1521 C1522 1.390 . S
C1522 C1521 1.390 . S
C1522 C1523 1.394 1_565 S
C1522 C1528 1.465 . S
C1523 C1518 1.399 . S
C1523 C1522 1.394 1_545 S
C1523 C1524 1.516 . S
C1524 C1523 1.516 . S
C1524 C1525 1.502 . S
C1524 C1526 1.561 . S
C1524 C1527 1.526 . S
C1525 H1509 0.959 . S
C1525 H1510 0.959 . S
C1525 H1511 0.961 . S
C1525 C1524 1.502 . S
C1526 H1512 0.960 . S
C1526 H1513 0.961 . S
C1526 H1514 0.959 . S
C1526 C1524 1.561 . S
C1527 C1524 1.526 . S
C1527 C1528 1.396 1_545 S
C1527 C1532 1.390 . S
C1528 C1522 1.465 . S
C1528 C1527 1.396 1_565 S
C1528 C1529 1.399 . S
C1529 H1515 0.929 . S
C1529 C1528 1.399 . S
C1529 C1530 1.385 . S
C1530 H1516 0.931 . S
C1530 C1529 1.385 . S
C1530 C1531 1.389 . S
C1531 C1530 1.389 . S
C1531 C1532 1.387 1_565 S
C1532 H1517 0.930 . S
C1532 C1527 1.390 . S
C1532 C1531 1.387 1_545 S
H1533 C1545 0.930 . S
H1534 C1547 0.930 . S
H1535 C1548 0.930 . S
H1536 C1552 0.959 . S
H1537 C1552 0.959 . S
H1538 C1552 0.961 . S
H1539 C1553 0.960 . S
H1540 C1553 0.961 . S
H1541 C1553 0.959 . S
H1542 C1556 0.929 . S
H1543 C1557 0.931 . S
H1544 C1559 0.930 . S
C1545 H1533 0.930 . S
C1545 C1546 1.399 1_655 S
C1545 C1550 1.399 . S
C1546 C1545 1.399 1_455 S
C1546 C1547 1.376 . S
C1547 H1534 0.930 . S
C1547 C1546 1.376 . S
C1547 C1548 1.388 . S
C1548 H1535 0.930 . S
C1548 C1547 1.388 . S
C1548 C1549 1.390 . S
C1549 C1548 1.390 . S
C1549 C1550 1.394 1_455 S
C1549 C1555 1.465 . S
C1550 C1545 1.399 . S
C1550 C1549 1.394 1_655 S
C1550 C1551 1.516 . S
C1551 C1550 1.516 . S
C1551 C1552 1.502 . S
C1551 C1553 1.561 . S
C1551 C1554 1.526 . S
C1552 H1536 0.959 . S
C1552 H1537 0.959 . S
C1552 H1538 0.961 . S
C1552 C1551 1.502 . S
C1553 H1539 0.960 . S
C1553 H1540 0.961 . S
C1553 H1541 0.959 . S
C1553 C1551 1.561 . S
C1554 C1551 1.526 . S
C1554 C1555 1.396 1_655 S
C1554 C1559 1.390 . S
C1555 C1549 1.465 . S
C1555 C1554 1.396 1_455 S
C1555 C1556 1.399 . S
C1556 H1542 0.929 . S
C1556 C1555 1.399 . S
C1556 C1557 1.385 . S
C1557 H1543 0.931 . S
C1557 C1556 1.385 . S
C1557 C1558 1.389 . S
C1558 C1557 1.389 . S
C1558 C1559 1.387 1_455 S
C1559 H1544 0.930 . S
C1559 C1554 1.390 . S
C1559 C1558 1.387 1_655 S
H1560 C1572 0.930 . S
H1561 C1574 0.930 . S
H1562 C1575 0.930 . S
H1563 C1579 0.959 . S
H1564 C1579 0.959 . S
H1565 C1579 0.961 . S
H1566 C1580 0.960 . S
H1567 C1580 0.961 . S
H1568 C1580 0.959 . S
H1569 C1583 0.929 . S
H1570 C1584 0.931 . S
H1571 C1586 0.930 . S
C1572 H1560 0.930 . S
C1572 C1573 1.399 1_545 S
C1572 C1577 1.399 . S
C1573 C1572 1.399 1_565 S
C1573 C1574 1.376 . S
C1574 H1561 0.930 . S
C1574 C1573 1.376 . S
C1574 C1575 1.388 . S
C1575 H1562 0.930 . S
C1575 C1574 1.388 . S
C1575 C1576 1.390 . S
C1576 C1575 1.390 . S
C1576 C1577 1.394 1_565 S
C1576 C1582 1.465 . S
C1577 C1572 1.399 . S
C1577 C1576 1.394 1_545 S
C1577 C1578 1.516 . S
C1578 C1577 1.516 . S
C1578 C1579 1.502 . S
C1578 C1580 1.561 . S
C1578 C1581 1.526 . S
C1579 H1563 0.959 . S
C1579 H1564 0.959 . S
C1579 H1565 0.961 . S
C1579 C1578 1.502 . S
C1580 H1566 0.960 . S
C1580 H1567 0.961 . S
C1580 H1568 0.959 . S
C1580 C1578 1.561 . S
C1581 C1578 1.526 . S
C1581 C1582 1.396 1_545 S
C1581 C1586 1.390 . S
C1582 C1576 1.465 . S
C1582 C1581 1.396 1_565 S
C1582 C1583 1.399 . S
C1583 H1569 0.929 . S
C1583 C1582 1.399 . S
C1583 C1584 1.385 . S
C1584 H1570 0.931 . S
C1584 C1583 1.385 . S
C1584 C1585 1.389 . S
C1585 C1584 1.389 . S
C1585 C1586 1.387 1_565 S
C1586 H1571 0.930 . S
C1586 C1581 1.390 . S
C1586 C1585 1.387 1_545 S
H1587 C1599 0.937 . S
H1588 C1601 0.930 . S
H1589 C1602 0.930 . S
H1590 C1606 0.959 . S
H1591 C1606 0.959 . S
H1592 C1606 0.961 . S
H1593 C1607 0.960 . S
H1594 C1607 0.961 . S
H1595 C1607 0.959 . S
H1596 C1610 0.929 . S
H1597 C1611 0.931 . S
H1598 C1613 0.930 1_655 S
C1599 H1587 0.937 . S
C1599 C1600 1.394 1_655 S
C1599 C1604 1.397 1_655 S
C1600 C1599 1.394 1_455 S
C1600 C1601 1.376 . S
C1601 H1588 0.930 . S
C1601 C1600 1.376 . S
C1601 C1602 1.388 . S
C1602 H1589 0.930 . S
C1602 C1601 1.388 . S
C1602 C1603 1.390 . S
C1603 C1602 1.390 . S
C1603 C1604 1.394 . S
C1603 C1609 1.465 . S
C1604 C1599 1.397 1_455 S
C1604 C1603 1.394 . S
C1604 C1605 1.516 1_455 S
C1605 C1604 1.516 1_655 S
C1605 C1606 1.502 . S
C1605 C1607 1.561 1_655 S
C1605 C1608 1.526 1_655 S
C1606 H1590 0.959 . S
C1606 H1591 0.959 . S
C1606 H1592 0.961 . S
C1606 C1605 1.502 . S
C1607 H1593 0.960 . S
C1607 H1594 0.961 . S
C1607 H1595 0.959 . S
C1607 C1605 1.561 1_455 S
C1608 C1605 1.526 1_455 S
C1608 C1609 1.396 . S
C1608 C1613 1.390 . S
C1609 C1603 1.465 . S
C1609 C1608 1.396 . S
C1609 C1610 1.399 . S
C1610 H1596 0.929 . S
C1610 C1609 1.399 . S
C1610 C1611 1.385 . S
C1611 H1597 0.931 . S
C1611 C1610 1.385 . S
C1611 C1612 1.389 . S
C1612 C1611 1.389 . S
C1612 C1613 1.387 . S
C1613 H1598 0.930 1_455 S
C1613 C1608 1.390 . S
C1613 C1612 1.387 . S
H1614 C1626 0.930 . S
H1615 C1628 0.930 . S
H1616 C1629 0.930 . S
H1617 C1633 0.959 . S
H1618 C1633 0.959 . S
H1619 C1633 0.961 . S
H1620 C1634 0.960 . S
H1621 C1634 0.961 . S
H1622 C1634 0.959 . S
H1623 C1637 0.929 . S
H1624 C1638 0.931 . S
H1625 C1640 0.930 . S
C1626 H1614 0.930 . S
C1626 C1627 1.399 1_565 S
C1626 C1631 1.399 . S
C1627 C1626 1.399 1_545 S
C1627 C1628 1.376 . S
C1628 H1615 0.930 . S
C1628 C1627 1.376 . S
C1628 C1629 1.388 . S
C1629 H1616 0.930 . S
C1629 C1628 1.388 . S
C1629 C1630 1.390 . S
C1630 C1629 1.390 . S
C1630 C1631 1.394 1_545 S
C1630 C1636 1.465 . S
C1631 C1626 1.399 . S
C1631 C1630 1.394 1_565 S
C1631 C1632 1.516 . S
C1632 C1631 1.516 . S
C1632 C1633 1.502 . S
C1632 C1634 1.561 . S
C1632 C1635 1.526 . S
C1633 H1617 0.959 . S
C1633 H1618 0.959 . S
C1633 H1619 0.961 . S
C1633 C1632 1.502 . S
C1634 H1620 0.960 . S
C1634 H1621 0.961 . S
C1634 H1622 0.959 . S
C1634 C1632 1.561 . S
C1635 C1632 1.526 . S
C1635 C1636 1.396 1_565 S
C1635 C1640 1.390 . S
C1636 C1630 1.465 . S
C1636 C1635 1.396 1_545 S
C1636 C1637 1.399 . S
C1637 H1623 0.929 . S
C1637 C1636 1.399 . S
C1637 C1638 1.385 . S
C1638 H1624 0.931 . S
C1638 C1637 1.385 . S
C1638 C1639 1.389 . S
C1639 C1638 1.389 . S
C1639 C1640 1.387 1_545 S
C1640 H1625 0.930 . S
C1640 C1635 1.390 . S
C1640 C1639 1.387 1_565 S
H1641 C1653 0.930 . S
H1642 C1655 0.930 . S
H1643 C1656 0.930 . S
H1644 C1660 0.959 1_455 S
H1645 C1660 0.959 . S
H1646 C1660 0.961 . S
H1647 C1661 0.960 . S
H1648 C1661 0.961 . S
H1649 C1661 0.959 . S
H1650 C1664 0.929 . S
H1651 C1665 0.931 . S
H1652 C1667 0.946 . S
C1653 H1641 0.930 . S
C1653 C1654 1.399 1_655 S
C1653 C1658 1.402 . S
C1654 C1653 1.399 1_455 S
C1654 C1655 1.376 . S
C1655 H1642 0.930 . S
C1655 C1654 1.376 . S
C1655 C1656 1.388 . S
C1656 H1643 0.930 . S
C1656 C1655 1.388 . S
C1656 C1657 1.390 . S
C1657 C1656 1.390 . S
C1657 C1658 1.379 1_455 S
C1657 C1663 1.465 . S
C1658 C1653 1.402 . S
C1658 C1657 1.379 1_655 S
C1658 C1659 1.527 . S
C1659 C1658 1.527 . S
C1659 C1660 1.502 . S
C1659 C1661 1.561 . S
C1659 C1662 1.523 1_655 S
C1660 H1644 0.959 1_655 S
C1660 H1645 0.959 . S
C1660 H1646 0.961 . S
C1660 C1659 1.502 . S
C1661 H1647 0.960 . S
C1661 H1648 0.961 . S
C1661 H1649 0.959 . S
C1661 C1659 1.561 . S
C1662 C1659 1.523 1_455 S
C1662 C1663 1.400 . S
C1662 C1667 1.388 1_455 S
C1663 C1657 1.465 . S
C1663 C1662 1.400 . S
C1663 C1664 1.399 . S
C1664 H1650 0.929 . S
C1664 C1663 1.399 . S
C1664 C1665 1.385 . S
C1665 H1651 0.931 . S
C1665 C1664 1.385 . S
C1665 C1666 1.389 . S
C1666 C1665 1.389 . S
C1666 C1667 1.373 1_455 S
C1667 H1652 0.946 . S
C1667 C1662 1.388 1_655 S
C1667 C1666 1.373 1_655 S
H1668 C1680 0.930 . S
H1669 C1682 0.930 . S
H1670 C1683 0.930 . S
H1671 C1687 0.959 . S
H1672 C1687 0.959 . S
H1673 C1687 0.961 . S
H1674 C1688 0.960 . S
H1675 C1688 0.961 . S
H1676 C1688 0.959 . S
H1677 C1691 0.929 . S
H1678 C1692 0.931 . S
H1679 C1694 0.930 . S
C1680 H1668 0.930 . S
C1680 C1681 1.399 1_556 S
C1680 C1685 1.399 . S
C1681 C1680 1.399 1_554 S
C1681 C1682 1.376 . S
C1682 H1669 0.930 . S
C1682 C1681 1.376 . S
C1682 C1683 1.388 . S
C1683 H1670 0.930 . S
C1683 C1682 1.388 . S
C1683 C1684 1.390 . S
C1684 C1683 1.390 . S
C1684 C1685 1.394 1_554 S
C1684 C1690 1.465 . S
C1685 C1680 1.399 . S
C1685 C1684 1.394 1_556 S
C1685 C1686 1.516 . S
C1686 C1685 1.516 . S
C1686 C1687 1.502 . S
C1686 C1688 1.561 . S
C1686 C1689 1.545 . S
C1687 H1671 0.959 . S
C1687 H1672 0.959 . S
C1687 H1673 0.961 . S
C1687 C1686 1.502 . S
C1688 H1674 0.960 . S
C1688 H1675 0.961 . S
C1688 H1676 0.959 . S
C1688 C1686 1.561 . S
C1689 C1686 1.545 . S
C1689 C1690 1.370 1_556 S
C1689 C1694 1.394 . S
C1690 C1684 1.465 . S
C1690 C1689 1.370 1_554 S
C1690 C1691 1.399 . S
C1691 H1677 0.929 . S
C1691 C1690 1.399 . S
C1691 C1692 1.385 . S
C1692 H1678 0.931 . S
C1692 C1691 1.385 . S
C1692 C1693 1.389 . S
C1693 C1692 1.389 . S
C1693 C1694 1.387 1_554 S
C1694 H1679 0.930 . S
C1694 C1689 1.394 . S
C1694 C1693 1.387 1_556 S
H1695 C1707 0.930 . S
H1696 C1709 0.930 . S
H1697 C1710 0.930 . S
H1698 C1714 0.959 . S
H1699 C1714 0.959 . S
H1700 C1714 0.961 . S
H1701 C1715 0.960 . S
H1702 C1715 0.961 . S
H1703 C1715 0.959 . S
H1704 C1718 0.929 . S
H1705 C1719 0.931 . S
H1706 C1721 0.930 . S
C1707 H1695 0.930 . S
C1707 C1708 1.399 . S
C1707 C1712 1.399 . S
C1708 C1707 1.399 . S
C1708 C1709 1.376 1_554 S
C1709 H1696 0.930 . S
C1709 C1708 1.376 1_556 S
C1709 C1710 1.388 . S
C1710 H1697 0.930 . S
C1710 C1709 1.388 . S
C1710 C1711 1.390 . S
C1711 C1710 1.390 . S
C1711 C1712 1.394 1_556 S
C1711 C1717 1.465 . S
C1712 C1707 1.399 . S
C1712 C1711 1.394 1_554 S
C1712 C1713 1.516 . S
C1713 C1712 1.516 . S
C1713 C1714 1.502 . S
C1713 C1715 1.561 . S
C1713 C1716 1.526 . S
C1714 H1698 0.959 . S
C1714 H1699 0.959 . S
C1714 H1700 0.961 . S
C1714 C1713 1.502 . S
C1715 H1701 0.960 . S
C1715 H1702 0.961 . S
C1715 H1703 0.959 . S
C1715 C1713 1.561 . S
C1716 C1713 1.526 . S
C1716 C1717 1.396 1_554 S
C1716 C1721 1.390 . S
C1717 C1711 1.465 . S
C1717 C1716 1.396 1_556 S
C1717 C1718 1.399 . S
C1718 H1704 0.929 . S
C1718 C1717 1.399 . S
C1718 C1719 1.385 . S
C1719 H1705 0.931 . S
C1719 C1718 1.385 . S
C1719 C1720 1.389 1_556 S
C1720 C1719 1.389 1_554 S
C1720 C1721 1.387 . S
C1721 H1706 0.930 . S
C1721 C1716 1.390 . S
C1721 C1720 1.387 . S
H1722 C1734 0.930 . S
H1723 C1736 0.930 . S
H1724 C1737 0.930 . S
H1725 C1741 0.959 . S
H1726 C1741 0.959 . S
H1727 C1741 0.961 . S
H1728 C1742 0.960 . S
H1729 C1742 0.961 . S
H1730 C1742 0.959 . S
H1731 C1745 0.929 . S
H1732 C1746 0.931 . S
H1733 C1748 0.930 . S
C1734 H1722 0.930 . S
C1734 C1735 1.399 . S
C1734 C1739 1.399 . S
C1735 C1734 1.399 . S
C1735 C1736 1.376 1_554 S
C1736 H1723 0.930 . S
C1736 C1735 1.376 1_556 S
C1736 C1737 1.388 . S
C1737 H1724 0.930 . S
C1737 C1736 1.388 . S
C1737 C1738 1.390 . S
C1738 C1737 1.390 . S
C1738 C1739 1.394 1_556 S
C1738 C1744 1.465 . S
C1739 C1734 1.399 . S
C1739 C1738 1.394 1_554 S
C1739 C1740 1.516 . S
C1740 C1739 1.516 . S
C1740 C1741 1.502 . S
C1740 C1742 1.561 . S
C1740 C1743 1.526 . S
C1741 H1725 0.959 . S
C1741 H1726 0.959 . S
C1741 H1727 0.961 . S
C1741 C1740 1.502 . S
C1742 H1728 0.960 . S
C1742 H1729 0.961 . S
C1742 H1730 0.959 . S
C1742 C1740 1.561 . S
C1743 C1740 1.526 . S
C1743 C1744 1.396 1_554 S
C1743 C1748 1.390 . S
C1744 C1738 1.465 . S
C1744 C1743 1.396 1_556 S
C1744 C1745 1.399 . S
C1745 H1731 0.929 . S
C1745 C1744 1.399 . S
C1745 C1746 1.385 . S
C1746 H1732 0.931 . S
C1746 C1745 1.385 . S
C1746 C1747 1.389 1_556 S
C1747 C1746 1.389 1_554 S
C1747 C1748 1.387 . S
C1748 H1733 0.930 . S
C1748 C1743 1.390 . S
C1748 C1747 1.387 . S
H1749 C1761 0.930 . S
H1750 C1763 0.930 . S
H1751 C1764 0.930 . S
H1752 C1768 0.959 . S
H1753 C1768 0.959 . S
H1754 C1768 0.961 . S
H1755 C1769 0.960 . S
H1756 C1769 0.961 . S
H1757 C1769 0.959 . S
H1758 C1772 0.929 . S
H1759 C1773 0.931 . S
H1760 C1775 0.930 . S
C1761 H1749 0.930 . S
C1761 C1762 1.399 . S
C1761 C1766 1.399 . S
C1762 C1761 1.399 . S
C1762 C1763 1.376 1_554 S
C1763 H1750 0.930 . S
C1763 C1762 1.376 1_556 S
C1763 C1764 1.388 . S
C1764 H1751 0.930 . S
C1764 C1763 1.388 . S
C1764 C1765 1.390 . S
C1765 C1764 1.390 . S
C1765 C1766 1.394 1_556 S
C1765 C1771 1.465 . S
C1766 C1761 1.399 . S
C1766 C1765 1.394 1_554 S
C1766 C1767 1.516 . S
C1767 C1766 1.516 . S
C1767 C1768 1.502 . S
C1767 C1769 1.561 . S
C1767 C1770 1.526 . S
C1768 H1752 0.959 . S
C1768 H1753 0.959 . S
C1768 H1754 0.961 . S
C1768 C1767 1.502 . S
C1769 H1755 0.960 . S
C1769 H1756 0.961 . S
C1769 H1757 0.959 . S
C1769 C1767 1.561 . S
C1770 C1767 1.526 . S
C1770 C1771 1.396 1_554 S
C1770 C1775 1.390 . S
C1771 C1765 1.465 . S
C1771 C1770 1.396 1_556 S
C1771 C1772 1.399 . S
C1772 H1758 0.929 . S
C1772 C1771 1.399 . S
C1772 C1773 1.385 . S
C1773 H1759 0.931 . S
C1773 C1772 1.385 . S
C1773 C1774 1.389 1_556 S
C1774 C1773 1.389 1_554 S
C1774 C1775 1.387 . S
C1775 H1760 0.930 . S
C1775 C1770 1.390 . S
C1775 C1774 1.387 . S
H1776 C1788 0.930 . S
H1777 C1790 0.930 . S
H1778 C1791 0.930 . S
H1779 C1795 0.959 . S
H1780 C1795 0.959 . S
H1781 C1795 0.961 . S
H1782 C1796 0.960 . S
H1783 C1796 0.961 . S
H1784 C1796 0.959 . S
H1785 C1799 0.929 . S
H1786 C1800 0.931 . S
H1787 C1802 0.930 . S
C1788 H1776 0.930 . S
C1788 C1789 1.399 1_556 S
C1788 C1793 1.399 . S
C1789 C1788 1.399 1_554 S
C1789 C1790 1.376 . S
C1790 H1777 0.930 . S
C1790 C1789 1.376 . S
C1790 C1791 1.388 . S
C1791 H1778 0.930 . S
C1791 C1790 1.388 . S
C1791 C1792 1.390 . S
C1792 C1791 1.390 . S
C1792 C1793 1.394 1_554 S
C1792 C1798 1.465 . S
C1793 C1788 1.399 . S
C1793 C1792 1.394 1_556 S
C1793 C1794 1.516 . S
C1794 C1793 1.516 . S
C1794 C1795 1.502 . S
C1794 C1796 1.561 . S
C1794 C1797 1.526 . S
C1795 H1779 0.959 . S
C1795 H1780 0.959 . S
C1795 H1781 0.961 . S
C1795 C1794 1.502 . S
C1796 H1782 0.960 . S
C1796 H1783 0.961 . S
C1796 H1784 0.959 . S
C1796 C1794 1.561 . S
C1797 C1794 1.526 . S
C1797 C1798 1.396 1_556 S
C1797 C1802 1.390 . S
C1798 C1792 1.465 . S
C1798 C1797 1.396 1_554 S
C1798 C1799 1.399 . S
C1799 H1785 0.929 . S
C1799 C1798 1.399 . S
C1799 C1800 1.385 . S
C1800 H1786 0.931 . S
C1800 C1799 1.385 . S
C1800 C1801 1.389 . S
C1801 C1800 1.389 . S
C1801 C1802 1.387 1_554 S
C1802 H1787 0.930 . S
C1802 C1797 1.390 . S
C1802 C1801 1.387 1_556 S
H1803 C1815 0.930 . S
H1804 C1817 0.930 . S
H1805 C1818 0.930 . S
H1806 C1822 0.959 . S
H1807 C1822 0.959 . S
H1808 C1822 0.961 . S
H1809 C1823 0.960 . S
H1810 C1823 0.961 . S
H1811 C1823 0.959 . S
H1812 C1826 0.929 . S
H1813 C1827 0.931 . S
H1814 C1829 0.930 . S
C1815 H1803 0.930 . S
C1815 C1816 1.399 . S
C1815 C1820 1.399 . S
C1816 C1815 1.399 . S
C1816 C1817 1.376 1_554 S
C1817 H1804 0.930 . S
C1817 C1816 1.376 1_556 S
C1817 C1818 1.388 . S
C1818 H1805 0.930 . S
C1818 C1817 1.388 . S
C1818 C1819 1.390 . S
C1819 C1818 1.390 . S
C1819 C1820 1.394 1_556 S
C1819 C1825 1.465 . S
C1820 C1815 1.399 . S
C1820 C1819 1.394 1_554 S
C1820 C1821 1.516 . S
C1821 C1820 1.516 . S
C1821 C1822 1.502 . S
C1821 C1823 1.561 . S
C1821 C1824 1.526 . S
C1822 H1806 0.959 . S
C1822 H1807 0.959 . S
C1822 H1808 0.961 . S
C1822 C1821 1.502 . S
C1823 H1809 0.960 . S
C1823 H1810 0.961 . S
C1823 H1811 0.959 . S
C1823 C1821 1.561 . S
C1824 C1821 1.526 . S
C1824 C1825 1.396 1_554 S
C1824 C1829 1.390 . S
C1825 C1819 1.465 . S
C1825 C1824 1.396 1_556 S
C1825 C1826 1.399 . S
C1826 H1812 0.929 . S
C1826 C1825 1.399 . S
C1826 C1827 1.385 . S
C1827 H1813 0.931 . S
C1827 C1826 1.385 . S
C1827 C1828 1.389 1_556 S
C1828 C1827 1.389 1_554 S
C1828 C1829 1.387 . S
C1829 H1814 0.930 . S
C1829 C1824 1.390 . S
C1829 C1828 1.387 . S
H1830 C1842 0.930 . S
H1831 C1844 0.930 . S
H1832 C1845 0.930 . S
H1833 C1849 0.959 . S
H1834 C1849 0.959 . S
H1835 C1849 0.961 . S
H1836 C1850 0.960 . S
H1837 C1850 0.961 . S
H1838 C1850 0.959 . S
H1839 C1853 0.929 . S
H1840 C1854 0.931 . S
H1841 C1856 0.930 . S
C1842 H1830 0.930 . S
C1842 C1843 1.399 1_556 S
C1842 C1847 1.399 . S
C1843 C1842 1.399 1_554 S
C1843 C1844 1.376 . S
C1844 H1831 0.930 . S
C1844 C1843 1.376 . S
C1844 C1845 1.388 . S
C1845 H1832 0.930 . S
C1845 C1844 1.388 . S
C1845 C1846 1.390 . S
C1846 C1845 1.390 . S
C1846 C1847 1.394 1_554 S
C1846 C1852 1.465 . S
C1847 C1842 1.399 . S
C1847 C1846 1.394 1_556 S
C1847 C1848 1.516 . S
C1848 C1847 1.516 . S
C1848 C1849 1.502 . S
C1848 C1850 1.561 . S
C1848 C1851 1.526 . S
C1849 H1833 0.959 . S
C1849 H1834 0.959 . S
C1849 H1835 0.961 . S
C1849 C1848 1.502 . S
C1850 H1836 0.960 . S
C1850 H1837 0.961 . S
C1850 H1838 0.959 . S
C1850 C1848 1.561 . S
C1851 C1848 1.526 . S
C1851 C1852 1.396 1_556 S
C1851 C1856 1.390 . S
C1852 C1846 1.465 . S
C1852 C1851 1.396 1_554 S
C1852 C1853 1.399 . S
C1853 H1839 0.929 . S
C1853 C1852 1.399 . S
C1853 C1854 1.385 . S
C1854 H1840 0.931 . S
C1854 C1853 1.385 . S
C1854 C1855 1.389 . S
C1855 C1854 1.389 . S
C1855 C1856 1.387 1_554 S
C1856 H1841 0.930 . S
C1856 C1851 1.390 . S
C1856 C1855 1.387 1_556 S
H1857 C1869 0.930 . S
H1858 C1871 0.930 . S
H1859 C1872 0.930 . S
H1860 C1876 0.959 . S
H1861 C1876 0.959 . S
H1862 C1876 0.961 . S
H1863 C1877 0.960 . S
H1864 C1877 0.961 . S
H1865 C1877 0.959 . S
H1866 C1880 0.929 . S
H1867 C1881 0.931 . S
H1868 C1883 0.930 . S
C1869 H1857 0.930 . S
C1869 C1870 1.399 . S
C1869 C1874 1.399 . S
C1870 C1869 1.399 . S
C1870 C1871 1.376 1_554 S
C1871 H1858 0.930 . S
C1871 C1870 1.376 1_556 S
C1871 C1872 1.388 . S
C1872 H1859 0.930 . S
C1872 C1871 1.388 . S
C1872 C1873 1.390 . S
C1873 C1872 1.390 . S
C1873 C1874 1.394 1_556 S
C1873 C1879 1.465 . S
C1874 C1869 1.399 . S
C1874 C1873 1.394 1_554 S
C1874 C1875 1.516 . S
C1875 C1874 1.516 . S
C1875 C1876 1.502 . S
C1875 C1877 1.561 . S
C1875 C1878 1.526 . S
C1876 H1860 0.959 . S
C1876 H1861 0.959 . S
C1876 H1862 0.961 . S
C1876 C1875 1.502 . S
C1877 H1863 0.960 . S
C1877 H1864 0.961 . S
C1877 H1865 0.959 . S
C1877 C1875 1.561 . S
C1878 C1875 1.526 . S
C1878 C1879 1.396 1_554 S
C1878 C1883 1.390 . S
C1879 C1873 1.465 . S
C1879 C1878 1.396 1_556 S
C1879 C1880 1.399 . S
C1880 H1866 0.929 . S
C1880 C1879 1.399 . S
C1880 C1881 1.385 . S
C1881 H1867 0.931 . S
C1881 C1880 1.385 . S
C1881 C1882 1.389 1_556 S
C1882 C1881 1.389 1_554 S
C1882 C1883 1.387 . S
C1883 H1868 0.930 . S
C1883 C1878 1.390 . S
C1883 C1882 1.387 . S
H1884 C1896 0.930 . S
H1885 C1898 0.930 . S
H1886 C1899 0.930 . S
H1887 C1903 0.959 . S
H1888 C1903 0.959 . S
H1889 C1903 0.961 . S
H1890 C1904 0.960 . S
H1891 C1904 0.961 . S
H1892 C1904 0.959 . S
H1893 C1907 0.929 . S
H1894 C1908 0.931 . S
H1895 C1910 0.930 . S
C1896 H1884 0.930 . S
C1896 C1897 1.399 . S
C1896 C1901 1.399 . S
C1897 C1896 1.399 . S
C1897 C1898 1.376 . S
C1898 H1885 0.930 . S
C1898 C1897 1.376 . S
C1898 C1899 1.388 . S
C1899 H1886 0.930 . S
C1899 C1898 1.388 . S
C1899 C1900 1.390 . S
C1900 C1899 1.390 . S
C1900 C1901 1.394 . S
C1900 C1906 1.465 . S
C1901 C1896 1.399 . S
C1901 C1900 1.394 . S
C1901 C1902 1.516 . S
C1902 C1901 1.516 . S
C1902 C1903 1.502 . S
C1902 C1904 1.561 . S
C1902 C1905 1.526 . S
C1903 H1887 0.959 . S
C1903 H1888 0.959 . S
C1903 H1889 0.961 . S
C1903 C1902 1.502 . S
C1904 H1890 0.960 . S
C1904 H1891 0.961 . S
C1904 H1892 0.959 . S
C1904 C1902 1.561 . S
C1905 C1902 1.526 . S
C1905 C1906 1.396 . S
C1905 C1910 1.390 . S
C1906 C1900 1.465 . S
C1906 C1905 1.396 . S
C1906 C1907 1.399 . S
C1907 H1893 0.929 . S
C1907 C1906 1.399 . S
C1907 C1908 1.385 . S
C1908 H1894 0.931 . S
C1908 C1907 1.385 . S
C1908 C1909 1.389 . S
C1909 C1908 1.389 . S
C1909 C1910 1.387 . S
C1910 H1895 0.930 . S
C1910 C1905 1.390 . S
C1910 C1909 1.387 . S
H1911 C1923 0.930 . S
H1912 C1925 0.930 . S
H1913 C1926 0.930 . S
H1914 C1930 0.959 . S
H1915 C1930 0.959 . S
H1916 C1930 0.961 . S
H1917 C1931 0.960 . S
H1918 C1931 0.961 . S
H1919 C1931 0.959 . S
H1920 C1934 0.929 . S
H1921 C1935 0.931 . S
H1922 C1937 0.930 . S
C1923 H1911 0.930 . S
C1923 C1924 1.399 . S
C1923 C1928 1.399 . S
C1924 C1923 1.399 . S
C1924 C1925 1.376 . S
C1925 H1912 0.930 . S
C1925 C1924 1.376 . S
C1925 C1926 1.388 . S
C1926 H1913 0.930 . S
C1926 C1925 1.388 . S
C1926 C1927 1.390 . S
C1927 C1926 1.390 . S
C1927 C1928 1.394 . S
C1927 C1933 1.465 . S
C1928 C1923 1.399 . S
C1928 C1927 1.394 . S
C1928 C1929 1.516 . S
C1929 C1928 1.516 . S
C1929 C1930 1.502 . S
C1929 C1931 1.561 . S
C1929 C1932 1.526 . S
C1930 H1914 0.959 . S
C1930 H1915 0.959 . S
C1930 H1916 0.961 . S
C1930 C1929 1.502 . S
C1931 H1917 0.960 . S
C1931 H1918 0.961 . S
C1931 H1919 0.959 . S
C1931 C1929 1.561 . S
C1932 C1929 1.526 . S
C1932 C1933 1.396 . S
C1932 C1937 1.390 . S
C1933 C1927 1.465 . S
C1933 C1932 1.396 . S
C1933 C1934 1.399 . S
C1934 H1920 0.929 . S
C1934 C1933 1.399 . S
C1934 C1935 1.385 . S
C1935 H1921 0.931 . S
C1935 C1934 1.385 . S
C1935 C1936 1.389 . S
C1936 C1935 1.389 . S
C1936 C1937 1.387 . S
C1937 H1922 0.930 . S
C1937 C1932 1.390 . S
C1937 C1936 1.387 . S
H1938 C1950 0.930 . S
H1939 C1952 0.930 . S
H1940 C1953 0.930 . S
H1941 C1957 0.959 . S
H1942 C1957 0.959 . S
H1943 C1957 0.961 . S
H1944 C1958 0.960 . S
H1945 C1958 0.961 . S
H1946 C1958 0.959 . S
H1947 C1961 0.929 . S
H1948 C1962 0.931 . S
H1949 C1964 0.930 . S
C1950 H1938 0.930 . S
C1950 C1951 1.399 . S
C1950 C1955 1.399 . S
C1951 C1950 1.399 . S
C1951 C1952 1.376 . S
C1952 H1939 0.930 . S
C1952 C1951 1.376 . S
C1952 C1953 1.388 . S
C1953 H1940 0.930 . S
C1953 C1952 1.388 . S
C1953 C1954 1.390 . S
C1954 C1953 1.390 . S
C1954 C1955 1.394 . S
C1954 C1960 1.465 . S
C1955 C1950 1.399 . S
C1955 C1954 1.394 . S
C1955 C1956 1.516 . S
C1956 C1955 1.516 . S
C1956 C1957 1.502 . S
C1956 C1958 1.561 . S
C1956 C1959 1.526 . S
C1957 H1941 0.959 . S
C1957 H1942 0.959 . S
C1957 H1943 0.961 . S
C1957 C1956 1.502 . S
C1958 H1944 0.960 . S
C1958 H1945 0.961 . S
C1958 H1946 0.959 . S
C1958 C1956 1.561 . S
C1959 C1956 1.526 . S
C1959 C1960 1.396 . S
C1959 C1964 1.390 . S
C1960 C1954 1.465 . S
C1960 C1959 1.396 . S
C1960 C1961 1.399 . S
C1961 H1947 0.929 . S
C1961 C1960 1.399 . S
C1961 C1962 1.385 . S
C1962 H1948 0.931 . S
C1962 C1961 1.385 . S
C1962 C1963 1.389 . S
C1963 C1962 1.389 . S
C1963 C1964 1.387 . S
C1964 H1949 0.930 . S
C1964 C1959 1.390 . S
C1964 C1963 1.387 . S
H1965 C1977 0.930 . S
H1966 C1979 0.930 . S
H1967 C1980 0.930 . S
H1968 C1984 0.959 . S
H1969 C1984 0.959 . S
H1970 C1984 0.961 . S
H1971 C1985 0.960 . S
H1972 C1985 0.961 . S
H1973 C1985 0.959 . S
H1974 C1988 0.929 . S
H1975 C1989 0.931 . S
H1976 C1991 0.930 . S
C1977 H1965 0.930 . S
C1977 C1978 1.399 . S
C1977 C1982 1.399 . S
C1978 C1977 1.399 . S
C1978 C1979 1.376 . S
C1979 H1966 0.930 . S
C1979 C1978 1.376 . S
C1979 C1980 1.388 . S
C1980 H1967 0.930 . S
C1980 C1979 1.388 . S
C1980 C1981 1.390 . S
C1981 C1980 1.390 . S
C1981 C1982 1.394 . S
C1981 C1987 1.465 . S
C1982 C1977 1.399 . S
C1982 C1981 1.394 . S
C1982 C1983 1.516 . S
C1983 C1982 1.516 . S
C1983 C1984 1.502 . S
C1983 C1985 1.561 . S
C1983 C1986 1.526 . S
C1984 H1968 0.959 . S
C1984 H1969 0.959 . S
C1984 H1970 0.961 . S
C1984 C1983 1.502 . S
C1985 H1971 0.960 . S
C1985 H1972 0.961 . S
C1985 H1973 0.959 . S
C1985 C1983 1.561 . S
C1986 C1983 1.526 . S
C1986 C1987 1.396 . S
C1986 C1991 1.390 . S
C1987 C1981 1.465 . S
C1987 C1986 1.396 . S
C1987 C1988 1.399 . S
C1988 H1974 0.929 . S
C1988 C1987 1.399 . S
C1988 C1989 1.385 . S
C1989 H1975 0.931 . S
C1989 C1988 1.385 . S
C1989 C1990 1.389 . S
C1990 C1989 1.389 . S
C1990 C1991 1.387 . S
C1991 H1976 0.930 . S
C1991 C1986 1.390 . S
C1991 C1990 1.387 . S
H1992 C2004 0.930 . S
H1993 C2006 0.930 . S
H1994 C2007 0.930 . S
H1995 C2011 0.959 . S
H1996 C2011 0.959 . S
H1997 C2011 0.961 . S
H1998 C2012 0.960 . S
H1999 C2012 0.961 . S
H2000 C2012 0.959 . S
H2001 C2015 0.929 . S
H2002 C2016 0.931 . S
H2003 C2018 0.930 . S
C2004 H1992 0.930 . S
C2004 C2005 1.399 . S
C2004 C2009 1.399 . S
C2005 C2004 1.399 . S
C2005 C2006 1.376 . S
C2006 H1993 0.930 . S
C2006 C2005 1.376 . S
C2006 C2007 1.388 . S
C2007 H1994 0.930 . S
C2007 C2006 1.388 . S
C2007 C2008 1.390 . S
C2008 C2007 1.390 . S
C2008 C2009 1.394 . S
C2008 C2014 1.465 . S
C2009 C2004 1.399 . S
C2009 C2008 1.394 . S
C2009 C2010 1.516 . S
C2010 C2009 1.516 . S
C2010 C2011 1.502 . S
C2010 C2012 1.561 . S
C2010 C2013 1.526 . S
C2011 H1995 0.959 . S
C2011 H1996 0.959 . S
C2011 H1997 0.961 . S
C2011 C2010 1.502 . S
C2012 H1998 0.960 . S
C2012 H1999 0.961 . S
C2012 H2000 0.959 . S
C2012 C2010 1.561 . S
C2013 C2010 1.526 . S
C2013 C2014 1.396 . S
C2013 C2018 1.390 . S
C2014 C2008 1.465 . S
C2014 C2013 1.396 . S
C2014 C2015 1.399 . S
C2015 H2001 0.929 . S
C2015 C2014 1.399 . S
C2015 C2016 1.385 . S
C2016 H2002 0.931 . S
C2016 C2015 1.385 . S
C2016 C2017 1.389 . S
C2017 C2016 1.389 . S
C2017 C2018 1.387 . S
C2018 H2003 0.930 . S
C2018 C2013 1.390 . S
C2018 C2017 1.387 . S
H2019 C2031 0.930 . S
H2020 C2033 0.930 . S
H2021 C2034 0.930 . S
H2022 C2038 0.959 . S
H2023 C2038 0.959 . S
H2024 C2038 0.961 . S
H2025 C2039 0.960 . S
H2026 C2039 0.961 . S
H2027 C2039 0.959 . S
H2028 C2042 0.929 . S
H2029 C2043 0.931 . S
H2030 C2045 0.930 . S
C2031 H2019 0.930 . S
C2031 C2032 1.399 . S
C2031 C2036 1.399 . S
C2032 C2031 1.399 . S
C2032 C2033 1.376 . S
C2033 H2020 0.930 . S
C2033 C2032 1.376 . S
C2033 C2034 1.388 . S
C2034 H2021 0.930 . S
C2034 C2033 1.388 . S
C2034 C2035 1.390 . S
C2035 C2034 1.390 . S
C2035 C2036 1.394 . S
C2035 C2041 1.465 . S
C2036 C2031 1.399 . S
C2036 C2035 1.394 . S
C2036 C2037 1.516 . S
C2037 C2036 1.516 . S
C2037 C2038 1.502 . S
C2037 C2039 1.561 . S
C2037 C2040 1.526 . S
C2038 H2022 0.959 . S
C2038 H2023 0.959 . S
C2038 H2024 0.961 . S
C2038 C2037 1.502 . S
C2039 H2025 0.960 . S
C2039 H2026 0.961 . S
C2039 H2027 0.959 . S
C2039 C2037 1.561 . S
C2040 C2037 1.526 . S
C2040 C2041 1.396 . S
C2040 C2045 1.390 . S
C2041 C2035 1.465 . S
C2041 C2040 1.396 . S
C2041 C2042 1.399 . S
C2042 H2028 0.929 . S
C2042 C2041 1.399 . S
C2042 C2043 1.385 . S
C2043 H2029 0.931 . S
C2043 C2042 1.385 . S
C2043 C2044 1.389 . S
C2044 C2043 1.389 . S
C2044 C2045 1.387 . S
C2045 H2030 0.930 . S
C2045 C2040 1.390 . S
C2045 C2044 1.387 . S
H2046 C2058 0.930 . S
H2047 C2060 0.930 . S
H2048 C2061 0.930 . S
H2049 C2065 0.959 . S
H2050 C2065 0.959 . S
H2051 C2065 0.961 . S
H2052 C2066 0.960 . S
H2053 C2066 0.961 . S
H2054 C2066 0.959 . S
H2055 C2069 0.929 . S
H2056 C2070 0.931 . S
H2057 C2072 0.930 . S
C2058 H2046 0.930 . S
C2058 C2059 1.399 . S
C2058 C2063 1.399 . S
C2059 C2058 1.399 . S
C2059 C2060 1.376 . S
C2060 H2047 0.930 . S
C2060 C2059 1.376 . S
C2060 C2061 1.388 . S
C2061 H2048 0.930 . S
C2061 C2060 1.388 . S
C2061 C2062 1.390 . S
C2062 C2061 1.390 . S
C2062 C2063 1.394 . S
C2062 C2068 1.465 . S
C2063 C2058 1.399 . S
C2063 C2062 1.394 . S
C2063 C2064 1.516 . S
C2064 C2063 1.516 . S
C2064 C2065 1.502 . S
C2064 C2066 1.561 . S
C2064 C2067 1.526 . S
C2065 H2049 0.959 . S
C2065 H2050 0.959 . S
C2065 H2051 0.961 . S
C2065 C2064 1.502 . S
C2066 H2052 0.960 . S
C2066 H2053 0.961 . S
C2066 H2054 0.959 . S
C2066 C2064 1.561 . S
C2067 C2064 1.526 . S
C2067 C2068 1.396 . S
C2067 C2072 1.390 . S
C2068 C2062 1.465 . S
C2068 C2067 1.396 . S
C2068 C2069 1.399 . S
C2069 H2055 0.929 . S
C2069 C2068 1.399 . S
C2069 C2070 1.385 . S
C2070 H2056 0.931 . S
C2070 C2069 1.385 . S
C2070 C2071 1.389 . S
C2071 C2070 1.389 . S
C2071 C2072 1.387 . S
C2072 H2057 0.930 . S
C2072 C2067 1.390 . S
C2072 C2071 1.387 . S
H2073 C2085 0.930 . S
H2074 C2087 0.930 . S
H2075 C2088 0.930 . S
H2076 C2092 0.959 . S
H2077 C2092 0.959 . S
H2078 C2092 0.961 . S
H2079 C2093 0.960 . S
H2080 C2093 0.961 . S
H2081 C2093 0.959 . S
H2082 C2096 0.929 . S
H2083 C2097 0.931 . S
H2084 C2099 0.930 . S
C2085 H2073 0.930 . S
C2085 C2086 1.399 . S
C2085 C2090 1.399 . S
C2086 C2085 1.399 . S
C2086 C2087 1.376 . S
C2087 H2074 0.930 . S
C2087 C2086 1.376 . S
C2087 C2088 1.388 . S
C2088 H2075 0.930 . S
C2088 C2087 1.388 . S
C2088 C2089 1.390 . S
C2089 C2088 1.390 . S
C2089 C2090 1.394 . S
C2089 C2095 1.465 . S
C2090 C2085 1.399 . S
C2090 C2089 1.394 . S
C2090 C2091 1.516 . S
C2091 C2090 1.516 . S
C2091 C2092 1.502 . S
C2091 C2093 1.561 . S
C2091 C2094 1.526 . S
C2092 H2076 0.959 . S
C2092 H2077 0.959 . S
C2092 H2078 0.961 . S
C2092 C2091 1.502 . S
C2093 H2079 0.960 . S
C2093 H2080 0.961 . S
C2093 H2081 0.959 . S
C2093 C2091 1.561 . S
C2094 C2091 1.526 . S
C2094 C2095 1.396 . S
C2094 C2099 1.390 . S
C2095 C2089 1.465 . S
C2095 C2094 1.396 . S
C2095 C2096 1.399 . S
C2096 H2082 0.929 . S
C2096 C2095 1.399 . S
C2096 C2097 1.385 . S
C2097 H2083 0.931 . S
C2097 C2096 1.385 . S
C2097 C2098 1.389 . S
C2098 C2097 1.389 . S
C2098 C2099 1.387 . S
C2099 H2084 0.930 . S
C2099 C2094 1.390 . S
C2099 C2098 1.387 . S
H2100 C2112 0.930 . S
H2101 C2114 0.930 . S
H2102 C2115 0.930 . S
H2103 C2119 0.959 . S
H2104 C2119 0.959 . S
H2105 C2119 0.961 . S
H2106 C2120 0.960 . S
H2107 C2120 0.961 . S
H2108 C2120 0.959 . S
H2109 C2123 0.929 . S
H2110 C2124 0.931 . S
H2111 C2126 0.930 . S
C2112 H2100 0.930 . S
C2112 C2113 1.399 . S
C2112 C2117 1.399 . S
C2113 C2112 1.399 . S
C2113 C2114 1.376 . S
C2114 H2101 0.930 . S
C2114 C2113 1.376 . S
C2114 C2115 1.388 . S
C2115 H2102 0.930 . S
C2115 C2114 1.388 . S
C2115 C2116 1.390 . S
C2116 C2115 1.390 . S
C2116 C2117 1.394 . S
C2116 C2122 1.465 . S
C2117 C2112 1.399 . S
C2117 C2116 1.394 . S
C2117 C2118 1.516 . S
C2118 C2117 1.516 . S
C2118 C2119 1.502 . S
C2118 C2120 1.561 . S
C2118 C2121 1.526 . S
C2119 H2103 0.959 . S
C2119 H2104 0.959 . S
C2119 H2105 0.961 . S
C2119 C2118 1.502 . S
C2120 H2106 0.960 . S
C2120 H2107 0.961 . S
C2120 H2108 0.959 . S
C2120 C2118 1.561 . S
C2121 C2118 1.526 . S
C2121 C2122 1.396 . S
C2121 C2126 1.390 . S
C2122 C2116 1.465 . S
C2122 C2121 1.396 . S
C2122 C2123 1.399 . S
C2123 H2109 0.929 . S
C2123 C2122 1.399 . S
C2123 C2124 1.385 . S
C2124 H2110 0.931 . S
C2124 C2123 1.385 . S
C2124 C2125 1.389 . S
C2125 C2124 1.389 . S
C2125 C2126 1.387 . S
C2126 H2111 0.930 . S
C2126 C2121 1.390 . S
C2126 C2125 1.387 . S
H2127 C2139 0.930 . S
H2128 C2141 0.930 . S
H2129 C2142 0.930 . S
H2130 C2146 0.959 . S
H2131 C2146 0.959 . S
H2132 C2146 0.961 . S
H2133 C2147 0.960 . S
H2134 C2147 0.961 . S
H2135 C2147 0.959 . S
H2136 C2150 0.929 . S
H2137 C2151 0.931 . S
H2138 C2153 0.930 . S
C2139 H2127 0.930 . S
C2139 C2140 1.399 . S
C2139 C2144 1.399 . S
C2140 C2139 1.399 . S
C2140 C2141 1.376 . S
C2141 H2128 0.930 . S
C2141 C2140 1.376 . S
C2141 C2142 1.388 . S
C2142 H2129 0.930 . S
C2142 C2141 1.388 . S
C2142 C2143 1.390 . S
C2143 C2142 1.390 . S
C2143 C2144 1.394 . S
C2143 C2149 1.465 . S
C2144 C2139 1.399 . S
C2144 C2143 1.394 . S
C2144 C2145 1.516 . S
C2145 C2144 1.516 . S
C2145 C2146 1.502 . S
C2145 C2147 1.561 . S
C2145 C2148 1.526 . S
C2146 H2130 0.959 . S
C2146 H2131 0.959 . S
C2146 H2132 0.961 . S
C2146 C2145 1.502 . S
C2147 H2133 0.960 . S
C2147 H2134 0.961 . S
C2147 H2135 0.959 . S
C2147 C2145 1.561 . S
C2148 C2145 1.526 . S
C2148 C2149 1.396 . S
C2148 C2153 1.390 . S
C2149 C2143 1.465 . S
C2149 C2148 1.396 . S
C2149 C2150 1.399 . S
C2150 H2136 0.929 . S
C2150 C2149 1.399 . S
C2150 C2151 1.385 . S
C2151 H2137 0.931 . S
C2151 C2150 1.385 . S
C2151 C2152 1.389 . S
C2152 C2151 1.389 . S
C2152 C2153 1.387 . S
C2153 H2138 0.930 . S
C2153 C2148 1.390 . S
C2153 C2152 1.387 . S
H2154 C2166 0.930 . S
H2155 C2168 0.930 . S
H2156 C2169 0.930 . S
H2157 C2173 0.959 . S
H2158 C2173 0.959 . S
H2159 C2173 0.961 . S
H2160 C2174 0.960 . S
H2161 C2174 0.961 . S
H2162 C2174 0.959 . S
H2163 C2177 0.929 . S
H2164 C2178 0.931 . S
H2165 C2180 0.930 . S
C2166 H2154 0.930 . S
C2166 C2167 1.399 . S
C2166 C2171 1.399 . S
C2167 C2166 1.399 . S
C2167 C2168 1.376 . S
C2168 H2155 0.930 . S
C2168 C2167 1.376 . S
C2168 C2169 1.388 . S
C2169 H2156 0.930 . S
C2169 C2168 1.388 . S
C2169 C2170 1.390 . S
C2170 C2169 1.390 . S
C2170 C2171 1.394 . S
C2170 C2176 1.465 . S
C2171 C2166 1.399 . S
C2171 C2170 1.394 . S
C2171 C2172 1.516 . S
C2172 C2171 1.516 . S
C2172 C2173 1.502 . S
C2172 C2174 1.561 . S
C2172 C2175 1.526 . S
C2173 H2157 0.959 . S
C2173 H2158 0.959 . S
C2173 H2159 0.961 . S
C2173 C2172 1.502 . S
C2174 H2160 0.960 . S
C2174 H2161 0.961 . S
C2174 H2162 0.959 . S
C2174 C2172 1.561 . S
C2175 C2172 1.526 . S
C2175 C2176 1.396 . S
C2175 C2180 1.390 . S
C2176 C2170 1.465 . S
C2176 C2175 1.396 . S
C2176 C2177 1.399 . S
C2177 H2163 0.929 . S
C2177 C2176 1.399 . S
C2177 C2178 1.385 . S
C2178 H2164 0.931 . S
C2178 C2177 1.385 . S
C2178 C2179 1.389 . S
C2179 C2178 1.389 . S
C2179 C2180 1.387 . S
C2180 H2165 0.930 . S
C2180 C2175 1.390 . S
C2180 C2179 1.387 . S
H2181 C2193 0.930 . S
H2182 C2195 0.930 . S
H2183 C2196 0.930 . S
H2184 C2200 0.959 . S
H2185 C2200 0.959 . S
H2186 C2200 0.961 . S
H2187 C2201 0.960 . S
H2188 C2201 0.961 . S
H2189 C2201 0.959 . S
H2190 C2204 0.929 . S
H2191 C2205 0.931 . S
H2192 C2207 0.930 . S
C2193 H2181 0.930 . S
C2193 C2194 1.399 . S
C2193 C2198 1.399 . S
C2194 C2193 1.399 . S
C2194 C2195 1.376 . S
C2195 H2182 0.930 . S
C2195 C2194 1.376 . S
C2195 C2196 1.388 . S
C2196 H2183 0.930 . S
C2196 C2195 1.388 . S
C2196 C2197 1.390 . S
C2197 C2196 1.390 . S
C2197 C2198 1.394 . S
C2197 C2203 1.465 . S
C2198 C2193 1.399 . S
C2198 C2197 1.394 . S
C2198 C2199 1.516 . S
C2199 C2198 1.516 . S
C2199 C2200 1.502 . S
C2199 C2201 1.561 . S
C2199 C2202 1.526 . S
C2200 H2184 0.959 . S
C2200 H2185 0.959 . S
C2200 H2186 0.961 . S
C2200 C2199 1.502 . S
C2201 H2187 0.960 . S
C2201 H2188 0.961 . S
C2201 H2189 0.959 . S
C2201 C2199 1.561 . S
C2202 C2199 1.526 . S
C2202 C2203 1.396 . S
C2202 C2207 1.390 . S
C2203 C2197 1.465 . S
C2203 C2202 1.396 . S
C2203 C2204 1.399 . S
C2204 H2190 0.929 . S
C2204 C2203 1.399 . S
C2204 C2205 1.385 . S
C2205 H2191 0.931 . S
C2205 C2204 1.385 . S
C2205 C2206 1.389 . S
C2206 C2205 1.389 . S
C2206 C2207 1.387 . S
C2207 H2192 0.930 . S
C2207 C2202 1.390 . S
C2207 C2206 1.387 . S
H2208 C2220 0.930 . S
H2209 C2222 0.930 . S
H2210 C2223 0.930 . S
H2211 C2227 0.959 . S
H2212 C2227 0.959 . S
H2213 C2227 0.961 . S
H2214 C2228 0.960 . S
H2215 C2228 0.961 . S
H2216 C2228 0.959 . S
H2217 C2231 0.929 . S
H2218 C2232 0.931 . S
H2219 C2234 0.930 . S
C2220 H2208 0.930 . S
C2220 C2221 1.399 . S
C2220 C2225 1.399 . S
C2221 C2220 1.399 . S
C2221 C2222 1.376 . S
C2222 H2209 0.930 . S
C2222 C2221 1.376 . S
C2222 C2223 1.388 . S
C2223 H2210 0.930 . S
C2223 C2222 1.388 . S
C2223 C2224 1.390 . S
C2224 C2223 1.390 . S
C2224 C2225 1.394 . S
C2224 C2230 1.465 . S
C2225 C2220 1.399 . S
C2225 C2224 1.394 . S
C2225 C2226 1.516 . S
C2226 C2225 1.516 . S
C2226 C2227 1.502 . S
C2226 C2228 1.561 . S
C2226 C2229 1.526 . S
C2227 H2211 0.959 . S
C2227 H2212 0.959 . S
C2227 H2213 0.961 . S
C2227 C2226 1.502 . S
C2228 H2214 0.960 . S
C2228 H2215 0.961 . S
C2228 H2216 0.959 . S
C2228 C2226 1.561 . S
C2229 C2226 1.526 . S
C2229 C2230 1.396 . S
C2229 C2234 1.390 . S
C2230 C2224 1.465 . S
C2230 C2229 1.396 . S
C2230 C2231 1.399 . S
C2231 H2217 0.929 . S
C2231 C2230 1.399 . S
C2231 C2232 1.385 . S
C2232 H2218 0.931 . S
C2232 C2231 1.385 . S
C2232 C2233 1.389 . S
C2233 C2232 1.389 . S
C2233 C2234 1.387 . S
C2234 H2219 0.930 . S
C2234 C2229 1.390 . S
C2234 C2233 1.387 . S
H2235 C2247 0.930 . S
H2236 C2249 0.930 . S
H2237 C2250 0.930 . S
H2238 C2254 0.959 . S
H2239 C2254 0.959 . S
H2240 C2254 0.961 . S
H2241 C2255 0.960 . S
H2242 C2255 0.961 . S
H2243 C2255 0.959 . S
H2244 C2258 0.929 . S
H2245 C2259 0.931 . S
H2246 C2261 0.930 . S
C2247 H2235 0.930 . S
C2247 C2248 1.399 . S
C2247 C2252 1.399 . S
C2248 C2247 1.399 . S
C2248 C2249 1.376 . S
C2249 H2236 0.930 . S
C2249 C2248 1.376 . S
C2249 C2250 1.388 . S
C2250 H2237 0.930 . S
C2250 C2249 1.388 . S
C2250 C2251 1.390 . S
C2251 C2250 1.390 . S
C2251 C2252 1.394 . S
C2251 C2257 1.465 . S
C2252 C2247 1.399 . S
C2252 C2251 1.394 . S
C2252 C2253 1.516 . S
C2253 C2252 1.516 . S
C2253 C2254 1.502 . S
C2253 C2255 1.561 . S
C2253 C2256 1.526 . S
C2254 H2238 0.959 . S
C2254 H2239 0.959 . S
C2254 H2240 0.961 . S
C2254 C2253 1.502 . S
C2255 H2241 0.960 . S
C2255 H2242 0.961 . S
C2255 H2243 0.959 . S
C2255 C2253 1.561 . S
C2256 C2253 1.526 . S
C2256 C2257 1.396 . S
C2256 C2261 1.390 . S
C2257 C2251 1.465 . S
C2257 C2256 1.396 . S
C2257 C2258 1.399 . S
C2258 H2244 0.929 . S
C2258 C2257 1.399 . S
C2258 C2259 1.385 . S
C2259 H2245 0.931 . S
C2259 C2258 1.385 . S
C2259 C2260 1.389 . S
C2260 C2259 1.389 . S
C2260 C2261 1.387 . S
C2261 H2246 0.930 . S
C2261 C2256 1.390 . S
C2261 C2260 1.387 . S
H2262 C2274 0.930 . S
H2263 C2276 0.930 . S
H2264 C2277 0.930 . S
H2265 C2281 0.959 . S
H2266 C2281 0.959 . S
H2267 C2281 0.961 . S
H2268 C2282 0.960 . S
H2269 C2282 0.961 . S
H2270 C2282 0.959 . S
H2271 C2285 0.929 . S
H2272 C2286 0.931 . S
H2273 C2288 0.930 . S
C2274 H2262 0.930 . S
C2274 C2275 1.399 . S
C2274 C2279 1.399 . S
C2275 C2274 1.399 . S
C2275 C2276 1.376 . S
C2276 H2263 0.930 . S
C2276 C2275 1.376 . S
C2276 C2277 1.388 . S
C2277 H2264 0.930 . S
C2277 C2276 1.388 . S
C2277 C2278 1.390 . S
C2278 C2277 1.390 . S
C2278 C2279 1.394 . S
C2278 C2284 1.465 . S
C2279 C2274 1.399 . S
C2279 C2278 1.394 . S
C2279 C2280 1.516 . S
C2280 C2279 1.516 . S
C2280 C2281 1.502 . S
C2280 C2282 1.561 . S
C2280 C2283 1.526 . S
C2281 H2265 0.959 . S
C2281 H2266 0.959 . S
C2281 H2267 0.961 . S
C2281 C2280 1.502 . S
C2282 H2268 0.960 . S
C2282 H2269 0.961 . S
C2282 H2270 0.959 . S
C2282 C2280 1.561 . S
C2283 C2280 1.526 . S
C2283 C2284 1.396 . S
C2283 C2288 1.390 . S
C2284 C2278 1.465 . S
C2284 C2283 1.396 . S
C2284 C2285 1.399 . S
C2285 H2271 0.929 . S
C2285 C2284 1.399 . S
C2285 C2286 1.385 . S
C2286 H2272 0.931 . S
C2286 C2285 1.385 . S
C2286 C2287 1.389 . S
C2287 C2286 1.389 . S
C2287 C2288 1.387 . S
C2288 H2273 0.930 . S
C2288 C2283 1.390 . S
C2288 C2287 1.387 . S
H2289 C2301 0.930 . S
H2290 C2303 0.930 . S
H2291 C2304 0.930 . S
H2292 C2308 0.959 . S
H2293 C2308 0.959 . S
H2294 C2308 0.961 . S
H2295 C2309 0.960 . S
H2296 C2309 0.961 . S
H2297 C2309 0.959 . S
H2298 C2312 0.929 . S
H2299 C2313 0.931 . S
H2300 C2315 0.930 . S
C2301 H2289 0.930 . S
C2301 C2302 1.399 . S
C2301 C2306 1.399 . S
C2302 C2301 1.399 . S
C2302 C2303 1.376 . S
C2303 H2290 0.930 . S
C2303 C2302 1.376 . S
C2303 C2304 1.388 . S
C2304 H2291 0.930 . S
C2304 C2303 1.388 . S
C2304 C2305 1.390 . S
C2305 C2304 1.390 . S
C2305 C2306 1.394 . S
C2305 C2311 1.465 . S
C2306 C2301 1.399 . S
C2306 C2305 1.394 . S
C2306 C2307 1.516 . S
C2307 C2306 1.516 . S
C2307 C2308 1.502 . S
C2307 C2309 1.561 . S
C2307 C2310 1.526 . S
C2308 H2292 0.959 . S
C2308 H2293 0.959 . S
C2308 H2294 0.961 . S
C2308 C2307 1.502 . S
C2309 H2295 0.960 . S
C2309 H2296 0.961 . S
C2309 H2297 0.959 . S
C2309 C2307 1.561 . S
C2310 C2307 1.526 . S
C2310 C2311 1.396 . S
C2310 C2315 1.390 . S
C2311 C2305 1.465 . S
C2311 C2310 1.396 . S
C2311 C2312 1.399 . S
C2312 H2298 0.929 . S
C2312 C2311 1.399 . S
C2312 C2313 1.385 . S
C2313 H2299 0.931 . S
C2313 C2312 1.385 . S
C2313 C2314 1.389 . S
C2314 C2313 1.389 . S
C2314 C2315 1.387 . S
C2315 H2300 0.930 . S
C2315 C2310 1.390 . S
C2315 C2314 1.387 . S
H2316 C2328 0.930 . S
H2317 C2330 0.930 . S
H2318 C2331 0.930 . S
H2319 C2335 0.959 . S
H2320 C2335 0.959 . S
H2321 C2335 0.961 . S
H2322 C2336 0.960 . S
H2323 C2336 0.961 . S
H2324 C2336 0.959 . S
H2325 C2339 0.929 . S
H2326 C2340 0.931 . S
H2327 C2342 0.930 . S
C2328 H2316 0.930 . S
C2328 C2329 1.399 . S
C2328 C2333 1.399 . S
C2329 C2328 1.399 . S
C2329 C2330 1.376 . S
C2330 H2317 0.930 . S
C2330 C2329 1.376 . S
C2330 C2331 1.388 . S
C2331 H2318 0.930 . S
C2331 C2330 1.388 . S
C2331 C2332 1.390 . S
C2332 C2331 1.390 . S
C2332 C2333 1.394 . S
C2332 C2338 1.465 . S
C2333 C2328 1.399 . S
C2333 C2332 1.394 . S
C2333 C2334 1.516 . S
C2334 C2333 1.516 . S
C2334 C2335 1.502 . S
C2334 C2336 1.561 . S
C2334 C2337 1.526 . S
C2335 H2319 0.959 . S
C2335 H2320 0.959 . S
C2335 H2321 0.961 . S
C2335 C2334 1.502 . S
C2336 H2322 0.960 . S
C2336 H2323 0.961 . S
C2336 H2324 0.959 . S
C2336 C2334 1.561 . S
C2337 C2334 1.526 . S
C2337 C2338 1.396 . S
C2337 C2342 1.390 . S
C2338 C2332 1.465 . S
C2338 C2337 1.396 . S
C2338 C2339 1.399 . S
C2339 H2325 0.929 . S
C2339 C2338 1.399 . S
C2339 C2340 1.385 . S
C2340 H2326 0.931 . S
C2340 C2339 1.385 . S
C2340 C2341 1.389 . S
C2341 C2340 1.389 . S
C2341 C2342 1.387 . S
C2342 H2327 0.930 . S
C2342 C2337 1.390 . S
C2342 C2341 1.387 . S
H2343 C2355 0.930 . S
H2344 C2357 0.930 . S
H2345 C2358 0.930 . S
H2346 C2362 0.959 . S
H2347 C2362 0.959 . S
H2348 C2362 0.961 . S
H2349 C2363 0.960 . S
H2350 C2363 0.961 . S
H2351 C2363 0.959 . S
H2352 C2366 0.929 . S
H2353 C2367 0.931 . S
H2354 C2369 0.930 . S
C2355 H2343 0.930 . S
C2355 C2356 1.399 . S
C2355 C2360 1.399 . S
C2356 C2355 1.399 . S
C2356 C2357 1.376 . S
C2357 H2344 0.930 . S
C2357 C2356 1.376 . S
C2357 C2358 1.388 . S
C2358 H2345 0.930 . S
C2358 C2357 1.388 . S
C2358 C2359 1.390 . S
C2359 C2358 1.390 . S
C2359 C2360 1.394 . S
C2359 C2365 1.465 . S
C2360 C2355 1.399 . S
C2360 C2359 1.394 . S
C2360 C2361 1.516 . S
C2361 C2360 1.516 . S
C2361 C2362 1.502 . S
C2361 C2363 1.561 . S
C2361 C2364 1.526 . S
C2362 H2346 0.959 . S
C2362 H2347 0.959 . S
C2362 H2348 0.961 . S
C2362 C2361 1.502 . S
C2363 H2349 0.960 . S
C2363 H2350 0.961 . S
C2363 H2351 0.959 . S
C2363 C2361 1.561 . S
C2364 C2361 1.526 . S
C2364 C2365 1.396 . S
C2364 C2369 1.390 . S
C2365 C2359 1.465 . S
C2365 C2364 1.396 . S
C2365 C2366 1.399 . S
C2366 H2352 0.929 . S
C2366 C2365 1.399 . S
C2366 C2367 1.385 . S
C2367 H2353 0.931 . S
C2367 C2366 1.385 . S
C2367 C2368 1.389 . S
C2368 C2367 1.389 . S
C2368 C2369 1.387 . S
C2369 H2354 0.930 . S
C2369 C2364 1.390 . S
C2369 C2368 1.387 . S
H2370 C2382 0.930 . S
H2371 C2384 0.930 . S
H2372 C2385 0.930 . S
H2373 C2389 0.959 . S
H2374 C2389 0.959 . S
H2375 C2389 0.961 . S
H2376 C2390 0.960 . S
H2377 C2390 0.961 . S
H2378 C2390 0.959 . S
H2379 C2393 0.929 . S
H2380 C2394 0.931 . S
H2381 C2396 0.930 . S
C2382 H2370 0.930 . S
C2382 C2383 1.399 . S
C2382 C2387 1.399 . S
C2383 C2382 1.399 . S
C2383 C2384 1.376 . S
C2384 H2371 0.930 . S
C2384 C2383 1.376 . S
C2384 C2385 1.388 . S
C2385 H2372 0.930 . S
C2385 C2384 1.388 . S
C2385 C2386 1.390 . S
C2386 C2385 1.390 . S
C2386 C2387 1.394 . S
C2386 C2392 1.465 . S
C2387 C2382 1.399 . S
C2387 C2386 1.394 . S
C2387 C2388 1.516 . S
C2388 C2387 1.516 . S
C2388 C2389 1.502 . S
C2388 C2390 1.561 . S
C2388 C2391 1.526 . S
C2389 H2373 0.959 . S
C2389 H2374 0.959 . S
C2389 H2375 0.961 . S
C2389 C2388 1.502 . S
C2390 H2376 0.960 . S
C2390 H2377 0.961 . S
C2390 H2378 0.959 . S
C2390 C2388 1.561 . S
C2391 C2388 1.526 . S
C2391 C2392 1.396 . S
C2391 C2396 1.390 . S
C2392 C2386 1.465 . S
C2392 C2391 1.396 . S
C2392 C2393 1.399 . S
C2393 H2379 0.929 . S
C2393 C2392 1.399 . S
C2393 C2394 1.385 . S
C2394 H2380 0.931 . S
C2394 C2393 1.385 . S
C2394 C2395 1.389 . S
C2395 C2394 1.389 . S
C2395 C2396 1.387 . S
C2396 H2381 0.930 . S
C2396 C2391 1.390 . S
C2396 C2395 1.387 . S
H2397 C2409 0.930 . S
H2398 C2411 0.930 . S
H2399 C2412 0.930 . S
H2400 C2416 0.959 . S
H2401 C2416 0.959 . S
H2402 C2416 0.961 . S
H2403 C2417 0.960 . S
H2404 C2417 0.961 . S
H2405 C2417 0.959 . S
H2406 C2420 0.929 . S
H2407 C2421 0.931 . S
H2408 C2423 0.930 . S
C2409 H2397 0.930 . S
C2409 C2410 1.399 . S
C2409 C2414 1.399 . S
C2410 C2409 1.399 . S
C2410 C2411 1.376 . S
C2411 H2398 0.930 . S
C2411 C2410 1.376 . S
C2411 C2412 1.388 . S
C2412 H2399 0.930 . S
C2412 C2411 1.388 . S
C2412 C2413 1.390 . S
C2413 C2412 1.390 . S
C2413 C2414 1.394 . S
C2413 C2419 1.465 . S
C2414 C2409 1.399 . S
C2414 C2413 1.394 . S
C2414 C2415 1.516 . S
C2415 C2414 1.516 . S
C2415 C2416 1.502 . S
C2415 C2417 1.561 . S
C2415 C2418 1.526 . S
C2416 H2400 0.959 . S
C2416 H2401 0.959 . S
C2416 H2402 0.961 . S
C2416 C2415 1.502 . S
C2417 H2403 0.960 . S
C2417 H2404 0.961 . S
C2417 H2405 0.959 . S
C2417 C2415 1.561 . S
C2418 C2415 1.526 . S
C2418 C2419 1.396 . S
C2418 C2423 1.390 . S
C2419 C2413 1.465 . S
C2419 C2418 1.396 . S
C2419 C2420 1.399 . S
C2420 H2406 0.929 . S
C2420 C2419 1.399 . S
C2420 C2421 1.385 . S
C2421 H2407 0.931 . S
C2421 C2420 1.385 . S
C2421 C2422 1.389 . S
C2422 C2421 1.389 . S
C2422 C2423 1.387 . S
C2423 H2408 0.930 . S
C2423 C2418 1.390 . S
C2423 C2422 1.387 . S
H2424 C2436 0.930 . S
H2425 C2438 0.930 . S
H2426 C2439 0.930 . S
H2427 C2443 0.959 . S
H2428 C2443 0.959 . S
H2429 C2443 0.961 . S
H2430 C2444 0.960 . S
H2431 C2444 0.961 . S
H2432 C2444 0.959 . S
H2433 C2447 0.929 . S
H2434 C2448 0.931 . S
H2435 C2450 0.930 . S
C2436 H2424 0.930 . S
C2436 C2437 1.399 . S
C2436 C2441 1.399 . S
C2437 C2436 1.399 . S
C2437 C2438 1.376 . S
C2438 H2425 0.930 . S
C2438 C2437 1.376 . S
C2438 C2439 1.388 . S
C2439 H2426 0.930 . S
C2439 C2438 1.388 . S
C2439 C2440 1.390 . S
C2440 C2439 1.390 . S
C2440 C2441 1.394 . S
C2440 C2446 1.465 . S
C2441 C2436 1.399 . S
C2441 C2440 1.394 . S
C2441 C2442 1.516 . S
C2442 C2441 1.516 . S
C2442 C2443 1.502 . S
C2442 C2444 1.561 . S
C2442 C2445 1.526 . S
C2443 H2427 0.959 . S
C2443 H2428 0.959 . S
C2443 H2429 0.961 . S
C2443 C2442 1.502 . S
C2444 H2430 0.960 . S
C2444 H2431 0.961 . S
C2444 H2432 0.959 . S
C2444 C2442 1.561 . S
C2445 C2442 1.526 . S
C2445 C2446 1.396 . S
C2445 C2450 1.390 . S
C2446 C2440 1.465 . S
C2446 C2445 1.396 . S
C2446 C2447 1.399 . S
C2447 H2433 0.929 . S
C2447 C2446 1.399 . S
C2447 C2448 1.385 . S
C2448 H2434 0.931 . S
C2448 C2447 1.385 . S
C2448 C2449 1.389 . S
C2449 C2448 1.389 . S
C2449 C2450 1.387 . S
C2450 H2435 0.930 . S
C2450 C2445 1.390 . S
C2450 C2449 1.387 . S
H2451 C2463 0.930 . S
H2452 C2465 0.930 . S
H2453 C2466 0.930 . S
H2454 C2470 0.959 . S
H2455 C2470 0.959 . S
H2456 C2470 0.961 . S
H2457 C2471 0.960 . S
H2458 C2471 0.961 . S
H2459 C2471 0.959 . S
H2460 C2474 0.929 . S
H2461 C2475 0.931 . S
H2462 C2477 0.930 . S
C2463 H2451 0.930 . S
C2463 C2464 1.399 . S
C2463 C2468 1.399 . S
C2464 C2463 1.399 . S
C2464 C2465 1.376 . S
C2465 H2452 0.930 . S
C2465 C2464 1.376 . S
C2465 C2466 1.388 . S
C2466 H2453 0.930 . S
C2466 C2465 1.388 . S
C2466 C2467 1.390 . S
C2467 C2466 1.390 . S
C2467 C2468 1.394 . S
C2467 C2473 1.465 . S
C2468 C2463 1.399 . S
C2468 C2467 1.394 . S
C2468 C2469 1.516 . S
C2469 C2468 1.516 . S
C2469 C2470 1.502 . S
C2469 C2471 1.561 . S
C2469 C2472 1.526 . S
C2470 H2454 0.959 . S
C2470 H2455 0.959 . S
C2470 H2456 0.961 . S
C2470 C2469 1.502 . S
C2471 H2457 0.960 . S
C2471 H2458 0.961 . S
C2471 H2459 0.959 . S
C2471 C2469 1.561 . S
C2472 C2469 1.526 . S
C2472 C2473 1.396 . S
C2472 C2477 1.390 . S
C2473 C2467 1.465 . S
C2473 C2472 1.396 . S
C2473 C2474 1.399 . S
C2474 H2460 0.929 . S
C2474 C2473 1.399 . S
C2474 C2475 1.385 . S
C2475 H2461 0.931 . S
C2475 C2474 1.385 . S
C2475 C2476 1.389 . S
C2476 C2475 1.389 . S
C2476 C2477 1.387 . S
C2477 H2462 0.930 . S
C2477 C2472 1.390 . S
C2477 C2476 1.387 . S
H2478 C2490 0.930 . S
H2479 C2492 0.930 . S
H2480 C2493 0.930 . S
H2481 C2497 0.959 . S
H2482 C2497 0.959 . S
H2483 C2497 0.961 . S
H2484 C2498 0.960 . S
H2485 C2498 0.961 . S
H2486 C2498 0.959 . S
H2487 C2501 0.929 . S
H2488 C2502 0.931 . S
H2489 C2504 0.930 . S
C2490 H2478 0.930 . S
C2490 C2491 1.399 . S
C2490 C2495 1.399 . S
C2491 C2490 1.399 . S
C2491 C2492 1.376 . S
C2492 H2479 0.930 . S
C2492 C2491 1.376 . S
C2492 C2493 1.388 . S
C2493 H2480 0.930 . S
C2493 C2492 1.388 . S
C2493 C2494 1.390 . S
C2494 C2493 1.390 . S
C2494 C2495 1.394 . S
C2494 C2500 1.465 . S
C2495 C2490 1.399 . S
C2495 C2494 1.394 . S
C2495 C2496 1.516 . S
C2496 C2495 1.516 . S
C2496 C2497 1.502 . S
C2496 C2498 1.561 . S
C2496 C2499 1.526 . S
C2497 H2481 0.959 . S
C2497 H2482 0.959 . S
C2497 H2483 0.961 . S
C2497 C2496 1.502 . S
C2498 H2484 0.960 . S
C2498 H2485 0.961 . S
C2498 H2486 0.959 . S
C2498 C2496 1.561 . S
C2499 C2496 1.526 . S
C2499 C2500 1.396 . S
C2499 C2504 1.390 . S
C2500 C2494 1.465 . S
C2500 C2499 1.396 . S
C2500 C2501 1.399 . S
C2501 H2487 0.929 . S
C2501 C2500 1.399 . S
C2501 C2502 1.385 . S
C2502 H2488 0.931 . S
C2502 C2501 1.385 . S
C2502 C2503 1.389 . S
C2503 C2502 1.389 . S
C2503 C2504 1.387 . S
C2504 H2489 0.930 . S
C2504 C2499 1.390 . S
C2504 C2503 1.387 . S
H2505 C2517 0.930 . S
H2506 C2519 0.930 . S
H2507 C2520 0.930 . S
H2508 C2524 0.959 . S
H2509 C2524 0.959 . S
H2510 C2524 0.961 . S
H2511 C2525 0.960 . S
H2512 C2525 0.961 . S
H2513 C2525 0.959 . S
H2514 C2528 0.929 . S
H2515 C2529 0.931 . S
H2516 C2531 0.930 . S
C2517 H2505 0.930 . S
C2517 C2518 1.399 . S
C2517 C2522 1.399 . S
C2518 C2517 1.399 . S
C2518 C2519 1.376 . S
C2519 H2506 0.930 . S
C2519 C2518 1.376 . S
C2519 C2520 1.388 . S
C2520 H2507 0.930 . S
C2520 C2519 1.388 . S
C2520 C2521 1.390 . S
C2521 C2520 1.390 . S
C2521 C2522 1.394 . S
C2521 C2527 1.465 . S
C2522 C2517 1.399 . S
C2522 C2521 1.394 . S
C2522 C2523 1.516 . S
C2523 C2522 1.516 . S
C2523 C2524 1.502 . S
C2523 C2525 1.561 . S
C2523 C2526 1.526 . S
C2524 H2508 0.959 . S
C2524 H2509 0.959 . S
C2524 H2510 0.961 . S
C2524 C2523 1.502 . S
C2525 H2511 0.960 . S
C2525 H2512 0.961 . S
C2525 H2513 0.959 . S
C2525 C2523 1.561 . S
C2526 C2523 1.526 . S
C2526 C2527 1.396 . S
C2526 C2531 1.390 . S
C2527 C2521 1.465 . S
C2527 C2526 1.396 . S
C2527 C2528 1.399 . S
C2528 H2514 0.929 . S
C2528 C2527 1.399 . S
C2528 C2529 1.385 . S
C2529 H2515 0.931 . S
C2529 C2528 1.385 . S
C2529 C2530 1.389 . S
C2530 C2529 1.389 . S
C2530 C2531 1.387 . S
C2531 H2516 0.930 . S
C2531 C2526 1.390 . S
C2531 C2530 1.387 . S
C613 C294 1.488 . S
C601 C285 1.486 . S
C628 C261 1.393 . S
C640 C292 1.392 . S
C667 C293 1.395 . S
C655 C249 1.390 . S
C682 C273 1.487 . S
C694 C295 1.491 . S
C721 C339 1.538 . S
C709 C201 1.546 . S
C748 C399 1.470 . S
C736 C213 1.471 . S
C763 C225 1.530 . S
C775 C338 1.535 . S
C802 C398 1.371 . S
C790 C237 1.372 . S
C817 C153 1.438 . S
C829 C340 1.444 . S
C856 C396 1.461 . S
C844 C165 1.463 . S
C871 C177 1.440 . S
C883 C341 1.444 . S
C898 C189 1.562 . S
C910 C397 1.559 . S
C937 C447 1.489 . S
C925 C141 1.486 . S
C952 C117 1.399 . S
C964 C446 1.396 . S
C979 C105 1.389 . S
C991 C448 1.394 . S
C1018 C449 1.489 . S
C1006 C129 1.486 . S
C1033 C57 1.546 . S
C1045 C490 1.538 . S
C1060 C69 1.473 1_565 S
C1072 C549 1.468 1_565 S
C1087 C81 1.533 . S
C1099 C488 1.536 . S
C1114 C93 1.375 1_565 S
C1126 C548 1.377 1_565 S
C1153 C489 1.445 . S
C1141 C9 1.440 . S
C1180 C546 1.462 . S
C1168 C21 1.455 . S
C1195 C33 1.444 . S
C1207 C491 1.437 . S
C1234 C547 1.557 1_565 S
C1222 C45 1.554 . S
C1261 C291 1.407 . S
C1249 C4 1.349 . S
C1276 C18 1.540 . S
C1288 C297 1.565 . S
C1303 C30 1.650 . S
C1315 C289 1.664 . S
C1330 C42 1.648 1_545 S
C1342 C296 1.706 . S
C1357 C52 1.264 . S
C1369 C288 1.435 . S
C1396 C298 1.655 1_565 S
C1384 C66 1.639 1_565 S
C1411 C78 1.620 . S
C1423 C290 1.678 . S
C1450 C299 1.296 . S
C1438 C88 1.115 1_545 S
C1477 C345 1.435 . S
C1465 C40 1.366 . S
C1492 C6 1.621 . S
C1504 C388 1.646 . S
C1531 C343 1.457 1_565 S
C1519 C16 1.388 . S
C1558 C390 1.394 . S
C1546 C28 1.335 . S
C1573 C64 1.314 . S
C1585 C344 1.367 1_565 S
C1612 C389 1.496 . S
C1600 C76 1.344 . S
C1639 C342 1.645 . S
C1627 C90 1.625 . S
C1666 C391 1.757 . S
C1654 C54 1.699 . S
C1693 C395 1.558 . S
C1681 C102 1.542 . S
C1708 C114 1.531 . S
C1720 C394 1.557 . S
C1747 C346 1.318 . S
C1735 C100 1.263 . S
C1774 C393 1.352 . S
C1762 C124 1.283 . S
C1789 C138 1.608 . S
C1801 C349 1.656 . S
C1816 C136 1.216 . S
C1828 C392 1.357 . S
C1855 C348 1.318 . S
C1843 C112 1.249 . S
C1882 C347 1.658 . S
C1870 C126 1.596 . S
C1909 C441 1.409 . S
C1897 C148 1.336 . S
C1936 C444 1.564 . S
C1924 C162 1.539 . S
C1951 C174 1.595 . S
C1963 C440 1.663 . S
C1990 C442 1.705 . S
C1978 C186 1.684 . S
C2017 C438 1.435 . S
C2005 C196 1.258 . S
C2032 C210 1.635 . S
C2044 C443 1.655 . S
C2059 C222 1.656 . S
C2071 C439 1.676 . S
C2098 C445 1.287 . S
C2086 C232 1.189 . S
C2125 C499 1.439 . S
C2113 C184 1.298 . S
C2140 C150 1.585 . S
C2152 C538 1.645 . S
C2179 C498 1.455 . S
C2167 C160 1.405 . S
C2206 C540 1.390 . S
C2194 C172 1.348 . S
C2233 C497 1.378 . S
C2221 C208 1.220 . S
C2248 C220 1.347 . S
C2260 C539 1.496 . S
C2287 C496 1.645 . S
C2275 C234 1.588 . S
C2314 C541 1.760 . S
C2302 C198 1.731 . S
C2341 C545 1.559 . S
C2329 C246 1.535 . S
C2356 C258 1.535 . S
C2368 C544 1.557 . S
C2395 C492 1.324 . S
C2383 C244 1.179 . S
C2410 C268 1.212 . S
C2422 C543 1.361 . S
C2449 C495 1.656 . S
C2437 C282 1.607 . S
C2476 C542 1.349 . S
C2464 C280 1.304 . S
C2503 C493 1.315 . S
C2491 C256 1.265 . S
C2518 C270 1.606 . S
C2530 C494 1.659 . S
