# Generated by pormake.
# Topology eea, (3,6)-cn, num edge types: 1
# Building blocks:
#     Node 0, Type 0, BuildingBlock: BETDIP_clean_linker_0, # of connection points: 3
#     Node 1, Type 0, BuildingBlock: BETDIP_clean_linker_0, # of connection points: 3
#     Node 2, Type 0, BuildingBlock: BETDIP_clean_linker_0, # of connection points: 3
#     Node 3, Type 0, BuildingBlock: BETDIP_clean_linker_0, # of connection points: 3
#     Node 4, Type 0, BuildingBlock: BETDIP_clean_linker_0, # of connection points: 3
#     Node 5, Type 0, BuildingBlock: BETDIP_clean_linker_0, # of connection points: 3
#     Node 6, Type 0, BuildingBlock: BETDIP_clean_linker_0, # of connection points: 3
#     Node 7, Type 0, BuildingBlock: BETDIP_clean_linker_0, # of connection points: 3
#     Node 8, Type 0, BuildingBlock: BETDIP_clean_linker_0, # of connection points: 3
#     Node 9, Type 0, BuildingBlock: BETDIP_clean_linker_0, # of connection points: 3
#     Node 10, Type 0, BuildingBlock: BETDIP_clean_linker_0, # of connection points: 3
#     Node 11, Type 0, BuildingBlock: BETDIP_clean_linker_0, # of connection points: 3
#     Node 12, Type 0, BuildingBlock: BETDIP_clean_linker_0, # of connection points: 3
#     Node 13, Type 0, BuildingBlock: BETDIP_clean_linker_0, # of connection points: 3
#     Node 14, Type 0, BuildingBlock: BETDIP_clean_linker_0, # of connection points: 3
#     Node 15, Type 0, BuildingBlock: BETDIP_clean_linker_0, # of connection points: 3
#     Node 16, Type 0, BuildingBlock: BETDIP_clean_linker_0, # of connection points: 3
#     Node 17, Type 0, BuildingBlock: BETDIP_clean_linker_0, # of connection points: 3
#     Node 18, Type 1, BuildingBlock: KUMBUR_clean_sbu_0, # of connection points: 6
#     Node 19, Type 1, BuildingBlock: KUMBUR_clean_sbu_0, # of connection points: 6
#     Node 20, Type 1, BuildingBlock: KUMBUR_clean_sbu_0, # of connection points: 6
#     Node 21, Type 1, BuildingBlock: KUMBUR_clean_sbu_0, # of connection points: 6
#     Node 22, Type 1, BuildingBlock: KUMBUR_clean_sbu_0, # of connection points: 6
#     Node 23, Type 1, BuildingBlock: KUMBUR_clean_sbu_0, # of connection points: 6
#     Node 24, Type 1, BuildingBlock: KUMBUR_clean_sbu_0, # of connection points: 6
#     Node 25, Type 1, BuildingBlock: KUMBUR_clean_sbu_0, # of connection points: 6
#     Node 26, Type 1, BuildingBlock: KUMBUR_clean_sbu_0, # of connection points: 6
#     Edge 27, Type (0, 1), BuildingBlock: MIFKUJ_clean_linker_0, # of connection points: 2
#     Edge 28, Type (0, 1), BuildingBlock: MIFKUJ_clean_linker_0, # of connection points: 2
#     Edge 29, Type (0, 1), BuildingBlock: MIFKUJ_clean_linker_0, # of connection points: 2
#     Edge 30, Type (0, 1), BuildingBlock: MIFKUJ_clean_linker_0, # of connection points: 2
#     Edge 31, Type (0, 1), BuildingBlock: MIFKUJ_clean_linker_0, # of connection points: 2
#     Edge 32, Type (0, 1), BuildingBlock: MIFKUJ_clean_linker_0, # of connection points: 2
#     Edge 33, Type (0, 1), BuildingBlock: MIFKUJ_clean_linker_0, # of connection points: 2
#     Edge 34, Type (0, 1), BuildingBlock: MIFKUJ_clean_linker_0, # of connection points: 2
#     Edge 35, Type (0, 1), BuildingBlock: MIFKUJ_clean_linker_0, # of connection points: 2
#     Edge 36, Type (0, 1), BuildingBlock: MIFKUJ_clean_linker_0, # of connection points: 2
#     Edge 37, Type (0, 1), BuildingBlock: MIFKUJ_clean_linker_0, # of connection points: 2
#     Edge 38, Type (0, 1), BuildingBlock: MIFKUJ_clean_linker_0, # of connection points: 2
#     Edge 39, Type (0, 1), BuildingBlock: MIFKUJ_clean_linker_0, # of connection points: 2
#     Edge 40, Type (0, 1), BuildingBlock: MIFKUJ_clean_linker_0, # of connection points: 2
#     Edge 41, Type (0, 1), BuildingBlock: MIFKUJ_clean_linker_0, # of connection points: 2
#     Edge 42, Type (0, 1), BuildingBlock: MIFKUJ_clean_linker_0, # of connection points: 2
#     Edge 43, Type (0, 1), BuildingBlock: MIFKUJ_clean_linker_0, # of connection points: 2
#     Edge 44, Type (0, 1), BuildingBlock: MIFKUJ_clean_linker_0, # of connection points: 2
#     Edge 45, Type (0, 1), BuildingBlock: MIFKUJ_clean_linker_0, # of connection points: 2
#     Edge 46, Type (0, 1), BuildingBlock: MIFKUJ_clean_linker_0, # of connection points: 2
#     Edge 47, Type (0, 1), BuildingBlock: MIFKUJ_clean_linker_0, # of connection points: 2
#     Edge 48, Type (0, 1), BuildingBlock: MIFKUJ_clean_linker_0, # of connection points: 2
#     Edge 49, Type (0, 1), BuildingBlock: MIFKUJ_clean_linker_0, # of connection points: 2
#     Edge 50, Type (0, 1), BuildingBlock: MIFKUJ_clean_linker_0, # of connection points: 2
#     Edge 51, Type (0, 1), BuildingBlock: MIFKUJ_clean_linker_0, # of connection points: 2
#     Edge 52, Type (0, 1), BuildingBlock: MIFKUJ_clean_linker_0, # of connection points: 2
#     Edge 53, Type (0, 1), BuildingBlock: MIFKUJ_clean_linker_0, # of connection points: 2
#     Edge 54, Type (0, 1), BuildingBlock: MIFKUJ_clean_linker_0, # of connection points: 2
#     Edge 55, Type (0, 1), BuildingBlock: MIFKUJ_clean_linker_0, # of connection points: 2
#     Edge 56, Type (0, 1), BuildingBlock: MIFKUJ_clean_linker_0, # of connection points: 2
#     Edge 57, Type (0, 1), BuildingBlock: MIFKUJ_clean_linker_0, # of connection points: 2
#     Edge 58, Type (0, 1), BuildingBlock: MIFKUJ_clean_linker_0, # of connection points: 2
#     Edge 59, Type (0, 1), BuildingBlock: MIFKUJ_clean_linker_0, # of connection points: 2
#     Edge 60, Type (0, 1), BuildingBlock: MIFKUJ_clean_linker_0, # of connection points: 2
#     Edge 61, Type (0, 1), BuildingBlock: MIFKUJ_clean_linker_0, # of connection points: 2
#     Edge 62, Type (0, 1), BuildingBlock: MIFKUJ_clean_linker_0, # of connection points: 2
#     Edge 63, Type (0, 1), BuildingBlock: MIFKUJ_clean_linker_0, # of connection points: 2
#     Edge 64, Type (0, 1), BuildingBlock: MIFKUJ_clean_linker_0, # of connection points: 2
#     Edge 65, Type (0, 1), BuildingBlock: MIFKUJ_clean_linker_0, # of connection points: 2
#     Edge 66, Type (0, 1), BuildingBlock: MIFKUJ_clean_linker_0, # of connection points: 2
#     Edge 67, Type (0, 1), BuildingBlock: MIFKUJ_clean_linker_0, # of connection points: 2
#     Edge 68, Type (0, 1), BuildingBlock: MIFKUJ_clean_linker_0, # of connection points: 2
#     Edge 69, Type (0, 1), BuildingBlock: MIFKUJ_clean_linker_0, # of connection points: 2
#     Edge 70, Type (0, 1), BuildingBlock: MIFKUJ_clean_linker_0, # of connection points: 2
#     Edge 71, Type (0, 1), BuildingBlock: MIFKUJ_clean_linker_0, # of connection points: 2
#     Edge 72, Type (0, 1), BuildingBlock: MIFKUJ_clean_linker_0, # of connection points: 2
#     Edge 73, Type (0, 1), BuildingBlock: MIFKUJ_clean_linker_0, # of connection points: 2
#     Edge 74, Type (0, 1), BuildingBlock: MIFKUJ_clean_linker_0, # of connection points: 2
#     Edge 75, Type (0, 1), BuildingBlock: MIFKUJ_clean_linker_0, # of connection points: 2
#     Edge 76, Type (0, 1), BuildingBlock: MIFKUJ_clean_linker_0, # of connection points: 2
#     Edge 77, Type (0, 1), BuildingBlock: MIFKUJ_clean_linker_0, # of connection points: 2
#     Edge 78, Type (0, 1), BuildingBlock: MIFKUJ_clean_linker_0, # of connection points: 2
#     Edge 79, Type (0, 1), BuildingBlock: MIFKUJ_clean_linker_0, # of connection points: 2
#     Edge 80, Type (0, 1), BuildingBlock: MIFKUJ_clean_linker_0, # of connection points: 2
# Relax obj value: 0.025
# Max RMSD: 0.155
# Mean RMSD: 0.114
data_MOF--net-eea--node1-KUMBUR_clean_sbu_0--node2-BETDIP_clean_linker_0--edge1-MIFKUJ_clean_linker_0
_symmetry_space_group_name_H-M    P1
_symmetry_Int_Tables_number       1
_symmetry_cell_setting            triclinic
loop_
_symmetry_equiv_pos_as_xyz
'x, y, z'
_cell_length_a     71.29786
_cell_length_b     72.795415
_cell_length_c     83.026569
_cell_angle_alpha  90.261996
_cell_angle_beta   90.1585
_cell_angle_gamma 120.02136
loop_
_atom_site_label
_atom_site_type_symbol
_atom_site_fract_x
_atom_site_fract_y
_atom_site_fract_z
_atom_type_partial_charge
H0 H 0.19086 0.08669 0.39737 0.0
H1 H 0.21789 0.13037 0.43716 0.0
H2 H 0.21354 0.0696 0.43982 0.0
H3 H 0.22951 0.15404 0.41659 0.0
C4 C 0.2148 0.14772 0.40937 0.0
C5 C 0.19794 0.09038 0.40935 0.0
C6 C 0.20101 0.07542 0.41787 0.0
C7 C 0.20445 0.11041 0.41603 0.0
C8 C 0.21344 0.11523 0.43162 0.0
C9 C 0.21657 0.1005 0.44028 0.0
C10 C 0.21026 0.08062 0.43338 0.0
N11 N 0.20185 0.12545 0.40689 0.0
H12 H 0.93399 0.11084 0.39596 0.0
H13 H 0.893 0.08714 0.43749 0.0
H14 H 0.94564 0.15147 0.43714 0.0
H15 H 0.89067 0.05623 0.42872 0.0
C16 C 0.88752 0.05709 0.41601 0.0
C17 C 0.92984 0.11337 0.408 0.0
C18 C 0.94238 0.13315 0.41576 0.0
C19 C 0.91227 0.09653 0.41587 0.0
C20 C 0.90681 0.09984 0.43146 0.0
C21 C 0.91879 0.11957 0.4393 0.0
C22 C 0.93663 0.13604 0.43138 0.0
N23 N 0.89986 0.07666 0.40775 0.0
H24 H 0.90777 0.82246 0.39456 0.0
H25 H 0.92703 0.80073 0.43612 0.0
H26 H 0.86586 0.79872 0.43577 0.0
H27 H 0.9606 0.82674 0.42795 0.0
C28 C 0.9595 0.8234 0.41511 0.0
C29 C 0.90438 0.81587 0.40657 0.0
C30 C 0.88473 0.81101 0.41417 0.0
C31 C 0.92008 0.8129 0.4146 0.0
C32 C 0.91562 0.80417 0.43019 0.0
C33 C 0.89611 0.79902 0.43795 0.0
C34 C 0.88091 0.80263 0.42985 0.0
N35 N 0.93995 0.81823 0.40669 0.0
H36 H 0.08967 0.19114 0.63238 0.0
H37 H 0.13072 0.20719 0.59084 0.0
H38 H 0.07674 0.218 0.59056 0.0
H39 H 0.13066 0.17605 0.60041 0.0
C40 C 0.1356 0.18205 0.61262 0.0
C41 C 0.09354 0.19718 0.62021 0.0
C42 C 0.08074 0.20427 0.61235 0.0
C43 C 0.11145 0.19793 0.61245 0.0
C44 C 0.11676 0.20623 0.59677 0.0
C45 C 0.10439 0.21359 0.58877 0.0
C46 C 0.08636 0.21238 0.59664 0.0
N47 N 0.12447 0.19109 0.62073 0.0
H48 H 0.81275 0.89828 0.63195 0.0
H49 H 0.79563 0.915 0.58684 0.0
H50 H 0.78999 0.85393 0.59222 0.0
H51 H 0.78681 0.93408 0.60325 0.0
C52 C 0.80023 0.94092 0.61177 0.0
C53 C 0.80709 0.89425 0.61961 0.0
C54 C 0.80152 0.87419 0.61327 0.0
C55 C 0.80455 0.90888 0.6103 0.0
C56 C 0.79723 0.9037 0.59428 0.0
C57 C 0.79166 0.88379 0.58779 0.0
C58 C 0.79388 0.86917 0.59734 0.0
N59 N 0.80937 0.92863 0.61732 0.0
H60 H 0.11532 0.91362 0.63348 0.0
H61 H 0.09206 0.87343 0.59138 0.0
H62 H 0.15591 0.92765 0.59164 0.0
H63 H 0.05945 0.86775 0.60088 0.0
C64 C 0.06119 0.86565 0.61364 0.0
C65 C 0.11786 0.91007 0.62126 0.0
C66 C 0.13787 0.92302 0.61361 0.0
C67 C 0.10103 0.89238 0.61327 0.0
C68 C 0.10446 0.88743 0.59752 0.0
C69 C 0.12435 0.89996 0.58984 0.0
C70 C 0.14084 0.91771 0.59788 0.0
N71 N 0.08125 0.87929 0.62156 0.0
H72 H 0.87216 0.42618 0.72681 0.0
H73 H 0.8919 0.46559 0.76918 0.0
H74 H 0.89769 0.40967 0.7678 0.0
H75 H 0.86214 0.4686 0.76148 0.0
C76 C 0.86582 0.4717 0.74875 0.0
C77 C 0.87857 0.42927 0.73899 0.0
C78 C 0.88514 0.41593 0.74616 0.0
C79 C 0.88016 0.44668 0.74747 0.0
C80 C 0.88936 0.45139 0.76301 0.0
C81 C 0.89609 0.43831 0.77035 0.0
C82 C 0.89346 0.42039 0.76194 0.0
N83 N 0.87304 0.45962 0.73996 0.0
H84 H 0.59459 0.453 0.72571 0.0
H85 H 0.55165 0.4332 0.76623 0.0
H86 H 0.61069 0.49329 0.76768 0.0
H87 H 0.52658 0.41924 0.74553 0.0
C88 C 0.53366 0.41156 0.73857 0.0
C89 C 0.59079 0.45605 0.7377 0.0
C90 C 0.60534 0.47488 0.74595 0.0
C91 C 0.57112 0.44121 0.74474 0.0
C92 C 0.56632 0.44498 0.76042 0.0
C93 C 0.58052 0.46369 0.76884 0.0
C94 C 0.6 0.4785 0.7615 0.0
N95 N 0.55645 0.42252 0.73599 0.0
H96 H 0.57094 0.15233 0.72776 0.0
H97 H 0.59079 0.12891 0.76808 0.0
H98 H 0.52926 0.12611 0.76885 0.0
H99 H 0.62419 0.1549 0.76005 0.0
C100 C 0.62309 0.15261 0.74707 0.0
C101 C 0.56771 0.14514 0.73957 0.0
C102 C 0.54809 0.13974 0.74743 0.0
C103 C 0.58359 0.14195 0.74712 0.0
C104 C 0.57926 0.13244 0.76245 0.0
C105 C 0.55965 0.12659 0.77034 0.0
C106 C 0.54434 0.13048 0.76277 0.0
N107 N 0.60347 0.14791 0.73897 0.0
H108 H 0.76198 0.53227 0.9704 0.0
H109 H 0.80458 0.55364 0.92955 0.0
H110 H 0.74387 0.55259 0.92735 0.0
H111 H 0.82976 0.56629 0.95072 0.0
C112 C 0.82326 0.55153 0.95735 0.0
C113 C 0.7655 0.53833 0.95822 0.0
C114 C 0.75032 0.54159 0.94963 0.0
C115 C 0.78532 0.54298 0.95117 0.0
C116 C 0.78973 0.55071 0.9353 0.0
C117 C 0.77488 0.55419 0.92657 0.0
C118 C 0.75519 0.54946 0.93383 0.0
N119 N 0.80047 0.53946 0.96 0.0
H120 H 0.48381 0.23218 0.96301 0.0
H121 H 0.4646 0.25542 0.92238 0.0
H122 H 0.45788 0.19329 0.92058 0.0
H123 H 0.49656 0.28706 0.93217 0.0
C124 C 0.49051 0.28526 0.9444 0.0
C125 C 0.47727 0.22991 0.95089 0.0
C126 C 0.47145 0.21107 0.94245 0.0
C127 C 0.47545 0.24618 0.94352 0.0
C128 C 0.46662 0.24308 0.92792 0.0
C129 C 0.46002 0.22396 0.91956 0.0
C130 C 0.46294 0.20818 0.92681 0.0
N131 N 0.48199 0.26534 0.95214 0.0
H132 H 0.78085 0.24537 0.96823 0.0
H133 H 0.76078 0.2061 0.92567 0.0
H134 H 0.82289 0.26297 0.92712 0.0
H135 H 0.72738 0.19978 0.93393 0.0
C136 C 0.72841 0.19747 0.94676 0.0
C137 C 0.78407 0.24242 0.95603 0.0
C138 C 0.80412 0.25623 0.94882 0.0
C139 C 0.76805 0.22468 0.94758 0.0
C140 C 0.77249 0.22037 0.93193 0.0
C141 C 0.79238 0.23395 0.92453 0.0
C142 C 0.80788 0.25197 0.93299 0.0
N143 N 0.74799 0.21098 0.95528 0.0
H144 H 0.53184 0.75742 0.0607 0.0
H145 H 0.55163 0.79772 0.10271 0.0
H146 H 0.55082 0.73838 0.10392 0.0
H147 H 0.56445 0.82304 0.08286 0.0
C148 C 0.55005 0.81648 0.07526 0.0
C149 C 0.53727 0.7604 0.07314 0.0
C150 C 0.54037 0.74544 0.08158 0.0
C151 C 0.54159 0.77942 0.08058 0.0
C152 C 0.54876 0.78331 0.09669 0.0
C153 C 0.55215 0.76861 0.10519 0.0
C154 C 0.54763 0.74956 0.09762 0.0
N155 N 0.53857 0.7944 0.07173 0.0
H156 H 0.26744 0.78032 0.06128 0.0
H157 H 0.22599 0.75966 0.10262 0.0
H158 H 0.2802 0.82307 0.1013 0.0
H159 H 0.22608 0.72764 0.09423 0.0
C160 C 0.22104 0.72838 0.082 0.0
C161 C 0.26342 0.78372 0.07308 0.0
C162 C 0.27659 0.80369 0.08042 0.0
C163 C 0.24537 0.76771 0.08111 0.0
C164 C 0.24009 0.77186 0.09648 0.0
C165 C 0.2527 0.79176 0.10389 0.0
C166 C 0.27088 0.80751 0.09579 0.0
N167 N 0.23228 0.74775 0.07337 0.0
H168 H 0.235 0.48006 0.0589 0.0
H169 H 0.25909 0.46292 0.10043 0.0
H170 H 0.19561 0.45549 0.10138 0.0
H171 H 0.29098 0.48999 0.09151 0.0
C172 C 0.2898 0.48644 0.07869 0.0
C173 C 0.23278 0.47425 0.07113 0.0
C174 C 0.21297 0.46777 0.07911 0.0
C175 C 0.2498 0.47309 0.07885 0.0
C176 C 0.24656 0.46473 0.09453 0.0
C177 C 0.22711 0.45846 0.10272 0.0
C178 C 0.21058 0.46028 0.09501 0.0
N179 N 0.26972 0.47977 0.07054 0.0
H180 H 0.42868 0.86324 0.30164 0.0
H181 H 0.46916 0.88408 0.25956 0.0
H182 H 0.40903 0.88401 0.2596 0.0
H183 H 0.49549 0.89271 0.27728 0.0
C184 C 0.48884 0.87966 0.28574 0.0
C185 C 0.43172 0.86934 0.28947 0.0
C186 C 0.4162 0.87266 0.28141 0.0
C187 C 0.45117 0.87379 0.28185 0.0
C188 C 0.45482 0.88144 0.26593 0.0
C189 C 0.43985 0.88536 0.25786 0.0
C190 C 0.4205 0.8807 0.26564 0.0
N191 N 0.46657 0.87008 0.29019 0.0
H192 H 0.14701 0.5654 0.29967 0.0
H193 H 0.13063 0.5869 0.25661 0.0
H194 H 0.11648 0.5225 0.25959 0.0
H195 H 0.16074 0.61806 0.26426 0.0
C196 C 0.15716 0.61809 0.27698 0.0
C197 C 0.14035 0.5622 0.28757 0.0
C198 C 0.13169 0.54174 0.28079 0.0
C199 C 0.14061 0.57871 0.27879 0.0
C200 C 0.13148 0.57457 0.26325 0.0
C201 C 0.12255 0.55427 0.25639 0.0
C202 C 0.12278 0.53798 0.26516 0.0
N203 N 0.14936 0.59913 0.28602 0.0
H204 H 0.44763 0.57494 0.30121 0.0
H205 H 0.42658 0.53439 0.25921 0.0
H206 H 0.48799 0.59178 0.25908 0.0
H207 H 0.4079 0.50939 0.27714 0.0
C208 C 0.40219 0.5167 0.28577 0.0
C209 C 0.45043 0.57163 0.28899 0.0
C210 C 0.46987 0.58575 0.28112 0.0
C211 C 0.43487 0.55274 0.28141 0.0
C212 C 0.43863 0.54839 0.26555 0.0
C213 C 0.45778 0.56238 0.25748 0.0
C214 C 0.47319 0.58101 0.26532 0.0
N215 N 0.41559 0.53856 0.28989 0.0
Tb216 Tb 0.4916 0.99799 0.994 0.0
C217 C 0.52695 0.06448 0.04859 0.0
C218 C 0.56469 0.07522 0.05255 0.0
C219 C 0.55153 0.09898 0.0604 0.0
C220 C 0.54373 0.06033 0.04706 0.0
C221 C 0.5306 0.08384 0.05527 0.0
C222 C 0.56843 0.0945 0.0593 0.0
C223 C 0.49213 0.07063 0.05339 0.0
N224 N 0.50673 0.04884 0.04457 0.0
C225 C 0.48924 0.05143 0.04732 0.0
C226 C 0.51292 0.08696 0.05733 0.0
Tb227 Tb 0.50358 0.01771 0.03522 0.0
N228 N 0.5391 0.04098 0.04143 0.0
C229 C 0.55477 0.03537 0.0413 0.0
C230 C 0.58097 0.06987 0.05179 0.0
C231 C 0.57596 0.04984 0.04615 0.0
H232 H 0.47305 0.03889 0.04447 0.0
H233 H 0.58835 0.0454 0.04575 0.0
H234 H 0.58414 0.10577 0.06422 0.0
H235 H 0.47829 0.07273 0.0552 0.0
H236 H 0.55111 0.0198 0.0373 0.0
H237 H 0.40592 0.97006 0.9878 0.0
H238 H 0.59728 0.08084 0.0559 0.0
H239 H 0.52082 0.97675 0.9815 0.0
H240 H 0.44409 0.99647 0.99291 0.0
H241 H 0.5144 0.94212 0.97158 0.0
H242 H 0.55464 0.11384 0.06578 0.0
H243 H 0.39555 0.93323 0.98028 0.0
H244 H 0.40722 0.90668 0.97351 0.0
H245 H 0.51506 0.10166 0.06235 0.0
H246 H 0.4368 0.89898 0.96918 0.0
N247 N 0.4556 0.97489 0.98871 0.0
C248 C 0.44001 0.98056 0.98958 0.0
C249 C 0.41242 0.9448 0.98249 0.0
C250 C 0.42856 0.93936 0.98079 0.0
C251 C 0.41822 0.96557 0.9867 0.0
C252 C 0.45023 0.95501 0.98391 0.0
H253 H 0.47693 0.91218 0.96829 0.0
N254 N 0.48729 0.96661 0.98404 0.0
C255 C 0.50081 0.94424 0.97446 0.0
C256 C 0.4667 0.95067 0.98153 0.0
C257 C 0.50438 0.96392 0.98001 0.0
C258 C 0.47964 0.92739 0.97262 0.0
C259 C 0.46224 0.93059 0.9759 0.0
O260 O 0.51042 0.00874 0.97294 0.0
O261 O 0.51477 0.02071 0.01083 0.0
O262 O 0.50431 0.04246 0.02016 0.0
O263 O 0.48131 0.02135 0.99954 0.0
O264 O 0.52676 0.0104 0.99314 0.0
O265 O 0.48208 0.01168 0.97576 0.0
O266 O 0.48448 0.00732 0.05614 0.0
O267 O 0.48068 0.99467 0.0185 0.0
O268 O 0.49286 0.97379 0.00848 0.0
O269 O 0.51384 0.99417 0.03031 0.0
O270 O 0.46837 0.00485 0.03597 0.0
O271 O 0.5129 0.00434 0.05386 0.0
C272 C 0.53222 0.02295 0.00535 0.0
C273 C 0.49113 0.00707 0.94933 0.0
C274 C 0.49297 0.01499 0.92054 0.0
C275 C 0.49918 0.02177 0.93663 0.0
C276 C 0.47882 0.99326 0.91745 0.0
C277 C 0.47692 0.9856 0.94587 0.0
C278 C 0.47086 0.97875 0.93004 0.0
C279 C 0.49135 0.03945 0.00777 0.0
C280 C 0.49756 0.01427 0.96609 0.0
C281 C 0.44062 0.91461 0.97336 0.0
C282 C 0.42379 0.91899 0.97581 0.0
C283 C 0.46304 0.99178 0.02412 0.0
C284 C 0.50297 0.00865 0.08015 0.0
C285 C 0.49585 0.99358 0.0926 0.0
C286 C 0.50148 1.00014 0.10879 0.0
C287 C 0.51408 0.02198 0.11225 0.0
C288 C 0.51555 0.03026 0.08399 0.0
C289 C 0.52104 0.03687 0.09993 0.0
C290 C 0.50471 0.97646 0.02152 0.0
C291 C 0.49715 0.00172 0.06325 0.0
H292 H 0.50999 0.03841 0.93931 0.0
H293 H 0.47407 0.98739 0.90525 0.0
H294 H 0.4705 0.9741 0.95538 0.0
H295 H 0.45998 0.96209 0.9275 0.0
H296 H 0.4862 0.97684 0.08967 0.0
H297 H 0.51832 0.02762 0.12455 0.0
H298 H 0.52107 0.04205 0.07473 0.0
H299 H 0.53068 0.05362 0.10275 0.0
Tb300 Tb 0.02245 0.49723 0.99316 0.0
C301 C 0.9493 0.47228 0.04149 0.0
C302 C 0.93878 0.49895 0.03879 0.0
C303 C 0.91208 0.46309 0.04662 0.0
C304 C 0.95453 0.49269 0.03776 0.0
C305 C 0.92815 0.4573 0.0463 0.0
C306 C 0.91739 0.4839 0.04286 0.0
C307 C 0.94087 0.43269 0.05134 0.0
N308 N 0.96536 0.46746 0.04115 0.0
C309 C 0.96164 0.44819 0.04659 0.0
C310 C 0.92397 0.43718 0.05103 0.0
Tb311 Tb 0.9986 0.49346 0.03231 0.0
N312 N 0.97539 0.50669 0.03397 0.0
C313 C 0.98191 0.52773 0.03222 0.0
C314 C 0.94515 0.52023 0.0361 0.0
C315 C 0.96688 0.53473 0.03304 0.0
H316 H 0.97453 0.44448 0.04676 0.0
H317 H 0.97207 0.55131 0.03121 0.0
H318 H 0.90498 0.48833 0.0435 0.0
H319 H 0.9379 0.41729 0.05523 0.0
H320 H 0.99857 0.53918 0.02972 0.0
H321 H 0.04719 0.43826 0.99146 0.0
H322 H 0.93354 0.52569 0.03671 0.0
H323 H 0.04703 0.54693 0.98008 0.0
H324 H 0.02197 0.45138 0.99584 0.0
H325 H 0.08339 0.57371 0.97088 0.0
H326 H 0.89565 0.45176 0.05012 0.0
H327 H 0.08506 0.46309 0.9834 0.0
H328 H 0.11401 0.50031 0.97716 0.0
H329 H 0.90792 0.42518 0.05478 0.0
H330 H 0.12401 0.53736 0.97185 0.0
N331 N 0.04522 0.48365 0.99091 0.0
C332 C 0.03843 0.46255 0.99258 0.0
C333 C 0.07414 0.46904 0.98577 0.0
C334 C 0.08097 0.49054 0.98387 0.0
C335 C 0.05276 0.45499 0.99014 0.0
C336 C 0.06586 0.49737 0.98636 0.0
H337 H 0.11262 0.56486 0.96933 0.0
N338 N 0.0557 0.52328 0.98441 0.0
C339 C 0.08025 0.55811 0.97433 0.0
C340 C 0.07135 0.51798 0.9831 0.0
C341 C 0.05962 0.54284 0.97952 0.0
C342 C 0.09672 0.55308 0.97353 0.0
C343 C 0.09227 0.53267 0.97764 0.0
O344 O 0.014 0.50435 0.97071 0.0
O345 O 0.99762 0.49859 0.00694 0.0
O346 O 0.9746 0.46728 0.01759 0.0
O347 O 0.9971 0.4642 0.99875 0.0
O348 O 0.01076 0.51957 0.98868 0.0
O349 O 0.0104 0.47358 0.97517 0.0
O350 O 0.00663 0.48714 0.05522 0.0
O351 O 0.02322 0.49175 0.01848 0.0
O352 O 0.04654 0.52302 0.00812 0.0
O353 O 0.02372 0.52638 0.02643 0.0
O354 O 0.01076 0.47147 0.03713 0.0
O355 O 0.0112 0.518 0.04959 0.0
C356 C 0.99624 0.51301 0.99967 0.0
C357 C 0.01778 0.48639 0.94852 0.0
C358 C 0.01257 0.48334 0.91938 0.0
C359 C 1.00456 0.48265 0.93497 0.0
C360 C 0.03414 0.48801 0.91759 0.0
C361 C 0.03913 0.49079 0.9465 0.0
C362 C 0.04728 0.49165 0.9311 0.0
C363 C 0.97824 0.45655 0.00631 0.0
C364 C 0.00899 0.48597 0.96456 0.0
C365 C 0.10779 0.5263 0.97595 0.0
C366 C 0.1021 0.50521 0.97898 0.0
C367 C 0.02495 0.47761 0.0259 0.0
C368 C 1.00343 0.50678 0.07652 0.0
C369 C 0.0173 0.51403 0.08995 0.0
C370 C 0.0092 0.51411 0.10539 0.0
C371 C 0.98695 0.50706 0.10705 0.0
C372 C 0.98141 0.50004 0.07844 0.0
C373 C 0.97324 0.50023 0.09363 0.0
C374 C 0.04279 0.53382 0.01927 0.0
C375 C 0.01218 0.50597 0.06073 0.0
H376 H 0.98793 0.4789 0.93662 0.0
H377 H 0.04092 0.48899 0.90576 0.0
H378 H 0.04951 0.49353 0.95673 0.0
H379 H 0.06383 0.49518 0.92962 0.0
H380 H 0.03439 0.51958 0.0883 0.0
H381 H 0.97999 0.5064 0.11875 0.0
H382 H 0.97051 0.49452 0.06827 0.0
H383 H 0.95617 0.49481 0.09504 0.0
Tb384 Tb 0.53014 0.51469 0.03288 0.0
C385 C 0.48588 0.54235 0.98289 0.0
C386 C 0.44771 0.51655 0.98444 0.0
C387 C 0.45924 0.55287 0.97681 0.0
C388 C 0.4696 0.52206 0.98614 0.0
C389 C 0.48098 0.55796 0.9779 0.0
C390 C 0.44261 0.53217 0.98007 0.0
C391 C 0.51931 0.58185 0.97431 0.0
N392 N 0.50662 0.54654 0.98405 0.0
C393 C 0.52332 0.56578 0.97925 0.0
C394 C 0.49806 0.57802 0.97382 0.0
Tb395 Tb 0.51168 0.51955 0.99309 0.0
N396 N 0.47527 0.50749 0.9903 0.0
C397 C 0.45967 0.48663 0.99187 0.0
C398 C 0.43167 0.49544 0.98686 0.0
C399 C 0.4377 0.48037 0.99039 0.0
H400 H 0.53982 0.569 0.9797 0.0
H401 H 0.42544 0.46393 0.99206 0.0
H402 H 0.42589 0.52831 0.97886 0.0
H403 H 0.53261 0.59716 0.97085 0.0
H404 H 0.46391 0.47474 0.99471 0.0
H405 H 0.61616 0.57115 0.03214 0.0
H406 H 0.41466 0.49055 0.98575 0.0
H407 H 0.50325 0.46585 0.04745 0.0
H408 H 0.57744 0.5599 0.03068 0.0
H409 H 0.51127 0.43803 0.0559 0.0
H410 H 0.45511 0.56468 0.97313 0.0
H411 H 0.62766 0.54481 0.03743 0.0
H412 H 0.61718 0.50716 0.0441 0.0
H413 H 0.49499 0.59047 0.96994 0.0
H414 H 0.58856 0.47081 0.05062 0.0
N415 N 0.56672 0.52723 0.03482 0.0
C416 C 0.58205 0.54816 0.03313 0.0
C417 C 0.61056 0.53975 0.03687 0.0
C418 C 0.59483 0.51859 0.03953 0.0
C419 C 0.60412 0.55466 0.03392 0.0
C420 C 0.57281 0.51285 0.03855 0.0
H421 H 0.54895 0.4449 0.05527 0.0
N422 N 0.53604 0.48821 0.0418 0.0
C423 C 0.52424 0.45326 0.05197 0.0
C424 C 0.55687 0.49256 0.0422 0.0
C425 C 0.51978 0.46912 0.04725 0.0
C426 C 0.54553 0.45719 0.05158 0.0
C427 C 0.56223 0.47718 0.04692 0.0
O428 O 0.51395 0.50816 0.05508 0.0
O429 O 0.50469 0.51404 0.01838 0.0
O430 O 0.51438 0.54547 0.00792 0.0
O431 O 0.53939 0.54788 0.02721 0.0
O432 O 0.49528 0.49334 0.03694 0.0
O433 O 0.54301 0.53807 0.05109 0.0
O434 O 0.52803 0.52614 0.97095 0.0
O435 O 0.53698 0.51993 0.00758 0.0
O436 O 0.52623 0.48805 0.01833 0.0
O437 O 0.50148 0.48626 0.99901 0.0
O438 O 0.5466 0.54096 0.98934 0.0
O439 O 0.49939 0.49593 0.97506 0.0
C440 C 0.48813 0.50006 0.02552 0.0
C441 C 0.53609 0.52468 0.07765 0.0
C442 C 0.53242 0.52496 0.10688 0.0
C443 C 0.52606 0.52733 0.09131 0.0
C444 C 0.54907 0.52007 0.10857 0.0
C445 C 0.55278 0.51999 0.07961 0.0
C446 C 0.55922 0.5177 0.095 0.0
C447 C 0.52857 0.55573 0.01957 0.0
C448 C 0.52837 0.52608 0.06151 0.0
C449 C 0.58407 0.48245 0.0472 0.0
C450 C 0.60036 0.50314 0.04349 0.0
C451 C 0.55364 0.53393 1.0006 0.0
C452 C 0.50622 0.50877 0.94837 0.0
C453 C 0.51522 0.50429 0.93491 0.0
C454 C 0.50816 0.50522 0.91921 0.0
C455 C 0.49215 0.51098 0.91726 0.0
C456 C 0.49017 0.51426 0.94611 0.0
C457 C 0.48324 0.51542 0.93063 0.0
C458 C 0.51158 0.47787 0.00693 0.0
C459 C 0.514 0.50795 0.96463 0.0
H460 H 0.51304 0.53081 0.08982 0.0
H461 H 0.55442 0.51834 0.1204 0.0
H462 H 0.5608 0.51804 0.06929 0.0
H463 H 0.5721 0.51405 0.09642 0.0
H464 H 0.52748 0.49982 0.9367 0.0
H465 H 0.48665 0.51228 0.90538 0.0
H466 H 0.48301 0.51768 0.95626 0.0
H467 H 0.47093 0.51981 0.92899 0.0
Tb468 Tb 0.15515 0.32831 0.32522 0.0
C469 C 0.19043 0.39386 0.3797 0.0
C470 C 0.22874 0.40618 0.3814 0.0
C471 C 0.21532 0.42991 0.38867 0.0
C472 C 0.20746 0.39027 0.37752 0.0
C473 C 0.19403 0.41359 0.38551 0.0
C474 C 0.23266 0.42619 0.38664 0.0
C475 C 0.15525 0.39899 0.38577 0.0
N476 N 0.17017 0.37758 0.37671 0.0
C477 C 0.15253 0.37964 0.38018 0.0
C478 C 0.17611 0.41612 0.38831 0.0
Tb479 Tb 0.16745 0.34691 0.36661 0.0
N480 N 0.20295 0.37069 0.37257 0.0
C481 C 0.21895 0.36555 0.37232 0.0
C482 C 0.24529 0.40128 0.38038 0.0
C483 C 0.24036 0.38081 0.376 0.0
H484 H 0.13633 0.3666 0.37815 0.0
H485 H 0.25303 0.37676 0.37545 0.0
H486 H 0.24896 0.43871 0.38951 0.0
H487 H 0.14126 0.40069 0.3881 0.0
H488 H 0.21546 0.34984 0.3689 0.0
H489 H 0.06938 0.29858 0.31826 0.0
H490 H 0.26175 0.41302 0.3834 0.0
H491 H 0.18622 0.30888 0.31304 0.0
H492 H 0.10683 0.32466 0.32583 0.0
H493 H 0.1814 0.27611 0.30053 0.0
H494 H 0.21848 0.44525 0.39303 0.0
H495 H 0.06087 0.2639 0.30668 0.0
H496 H 0.07465 0.24061 0.29574 0.0
H497 H 0.17817 0.43105 0.39272 0.0
H498 H 0.10474 0.23377 0.2919 0.0
N499 N 0.11946 0.30441 0.31994 0.0
C500 C 0.10339 0.3094 0.32125 0.0
C501 C 0.0773 0.27506 0.31043 0.0
C502 C 0.09397 0.27044 0.30836 0.0
C503 C 0.08206 0.29466 0.31689 0.0
C504 C 0.11505 0.28549 0.31353 0.0
H505 H 0.14465 0.24686 0.29375 0.0
N506 N 0.15237 0.298 0.31437 0.0
C507 C 0.16739 0.27759 0.30331 0.0
C508 C 0.13215 0.28217 0.3106 0.0
C509 C 0.17003 0.29619 0.31042 0.0
C510 C 0.14663 0.26108 0.29958 0.0
C511 C 0.12871 0.26341 0.30291 0.0
O512 O 0.17382 0.3405 0.30422 0.0
O513 O 0.17839 0.3511 0.34205 0.0
O514 O 0.16709 0.37166 0.35219 0.0
O515 O 0.14421 0.35108 0.33135 0.0
O516 O 0.19035 0.34159 0.32372 0.0
O517 O 0.14418 0.34109 0.30726 0.0
O518 O 0.14959 0.33644 0.38811 0.0
O519 O 0.14447 0.32396 0.34983 0.0
O520 O 0.15682 0.30383 0.3391 0.0
O521 O 0.1788 0.32454 0.36041 0.0
O522 O 0.1321 0.33328 0.36779 0.0
O523 O 0.17712 0.33242 0.38408 0.0
C524 C 0.19585 0.35385 0.33608 0.0
C525 C 0.15411 0.33788 0.28063 0.0
C526 C 0.16027 0.34507 0.25181 0.0
C527 C 0.16524 0.35193 0.26797 0.0
C528 C 0.144 0.32408 0.24852 0.0
C529 C 0.13769 0.31715 0.27699 0.0
C530 C 0.13273 0.31028 0.26104 0.0
C531 C 0.1539 0.36885 0.34002 0.0
C532 C 0.16001 0.34488 0.29752 0.0
C533 C 0.1077 0.24812 0.29808 0.0
C534 C 0.09046 0.25185 0.30051 0.0
C535 C 0.12679 0.32066 0.35564 0.0
C536 C 0.16958 0.33679 0.411 0.0
C537 C 0.16237 0.32162 0.42338 0.0
C538 C 0.1699 0.32779 0.43933 0.0
C539 C 0.1845 0.34933 0.44266 0.0
C540 C 0.18406 0.35814 0.41469 0.0
C541 C 0.19147 0.36435 0.43043 0.0
C542 C 0.16983 0.30693 0.3515 0.0
C543 C 0.16226 0.33017 0.39427 0.0
H544 H 0.1779 0.36802 0.27067 0.0
H545 H 0.13973 0.31846 0.23621 0.0
H546 H 0.12864 0.30625 0.2864 0.0
H547 H 0.12006 0.29422 0.25839 0.0
H548 H 0.15123 0.30507 0.42057 0.0
H549 H 0.19032 0.35463 0.45482 0.0
H550 H 0.1897 0.37001 0.40545 0.0
H551 H 0.20263 0.38089 0.43315 0.0
Tb552 Tb 0.68713 0.82907 0.32513 0.0
C553 C 0.61572 0.79817 0.37515 0.0
C554 C 0.60455 0.82448 0.3763 0.0
C555 C 0.57867 0.78763 0.38227 0.0
C556 C 0.62043 0.81884 0.3732 0.0
C557 C 0.5949 0.78234 0.37994 0.0
C558 C 0.5835 0.8087 0.38049 0.0
C559 C 0.60832 0.75776 0.38108 0.0
N560 N 0.63196 0.79383 0.37305 0.0
C561 C 0.62879 0.7741 0.37653 0.0
C562 C 0.59124 0.76183 0.38265 0.0
Tb563 Tb 0.66465 0.82158 0.36506 0.0
N564 N 0.64099 0.83366 0.36928 0.0
C565 C 0.64707 0.8547 0.36918 0.0
C566 C 0.61051 0.84587 0.3756 0.0
C567 C 0.63188 0.86109 0.37216 0.0
H568 H 0.64185 0.77074 0.3753 0.0
H569 H 0.63672 0.87773 0.37185 0.0
H570 H 0.57101 0.81271 0.38275 0.0
H571 H 0.60575 0.74204 0.38339 0.0
H572 H 0.66353 0.86664 0.36653 0.0
H573 H 0.715 0.77234 0.32281 0.0
H574 H 0.59886 0.85078 0.37817 0.0
H575 H 0.70822 0.87669 0.30888 0.0
H576 H 0.68859 0.78405 0.32706 0.0
H577 H 0.74323 0.90375 0.29777 0.0
H578 H 0.5625 0.77568 0.38584 0.0
H579 H 0.75247 0.79817 0.31461 0.0
H580 H 0.77998 0.83557 0.30738 0.0
H581 H 0.57544 0.74919 0.38628 0.0
H582 H 0.78784 0.87168 0.30075 0.0
N583 N 0.71089 0.81663 0.32218 0.0
C584 C 0.70487 0.79568 0.32374 0.0
C585 C 0.74104 0.80353 0.31691 0.0
C586 C 0.74692 0.82475 0.31471 0.0
C587 C 0.71988 0.7889 0.32136 0.0
C588 C 0.73121 0.83079 0.3173 0.0
H589 H 0.77404 0.89715 0.29678 0.0
N590 N 0.7192 0.85516 0.31475 0.0
C591 C 0.74136 0.889 0.30226 0.0
C592 C 0.73558 0.8509 0.31352 0.0
C593 C 0.7215 0.87357 0.30857 0.0
C594 C 0.75874 0.88526 0.30179 0.0
C595 C 0.75583 0.86581 0.30711 0.0
O596 O 0.67631 0.83546 0.30335 0.0
O597 O 0.66273 0.82918 0.34037 0.0
O598 O 0.64016 0.79741 0.34931 0.0
O599 O 0.66267 0.7955 0.33008 0.0
O600 O 0.67467 0.85113 0.32267 0.0
O601 O 0.67481 0.80552 0.30709 0.0
O602 O 0.67289 0.81247 0.38674 0.0
O603 O 0.69 0.82294 0.35012 0.0
O604 O 0.71084 0.85653 0.33914 0.0
O605 O 0.68987 0.85517 0.36138 0.0
O606 O 0.67769 0.79997 0.36702 0.0
O607 O 0.67589 0.84337 0.38432 0.0
C608 C 0.66095 0.84406 0.33422 0.0
C609 C 0.68058 0.81859 0.28059 0.0
C610 C 0.67491 0.81636 0.25154 0.0
C611 C 0.66708 0.81507 0.26725 0.0
C612 C 0.69649 0.82134 0.24932 0.0
C613 C 0.70195 0.82318 0.27816 0.0
C614 C 0.70988 0.82465 0.2626 0.0
C615 C 0.6437 0.78738 0.33747 0.0
C616 C 0.67208 0.81748 0.29686 0.0
C617 C 0.77208 0.86039 0.30549 0.0
C618 C 0.76761 0.83984 0.30925 0.0
C619 C 0.69248 0.80849 0.35627 0.0
C620 C 0.66851 0.82815 0.41022 0.0
C621 C 0.68215 0.83237 0.42357 0.0
C622 C 0.67409 0.83038 0.43929 0.0
C623 C 0.65212 0.824 0.44147 0.0
C624 C 0.64669 0.82198 0.41261 0.0
C625 C 0.63854 0.81986 0.42816 0.0
C626 C 0.70764 0.86489 0.35239 0.0
C627 C 0.67746 0.83015 0.39401 0.0
H628 H 0.65054 0.81151 0.26911 0.0
H629 H 0.70286 0.82226 0.23734 0.0
H630 H 0.71247 0.82552 0.28821 0.0
H631 H 0.72641 0.82824 0.26083 0.0
H632 H 0.69899 0.83701 0.42171 0.0
H633 H 0.64553 0.82256 0.45343 0.0
H634 H 0.63597 0.81884 0.40255 0.0
H635 H 0.62167 0.81511 0.42991 0.0
Tb636 Tb 0.19482 0.84732 0.36584 0.0
C637 C 0.16012 0.88172 0.31282 0.0
C638 C 0.12177 0.85663 0.31064 0.0
C639 C 0.13589 0.89297 0.3018 0.0
C640 C 0.14285 0.86163 0.3153 0.0
C641 C 0.15691 0.89762 0.30592 0.0
C642 C 0.11844 0.87243 0.3039 0.0
C643 C 0.19573 0.92016 0.3048 0.0
N644 N 0.1803 0.88502 0.31567 0.0
C645 C 0.19808 0.90366 0.31116 0.0
C646 C 0.17504 0.91723 0.30236 0.0
Tb647 Tb 0.18272 0.85683 0.32534 0.0
N648 N 0.14707 0.84645 0.32059 0.0
C649 C 0.13086 0.8257 0.32098 0.0
C650 C 0.10495 0.83562 0.31192 0.0
C651 C 0.10955 0.82008 0.31706 0.0
H652 H 0.21419 0.9061 0.31281 0.0
H653 H 0.09675 0.80369 0.31776 0.0
H654 H 0.10263 0.86872 0.29952 0.0
H655 H 0.20988 0.93505 0.30165 0.0
H656 H 0.13414 0.81337 0.32457 0.0
H657 H 0.28097 0.90357 0.36917 0.0
H658 H 0.08854 0.8311 0.30846 0.0
H659 H 0.16702 0.79939 0.38132 0.0
H660 H 0.24254 0.89263 0.36609 0.0
H661 H 0.17409 0.77153 0.39142 0.0
H662 H 0.13311 0.90484 0.29623 0.0
H663 H 0.29186 0.87686 0.37478 0.0
H664 H 0.28065 0.839 0.38134 0.0
H665 H 0.17324 0.92988 0.29714 0.0
H666 H 0.25139 0.80283 0.38756 0.0
N667 N 0.23127 0.85965 0.36939 0.0
C668 C 0.24679 0.88066 0.3686 0.0
C669 C 0.27486 0.87189 0.37342 0.0
C670 C 0.25885 0.85068 0.37542 0.0
C671 C 0.26876 0.88701 0.37032 0.0
C672 C 0.23698 0.84509 0.37342 0.0
H673 H 0.21151 0.77763 0.39178 0.0
N674 N 0.20003 0.82087 0.37573 0.0
C675 C 0.18737 0.78643 0.38723 0.0
C676 C 0.2207 0.82489 0.37677 0.0
C677 C 0.18343 0.80229 0.38156 0.0
C678 C 0.20849 0.78989 0.38735 0.0
C679 C 0.22556 0.80949 0.38238 0.0
O680 O 0.17686 0.83925 0.38739 0.0
O681 O 0.17192 0.84935 0.34991 0.0
O682 O 0.18537 0.88288 0.34015 0.0
O683 O 0.20512 0.88104 0.36202 0.0
O684 O 0.15954 0.82632 0.36686 0.0
O685 O 0.20529 0.86991 0.38448 0.0
O686 O 0.20143 0.86422 0.30421 0.0
O687 O 0.20522 0.8541 0.34116 0.0
O688 O 0.18989 0.82 0.35154 0.0
O689 O 0.17143 0.82284 0.3291 0.0
O690 O 0.21798 0.87752 0.32459 0.0
O691 O 0.17146 0.83468 0.3063 0.0
C692 C 0.15428 0.83477 0.35544 0.0
C693 C 0.19743 0.85618 0.41074 0.0
C694 C 0.19471 0.85992 0.43973 0.0
C695 C 0.18712 0.85935 0.42398 0.0
C696 C 0.21252 0.8569 0.4421 0.0
C697 C 0.21511 0.85311 0.41336 0.0
C698 C 0.22253 0.85338 0.42897 0.0
C699 C 0.19705 0.89083 0.35344 0.0
C700 C 0.19024 0.85721 0.39433 0.0
C701 C 0.24729 0.81451 0.38348 0.0
C702 C 0.26394 0.8351 0.37996 0.0
C703 C 0.22298 0.86845 0.33566 0.0
C704 C 0.18175 0.8489 0.28024 0.0
C705 C 0.1902 0.84278 0.26733 0.0
C706 C 0.18427 0.84407 0.25134 0.0
C707 C 0.17015 0.85197 0.24848 0.0
C708 C 0.16753 0.85649 0.27706 0.0
C709 C 0.16188 0.85814 0.26128 0.0
C710 C 0.17835 0.81235 0.33812 0.0
C711 C 0.18749 0.84679 0.2969 0.0
H712 H 0.1736 0.86197 0.42198 0.0
H713 H 0.21858 0.85714 0.45412 0.0
H714 H 0.22338 0.85082 0.40336 0.0
H715 H 0.23623 0.85105 0.43089 0.0
H716 H 0.20093 0.83658 0.26975 0.0
H717 H 0.16558 0.85348 0.23632 0.0
H718 H 0.16064 0.861 0.28672 0.0
H719 H 0.15095 0.86412 0.25896 0.0
Tb720 Tb 0.82861 0.6647 0.6602 0.0
C721 C 0.86072 0.72845 0.71584 0.0
C722 C 0.89807 0.73847 0.72089 0.0
C723 C 0.8852 0.76268 0.72807 0.0
C724 C 0.87729 0.72389 0.71492 0.0
C725 C 0.86441 0.74786 0.72245 0.0
C726 C 0.90188 0.75783 0.72753 0.0
C727 C 0.82614 0.73526 0.71958 0.0
N728 N 0.84056 0.71313 0.7113 0.0
C729 C 0.82315 0.71598 0.7136 0.0
C730 C 0.84688 0.75132 0.72395 0.0
Tb731 Tb 0.83737 0.68198 0.70194 0.0
N732 N 0.87261 0.70453 0.70926 0.0
C733 C 0.88801 0.69858 0.70959 0.0
C734 C 0.91412 0.73276 0.72065 0.0
C735 C 0.90904 0.71271 0.71499 0.0
H736 H 0.80701 0.70363 0.7104 0.0
H737 H 0.92124 0.70801 0.71497 0.0
H738 H 0.91745 0.76887 0.73277 0.0
H739 H 0.8124 0.73762 0.72098 0.0
H740 H 0.88427 0.683 0.70553 0.0
H741 H 0.74379 0.63826 0.65067 0.0
H742 H 0.9303 0.74349 0.72513 0.0
H743 H 0.85869 0.64561 0.64592 0.0
H744 H 0.78122 0.66325 0.65884 0.0
H745 H 0.85336 0.61301 0.63267 0.0
H746 H 0.88834 0.77758 0.73338 0.0
H747 H 0.73422 0.60308 0.63955 0.0
H748 H 0.74697 0.57867 0.6293 0.0
H749 H 0.84907 0.76608 0.72889 0.0
H750 H 0.77646 0.57096 0.62546 0.0
N751 N 0.79287 0.64195 0.65378 0.0
C752 C 0.77739 0.64781 0.65443 0.0
C753 C 0.75065 0.61377 0.64357 0.0
C754 C 0.76679 0.60833 0.64199 0.0
C755 C 0.75602 0.63366 0.64975 0.0
C756 C 0.78791 0.62283 0.64746 0.0
H757 H 0.81633 0.58375 0.62661 0.0
N758 N 0.82495 0.63451 0.64844 0.0
C759 C 0.83947 0.61439 0.63608 0.0
C760 C 0.80461 0.61889 0.64477 0.0
C761 C 0.84241 0.63287 0.64362 0.0
C762 C 0.81856 0.59786 0.63278 0.0
C763 C 0.80082 0.60023 0.63671 0.0
O764 O 0.84875 0.67714 0.63986 0.0
O765 O 0.85058 0.6864 0.67811 0.0
O766 O 0.83982 0.7077 0.68723 0.0
O767 O 0.81809 0.68795 0.66572 0.0
O768 O 0.86372 0.67688 0.66079 0.0
O769 O 0.82029 0.67984 0.64233 0.0
O770 O 0.8169 0.67149 0.72215 0.0
O771 O 0.81575 0.65931 0.6843 0.0
O772 O 0.83035 0.63978 0.67358 0.0
O773 O 0.84699 0.65788 0.69763 0.0
O774 O 0.8023 0.66961 0.70089 0.0
O775 O 0.84539 0.66846 0.72126 0.0
C776 C 0.86841 0.6888 0.67332 0.0
C777 C 0.83077 0.67723 0.61589 0.0
C778 C 0.83318 0.68723 0.58752 0.0
C779 C 0.83914 0.69284 0.60382 0.0
C780 C 0.81911 0.66578 0.58353 0.0
C781 C 0.81663 0.65605 0.61152 0.0
C782 C 0.81093 0.65035 0.59546 0.0
C783 C 0.82768 0.70556 0.67454 0.0
C784 C 0.83631 0.68317 0.63299 0.0
C785 C 0.7797 0.58529 0.63183 0.0
C786 C 0.7628 0.58953 0.63423 0.0
C787 C 0.7978 0.65667 0.68903 0.0
C788 C 0.83395 0.67287 0.74698 0.0
C789 C 0.82805 0.65784 0.7594 0.0
C790 C 0.83299 0.66454 0.77562 0.0
C791 C 0.84367 0.68639 0.77918 0.0
C792 C 0.84445 0.6945 0.75096 0.0
C793 C 0.84931 0.70121 0.76693 0.0
C794 C 0.8403 0.64153 0.68752 0.0
C795 C 0.8291 0.6659 0.72999 0.0
H796 H 0.84987 0.7093 0.60713 0.0
H797 H 0.81452 0.66088 0.57112 0.0
H798 H 0.80984 0.64389 0.62048 0.0
H799 H 0.80006 0.63391 0.59225 0.0
H800 H 0.8199 0.64107 0.75644 0.0
H801 H 0.84736 0.69204 0.79152 0.0
H802 H 0.84881 0.70626 0.7418 0.0
H803 H 0.85739 0.71798 0.76982 0.0
Tb804 Tb 0.35463 0.16543 0.65858 0.0
C805 C 0.28215 0.13572 0.70735 0.0
C806 C 0.26923 0.16055 0.70451 0.0
C807 C 0.24431 0.12417 0.71238 0.0
C808 C 0.28602 0.15569 0.70356 0.0
C809 C 0.2614 0.11981 0.71218 0.0
C810 C 0.24822 0.14453 0.70854 0.0
C811 C 0.27651 0.0972 0.7175 0.0
N812 N 0.29914 0.13226 0.70708 0.0
C813 C 0.29682 0.11357 0.71267 0.0
C814 C 0.25865 0.10023 0.71706 0.0
Tb815 Tb 0.33152 0.15958 0.69816 0.0
N816 N 0.30659 0.1707 0.6999 0.0
C817 C 0.31178 0.19141 0.69824 0.0
C818 C 0.27423 0.18147 0.70185 0.0
C819 C 0.29567 0.19703 0.69897 0.0
H820 H 0.3105 0.11103 0.71291 0.0
H821 H 0.29981 0.21335 0.69721 0.0
H822 H 0.23503 0.14787 0.70912 0.0
H823 H 0.27463 0.08226 0.72152 0.0
H824 H 0.3282 0.20364 0.69586 0.0
H825 H 0.38996 0.11508 0.65568 0.0
H826 H 0.26179 0.18586 0.70238 0.0
H827 H 0.37303 0.2154 0.64686 0.0
H828 H 0.36157 0.12386 0.66171 0.0
H829 H 0.40609 0.24417 0.63492 0.0
H830 H 0.22816 0.1121 0.71588 0.0
H831 H 0.42487 0.1423 0.64429 0.0
H832 H 0.44712 0.17889 0.63276 0.0
H833 H 0.24295 0.08756 0.72084 0.0
H834 H 0.45224 0.21439 0.62815 0.0
N835 N 0.38086 0.1564 0.65533 0.0
C836 C 0.377 0.13616 0.65732 0.0
C837 C 0.41273 0.14647 0.64743 0.0
C838 C 0.41622 0.16689 0.64469 0.0
C839 C 0.39301 0.13104 0.65379 0.0
C840 C 0.39991 0.17149 0.64904 0.0
H841 H 0.43717 0.23904 0.62916 0.0
N842 N 0.38531 0.19407 0.64868 0.0
C843 C 0.40524 0.22932 0.63788 0.0
C844 C 0.4022 0.19101 0.64555 0.0
C845 C 0.38642 0.21283 0.64462 0.0
C846 C 0.42276 0.22638 0.63468 0.0
C847 C 0.42123 0.20691 0.63824 0.0
O848 O 0.34357 0.17001 0.63626 0.0
O849 O 0.329 0.16436 0.67295 0.0
O850 O 0.3087 0.13248 0.68363 0.0
O851 O 0.33194 0.1316 0.66434 0.0
O852 O 0.33975 0.18519 0.6546 0.0
O853 O 0.34413 0.14118 0.64118 0.0
O854 O 0.34042 0.1535 0.72084 0.0
O855 O 0.35699 0.16033 0.68379 0.0
O856 O 0.37835 0.19185 0.67326 0.0
O857 O 0.3552 0.19314 0.69243 0.0
O858 O 0.34628 0.13957 0.7022 0.0
O859 O 0.34229 0.18343 0.71593 0.0
C860 C 0.32573 0.17778 0.6659 0.0
C861 C 0.3487 0.15272 0.61414 0.0
C862 C 0.34288 0.1513 0.58509 0.0
C863 C 0.33562 0.15087 0.60089 0.0
C864 C 0.36363 0.15399 0.58273 0.0
C865 C 0.3692 0.15502 0.61154 0.0
C866 C 0.37667 0.15582 0.59591 0.0
C867 C 0.31312 0.12266 0.67206 0.0
C868 C 0.34046 0.15205 0.63045 0.0
C869 C 0.43768 0.20256 0.63409 0.0
C870 C 0.43494 0.18244 0.63698 0.0
C871 C 0.36021 0.14684 0.69077 0.0
C872 C 0.3345 0.17079 0.74257 0.0
C873 C 0.34736 0.17573 0.75648 0.0
C874 C 0.33848 0.17491 0.77177 0.0
C875 C 0.31646 0.16892 0.77289 0.0
C876 C 0.31266 0.16508 0.74394 0.0
C877 C 0.30368 0.16409 0.75904 0.0
C878 C 0.37406 0.20186 0.68476 0.0
C879 C 0.34418 0.17161 0.72681 0.0
H880 H 0.31977 0.1491 0.60291 0.0
H881 H 0.36957 0.15412 0.57072 0.0
H882 H 0.37934 0.15597 0.6215 0.0
H883 H 0.39251 0.1576 0.594 0.0
H884 H 0.36434 0.1805 0.75535 0.0
H885 H 0.30903 0.16777 0.78449 0.0
H886 H 0.30255 0.16143 0.73343 0.0
H887 H 0.28677 0.15954 0.76 0.0
Tb888 Tb 0.86054 0.17889 0.69955 0.0
C889 C 0.82032 0.20728 0.64665 0.0
C890 C 0.78219 0.18118 0.64615 0.0
C891 C 0.79418 0.21739 0.63795 0.0
C892 C 0.80384 0.18696 0.64954 0.0
C893 C 0.81579 0.22272 0.64061 0.0
C894 C 0.77739 0.19661 0.64066 0.0
C895 C 0.85433 0.24689 0.639 0.0
N896 N 0.84093 0.21159 0.64905 0.0
C897 C 0.85797 0.23093 0.64481 0.0
C898 C 0.83314 0.24284 0.63702 0.0
Tb899 Tb 0.84533 0.18465 0.65911 0.0
N900 N 0.80921 0.17254 0.65471 0.0
C901 C 0.79361 0.15163 0.6559 0.0
C902 C 0.76614 0.15994 0.64782 0.0
C903 C 0.7719 0.14508 0.65263 0.0
H904 H 0.87444 0.23433 0.64633 0.0
H905 H 0.7597 0.12853 0.65373 0.0
H906 H 0.76082 0.19251 0.63813 0.0
H907 H 0.86787 0.26229 0.63602 0.0
H908 H 0.79764 0.13983 0.65954 0.0
H909 H 0.94634 0.23451 0.70439 0.0
H910 H 0.7494 0.15481 0.64497 0.0
H911 H 0.83132 0.12924 0.71238 0.0
H912 H 0.90824 0.2235 0.69906 0.0
H913 H 0.8378 0.10103 0.72228 0.0
H914 H 0.79032 0.22905 0.63341 0.0
H915 H 0.95646 0.20789 0.71254 0.0
H916 H 0.94494 0.17006 0.71887 0.0
H917 H 0.83035 0.25518 0.63241 0.0
H918 H 0.91534 0.13358 0.72362 0.0
N919 N 0.89666 0.19072 0.70348 0.0
C920 C 0.91232 0.21161 0.70241 0.0
C921 C 0.93973 0.20292 0.70983 0.0
C922 C 0.92362 0.18169 0.71138 0.0
C923 C 0.93404 0.21797 0.70539 0.0
C924 C 0.90196 0.17609 0.70824 0.0
H925 H 0.87527 0.10774 0.72513 0.0
N926 N 0.8648 0.15164 0.70908 0.0
C927 C 0.85136 0.11634 0.71913 0.0
C928 C 0.88542 0.15577 0.71113 0.0
C929 C 0.84776 0.13243 0.71355 0.0
C930 C 0.87252 0.12016 0.72068 0.0
C931 C 0.88991 0.1402 0.71693 0.0
O932 O 0.84331 0.17203 0.72132 0.0
O933 O 0.83614 0.17888 0.68406 0.0
O934 O 0.84704 0.21039 0.67357 0.0
O935 O 0.8706 0.21229 0.6939 0.0
O936 O 0.82543 0.15743 0.70207 0.0
O937 O 0.8721 0.20228 0.71776 0.0
O938 O 0.86213 0.19134 0.63713 0.0
O939 O 0.86981 0.18499 0.67465 0.0
O940 O 0.85871 0.15306 0.68495 0.0
O941 O 0.83477 0.1514 0.66514 0.0
O942 O 0.8804 0.20634 0.65664 0.0
O943 O 0.83488 0.16034 0.64177 0.0
C944 C 0.81904 0.16461 0.69048 0.0
C945 C 0.86434 0.18915 0.74434 0.0
C946 C 0.86189 0.19304 0.7734 0.0
C947 C 0.85534 0.19409 0.75755 0.0
C948 C 0.87742 0.18672 0.77576 0.0
C949 C 0.87995 0.18317 0.74701 0.0
C950 C 0.88638 0.18189 0.76263 0.0
C951 C 0.86074 0.22057 0.68551 0.0
C952 C 0.85712 0.19012 0.72789 0.0
C953 C 0.91152 0.14535 0.71927 0.0
C954 C 0.92837 0.1661 0.71655 0.0
C955 C 0.88689 0.19933 0.66827 0.0
C956 C 0.84134 0.17139 0.61477 0.0
C957 C 0.84995 0.165 0.60218 0.0
C958 C 0.84224 0.16336 0.58631 0.0
C959 C 0.82587 0.16834 0.58324 0.0
C960 C 0.82507 0.17631 0.61145 0.0
C961 C 0.8174 0.17479 0.59575 0.0
C962 C 0.845 0.14312 0.67297 0.0
C963 C 0.84926 0.17246 0.63128 0.0
H964 H 0.8435 0.19902 0.75545 0.0
H965 H 0.88251 0.18531 0.78776 0.0
H966 H 0.88719 0.17949 0.73709 0.0
H967 H 0.89835 0.17711 0.76458 0.0
H968 H 0.8624 0.16101 0.60478 0.0
H969 H 0.81982 0.16752 0.57113 0.0
H970 H 0.81824 0.18122 0.62093 0.0
H971 H 0.80486 0.17865 0.59327 0.0
H972 H 0.31557 0.83247 0.09402 0.0
H973 H 0.34625 0.86235 0.08123 0.0
H974 H 0.31384 0.84272 0.03515 0.0
H975 H 0.28231 0.81356 0.04809 0.0
H976 H 0.37467 0.86799 0.06028 0.0
H977 H 0.32772 0.88546 0.01158 0.0
H978 H 0.29137 0.88079 0.00695 0.0
H979 H 0.28198 0.88111 0.058 0.0
H980 H 0.31836 0.88604 0.06291 0.0
H981 H 0.45593 0.95165 0.01721 0.0
H982 H 0.42316 0.91805 0.02154 0.0
H983 H 0.39188 0.95128 0.04027 0.0
H984 H 0.42408 0.98517 0.03401 0.0
H985 H 0.36282 0.91776 0.02698 0.0
H986 H 0.42012 0.93115 0.06495 0.0
H987 H 0.45748 0.93982 0.07146 0.0
H988 H 0.44675 0.88305 0.04731 0.0
H989 H 0.40935 0.87414 0.04055 0.0
C990 C 0.31476 0.8346 0.08119 0.0
C991 C 0.29617 0.82074 0.07218 0.0
C992 C 0.33253 0.8516 0.07383 0.0
C993 C 0.33233 0.8551 0.05723 0.0
C994 C 0.31426 0.84068 0.04803 0.0
C995 C 0.2963 0.82381 0.05544 0.0
C996 C 0.35072 0.87429 0.04984 0.0
C997 C 0.37202 0.8788 0.05295 0.0
C998 C 0.34747 0.88865 0.0404 0.0
C999 C 0.32564 0.88585 0.03759 0.0
C1000 C 0.3179 0.88458 0.0218 0.0
C1001 C 0.2973 0.88189 0.01914 0.0
C1002 C 0.28434 0.88057 0.03218 0.0
C1003 C 0.29199 0.88204 0.04791 0.0
C1004 C 0.31259 0.88476 0.05064 0.0
C1005 C 0.44189 0.95195 0.02153 0.0
C1006 C 0.44254 0.9712 0.02484 0.0
C1007 C 0.42315 0.93257 0.02437 0.0
C1008 C 0.40514 0.93197 0.03173 0.0
C1009 C 0.4055 0.95119 0.03462 0.0
C1010 C 0.42397 0.97059 0.03112 0.0
C1011 C 0.38671 0.91161 0.03761 0.0
C1012 C 0.36544 0.90684 0.03419 0.0
C1013 C 0.39 0.89741 0.04726 0.0
C1014 C 0.41199 0.90204 0.05218 0.0
C1015 C 0.42571 0.92048 0.06109 0.0
C1016 C 0.4469 0.92546 0.06479 0.0
C1017 C 0.45449 0.912 0.05978 0.0
C1018 C 0.44083 0.89345 0.05118 0.0
C1019 C 0.41963 0.88839 0.04745 0.0
H1020 H 0.47094 0.91595 0.06256 0.0
H1021 H 0.26839 0.87847 0.03009 0.0
H1022 H 0.21403 0.49878 0.05945 0.0
H1023 H 0.18316 0.50047 0.04803 0.0
H1024 H 0.13922 0.4404 0.06983 0.0
H1025 H 0.16981 0.43815 0.08054 0.0
H1026 H 0.12516 0.44092 0.04137 0.0
H1027 H 0.15015 0.48999 0.08592 0.0
H1028 H 0.17668 0.52083 0.10187 0.0
H1029 H 0.18552 0.56205 0.06223 0.0
H1030 H 0.15924 0.53139 0.04597 0.0
H1031 H 0.02717 0.44408 0.03747 0.0
H1032 H 0.05935 0.44207 0.04442 0.0
H1033 H 0.09988 0.50508 0.02571 0.0
H1034 H 0.06773 0.50779 0.02031 0.0
H1035 H 0.11673 0.50358 0.05138 0.0
H1036 H 0.09762 0.45318 0.00568 0.0
H1037 H 0.0723 0.42192 0.9893 0.0
H1038 H 0.05288 0.38334 0.03173 0.0
H1039 H 0.07819 0.4144 0.04819 0.0
C1040 C 0.1978 0.4858 0.06161 0.0
C1041 C 0.19448 0.46846 0.07112 0.0
C1042 C 0.18011 0.4869 0.05524 0.0
C1043 C 0.15872 0.47077 0.05831 0.0
C1044 C 0.15547 0.45316 0.06734 0.0
C1045 C 0.17306 0.45199 0.07361 0.0
C1046 C 0.1396 0.47201 0.05222 0.0
C1047 C 0.12329 0.4546 0.0437 0.0
C1048 C 0.13713 0.48993 0.05491 0.0
C1049 C 0.15292 0.50836 0.06467 0.0
C1050 C 0.15789 0.50561 0.08056 0.0
C1051 C 0.17285 0.52306 0.08967 0.0
C1052 C 0.18283 0.54338 0.08305 0.0
C1053 C 0.17781 0.5463 0.06733 0.0
C1054 C 0.16288 0.52889 0.05817 0.0
C1055 C 0.04297 0.45738 0.03461 0.0
C1056 C 0.04476 0.47582 0.02779 0.0
C1057 C 0.06147 0.45612 0.03839 0.0
C1058 C 0.08235 0.47314 0.03518 0.0
C1059 C 0.0841 0.49155 0.02823 0.0
C1060 C 0.06559 0.49301 0.02487 0.0
C1061 C 0.10226 0.47253 0.04035 0.0
C1062 C 0.11869 0.49001 0.04885 0.0
C1063 C 0.10484 0.45464 0.03774 0.0
C1064 C 0.08926 0.43612 0.0281 0.0
C1065 C 0.08761 0.43807 0.01145 0.0
C1066 C 0.07344 0.42039 0.00217 0.0
C1067 C 0.06081 0.40071 0.0095 0.0
C1068 C 0.06255 0.39862 0.02608 0.0
C1069 C 0.07688 0.41622 0.03536 0.0
H1070 H 0.0498 0.38706 0.00232 0.0
H1071 H 0.1944 0.55687 0.09012 0.0
H1072 H 0.51532 0.70446 0.09099 0.0
H1073 H 0.51381 0.67294 0.07901 0.0
H1074 H 0.55914 0.71201 0.04251 0.0
H1075 H 0.55981 0.74335 0.05407 0.0
H1076 H 0.53154 0.67681 0.0294 0.0
H1077 H 0.57496 0.69527 0.07697 0.0
H1078 H 0.58378 0.70411 0.10573 0.0
H1079 H 0.53156 0.6427 0.11883 0.0
H1080 H 0.52221 0.63362 0.09015 0.0
H1081 H 0.5621 0.58702 0.03703 0.0
H1082 H 0.56584 0.62075 0.04617 0.0
H1083 H 0.50426 0.60373 0.02415 0.0
H1084 H 0.50096 0.57072 0.0144 0.0
H1085 H 0.54411 0.63008 0.0658 0.0
H1086 H 0.50167 0.64508 0.01167 0.0
H1087 H 0.49751 0.6384 0.98236 0.0
H1088 H 0.55739 0.63777 0.98118 0.0
H1089 H 0.56199 0.6446 0.01044 0.0
C1090 C 0.52469 0.70617 0.08028 0.0
C1091 C 0.5377 0.72621 0.07343 0.0
C1092 C 0.52397 0.68824 0.07351 0.0
C1093 C 0.53678 0.69016 0.06008 0.0
C1094 C 0.54917 0.71012 0.05289 0.0
C1095 C 0.54954 0.72799 0.05947 0.0
C1096 C 0.53779 0.67152 0.05387 0.0
C1097 C 0.53432 0.66663 0.03736 0.0
C1098 C 0.54206 0.65853 0.06415 0.0
C1099 C 0.54778 0.66384 0.08141 0.0
C1100 C 0.56528 0.6837 0.08599 0.0
C1101 C 0.57038 0.68875 0.10227 0.0
C1102 C 0.55821 0.67399 0.1141 0.0
C1103 C 0.54096 0.65413 0.10966 0.0
C1104 C 0.53576 0.64901 0.09339 0.0
C1105 C 0.5495 0.59062 0.03401 0.0
C1106 C 0.53138 0.57633 0.02486 0.0
C1107 C 0.5516 0.60984 0.03928 0.0
C1108 C 0.5355 0.61496 0.03563 0.0
C1109 C 0.51721 0.60047 0.02674 0.0
C1110 C 0.51531 0.58151 0.02122 0.0
C1111 C 0.53746 0.63518 0.0414 0.0
C1112 C 0.54146 0.64034 0.05782 0.0
C1113 C 0.53448 0.64884 0.03095 0.0
C1114 C 0.53209 0.64523 0.01327 0.0
C1115 C 0.51401 0.64364 0.00514 0.0
C1116 C 0.51155 0.63978 0.98854 0.0
C1117 C 0.52717 0.63764 0.97992 0.0
C1118 C 0.54529 0.6394 0.98787 0.0
C1119 C 0.5478 0.64322 0.00447 0.0
H1120 H 0.52521 0.63461 0.96707 0.0
H1121 H 0.56217 0.67794 0.1267 0.0
H1122 H 0.79947 0.28442 0.96825 0.0
H1123 H 0.82823 0.3173 0.98037 0.0
H1124 H 0.87637 0.30441 0.96054 0.0
H1125 H 0.84779 0.27119 0.94907 0.0
H1126 H 0.8886 0.32067 0.98943 0.0
H1127 H 0.86228 0.33887 0.94221 0.0
H1128 H 0.83478 0.33968 0.92463 0.0
H1129 H 0.81973 0.37136 0.96183 0.0
H1130 H 0.84697 0.37049 0.97972 0.0
H1131 H 0.98003 0.42556 0.98853 0.0
H1132 H 0.9498 0.39071 0.98078 0.0
H1133 H 0.90538 0.40462 0.00579 0.0
H1134 H 0.93533 0.43945 0.01344 0.0
H1135 H 0.89057 0.38787 0.97567 0.0
H1136 H 0.91948 0.37151 0.02218 0.0
H1137 H 0.94828 0.37154 0.03871 0.0
H1138 H 0.95973 0.33703 0.00165 0.0
H1139 H 0.93121 0.33708 0.98478 0.0
C1140 C 0.81616 0.2884 0.96673 0.0
C1141 C 0.82129 0.27528 0.95749 0.0
C1142 C 0.83262 0.30733 0.97352 0.0
C1143 C 0.85454 0.31361 0.9711 0.0
C1144 C 0.85963 0.30005 0.9625 0.0
C1145 C 0.84323 0.28112 0.95581 0.0
C1146 C 0.87225 0.33459 0.97694 0.0
C1147 C 0.8891 0.33536 0.98629 0.0
C1148 C 0.87284 0.35382 0.9731 0.0
C1149 C 0.85648 0.35439 0.96236 0.0
C1150 C 0.85299 0.34586 0.94668 0.0
C1151 C 0.83747 0.34636 0.93666 0.0
C1152 C 0.82547 0.35551 0.94213 0.0
C1153 C 0.829 0.36424 0.95762 0.0
C1154 C 0.84449 0.36376 0.96771 0.0
C1155 C 0.96384 0.42119 0.99242 0.0
C1156 C 0.96017 0.43526 0.00174 0.0
C1157 C 0.94659 0.40122 0.98803 0.0
C1158 C 0.92534 0.39497 0.99283 0.0
C1159 C 0.92163 0.40906 0.002 0.0
C1160 C 0.93884 0.42894 0.00646 0.0
C1161 C 0.90691 0.3739 0.98806 0.0
C1162 C 0.88997 0.37315 0.97889 0.0
C1163 C 0.90635 0.35473 0.99195 0.0
C1164 C 0.92333 0.35446 0.00215 0.0
C1165 C 0.92824 0.36406 0.0175 0.0
C1166 C 0.9445 0.36404 0.02694 0.0
C1167 C 0.95586 0.35434 0.02122 0.0
C1168 C 0.95093 0.34456 0.00606 0.0
C1169 C 0.93471 0.34456 0.99656 0.0
H1170 H 0.96845 0.35435 0.02855 0.0
H1171 H 0.81346 0.35589 0.93434 0.0
H1172 H 0.7442 0.55529 0.97896 0.0
H1173 H 0.71062 0.55213 0.98949 0.0
H1174 H 0.67596 0.51539 0.94757 0.0
H1175 H 0.7096 0.51919 0.93683 0.0
H1176 H 0.66435 0.54241 0.95214 0.0
H1177 H 0.67072 0.49403 0.98716 0.0
H1178 H 0.68803 0.48172 0.00674 0.0
H1179 H 0.69334 0.52859 0.04089 0.0
H1180 H 0.67633 0.54139 0.02142 0.0
H1181 H 0.56129 0.50055 0.00358 0.0
H1182 H 0.59466 0.50032 0.99733 0.0
H1183 H 0.62559 0.5666 0.98505 0.0
H1184 H 0.59224 0.56693 0.99162 0.0
H1185 H 0.63741 0.52242 0.00798 0.0
H1186 H 0.65404 0.57312 0.95039 0.0
H1187 H 0.63335 0.5804 0.93002 0.0
H1188 H 0.57697 0.52006 0.9394 0.0
H1189 H 0.59741 0.51228 0.95961 0.0
C1190 C 0.72932 0.54626 0.97215 0.0
C1191 C 0.72955 0.53751 0.95706 0.0
C1192 C 0.71007 0.54442 0.97818 0.0
C1193 C 0.69053 0.53341 0.96941 0.0
C1194 C 0.69072 0.5241 0.95457 0.0
C1195 C 0.70997 0.52621 0.94845 0.0
C1196 C 0.67016 0.53248 0.97516 0.0
C1197 C 0.65858 0.53802 0.96437 0.0
C1198 C 0.66215 0.52642 0.99104 0.0
C1199 C 0.67247 0.51883 0.00275 0.0
C1200 C 0.67575 0.50184 0.99879 0.0
C1201 C 0.68548 0.49475 0.00988 0.0
C1202 C 0.69185 0.50441 0.02503 0.0
C1203 C 0.68844 0.52115 0.02914 0.0
C1204 C 0.67875 0.52832 0.01808 0.0
C1205 C 0.57534 0.5152 1.00001 0.0
C1206 C 0.57429 0.53391 0.9985 0.0
C1207 C 0.59443 0.51504 0.99635 0.0
C1208 C 0.61266 0.53342 0.99067 0.0
C1209 C 0.61173 0.55219 0.98936 0.0
C1210 C 0.5927 0.55238 0.99313 0.0
C1211 C 0.6321 0.53268 0.98502 0.0
C1212 C 0.6434 0.52685 0.99579 0.0
C1213 C 0.63952 0.53782 0.96899 0.0
C1214 C 0.62721 0.54225 0.95664 0.0
C1215 C 0.63726 0.56138 0.94806 0.0
C1216 C 0.62557 0.56559 0.93654 0.0
C1217 C 0.60384 0.55073 0.93346 0.0
C1218 C 0.59377 0.53159 0.94184 0.0
C1219 C 0.6054 0.52729 0.95333 0.0
H1220 H 0.59482 0.55402 0.92455 0.0
H1221 H 0.69937 0.49889 0.0336 0.0
H1222 H 0.44983 0.18671 0.96808 0.0
H1223 H 0.45354 0.15781 0.97976 0.0
H1224 H 0.50386 0.16977 0.9455 0.0
H1225 H 0.49913 0.19778 0.93329 0.0
H1226 H 0.48005 0.1303 0.94758 0.0
H1227 H 0.51403 0.18538 0.98688 0.0
H1228 H 0.51747 0.21305 0.00589 0.0
H1229 H 0.46404 0.16617 0.03327 0.0
H1230 H 0.46009 0.13825 0.0143 0.0
H1231 H 0.51678 0.08133 0.01553 0.0
H1232 H 0.51414 0.11117 0.00496 0.0
H1233 H 0.45687 0.0678 0.97799 0.0
H1234 H 0.45989 0.03792 0.98804 0.0
H1235 H 0.48678 0.12424 0.00655 0.0
H1236 H 0.45472 0.08888 0.94268 0.0
H1237 H 0.45715 0.0642 0.92347 0.0
H1238 H 0.51759 0.07725 0.94472 0.0
H1239 H 0.51567 0.10221 0.96391 0.0
C1240 C 0.46168 0.18309 0.96315 0.0
C1241 C 0.47428 0.19433 0.94991 0.0
C1242 C 0.46391 0.16672 0.96984 0.0
C1243 C 0.47925 0.1618 0.9637 0.0
C1244 C 0.4919 0.17321 0.95045 0.0
C1245 C 0.4893 0.18923 0.94353 0.0
C1246 C 0.48183 0.1445 0.97081 0.0
C1247 C 0.48157 0.12903 0.96048 0.0
C1248 C 0.48429 0.14302 0.98761 0.0
C1249 C 0.48664 0.15976 0.99908 0.0
C1250 C 0.50292 0.181 0.99689 0.0
C1251 C 0.50497 0.19672 0.00767 0.0
C1252 C 0.49095 0.19138 0.02076 0.0
C1253 C 0.47487 0.17029 0.02312 0.0
C1254 C 0.47273 0.1545 0.01236 0.0
C1255 C 0.50355 0.07813 0.00741 0.0
C1256 C 0.48866 0.05729 0.00247 0.0
C1257 C 0.50205 0.09521 1.0014 0.0
C1258 C 0.48554 0.09176 0.99045 0.0
C1259 C 0.47007 0.07088 0.9861 0.0
C1260 C 0.47175 0.05381 0.99191 0.0
C1261 C 0.48478 0.11001 0.98334 0.0
C1262 C 0.48532 0.12559 0.99366 0.0
C1263 C 0.48349 0.11208 0.96648 0.0
C1264 C 0.48492 0.09727 0.95484 0.0
C1265 C 0.46857 0.08655 0.94321 0.0
C1266 C 0.46985 0.07249 0.93234 0.0
C1267 C 0.48747 0.0691 0.93291 0.0
C1268 C 0.5039 0.07982 0.94433 0.0
C1269 C 0.50271 0.09391 0.95522 0.0
H1270 H 0.48842 0.05823 0.92448 0.0
H1271 H 0.49257 0.20358 0.02909 0.0
H1272 H 0.72358 0.18536 0.97862 0.0
H1273 H 0.69124 0.15651 0.99125 0.0
H1274 H 0.65693 0.14298 0.94594 0.0
H1275 H 0.68928 0.17152 0.93323 0.0
H1276 H 0.65113 0.14958 0.99573 0.0
H1277 H 0.62172 0.0901 0.94249 0.0
H1278 H 0.63684 0.08072 0.91925 0.0
H1279 H 0.69755 0.10468 0.94422 0.0
H1280 H 0.6827 0.11393 0.96768 0.0
H1281 H 0.54151 0.06442 0.00602 0.0
H1282 H 0.57627 0.09561 0.99968 0.0
H1283 H 0.6062 0.05669 0.99868 0.0
H1284 H 0.57112 0.02536 0.00415 0.0
H1285 H 0.61551 0.07672 0.97293 0.0
H1286 H 0.62962 0.10778 0.02883 0.0
H1287 H 0.62217 0.12152 0.05378 0.0
H1288 H 0.59655 0.15366 0.02596 0.0
H1289 H 0.60486 0.1409 1.00084 0.0
C1290 C 0.70913 0.17625 0.97137 0.0
C1291 C 0.70895 0.18062 0.95492 0.0
C1292 C 0.69064 0.15979 0.9786 0.0
C1293 C 0.67169 0.14737 0.96951 0.0
C1294 C 0.67143 0.15205 0.95315 0.0
C1295 C 0.68989 0.16843 0.94592 0.0
C1296 C 0.65223 0.12951 0.97709 0.0
C1297 C 0.64338 0.13361 0.99077 0.0
C1298 C 0.64212 0.10862 0.97074 0.0
C1299 C 0.65115 0.1029 0.95677 0.0
C1300 C 0.63827 0.09329 0.94303 0.0
C1301 C 0.6468 0.08801 0.92982 0.0
C1302 C 0.66817 0.09216 0.93024 0.0
C1303 C 0.68103 0.10154 0.94389 0.0
C1304 C 0.67257 0.10683 0.95714 0.0
C1305 C 0.55565 0.06267 0.00502 0.0
C1306 C 0.55368 0.04249 0.00575 0.0
C1307 C 0.57566 0.0806 1.00143 0.0
C1308 C 0.59413 0.07872 0.99873 0.0
C1309 C 0.5923 0.05869 1.00057 0.0
C1310 C 0.57227 0.04077 0.0038 0.0
C1311 C 0.61438 0.09662 0.99182 0.0
C1312 C 0.62328 0.09259 0.97804 0.0
C1313 C 0.62472 0.1175 0.99819 0.0
C1314 C 0.61746 0.1231 0.01307 0.0
C1315 C 0.62215 0.11756 0.02809 0.0
C1316 C 0.61806 0.12541 0.04222 0.0
C1317 C 0.60879 0.13837 0.04146 0.0
C1318 C 0.60369 0.1436 0.02654 0.0
C1319 C 0.60825 0.13622 0.01236 0.0
H1320 H 0.60556 0.14437 0.05243 0.0
H1321 H 0.67474 0.08808 0.91999 0.0
H1322 H 0.81515 0.51505 0.97367 0.0
H1323 H 0.84192 0.505 0.98206 0.0
H1324 H 0.89318 0.56362 0.96279 0.0
H1325 H 0.86662 0.57345 0.95425 0.0
H1326 H 0.89855 0.53196 0.95355 0.0
H1327 H 0.88265 0.55478 0.00393 0.0
H1328 H 0.85936 0.55401 0.02613 0.0
H1329 H 0.84117 0.48939 0.03615 0.0
H1330 H 0.86413 0.48968 0.01385 0.0
H1331 H 0.99457 0.54756 0.99023 0.0
H1332 H 0.96247 0.5504 0.98414 0.0
H1333 H 0.92127 0.48499 0.99739 0.0
H1334 H 0.95338 0.4819 0.00298 0.0
H1335 H 0.90783 0.51471 0.0097 0.0
H1336 H 0.92569 0.49269 0.96073 0.0
H1337 H 0.94993 0.49376 0.93917 0.0
H1338 H 0.96461 0.55676 0.92677 0.0
H1339 H 0.94076 0.55623 0.94847 0.0
C1340 C 0.83214 0.5258 0.97132 0.0
C1341 C 0.83881 0.54507 0.96332 0.0
C1342 C 0.84746 0.52008 0.97615 0.0
C1343 C 0.86968 0.53359 0.97313 0.0
C1344 C 0.8762 0.55285 0.96522 0.0
C1345 C 0.86099 0.55851 0.9604 0.0
C1346 C 0.88634 0.52779 0.97778 0.0
C1347 C 0.9006 0.52834 0.96587 0.0
C1348 C 0.88875 0.52237 0.99375 0.0
C1349 C 0.87485 0.52216 0.00707 0.0
C1350 C 0.8735 0.54033 0.01076 0.0
C1351 C 0.8604 0.54 0.02338 0.0
C1352 C 0.84872 0.52163 0.0325 0.0
C1353 C 0.85017 0.50358 0.02904 0.0
C1354 C 0.86323 0.50382 0.01642 0.0
C1355 C 0.97866 0.53385 0.99199 0.0
C1356 C 0.97651 0.5147 0.99752 0.0
C1357 C 0.96035 0.53548 0.98851 0.0
C1358 C 0.93947 0.51793 0.99036 0.0
C1359 C 0.93722 0.49878 0.99602 0.0
C1360 C 0.9556 0.49708 0.99931 0.0
C1361 C 0.92021 0.51952 0.98556 0.0
C1362 C 0.90553 0.51812 0.99738 0.0
C1363 C 0.91735 0.52414 0.96951 0.0
C1364 C 0.93157 0.52448 0.95633 0.0
C1365 C 0.93423 0.50685 0.9535 0.0
C1366 C 0.94788 0.50734 0.94124 0.0
C1367 C 0.95883 0.52533 0.93163 0.0
C1368 C 0.95613 0.54284 0.93424 0.0
C1369 C 0.94253 0.54245 0.94651 0.0
H1370 H 0.96938 0.52568 0.92213 0.0
H1371 H 0.8386 0.52141 0.04228 0.0
H1372 H 0.4719 0.28625 0.9731 0.0
H1373 H 0.47214 0.31696 0.98549 0.0
H1374 H 0.51223 0.35659 0.94691 0.0
H1375 H 0.51139 0.32581 0.93424 0.0
H1376 H 0.50179 0.35322 0.99742 0.0
H1377 H 0.49984 0.39355 0.93738 0.0
H1378 H 0.48493 0.38302 0.90989 0.0
H1379 H 0.43613 0.32224 0.92723 0.0
H1380 H 0.45054 0.3325 0.95485 0.0
H1381 H 0.53786 0.46109 0.01066 0.0
H1382 H 0.53106 0.42634 0.00187 0.0
H1383 H 0.4673 0.41078 0.98522 0.0
H1384 H 0.47461 0.44617 0.99314 0.0
H1385 H 0.48359 0.3986 0.96406 0.0
H1386 H 0.4766 0.38818 0.02063 0.0
H1387 H 0.48704 0.39693 0.04918 0.0
H1388 H 0.54477 0.39373 0.04099 0.0
H1389 H 0.53475 0.38509 0.01235 0.0
C1390 C 0.48081 0.30154 0.96731 0.0
C1391 C 0.49156 0.30372 0.95267 0.0
C1392 C 0.48096 0.31906 0.97441 0.0
C1393 C 0.49189 0.339 0.96699 0.0
C1394 C 0.50326 0.34127 0.95266 0.0
C1395 C 0.50289 0.32374 0.94548 0.0
C1396 C 0.4913 0.35745 0.97406 0.0
C1397 C 0.4977 0.3631 0.99017 0.0
C1398 C 0.48532 0.36998 0.96475 0.0
C1399 C 0.47641 0.36375 0.94817 0.0
C1400 C 0.48587 0.37798 0.93534 0.0
C1401 C 0.47751 0.37205 0.91973 0.0
C1402 C 0.45963 0.35196 0.9168 0.0
C1403 C 0.45002 0.33777 0.9295 0.0
C1404 C 0.4583 0.34363 0.94513 0.0
C1405 C 0.52233 0.45022 0.00521 0.0
C1406 C 0.50676 0.45633 0.00255 0.0
C1407 C 0.51838 0.43025 1.0003 0.0
C1408 C 0.49849 0.41571 0.99313 0.0
C1409 C 0.48277 0.4217 0.99072 0.0
C1410 C 0.48693 0.4419 0.99527 0.0
C1411 C 0.49464 0.39477 0.98733 0.0
C1412 C 0.48743 0.38864 0.97142 0.0
C1413 C 0.49911 0.38142 0.99702 0.0
C1414 C 0.50496 0.38608 0.01432 0.0
C1415 C 0.49155 0.38939 0.02491 0.0
C1416 C 0.49739 0.39432 0.04111 0.0
C1417 C 0.51658 0.39592 0.04689 0.0
C1418 C 0.52991 0.39247 0.0365 0.0
C1419 C 0.52412 0.38749 0.02029 0.0
H1420 H 0.52111 0.39984 0.05942 0.0
H1421 H 0.4532 0.34739 0.90471 0.0
H1422 H 0.20483 0.68825 0.09261 0.0
H1423 H 0.17518 0.65556 0.0811 0.0
H1424 H 0.16658 0.69191 0.04382 0.0
H1425 H 0.19701 0.72448 0.05488 0.0
H1426 H 0.13512 0.64075 0.07785 0.0
H1427 H 0.14549 0.66312 0.01006 0.0
H1428 H 0.17468 0.68478 0.99097 0.0
H1429 H 0.2207 0.67918 0.02096 0.0
H1430 H 0.19175 0.65728 0.04012 0.0
H1431 H 0.04088 0.56471 0.03696 0.0
H1432 H 0.0712 0.59832 0.04658 0.0
H1433 H 0.11611 0.5834 0.02341 0.0
H1434 H 0.08592 0.55017 0.01335 0.0
H1435 H 0.12983 0.6231 0.01964 0.0
H1436 H 0.10538 0.57649 0.06456 0.0
H1437 H 0.07866 0.55149 0.08387 0.0
H1438 H 0.06613 0.60016 0.10068 0.0
H1439 H 0.09252 0.62538 0.08128 0.0
C1440 C 0.19673 0.68918 0.08185 0.0
C1441 C 0.20336 0.70882 0.07453 0.0
C1442 C 0.17969 0.67051 0.07532 0.0
C1443 C 0.16867 0.6711 0.06145 0.0
C1444 C 0.17509 0.69086 0.05428 0.0
C1445 C 0.19246 0.70951 0.06063 0.0
C1446 C 0.15036 0.65106 0.05467 0.0
C1447 C 0.13402 0.63695 0.06511 0.0
C1448 C 0.14897 0.64571 0.0381 0.0
C1449 C 0.16648 0.65877 0.02661 0.0
C1450 C 0.16183 0.66647 0.01255 0.0
C1451 C 0.17833 0.67879 0.00172 0.0
C1452 C 0.19954 0.68342 0.00478 0.0
C1453 C 0.20428 0.67566 0.01864 0.0
C1454 C 0.18784 0.66332 0.0295 0.0
C1455 C 0.0572 0.56865 0.03383 0.0
C1456 C 0.06096 0.55471 0.02443 0.0
C1457 C 0.07455 0.58784 0.0394 0.0
C1458 C 0.09601 0.59328 0.03597 0.0
C1459 C 0.09973 0.57961 0.02624 0.0
C1460 C 0.08241 0.56056 0.0205 0.0
C1461 C 0.11462 0.61296 0.04279 0.0
C1462 C 0.13096 0.62698 0.03236 0.0
C1463 C 0.11645 0.6178 0.05947 0.0
C1464 C 0.1008 0.60278 0.07135 0.0
C1465 C 0.09683 0.58183 0.0723 0.0
C1466 C 0.08175 0.56762 0.08327 0.0
C1467 C 0.07066 0.57422 0.09347 0.0
C1468 C 0.0747 0.59507 0.09276 0.0
C1469 C 0.08973 0.60933 0.08178 0.0
H1470 H 0.05899 0.56319 0.10194 0.0
H1471 H 0.2123 0.69297 0.99638 0.0
H1472 H 0.29691 0.48323 0.04618 0.0
H1473 H 0.33003 0.48705 0.0339 0.0
H1474 H 0.35967 0.49783 0.08098 0.0
H1475 H 0.32711 0.49476 0.09308 0.0
H1476 H 0.38832 0.52383 0.06167 0.0
H1477 H 0.33715 0.44862 0.05954 0.0
H1478 H 0.30302 0.41641 0.05195 0.0
H1479 H 0.31711 0.43144 0.0019 0.0
H1480 H 0.35122 0.46389 0.00922 0.0
H1481 H 0.4504 0.46643 0.03511 0.0
H1482 H 0.41617 0.46521 0.04096 0.0
H1483 H 0.44349 0.52984 0.02478 0.0
H1484 H 0.4781 0.53157 0.02038 0.0
H1485 H 0.38618 0.46781 0.02619 0.0
H1486 H 0.42299 0.55532 0.04412 0.0
H1487 H 0.45805 0.58508 0.05347 0.0
H1488 H 0.47298 0.54126 0.0766 0.0
H1489 H 0.43794 0.51128 0.0675 0.0
C1490 C 0.31055 0.48647 0.05385 0.0
C1491 C 0.30942 0.48867 0.07061 0.0
C1492 C 0.32946 0.48857 0.04685 0.0
C1493 C 0.34745 0.49257 0.0565 0.0
C1494 C 0.34621 0.49488 0.0732 0.0
C1495 C 0.32751 0.49302 0.08013 0.0
C1496 C 0.36755 0.49416 0.04949 0.0
C1497 C 0.38776 0.51159 0.05385 0.0
C1498 C 0.3671 0.47823 0.03934 0.0
C1499 C 0.34658 0.4588 0.03493 0.0
C1500 C 0.33288 0.44514 0.04693 0.0
C1501 C 0.31356 0.42683 0.04267 0.0
C1502 C 0.30786 0.42193 0.02645 0.0
C1503 C 0.32151 0.43529 0.01445 0.0
C1504 C 0.34084 0.45364 0.01865 0.0
C1505 C 0.449 0.48032 0.03273 0.0
C1506 C 0.46685 0.49894 0.02692 0.0
C1507 C 0.42938 0.47959 0.03598 0.0
C1508 C 0.42714 0.49751 0.03353 0.0
C1509 C 0.44478 0.5159 0.02715 0.0
C1510 C 0.46457 0.51678 0.02432 0.0
C1511 C 0.40687 0.49722 0.03865 0.0
C1512 C 0.38668 0.48013 0.03388 0.0
C1513 C 0.40732 0.51315 0.04882 0.0
C1514 C 0.42794 0.53109 0.05503 0.0
C1515 C 0.43369 0.55207 0.05131 0.0
C1516 C 0.45357 0.56896 0.05653 0.0
C1517 C 0.46775 0.56506 0.06558 0.0
C1518 C 0.46201 0.54426 0.06955 0.0
C1519 C 0.44214 0.52732 0.06437 0.0
H1520 H 0.48318 0.57815 0.06954 0.0
H1521 H 0.29291 0.40774 0.02318 0.0
H1522 H 0.56793 0.85819 0.08184 0.0
H1523 H 0.55593 0.88253 0.07268 0.0
H1524 H 0.50362 0.83161 0.04595 0.0
H1525 H 0.51567 0.80714 0.05505 0.0
H1526 H 0.52471 0.8681 0.02839 0.0
H1527 H 0.49233 0.848 0.08005 0.0
H1528 H 0.49048 0.84135 0.10924 0.0
H1529 H 0.53615 0.90716 0.11806 0.0
H1530 H 0.53855 0.91416 0.08888 0.0
H1531 H 0.48058 0.93497 0.01218 0.0
H1532 H 0.484 0.90504 0.02147 0.0
H1533 H 0.53742 0.94709 0.05227 0.0
H1534 H 0.53381 0.9771 0.04331 0.0
H1535 H 0.51015 0.91112 0.06755 0.0
H1536 H 0.54553 0.92971 0.01539 0.0
H1537 H 0.54658 0.93624 0.98619 0.0
H1538 H 0.49399 0.87276 0.97854 0.0
H1539 H 0.49251 0.86593 0.00773 0.0
C1540 C 0.55389 0.85221 0.074 0.0
C1541 C 0.54271 0.83085 0.06918 0.0
C1542 C 0.54697 0.86607 0.06885 0.0
C1543 C 0.5287 0.85877 0.05883 0.0
C1544 C 0.51769 0.83748 0.05376 0.0
C1545 C 0.52458 0.82356 0.05897 0.0
C1546 C 0.52153 0.87366 0.05349 0.0
C1547 C 0.52113 0.87724 0.03694 0.0
C1548 C 0.51708 0.8857 0.06467 0.0
C1549 C 0.51575 0.88156 0.08224 0.0
C1550 C 0.50213 0.86102 0.08819 0.0
C1551 C 0.50096 0.8572 0.10475 0.0
C1552 C 0.51323 0.87381 0.1155 0.0
C1553 C 0.52667 0.8943 0.10971 0.0
C1554 C 0.52793 0.89821 0.09317 0.0
C1555 C 0.49318 0.93791 0.02084 0.0
C1556 C 0.50715 0.95847 0.02685 0.0
C1557 C 0.49506 0.92076 0.02616 0.0
C1558 C 0.51116 0.9239 0.03738 0.0
C1559 C 0.5249 0.94434 0.04358 0.0
C1560 C 0.52289 0.96148 0.03839 0.0
C1561 C 0.51405 0.90603 0.04251 0.0
C1562 C 0.51353 0.90183 0.05902 0.0
C1563 C 0.51762 0.8934 0.0313 0.0
C1564 C 0.5188 0.89737 0.01374 0.0
C1565 C 0.53415 0.91718 0.00748 0.0
C1566 C 0.53483 0.92092 0.99093 0.0
C1567 C 0.52034 0.90493 0.98052 0.0
C1568 C 0.50519 0.88513 0.98662 0.0
C1569 C 0.50445 0.8813 0.00316 0.0
H1570 H 0.52086 0.90787 0.96772 0.0
H1571 H 0.51228 0.87082 0.12831 0.0
H1572 H 0.98226 0.16025 0.42871 0.0
H1573 H 0.01261 0.19095 0.41609 0.0
H1574 H 0.9758 0.17749 0.37197 0.0
H1575 H 0.94538 0.14659 0.38453 0.0
H1576 H 0.01625 0.1886 0.36539 0.0
H1577 H 0.98177 0.21714 0.39842 0.0
H1578 H 0.96691 0.22273 0.42356 0.0
H1579 H 0.02961 0.24993 0.446 0.0
H1580 H 0.04478 0.24422 0.42105 0.0
H1581 H 0.08657 0.31438 0.3603 0.0
H1582 H 0.05366 0.28107 0.36655 0.0
H1583 H 0.08848 0.24724 0.36013 0.0
H1584 H 0.121 0.28037 0.35323 0.0
H1585 H 0.04778 0.25947 0.39132 0.0
H1586 H 0.06294 0.2017 0.3569 0.0
H1587 H 0.06983 0.1917 0.33001 0.0
H1588 H 0.03746 0.22152 0.30784 0.0
H1589 H 0.03132 0.2325 0.33456 0.0
C1590 C 0.9806 0.16385 0.41632 0.0
C1591 C 0.96131 0.15105 0.40767 0.0
C1592 C 0.99798 0.18144 0.40912 0.0
C1593 C 0.99641 0.18682 0.39315 0.0
C1594 C 0.97741 0.17372 0.38432 0.0
C1595 C 0.96004 0.15602 0.3915 0.0
C1596 C 0.01451 0.20616 0.38569 0.0
C1597 C 0.02313 0.20411 0.37108 0.0
C1598 C 0.0234 0.2265 0.39293 0.0
C1599 C 0.01436 0.23007 0.40791 0.0
C1600 C 0.99235 0.22418 0.40875 0.0
C1601 C 0.98388 0.22739 0.42296 0.0
C1602 C 0.99729 0.23663 0.43638 0.0
C1603 C 0.01923 0.24274 0.4356 0.0
C1604 C 0.02778 0.23954 0.42143 0.0
C1605 C 0.08694 0.29969 0.35971 0.0
C1606 C 0.10629 0.29999 0.35606 0.0
C1607 C 0.06815 0.28064 0.36337 0.0
C1608 C 0.06835 0.26141 0.36383 0.0
C1609 C 0.08751 0.26158 0.35949 0.0
C1610 C 0.10626 0.28066 0.35556 0.0
C1611 C 0.04953 0.24204 0.37083 0.0
C1612 C 0.0409 0.24403 0.38554 0.0
C1613 C 0.04033 0.22171 0.36356 0.0
C1614 C 0.047 0.21817 0.34761 0.0
C1615 C 0.05776 0.20651 0.34623 0.0
C1616 C 0.06152 0.20067 0.33104 0.0
C1617 C 0.05407 0.20596 0.31723 0.0
C1618 C 0.04332 0.21753 0.31855 0.0
C1619 C 0.04001 0.22387 0.33368 0.0
H1620 H 0.05667 0.20112 0.30549 0.0
H1621 H 0.9907 0.2391 0.44737 0.0
H1622 H 0.87152 0.80336 0.3824 0.0
H1623 H 0.84177 0.80579 0.36975 0.0
H1624 H 0.82908 0.82706 0.41486 0.0
H1625 H 0.85939 0.82579 0.42726 0.0
H1626 H 0.80098 0.78458 0.37477 0.0
H1627 H 0.8041 0.85574 0.40962 0.0
H1628 H 0.83117 0.89044 0.42094 0.0
H1629 H 0.87907 0.89297 0.38837 0.0
H1630 H 0.85222 0.85842 0.37669 0.0
H1631 H 0.69874 0.77774 0.36894 0.0
H1632 H 0.73276 0.77973 0.37645 0.0
H1633 H 0.76813 0.84269 0.35645 0.0
H1634 H 0.73398 0.8415 0.35067 0.0
H1635 H 0.78727 0.84459 0.38103 0.0
H1636 H 0.76722 0.7926 0.3384 0.0
H1637 H 0.74303 0.75981 0.32308 0.0
H1638 H 0.73396 0.72268 0.36542 0.0
H1639 H 0.75812 0.75524 0.38086 0.0
C1640 C 0.86274 0.80904 0.38953 0.0
C1641 C 0.86787 0.81422 0.40592 0.0
C1642 C 0.84554 0.81023 0.38231 0.0
C1643 C 0.83308 0.81671 0.39127 0.0
C1644 C 0.83852 0.82234 0.40753 0.0
C1645 C 0.85576 0.82131 0.4147 0.0
C1646 C 0.81367 0.81636 0.38395 0.0
C1647 C 0.79811 0.7978 0.37607 0.0
C1648 C 0.80983 0.83363 0.38535 0.0
C1649 C 0.82617 0.85436 0.39239 0.0
C1650 C 0.8204 0.86371 0.40484 0.0
C1651 C 0.83571 0.88337 0.41132 0.0
C1652 C 0.85685 0.89388 0.40541 0.0
C1653 C 0.86271 0.88477 0.39298 0.0
C1654 C 0.84746 0.86513 0.38645 0.0
C1655 C 0.7138 0.79193 0.36599 0.0
C1656 C 0.71356 0.80921 0.35873 0.0
C1657 C 0.73339 0.79297 0.37011 0.0
C1658 C 0.7534 0.81113 0.36666 0.0
C1659 C 0.75312 0.82837 0.35924 0.0
C1660 C 0.73348 0.82758 0.35564 0.0
C1661 C 0.77443 0.81275 0.37184 0.0
C1662 C 0.79023 0.83146 0.37951 0.0
C1663 C 0.77881 0.79587 0.36985 0.0
C1664 C 0.76411 0.77631 0.36076 0.0
C1665 C 0.7598 0.77742 0.3444 0.0
C1666 C 0.74621 0.75891 0.33572 0.0
C1667 C 0.73682 0.73921 0.34331 0.0
C1668 C 0.74117 0.73796 0.35957 0.0
C1669 C 0.75488 0.75642 0.36827 0.0
H1670 H 0.72627 0.7249 0.33658 0.0
H1671 H 0.86867 0.9091 0.41043 0.0
H1672 H 0.1823 0.03614 0.43169 0.0
H1673 H 0.17959 0.00381 0.42037 0.0
H1674 H 0.20624 0.03612 0.37562 0.0
H1675 H 0.20935 0.06863 0.38691 0.0
H1676 H 0.17215 0.99348 0.37164 0.0
H1677 H 0.23909 0.03385 0.40213 0.0
H1678 H 0.25998 0.05204 0.42661 0.0
H1679 H 0.2265 0.99383 0.45298 0.0
H1680 H 0.20517 0.97537 0.42871 0.0
H1681 H 0.20783 0.92773 0.33782 0.0
H1682 H 0.20761 0.95882 0.34878 0.0
H1683 H 0.19039 0.92907 0.39542 0.0
H1684 H 0.19093 0.89812 0.38445 0.0
H1685 H 0.21829 0.96967 0.39891 0.0
H1686 H 0.15287 0.92815 0.36963 0.0
H1687 H 0.13121 0.90832 0.34595 0.0
H1688 H 0.15829 0.96595 0.31875 0.0
H1689 H 0.18086 0.98606 0.3421 0.0
C1690 C 0.18743 0.03632 0.41939 0.0
C1691 C 0.19627 0.05502 0.41026 0.0
C1692 C 0.18578 0.01783 0.41294 0.0
C1693 C 0.19298 0.01771 0.39725 0.0
C1694 C 0.20058 0.03593 0.38775 0.0
C1695 C 0.20229 0.05446 0.39422 0.0
C1696 C 0.19431 0.99923 0.39123 0.0
C1697 C 0.18237 0.98836 0.37747 0.0
C1698 C 0.20722 0.99227 0.39916 0.0
C1699 C 0.22038 0.00329 0.41365 0.0
C1700 C 0.23609 0.02497 0.41318 0.0
C1701 C 0.24801 0.03532 0.42701 0.0
C1702 C 0.24453 0.02411 0.44135 0.0
C1703 C 0.22916 0.0025 0.44187 0.0
C1704 C 0.21716 0.99208 0.42808 0.0
C1705 C 0.20396 0.92783 0.35034 0.0
C1706 C 0.19914 0.91047 0.36021 0.0
C1707 C 0.20391 0.94562 0.35664 0.0
C1708 C 0.19854 0.94608 0.37285 0.0
C1709 C 0.19455 0.92905 0.38288 0.0
C1710 C 0.1949 0.91141 0.37661 0.0
C1711 C 0.19627 0.96393 0.37919 0.0
C1712 C 0.208 0.97469 0.39305 0.0
C1713 C 0.18285 0.97051 0.37151 0.0
C1714 C 0.1687 0.95862 0.3576 0.0
C1715 C 0.15432 0.93661 0.35857 0.0
C1716 C 0.1419 0.9253 0.3452 0.0
C1717 C 0.14329 0.93588 0.33087 0.0
C1718 C 0.15721 0.95778 0.32987 0.0
C1719 C 0.16988 0.96915 0.34316 0.0
H1720 H 0.13353 0.92713 0.32057 0.0
H1721 H 0.25377 0.03217 0.45204 0.0
H1722 H 0.4651 0.61443 0.29987 0.0
H1723 H 0.49382 0.64793 0.31131 0.0
H1724 H 0.54213 0.63512 0.29172 0.0
H1725 H 0.51362 0.60142 0.28083 0.0
H1726 H 0.55418 0.65189 0.32078 0.0
H1727 H 0.52774 0.66867 0.27287 0.0
H1728 H 0.50018 0.66898 0.25504 0.0
H1729 H 0.4853 0.70179 0.29142 0.0
H1730 H 0.51258 0.70141 0.30956 0.0
H1731 H 0.64559 0.75678 0.31922 0.0
H1732 H 0.61536 0.72199 0.31121 0.0
H1733 H 0.57075 0.73581 0.33603 0.0
H1734 H 0.60071 0.77049 0.34402 0.0
H1735 H 0.55613 0.71867 0.30559 0.0
H1736 H 0.58447 0.70356 0.35289 0.0
H1737 H 0.61306 0.70415 0.37001 0.0
H1738 H 0.6252 0.66875 0.33412 0.0
H1739 H 0.5969 0.66826 0.31664 0.0
C1740 C 0.48183 0.61861 0.29822 0.0
C1741 C 0.48704 0.60535 0.28924 0.0
C1742 C 0.49826 0.63787 0.30464 0.0
C1743 C 0.5202 0.64429 0.30214 0.0
C1744 C 0.52537 0.63064 0.29375 0.0
C1745 C 0.50902 0.61143 0.28739 0.0
C1746 C 0.53786 0.66544 0.30775 0.0
C1747 C 0.55467 0.66648 0.31732 0.0
C1748 C 0.53842 0.68455 0.30352 0.0
C1749 C 0.52202 0.68479 0.29264 0.0
C1750 C 0.51846 0.67579 0.27712 0.0
C1751 C 0.50292 0.67601 0.26694 0.0
C1752 C 0.49095 0.68534 0.27211 0.0
C1753 C 0.49455 0.69452 0.28744 0.0
C1754 C 0.51005 0.69432 0.29767 0.0
C1755 C 0.62935 0.75241 0.32296 0.0
C1756 C 0.62561 0.76636 0.33238 0.0
C1757 C 0.6121 0.7325 0.31842 0.0
C1758 C 0.59081 0.72624 0.32312 0.0
C1759 C 0.58702 0.74028 0.33229 0.0
C1760 C 0.60423 0.76006 0.33693 0.0
C1761 C 0.57244 0.70506 0.31848 0.0
C1762 C 0.55553 0.70404 0.3091 0.0
C1763 C 0.57186 0.68601 0.32282 0.0
C1764 C 0.5887 0.68604 0.33339 0.0
C1765 C 0.59334 0.69604 0.34859 0.0
C1766 C 0.60949 0.69634 0.35837 0.0
C1767 C 0.62097 0.68654 0.35314 0.0
C1768 C 0.6163 0.67636 0.33814 0.0
C1769 C 0.6002 0.67605 0.3283 0.0
H1770 H 0.63347 0.68679 0.36073 0.0
H1771 H 0.47893 0.6855 0.26421 0.0
H1772 H 0.4108 0.88578 0.31125 0.0
H1773 H 0.37742 0.88222 0.3226 0.0
H1774 H 0.34174 0.84607 0.28076 0.0
H1775 H 0.37515 0.85027 0.26923 0.0
H1776 H 0.33022 0.87297 0.28616 0.0
H1777 H 0.33727 0.82405 0.32005 0.0
H1778 H 0.35511 0.81145 0.33892 0.0
H1779 H 0.36167 0.85804 0.37383 0.0
H1780 H 0.34413 0.87112 0.35508 0.0
H1781 H 0.22824 0.83347 0.3383 0.0
H1782 H 0.26076 0.83153 0.33177 0.0
H1783 H 0.295 0.89841 0.32123 0.0
H1784 H 0.2627 0.90046 0.32801 0.0
H1785 H 0.30486 0.85259 0.3423 0.0
H1786 H 0.32056 0.90405 0.28531 0.0
H1787 H 0.29959 0.91219 0.2658 0.0
H1788 H 0.24276 0.85236 0.27556 0.0
H1789 H 0.26346 0.84371 0.29489 0.0
C1790 C 0.39574 0.87678 0.30462 0.0
C1791 C 0.39562 0.86834 0.28933 0.0
C1792 C 0.37661 0.87471 0.31113 0.0
C1793 C 0.35684 0.86375 0.30263 0.0
C1794 C 0.35668 0.85473 0.28758 0.0
C1795 C 0.37581 0.85707 0.28099 0.0
C1796 C 0.33659 0.86272 0.30884 0.0
C1797 C 0.32478 0.86846 0.29844 0.0
C1798 C 0.329 0.85649 0.32479 0.0
C1799 C 0.33959 0.8487 0.33609 0.0
C1800 C 0.34268 0.83172 0.3317 0.0
C1801 C 0.35271 0.82448 0.34238 0.0
C1802 C 0.35957 0.83398 0.35754 0.0
C1803 C 0.35637 0.85072 0.36207 0.0
C1804 C 0.34637 0.85804 0.35142 0.0
C1805 C 0.24287 0.84785 0.33504 0.0
C1806 C 0.24304 0.86722 0.33393 0.0
C1807 C 0.26145 0.84671 0.33126 0.0
C1808 C 0.28031 0.8648 0.32592 0.0
C1809 C 0.28063 0.88423 0.32525 0.0
C1810 C 0.26218 0.88539 0.32913 0.0
C1811 C 0.29905 0.86322 0.31969 0.0
C1812 C 0.31048 0.85705 0.33004 0.0
C1813 C 0.30599 0.86843 0.30356 0.0
C1814 C 0.29354 0.87335 0.29168 0.0
C1815 C 0.30362 0.8926 0.28323 0.0
C1816 C 0.29177 0.8973 0.27221 0.0
C1817 C 0.26984 0.88283 0.26948 0.0
C1818 C 0.25973 0.86358 0.27772 0.0
C1819 C 0.27151 0.85879 0.28872 0.0
H1820 H 0.26069 0.88651 0.26096 0.0
H1821 H 0.36733 0.82834 0.3658 0.0
H1822 H 0.16455 0.54472 0.29993 0.0
H1823 H 0.16715 0.51588 0.31258 0.0
H1824 H 0.10412 0.47066 0.29364 0.0
H1825 H 0.10082 0.49953 0.28177 0.0
H1826 H 0.10853 0.45918 0.32268 0.0
H1827 H 0.15162 0.48051 0.27474 0.0
H1828 H 0.17986 0.50543 0.25627 0.0
H1829 H 0.22847 0.52007 0.29256 0.0
H1830 H 0.20046 0.49544 0.31132 0.0
H1831 H 0.12147 0.36751 0.32141 0.0
H1832 H 0.11677 0.39744 0.31369 0.0
H1833 H 0.17404 0.44012 0.34084 0.0
H1834 H 0.17881 0.41043 0.34868 0.0
H1835 H 0.17285 0.45309 0.30872 0.0
H1836 H 0.12856 0.42906 0.35602 0.0
H1837 H 0.0997 0.40241 0.37317 0.0
H1838 H 0.05243 0.39102 0.33649 0.0
H1839 H 0.08109 0.41737 0.31898 0.0
C1840 C 0.15101 0.52871 0.29875 0.0
C1841 C 0.13258 0.52446 0.28965 0.0
C1842 C 0.15264 0.51219 0.30584 0.0
C1843 C 0.13605 0.49104 0.30375 0.0
C1844 C 0.11722 0.48682 0.29531 0.0
C1845 C 0.11547 0.50335 0.28837 0.0
C1846 C 0.13868 0.47325 0.30972 0.0
C1847 C 0.1225 0.45776 0.3195 0.0
C1848 C 0.15704 0.47149 0.30575 0.0
C1849 C 0.17391 0.48631 0.29449 0.0
C1850 C 0.16831 0.48917 0.27882 0.0
C1851 C 0.18427 0.50322 0.2683 0.0
C1852 C 0.20593 0.51437 0.27326 0.0
C1853 C 0.21168 0.51145 0.28874 0.0
C1854 C 0.19577 0.49745 0.29932 0.0
C1855 C 0.133 0.38326 0.32579 0.0
C1856 C 0.15047 0.3866 0.33568 0.0
C1857 C 0.13025 0.40029 0.32142 0.0
C1858 C 0.14503 0.42092 0.32676 0.0
C1859 C 0.16246 0.4243 0.33663 0.0
C1860 C 0.16508 0.40728 0.34115 0.0
C1861 C 0.14273 0.43913 0.32163 0.0
C1862 C 0.15896 0.45464 0.31197 0.0
C1863 C 0.12432 0.44073 0.32554 0.0
C1864 C 0.10701 0.42505 0.33612 0.0
C1865 C 0.11204 0.42075 0.35154 0.0
C1866 C 0.09571 0.40571 0.36134 0.0
C1867 C 0.07425 0.39499 0.35591 0.0
C1868 C 0.06907 0.39932 0.34068 0.0
C1869 C 0.08535 0.41432 0.33081 0.0
H1870 H 0.06162 0.38335 0.36351 0.0
H1871 H 0.21827 0.52524 0.26509 0.0
H1872 H 0.37366 0.47617 0.27782 0.0
H1873 H 0.33832 0.45249 0.28962 0.0
H1874 H 0.3467 0.50216 0.32245 0.0
H1875 H 0.38234 0.5261 0.31058 0.0
H1876 H 0.33178 0.46307 0.33756 0.0
H1877 H 0.3103 0.48927 0.29223 0.0
H1878 H 0.31035 0.49865 0.2637 0.0
H1879 H 0.28807 0.43411 0.24961 0.0
H1880 H 0.28773 0.42432 0.27805 0.0
H1881 H 0.20686 0.39549 0.34171 0.0
H1882 H 0.2428 0.42702 0.33825 0.0
H1883 H 0.26932 0.38679 0.32694 0.0
H1884 H 0.23378 0.35537 0.33101 0.0
H1885 H 0.2656 0.42589 0.30362 0.0
H1886 H 0.2959 0.40262 0.34827 0.0
H1887 H 0.30067 0.39492 0.37637 0.0
H1888 H 0.30894 0.45505 0.39149 0.0
H1889 H 0.30365 0.46282 0.36346 0.0
C1890 C 0.36795 0.4821 0.28751 0.0
C1891 C 0.38073 0.50298 0.29324 0.0
C1892 C 0.3477 0.46858 0.2942 0.0
C1893 C 0.3397 0.4756 0.30679 0.0
C1894 C 0.3525 0.49644 0.31268 0.0
C1895 C 0.37282 0.5101 0.30588 0.0
C1896 C 0.31822 0.46076 0.31393 0.0
C1897 C 0.3172 0.45524 0.33021 0.0
C1898 C 0.29923 0.45034 0.30435 0.0
C1899 C 0.29906 0.45609 0.28725 0.0
C1900 C 0.30544 0.47709 0.28304 0.0
C1901 C 0.30545 0.48247 0.26689 0.0
C1902 C 0.29918 0.46698 0.25485 0.0
C1903 C 0.29283 0.44607 0.25894 0.0
C1904 C 0.29261 0.44058 0.27508 0.0
C1905 C 0.22055 0.39339 0.33924 0.0
C1906 C 0.21765 0.37295 0.33708 0.0
C1907 C 0.24108 0.41141 0.3372 0.0
C1908 C 0.25891 0.40926 0.33281 0.0
C1909 C 0.25604 0.38886 0.33094 0.0
C1910 C 0.23567 0.37091 0.33312 0.0
C1911 C 0.27929 0.42784 0.32714 0.0
C1912 C 0.28005 0.43406 0.31106 0.0
C1913 C 0.29806 0.43875 0.33689 0.0
C1914 C 0.29874 0.43302 0.35386 0.0
C1915 C 0.29807 0.41391 0.35764 0.0
C1916 C 0.30113 0.40964 0.37353 0.0
C1917 C 0.30511 0.42448 0.38572 0.0
C1918 C 0.30585 0.44356 0.38205 0.0
C1919 C 0.30269 0.44784 0.36618 0.0
H1920 H 0.30757 0.42119 0.398 0.0
H1921 H 0.29922 0.47117 0.24235 0.0
H1922 H 0.52918 0.89212 0.27535 0.0
H1923 H 0.5552 0.8825 0.28568 0.0
H1924 H 0.509 0.84258 0.3213 0.0
H1925 H 0.48264 0.85211 0.31082 0.0
H1926 H 0.55012 0.86928 0.33411 0.0
H1927 H 0.5199 0.81943 0.2905 0.0
H1928 H 0.50798 0.80788 0.26252 0.0
H1929 H 0.57276 0.84875 0.24581 0.0
H1930 H 0.58507 0.8606 0.27369 0.0
H1931 H 0.61783 0.81351 0.33803 0.0
H1932 H 0.58611 0.81778 0.33391 0.0
H1933 H 0.62821 0.8836 0.32239 0.0
H1934 H 0.65989 0.87974 0.32751 0.0
H1935 H 0.58581 0.83998 0.29972 0.0
H1936 H 0.61352 0.89514 0.3428 0.0
H1937 H 0.62333 0.90997 0.37024 0.0
H1938 H 0.5617 0.86128 0.38757 0.0
H1939 H 0.55192 0.84564 0.36028 0.0
C1940 C 0.52448 0.88117 0.28532 0.0
C1941 C 0.50386 0.87286 0.29225 0.0
C1942 C 0.53935 0.87559 0.29117 0.0
C1943 C 0.53404 0.86162 0.30416 0.0
C1944 C 0.51343 0.8533 0.3112 0.0
C1945 C 0.49838 0.85872 0.3052 0.0
C1946 C 0.55051 0.85667 0.31073 0.0
C1947 C 0.55767 0.86252 0.32667 0.0
C1948 C 0.56067 0.84821 0.30096 0.0
C1949 C 0.55337 0.84101 0.28418 0.0
C1950 C 0.53158 0.82604 0.28085 0.0
C1951 C 0.52477 0.8194 0.26501 0.0
C1952 C 0.5396 0.82759 0.25239 0.0
C1953 C 0.5613 0.8424 0.2556 0.0
C1954 C 0.56822 0.84903 0.27142 0.0
C1955 C 0.62035 0.82911 0.33538 0.0
C1956 C 0.64144 0.8465 0.33373 0.0
C1957 C 0.60218 0.83152 0.33294 0.0
C1958 C 0.60472 0.85125 0.32847 0.0
C1959 C 0.62576 0.86851 0.32661 0.0
C1960 C 0.64388 0.86621 0.32935 0.0
C1961 C 0.58572 0.85298 0.32304 0.0
C1962 C 0.57805 0.84644 0.30725 0.0
C1963 C 0.57526 0.86104 0.33291 0.0
C1964 C 0.58235 0.86873 0.34959 0.0
C1965 C 0.60242 0.88708 0.35254 0.0
C1966 C 0.60786 0.89581 0.36805 0.0
C1967 C 0.5932 0.88653 0.38067 0.0
C1968 C 0.57309 0.86842 0.37781 0.0
C1969 C 0.56768 0.85951 0.36236 0.0
H1970 H 0.5974 0.89338 0.39264 0.0
H1971 H 0.53431 0.82243 0.24014 0.0
H1972 H 0.16874 0.65481 0.26168 0.0
H1973 H 0.17215 0.68744 0.2729 0.0
H1974 H 0.1553 0.65866 0.31988 0.0
H1975 H 0.15139 0.62574 0.30858 0.0
H1976 H 0.13403 0.67916 0.31377 0.0
H1977 H 0.20772 0.69596 0.31079 0.0
H1978 H 0.24058 0.69934 0.29823 0.0
H1979 H 0.24057 0.74316 0.2638 0.0
H1980 H 0.2075 0.73982 0.27601 0.0
H1981 H 0.16906 0.77716 0.35568 0.0
H1982 H 0.16516 0.74374 0.34585 0.0
H1983 H 0.17399 0.76687 0.29714 0.0
H1984 H 0.17825 0.8005 0.30702 0.0
H1985 H 0.19984 0.7492 0.30523 0.0
H1986 H 0.12524 0.73144 0.30868 0.0
H1987 H 0.09315 0.72844 0.3223 0.0
H1988 H 0.09603 0.68664 0.35728 0.0
H1989 H 0.12836 0.68965 0.344 0.0
C1990 C 0.16589 0.65551 0.27442 0.0
C1991 C 0.15991 0.63784 0.28427 0.0
C1992 C 0.16791 0.67417 0.28083 0.0
C1993 C 0.16426 0.6756 0.29728 0.0
C1994 C 0.15824 0.65791 0.30716 0.0
C1995 C 0.15609 0.63916 0.30071 0.0
C1996 C 0.16631 0.69545 0.30401 0.0
C1997 C 0.14856 0.69443 0.31212 0.0
C1998 C 0.18512 0.71544 0.30162 0.0
C1999 C 0.205 0.71748 0.29423 0.0
C2000 C 0.21461 0.70619 0.30045 0.0
C2001 C 0.2333 0.70812 0.29341 0.0
C2002 C 0.24263 0.72141 0.2802 0.0
C2003 C 0.23331 0.73285 0.27402 0.0
C2004 C 0.21461 0.73096 0.28101 0.0
C2005 C 0.17032 0.7752 0.34294 0.0
C2006 C 0.17415 0.7915 0.33218 0.0
C2007 C 0.16787 0.75601 0.3373 0.0
C2008 C 0.16926 0.75285 0.32077 0.0
C2009 C 0.17286 0.76903 0.30995 0.0
C2010 C 0.17511 0.78814 0.31559 0.0
C2011 C 0.16752 0.73286 0.31481 0.0
C2012 C 0.18536 0.73389 0.30688 0.0
C2013 C 0.14889 0.7129 0.3175 0.0
C2014 C 0.12935 0.71094 0.32543 0.0
C2015 C 0.11914 0.72175 0.31935 0.0
C2016 C 0.10089 0.72002 0.327 0.0
C2017 C 0.09259 0.7074 0.34068 0.0
C2018 C 0.1025 0.69643 0.3467 0.0
C2019 C 0.12077 0.69813 0.33911 0.0
H2020 H 0.07846 0.70609 0.34658 0.0
H2021 H 0.2571 0.72289 0.27477 0.0
H2022 H 0.86119 0.01958 0.4301 0.0
H2023 H 0.83151 0.9875 0.41804 0.0
H2024 H 0.84487 0.01843 0.37187 0.0
H2025 H 0.8744 0.0509 0.38409 0.0
H2026 H 0.80295 0.99758 0.37657 0.0
H2027 H 0.85816 0.97949 0.3805 0.0
H2028 H 0.88687 0.97467 0.39285 0.0
H2029 H 0.84105 0.9301 0.42628 0.0
H2030 H 0.81209 0.93486 0.41428 0.0
H2031 H 0.73717 0.89856 0.33459 0.0
H2032 H 0.76799 0.93167 0.34438 0.0
H2033 H 0.74973 0.91116 0.39333 0.0
H2034 H 0.71872 0.878 0.38354 0.0
H2035 H 0.79502 0.92667 0.38543 0.0
H2036 H 0.7401 0.94672 0.38087 0.0
H2037 H 0.71199 0.95059 0.36648 0.0
H2038 H 0.75894 0.99096 0.33176 0.0
H2039 H 0.78728 0.98706 0.34582 0.0
C2040 C 0.85788 0.0195 0.41735 0.0
C2041 C 0.87016 0.0377 0.40804 0.0
C2042 C 0.84097 0.0011 0.41043 0.0
C2043 C 0.83609 1.00033 0.39395 0.0
C2044 C 0.84834 0.01856 0.38459 0.0
C2045 C 0.86526 0.0371 0.39156 0.0
C2046 C 0.81778 0.98068 0.38675 0.0
C2047 C 0.80146 0.98214 0.3783 0.0
C2048 C 0.81554 0.96039 0.38913 0.0
C2049 C 0.83299 0.95772 0.39658 0.0
C2050 C 0.85424 0.96883 0.39059 0.0
C2051 C 0.87055 0.96606 0.3975 0.0
C2052 C 0.86579 0.95212 0.41036 0.0
C2053 C 0.84471 0.9409 0.41633 0.0
C2054 C 0.82833 0.94362 0.40946 0.0
C2055 C 0.73968 0.90105 0.34739 0.0
C2056 C 0.7255 0.8856 0.35823 0.0
C2057 C 0.75725 0.92006 0.35299 0.0
C2058 C 0.76115 0.92387 0.36958 0.0
C2059 C 0.747 0.90852 0.38047 0.0
C2060 C 0.7292 0.88966 0.37486 0.0
C2061 C 0.78025 0.94368 0.37556 0.0
C2062 C 0.79667 0.94219 0.38371 0.0
C2063 C 0.78274 0.96391 0.37269 0.0
C2064 C 0.76576 0.96641 0.3643 0.0
C2065 C 0.74439 0.95626 0.37009 0.0
C2066 C 0.72843 0.9585 0.36201 0.0
C2067 C 0.73367 0.97097 0.34819 0.0
C2068 C 0.7549 0.98128 0.34245 0.0
C2069 C 0.77093 0.97908 0.35048 0.0
H2070 H 0.72128 0.97268 0.34195 0.0
H2071 H 0.87844 0.94998 0.41569 0.0
H2072 H 0.96489 0.81621 0.38309 0.0
H2073 H 0.99727 0.81846 0.37077 0.0
H2074 H 0.03043 0.83721 0.4166 0.0
H2075 H 0.99813 0.83465 0.42894 0.0
H2076 H 0.0379 0.85005 0.36684 0.0
H2077 H 0.06494 0.81812 0.42038 0.0
H2078 H 0.04878 0.79364 0.44322 0.0
H2079 H 0.98874 0.75924 0.41718 0.0
H2080 H 1.00463 0.78333 0.39411 0.0
H2081 H 0.14675 0.86854 0.35527 0.0
H2082 H 0.11289 0.8675 0.36239 0.0
H2083 H 0.08058 0.79914 0.36466 0.0
H2084 H 0.11462 0.80039 0.35844 0.0
H2085 H 0.07184 0.81098 0.38998 0.0
H2086 H 0.05775 0.82841 0.33404 0.0
H2087 H 0.06444 0.84927 0.30921 0.0
H2088 H 0.09265 0.90689 0.3371 0.0
H2089 H 0.08533 0.88621 0.36213 0.0
C2090 C 0.97909 0.82082 0.39051 0.0
C2091 C 0.97894 0.82519 0.40701 0.0
C2092 C 0.99763 0.82215 0.38346 0.0
C2093 C 0.01629 0.82774 0.39277 0.0
C2094 C 0.0162 0.83248 0.40918 0.0
C2095 C 0.99773 0.83112 0.41621 0.0
C2096 C 0.03586 0.82864 0.38541 0.0
C2097 C 0.0453 0.84145 0.3719 0.0
C2098 C 0.04557 0.81739 0.39185 0.0
C2099 C 0.03592 0.80267 0.4056 0.0
C2100 C 0.04831 0.80529 0.41951 0.0
C2101 C 0.0392 0.79148 0.4325 0.0
C2102 C 0.01772 0.77494 0.43167 0.0
C2103 C 0.00535 0.77211 0.41783 0.0
C2104 C 0.01439 0.78585 0.40481 0.0
C2105 C 0.13226 0.8533 0.35687 0.0
C2106 C 0.1333 0.8345 0.3562 0.0
C2107 C 0.11276 0.85267 0.36089 0.0
C2108 C 0.09385 0.8332 0.36411 0.0
C2109 C 0.0948 0.81443 0.36245 0.0
C2110 C 0.11427 0.8151 0.35879 0.0
C2111 C 0.07392 0.83221 0.3711 0.0
C2112 C 0.0645 0.81954 0.38479 0.0
C2113 C 0.06402 0.84331 0.36468 0.0
C2114 C 0.0715 0.85587 0.34982 0.0
C2115 C 0.06576 0.84556 0.33481 0.0
C2116 C 0.06935 0.85732 0.32075 0.0
C2117 C 0.07915 0.87942 0.32157 0.0
C2118 C 0.08522 0.88979 0.33647 0.0
C2119 C 0.08123 0.87807 0.35059 0.0
H2120 H 0.08201 0.8885 0.31065 0.0
H2121 H 0.01069 0.76428 0.44175 0.0
H2122 H 0.18107 0.13933 0.38875 0.0
H2123 H 0.17153 0.16497 0.37805 0.0
H2124 H 0.22538 0.21541 0.40393 0.0
H2125 H 0.23497 0.18991 0.41463 0.0
H2126 H 0.18751 0.21661 0.40752 0.0
H2127 H 0.22935 0.20973 0.36457 0.0
H2128 H 0.23796 0.19009 0.34441 0.0
H2129 H 0.17592 0.16764 0.32185 0.0
H2130 H 0.16683 0.18693 0.34202 0.0
H2131 H 0.20073 0.30935 0.37226 0.0
H2132 H 0.20634 0.28056 0.38103 0.0
H2133 H 0.15402 0.23679 0.35015 0.0
H2134 H 0.14852 0.26565 0.34103 0.0
H2135 H 0.18734 0.22966 0.34892 0.0
H2136 H 0.14634 0.23868 0.3903 0.0
H2137 H 0.13755 0.2585 0.41015 0.0
H2138 H 0.19666 0.2763 0.43578 0.0
H2139 H 0.20603 0.25691 0.41591 0.0
C2140 C 0.19087 0.15589 0.39212 0.0
C2141 C 0.20879 0.16272 0.40249 0.0
C2142 C 0.18543 0.1705 0.38599 0.0
C2143 C 0.1978 0.19207 0.39018 0.0
C2144 C 0.21561 0.19883 0.40059 0.0
C2145 C 0.22111 0.18429 0.40663 0.0
C2146 C 0.19233 0.20775 0.38376 0.0
C2147 C 0.18763 0.21961 0.39472 0.0
C2148 C 0.19185 0.21114 0.36704 0.0
C2149 C 0.19731 0.19956 0.35492 0.0
C2150 C 0.21747 0.20044 0.3554 0.0
C2151 C 0.22245 0.18941 0.34395 0.0
C2152 C 0.20747 0.17757 0.33189 0.0
C2153 C 0.18749 0.17679 0.33122 0.0
C2154 C 0.18242 0.18777 0.34265 0.0
C2155 C 0.19045 0.29364 0.36726 0.0
C2156 C 0.17409 0.28977 0.35602 0.0
C2157 C 0.19363 0.27717 0.37234 0.0
C2158 C 0.1803 0.25646 0.36649 0.0
C2159 C 0.1644 0.25265 0.35488 0.0
C2160 C 0.1613 0.26917 0.34968 0.0
C2161 C 0.18291 0.23883 0.37269 0.0
C2162 C 0.187 0.22655 0.36171 0.0
C2163 C 0.18268 0.23496 0.38941 0.0
C2164 C 0.17696 0.24643 0.40153 0.0
C2165 C 0.15755 0.24693 0.4001 0.0
C2166 C 0.15245 0.25809 0.41136 0.0
C2167 C 0.16655 0.26866 0.4242 0.0
C2168 C 0.18576 0.2681 0.42582 0.0
C2169 C 0.19097 0.25701 0.41457 0.0
H2170 H 0.16256 0.27725 0.43293 0.0
H2171 H 0.21136 0.16905 0.32303 0.0
H2172 H 0.64581 0.49757 0.75947 0.0
H2173 H 0.67844 0.52667 0.74752 0.0
H2174 H 0.64354 0.5188 0.70313 0.0
H2175 H 0.61089 0.48958 0.71499 0.0
H2176 H 0.68323 0.52636 0.69685 0.0
H2177 H 0.65233 0.55794 0.7309 0.0
H2178 H 0.63841 0.56388 0.75639 0.0
H2179 H 0.70026 0.58533 0.77899 0.0
H2180 H 0.71445 0.57923 0.75368 0.0
H2181 H 0.75794 0.65136 0.69323 0.0
H2182 H 0.72446 0.61848 0.69914 0.0
H2183 H 0.75764 0.5831 0.69251 0.0
H2184 H 0.79097 0.61599 0.68605 0.0
H2185 H 0.71869 0.59652 0.72419 0.0
H2186 H 0.72843 0.5361 0.68836 0.0
H2187 H 0.73476 0.52633 0.6612 0.0
H2188 H 0.70809 0.56201 0.63992 0.0
H2189 H 0.70247 0.57265 0.66694 0.0
C2190 C 0.6451 0.50201 0.74714 0.0
C2191 C 0.62568 0.49133 0.73822 0.0
C2192 C 0.66377 0.51866 0.74033 0.0
C2193 C 0.6634 0.5252 0.72449 0.0
C2194 C 0.64426 0.51408 0.71537 0.0
C2195 C 0.6256 0.49733 0.72215 0.0
C2196 C 0.68272 0.54397 0.71757 0.0
C2197 C 0.69101 0.5417 0.70287 0.0
C2198 C 0.69283 0.56409 0.72526 0.0
C2199 C 0.68438 0.56793 0.74045 0.0
C2200 C 0.66291 0.56379 0.74134 0.0
C2201 C 0.65498 0.5672 0.75575 0.0
C2202 C 0.66843 0.57493 0.76931 0.0
C2203 C 0.68985 0.57932 0.76848 0.0
C2204 C 0.69785 0.5759 0.75411 0.0
C2205 C 0.75788 0.63646 0.69256 0.0
C2206 C 0.77703 0.63625 0.6891 0.0
C2207 C 0.73876 0.61765 0.696 0.0
C2208 C 0.73836 0.59815 0.69638 0.0
C2209 C 0.75725 0.59776 0.69207 0.0
C2210 C 0.7764 0.61664 0.68841 0.0
C2211 C 0.71915 0.57907 0.70325 0.0
C2212 C 0.71098 0.58122 0.71813 0.0
C2213 C 0.70894 0.55893 0.69562 0.0
C2214 C 0.71533 0.55536 0.67956 0.0
C2215 C 0.72438 0.5422 0.67784 0.0
C2216 C 0.72781 0.5365 0.6625 0.0
C2217 C 0.7218 0.54351 0.64885 0.0
C2218 C 0.71281 0.55665 0.65051 0.0
C2219 C 0.7098 0.56278 0.66581 0.0
H2220 H 0.72414 0.53881 0.63698 0.0
H2221 H 0.66226 0.57756 0.78046 0.0
H2222 H 0.52433 0.15538 0.76177 0.0
H2223 H 0.49401 0.15783 0.75048 0.0
H2224 H 0.50292 0.13504 0.70474 0.0
H2225 H 0.53332 0.1324 0.71605 0.0
H2226 H 0.49429 0.16692 0.70074 0.0
H2227 H 0.463 0.10186 0.73054 0.0
H2228 H 0.45767 0.08014 0.75464 0.0
H2229 H 0.43453 0.11582 0.78078 0.0
H2230 H 0.44001 0.13796 0.75689 0.0
H2231 H 0.36618 0.11342 0.69583 0.0
H2232 H 0.39989 0.11387 0.70232 0.0
H2233 H 0.43495 0.1821 0.69832 0.0
H2234 H 0.40156 0.18138 0.6907 0.0
H2235 H 0.42256 0.12784 0.72701 0.0
H2236 H 0.4763 0.20169 0.69716 0.0
H2237 H 0.48865 0.22285 0.67226 0.0
H2238 H 0.47067 0.16624 0.64477 0.0
H2239 H 0.45711 0.14472 0.66938 0.0
C2240 C 0.51986 0.15084 0.7493 0.0
C2241 C 0.53115 0.14341 0.73989 0.0
C2242 C 0.50247 0.15226 0.74285 0.0
C2243 C 0.49582 0.14623 0.72683 0.0
C2244 C 0.50764 0.13969 0.71716 0.0
C2245 C 0.5251 0.13827 0.72362 0.0
C2246 C 0.47637 0.14641 0.72027 0.0
C2247 C 0.47857 0.15831 0.70647 0.0
C2248 C 0.4558 0.13524 0.72768 0.0
C2249 C 0.45209 0.12168 0.74196 0.0
C2250 C 0.45688 0.10515 0.74145 0.0
C2251 C 0.45383 0.09275 0.75507 0.0
C2252 C 0.44582 0.09663 0.76925 0.0
C2253 C 0.44075 0.11285 0.7698 0.0
C2254 C 0.44381 0.12532 0.75622 0.0
C2255 C 0.38125 0.12844 0.69583 0.0
C2256 C 0.38123 0.14728 0.69238 0.0
C2257 C 0.40058 0.12874 0.69963 0.0
C2258 C 0.42041 0.14801 0.70064 0.0
C2259 C 0.42037 0.16688 0.697 0.0
C2260 C 0.40107 0.1665 0.69274 0.0
C2261 C 0.44023 0.14821 0.70717 0.0
C2262 C 0.43818 0.13643 0.72116 0.0
C2263 C 0.46094 0.1594 0.69989 0.0
C2264 C 0.46507 0.1716 0.68494 0.0
C2265 C 0.47434 0.19375 0.68569 0.0
C2266 C 0.48161 0.2058 0.67166 0.0
C2267 C 0.48037 0.1959 0.65693 0.0
C2268 C 0.47144 0.17388 0.65616 0.0
C2269 C 0.46357 0.16171 0.67008 0.0
H2270 H 0.48635 0.20528 0.64611 0.0
H2271 H 0.44349 0.08704 0.77979 0.0
H2272 H 0.91418 0.40183 0.7461 0.0
H2273 H 0.91007 0.36963 0.73376 0.0
H2274 H 0.84867 0.35599 0.71332 0.0
H2275 H 0.85209 0.3877 0.72648 0.0
H2276 H 0.84504 0.3216 0.72602 0.0
H2277 H 0.89521 0.37371 0.68995 0.0
H2278 H 0.92804 0.40661 0.68187 0.0
H2279 H 0.96795 0.38398 0.70249 0.0
H2280 H 0.93536 0.35105 0.7109 0.0
H2281 H 0.83707 0.23875 0.67619 0.0
H2282 H 0.84213 0.27315 0.68433 0.0
H2283 H 0.89748 0.28486 0.71317 0.0
H2284 H 0.89267 0.25036 0.705 0.0
H2285 H 0.90337 0.32027 0.69443 0.0
H2286 H 0.85229 0.26877 0.73148 0.0
H2287 H 0.81917 0.23526 0.73803 0.0
H2288 H 0.78039 0.25686 0.71405 0.0
H2289 H 0.81337 0.2904 0.70707 0.0
C2290 C 0.89972 0.39195 0.73905 0.0
C2291 C 0.88337 0.39728 0.73739 0.0
C2292 C 0.89753 0.37366 0.73181 0.0
C2293 C 0.87919 0.3605 0.72243 0.0
C2294 C 0.863 0.36596 0.72046 0.0
C2295 C 0.86508 0.38419 0.72786 0.0
C2296 C 0.87654 0.34058 0.71535 0.0
C2297 C 0.85765 0.32139 0.71887 0.0
C2298 C 0.89315 0.34021 0.70626 0.0
C2299 C 0.91282 0.35997 0.70117 0.0
C2300 C 0.91098 0.37581 0.69287 0.0
C2301 C 0.92955 0.39446 0.68821 0.0
C2302 C 0.95007 0.3974 0.6917 0.0
C2303 C 0.95205 0.38168 0.69981 0.0
C2304 C 0.93353 0.36301 0.70451 0.0
C2305 C 0.8505 0.24869 0.68412 0.0
C2306 C 0.86449 0.24181 0.68996 0.0
C2307 C 0.85329 0.26832 0.6888 0.0
C2308 C 0.87007 0.28141 0.69942 0.0
C2309 C 0.88444 0.27491 0.70495 0.0
C2310 C 0.88159 0.25518 0.70034 0.0
C2311 C 0.87205 0.30152 0.70524 0.0
C2312 C 0.89077 0.32064 0.70149 0.0
C2313 C 0.85523 0.30186 0.71399 0.0
C2314 C 0.83532 0.28201 0.7186 0.0
C2315 C 0.83672 0.26633 0.72751 0.0
C2316 C 0.81798 0.24734 0.7313 0.0
C2317 C 0.79771 0.24391 0.72639 0.0
C2318 C 0.79612 0.25954 0.71779 0.0
C2319 C 0.81483 0.27855 0.71393 0.0
H2320 H 0.78326 0.22915 0.72927 0.0
H2321 H 0.96443 0.41185 0.68808 0.0
H2322 H 0.18153 0.93754 0.61259 0.0
H2323 H 0.21091 0.97068 0.62337 0.0
H2324 H 0.16446 0.98507 0.64444 0.0
H2325 H 0.13483 0.95233 0.63284 0.0
H2326 H 0.19492 0.01908 0.63074 0.0
H2327 H 0.19514 0.96894 0.66743 0.0
H2328 H 0.19562 0.93675 0.67588 0.0
H2329 H 0.25744 0.95954 0.65334 0.0
H2330 H 0.2572 0.99175 0.64456 0.0
H2331 H 0.27035 0.10323 0.6801 0.0
H2332 H 0.24118 0.0687 0.67133 0.0
H2333 H 0.2865 0.05884 0.64364 0.0
H2334 H 0.31613 0.09356 0.65258 0.0
H2335 H 0.25672 0.02277 0.66121 0.0
H2336 H 0.25553 0.07366 0.62485 0.0
H2337 H 0.25477 0.10632 0.61835 0.0
H2338 H 0.19377 0.08207 0.64245 0.0
H2339 H 0.19433 0.0494 0.64933 0.0
C2340 C 0.17748 0.94776 0.61944 0.0
C2341 C 0.15571 0.94225 0.62171 0.0
C2342 C 0.19437 0.96665 0.6258 0.0
C2343 C 0.19001 0.98038 0.6349 0.0
C2344 C 0.1683 0.97477 0.63748 0.0
C2345 C 0.15134 0.9559 0.63098 0.0
C2346 C 0.20813 0.00088 0.6412 0.0
C2347 C 0.20824 0.01979 0.63761 0.0
C2348 C 0.22582 0.00201 0.64993 0.0
C2349 C 0.22605 0.98268 0.65521 0.0
C2350 C 0.20877 0.96702 0.66417 0.0
C2351 C 0.20901 0.94878 0.66903 0.0
C2352 C 0.22653 0.94608 0.66511 0.0
C2353 C 0.24387 0.96164 0.65635 0.0
C2354 C 0.2437 0.9799 0.65144 0.0
C2355 C 0.2743 0.09369 0.67232 0.0
C2356 C 0.29568 0.10119 0.66712 0.0
C2357 C 0.25749 0.07396 0.66722 0.0
C2358 C 0.2616 0.06127 0.65671 0.0
C2359 C 0.28298 0.06842 0.65174 0.0
C2360 C 0.29987 0.08828 0.65681 0.0
C2361 C 0.24343 0.04077 0.65069 0.0
C2362 C 0.24334 0.02194 0.65433 0.0
C2363 C 0.22565 0.03969 0.64219 0.0
C2364 C 0.22505 0.05913 0.63771 0.0
C2365 C 0.24201 0.07533 0.62884 0.0
C2366 C 0.24162 0.09385 0.62509 0.0
C2367 C 0.22425 0.09627 0.63001 0.0
C2368 C 0.20722 0.08017 0.63865 0.0
C2369 C 0.20755 0.06164 0.64247 0.0
H2370 H 0.22394 0.11059 0.62709 0.0
H2371 H 0.22668 0.93194 0.66889 0.0
H2372 H 0.04852 0.17176 0.62984 0.0
H2373 H 0.01612 0.17015 0.64152 0.0
H2374 H 0.03701 0.23326 0.62429 0.0
H2375 H 0.06944 0.23509 0.61293 0.0
H2376 H 0.02281 0.22967 0.65386 0.0
H2377 H 0.99625 0.18911 0.60545 0.0
H2378 H 0.98816 0.16097 0.58541 0.0
H2379 H 0.9511 0.11341 0.6205 0.0
H2380 H 0.9592 0.14128 0.64082 0.0
H2381 H 0.9249 0.2327 0.65903 0.0
H2382 H 0.95848 0.23332 0.65227 0.0
H2383 H 0.93056 0.16828 0.66751 0.0
H2384 H 0.89645 0.16729 0.67324 0.0
H2385 H 0.94866 0.17183 0.64043 0.0
H2386 H 0.97911 0.21473 0.68943 0.0
H2387 H 0.98734 0.24444 0.70818 0.0
H2388 H 0.01649 0.28885 0.66963 0.0
H2389 H 0.00865 0.25946 0.65081 0.0
C2390 C 0.0463 0.18536 0.62869 0.0
C2391 C 0.06157 0.20351 0.62036 0.0
C2392 C 0.02764 0.18434 0.63523 0.0
C2393 C 0.02388 0.20148 0.63364 0.0
C2394 C 0.03939 0.21977 0.62565 0.0
C2395 C 0.05792 0.22075 0.61907 0.0
C2396 C 1.00405 0.20066 0.64044 0.0
C2397 C 0.0066 0.21705 0.65082 0.0
C2398 C 0.98279 0.18411 0.63673 0.0
C2399 C 0.97861 0.16729 0.62474 0.0
C2400 C 0.98664 0.17265 0.60897 0.0
C2401 C 0.98198 0.15675 0.59754 0.0
C2402 C 0.96919 0.13541 0.60169 0.0
C2403 C 0.96105 0.12994 0.6173 0.0
C2404 C 0.96568 0.14578 0.62879 0.0
C2405 C 0.9261 0.21866 0.66126 0.0
C2406 C 0.90812 0.20013 0.66707 0.0
C2407 C 0.94545 0.21908 0.65752 0.0
C2408 C 0.9475 0.201 0.65967 0.0
C2409 C 0.92964 0.18255 0.66583 0.0
C2410 C 0.91012 0.18205 0.66932 0.0
C2411 C 0.96738 0.20075 0.65402 0.0
C2412 C 0.96486 0.18424 0.64373 0.0
C2413 C 0.98868 0.21733 0.6576 0.0
C2414 C 0.99298 0.23493 0.66875 0.0
C2415 C 0.98704 0.23084 0.685 0.0
C2416 C 0.99175 0.24759 0.69562 0.0
C2417 C 1.00224 0.26847 0.69006 0.0
C2418 C 0.00827 0.27266 0.67391 0.0
C2419 C 1.00381 0.25599 0.66329 0.0
H2420 H 0.00579 0.2814 0.69829 0.0
H2421 H 0.96552 0.12313 0.59281 0.0
H2422 H 0.83503 0.88047 0.6331 0.0
H2423 H 0.83959 0.85331 0.64698 0.0
H2424 H 0.77734 0.80487 0.62897 0.0
H2425 H 0.77238 0.83193 0.6156 0.0
H2426 H 0.78326 0.79631 0.65912 0.0
H2427 H 0.82381 0.81556 0.60975 0.0
H2428 H 0.85075 0.84 0.59031 0.0
H2429 H 0.90123 0.8583 0.62564 0.0
H2430 H 0.87451 0.83413 0.64536 0.0
H2431 H 0.79603 0.70514 0.65562 0.0
H2432 H 0.79185 0.73551 0.64838 0.0
H2433 H 0.84914 0.77712 0.67594 0.0
H2434 H 0.85332 0.74693 0.68341 0.0
H2435 H 0.84734 0.79069 0.64342 0.0
H2436 H 0.80555 0.7671 0.69182 0.0
H2437 H 0.77774 0.74058 0.70969 0.0
H2438 H 0.72845 0.72847 0.67459 0.0
H2439 H 0.75604 0.75467 0.65636 0.0
C2440 C 0.82215 0.86408 0.63239 0.0
C2441 C 0.80349 0.85827 0.62308 0.0
C2442 C 0.82484 0.84857 0.64021 0.0
C2443 C 0.80896 0.82704 0.63877 0.0
C2444 C 0.78984 0.82137 0.63018 0.0
C2445 C 0.78713 0.83683 0.62242 0.0
C2446 C 0.8127 0.81023 0.64529 0.0
C2447 C 0.79722 0.79503 0.65564 0.0
C2448 C 0.83105 0.80871 0.64089 0.0
C2449 C 0.84714 0.82326 0.62908 0.0
C2450 C 0.84063 0.82494 0.61341 0.0
C2451 C 0.85586 0.8387 0.60234 0.0
C2452 C 0.87768 0.85075 0.60676 0.0
C2453 C 0.88432 0.84899 0.62225 0.0
C2454 C 0.86914 0.83526 0.63338 0.0
C2455 C 0.80771 0.72075 0.66015 0.0
C2456 C 0.82495 0.72366 0.6701 0.0
C2457 C 0.80526 0.73803 0.65606 0.0
C2458 C 0.82015 0.75845 0.66171 0.0
C2459 C 0.83749 0.76144 0.67151 0.0
C2460 C 0.83977 0.74416 0.67579 0.0
C2461 C 0.81784 0.77677 0.6571 0.0
C2462 C 0.83355 0.79218 0.64708 0.0
C2463 C 0.79958 0.77831 0.66164 0.0
C2464 C 0.7829 0.76273 0.67266 0.0
C2465 C 0.78881 0.75867 0.68784 0.0
C2466 C 0.77308 0.7437 0.69805 0.0
C2467 C 0.75134 0.73281 0.69326 0.0
C2468 C 0.74529 0.73691 0.67828 0.0
C2469 C 0.76097 0.75183 0.668 0.0
H2470 H 0.73918 0.72123 0.70118 0.0
H2471 H 0.88945 0.86139 0.59817 0.0
H2472 H 0.05805 0.85385 0.64554 0.0
H2473 H 0.02664 0.82463 0.65883 0.0
H2474 H 0.99017 0.8102 0.61447 0.0
H2475 H 0.02155 0.8391 0.60113 0.0
H2476 H 0.98616 0.81642 0.66453 0.0
H2477 H 0.9564 0.75714 0.61109 0.0
H2478 H 0.97134 0.74844 0.58737 0.0
H2479 H 0.03298 0.77387 0.61122 0.0
H2480 H 0.01833 0.78245 0.63515 0.0
H2481 H 0.87729 0.73021 0.67463 0.0
H2482 H 0.91195 0.76173 0.66871 0.0
H2483 H 0.94251 0.72339 0.66724 0.0
H2484 H 0.90758 0.69176 0.67255 0.0
H2485 H 0.95137 0.74375 0.64141 0.0
H2486 H 0.9633 0.77126 0.69719 0.0
H2487 H 0.95566 0.78351 0.72282 0.0
H2488 H 0.93405 0.82047 0.69684 0.0
H2489 H 0.94252 0.80915 0.67109 0.0
C2490 C 0.04332 0.84447 0.63865 0.0
C2491 C 0.04226 0.84869 0.62226 0.0
C2492 C 0.02536 0.8278 0.64626 0.0
C2493 C 0.00608 0.815 0.63761 0.0
C2494 C 0.00493 0.81956 0.62134 0.0
C2495 C 0.02285 0.83615 0.61375 0.0
C2496 C 0.98722 0.79679 0.64551 0.0
C2497 C 0.97858 0.80051 0.65949 0.0
C2498 C 0.9774 0.77594 0.63911 0.0
C2499 C 0.98631 0.77062 0.62484 0.0
C2500 C 0.97312 0.76079 0.61129 0.0
C2501 C 0.98154 0.7559 0.59781 0.0
C2502 C 1.00311 0.76066 0.59777 0.0
C2503 C 0.01629 0.77026 0.61124 0.0
C2504 C 0.00795 0.77517 0.62476 0.0
C2505 C 0.89153 0.72862 0.67369 0.0
C2506 C 0.88976 0.70852 0.67424 0.0
C2507 C 0.91148 0.74675 0.67028 0.0
C2508 C 0.93008 0.74513 0.66749 0.0
C2509 C 0.92849 0.72518 0.66921 0.0
C2510 C 0.90854 0.70709 0.67234 0.0
C2511 C 0.95019 0.76325 0.66059 0.0
C2512 C 0.95896 0.75958 0.64659 0.0
C2513 C 0.96033 0.78406 0.66711 0.0
C2514 C 0.95323 0.78916 0.68231 0.0
C2515 C 0.9567 0.78182 0.69698 0.0
C2516 C 0.95248 0.78879 0.71151 0.0
C2517 C 0.94427 0.80268 0.71146 0.0
C2518 C 0.94038 0.8097 0.69687 0.0
C2519 C 0.94506 0.80317 0.68232 0.0
H2520 H 0.94094 0.808 0.72272 0.0
H2521 H 0.0096 0.75687 0.58732 0.0
H2522 H 0.15244 0.15847 0.60159 0.0
H2523 H 0.18227 0.15504 0.61272 0.0
H2524 H 0.18932 0.19776 0.65151 0.0
H2525 H 0.15873 0.20047 0.64067 0.0
H2526 H 0.22203 0.18058 0.61571 0.0
H2527 H 0.21312 0.18974 0.68452 0.0
H2528 H 0.18428 0.18101 0.70444 0.0
H2529 H 0.1384 0.13089 0.67372 0.0
H2530 H 0.16702 0.13913 0.65373 0.0
H2531 H 0.31945 0.20976 0.65669 0.0
H2532 H 0.28524 0.20819 0.64979 0.0
H2533 H 0.25012 0.142 0.66244 0.0
H2534 H 0.28438 0.14337 0.6689 0.0
H2535 H 0.23022 0.16738 0.6732 0.0
H2536 H 0.2551 0.14831 0.62629 0.0
H2537 H 0.28305 0.15242 0.60691 0.0
H2538 H 0.29301 0.21355 0.59346 0.0
H2539 H 0.26515 0.20983 0.61287 0.0
C2540 C 0.16018 0.16692 0.61262 0.0
C2541 C 0.15313 0.17961 0.62029 0.0
C2542 C 0.17736 0.16505 0.61895 0.0
C2543 C 0.18816 0.176 0.63307 0.0
C2544 C 0.18109 0.18874 0.6408 0.0
C2545 C 0.16362 0.19037 0.63456 0.0
C2546 C 0.20724 0.17461 0.63921 0.0
C2547 C 0.22363 0.17765 0.62829 0.0
C2548 C 0.20948 0.17037 0.65558 0.0
C2549 C 0.19217 0.16524 0.66754 0.0
C2550 C 0.19689 0.17683 0.68203 0.0
C2551 C 0.18058 0.17196 0.69334 0.0
C2552 C 0.15951 0.15546 0.69032 0.0
C2553 C 0.15471 0.14373 0.67601 0.0
C2554 C 0.17096 0.14851 0.66468 0.0
C2555 C 0.3044 0.19496 0.65824 0.0
C2556 C 0.3046 0.17685 0.66376 0.0
C2557 C 0.28488 0.19409 0.65432 0.0
C2558 C 0.2651 0.17503 0.65571 0.0
C2559 C 0.26515 0.15695 0.6615 0.0
C2560 C 0.28477 0.15777 0.66526 0.0
C2561 C 0.24477 0.17376 0.64975 0.0
C2562 C 0.22834 0.17027 0.66065 0.0
C2563 C 0.24207 0.17687 0.6333 0.0
C2564 C 0.25817 0.17887 0.62112 0.0
C2565 C 0.26329 0.16265 0.61923 0.0
C2566 C 0.27913 0.16491 0.60825 0.0
C2567 C 0.28993 0.18331 0.59906 0.0
C2568 C 0.28471 0.19936 0.60067 0.0
C2569 C 0.26883 0.19715 0.61161 0.0
H2570 H 0.30223 0.18506 0.59059 0.0
H2571 H 0.1469 0.15173 0.69908 0.0
H2572 H 0.83258 0.96401 0.63388 0.0
H2573 H 0.84352 0.99954 0.64431 0.0
H2574 H 0.79505 0.00167 0.61441 0.0
H2575 H 0.78427 0.96632 0.60381 0.0
H2576 H 0.83273 0.03891 0.61375 0.0
H2577 H 0.78609 0.98979 0.65419 0.0
H2578 H 0.7746 0.96059 0.67361 0.0
H2579 H 0.83477 0.99601 0.69932 0.0
H2580 H 0.84673 0.02532 0.67992 0.0
H2581 H 0.81547 0.11605 0.65092 0.0
H2582 H 0.8114 0.08278 0.64076 0.0
H2583 H 0.86277 0.08979 0.67231 0.0
H2584 H 0.86709 0.12322 0.68256 0.0
H2585 H 0.82801 0.04946 0.67239 0.0
H2586 H 0.8731 0.1003 0.63337 0.0
H2587 H 0.88379 0.12983 0.6144 0.0
H2588 H 0.82654 0.09174 0.58613 0.0
H2589 H 0.8153 0.06203 0.60506 0.0
C2590 C 0.82431 0.97208 0.62952 0.0
C2591 C 0.80747 0.96242 0.61812 0.0
C2592 C 0.83055 0.99235 0.63549 0.0
C2593 C 0.81997 0.00315 0.63022 0.0
C2594 C 0.80345 0.99363 0.61861 0.0
C2595 C 0.79724 0.97343 0.61264 0.0
C2596 C 0.82555 0.02412 0.63708 0.0
C2597 C 0.83157 0.04121 0.62655 0.0
C2598 C 0.82458 0.02722 0.65383 0.0
C2599 C 0.8174 0.00962 0.6655 0.0
C2600 C 0.79694 0.99127 0.66391 0.0
C2601 C 0.79033 0.97472 0.67492 0.0
C2602 C 0.80397 0.97642 0.68766 0.0
C2603 C 0.82423 0.9947 0.68943 0.0
C2604 C 0.83093 0.01129 0.67843 0.0
C2605 C 0.8259 0.11055 0.65576 0.0
C2606 C 0.8416 0.12231 0.66757 0.0
C2607 C 0.8236 0.09156 0.64987 0.0
C2608 C 0.83701 0.08402 0.65562 0.0
C2609 C 0.85233 0.09541 0.6677 0.0
C2610 C 0.8547 0.11447 0.67357 0.0
C2611 C 0.83481 0.06412 0.64904 0.0
C2612 C 0.82945 0.04726 0.65961 0.0
C2613 C 0.83638 0.06125 0.63233 0.0
C2614 C 0.84326 0.07897 0.62073 0.0
C2615 C 0.86269 0.09825 0.62317 0.0
C2616 C 0.86885 0.11503 0.61243 0.0
C2617 C 0.85578 0.1127 0.59913 0.0
C2618 C 0.83659 0.09354 0.59648 0.0
C2619 C 0.83034 0.07671 0.6072 0.0
H2620 H 0.86062 0.12566 0.5908 0.0
H2621 H 0.79882 0.96359 0.69618 0.0
H2622 H 0.49039 0.38873 0.74227 0.0
H2623 H 0.46523 0.35294 0.73248 0.0
H2624 H 0.51815 0.34973 0.71027 0.0
H2625 H 0.54352 0.38586 0.72 0.0
H2626 H 0.48221 0.33344 0.69047 0.0
H2627 H 0.49748 0.32391 0.7448 0.0
H2628 H 0.50159 0.33045 0.7741 0.0
H2629 H 0.43432 0.31183 0.77767 0.0
H2630 H 0.42986 0.30547 0.74834 0.0
H2631 H 0.41698 0.22196 0.67666 0.0
H2632 H 0.44562 0.25699 0.68528 0.0
H2633 H 0.39909 0.26591 0.71223 0.0
H2634 H 0.37041 0.23058 0.70401 0.0
H2635 H 0.43444 0.27861 0.72954 0.0
H2636 H 0.42001 0.29065 0.67482 0.0
H2637 H 0.4157 0.28306 0.64564 0.0
H2638 H 0.48136 0.29603 0.64299 0.0
H2639 H 0.486 0.30356 0.6722 0.0
C2640 C 0.49667 0.38042 0.73527 0.0
C2641 C 0.51891 0.39004 0.73196 0.0
C2642 C 0.48229 0.35993 0.72972 0.0
C2643 C 0.48981 0.34849 0.72082 0.0
C2644 C 0.51199 0.35823 0.71717 0.0
C2645 C 0.52647 0.37883 0.72276 0.0
C2646 C 0.47436 0.32634 0.71555 0.0
C2647 C 0.472 0.32135 0.69903 0.0
C2648 C 0.46079 0.3106 0.72667 0.0
C2649 C 0.46339 0.31439 0.74434 0.0
C2650 C 0.4836 0.32137 0.75181 0.0
C2651 C 0.48599 0.32502 0.76843 0.0
C2652 C 0.46824 0.3216 0.77774 0.0
C2653 C 0.44806 0.31449 0.77045 0.0
C2654 C 0.44559 0.31084 0.75382 0.0
C2655 C 0.41276 0.2314 0.68434 0.0
C2656 C 0.39132 0.22347 0.68956 0.0
C2657 C 0.4292 0.2515 0.68923 0.0
C2658 C 0.42453 0.2643 0.69924 0.0
C2659 C 0.40313 0.25638 0.7045 0.0
C2660 C 0.38671 0.23618 0.69974 0.0
C2661 C 0.4419 0.28581 0.70445 0.0
C2662 C 0.44468 0.29066 0.72097 0.0
C2663 C 0.45584 0.30137 0.69333 0.0
C2664 C 0.4533 0.29752 0.6757 0.0
C2665 C 0.43351 0.29184 0.66802 0.0
C2666 C 0.43101 0.28756 0.65148 0.0
C2667 C 0.44823 0.28901 0.64248 0.0
C2668 C 0.46803 0.2949 0.64998 0.0
C2669 C 0.47063 0.29923 0.66652 0.0
H2670 H 0.44622 0.28558 0.62969 0.0
H2671 H 0.47012 0.32442 0.79061 0.0
H2672 H 0.66153 0.16236 0.76049 0.0
H2673 H 0.69388 0.166 0.74747 0.0
H2674 H 0.66159 0.15276 0.70132 0.0
H2675 H 0.62888 0.14875 0.71445 0.0
H2676 H 0.68215 0.13133 0.70387 0.0
H2677 H 0.70295 0.20396 0.71174 0.0
H2678 H 0.70897 0.23602 0.7264 0.0
H2679 H 0.75323 0.23067 0.75858 0.0
H2680 H 0.7472 0.19837 0.74427 0.0
H2681 H 0.8088 0.19594 0.68425 0.0
H2682 H 0.77425 0.19443 0.689 0.0
H2683 H 0.74731 0.13026 0.70614 0.0
H2684 H 0.78126 0.13129 0.70017 0.0
H2685 H 0.75541 0.19271 0.71435 0.0
H2686 H 0.69727 0.10303 0.70756 0.0
H2687 H 0.69036 0.07306 0.68966 0.0
H2688 H 0.71901 0.11596 0.65016 0.0
H2689 H 0.72627 0.14621 0.66796 0.0
C2690 C 0.66135 0.16035 0.74754 0.0
C2691 C 0.64266 0.15534 0.73852 0.0
C2692 C 0.67994 0.16256 0.74008 0.0
C2693 C 0.68043 0.15999 0.72334 0.0
C2694 C 0.66172 0.15492 0.71425 0.0
C2695 C 0.64302 0.15268 0.72175 0.0
C2696 C 0.70021 0.16179 0.71555 0.0
C2697 C 0.69815 0.14483 0.7061 0.0
C2698 C 0.72117 0.17951 0.71813 0.0
C2699 C 0.72452 0.19867 0.72698 0.0
C2700 C 0.71382 0.20951 0.72203 0.0
C2701 C 0.71725 0.22775 0.73027 0.0
C2702 C 0.73145 0.23536 0.74343 0.0
C2703 C 0.74221 0.22474 0.7484 0.0
C2704 C 0.73878 0.20646 0.74023 0.0
C2705 C 0.79526 0.18123 0.68837 0.0
C2706 C 0.79763 0.1635 0.69132 0.0
C2707 C 0.77547 0.18044 0.69132 0.0
C2708 C 0.75772 0.16208 0.69773 0.0
C2709 C 0.7602 0.14439 0.70066 0.0
C2710 C 0.7798 0.14505 0.69739 0.0
C2711 C 0.73747 0.16207 0.70279 0.0
C2712 C 0.73943 0.17931 0.7119 0.0
C2713 C 0.71637 0.14482 0.6996 0.0
C2714 C 0.71261 0.12684 0.68907 0.0
C2715 C 0.70219 0.10604 0.69507 0.0
C2716 C 0.69826 0.08904 0.68497 0.0
C2717 C 0.70442 0.09264 0.66881 0.0
C2718 C 0.7145 0.11325 0.66272 0.0
C2719 C 0.71867 0.13032 0.67282 0.0
H2720 H 0.70127 0.07946 0.66099 0.0
H2721 H 0.73413 0.24951 0.74976 0.0
H2722 H 0.84944 0.49431 0.7624 0.0
H2723 H 0.84427 0.52194 0.75011 0.0
H2724 H 0.86943 0.51348 0.7052 0.0
H2725 H 0.87476 0.48586 0.7175 0.0
H2726 H 0.887 0.55527 0.71323 0.0
H2727 H 0.81639 0.49498 0.70851 0.0
H2728 H 0.78317 0.46309 0.71748 0.0
H2729 H 0.77081 0.50082 0.75101 0.0
H2730 H 0.80415 0.53291 0.74242 0.0
H2731 H 0.85208 0.6175 0.66942 0.0
H2732 H 0.85566 0.58742 0.67832 0.0
H2733 H 0.83841 0.59539 0.72655 0.0
H2734 H 0.83473 0.62547 0.71763 0.0
H2735 H 0.81605 0.55255 0.71455 0.0
H2736 H 0.88837 0.61248 0.71992 0.0
H2737 H 0.92115 0.64417 0.71012 0.0
H2738 H 0.92964 0.60636 0.67419 0.0
H2739 H 0.89667 0.57448 0.68362 0.0
C2740 C 0.85376 0.49828 0.74988 0.0
C2741 C 0.86238 0.48792 0.74088 0.0
C2742 C 0.85074 0.51399 0.74286 0.0
C2743 C 0.85625 0.51958 0.72669 0.0
C2744 C 0.86501 0.50934 0.71768 0.0
C2745 C 0.86797 0.49353 0.7247 0.0
C2746 C 0.85325 0.53648 0.71942 0.0
C2747 C 0.87141 0.55451 0.71326 0.0
C2748 C 0.83296 0.5356 0.71968 0.0
C2749 C 0.81289 0.51633 0.72492 0.0
C2750 C 0.8067 0.49646 0.7179 0.0
C2751 C 0.78782 0.47835 0.7229 0.0
C2752 C 0.77492 0.47992 0.73484 0.0
C2753 C 0.78084 0.49962 0.74178 0.0
C2754 C 0.79971 0.51778 0.73684 0.0
C2755 C 0.8488 0.6127 0.68182 0.0
C2756 C 0.84301 0.62371 0.69278 0.0
C2757 C 0.85103 0.59564 0.68694 0.0
C2758 C 0.8473 0.58925 0.70308 0.0
C2759 C 0.84132 0.60011 0.71403 0.0
C2760 C 0.8394 0.61734 0.70895 0.0
C2761 C 0.84984 0.57135 0.70862 0.0
C2762 C 0.83158 0.55317 0.71443 0.0
C2763 C 0.86998 0.57203 0.70794 0.0
C2764 C 0.88991 0.59114 0.70235 0.0
C2765 C 0.89711 0.61095 0.70983 0.0
C2766 C 0.91574 0.62894 0.70437 0.0
C2767 C 0.92743 0.62729 0.69151 0.0
C2768 C 0.92054 0.60762 0.68413 0.0
C2769 C 0.90189 0.58959 0.68953 0.0
H2770 H 0.94186 0.64124 0.6873 0.0
H2771 H 0.7603 0.46588 0.73868 0.0
H2772 H 0.41277 0.87488 0.23153 0.0
H2773 H 0.42124 0.8918 0.205 0.0
H2774 H 0.48674 0.9346 0.22079 0.0
H2775 H 0.4783 0.91812 0.24732 0.0
H2776 H 0.46959 0.95551 0.20573 0.0
H2777 H 0.47515 0.89322 0.19564 0.0
H2778 H 0.46223 0.85484 0.195 0.0
H2779 H 0.4104 0.84474 0.16306 0.0
H2780 H 0.42286 0.88306 0.16369 0.0
H2781 H 0.52524 1.00025 0.13464 0.0
H2782 H 0.51244 0.97803 0.15854 0.0
H2783 H 0.44861 0.9425 0.13751 0.0
H2784 H 0.46131 0.96497 0.11345 0.0
H2785 H 0.46141 0.91682 0.15444 0.0
H2786 H 0.45688 0.97937 0.16359 0.0
H2787 H 0.47021 0.01783 0.16397 0.0
H2788 H 0.52 0.02734 0.19779 0.0
H2789 H 0.50718 0.98896 0.19742 0.0
C2790 C 0.42896 0.88793 0.22934 0.0
C2791 C 0.44488 0.89509 0.24154 0.0
C2792 C 0.43382 0.89747 0.21414 0.0
C2793 C 0.45468 0.91438 0.21085 0.0
C2794 C 0.47055 0.92156 0.22302 0.0
C2795 C 0.46574 0.912 0.23815 0.0
C2796 C 0.46 0.9251 0.19492 0.0
C2797 C 0.46798 0.94705 0.19455 0.0
C2798 C 0.4573 0.91399 0.18025 0.0
C2799 C 0.44978 0.89097 0.17987 0.0
C2800 C 0.46088 0.88279 0.1886 0.0
C2801 C 0.45367 0.86106 0.18821 0.0
C2802 C 0.43546 0.84735 0.17903 0.0
C2803 C 0.42447 0.85537 0.17019 0.0
C2804 C 0.43161 0.8771 0.17055 0.0
C2805 C 0.50848 0.98768 0.13504 0.0
C2806 C 0.4942 0.98464 0.12225 0.0
C2807 C 0.5012 0.97494 0.1487 0.0
C2808 C 0.47947 0.95886 0.14994 0.0
C2809 C 0.46543 0.95489 0.13682 0.0
C2810 C 0.47272 0.96771 0.12308 0.0
C2811 C 0.47139 0.94724 0.16536 0.0
C2812 C 0.46285 0.92519 0.16563 0.0
C2813 C 0.47353 0.95822 0.17999 0.0
C2814 C 0.48118 0.9813 0.18037 0.0
C2815 C 0.47078 0.98968 0.17102 0.0
C2816 C 0.47823 0.01146 0.17124 0.0
C2817 C 0.49597 0.02503 0.18087 0.0
C2818 C 0.50627 0.01682 0.19033 0.0
C2819 C 0.49891 0.99504 0.19013 0.0
H2820 H 0.50172 0.04189 0.18103 0.0
H2821 H 0.42991 0.83053 0.17874 0.0
H2822 H 0.13993 0.57702 0.22902 0.0
H2823 H 0.12284 0.57092 0.20242 0.0
H2824 H 0.06548 0.51643 0.22078 0.0
H2825 H 0.08284 0.5221 0.24722 0.0
H2826 H 0.07298 0.50758 0.19231 0.0
H2827 H 0.0693 0.56594 0.21571 0.0
H2828 H 0.08366 0.60108 0.22857 0.0
H2829 H 0.12331 0.63071 0.18724 0.0
H2830 H 0.1094 0.59569 0.17422 0.0
H2831 H 0.00799 0.53591 0.13205 0.0
H2832 H 0.029 0.54332 0.15684 0.0
H2833 H 0.06535 0.5165 0.13587 0.0
H2834 H 0.04332 0.50755 0.11148 0.0
H2835 H 0.06874 0.56618 0.16549 0.0
H2836 H 0.07876 0.49204 0.16417 0.0
H2837 H 0.05997 0.4555 0.15328 0.0
H2838 H 0.99949 0.455 0.15393 0.0
H2839 H 0.01787 0.49141 0.16501 0.0
C2840 C 0.1237 0.56371 0.22731 0.0
C2841 C 0.11263 0.55007 0.24014 0.0
C2842 C 0.11393 0.56028 0.21215 0.0
C2843 C 0.09272 0.54343 0.20965 0.0
C2844 C 0.08185 0.52952 0.2224 0.0
C2845 C 0.09175 0.53277 0.23749 0.0
C2846 C 0.08167 0.54046 0.19388 0.0
C2847 C 0.07212 0.52042 0.18643 0.0
C2848 C 0.08019 0.55709 0.18631 0.0
C2849 C 0.08848 0.57818 0.19406 0.0
C2850 C 0.0812 0.57994 0.20941 0.0
C2851 C 0.08924 0.59983 0.21673 0.0
C2852 C 0.10443 0.61811 0.20875 0.0
C2853 C 0.11156 0.61654 0.19342 0.0
C2854 C 0.1036 0.59667 0.18606 0.0
C2855 C 0.02027 0.53134 0.13274 0.0
C2856 C 0.02362 0.52075 0.11982 0.0
C2857 C 0.03249 0.53586 0.14688 0.0
C2858 C 0.04849 0.53012 0.14835 0.0
C2859 C 0.05275 0.52066 0.13515 0.0
C2860 C 0.0403 0.5158 0.1211 0.0
C2861 C 0.06005 0.53329 0.16393 0.0
C2862 C 0.06974 0.55338 0.17132 0.0
C2863 C 0.06101 0.51651 0.17173 0.0
C2864 C 0.04975 0.49452 0.16524 0.0
C2865 C 0.06144 0.48409 0.16203 0.0
C2866 C 0.05087 0.46342 0.15582 0.0
C2867 C 0.02857 0.45296 0.15286 0.0
C2868 C 0.01678 0.46314 0.15617 0.0
C2869 C 0.02727 0.4838 0.1624 0.0
H2870 H 0.02042 0.43697 0.14804 0.0
H2871 H 0.11064 0.6335 0.21443 0.0
H2872 H 0.47209 0.58833 0.23121 0.0
H2873 H 0.48181 0.5806 0.20474 0.0
H2874 H 0.46349 0.5174 0.22035 0.0
H2875 H 0.45371 0.52503 0.24682 0.0
H2876 H 0.50483 0.53944 0.2064 0.0
H2877 H 0.43199 0.5231 0.19458 0.0
H2878 H 0.40172 0.53033 0.19336 0.0
H2879 H 0.43874 0.58331 0.16229 0.0
H2880 H 0.46937 0.57658 0.16352 0.0
H2881 H 0.51666 0.49864 0.13272 0.0
H2882 H 0.50121 0.50385 0.15738 0.0
H2883 H 0.50929 0.5626 0.1387 0.0
H2884 H 0.52419 0.55706 0.11375 0.0
H2885 H 0.47259 0.54284 0.15425 0.0
H2886 H 0.54554 0.5612 0.16636 0.0
H2887 H 0.57718 0.55609 0.16777 0.0
H2888 H 0.54211 0.50235 0.19858 0.0
H2889 H 0.51014 0.50697 0.19718 0.0
C2890 C 0.47001 0.57275 0.22894 0.0
C2891 C 0.46216 0.55728 0.24107 0.0
C2892 C 0.47545 0.56832 0.21381 0.0
C2893 C 0.47329 0.5484 0.21057 0.0
C2894 C 0.46522 0.53285 0.2226 0.0
C2895 C 0.45953 0.53718 0.23766 0.0
C2896 C 0.48048 0.54415 0.19494 0.0
C2897 C 0.49757 0.53984 0.195 0.0
C2898 C 0.47148 0.54543 0.18006 0.0
C2899 C 0.45306 0.54946 0.17928 0.0
C2900 C 0.43375 0.53641 0.18761 0.0
C2901 C 0.41652 0.54039 0.18689 0.0
C2902 C 0.41833 0.5573 0.17779 0.0
C2903 C 0.43737 0.57023 0.16935 0.0
C2904 C 0.45467 0.56633 0.17004 0.0
C2905 C 0.51509 0.51264 0.13387 0.0
C2906 C 0.52183 0.52756 0.1214 0.0
C2907 C 0.5063 0.51564 0.14798 0.0
C2908 C 0.50452 0.53387 0.15009 0.0
C2909 C 0.51057 0.54845 0.13741 0.0
C2910 C 0.51909 0.54529 0.12316 0.0
C2911 C 0.49692 0.53796 0.16568 0.0
C2912 C 0.47983 0.54234 0.16563 0.0
C2913 C 0.50614 0.53708 0.1806 0.0
C2914 C 0.52537 0.53431 0.18153 0.0
C2915 C 0.54452 0.5482 0.17335 0.0
C2916 C 0.56252 0.54541 0.17416 0.0
C2917 C 0.56164 0.52887 0.18323 0.0
C2918 C 0.54276 0.51513 0.19154 0.0
C2919 C 0.5247 0.51784 0.19075 0.0
H2920 H 0.57559 0.52674 0.18384 0.0
H2921 H 0.40496 0.56035 0.17725 0.0
H2922 H 0.88551 0.45462 0.79651 0.0
H2923 H 0.90253 0.46293 0.82324 0.0
H2924 H 0.94601 0.4413 0.80797 0.0
H2925 H 0.92989 0.43385 0.78111 0.0
H2926 H 0.92431 0.42424 0.83806 0.0
H2927 H 0.96509 0.49135 0.81001 0.0
H2928 H 0.96868 0.52204 0.79492 0.0
H2929 H 0.93989 0.53767 0.83412 0.0
H2930 H 0.93585 0.50686 0.84935 0.0
H2931 H 0.01007 0.46023 0.89265 0.0
H2932 H 0.98704 0.45293 0.869 0.0
H2933 H 0.95916 0.48799 0.89021 0.0
H2934 H 0.98295 0.49622 0.9137 0.0
H2935 H 0.96777 0.49774 0.85929 0.0
H2936 H 0.93041 0.43398 0.88884 0.0
H2937 H 0.92548 0.40317 0.90446 0.0
H2938 H 0.94507 0.38051 0.86365 0.0
H2939 H 0.95043 0.41136 0.84784 0.0
C2940 C 0.89888 0.45189 0.79876 0.0
C2941 C 0.90625 0.44345 0.78665 0.0
C2942 C 0.90847 0.45652 0.81406 0.0
C2943 C 0.92543 0.45263 0.81752 0.0
C2944 C 0.93279 0.44422 0.80552 0.0
C2945 C 0.92345 0.43986 0.79021 0.0
C2946 C 0.93566 0.45725 0.83363 0.0
C2947 C 0.93392 0.44029 0.84271 0.0
C2948 C 0.94744 0.47813 0.83986 0.0
C2949 C 0.94991 0.49665 0.83072 0.0
C2950 C 0.95933 0.5012 0.81534 0.0
C2951 C 0.96149 0.51865 0.80678 0.0
C2952 C 0.95445 0.53175 0.81353 0.0
C2953 C 0.94529 0.52748 0.82888 0.0
C2954 C 0.94307 0.51003 0.83749 0.0
C2955 C 0.99922 0.4666 0.89224 0.0
C2956 C 0.99837 0.47882 0.90506 0.0
C2957 C 0.98585 0.46217 0.87879 0.0
C2958 C 0.97111 0.4696 0.87796 0.0
C2959 C 0.97032 0.48198 0.89066 0.0
C2960 C 0.9838 0.48652 0.90412 0.0
C2961 C 0.95699 0.46474 0.8636 0.0
C2962 C 0.95791 0.48162 0.85483 0.0
C2963 C 0.94418 0.44372 0.85774 0.0
C2964 C 0.94097 0.42509 0.86718 0.0
C2965 C 0.93383 0.42252 0.88323 0.0
C2966 C 0.93093 0.40503 0.89211 0.0
C2967 C 0.935 0.38991 0.88506 0.0
C2968 C 0.94193 0.39224 0.8691 0.0
C2969 C 0.94488 0.40971 0.86016 0.0
H2970 H 0.93274 0.37638 0.89196 0.0
H2971 H 0.95614 0.54526 0.80689 0.0
H2972 H 0.60684 0.48134 0.79537 0.0
H2973 H 0.59699 0.48918 0.8217 0.0
H2974 H 0.53095 0.46326 0.80542 0.0
H2975 H 0.54081 0.45614 0.77897 0.0
H2976 H 0.54418 0.49969 0.82074 0.0
H2977 H 0.54659 0.43578 0.83091 0.0
H2978 H 0.56337 0.41327 0.83153 0.0
H2979 H 0.61323 0.45786 0.86327 0.0
H2980 H 0.59689 0.48078 0.86266 0.0
H2981 H 0.48638 0.48258 0.89241 0.0
H2982 H 0.5014 0.47655 0.86793 0.0
H2983 H 0.56545 0.50984 0.88887 0.0
H2984 H 0.55056 0.51636 0.91344 0.0
H2985 H 0.55671 0.47255 0.87199 0.0
H2986 H 0.55276 0.53537 0.86294 0.0
H2987 H 0.53531 0.55728 0.86256 0.0
H2988 H 0.48789 0.51424 0.82865 0.0
H2989 H 0.50488 0.49188 0.82901 0.0
C2990 C 0.59025 0.47743 0.79737 0.0
C2991 C 0.57461 0.46803 0.78505 0.0
C2992 C 0.58459 0.48173 0.81248 0.0
C2993 C 0.56317 0.47661 0.81561 0.0
C2994 C 0.54757 0.4673 0.80332 0.0
C2995 C 0.5532 0.46305 0.78823 0.0
C2996 C 0.55692 0.48131 0.83152 0.0
C2997 C 0.54674 0.49356 0.83191 0.0
C2998 C 0.56084 0.47388 0.84619 0.0
C2999 C 0.57066 0.46011 0.84659 0.0
C3000 C 0.56123 0.44087 0.83791 0.0
C3001 C 0.57064 0.42802 0.83828 0.0
C3002 C 0.58939 0.43416 0.8474 0.0
C3003 C 0.59873 0.45314 0.85619 0.0
C3004 C 0.5894 0.46606 0.85585 0.0
C3005 C 0.50369 0.48876 0.89182 0.0
C3006 C 0.51729 0.50023 0.90483 0.0
C3007 C 0.51223 0.48519 0.87783 0.0
C3008 C 0.53457 0.493 0.87649 0.0
C3009 C 0.54816 0.50372 0.88965 0.0
C3010 C 0.53961 0.50738 0.90369 0.0
C3011 C 0.54359 0.49051 0.86107 0.0
C3012 C 0.55432 0.47877 0.8608 0.0
C3013 C 0.54015 0.49836 0.84647 0.0
C3014 C 0.53 0.51186 0.8461 0.0
C3015 C 0.53852 0.53049 0.85549 0.0
C3016 C 0.52872 0.543 0.85527 0.0
C3017 C 0.51048 0.53713 0.84561 0.0
C3018 C 0.50202 0.51876 0.83613 0.0
C3019 C 0.51174 0.50617 0.83633 0.0
H3020 H 0.50291 0.54684 0.84546 0.0
H3021 H 0.59666 0.42419 0.84767 0.0
H3022 H 0.52149 0.09315 0.78084 0.0
H3023 H 0.51288 0.07775 0.80771 0.0
H3024 H 0.57834 0.12092 0.82333 0.0
H3025 H 0.58707 0.13666 0.79639 0.0
H3026 H 0.56332 0.08021 0.83442 0.0
H3027 H 0.53887 0.13065 0.8339 0.0
H3028 H 0.5194 0.14779 0.82275 0.0
H3029 H 0.45909 0.08923 0.82648 0.0
H3030 H 0.47825 0.07164 0.83745 0.0
H3031 H 0.53405 0.04886 0.91597 0.0
H3032 H 0.54783 0.07164 0.89224 0.0
H3033 H 0.4844 0.03779 0.87026 0.0
H3034 H 0.47039 0.01573 0.89412 0.0
H3035 H 0.50185 0.07815 0.8639 0.0
H3036 H 0.5259 0.02679 0.86127 0.0
H3037 H 0.5447 0.00836 0.87123 0.0
H3038 H 0.60489 0.0674 0.87262 0.0
H3039 H 0.58637 0.08623 0.86285 0.0
C3040 C 0.53406 0.0995 0.78999 0.0
C3041 C 0.55491 0.11635 0.78648 0.0
C3042 C 0.52911 0.09063 0.80536 0.0
C3043 C 0.54486 0.09841 0.81763 0.0
C3044 C 0.56591 0.11472 0.81407 0.0
C3045 C 0.57089 0.12365 0.79865 0.0
C3046 C 0.53908 0.08959 0.83417 0.0
C3047 C 0.55015 0.08011 0.84102 0.0
C3048 C 0.52167 0.08915 0.84267 0.0
C3049 C 0.51003 0.09979 0.8364 0.0
C3050 C 0.52147 0.12139 0.83227 0.0
C3051 C 0.51049 0.13119 0.82599 0.0
C3052 C 0.48802 0.11959 0.82388 0.0
C3053 C 0.47649 0.09819 0.82811 0.0
C3054 C 0.4874 0.0883 0.83439 0.0
C3055 C 0.52297 0.04652 0.9062 0.0
C3056 C 0.50118 0.0302 0.90686 0.0
C3057 C 0.53091 0.05942 0.89256 0.0
C3058 C 0.51728 0.05616 0.87927 0.0
C3059 C 0.49533 0.04055 0.88026 0.0
C3060 C 0.48737 0.02777 0.89388 0.0
C3061 C 0.52577 0.06832 0.86406 0.0
C3062 C 0.51522 0.07848 0.85744 0.0
C3063 C 0.54355 0.06924 0.85573 0.0
C3064 C 0.55471 0.05794 0.86152 0.0
C3065 C 0.54311 0.03586 0.86381 0.0
C3066 C 0.55372 0.02534 0.8694 0.0
C3067 C 0.57596 0.03671 0.8726 0.0
C3068 C 0.58766 0.05862 0.87016 0.0
C3069 C 0.57712 0.06922 0.8646 0.0
H3070 H 0.58415 0.02854 0.87693 0.0
H3071 H 0.47955 0.1272 0.81899 0.0
H3072 H 0.07775 0.2082 0.563 0.0
H3073 H 0.08797 0.22525 0.53666 0.0
H3074 H 0.15527 0.25716 0.5509 0.0
H3075 H 0.14512 0.24081 0.57744 0.0
H3076 H 0.14577 0.28412 0.53695 0.0
H3077 H 0.13317 0.21429 0.52431 0.0
H3078 H 0.11212 0.1752 0.52328 0.0
H3079 H 0.06313 0.17765 0.49472 0.0
H3080 H 0.08376 0.21678 0.49575 0.0
H3081 H 0.19475 0.32395 0.46261 0.0
H3082 H 0.18255 0.30183 0.48664 0.0
H3083 H 0.11626 0.27429 0.47054 0.0
H3084 H 0.12847 0.29641 0.44631 0.0
H3085 H 0.12379 0.24467 0.48503 0.0
H3086 H 0.13614 0.31417 0.49755 0.0
H3087 H 0.15696 0.35327 0.49845 0.0
H3088 H 0.20592 0.35135 0.52743 0.0
H3089 H 0.18554 0.31221 0.5265 0.0
C3090 C 0.09473 0.21891 0.56056 0.0
C3091 C 0.1106 0.2231 0.57239 0.0
C3092 C 0.10057 0.22849 0.54541 0.0
C3093 C 0.12243 0.24235 0.54168 0.0
C3094 C 0.1383 0.24647 0.55343 0.0
C3095 C 0.13248 0.23695 0.56858 0.0
C3096 C 0.12878 0.2532 0.5258 0.0
C3097 C 0.1412 0.27543 0.52562 0.0
C3098 C 0.12228 0.24197 0.51095 0.0
C3099 C 0.10991 0.21846 0.51025 0.0
C3100 C 0.11783 0.20649 0.51791 0.0
C3101 C 0.10598 0.18433 0.51731 0.0
C3102 C 0.08627 0.17395 0.50898 0.0
C3103 C 0.07839 0.18571 0.50119 0.0
C3104 C 0.09016 0.20788 0.50176 0.0
C3105 C 0.17757 0.31308 0.46413 0.0
C3106 C 0.16254 0.31219 0.4527 0.0
C3107 C 0.17062 0.30043 0.47786 0.0
C3108 C 0.14845 0.28674 0.4806 0.0
C3109 C 0.13345 0.28484 0.46874 0.0
C3110 C 0.14043 0.29746 0.4549 0.0
C3111 C 0.14103 0.27551 0.49626 0.0
C3112 C 0.12835 0.25329 0.49638 0.0
C3113 C 0.14722 0.28672 0.51111 0.0
C3114 C 0.1594 0.31026 0.51184 0.0
C3115 C 0.15142 0.32208 0.50403 0.0
C3116 C 0.16313 0.34425 0.50455 0.0
C3117 C 0.18277 0.35479 0.51296 0.0
C3118 C 0.19071 0.34317 0.52091 0.0
C3119 C 0.17908 0.32099 0.5204 0.0
H3120 H 0.19182 0.37195 0.51335 0.0
H3121 H 0.07712 0.15679 0.50853 0.0
H3122 H 0.75647 0.84685 0.57789 0.0
H3123 H 0.74038 0.83779 0.55098 0.0
H3124 H 0.79028 0.89841 0.53346 0.0
H3125 H 0.80643 0.90762 0.56046 0.0
H3126 H 0.75158 0.89083 0.52411 0.0
H3127 H 0.78932 0.85231 0.52288 0.0
H3128 H 0.80111 0.82772 0.53263 0.0
H3129 H 0.73536 0.7763 0.53109 0.0
H3130 H 0.72312 0.80064 0.52155 0.0
H3131 H 0.71498 0.86407 0.44329 0.0
H3132 H 0.73845 0.87289 0.46701 0.0
H3133 H 0.68949 0.81686 0.49087 0.0
H3134 H 0.66608 0.80772 0.46706 0.0
H3135 H 0.7311 0.82337 0.49539 0.0
H3136 H 0.69361 0.86319 0.49917 0.0
H3137 H 0.68213 0.888 0.48936 0.0
H3138 H 0.74863 0.93736 0.48593 0.0
H3139 H 0.76051 0.91274 0.49551 0.0
C3140 C 0.76422 0.8581 0.56824 0.0
C3141 C 0.78271 0.87793 0.57125 0.0
C3142 C 0.75503 0.8529 0.55287 0.0
C3143 C 0.76429 0.86732 0.54017 0.0
C3144 C 0.78291 0.88704 0.54309 0.0
C3145 C 0.79206 0.89231 0.5585 0.0
C3146 C 0.75367 0.86229 0.52414 0.0
C3147 C 0.74752 0.87628 0.51767 0.0
C3148 C 0.74799 0.8431 0.51591 0.0
C3149 C 0.75528 0.82836 0.52161 0.0
C3150 C 0.77735 0.83579 0.52473 0.0
C3151 C 0.78411 0.82189 0.5302 0.0
C3152 C 0.76899 0.80047 0.53251 0.0
C3153 C 0.74706 0.7929 0.52931 0.0
C3154 C 0.7402 0.80674 0.52385 0.0
C3155 C 0.70934 0.85348 0.45351 0.0
C3156 C 0.68865 0.83527 0.45338 0.0
C3157 C 0.72271 0.85859 0.46706 0.0
C3158 C 0.71559 0.8456 0.4807 0.0
C3159 C 0.69523 0.82708 0.48044 0.0
C3160 C 0.68182 0.822 0.46692 0.0
C3161 C 0.72892 0.85181 0.49555 0.0
C3162 C 0.73548 0.83803 0.50177 0.0
C3163 C 0.73508 0.87123 0.50355 0.0
C3164 C 0.72795 0.88607 0.49788 0.0
C3165 C 0.70579 0.87929 0.49619 0.0
C3166 C 0.69921 0.89332 0.4907 0.0
C3167 C 0.71464 0.91422 0.48697 0.0
C3168 C 0.73669 0.92115 0.48879 0.0
C3169 C 0.74336 0.90717 0.49426 0.0
H3170 H 0.70952 0.92506 0.48272 0.0
H3171 H 0.77427 0.78973 0.53674 0.0
H3172 H 0.10028 0.89362 0.56254 0.0
H3173 H 0.10782 0.88564 0.53527 0.0
H3174 H 0.16449 0.88543 0.55329 0.0
H3175 H 0.15733 0.89389 0.5804 0.0
H3176 H 0.15008 0.91117 0.51719 0.0
H3177 H 0.16035 0.83998 0.53385 0.0
H3178 H 0.14636 0.81096 0.55364 0.0
H3179 H 0.08716 0.81263 0.55716 0.0
H3180 H 0.10065 0.8414 0.53722 0.0
H3181 H 0.21459 0.88935 0.46353 0.0
H3182 H 0.19793 0.89532 0.48727 0.0
H3183 H 0.13516 0.84549 0.47143 0.0
H3184 H 0.15175 0.83966 0.44746 0.0
H3185 H 0.1465 0.84275 0.50457 0.0
H3186 H 0.1429 0.89186 0.46819 0.0
H3187 H 0.15737 0.92104 0.44856 0.0
H3188 H 0.20242 0.96336 0.48401 0.0
H3189 H 0.18844 0.93434 0.5038 0.0
C3190 C 0.11429 0.8918 0.56063 0.0
C3191 C 0.12827 0.89438 0.5735 0.0
C3192 C 0.11862 0.88736 0.5451 0.0
C3193 C 0.13667 0.88494 0.54233 0.0
C3194 C 0.15046 0.88722 0.55522 0.0
C3195 C 0.14639 0.89206 0.57065 0.0
C3196 C 0.1414 0.88015 0.52599 0.0
C3197 C 0.14916 0.89618 0.51435 0.0
C3198 C 0.14002 0.86053 0.52234 0.0
C3199 C 0.13161 0.84299 0.53416 0.0
C3200 C 0.14431 0.83409 0.5388 0.0
C3201 C 0.13647 0.81769 0.55005 0.0
C3202 C 0.11591 0.81 0.55669 0.0
C3203 C 0.10312 0.81865 0.55206 0.0
C3204 C 0.11087 0.83503 0.5408 0.0
C3205 C 0.19722 0.87974 0.46509 0.0
C3206 C 0.18443 0.86402 0.45372 0.0
C3207 C 0.18774 0.88323 0.47859 0.0
C3208 C 0.16533 0.87088 0.48105 0.0
C3209 C 0.15248 0.8552 0.4697 0.0
C3210 C 0.16193 0.85195 0.45603 0.0
C3211 C 0.1556 0.87392 0.49584 0.0
C3212 C 0.1471 0.85763 0.50727 0.0
C3213 C 0.15633 0.89332 0.49929 0.0
C3214 C 0.16471 0.91086 0.48745 0.0
C3215 C 0.15601 0.90734 0.47177 0.0
C3216 C 0.16411 0.92386 0.46062 0.0
C3217 C 0.18083 0.94403 0.46503 0.0
C3218 C 0.18947 0.94772 0.48062 0.0
C3219 C 0.18144 0.93125 0.49181 0.0
H3220 H 0.18706 0.9568 0.45639 0.0
H3221 H 0.10988 0.79731 0.5654 0.0
H3222 H 0.58664 0.80594 0.11518 0.0
H3223 H 0.60498 0.81405 0.14131 0.0
H3224 H 0.55892 0.75142 0.15803 0.0
H3225 H 0.54026 0.7432 0.13184 0.0
H3226 H 0.57017 0.78542 0.18125 0.0
H3227 H 0.60375 0.75756 0.14615 0.0
H3228 H 0.62082 0.75551 0.12094 0.0
H3229 H 0.67194 0.81991 0.12763 0.0
H3230 H 0.65497 0.82245 0.15278 0.0
H3231 H 0.63374 0.78346 0.24709 0.0
H3232 H 0.61074 0.77566 0.2232 0.0
H3233 H 0.66065 0.83227 0.20048 0.0
H3234 H 0.68385 0.83985 0.22422 0.0
H3235 H 0.64609 0.80022 0.18048 0.0
H3236 H 0.61338 0.82837 0.2158 0.0
H3237 H 0.59655 0.8309 0.24098 0.0
H3238 H 0.54403 0.76723 0.23402 0.0
H3239 H 0.56078 0.76415 0.20894 0.0
C3240 C 0.58015 0.79402 0.12451 0.0
C3241 C 0.56204 0.77392 0.12149 0.0
C3242 C 0.5907 0.79864 0.13939 0.0
C3243 C 0.58335 0.78327 0.1515 0.0
C3244 C 0.56479 0.76346 0.14879 0.0
C3245 C 0.55428 0.75875 0.13383 0.0
C3246 C 0.59599 0.78753 0.16656 0.0
C3247 C 0.58668 0.7884 0.18119 0.0
C3248 C 0.61763 0.79181 0.1663 0.0
C3249 C 0.62798 0.79026 0.15126 0.0
C3250 C 0.61854 0.77134 0.14218 0.0
C3251 C 0.62821 0.77008 0.12791 0.0
C3252 C 0.64742 0.78759 0.12266 0.0
C3253 C 0.65704 0.80637 0.1317 0.0
C3254 C 0.64741 0.80773 0.14597 0.0
C3255 C 0.63966 0.79434 0.23705 0.0
C3256 C 0.66056 0.81224 0.23745 0.0
C3257 C 0.62651 0.78991 0.22343 0.0
C3258 C 0.63389 0.8035 0.21011 0.0
C3259 C 0.65464 0.82154 0.21061 0.0
C3260 C 0.66788 0.82585 0.22414 0.0
C3261 C 0.62045 0.79843 0.19532 0.0
C3262 C 0.6296 0.7973 0.18066 0.0
C3263 C 0.59872 0.79404 0.19559 0.0
C3264 C 0.58846 0.79596 0.21056 0.0
C3265 C 0.59832 0.81485 0.21969 0.0
C3266 C 0.58878 0.81639 0.23394 0.0
C3267 C 0.56925 0.79922 0.23912 0.0
C3268 C 0.55918 0.7805 0.23001 0.0
C3269 C 0.56869 0.77885 0.21577 0.0
H3270 H 0.56192 0.80041 0.25018 0.0
H3271 H 0.65489 0.78658 0.11161 0.0
H3272 H 0.27929 0.81242 0.12962 0.0
H3273 H 0.26923 0.82094 0.15561 0.0
H3274 H 0.20232 0.78976 0.14042 0.0
H3275 H 0.21231 0.78161 0.11431 0.0
H3276 H 0.21507 0.82821 0.1538 0.0
H3277 H 0.22006 0.76641 0.16699 0.0
H3278 H 0.23802 0.74503 0.16875 0.0
H3279 H 0.2879 0.79278 0.19876 0.0
H3280 H 0.27039 0.8146 0.19699 0.0
H3281 H 0.16105 0.81962 0.22578 0.0
H3282 H 0.17458 0.81052 0.20186 0.0
H3283 H 0.23933 0.84331 0.22167 0.0
H3284 H 0.22578 0.85246 0.24581 0.0
H3285 H 0.23039 0.80617 0.2064 0.0
H3286 H 0.22517 0.86748 0.19405 0.0
H3287 H 0.20751 0.88914 0.19246 0.0
H3288 H 0.15886 0.84306 0.16076 0.0
H3289 H 0.17605 0.82095 0.16236 0.0
C3290 C 0.26244 0.80743 0.13181 0.0
C3291 C 0.24659 0.79631 0.11991 0.0
C3292 C 0.2567 0.81215 0.14672 0.0
C3293 C 0.235 0.80584 0.15001 0.0
C3294 C 0.21915 0.79473 0.13815 0.0
C3295 C 0.22487 0.78995 0.12328 0.0
C3296 C 0.22879 0.81132 0.16559 0.0
C3297 C 0.21819 0.82317 0.16528 0.0
C3298 C 0.23353 0.80536 0.18061 0.0
C3299 C 0.24404 0.79224 0.18171 0.0
C3300 C 0.23496 0.77244 0.17385 0.0
C3301 C 0.24504 0.76022 0.17487 0.0
C3302 C 0.26412 0.76757 0.18382 0.0
C3303 C 0.27314 0.78712 0.19181 0.0
C3304 C 0.26313 0.79941 0.19081 0.0
C3305 C 0.17818 0.8249 0.22506 0.0
C3306 C 0.19241 0.83703 0.23756 0.0
C3307 C 0.18588 0.81966 0.21139 0.0
C3308 C 0.20803 0.8266 0.20983 0.0
C3309 C 0.22219 0.83789 0.2226 0.0
C3310 C 0.21444 0.84307 0.23637 0.0
C3311 C 0.2163 0.8227 0.19456 0.0
C3312 C 0.22735 0.81127 0.19491 0.0
C3313 C 0.21209 0.82912 0.17955 0.0
C3314 C 0.20181 0.84248 0.17843 0.0
C3315 C 0.21062 0.86189 0.18683 0.0
C3316 C 0.2007 0.87426 0.18592 0.0
C3317 C 0.18204 0.86746 0.17654 0.0
C3318 C 0.1733 0.8483 0.16803 0.0
C3319 C 0.18314 0.83585 0.16892 0.0
H3320 H 0.17439 0.87706 0.17585 0.0
H3321 H 0.2719 0.75808 0.1846 0.0
H3322 H 0.23561 0.42794 0.11356 0.0
H3323 H 0.22762 0.41123 0.1401 0.0
H3324 H 0.20255 0.45139 0.15556 0.0
H3325 H 0.21066 0.4683 0.12904 0.0
H3326 H 0.22841 0.44624 0.17931 0.0
H3327 H 0.16797 0.4035 0.14401 0.0
H3328 H 0.15071 0.38308 0.11924 0.0
H3329 H 0.1748 0.34086 0.12964 0.0
H3330 H 0.1925 0.36125 0.15436 0.0
H3331 H 0.166 0.38462 0.24652 0.0
H3332 H 0.18053 0.40627 0.22228 0.0
H3333 H 0.19474 0.35973 0.20234 0.0
H3334 H 0.17957 0.33783 0.22627 0.0
H3335 H 0.17518 0.36915 0.18086 0.0
H3336 H 0.23418 0.41007 0.21679 0.0
H3337 H 0.25181 0.43009 0.24156 0.0
H3338 H 0.23254 0.47576 0.23017 0.0
H3339 H 0.21411 0.4556 0.20555 0.0
C3340 C 0.2287 0.43343 0.12269 0.0
C3341 C 0.22365 0.44936 0.11919 0.0
C3342 C 0.22406 0.42381 0.13782 0.0
C3343 C 0.21435 0.42997 0.14976 0.0
C3344 C 0.21004 0.4464 0.14651 0.0
C3345 C 0.21451 0.45592 0.13133 0.0
C3346 C 0.20755 0.4184 0.16527 0.0
C3347 C 0.21661 0.42943 0.17973 0.0
C3348 C 0.19251 0.3964 0.16573 0.0
C3349 C 0.18174 0.38403 0.15094 0.0
C3350 C 0.16973 0.38997 0.14094 0.0
C3351 C 0.15985 0.37838 0.12693 0.0
C3352 C 0.1617 0.36071 0.12285 0.0
C3353 C 0.1734 0.35457 0.1328 0.0
C3354 C 0.18335 0.36612 0.14682 0.0
C3355 C 0.17258 0.37925 0.23705 0.0
C3356 C 0.17162 0.35955 0.23822 0.0
C3357 C 0.18091 0.39163 0.2232 0.0
C3358 C 0.18886 0.38472 0.21043 0.0
C3359 C 0.18861 0.36538 0.21193 0.0
C3360 C 0.18 0.3529 0.22562 0.0
C3361 C 0.19619 0.39685 0.1951 0.0
C3362 C 0.1871 0.38594 0.18059 0.0
C3363 C 0.21134 0.41891 0.19464 0.0
C3364 C 0.22256 0.43118 0.20939 0.0
C3365 C 0.23352 0.42428 0.21963 0.0
C3366 C 0.2437 0.43568 0.23364 0.0
C3367 C 0.24337 0.45423 0.23743 0.0
C3368 C 0.23279 0.46139 0.22722 0.0
C3369 C 0.22243 0.44995 0.21325 0.0
H3370 H 0.25131 0.46305 0.24828 0.0
H3371 H 0.15403 0.35176 0.11199 0.0
H3372 H 0.74824 0.5428 0.89995 0.0
H3373 H 0.75694 0.55891 0.87318 0.0
H3374 H 0.8223 0.60218 0.889 0.0
H3375 H 0.81359 0.58656 0.91584 0.0
H3376 H 0.80553 0.62268 0.87316 0.0
H3377 H 0.81052 0.55988 0.86429 0.0
H3378 H 0.79735 0.52144 0.86437 0.0
H3379 H 0.74532 0.5107 0.8324 0.0
H3380 H 0.75802 0.54907 0.83232 0.0
H3381 H 0.85819 0.66623 0.80095 0.0
H3382 H 0.84691 0.64453 0.82519 0.0
H3383 H 0.78266 0.60656 0.8053 0.0
H3384 H 0.79395 0.62833 0.78085 0.0
H3385 H 0.79624 0.58236 0.82256 0.0
H3386 H 0.79156 0.64498 0.83085 0.0
H3387 H 0.80466 0.68339 0.83056 0.0
H3388 H 0.85556 0.69431 0.86375 0.0
H3389 H 0.84297 0.65597 0.86405 0.0
C3390 C 0.76445 0.55579 0.89774 0.0
C3391 C 0.78023 0.56336 0.91006 0.0
C3392 C 0.76946 0.56486 0.88238 0.0
C3393 C 0.79035 0.58166 0.87901 0.0
C3394 C 0.8061 0.58921 0.89128 0.0
C3395 C 0.80113 0.58013 0.9066 0.0
C3396 C 0.79571 0.59193 0.86291 0.0
C3397 C 0.80373 0.61387 0.86214 0.0
C3398 C 0.79272 0.58037 0.84842 0.0
C3399 C 0.78508 0.55731 0.84844 0.0
C3400 C 0.79616 0.5493 0.85739 0.0
C3401 C 0.7888 0.52753 0.85741 0.0
C3402 C 0.77047 0.51363 0.84843 0.0
C3403 C 0.75949 0.52148 0.83938 0.0
C3404 C 0.76677 0.54324 0.83933 0.0
C3405 C 0.84171 0.65313 0.80165 0.0
C3406 C 0.82687 0.64918 0.78908 0.0
C3407 C 0.83528 0.64073 0.81552 0.0
C3408 C 0.81382 0.6242 0.81722 0.0
C3409 C 0.79928 0.61931 0.80428 0.0
C3410 C 0.80575 0.63172 0.79031 0.0
C3411 C 0.80645 0.61313 0.83292 0.0
C3412 C 0.79796 0.5911 0.8336 0.0
C3413 C 0.80892 0.62456 0.84737 0.0
C3414 C 0.81642 0.64762 0.84736 0.0
C3415 C 0.80564 0.65559 0.838 0.0
C3416 C 0.81297 0.67735 0.83784 0.0
C3417 C 0.83096 0.69129 0.8471 0.0
C3418 C 0.84164 0.68349 0.85657 0.0
C3419 C 0.8344 0.66175 0.85675 0.0
H3420 H 0.83661 0.70813 0.84697 0.0
H3421 H 0.7648 0.49678 0.84846 0.0
H3422 H 0.46617 0.20544 0.8928 0.0
H3423 H 0.44662 0.19736 0.8671 0.0
H3424 H 0.41011 0.22593 0.88457 0.0
H3425 H 0.42903 0.23341 0.91041 0.0
H3426 H 0.38416 0.18828 0.8707 0.0
H3427 H 0.45069 0.2513 0.85738 0.0
H3428 H 0.49032 0.27396 0.85515 0.0
H3429 H 0.49263 0.22793 0.82395 0.0
H3430 H 0.45302 0.20485 0.82617 0.0
H3431 H 0.33846 0.19785 0.79793 0.0
H3432 H 0.36016 0.20597 0.8225 0.0
H3433 H 0.39146 0.17296 0.80349 0.0
H3434 H 0.36949 0.16437 0.77894 0.0
H3435 H 0.42036 0.21166 0.81775 0.0
H3436 H 0.35357 0.14905 0.8307 0.0
H3437 H 0.3139 0.12672 0.8328 0.0
H3438 H 0.31213 0.17236 0.86477 0.0
H3439 H 0.35179 0.19514 0.86266 0.0
C3440 C 0.45395 0.20996 0.89116 0.0
C3441 C 0.44918 0.22011 0.90362 0.0
C3442 C 0.44293 0.2055 0.87643 0.0
C3443 C 0.42704 0.21121 0.8739 0.0
C3444 C 0.42235 0.22145 0.88627 0.0
C3445 C 0.43333 0.22589 0.90098 0.0
C3446 C 0.41473 0.20591 0.85855 0.0
C3447 C 0.39207 0.19362 0.85914 0.0
C3448 C 0.42511 0.21239 0.84344 0.0
C3449 C 0.44892 0.22625 0.84208 0.0
C3450 C 0.45967 0.24593 0.85015 0.0
C3451 C 0.48212 0.25886 0.84887 0.0
C3452 C 0.49399 0.25236 0.83945 0.0
C3453 C 0.48342 0.23293 0.83126 0.0
C3454 C 0.46096 0.21992 0.83252 0.0
C3455 C 0.3498 0.19213 0.79902 0.0
C3456 C 0.35212 0.18032 0.78652 0.0
C3457 C 0.36225 0.19687 0.81303 0.0
C3458 C 0.37724 0.18988 0.81484 0.0
C3459 C 0.37998 0.1785 0.80229 0.0
C3460 C 0.36746 0.17367 0.78826 0.0
C3461 C 0.38983 0.19427 0.82997 0.0
C3462 C 0.4125 0.2063 0.82932 0.0
C3463 C 0.37948 0.1876 0.84505 0.0
C3464 C 0.35563 0.17389 0.8464 0.0
C3465 C 0.34471 0.15441 0.83807 0.0
C3466 C 0.32222 0.14166 0.83928 0.0
C3467 C 0.31049 0.14814 0.84888 0.0
C3468 C 0.32124 0.16737 0.85732 0.0
C3469 C 0.34372 0.1802 0.85614 0.0
H3470 H 0.29309 0.13825 0.8498 0.0
H3471 H 0.51137 0.2624 0.83847 0.0
H3472 H 0.76508 0.21823 0.89825 0.0
H3473 H 0.77376 0.21138 0.87113 0.0
H3474 H 0.83942 0.23275 0.88633 0.0
H3475 H 0.83082 0.23904 0.91347 0.0
H3476 H 0.83676 0.25085 0.85747 0.0
H3477 H 0.80495 0.18131 0.88209 0.0
H3478 H 0.77582 0.15004 0.89572 0.0
H3479 H 0.73274 0.1396 0.85606 0.0
H3480 H 0.76155 0.17101 0.84229 0.0
H3481 H 0.88339 0.21529 0.80042 0.0
H3482 H 0.86836 0.22254 0.82429 0.0
H3483 H 0.80492 0.19138 0.80221 0.0
H3484 H 0.81975 0.18317 0.77843 0.0
H3485 H 0.80223 0.17916 0.83249 0.0
H3486 H 0.83411 0.24575 0.80634 0.0
H3487 H 0.86232 0.27721 0.79231 0.0
H3488 H 0.90372 0.29401 0.83392 0.0
H3489 H 0.87588 0.26247 0.84814 0.0
C3490 C 0.7813 0.22122 0.89588 0.0
C3491 C 0.79728 0.2293 0.90806 0.0
C3492 C 0.78624 0.21739 0.88036 0.0
C3493 C 0.80724 0.2216 0.87673 0.0
C3494 C 0.82316 0.22957 0.88884 0.0
C3495 C 0.81822 0.23324 0.90435 0.0
C3496 C 0.8129 0.21789 0.86033 0.0
C3497 C 0.82933 0.23517 0.85203 0.0
C3498 C 0.80259 0.19756 0.853 0.0
C3499 C 0.78532 0.17865 0.86125 0.0
C3500 C 0.78921 0.17246 0.87634 0.0
C3501 C 0.77277 0.15469 0.88408 0.0
C3502 C 0.75242 0.14288 0.87678 0.0
C3503 C 0.74849 0.14879 0.86171 0.0
C3504 C 0.76487 0.16656 0.85393 0.0
C3505 C 0.8662 0.20984 0.80063 0.0
C3506 C 0.85277 0.19854 0.78751 0.0
C3507 C 0.85766 0.21424 0.81424 0.0
C3508 C 0.83554 0.20777 0.81499 0.0
C3509 C 0.82206 0.19663 0.80188 0.0
C3510 C 0.8306 0.1921 0.78824 0.0
C3511 C 0.82658 0.21206 0.82976 0.0
C3512 C 0.80949 0.19492 0.83777 0.0
C3513 C 0.83613 0.23259 0.83676 0.0
C3514 C 0.85294 0.25164 0.82827 0.0
C3515 C 0.84929 0.25606 0.81247 0.0
C3516 C 0.86521 0.27393 0.80448 0.0
C3517 C 0.88481 0.28758 0.81221 0.0
C3518 C 0.88852 0.28342 0.82795 0.0
C3519 C 0.87267 0.26556 0.83599 0.0
H3520 H 0.89711 0.30141 0.806 0.0
H3521 H 0.73971 0.12913 0.88279 0.0
H3522 H 0.25404 0.13659 0.44791 0.0
H3523 H 0.27371 0.14574 0.47358 0.0
H3524 H 0.22418 0.087 0.49394 0.0
H3525 H 0.2044 0.07766 0.46817 0.0
H3526 H 0.23968 0.12539 0.51443 0.0
H3527 H 0.26551 0.08644 0.48346 0.0
H3528 H 0.27994 0.07847 0.45911 0.0
H3529 H 0.33633 0.1406 0.46129 0.0
H3530 H 0.32204 0.14906 0.48551 0.0
H3531 H 0.29978 0.12238 0.58197 0.0
H3532 H 0.27684 0.11518 0.5582 0.0
H3533 H 0.33056 0.16556 0.53282 0.0
H3534 H 0.35366 0.17277 0.55657 0.0
H3535 H 0.3119 0.13079 0.515 0.0
H3536 H 0.28626 0.17151 0.54359 0.0
H3537 H 0.27231 0.18188 0.56696 0.0
H3538 H 0.21741 0.11887 0.56925 0.0
H3539 H 0.23083 0.10828 0.54559 0.0
C3540 C 0.24721 0.12575 0.45792 0.0
C3541 C 0.22773 0.10642 0.4561 0.0
C3542 C 0.25847 0.13096 0.47252 0.0
C3543 C 0.25037 0.117 0.48557 0.0
C3544 C 0.23061 0.09796 0.48397 0.0
C3545 C 0.21944 0.0926 0.46927 0.0
C3546 C 0.26322 0.12192 0.50057 0.0
C3547 C 0.25533 0.12629 0.51466 0.0
C3548 C 0.28384 0.12359 0.50066 0.0
C3549 C 0.2926 0.11845 0.48621 0.0
C3550 C 0.2809 0.09847 0.47867 0.0
C3551 C 0.28907 0.09385 0.4649 0.0
C3552 C 0.30902 0.10904 0.45864 0.0
C3553 C 0.32087 0.12885 0.46615 0.0
C3554 C 0.31274 0.13356 0.4799 0.0
C3555 C 0.3066 0.13218 0.57143 0.0
C3556 C 0.32854 0.1481 0.57111 0.0
C3557 C 0.29346 0.12807 0.55785 0.0
C3558 C 0.30194 0.13993 0.54376 0.0
C3559 C 0.32371 0.15617 0.54355 0.0
C3560 C 0.33689 0.16023 0.5571 0.0
C3561 C 0.28852 0.1345 0.52894 0.0
C3562 C 0.29626 0.12992 0.51484 0.0
C3563 C 0.26788 0.13284 0.52881 0.0
C3564 C 0.25964 0.13907 0.54294 0.0
C3565 C 0.27125 0.15986 0.54912 0.0
C3566 C 0.26342 0.16578 0.5624 0.0
C3567 C 0.2441 0.15099 0.56972 0.0
C3568 C 0.23241 0.1303 0.56361 0.0
C3569 C 0.24004 0.12437 0.55019 0.0
H3570 H 0.23815 0.15558 0.58007 0.0
H3571 H 0.31532 0.10544 0.44798 0.0
H3572 H 0.87766 0.10528 0.45043 0.0
H3573 H 0.86676 0.11166 0.47667 0.0
H3574 H 0.93382 0.14932 0.49098 0.0
H3575 H 0.9449 0.14204 0.46493 0.0
H3576 H 0.91009 0.1255 0.51565 0.0
H3577 H 0.90543 0.17303 0.47875 0.0
H3578 H 0.89482 0.18389 0.45385 0.0
H3579 H 0.82767 0.14419 0.46564 0.0
H3580 H 0.83788 0.13284 0.49051 0.0
H3581 H 0.88486 0.17655 0.58012 0.0
H3582 H 0.89966 0.16786 0.55657 0.0
H3583 H 0.83486 0.1266 0.53867 0.0
H3584 H 0.82002 0.1352 0.56213 0.0
H3585 H 0.86021 0.15449 0.51626 0.0
H3586 H 0.86631 0.10628 0.55332 0.0
H3587 H 0.87837 0.09703 0.57833 0.0
H3588 H 0.94464 0.14128 0.56685 0.0
H3589 H 0.93298 0.15067 0.54168 0.0
C3590 C 0.89014 0.1146 0.45922 0.0
C3591 C 0.91219 0.12317 0.4555 0.0
C3592 C 0.88387 0.11845 0.47419 0.0
C3593 C 0.89947 0.13127 0.48572 0.0
C3594 C 0.92149 0.13946 0.48224 0.0
C3595 C 0.9278 0.13547 0.46728 0.0
C3596 C 0.89266 0.13658 0.50114 0.0
C3597 C 0.8994 0.13209 0.5158 0.0
C3598 C 0.87865 0.1451 0.50137 0.0
C3599 C 0.87243 0.15195 0.48643 0.0
C3600 C 0.8884 0.16649 0.47598 0.0
C3601 C 0.88246 0.17275 0.46187 0.0
C3602 C 0.86059 0.1647 0.45814 0.0
C3603 C 0.84461 0.1504 0.46853 0.0
C3604 C 0.85046 0.14406 0.48265 0.0
C3605 C 0.87378 0.16535 0.57129 0.0
C3606 C 0.85128 0.15672 0.57287 0.0
C3607 C 0.88226 0.16038 0.55785 0.0
C3608 C 0.86836 0.14657 0.54586 0.0
C3609 C 0.84588 0.13739 0.54773 0.0
C3610 C 0.83743 0.14238 0.5611 0.0
C3611 C 0.87709 0.14284 0.53076 0.0
C3612 C 0.87086 0.14785 0.51613 0.0
C3613 C 0.89175 0.13507 0.53062 0.0
C3614 C 0.89876 0.1293 0.54568 0.0
C3615 C 0.88344 0.11411 0.55616 0.0
C3616 C 0.89021 0.10882 0.57035 0.0
C3617 C 0.91224 0.11868 0.57423 0.0
C3618 C 0.92757 0.13369 0.56384 0.0
C3619 C 0.92091 0.13894 0.54958 0.0
H3620 H 0.91743 0.11462 0.58526 0.0
H3621 H 0.85602 0.16957 0.44722 0.0
H3622 H 0.92423 0.80915 0.4636 0.0
H3623 H 0.91627 0.79389 0.49063 0.0
H3624 H 0.84947 0.75304 0.47696 0.0
H3625 H 0.85735 0.76763 0.44981 0.0
H3626 H 0.85431 0.77342 0.50655 0.0
H3627 H 0.88233 0.73328 0.47925 0.0
H3628 H 0.9097 0.72924 0.46401 0.0
H3629 H 0.95588 0.76004 0.50225 0.0
H3630 H 0.92885 0.76453 0.51763 0.0
H3631 H 0.81001 0.69077 0.56277 0.0
H3632 H 0.82362 0.71422 0.5396 0.0
H3633 H 0.88829 0.74392 0.5595 0.0
H3634 H 0.87472 0.71993 0.58266 0.0
H3635 H 0.88861 0.73405 0.52869 0.0
H3636 H 0.86014 0.77081 0.55753 0.0
H3637 H 0.83383 0.77628 0.57295 0.0
H3638 H 0.78991 0.75403 0.53267 0.0
H3639 H 0.81581 0.74808 0.51707 0.0
C3640 C 0.90789 0.79673 0.46625 0.0
C3641 C 0.89143 0.7897 0.45446 0.0
C3642 C 0.90335 0.78812 0.48176 0.0
C3643 C 0.88227 0.77233 0.48582 0.0
C3644 C 0.86582 0.76532 0.47413 0.0
C3645 C 0.87036 0.77378 0.45861 0.0
C3646 C 0.87721 0.76294 0.50219 0.0
C3647 C 0.86166 0.76466 0.51137 0.0
C3648 C 0.88744 0.75224 0.50872 0.0
C3649 C 0.90366 0.74947 0.4995 0.0
C3650 C 0.89838 0.73936 0.48435 0.0
C3651 C 0.91382 0.73696 0.47569 0.0
C3652 C 0.93454 0.74444 0.48213 0.0
C3653 C 0.93984 0.75429 0.49726 0.0
C3654 C 0.92447 0.75676 0.50595 0.0
C3655 C 0.82713 0.70237 0.56228 0.0
C3656 C 0.84132 0.70337 0.5745 0.0
C3657 C 0.83487 0.71594 0.54908 0.0
C3658 C 0.85698 0.731 0.54781 0.0
C3659 C 0.87116 0.73247 0.56022 0.0
C3660 C 0.86337 0.71886 0.5735 0.0
C3661 C 0.86525 0.74406 0.53299 0.0
C3662 C 0.88142 0.74305 0.52405 0.0
C3663 C 0.8557 0.75559 0.52675 0.0
C3664 C 0.83989 0.75884 0.53616 0.0
C3665 C 0.84479 0.76687 0.552 0.0
C3666 C 0.82996 0.7701 0.56077 0.0
C3667 C 0.81019 0.76546 0.55381 0.0
C3668 C 0.80522 0.75759 0.53805 0.0
C3669 C 0.81998 0.75431 0.52924 0.0
H3670 H 0.79874 0.76801 0.5606 0.0
H3671 H 0.94647 0.74256 0.47542 0.0
loop_
_geom_bond_atom_site_label_1
_geom_bond_atom_site_label_2
_geom_bond_distance
_geom_bond_site_symmetry_2
_ccdc_geom_bond_type
H0 C5 0.930 . S
H1 C8 0.930 . S
H2 C10 0.930 . S
H3 C4 1.016 . S
C4 H3 1.016 . S
C4 N11 1.286 . S
C5 H0 0.930 . S
C5 C6 1.397 . S
C5 C7 1.361 . S
C6 C5 1.397 . S
C6 C10 1.390 . S
C7 C5 1.361 . S
C7 C8 1.393 . S
C7 N11 1.413 . S
C8 H1 0.930 . S
C8 C7 1.393 . S
C8 C9 1.399 . S
C9 C8 1.399 . S
C9 C10 1.381 . S
C10 H2 0.930 . S
C10 C6 1.390 . S
C10 C9 1.381 . S
N11 C4 1.286 . S
N11 C7 1.413 . S
H12 C17 0.930 . S
H13 C20 0.930 . S
H14 C22 0.930 . S
H15 C16 1.016 . S
C16 H15 1.016 . S
C16 N23 1.286 . S
C17 H12 0.930 . S
C17 C18 1.397 . S
C17 C19 1.361 . S
C18 C17 1.397 . S
C18 C22 1.390 . S
C19 C17 1.361 . S
C19 C20 1.393 . S
C19 N23 1.413 . S
C20 H13 0.930 . S
C20 C19 1.393 . S
C20 C21 1.399 . S
C21 C20 1.399 . S
C21 C22 1.381 . S
C22 H14 0.930 . S
C22 C18 1.390 . S
C22 C21 1.381 . S
N23 C16 1.286 . S
N23 C19 1.413 . S
H24 C29 0.930 . S
H25 C32 0.930 . S
H26 C34 0.930 . S
H27 C28 1.016 . S
C28 H27 1.016 . S
C28 N35 1.286 . S
C29 H24 0.930 . S
C29 C30 1.397 . S
C29 C31 1.361 . S
C30 C29 1.397 . S
C30 C34 1.390 . S
C31 C29 1.361 . S
C31 C32 1.393 . S
C31 N35 1.413 . S
C32 H25 0.930 . S
C32 C31 1.393 . S
C32 C33 1.399 . S
C33 C32 1.399 . S
C33 C34 1.381 . S
C34 H26 0.930 . S
C34 C30 1.390 . S
C34 C33 1.381 . S
N35 C28 1.286 . S
N35 C31 1.413 . S
H36 C41 0.930 . S
H37 C44 0.930 . S
H38 C46 0.930 . S
H39 C40 1.016 . S
C40 H39 1.016 . S
C40 N47 1.286 . S
C41 H36 0.930 . S
C41 C42 1.397 . S
C41 C43 1.361 . S
C42 C41 1.397 . S
C42 C46 1.390 . S
C43 C41 1.361 . S
C43 C44 1.393 . S
C43 N47 1.413 . S
C44 H37 0.930 . S
C44 C43 1.393 . S
C44 C45 1.399 . S
C45 C44 1.399 . S
C45 C46 1.381 . S
C46 H38 0.930 . S
C46 C42 1.390 . S
C46 C45 1.381 . S
N47 C40 1.286 . S
N47 C43 1.413 . S
H48 C53 0.930 . S
H49 C56 0.930 . S
H50 C58 0.930 . S
H51 C52 1.016 . S
C52 H51 1.016 . S
C52 N59 1.286 . S
C53 H48 0.930 . S
C53 C54 1.397 . S
C53 C55 1.361 . S
C54 C53 1.397 . S
C54 C58 1.390 . S
C55 C53 1.361 . S
C55 C56 1.393 . S
C55 N59 1.413 . S
C56 H49 0.930 . S
C56 C55 1.393 . S
C56 C57 1.399 . S
C57 C56 1.399 . S
C57 C58 1.381 . S
C58 H50 0.930 . S
C58 C54 1.390 . S
C58 C57 1.381 . S
N59 C52 1.286 . S
N59 C55 1.413 . S
H60 C65 0.930 . S
H61 C68 0.930 . S
H62 C70 0.930 . S
H63 C64 1.016 . S
C64 H63 1.016 . S
C64 N71 1.286 . S
C65 H60 0.930 . S
C65 C66 1.397 . S
C65 C67 1.361 . S
C66 C65 1.397 . S
C66 C70 1.390 . S
C67 C65 1.361 . S
C67 C68 1.393 . S
C67 N71 1.413 . S
C68 H61 0.930 . S
C68 C67 1.393 . S
C68 C69 1.399 . S
C69 C68 1.399 . S
C69 C70 1.381 . S
C70 H62 0.930 . S
C70 C66 1.390 . S
C70 C69 1.381 . S
N71 C64 1.286 . S
N71 C67 1.413 . S
H72 C77 0.930 . S
H73 C80 0.930 . S
H74 C82 0.930 . S
H75 C76 1.016 . S
C76 H75 1.016 . S
C76 N83 1.286 . S
C77 H72 0.930 . S
C77 C78 1.397 . S
C77 C79 1.361 . S
C78 C77 1.397 . S
C78 C82 1.390 . S
C79 C77 1.361 . S
C79 C80 1.393 . S
C79 N83 1.413 . S
C80 H73 0.930 . S
C80 C79 1.393 . S
C80 C81 1.399 . S
C81 C80 1.399 . S
C81 C82 1.381 . S
C82 H74 0.930 . S
C82 C78 1.390 . S
C82 C81 1.381 . S
N83 C76 1.286 . S
N83 C79 1.413 . S
H84 C89 0.930 . S
H85 C92 0.930 . S
H86 C94 0.930 . S
H87 C88 1.016 . S
C88 H87 1.016 . S
C88 N95 1.286 . S
C89 H84 0.930 . S
C89 C90 1.397 . S
C89 C91 1.361 . S
C90 C89 1.397 . S
C90 C94 1.390 . S
C91 C89 1.361 . S
C91 C92 1.393 . S
C91 N95 1.413 . S
C92 H85 0.930 . S
C92 C91 1.393 . S
C92 C93 1.399 . S
C93 C92 1.399 . S
C93 C94 1.381 . S
C94 H86 0.930 . S
C94 C90 1.390 . S
C94 C93 1.381 . S
N95 C88 1.286 . S
N95 C91 1.413 . S
H96 C101 0.930 . S
H97 C104 0.930 . S
H98 C106 0.930 . S
H99 C100 1.016 . S
C100 H99 1.016 . S
C100 N107 1.286 . S
C101 H96 0.930 . S
C101 C102 1.397 . S
C101 C103 1.361 . S
C102 C101 1.397 . S
C102 C106 1.390 . S
C103 C101 1.361 . S
C103 C104 1.393 . S
C103 N107 1.413 . S
C104 H97 0.930 . S
C104 C103 1.393 . S
C104 C105 1.399 . S
C105 C104 1.399 . S
C105 C106 1.381 . S
C106 H98 0.930 . S
C106 C102 1.390 . S
C106 C105 1.381 . S
N107 C100 1.286 . S
N107 C103 1.413 . S
H108 C113 0.930 . S
H109 C116 0.930 . S
H110 C118 0.930 . S
H111 C112 1.016 . S
C112 H111 1.016 . S
C112 N119 1.286 . S
C113 H108 0.930 . S
C113 C114 1.397 . S
C113 C115 1.361 . S
C114 C113 1.397 . S
C114 C118 1.390 . S
C115 C113 1.361 . S
C115 C116 1.393 . S
C115 N119 1.413 . S
C116 H109 0.930 . S
C116 C115 1.393 . S
C116 C117 1.399 . S
C117 C116 1.399 . S
C117 C118 1.381 . S
C118 H110 0.930 . S
C118 C114 1.390 . S
C118 C117 1.381 . S
N119 C112 1.286 . S
N119 C115 1.413 . S
H120 C125 0.930 . S
H121 C128 0.930 . S
H122 C130 0.930 . S
H123 C124 1.016 . S
C124 H123 1.016 . S
C124 N131 1.286 . S
C125 H120 0.930 . S
C125 C126 1.397 . S
C125 C127 1.361 . S
C126 C125 1.397 . S
C126 C130 1.390 . S
C127 C125 1.361 . S
C127 C128 1.393 . S
C127 N131 1.413 . S
C128 H121 0.930 . S
C128 C127 1.393 . S
C128 C129 1.399 . S
C129 C128 1.399 . S
C129 C130 1.381 . S
C130 H122 0.930 . S
C130 C126 1.390 . S
C130 C129 1.381 . S
N131 C124 1.286 . S
N131 C127 1.413 . S
H132 C137 0.930 . S
H133 C140 0.930 . S
H134 C142 0.930 . S
H135 C136 1.016 . S
C136 H135 1.016 . S
C136 N143 1.286 . S
C137 H132 0.930 . S
C137 C138 1.397 . S
C137 C139 1.361 . S
C138 C137 1.397 . S
C138 C142 1.390 . S
C139 C137 1.361 . S
C139 C140 1.393 . S
C139 N143 1.413 . S
C140 H133 0.930 . S
C140 C139 1.393 . S
C140 C141 1.399 . S
C141 C140 1.399 . S
C141 C142 1.381 . S
C142 H134 0.930 . S
C142 C138 1.390 . S
C142 C141 1.381 . S
N143 C136 1.286 . S
N143 C139 1.413 . S
H144 C149 0.930 . S
H145 C152 0.930 . S
H146 C154 0.930 . S
H147 C148 1.016 . S
C148 H147 1.016 . S
C148 N155 1.286 . S
C149 H144 0.930 . S
C149 C150 1.397 . S
C149 C151 1.361 . S
C150 C149 1.397 . S
C150 C154 1.390 . S
C151 C149 1.361 . S
C151 C152 1.393 . S
C151 N155 1.413 . S
C152 H145 0.930 . S
C152 C151 1.393 . S
C152 C153 1.399 . S
C153 C152 1.399 . S
C153 C154 1.381 . S
C154 H146 0.930 . S
C154 C150 1.390 . S
C154 C153 1.381 . S
N155 C148 1.286 . S
N155 C151 1.413 . S
H156 C161 0.930 . S
H157 C164 0.930 . S
H158 C166 0.930 . S
H159 C160 1.016 . S
C160 H159 1.016 . S
C160 N167 1.286 . S
C161 H156 0.930 . S
C161 C162 1.397 . S
C161 C163 1.361 . S
C162 C161 1.397 . S
C162 C166 1.390 . S
C163 C161 1.361 . S
C163 C164 1.393 . S
C163 N167 1.413 . S
C164 H157 0.930 . S
C164 C163 1.393 . S
C164 C165 1.399 . S
C165 C164 1.399 . S
C165 C166 1.381 . S
C166 H158 0.930 . S
C166 C162 1.390 . S
C166 C165 1.381 . S
N167 C160 1.286 . S
N167 C163 1.413 . S
H168 C173 0.930 . S
H169 C176 0.930 . S
H170 C178 0.930 . S
H171 C172 1.016 . S
C172 H171 1.016 . S
C172 N179 1.286 . S
C173 H168 0.930 . S
C173 C174 1.397 . S
C173 C175 1.361 . S
C174 C173 1.397 . S
C174 C178 1.390 . S
C175 C173 1.361 . S
C175 C176 1.393 . S
C175 N179 1.413 . S
C176 H169 0.930 . S
C176 C175 1.393 . S
C176 C177 1.399 . S
C177 C176 1.399 . S
C177 C178 1.381 . S
C178 H170 0.930 . S
C178 C174 1.390 . S
C178 C177 1.381 . S
N179 C172 1.286 . S
N179 C175 1.413 . S
H180 C185 0.930 . S
H181 C188 0.930 . S
H182 C190 0.930 . S
H183 C184 1.016 . S
C184 H183 1.016 . S
C184 N191 1.286 . S
C185 H180 0.930 . S
C185 C186 1.397 . S
C185 C187 1.361 . S
C186 C185 1.397 . S
C186 C190 1.390 . S
C187 C185 1.361 . S
C187 C188 1.393 . S
C187 N191 1.413 . S
C188 H181 0.930 . S
C188 C187 1.393 . S
C188 C189 1.399 . S
C189 C188 1.399 . S
C189 C190 1.381 . S
C190 H182 0.930 . S
C190 C186 1.390 . S
C190 C189 1.381 . S
N191 C184 1.286 . S
N191 C187 1.413 . S
H192 C197 0.930 . S
H193 C200 0.930 . S
H194 C202 0.930 . S
H195 C196 1.016 . S
C196 H195 1.016 . S
C196 N203 1.286 . S
C197 H192 0.930 . S
C197 C198 1.397 . S
C197 C199 1.361 . S
C198 C197 1.397 . S
C198 C202 1.390 . S
C199 C197 1.361 . S
C199 C200 1.393 . S
C199 N203 1.413 . S
C200 H193 0.930 . S
C200 C199 1.393 . S
C200 C201 1.399 . S
C201 C200 1.399 . S
C201 C202 1.381 . S
C202 H194 0.930 . S
C202 C198 1.390 . S
C202 C201 1.381 . S
N203 C196 1.286 . S
N203 C199 1.413 . S
H204 C209 0.930 . S
H205 C212 0.930 . S
H206 C214 0.930 . S
H207 C208 1.016 . S
C208 H207 1.016 . S
C208 N215 1.286 . S
C209 H204 0.930 . S
C209 C210 1.397 . S
C209 C211 1.361 . S
C210 C209 1.397 . S
C210 C214 1.390 . S
C211 C209 1.361 . S
C211 C212 1.393 . S
C211 N215 1.413 . S
C212 H205 0.930 . S
C212 C211 1.393 . S
C212 C213 1.399 . S
C213 C212 1.399 . S
C213 C214 1.381 . S
C214 H206 0.930 . S
C214 C210 1.390 . S
C214 C213 1.381 . S
N215 C208 1.286 . S
N215 C211 1.413 . S
Tb216 N247 2.660 . S
Tb216 N254 2.600 . S
Tb216 O260 2.546 . S
Tb216 O261 2.610 1_566 S
Tb216 O263 2.320 1_565 S
Tb216 O264 2.552 1_565 S
Tb216 O265 2.413 1_565 S
Tb216 O267 2.362 1_556 S
Tb216 O268 2.421 1_556 S
Tb216 C280 2.833 1_565 S
C217 C220 1.432 . S
C217 C221 1.414 . S
C217 N224 1.359 . S
C218 C220 1.417 . S
C218 C222 1.432 . S
C218 C230 1.410 . S
C219 C221 1.444 . S
C219 C222 1.317 . S
C219 H242 0.929 . S
C220 C217 1.432 . S
C220 C218 1.417 . S
C220 N228 1.360 . S
C221 C217 1.414 . S
C221 C219 1.444 . S
C221 C226 1.385 . S
C222 C218 1.432 . S
C222 C219 1.317 . S
C222 H234 0.930 . S
C223 C225 1.392 . S
C223 C226 1.370 . S
C223 H235 0.931 . S
N224 C217 1.359 . S
N224 C225 1.327 . S
N224 Tb227 2.600 . S
C225 C223 1.392 . S
C225 N224 1.327 . S
C225 H232 0.930 . S
C226 C221 1.385 . S
C226 C223 1.370 . S
C226 H245 0.930 . S
Tb227 N224 2.600 . S
Tb227 N228 2.660 . S
Tb227 O261 2.362 . S
Tb227 O262 2.421 . S
Tb227 O266 2.546 . S
Tb227 O267 2.610 1_545 S
Tb227 O269 2.320 1_545 S
Tb227 O270 2.552 1_545 S
Tb227 O271 2.388 1_545 S
Tb227 C291 2.833 . S
N228 C220 1.360 . S
N228 Tb227 2.660 . S
N228 C229 1.305 . S
C229 N228 1.305 . S
C229 C231 1.407 . S
C229 H236 0.930 . S
C230 C218 1.410 . S
C230 C231 1.345 . S
C230 H238 0.930 . S
C231 C229 1.407 . S
C231 C230 1.345 . S
C231 H233 0.930 . S
H232 C225 0.930 . S
H233 C231 0.930 . S
H234 C222 0.930 . S
H235 C223 0.931 . S
H236 C229 0.930 . S
H237 C251 0.930 . S
H238 C230 0.930 . S
H239 C257 0.930 . S
H240 C248 0.932 . S
H241 C255 0.931 . S
H242 C219 0.929 . S
H243 C249 0.930 . S
H244 C282 0.930 . S
H245 C226 0.930 . S
H246 C281 0.929 . S
N247 Tb216 2.660 . S
N247 C248 1.305 . S
N247 C252 1.360 . S
C248 H240 0.932 . S
C248 N247 1.305 . S
C248 C251 1.407 . S
C249 H243 0.930 . S
C249 C250 1.410 . S
C249 C251 1.345 . S
C250 C249 1.410 . S
C250 C252 1.417 . S
C250 C282 1.432 . S
C251 H237 0.930 . S
C251 C248 1.407 . S
C251 C249 1.345 . S
C252 N247 1.360 . S
C252 C250 1.417 . S
C252 C256 1.432 . S
H253 C258 0.930 . S
N254 Tb216 2.600 . S
N254 C256 1.359 . S
N254 C257 1.327 . S
C255 H241 0.931 . S
C255 C257 1.392 . S
C255 C258 1.370 . S
C256 C252 1.432 . S
C256 N254 1.359 . S
C256 C259 1.414 . S
C257 H239 0.930 . S
C257 N254 1.327 . S
C257 C255 1.392 . S
C258 H253 0.930 . S
C258 C255 1.370 . S
C258 C259 1.385 . S
C259 C256 1.414 . S
C259 C258 1.385 . S
C259 C281 1.444 . S
O260 Tb216 2.546 . S
O260 C280 1.251 1_565 S
O261 Tb216 2.610 1_544 S
O261 Tb227 2.362 . S
O261 C272 1.283 1_554 S
O262 Tb227 2.421 . S
O262 C279 1.262 . S
O263 Tb216 2.320 1_545 S
O263 C279 1.260 1_556 S
O264 Tb216 2.552 1_545 S
O264 C272 1.243 . S
O265 Tb216 2.413 1_545 S
O265 C280 1.256 . S
O266 Tb227 2.546 . S
O266 C291 1.251 . S
O267 Tb216 2.362 1_554 S
O267 Tb227 2.610 1_565 S
O267 C283 1.283 . S
O268 Tb216 2.421 1_554 S
O268 C290 1.262 . S
O269 Tb227 2.320 1_565 S
O269 C290 1.260 . S
O270 Tb227 2.552 1_565 S
O270 C283 1.243 . S
O271 Tb227 2.388 1_565 S
O271 C291 1.215 1_565 S
C272 O261 1.283 1_556 S
C272 O264 1.243 . S
C273 C275 1.382 . S
C273 C277 1.393 1_545 S
C273 C280 1.500 . S
C274 C275 1.400 . S
C274 C276 1.384 . S
C275 C273 1.382 . S
C275 C274 1.400 . S
C275 H292 0.930 . S
C276 C274 1.384 . S
C276 C278 1.362 1_545 S
C276 H293 0.931 . S
C277 C273 1.393 1_565 S
C277 C278 1.407 . S
C277 H294 0.930 . S
C278 C276 1.362 1_565 S
C278 C277 1.407 . S
C278 H295 0.955 . S
C279 O262 1.262 . S
C279 O263 1.260 1_554 S
C280 Tb216 2.833 1_545 S
C280 O260 1.251 1_545 S
C280 O265 1.256 . S
C280 C273 1.500 . S
C281 H246 0.929 . S
C281 C259 1.444 . S
C281 C282 1.317 . S
C282 H244 0.930 . S
C282 C250 1.432 . S
C282 C281 1.317 . S
C283 O267 1.283 . S
C283 O270 1.243 . S
C284 C285 1.333 1_545 S
C284 C288 1.434 . S
C284 C291 1.509 . S
C285 C284 1.333 1_565 S
C285 C286 1.400 . S
C285 H296 0.930 . S
C286 C285 1.400 . S
C286 C287 1.384 . S
C287 C286 1.384 . S
C287 C289 1.392 1_565 S
C287 H297 0.931 . S
C288 C284 1.434 . S
C288 C289 1.401 . S
C288 H298 0.930 . S
C289 C287 1.392 1_545 S
C289 C288 1.401 . S
C289 H299 0.930 . S
C290 O268 1.262 . S
C290 O269 1.260 . S
C291 Tb227 2.833 . S
C291 O266 1.251 . S
C291 O271 1.215 1_545 S
C291 C284 1.509 . S
H292 C275 0.930 . S
H293 C276 0.931 . S
H294 C277 0.930 . S
H295 C278 0.955 . S
H296 C285 0.930 . S
H297 C287 0.931 . S
H298 C288 0.930 . S
H299 C289 0.930 . S
Tb300 N331 2.660 . S
Tb300 N338 2.600 . S
Tb300 O344 2.546 . S
Tb300 O345 2.610 1_456 S
Tb300 O347 2.320 1_455 S
Tb300 O348 2.552 1_455 S
Tb300 O349 2.413 . S
Tb300 O351 2.362 1_556 S
Tb300 O352 2.421 1_556 S
Tb300 C364 2.833 . S
C301 C304 1.432 . S
C301 C305 1.414 . S
C301 N308 1.359 . S
C302 C304 1.417 . S
C302 C306 1.432 . S
C302 C314 1.410 . S
C303 C305 1.444 . S
C303 C306 1.317 . S
C303 H326 0.929 . S
C304 C301 1.432 . S
C304 C302 1.417 . S
C304 N312 1.360 . S
C305 C301 1.414 . S
C305 C303 1.444 . S
C305 C310 1.385 . S
C306 C302 1.432 . S
C306 C303 1.317 . S
C306 H318 0.930 . S
C307 C309 1.392 . S
C307 C310 1.370 . S
C307 H319 0.931 . S
N308 C301 1.359 . S
N308 C309 1.327 . S
N308 Tb311 2.600 . S
C309 C307 1.392 . S
C309 N308 1.327 . S
C309 H316 0.930 . S
C310 C305 1.385 . S
C310 C307 1.370 . S
C310 H329 0.930 . S
Tb311 N308 2.600 . S
Tb311 N312 2.660 . S
Tb311 O345 2.362 . S
Tb311 O346 2.421 . S
Tb311 O350 2.546 . S
Tb311 O351 2.610 1_655 S
Tb311 O353 2.320 1_655 S
Tb311 O354 2.552 1_655 S
Tb311 O355 2.413 1_655 S
Tb311 C375 2.833 1_655 S
N312 C304 1.360 . S
N312 Tb311 2.660 . S
N312 C313 1.305 . S
C313 N312 1.305 . S
C313 C315 1.407 . S
C313 H320 0.913 1_655 S
C314 C302 1.410 . S
C314 C315 1.345 . S
C314 H322 0.930 . S
C315 C313 1.407 . S
C315 C314 1.345 . S
C315 H317 0.930 . S
H316 C309 0.930 . S
H317 C315 0.930 . S
H318 C306 0.930 . S
H319 C307 0.931 . S
H320 C313 0.913 1_455 S
H321 C335 0.930 . S
H322 C314 0.930 . S
H323 C341 0.930 . S
H324 C332 0.930 . S
H325 C339 0.931 . S
H326 C303 0.929 . S
H327 C333 0.930 . S
H328 C366 0.930 . S
H329 C310 0.930 . S
H330 C365 0.929 . S
N331 Tb300 2.660 . S
N331 C332 1.305 . S
N331 C336 1.360 . S
C332 H324 0.930 . S
C332 N331 1.305 . S
C332 C335 1.407 . S
C333 H327 0.930 . S
C333 C334 1.410 . S
C333 C335 1.345 . S
C334 C333 1.410 . S
C334 C336 1.417 . S
C334 C366 1.432 . S
C335 H321 0.930 . S
C335 C332 1.407 . S
C335 C333 1.345 . S
C336 N331 1.360 . S
C336 C334 1.417 . S
C336 C340 1.432 . S
H337 C342 0.930 . S
N338 Tb300 2.600 . S
N338 C340 1.359 . S
N338 C341 1.327 . S
C339 H325 0.931 . S
C339 C341 1.392 . S
C339 C342 1.370 . S
C340 C336 1.432 . S
C340 N338 1.359 . S
C340 C343 1.414 . S
C341 H323 0.930 . S
C341 N338 1.327 . S
C341 C339 1.392 . S
C342 H337 0.930 . S
C342 C339 1.370 . S
C342 C343 1.385 . S
C343 C340 1.414 . S
C343 C342 1.385 . S
C343 C365 1.444 . S
O344 Tb300 2.546 . S
O344 C364 1.251 . S
O345 Tb300 2.610 1_654 S
O345 Tb311 2.362 . S
O345 C356 1.283 1_554 S
O346 Tb311 2.421 . S
O346 C363 1.262 . S
O347 Tb300 2.320 1_655 S
O347 C363 1.260 1_556 S
O348 Tb300 2.552 1_655 S
O348 C356 1.243 . S
O349 Tb300 2.413 . S
O349 C364 1.256 . S
O350 Tb311 2.546 . S
O350 C375 1.251 1_655 S
O351 Tb300 2.362 1_554 S
O351 Tb311 2.610 1_455 S
O351 C367 1.283 . S
O352 Tb300 2.421 1_554 S
O352 C374 1.262 . S
O353 Tb311 2.320 1_455 S
O353 C374 1.260 . S
O354 Tb311 2.552 1_455 S
O354 C367 1.243 . S
O355 Tb311 2.413 1_455 S
O355 C375 1.256 . S
C356 O345 1.283 1_556 S
C356 O348 1.243 . S
C357 C359 1.382 1_455 S
C357 C361 1.393 . S
C357 C364 1.500 . S
C358 C359 1.400 . S
C358 C360 1.384 . S
C359 C357 1.382 1_655 S
C359 C358 1.400 . S
C359 H376 0.930 . S
C360 C358 1.384 . S
C360 C362 1.392 1_655 S
C360 H377 0.931 . S
C361 C357 1.393 . S
C361 C362 1.401 . S
C361 H378 0.930 . S
C362 C360 1.392 1_455 S
C362 C361 1.401 . S
C362 H379 0.930 . S
C363 O346 1.262 . S
C363 O347 1.260 1_554 S
C364 Tb300 2.833 . S
C364 O344 1.251 . S
C364 O349 1.256 . S
C364 C357 1.500 . S
C365 H330 0.929 . S
C365 C343 1.444 . S
C365 C366 1.317 . S
C366 H328 0.930 . S
C366 C334 1.432 . S
C366 C365 1.317 . S
C367 O351 1.283 . S
C367 O354 1.243 . S
C368 C369 1.382 . S
C368 C372 1.393 1_455 S
C368 C375 1.500 . S
C369 C368 1.382 . S
C369 C370 1.400 . S
C369 H380 0.930 . S
C370 C369 1.400 . S
C370 C371 1.384 . S
C371 C370 1.384 . S
C371 C373 1.392 1_455 S
C371 H381 0.931 . S
C372 C368 1.393 1_655 S
C372 C373 1.401 . S
C372 H382 0.930 . S
C373 C371 1.392 1_655 S
C373 C372 1.401 . S
C373 H383 0.930 . S
C374 O352 1.262 . S
C374 O353 1.260 . S
C375 Tb311 2.833 1_455 S
C375 O350 1.251 1_455 S
C375 O355 1.256 . S
C375 C368 1.500 . S
H376 C359 0.930 . S
H377 C360 0.931 . S
H378 C361 0.930 . S
H379 C362 0.930 . S
H380 C369 0.930 . S
H381 C371 0.931 . S
H382 C372 0.930 . S
H383 C373 0.930 . S
Tb384 N415 2.660 . S
Tb384 N422 2.600 . S
Tb384 O428 2.546 . S
Tb384 O429 2.610 . S
Tb384 O431 2.320 . S
Tb384 O432 2.552 . S
Tb384 O433 2.413 . S
Tb384 O435 2.362 . S
Tb384 O436 2.421 . S
Tb384 C448 2.833 . S
C385 C388 1.432 . S
C385 C389 1.414 . S
C385 N392 1.359 . S
C386 C388 1.417 . S
C386 C390 1.432 . S
C386 C398 1.410 . S
C387 C389 1.444 . S
C387 C390 1.317 . S
C387 H410 0.929 . S
C388 C385 1.432 . S
C388 C386 1.417 . S
C388 N396 1.360 . S
C389 C385 1.414 . S
C389 C387 1.444 . S
C389 C394 1.385 . S
C390 C386 1.432 . S
C390 C387 1.317 . S
C390 H402 0.930 . S
C391 C393 1.392 . S
C391 C394 1.370 . S
C391 H403 0.931 . S
N392 C385 1.359 . S
N392 C393 1.327 . S
N392 Tb395 2.600 . S
C393 C391 1.392 . S
C393 N392 1.327 . S
C393 H400 0.930 . S
C394 C389 1.385 . S
C394 C391 1.370 . S
C394 H413 0.930 . S
Tb395 N392 2.600 . S
Tb395 N396 2.660 . S
Tb395 O429 2.362 1_556 S
Tb395 O430 2.421 1_556 S
Tb395 O434 2.546 . S
Tb395 O435 2.610 1_556 S
Tb395 O437 2.320 . S
Tb395 O438 2.552 . S
Tb395 O439 2.413 . S
Tb395 C459 2.833 . S
N396 C388 1.360 . S
N396 Tb395 2.660 . S
N396 C397 1.305 . S
C397 N396 1.305 . S
C397 C399 1.407 . S
C397 H404 0.930 . S
C398 C386 1.410 . S
C398 C399 1.345 . S
C398 H406 0.930 . S
C399 C397 1.407 . S
C399 C398 1.345 . S
C399 H401 0.930 . S
H400 C393 0.930 . S
H401 C399 0.930 . S
H402 C390 0.930 . S
H403 C391 0.931 . S
H404 C397 0.930 . S
H405 C419 0.930 . S
H406 C398 0.930 . S
H407 C425 0.930 . S
H408 C416 0.930 . S
H409 C423 0.931 . S
H410 C387 0.929 . S
H411 C417 0.930 . S
H412 C450 0.930 . S
H413 C394 0.930 . S
H414 C449 0.929 . S
N415 Tb384 2.660 . S
N415 C416 1.305 . S
N415 C420 1.360 . S
C416 H408 0.930 . S
C416 N415 1.305 . S
C416 C419 1.407 . S
C417 H411 0.930 . S
C417 C418 1.410 . S
C417 C419 1.345 . S
C418 C417 1.410 . S
C418 C420 1.417 . S
C418 C450 1.432 . S
C419 H405 0.930 . S
C419 C416 1.407 . S
C419 C417 1.345 . S
C420 N415 1.360 . S
C420 C418 1.417 . S
C420 C424 1.432 . S
H421 C426 0.930 . S
N422 Tb384 2.600 . S
N422 C424 1.359 . S
N422 C425 1.327 . S
C423 H409 0.931 . S
C423 C425 1.392 . S
C423 C426 1.370 . S
C424 C420 1.432 . S
C424 N422 1.359 . S
C424 C427 1.414 . S
C425 H407 0.930 . S
C425 N422 1.327 . S
C425 C423 1.392 . S
C426 H421 0.930 . S
C426 C423 1.370 . S
C426 C427 1.385 . S
C427 C424 1.414 . S
C427 C426 1.385 . S
C427 C449 1.444 . S
O428 Tb384 2.546 . S
O428 C448 1.251 . S
O429 Tb384 2.610 . S
O429 Tb395 2.362 1_554 S
O429 C440 1.283 . S
O430 Tb395 2.421 1_554 S
O430 C447 1.262 . S
O431 Tb384 2.320 . S
O431 C447 1.260 . S
O432 Tb384 2.552 . S
O432 C440 1.243 . S
O433 Tb384 2.413 . S
O433 C448 1.256 . S
O434 Tb395 2.546 . S
O434 C459 1.251 . S
O435 Tb384 2.362 . S
O435 Tb395 2.610 1_554 S
O435 C451 1.243 1_554 S
O436 Tb384 2.421 . S
O436 C458 1.262 . S
O437 Tb395 2.320 . S
O437 C458 1.260 1_556 S
O438 Tb395 2.552 . S
O438 C451 1.295 . S
O439 Tb395 2.413 . S
O439 C459 1.256 . S
C440 O429 1.283 . S
C440 O432 1.243 . S
C441 C443 1.382 . S
C441 C445 1.393 . S
C441 C448 1.500 . S
C442 C443 1.400 . S
C442 C444 1.384 . S
C443 C441 1.382 . S
C443 C442 1.400 . S
C443 H460 0.930 . S
C444 C442 1.384 . S
C444 C446 1.392 . S
C444 H461 0.931 . S
C445 C441 1.393 . S
C445 C446 1.401 . S
C445 H462 0.930 . S
C446 C444 1.392 . S
C446 C445 1.401 . S
C446 H463 0.930 . S
C447 O430 1.262 . S
C447 O431 1.260 . S
C448 Tb384 2.833 . S
C448 O428 1.251 . S
C448 O433 1.256 . S
C448 C441 1.500 . S
C449 H414 0.929 . S
C449 C427 1.444 . S
C449 C450 1.317 . S
C450 H412 0.930 . S
C450 C418 1.432 . S
C450 C449 1.317 . S
C451 O435 1.243 1_556 S
C451 O438 1.295 . S
C452 C453 1.382 . S
C452 C456 1.393 . S
C452 C459 1.500 . S
C453 C452 1.382 . S
C453 C454 1.400 . S
C453 H464 0.930 . S
C454 C453 1.400 . S
C454 C455 1.384 . S
C455 C454 1.384 . S
C455 C457 1.392 . S
C455 H465 0.931 . S
C456 C452 1.393 . S
C456 C457 1.401 . S
C456 H466 0.930 . S
C457 C455 1.392 . S
C457 C456 1.401 . S
C457 H467 0.930 . S
C458 O436 1.262 . S
C458 O437 1.260 1_554 S
C459 Tb395 2.833 . S
C459 O434 1.251 . S
C459 O439 1.256 . S
C459 C452 1.500 . S
H460 C443 0.930 . S
H461 C444 0.931 . S
H462 C445 0.930 . S
H463 C446 0.930 . S
H464 C453 0.930 . S
H465 C455 0.931 . S
H466 C456 0.930 . S
H467 C457 0.930 . S
Tb468 N499 2.660 . S
Tb468 N506 2.600 . S
Tb468 O512 2.546 . S
Tb468 O513 2.610 . S
Tb468 O515 2.320 . S
Tb468 O516 2.552 . S
Tb468 O517 2.413 . S
Tb468 O519 2.362 . S
Tb468 O520 2.421 . S
Tb468 C532 2.833 . S
C469 C472 1.432 . S
C469 C473 1.414 . S
C469 N476 1.359 . S
C470 C472 1.417 . S
C470 C474 1.432 . S
C470 C482 1.410 . S
C471 C473 1.444 . S
C471 C474 1.317 . S
C471 H494 0.929 . S
C472 C469 1.432 . S
C472 C470 1.417 . S
C472 N480 1.360 . S
C473 C469 1.414 . S
C473 C471 1.444 . S
C473 C478 1.385 . S
C474 C470 1.432 . S
C474 C471 1.317 . S
C474 H486 0.930 . S
C475 C477 1.392 . S
C475 C478 1.370 . S
C475 H487 0.931 . S
N476 C469 1.359 . S
N476 C477 1.327 . S
N476 Tb479 2.600 . S
C477 C475 1.392 . S
C477 N476 1.327 . S
C477 H484 0.930 . S
C478 C473 1.385 . S
C478 C475 1.370 . S
C478 H497 0.930 . S
Tb479 N476 2.600 . S
Tb479 N480 2.660 . S
Tb479 O513 2.362 . S
Tb479 O514 2.421 . S
Tb479 O518 2.546 . S
Tb479 O519 2.610 . S
Tb479 O521 2.320 . S
Tb479 O522 2.552 . S
Tb479 O523 2.413 . S
Tb479 C543 2.833 . S
N480 C472 1.360 . S
N480 Tb479 2.660 . S
N480 C481 1.305 . S
C481 N480 1.305 . S
C481 C483 1.407 . S
C481 H488 0.930 . S
C482 C470 1.410 . S
C482 C483 1.345 . S
C482 H490 0.930 . S
C483 C481 1.407 . S
C483 C482 1.345 . S
C483 H485 0.930 . S
H484 C477 0.930 . S
H485 C483 0.930 . S
H486 C474 0.930 . S
H487 C475 0.931 . S
H488 C481 0.930 . S
H489 C503 0.930 . S
H490 C482 0.930 . S
H491 C509 0.930 . S
H492 C500 0.930 . S
H493 C507 0.931 . S
H494 C471 0.929 . S
H495 C501 0.930 . S
H496 C534 0.930 . S
H497 C478 0.930 . S
H498 C533 0.929 . S
N499 Tb468 2.660 . S
N499 C500 1.305 . S
N499 C504 1.360 . S
C500 H492 0.930 . S
C500 N499 1.305 . S
C500 C503 1.407 . S
C501 H495 0.930 . S
C501 C502 1.410 . S
C501 C503 1.345 . S
C502 C501 1.410 . S
C502 C504 1.417 . S
C502 C534 1.432 . S
C503 H489 0.930 . S
C503 C500 1.407 . S
C503 C501 1.345 . S
C504 N499 1.360 . S
C504 C502 1.417 . S
C504 C508 1.432 . S
H505 C510 0.930 . S
N506 Tb468 2.600 . S
N506 C508 1.359 . S
N506 C509 1.327 . S
C507 H493 0.931 . S
C507 C509 1.392 . S
C507 C510 1.370 . S
C508 C504 1.432 . S
C508 N506 1.359 . S
C508 C511 1.414 . S
C509 H491 0.930 . S
C509 N506 1.327 . S
C509 C507 1.392 . S
C510 H505 0.930 . S
C510 C507 1.370 . S
C510 C511 1.385 . S
C511 C508 1.414 . S
C511 C510 1.385 . S
C511 C533 1.444 . S
O512 Tb468 2.546 . S
O512 C532 1.251 . S
O513 Tb468 2.610 . S
O513 Tb479 2.362 . S
O513 C524 1.283 . S
O514 Tb479 2.421 . S
O514 C531 1.262 . S
O515 Tb468 2.320 . S
O515 C531 1.260 . S
O516 Tb468 2.552 . S
O516 C524 1.243 . S
O517 Tb468 2.413 . S
O517 C532 1.256 . S
O518 Tb479 2.546 . S
O518 C543 1.251 . S
O519 Tb468 2.362 . S
O519 Tb479 2.610 . S
O519 C535 1.283 . S
O520 Tb468 2.421 . S
O520 C542 1.262 . S
O521 Tb479 2.320 . S
O521 C542 1.260 . S
O522 Tb479 2.552 . S
O522 C535 1.243 . S
O523 Tb479 2.413 . S
O523 C543 1.256 . S
C524 O513 1.283 . S
C524 O516 1.243 . S
C525 C527 1.382 . S
C525 C529 1.393 . S
C525 C532 1.500 . S
C526 C527 1.400 . S
C526 C528 1.384 . S
C527 C525 1.382 . S
C527 C526 1.400 . S
C527 H544 0.930 . S
C528 C526 1.384 . S
C528 C530 1.392 . S
C528 H545 0.931 . S
C529 C525 1.393 . S
C529 C530 1.401 . S
C529 H546 0.930 . S
C530 C528 1.392 . S
C530 C529 1.401 . S
C530 H547 0.930 . S
C531 O514 1.262 . S
C531 O515 1.260 . S
C532 Tb468 2.833 . S
C532 O512 1.251 . S
C532 O517 1.256 . S
C532 C525 1.500 . S
C533 H498 0.929 . S
C533 C511 1.444 . S
C533 C534 1.317 . S
C534 H496 0.930 . S
C534 C502 1.432 . S
C534 C533 1.317 . S
C535 O519 1.283 . S
C535 O522 1.243 . S
C536 C537 1.382 . S
C536 C540 1.393 . S
C536 C543 1.500 . S
C537 C536 1.382 . S
C537 C538 1.400 . S
C537 H548 0.930 . S
C538 C537 1.400 . S
C538 C539 1.384 . S
C539 C538 1.384 . S
C539 C541 1.392 . S
C539 H549 0.931 . S
C540 C536 1.393 . S
C540 C541 1.401 . S
C540 H550 0.930 . S
C541 C539 1.392 . S
C541 C540 1.401 . S
C541 H551 0.930 . S
C542 O520 1.262 . S
C542 O521 1.260 . S
C543 Tb479 2.833 . S
C543 O518 1.251 . S
C543 O523 1.256 . S
C543 C536 1.500 . S
H544 C527 0.930 . S
H545 C528 0.931 . S
H546 C529 0.930 . S
H547 C530 0.930 . S
H548 C537 0.930 . S
H549 C539 0.931 . S
H550 C540 0.930 . S
H551 C541 0.930 . S
Tb552 N583 2.660 . S
Tb552 N590 2.600 . S
Tb552 O596 2.546 . S
Tb552 O597 2.610 . S
Tb552 O599 2.320 . S
Tb552 O600 2.552 . S
Tb552 O601 2.413 . S
Tb552 O603 2.362 . S
Tb552 O604 2.421 . S
Tb552 C616 2.833 . S
C553 C556 1.432 . S
C553 C557 1.414 . S
C553 N560 1.359 . S
C554 C556 1.417 . S
C554 C558 1.432 . S
C554 C566 1.410 . S
C555 C557 1.444 . S
C555 C558 1.317 . S
C555 H578 0.929 . S
C556 C553 1.432 . S
C556 C554 1.417 . S
C556 N564 1.360 . S
C557 C553 1.414 . S
C557 C555 1.444 . S
C557 C562 1.385 . S
C558 C554 1.432 . S
C558 C555 1.317 . S
C558 H570 0.930 . S
C559 C561 1.392 . S
C559 C562 1.370 . S
C559 H571 0.931 . S
N560 C553 1.359 . S
N560 C561 1.327 . S
N560 Tb563 2.600 . S
C561 C559 1.392 . S
C561 N560 1.327 . S
C561 H568 0.930 . S
C562 C557 1.385 . S
C562 C559 1.370 . S
C562 H581 0.930 . S
Tb563 N560 2.600 . S
Tb563 N564 2.660 . S
Tb563 O597 2.362 . S
Tb563 O598 2.421 . S
Tb563 O602 2.546 . S
Tb563 O603 2.610 . S
Tb563 O605 2.320 . S
Tb563 O606 2.552 . S
Tb563 O607 2.413 . S
Tb563 C627 2.833 . S
N564 C556 1.360 . S
N564 Tb563 2.660 . S
N564 C565 1.305 . S
C565 N564 1.305 . S
C565 C567 1.407 . S
C565 H572 0.930 . S
C566 C554 1.410 . S
C566 C567 1.345 . S
C566 H574 0.930 . S
C567 C565 1.407 . S
C567 C566 1.345 . S
C567 H569 0.930 . S
H568 C561 0.930 . S
H569 C567 0.930 . S
H570 C558 0.930 . S
H571 C559 0.931 . S
H572 C565 0.930 . S
H573 C587 0.930 . S
H574 C566 0.930 . S
H575 C593 0.930 . S
H576 C584 0.930 . S
H577 C591 0.931 . S
H578 C555 0.929 . S
H579 C585 0.930 . S
H580 C618 0.930 . S
H581 C562 0.930 . S
H582 C617 0.929 . S
N583 Tb552 2.660 . S
N583 C584 1.305 . S
N583 C588 1.360 . S
C584 H576 0.930 . S
C584 N583 1.305 . S
C584 C587 1.407 . S
C585 H579 0.930 . S
C585 C586 1.410 . S
C585 C587 1.345 . S
C586 C585 1.410 . S
C586 C588 1.417 . S
C586 C618 1.432 . S
C587 H573 0.930 . S
C587 C584 1.407 . S
C587 C585 1.345 . S
C588 N583 1.360 . S
C588 C586 1.417 . S
C588 C592 1.432 . S
H589 C594 0.930 . S
N590 Tb552 2.600 . S
N590 C592 1.359 . S
N590 C593 1.327 . S
C591 H577 0.931 . S
C591 C593 1.392 . S
C591 C594 1.370 . S
C592 C588 1.432 . S
C592 N590 1.359 . S
C592 C595 1.414 . S
C593 H575 0.930 . S
C593 N590 1.327 . S
C593 C591 1.392 . S
C594 H589 0.930 . S
C594 C591 1.370 . S
C594 C595 1.385 . S
C595 C592 1.414 . S
C595 C594 1.385 . S
C595 C617 1.444 . S
O596 Tb552 2.546 . S
O596 C616 1.251 . S
O597 Tb552 2.610 . S
O597 Tb563 2.362 . S
O597 C608 1.283 . S
O598 Tb563 2.421 . S
O598 C615 1.262 . S
O599 Tb552 2.320 . S
O599 C615 1.260 . S
O600 Tb552 2.552 . S
O600 C608 1.243 . S
O601 Tb552 2.413 . S
O601 C616 1.256 . S
O602 Tb563 2.546 . S
O602 C627 1.251 . S
O603 Tb552 2.362 . S
O603 Tb563 2.610 . S
O603 C619 1.283 . S
O604 Tb552 2.421 . S
O604 C626 1.262 . S
O605 Tb563 2.320 . S
O605 C626 1.260 . S
O606 Tb563 2.552 . S
O606 C619 1.243 . S
O607 Tb563 2.413 . S
O607 C627 1.256 . S
C608 O597 1.283 . S
C608 O600 1.243 . S
C609 C611 1.382 . S
C609 C613 1.393 . S
C609 C616 1.500 . S
C610 C611 1.400 . S
C610 C612 1.384 . S
C611 C609 1.382 . S
C611 C610 1.400 . S
C611 H628 0.930 . S
C612 C610 1.384 . S
C612 C614 1.392 . S
C612 H629 0.931 . S
C613 C609 1.393 . S
C613 C614 1.401 . S
C613 H630 0.930 . S
C614 C612 1.392 . S
C614 C613 1.401 . S
C614 H631 0.930 . S
C615 O598 1.262 . S
C615 O599 1.260 . S
C616 Tb552 2.833 . S
C616 O596 1.251 . S
C616 O601 1.256 . S
C616 C609 1.500 . S
C617 H582 0.929 . S
C617 C595 1.444 . S
C617 C618 1.317 . S
C618 H580 0.930 . S
C618 C586 1.432 . S
C618 C617 1.317 . S
C619 O603 1.283 . S
C619 O606 1.243 . S
C620 C621 1.382 . S
C620 C624 1.393 . S
C620 C627 1.500 . S
C621 C620 1.382 . S
C621 C622 1.400 . S
C621 H632 0.930 . S
C622 C621 1.400 . S
C622 C623 1.384 . S
C623 C622 1.384 . S
C623 C625 1.392 . S
C623 H633 0.931 . S
C624 C620 1.393 . S
C624 C625 1.401 . S
C624 H634 0.930 . S
C625 C623 1.392 . S
C625 C624 1.401 . S
C625 H635 0.930 . S
C626 O604 1.262 . S
C626 O605 1.260 . S
C627 Tb563 2.833 . S
C627 O602 1.251 . S
C627 O607 1.256 . S
C627 C620 1.500 . S
H628 C611 0.930 . S
H629 C612 0.931 . S
H630 C613 0.930 . S
H631 C614 0.930 . S
H632 C621 0.930 . S
H633 C623 0.931 . S
H634 C624 0.930 . S
H635 C625 0.930 . S
Tb636 N667 2.660 . S
Tb636 N674 2.600 . S
Tb636 O680 2.546 . S
Tb636 O681 2.610 . S
Tb636 O683 2.320 . S
Tb636 O684 2.552 . S
Tb636 O685 2.413 . S
Tb636 O687 2.362 . S
Tb636 O688 2.421 . S
Tb636 C700 2.833 . S
C637 C640 1.432 . S
C637 C641 1.414 . S
C637 N644 1.359 . S
C638 C640 1.417 . S
C638 C642 1.432 . S
C638 C650 1.410 . S
C639 C641 1.444 . S
C639 C642 1.317 . S
C639 H662 0.929 . S
C640 C637 1.432 . S
C640 C638 1.417 . S
C640 N648 1.360 . S
C641 C637 1.414 . S
C641 C639 1.444 . S
C641 C646 1.385 . S
C642 C638 1.432 . S
C642 C639 1.317 . S
C642 H654 0.930 . S
C643 C645 1.392 . S
C643 C646 1.370 . S
C643 H655 0.931 . S
N644 C637 1.359 . S
N644 C645 1.327 . S
N644 Tb647 2.600 . S
C645 C643 1.392 . S
C645 N644 1.327 . S
C645 H652 0.930 . S
C646 C641 1.385 . S
C646 C643 1.370 . S
C646 H665 0.930 . S
Tb647 N644 2.600 . S
Tb647 N648 2.660 . S
Tb647 O681 2.362 . S
Tb647 O682 2.421 . S
Tb647 O686 2.546 . S
Tb647 O687 2.610 . S
Tb647 O689 2.320 . S
Tb647 O690 2.552 . S
Tb647 O691 2.413 . S
Tb647 C711 2.833 . S
N648 C640 1.360 . S
N648 Tb647 2.660 . S
N648 C649 1.305 . S
C649 N648 1.305 . S
C649 C651 1.407 . S
C649 H656 0.930 . S
C650 C638 1.410 . S
C650 C651 1.345 . S
C650 H658 0.930 . S
C651 C649 1.407 . S
C651 C650 1.345 . S
C651 H653 0.930 . S
H652 C645 0.930 . S
H653 C651 0.930 . S
H654 C642 0.930 . S
H655 C643 0.931 . S
H656 C649 0.930 . S
H657 C671 0.930 . S
H658 C650 0.930 . S
H659 C677 0.930 . S
H660 C668 0.930 . S
H661 C675 0.931 . S
H662 C639 0.929 . S
H663 C669 0.930 . S
H664 C702 0.930 . S
H665 C646 0.930 . S
H666 C701 0.929 . S
N667 Tb636 2.660 . S
N667 C668 1.305 . S
N667 C672 1.360 . S
C668 H660 0.930 . S
C668 N667 1.305 . S
C668 C671 1.407 . S
C669 H663 0.930 . S
C669 C670 1.410 . S
C669 C671 1.345 . S
C670 C669 1.410 . S
C670 C672 1.417 . S
C670 C702 1.432 . S
C671 H657 0.930 . S
C671 C668 1.407 . S
C671 C669 1.345 . S
C672 N667 1.360 . S
C672 C670 1.417 . S
C672 C676 1.432 . S
H673 C678 0.930 . S
N674 Tb636 2.600 . S
N674 C676 1.359 . S
N674 C677 1.327 . S
C675 H661 0.931 . S
C675 C677 1.392 . S
C675 C678 1.370 . S
C676 C672 1.432 . S
C676 N674 1.359 . S
C676 C679 1.414 . S
C677 H659 0.930 . S
C677 N674 1.327 . S
C677 C675 1.392 . S
C678 H673 0.930 . S
C678 C675 1.370 . S
C678 C679 1.385 . S
C679 C676 1.414 . S
C679 C678 1.385 . S
C679 C701 1.444 . S
O680 Tb636 2.546 . S
O680 C700 1.251 . S
O681 Tb636 2.610 . S
O681 Tb647 2.362 . S
O681 C692 1.283 . S
O682 Tb647 2.421 . S
O682 C699 1.262 . S
O683 Tb636 2.320 . S
O683 C699 1.260 . S
O684 Tb636 2.552 . S
O684 C692 1.243 . S
O685 Tb636 2.413 . S
O685 C700 1.256 . S
O686 Tb647 2.546 . S
O686 C711 1.251 . S
O687 Tb636 2.362 . S
O687 Tb647 2.610 . S
O687 C703 1.283 . S
O688 Tb636 2.421 . S
O688 C710 1.262 . S
O689 Tb647 2.320 . S
O689 C710 1.260 . S
O690 Tb647 2.552 . S
O690 C703 1.243 . S
O691 Tb647 2.413 . S
O691 C711 1.256 . S
C692 O681 1.283 . S
C692 O684 1.243 . S
C693 C695 1.382 . S
C693 C697 1.393 . S
C693 C700 1.500 . S
C694 C695 1.400 . S
C694 C696 1.384 . S
C695 C693 1.382 . S
C695 C694 1.400 . S
C695 H712 0.930 . S
C696 C694 1.384 . S
C696 C698 1.392 . S
C696 H713 0.931 . S
C697 C693 1.393 . S
C697 C698 1.401 . S
C697 H714 0.930 . S
C698 C696 1.392 . S
C698 C697 1.401 . S
C698 H715 0.930 . S
C699 O682 1.262 . S
C699 O683 1.260 . S
C700 Tb636 2.833 . S
C700 O680 1.251 . S
C700 O685 1.256 . S
C700 C693 1.500 . S
C701 H666 0.929 . S
C701 C679 1.444 . S
C701 C702 1.317 . S
C702 H664 0.930 . S
C702 C670 1.432 . S
C702 C701 1.317 . S
C703 O687 1.283 . S
C703 O690 1.243 . S
C704 C705 1.382 . S
C704 C708 1.393 . S
C704 C711 1.500 . S
C705 C704 1.382 . S
C705 C706 1.400 . S
C705 H716 0.930 . S
C706 C705 1.400 . S
C706 C707 1.384 . S
C707 C706 1.384 . S
C707 C709 1.392 . S
C707 H717 0.931 . S
C708 C704 1.393 . S
C708 C709 1.401 . S
C708 H718 0.930 . S
C709 C707 1.392 . S
C709 C708 1.401 . S
C709 H719 0.930 . S
C710 O688 1.262 . S
C710 O689 1.260 . S
C711 Tb647 2.833 . S
C711 O686 1.251 . S
C711 O691 1.256 . S
C711 C704 1.500 . S
H712 C695 0.930 . S
H713 C696 0.931 . S
H714 C697 0.930 . S
H715 C698 0.930 . S
H716 C705 0.930 . S
H717 C707 0.931 . S
H718 C708 0.930 . S
H719 C709 0.930 . S
Tb720 N751 2.660 . S
Tb720 N758 2.600 . S
Tb720 O764 2.546 . S
Tb720 O765 2.610 . S
Tb720 O767 2.320 . S
Tb720 O768 2.552 . S
Tb720 O769 2.413 . S
Tb720 O771 2.362 . S
Tb720 O772 2.421 . S
Tb720 C784 2.833 . S
C721 C724 1.432 . S
C721 C725 1.414 . S
C721 N728 1.359 . S
C722 C724 1.417 . S
C722 C726 1.432 . S
C722 C734 1.410 . S
C723 C725 1.444 . S
C723 C726 1.317 . S
C723 H746 0.929 . S
C724 C721 1.432 . S
C724 C722 1.417 . S
C724 N732 1.360 . S
C725 C721 1.414 . S
C725 C723 1.444 . S
C725 C730 1.385 . S
C726 C722 1.432 . S
C726 C723 1.317 . S
C726 H738 0.930 . S
C727 C729 1.392 . S
C727 C730 1.370 . S
C727 H739 0.931 . S
N728 C721 1.359 . S
N728 C729 1.327 . S
N728 Tb731 2.600 . S
C729 C727 1.392 . S
C729 N728 1.327 . S
C729 H736 0.930 . S
C730 C725 1.385 . S
C730 C727 1.370 . S
C730 H749 0.930 . S
Tb731 N728 2.600 . S
Tb731 N732 2.660 . S
Tb731 O765 2.362 . S
Tb731 O766 2.421 . S
Tb731 O770 2.546 . S
Tb731 O771 2.610 . S
Tb731 O773 2.320 . S
Tb731 O774 2.552 . S
Tb731 O775 2.413 . S
Tb731 C795 2.833 . S
N732 C724 1.360 . S
N732 Tb731 2.660 . S
N732 C733 1.305 . S
C733 N732 1.305 . S
C733 C735 1.407 . S
C733 H740 0.930 . S
C734 C722 1.410 . S
C734 C735 1.345 . S
C734 H742 0.930 . S
C735 C733 1.407 . S
C735 C734 1.345 . S
C735 H737 0.930 . S
H736 C729 0.930 . S
H737 C735 0.930 . S
H738 C726 0.930 . S
H739 C727 0.931 . S
H740 C733 0.930 . S
H741 C755 0.930 . S
H742 C734 0.930 . S
H743 C761 0.930 . S
H744 C752 0.930 . S
H745 C759 0.931 . S
H746 C723 0.929 . S
H747 C753 0.930 . S
H748 C786 0.930 . S
H749 C730 0.930 . S
H750 C785 0.929 . S
N751 Tb720 2.660 . S
N751 C752 1.305 . S
N751 C756 1.360 . S
C752 H744 0.930 . S
C752 N751 1.305 . S
C752 C755 1.407 . S
C753 H747 0.930 . S
C753 C754 1.410 . S
C753 C755 1.345 . S
C754 C753 1.410 . S
C754 C756 1.417 . S
C754 C786 1.432 . S
C755 H741 0.930 . S
C755 C752 1.407 . S
C755 C753 1.345 . S
C756 N751 1.360 . S
C756 C754 1.417 . S
C756 C760 1.432 . S
H757 C762 0.930 . S
N758 Tb720 2.600 . S
N758 C760 1.359 . S
N758 C761 1.327 . S
C759 H745 0.931 . S
C759 C761 1.392 . S
C759 C762 1.370 . S
C760 C756 1.432 . S
C760 N758 1.359 . S
C760 C763 1.414 . S
C761 H743 0.930 . S
C761 N758 1.327 . S
C761 C759 1.392 . S
C762 H757 0.930 . S
C762 C759 1.370 . S
C762 C763 1.385 . S
C763 C760 1.414 . S
C763 C762 1.385 . S
C763 C785 1.444 . S
O764 Tb720 2.546 . S
O764 C784 1.251 . S
O765 Tb720 2.610 . S
O765 Tb731 2.362 . S
O765 C776 1.283 . S
O766 Tb731 2.421 . S
O766 C783 1.262 . S
O767 Tb720 2.320 . S
O767 C783 1.260 . S
O768 Tb720 2.552 . S
O768 C776 1.243 . S
O769 Tb720 2.413 . S
O769 C784 1.256 . S
O770 Tb731 2.546 . S
O770 C795 1.251 . S
O771 Tb720 2.362 . S
O771 Tb731 2.610 . S
O771 C787 1.283 . S
O772 Tb720 2.421 . S
O772 C794 1.262 . S
O773 Tb731 2.320 . S
O773 C794 1.260 . S
O774 Tb731 2.552 . S
O774 C787 1.243 . S
O775 Tb731 2.413 . S
O775 C795 1.256 . S
C776 O765 1.283 . S
C776 O768 1.243 . S
C777 C779 1.382 . S
C777 C781 1.393 . S
C777 C784 1.500 . S
C778 C779 1.400 . S
C778 C780 1.384 . S
C779 C777 1.382 . S
C779 C778 1.400 . S
C779 H796 0.930 . S
C780 C778 1.384 . S
C780 C782 1.392 . S
C780 H797 0.931 . S
C781 C777 1.393 . S
C781 C782 1.401 . S
C781 H798 0.930 . S
C782 C780 1.392 . S
C782 C781 1.401 . S
C782 H799 0.930 . S
C783 O766 1.262 . S
C783 O767 1.260 . S
C784 Tb720 2.833 . S
C784 O764 1.251 . S
C784 O769 1.256 . S
C784 C777 1.500 . S
C785 H750 0.929 . S
C785 C763 1.444 . S
C785 C786 1.317 . S
C786 H748 0.930 . S
C786 C754 1.432 . S
C786 C785 1.317 . S
C787 O771 1.283 . S
C787 O774 1.243 . S
C788 C789 1.382 . S
C788 C792 1.393 . S
C788 C795 1.500 . S
C789 C788 1.382 . S
C789 C790 1.400 . S
C789 H800 0.930 . S
C790 C789 1.400 . S
C790 C791 1.384 . S
C791 C790 1.384 . S
C791 C793 1.392 . S
C791 H801 0.931 . S
C792 C788 1.393 . S
C792 C793 1.401 . S
C792 H802 0.930 . S
C793 C791 1.392 . S
C793 C792 1.401 . S
C793 H803 0.930 . S
C794 O772 1.262 . S
C794 O773 1.260 . S
C795 Tb731 2.833 . S
C795 O770 1.251 . S
C795 O775 1.256 . S
C795 C788 1.500 . S
H796 C779 0.930 . S
H797 C780 0.931 . S
H798 C781 0.930 . S
H799 C782 0.930 . S
H800 C789 0.930 . S
H801 C791 0.931 . S
H802 C792 0.930 . S
H803 C793 0.930 . S
Tb804 N835 2.660 . S
Tb804 N842 2.600 . S
Tb804 O848 2.546 . S
Tb804 O849 2.610 . S
Tb804 O851 2.320 . S
Tb804 O852 2.552 . S
Tb804 O853 2.413 . S
Tb804 O855 2.362 . S
Tb804 O856 2.421 . S
Tb804 C868 2.833 . S
C805 C808 1.432 . S
C805 C809 1.414 . S
C805 N812 1.359 . S
C806 C808 1.417 . S
C806 C810 1.432 . S
C806 C818 1.410 . S
C807 C809 1.444 . S
C807 C810 1.317 . S
C807 H830 0.929 . S
C808 C805 1.432 . S
C808 C806 1.417 . S
C808 N816 1.360 . S
C809 C805 1.414 . S
C809 C807 1.444 . S
C809 C814 1.385 . S
C810 C806 1.432 . S
C810 C807 1.317 . S
C810 H822 0.930 . S
C811 C813 1.392 . S
C811 C814 1.370 . S
C811 H823 0.931 . S
N812 C805 1.359 . S
N812 C813 1.327 . S
N812 Tb815 2.600 . S
C813 C811 1.392 . S
C813 N812 1.327 . S
C813 H820 0.930 . S
C814 C809 1.385 . S
C814 C811 1.370 . S
C814 H833 0.930 . S
Tb815 N812 2.600 . S
Tb815 N816 2.660 . S
Tb815 O849 2.362 . S
Tb815 O850 2.421 . S
Tb815 O854 2.546 . S
Tb815 O855 2.610 . S
Tb815 O857 2.320 . S
Tb815 O858 2.552 . S
Tb815 O859 2.413 . S
Tb815 C879 2.833 . S
N816 C808 1.360 . S
N816 Tb815 2.660 . S
N816 C817 1.305 . S
C817 N816 1.305 . S
C817 C819 1.407 . S
C817 H824 0.930 . S
C818 C806 1.410 . S
C818 C819 1.345 . S
C818 H826 0.930 . S
C819 C817 1.407 . S
C819 C818 1.345 . S
C819 H821 0.930 . S
H820 C813 0.930 . S
H821 C819 0.930 . S
H822 C810 0.930 . S
H823 C811 0.931 . S
H824 C817 0.930 . S
H825 C839 0.930 . S
H826 C818 0.930 . S
H827 C845 0.930 . S
H828 C836 0.930 . S
H829 C843 0.931 . S
H830 C807 0.929 . S
H831 C837 0.930 . S
H832 C870 0.930 . S
H833 C814 0.930 . S
H834 C869 0.929 . S
N835 Tb804 2.660 . S
N835 C836 1.305 . S
N835 C840 1.360 . S
C836 H828 0.930 . S
C836 N835 1.305 . S
C836 C839 1.407 . S
C837 H831 0.930 . S
C837 C838 1.410 . S
C837 C839 1.345 . S
C838 C837 1.410 . S
C838 C840 1.417 . S
C838 C870 1.432 . S
C839 H825 0.930 . S
C839 C836 1.407 . S
C839 C837 1.345 . S
C840 N835 1.360 . S
C840 C838 1.417 . S
C840 C844 1.432 . S
H841 C846 0.930 . S
N842 Tb804 2.600 . S
N842 C844 1.359 . S
N842 C845 1.327 . S
C843 H829 0.931 . S
C843 C845 1.392 . S
C843 C846 1.370 . S
C844 C840 1.432 . S
C844 N842 1.359 . S
C844 C847 1.414 . S
C845 H827 0.930 . S
C845 N842 1.327 . S
C845 C843 1.392 . S
C846 H841 0.930 . S
C846 C843 1.370 . S
C846 C847 1.385 . S
C847 C844 1.414 . S
C847 C846 1.385 . S
C847 C869 1.444 . S
O848 Tb804 2.546 . S
O848 C868 1.251 . S
O849 Tb804 2.610 . S
O849 Tb815 2.362 . S
O849 C860 1.283 . S
O850 Tb815 2.421 . S
O850 C867 1.262 . S
O851 Tb804 2.320 . S
O851 C867 1.260 . S
O852 Tb804 2.552 . S
O852 C860 1.243 . S
O853 Tb804 2.413 . S
O853 C868 1.256 . S
O854 Tb815 2.546 . S
O854 C879 1.251 . S
O855 Tb804 2.362 . S
O855 Tb815 2.610 . S
O855 C871 1.283 . S
O856 Tb804 2.421 . S
O856 C878 1.262 . S
O857 Tb815 2.320 . S
O857 C878 1.260 . S
O858 Tb815 2.552 . S
O858 C871 1.243 . S
O859 Tb815 2.413 . S
O859 C879 1.256 . S
C860 O849 1.283 . S
C860 O852 1.243 . S
C861 C863 1.382 . S
C861 C865 1.393 . S
C861 C868 1.500 . S
C862 C863 1.400 . S
C862 C864 1.384 . S
C863 C861 1.382 . S
C863 C862 1.400 . S
C863 H880 0.930 . S
C864 C862 1.384 . S
C864 C866 1.392 . S
C864 H881 0.931 . S
C865 C861 1.393 . S
C865 C866 1.401 . S
C865 H882 0.930 . S
C866 C864 1.392 . S
C866 C865 1.401 . S
C866 H883 0.930 . S
C867 O850 1.262 . S
C867 O851 1.260 . S
C868 Tb804 2.833 . S
C868 O848 1.251 . S
C868 O853 1.256 . S
C868 C861 1.500 . S
C869 H834 0.929 . S
C869 C847 1.444 . S
C869 C870 1.317 . S
C870 H832 0.930 . S
C870 C838 1.432 . S
C870 C869 1.317 . S
C871 O855 1.283 . S
C871 O858 1.243 . S
C872 C873 1.382 . S
C872 C876 1.393 . S
C872 C879 1.500 . S
C873 C872 1.382 . S
C873 C874 1.400 . S
C873 H884 0.930 . S
C874 C873 1.400 . S
C874 C875 1.384 . S
C875 C874 1.384 . S
C875 C877 1.392 . S
C875 H885 0.931 . S
C876 C872 1.393 . S
C876 C877 1.401 . S
C876 H886 0.930 . S
C877 C875 1.392 . S
C877 C876 1.401 . S
C877 H887 0.930 . S
C878 O856 1.262 . S
C878 O857 1.260 . S
C879 Tb815 2.833 . S
C879 O854 1.251 . S
C879 O859 1.256 . S
C879 C872 1.500 . S
H880 C863 0.930 . S
H881 C864 0.931 . S
H882 C865 0.930 . S
H883 C866 0.930 . S
H884 C873 0.930 . S
H885 C875 0.931 . S
H886 C876 0.930 . S
H887 C877 0.930 . S
Tb888 N919 2.660 . S
Tb888 N926 2.600 . S
Tb888 O932 2.546 . S
Tb888 O933 2.610 . S
Tb888 O935 2.320 . S
Tb888 O936 2.552 . S
Tb888 O937 2.413 . S
Tb888 O939 2.362 . S
Tb888 O940 2.421 . S
Tb888 C952 2.833 . S
C889 C892 1.432 . S
C889 C893 1.414 . S
C889 N896 1.359 . S
C890 C892 1.417 . S
C890 C894 1.432 . S
C890 C902 1.410 . S
C891 C893 1.444 . S
C891 C894 1.317 . S
C891 H914 0.929 . S
C892 C889 1.432 . S
C892 C890 1.417 . S
C892 N900 1.360 . S
C893 C889 1.414 . S
C893 C891 1.444 . S
C893 C898 1.385 . S
C894 C890 1.432 . S
C894 C891 1.317 . S
C894 H906 0.930 . S
C895 C897 1.392 . S
C895 C898 1.370 . S
C895 H907 0.931 . S
N896 C889 1.359 . S
N896 C897 1.327 . S
N896 Tb899 2.600 . S
C897 C895 1.392 . S
C897 N896 1.327 . S
C897 H904 0.930 . S
C898 C893 1.385 . S
C898 C895 1.370 . S
C898 H917 0.930 . S
Tb899 N896 2.600 . S
Tb899 N900 2.660 . S
Tb899 O933 2.362 . S
Tb899 O934 2.421 . S
Tb899 O938 2.546 . S
Tb899 O939 2.610 . S
Tb899 O941 2.320 . S
Tb899 O942 2.552 . S
Tb899 O943 2.413 . S
Tb899 C963 2.833 . S
N900 C892 1.360 . S
N900 Tb899 2.660 . S
N900 C901 1.305 . S
C901 N900 1.305 . S
C901 C903 1.407 . S
C901 H908 0.930 . S
C902 C890 1.410 . S
C902 C903 1.345 . S
C902 H910 0.930 . S
C903 C901 1.407 . S
C903 C902 1.345 . S
C903 H905 0.930 . S
H904 C897 0.930 . S
H905 C903 0.930 . S
H906 C894 0.930 . S
H907 C895 0.931 . S
H908 C901 0.930 . S
H909 C923 0.930 . S
H910 C902 0.930 . S
H911 C929 0.930 . S
H912 C920 0.930 . S
H913 C927 0.931 . S
H914 C891 0.929 . S
H915 C921 0.930 . S
H916 C954 0.930 . S
H917 C898 0.930 . S
H918 C953 0.929 . S
N919 Tb888 2.660 . S
N919 C920 1.305 . S
N919 C924 1.360 . S
C920 H912 0.930 . S
C920 N919 1.305 . S
C920 C923 1.407 . S
C921 H915 0.930 . S
C921 C922 1.410 . S
C921 C923 1.345 . S
C922 C921 1.410 . S
C922 C924 1.417 . S
C922 C954 1.432 . S
C923 H909 0.930 . S
C923 C920 1.407 . S
C923 C921 1.345 . S
C924 N919 1.360 . S
C924 C922 1.417 . S
C924 C928 1.432 . S
H925 C930 0.930 . S
N926 Tb888 2.600 . S
N926 C928 1.359 . S
N926 C929 1.327 . S
C927 H913 0.931 . S
C927 C929 1.392 . S
C927 C930 1.370 . S
C928 C924 1.432 . S
C928 N926 1.359 . S
C928 C931 1.414 . S
C929 H911 0.930 . S
C929 N926 1.327 . S
C929 C927 1.392 . S
C930 H925 0.930 . S
C930 C927 1.370 . S
C930 C931 1.385 . S
C931 C928 1.414 . S
C931 C930 1.385 . S
C931 C953 1.444 . S
O932 Tb888 2.546 . S
O932 C952 1.251 . S
O933 Tb888 2.610 . S
O933 Tb899 2.362 . S
O933 C944 1.283 . S
O934 Tb899 2.421 . S
O934 C951 1.262 . S
O935 Tb888 2.320 . S
O935 C951 1.260 . S
O936 Tb888 2.552 . S
O936 C944 1.243 . S
O937 Tb888 2.413 . S
O937 C952 1.256 . S
O938 Tb899 2.546 . S
O938 C963 1.251 . S
O939 Tb888 2.362 . S
O939 Tb899 2.610 . S
O939 C955 1.283 . S
O940 Tb888 2.421 . S
O940 C962 1.262 . S
O941 Tb899 2.320 . S
O941 C962 1.260 . S
O942 Tb899 2.552 . S
O942 C955 1.243 . S
O943 Tb899 2.413 . S
O943 C963 1.256 . S
C944 O933 1.283 . S
C944 O936 1.243 . S
C945 C947 1.382 . S
C945 C949 1.393 . S
C945 C952 1.500 . S
C946 C947 1.400 . S
C946 C948 1.384 . S
C947 C945 1.382 . S
C947 C946 1.400 . S
C947 H964 0.930 . S
C948 C946 1.384 . S
C948 C950 1.392 . S
C948 H965 0.931 . S
C949 C945 1.393 . S
C949 C950 1.401 . S
C949 H966 0.930 . S
C950 C948 1.392 . S
C950 C949 1.401 . S
C950 H967 0.930 . S
C951 O934 1.262 . S
C951 O935 1.260 . S
C952 Tb888 2.833 . S
C952 O932 1.251 . S
C952 O937 1.256 . S
C952 C945 1.500 . S
C953 H918 0.929 . S
C953 C931 1.444 . S
C953 C954 1.317 . S
C954 H916 0.930 . S
C954 C922 1.432 . S
C954 C953 1.317 . S
C955 O939 1.283 . S
C955 O942 1.243 . S
C956 C957 1.382 . S
C956 C960 1.393 . S
C956 C963 1.500 . S
C957 C956 1.382 . S
C957 C958 1.400 . S
C957 H968 0.930 . S
C958 C957 1.400 . S
C958 C959 1.384 . S
C959 C958 1.384 . S
C959 C961 1.392 . S
C959 H969 0.931 . S
C960 C956 1.393 . S
C960 C961 1.401 . S
C960 H970 0.930 . S
C961 C959 1.392 . S
C961 C960 1.401 . S
C961 H971 0.930 . S
C962 O940 1.262 . S
C962 O941 1.260 . S
C963 Tb899 2.833 . S
C963 O938 1.251 . S
C963 O943 1.256 . S
C963 C956 1.500 . S
H964 C947 0.930 . S
H965 C948 0.931 . S
H966 C949 0.930 . S
H967 C950 0.930 . S
H968 C957 0.930 . S
H969 C959 0.931 . S
H970 C960 0.930 . S
H971 C961 0.930 . S
H972 C990 0.951 . S
H973 C992 0.951 . S
H974 C994 0.950 . S
H975 C995 0.950 . S
H976 C997 0.950 . S
H977 C1000 0.950 . S
H978 C1001 0.950 . S
H979 C1003 0.950 . S
H980 C1004 0.950 . S
H981 C1005 0.951 . S
H982 C1007 0.951 . S
H983 C1009 0.950 . S
H984 C1010 0.950 . S
H985 C1012 0.950 . S
H986 C1015 0.950 . S
H987 C1016 0.950 . S
H988 C1018 0.950 1_556 S
H989 C1019 0.950 . S
C990 H972 0.951 . S
C990 C991 1.366 . S
C990 C992 1.388 . S
C991 C990 1.366 . S
C991 C995 1.385 . S
C992 H973 0.951 . S
C992 C990 1.388 . S
C992 C993 1.366 . S
C993 C992 1.366 . S
C993 C994 1.414 . S
C993 C996 1.499 . S
C994 H974 0.950 . S
C994 C993 1.414 . S
C994 C995 1.374 . S
C995 H975 0.950 . S
C995 C991 1.385 . S
C995 C994 1.374 . S
C996 C993 1.499 . S
C996 C997 1.373 . S
C996 C998 1.389 . S
C997 H976 0.950 . S
C997 C996 1.373 . S
C997 C1013 1.377 . S
C998 C996 1.389 . S
C998 C999 1.524 . S
C998 C1012 1.377 . S
C999 C998 1.524 . S
C999 C1000 1.397 . S
C999 C1004 1.363 . S
C1000 H977 0.950 . S
C1000 C999 1.397 . S
C1000 C1001 1.334 . S
C1001 H978 0.950 . S
C1001 C1000 1.334 . S
C1001 C1002 1.287 . S
C1002 C1001 1.287 . S
C1002 C1003 1.524 . S
C1002 H1021 0.913 . S
C1003 H979 0.950 . S
C1003 C1002 1.524 . S
C1003 C1004 1.415 . S
C1004 H980 0.950 . S
C1004 C999 1.363 . S
C1004 C1003 1.415 . S
C1005 H981 0.951 . S
C1005 C1006 1.366 . S
C1005 C1007 1.388 . S
C1006 C1005 1.366 . S
C1006 C1010 1.385 . S
C1007 H982 0.951 . S
C1007 C1005 1.388 . S
C1007 C1008 1.366 . S
C1008 C1007 1.366 . S
C1008 C1009 1.414 . S
C1008 C1011 1.499 . S
C1009 H983 0.950 . S
C1009 C1008 1.414 . S
C1009 C1010 1.374 . S
C1010 H984 0.950 . S
C1010 C1006 1.385 . S
C1010 C1009 1.374 . S
C1011 C1008 1.499 . S
C1011 C1012 1.373 . S
C1011 C1013 1.389 . S
C1012 H985 0.950 . S
C1012 C998 1.377 . S
C1012 C1011 1.373 . S
C1013 C997 1.377 . S
C1013 C1011 1.389 . S
C1013 C1014 1.524 . S
C1014 C1013 1.524 . S
C1014 C1015 1.397 . S
C1014 C1019 1.363 . S
C1015 H986 0.950 . S
C1015 C1014 1.397 . S
C1015 C1016 1.334 . S
C1016 H987 0.950 . S
C1016 C1015 1.334 . S
C1016 C1017 1.287 . S
C1017 C1016 1.287 . S
C1017 C1018 1.524 . S
C1017 H1020 0.999 . S
C1018 H988 0.950 1_554 S
C1018 C1017 1.524 . S
C1018 C1019 1.415 . S
C1019 H989 0.950 . S
C1019 C1014 1.363 . S
C1019 C1018 1.415 . S
H1020 C1017 0.999 . S
H1021 C1002 0.913 . S
H1022 C1040 0.951 . S
H1023 C1042 0.951 . S
H1024 C1044 0.950 . S
H1025 C1045 0.950 . S
H1026 C1047 0.950 . S
H1027 C1050 0.950 . S
H1028 C1051 0.950 . S
H1029 C1053 0.950 . S
H1030 C1054 0.950 . S
H1031 C1055 0.951 . S
H1032 C1057 0.951 . S
H1033 C1059 0.950 . S
H1034 C1060 0.950 . S
H1035 C1062 0.950 . S
H1036 C1065 0.950 . S
H1037 C1066 0.950 1_556 S
H1038 C1068 0.950 . S
H1039 C1069 0.950 . S
C1040 H1022 0.951 . S
C1040 C1041 1.366 . S
C1040 C1042 1.388 . S
C1041 C1040 1.366 . S
C1041 C1045 1.385 . S
C1042 H1023 0.951 . S
C1042 C1040 1.388 . S
C1042 C1043 1.366 . S
C1043 C1042 1.366 . S
C1043 C1044 1.414 . S
C1043 C1046 1.499 . S
C1044 H1024 0.950 . S
C1044 C1043 1.414 . S
C1044 C1045 1.374 . S
C1045 H1025 0.950 . S
C1045 C1041 1.385 . S
C1045 C1044 1.374 . S
C1046 C1043 1.499 . S
C1046 C1047 1.373 . S
C1046 C1048 1.389 . S
C1047 H1026 0.950 . S
C1047 C1046 1.373 . S
C1047 C1063 1.377 . S
C1048 C1046 1.389 . S
C1048 C1049 1.524 . S
C1048 C1062 1.377 . S
C1049 C1048 1.524 . S
C1049 C1050 1.397 . S
C1049 C1054 1.363 . S
C1050 H1027 0.950 . S
C1050 C1049 1.397 . S
C1050 C1051 1.334 . S
C1051 H1028 0.950 . S
C1051 C1050 1.334 . S
C1051 C1052 1.287 . S
C1052 C1051 1.287 . S
C1052 C1053 1.524 . S
C1052 H1071 0.913 . S
C1053 H1029 0.950 . S
C1053 C1052 1.524 . S
C1053 C1054 1.415 . S
C1054 H1030 0.950 . S
C1054 C1049 1.363 . S
C1054 C1053 1.415 . S
C1055 H1031 0.951 . S
C1055 C1056 1.366 . S
C1055 C1057 1.388 . S
C1056 C1055 1.366 . S
C1056 C1060 1.385 . S
C1057 H1032 0.951 . S
C1057 C1055 1.388 . S
C1057 C1058 1.366 . S
C1058 C1057 1.366 . S
C1058 C1059 1.414 . S
C1058 C1061 1.499 . S
C1059 H1033 0.950 . S
C1059 C1058 1.414 . S
C1059 C1060 1.374 . S
C1060 H1034 0.950 . S
C1060 C1056 1.385 . S
C1060 C1059 1.374 . S
C1061 C1058 1.499 . S
C1061 C1062 1.373 . S
C1061 C1063 1.389 . S
C1062 H1035 0.950 . S
C1062 C1048 1.377 . S
C1062 C1061 1.373 . S
C1063 C1047 1.377 . S
C1063 C1061 1.389 . S
C1063 C1064 1.524 . S
C1064 C1063 1.524 . S
C1064 C1065 1.397 . S
C1064 C1069 1.363 . S
C1065 H1036 0.950 . S
C1065 C1064 1.397 . S
C1065 C1066 1.334 . S
C1066 H1037 0.950 1_554 S
C1066 C1065 1.334 . S
C1066 C1067 1.287 . S
C1067 C1066 1.287 . S
C1067 C1068 1.524 . S
C1067 H1070 0.998 1_554 S
C1068 H1038 0.950 . S
C1068 C1067 1.524 . S
C1068 C1069 1.415 . S
C1069 H1039 0.950 . S
C1069 C1064 1.363 . S
C1069 C1068 1.415 . S
H1070 C1067 0.998 1_556 S
H1071 C1052 0.913 . S
H1072 C1090 0.951 . S
H1073 C1092 0.951 . S
H1074 C1094 0.950 . S
H1075 C1095 0.950 . S
H1076 C1097 0.950 . S
H1077 C1100 0.950 . S
H1078 C1101 0.950 . S
H1079 C1103 0.950 . S
H1080 C1104 0.950 . S
H1081 C1105 0.951 . S
H1082 C1107 0.951 . S
H1083 C1109 0.950 . S
H1084 C1110 0.950 . S
H1085 C1112 0.950 . S
H1086 C1115 0.960 . S
H1087 C1116 0.950 . S
H1088 C1118 0.950 . S
H1089 C1119 0.950 . S
C1090 H1072 0.951 . S
C1090 C1091 1.366 . S
C1090 C1092 1.388 . S
C1091 C1090 1.366 . S
C1091 C1095 1.385 . S
C1092 H1073 0.951 . S
C1092 C1090 1.388 . S
C1092 C1093 1.366 . S
C1093 C1092 1.366 . S
C1093 C1094 1.414 . S
C1093 C1096 1.499 . S
C1094 H1074 0.950 . S
C1094 C1093 1.414 . S
C1094 C1095 1.374 . S
C1095 H1075 0.950 . S
C1095 C1091 1.385 . S
C1095 C1094 1.374 . S
C1096 C1093 1.499 . S
C1096 C1097 1.373 . S
C1096 C1098 1.389 . S
C1097 H1076 0.950 . S
C1097 C1096 1.373 . S
C1097 C1113 1.377 . S
C1098 C1096 1.389 . S
C1098 C1099 1.524 . S
C1098 C1112 1.377 . S
C1099 C1098 1.524 . S
C1099 C1100 1.397 . S
C1099 C1104 1.363 . S
C1100 H1077 0.950 . S
C1100 C1099 1.397 . S
C1100 C1101 1.334 . S
C1101 H1078 0.950 . S
C1101 C1100 1.334 . S
C1101 C1102 1.287 . S
C1102 C1101 1.287 . S
C1102 C1103 1.524 . S
C1102 H1121 0.913 . S
C1103 H1079 0.950 . S
C1103 C1102 1.524 . S
C1103 C1104 1.415 . S
C1104 H1080 0.950 . S
C1104 C1099 1.363 . S
C1104 C1103 1.415 . S
C1105 H1081 0.951 . S
C1105 C1106 1.366 . S
C1105 C1107 1.388 . S
C1106 C1105 1.366 . S
C1106 C1110 1.385 . S
C1107 H1082 0.951 . S
C1107 C1105 1.388 . S
C1107 C1108 1.366 . S
C1108 C1107 1.366 . S
C1108 C1109 1.414 . S
C1108 C1111 1.499 . S
C1109 H1083 0.950 . S
C1109 C1108 1.414 . S
C1109 C1110 1.374 . S
C1110 H1084 0.950 . S
C1110 C1106 1.385 . S
C1110 C1109 1.374 . S
C1111 C1108 1.499 . S
C1111 C1112 1.373 . S
C1111 C1113 1.389 . S
C1112 H1085 0.950 . S
C1112 C1098 1.377 . S
C1112 C1111 1.373 . S
C1113 C1097 1.377 . S
C1113 C1111 1.389 . S
C1113 C1114 1.524 . S
C1114 C1113 1.524 . S
C1114 C1115 1.410 . S
C1114 C1119 1.363 . S
C1115 H1086 0.960 . S
C1115 C1114 1.410 . S
C1115 C1116 1.311 1_554 S
C1116 H1087 0.950 . S
C1116 C1115 1.311 1_556 S
C1116 C1117 1.287 . S
C1117 C1116 1.287 . S
C1117 C1118 1.524 . S
C1117 H1120 0.999 . S
C1118 H1088 0.950 . S
C1118 C1117 1.524 . S
C1118 C1119 1.415 1_556 S
C1119 H1089 0.950 . S
C1119 C1114 1.363 . S
C1119 C1118 1.415 1_554 S
H1120 C1117 0.999 . S
H1121 C1102 0.913 . S
H1122 C1140 0.951 . S
H1123 C1142 0.951 . S
H1124 C1144 0.950 . S
H1125 C1145 0.950 . S
H1126 C1147 0.950 . S
H1127 C1150 0.950 . S
H1128 C1151 0.950 . S
H1129 C1153 0.964 . S
H1130 C1154 0.950 1_554 S
H1131 C1155 0.951 . S
H1132 C1157 0.951 . S
H1133 C1159 0.950 . S
H1134 C1160 0.950 . S
H1135 C1162 0.950 . S
H1136 C1165 0.950 . S
H1137 C1166 0.950 . S
H1138 C1168 0.950 . S
H1139 C1169 0.950 . S
C1140 H1122 0.951 . S
C1140 C1141 1.366 . S
C1140 C1142 1.388 . S
C1141 C1140 1.366 . S
C1141 C1145 1.385 . S
C1142 H1123 0.951 . S
C1142 C1140 1.388 . S
C1142 C1143 1.366 . S
C1143 C1142 1.366 . S
C1143 C1144 1.414 . S
C1143 C1146 1.499 . S
C1144 H1124 0.950 . S
C1144 C1143 1.414 . S
C1144 C1145 1.374 . S
C1145 H1125 0.950 . S
C1145 C1141 1.385 . S
C1145 C1144 1.374 . S
C1146 C1143 1.499 . S
C1146 C1147 1.373 . S
C1146 C1148 1.389 . S
C1147 H1126 0.950 . S
C1147 C1146 1.373 . S
C1147 C1163 1.377 . S
C1148 C1146 1.389 . S
C1148 C1149 1.524 . S
C1148 C1162 1.377 . S
C1149 C1148 1.524 . S
C1149 C1150 1.397 . S
C1149 C1154 1.363 . S
C1150 H1127 0.950 . S
C1150 C1149 1.397 . S
C1150 C1151 1.334 . S
C1151 H1128 0.950 . S
C1151 C1150 1.334 . S
C1151 C1152 1.287 . S
C1152 C1151 1.287 . S
C1152 C1153 1.510 1_556 S
C1152 H1171 0.913 . S
C1153 H1129 0.964 . S
C1153 C1152 1.510 1_554 S
C1153 C1154 1.413 1_554 S
C1154 H1130 0.950 1_556 S
C1154 C1149 1.363 . S
C1154 C1153 1.413 1_556 S
C1155 H1131 0.951 . S
C1155 C1156 1.366 . S
C1155 C1157 1.388 . S
C1156 C1155 1.366 . S
C1156 C1160 1.385 1_556 S
C1157 H1132 0.951 . S
C1157 C1155 1.388 . S
C1157 C1158 1.366 . S
C1158 C1157 1.366 . S
C1158 C1159 1.414 1_556 S
C1158 C1161 1.499 . S
C1159 H1133 0.950 . S
C1159 C1158 1.414 1_554 S
C1159 C1160 1.374 . S
C1160 H1134 0.950 . S
C1160 C1156 1.385 1_554 S
C1160 C1159 1.374 . S
C1161 C1158 1.499 . S
C1161 C1162 1.373 . S
C1161 C1163 1.389 . S
C1162 H1135 0.950 . S
C1162 C1148 1.377 . S
C1162 C1161 1.373 . S
C1163 C1147 1.377 . S
C1163 C1161 1.389 . S
C1163 C1164 1.524 . S
C1164 C1163 1.524 . S
C1164 C1165 1.397 . S
C1164 C1169 1.363 . S
C1165 H1136 0.950 . S
C1165 C1164 1.397 . S
C1165 C1166 1.334 . S
C1166 H1137 0.950 . S
C1166 C1165 1.334 . S
C1166 C1167 1.287 . S
C1167 C1166 1.287 . S
C1167 C1168 1.524 . S
C1167 H1170 0.999 . S
C1168 H1138 0.950 . S
C1168 C1167 1.524 . S
C1168 C1169 1.415 . S
C1169 H1139 0.950 . S
C1169 C1164 1.363 . S
C1169 C1168 1.415 . S
H1170 C1167 0.999 . S
H1171 C1152 0.913 . S
H1172 C1190 0.951 . S
H1173 C1192 0.951 . S
H1174 C1194 0.950 . S
H1175 C1195 0.950 . S
H1176 C1197 0.950 . S
H1177 C1200 0.950 . S
H1178 C1201 0.950 . S
H1179 C1203 0.950 . S
H1180 C1204 0.950 . S
H1181 C1205 0.951 . S
H1182 C1207 0.951 . S
H1183 C1209 0.950 . S
H1184 C1210 0.950 . S
H1185 C1212 0.950 1_554 S
H1186 C1215 0.950 . S
H1187 C1216 0.950 . S
H1188 C1218 0.950 . S
H1189 C1219 0.950 . S
C1190 H1172 0.951 . S
C1190 C1191 1.366 . S
C1190 C1192 1.388 . S
C1191 C1190 1.366 . S
C1191 C1195 1.385 . S
C1192 H1173 0.951 . S
C1192 C1190 1.388 . S
C1192 C1193 1.366 . S
C1193 C1192 1.366 . S
C1193 C1194 1.414 . S
C1193 C1196 1.499 . S
C1194 H1174 0.950 . S
C1194 C1193 1.414 . S
C1194 C1195 1.374 . S
C1195 H1175 0.950 . S
C1195 C1191 1.385 . S
C1195 C1194 1.374 . S
C1196 C1193 1.499 . S
C1196 C1197 1.373 . S
C1196 C1198 1.389 . S
C1197 H1176 0.950 . S
C1197 C1196 1.373 . S
C1197 C1213 1.377 . S
C1198 C1196 1.389 . S
C1198 C1199 1.524 . S
C1198 C1212 1.377 . S
C1199 C1198 1.524 . S
C1199 C1200 1.397 . S
C1199 C1204 1.363 1_556 S
C1200 H1177 0.950 . S
C1200 C1199 1.397 . S
C1200 C1201 1.334 . S
C1201 H1178 0.950 . S
C1201 C1200 1.334 . S
C1201 C1202 1.287 1_556 S
C1202 C1201 1.287 1_554 S
C1202 C1203 1.524 . S
C1202 H1221 0.913 . S
C1203 H1179 0.950 . S
C1203 C1202 1.524 . S
C1203 C1204 1.415 . S
C1204 H1180 0.950 . S
C1204 C1199 1.363 1_554 S
C1204 C1203 1.415 . S
C1205 H1181 0.951 . S
C1205 C1206 1.430 . S
C1205 C1207 1.388 . S
C1206 C1205 1.430 . S
C1206 C1210 1.344 1_556 S
C1207 H1182 0.951 . S
C1207 C1205 1.388 . S
C1207 C1208 1.366 . S
C1208 C1207 1.366 . S
C1208 C1209 1.414 1_556 S
C1208 C1211 1.499 . S
C1209 H1183 0.950 . S
C1209 C1208 1.414 1_554 S
C1209 C1210 1.374 . S
C1210 H1184 0.950 . S
C1210 C1206 1.344 1_554 S
C1210 C1209 1.374 . S
C1211 C1208 1.499 . S
C1211 C1212 1.373 . S
C1211 C1213 1.389 . S
C1212 H1185 0.950 1_556 S
C1212 C1198 1.377 . S
C1212 C1211 1.373 . S
C1213 C1197 1.377 . S
C1213 C1211 1.389 . S
C1213 C1214 1.524 . S
C1214 C1213 1.524 . S
C1214 C1215 1.397 . S
C1214 C1219 1.363 . S
C1215 H1186 0.950 . S
C1215 C1214 1.397 . S
C1215 C1216 1.334 . S
C1216 H1187 0.950 . S
C1216 C1215 1.334 . S
C1216 C1217 1.287 . S
C1217 C1216 1.287 . S
C1217 C1218 1.524 . S
C1217 H1220 0.999 . S
C1218 H1188 0.950 . S
C1218 C1217 1.524 . S
C1218 C1219 1.415 . S
C1219 H1189 0.950 . S
C1219 C1214 1.363 . S
C1219 C1218 1.415 . S
H1220 C1217 0.999 . S
H1221 C1202 0.913 . S
H1222 C1240 0.951 . S
H1223 C1242 0.951 . S
H1224 C1244 0.950 . S
H1225 C1245 0.950 . S
H1226 C1247 0.950 . S
H1227 C1250 0.950 . S
H1228 C1251 0.950 . S
H1229 C1253 0.950 . S
H1230 C1254 0.950 . S
H1231 C1255 0.951 . S
H1232 C1257 0.951 . S
H1233 C1259 0.950 1_554 S
H1234 C1260 0.950 . S
H1235 C1262 0.950 1_554 S
H1236 C1265 0.950 . S
H1237 C1266 0.950 . S
H1238 C1268 0.950 . S
H1239 C1269 0.950 . S
C1240 H1222 0.951 . S
C1240 C1241 1.366 . S
C1240 C1242 1.388 . S
C1241 C1240 1.366 . S
C1241 C1245 1.385 . S
C1242 H1223 0.951 . S
C1242 C1240 1.388 . S
C1242 C1243 1.366 . S
C1243 C1242 1.366 . S
C1243 C1244 1.414 . S
C1243 C1246 1.499 . S
C1244 H1224 0.950 . S
C1244 C1243 1.414 . S
C1244 C1245 1.374 . S
C1245 H1225 0.950 . S
C1245 C1241 1.385 . S
C1245 C1244 1.374 . S
C1246 C1243 1.499 . S
C1246 C1247 1.373 . S
C1246 C1248 1.389 . S
C1247 H1226 0.950 . S
C1247 C1246 1.373 . S
C1247 C1263 1.377 . S
C1248 C1246 1.389 . S
C1248 C1249 1.524 1_556 S
C1248 C1262 1.377 . S
C1249 C1248 1.524 1_554 S
C1249 C1250 1.397 . S
C1249 C1254 1.363 . S
C1250 H1227 0.950 . S
C1250 C1249 1.397 . S
C1250 C1251 1.334 . S
C1251 H1228 0.950 . S
C1251 C1250 1.334 . S
C1251 C1252 1.287 . S
C1252 C1251 1.287 . S
C1252 C1253 1.524 . S
C1252 H1271 0.913 . S
C1253 H1229 0.950 . S
C1253 C1252 1.524 . S
C1253 C1254 1.415 . S
C1254 H1230 0.950 . S
C1254 C1249 1.363 . S
C1254 C1253 1.415 . S
C1255 H1231 0.951 . S
C1255 C1256 1.368 1_556 S
C1255 C1257 1.388 . S
C1256 C1255 1.368 1_554 S
C1256 C1260 1.384 . S
C1257 H1232 0.951 . S
C1257 C1255 1.388 . S
C1257 C1258 1.366 . S
C1258 C1257 1.366 . S
C1258 C1259 1.414 . S
C1258 C1261 1.499 . S
C1259 H1233 0.950 1_556 S
C1259 C1258 1.414 . S
C1259 C1260 1.374 1_556 S
C1260 H1234 0.950 . S
C1260 C1256 1.384 . S
C1260 C1259 1.374 1_554 S
C1261 C1258 1.499 . S
C1261 C1262 1.373 . S
C1261 C1263 1.389 . S
C1262 H1235 0.950 1_556 S
C1262 C1248 1.377 . S
C1262 C1261 1.373 . S
C1263 C1247 1.377 . S
C1263 C1261 1.389 . S
C1263 C1264 1.524 . S
C1264 C1263 1.524 . S
C1264 C1265 1.397 . S
C1264 C1269 1.363 . S
C1265 H1236 0.950 . S
C1265 C1264 1.397 . S
C1265 C1266 1.334 . S
C1266 H1237 0.950 . S
C1266 C1265 1.334 . S
C1266 C1267 1.287 . S
C1267 C1266 1.287 . S
C1267 C1268 1.524 . S
C1267 H1270 0.999 . S
C1268 H1238 0.950 . S
C1268 C1267 1.524 . S
C1268 C1269 1.415 . S
C1269 H1239 0.950 . S
C1269 C1264 1.363 . S
C1269 C1268 1.415 . S
H1270 C1267 0.999 . S
H1271 C1252 0.913 . S
H1272 C1290 0.951 . S
H1273 C1292 0.951 . S
H1274 C1294 0.950 . S
H1275 C1295 0.950 . S
H1276 C1297 0.950 . S
H1277 C1300 0.950 . S
H1278 C1301 0.950 . S
H1279 C1303 0.950 . S
H1280 C1304 0.950 . S
H1281 C1305 0.951 . S
H1282 C1307 0.951 . S
H1283 C1309 0.952 . S
H1284 C1310 0.950 . S
H1285 C1312 0.950 . S
H1286 C1315 0.950 . S
H1287 C1316 0.950 . S
H1288 C1318 0.950 . S
H1289 C1319 0.950 . S
C1290 H1272 0.951 . S
C1290 C1291 1.366 . S
C1290 C1292 1.388 . S
C1291 C1290 1.366 . S
C1291 C1295 1.385 . S
C1292 H1273 0.951 . S
C1292 C1290 1.388 . S
C1292 C1293 1.366 . S
C1293 C1292 1.366 . S
C1293 C1294 1.414 . S
C1293 C1296 1.499 . S
C1294 H1274 0.950 . S
C1294 C1293 1.414 . S
C1294 C1295 1.374 . S
C1295 H1275 0.950 . S
C1295 C1291 1.385 . S
C1295 C1294 1.374 . S
C1296 C1293 1.499 . S
C1296 C1297 1.373 . S
C1296 C1298 1.389 . S
C1297 H1276 0.950 . S
C1297 C1296 1.373 . S
C1297 C1313 1.377 . S
C1298 C1296 1.389 . S
C1298 C1299 1.524 . S
C1298 C1312 1.377 . S
C1299 C1298 1.524 . S
C1299 C1300 1.397 . S
C1299 C1304 1.363 . S
C1300 H1277 0.950 . S
C1300 C1299 1.397 . S
C1300 C1301 1.334 . S
C1301 H1278 0.950 . S
C1301 C1300 1.334 . S
C1301 C1302 1.287 . S
C1302 C1301 1.287 . S
C1302 C1303 1.524 . S
C1302 H1321 0.913 . S
C1303 H1279 0.950 . S
C1303 C1302 1.524 . S
C1303 C1304 1.415 . S
C1304 H1280 0.950 . S
C1304 C1299 1.363 . S
C1304 C1303 1.415 . S
C1305 H1281 0.951 . S
C1305 C1306 1.366 . S
C1305 C1307 1.388 . S
C1306 C1305 1.366 . S
C1306 C1310 1.385 1_556 S
C1307 H1282 0.951 . S
C1307 C1305 1.388 . S
C1307 C1308 1.366 . S
C1308 C1307 1.366 . S
C1308 C1309 1.414 . S
C1308 C1311 1.499 . S
C1309 H1283 0.952 . S
C1309 C1308 1.414 . S
C1309 C1310 1.374 1_556 S
C1310 H1284 0.950 . S
C1310 C1306 1.385 1_554 S
C1310 C1309 1.374 1_554 S
C1311 C1308 1.499 . S
C1311 C1312 1.373 . S
C1311 C1313 1.389 . S
C1312 H1285 0.950 . S
C1312 C1298 1.377 . S
C1312 C1311 1.373 . S
C1313 C1297 1.377 . S
C1313 C1311 1.389 . S
C1313 C1314 1.524 1_556 S
C1314 C1313 1.524 1_554 S
C1314 C1315 1.397 . S
C1314 C1319 1.363 1_554 S
C1315 H1286 0.950 . S
C1315 C1314 1.397 . S
C1315 C1316 1.334 . S
C1316 H1287 0.950 . S
C1316 C1315 1.334 . S
C1316 C1317 1.287 . S
C1317 C1316 1.287 . S
C1317 C1318 1.524 . S
C1317 H1320 0.999 . S
C1318 H1288 0.950 . S
C1318 C1317 1.524 . S
C1318 C1319 1.415 1_554 S
C1319 H1289 0.950 . S
C1319 C1314 1.363 1_556 S
C1319 C1318 1.415 1_556 S
H1320 C1317 0.999 . S
H1321 C1302 0.913 . S
H1322 C1340 0.951 . S
H1323 C1342 0.951 . S
H1324 C1344 0.950 . S
H1325 C1345 0.950 . S
H1326 C1347 0.950 . S
H1327 C1350 0.950 . S
H1328 C1351 0.950 . S
H1329 C1353 0.950 . S
H1330 C1354 0.950 . S
H1331 C1355 0.951 . S
H1332 C1357 0.951 . S
H1333 C1359 0.950 . S
H1334 C1360 0.946 1_554 S
H1335 C1362 0.950 1_554 S
H1336 C1365 0.950 . S
H1337 C1366 0.950 . S
H1338 C1368 0.950 . S
H1339 C1369 0.950 . S
C1340 H1322 0.951 . S
C1340 C1341 1.366 . S
C1340 C1342 1.388 . S
C1341 C1340 1.366 . S
C1341 C1345 1.385 . S
C1342 H1323 0.951 . S
C1342 C1340 1.388 . S
C1342 C1343 1.366 . S
C1343 C1342 1.366 . S
C1343 C1344 1.414 . S
C1343 C1346 1.499 . S
C1344 H1324 0.950 . S
C1344 C1343 1.414 . S
C1344 C1345 1.374 . S
C1345 H1325 0.950 . S
C1345 C1341 1.385 . S
C1345 C1344 1.374 . S
C1346 C1343 1.499 . S
C1346 C1347 1.373 . S
C1346 C1348 1.389 . S
C1347 H1326 0.950 . S
C1347 C1346 1.373 . S
C1347 C1363 1.377 . S
C1348 C1346 1.389 . S
C1348 C1349 1.524 1_556 S
C1348 C1362 1.377 . S
C1349 C1348 1.524 1_554 S
C1349 C1350 1.397 . S
C1349 C1354 1.363 . S
C1350 H1327 0.950 . S
C1350 C1349 1.397 . S
C1350 C1351 1.334 . S
C1351 H1328 0.950 . S
C1351 C1350 1.334 . S
C1351 C1352 1.287 . S
C1352 C1351 1.287 . S
C1352 C1353 1.524 . S
C1352 H1371 0.913 . S
C1353 H1329 0.950 . S
C1353 C1352 1.524 . S
C1353 C1354 1.415 . S
C1354 H1330 0.950 . S
C1354 C1349 1.363 . S
C1354 C1353 1.415 . S
C1355 H1331 0.951 . S
C1355 C1356 1.366 . S
C1355 C1357 1.388 . S
C1356 C1355 1.366 . S
C1356 C1360 1.385 . S
C1357 H1332 0.951 . S
C1357 C1355 1.388 . S
C1357 C1358 1.366 . S
C1358 C1357 1.366 . S
C1358 C1359 1.414 . S
C1358 C1361 1.499 . S
C1359 H1333 0.950 . S
C1359 C1358 1.414 . S
C1359 C1360 1.374 . S
C1360 H1334 0.946 1_556 S
C1360 C1356 1.385 . S
C1360 C1359 1.374 . S
C1361 C1358 1.499 . S
C1361 C1362 1.373 . S
C1361 C1363 1.389 . S
C1362 H1335 0.950 1_556 S
C1362 C1348 1.377 . S
C1362 C1361 1.373 . S
C1363 C1347 1.377 . S
C1363 C1361 1.389 . S
C1363 C1364 1.524 . S
C1364 C1363 1.524 . S
C1364 C1365 1.397 . S
C1364 C1369 1.363 . S
C1365 H1336 0.950 . S
C1365 C1364 1.397 . S
C1365 C1366 1.334 . S
C1366 H1337 0.950 . S
C1366 C1365 1.334 . S
C1366 C1367 1.287 . S
C1367 C1366 1.287 . S
C1367 C1368 1.524 . S
C1367 H1370 0.999 . S
C1368 H1338 0.950 . S
C1368 C1367 1.524 . S
C1368 C1369 1.415 . S
C1369 H1339 0.950 . S
C1369 C1364 1.363 . S
C1369 C1368 1.415 . S
H1370 C1367 0.999 . S
H1371 C1352 0.913 . S
H1372 C1390 0.951 . S
H1373 C1392 0.951 . S
H1374 C1394 0.950 . S
H1375 C1395 0.950 . S
H1376 C1397 0.950 . S
H1377 C1400 0.950 . S
H1378 C1401 0.950 . S
H1379 C1403 0.950 . S
H1380 C1404 0.950 . S
H1381 C1405 0.951 . S
H1382 C1407 0.951 . S
H1383 C1409 0.962 . S
H1384 C1410 0.950 . S
H1385 C1412 0.950 . S
H1386 C1415 0.950 . S
H1387 C1416 0.950 . S
H1388 C1418 0.950 . S
H1389 C1419 0.993 . S
C1390 H1372 0.951 . S
C1390 C1391 1.366 . S
C1390 C1392 1.388 . S
C1391 C1390 1.366 . S
C1391 C1395 1.385 . S
C1392 H1373 0.951 . S
C1392 C1390 1.388 . S
C1392 C1393 1.366 . S
C1393 C1392 1.366 . S
C1393 C1394 1.414 . S
C1393 C1396 1.499 . S
C1394 H1374 0.950 . S
C1394 C1393 1.414 . S
C1394 C1395 1.374 . S
C1395 H1375 0.950 . S
C1395 C1391 1.385 . S
C1395 C1394 1.374 . S
C1396 C1393 1.499 . S
C1396 C1397 1.373 . S
C1396 C1398 1.389 . S
C1397 H1376 0.950 . S
C1397 C1396 1.373 . S
C1397 C1413 1.377 . S
C1398 C1396 1.389 . S
C1398 C1399 1.524 . S
C1398 C1412 1.377 . S
C1399 C1398 1.524 . S
C1399 C1400 1.397 . S
C1399 C1404 1.363 . S
C1400 H1377 0.950 . S
C1400 C1399 1.397 . S
C1400 C1401 1.334 . S
C1401 H1378 0.950 . S
C1401 C1400 1.334 . S
C1401 C1402 1.287 . S
C1402 C1401 1.287 . S
C1402 C1403 1.524 . S
C1402 H1421 0.913 . S
C1403 H1379 0.950 . S
C1403 C1402 1.524 . S
C1403 C1404 1.415 . S
C1404 H1380 0.950 . S
C1404 C1399 1.363 . S
C1404 C1403 1.415 . S
C1405 H1381 0.951 . S
C1405 C1406 1.353 1_556 S
C1405 C1407 1.388 . S
C1406 C1405 1.353 1_554 S
C1406 C1410 1.392 . S
C1407 H1382 0.951 . S
C1407 C1405 1.388 . S
C1407 C1408 1.366 . S
C1408 C1407 1.366 . S
C1408 C1409 1.395 1_556 S
C1408 C1411 1.499 . S
C1409 H1383 0.962 . S
C1409 C1408 1.395 1_554 S
C1409 C1410 1.384 . S
C1410 H1384 0.950 . S
C1410 C1406 1.392 . S
C1410 C1409 1.384 . S
C1411 C1408 1.499 . S
C1411 C1412 1.373 . S
C1411 C1413 1.389 . S
C1412 H1385 0.950 . S
C1412 C1398 1.377 . S
C1412 C1411 1.373 . S
C1413 C1397 1.377 . S
C1413 C1411 1.389 . S
C1413 C1414 1.524 1_556 S
C1414 C1413 1.524 1_554 S
C1414 C1415 1.397 . S
C1414 C1419 1.350 1_554 S
C1415 H1386 0.950 . S
C1415 C1414 1.397 . S
C1415 C1416 1.334 . S
C1416 H1387 0.950 . S
C1416 C1415 1.334 . S
C1416 C1417 1.287 . S
C1417 C1416 1.287 . S
C1417 C1418 1.524 . S
C1417 H1420 0.999 . S
C1418 H1388 0.950 . S
C1418 C1417 1.524 . S
C1418 C1419 1.387 1_554 S
C1419 H1389 0.993 . S
C1419 C1414 1.350 1_556 S
C1419 C1418 1.387 1_556 S
H1420 C1417 0.999 . S
H1421 C1402 0.913 . S
H1422 C1440 0.951 . S
H1423 C1442 0.951 . S
H1424 C1444 0.950 . S
H1425 C1445 0.950 . S
H1426 C1447 0.950 . S
H1427 C1450 0.950 . S
H1428 C1451 0.950 . S
H1429 C1453 0.950 . S
H1430 C1454 0.950 . S
H1431 C1455 0.951 . S
H1432 C1457 0.951 . S
H1433 C1459 0.950 . S
H1434 C1460 0.950 . S
H1435 C1462 0.950 . S
H1436 C1465 0.950 . S
H1437 C1466 0.950 . S
H1438 C1468 0.950 . S
H1439 C1469 0.950 . S
C1440 H1422 0.951 . S
C1440 C1441 1.366 . S
C1440 C1442 1.388 . S
C1441 C1440 1.366 . S
C1441 C1445 1.385 . S
C1442 H1423 0.951 . S
C1442 C1440 1.388 . S
C1442 C1443 1.366 . S
C1443 C1442 1.366 . S
C1443 C1444 1.414 . S
C1443 C1446 1.499 . S
C1444 H1424 0.950 . S
C1444 C1443 1.414 . S
C1444 C1445 1.374 . S
C1445 H1425 0.950 . S
C1445 C1441 1.385 . S
C1445 C1444 1.374 . S
C1446 C1443 1.499 . S
C1446 C1447 1.373 . S
C1446 C1448 1.389 . S
C1447 H1426 0.950 . S
C1447 C1446 1.373 . S
C1447 C1463 1.377 . S
C1448 C1446 1.389 . S
C1448 C1449 1.524 . S
C1448 C1462 1.377 . S
C1449 C1448 1.524 . S
C1449 C1450 1.397 . S
C1449 C1454 1.363 . S
C1450 H1427 0.950 . S
C1450 C1449 1.397 . S
C1450 C1451 1.334 . S
C1451 H1428 0.950 . S
C1451 C1450 1.334 . S
C1451 C1452 1.287 . S
C1452 C1451 1.287 . S
C1452 C1453 1.524 . S
C1452 H1471 0.913 . S
C1453 H1429 0.950 . S
C1453 C1452 1.524 . S
C1453 C1454 1.415 . S
C1454 H1430 0.950 . S
C1454 C1449 1.363 . S
C1454 C1453 1.415 . S
C1455 H1431 0.951 . S
C1455 C1456 1.366 . S
C1455 C1457 1.388 . S
C1456 C1455 1.366 . S
C1456 C1460 1.385 . S
C1457 H1432 0.951 . S
C1457 C1455 1.388 . S
C1457 C1458 1.366 . S
C1458 C1457 1.366 . S
C1458 C1459 1.414 . S
C1458 C1461 1.499 . S
C1459 H1433 0.950 . S
C1459 C1458 1.414 . S
C1459 C1460 1.374 . S
C1460 H1434 0.950 . S
C1460 C1456 1.385 . S
C1460 C1459 1.374 . S
C1461 C1458 1.499 . S
C1461 C1462 1.373 . S
C1461 C1463 1.389 . S
C1462 H1435 0.950 . S
C1462 C1448 1.377 . S
C1462 C1461 1.373 . S
C1463 C1447 1.377 . S
C1463 C1461 1.389 . S
C1463 C1464 1.524 . S
C1464 C1463 1.524 . S
C1464 C1465 1.397 . S
C1464 C1469 1.363 . S
C1465 H1436 0.950 . S
C1465 C1464 1.397 . S
C1465 C1466 1.334 . S
C1466 H1437 0.950 . S
C1466 C1465 1.334 . S
C1466 C1467 1.287 . S
C1467 C1466 1.287 . S
C1467 C1468 1.524 . S
C1467 H1470 0.999 . S
C1468 H1438 0.950 . S
C1468 C1467 1.524 . S
C1468 C1469 1.415 . S
C1469 H1439 0.950 . S
C1469 C1464 1.363 . S
C1469 C1468 1.415 . S
H1470 C1467 0.999 . S
H1471 C1452 0.913 . S
H1472 C1490 0.951 . S
H1473 C1492 0.951 . S
H1474 C1494 0.950 . S
H1475 C1495 0.950 . S
H1476 C1497 0.950 . S
H1477 C1500 0.950 . S
H1478 C1501 0.950 . S
H1479 C1503 0.950 1_556 S
H1480 C1504 0.950 . S
H1481 C1505 0.951 . S
H1482 C1507 0.951 . S
H1483 C1509 0.950 . S
H1484 C1510 0.950 . S
H1485 C1512 0.950 . S
H1486 C1515 0.950 . S
H1487 C1516 0.950 . S
H1488 C1518 0.950 . S
H1489 C1519 0.950 . S
C1490 H1472 0.951 . S
C1490 C1491 1.366 . S
C1490 C1492 1.388 . S
C1491 C1490 1.366 . S
C1491 C1495 1.385 . S
C1492 H1473 0.951 . S
C1492 C1490 1.388 . S
C1492 C1493 1.366 . S
C1493 C1492 1.366 . S
C1493 C1494 1.414 . S
C1493 C1496 1.499 . S
C1494 H1474 0.950 . S
C1494 C1493 1.414 . S
C1494 C1495 1.374 . S
C1495 H1475 0.950 . S
C1495 C1491 1.385 . S
C1495 C1494 1.374 . S
C1496 C1493 1.499 . S
C1496 C1497 1.373 . S
C1496 C1498 1.389 . S
C1497 H1476 0.950 . S
C1497 C1496 1.373 . S
C1497 C1513 1.377 . S
C1498 C1496 1.389 . S
C1498 C1499 1.524 . S
C1498 C1512 1.377 . S
C1499 C1498 1.524 . S
C1499 C1500 1.397 . S
C1499 C1504 1.363 . S
C1500 H1477 0.950 . S
C1500 C1499 1.397 . S
C1500 C1501 1.334 . S
C1501 H1478 0.950 . S
C1501 C1500 1.334 . S
C1501 C1502 1.287 . S
C1502 C1501 1.287 . S
C1502 C1503 1.524 . S
C1502 H1521 0.913 . S
C1503 H1479 0.950 1_554 S
C1503 C1502 1.524 . S
C1503 C1504 1.415 . S
C1504 H1480 0.950 . S
C1504 C1499 1.363 . S
C1504 C1503 1.415 . S
C1505 H1481 0.951 . S
C1505 C1506 1.366 . S
C1505 C1507 1.388 . S
C1506 C1505 1.366 . S
C1506 C1510 1.385 . S
C1507 H1482 0.951 . S
C1507 C1505 1.388 . S
C1507 C1508 1.366 . S
C1508 C1507 1.366 . S
C1508 C1509 1.414 . S
C1508 C1511 1.499 . S
C1509 H1483 0.950 . S
C1509 C1508 1.414 . S
C1509 C1510 1.374 . S
C1510 H1484 0.950 . S
C1510 C1506 1.385 . S
C1510 C1509 1.374 . S
C1511 C1508 1.499 . S
C1511 C1512 1.373 . S
C1511 C1513 1.389 . S
C1512 H1485 0.950 . S
C1512 C1498 1.377 . S
C1512 C1511 1.373 . S
C1513 C1497 1.377 . S
C1513 C1511 1.389 . S
C1513 C1514 1.524 . S
C1514 C1513 1.524 . S
C1514 C1515 1.397 . S
C1514 C1519 1.363 . S
C1515 H1486 0.950 . S
C1515 C1514 1.397 . S
C1515 C1516 1.334 . S
C1516 H1487 0.950 . S
C1516 C1515 1.334 . S
C1516 C1517 1.287 . S
C1517 C1516 1.287 . S
C1517 C1518 1.524 . S
C1517 H1520 0.999 . S
C1518 H1488 0.950 . S
C1518 C1517 1.524 . S
C1518 C1519 1.415 . S
C1519 H1489 0.950 . S
C1519 C1514 1.363 . S
C1519 C1518 1.415 . S
H1520 C1517 0.999 . S
H1521 C1502 0.913 . S
H1522 C1540 0.951 . S
H1523 C1542 0.951 . S
H1524 C1544 0.950 . S
H1525 C1545 0.950 . S
H1526 C1547 0.950 . S
H1527 C1550 0.950 . S
H1528 C1551 0.950 . S
H1529 C1553 0.950 . S
H1530 C1554 0.950 . S
H1531 C1555 0.951 . S
H1532 C1557 0.951 . S
H1533 C1559 0.950 . S
H1534 C1560 0.950 . S
H1535 C1562 0.950 . S
H1536 C1565 0.950 1_554 S
H1537 C1566 0.950 . S
H1538 C1568 0.950 . S
H1539 C1569 0.951 . S
C1540 H1522 0.951 . S
C1540 C1541 1.366 . S
C1540 C1542 1.388 . S
C1541 C1540 1.366 . S
C1541 C1545 1.385 . S
C1542 H1523 0.951 . S
C1542 C1540 1.388 . S
C1542 C1543 1.366 . S
C1543 C1542 1.366 . S
C1543 C1544 1.414 . S
C1543 C1546 1.499 . S
C1544 H1524 0.950 . S
C1544 C1543 1.414 . S
C1544 C1545 1.374 . S
C1545 H1525 0.950 . S
C1545 C1541 1.385 . S
C1545 C1544 1.374 . S
C1546 C1543 1.499 . S
C1546 C1547 1.373 . S
C1546 C1548 1.389 . S
C1547 H1526 0.950 . S
C1547 C1546 1.373 . S
C1547 C1563 1.377 . S
C1548 C1546 1.389 . S
C1548 C1549 1.524 . S
C1548 C1562 1.377 . S
C1549 C1548 1.524 . S
C1549 C1550 1.397 . S
C1549 C1554 1.363 . S
C1550 H1527 0.950 . S
C1550 C1549 1.397 . S
C1550 C1551 1.334 . S
C1551 H1528 0.950 . S
C1551 C1550 1.334 . S
C1551 C1552 1.287 . S
C1552 C1551 1.287 . S
C1552 C1553 1.524 . S
C1552 H1571 0.913 . S
C1553 H1529 0.950 . S
C1553 C1552 1.524 . S
C1553 C1554 1.415 . S
C1554 H1530 0.950 . S
C1554 C1549 1.363 . S
C1554 C1553 1.415 . S
C1555 H1531 0.951 . S
C1555 C1556 1.366 . S
C1555 C1557 1.388 . S
C1556 C1555 1.366 . S
C1556 C1560 1.385 . S
C1557 H1532 0.951 . S
C1557 C1555 1.388 . S
C1557 C1558 1.366 . S
C1558 C1557 1.366 . S
C1558 C1559 1.414 . S
C1558 C1561 1.499 . S
C1559 H1533 0.950 . S
C1559 C1558 1.414 . S
C1559 C1560 1.374 . S
C1560 H1534 0.950 . S
C1560 C1556 1.385 . S
C1560 C1559 1.374 . S
C1561 C1558 1.499 . S
C1561 C1562 1.373 . S
C1561 C1563 1.389 . S
C1562 H1535 0.950 . S
C1562 C1548 1.377 . S
C1562 C1561 1.373 . S
C1563 C1547 1.377 . S
C1563 C1561 1.389 . S
C1563 C1564 1.524 . S
C1564 C1563 1.524 . S
C1564 C1565 1.397 1_554 S
C1564 C1569 1.363 1_554 S
C1565 H1536 0.950 1_556 S
C1565 C1564 1.397 1_556 S
C1565 C1566 1.334 . S
C1566 H1537 0.950 . S
C1566 C1565 1.334 . S
C1566 C1567 1.287 . S
C1567 C1566 1.287 . S
C1567 C1568 1.524 . S
C1567 H1570 0.999 . S
C1568 H1538 0.950 . S
C1568 C1567 1.524 . S
C1568 C1569 1.415 . S
C1569 H1539 0.951 . S
C1569 C1564 1.363 1_556 S
C1569 C1568 1.415 . S
H1570 C1567 0.999 . S
H1571 C1552 0.913 . S
H1572 C1590 0.951 . S
H1573 C1592 0.951 . S
H1574 C1594 0.950 . S
H1575 C1595 0.950 . S
H1576 C1597 0.950 . S
H1577 C1600 0.950 . S
H1578 C1601 0.950 . S
H1579 C1603 0.950 1_455 S
H1580 C1604 0.950 . S
H1581 C1605 0.951 . S
H1582 C1607 0.951 . S
H1583 C1609 0.950 . S
H1584 C1610 0.950 . S
H1585 C1612 0.950 . S
H1586 C1615 0.950 . S
H1587 C1616 0.950 . S
H1588 C1618 0.950 . S
H1589 C1619 0.887 1_655 S
C1590 H1572 0.951 . S
C1590 C1591 1.366 . S
C1590 C1592 1.388 . S
C1591 C1590 1.366 . S
C1591 C1595 1.385 . S
C1592 H1573 0.951 . S
C1592 C1590 1.388 . S
C1592 C1593 1.366 . S
C1593 C1592 1.366 . S
C1593 C1594 1.414 . S
C1593 C1596 1.499 . S
C1594 H1574 0.950 . S
C1594 C1593 1.414 . S
C1594 C1595 1.374 . S
C1595 H1575 0.950 . S
C1595 C1591 1.385 . S
C1595 C1594 1.374 . S
C1596 C1593 1.499 . S
C1596 C1597 1.373 . S
C1596 C1598 1.386 1_655 S
C1597 H1576 0.950 . S
C1597 C1596 1.373 . S
C1597 C1613 1.377 1_655 S
C1598 C1596 1.386 1_455 S
C1598 C1599 1.508 1_455 S
C1598 C1612 1.396 . S
C1599 C1598 1.508 1_655 S
C1599 C1600 1.397 . S
C1599 C1604 1.363 1_655 S
C1600 H1577 0.950 . S
C1600 C1599 1.397 . S
C1600 C1601 1.334 . S
C1601 H1578 0.950 . S
C1601 C1600 1.334 . S
C1601 C1602 1.287 . S
C1602 C1601 1.287 . S
C1602 C1603 1.524 . S
C1602 H1621 0.913 . S
C1603 H1579 0.950 1_655 S
C1603 C1602 1.524 . S
C1603 C1604 1.415 1_655 S
C1604 H1580 0.950 . S
C1604 C1599 1.363 1_455 S
C1604 C1603 1.415 1_455 S
C1605 H1581 0.951 . S
C1605 C1606 1.366 . S
C1605 C1607 1.388 . S
C1606 C1605 1.366 . S
C1606 C1610 1.385 . S
C1607 H1582 0.951 . S
C1607 C1605 1.388 . S
C1607 C1608 1.366 . S
C1608 C1607 1.366 . S
C1608 C1609 1.414 . S
C1608 C1611 1.499 . S
C1609 H1583 0.950 . S
C1609 C1608 1.414 . S
C1609 C1610 1.374 . S
C1610 H1584 0.950 . S
C1610 C1606 1.385 . S
C1610 C1609 1.374 . S
C1611 C1608 1.499 . S
C1611 C1612 1.373 . S
C1611 C1613 1.389 . S
C1612 H1585 0.950 . S
C1612 C1598 1.396 . S
C1612 C1611 1.373 . S
C1613 C1597 1.377 1_455 S
C1613 C1611 1.389 . S
C1613 C1614 1.524 . S
C1614 C1613 1.524 . S
C1614 C1615 1.397 . S
C1614 C1619 1.363 . S
C1615 H1586 0.950 . S
C1615 C1614 1.397 . S
C1615 C1616 1.334 . S
C1616 H1587 0.950 . S
C1616 C1615 1.334 . S
C1616 C1617 1.287 . S
C1617 C1616 1.287 . S
C1617 C1618 1.524 . S
C1617 H1620 0.999 . S
C1618 H1588 0.950 . S
C1618 C1617 1.524 . S
C1618 C1619 1.415 . S
C1619 H1589 0.887 1_455 S
C1619 C1614 1.363 . S
C1619 C1618 1.415 . S
H1620 C1617 0.999 . S
H1621 C1602 0.913 . S
H1622 C1640 0.951 . S
H1623 C1642 0.951 . S
H1624 C1644 0.950 . S
H1625 C1645 0.950 . S
H1626 C1647 0.950 . S
H1627 C1650 0.950 . S
H1628 C1651 0.950 . S
H1629 C1653 0.950 . S
H1630 C1654 0.950 . S
H1631 C1655 0.951 . S
H1632 C1657 0.951 . S
H1633 C1659 0.950 . S
H1634 C1660 0.950 . S
H1635 C1662 0.950 . S
H1636 C1665 0.950 . S
H1637 C1666 0.950 . S
H1638 C1668 0.950 . S
H1639 C1669 0.950 . S
C1640 H1622 0.951 . S
C1640 C1641 1.366 . S
C1640 C1642 1.388 . S
C1641 C1640 1.366 . S
C1641 C1645 1.385 . S
C1642 H1623 0.951 . S
C1642 C1640 1.388 . S
C1642 C1643 1.366 . S
C1643 C1642 1.366 . S
C1643 C1644 1.414 . S
C1643 C1646 1.499 . S
C1644 H1624 0.950 . S
C1644 C1643 1.414 . S
C1644 C1645 1.374 . S
C1645 H1625 0.950 . S
C1645 C1641 1.385 . S
C1645 C1644 1.374 . S
C1646 C1643 1.499 . S
C1646 C1647 1.373 . S
C1646 C1648 1.389 . S
C1647 H1626 0.950 . S
C1647 C1646 1.373 . S
C1647 C1663 1.377 . S
C1648 C1646 1.389 . S
C1648 C1649 1.524 . S
C1648 C1662 1.377 . S
C1649 C1648 1.524 . S
C1649 C1650 1.397 . S
C1649 C1654 1.363 . S
C1650 H1627 0.950 . S
C1650 C1649 1.397 . S
C1650 C1651 1.334 . S
C1651 H1628 0.950 . S
C1651 C1650 1.334 . S
C1651 C1652 1.287 . S
C1652 C1651 1.287 . S
C1652 C1653 1.524 . S
C1652 H1671 0.913 . S
C1653 H1629 0.950 . S
C1653 C1652 1.524 . S
C1653 C1654 1.415 . S
C1654 H1630 0.950 . S
C1654 C1649 1.363 . S
C1654 C1653 1.415 . S
C1655 H1631 0.951 . S
C1655 C1656 1.366 . S
C1655 C1657 1.388 . S
C1656 C1655 1.366 . S
C1656 C1660 1.385 . S
C1657 H1632 0.951 . S
C1657 C1655 1.388 . S
C1657 C1658 1.366 . S
C1658 C1657 1.366 . S
C1658 C1659 1.414 . S
C1658 C1661 1.499 . S
C1659 H1633 0.950 . S
C1659 C1658 1.414 . S
C1659 C1660 1.374 . S
C1660 H1634 0.950 . S
C1660 C1656 1.385 . S
C1660 C1659 1.374 . S
C1661 C1658 1.499 . S
C1661 C1662 1.373 . S
C1661 C1663 1.389 . S
C1662 H1635 0.950 . S
C1662 C1648 1.377 . S
C1662 C1661 1.373 . S
C1663 C1647 1.377 . S
C1663 C1661 1.389 . S
C1663 C1664 1.524 . S
C1664 C1663 1.524 . S
C1664 C1665 1.397 . S
C1664 C1669 1.363 . S
C1665 H1636 0.950 . S
C1665 C1664 1.397 . S
C1665 C1666 1.334 . S
C1666 H1637 0.950 . S
C1666 C1665 1.334 . S
C1666 C1667 1.287 . S
C1667 C1666 1.287 . S
C1667 C1668 1.524 . S
C1667 H1670 0.999 . S
C1668 H1638 0.950 . S
C1668 C1667 1.524 . S
C1668 C1669 1.415 . S
C1669 H1639 0.950 . S
C1669 C1664 1.363 . S
C1669 C1668 1.415 . S
H1670 C1667 0.999 . S
H1671 C1652 0.913 . S
H1672 C1690 0.951 . S
H1673 C1692 0.951 . S
H1674 C1694 0.950 . S
H1675 C1695 0.950 . S
H1676 C1697 0.950 . S
H1677 C1700 0.950 . S
H1678 C1701 0.950 . S
H1679 C1703 0.950 . S
H1680 C1704 0.950 . S
H1681 C1705 0.951 . S
H1682 C1707 0.951 . S
H1683 C1709 0.950 . S
H1684 C1710 0.950 . S
H1685 C1712 0.950 . S
H1686 C1715 0.950 . S
H1687 C1716 0.950 . S
H1688 C1718 0.950 . S
H1689 C1719 0.950 . S
C1690 H1672 0.951 . S
C1690 C1691 1.366 . S
C1690 C1692 1.388 . S
C1691 C1690 1.366 . S
C1691 C1695 1.385 . S
C1692 H1673 0.951 . S
C1692 C1690 1.388 . S
C1692 C1693 1.366 . S
C1693 C1692 1.366 . S
C1693 C1694 1.414 . S
C1693 C1696 1.499 . S
C1694 H1674 0.950 . S
C1694 C1693 1.414 . S
C1694 C1695 1.374 . S
C1695 H1675 0.950 . S
C1695 C1691 1.385 . S
C1695 C1694 1.374 . S
C1696 C1693 1.499 . S
C1696 C1697 1.373 . S
C1696 C1698 1.389 . S
C1697 H1676 0.950 . S
C1697 C1696 1.373 . S
C1697 C1713 1.377 . S
C1698 C1696 1.389 . S
C1698 C1699 1.524 . S
C1698 C1712 1.377 1_545 S
C1699 C1698 1.524 . S
C1699 C1700 1.397 . S
C1699 C1704 1.363 1_545 S
C1700 H1677 0.950 . S
C1700 C1699 1.397 . S
C1700 C1701 1.334 . S
C1701 H1678 0.950 . S
C1701 C1700 1.334 . S
C1701 C1702 1.287 . S
C1702 C1701 1.287 . S
C1702 C1703 1.524 1_545 S
C1702 H1721 0.913 . S
C1703 H1679 0.950 . S
C1703 C1702 1.524 1_565 S
C1703 C1704 1.415 . S
C1704 H1680 0.950 . S
C1704 C1699 1.363 1_565 S
C1704 C1703 1.415 . S
C1705 H1681 0.951 . S
C1705 C1706 1.366 . S
C1705 C1707 1.388 . S
C1706 C1705 1.366 . S
C1706 C1710 1.385 . S
C1707 H1682 0.951 . S
C1707 C1705 1.388 . S
C1707 C1708 1.366 . S
C1708 C1707 1.366 . S
C1708 C1709 1.414 . S
C1708 C1711 1.499 . S
C1709 H1683 0.950 . S
C1709 C1708 1.414 . S
C1709 C1710 1.374 . S
C1710 H1684 0.950 . S
C1710 C1706 1.385 . S
C1710 C1709 1.374 . S
C1711 C1708 1.499 . S
C1711 C1712 1.373 . S
C1711 C1713 1.389 1_565 S
C1712 H1685 0.950 . S
C1712 C1698 1.377 1_565 S
C1712 C1711 1.373 . S
C1713 C1697 1.377 . S
C1713 C1711 1.389 1_545 S
C1713 C1714 1.516 1_545 S
C1714 C1713 1.516 1_565 S
C1714 C1715 1.421 . S
C1714 C1719 1.345 1_565 S
C1715 H1686 0.950 . S
C1715 C1714 1.421 . S
C1715 C1716 1.334 . S
C1716 H1687 0.950 . S
C1716 C1715 1.334 . S
C1716 C1717 1.287 . S
C1717 C1716 1.287 . S
C1717 C1718 1.524 1_565 S
C1717 H1720 0.999 . S
C1718 H1688 0.950 . S
C1718 C1717 1.524 1_545 S
C1718 C1719 1.415 . S
C1719 H1689 0.950 . S
C1719 C1714 1.345 1_545 S
C1719 C1718 1.415 . S
H1720 C1717 0.999 . S
H1721 C1702 0.913 . S
H1722 C1740 0.951 . S
H1723 C1742 0.951 . S
H1724 C1744 0.950 . S
H1725 C1745 0.950 . S
H1726 C1747 0.950 . S
H1727 C1750 0.950 . S
H1728 C1751 0.950 . S
H1729 C1753 0.950 . S
H1730 C1754 0.950 . S
H1731 C1755 0.951 . S
H1732 C1757 0.951 . S
H1733 C1759 0.950 . S
H1734 C1760 0.950 . S
H1735 C1762 0.950 . S
H1736 C1765 0.950 . S
H1737 C1766 0.950 . S
H1738 C1768 0.950 . S
H1739 C1769 0.950 . S
C1740 H1722 0.951 . S
C1740 C1741 1.366 . S
C1740 C1742 1.388 . S
C1741 C1740 1.366 . S
C1741 C1745 1.385 . S
C1742 H1723 0.951 . S
C1742 C1740 1.388 . S
C1742 C1743 1.366 . S
C1743 C1742 1.366 . S
C1743 C1744 1.414 . S
C1743 C1746 1.499 . S
C1744 H1724 0.950 . S
C1744 C1743 1.414 . S
C1744 C1745 1.374 . S
C1745 H1725 0.950 . S
C1745 C1741 1.385 . S
C1745 C1744 1.374 . S
C1746 C1743 1.499 . S
C1746 C1747 1.373 . S
C1746 C1748 1.389 . S
C1747 H1726 0.950 . S
C1747 C1746 1.373 . S
C1747 C1763 1.377 . S
C1748 C1746 1.389 . S
C1748 C1749 1.524 . S
C1748 C1762 1.377 . S
C1749 C1748 1.524 . S
C1749 C1750 1.397 . S
C1749 C1754 1.363 . S
C1750 H1727 0.950 . S
C1750 C1749 1.397 . S
C1750 C1751 1.334 . S
C1751 H1728 0.950 . S
C1751 C1750 1.334 . S
C1751 C1752 1.287 . S
C1752 C1751 1.287 . S
C1752 C1753 1.524 . S
C1752 H1771 0.913 . S
C1753 H1729 0.950 . S
C1753 C1752 1.524 . S
C1753 C1754 1.415 . S
C1754 H1730 0.950 . S
C1754 C1749 1.363 . S
C1754 C1753 1.415 . S
C1755 H1731 0.951 . S
C1755 C1756 1.366 . S
C1755 C1757 1.388 . S
C1756 C1755 1.366 . S
C1756 C1760 1.385 . S
C1757 H1732 0.951 . S
C1757 C1755 1.388 . S
C1757 C1758 1.366 . S
C1758 C1757 1.366 . S
C1758 C1759 1.414 . S
C1758 C1761 1.499 . S
C1759 H1733 0.950 . S
C1759 C1758 1.414 . S
C1759 C1760 1.374 . S
C1760 H1734 0.950 . S
C1760 C1756 1.385 . S
C1760 C1759 1.374 . S
C1761 C1758 1.499 . S
C1761 C1762 1.373 . S
C1761 C1763 1.389 . S
C1762 H1735 0.950 . S
C1762 C1748 1.377 . S
C1762 C1761 1.373 . S
C1763 C1747 1.377 . S
C1763 C1761 1.389 . S
C1763 C1764 1.524 . S
C1764 C1763 1.524 . S
C1764 C1765 1.397 . S
C1764 C1769 1.363 . S
C1765 H1736 0.950 . S
C1765 C1764 1.397 . S
C1765 C1766 1.334 . S
C1766 H1737 0.950 . S
C1766 C1765 1.334 . S
C1766 C1767 1.287 . S
C1767 C1766 1.287 . S
C1767 C1768 1.524 . S
C1767 H1770 0.999 . S
C1768 H1738 0.950 . S
C1768 C1767 1.524 . S
C1768 C1769 1.415 . S
C1769 H1739 0.950 . S
C1769 C1764 1.363 . S
C1769 C1768 1.415 . S
H1770 C1767 0.999 . S
H1771 C1752 0.913 . S
H1772 C1790 0.951 . S
H1773 C1792 0.951 . S
H1774 C1794 0.950 . S
H1775 C1795 0.950 . S
H1776 C1797 0.950 . S
H1777 C1800 0.950 . S
H1778 C1801 0.950 . S
H1779 C1803 0.950 . S
H1780 C1804 0.950 . S
H1781 C1805 0.951 . S
H1782 C1807 0.951 . S
H1783 C1809 0.950 . S
H1784 C1810 0.950 . S
H1785 C1812 0.950 . S
H1786 C1815 0.950 . S
H1787 C1816 0.950 . S
H1788 C1818 0.950 . S
H1789 C1819 0.950 . S
C1790 H1772 0.951 . S
C1790 C1791 1.366 . S
C1790 C1792 1.388 . S
C1791 C1790 1.366 . S
C1791 C1795 1.385 . S
C1792 H1773 0.951 . S
C1792 C1790 1.388 . S
C1792 C1793 1.366 . S
C1793 C1792 1.366 . S
C1793 C1794 1.414 . S
C1793 C1796 1.499 . S
C1794 H1774 0.950 . S
C1794 C1793 1.414 . S
C1794 C1795 1.374 . S
C1795 H1775 0.950 . S
C1795 C1791 1.385 . S
C1795 C1794 1.374 . S
C1796 C1793 1.499 . S
C1796 C1797 1.373 . S
C1796 C1798 1.389 . S
C1797 H1776 0.950 . S
C1797 C1796 1.373 . S
C1797 C1813 1.377 . S
C1798 C1796 1.389 . S
C1798 C1799 1.524 . S
C1798 C1812 1.377 . S
C1799 C1798 1.524 . S
C1799 C1800 1.397 . S
C1799 C1804 1.363 . S
C1800 H1777 0.950 . S
C1800 C1799 1.397 . S
C1800 C1801 1.334 . S
C1801 H1778 0.950 . S
C1801 C1800 1.334 . S
C1801 C1802 1.287 . S
C1802 C1801 1.287 . S
C1802 C1803 1.524 . S
C1802 H1821 0.913 . S
C1803 H1779 0.950 . S
C1803 C1802 1.524 . S
C1803 C1804 1.415 . S
C1804 H1780 0.950 . S
C1804 C1799 1.363 . S
C1804 C1803 1.415 . S
C1805 H1781 0.951 . S
C1805 C1806 1.366 . S
C1805 C1807 1.388 . S
C1806 C1805 1.366 . S
C1806 C1810 1.385 . S
C1807 H1782 0.951 . S
C1807 C1805 1.388 . S
C1807 C1808 1.366 . S
C1808 C1807 1.366 . S
C1808 C1809 1.414 . S
C1808 C1811 1.499 . S
C1809 H1783 0.950 . S
C1809 C1808 1.414 . S
C1809 C1810 1.374 . S
C1810 H1784 0.950 . S
C1810 C1806 1.385 . S
C1810 C1809 1.374 . S
C1811 C1808 1.499 . S
C1811 C1812 1.373 . S
C1811 C1813 1.389 . S
C1812 H1785 0.950 . S
C1812 C1798 1.377 . S
C1812 C1811 1.373 . S
C1813 C1797 1.377 . S
C1813 C1811 1.389 . S
C1813 C1814 1.524 . S
C1814 C1813 1.524 . S
C1814 C1815 1.397 . S
C1814 C1819 1.363 . S
C1815 H1786 0.950 . S
C1815 C1814 1.397 . S
C1815 C1816 1.334 . S
C1816 H1787 0.950 . S
C1816 C1815 1.334 . S
C1816 C1817 1.287 . S
C1817 C1816 1.287 . S
C1817 C1818 1.524 . S
C1817 H1820 0.999 . S
C1818 H1788 0.950 . S
C1818 C1817 1.524 . S
C1818 C1819 1.415 . S
C1819 H1789 0.950 . S
C1819 C1814 1.363 . S
C1819 C1818 1.415 . S
H1820 C1817 0.999 . S
H1821 C1802 0.913 . S
H1822 C1840 0.951 . S
H1823 C1842 0.951 . S
H1824 C1844 0.950 . S
H1825 C1845 0.950 . S
H1826 C1847 0.950 . S
H1827 C1850 0.950 . S
H1828 C1851 0.950 . S
H1829 C1853 0.950 . S
H1830 C1854 0.950 . S
H1831 C1855 0.951 . S
H1832 C1857 0.951 . S
H1833 C1859 0.950 . S
H1834 C1860 0.950 . S
H1835 C1862 0.950 . S
H1836 C1865 0.950 . S
H1837 C1866 0.950 . S
H1838 C1868 0.950 . S
H1839 C1869 0.950 . S
C1840 H1822 0.951 . S
C1840 C1841 1.366 . S
C1840 C1842 1.388 . S
C1841 C1840 1.366 . S
C1841 C1845 1.385 . S
C1842 H1823 0.951 . S
C1842 C1840 1.388 . S
C1842 C1843 1.366 . S
C1843 C1842 1.366 . S
C1843 C1844 1.414 . S
C1843 C1846 1.499 . S
C1844 H1824 0.950 . S
C1844 C1843 1.414 . S
C1844 C1845 1.374 . S
C1845 H1825 0.950 . S
C1845 C1841 1.385 . S
C1845 C1844 1.374 . S
C1846 C1843 1.499 . S
C1846 C1847 1.373 . S
C1846 C1848 1.389 . S
C1847 H1826 0.950 . S
C1847 C1846 1.373 . S
C1847 C1863 1.377 . S
C1848 C1846 1.389 . S
C1848 C1849 1.524 . S
C1848 C1862 1.377 . S
C1849 C1848 1.524 . S
C1849 C1850 1.397 . S
C1849 C1854 1.363 . S
C1850 H1827 0.950 . S
C1850 C1849 1.397 . S
C1850 C1851 1.334 . S
C1851 H1828 0.950 . S
C1851 C1850 1.334 . S
C1851 C1852 1.287 . S
C1852 C1851 1.287 . S
C1852 C1853 1.524 . S
C1852 H1871 0.913 . S
C1853 H1829 0.950 . S
C1853 C1852 1.524 . S
C1853 C1854 1.415 . S
C1854 H1830 0.950 . S
C1854 C1849 1.363 . S
C1854 C1853 1.415 . S
C1855 H1831 0.951 . S
C1855 C1856 1.366 . S
C1855 C1857 1.388 . S
C1856 C1855 1.366 . S
C1856 C1860 1.385 . S
C1857 H1832 0.951 . S
C1857 C1855 1.388 . S
C1857 C1858 1.366 . S
C1858 C1857 1.366 . S
C1858 C1859 1.414 . S
C1858 C1861 1.499 . S
C1859 H1833 0.950 . S
C1859 C1858 1.414 . S
C1859 C1860 1.374 . S
C1860 H1834 0.950 . S
C1860 C1856 1.385 . S
C1860 C1859 1.374 . S
C1861 C1858 1.499 . S
C1861 C1862 1.373 . S
C1861 C1863 1.389 . S
C1862 H1835 0.950 . S
C1862 C1848 1.377 . S
C1862 C1861 1.373 . S
C1863 C1847 1.377 . S
C1863 C1861 1.389 . S
C1863 C1864 1.524 . S
C1864 C1863 1.524 . S
C1864 C1865 1.397 . S
C1864 C1869 1.363 . S
C1865 H1836 0.950 . S
C1865 C1864 1.397 . S
C1865 C1866 1.334 . S
C1866 H1837 0.950 . S
C1866 C1865 1.334 . S
C1866 C1867 1.287 . S
C1867 C1866 1.287 . S
C1867 C1868 1.524 . S
C1867 H1870 0.999 . S
C1868 H1838 0.950 . S
C1868 C1867 1.524 . S
C1868 C1869 1.415 . S
C1869 H1839 0.950 . S
C1869 C1864 1.363 . S
C1869 C1868 1.415 . S
H1870 C1867 0.999 . S
H1871 C1852 0.913 . S
H1872 C1890 0.951 . S
H1873 C1892 0.951 . S
H1874 C1894 0.950 . S
H1875 C1895 0.950 . S
H1876 C1897 0.950 . S
H1877 C1900 0.950 . S
H1878 C1901 0.950 . S
H1879 C1903 0.950 . S
H1880 C1904 0.950 . S
H1881 C1905 0.951 . S
H1882 C1907 0.951 . S
H1883 C1909 0.950 . S
H1884 C1910 0.950 . S
H1885 C1912 0.950 . S
H1886 C1915 0.950 . S
H1887 C1916 0.950 . S
H1888 C1918 0.950 . S
H1889 C1919 0.950 . S
C1890 H1872 0.951 . S
C1890 C1891 1.366 . S
C1890 C1892 1.388 . S
C1891 C1890 1.366 . S
C1891 C1895 1.385 . S
C1892 H1873 0.951 . S
C1892 C1890 1.388 . S
C1892 C1893 1.366 . S
C1893 C1892 1.366 . S
C1893 C1894 1.414 . S
C1893 C1896 1.499 . S
C1894 H1874 0.950 . S
C1894 C1893 1.414 . S
C1894 C1895 1.374 . S
C1895 H1875 0.950 . S
C1895 C1891 1.385 . S
C1895 C1894 1.374 . S
C1896 C1893 1.499 . S
C1896 C1897 1.373 . S
C1896 C1898 1.389 . S
C1897 H1876 0.950 . S
C1897 C1896 1.373 . S
C1897 C1913 1.377 . S
C1898 C1896 1.389 . S
C1898 C1899 1.524 . S
C1898 C1912 1.377 . S
C1899 C1898 1.524 . S
C1899 C1900 1.397 . S
C1899 C1904 1.363 . S
C1900 H1877 0.950 . S
C1900 C1899 1.397 . S
C1900 C1901 1.334 . S
C1901 H1878 0.950 . S
C1901 C1900 1.334 . S
C1901 C1902 1.287 . S
C1902 C1901 1.287 . S
C1902 C1903 1.524 . S
C1902 H1921 0.913 . S
C1903 H1879 0.950 . S
C1903 C1902 1.524 . S
C1903 C1904 1.415 . S
C1904 H1880 0.950 . S
C1904 C1899 1.363 . S
C1904 C1903 1.415 . S
C1905 H1881 0.951 . S
C1905 C1906 1.366 . S
C1905 C1907 1.388 . S
C1906 C1905 1.366 . S
C1906 C1910 1.385 . S
C1907 H1882 0.951 . S
C1907 C1905 1.388 . S
C1907 C1908 1.366 . S
C1908 C1907 1.366 . S
C1908 C1909 1.414 . S
C1908 C1911 1.499 . S
C1909 H1883 0.950 . S
C1909 C1908 1.414 . S
C1909 C1910 1.374 . S
C1910 H1884 0.950 . S
C1910 C1906 1.385 . S
C1910 C1909 1.374 . S
C1911 C1908 1.499 . S
C1911 C1912 1.373 . S
C1911 C1913 1.389 . S
C1912 H1885 0.950 . S
C1912 C1898 1.377 . S
C1912 C1911 1.373 . S
C1913 C1897 1.377 . S
C1913 C1911 1.389 . S
C1913 C1914 1.524 . S
C1914 C1913 1.524 . S
C1914 C1915 1.397 . S
C1914 C1919 1.363 . S
C1915 H1886 0.950 . S
C1915 C1914 1.397 . S
C1915 C1916 1.334 . S
C1916 H1887 0.950 . S
C1916 C1915 1.334 . S
C1916 C1917 1.287 . S
C1917 C1916 1.287 . S
C1917 C1918 1.524 . S
C1917 H1920 0.999 . S
C1918 H1888 0.950 . S
C1918 C1917 1.524 . S
C1918 C1919 1.415 . S
C1919 H1889 0.950 . S
C1919 C1914 1.363 . S
C1919 C1918 1.415 . S
H1920 C1917 0.999 . S
H1921 C1902 0.913 . S
H1922 C1940 0.951 . S
H1923 C1942 0.951 . S
H1924 C1944 0.950 . S
H1925 C1945 0.950 . S
H1926 C1947 0.950 . S
H1927 C1950 0.950 . S
H1928 C1951 0.950 . S
H1929 C1953 0.950 . S
H1930 C1954 0.950 . S
H1931 C1955 0.951 . S
H1932 C1957 0.951 . S
H1933 C1959 0.950 . S
H1934 C1960 0.950 . S
H1935 C1962 0.950 . S
H1936 C1965 0.950 . S
H1937 C1966 0.950 . S
H1938 C1968 0.950 . S
H1939 C1969 0.950 . S
C1940 H1922 0.951 . S
C1940 C1941 1.366 . S
C1940 C1942 1.388 . S
C1941 C1940 1.366 . S
C1941 C1945 1.385 . S
C1942 H1923 0.951 . S
C1942 C1940 1.388 . S
C1942 C1943 1.366 . S
C1943 C1942 1.366 . S
C1943 C1944 1.414 . S
C1943 C1946 1.499 . S
C1944 H1924 0.950 . S
C1944 C1943 1.414 . S
C1944 C1945 1.374 . S
C1945 H1925 0.950 . S
C1945 C1941 1.385 . S
C1945 C1944 1.374 . S
C1946 C1943 1.499 . S
C1946 C1947 1.373 . S
C1946 C1948 1.389 . S
C1947 H1926 0.950 . S
C1947 C1946 1.373 . S
C1947 C1963 1.377 . S
C1948 C1946 1.389 . S
C1948 C1949 1.524 . S
C1948 C1962 1.377 . S
C1949 C1948 1.524 . S
C1949 C1950 1.397 . S
C1949 C1954 1.363 . S
C1950 H1927 0.950 . S
C1950 C1949 1.397 . S
C1950 C1951 1.334 . S
C1951 H1928 0.950 . S
C1951 C1950 1.334 . S
C1951 C1952 1.287 . S
C1952 C1951 1.287 . S
C1952 C1953 1.524 . S
C1952 H1971 0.913 . S
C1953 H1929 0.950 . S
C1953 C1952 1.524 . S
C1953 C1954 1.415 . S
C1954 H1930 0.950 . S
C1954 C1949 1.363 . S
C1954 C1953 1.415 . S
C1955 H1931 0.951 . S
C1955 C1956 1.366 . S
C1955 C1957 1.388 . S
C1956 C1955 1.366 . S
C1956 C1960 1.385 . S
C1957 H1932 0.951 . S
C1957 C1955 1.388 . S
C1957 C1958 1.366 . S
C1958 C1957 1.366 . S
C1958 C1959 1.414 . S
C1958 C1961 1.499 . S
C1959 H1933 0.950 . S
C1959 C1958 1.414 . S
C1959 C1960 1.374 . S
C1960 H1934 0.950 . S
C1960 C1956 1.385 . S
C1960 C1959 1.374 . S
C1961 C1958 1.499 . S
C1961 C1962 1.373 . S
C1961 C1963 1.389 . S
C1962 H1935 0.950 . S
C1962 C1948 1.377 . S
C1962 C1961 1.373 . S
C1963 C1947 1.377 . S
C1963 C1961 1.389 . S
C1963 C1964 1.524 . S
C1964 C1963 1.524 . S
C1964 C1965 1.397 . S
C1964 C1969 1.363 . S
C1965 H1936 0.950 . S
C1965 C1964 1.397 . S
C1965 C1966 1.334 . S
C1966 H1937 0.950 . S
C1966 C1965 1.334 . S
C1966 C1967 1.287 . S
C1967 C1966 1.287 . S
C1967 C1968 1.524 . S
C1967 H1970 0.999 . S
C1968 H1938 0.950 . S
C1968 C1967 1.524 . S
C1968 C1969 1.415 . S
C1969 H1939 0.950 . S
C1969 C1964 1.363 . S
C1969 C1968 1.415 . S
H1970 C1967 0.999 . S
H1971 C1952 0.913 . S
H1972 C1990 0.951 . S
H1973 C1992 0.951 . S
H1974 C1994 0.950 . S
H1975 C1995 0.950 . S
H1976 C1997 0.950 . S
H1977 C2000 0.950 . S
H1978 C2001 0.950 . S
H1979 C2003 0.950 . S
H1980 C2004 0.950 . S
H1981 C2005 0.951 . S
H1982 C2007 0.951 . S
H1983 C2009 0.950 . S
H1984 C2010 0.950 . S
H1985 C2012 0.950 . S
H1986 C2015 0.950 . S
H1987 C2016 0.950 . S
H1988 C2018 0.950 . S
H1989 C2019 0.950 . S
C1990 H1972 0.951 . S
C1990 C1991 1.366 . S
C1990 C1992 1.388 . S
C1991 C1990 1.366 . S
C1991 C1995 1.385 . S
C1992 H1973 0.951 . S
C1992 C1990 1.388 . S
C1992 C1993 1.366 . S
C1993 C1992 1.366 . S
C1993 C1994 1.414 . S
C1993 C1996 1.499 . S
C1994 H1974 0.950 . S
C1994 C1993 1.414 . S
C1994 C1995 1.374 . S
C1995 H1975 0.950 . S
C1995 C1991 1.385 . S
C1995 C1994 1.374 . S
C1996 C1993 1.499 . S
C1996 C1997 1.373 . S
C1996 C1998 1.389 . S
C1997 H1976 0.950 . S
C1997 C1996 1.373 . S
C1997 C2013 1.377 . S
C1998 C1996 1.389 . S
C1998 C1999 1.524 . S
C1998 C2012 1.377 . S
C1999 C1998 1.524 . S
C1999 C2000 1.397 . S
C1999 C2004 1.363 . S
C2000 H1977 0.950 . S
C2000 C1999 1.397 . S
C2000 C2001 1.334 . S
C2001 H1978 0.950 . S
C2001 C2000 1.334 . S
C2001 C2002 1.287 . S
C2002 C2001 1.287 . S
C2002 C2003 1.524 . S
C2002 H2021 0.913 . S
C2003 H1979 0.950 . S
C2003 C2002 1.524 . S
C2003 C2004 1.415 . S
C2004 H1980 0.950 . S
C2004 C1999 1.363 . S
C2004 C2003 1.415 . S
C2005 H1981 0.951 . S
C2005 C2006 1.366 . S
C2005 C2007 1.388 . S
C2006 C2005 1.366 . S
C2006 C2010 1.385 . S
C2007 H1982 0.951 . S
C2007 C2005 1.388 . S
C2007 C2008 1.366 . S
C2008 C2007 1.366 . S
C2008 C2009 1.414 . S
C2008 C2011 1.499 . S
C2009 H1983 0.950 . S
C2009 C2008 1.414 . S
C2009 C2010 1.374 . S
C2010 H1984 0.950 . S
C2010 C2006 1.385 . S
C2010 C2009 1.374 . S
C2011 C2008 1.499 . S
C2011 C2012 1.373 . S
C2011 C2013 1.389 . S
C2012 H1985 0.950 . S
C2012 C1998 1.377 . S
C2012 C2011 1.373 . S
C2013 C1997 1.377 . S
C2013 C2011 1.389 . S
C2013 C2014 1.524 . S
C2014 C2013 1.524 . S
C2014 C2015 1.397 . S
C2014 C2019 1.363 . S
C2015 H1986 0.950 . S
C2015 C2014 1.397 . S
C2015 C2016 1.334 . S
C2016 H1987 0.950 . S
C2016 C2015 1.334 . S
C2016 C2017 1.287 . S
C2017 C2016 1.287 . S
C2017 C2018 1.524 . S
C2017 H2020 0.999 . S
C2018 H1988 0.950 . S
C2018 C2017 1.524 . S
C2018 C2019 1.415 . S
C2019 H1989 0.950 . S
C2019 C2014 1.363 . S
C2019 C2018 1.415 . S
H2020 C2017 0.999 . S
H2021 C2002 0.913 . S
H2022 C2040 0.951 . S
H2023 C2042 0.944 1_565 S
H2024 C2044 0.950 . S
H2025 C2045 0.950 . S
H2026 C2047 0.950 . S
H2027 C2050 0.950 . S
H2028 C2051 0.950 . S
H2029 C2053 0.950 . S
H2030 C2054 0.950 . S
H2031 C2055 0.951 . S
H2032 C2057 0.951 . S
H2033 C2059 0.950 . S
H2034 C2060 0.950 . S
H2035 C2062 0.950 . S
H2036 C2065 0.950 . S
H2037 C2066 0.950 . S
H2038 C2068 0.950 . S
H2039 C2069 0.950 . S
C2040 H2022 0.951 . S
C2040 C2041 1.366 . S
C2040 C2042 1.393 . S
C2041 C2040 1.366 . S
C2041 C2045 1.385 . S
C2042 H2023 0.944 1_545 S
C2042 C2040 1.393 . S
C2042 C2043 1.367 1_545 S
C2043 C2042 1.367 1_565 S
C2043 C2044 1.414 1_565 S
C2043 C2046 1.499 . S
C2044 H2024 0.950 . S
C2044 C2043 1.414 1_545 S
C2044 C2045 1.374 . S
C2045 H2025 0.950 . S
C2045 C2041 1.385 . S
C2045 C2044 1.374 . S
C2046 C2043 1.499 . S
C2046 C2047 1.373 . S
C2046 C2048 1.389 . S
C2047 H2026 0.950 . S
C2047 C2046 1.373 . S
C2047 C2063 1.377 . S
C2048 C2046 1.389 . S
C2048 C2049 1.524 . S
C2048 C2062 1.377 . S
C2049 C2048 1.524 . S
C2049 C2050 1.397 . S
C2049 C2054 1.363 . S
C2050 H2027 0.950 . S
C2050 C2049 1.397 . S
C2050 C2051 1.334 . S
C2051 H2028 0.950 . S
C2051 C2050 1.334 . S
C2051 C2052 1.287 . S
C2052 C2051 1.287 . S
C2052 C2053 1.524 . S
C2052 H2071 0.913 . S
C2053 H2029 0.950 . S
C2053 C2052 1.524 . S
C2053 C2054 1.415 . S
C2054 H2030 0.950 . S
C2054 C2049 1.363 . S
C2054 C2053 1.415 . S
C2055 H2031 0.951 . S
C2055 C2056 1.366 . S
C2055 C2057 1.388 . S
C2056 C2055 1.366 . S
C2056 C2060 1.385 . S
C2057 H2032 0.951 . S
C2057 C2055 1.388 . S
C2057 C2058 1.366 . S
C2058 C2057 1.366 . S
C2058 C2059 1.414 . S
C2058 C2061 1.499 . S
C2059 H2033 0.950 . S
C2059 C2058 1.414 . S
C2059 C2060 1.374 . S
C2060 H2034 0.950 . S
C2060 C2056 1.385 . S
C2060 C2059 1.374 . S
C2061 C2058 1.499 . S
C2061 C2062 1.373 . S
C2061 C2063 1.389 . S
C2062 H2035 0.950 . S
C2062 C2048 1.377 . S
C2062 C2061 1.373 . S
C2063 C2047 1.377 . S
C2063 C2061 1.389 . S
C2063 C2064 1.524 . S
C2064 C2063 1.524 . S
C2064 C2065 1.397 . S
C2064 C2069 1.363 . S
C2065 H2036 0.950 . S
C2065 C2064 1.397 . S
C2065 C2066 1.334 . S
C2066 H2037 0.950 . S
C2066 C2065 1.334 . S
C2066 C2067 1.287 . S
C2067 C2066 1.287 . S
C2067 C2068 1.524 . S
C2067 H2070 0.999 . S
C2068 H2038 0.950 . S
C2068 C2067 1.524 . S
C2068 C2069 1.415 . S
C2069 H2039 0.950 . S
C2069 C2064 1.363 . S
C2069 C2068 1.415 . S
H2070 C2067 0.999 . S
H2071 C2052 0.913 . S
H2072 C2090 0.951 . S
H2073 C2092 0.951 . S
H2074 C2094 0.950 . S
H2075 C2095 0.950 . S
H2076 C2097 0.950 . S
H2077 C2100 0.950 . S
H2078 C2101 0.950 . S
H2079 C2103 0.950 . S
H2080 C2104 0.950 . S
H2081 C2105 0.951 . S
H2082 C2107 0.951 . S
H2083 C2109 0.950 . S
H2084 C2110 0.950 . S
H2085 C2112 0.950 . S
H2086 C2115 0.950 . S
H2087 C2116 0.950 . S
H2088 C2118 0.950 . S
H2089 C2119 0.950 . S
C2090 H2072 0.951 . S
C2090 C2091 1.366 . S
C2090 C2092 1.388 1_655 S
C2091 C2090 1.366 . S
C2091 C2095 1.385 . S
C2092 H2073 0.951 . S
C2092 C2090 1.388 1_455 S
C2092 C2093 1.366 . S
C2093 C2092 1.366 . S
C2093 C2094 1.414 . S
C2093 C2096 1.499 . S
C2094 H2074 0.950 . S
C2094 C2093 1.414 . S
C2094 C2095 1.374 1_455 S
C2095 H2075 0.950 . S
C2095 C2091 1.385 . S
C2095 C2094 1.374 1_655 S
C2096 C2093 1.499 . S
C2096 C2097 1.373 . S
C2096 C2098 1.389 . S
C2097 H2076 0.950 . S
C2097 C2096 1.373 . S
C2097 C2113 1.377 . S
C2098 C2096 1.389 . S
C2098 C2099 1.524 . S
C2098 C2112 1.377 . S
C2099 C2098 1.524 . S
C2099 C2100 1.397 . S
C2099 C2104 1.363 . S
C2100 H2077 0.950 . S
C2100 C2099 1.397 . S
C2100 C2101 1.334 . S
C2101 H2078 0.950 . S
C2101 C2100 1.334 . S
C2101 C2102 1.287 . S
C2102 C2101 1.287 . S
C2102 C2103 1.524 . S
C2102 H2121 0.913 . S
C2103 H2079 0.950 . S
C2103 C2102 1.524 . S
C2103 C2104 1.415 . S
C2104 H2080 0.950 . S
C2104 C2099 1.363 . S
C2104 C2103 1.415 . S
C2105 H2081 0.951 . S
C2105 C2106 1.366 . S
C2105 C2107 1.388 . S
C2106 C2105 1.366 . S
C2106 C2110 1.385 . S
C2107 H2082 0.951 . S
C2107 C2105 1.388 . S
C2107 C2108 1.366 . S
C2108 C2107 1.366 . S
C2108 C2109 1.414 . S
C2108 C2111 1.499 . S
C2109 H2083 0.950 . S
C2109 C2108 1.414 . S
C2109 C2110 1.374 . S
C2110 H2084 0.950 . S
C2110 C2106 1.385 . S
C2110 C2109 1.374 . S
C2111 C2108 1.499 . S
C2111 C2112 1.373 . S
C2111 C2113 1.389 . S
C2112 H2085 0.950 . S
C2112 C2098 1.377 . S
C2112 C2111 1.373 . S
C2113 C2097 1.377 . S
C2113 C2111 1.389 . S
C2113 C2114 1.524 . S
C2114 C2113 1.524 . S
C2114 C2115 1.397 . S
C2114 C2119 1.363 . S
C2115 H2086 0.950 . S
C2115 C2114 1.397 . S
C2115 C2116 1.334 . S
C2116 H2087 0.950 . S
C2116 C2115 1.334 . S
C2116 C2117 1.287 . S
C2117 C2116 1.287 . S
C2117 C2118 1.524 . S
C2117 H2120 0.999 . S
C2118 H2088 0.950 . S
C2118 C2117 1.524 . S
C2118 C2119 1.415 . S
C2119 H2089 0.950 . S
C2119 C2114 1.363 . S
C2119 C2118 1.415 . S
H2120 C2117 0.999 . S
H2121 C2102 0.913 . S
H2122 C2140 0.951 . S
H2123 C2142 0.951 . S
H2124 C2144 0.950 . S
H2125 C2145 0.950 . S
H2126 C2147 0.950 . S
H2127 C2150 0.950 . S
H2128 C2151 0.950 . S
H2129 C2153 0.950 . S
H2130 C2154 0.950 . S
H2131 C2155 0.951 . S
H2132 C2157 0.951 . S
H2133 C2159 0.950 . S
H2134 C2160 0.950 . S
H2135 C2162 0.950 . S
H2136 C2165 0.950 . S
H2137 C2166 0.950 . S
H2138 C2168 0.950 . S
H2139 C2169 0.950 . S
C2140 H2122 0.951 . S
C2140 C2141 1.366 . S
C2140 C2142 1.388 . S
C2141 C2140 1.366 . S
C2141 C2145 1.385 . S
C2142 H2123 0.951 . S
C2142 C2140 1.388 . S
C2142 C2143 1.366 . S
C2143 C2142 1.366 . S
C2143 C2144 1.414 . S
C2143 C2146 1.499 . S
C2144 H2124 0.950 . S
C2144 C2143 1.414 . S
C2144 C2145 1.374 . S
C2145 H2125 0.950 . S
C2145 C2141 1.385 . S
C2145 C2144 1.374 . S
C2146 C2143 1.499 . S
C2146 C2147 1.373 . S
C2146 C2148 1.389 . S
C2147 H2126 0.950 . S
C2147 C2146 1.373 . S
C2147 C2163 1.377 . S
C2148 C2146 1.389 . S
C2148 C2149 1.524 . S
C2148 C2162 1.377 . S
C2149 C2148 1.524 . S
C2149 C2150 1.397 . S
C2149 C2154 1.363 . S
C2150 H2127 0.950 . S
C2150 C2149 1.397 . S
C2150 C2151 1.334 . S
C2151 H2128 0.950 . S
C2151 C2150 1.334 . S
C2151 C2152 1.287 . S
C2152 C2151 1.287 . S
C2152 C2153 1.524 . S
C2152 H2171 0.913 . S
C2153 H2129 0.950 . S
C2153 C2152 1.524 . S
C2153 C2154 1.415 . S
C2154 H2130 0.950 . S
C2154 C2149 1.363 . S
C2154 C2153 1.415 . S
C2155 H2131 0.951 . S
C2155 C2156 1.366 . S
C2155 C2157 1.388 . S
C2156 C2155 1.366 . S
C2156 C2160 1.385 . S
C2157 H2132 0.951 . S
C2157 C2155 1.388 . S
C2157 C2158 1.366 . S
C2158 C2157 1.366 . S
C2158 C2159 1.414 . S
C2158 C2161 1.499 . S
C2159 H2133 0.950 . S
C2159 C2158 1.414 . S
C2159 C2160 1.374 . S
C2160 H2134 0.950 . S
C2160 C2156 1.385 . S
C2160 C2159 1.374 . S
C2161 C2158 1.499 . S
C2161 C2162 1.373 . S
C2161 C2163 1.389 . S
C2162 H2135 0.950 . S
C2162 C2148 1.377 . S
C2162 C2161 1.373 . S
C2163 C2147 1.377 . S
C2163 C2161 1.389 . S
C2163 C2164 1.524 . S
C2164 C2163 1.524 . S
C2164 C2165 1.397 . S
C2164 C2169 1.363 . S
C2165 H2136 0.950 . S
C2165 C2164 1.397 . S
C2165 C2166 1.334 . S
C2166 H2137 0.950 . S
C2166 C2165 1.334 . S
C2166 C2167 1.287 . S
C2167 C2166 1.287 . S
C2167 C2168 1.524 . S
C2167 H2170 0.999 . S
C2168 H2138 0.950 . S
C2168 C2167 1.524 . S
C2168 C2169 1.415 . S
C2169 H2139 0.950 . S
C2169 C2164 1.363 . S
C2169 C2168 1.415 . S
H2170 C2167 0.999 . S
H2171 C2152 0.913 . S
H2172 C2190 0.951 . S
H2173 C2192 0.951 . S
H2174 C2194 0.950 . S
H2175 C2195 0.950 . S
H2176 C2197 0.950 . S
H2177 C2200 0.950 . S
H2178 C2201 0.950 . S
H2179 C2203 0.950 . S
H2180 C2204 0.950 . S
H2181 C2205 0.951 . S
H2182 C2207 0.951 . S
H2183 C2209 0.950 . S
H2184 C2210 0.950 . S
H2185 C2212 0.950 . S
H2186 C2215 0.950 . S
H2187 C2216 0.950 . S
H2188 C2218 0.950 . S
H2189 C2219 0.950 . S
C2190 H2172 0.951 . S
C2190 C2191 1.366 . S
C2190 C2192 1.388 . S
C2191 C2190 1.366 . S
C2191 C2195 1.385 . S
C2192 H2173 0.951 . S
C2192 C2190 1.388 . S
C2192 C2193 1.366 . S
C2193 C2192 1.366 . S
C2193 C2194 1.414 . S
C2193 C2196 1.499 . S
C2194 H2174 0.950 . S
C2194 C2193 1.414 . S
C2194 C2195 1.374 . S
C2195 H2175 0.950 . S
C2195 C2191 1.385 . S
C2195 C2194 1.374 . S
C2196 C2193 1.499 . S
C2196 C2197 1.373 . S
C2196 C2198 1.389 . S
C2197 H2176 0.950 . S
C2197 C2196 1.373 . S
C2197 C2213 1.377 . S
C2198 C2196 1.389 . S
C2198 C2199 1.524 . S
C2198 C2212 1.377 . S
C2199 C2198 1.524 . S
C2199 C2200 1.397 . S
C2199 C2204 1.363 . S
C2200 H2177 0.950 . S
C2200 C2199 1.397 . S
C2200 C2201 1.334 . S
C2201 H2178 0.950 . S
C2201 C2200 1.334 . S
C2201 C2202 1.287 . S
C2202 C2201 1.287 . S
C2202 C2203 1.524 . S
C2202 H2221 0.913 . S
C2203 H2179 0.950 . S
C2203 C2202 1.524 . S
C2203 C2204 1.415 . S
C2204 H2180 0.950 . S
C2204 C2199 1.363 . S
C2204 C2203 1.415 . S
C2205 H2181 0.951 . S
C2205 C2206 1.366 . S
C2205 C2207 1.388 . S
C2206 C2205 1.366 . S
C2206 C2210 1.385 . S
C2207 H2182 0.951 . S
C2207 C2205 1.388 . S
C2207 C2208 1.366 . S
C2208 C2207 1.366 . S
C2208 C2209 1.414 . S
C2208 C2211 1.499 . S
C2209 H2183 0.950 . S
C2209 C2208 1.414 . S
C2209 C2210 1.374 . S
C2210 H2184 0.950 . S
C2210 C2206 1.385 . S
C2210 C2209 1.374 . S
C2211 C2208 1.499 . S
C2211 C2212 1.373 . S
C2211 C2213 1.389 . S
C2212 H2185 0.950 . S
C2212 C2198 1.377 . S
C2212 C2211 1.373 . S
C2213 C2197 1.377 . S
C2213 C2211 1.389 . S
C2213 C2214 1.524 . S
C2214 C2213 1.524 . S
C2214 C2215 1.397 . S
C2214 C2219 1.363 . S
C2215 H2186 0.950 . S
C2215 C2214 1.397 . S
C2215 C2216 1.334 . S
C2216 H2187 0.950 . S
C2216 C2215 1.334 . S
C2216 C2217 1.287 . S
C2217 C2216 1.287 . S
C2217 C2218 1.524 . S
C2217 H2220 0.999 . S
C2218 H2188 0.950 . S
C2218 C2217 1.524 . S
C2218 C2219 1.415 . S
C2219 H2189 0.950 . S
C2219 C2214 1.363 . S
C2219 C2218 1.415 . S
H2220 C2217 0.999 . S
H2221 C2202 0.913 . S
H2222 C2240 0.951 . S
H2223 C2242 0.951 . S
H2224 C2244 0.950 . S
H2225 C2245 0.950 . S
H2226 C2247 0.950 . S
H2227 C2250 0.950 . S
H2228 C2251 0.950 . S
H2229 C2253 0.950 . S
H2230 C2254 0.950 . S
H2231 C2255 0.951 . S
H2232 C2257 0.951 . S
H2233 C2259 0.950 . S
H2234 C2260 0.950 . S
H2235 C2262 0.950 . S
H2236 C2265 0.950 . S
H2237 C2266 0.950 . S
H2238 C2268 0.950 . S
H2239 C2269 0.950 . S
C2240 H2222 0.951 . S
C2240 C2241 1.366 . S
C2240 C2242 1.388 . S
C2241 C2240 1.366 . S
C2241 C2245 1.385 . S
C2242 H2223 0.951 . S
C2242 C2240 1.388 . S
C2242 C2243 1.366 . S
C2243 C2242 1.366 . S
C2243 C2244 1.414 . S
C2243 C2246 1.499 . S
C2244 H2224 0.950 . S
C2244 C2243 1.414 . S
C2244 C2245 1.374 . S
C2245 H2225 0.950 . S
C2245 C2241 1.385 . S
C2245 C2244 1.374 . S
C2246 C2243 1.499 . S
C2246 C2247 1.373 . S
C2246 C2248 1.389 . S
C2247 H2226 0.950 . S
C2247 C2246 1.373 . S
C2247 C2263 1.377 . S
C2248 C2246 1.389 . S
C2248 C2249 1.524 . S
C2248 C2262 1.377 . S
C2249 C2248 1.524 . S
C2249 C2250 1.397 . S
C2249 C2254 1.363 . S
C2250 H2227 0.950 . S
C2250 C2249 1.397 . S
C2250 C2251 1.334 . S
C2251 H2228 0.950 . S
C2251 C2250 1.334 . S
C2251 C2252 1.287 . S
C2252 C2251 1.287 . S
C2252 C2253 1.524 . S
C2252 H2271 0.913 . S
C2253 H2229 0.950 . S
C2253 C2252 1.524 . S
C2253 C2254 1.415 . S
C2254 H2230 0.950 . S
C2254 C2249 1.363 . S
C2254 C2253 1.415 . S
C2255 H2231 0.951 . S
C2255 C2256 1.366 . S
C2255 C2257 1.388 . S
C2256 C2255 1.366 . S
C2256 C2260 1.385 . S
C2257 H2232 0.951 . S
C2257 C2255 1.388 . S
C2257 C2258 1.366 . S
C2258 C2257 1.366 . S
C2258 C2259 1.414 . S
C2258 C2261 1.499 . S
C2259 H2233 0.950 . S
C2259 C2258 1.414 . S
C2259 C2260 1.374 . S
C2260 H2234 0.950 . S
C2260 C2256 1.385 . S
C2260 C2259 1.374 . S
C2261 C2258 1.499 . S
C2261 C2262 1.373 . S
C2261 C2263 1.389 . S
C2262 H2235 0.950 . S
C2262 C2248 1.377 . S
C2262 C2261 1.373 . S
C2263 C2247 1.377 . S
C2263 C2261 1.389 . S
C2263 C2264 1.524 . S
C2264 C2263 1.524 . S
C2264 C2265 1.397 . S
C2264 C2269 1.363 . S
C2265 H2236 0.950 . S
C2265 C2264 1.397 . S
C2265 C2266 1.334 . S
C2266 H2237 0.950 . S
C2266 C2265 1.334 . S
C2266 C2267 1.287 . S
C2267 C2266 1.287 . S
C2267 C2268 1.524 . S
C2267 H2270 0.999 . S
C2268 H2238 0.950 . S
C2268 C2267 1.524 . S
C2268 C2269 1.415 . S
C2269 H2239 0.950 . S
C2269 C2264 1.363 . S
C2269 C2268 1.415 . S
H2270 C2267 0.999 . S
H2271 C2252 0.913 . S
H2272 C2290 0.951 . S
H2273 C2292 0.951 . S
H2274 C2294 0.950 . S
H2275 C2295 0.950 . S
H2276 C2297 0.950 . S
H2277 C2300 0.950 . S
H2278 C2301 0.950 . S
H2279 C2303 0.950 . S
H2280 C2304 0.950 . S
H2281 C2305 0.951 . S
H2282 C2307 0.951 . S
H2283 C2309 0.950 . S
H2284 C2310 0.950 . S
H2285 C2312 0.950 . S
H2286 C2315 0.950 . S
H2287 C2316 0.950 . S
H2288 C2318 0.950 . S
H2289 C2319 0.950 . S
C2290 H2272 0.951 . S
C2290 C2291 1.366 . S
C2290 C2292 1.388 . S
C2291 C2290 1.366 . S
C2291 C2295 1.385 . S
C2292 H2273 0.951 . S
C2292 C2290 1.388 . S
C2292 C2293 1.366 . S
C2293 C2292 1.366 . S
C2293 C2294 1.414 . S
C2293 C2296 1.499 . S
C2294 H2274 0.950 . S
C2294 C2293 1.414 . S
C2294 C2295 1.374 . S
C2295 H2275 0.950 . S
C2295 C2291 1.385 . S
C2295 C2294 1.374 . S
C2296 C2293 1.499 . S
C2296 C2297 1.373 . S
C2296 C2298 1.389 . S
C2297 H2276 0.950 . S
C2297 C2296 1.373 . S
C2297 C2313 1.377 . S
C2298 C2296 1.389 . S
C2298 C2299 1.524 . S
C2298 C2312 1.377 . S
C2299 C2298 1.524 . S
C2299 C2300 1.397 . S
C2299 C2304 1.363 . S
C2300 H2277 0.950 . S
C2300 C2299 1.397 . S
C2300 C2301 1.334 . S
C2301 H2278 0.950 . S
C2301 C2300 1.334 . S
C2301 C2302 1.287 . S
C2302 C2301 1.287 . S
C2302 C2303 1.524 . S
C2302 H2321 0.913 . S
C2303 H2279 0.950 . S
C2303 C2302 1.524 . S
C2303 C2304 1.415 . S
C2304 H2280 0.950 . S
C2304 C2299 1.363 . S
C2304 C2303 1.415 . S
C2305 H2281 0.951 . S
C2305 C2306 1.366 . S
C2305 C2307 1.388 . S
C2306 C2305 1.366 . S
C2306 C2310 1.385 . S
C2307 H2282 0.951 . S
C2307 C2305 1.388 . S
C2307 C2308 1.366 . S
C2308 C2307 1.366 . S
C2308 C2309 1.414 . S
C2308 C2311 1.499 . S
C2309 H2283 0.950 . S
C2309 C2308 1.414 . S
C2309 C2310 1.374 . S
C2310 H2284 0.950 . S
C2310 C2306 1.385 . S
C2310 C2309 1.374 . S
C2311 C2308 1.499 . S
C2311 C2312 1.373 . S
C2311 C2313 1.389 . S
C2312 H2285 0.950 . S
C2312 C2298 1.377 . S
C2312 C2311 1.373 . S
C2313 C2297 1.377 . S
C2313 C2311 1.389 . S
C2313 C2314 1.524 . S
C2314 C2313 1.524 . S
C2314 C2315 1.397 . S
C2314 C2319 1.363 . S
C2315 H2286 0.950 . S
C2315 C2314 1.397 . S
C2315 C2316 1.334 . S
C2316 H2287 0.950 . S
C2316 C2315 1.334 . S
C2316 C2317 1.287 . S
C2317 C2316 1.287 . S
C2317 C2318 1.524 . S
C2317 H2320 0.999 . S
C2318 H2288 0.950 . S
C2318 C2317 1.524 . S
C2318 C2319 1.415 . S
C2319 H2289 0.950 . S
C2319 C2314 1.363 . S
C2319 C2318 1.415 . S
H2320 C2317 0.999 . S
H2321 C2302 0.913 . S
H2322 C2340 0.951 . S
H2323 C2342 0.951 . S
H2324 C2344 0.950 . S
H2325 C2345 0.950 . S
H2326 C2347 0.950 . S
H2327 C2350 0.950 . S
H2328 C2351 0.950 . S
H2329 C2353 0.950 . S
H2330 C2354 0.950 . S
H2331 C2355 0.951 . S
H2332 C2357 0.951 . S
H2333 C2359 0.950 . S
H2334 C2360 0.950 . S
H2335 C2362 0.950 . S
H2336 C2365 0.950 . S
H2337 C2366 0.950 . S
H2338 C2368 0.950 . S
H2339 C2369 0.950 . S
C2340 H2322 0.951 . S
C2340 C2341 1.366 . S
C2340 C2342 1.388 . S
C2341 C2340 1.366 . S
C2341 C2345 1.385 . S
C2342 H2323 0.951 . S
C2342 C2340 1.388 . S
C2342 C2343 1.366 . S
C2343 C2342 1.366 . S
C2343 C2344 1.414 . S
C2343 C2346 1.499 . S
C2344 H2324 0.950 . S
C2344 C2343 1.414 . S
C2344 C2345 1.374 . S
C2345 H2325 0.950 . S
C2345 C2341 1.385 . S
C2345 C2344 1.374 . S
C2346 C2343 1.499 . S
C2346 C2347 1.373 1_565 S
C2346 C2348 1.389 . S
C2347 H2326 0.950 . S
C2347 C2346 1.373 1_545 S
C2347 C2363 1.377 . S
C2348 C2346 1.389 . S
C2348 C2349 1.524 . S
C2348 C2362 1.377 1_565 S
C2349 C2348 1.524 . S
C2349 C2350 1.397 . S
C2349 C2354 1.363 . S
C2350 H2327 0.950 . S
C2350 C2349 1.397 . S
C2350 C2351 1.334 . S
C2351 H2328 0.950 . S
C2351 C2350 1.334 . S
C2351 C2352 1.287 . S
C2352 C2351 1.287 . S
C2352 C2353 1.524 . S
C2352 H2371 0.913 . S
C2353 H2329 0.950 . S
C2353 C2352 1.524 . S
C2353 C2354 1.415 . S
C2354 H2330 0.950 . S
C2354 C2349 1.363 . S
C2354 C2353 1.415 . S
C2355 H2331 0.951 . S
C2355 C2356 1.366 . S
C2355 C2357 1.388 . S
C2356 C2355 1.366 . S
C2356 C2360 1.385 . S
C2357 H2332 0.951 . S
C2357 C2355 1.388 . S
C2357 C2358 1.366 . S
C2358 C2357 1.366 . S
C2358 C2359 1.414 . S
C2358 C2361 1.499 . S
C2359 H2333 0.950 . S
C2359 C2358 1.414 . S
C2359 C2360 1.374 . S
C2360 H2334 0.950 . S
C2360 C2356 1.385 . S
C2360 C2359 1.374 . S
C2361 C2358 1.499 . S
C2361 C2362 1.373 . S
C2361 C2363 1.389 . S
C2362 H2335 0.950 . S
C2362 C2348 1.377 1_545 S
C2362 C2361 1.373 . S
C2363 C2347 1.377 . S
C2363 C2361 1.389 . S
C2363 C2364 1.524 . S
C2364 C2363 1.524 . S
C2364 C2365 1.397 . S
C2364 C2369 1.363 . S
C2365 H2336 0.950 . S
C2365 C2364 1.397 . S
C2365 C2366 1.334 . S
C2366 H2337 0.950 . S
C2366 C2365 1.334 . S
C2366 C2367 1.287 . S
C2367 C2366 1.287 . S
C2367 C2368 1.524 . S
C2367 H2370 0.999 . S
C2368 H2338 0.950 . S
C2368 C2367 1.524 . S
C2368 C2369 1.415 . S
C2369 H2339 0.950 . S
C2369 C2364 1.363 . S
C2369 C2368 1.415 . S
H2370 C2367 0.999 . S
H2371 C2352 0.913 . S
H2372 C2390 0.951 . S
H2373 C2392 0.951 . S
H2374 C2394 0.950 . S
H2375 C2395 0.950 . S
H2376 C2397 0.950 . S
H2377 C2400 0.950 . S
H2378 C2401 0.950 . S
H2379 C2403 0.950 . S
H2380 C2404 0.950 . S
H2381 C2405 0.951 . S
H2382 C2407 0.951 . S
H2383 C2409 0.950 . S
H2384 C2410 0.950 . S
H2385 C2412 0.950 . S
H2386 C2415 0.950 . S
H2387 C2416 0.950 . S
H2388 C2418 0.950 . S
H2389 C2419 0.950 . S
C2390 H2372 0.951 . S
C2390 C2391 1.366 . S
C2390 C2392 1.388 . S
C2391 C2390 1.366 . S
C2391 C2395 1.385 . S
C2392 H2373 0.951 . S
C2392 C2390 1.388 . S
C2392 C2393 1.366 . S
C2393 C2392 1.366 . S
C2393 C2394 1.414 . S
C2393 C2396 1.499 . S
C2394 H2374 0.950 . S
C2394 C2393 1.414 . S
C2394 C2395 1.374 . S
C2395 H2375 0.950 . S
C2395 C2391 1.385 . S
C2395 C2394 1.374 . S
C2396 C2393 1.499 . S
C2396 C2397 1.373 . S
C2396 C2398 1.389 1_455 S
C2397 H2376 0.950 . S
C2397 C2396 1.373 . S
C2397 C2413 1.377 1_455 S
C2398 C2396 1.389 1_655 S
C2398 C2399 1.524 . S
C2398 C2412 1.377 . S
C2399 C2398 1.524 . S
C2399 C2400 1.397 1_655 S
C2399 C2404 1.363 . S
C2400 H2377 0.950 . S
C2400 C2399 1.397 1_455 S
C2400 C2401 1.334 . S
C2401 H2378 0.950 . S
C2401 C2400 1.334 . S
C2401 C2402 1.287 1_455 S
C2402 C2401 1.287 1_655 S
C2402 C2403 1.524 . S
C2402 H2421 0.913 . S
C2403 H2379 0.950 . S
C2403 C2402 1.524 . S
C2403 C2404 1.415 . S
C2404 H2380 0.950 . S
C2404 C2399 1.363 . S
C2404 C2403 1.415 . S
C2405 H2381 0.951 . S
C2405 C2406 1.366 . S
C2405 C2407 1.388 . S
C2406 C2405 1.366 . S
C2406 C2410 1.385 . S
C2407 H2382 0.951 . S
C2407 C2405 1.388 . S
C2407 C2408 1.366 . S
C2408 C2407 1.366 . S
C2408 C2409 1.414 . S
C2408 C2411 1.499 . S
C2409 H2383 0.950 . S
C2409 C2408 1.414 . S
C2409 C2410 1.374 . S
C2410 H2384 0.950 . S
C2410 C2406 1.385 . S
C2410 C2409 1.374 . S
C2411 C2408 1.499 . S
C2411 C2412 1.373 . S
C2411 C2413 1.389 . S
C2412 H2385 0.950 . S
C2412 C2398 1.377 . S
C2412 C2411 1.373 . S
C2413 C2397 1.377 1_655 S
C2413 C2411 1.389 . S
C2413 C2414 1.525 1_655 S
C2414 C2413 1.525 1_455 S
C2414 C2415 1.395 1_455 S
C2414 C2419 1.364 . S
C2415 H2386 0.950 . S
C2415 C2414 1.395 1_655 S
C2415 C2416 1.334 . S
C2416 H2387 0.950 . S
C2416 C2415 1.334 . S
C2416 C2417 1.267 1_655 S
C2417 C2416 1.267 1_455 S
C2417 C2418 1.548 . S
C2417 H2420 0.995 . S
C2418 H2388 0.950 . S
C2418 C2417 1.548 . S
C2418 C2419 1.415 . S
C2419 H2389 0.950 . S
C2419 C2414 1.364 . S
C2419 C2418 1.415 . S
H2420 C2417 0.995 . S
H2421 C2402 0.913 . S
H2422 C2440 0.951 . S
H2423 C2442 0.951 . S
H2424 C2444 0.950 . S
H2425 C2445 0.950 . S
H2426 C2447 0.950 . S
H2427 C2450 0.950 . S
H2428 C2451 0.950 . S
H2429 C2453 0.950 . S
H2430 C2454 0.950 . S
H2431 C2455 0.951 . S
H2432 C2457 0.951 . S
H2433 C2459 0.950 . S
H2434 C2460 0.950 . S
H2435 C2462 0.950 . S
H2436 C2465 0.950 . S
H2437 C2466 0.950 . S
H2438 C2468 0.950 . S
H2439 C2469 0.950 . S
C2440 H2422 0.951 . S
C2440 C2441 1.366 . S
C2440 C2442 1.388 . S
C2441 C2440 1.366 . S
C2441 C2445 1.385 . S
C2442 H2423 0.951 . S
C2442 C2440 1.388 . S
C2442 C2443 1.366 . S
C2443 C2442 1.366 . S
C2443 C2444 1.414 . S
C2443 C2446 1.499 . S
C2444 H2424 0.950 . S
C2444 C2443 1.414 . S
C2444 C2445 1.374 . S
C2445 H2425 0.950 . S
C2445 C2441 1.385 . S
C2445 C2444 1.374 . S
C2446 C2443 1.499 . S
C2446 C2447 1.373 . S
C2446 C2448 1.389 . S
C2447 H2426 0.950 . S
C2447 C2446 1.373 . S
C2447 C2463 1.377 . S
C2448 C2446 1.389 . S
C2448 C2449 1.524 . S
C2448 C2462 1.377 . S
C2449 C2448 1.524 . S
C2449 C2450 1.397 . S
C2449 C2454 1.363 . S
C2450 H2427 0.950 . S
C2450 C2449 1.397 . S
C2450 C2451 1.334 . S
C2451 H2428 0.950 . S
C2451 C2450 1.334 . S
C2451 C2452 1.287 . S
C2452 C2451 1.287 . S
C2452 C2453 1.524 . S
C2452 H2471 0.913 . S
C2453 H2429 0.950 . S
C2453 C2452 1.524 . S
C2453 C2454 1.415 . S
C2454 H2430 0.950 . S
C2454 C2449 1.363 . S
C2454 C2453 1.415 . S
C2455 H2431 0.951 . S
C2455 C2456 1.366 . S
C2455 C2457 1.388 . S
C2456 C2455 1.366 . S
C2456 C2460 1.385 . S
C2457 H2432 0.951 . S
C2457 C2455 1.388 . S
C2457 C2458 1.366 . S
C2458 C2457 1.366 . S
C2458 C2459 1.414 . S
C2458 C2461 1.499 . S
C2459 H2433 0.950 . S
C2459 C2458 1.414 . S
C2459 C2460 1.374 . S
C2460 H2434 0.950 . S
C2460 C2456 1.385 . S
C2460 C2459 1.374 . S
C2461 C2458 1.499 . S
C2461 C2462 1.373 . S
C2461 C2463 1.389 . S
C2462 H2435 0.950 . S
C2462 C2448 1.377 . S
C2462 C2461 1.373 . S
C2463 C2447 1.377 . S
C2463 C2461 1.389 . S
C2463 C2464 1.524 . S
C2464 C2463 1.524 . S
C2464 C2465 1.397 . S
C2464 C2469 1.363 . S
C2465 H2436 0.950 . S
C2465 C2464 1.397 . S
C2465 C2466 1.334 . S
C2466 H2437 0.950 . S
C2466 C2465 1.334 . S
C2466 C2467 1.287 . S
C2467 C2466 1.287 . S
C2467 C2468 1.524 . S
C2467 H2470 0.999 . S
C2468 H2438 0.950 . S
C2468 C2467 1.524 . S
C2468 C2469 1.415 . S
C2469 H2439 0.950 . S
C2469 C2464 1.363 . S
C2469 C2468 1.415 . S
H2470 C2467 0.999 . S
H2471 C2452 0.913 . S
H2472 C2490 0.951 . S
H2473 C2492 0.951 . S
H2474 C2494 0.950 . S
H2475 C2495 0.950 . S
H2476 C2497 0.950 . S
H2477 C2500 0.950 . S
H2478 C2501 0.950 . S
H2479 C2503 0.950 . S
H2480 C2504 0.950 . S
H2481 C2505 0.951 . S
H2482 C2507 0.951 . S
H2483 C2509 0.950 . S
H2484 C2510 0.950 . S
H2485 C2512 0.950 . S
H2486 C2515 0.950 . S
H2487 C2516 0.950 . S
H2488 C2518 0.950 . S
H2489 C2519 0.950 . S
C2490 H2472 0.951 . S
C2490 C2491 1.366 . S
C2490 C2492 1.388 . S
C2491 C2490 1.366 . S
C2491 C2495 1.385 . S
C2492 H2473 0.951 . S
C2492 C2490 1.388 . S
C2492 C2493 1.366 1_455 S
C2493 C2492 1.366 1_655 S
C2493 C2494 1.414 . S
C2493 C2496 1.499 . S
C2494 H2474 0.950 . S
C2494 C2493 1.414 . S
C2494 C2495 1.374 1_655 S
C2495 H2475 0.950 . S
C2495 C2491 1.385 . S
C2495 C2494 1.374 1_455 S
C2496 C2493 1.499 . S
C2496 C2497 1.373 . S
C2496 C2498 1.389 . S
C2497 H2476 0.950 . S
C2497 C2496 1.373 . S
C2497 C2513 1.377 . S
C2498 C2496 1.389 . S
C2498 C2499 1.524 . S
C2498 C2512 1.377 . S
C2499 C2498 1.524 . S
C2499 C2500 1.397 . S
C2499 C2504 1.363 . S
C2500 H2477 0.950 . S
C2500 C2499 1.397 . S
C2500 C2501 1.334 . S
C2501 H2478 0.950 . S
C2501 C2500 1.334 . S
C2501 C2502 1.287 . S
C2502 C2501 1.287 . S
C2502 C2503 1.524 . S
C2502 H2521 0.913 . S
C2503 H2479 0.950 . S
C2503 C2502 1.524 . S
C2503 C2504 1.415 . S
C2504 H2480 0.950 . S
C2504 C2499 1.363 . S
C2504 C2503 1.415 . S
C2505 H2481 0.951 . S
C2505 C2506 1.366 . S
C2505 C2507 1.388 . S
C2506 C2505 1.366 . S
C2506 C2510 1.385 . S
C2507 H2482 0.951 . S
C2507 C2505 1.388 . S
C2507 C2508 1.366 . S
C2508 C2507 1.366 . S
C2508 C2509 1.414 . S
C2508 C2511 1.499 . S
C2509 H2483 0.950 . S
C2509 C2508 1.414 . S
C2509 C2510 1.374 . S
C2510 H2484 0.950 . S
C2510 C2506 1.385 . S
C2510 C2509 1.374 . S
C2511 C2508 1.499 . S
C2511 C2512 1.373 . S
C2511 C2513 1.389 . S
C2512 H2485 0.950 . S
C2512 C2498 1.377 . S
C2512 C2511 1.373 . S
C2513 C2497 1.377 . S
C2513 C2511 1.389 . S
C2513 C2514 1.524 . S
C2514 C2513 1.524 . S
C2514 C2515 1.397 . S
C2514 C2519 1.363 . S
C2515 H2486 0.950 . S
C2515 C2514 1.397 . S
C2515 C2516 1.334 . S
C2516 H2487 0.950 . S
C2516 C2515 1.334 . S
C2516 C2517 1.287 . S
C2517 C2516 1.287 . S
C2517 C2518 1.524 . S
C2517 H2520 0.999 . S
C2518 H2488 0.950 . S
C2518 C2517 1.524 . S
C2518 C2519 1.415 . S
C2519 H2489 0.950 . S
C2519 C2514 1.363 . S
C2519 C2518 1.415 . S
H2520 C2517 0.999 . S
H2521 C2502 0.913 . S
H2522 C2540 0.951 . S
H2523 C2542 0.951 . S
H2524 C2544 0.950 . S
H2525 C2545 0.950 . S
H2526 C2547 0.950 . S
H2527 C2550 0.950 . S
H2528 C2551 0.950 . S
H2529 C2553 0.950 . S
H2530 C2554 0.950 . S
H2531 C2555 0.951 . S
H2532 C2557 0.951 . S
H2533 C2559 0.950 . S
H2534 C2560 0.950 . S
H2535 C2562 0.950 . S
H2536 C2565 0.950 . S
H2537 C2566 0.950 . S
H2538 C2568 0.950 . S
H2539 C2569 0.950 . S
C2540 H2522 0.951 . S
C2540 C2541 1.366 . S
C2540 C2542 1.388 . S
C2541 C2540 1.366 . S
C2541 C2545 1.385 . S
C2542 H2523 0.951 . S
C2542 C2540 1.388 . S
C2542 C2543 1.366 . S
C2543 C2542 1.366 . S
C2543 C2544 1.414 . S
C2543 C2546 1.499 . S
C2544 H2524 0.950 . S
C2544 C2543 1.414 . S
C2544 C2545 1.374 . S
C2545 H2525 0.950 . S
C2545 C2541 1.385 . S
C2545 C2544 1.374 . S
C2546 C2543 1.499 . S
C2546 C2547 1.373 . S
C2546 C2548 1.389 . S
C2547 H2526 0.950 . S
C2547 C2546 1.373 . S
C2547 C2563 1.377 . S
C2548 C2546 1.389 . S
C2548 C2549 1.524 . S
C2548 C2562 1.377 . S
C2549 C2548 1.524 . S
C2549 C2550 1.397 . S
C2549 C2554 1.363 . S
C2550 H2527 0.950 . S
C2550 C2549 1.397 . S
C2550 C2551 1.334 . S
C2551 H2528 0.950 . S
C2551 C2550 1.334 . S
C2551 C2552 1.287 . S
C2552 C2551 1.287 . S
C2552 C2553 1.524 . S
C2552 H2571 0.913 . S
C2553 H2529 0.950 . S
C2553 C2552 1.524 . S
C2553 C2554 1.415 . S
C2554 H2530 0.950 . S
C2554 C2549 1.363 . S
C2554 C2553 1.415 . S
C2555 H2531 0.951 . S
C2555 C2556 1.366 . S
C2555 C2557 1.388 . S
C2556 C2555 1.366 . S
C2556 C2560 1.385 . S
C2557 H2532 0.951 . S
C2557 C2555 1.388 . S
C2557 C2558 1.366 . S
C2558 C2557 1.366 . S
C2558 C2559 1.414 . S
C2558 C2561 1.499 . S
C2559 H2533 0.950 . S
C2559 C2558 1.414 . S
C2559 C2560 1.374 . S
C2560 H2534 0.950 . S
C2560 C2556 1.385 . S
C2560 C2559 1.374 . S
C2561 C2558 1.499 . S
C2561 C2562 1.373 . S
C2561 C2563 1.389 . S
C2562 H2535 0.950 . S
C2562 C2548 1.377 . S
C2562 C2561 1.373 . S
C2563 C2547 1.377 . S
C2563 C2561 1.389 . S
C2563 C2564 1.524 . S
C2564 C2563 1.524 . S
C2564 C2565 1.397 . S
C2564 C2569 1.363 . S
C2565 H2536 0.950 . S
C2565 C2564 1.397 . S
C2565 C2566 1.334 . S
C2566 H2537 0.950 . S
C2566 C2565 1.334 . S
C2566 C2567 1.287 . S
C2567 C2566 1.287 . S
C2567 C2568 1.524 . S
C2567 H2570 0.999 . S
C2568 H2538 0.950 . S
C2568 C2567 1.524 . S
C2568 C2569 1.415 . S
C2569 H2539 0.950 . S
C2569 C2564 1.363 . S
C2569 C2568 1.415 . S
H2570 C2567 0.999 . S
H2571 C2552 0.913 . S
H2572 C2590 0.951 . S
H2573 C2592 0.951 . S
H2574 C2594 0.950 1_545 S
H2575 C2595 0.950 . S
H2576 C2597 0.950 . S
H2577 C2600 0.950 . S
H2578 C2601 0.967 . S
H2579 C2603 0.950 . S
H2580 C2604 0.950 . S
H2581 C2605 0.951 . S
H2582 C2607 0.951 . S
H2583 C2609 0.950 . S
H2584 C2610 0.950 . S
H2585 C2612 0.950 . S
H2586 C2615 0.950 . S
H2587 C2616 0.950 . S
H2588 C2618 0.950 . S
H2589 C2619 0.950 . S
C2590 H2572 0.951 . S
C2590 C2591 1.366 . S
C2590 C2592 1.388 1_565 S
C2591 C2590 1.366 . S
C2591 C2595 1.385 . S
C2592 H2573 0.951 . S
C2592 C2590 1.388 1_545 S
C2592 C2593 1.366 . S
C2593 C2592 1.366 . S
C2593 C2594 1.414 1_545 S
C2593 C2596 1.499 . S
C2594 H2574 0.950 1_565 S
C2594 C2593 1.414 1_565 S
C2594 C2595 1.374 . S
C2595 H2575 0.950 . S
C2595 C2591 1.385 . S
C2595 C2594 1.374 . S
C2596 C2593 1.499 . S
C2596 C2597 1.373 . S
C2596 C2598 1.389 . S
C2597 H2576 0.950 . S
C2597 C2596 1.373 . S
C2597 C2613 1.377 . S
C2598 C2596 1.389 . S
C2598 C2599 1.524 . S
C2598 C2612 1.377 . S
C2599 C2598 1.524 . S
C2599 C2600 1.397 . S
C2599 C2604 1.363 . S
C2600 H2577 0.950 . S
C2600 C2599 1.397 . S
C2600 C2601 1.312 1_545 S
C2601 H2578 0.967 . S
C2601 C2600 1.312 1_565 S
C2601 C2602 1.292 1_565 S
C2602 C2601 1.292 1_545 S
C2602 C2603 1.524 . S
C2602 H2621 0.913 1_545 S
C2603 H2579 0.950 . S
C2603 C2602 1.524 . S
C2603 C2604 1.415 . S
C2604 H2580 0.950 . S
C2604 C2599 1.363 . S
C2604 C2603 1.415 . S
C2605 H2581 0.951 . S
C2605 C2606 1.366 . S
C2605 C2607 1.388 . S
C2606 C2605 1.366 . S
C2606 C2610 1.385 . S
C2607 H2582 0.951 . S
C2607 C2605 1.388 . S
C2607 C2608 1.366 . S
C2608 C2607 1.366 . S
C2608 C2609 1.414 . S
C2608 C2611 1.499 . S
C2609 H2583 0.950 . S
C2609 C2608 1.414 . S
C2609 C2610 1.374 . S
C2610 H2584 0.950 . S
C2610 C2606 1.385 . S
C2610 C2609 1.374 . S
C2611 C2608 1.499 . S
C2611 C2612 1.373 . S
C2611 C2613 1.389 . S
C2612 H2585 0.950 . S
C2612 C2598 1.377 . S
C2612 C2611 1.373 . S
C2613 C2597 1.377 . S
C2613 C2611 1.389 . S
C2613 C2614 1.524 . S
C2614 C2613 1.524 . S
C2614 C2615 1.397 . S
C2614 C2619 1.363 . S
C2615 H2586 0.950 . S
C2615 C2614 1.397 . S
C2615 C2616 1.334 . S
C2616 H2587 0.950 . S
C2616 C2615 1.334 . S
C2616 C2617 1.287 . S
C2617 C2616 1.287 . S
C2617 C2618 1.524 . S
C2617 H2620 0.999 . S
C2618 H2588 0.950 . S
C2618 C2617 1.524 . S
C2618 C2619 1.415 . S
C2619 H2589 0.950 . S
C2619 C2614 1.363 . S
C2619 C2618 1.415 . S
H2620 C2617 0.999 . S
H2621 C2602 0.913 1_565 S
H2622 C2640 0.951 . S
H2623 C2642 0.951 . S
H2624 C2644 0.950 . S
H2625 C2645 0.950 . S
H2626 C2647 0.950 . S
H2627 C2650 0.950 . S
H2628 C2651 0.950 . S
H2629 C2653 0.950 . S
H2630 C2654 0.950 . S
H2631 C2655 0.951 . S
H2632 C2657 0.951 . S
H2633 C2659 0.950 . S
H2634 C2660 0.950 . S
H2635 C2662 0.950 . S
H2636 C2665 0.950 . S
H2637 C2666 0.950 . S
H2638 C2668 0.950 . S
H2639 C2669 0.950 . S
C2640 H2622 0.951 . S
C2640 C2641 1.366 . S
C2640 C2642 1.388 . S
C2641 C2640 1.366 . S
C2641 C2645 1.385 . S
C2642 H2623 0.951 . S
C2642 C2640 1.388 . S
C2642 C2643 1.366 . S
C2643 C2642 1.366 . S
C2643 C2644 1.414 . S
C2643 C2646 1.499 . S
C2644 H2624 0.950 . S
C2644 C2643 1.414 . S
C2644 C2645 1.374 . S
C2645 H2625 0.950 . S
C2645 C2641 1.385 . S
C2645 C2644 1.374 . S
C2646 C2643 1.499 . S
C2646 C2647 1.373 . S
C2646 C2648 1.389 . S
C2647 H2626 0.950 . S
C2647 C2646 1.373 . S
C2647 C2663 1.377 . S
C2648 C2646 1.389 . S
C2648 C2649 1.524 . S
C2648 C2662 1.377 . S
C2649 C2648 1.524 . S
C2649 C2650 1.397 . S
C2649 C2654 1.363 . S
C2650 H2627 0.950 . S
C2650 C2649 1.397 . S
C2650 C2651 1.334 . S
C2651 H2628 0.950 . S
C2651 C2650 1.334 . S
C2651 C2652 1.287 . S
C2652 C2651 1.287 . S
C2652 C2653 1.524 . S
C2652 H2671 0.913 . S
C2653 H2629 0.950 . S
C2653 C2652 1.524 . S
C2653 C2654 1.415 . S
C2654 H2630 0.950 . S
C2654 C2649 1.363 . S
C2654 C2653 1.415 . S
C2655 H2631 0.951 . S
C2655 C2656 1.366 . S
C2655 C2657 1.388 . S
C2656 C2655 1.366 . S
C2656 C2660 1.385 . S
C2657 H2632 0.951 . S
C2657 C2655 1.388 . S
C2657 C2658 1.366 . S
C2658 C2657 1.366 . S
C2658 C2659 1.414 . S
C2658 C2661 1.499 . S
C2659 H2633 0.950 . S
C2659 C2658 1.414 . S
C2659 C2660 1.374 . S
C2660 H2634 0.950 . S
C2660 C2656 1.385 . S
C2660 C2659 1.374 . S
C2661 C2658 1.499 . S
C2661 C2662 1.373 . S
C2661 C2663 1.389 . S
C2662 H2635 0.950 . S
C2662 C2648 1.377 . S
C2662 C2661 1.373 . S
C2663 C2647 1.377 . S
C2663 C2661 1.389 . S
C2663 C2664 1.524 . S
C2664 C2663 1.524 . S
C2664 C2665 1.397 . S
C2664 C2669 1.363 . S
C2665 H2636 0.950 . S
C2665 C2664 1.397 . S
C2665 C2666 1.334 . S
C2666 H2637 0.950 . S
C2666 C2665 1.334 . S
C2666 C2667 1.287 . S
C2667 C2666 1.287 . S
C2667 C2668 1.524 . S
C2667 H2670 0.999 . S
C2668 H2638 0.950 . S
C2668 C2667 1.524 . S
C2668 C2669 1.415 . S
C2669 H2639 0.950 . S
C2669 C2664 1.363 . S
C2669 C2668 1.415 . S
H2670 C2667 0.999 . S
H2671 C2652 0.913 . S
H2672 C2690 0.951 . S
H2673 C2692 0.951 . S
H2674 C2694 0.950 . S
H2675 C2695 0.950 . S
H2676 C2697 0.950 . S
H2677 C2700 0.950 . S
H2678 C2701 0.950 . S
H2679 C2703 0.950 . S
H2680 C2704 0.950 . S
H2681 C2705 0.951 . S
H2682 C2707 0.951 . S
H2683 C2709 0.950 . S
H2684 C2710 0.950 . S
H2685 C2712 0.950 . S
H2686 C2715 0.950 . S
H2687 C2716 0.950 . S
H2688 C2718 0.950 . S
H2689 C2719 0.950 . S
C2690 H2672 0.951 . S
C2690 C2691 1.366 . S
C2690 C2692 1.388 . S
C2691 C2690 1.366 . S
C2691 C2695 1.385 . S
C2692 H2673 0.951 . S
C2692 C2690 1.388 . S
C2692 C2693 1.366 . S
C2693 C2692 1.366 . S
C2693 C2694 1.414 . S
C2693 C2696 1.499 . S
C2694 H2674 0.950 . S
C2694 C2693 1.414 . S
C2694 C2695 1.374 . S
C2695 H2675 0.950 . S
C2695 C2691 1.385 . S
C2695 C2694 1.374 . S
C2696 C2693 1.499 . S
C2696 C2697 1.373 . S
C2696 C2698 1.389 . S
C2697 H2676 0.950 . S
C2697 C2696 1.373 . S
C2697 C2713 1.377 . S
C2698 C2696 1.389 . S
C2698 C2699 1.524 . S
C2698 C2712 1.377 . S
C2699 C2698 1.524 . S
C2699 C2700 1.397 . S
C2699 C2704 1.363 . S
C2700 H2677 0.950 . S
C2700 C2699 1.397 . S
C2700 C2701 1.334 . S
C2701 H2678 0.950 . S
C2701 C2700 1.334 . S
C2701 C2702 1.287 . S
C2702 C2701 1.287 . S
C2702 C2703 1.524 . S
C2702 H2721 0.913 . S
C2703 H2679 0.950 . S
C2703 C2702 1.524 . S
C2703 C2704 1.415 . S
C2704 H2680 0.950 . S
C2704 C2699 1.363 . S
C2704 C2703 1.415 . S
C2705 H2681 0.951 . S
C2705 C2706 1.366 . S
C2705 C2707 1.388 . S
C2706 C2705 1.366 . S
C2706 C2710 1.385 . S
C2707 H2682 0.951 . S
C2707 C2705 1.388 . S
C2707 C2708 1.366 . S
C2708 C2707 1.366 . S
C2708 C2709 1.414 . S
C2708 C2711 1.499 . S
C2709 H2683 0.950 . S
C2709 C2708 1.414 . S
C2709 C2710 1.374 . S
C2710 H2684 0.950 . S
C2710 C2706 1.385 . S
C2710 C2709 1.374 . S
C2711 C2708 1.499 . S
C2711 C2712 1.373 . S
C2711 C2713 1.389 . S
C2712 H2685 0.950 . S
C2712 C2698 1.377 . S
C2712 C2711 1.373 . S
C2713 C2697 1.377 . S
C2713 C2711 1.389 . S
C2713 C2714 1.524 . S
C2714 C2713 1.524 . S
C2714 C2715 1.397 . S
C2714 C2719 1.363 . S
C2715 H2686 0.950 . S
C2715 C2714 1.397 . S
C2715 C2716 1.334 . S
C2716 H2687 0.950 . S
C2716 C2715 1.334 . S
C2716 C2717 1.287 . S
C2717 C2716 1.287 . S
C2717 C2718 1.524 . S
C2717 H2720 0.999 . S
C2718 H2688 0.950 . S
C2718 C2717 1.524 . S
C2718 C2719 1.415 . S
C2719 H2689 0.950 . S
C2719 C2714 1.363 . S
C2719 C2718 1.415 . S
H2720 C2717 0.999 . S
H2721 C2702 0.913 . S
H2722 C2740 0.951 . S
H2723 C2742 0.951 . S
H2724 C2744 0.950 . S
H2725 C2745 0.950 . S
H2726 C2747 0.950 . S
H2727 C2750 0.950 . S
H2728 C2751 0.950 . S
H2729 C2753 0.950 . S
H2730 C2754 0.950 . S
H2731 C2755 0.951 . S
H2732 C2757 0.951 . S
H2733 C2759 0.950 . S
H2734 C2760 0.950 . S
H2735 C2762 0.950 . S
H2736 C2765 0.950 . S
H2737 C2766 0.950 . S
H2738 C2768 0.950 . S
H2739 C2769 0.950 . S
C2740 H2722 0.951 . S
C2740 C2741 1.366 . S
C2740 C2742 1.388 . S
C2741 C2740 1.366 . S
C2741 C2745 1.385 . S
C2742 H2723 0.951 . S
C2742 C2740 1.388 . S
C2742 C2743 1.366 . S
C2743 C2742 1.366 . S
C2743 C2744 1.414 . S
C2743 C2746 1.499 . S
C2744 H2724 0.950 . S
C2744 C2743 1.414 . S
C2744 C2745 1.374 . S
C2745 H2725 0.950 . S
C2745 C2741 1.385 . S
C2745 C2744 1.374 . S
C2746 C2743 1.499 . S
C2746 C2747 1.373 . S
C2746 C2748 1.389 . S
C2747 H2726 0.950 . S
C2747 C2746 1.373 . S
C2747 C2763 1.377 . S
C2748 C2746 1.389 . S
C2748 C2749 1.524 . S
C2748 C2762 1.377 . S
C2749 C2748 1.524 . S
C2749 C2750 1.397 . S
C2749 C2754 1.363 . S
C2750 H2727 0.950 . S
C2750 C2749 1.397 . S
C2750 C2751 1.334 . S
C2751 H2728 0.950 . S
C2751 C2750 1.334 . S
C2751 C2752 1.287 . S
C2752 C2751 1.287 . S
C2752 C2753 1.524 . S
C2752 H2771 0.913 . S
C2753 H2729 0.950 . S
C2753 C2752 1.524 . S
C2753 C2754 1.415 . S
C2754 H2730 0.950 . S
C2754 C2749 1.363 . S
C2754 C2753 1.415 . S
C2755 H2731 0.951 . S
C2755 C2756 1.366 . S
C2755 C2757 1.388 . S
C2756 C2755 1.366 . S
C2756 C2760 1.385 . S
C2757 H2732 0.951 . S
C2757 C2755 1.388 . S
C2757 C2758 1.366 . S
C2758 C2757 1.366 . S
C2758 C2759 1.414 . S
C2758 C2761 1.499 . S
C2759 H2733 0.950 . S
C2759 C2758 1.414 . S
C2759 C2760 1.374 . S
C2760 H2734 0.950 . S
C2760 C2756 1.385 . S
C2760 C2759 1.374 . S
C2761 C2758 1.499 . S
C2761 C2762 1.373 . S
C2761 C2763 1.389 . S
C2762 H2735 0.950 . S
C2762 C2748 1.377 . S
C2762 C2761 1.373 . S
C2763 C2747 1.377 . S
C2763 C2761 1.389 . S
C2763 C2764 1.524 . S
C2764 C2763 1.524 . S
C2764 C2765 1.397 . S
C2764 C2769 1.363 . S
C2765 H2736 0.950 . S
C2765 C2764 1.397 . S
C2765 C2766 1.334 . S
C2766 H2737 0.950 . S
C2766 C2765 1.334 . S
C2766 C2767 1.287 . S
C2767 C2766 1.287 . S
C2767 C2768 1.524 . S
C2767 H2770 0.999 . S
C2768 H2738 0.950 . S
C2768 C2767 1.524 . S
C2768 C2769 1.415 . S
C2769 H2739 0.950 . S
C2769 C2764 1.363 . S
C2769 C2768 1.415 . S
H2770 C2767 0.999 . S
H2771 C2752 0.913 . S
H2772 C2790 0.951 . S
H2773 C2792 0.951 . S
H2774 C2794 0.950 . S
H2775 C2795 0.950 . S
H2776 C2797 0.950 . S
H2777 C2800 0.950 . S
H2778 C2801 0.950 . S
H2779 C2803 0.950 . S
H2780 C2804 0.950 . S
H2781 C2805 0.951 . S
H2782 C2807 0.951 . S
H2783 C2809 0.950 . S
H2784 C2810 0.950 . S
H2785 C2812 0.950 . S
H2786 C2815 0.950 . S
H2787 C2816 0.950 . S
H2788 C2818 0.922 1_545 S
H2789 C2819 0.950 . S
C2790 H2772 0.951 . S
C2790 C2791 1.366 . S
C2790 C2792 1.388 . S
C2791 C2790 1.366 . S
C2791 C2795 1.385 . S
C2792 H2773 0.951 . S
C2792 C2790 1.388 . S
C2792 C2793 1.366 . S
C2793 C2792 1.366 . S
C2793 C2794 1.414 . S
C2793 C2796 1.499 . S
C2794 H2774 0.950 . S
C2794 C2793 1.414 . S
C2794 C2795 1.374 . S
C2795 H2775 0.950 . S
C2795 C2791 1.385 . S
C2795 C2794 1.374 . S
C2796 C2793 1.499 . S
C2796 C2797 1.373 . S
C2796 C2798 1.389 . S
C2797 H2776 0.950 . S
C2797 C2796 1.373 . S
C2797 C2813 1.377 . S
C2798 C2796 1.389 . S
C2798 C2799 1.524 . S
C2798 C2812 1.377 . S
C2799 C2798 1.524 . S
C2799 C2800 1.397 . S
C2799 C2804 1.363 . S
C2800 H2777 0.950 . S
C2800 C2799 1.397 . S
C2800 C2801 1.334 . S
C2801 H2778 0.950 . S
C2801 C2800 1.334 . S
C2801 C2802 1.287 . S
C2802 C2801 1.287 . S
C2802 C2803 1.524 . S
C2802 H2821 0.913 . S
C2803 H2779 0.950 . S
C2803 C2802 1.524 . S
C2803 C2804 1.415 . S
C2804 H2780 0.950 . S
C2804 C2799 1.363 . S
C2804 C2803 1.415 . S
C2805 H2781 0.951 . S
C2805 C2806 1.366 . S
C2805 C2807 1.388 . S
C2806 C2805 1.366 . S
C2806 C2810 1.385 . S
C2807 H2782 0.951 . S
C2807 C2805 1.388 . S
C2807 C2808 1.366 . S
C2808 C2807 1.366 . S
C2808 C2809 1.414 . S
C2808 C2811 1.499 . S
C2809 H2783 0.950 . S
C2809 C2808 1.414 . S
C2809 C2810 1.374 . S
C2810 H2784 0.950 . S
C2810 C2806 1.385 . S
C2810 C2809 1.374 . S
C2811 C2808 1.499 . S
C2811 C2812 1.373 . S
C2811 C2813 1.389 . S
C2812 H2785 0.950 . S
C2812 C2798 1.377 . S
C2812 C2811 1.373 . S
C2813 C2797 1.377 . S
C2813 C2811 1.389 . S
C2813 C2814 1.524 . S
C2814 C2813 1.524 . S
C2814 C2815 1.397 . S
C2814 C2819 1.363 . S
C2815 H2786 0.950 . S
C2815 C2814 1.397 . S
C2815 C2816 1.334 . S
C2816 H2787 0.950 . S
C2816 C2815 1.334 . S
C2816 C2817 1.287 . S
C2817 C2816 1.287 . S
C2817 C2818 1.524 . S
C2817 H2820 0.999 . S
C2818 H2788 0.922 1_565 S
C2818 C2817 1.524 . S
C2818 C2819 1.415 . S
C2819 H2789 0.950 . S
C2819 C2814 1.363 . S
C2819 C2818 1.415 . S
H2820 C2817 0.999 . S
H2821 C2802 0.913 . S
H2822 C2840 0.951 . S
H2823 C2842 0.951 . S
H2824 C2844 0.950 . S
H2825 C2845 0.950 . S
H2826 C2847 0.950 . S
H2827 C2850 0.950 . S
H2828 C2851 0.950 . S
H2829 C2853 0.950 . S
H2830 C2854 0.950 . S
H2831 C2855 0.951 . S
H2832 C2857 0.951 . S
H2833 C2859 0.950 . S
H2834 C2860 0.950 . S
H2835 C2862 0.950 . S
H2836 C2865 0.950 . S
H2837 C2866 0.950 . S
H2838 C2868 0.950 . S
H2839 C2869 0.950 . S
C2840 H2822 0.951 . S
C2840 C2841 1.366 . S
C2840 C2842 1.388 . S
C2841 C2840 1.366 . S
C2841 C2845 1.385 . S
C2842 H2823 0.951 . S
C2842 C2840 1.388 . S
C2842 C2843 1.366 . S
C2843 C2842 1.366 . S
C2843 C2844 1.414 . S
C2843 C2846 1.499 . S
C2844 H2824 0.950 . S
C2844 C2843 1.414 . S
C2844 C2845 1.374 . S
C2845 H2825 0.950 . S
C2845 C2841 1.385 . S
C2845 C2844 1.374 . S
C2846 C2843 1.499 . S
C2846 C2847 1.373 . S
C2846 C2848 1.389 . S
C2847 H2826 0.950 . S
C2847 C2846 1.373 . S
C2847 C2863 1.377 . S
C2848 C2846 1.389 . S
C2848 C2849 1.524 . S
C2848 C2862 1.377 . S
C2849 C2848 1.524 . S
C2849 C2850 1.397 . S
C2849 C2854 1.363 . S
C2850 H2827 0.950 . S
C2850 C2849 1.397 . S
C2850 C2851 1.334 . S
C2851 H2828 0.950 . S
C2851 C2850 1.334 . S
C2851 C2852 1.287 . S
C2852 C2851 1.287 . S
C2852 C2853 1.524 . S
C2852 H2871 0.913 . S
C2853 H2829 0.950 . S
C2853 C2852 1.524 . S
C2853 C2854 1.415 . S
C2854 H2830 0.950 . S
C2854 C2849 1.363 . S
C2854 C2853 1.415 . S
C2855 H2831 0.951 . S
C2855 C2856 1.366 . S
C2855 C2857 1.388 . S
C2856 C2855 1.366 . S
C2856 C2860 1.385 . S
C2857 H2832 0.951 . S
C2857 C2855 1.388 . S
C2857 C2858 1.366 . S
C2858 C2857 1.366 . S
C2858 C2859 1.414 . S
C2858 C2861 1.499 . S
C2859 H2833 0.950 . S
C2859 C2858 1.414 . S
C2859 C2860 1.374 . S
C2860 H2834 0.950 . S
C2860 C2856 1.385 . S
C2860 C2859 1.374 . S
C2861 C2858 1.499 . S
C2861 C2862 1.373 . S
C2861 C2863 1.389 . S
C2862 H2835 0.950 . S
C2862 C2848 1.377 . S
C2862 C2861 1.373 . S
C2863 C2847 1.377 . S
C2863 C2861 1.389 . S
C2863 C2864 1.524 . S
C2864 C2863 1.524 . S
C2864 C2865 1.397 . S
C2864 C2869 1.363 . S
C2865 H2836 0.950 . S
C2865 C2864 1.397 . S
C2865 C2866 1.334 . S
C2866 H2837 0.950 . S
C2866 C2865 1.334 . S
C2866 C2867 1.287 . S
C2867 C2866 1.287 . S
C2867 C2868 1.524 . S
C2867 H2870 0.999 . S
C2868 H2838 0.950 . S
C2868 C2867 1.524 . S
C2868 C2869 1.415 . S
C2869 H2839 0.950 . S
C2869 C2864 1.363 . S
C2869 C2868 1.415 . S
H2870 C2867 0.999 . S
H2871 C2852 0.913 . S
H2872 C2890 0.951 . S
H2873 C2892 0.951 . S
H2874 C2894 0.950 . S
H2875 C2895 0.950 . S
H2876 C2897 0.950 . S
H2877 C2900 0.950 . S
H2878 C2901 0.950 . S
H2879 C2903 0.950 . S
H2880 C2904 0.950 . S
H2881 C2905 0.951 . S
H2882 C2907 0.951 . S
H2883 C2909 0.950 . S
H2884 C2910 0.950 . S
H2885 C2912 0.950 . S
H2886 C2915 0.950 . S
H2887 C2916 0.950 . S
H2888 C2918 0.950 . S
H2889 C2919 0.950 . S
C2890 H2872 0.951 . S
C2890 C2891 1.366 . S
C2890 C2892 1.388 . S
C2891 C2890 1.366 . S
C2891 C2895 1.385 . S
C2892 H2873 0.951 . S
C2892 C2890 1.388 . S
C2892 C2893 1.366 . S
C2893 C2892 1.366 . S
C2893 C2894 1.414 . S
C2893 C2896 1.499 . S
C2894 H2874 0.950 . S
C2894 C2893 1.414 . S
C2894 C2895 1.374 . S
C2895 H2875 0.950 . S
C2895 C2891 1.385 . S
C2895 C2894 1.374 . S
C2896 C2893 1.499 . S
C2896 C2897 1.373 . S
C2896 C2898 1.389 . S
C2897 H2876 0.950 . S
C2897 C2896 1.373 . S
C2897 C2913 1.377 . S
C2898 C2896 1.389 . S
C2898 C2899 1.524 . S
C2898 C2912 1.377 . S
C2899 C2898 1.524 . S
C2899 C2900 1.397 . S
C2899 C2904 1.363 . S
C2900 H2877 0.950 . S
C2900 C2899 1.397 . S
C2900 C2901 1.334 . S
C2901 H2878 0.950 . S
C2901 C2900 1.334 . S
C2901 C2902 1.287 . S
C2902 C2901 1.287 . S
C2902 C2903 1.524 . S
C2902 H2921 0.913 . S
C2903 H2879 0.950 . S
C2903 C2902 1.524 . S
C2903 C2904 1.415 . S
C2904 H2880 0.950 . S
C2904 C2899 1.363 . S
C2904 C2903 1.415 . S
C2905 H2881 0.951 . S
C2905 C2906 1.366 . S
C2905 C2907 1.388 . S
C2906 C2905 1.366 . S
C2906 C2910 1.385 . S
C2907 H2882 0.951 . S
C2907 C2905 1.388 . S
C2907 C2908 1.366 . S
C2908 C2907 1.366 . S
C2908 C2909 1.414 . S
C2908 C2911 1.499 . S
C2909 H2883 0.950 . S
C2909 C2908 1.414 . S
C2909 C2910 1.374 . S
C2910 H2884 0.950 . S
C2910 C2906 1.385 . S
C2910 C2909 1.374 . S
C2911 C2908 1.499 . S
C2911 C2912 1.373 . S
C2911 C2913 1.389 . S
C2912 H2885 0.950 . S
C2912 C2898 1.377 . S
C2912 C2911 1.373 . S
C2913 C2897 1.377 . S
C2913 C2911 1.389 . S
C2913 C2914 1.524 . S
C2914 C2913 1.524 . S
C2914 C2915 1.397 . S
C2914 C2919 1.363 . S
C2915 H2886 0.950 . S
C2915 C2914 1.397 . S
C2915 C2916 1.334 . S
C2916 H2887 0.950 . S
C2916 C2915 1.334 . S
C2916 C2917 1.287 . S
C2917 C2916 1.287 . S
C2917 C2918 1.524 . S
C2917 H2920 0.999 . S
C2918 H2888 0.950 . S
C2918 C2917 1.524 . S
C2918 C2919 1.415 . S
C2919 H2889 0.950 . S
C2919 C2914 1.363 . S
C2919 C2918 1.415 . S
H2920 C2917 0.999 . S
H2921 C2902 0.913 . S
H2922 C2940 0.951 . S
H2923 C2942 0.951 . S
H2924 C2944 0.950 . S
H2925 C2945 0.950 . S
H2926 C2947 0.950 . S
H2927 C2950 0.950 . S
H2928 C2951 0.950 . S
H2929 C2953 0.950 . S
H2930 C2954 0.950 . S
H2931 C2955 0.951 . S
H2932 C2957 0.951 . S
H2933 C2959 0.950 . S
H2934 C2960 0.950 . S
H2935 C2962 0.950 . S
H2936 C2965 0.950 . S
H2937 C2966 0.950 . S
H2938 C2968 0.950 . S
H2939 C2969 0.950 . S
C2940 H2922 0.951 . S
C2940 C2941 1.366 . S
C2940 C2942 1.388 . S
C2941 C2940 1.366 . S
C2941 C2945 1.385 . S
C2942 H2923 0.951 . S
C2942 C2940 1.388 . S
C2942 C2943 1.366 . S
C2943 C2942 1.366 . S
C2943 C2944 1.414 . S
C2943 C2946 1.499 . S
C2944 H2924 0.950 . S
C2944 C2943 1.414 . S
C2944 C2945 1.374 . S
C2945 H2925 0.950 . S
C2945 C2941 1.385 . S
C2945 C2944 1.374 . S
C2946 C2943 1.499 . S
C2946 C2947 1.373 . S
C2946 C2948 1.389 . S
C2947 H2926 0.950 . S
C2947 C2946 1.373 . S
C2947 C2963 1.377 . S
C2948 C2946 1.389 . S
C2948 C2949 1.524 . S
C2948 C2962 1.377 . S
C2949 C2948 1.524 . S
C2949 C2950 1.397 . S
C2949 C2954 1.363 . S
C2950 H2927 0.950 . S
C2950 C2949 1.397 . S
C2950 C2951 1.334 . S
C2951 H2928 0.950 . S
C2951 C2950 1.334 . S
C2951 C2952 1.287 . S
C2952 C2951 1.287 . S
C2952 C2953 1.524 . S
C2952 H2971 0.913 . S
C2953 H2929 0.950 . S
C2953 C2952 1.524 . S
C2953 C2954 1.415 . S
C2954 H2930 0.950 . S
C2954 C2949 1.363 . S
C2954 C2953 1.415 . S
C2955 H2931 0.951 . S
C2955 C2956 1.366 . S
C2955 C2957 1.388 . S
C2956 C2955 1.366 . S
C2956 C2960 1.385 . S
C2957 H2932 0.951 . S
C2957 C2955 1.388 . S
C2957 C2958 1.366 . S
C2958 C2957 1.366 . S
C2958 C2959 1.414 . S
C2958 C2961 1.499 . S
C2959 H2933 0.950 . S
C2959 C2958 1.414 . S
C2959 C2960 1.374 . S
C2960 H2934 0.950 . S
C2960 C2956 1.385 . S
C2960 C2959 1.374 . S
C2961 C2958 1.499 . S
C2961 C2962 1.373 . S
C2961 C2963 1.389 . S
C2962 H2935 0.950 . S
C2962 C2948 1.377 . S
C2962 C2961 1.373 . S
C2963 C2947 1.377 . S
C2963 C2961 1.389 . S
C2963 C2964 1.524 . S
C2964 C2963 1.524 . S
C2964 C2965 1.397 . S
C2964 C2969 1.363 . S
C2965 H2936 0.950 . S
C2965 C2964 1.397 . S
C2965 C2966 1.334 . S
C2966 H2937 0.950 . S
C2966 C2965 1.334 . S
C2966 C2967 1.287 . S
C2967 C2966 1.287 . S
C2967 C2968 1.524 . S
C2967 H2970 0.999 . S
C2968 H2938 0.950 . S
C2968 C2967 1.524 . S
C2968 C2969 1.415 . S
C2969 H2939 0.950 . S
C2969 C2964 1.363 . S
C2969 C2968 1.415 . S
H2970 C2967 0.999 . S
H2971 C2952 0.913 . S
H2972 C2990 0.951 . S
H2973 C2992 0.951 . S
H2974 C2994 0.950 . S
H2975 C2995 0.950 . S
H2976 C2997 0.950 . S
H2977 C3000 0.950 . S
H2978 C3001 0.950 . S
H2979 C3003 0.950 . S
H2980 C3004 0.950 . S
H2981 C3005 0.951 . S
H2982 C3007 0.951 . S
H2983 C3009 0.950 . S
H2984 C3010 0.950 . S
H2985 C3012 0.950 . S
H2986 C3015 0.950 . S
H2987 C3016 0.950 . S
H2988 C3018 0.950 . S
H2989 C3019 0.950 . S
C2990 H2972 0.951 . S
C2990 C2991 1.366 . S
C2990 C2992 1.388 . S
C2991 C2990 1.366 . S
C2991 C2995 1.385 . S
C2992 H2973 0.951 . S
C2992 C2990 1.388 . S
C2992 C2993 1.366 . S
C2993 C2992 1.366 . S
C2993 C2994 1.414 . S
C2993 C2996 1.499 . S
C2994 H2974 0.950 . S
C2994 C2993 1.414 . S
C2994 C2995 1.374 . S
C2995 H2975 0.950 . S
C2995 C2991 1.385 . S
C2995 C2994 1.374 . S
C2996 C2993 1.499 . S
C2996 C2997 1.373 . S
C2996 C2998 1.389 . S
C2997 H2976 0.950 . S
C2997 C2996 1.373 . S
C2997 C3013 1.377 . S
C2998 C2996 1.389 . S
C2998 C2999 1.524 . S
C2998 C3012 1.377 . S
C2999 C2998 1.524 . S
C2999 C3000 1.397 . S
C2999 C3004 1.363 . S
C3000 H2977 0.950 . S
C3000 C2999 1.397 . S
C3000 C3001 1.334 . S
C3001 H2978 0.950 . S
C3001 C3000 1.334 . S
C3001 C3002 1.287 . S
C3002 C3001 1.287 . S
C3002 C3003 1.524 . S
C3002 H3021 0.913 . S
C3003 H2979 0.950 . S
C3003 C3002 1.524 . S
C3003 C3004 1.415 . S
C3004 H2980 0.950 . S
C3004 C2999 1.363 . S
C3004 C3003 1.415 . S
C3005 H2981 0.951 . S
C3005 C3006 1.366 . S
C3005 C3007 1.388 . S
C3006 C3005 1.366 . S
C3006 C3010 1.385 . S
C3007 H2982 0.951 . S
C3007 C3005 1.388 . S
C3007 C3008 1.366 . S
C3008 C3007 1.366 . S
C3008 C3009 1.414 . S
C3008 C3011 1.499 . S
C3009 H2983 0.950 . S
C3009 C3008 1.414 . S
C3009 C3010 1.374 . S
C3010 H2984 0.950 . S
C3010 C3006 1.385 . S
C3010 C3009 1.374 . S
C3011 C3008 1.499 . S
C3011 C3012 1.373 . S
C3011 C3013 1.389 . S
C3012 H2985 0.950 . S
C3012 C2998 1.377 . S
C3012 C3011 1.373 . S
C3013 C2997 1.377 . S
C3013 C3011 1.389 . S
C3013 C3014 1.524 . S
C3014 C3013 1.524 . S
C3014 C3015 1.397 . S
C3014 C3019 1.363 . S
C3015 H2986 0.950 . S
C3015 C3014 1.397 . S
C3015 C3016 1.334 . S
C3016 H2987 0.950 . S
C3016 C3015 1.334 . S
C3016 C3017 1.287 . S
C3017 C3016 1.287 . S
C3017 C3018 1.524 . S
C3017 H3020 0.999 . S
C3018 H2988 0.950 . S
C3018 C3017 1.524 . S
C3018 C3019 1.415 . S
C3019 H2989 0.950 . S
C3019 C3014 1.363 . S
C3019 C3018 1.415 . S
H3020 C3017 0.999 . S
H3021 C3002 0.913 . S
H3022 C3040 0.951 . S
H3023 C3042 0.951 . S
H3024 C3044 0.950 . S
H3025 C3045 0.950 . S
H3026 C3047 0.950 . S
H3027 C3050 0.950 . S
H3028 C3051 0.950 . S
H3029 C3053 0.950 . S
H3030 C3054 0.950 . S
H3031 C3055 0.951 . S
H3032 C3057 0.951 . S
H3033 C3059 0.950 . S
H3034 C3060 0.950 . S
H3035 C3062 0.950 . S
H3036 C3065 0.950 . S
H3037 C3066 0.950 1_565 S
H3038 C3068 0.950 . S
H3039 C3069 0.950 . S
C3040 H3022 0.951 . S
C3040 C3041 1.366 . S
C3040 C3042 1.388 . S
C3041 C3040 1.366 . S
C3041 C3045 1.385 . S
C3042 H3023 0.951 . S
C3042 C3040 1.388 . S
C3042 C3043 1.366 . S
C3043 C3042 1.366 . S
C3043 C3044 1.414 . S
C3043 C3046 1.499 . S
C3044 H3024 0.950 . S
C3044 C3043 1.414 . S
C3044 C3045 1.374 . S
C3045 H3025 0.950 . S
C3045 C3041 1.385 . S
C3045 C3044 1.374 . S
C3046 C3043 1.499 . S
C3046 C3047 1.373 . S
C3046 C3048 1.389 . S
C3047 H3026 0.950 . S
C3047 C3046 1.373 . S
C3047 C3063 1.377 . S
C3048 C3046 1.389 . S
C3048 C3049 1.524 . S
C3048 C3062 1.377 . S
C3049 C3048 1.524 . S
C3049 C3050 1.397 . S
C3049 C3054 1.363 . S
C3050 H3027 0.950 . S
C3050 C3049 1.397 . S
C3050 C3051 1.334 . S
C3051 H3028 0.950 . S
C3051 C3050 1.334 . S
C3051 C3052 1.287 . S
C3052 C3051 1.287 . S
C3052 C3053 1.524 . S
C3052 H3071 0.913 . S
C3053 H3029 0.950 . S
C3053 C3052 1.524 . S
C3053 C3054 1.415 . S
C3054 H3030 0.950 . S
C3054 C3049 1.363 . S
C3054 C3053 1.415 . S
C3055 H3031 0.951 . S
C3055 C3056 1.366 . S
C3055 C3057 1.388 . S
C3056 C3055 1.366 . S
C3056 C3060 1.385 . S
C3057 H3032 0.951 . S
C3057 C3055 1.388 . S
C3057 C3058 1.366 . S
C3058 C3057 1.366 . S
C3058 C3059 1.414 . S
C3058 C3061 1.499 . S
C3059 H3033 0.950 . S
C3059 C3058 1.414 . S
C3059 C3060 1.374 . S
C3060 H3034 0.950 . S
C3060 C3056 1.385 . S
C3060 C3059 1.374 . S
C3061 C3058 1.499 . S
C3061 C3062 1.373 . S
C3061 C3063 1.389 . S
C3062 H3035 0.950 . S
C3062 C3048 1.377 . S
C3062 C3061 1.373 . S
C3063 C3047 1.377 . S
C3063 C3061 1.389 . S
C3063 C3064 1.524 . S
C3064 C3063 1.524 . S
C3064 C3065 1.397 . S
C3064 C3069 1.363 . S
C3065 H3036 0.950 . S
C3065 C3064 1.397 . S
C3065 C3066 1.334 . S
C3066 H3037 0.950 1_545 S
C3066 C3065 1.334 . S
C3066 C3067 1.287 . S
C3067 C3066 1.287 . S
C3067 C3068 1.524 . S
C3067 H3070 0.999 1_545 S
C3068 H3038 0.950 . S
C3068 C3067 1.524 . S
C3068 C3069 1.415 . S
C3069 H3039 0.950 . S
C3069 C3064 1.363 . S
C3069 C3068 1.415 . S
H3070 C3067 0.999 1_565 S
H3071 C3052 0.913 . S
H3072 C3090 0.951 . S
H3073 C3092 0.951 . S
H3074 C3094 0.950 . S
H3075 C3095 0.950 . S
H3076 C3097 0.950 . S
H3077 C3100 0.950 . S
H3078 C3101 0.950 . S
H3079 C3103 0.950 . S
H3080 C3104 0.950 . S
H3081 C3105 0.951 . S
H3082 C3107 0.951 . S
H3083 C3109 0.950 . S
H3084 C3110 0.950 . S
H3085 C3112 0.950 . S
H3086 C3115 0.950 . S
H3087 C3116 0.950 . S
H3088 C3118 0.950 . S
H3089 C3119 0.950 . S
C3090 H3072 0.951 . S
C3090 C3091 1.366 . S
C3090 C3092 1.388 . S
C3091 C3090 1.366 . S
C3091 C3095 1.385 . S
C3092 H3073 0.951 . S
C3092 C3090 1.388 . S
C3092 C3093 1.366 . S
C3093 C3092 1.366 . S
C3093 C3094 1.414 . S
C3093 C3096 1.499 . S
C3094 H3074 0.950 . S
C3094 C3093 1.414 . S
C3094 C3095 1.374 . S
C3095 H3075 0.950 . S
C3095 C3091 1.385 . S
C3095 C3094 1.374 . S
C3096 C3093 1.499 . S
C3096 C3097 1.373 . S
C3096 C3098 1.389 . S
C3097 H3076 0.950 . S
C3097 C3096 1.373 . S
C3097 C3113 1.377 . S
C3098 C3096 1.389 . S
C3098 C3099 1.524 . S
C3098 C3112 1.377 . S
C3099 C3098 1.524 . S
C3099 C3100 1.397 . S
C3099 C3104 1.363 . S
C3100 H3077 0.950 . S
C3100 C3099 1.397 . S
C3100 C3101 1.334 . S
C3101 H3078 0.950 . S
C3101 C3100 1.334 . S
C3101 C3102 1.287 . S
C3102 C3101 1.287 . S
C3102 C3103 1.524 . S
C3102 H3121 0.913 . S
C3103 H3079 0.950 . S
C3103 C3102 1.524 . S
C3103 C3104 1.415 . S
C3104 H3080 0.950 . S
C3104 C3099 1.363 . S
C3104 C3103 1.415 . S
C3105 H3081 0.951 . S
C3105 C3106 1.366 . S
C3105 C3107 1.388 . S
C3106 C3105 1.366 . S
C3106 C3110 1.385 . S
C3107 H3082 0.951 . S
C3107 C3105 1.388 . S
C3107 C3108 1.366 . S
C3108 C3107 1.366 . S
C3108 C3109 1.414 . S
C3108 C3111 1.499 . S
C3109 H3083 0.950 . S
C3109 C3108 1.414 . S
C3109 C3110 1.374 . S
C3110 H3084 0.950 . S
C3110 C3106 1.385 . S
C3110 C3109 1.374 . S
C3111 C3108 1.499 . S
C3111 C3112 1.373 . S
C3111 C3113 1.389 . S
C3112 H3085 0.950 . S
C3112 C3098 1.377 . S
C3112 C3111 1.373 . S
C3113 C3097 1.377 . S
C3113 C3111 1.389 . S
C3113 C3114 1.524 . S
C3114 C3113 1.524 . S
C3114 C3115 1.397 . S
C3114 C3119 1.363 . S
C3115 H3086 0.950 . S
C3115 C3114 1.397 . S
C3115 C3116 1.334 . S
C3116 H3087 0.950 . S
C3116 C3115 1.334 . S
C3116 C3117 1.287 . S
C3117 C3116 1.287 . S
C3117 C3118 1.524 . S
C3117 H3120 0.999 . S
C3118 H3088 0.950 . S
C3118 C3117 1.524 . S
C3118 C3119 1.415 . S
C3119 H3089 0.950 . S
C3119 C3114 1.363 . S
C3119 C3118 1.415 . S
H3120 C3117 0.999 . S
H3121 C3102 0.913 . S
H3122 C3140 0.951 . S
H3123 C3142 0.951 . S
H3124 C3144 0.950 . S
H3125 C3145 0.950 . S
H3126 C3147 0.950 . S
H3127 C3150 0.950 . S
H3128 C3151 0.950 . S
H3129 C3153 0.950 . S
H3130 C3154 0.950 . S
H3131 C3155 0.951 . S
H3132 C3157 0.951 . S
H3133 C3159 0.950 . S
H3134 C3160 0.950 . S
H3135 C3162 0.950 . S
H3136 C3165 0.950 . S
H3137 C3166 0.950 . S
H3138 C3168 0.950 . S
H3139 C3169 0.950 . S
C3140 H3122 0.951 . S
C3140 C3141 1.366 . S
C3140 C3142 1.388 . S
C3141 C3140 1.366 . S
C3141 C3145 1.385 . S
C3142 H3123 0.951 . S
C3142 C3140 1.388 . S
C3142 C3143 1.366 . S
C3143 C3142 1.366 . S
C3143 C3144 1.414 . S
C3143 C3146 1.499 . S
C3144 H3124 0.950 . S
C3144 C3143 1.414 . S
C3144 C3145 1.374 . S
C3145 H3125 0.950 . S
C3145 C3141 1.385 . S
C3145 C3144 1.374 . S
C3146 C3143 1.499 . S
C3146 C3147 1.373 . S
C3146 C3148 1.389 . S
C3147 H3126 0.950 . S
C3147 C3146 1.373 . S
C3147 C3163 1.377 . S
C3148 C3146 1.389 . S
C3148 C3149 1.524 . S
C3148 C3162 1.377 . S
C3149 C3148 1.524 . S
C3149 C3150 1.397 . S
C3149 C3154 1.363 . S
C3150 H3127 0.950 . S
C3150 C3149 1.397 . S
C3150 C3151 1.334 . S
C3151 H3128 0.950 . S
C3151 C3150 1.334 . S
C3151 C3152 1.287 . S
C3152 C3151 1.287 . S
C3152 C3153 1.524 . S
C3152 H3171 0.913 . S
C3153 H3129 0.950 . S
C3153 C3152 1.524 . S
C3153 C3154 1.415 . S
C3154 H3130 0.950 . S
C3154 C3149 1.363 . S
C3154 C3153 1.415 . S
C3155 H3131 0.951 . S
C3155 C3156 1.366 . S
C3155 C3157 1.388 . S
C3156 C3155 1.366 . S
C3156 C3160 1.385 . S
C3157 H3132 0.951 . S
C3157 C3155 1.388 . S
C3157 C3158 1.366 . S
C3158 C3157 1.366 . S
C3158 C3159 1.414 . S
C3158 C3161 1.499 . S
C3159 H3133 0.950 . S
C3159 C3158 1.414 . S
C3159 C3160 1.374 . S
C3160 H3134 0.950 . S
C3160 C3156 1.385 . S
C3160 C3159 1.374 . S
C3161 C3158 1.499 . S
C3161 C3162 1.373 . S
C3161 C3163 1.389 . S
C3162 H3135 0.950 . S
C3162 C3148 1.377 . S
C3162 C3161 1.373 . S
C3163 C3147 1.377 . S
C3163 C3161 1.389 . S
C3163 C3164 1.524 . S
C3164 C3163 1.524 . S
C3164 C3165 1.397 . S
C3164 C3169 1.363 . S
C3165 H3136 0.950 . S
C3165 C3164 1.397 . S
C3165 C3166 1.334 . S
C3166 H3137 0.950 . S
C3166 C3165 1.334 . S
C3166 C3167 1.287 . S
C3167 C3166 1.287 . S
C3167 C3168 1.524 . S
C3167 H3170 0.999 . S
C3168 H3138 0.950 . S
C3168 C3167 1.524 . S
C3168 C3169 1.415 . S
C3169 H3139 0.950 . S
C3169 C3164 1.363 . S
C3169 C3168 1.415 . S
H3170 C3167 0.999 . S
H3171 C3152 0.913 . S
H3172 C3190 0.951 . S
H3173 C3192 0.951 . S
H3174 C3194 0.950 . S
H3175 C3195 0.950 . S
H3176 C3197 0.950 . S
H3177 C3200 0.950 . S
H3178 C3201 0.950 . S
H3179 C3203 0.950 . S
H3180 C3204 0.950 . S
H3181 C3205 0.951 . S
H3182 C3207 0.951 . S
H3183 C3209 0.950 . S
H3184 C3210 0.950 . S
H3185 C3212 0.950 . S
H3186 C3215 0.950 . S
H3187 C3216 0.950 . S
H3188 C3218 0.950 . S
H3189 C3219 0.950 . S
C3190 H3172 0.951 . S
C3190 C3191 1.366 . S
C3190 C3192 1.388 . S
C3191 C3190 1.366 . S
C3191 C3195 1.385 . S
C3192 H3173 0.951 . S
C3192 C3190 1.388 . S
C3192 C3193 1.366 . S
C3193 C3192 1.366 . S
C3193 C3194 1.414 . S
C3193 C3196 1.499 . S
C3194 H3174 0.950 . S
C3194 C3193 1.414 . S
C3194 C3195 1.374 . S
C3195 H3175 0.950 . S
C3195 C3191 1.385 . S
C3195 C3194 1.374 . S
C3196 C3193 1.499 . S
C3196 C3197 1.373 . S
C3196 C3198 1.389 . S
C3197 H3176 0.950 . S
C3197 C3196 1.373 . S
C3197 C3213 1.377 . S
C3198 C3196 1.389 . S
C3198 C3199 1.524 . S
C3198 C3212 1.377 . S
C3199 C3198 1.524 . S
C3199 C3200 1.397 . S
C3199 C3204 1.363 . S
C3200 H3177 0.950 . S
C3200 C3199 1.397 . S
C3200 C3201 1.334 . S
C3201 H3178 0.950 . S
C3201 C3200 1.334 . S
C3201 C3202 1.287 . S
C3202 C3201 1.287 . S
C3202 C3203 1.524 . S
C3202 H3221 0.913 . S
C3203 H3179 0.950 . S
C3203 C3202 1.524 . S
C3203 C3204 1.415 . S
C3204 H3180 0.950 . S
C3204 C3199 1.363 . S
C3204 C3203 1.415 . S
C3205 H3181 0.951 . S
C3205 C3206 1.366 . S
C3205 C3207 1.388 . S
C3206 C3205 1.366 . S
C3206 C3210 1.385 . S
C3207 H3182 0.951 . S
C3207 C3205 1.388 . S
C3207 C3208 1.366 . S
C3208 C3207 1.366 . S
C3208 C3209 1.414 . S
C3208 C3211 1.499 . S
C3209 H3183 0.950 . S
C3209 C3208 1.414 . S
C3209 C3210 1.374 . S
C3210 H3184 0.950 . S
C3210 C3206 1.385 . S
C3210 C3209 1.374 . S
C3211 C3208 1.499 . S
C3211 C3212 1.373 . S
C3211 C3213 1.389 . S
C3212 H3185 0.950 . S
C3212 C3198 1.377 . S
C3212 C3211 1.373 . S
C3213 C3197 1.377 . S
C3213 C3211 1.389 . S
C3213 C3214 1.524 . S
C3214 C3213 1.524 . S
C3214 C3215 1.397 . S
C3214 C3219 1.363 . S
C3215 H3186 0.950 . S
C3215 C3214 1.397 . S
C3215 C3216 1.334 . S
C3216 H3187 0.950 . S
C3216 C3215 1.334 . S
C3216 C3217 1.287 . S
C3217 C3216 1.287 . S
C3217 C3218 1.524 . S
C3217 H3220 0.999 . S
C3218 H3188 0.950 . S
C3218 C3217 1.524 . S
C3218 C3219 1.415 . S
C3219 H3189 0.950 . S
C3219 C3214 1.363 . S
C3219 C3218 1.415 . S
H3220 C3217 0.999 . S
H3221 C3202 0.913 . S
H3222 C3240 0.951 . S
H3223 C3242 0.951 . S
H3224 C3244 0.950 . S
H3225 C3245 0.950 . S
H3226 C3247 0.950 . S
H3227 C3250 0.950 . S
H3228 C3251 0.950 . S
H3229 C3253 0.950 . S
H3230 C3254 0.950 . S
H3231 C3255 0.951 . S
H3232 C3257 0.951 . S
H3233 C3259 0.950 . S
H3234 C3260 0.950 . S
H3235 C3262 0.950 . S
H3236 C3265 0.950 . S
H3237 C3266 0.950 . S
H3238 C3268 0.950 . S
H3239 C3269 0.950 . S
C3240 H3222 0.951 . S
C3240 C3241 1.366 . S
C3240 C3242 1.388 . S
C3241 C3240 1.366 . S
C3241 C3245 1.385 . S
C3242 H3223 0.951 . S
C3242 C3240 1.388 . S
C3242 C3243 1.366 . S
C3243 C3242 1.366 . S
C3243 C3244 1.414 . S
C3243 C3246 1.499 . S
C3244 H3224 0.950 . S
C3244 C3243 1.414 . S
C3244 C3245 1.374 . S
C3245 H3225 0.950 . S
C3245 C3241 1.385 . S
C3245 C3244 1.374 . S
C3246 C3243 1.499 . S
C3246 C3247 1.373 . S
C3246 C3248 1.389 . S
C3247 H3226 0.950 . S
C3247 C3246 1.373 . S
C3247 C3263 1.377 . S
C3248 C3246 1.389 . S
C3248 C3249 1.524 . S
C3248 C3262 1.377 . S
C3249 C3248 1.524 . S
C3249 C3250 1.397 . S
C3249 C3254 1.363 . S
C3250 H3227 0.950 . S
C3250 C3249 1.397 . S
C3250 C3251 1.334 . S
C3251 H3228 0.950 . S
C3251 C3250 1.334 . S
C3251 C3252 1.287 . S
C3252 C3251 1.287 . S
C3252 C3253 1.524 . S
C3252 H3271 0.913 . S
C3253 H3229 0.950 . S
C3253 C3252 1.524 . S
C3253 C3254 1.415 . S
C3254 H3230 0.950 . S
C3254 C3249 1.363 . S
C3254 C3253 1.415 . S
C3255 H3231 0.951 . S
C3255 C3256 1.366 . S
C3255 C3257 1.388 . S
C3256 C3255 1.366 . S
C3256 C3260 1.385 . S
C3257 H3232 0.951 . S
C3257 C3255 1.388 . S
C3257 C3258 1.366 . S
C3258 C3257 1.366 . S
C3258 C3259 1.414 . S
C3258 C3261 1.499 . S
C3259 H3233 0.950 . S
C3259 C3258 1.414 . S
C3259 C3260 1.374 . S
C3260 H3234 0.950 . S
C3260 C3256 1.385 . S
C3260 C3259 1.374 . S
C3261 C3258 1.499 . S
C3261 C3262 1.373 . S
C3261 C3263 1.389 . S
C3262 H3235 0.950 . S
C3262 C3248 1.377 . S
C3262 C3261 1.373 . S
C3263 C3247 1.377 . S
C3263 C3261 1.389 . S
C3263 C3264 1.524 . S
C3264 C3263 1.524 . S
C3264 C3265 1.397 . S
C3264 C3269 1.363 . S
C3265 H3236 0.950 . S
C3265 C3264 1.397 . S
C3265 C3266 1.334 . S
C3266 H3237 0.950 . S
C3266 C3265 1.334 . S
C3266 C3267 1.287 . S
C3267 C3266 1.287 . S
C3267 C3268 1.524 . S
C3267 H3270 0.999 . S
C3268 H3238 0.950 . S
C3268 C3267 1.524 . S
C3268 C3269 1.415 . S
C3269 H3239 0.950 . S
C3269 C3264 1.363 . S
C3269 C3268 1.415 . S
H3270 C3267 0.999 . S
H3271 C3252 0.913 . S
H3272 C3290 0.951 . S
H3273 C3292 0.951 . S
H3274 C3294 0.950 . S
H3275 C3295 0.950 . S
H3276 C3297 0.950 . S
H3277 C3300 0.950 . S
H3278 C3301 0.950 . S
H3279 C3303 0.950 . S
H3280 C3304 0.950 . S
H3281 C3305 0.951 . S
H3282 C3307 0.951 . S
H3283 C3309 0.950 . S
H3284 C3310 0.950 . S
H3285 C3312 0.950 . S
H3286 C3315 0.950 . S
H3287 C3316 0.950 . S
H3288 C3318 0.950 . S
H3289 C3319 0.950 . S
C3290 H3272 0.951 . S
C3290 C3291 1.366 . S
C3290 C3292 1.388 . S
C3291 C3290 1.366 . S
C3291 C3295 1.385 . S
C3292 H3273 0.951 . S
C3292 C3290 1.388 . S
C3292 C3293 1.366 . S
C3293 C3292 1.366 . S
C3293 C3294 1.414 . S
C3293 C3296 1.499 . S
C3294 H3274 0.950 . S
C3294 C3293 1.414 . S
C3294 C3295 1.374 . S
C3295 H3275 0.950 . S
C3295 C3291 1.385 . S
C3295 C3294 1.374 . S
C3296 C3293 1.499 . S
C3296 C3297 1.373 . S
C3296 C3298 1.389 . S
C3297 H3276 0.950 . S
C3297 C3296 1.373 . S
C3297 C3313 1.377 . S
C3298 C3296 1.389 . S
C3298 C3299 1.524 . S
C3298 C3312 1.377 . S
C3299 C3298 1.524 . S
C3299 C3300 1.397 . S
C3299 C3304 1.363 . S
C3300 H3277 0.950 . S
C3300 C3299 1.397 . S
C3300 C3301 1.334 . S
C3301 H3278 0.950 . S
C3301 C3300 1.334 . S
C3301 C3302 1.287 . S
C3302 C3301 1.287 . S
C3302 C3303 1.524 . S
C3302 H3321 0.913 . S
C3303 H3279 0.950 . S
C3303 C3302 1.524 . S
C3303 C3304 1.415 . S
C3304 H3280 0.950 . S
C3304 C3299 1.363 . S
C3304 C3303 1.415 . S
C3305 H3281 0.951 . S
C3305 C3306 1.366 . S
C3305 C3307 1.388 . S
C3306 C3305 1.366 . S
C3306 C3310 1.385 . S
C3307 H3282 0.951 . S
C3307 C3305 1.388 . S
C3307 C3308 1.366 . S
C3308 C3307 1.366 . S
C3308 C3309 1.414 . S
C3308 C3311 1.499 . S
C3309 H3283 0.950 . S
C3309 C3308 1.414 . S
C3309 C3310 1.374 . S
C3310 H3284 0.950 . S
C3310 C3306 1.385 . S
C3310 C3309 1.374 . S
C3311 C3308 1.499 . S
C3311 C3312 1.373 . S
C3311 C3313 1.389 . S
C3312 H3285 0.950 . S
C3312 C3298 1.377 . S
C3312 C3311 1.373 . S
C3313 C3297 1.377 . S
C3313 C3311 1.389 . S
C3313 C3314 1.524 . S
C3314 C3313 1.524 . S
C3314 C3315 1.397 . S
C3314 C3319 1.363 . S
C3315 H3286 0.950 . S
C3315 C3314 1.397 . S
C3315 C3316 1.334 . S
C3316 H3287 0.950 . S
C3316 C3315 1.334 . S
C3316 C3317 1.287 . S
C3317 C3316 1.287 . S
C3317 C3318 1.524 . S
C3317 H3320 0.999 . S
C3318 H3288 0.950 . S
C3318 C3317 1.524 . S
C3318 C3319 1.415 . S
C3319 H3289 0.950 . S
C3319 C3314 1.363 . S
C3319 C3318 1.415 . S
H3320 C3317 0.999 . S
H3321 C3302 0.913 . S
H3322 C3340 0.951 . S
H3323 C3342 0.951 . S
H3324 C3344 0.950 . S
H3325 C3345 0.950 . S
H3326 C3347 0.950 . S
H3327 C3350 0.950 . S
H3328 C3351 0.950 . S
H3329 C3353 0.950 . S
H3330 C3354 0.950 . S
H3331 C3355 0.951 . S
H3332 C3357 0.951 . S
H3333 C3359 0.950 . S
H3334 C3360 0.950 . S
H3335 C3362 0.950 . S
H3336 C3365 0.950 . S
H3337 C3366 0.950 . S
H3338 C3368 0.950 . S
H3339 C3369 0.950 . S
C3340 H3322 0.951 . S
C3340 C3341 1.366 . S
C3340 C3342 1.388 . S
C3341 C3340 1.366 . S
C3341 C3345 1.385 . S
C3342 H3323 0.951 . S
C3342 C3340 1.388 . S
C3342 C3343 1.366 . S
C3343 C3342 1.366 . S
C3343 C3344 1.414 . S
C3343 C3346 1.499 . S
C3344 H3324 0.950 . S
C3344 C3343 1.414 . S
C3344 C3345 1.374 . S
C3345 H3325 0.950 . S
C3345 C3341 1.385 . S
C3345 C3344 1.374 . S
C3346 C3343 1.499 . S
C3346 C3347 1.373 . S
C3346 C3348 1.389 . S
C3347 H3326 0.950 . S
C3347 C3346 1.373 . S
C3347 C3363 1.377 . S
C3348 C3346 1.389 . S
C3348 C3349 1.524 . S
C3348 C3362 1.377 . S
C3349 C3348 1.524 . S
C3349 C3350 1.397 . S
C3349 C3354 1.363 . S
C3350 H3327 0.950 . S
C3350 C3349 1.397 . S
C3350 C3351 1.334 . S
C3351 H3328 0.950 . S
C3351 C3350 1.334 . S
C3351 C3352 1.287 . S
C3352 C3351 1.287 . S
C3352 C3353 1.524 . S
C3352 H3371 0.913 . S
C3353 H3329 0.950 . S
C3353 C3352 1.524 . S
C3353 C3354 1.415 . S
C3354 H3330 0.950 . S
C3354 C3349 1.363 . S
C3354 C3353 1.415 . S
C3355 H3331 0.951 . S
C3355 C3356 1.366 . S
C3355 C3357 1.388 . S
C3356 C3355 1.366 . S
C3356 C3360 1.385 . S
C3357 H3332 0.951 . S
C3357 C3355 1.388 . S
C3357 C3358 1.366 . S
C3358 C3357 1.366 . S
C3358 C3359 1.414 . S
C3358 C3361 1.499 . S
C3359 H3333 0.950 . S
C3359 C3358 1.414 . S
C3359 C3360 1.374 . S
C3360 H3334 0.950 . S
C3360 C3356 1.385 . S
C3360 C3359 1.374 . S
C3361 C3358 1.499 . S
C3361 C3362 1.373 . S
C3361 C3363 1.389 . S
C3362 H3335 0.950 . S
C3362 C3348 1.377 . S
C3362 C3361 1.373 . S
C3363 C3347 1.377 . S
C3363 C3361 1.389 . S
C3363 C3364 1.524 . S
C3364 C3363 1.524 . S
C3364 C3365 1.397 . S
C3364 C3369 1.363 . S
C3365 H3336 0.950 . S
C3365 C3364 1.397 . S
C3365 C3366 1.334 . S
C3366 H3337 0.950 . S
C3366 C3365 1.334 . S
C3366 C3367 1.287 . S
C3367 C3366 1.287 . S
C3367 C3368 1.524 . S
C3367 H3370 0.999 . S
C3368 H3338 0.950 . S
C3368 C3367 1.524 . S
C3368 C3369 1.415 . S
C3369 H3339 0.950 . S
C3369 C3364 1.363 . S
C3369 C3368 1.415 . S
H3370 C3367 0.999 . S
H3371 C3352 0.913 . S
H3372 C3390 0.951 . S
H3373 C3392 0.951 . S
H3374 C3394 0.950 . S
H3375 C3395 0.950 . S
H3376 C3397 0.950 . S
H3377 C3400 0.950 . S
H3378 C3401 0.950 . S
H3379 C3403 0.950 . S
H3380 C3404 0.950 . S
H3381 C3405 0.951 . S
H3382 C3407 0.951 . S
H3383 C3409 0.950 . S
H3384 C3410 0.950 . S
H3385 C3412 0.950 . S
H3386 C3415 0.950 . S
H3387 C3416 0.950 . S
H3388 C3418 0.950 . S
H3389 C3419 0.950 . S
C3390 H3372 0.951 . S
C3390 C3391 1.366 . S
C3390 C3392 1.388 . S
C3391 C3390 1.366 . S
C3391 C3395 1.385 . S
C3392 H3373 0.951 . S
C3392 C3390 1.388 . S
C3392 C3393 1.366 . S
C3393 C3392 1.366 . S
C3393 C3394 1.414 . S
C3393 C3396 1.499 . S
C3394 H3374 0.950 . S
C3394 C3393 1.414 . S
C3394 C3395 1.374 . S
C3395 H3375 0.950 . S
C3395 C3391 1.385 . S
C3395 C3394 1.374 . S
C3396 C3393 1.499 . S
C3396 C3397 1.373 . S
C3396 C3398 1.389 . S
C3397 H3376 0.950 . S
C3397 C3396 1.373 . S
C3397 C3413 1.377 . S
C3398 C3396 1.389 . S
C3398 C3399 1.524 . S
C3398 C3412 1.377 . S
C3399 C3398 1.524 . S
C3399 C3400 1.397 . S
C3399 C3404 1.363 . S
C3400 H3377 0.950 . S
C3400 C3399 1.397 . S
C3400 C3401 1.334 . S
C3401 H3378 0.950 . S
C3401 C3400 1.334 . S
C3401 C3402 1.287 . S
C3402 C3401 1.287 . S
C3402 C3403 1.524 . S
C3402 H3421 0.913 . S
C3403 H3379 0.950 . S
C3403 C3402 1.524 . S
C3403 C3404 1.415 . S
C3404 H3380 0.950 . S
C3404 C3399 1.363 . S
C3404 C3403 1.415 . S
C3405 H3381 0.951 . S
C3405 C3406 1.366 . S
C3405 C3407 1.388 . S
C3406 C3405 1.366 . S
C3406 C3410 1.385 . S
C3407 H3382 0.951 . S
C3407 C3405 1.388 . S
C3407 C3408 1.366 . S
C3408 C3407 1.366 . S
C3408 C3409 1.414 . S
C3408 C3411 1.499 . S
C3409 H3383 0.950 . S
C3409 C3408 1.414 . S
C3409 C3410 1.374 . S
C3410 H3384 0.950 . S
C3410 C3406 1.385 . S
C3410 C3409 1.374 . S
C3411 C3408 1.499 . S
C3411 C3412 1.373 . S
C3411 C3413 1.389 . S
C3412 H3385 0.950 . S
C3412 C3398 1.377 . S
C3412 C3411 1.373 . S
C3413 C3397 1.377 . S
C3413 C3411 1.389 . S
C3413 C3414 1.524 . S
C3414 C3413 1.524 . S
C3414 C3415 1.397 . S
C3414 C3419 1.363 . S
C3415 H3386 0.950 . S
C3415 C3414 1.397 . S
C3415 C3416 1.334 . S
C3416 H3387 0.950 . S
C3416 C3415 1.334 . S
C3416 C3417 1.287 . S
C3417 C3416 1.287 . S
C3417 C3418 1.524 . S
C3417 H3420 0.999 . S
C3418 H3388 0.950 . S
C3418 C3417 1.524 . S
C3418 C3419 1.415 . S
C3419 H3389 0.950 . S
C3419 C3414 1.363 . S
C3419 C3418 1.415 . S
H3420 C3417 0.999 . S
H3421 C3402 0.913 . S
H3422 C3440 0.951 . S
H3423 C3442 0.951 . S
H3424 C3444 0.950 . S
H3425 C3445 0.950 . S
H3426 C3447 0.950 . S
H3427 C3450 0.950 . S
H3428 C3451 0.950 . S
H3429 C3453 0.950 . S
H3430 C3454 0.950 . S
H3431 C3455 0.951 . S
H3432 C3457 0.951 . S
H3433 C3459 0.950 . S
H3434 C3460 0.950 . S
H3435 C3462 0.950 . S
H3436 C3465 0.950 . S
H3437 C3466 0.950 . S
H3438 C3468 0.950 . S
H3439 C3469 0.950 . S
C3440 H3422 0.951 . S
C3440 C3441 1.366 . S
C3440 C3442 1.388 . S
C3441 C3440 1.366 . S
C3441 C3445 1.385 . S
C3442 H3423 0.951 . S
C3442 C3440 1.388 . S
C3442 C3443 1.366 . S
C3443 C3442 1.366 . S
C3443 C3444 1.414 . S
C3443 C3446 1.499 . S
C3444 H3424 0.950 . S
C3444 C3443 1.414 . S
C3444 C3445 1.374 . S
C3445 H3425 0.950 . S
C3445 C3441 1.385 . S
C3445 C3444 1.374 . S
C3446 C3443 1.499 . S
C3446 C3447 1.373 . S
C3446 C3448 1.389 . S
C3447 H3426 0.950 . S
C3447 C3446 1.373 . S
C3447 C3463 1.377 . S
C3448 C3446 1.389 . S
C3448 C3449 1.524 . S
C3448 C3462 1.377 . S
C3449 C3448 1.524 . S
C3449 C3450 1.397 . S
C3449 C3454 1.363 . S
C3450 H3427 0.950 . S
C3450 C3449 1.397 . S
C3450 C3451 1.334 . S
C3451 H3428 0.950 . S
C3451 C3450 1.334 . S
C3451 C3452 1.287 . S
C3452 C3451 1.287 . S
C3452 C3453 1.524 . S
C3452 H3471 0.913 . S
C3453 H3429 0.950 . S
C3453 C3452 1.524 . S
C3453 C3454 1.415 . S
C3454 H3430 0.950 . S
C3454 C3449 1.363 . S
C3454 C3453 1.415 . S
C3455 H3431 0.951 . S
C3455 C3456 1.366 . S
C3455 C3457 1.388 . S
C3456 C3455 1.366 . S
C3456 C3460 1.385 . S
C3457 H3432 0.951 . S
C3457 C3455 1.388 . S
C3457 C3458 1.366 . S
C3458 C3457 1.366 . S
C3458 C3459 1.414 . S
C3458 C3461 1.499 . S
C3459 H3433 0.950 . S
C3459 C3458 1.414 . S
C3459 C3460 1.374 . S
C3460 H3434 0.950 . S
C3460 C3456 1.385 . S
C3460 C3459 1.374 . S
C3461 C3458 1.499 . S
C3461 C3462 1.373 . S
C3461 C3463 1.389 . S
C3462 H3435 0.950 . S
C3462 C3448 1.377 . S
C3462 C3461 1.373 . S
C3463 C3447 1.377 . S
C3463 C3461 1.389 . S
C3463 C3464 1.524 . S
C3464 C3463 1.524 . S
C3464 C3465 1.397 . S
C3464 C3469 1.363 . S
C3465 H3436 0.950 . S
C3465 C3464 1.397 . S
C3465 C3466 1.334 . S
C3466 H3437 0.950 . S
C3466 C3465 1.334 . S
C3466 C3467 1.287 . S
C3467 C3466 1.287 . S
C3467 C3468 1.524 . S
C3467 H3470 0.999 . S
C3468 H3438 0.950 . S
C3468 C3467 1.524 . S
C3468 C3469 1.415 . S
C3469 H3439 0.950 . S
C3469 C3464 1.363 . S
C3469 C3468 1.415 . S
H3470 C3467 0.999 . S
H3471 C3452 0.913 . S
H3472 C3490 0.951 . S
H3473 C3492 0.951 . S
H3474 C3494 0.950 . S
H3475 C3495 0.950 . S
H3476 C3497 0.950 . S
H3477 C3500 0.950 . S
H3478 C3501 0.950 . S
H3479 C3503 0.950 . S
H3480 C3504 0.950 . S
H3481 C3505 0.951 . S
H3482 C3507 0.951 . S
H3483 C3509 0.950 . S
H3484 C3510 0.950 . S
H3485 C3512 0.950 . S
H3486 C3515 0.950 . S
H3487 C3516 0.950 . S
H3488 C3518 0.950 . S
H3489 C3519 0.950 . S
C3490 H3472 0.951 . S
C3490 C3491 1.366 . S
C3490 C3492 1.388 . S
C3491 C3490 1.366 . S
C3491 C3495 1.385 . S
C3492 H3473 0.951 . S
C3492 C3490 1.388 . S
C3492 C3493 1.366 . S
C3493 C3492 1.366 . S
C3493 C3494 1.414 . S
C3493 C3496 1.499 . S
C3494 H3474 0.950 . S
C3494 C3493 1.414 . S
C3494 C3495 1.374 . S
C3495 H3475 0.950 . S
C3495 C3491 1.385 . S
C3495 C3494 1.374 . S
C3496 C3493 1.499 . S
C3496 C3497 1.373 . S
C3496 C3498 1.389 . S
C3497 H3476 0.950 . S
C3497 C3496 1.373 . S
C3497 C3513 1.377 . S
C3498 C3496 1.389 . S
C3498 C3499 1.524 . S
C3498 C3512 1.377 . S
C3499 C3498 1.524 . S
C3499 C3500 1.397 . S
C3499 C3504 1.363 . S
C3500 H3477 0.950 . S
C3500 C3499 1.397 . S
C3500 C3501 1.334 . S
C3501 H3478 0.950 . S
C3501 C3500 1.334 . S
C3501 C3502 1.287 . S
C3502 C3501 1.287 . S
C3502 C3503 1.524 . S
C3502 H3521 0.913 . S
C3503 H3479 0.950 . S
C3503 C3502 1.524 . S
C3503 C3504 1.415 . S
C3504 H3480 0.950 . S
C3504 C3499 1.363 . S
C3504 C3503 1.415 . S
C3505 H3481 0.951 . S
C3505 C3506 1.366 . S
C3505 C3507 1.388 . S
C3506 C3505 1.366 . S
C3506 C3510 1.385 . S
C3507 H3482 0.951 . S
C3507 C3505 1.388 . S
C3507 C3508 1.366 . S
C3508 C3507 1.366 . S
C3508 C3509 1.414 . S
C3508 C3511 1.499 . S
C3509 H3483 0.950 . S
C3509 C3508 1.414 . S
C3509 C3510 1.374 . S
C3510 H3484 0.950 . S
C3510 C3506 1.385 . S
C3510 C3509 1.374 . S
C3511 C3508 1.499 . S
C3511 C3512 1.373 . S
C3511 C3513 1.389 . S
C3512 H3485 0.950 . S
C3512 C3498 1.377 . S
C3512 C3511 1.373 . S
C3513 C3497 1.377 . S
C3513 C3511 1.389 . S
C3513 C3514 1.524 . S
C3514 C3513 1.524 . S
C3514 C3515 1.397 . S
C3514 C3519 1.363 . S
C3515 H3486 0.950 . S
C3515 C3514 1.397 . S
C3515 C3516 1.334 . S
C3516 H3487 0.950 . S
C3516 C3515 1.334 . S
C3516 C3517 1.287 . S
C3517 C3516 1.287 . S
C3517 C3518 1.524 . S
C3517 H3520 0.999 . S
C3518 H3488 0.950 . S
C3518 C3517 1.524 . S
C3518 C3519 1.415 . S
C3519 H3489 0.950 . S
C3519 C3514 1.363 . S
C3519 C3518 1.415 . S
H3520 C3517 0.999 . S
H3521 C3502 0.913 . S
H3522 C3540 0.951 . S
H3523 C3542 0.951 . S
H3524 C3544 0.950 . S
H3525 C3545 0.950 . S
H3526 C3547 0.950 . S
H3527 C3550 0.950 . S
H3528 C3551 0.950 . S
H3529 C3553 0.950 . S
H3530 C3554 0.950 . S
H3531 C3555 0.951 . S
H3532 C3557 0.951 . S
H3533 C3559 0.950 . S
H3534 C3560 0.950 . S
H3535 C3562 0.950 . S
H3536 C3565 0.950 . S
H3537 C3566 0.950 . S
H3538 C3568 0.950 . S
H3539 C3569 0.950 . S
C3540 H3522 0.951 . S
C3540 C3541 1.366 . S
C3540 C3542 1.388 . S
C3541 C3540 1.366 . S
C3541 C3545 1.385 . S
C3542 H3523 0.951 . S
C3542 C3540 1.388 . S
C3542 C3543 1.366 . S
C3543 C3542 1.366 . S
C3543 C3544 1.414 . S
C3543 C3546 1.499 . S
C3544 H3524 0.950 . S
C3544 C3543 1.414 . S
C3544 C3545 1.374 . S
C3545 H3525 0.950 . S
C3545 C3541 1.385 . S
C3545 C3544 1.374 . S
C3546 C3543 1.499 . S
C3546 C3547 1.373 . S
C3546 C3548 1.389 . S
C3547 H3526 0.950 . S
C3547 C3546 1.373 . S
C3547 C3563 1.377 . S
C3548 C3546 1.389 . S
C3548 C3549 1.524 . S
C3548 C3562 1.377 . S
C3549 C3548 1.524 . S
C3549 C3550 1.397 . S
C3549 C3554 1.363 . S
C3550 H3527 0.950 . S
C3550 C3549 1.397 . S
C3550 C3551 1.334 . S
C3551 H3528 0.950 . S
C3551 C3550 1.334 . S
C3551 C3552 1.287 . S
C3552 C3551 1.287 . S
C3552 C3553 1.524 . S
C3552 H3571 0.913 . S
C3553 H3529 0.950 . S
C3553 C3552 1.524 . S
C3553 C3554 1.415 . S
C3554 H3530 0.950 . S
C3554 C3549 1.363 . S
C3554 C3553 1.415 . S
C3555 H3531 0.951 . S
C3555 C3556 1.366 . S
C3555 C3557 1.388 . S
C3556 C3555 1.366 . S
C3556 C3560 1.385 . S
C3557 H3532 0.951 . S
C3557 C3555 1.388 . S
C3557 C3558 1.366 . S
C3558 C3557 1.366 . S
C3558 C3559 1.414 . S
C3558 C3561 1.499 . S
C3559 H3533 0.950 . S
C3559 C3558 1.414 . S
C3559 C3560 1.374 . S
C3560 H3534 0.950 . S
C3560 C3556 1.385 . S
C3560 C3559 1.374 . S
C3561 C3558 1.499 . S
C3561 C3562 1.373 . S
C3561 C3563 1.389 . S
C3562 H3535 0.950 . S
C3562 C3548 1.377 . S
C3562 C3561 1.373 . S
C3563 C3547 1.377 . S
C3563 C3561 1.389 . S
C3563 C3564 1.524 . S
C3564 C3563 1.524 . S
C3564 C3565 1.397 . S
C3564 C3569 1.363 . S
C3565 H3536 0.950 . S
C3565 C3564 1.397 . S
C3565 C3566 1.334 . S
C3566 H3537 0.950 . S
C3566 C3565 1.334 . S
C3566 C3567 1.287 . S
C3567 C3566 1.287 . S
C3567 C3568 1.524 . S
C3567 H3570 0.999 . S
C3568 H3538 0.950 . S
C3568 C3567 1.524 . S
C3568 C3569 1.415 . S
C3569 H3539 0.950 . S
C3569 C3564 1.363 . S
C3569 C3568 1.415 . S
H3570 C3567 0.999 . S
H3571 C3552 0.913 . S
H3572 C3590 0.951 . S
H3573 C3592 0.951 . S
H3574 C3594 0.950 . S
H3575 C3595 0.950 . S
H3576 C3597 0.950 . S
H3577 C3600 0.950 . S
H3578 C3601 0.950 . S
H3579 C3603 0.950 . S
H3580 C3604 0.950 . S
H3581 C3605 0.951 . S
H3582 C3607 0.951 . S
H3583 C3609 0.950 . S
H3584 C3610 0.950 . S
H3585 C3612 0.950 . S
H3586 C3615 0.950 . S
H3587 C3616 0.950 . S
H3588 C3618 0.950 . S
H3589 C3619 0.950 . S
C3590 H3572 0.951 . S
C3590 C3591 1.366 . S
C3590 C3592 1.388 . S
C3591 C3590 1.366 . S
C3591 C3595 1.385 . S
C3592 H3573 0.951 . S
C3592 C3590 1.388 . S
C3592 C3593 1.366 . S
C3593 C3592 1.366 . S
C3593 C3594 1.414 . S
C3593 C3596 1.499 . S
C3594 H3574 0.950 . S
C3594 C3593 1.414 . S
C3594 C3595 1.374 . S
C3595 H3575 0.950 . S
C3595 C3591 1.385 . S
C3595 C3594 1.374 . S
C3596 C3593 1.499 . S
C3596 C3597 1.373 . S
C3596 C3598 1.389 . S
C3597 H3576 0.950 . S
C3597 C3596 1.373 . S
C3597 C3613 1.377 . S
C3598 C3596 1.389 . S
C3598 C3599 1.524 . S
C3598 C3612 1.377 . S
C3599 C3598 1.524 . S
C3599 C3600 1.397 . S
C3599 C3604 1.363 . S
C3600 H3577 0.950 . S
C3600 C3599 1.397 . S
C3600 C3601 1.334 . S
C3601 H3578 0.950 . S
C3601 C3600 1.334 . S
C3601 C3602 1.287 . S
C3602 C3601 1.287 . S
C3602 C3603 1.524 . S
C3602 H3621 0.913 . S
C3603 H3579 0.950 . S
C3603 C3602 1.524 . S
C3603 C3604 1.415 . S
C3604 H3580 0.950 . S
C3604 C3599 1.363 . S
C3604 C3603 1.415 . S
C3605 H3581 0.951 . S
C3605 C3606 1.366 . S
C3605 C3607 1.388 . S
C3606 C3605 1.366 . S
C3606 C3610 1.385 . S
C3607 H3582 0.951 . S
C3607 C3605 1.388 . S
C3607 C3608 1.366 . S
C3608 C3607 1.366 . S
C3608 C3609 1.414 . S
C3608 C3611 1.499 . S
C3609 H3583 0.950 . S
C3609 C3608 1.414 . S
C3609 C3610 1.374 . S
C3610 H3584 0.950 . S
C3610 C3606 1.385 . S
C3610 C3609 1.374 . S
C3611 C3608 1.499 . S
C3611 C3612 1.373 . S
C3611 C3613 1.389 . S
C3612 H3585 0.950 . S
C3612 C3598 1.377 . S
C3612 C3611 1.373 . S
C3613 C3597 1.377 . S
C3613 C3611 1.389 . S
C3613 C3614 1.524 . S
C3614 C3613 1.524 . S
C3614 C3615 1.397 . S
C3614 C3619 1.363 . S
C3615 H3586 0.950 . S
C3615 C3614 1.397 . S
C3615 C3616 1.334 . S
C3616 H3587 0.950 . S
C3616 C3615 1.334 . S
C3616 C3617 1.287 . S
C3617 C3616 1.287 . S
C3617 C3618 1.524 . S
C3617 H3620 0.999 . S
C3618 H3588 0.950 . S
C3618 C3617 1.524 . S
C3618 C3619 1.415 . S
C3619 H3589 0.950 . S
C3619 C3614 1.363 . S
C3619 C3618 1.415 . S
H3620 C3617 0.999 . S
H3621 C3602 0.913 . S
H3622 C3640 0.951 . S
H3623 C3642 0.951 . S
H3624 C3644 0.950 . S
H3625 C3645 0.950 . S
H3626 C3647 0.950 . S
H3627 C3650 0.950 . S
H3628 C3651 0.950 . S
H3629 C3653 0.950 . S
H3630 C3654 0.950 . S
H3631 C3655 0.951 . S
H3632 C3657 0.951 . S
H3633 C3659 0.950 . S
H3634 C3660 0.950 . S
H3635 C3662 0.950 . S
H3636 C3665 0.950 . S
H3637 C3666 0.950 . S
H3638 C3668 0.950 . S
H3639 C3669 0.950 . S
C3640 H3622 0.951 . S
C3640 C3641 1.366 . S
C3640 C3642 1.388 . S
C3641 C3640 1.366 . S
C3641 C3645 1.385 . S
C3642 H3623 0.951 . S
C3642 C3640 1.388 . S
C3642 C3643 1.366 . S
C3643 C3642 1.366 . S
C3643 C3644 1.414 . S
C3643 C3646 1.499 . S
C3644 H3624 0.950 . S
C3644 C3643 1.414 . S
C3644 C3645 1.374 . S
C3645 H3625 0.950 . S
C3645 C3641 1.385 . S
C3645 C3644 1.374 . S
C3646 C3643 1.499 . S
C3646 C3647 1.373 . S
C3646 C3648 1.389 . S
C3647 H3626 0.950 . S
C3647 C3646 1.373 . S
C3647 C3663 1.377 . S
C3648 C3646 1.389 . S
C3648 C3649 1.524 . S
C3648 C3662 1.377 . S
C3649 C3648 1.524 . S
C3649 C3650 1.397 . S
C3649 C3654 1.363 . S
C3650 H3627 0.950 . S
C3650 C3649 1.397 . S
C3650 C3651 1.334 . S
C3651 H3628 0.950 . S
C3651 C3650 1.334 . S
C3651 C3652 1.287 . S
C3652 C3651 1.287 . S
C3652 C3653 1.524 . S
C3652 H3671 0.913 . S
C3653 H3629 0.950 . S
C3653 C3652 1.524 . S
C3653 C3654 1.415 . S
C3654 H3630 0.950 . S
C3654 C3649 1.363 . S
C3654 C3653 1.415 . S
C3655 H3631 0.951 . S
C3655 C3656 1.366 . S
C3655 C3657 1.388 . S
C3656 C3655 1.366 . S
C3656 C3660 1.385 . S
C3657 H3632 0.951 . S
C3657 C3655 1.388 . S
C3657 C3658 1.366 . S
C3658 C3657 1.366 . S
C3658 C3659 1.414 . S
C3658 C3661 1.499 . S
C3659 H3633 0.950 . S
C3659 C3658 1.414 . S
C3659 C3660 1.374 . S
C3660 H3634 0.950 . S
C3660 C3656 1.385 . S
C3660 C3659 1.374 . S
C3661 C3658 1.499 . S
C3661 C3662 1.373 . S
C3661 C3663 1.389 . S
C3662 H3635 0.950 . S
C3662 C3648 1.377 . S
C3662 C3661 1.373 . S
C3663 C3647 1.377 . S
C3663 C3661 1.389 . S
C3663 C3664 1.524 . S
C3664 C3663 1.524 . S
C3664 C3665 1.397 . S
C3664 C3669 1.363 . S
C3665 H3636 0.950 . S
C3665 C3664 1.397 . S
C3665 C3666 1.334 . S
C3666 H3637 0.950 . S
C3666 C3665 1.334 . S
C3666 C3667 1.287 . S
C3667 C3666 1.287 . S
C3667 C3668 1.524 . S
C3667 H3670 0.999 . S
C3668 H3638 0.950 . S
C3668 C3667 1.524 . S
C3668 C3669 1.415 . S
C3669 H3639 0.950 . S
C3669 C3664 1.363 . S
C3669 C3668 1.415 . S
H3670 C3667 0.999 . S
H3671 C3652 0.913 . S
C991 C162 1.431 . S
C1006 C283 1.373 . S
C1041 C174 1.458 . S
C1056 C367 1.404 . S
C1091 C150 1.426 . S
C1106 C447 1.418 . S
C1141 C138 1.399 . S
C1156 C363 1.394 1_556 S
C1206 C451 1.350 . S
C1191 C114 1.407 . S
C1241 C126 1.375 . S
C1256 C279 1.366 . S
C1306 C272 1.431 . S
C1291 C136 1.487 . S
C1356 C356 1.459 . S
C1341 C112 1.511 . S
C1391 C124 1.505 . S
C1406 C458 1.488 . S
C1441 C160 1.470 . S
C1456 C374 1.445 . S
C1491 C172 1.455 . S
C1506 C440 1.399 . S
C1556 C290 1.421 . S
C1541 C148 1.448 . S
C1606 C535 1.373 . S
C1591 C18 1.432 . S
C1641 C30 1.458 . S
C1656 C619 1.405 . S
C1691 C6 1.426 . S
C1706 C699 1.418 . S
C1741 C210 1.400 . S
C1756 C615 1.394 . S
C1791 C186 1.407 . S
C1806 C703 1.350 . S
C1841 C198 1.375 . S
C1856 C531 1.368 . S
C1891 C208 1.487 . S
C1906 C524 1.431 . S
C1941 C184 1.512 . S
C1956 C608 1.459 . S
C2006 C710 1.479 . S
C1991 C196 1.504 . S
C2041 C16 1.470 . S
C2056 C626 1.445 . S
C2106 C692 1.398 . S
C2091 C28 1.455 . S
C2141 C4 1.447 . S
C2156 C542 1.421 . S
C2206 C787 1.373 . S
C2191 C90 1.432 . S
C2241 C102 1.459 . S
C2256 C871 1.404 . S
C2306 C951 1.417 . S
C2291 C78 1.425 . S
C2356 C867 1.393 . S
C2341 C66 1.399 . S
C2406 C955 1.350 . S
C2391 C42 1.408 . S
C2441 C54 1.375 . S
C2456 C783 1.367 . S
C2491 C64 1.487 . S
C2506 C776 1.431 . S
C2541 C40 1.511 . S
C2556 C860 1.459 . S
C2606 C962 1.479 . S
C2591 C52 1.505 . S
C2641 C88 1.471 . S
C2656 C878 1.445 . S
C2691 C100 1.455 . S
C2706 C944 1.399 . S
C2741 C76 1.447 . S
C2756 C794 1.421 . S
C2791 C189 1.556 . S
C2806 C286 1.430 . S
C2856 C370 1.486 . S
C2841 C201 1.637 . S
C2891 C213 1.573 . S
C2906 C442 1.391 . S
C2941 C81 1.607 . S
C2956 C358 1.412 . S
C2991 C93 1.589 . S
C3006 C454 1.448 . S
C3056 C274 1.360 . S
C3041 C105 1.526 . S
C3091 C45 1.557 . S
C3106 C538 1.430 . S
C3141 C57 1.638 . S
C3156 C622 1.486 . S
C3191 C69 1.573 . S
C3206 C694 1.390 . S
C3241 C153 1.607 . S
C3256 C610 1.413 . S
C3306 C706 1.448 . S
C3291 C165 1.589 . S
C3341 C177 1.527 . S
C3356 C526 1.358 . S
C3391 C117 1.557 . S
C3406 C790 1.430 . S
C3441 C129 1.637 . S
C3456 C874 1.487 . S
C3506 C946 1.390 . S
C3491 C141 1.573 . S
C3541 C9 1.607 . S
C3556 C862 1.413 . S
C3591 C21 1.589 . S
C3606 C958 1.446 . S
C3641 C33 1.526 . S
C3656 C778 1.358 . S
