# Generated by pormake.
# Topology apo, (3,6)-cn, num edge types: 1
# Building blocks:
#     Node 0, Type 0, BuildingBlock: MIDCAF_clean_linker_0, # of connection points: 3
#     Node 1, Type 0, BuildingBlock: MIDCAF_clean_linker_0, # of connection points: 3
#     Node 2, Type 0, BuildingBlock: MIDCAF_clean_linker_0, # of connection points: 3
#     Node 3, Type 0, BuildingBlock: MIDCAF_clean_linker_0, # of connection points: 3
#     Node 4, Type 0, BuildingBlock: MIDCAF_clean_linker_0, # of connection points: 3
#     Node 5, Type 0, BuildingBlock: MIDCAF_clean_linker_0, # of connection points: 3
#     Node 6, Type 0, BuildingBlock: MIDCAF_clean_linker_0, # of connection points: 3
#     Node 7, Type 0, BuildingBlock: MIDCAF_clean_linker_0, # of connection points: 3
#     Node 8, Type 1, BuildingBlock: KUMBOL_clean_sbu_1, # of connection points: 6
#     Node 9, Type 1, BuildingBlock: KUMBOL_clean_sbu_1, # of connection points: 6
#     Node 10, Type 1, BuildingBlock: KUMBOL_clean_sbu_1, # of connection points: 6
#     Node 11, Type 1, BuildingBlock: KUMBOL_clean_sbu_1, # of connection points: 6
#     Edge 12, Type (0, 1), None
#     Edge 13, Type (0, 1), None
#     Edge 14, Type (0, 1), None
#     Edge 15, Type (0, 1), None
#     Edge 16, Type (0, 1), None
#     Edge 17, Type (0, 1), None
#     Edge 18, Type (0, 1), None
#     Edge 19, Type (0, 1), None
#     Edge 20, Type (0, 1), None
#     Edge 21, Type (0, 1), None
#     Edge 22, Type (0, 1), None
#     Edge 23, Type (0, 1), None
#     Edge 24, Type (0, 1), None
#     Edge 25, Type (0, 1), None
#     Edge 26, Type (0, 1), None
#     Edge 27, Type (0, 1), None
#     Edge 28, Type (0, 1), None
#     Edge 29, Type (0, 1), None
#     Edge 30, Type (0, 1), None
#     Edge 31, Type (0, 1), None
#     Edge 32, Type (0, 1), None
#     Edge 33, Type (0, 1), None
#     Edge 34, Type (0, 1), None
#     Edge 35, Type (0, 1), None
# Relax obj value: 0.006
# Max RMSD: 0.140
# Mean RMSD: 0.105
data_MOF--net-apo--node1-KUMBOL_clean_sbu_1--node2-MIDCAF_clean_linker_0--edge1-none
_symmetry_space_group_name_H-M    P1
_symmetry_Int_Tables_number       1
_symmetry_cell_setting            triclinic
loop_
_symmetry_equiv_pos_as_xyz
'x, y, z'
_cell_length_a     16.183592
_cell_length_b     28.313085
_cell_length_c     38.213939
_cell_angle_alpha  90.000861
_cell_angle_beta   89.99848
_cell_angle_gamma 91.294927
loop_
_atom_site_label
_atom_site_type_symbol
_atom_site_fract_x
_atom_site_fract_y
_atom_site_fract_z
_atom_type_partial_charge
C0 C 0.31999 0.40765 0.53333 0.0
C1 C 0.2592 0.38323 0.55275 0.0
C2 C 0.2085 0.3494 0.53589 0.0
C3 C 0.21623 0.34145 0.49984 0.0
H4 H 0.26226 0.23738 0.38785 0.0
H5 H 0.19856 0.17448 0.35187 0.0
H6 H 0.02574 0.27399 0.31042 0.0
H7 H 0.0921 0.33724 0.34512 0.0
H8 H 0.23226 0.44519 0.3299 0.0
H9 H 0.29143 0.50945 0.29545 0.0
H10 H 0.50853 0.51189 0.36106 0.0
H11 H 0.44694 0.44893 0.39683 0.0
H12 H 0.37255 0.42101 0.48277 0.0
H13 H 0.35904 0.43433 0.54576 0.0
H14 H 0.16048 0.33062 0.55036 0.0
H15 H 0.17396 0.31645 0.48741 0.0
N16 N 0.23184 0.3296 0.42389 0.0
N17 N 0.25677 0.36723 0.36998 0.0
N18 N 0.30733 0.40146 0.42185 0.0
C19 C 0.22412 0.3304 0.3884 0.0
C20 C 0.29932 0.40253 0.38647 0.0
C21 C 0.27285 0.36545 0.44087 0.0
C22 C 0.18109 0.29174 0.36949 0.0
C23 C 0.21013 0.2455 0.3713 0.0
C24 C 0.17415 0.20976 0.35061 0.0
C25 C 0.10699 0.21949 0.32865 0.0
C26 C 0.07691 0.26558 0.32743 0.0
C27 C 0.11469 0.30161 0.34721 0.0
C28 C 0.33526 0.44203 0.36592 0.0
C29 C 0.29268 0.45951 0.3369 0.0
C30 C 0.32692 0.49626 0.3169 0.0
C31 C 0.40552 0.51553 0.32464 0.0
C32 C 0.4479 0.49801 0.35399 0.0
C33 C 0.4127 0.46198 0.37461 0.0
C34 C 0.27385 0.36789 0.47982 0.0
C35 C 0.32716 0.40018 0.49723 0.0
C36 C 0.18782 0.0756 0.03333 0.0
C37 C 0.24862 0.10002 0.05275 0.0
C38 C 0.29933 0.13384 0.03589 0.0
C39 C 0.29159 0.1418 0.99984 0.0
H40 H 0.24551 0.24588 0.88785 0.0
H41 H 0.3092 0.30878 0.85186 0.0
H42 H 0.48208 0.20928 0.81043 0.0
H43 H 0.41573 0.14603 0.84514 0.0
H44 H 0.27544 0.03817 0.82983 0.0
H45 H 0.21627 0.97392 0.79538 0.0
H46 H 0.9994 0.97126 0.86113 0.0
H47 H 0.06098 0.03423 0.8969 0.0
H48 H 0.13526 0.06225 0.98278 0.0
H49 H 0.14877 0.04892 0.04576 0.0
H50 H 0.34735 0.15263 0.05036 0.0
H51 H 0.33387 0.1668 0.98741 0.0
N52 N 0.27597 0.15366 0.92389 0.0
N53 N 0.25103 0.11603 0.86998 0.0
N54 N 0.20049 0.08179 0.92185 0.0
C55 C 0.28368 0.15287 0.88841 0.0
C56 C 0.2085 0.08072 0.88647 0.0
C57 C 0.23496 0.1178 0.94088 0.0
C58 C 0.32671 0.19152 0.8695 0.0
C59 C 0.29765 0.23776 0.8713 0.0
C60 C 0.33363 0.2735 0.85061 0.0
C61 C 0.4008 0.26378 0.82866 0.0
C62 C 0.4309 0.21769 0.82744 0.0
C63 C 0.39313 0.18166 0.84722 0.0
C64 C 0.17256 0.04123 0.86592 0.0
C65 C 0.21507 0.0238 0.83686 0.0
C66 C 0.18083 0.98705 0.81686 0.0
C67 C 0.10229 0.96773 0.82465 0.0
C68 C 0.05998 0.98519 0.85403 0.0
C69 C 0.09518 0.02122 0.87465 0.0
C70 C 0.23397 0.11536 0.97983 0.0
C71 C 0.18065 0.08308 0.99723 0.0
C72 C 0.81299 0.12359 0.50448 0.0
C73 C 0.84023 0.1689 0.49336 0.0
C74 C 0.86247 0.2025 0.51905 0.0
C75 C 0.85307 0.19221 0.55453 0.0
H76 H 0.69568 0.25273 0.63261 0.0
H77 H 0.62212 0.31159 0.66648 0.0
H78 H 0.63229 0.22195 0.75775 0.0
H79 H 0.7064 0.16355 0.72448 0.0
H80 H 0.77503 0.06781 0.72125 0.0
H81 H 0.82797 0.00243 0.7549 0.0
H82 H 0.96194 0.95555 0.66378 0.0
H83 H 0.90947 0.02112 0.63021 0.0
H84 H 0.78279 0.07827 0.54799 0.0
H85 H 0.79402 0.09677 0.48579 0.0
H86 H 0.88645 0.23716 0.51191 0.0
H87 H 0.86811 0.21941 0.57359 0.0
N88 N 0.76777 0.17337 0.62119 0.0
N89 N 0.77229 0.12654 0.67141 0.0
N90 N 0.82771 0.09848 0.61889 0.0
C91 C 0.75012 0.16701 0.65555 0.0
C92 C 0.81117 0.09221 0.65359 0.0
C93 C 0.80611 0.13926 0.60269 0.0
C94 C 0.70704 0.2034 0.67579 0.0
C95 C 0.68265 0.24566 0.65993 0.0
C96 C 0.64045 0.27931 0.67925 0.0
C97 C 0.62226 0.2713 0.7147 0.0
C98 C 0.64669 0.22925 0.73056 0.0
C99 C 0.68883 0.1957 0.71136 0.0
C100 C 0.83842 0.04997 0.67293 0.0
C101 C 0.81564 0.04349 0.70826 0.0
C102 C 0.84603 0.00594 0.72771 0.0
C103 C 0.8998 0.97388 0.71231 0.0
C104 C 0.92099 0.9797 0.67673 0.0
C105 C 0.89062 0.01726 0.65727 0.0
C106 C 0.82401 0.14755 0.56538 0.0
C107 C 0.80606 0.11286 0.54017 0.0
C108 C 0.69482 0.35965 1.00448 0.0
C109 C 0.66751 0.31435 0.99336 0.0
C110 C 0.64524 0.28076 0.01905 0.0
C111 C 0.65468 0.29106 0.05453 0.0
H112 H 0.81215 0.23053 0.1326 0.0
H113 H 0.8857 0.17167 0.16647 0.0
H114 H 0.8755 0.26131 0.25774 0.0
H115 H 0.80141 0.31972 0.22448 0.0
H116 H 0.7328 0.41546 0.22124 0.0
H117 H 0.67985 0.48084 0.25489 0.0
H118 H 0.5459 0.52772 0.16377 0.0
H119 H 0.59837 0.46215 0.1302 0.0
H120 H 0.7251 0.40497 0.04798 0.0
H121 H 0.71382 0.38646 0.98579 0.0
H122 H 0.62121 0.24611 1.01192 0.0
H123 H 0.63961 0.26387 0.0736 0.0
N124 N 0.74005 0.30989 0.12119 0.0
N125 N 0.73554 0.35673 0.17141 0.0
N126 N 0.68012 0.38478 0.11889 0.0
C127 C 0.7577 0.31625 0.15555 0.0
C128 C 0.69666 0.39106 0.15359 0.0
C129 C 0.70171 0.34399 0.10269 0.0
C130 C 0.80079 0.27986 0.17579 0.0
C131 C 0.82518 0.2376 0.15993 0.0
C132 C 0.86738 0.20396 0.17924 0.0
C133 C 0.88555 0.21197 0.21469 0.0
C134 C 0.86112 0.25402 0.23056 0.0
C135 C 0.81899 0.28756 0.21136 0.0
C136 C 0.66942 0.4333 0.17292 0.0
C137 C 0.6922 0.43978 0.20825 0.0
C138 C 0.6618 0.47733 0.2277 0.0
C139 C 0.60803 0.50939 0.2123 0.0
C140 C 0.58685 0.50357 0.17672 0.0
C141 C 0.61722 0.466 0.15726 0.0
C142 C 0.6838 0.3357 0.06538 0.0
C143 C 0.70178 0.37038 0.04016 0.0
C144 C 0.6965 0.57454 0.50006 0.0
C145 C 0.74923 0.60559 0.48154 0.0
C146 C 0.78849 0.64305 0.49946 0.0
C147 C 0.7777 0.64844 0.53558 0.0
H148 H 0.74419 0.75022 0.64071 0.0
H149 H 0.81229 0.81311 0.67549 0.0
H150 H 0.95433 0.70857 0.72953 0.0
H151 H 0.88345 0.64582 0.69618 0.0
H152 H 0.65259 0.58285 0.71733 0.0
H153 H 0.59211 0.51924 0.752 0.0
H154 H 0.5892 0.42805 0.66155 0.0
H155 H 0.64647 0.49279 0.62594 0.0
H156 H 0.64733 0.55403 0.54999 0.0
H157 H 0.66655 0.54498 0.48679 0.0
H158 H 0.83027 0.66704 0.48571 0.0
H159 H 0.8111 0.67691 0.54868 0.0
N160 N 0.7627 0.65488 0.61108 0.0
N161 N 0.73115 0.61872 0.66481 0.0
N162 N 0.69091 0.58175 0.61241 0.0
C163 C 0.76565 0.65518 0.64663 0.0
C164 C 0.6929 0.58209 0.64803 0.0
C165 C 0.72566 0.61807 0.59368 0.0
C166 C 0.8092 0.69345 0.66575 0.0
C167 C 0.79019 0.74094 0.65996 0.0
C168 C 0.82865 0.77669 0.67988 0.0
C169 C 0.88866 0.76546 0.70491 0.0
C170 C 0.90869 0.71804 0.71017 0.0
C171 C 0.86818 0.68227 0.69119 0.0
C172 C 0.65512 0.54291 0.6688 0.0
C173 C 0.6394 0.54928 0.70467 0.0
C174 C 0.6055 0.51258 0.72478 0.0
C175 C 0.58821 0.46819 0.70988 0.0
C176 C 0.6024 0.46184 0.67388 0.0
C177 C 0.63526 0.49891 0.6535 0.0
C178 C 0.72834 0.61594 0.5547 0.0
C179 C 0.68618 0.5796 0.53629 0.0
C180 C 0.81125 0.90874 1.00005 0.0
C181 C 0.75852 0.87769 0.98154 0.0
C182 C 0.71925 0.84022 0.99946 0.0
C183 C 0.73005 0.83484 0.03558 0.0
H184 H 0.76361 0.73305 0.1407 0.0
H185 H 0.69551 0.67016 0.17549 0.0
H186 H 0.55346 0.77469 0.22954 0.0
H187 H 0.62433 0.83745 0.19618 0.0
H188 H 0.85521 0.90042 0.21732 0.0
H189 H 0.91569 0.96403 0.25199 0.0
H190 H 0.91857 0.05522 0.16155 0.0
H191 H 0.8613 0.99048 0.12594 0.0
H192 H 0.86043 0.92925 0.04998 0.0
H193 H 0.8412 0.93829 0.98679 0.0
H194 H 0.67747 0.81624 0.9857 0.0
H195 H 0.69665 0.80637 0.04867 0.0
N196 N 0.74508 0.82839 0.11108 0.0
N197 N 0.77663 0.86455 0.1648 0.0
N198 N 0.81686 0.90153 0.11241 0.0
C199 C 0.74213 0.82809 0.14662 0.0
C200 C 0.81488 0.90119 0.14803 0.0
C201 C 0.78211 0.8652 0.09368 0.0
C202 C 0.69859 0.78981 0.16574 0.0
C203 C 0.71761 0.74233 0.15996 0.0
C204 C 0.67915 0.70657 0.17988 0.0
C205 C 0.61914 0.7178 0.2049 0.0
C206 C 0.59911 0.76523 0.21017 0.0
C207 C 0.6396 0.80099 0.19119 0.0
C208 C 0.85267 0.94036 0.1688 0.0
C209 C 0.86839 0.93399 0.20467 0.0
C210 C 0.9023 0.97068 0.22477 0.0
C211 C 0.91958 0.01508 0.20987 0.0
C212 C 0.90538 0.02143 0.17388 0.0
C213 C 0.87251 0.98436 0.15349 0.0
C214 C 0.77941 0.86734 0.0547 0.0
C215 C 0.82158 0.90368 0.03629 0.0
C216 C 0.1166 0.8579 0.52296 0.0
C217 C 0.12431 0.81205 0.53658 0.0
C218 C 0.15832 0.77695 0.51546 0.0
C219 C 0.18358 0.78721 0.48139 0.0
H220 H 0.3098 0.72873 0.40111 0.0
H221 H 0.38162 0.66899 0.36712 0.0
H222 H 0.39832 0.76529 0.27965 0.0
H223 H 0.3259 0.82424 0.31276 0.0
H224 H 0.23806 0.91573 0.31277 0.0
H225 H 0.18935 0.98328 0.28014 0.0
H226 H 0.0655 0.03298 0.37296 0.0
H227 H 0.11348 0.96537 0.40549 0.0
H228 H 0.13428 0.90372 0.4788 0.0
H229 H 0.09041 0.88566 0.53868 0.0
H230 H 0.16637 0.74153 0.52543 0.0
H231 H 0.20935 0.75904 0.46596 0.0
N232 N 0.24381 0.80983 0.41301 0.0
N233 N 0.24629 0.85826 0.36352 0.0
N234 N 0.18095 0.88375 0.41465 0.0
C235 C 0.26675 0.8174 0.37935 0.0
C236 C 0.20361 0.89163 0.38077 0.0
C237 C 0.20113 0.84277 0.43093 0.0
C238 C 0.31151 0.78119 0.35959 0.0
C239 C 0.32846 0.73704 0.37456 0.0
C240 C 0.36943 0.70284 0.35519 0.0
C241 C 0.39358 0.71223 0.32059 0.0
C242 C 0.37799 0.75654 0.30592 0.0
C243 C 0.33709 0.79054 0.32509 0.0
C244 C 0.17901 0.93477 0.36181 0.0
C245 C 0.20077 0.94119 0.32636 0.0
C246 C 0.17299 0.98002 0.30753 0.0
C247 C 0.12295 0.01337 0.32371 0.0
C248 C 0.10353 0.0078 0.35946 0.0
C249 C 0.1311 0.96895 0.37826 0.0
C250 C 0.1751 0.83285 0.46744 0.0
C251 C 0.14139 0.86816 0.48863 0.0
C252 C 0.39116 0.62535 0.02296 0.0
C253 C 0.38345 0.6712 0.03658 0.0
C254 C 0.34944 0.70631 1.01547 0.0
C255 C 0.32418 0.69605 0.98139 0.0
H256 H 0.19801 0.75455 0.90111 0.0
H257 H 0.1262 0.81429 0.86712 0.0
H258 H 0.10945 0.71798 0.77965 0.0
H259 H 0.18186 0.65902 0.81277 0.0
H260 H 0.26972 0.56753 0.81277 0.0
H261 H 0.31843 0.49999 0.78013 0.0
H262 H 0.44226 0.45028 0.87296 0.0
H263 H 0.39429 0.5179 0.90549 0.0
H264 H 0.37347 0.57954 0.9788 0.0
H265 H 0.41734 0.59759 0.03868 0.0
H266 H 0.34138 0.74172 0.02544 0.0
H267 H 0.29841 0.72422 0.96596 0.0
N268 N 0.26396 0.67343 0.91301 0.0
N269 N 0.26149 0.625 0.86352 0.0
N270 N 0.32681 0.59951 0.91465 0.0
C271 C 0.24103 0.66587 0.87936 0.0
C272 C 0.30416 0.59163 0.88077 0.0
C273 C 0.30664 0.64049 0.93093 0.0
C274 C 0.19627 0.70207 0.85959 0.0
C275 C 0.17934 0.74623 0.87456 0.0
C276 C 0.13838 0.78043 0.85519 0.0
C277 C 0.11422 0.77104 0.8206 0.0
C278 C 0.12979 0.72672 0.80592 0.0
C279 C 0.17068 0.69272 0.8251 0.0
C280 C 0.32876 0.54849 0.86181 0.0
C281 C 0.30701 0.54208 0.82636 0.0
C282 C 0.33479 0.50325 0.80753 0.0
C283 C 0.38483 0.46989 0.82371 0.0
C284 C 0.40424 0.47546 0.85946 0.0
C285 C 0.37667 0.51431 0.87826 0.0
C286 C 0.33265 0.65041 0.96744 0.0
C287 C 0.36637 0.61509 0.98863 0.0
C288 C 0.74428 0.07898 0.26818 0.0
C289 C 0.7281 -0.00552 0.2775 0.0
C290 C 0.77405 0.03701 0.28132 0.0
C291 C 0.65426 -0.00581 0.25819 0.0
C292 C 0.66747 0.07934 0.25074 0.0
C293 C 0.62406 0.03655 0.24478 0.0
N294 N 0.78653 0.11987 0.27535 0.0
C295 C 0.75073 0.16236 0.26952 0.0
C296 C 0.63462 0.1229 0.24143 0.0
C297 C 0.67564 0.16462 0.25154 0.0
Gd298 Gd 0.10865 0.12458 0.23623 0.0
Gd299 Gd 0.91487 0.11156 0.30344 0.0
N300 N 0.84572 0.03833 0.29977 0.0
C301 C 0.75618 0.95394 0.29435 0.0
C302 C 0.87065 -0.00013 0.3182 0.0
C303 C 0.82688 0.95685 0.31537 0.0
H304 H 0.92543 0.00237 0.33434 0.0
H305 H 0.8478 0.926 0.32923 0.0
H306 H 0.04586 0.2219 0.19226 0.0
H307 H 0.77945 0.19462 0.27908 0.0
H308 H 0.07638 0.30734 0.19217 0.0
H309 H 0.72232 0.92068 0.29216 0.0
H310 H 0.61863 0.96171 0.25452 0.0
H311 H 0.26328 0.07462 0.27852 0.0
H312 H 0.57576 0.12472 0.22804 0.0
H313 H 0.64874 0.1985 0.2461 0.0
H314 H 0.31602 0.32461 0.26533 0.0
H315 H 0.56544 0.03608 0.23106 0.0
H316 H 0.43357 0.18372 0.31175 0.0
H317 H 0.39228 0.09908 0.30897 0.0
N318 N 0.23216 0.14471 0.26485 0.0
C319 C 0.25542 0.1911 0.26468 0.0
C320 C 0.28091 0.1116 0.27976 0.0
C321 C 0.37718 0.17316 0.2983 0.0
C322 C 0.35398 0.12534 0.29687 0.0
C323 C 0.32786 0.20674 0.282 0.0
H324 H 0.40374 0.26794 0.29589 0.0
N325 N 0.13706 0.20633 0.2304 0.0
C326 C 0.20562 0.22294 0.24748 0.0
C327 C 0.17876 0.30225 0.22787 0.0
C328 C 0.22767 0.27143 0.24706 0.0
C329 C 0.09358 0.23567 0.20928 0.0
C330 C 0.11233 0.28413 0.20838 0.0
O331 O 0.94376 0.05182 0.26604 0.0
O332 O 0.98979 0.09043 0.21704 0.0
O333 O 0.16211 0.13909 0.18496 0.0
O334 O 0.17994 0.0703 0.20986 0.0
O335 O 0.03453 0.07927 0.32011 0.0
O336 O 0.1078 0.05842 0.2701 0.0
O337 O 0.11609 0.14979 0.29271 0.0
O338 O 0.9887 0.18011 0.30268 0.0
O339 O 0.93925 0.10984 0.35947 0.0
O340 O 0.81715 0.12513 0.34047 0.0
O341 O 0.98467 0.15077 0.21813 0.0
O342 O 0.92402 0.17642 0.2691 0.0
C343 C 0.95192 0.05435 0.23192 0.0
C344 C 0.08751 0.05263 0.30348 0.0
C345 C 0.24051 0.08223 0.15171 0.0
C346 C 0.2681 0.08457 0.08877 0.0
C347 C 0.35068 0.03592 0.12699 0.0
C348 C 0.30471 0.05022 0.15586 0.0
C349 C 0.33266 0.053 0.09366 0.0
C350 C 0.22209 0.09937 0.11793 0.0
C351 C 0.19319 0.09728 0.18267 0.0
C352 C 0.29859 0.28743 0.26512 0.0
C353 C 0.34868 0.25515 0.28246 0.0
H354 H 0.19351 0.33976 0.22692 0.0
C355 C 0.06922 0.18197 0.30669 0.0
C356 C 0.93186 0.17722 0.23488 0.0
C357 C 0.85722 0.15962 0.39392 0.0
C358 C 0.84288 0.18184 0.4554 0.0
C359 C 0.83051 0.24082 0.40918 0.0
C360 C 0.84494 0.20655 0.38386 0.0
C361 C 0.82834 0.2286 0.44458 0.0
C362 C 0.85782 0.1476 0.42953 0.0
C363 C 0.86485 0.12219 0.36768 0.0
H364 H 0.40033 0.01136 0.13044 0.0
H365 H 0.31987 0.03659 0.1815 0.0
H366 H 0.36854 0.04112 0.07153 0.0
H367 H 0.17195 0.12364 0.11427 0.0
H368 H 0.81952 0.27687 0.40132 0.0
H369 H 0.84493 0.21645 0.35647 0.0
H370 H 0.81377 0.25584 0.4633 0.0
H371 H 0.8696 0.11139 0.43682 0.0
C372 C 0.76352 0.40428 0.76819 0.0
C373 C 0.7797 0.48878 0.77751 0.0
C374 C 0.73374 0.44625 0.78133 0.0
C375 C 0.85355 0.48906 0.75821 0.0
C376 C 0.84034 0.40391 0.75076 0.0
C377 C 0.88376 0.44671 0.7448 0.0
N378 N 0.72126 0.36339 0.77536 0.0
C379 C 0.75706 0.3209 0.76953 0.0
C380 C 0.87319 0.36035 0.74145 0.0
C381 C 0.83216 0.31863 0.75156 0.0
Gd382 Gd 0.39914 0.35868 0.73623 0.0
Gd383 Gd 0.59291 0.3717 0.80344 0.0
N384 N 0.66207 0.44493 0.79978 0.0
C385 C 0.75162 0.52932 0.79437 0.0
C386 C 0.63713 0.4834 0.81821 0.0
C387 C 0.68091 0.52641 0.81538 0.0
H388 H 0.58235 0.48089 0.83434 0.0
H389 H 0.65999 0.55726 0.82924 0.0
H390 H 0.46196 0.26136 0.69225 0.0
H391 H 0.72833 0.28864 0.77909 0.0
H392 H 0.43147 0.17592 0.69216 0.0
H393 H 0.78548 0.56258 0.79217 0.0
H394 H 0.88919 0.52154 0.75454 0.0
H395 H 0.2445 0.40863 0.77852 0.0
H396 H 0.93206 0.35853 0.72806 0.0
H397 H 0.85906 0.28475 0.74612 0.0
H398 H 0.19181 0.15863 0.76532 0.0
H399 H 0.94238 0.44717 0.73108 0.0
H400 H 0.07423 0.29951 0.81174 0.0
H401 H 0.1155 0.38416 0.80896 0.0
N402 N 0.27564 0.33854 0.76485 0.0
C403 C 0.25239 0.29215 0.76467 0.0
C404 C 0.22688 0.37164 0.77976 0.0
C405 C 0.13062 0.31008 0.7983 0.0
C406 C 0.15381 0.3579 0.79687 0.0
C407 C 0.17995 0.27651 0.782 0.0
H408 H 0.10408 0.2153 0.79588 0.0
N409 N 0.37076 0.27693 0.73039 0.0
C410 C 0.3022 0.26031 0.74748 0.0
C411 C 0.32908 0.18101 0.72786 0.0
C412 C 0.28016 0.21182 0.74705 0.0
C413 C 0.41425 0.24759 0.70928 0.0
C414 C 0.39551 0.19913 0.70837 0.0
O415 O 0.56404 0.43144 0.76605 0.0
O416 O 0.51801 0.39283 0.71704 0.0
O417 O 0.3457 0.34417 0.68496 0.0
O418 O 0.32785 0.41295 0.70986 0.0
O419 O 0.47324 0.40399 0.82011 0.0
O420 O 0.39999 0.42484 0.7701 0.0
O421 O 0.3917 0.33347 0.79271 0.0
O422 O 0.51909 0.30315 0.80267 0.0
O423 O 0.5685 0.37343 0.85948 0.0
O424 O 0.6906 0.35812 0.84048 0.0
O425 O 0.52314 0.3325 0.71813 0.0
O426 O 0.58377 0.30685 0.7691 0.0
C427 C 0.55587 0.42892 0.73192 0.0
C428 C 0.42027 0.43064 0.80348 0.0
C429 C 0.2673 0.40102 0.65171 0.0
C430 C 0.23971 0.39867 0.58877 0.0
C431 C 0.15712 0.44733 0.62699 0.0
C432 C 0.20309 0.43303 0.65585 0.0
C433 C 0.17515 0.43025 0.59366 0.0
C434 C 0.28572 0.38388 0.61792 0.0
C435 C 0.31461 0.38598 0.68267 0.0
C436 C 0.20924 0.19582 0.76511 0.0
C437 C 0.15914 0.22809 0.78245 0.0
H438 H 0.31434 0.1435 0.72691 0.0
C439 C 0.43857 0.3013 0.80669 0.0
C440 C 0.57594 0.30604 0.73488 0.0
C441 C 0.65048 0.32364 0.89393 0.0
C442 C 0.66481 0.30141 0.95541 0.0
C443 C 0.67705 0.24242 0.90918 0.0
C444 C 0.66267 0.2767 0.88386 0.0
C445 C 0.67926 0.25464 0.94458 0.0
C446 C 0.64992 0.33566 0.92954 0.0
C447 C 0.64289 0.36107 0.86768 0.0
H448 H 0.10747 0.47187 0.63044 0.0
H449 H 0.18793 0.44666 0.6815 0.0
H450 H 0.13927 0.44212 0.57153 0.0
H451 H 0.33586 0.35961 0.61427 0.0
H452 H 0.68797 0.20636 0.90132 0.0
H453 H 0.66264 0.2668 0.85647 0.0
H454 H 0.6938 0.22739 0.9633 0.0
H455 H 0.6382 0.37187 0.93682 0.0
C456 C 0.7437 0.79952 0.76512 0.0
C457 C 0.76439 0.71734 0.78009 0.0
C458 C 0.79086 0.76513 0.78121 0.0
C459 C 0.69189 0.70452 0.76186 0.0
C460 C 0.67035 0.78688 0.74721 0.0
C461 C 0.64496 0.73919 0.74553 0.0
N462 N 0.77125 0.84524 0.76596 0.0
C463 C 0.72712 0.88032 0.75092 0.0
C464 C 0.62512 0.82257 0.73122 0.0
C465 C 0.65346 0.8695 0.73323 0.0
Gd466 Gd 0.09426 0.86339 0.72967 0.0
Gd467 Gd 0.89454 0.8598 0.79618 0.0
N468 N 0.86201 0.77837 0.79806 0.0
C469 C 0.81103 0.68385 0.79773 0.0
C470 C 0.90348 0.74636 0.81768 0.0
C471 C 0.88005 0.69854 0.81709 0.0
H472 H 0.95267 0.75748 0.8349 0.0
H473 H 0.91427 0.67318 0.83215 0.0
H474 H 0.09306 0.97854 0.71202 0.0
H475 H 0.74897 0.91659 0.75255 0.0
H476 H 0.19146 0.04688 0.71219 0.0
H477 H 0.79267 0.64687 0.79755 0.0
H478 H 0.67119 0.6679 0.76049 0.0
H479 H 0.20551 0.76789 0.74698 0.0
H480 H 0.56826 0.8143 0.71732 0.0
H481 H 0.61866 0.89731 0.72112 0.0
H482 H 0.4475 0.98099 0.75023 0.0
H483 H 0.58902 0.72874 0.7317 0.0
H484 H 0.45263 0.81407 0.77136 0.0
H485 H 0.34785 0.74956 0.76521 0.0
N486 N 0.22767 0.84203 0.7463 0.0
C487 C 0.2849 0.87778 0.7482 0.0
C488 C 0.2498 0.79633 0.75129 0.0
C489 C 0.38977 0.82234 0.76425 0.0
C490 C 0.33075 0.78583 0.76091 0.0
C491 C 0.36757 0.86894 0.75729 0.0
H492 H 0.48922 0.90054 0.76564 0.0
N493 N 0.18117 0.93048 0.73116 0.0
C494 C 0.26139 0.92317 0.73967 0.0
C495 C 0.29387 0.00594 0.73018 0.0
C496 C 0.31984 0.96087 0.73982 0.0
C497 C 0.15619 0.97378 0.7202 0.0
C498 C 0.2118 0.01233 0.72011 0.0
O499 O 0.88761 0.83707 0.73902 0.0
O500 O 0.00928 0.79959 0.73272 0.0
O501 O 0.06427 0.87757 0.67549 0.0
O502 O 0.16899 0.83442 0.68807 0.0
O503 O 0.01643 0.83274 0.81619 0.0
O504 O 0.07034 0.8024 0.76587 0.0
O505 O 0.10544 0.91569 0.77458 0.0
O506 O 0.9913 0.91333 0.81216 0.0
O507 O 0.85816 0.8444 0.85013 0.0
O508 O 0.80282 0.90311 0.8219 0.0
O509 O 0.98342 0.90609 0.71587 0.0
O510 O 0.90885 0.92767 0.76536 0.0
C511 C 0.93056 0.80286 0.72554 0.0
C512 C 0.07016 0.80637 0.8 0.0
C513 C 0.09946 0.81903 0.63508 0.0
C514 C 0.09835 0.80062 0.57286 0.0
C515 C 0.03333 0.74654 0.61462 0.0
C516 C 0.05661 0.77651 0.64205 0.0
C517 C 0.05415 0.75838 0.58019 0.0
C518 C 0.12006 0.83105 0.60057 0.0
C519 C 0.12301 0.85146 0.66337 0.0
C520 C 0.40184 0.95241 0.74962 0.0
C521 C 0.42559 0.90659 0.75844 0.0
H522 H 0.33674 0.0359 0.73014 0.0
C523 C 0.06443 0.92984 0.80243 0.0
C524 C 0.93423 0.93454 0.73282 0.0
C525 C 0.75677 0.89025 0.88205 0.0
C526 C 0.73333 0.88896 0.94531 0.0
C527 C 0.63238 0.92354 0.90653 0.0
C528 C 0.68147 0.91319 0.87765 0.0
C529 C 0.65795 0.91144 0.94014 0.0
C530 C 0.78285 0.87821 0.91615 0.0
C531 C 0.80696 0.87914 0.85091 0.0
H532 H 0.99959 0.71391 0.62007 0.0
H533 H 0.04175 0.76644 0.66861 0.0
H534 H 0.03569 0.73454 0.5593 0.0
H535 H 0.15462 0.86358 0.59543 0.0
H536 H 0.57423 0.94103 0.90285 0.0
H537 H 0.66008 0.92273 0.85178 0.0
H538 H 0.61909 0.91994 0.96226 0.0
H539 H 0.84112 0.86081 0.92002 0.0
C540 C 0.7641 0.68374 0.26512 0.0
C541 C 0.7434 0.76593 0.2801 0.0
C542 C 0.71693 0.71813 0.28121 0.0
C543 C 0.8159 0.77875 0.26186 0.0
C544 C 0.83745 0.69639 0.24721 0.0
C545 C 0.86284 0.74409 0.24553 0.0
N546 N 0.73655 0.63803 0.26596 0.0
C547 C 0.7807 0.60295 0.25092 0.0
C548 C 0.88269 0.6607 0.23122 0.0
C549 C 0.85435 0.61377 0.23323 0.0
Gd550 Gd 0.41355 0.61987 0.22968 0.0
Gd551 Gd 0.61326 0.62346 0.29617 0.0
N552 N 0.64579 0.7049 0.29806 0.0
C553 C 0.69676 0.79941 0.29774 0.0
C554 C 0.60431 0.73691 0.31768 0.0
C555 C 0.62774 0.78472 0.3171 0.0
H556 H 0.55512 0.72578 0.3349 0.0
H557 H 0.59351 0.81008 0.33216 0.0
H558 H 0.41482 0.5047 0.21206 0.0
H559 H 0.75884 0.56668 0.25255 0.0
H560 H 0.31647 0.43634 0.21225 0.0
H561 H 0.71511 0.83639 0.29756 0.0
H562 H 0.83659 0.81537 0.2605 0.0
H563 H 0.30225 0.71535 0.24699 0.0
H564 H 0.93955 0.66898 0.21732 0.0
H565 H 0.88916 0.58596 0.22112 0.0
H566 H 0.06037 0.50221 0.25024 0.0
H567 H 0.91877 0.75453 0.2317 0.0
H568 H 0.05514 0.66913 0.27136 0.0
H569 H 0.15989 0.73366 0.26521 0.0
N570 N 0.28012 0.64121 0.2463 0.0
C571 C 0.22291 0.60545 0.24819 0.0
C572 C 0.25796 0.6869 0.25129 0.0
C573 C 0.118 0.66087 0.26425 0.0
C574 C 0.17701 0.69738 0.26091 0.0
C575 C 0.14023 0.61428 0.25729 0.0
H576 H 0.0186 0.58265 0.26564 0.0
N577 N 0.32668 0.55276 0.23118 0.0
C578 C 0.24645 0.56006 0.23967 0.0
C579 C 0.21403 0.47728 0.23021 0.0
C580 C 0.18802 0.52235 0.23983 0.0
C581 C 0.35169 0.50946 0.22023 0.0
C582 C 0.29611 0.4709 0.22015 0.0
O583 O 0.6202 0.6462 0.23902 0.0
O584 O 0.49852 0.68367 0.23272 0.0
O585 O 0.44351 0.60568 0.17549 0.0
O586 O 0.33881 0.64884 0.18807 0.0
O587 O 0.49136 0.65052 0.31619 0.0
O588 O 0.43745 0.68087 0.26586 0.0
O589 O 0.40233 0.5676 0.2746 0.0
O590 O 0.51655 0.56989 0.31213 0.0
O591 O 0.64958 0.63885 0.35014 0.0
O592 O 0.70501 0.58018 0.3219 0.0
O593 O 0.52439 0.57718 0.21587 0.0
O594 O 0.59896 0.55559 0.26536 0.0
C595 C 0.57724 0.6804 0.22554 0.0
C596 C 0.43764 0.67689 0.3 0.0
C597 C 0.40832 0.66422 0.13509 0.0
C598 C 0.40941 0.68263 0.07287 0.0
C599 C 0.47445 0.73671 0.11462 0.0
C600 C 0.45118 0.70674 0.14205 0.0
C601 C 0.45362 0.72487 0.08019 0.0
C602 C 0.38771 0.6522 0.10057 0.0
C603 C 0.38477 0.63179 0.16337 0.0
C604 C 0.10601 0.5308 0.24963 0.0
C605 C 0.08223 0.57661 0.25843 0.0
H606 H 0.17117 0.44731 0.23018 0.0
C607 C 0.44339 0.55342 0.30243 0.0
C608 C 0.5736 0.54873 0.23282 0.0
C609 C 0.751 0.59302 0.38205 0.0
C610 C 0.77442 0.59432 0.44531 0.0
C611 C 0.87539 0.55974 0.40654 0.0
C612 C 0.82631 0.57009 0.37765 0.0
C613 C 0.84981 0.57184 0.44015 0.0
C614 C 0.72492 0.60507 0.41615 0.0
C615 C 0.70082 0.60413 0.35091 0.0
H616 H 0.5082 0.76934 0.12007 0.0
H617 H 0.46605 0.7168 0.16862 0.0
H618 H 0.47207 0.74871 0.0593 0.0
H619 H 0.35314 0.61967 0.09544 0.0
H620 H 0.93354 0.54225 0.40286 0.0
H621 H 0.8477 0.56055 0.35179 0.0
H622 H 0.88866 0.56333 0.46226 0.0
H623 H 0.66664 0.62247 0.42002 0.0
loop_
_geom_bond_atom_site_label_1
_geom_bond_atom_site_label_2
_geom_bond_distance
_geom_bond_site_symmetry_2
_ccdc_geom_bond_type
C0 C1 1.384 . S
C0 H13 0.947 . S
C0 C35 1.382 . S
C1 C0 1.384 . S
C1 C2 1.378 . S
C2 C1 1.378 . S
C2 C3 1.378 . S
C2 H14 0.952 . S
C3 C2 1.378 . S
C3 H15 0.950 . S
C3 C34 1.383 . S
H4 C23 0.947 . S
H5 C24 0.946 . S
H6 C26 0.953 . S
H7 C27 0.945 . S
H8 C29 0.952 . S
H9 C30 0.949 . S
H10 C32 0.950 . S
H11 C33 0.948 . S
H12 C35 0.951 . S
H13 C0 0.947 . S
H14 C2 0.952 . S
H15 C3 0.950 . S
N16 C19 1.382 . S
N16 C21 1.363 . S
N17 C19 1.371 . S
N17 C20 1.372 . S
N18 C20 1.361 . S
N18 C21 1.377 . S
C19 N16 1.382 . S
C19 N17 1.371 . S
C19 C22 1.480 . S
C20 N17 1.372 . S
C20 N18 1.361 . S
C20 C28 1.457 . S
C21 N16 1.363 . S
C21 N18 1.377 . S
C21 C34 1.479 . S
C22 C19 1.480 . S
C22 C23 1.383 . S
C22 C27 1.385 . S
C23 H4 0.947 . S
C23 C22 1.383 . S
C23 C24 1.388 . S
C24 H5 0.946 . S
C24 C23 1.388 . S
C24 C25 1.384 . S
C25 C24 1.384 . S
C25 C26 1.377 . S
C26 H6 0.953 . S
C26 C25 1.377 . S
C26 C27 1.369 . S
C27 H7 0.945 . S
C27 C22 1.385 . S
C27 C26 1.369 . S
C28 C20 1.457 . S
C28 C29 1.372 . S
C28 C33 1.364 . S
C29 H8 0.952 . S
C29 C28 1.372 . S
C29 C30 1.389 . S
C30 H9 0.949 . S
C30 C29 1.389 . S
C30 C31 1.387 . S
C31 C30 1.387 . S
C31 C32 1.372 . S
C32 H10 0.950 . S
C32 C31 1.372 . S
C32 C33 1.379 . S
C33 H11 0.948 . S
C33 C28 1.364 . S
C33 C32 1.379 . S
C34 C3 1.383 . S
C34 C21 1.479 . S
C34 C35 1.398 . S
C35 C0 1.382 . S
C35 H12 0.951 . S
C35 C34 1.398 . S
C36 C37 1.384 . S
C36 H49 0.947 . S
C36 C71 1.382 1_554 S
C37 C36 1.384 . S
C37 C38 1.378 . S
C38 C37 1.378 . S
C38 C39 1.378 1_554 S
C38 H50 0.952 . S
C39 C38 1.378 1_556 S
C39 H51 0.950 . S
C39 C70 1.383 . S
H40 C59 0.947 . S
H41 C60 0.946 . S
H42 C62 0.953 . S
H43 C63 0.945 . S
H44 C65 0.952 . S
H45 C66 0.949 . S
H46 C68 0.950 . S
H47 C69 0.948 . S
H48 C71 0.951 . S
H49 C36 0.947 . S
H50 C38 0.952 . S
H51 C39 0.950 . S
N52 C55 1.382 . S
N52 C57 1.363 . S
N53 C55 1.371 . S
N53 C56 1.372 . S
N54 C56 1.361 . S
N54 C57 1.377 . S
C55 N52 1.382 . S
C55 N53 1.371 . S
C55 C58 1.480 . S
C56 N53 1.372 . S
C56 N54 1.361 . S
C56 C64 1.457 . S
C57 N52 1.363 . S
C57 N54 1.377 . S
C57 C70 1.479 . S
C58 C55 1.480 . S
C58 C59 1.383 . S
C58 C63 1.385 . S
C59 H40 0.947 . S
C59 C58 1.383 . S
C59 C60 1.388 . S
C60 H41 0.946 . S
C60 C59 1.388 . S
C60 C61 1.384 . S
C61 C60 1.384 . S
C61 C62 1.377 . S
C62 H42 0.953 . S
C62 C61 1.377 . S
C62 C63 1.369 . S
C63 H43 0.945 . S
C63 C58 1.385 . S
C63 C62 1.369 . S
C64 C56 1.457 . S
C64 C65 1.372 . S
C64 C69 1.364 . S
C65 H44 0.952 . S
C65 C64 1.372 . S
C65 C66 1.389 1_545 S
C66 H45 0.949 . S
C66 C65 1.389 1_565 S
C66 C67 1.387 . S
C67 C66 1.387 . S
C67 C68 1.372 . S
C68 H46 0.950 . S
C68 C67 1.372 . S
C68 C69 1.379 1_565 S
C69 H47 0.948 . S
C69 C64 1.364 . S
C69 C68 1.379 1_545 S
C70 C39 1.383 . S
C70 C57 1.479 . S
C70 C71 1.398 . S
C71 C36 1.382 1_556 S
C71 H48 0.951 . S
C71 C70 1.398 . S
C72 C73 1.384 . S
C72 H85 0.947 . S
C72 C107 1.382 . S
C73 C72 1.384 . S
C73 C74 1.378 . S
C74 C73 1.378 . S
C74 C75 1.378 . S
C74 H86 0.952 . S
C75 C74 1.378 . S
C75 H87 0.950 . S
C75 C106 1.383 . S
H76 C95 0.947 . S
H77 C96 0.946 . S
H78 C98 0.953 . S
H79 C99 0.945 . S
H80 C101 0.952 . S
H81 C102 0.949 . S
H82 C104 0.950 . S
H83 C105 0.948 . S
H84 C107 0.951 . S
H85 C72 0.947 . S
H86 C74 0.952 . S
H87 C75 0.950 . S
N88 C91 1.382 . S
N88 C93 1.363 . S
N89 C91 1.371 . S
N89 C92 1.372 . S
N90 C92 1.361 . S
N90 C93 1.377 . S
C91 N88 1.382 . S
C91 N89 1.371 . S
C91 C94 1.480 . S
C92 N89 1.372 . S
C92 N90 1.361 . S
C92 C100 1.457 . S
C93 N88 1.363 . S
C93 N90 1.377 . S
C93 C106 1.479 . S
C94 C91 1.480 . S
C94 C95 1.383 . S
C94 C99 1.385 . S
C95 H76 0.947 . S
C95 C94 1.383 . S
C95 C96 1.388 . S
C96 H77 0.946 . S
C96 C95 1.388 . S
C96 C97 1.384 . S
C97 C96 1.384 . S
C97 C98 1.377 . S
C98 H78 0.953 . S
C98 C97 1.377 . S
C98 C99 1.369 . S
C99 H79 0.945 . S
C99 C94 1.385 . S
C99 C98 1.369 . S
C100 C92 1.457 . S
C100 C101 1.372 . S
C100 C105 1.364 . S
C101 H80 0.952 . S
C101 C100 1.372 . S
C101 C102 1.389 1_545 S
C102 H81 0.949 . S
C102 C101 1.389 1_565 S
C102 C103 1.387 . S
C103 C102 1.387 . S
C103 C104 1.372 . S
C104 H82 0.950 . S
C104 C103 1.372 . S
C104 C105 1.379 1_565 S
C105 H83 0.948 . S
C105 C100 1.364 . S
C105 C104 1.379 1_545 S
C106 C75 1.383 . S
C106 C93 1.479 . S
C106 C107 1.398 . S
C107 C72 1.382 . S
C107 H84 0.951 . S
C107 C106 1.398 . S
C108 C109 1.384 . S
C108 H121 0.947 . S
C108 C143 1.382 1_556 S
C109 C108 1.384 . S
C109 C110 1.378 . S
C110 C109 1.378 . S
C110 C111 1.378 1_556 S
C110 H122 0.952 . S
C111 C110 1.378 1_554 S
C111 H123 0.950 . S
C111 C142 1.383 . S
H112 C131 0.947 . S
H113 C132 0.946 . S
H114 C134 0.953 . S
H115 C135 0.945 . S
H116 C137 0.952 . S
H117 C138 0.949 . S
H118 C140 0.950 . S
H119 C141 0.948 . S
H120 C143 0.951 . S
H121 C108 0.947 . S
H122 C110 0.952 . S
H123 C111 0.950 . S
N124 C127 1.382 . S
N124 C129 1.363 . S
N125 C127 1.371 . S
N125 C128 1.372 . S
N126 C128 1.361 . S
N126 C129 1.377 . S
C127 N124 1.382 . S
C127 N125 1.371 . S
C127 C130 1.480 . S
C128 N125 1.372 . S
C128 N126 1.361 . S
C128 C136 1.457 . S
C129 N124 1.363 . S
C129 N126 1.377 . S
C129 C142 1.479 . S
C130 C127 1.480 . S
C130 C131 1.383 . S
C130 C135 1.385 . S
C131 H112 0.947 . S
C131 C130 1.383 . S
C131 C132 1.388 . S
C132 H113 0.946 . S
C132 C131 1.388 . S
C132 C133 1.384 . S
C133 C132 1.384 . S
C133 C134 1.377 . S
C134 H114 0.953 . S
C134 C133 1.377 . S
C134 C135 1.369 . S
C135 H115 0.945 . S
C135 C130 1.385 . S
C135 C134 1.369 . S
C136 C128 1.457 . S
C136 C137 1.372 . S
C136 C141 1.364 . S
C137 H116 0.952 . S
C137 C136 1.372 . S
C137 C138 1.389 . S
C138 H117 0.949 . S
C138 C137 1.389 . S
C138 C139 1.387 . S
C139 C138 1.387 . S
C139 C140 1.372 . S
C140 H118 0.950 . S
C140 C139 1.372 . S
C140 C141 1.379 . S
C141 H119 0.948 . S
C141 C136 1.364 . S
C141 C140 1.379 . S
C142 C111 1.383 . S
C142 C129 1.479 . S
C142 C143 1.398 . S
C143 C108 1.382 1_554 S
C143 H120 0.951 . S
C143 C142 1.398 . S
C144 C145 1.384 . S
C144 H157 0.947 . S
C144 C179 1.382 . S
C145 C144 1.384 . S
C145 C146 1.378 . S
C146 C145 1.378 . S
C146 C147 1.378 . S
C146 H158 0.952 . S
C147 C146 1.378 . S
C147 H159 0.950 . S
C147 C178 1.383 . S
H148 C167 0.947 . S
H149 C168 0.946 . S
H150 C170 0.953 . S
H151 C171 0.945 . S
H152 C173 0.952 . S
H153 C174 0.949 . S
H154 C176 0.950 . S
H155 C177 0.948 . S
H156 C179 0.951 . S
H157 C144 0.947 . S
H158 C146 0.952 . S
H159 C147 0.950 . S
N160 C163 1.382 . S
N160 C165 1.363 . S
N161 C163 1.371 . S
N161 C164 1.372 . S
N162 C164 1.361 . S
N162 C165 1.377 . S
C163 N160 1.382 . S
C163 N161 1.371 . S
C163 C166 1.480 . S
C164 N161 1.372 . S
C164 N162 1.361 . S
C164 C172 1.457 . S
C165 N160 1.363 . S
C165 N162 1.377 . S
C165 C178 1.479 . S
C166 C163 1.480 . S
C166 C167 1.383 . S
C166 C171 1.385 . S
C167 H148 0.947 . S
C167 C166 1.383 . S
C167 C168 1.388 . S
C168 H149 0.946 . S
C168 C167 1.388 . S
C168 C169 1.384 . S
C169 C168 1.384 . S
C169 C170 1.377 . S
C170 H150 0.953 . S
C170 C169 1.377 . S
C170 C171 1.369 . S
C171 H151 0.945 . S
C171 C166 1.385 . S
C171 C170 1.369 . S
C172 C164 1.457 . S
C172 C173 1.372 . S
C172 C177 1.364 . S
C173 H152 0.952 . S
C173 C172 1.372 . S
C173 C174 1.389 . S
C174 H153 0.949 . S
C174 C173 1.389 . S
C174 C175 1.387 . S
C175 C174 1.387 . S
C175 C176 1.372 . S
C176 H154 0.950 . S
C176 C175 1.372 . S
C176 C177 1.379 . S
C177 H155 0.948 . S
C177 C172 1.364 . S
C177 C176 1.379 . S
C178 C147 1.383 . S
C178 C165 1.479 . S
C178 C179 1.398 . S
C179 C144 1.382 . S
C179 H156 0.951 . S
C179 C178 1.398 . S
C180 C181 1.384 . S
C180 H193 0.947 . S
C180 C215 1.382 1_556 S
C181 C180 1.384 . S
C181 C182 1.378 . S
C182 C181 1.378 . S
C182 C183 1.378 1_556 S
C182 H194 0.952 . S
C183 C182 1.378 1_554 S
C183 H195 0.950 . S
C183 C214 1.383 . S
H184 C203 0.947 . S
H185 C204 0.946 . S
H186 C206 0.953 . S
H187 C207 0.945 . S
H188 C209 0.952 . S
H189 C210 0.949 . S
H190 C212 0.950 . S
H191 C213 0.948 . S
H192 C215 0.951 . S
H193 C180 0.947 . S
H194 C182 0.952 . S
H195 C183 0.950 . S
N196 C199 1.382 . S
N196 C201 1.363 . S
N197 C199 1.371 . S
N197 C200 1.372 . S
N198 C200 1.361 . S
N198 C201 1.377 . S
C199 N196 1.382 . S
C199 N197 1.371 . S
C199 C202 1.480 . S
C200 N197 1.372 . S
C200 N198 1.361 . S
C200 C208 1.457 . S
C201 N196 1.363 . S
C201 N198 1.377 . S
C201 C214 1.479 . S
C202 C199 1.480 . S
C202 C203 1.383 . S
C202 C207 1.385 . S
C203 H184 0.947 . S
C203 C202 1.383 . S
C203 C204 1.388 . S
C204 H185 0.946 . S
C204 C203 1.388 . S
C204 C205 1.384 . S
C205 C204 1.384 . S
C205 C206 1.377 . S
C206 H186 0.953 . S
C206 C205 1.377 . S
C206 C207 1.369 . S
C207 H187 0.945 . S
C207 C202 1.385 . S
C207 C206 1.369 . S
C208 C200 1.457 . S
C208 C209 1.372 . S
C208 C213 1.364 1_565 S
C209 H188 0.952 . S
C209 C208 1.372 . S
C209 C210 1.389 1_565 S
C210 H189 0.949 . S
C210 C209 1.389 1_545 S
C210 C211 1.387 . S
C211 C210 1.387 . S
C211 C212 1.372 . S
C212 H190 0.950 . S
C212 C211 1.372 . S
C212 C213 1.379 . S
C213 H191 0.948 . S
C213 C208 1.364 1_545 S
C213 C212 1.379 . S
C214 C183 1.383 . S
C214 C201 1.479 . S
C214 C215 1.398 . S
C215 C180 1.382 1_554 S
C215 H192 0.951 . S
C215 C214 1.398 . S
C216 C217 1.384 . S
C216 H229 0.947 . S
C216 C251 1.382 . S
C217 C216 1.384 . S
C217 C218 1.378 . S
C218 C217 1.378 . S
C218 C219 1.378 . S
C218 H230 0.952 . S
C219 C218 1.378 . S
C219 H231 0.950 . S
C219 C250 1.383 . S
H220 C239 0.947 . S
H221 C240 0.946 . S
H222 C242 0.953 . S
H223 C243 0.945 . S
H224 C245 0.952 . S
H225 C246 0.949 . S
H226 C248 0.950 . S
H227 C249 0.948 . S
H228 C251 0.951 . S
H229 C216 0.947 . S
H230 C218 0.952 . S
H231 C219 0.950 . S
N232 C235 1.382 . S
N232 C237 1.363 . S
N233 C235 1.371 . S
N233 C236 1.372 . S
N234 C236 1.361 . S
N234 C237 1.377 . S
C235 N232 1.382 . S
C235 N233 1.371 . S
C235 C238 1.480 . S
C236 N233 1.372 . S
C236 N234 1.361 . S
C236 C244 1.457 . S
C237 N232 1.363 . S
C237 N234 1.377 . S
C237 C250 1.479 . S
C238 C235 1.480 . S
C238 C239 1.383 . S
C238 C243 1.385 . S
C239 H220 0.947 . S
C239 C238 1.383 . S
C239 C240 1.388 . S
C240 H221 0.946 . S
C240 C239 1.388 . S
C240 C241 1.384 . S
C241 C240 1.384 . S
C241 C242 1.377 . S
C242 H222 0.953 . S
C242 C241 1.377 . S
C242 C243 1.369 . S
C243 H223 0.945 . S
C243 C238 1.385 . S
C243 C242 1.369 . S
C244 C236 1.457 . S
C244 C245 1.372 . S
C244 C249 1.364 1_565 S
C245 H224 0.952 . S
C245 C244 1.372 . S
C245 C246 1.389 1_565 S
C246 H225 0.949 . S
C246 C245 1.389 1_545 S
C246 C247 1.387 . S
C247 C246 1.387 . S
C247 C248 1.372 . S
C248 H226 0.950 . S
C248 C247 1.372 . S
C248 C249 1.379 . S
C249 H227 0.948 . S
C249 C244 1.364 1_545 S
C249 C248 1.379 . S
C250 C219 1.383 . S
C250 C237 1.479 . S
C250 C251 1.398 . S
C251 C216 1.382 . S
C251 H228 0.951 . S
C251 C250 1.398 . S
C252 C253 1.384 . S
C252 H265 0.947 . S
C252 C287 1.382 1_554 S
C253 C252 1.384 . S
C253 C254 1.378 . S
C254 C253 1.378 . S
C254 C255 1.378 1_554 S
C254 H266 0.952 . S
C255 C254 1.378 1_556 S
C255 H267 0.950 . S
C255 C286 1.383 . S
H256 C275 0.947 . S
H257 C276 0.946 . S
H258 C278 0.953 . S
H259 C279 0.945 . S
H260 C281 0.952 . S
H261 C282 0.949 . S
H262 C284 0.950 . S
H263 C285 0.948 . S
H264 C287 0.951 . S
H265 C252 0.947 . S
H266 C254 0.952 . S
H267 C255 0.950 . S
N268 C271 1.382 . S
N268 C273 1.363 . S
N269 C271 1.371 . S
N269 C272 1.372 . S
N270 C272 1.361 . S
N270 C273 1.377 . S
C271 N268 1.382 . S
C271 N269 1.371 . S
C271 C274 1.480 . S
C272 N269 1.372 . S
C272 N270 1.361 . S
C272 C280 1.457 . S
C273 N268 1.363 . S
C273 N270 1.377 . S
C273 C286 1.479 . S
C274 C271 1.480 . S
C274 C275 1.383 . S
C274 C279 1.385 . S
C275 H256 0.947 . S
C275 C274 1.383 . S
C275 C276 1.388 . S
C276 H257 0.946 . S
C276 C275 1.388 . S
C276 C277 1.384 . S
C277 C276 1.384 . S
C277 C278 1.377 . S
C278 H258 0.953 . S
C278 C277 1.377 . S
C278 C279 1.369 . S
C279 H259 0.945 . S
C279 C274 1.385 . S
C279 C278 1.369 . S
C280 C272 1.457 . S
C280 C281 1.372 . S
C280 C285 1.364 . S
C281 H260 0.952 . S
C281 C280 1.372 . S
C281 C282 1.389 . S
C282 H261 0.949 . S
C282 C281 1.389 . S
C282 C283 1.387 . S
C283 C282 1.387 . S
C283 C284 1.372 . S
C284 H262 0.950 . S
C284 C283 1.372 . S
C284 C285 1.379 . S
C285 H263 0.948 . S
C285 C280 1.364 . S
C285 C284 1.379 . S
C286 C255 1.383 . S
C286 C273 1.479 . S
C286 C287 1.398 . S
C287 C252 1.382 1_556 S
C287 H264 0.951 . S
C287 C286 1.398 . S
C288 C290 1.422 . S
C288 C292 1.415 . S
C288 N294 1.369 . S
C289 C290 1.421 . S
C289 C291 1.417 . S
C289 C301 1.422 1_545 S
C290 C288 1.422 . S
C290 C289 1.421 . S
C290 N300 1.359 . S
C291 C289 1.417 . S
C291 C293 1.329 . S
C291 H310 0.930 1_545 S
C292 C288 1.415 . S
C292 C293 1.437 . S
C292 C296 1.413 . S
C293 C291 1.329 . S
C293 C292 1.437 . S
C293 H315 0.929 . S
N294 C288 1.369 . S
N294 C295 1.338 . S
N294 Gd299 2.622 . S
C295 N294 1.338 . S
C295 C297 1.378 . S
C295 H307 0.929 . S
C296 C292 1.413 . S
C296 C297 1.348 . S
C296 H312 0.931 . S
C297 C295 1.378 . S
C297 C296 1.348 . S
C297 H313 0.930 . S
Gd298 N318 2.622 . S
Gd298 N325 2.570 . S
Gd298 O332 2.353 1_455 S
Gd298 O333 2.468 . S
Gd298 O334 2.427 . S
Gd298 O336 2.388 . S
Gd298 O337 2.386 . S
Gd298 O341 2.307 1_455 S
Gd298 C351 2.805 . S
Gd299 N294 2.622 . S
Gd299 N300 2.570 . S
Gd299 O331 2.386 . S
Gd299 O335 2.307 1_655 S
Gd299 O338 2.353 1_655 S
Gd299 O339 2.468 . S
Gd299 O340 2.427 . S
Gd299 O342 2.388 . S
Gd299 C363 2.805 . S
N300 C290 1.359 . S
N300 Gd299 2.570 . S
N300 C302 1.343 . S
C301 C289 1.422 1_565 S
C301 C303 1.321 . S
C301 H309 0.931 . S
C302 N300 1.343 . S
C302 C303 1.390 1_545 S
C302 H304 0.931 . S
C303 C301 1.321 . S
C303 C302 1.390 1_565 S
C303 H305 0.930 . S
H304 C302 0.931 . S
H305 C303 0.930 . S
H306 C329 0.931 . S
H307 C295 0.929 . S
H308 C330 0.930 . S
H309 C301 0.931 . S
H310 C291 0.930 1_565 S
H311 C320 0.929 . S
H312 C296 0.931 . S
H313 C297 0.930 . S
H314 C352 0.930 . S
H315 C293 0.929 . S
H316 C321 0.931 . S
H317 C322 0.930 . S
N318 Gd298 2.622 . S
N318 C319 1.369 . S
N318 C320 1.338 . S
C319 N318 1.369 . S
C319 C323 1.415 . S
C319 C326 1.422 . S
C320 H311 0.929 . S
C320 N318 1.338 . S
C320 C322 1.378 . S
C321 H316 0.931 . S
C321 C322 1.348 . S
C321 C323 1.413 . S
C322 H317 0.930 . S
C322 C320 1.378 . S
C322 C321 1.348 . S
C323 C319 1.415 . S
C323 C321 1.413 . S
C323 C353 1.437 . S
H324 C353 0.929 . S
N325 Gd298 2.570 . S
N325 C326 1.359 . S
N325 C329 1.343 . S
C326 C319 1.422 . S
C326 N325 1.359 . S
C326 C328 1.421 . S
C327 C328 1.422 . S
C327 C330 1.321 . S
C327 H354 0.931 . S
C328 C326 1.421 . S
C328 C327 1.422 . S
C328 C352 1.417 . S
C329 H306 0.931 . S
C329 N325 1.343 . S
C329 C330 1.390 . S
C330 H308 0.930 . S
C330 C327 1.321 . S
C330 C329 1.390 . S
O331 Gd299 2.386 . S
O331 C343 1.265 . S
O332 Gd298 2.353 1_655 S
O332 C343 1.242 . S
O333 Gd298 2.468 . S
O333 C351 1.263 . S
O334 Gd298 2.427 . S
O334 C351 1.252 . S
O335 Gd299 2.307 1_455 S
O335 C344 1.261 . S
O336 Gd298 2.388 . S
O336 C344 1.252 . S
O337 Gd298 2.386 . S
O337 C355 1.265 . S
O338 Gd299 2.353 1_455 S
O338 C355 1.242 . S
O339 Gd299 2.468 . S
O339 C363 1.263 . S
O340 Gd299 2.427 . S
O340 C363 1.252 . S
O341 Gd298 2.307 1_655 S
O341 C356 1.261 . S
O342 Gd299 2.388 . S
O342 C356 1.252 . S
C343 O331 1.265 . S
C343 O332 1.242 . S
C344 O335 1.261 . S
C344 O336 1.252 . S
C345 C348 1.394 . S
C345 C350 1.370 . S
C345 C351 1.500 . S
C346 C349 1.383 . S
C346 C350 1.395 . S
C347 C348 1.396 . S
C347 C349 1.365 . S
C347 H364 0.929 . S
C348 C345 1.394 . S
C348 C347 1.396 . S
C348 H365 0.930 . S
C349 C346 1.383 . S
C349 C347 1.365 . S
C349 H366 0.931 . S
C350 C345 1.370 . S
C350 C346 1.395 . S
C350 H367 0.930 . S
C351 Gd298 2.805 . S
C351 O333 1.263 . S
C351 O334 1.252 . S
C351 C345 1.500 . S
C352 H314 0.930 . S
C352 C328 1.417 . S
C352 C353 1.329 . S
C353 C323 1.437 . S
C353 H324 0.929 . S
C353 C352 1.329 . S
H354 C327 0.931 . S
C355 O337 1.265 . S
C355 O338 1.242 . S
C356 O341 1.261 . S
C356 O342 1.252 . S
C357 C360 1.394 . S
C357 C362 1.370 . S
C357 C363 1.500 . S
C358 C361 1.383 . S
C358 C362 1.395 . S
C359 C360 1.396 . S
C359 C361 1.365 . S
C359 H368 0.929 . S
C360 C357 1.394 . S
C360 C359 1.396 . S
C360 H369 0.930 . S
C361 C358 1.383 . S
C361 C359 1.365 . S
C361 H370 0.931 . S
C362 C357 1.370 . S
C362 C358 1.395 . S
C362 H371 0.930 . S
C363 Gd299 2.805 . S
C363 O339 1.263 . S
C363 O340 1.252 . S
C363 C357 1.500 . S
H364 C347 0.929 . S
H365 C348 0.930 . S
H366 C349 0.931 . S
H367 C350 0.930 . S
H368 C359 0.929 . S
H369 C360 0.930 . S
H370 C361 0.931 . S
H371 C362 0.930 . S
C372 C374 1.422 . S
C372 C376 1.415 . S
C372 N378 1.369 . S
C373 C374 1.421 . S
C373 C375 1.417 . S
C373 C385 1.422 . S
C374 C372 1.422 . S
C374 C373 1.421 . S
C374 N384 1.359 . S
C375 C373 1.417 . S
C375 C377 1.329 . S
C375 H394 0.930 . S
C376 C372 1.415 . S
C376 C377 1.437 . S
C376 C380 1.413 . S
C377 C375 1.329 . S
C377 C376 1.437 . S
C377 H399 0.929 . S
N378 C372 1.369 . S
N378 C379 1.338 . S
N378 Gd383 2.622 . S
C379 N378 1.338 . S
C379 C381 1.378 . S
C379 H391 0.929 . S
C380 C376 1.413 . S
C380 C381 1.348 . S
C380 H396 0.931 . S
C381 C379 1.378 . S
C381 C380 1.348 . S
C381 H397 0.930 . S
Gd382 N402 2.622 . S
Gd382 N409 2.570 . S
Gd382 O416 2.353 . S
Gd382 O417 2.468 . S
Gd382 O418 2.427 . S
Gd382 O420 2.388 . S
Gd382 O421 2.386 . S
Gd382 O425 2.307 . S
Gd382 C435 2.805 . S
Gd383 N378 2.622 . S
Gd383 N384 2.570 . S
Gd383 O415 2.386 . S
Gd383 O419 2.307 . S
Gd383 O422 2.353 . S
Gd383 O423 2.468 . S
Gd383 O424 2.427 . S
Gd383 O426 2.388 . S
Gd383 C447 2.805 . S
N384 C374 1.359 . S
N384 Gd383 2.570 . S
N384 C386 1.343 . S
C385 C373 1.422 . S
C385 C387 1.321 . S
C385 H393 0.931 . S
C386 N384 1.343 . S
C386 C387 1.390 . S
C386 H388 0.931 . S
C387 C385 1.321 . S
C387 C386 1.390 . S
C387 H389 0.930 . S
H388 C386 0.931 . S
H389 C387 0.930 . S
H390 C413 0.931 . S
H391 C379 0.929 . S
H392 C414 0.930 . S
H393 C385 0.931 . S
H394 C375 0.930 . S
H395 C404 0.929 . S
H396 C380 0.931 . S
H397 C381 0.930 . S
H398 C436 0.930 . S
H399 C377 0.929 . S
H400 C405 0.931 . S
H401 C406 0.930 . S
N402 Gd382 2.622 . S
N402 C403 1.369 . S
N402 C404 1.338 . S
C403 N402 1.369 . S
C403 C407 1.415 . S
C403 C410 1.422 . S
C404 H395 0.929 . S
C404 N402 1.338 . S
C404 C406 1.378 . S
C405 H400 0.931 . S
C405 C406 1.348 . S
C405 C407 1.413 . S
C406 H401 0.930 . S
C406 C404 1.378 . S
C406 C405 1.348 . S
C407 C403 1.415 . S
C407 C405 1.413 . S
C407 C437 1.437 . S
H408 C437 0.929 . S
N409 Gd382 2.570 . S
N409 C410 1.359 . S
N409 C413 1.343 . S
C410 C403 1.422 . S
C410 N409 1.359 . S
C410 C412 1.421 . S
C411 C412 1.422 . S
C411 C414 1.321 . S
C411 H438 0.931 . S
C412 C410 1.421 . S
C412 C411 1.422 . S
C412 C436 1.417 . S
C413 H390 0.931 . S
C413 N409 1.343 . S
C413 C414 1.390 . S
C414 H392 0.930 . S
C414 C411 1.321 . S
C414 C413 1.390 . S
O415 Gd383 2.386 . S
O415 C427 1.265 . S
O416 Gd382 2.353 . S
O416 C427 1.242 . S
O417 Gd382 2.468 . S
O417 C435 1.263 . S
O418 Gd382 2.427 . S
O418 C435 1.252 . S
O419 Gd383 2.307 . S
O419 C428 1.261 . S
O420 Gd382 2.388 . S
O420 C428 1.252 . S
O421 Gd382 2.386 . S
O421 C439 1.265 . S
O422 Gd383 2.353 . S
O422 C439 1.242 . S
O423 Gd383 2.468 . S
O423 C447 1.263 . S
O424 Gd383 2.427 . S
O424 C447 1.252 . S
O425 Gd382 2.307 . S
O425 C440 1.261 . S
O426 Gd383 2.388 . S
O426 C440 1.252 . S
C427 O415 1.265 . S
C427 O416 1.242 . S
C428 O419 1.261 . S
C428 O420 1.252 . S
C429 C432 1.394 . S
C429 C434 1.370 . S
C429 C435 1.500 . S
C430 C433 1.383 . S
C430 C434 1.395 . S
C431 C432 1.396 . S
C431 C433 1.365 . S
C431 H448 0.929 . S
C432 C429 1.394 . S
C432 C431 1.396 . S
C432 H449 0.930 . S
C433 C430 1.383 . S
C433 C431 1.365 . S
C433 H450 0.931 . S
C434 C429 1.370 . S
C434 C430 1.395 . S
C434 H451 0.930 . S
C435 Gd382 2.805 . S
C435 O417 1.263 . S
C435 O418 1.252 . S
C435 C429 1.500 . S
C436 H398 0.930 . S
C436 C412 1.417 . S
C436 C437 1.329 . S
C437 C407 1.437 . S
C437 H408 0.929 . S
C437 C436 1.329 . S
H438 C411 0.931 . S
C439 O421 1.265 . S
C439 O422 1.242 . S
C440 O425 1.261 . S
C440 O426 1.252 . S
C441 C444 1.394 . S
C441 C446 1.370 . S
C441 C447 1.500 . S
C442 C445 1.383 . S
C442 C446 1.395 . S
C443 C444 1.396 . S
C443 C445 1.365 . S
C443 H452 0.929 . S
C444 C441 1.394 . S
C444 C443 1.396 . S
C444 H453 0.930 . S
C445 C442 1.383 . S
C445 C443 1.365 . S
C445 H454 0.931 . S
C446 C441 1.370 . S
C446 C442 1.395 . S
C446 H455 0.930 . S
C447 Gd383 2.805 . S
C447 O423 1.263 . S
C447 O424 1.252 . S
C447 C441 1.500 . S
H448 C431 0.929 . S
H449 C432 0.930 . S
H450 C433 0.931 . S
H451 C434 0.930 . S
H452 C443 0.929 . S
H453 C444 0.930 . S
H454 C445 0.931 . S
H455 C446 0.930 . S
C456 C458 1.422 . S
C456 C460 1.415 . S
C456 N462 1.369 . S
C457 C458 1.421 . S
C457 C459 1.417 . S
C457 C469 1.422 . S
C458 C456 1.422 . S
C458 C457 1.421 . S
C458 N468 1.359 . S
C459 C457 1.417 . S
C459 C461 1.329 . S
C459 H478 0.930 . S
C460 C456 1.415 . S
C460 C461 1.437 . S
C460 C464 1.413 . S
C461 C459 1.329 . S
C461 C460 1.437 . S
C461 H483 0.929 . S
N462 C456 1.369 . S
N462 C463 1.338 . S
N462 Gd467 2.622 . S
C463 N462 1.338 . S
C463 C465 1.378 . S
C463 H475 0.929 . S
C464 C460 1.413 . S
C464 C465 1.348 . S
C464 H480 0.931 . S
C465 C463 1.378 . S
C465 C464 1.348 . S
C465 H481 0.930 . S
Gd466 N486 2.622 . S
Gd466 N493 2.570 . S
Gd466 O500 2.353 . S
Gd466 O501 2.468 . S
Gd466 O502 2.427 . S
Gd466 O504 2.388 . S
Gd466 O505 2.386 . S
Gd466 O509 2.316 . S
Gd466 C519 2.805 . S
Gd467 N462 2.622 . S
Gd467 N468 2.570 . S
Gd467 O499 2.386 . S
Gd467 O503 2.307 1_655 S
Gd467 O506 2.353 1_655 S
Gd467 O507 2.468 . S
Gd467 O508 2.427 . S
Gd467 O510 2.388 . S
Gd467 C531 2.805 . S
N468 C458 1.359 . S
N468 Gd467 2.570 . S
N468 C470 1.343 . S
C469 C457 1.422 . S
C469 C471 1.321 . S
C469 H477 0.931 . S
C470 N468 1.343 . S
C470 C471 1.390 . S
C470 H472 0.931 . S
C471 C469 1.321 . S
C471 C470 1.390 . S
C471 H473 0.930 . S
H472 C470 0.931 . S
H473 C471 0.930 . S
H474 C497 0.931 . S
H475 C463 0.929 . S
H476 C498 0.930 . S
H477 C469 0.931 . S
H478 C459 0.930 . S
H479 C488 0.929 . S
H480 C464 0.931 . S
H481 C465 0.930 . S
H482 C520 0.930 1_545 S
H483 C461 0.929 . S
H484 C489 0.931 . S
H485 C490 0.930 . S
N486 Gd466 2.622 . S
N486 C487 1.369 . S
N486 C488 1.338 . S
C487 N486 1.369 . S
C487 C491 1.415 . S
C487 C494 1.422 . S
C488 H479 0.929 . S
C488 N486 1.338 . S
C488 C490 1.378 . S
C489 H484 0.931 . S
C489 C490 1.348 . S
C489 C491 1.413 . S
C490 H485 0.930 . S
C490 C488 1.378 . S
C490 C489 1.348 . S
C491 C487 1.415 . S
C491 C489 1.413 . S
C491 C521 1.437 . S
H492 C521 0.929 . S
N493 Gd466 2.570 . S
N493 C494 1.359 . S
N493 C497 1.343 . S
C494 C487 1.422 . S
C494 N493 1.359 . S
C494 C496 1.421 . S
C495 C496 1.422 1_545 S
C495 C498 1.321 . S
C495 H522 0.931 . S
C496 C494 1.421 . S
C496 C495 1.422 1_565 S
C496 C520 1.417 . S
C497 H474 0.931 . S
C497 N493 1.343 . S
C497 C498 1.390 1_565 S
C498 H476 0.930 . S
C498 C495 1.321 . S
C498 C497 1.390 1_545 S
O499 Gd467 2.386 . S
O499 C511 1.265 . S
O500 Gd466 2.353 . S
O500 C511 1.242 1_455 S
O501 Gd466 2.468 . S
O501 C519 1.263 . S
O502 Gd466 2.427 . S
O502 C519 1.252 . S
O503 Gd467 2.307 1_455 S
O503 C512 1.261 . S
O504 Gd466 2.388 . S
O504 C512 1.252 . S
O505 Gd466 2.386 . S
O505 C523 1.265 . S
O506 Gd467 2.353 1_455 S
O506 C523 1.242 . S
O507 Gd467 2.468 . S
O507 C531 1.263 . S
O508 Gd467 2.427 . S
O508 C531 1.252 . S
O509 Gd466 2.316 . S
O509 C524 1.251 1_455 S
O510 Gd467 2.388 . S
O510 C524 1.252 . S
C511 O499 1.265 . S
C511 O500 1.242 1_655 S
C512 O503 1.261 . S
C512 O504 1.252 . S
C513 C516 1.394 . S
C513 C518 1.370 . S
C513 C519 1.500 . S
C514 C517 1.383 . S
C514 C518 1.395 . S
C515 C516 1.396 . S
C515 C517 1.365 . S
C515 H532 0.929 . S
C516 C513 1.394 . S
C516 C515 1.396 . S
C516 H533 0.930 . S
C517 C514 1.383 . S
C517 C515 1.365 . S
C517 H534 0.931 . S
C518 C513 1.370 . S
C518 C514 1.395 . S
C518 H535 0.930 . S
C519 Gd466 2.805 . S
C519 O501 1.263 . S
C519 O502 1.252 . S
C519 C513 1.500 . S
C520 H482 0.930 1_565 S
C520 C496 1.417 . S
C520 C521 1.329 . S
C521 C491 1.437 . S
C521 H492 0.929 . S
C521 C520 1.329 . S
H522 C495 0.931 . S
C523 O505 1.265 . S
C523 O506 1.242 . S
C524 O509 1.251 1_655 S
C524 O510 1.252 . S
C525 C528 1.394 . S
C525 C530 1.370 . S
C525 C531 1.500 . S
C526 C529 1.383 . S
C526 C530 1.395 . S
C527 C528 1.396 . S
C527 C529 1.365 . S
C527 H536 0.929 . S
C528 C525 1.394 . S
C528 C527 1.396 . S
C528 H537 0.930 . S
C529 C526 1.383 . S
C529 C527 1.365 . S
C529 H538 0.931 . S
C530 C525 1.370 . S
C530 C526 1.395 . S
C530 H539 0.930 . S
C531 Gd467 2.805 . S
C531 O507 1.263 . S
C531 O508 1.252 . S
C531 C525 1.500 . S
H532 C515 0.929 . S
H533 C516 0.930 . S
H534 C517 0.931 . S
H535 C518 0.930 . S
H536 C527 0.929 . S
H537 C528 0.930 . S
H538 C529 0.931 . S
H539 C530 0.930 . S
C540 C542 1.422 . S
C540 C544 1.415 . S
C540 N546 1.369 . S
C541 C542 1.421 . S
C541 C543 1.417 . S
C541 C553 1.422 . S
C542 C540 1.422 . S
C542 C541 1.421 . S
C542 N552 1.359 . S
C543 C541 1.417 . S
C543 C545 1.329 . S
C543 H562 0.930 . S
C544 C540 1.415 . S
C544 C545 1.437 . S
C544 C548 1.413 . S
C545 C543 1.329 . S
C545 C544 1.437 . S
C545 H567 0.929 . S
N546 C540 1.369 . S
N546 C547 1.338 . S
N546 Gd551 2.622 . S
C547 N546 1.338 . S
C547 C549 1.378 . S
C547 H559 0.929 . S
C548 C544 1.413 . S
C548 C549 1.348 . S
C548 H564 0.931 . S
C549 C547 1.378 . S
C549 C548 1.348 . S
C549 H565 0.930 . S
Gd550 N570 2.622 . S
Gd550 N577 2.570 . S
Gd550 O584 2.353 . S
Gd550 O585 2.468 . S
Gd550 O586 2.427 . S
Gd550 O588 2.388 . S
Gd550 O589 2.386 . S
Gd550 O593 2.307 . S
Gd550 C603 2.805 . S
Gd551 N546 2.622 . S
Gd551 N552 2.570 . S
Gd551 O583 2.386 . S
Gd551 O587 2.307 . S
Gd551 O590 2.353 . S
Gd551 O591 2.468 . S
Gd551 O592 2.427 . S
Gd551 O594 2.388 . S
Gd551 C615 2.805 . S
N552 C542 1.359 . S
N552 Gd551 2.570 . S
N552 C554 1.343 . S
C553 C541 1.422 . S
C553 C555 1.321 . S
C553 H561 0.931 . S
C554 N552 1.343 . S
C554 C555 1.390 . S
C554 H556 0.931 . S
C555 C553 1.321 . S
C555 C554 1.390 . S
C555 H557 0.930 . S
H556 C554 0.931 . S
H557 C555 0.930 . S
H558 C581 0.931 . S
H559 C547 0.929 . S
H560 C582 0.930 . S
H561 C553 0.931 . S
H562 C543 0.930 . S
H563 C572 0.929 . S
H564 C548 0.931 . S
H565 C549 0.930 . S
H566 C604 0.930 . S
H567 C545 0.929 . S
H568 C573 0.931 . S
H569 C574 0.930 . S
N570 Gd550 2.622 . S
N570 C571 1.369 . S
N570 C572 1.338 . S
C571 N570 1.369 . S
C571 C575 1.415 . S
C571 C578 1.422 . S
C572 H563 0.929 . S
C572 N570 1.338 . S
C572 C574 1.378 . S
C573 H568 0.931 . S
C573 C574 1.348 . S
C573 C575 1.413 . S
C574 H569 0.930 . S
C574 C572 1.378 . S
C574 C573 1.348 . S
C575 C571 1.415 . S
C575 C573 1.413 . S
C575 C605 1.437 . S
H576 C605 0.929 . S
N577 Gd550 2.570 . S
N577 C578 1.359 . S
N577 C581 1.343 . S
C578 C571 1.422 . S
C578 N577 1.359 . S
C578 C580 1.421 . S
C579 C580 1.422 . S
C579 C582 1.321 . S
C579 H606 0.931 . S
C580 C578 1.421 . S
C580 C579 1.422 . S
C580 C604 1.417 . S
C581 H558 0.931 . S
C581 N577 1.343 . S
C581 C582 1.390 . S
C582 H560 0.930 . S
C582 C579 1.321 . S
C582 C581 1.390 . S
O583 Gd551 2.386 . S
O583 C595 1.265 . S
O584 Gd550 2.353 . S
O584 C595 1.242 . S
O585 Gd550 2.468 . S
O585 C603 1.263 . S
O586 Gd550 2.427 . S
O586 C603 1.252 . S
O587 Gd551 2.307 . S
O587 C596 1.261 . S
O588 Gd550 2.388 . S
O588 C596 1.252 . S
O589 Gd550 2.386 . S
O589 C607 1.265 . S
O590 Gd551 2.353 . S
O590 C607 1.242 . S
O591 Gd551 2.468 . S
O591 C615 1.263 . S
O592 Gd551 2.427 . S
O592 C615 1.252 . S
O593 Gd550 2.307 . S
O593 C608 1.261 . S
O594 Gd551 2.388 . S
O594 C608 1.252 . S
C595 O583 1.265 . S
C595 O584 1.242 . S
C596 O587 1.261 . S
C596 O588 1.252 . S
C597 C600 1.394 . S
C597 C602 1.370 . S
C597 C603 1.500 . S
C598 C601 1.383 . S
C598 C602 1.395 . S
C599 C600 1.396 . S
C599 C601 1.365 . S
C599 H616 0.929 . S
C600 C597 1.394 . S
C600 C599 1.396 . S
C600 H617 0.930 . S
C601 C598 1.383 . S
C601 C599 1.365 . S
C601 H618 0.931 . S
C602 C597 1.370 . S
C602 C598 1.395 . S
C602 H619 0.930 . S
C603 Gd550 2.805 . S
C603 O585 1.263 . S
C603 O586 1.252 . S
C603 C597 1.500 . S
C604 H566 0.930 . S
C604 C580 1.417 . S
C604 C605 1.329 . S
C605 C575 1.437 . S
C605 H576 0.929 . S
C605 C604 1.329 . S
H606 C579 0.931 . S
C607 O589 1.265 . S
C607 O590 1.242 . S
C608 O593 1.261 . S
C608 O594 1.252 . S
C609 C612 1.394 . S
C609 C614 1.370 . S
C609 C615 1.500 . S
C610 C613 1.383 . S
C610 C614 1.395 . S
C611 C612 1.396 . S
C611 C613 1.365 . S
C611 H620 0.929 . S
C612 C609 1.394 . S
C612 C611 1.396 . S
C612 H621 0.930 . S
C613 C610 1.383 . S
C613 C611 1.365 . S
C613 H622 0.931 . S
C614 C609 1.370 . S
C614 C610 1.395 . S
C614 H623 0.930 . S
C615 Gd551 2.805 . S
C615 O591 1.263 . S
C615 O592 1.252 . S
C615 C609 1.500 . S
H616 C599 0.929 . S
H617 C600 0.930 . S
H618 C601 0.931 . S
H619 C602 0.930 . S
H620 C611 0.929 . S
H621 C612 0.930 . S
H622 C613 0.931 . S
H623 C614 0.930 . S
C247 C344 1.517 . S
C428 C283 1.517 . S
C427 C175 1.512 . S
C211 C343 1.513 . S
C524 C103 1.459 . S
C608 C139 1.459 . S
C31 C607 1.452 . S
C67 C523 1.452 . S
C346 C37 1.215 . S
C430 C1 1.215 . S
C442 C109 1.448 . S
C358 C73 1.448 . S
C526 C181 1.218 . S
C145 C610 1.218 . S
C598 C253 1.476 . S
C217 C514 1.476 . S
C355 C25 1.632 . S
C439 C61 1.631 . S
C97 C440 1.637 . S
C356 C133 1.636 . S
C511 C169 1.723 . S
C205 C595 1.724 . S
C241 C596 1.705 . S
C277 C512 1.705 . S
