# Generated by pormake.
# Topology eea, (3,6)-cn, num edge types: 1
# Building blocks:
#     Node 0, Type 0, BuildingBlock: ESEHIV_clean_linker_0, # of connection points: 3
#     Node 1, Type 0, BuildingBlock: ESEHIV_clean_linker_0, # of connection points: 3
#     Node 2, Type 0, BuildingBlock: ESEHIV_clean_linker_0, # of connection points: 3
#     Node 3, Type 0, BuildingBlock: ESEHIV_clean_linker_0, # of connection points: 3
#     Node 4, Type 0, BuildingBlock: ESEHIV_clean_linker_0, # of connection points: 3
#     Node 5, Type 0, BuildingBlock: ESEHIV_clean_linker_0, # of connection points: 3
#     Node 6, Type 0, BuildingBlock: ESEHIV_clean_linker_0, # of connection points: 3
#     Node 7, Type 0, BuildingBlock: ESEHIV_clean_linker_0, # of connection points: 3
#     Node 8, Type 0, BuildingBlock: ESEHIV_clean_linker_0, # of connection points: 3
#     Node 9, Type 0, BuildingBlock: ESEHIV_clean_linker_0, # of connection points: 3
#     Node 10, Type 0, BuildingBlock: ESEHIV_clean_linker_0, # of connection points: 3
#     Node 11, Type 0, BuildingBlock: ESEHIV_clean_linker_0, # of connection points: 3
#     Node 12, Type 0, BuildingBlock: ESEHIV_clean_linker_0, # of connection points: 3
#     Node 13, Type 0, BuildingBlock: ESEHIV_clean_linker_0, # of connection points: 3
#     Node 14, Type 0, BuildingBlock: ESEHIV_clean_linker_0, # of connection points: 3
#     Node 15, Type 0, BuildingBlock: ESEHIV_clean_linker_0, # of connection points: 3
#     Node 16, Type 0, BuildingBlock: ESEHIV_clean_linker_0, # of connection points: 3
#     Node 17, Type 0, BuildingBlock: ESEHIV_clean_linker_0, # of connection points: 3
#     Node 18, Type 1, BuildingBlock: CUWYAW_clean_sbu_0, # of connection points: 6
#     Node 19, Type 1, BuildingBlock: CUWYAW_clean_sbu_0, # of connection points: 6
#     Node 20, Type 1, BuildingBlock: CUWYAW_clean_sbu_0, # of connection points: 6
#     Node 21, Type 1, BuildingBlock: CUWYAW_clean_sbu_0, # of connection points: 6
#     Node 22, Type 1, BuildingBlock: CUWYAW_clean_sbu_0, # of connection points: 6
#     Node 23, Type 1, BuildingBlock: CUWYAW_clean_sbu_0, # of connection points: 6
#     Node 24, Type 1, BuildingBlock: CUWYAW_clean_sbu_0, # of connection points: 6
#     Node 25, Type 1, BuildingBlock: CUWYAW_clean_sbu_0, # of connection points: 6
#     Node 26, Type 1, BuildingBlock: CUWYAW_clean_sbu_0, # of connection points: 6
#     Edge 27, Type (0, 1), None
#     Edge 28, Type (0, 1), None
#     Edge 29, Type (0, 1), None
#     Edge 30, Type (0, 1), None
#     Edge 31, Type (0, 1), None
#     Edge 32, Type (0, 1), None
#     Edge 33, Type (0, 1), None
#     Edge 34, Type (0, 1), None
#     Edge 35, Type (0, 1), None
#     Edge 36, Type (0, 1), None
#     Edge 37, Type (0, 1), None
#     Edge 38, Type (0, 1), None
#     Edge 39, Type (0, 1), None
#     Edge 40, Type (0, 1), None
#     Edge 41, Type (0, 1), None
#     Edge 42, Type (0, 1), None
#     Edge 43, Type (0, 1), None
#     Edge 44, Type (0, 1), None
#     Edge 45, Type (0, 1), None
#     Edge 46, Type (0, 1), None
#     Edge 47, Type (0, 1), None
#     Edge 48, Type (0, 1), None
#     Edge 49, Type (0, 1), None
#     Edge 50, Type (0, 1), None
#     Edge 51, Type (0, 1), None
#     Edge 52, Type (0, 1), None
#     Edge 53, Type (0, 1), None
#     Edge 54, Type (0, 1), None
#     Edge 55, Type (0, 1), None
#     Edge 56, Type (0, 1), None
#     Edge 57, Type (0, 1), None
#     Edge 58, Type (0, 1), None
#     Edge 59, Type (0, 1), None
#     Edge 60, Type (0, 1), None
#     Edge 61, Type (0, 1), None
#     Edge 62, Type (0, 1), None
#     Edge 63, Type (0, 1), None
#     Edge 64, Type (0, 1), None
#     Edge 65, Type (0, 1), None
#     Edge 66, Type (0, 1), None
#     Edge 67, Type (0, 1), None
#     Edge 68, Type (0, 1), None
#     Edge 69, Type (0, 1), None
#     Edge 70, Type (0, 1), None
#     Edge 71, Type (0, 1), None
#     Edge 72, Type (0, 1), None
#     Edge 73, Type (0, 1), None
#     Edge 74, Type (0, 1), None
#     Edge 75, Type (0, 1), None
#     Edge 76, Type (0, 1), None
#     Edge 77, Type (0, 1), None
#     Edge 78, Type (0, 1), None
#     Edge 79, Type (0, 1), None
#     Edge 80, Type (0, 1), None
# Relax obj value: 0.031
# Max RMSD: 0.213
# Mean RMSD: 0.171
data_MOF--net-eea--node1-CUWYAW_clean_sbu_0--node2-ESEHIV_clean_linker_0--edge1-none
_symmetry_space_group_name_H-M    P1
_symmetry_Int_Tables_number       1
_symmetry_cell_setting            triclinic
loop_
_symmetry_equiv_pos_as_xyz
'x, y, z'
_cell_length_a     19.828632
_cell_length_b     19.722751
_cell_length_c     36.965839
_cell_angle_alpha  93.7209
_cell_angle_beta   92.052833
_cell_angle_gamma 119.85525
loop_
_atom_site_label
_atom_site_type_symbol
_atom_site_fract_x
_atom_site_fract_y
_atom_site_fract_z
_atom_type_partial_charge
H0 H 0.22771 0.21781 0.4581 0.0
H1 H 0.20843 -0.00966 0.46061 0.0
H2 H 0.10916 0.04035 0.36856 0.0
C3 C 0.20842 0.1595 0.44547 0.0
C4 C 0.16632 0.13519 0.41116 0.0
C5 C 0.22105 0.10601 0.46414 0.0
C6 C 0.19753 0.03114 0.44682 0.0
C7 C 0.15793 0.00797 0.41229 0.0
C8 C 0.1411 0.05932 0.39512 0.0
H9 H 0.73363 -0.01629 0.46065 0.0
H10 H 0.93281 0.21693 0.47124 0.0
H11 H 0.88647 0.06247 0.37422 0.0
C12 C 0.78431 0.02927 0.4494 0.0
C13 C 0.8046 0.01468 0.41514 0.0
C14 C 0.8305 0.10198 0.46968 0.0
C15 C 0.89669 0.161 0.45529 0.0
C16 C 0.91653 0.14737 0.4205 0.0
C17 C 0.87035 0.07399 0.40068 0.0
H18 H 0.72686 0.69353 0.46752 0.0
H19 H 0.93894 0.6845 0.47037 0.0
H20 H 0.87204 0.76746 0.37821 0.0
C21 C 0.77892 0.7027 0.45486 0.0
C22 C 0.79364 0.73275 0.42093 0.0
C23 C 0.83024 0.68411 0.47267 0.0
C24 C 0.89757 0.69632 0.45623 0.0
C25 C 0.91264 0.72587 0.42201 0.0
C26 C 0.85949 0.74229 0.40405 0.0
H27 H 0.00306 0.26277 0.62597 0.0
H28 H 0.21475 0.25303 0.62859 0.0
H29 H 0.06993 0.17955 0.71804 0.0
C30 C 0.04437 0.25082 0.64008 0.0
C31 C 0.02935 0.22128 0.6743 0.0
C32 C 0.11156 0.2628 0.62357 0.0
C33 C 0.16281 0.24403 0.64131 0.0
C34 C 0.14816 0.21404 0.67524 0.0
C35 C 0.08245 0.2047 0.6922 0.0
H36 H 0.73357 0.95679 0.63551 0.0
H37 H 0.71411 0.72927 0.63811 0.0
H38 H 0.83238 0.90668 0.72769 0.0
C39 C 0.74435 0.91597 0.64934 0.0
C40 C 0.78383 0.93912 0.68389 0.0
C41 C 0.72082 0.84108 0.63204 0.0
C42 C 0.73334 0.78756 0.65074 0.0
C43 C 0.7753 0.81184 0.68508 0.0
C44 C 0.80052 0.88772 0.70111 0.0
H45 H 0.00862 0.73003 0.62493 0.0
H46 H 0.20803 0.96312 0.63563 0.0
H47 H 0.055 0.88438 0.722 0.0
C48 C 0.04476 0.78593 0.6409 0.0
C49 C 0.02488 0.79955 0.67568 0.0
C50 C 0.11103 0.84492 0.62654 0.0
C51 C 0.15726 0.91759 0.64685 0.0
C52 C 0.13696 0.93216 0.68111 0.0
C53 C 0.07112 0.87289 0.69553 0.0
H54 H 0.89437 0.55114 0.79144 0.0
H55 H 0.87509 0.32367 0.79395 0.0
H56 H 0.77583 0.37368 0.70189 0.0
C57 C 0.87508 0.49283 0.7788 0.0
C58 C 0.83299 0.46852 0.7445 0.0
C59 C 0.88771 0.43934 0.79747 0.0
C60 C 0.86419 0.36447 0.78015 0.0
C61 C 0.8246 0.3413 0.74562 0.0
C62 C 0.80777 0.39265 0.72845 0.0
H63 H 0.40029 0.31704 0.79398 0.0
H64 H 0.59948 0.55026 0.80457 0.0
H65 H 0.55314 0.3958 0.70755 0.0
C66 C 0.45097 0.3626 0.78273 0.0
C67 C 0.47126 0.34802 0.74847 0.0
C68 C 0.49716 0.43531 0.80301 0.0
C69 C 0.56336 0.49434 0.78862 0.0
C70 C 0.5832 0.48071 0.75384 0.0
C71 C 0.53701 0.40732 0.73401 0.0
H72 H 0.39352 0.02687 0.80085 0.0
H73 H 0.6056 0.01783 0.80371 0.0
H74 H 0.5387 0.10079 0.71155 0.0
C75 C 0.44558 0.03603 0.78819 0.0
C76 C 0.4603 0.06608 0.75427 0.0
C77 C 0.4969 0.01744 0.806 0.0
C78 C 0.56424 0.02965 0.78956 0.0
C79 C 0.57931 0.0592 0.75534 0.0
C80 C 0.52615 0.07562 0.73738 0.0
H81 H 0.66973 0.5961 0.95931 0.0
H82 H 0.88142 0.58637 0.96192 0.0
H83 H 0.7366 0.51289 0.05137 0.0
C84 C 0.71104 0.58415 0.97341 0.0
C85 C 0.69602 0.55462 1.00763 0.0
C86 C 0.77823 0.59614 0.9569 0.0
C87 C 0.82948 0.57737 0.97464 0.0
C88 C 0.81483 0.54738 1.00858 0.0
C89 C 0.74912 0.53803 1.02553 0.0
H90 H 0.40024 0.29013 0.96884 0.0
H91 H 0.38077 0.0626 0.97144 0.0
H92 H 0.49905 0.24002 0.06102 0.0
C93 C 0.41102 0.2493 0.98267 0.0
C94 C 0.4505 0.27246 1.01722 0.0
C95 C 0.38748 0.17441 0.96537 0.0
C96 C 0.40001 0.12089 0.98408 0.0
C97 C 0.44196 0.14518 1.01841 0.0
C98 C 0.46718 0.22106 1.03444 0.0
H99 H 0.67528 0.06337 0.95826 0.0
H100 H 0.87471 0.29646 0.96896 0.0
H101 H 0.72167 0.21772 0.05533 0.0
C102 C 0.71142 0.11927 0.97423 0.0
C103 C 0.69155 0.13289 1.00901 0.0
C104 C 0.77769 0.17826 0.95987 0.0
C105 C 0.82393 0.25093 0.98018 0.0
C106 C 0.80363 0.26549 1.01445 0.0
C107 C 0.73779 0.20623 1.02886 0.0
H108 H 0.56104 0.88448 0.12477 0.0
H109 H 0.54176 0.65701 0.12728 0.0
H110 H 0.44249 0.70702 1.03523 0.0
C111 C 0.54176 0.82617 0.11213 0.0
C112 C 0.49966 0.80186 0.07783 0.0
C113 C 0.55438 0.77268 0.1308 0.0
C114 C 0.53087 0.69781 0.11348 0.0
C115 C 0.49127 0.67463 0.07896 0.0
C116 C 0.47444 0.72598 0.06179 0.0
H117 H 0.06696 0.65038 0.12732 0.0
H118 H 0.26614 0.8836 0.13791 0.0
H119 H 0.2198 0.72914 1.04088 0.0
C120 C 0.11764 0.69593 0.11606 0.0
C121 C 0.13793 0.68135 0.0818 0.0
C122 C 0.16383 0.76865 0.13634 0.0
C123 C 0.23002 0.82767 0.12195 0.0
C124 C 0.24987 0.81404 0.08717 0.0
C125 C 0.20368 0.74065 0.06735 0.0
H126 H 0.06019 0.3602 0.13419 0.0
H127 H 0.27227 0.35116 0.13704 0.0
H128 H 0.20537 0.43413 1.04488 0.0
C129 C 0.11225 0.36937 0.12153 0.0
C130 C 0.12697 0.39941 0.0876 0.0
C131 C 0.16357 0.35078 0.13934 0.0
C132 C 0.23091 0.36299 0.1229 0.0
C133 C 0.24598 0.39253 0.08868 0.0
C134 C 0.19282 0.40896 0.07072 0.0
H135 H 0.33639 0.92944 0.29264 0.0
H136 H 0.54809 0.9197 0.29525 0.0
H137 H 0.40327 0.84622 0.38471 0.0
C138 C 0.37771 0.91749 0.30674 0.0
C139 C 0.36269 0.88795 0.34097 0.0
C140 C 0.4449 0.92947 0.29023 0.0
C141 C 0.49614 0.9107 0.30797 0.0
C142 C 0.4815 0.88071 0.34191 0.0
C143 C 0.41578 0.87136 0.35886 0.0
H144 H 0.0669 0.62346 0.30218 0.0
H145 H 0.04744 0.39593 0.30477 0.0
H146 H 0.16572 0.57335 0.39436 0.0
C147 C 0.07768 0.58263 0.31601 0.0
C148 C 0.11717 0.60579 0.35055 0.0
C149 C 0.05415 0.50774 0.29871 0.0
C150 C 0.06668 0.45423 0.31741 0.0
C151 C 0.10863 0.47851 0.35175 0.0
C152 C 0.13385 0.55439 0.36778 0.0
H153 H 0.34195 0.3967 0.2916 0.0
H154 H 0.54137 0.62979 0.3023 0.0
H155 H 0.38834 0.55105 0.38867 0.0
C156 C 0.37809 0.4526 0.30756 0.0
C157 C 0.35822 0.46622 0.34234 0.0
C158 C 0.44436 0.51159 0.29321 0.0
C159 C 0.4906 0.58426 0.31352 0.0
C160 C 0.47029 0.59882 0.34778 0.0
C161 C 0.40445 0.53956 0.3622 0.0
C162 C 0.53655 0.06135 0.15364 0.0
Eu163 Eu 0.50131 0.01658 0.08447 0.0
C164 C 0.50972 0.02522 0.18782 0.0
C165 C 0.48293 0.05974 0.2137 0.0
C166 C 0.45888 0.02707 0.24658 0.0
C167 C 0.4619 0.95972 0.25412 0.0
C168 C 0.48663 0.92406 0.22776 0.0
C169 C 0.51029 0.95647 0.195 0.0
C170 C 0.46637 0.09656 1.03752 0.0
C171 C 0.32226 0.87303 0.07277 0.0
C172 C 0.40507 0.88531 0.94255 0.0
Eu173 Eu 0.44019 0.93017 1.01172 0.0
C174 C 0.43191 0.9215 0.90838 0.0
C175 C 0.45914 0.88729 0.88258 0.0
C176 C 0.48323 0.92003 0.84971 0.0
C177 C 0.47981 -0.01286 0.84211 0.0
C178 C 0.45461 0.02249 0.8684 0.0
C179 C 0.43089 -0.01 0.90114 0.0
C180 C 0.47513 0.85045 0.05877 0.0
C181 C 0.61916 0.07389 1.02341 0.0
O182 O 0.57452 0.03626 0.13374 0.0
O183 O 0.48672 0.07195 0.13425 0.0
O184 O 0.52477 0.12802 0.06186 0.0
O185 O 0.42508 0.0236 1.03995 0.0
O186 O 0.38432 0.91496 0.09564 0.0
O187 O 0.32614 0.87591 1.03733 0.0
O188 O 0.36695 0.91027 0.96243 0.0
O189 O 0.45496 0.87485 0.96197 0.0
O190 O 0.41661 0.81889 1.03449 0.0
O191 O 0.51656 0.92335 0.05619 0.0
O192 O 0.5571 0.03192 1.00055 0.0
O193 O 0.61532 0.07097 0.05884 0.0
H194 H 0.48162 0.1126 0.20866 0.0
H195 H 0.44044 0.05587 0.26656 0.0
H196 H 0.48861 0.87147 0.23267 0.0
H197 H 0.52985 0.92802 0.17563 0.0
H198 H 0.46078 0.83462 0.88766 0.0
H199 H 0.50202 0.89145 0.82979 0.0
H200 H 0.45232 0.0749 0.86344 0.0
H201 H 0.41094 0.01818 0.92044 0.0
C202 C 0.91161 0.46318 0.15398 0.0
Eu203 Eu 0.9369 0.46539 0.08506 0.0
C204 C 0.95152 0.47006 0.18972 0.0
C205 C 0.91039 0.41796 0.21551 0.0
C206 C 0.94498 0.42717 0.25058 0.0
C207 C 0.02094 0.48923 0.26043 0.0
C208 C 0.06321 0.53913 0.23412 0.0
C209 C 0.02904 0.52942 0.19903 0.0
C210 C 0.84994 0.34259 1.03518 0.0
C211 C 0.07575 0.42565 0.07189 0.0
C212 C 0.03039 0.48385 0.94217 0.0
Eu213 Eu 0.00497 0.48146 1.01107 0.0
C214 C -0.00953 0.47699 0.90643 0.0
C215 C 0.03159 0.52905 0.88063 0.0
C216 C -0.00303 0.51986 0.84557 0.0
C217 C 0.92098 0.45784 0.83573 0.0
C218 C 0.87872 0.40797 0.86205 0.0
C219 C 0.91292 0.41766 0.89714 0.0
C220 C 0.09179 0.60415 0.06114 0.0
C221 C 0.86604 0.5211 1.02426 0.0
O222 O 0.93795 0.52635 0.13662 0.0
O223 O 0.89193 0.40006 0.13236 0.0
O224 O 0.82107 0.36876 0.05957 0.0
O225 O 0.92349 0.37941 1.03922 0.0
O226 O 0.04238 0.45184 0.0948 0.0
O227 O 0.06457 0.42291 1.03632 0.0
O228 O 0.00407 0.42064 0.9595 0.0
O229 O 0.05001 0.54692 0.96382 0.0
O230 O 0.12081 0.57803 1.03679 0.0
O231 O 0.0183 0.56737 0.05685 0.0
O232 O 0.89941 0.49491 1.00135 0.0
O233 O 0.87727 0.5239 0.05983 0.0
H234 H 0.85068 0.37137 0.2088 0.0
H235 H 0.9113 0.38814 0.27043 0.0
H236 H 0.12231 0.58685 0.24104 0.0
H237 H 0.0626 0.56946 0.17952 0.0
H238 H 0.09133 0.57561 0.88733 0.0
H239 H 0.03065 0.55887 0.82571 0.0
H240 H 0.8196 0.36028 0.85516 0.0
H241 H 0.87937 0.37766 0.91666 0.0
C242 C 0.3941 0.4662 0.9431 0.0
Eu243 Eu 0.43604 0.47541 1.01164 0.0
C244 C 0.42377 0.46054 0.90786 0.0
C245 C 0.41124 0.49664 0.87894 0.0
C246 C 0.43757 0.49067 0.84496 0.0
C247 C 0.47627 0.44813 0.83956 0.0
C248 C 0.49019 0.41324 0.86861 0.0
C249 C 0.46465 0.41994 0.9027 0.0
C250 C 0.46541 0.59665 0.06045 0.0
C251 C 0.62119 0.53288 1.02278 0.0
C252 C 0.54777 0.48059 0.15322 0.0
Eu253 Eu 0.50596 0.47165 0.08469 0.0
C254 C 0.51802 0.48628 0.18843 0.0
C255 C 0.53012 0.44988 0.21734 0.0
C256 C 0.5037 0.45588 0.25129 0.0
C257 C 0.46534 0.49876 0.25668 0.0
C258 C 0.45184 0.53395 0.22764 0.0
C259 C 0.47746 0.52722 0.19358 0.0
C260 C 0.47654 0.35052 1.03568 0.0
C261 C 0.32084 0.41432 0.07355 0.0
O262 O 0.36914 0.4051 0.96183 0.0
O263 O 0.4353 0.53272 0.96327 0.0
O264 O 0.40604 0.56286 1.03657 0.0
O265 O 0.50957 0.56826 0.05629 0.0
O266 O 0.55813 0.50335 1.00007 0.0
O267 O 0.61786 0.53621 0.05833 0.0
O268 O 0.57296 0.54174 0.13452 0.0
O269 O 0.50649 0.41412 0.13301 0.0
O270 O 0.53601 0.38431 0.05951 0.0
O271 O 0.4324 0.37882 1.0401 0.0
O272 O 0.38391 0.44389 0.09626 0.0
O273 O 0.32416 0.4109 1.038 0.0
H274 H 0.38036 0.52873 0.88256 0.0
H275 H 0.42613 0.51758 0.82269 0.0
H276 H 0.52003 0.38016 0.86478 0.0
H277 H 0.47606 0.39279 0.92486 0.0
H278 H 0.56075 0.41753 0.21373 0.0
H279 H 0.51482 0.42873 0.27355 0.0
H280 H 0.42224 0.56727 0.23146 0.0
H281 H 0.46637 0.5546 0.17143 0.0
C282 C 0.20322 0.39468 0.48698 0.0
Eu283 Eu 0.16797 0.34992 0.4178 0.0
C284 C 0.17638 0.35855 0.52116 0.0
C285 C 0.1496 0.39307 0.54703 0.0
C286 C 0.12554 0.3604 0.57991 0.0
C287 C 0.12857 0.29305 0.58745 0.0
C288 C 0.15329 0.25739 0.56109 0.0
C289 C 0.17695 0.2898 0.52833 0.0
C290 C 0.13304 0.4299 0.37085 0.0
C291 C -0.01107 0.20636 0.4061 0.0
C292 C 0.07174 0.21865 0.27589 0.0
Eu293 Eu 0.10686 0.2635 0.34506 0.0
C294 C 0.09858 0.25484 0.24171 0.0
C295 C 0.12581 0.22062 0.21591 0.0
C296 C 0.1499 0.25336 0.18304 0.0
C297 C 0.14648 0.32048 0.17544 0.0
C298 C 0.12128 0.35582 0.20173 0.0
C299 C 0.09756 0.32333 0.23447 0.0
C300 C 0.1418 0.18378 0.3921 0.0
C301 C 0.28583 0.40722 0.35674 0.0
O302 O 0.24119 0.36959 0.46707 0.0
O303 O 0.15339 0.40528 0.46758 0.0
O304 O 0.19144 0.46135 0.39519 0.0
O305 O 0.09175 0.35693 0.37328 0.0
O306 O 0.05099 0.24829 0.42897 0.0
O307 O -0.00719 0.20924 0.37067 0.0
O308 O 0.03362 0.2436 0.29577 0.0
O309 O 0.12163 0.20818 0.29531 0.0
O310 O 0.08328 0.15222 0.36783 0.0
O311 O 0.18323 0.25668 0.38952 0.0
O312 O 0.22377 0.36525 0.33388 0.0
O313 O 0.28199 0.4043 0.39218 0.0
H314 H 0.14829 0.44594 0.542 0.0
H315 H 0.10711 0.38921 0.59989 0.0
H316 H 0.15527 0.2048 0.566 0.0
H317 H 0.19651 0.26135 0.50896 0.0
H318 H 0.12745 0.16795 0.22099 0.0
H319 H 0.16869 0.22478 0.16313 0.0
H320 H 0.11899 0.40823 0.19678 0.0
H321 H 0.07761 0.35152 0.25377 0.0
C322 C 0.57827 0.79652 0.48731 0.0
Eu323 Eu 0.60357 0.79872 0.4184 0.0
C324 C 0.61819 0.80339 0.52306 0.0
C325 C 0.57706 0.7513 0.54884 0.0
C326 C 0.61165 0.7605 0.58392 0.0
C327 C 0.68761 0.82256 0.59377 0.0
C328 C 0.72988 0.87246 0.56746 0.0
C329 C 0.69571 0.86276 0.53237 0.0
C330 C 0.51661 0.67592 0.36851 0.0
C331 C 0.74242 0.75898 0.40523 0.0
C332 C 0.69706 0.81718 0.27551 0.0
Eu333 Eu 0.67163 0.81479 0.34441 0.0
C334 C 0.65714 0.81033 0.23976 0.0
C335 C 0.69828 0.86238 0.21396 0.0
C336 C 0.66366 0.85318 0.17889 0.0
C337 C 0.58766 0.79118 0.16907 0.0
C338 C 0.54538 0.74133 0.19539 0.0
C339 C 0.57959 0.75102 0.23047 0.0
C340 C 0.75846 0.93748 0.39448 0.0
C341 C 0.53271 0.85444 0.35759 0.0
O342 O 0.60462 0.85969 0.46996 0.0
O343 O 0.55859 0.73339 0.46569 0.0
O344 O 0.48773 0.70209 0.3929 0.0
O345 O 0.59015 0.71274 0.37255 0.0
O346 O 0.70904 0.78517 0.42814 0.0
O347 O 0.73124 0.75624 0.36965 0.0
O348 O 0.67073 0.75397 0.29283 0.0
O349 O 0.71668 0.88026 0.29715 0.0
O350 O 0.78747 0.91136 0.37013 0.0
O351 O 0.68497 0.9007 0.39018 0.0
O352 O 0.56608 0.82825 0.33468 0.0
O353 O 0.54394 0.85723 0.39316 0.0
H354 H 0.51735 0.7047 0.54213 0.0
H355 H 0.57797 0.72147 0.60376 0.0
H356 H 0.78898 0.92019 0.57437 0.0
H357 H 0.72927 0.9028 0.51285 0.0
H358 H 0.75802 0.90892 0.22066 0.0
H359 H 0.69734 0.89218 0.15904 0.0
H360 H 0.48626 0.69365 0.18849 0.0
H361 H 0.54602 0.71102 0.25 0.0
C362 C 0.06077 0.79953 0.27643 0.0
Eu363 Eu 0.10271 0.80874 0.34497 0.0
C364 C 0.09044 0.79388 0.24119 0.0
C365 C 0.07793 0.82999 0.21227 0.0
C366 C 0.10425 0.82403 0.1783 0.0
C367 C 0.14294 0.78146 0.17289 0.0
C368 C 0.15684 0.74655 0.20195 0.0
C369 C 0.13131 0.75326 0.23603 0.0
C370 C 0.13207 0.92999 0.39378 0.0
C371 C 0.28785 0.86621 0.35611 0.0
C372 C 0.21444 0.81392 0.48655 0.0
Eu373 Eu 0.17262 0.80498 0.41802 0.0
C374 C 0.18469 0.81961 0.52177 0.0
C375 C 0.1968 0.78322 0.55067 0.0
C376 C 0.17038 0.78922 0.58462 0.0
C377 C 0.132 0.83209 0.59002 0.0
C378 C 0.1185 0.86728 0.56097 0.0
C379 C 0.14412 0.86054 0.52691 0.0
C380 C 0.14321 0.68385 0.36901 0.0
C381 C -0.01249 0.74765 0.40689 0.0
O382 O 0.0358 0.73844 0.29516 0.0
O383 O 0.10197 0.86606 0.2966 0.0
O384 O 0.07271 0.89619 0.3699 0.0
O385 O 0.17624 0.9016 0.38963 0.0
O386 O 0.22479 0.83668 0.3334 0.0
O387 O 0.28452 0.86955 0.39166 0.0
O388 O 0.23962 0.87507 0.46785 0.0
O389 O 0.17315 0.74745 0.46635 0.0
O390 O 0.20268 0.71764 0.39284 0.0
O391 O 0.09906 0.71216 0.37344 0.0
O392 O 0.05057 0.77722 0.42959 0.0
O393 O -0.00917 0.74423 0.37134 0.0
H394 H 0.04706 0.8621 0.2159 0.0
H395 H 0.09283 0.85095 0.15603 0.0
H396 H 0.18667 0.71347 0.19811 0.0
H397 H 0.14269 0.72609 0.25819 0.0
H398 H 0.22743 0.75087 0.54706 0.0
H399 H 0.1815 0.76208 0.60688 0.0
H400 H 0.0889 0.90059 0.56479 0.0
H401 H 0.13303 0.88792 0.50476 0.0
C402 C 0.86989 0.72802 0.82031 0.0
Eu403 Eu 0.83464 0.68325 0.75113 0.0
C404 C 0.84305 0.69188 0.85449 0.0
C405 C 0.81626 0.7264 0.88036 0.0
C406 C 0.79221 0.69373 0.91325 0.0
C407 C 0.79524 0.62638 0.92078 0.0
C408 C 0.81997 0.59073 0.89443 0.0
C409 C 0.84363 0.62314 0.86167 0.0
C410 C 0.79971 0.76323 0.70418 0.0
C411 C 0.65559 0.53969 0.73944 0.0
C412 C 0.73841 0.55198 0.60922 0.0
Eu413 Eu 0.77352 0.59683 0.67839 0.0
C414 C 0.76524 0.58817 0.57505 0.0
C415 C 0.79248 0.55396 0.54925 0.0
C416 C 0.81657 0.5867 0.51638 0.0
C417 C 0.81314 0.65381 0.50878 0.0
C418 C 0.78795 0.68915 0.53506 0.0
C419 C 0.76422 0.65666 0.5678 0.0
C420 C 0.80846 0.51711 0.72544 0.0
C421 C 0.9525 0.74055 0.69007 0.0
O422 O 0.90786 0.70292 0.8004 0.0
O423 O 0.82006 0.73861 0.80092 0.0
O424 O 0.85811 0.79468 0.72853 0.0
O425 O 0.75842 0.69026 0.70662 0.0
O426 O 0.71765 0.58162 0.7623 0.0
O427 O 0.65948 0.54257 0.704 0.0
O428 O 0.70029 0.57693 0.6291 0.0
O429 O 0.78829 0.54151 0.62864 0.0
O430 O 0.74995 0.48555 0.70116 0.0
O431 O 0.84989 0.59001 0.72285 0.0
O432 O 0.89043 0.69858 0.66721 0.0
O433 O 0.94865 0.73763 0.72551 0.0
H434 H 0.81495 0.77926 0.87533 0.0
H435 H 0.77377 0.72253 0.93323 0.0
H436 H 0.82196 0.53814 0.89934 0.0
H437 H 0.86319 0.5947 0.8423 0.0
H438 H 0.79412 0.50129 0.55433 0.0
H439 H 0.83535 0.55812 0.49646 0.0
H440 H 0.78565 0.74156 0.53011 0.0
H441 H 0.74427 0.68485 0.58711 0.0
C442 C 0.24494 0.12985 0.82064 0.0
Eu443 Eu 0.27023 0.13206 0.75173 0.0
C444 C 0.28486 0.13673 0.85639 0.0
C445 C 0.24373 0.08462 0.88217 0.0
C446 C 0.27832 0.09383 0.91725 0.0
C447 C 0.35428 0.1559 0.9271 0.0
C448 C 0.39654 0.20581 0.90079 0.0
C449 C 0.36237 0.1961 0.8657 0.0
C450 C 0.18328 0.00925 0.70184 0.0
C451 C 0.40908 0.09232 0.73856 0.0
C452 C 0.36373 0.15052 0.60884 0.0
Eu453 Eu 0.3383 0.14812 0.67774 0.0
C454 C 0.32381 0.14366 0.5731 0.0
C455 C 0.36494 0.19571 0.5473 0.0
C456 C 0.33032 0.18652 0.51223 0.0
C457 C 0.25432 0.12452 0.5024 0.0
C458 C 0.21205 0.07466 0.52872 0.0
C459 C 0.24626 0.08435 0.56381 0.0
C460 C 0.42512 0.27081 0.72781 0.0
C461 C 0.19937 0.18777 0.69093 0.0
O462 O 0.27128 0.19302 0.80329 0.0
O463 O 0.22526 0.06672 0.79903 0.0
O464 O 0.1544 0.03542 0.72623 0.0
O465 O 0.25682 0.04607 0.70588 0.0
O466 O 0.37571 0.11851 0.76147 0.0
O467 O 0.3979 0.08957 0.70299 0.0
O468 O 0.3374 0.08731 0.62617 0.0
O469 O 0.38335 0.21359 0.63048 0.0
O470 O 0.45414 0.24469 0.70346 0.0
O471 O 0.35164 0.23403 0.72351 0.0
O472 O 0.23275 0.16158 0.66801 0.0
O473 O 0.2106 0.19056 0.7265 0.0
H474 H 0.18402 0.03803 0.87546 0.0
H475 H 0.24464 0.05479 0.93709 0.0
H476 H 0.45564 0.25353 0.90771 0.0
H477 H 0.39593 0.23614 0.84619 0.0
H478 H 0.42468 0.24226 0.55399 0.0
H479 H 0.364 0.22552 0.49237 0.0
H480 H 0.15293 0.02698 0.52183 0.0
H481 H 0.21269 0.04435 0.58333 0.0
C482 C 0.72743 0.13286 0.60977 0.0
Eu483 Eu 0.76937 0.14207 0.6783 0.0
C484 C 0.7571 0.12721 0.57452 0.0
C485 C 0.74459 0.16332 0.54561 0.0
C486 C 0.77091 0.15735 0.51163 0.0
C487 C 0.8096 0.1148 0.50622 0.0
C488 C 0.82351 0.07989 0.53528 0.0
C489 C 0.79798 0.08659 0.56937 0.0
C490 C 0.79874 0.26332 0.72711 0.0
C491 C 0.95452 0.19955 0.68944 0.0
C492 C 0.88111 0.14726 0.81988 0.0
Eu493 Eu 0.83929 0.13831 0.75136 0.0
C494 C 0.85136 0.15295 0.8551 0.0
C495 C 0.8635 0.11658 0.88401 0.0
C496 C 0.83708 0.12258 0.91796 0.0
C497 C 0.79867 0.16543 0.92335 0.0
C498 C 0.78514 0.20058 0.8943 0.0
C499 C 0.81076 0.19385 0.86024 0.0
C500 C 0.80987 0.01718 0.70234 0.0
C501 C 0.65417 0.08098 0.74022 0.0
O502 O 0.70247 0.07177 0.62849 0.0
O503 O 0.76863 0.19939 0.62994 0.0
O504 O 0.73937 0.22952 0.70324 0.0
O505 O 0.8429 0.23493 0.72296 0.0
O506 O 0.89146 0.17001 0.66674 0.0
O507 O 0.95119 0.20288 0.725 0.0
O508 O 0.90629 0.20841 0.80119 0.0
O509 O 0.83982 0.08079 0.79968 0.0
O510 O 0.86934 0.05097 0.72617 0.0
O511 O 0.76573 0.04549 0.70677 0.0
O512 O 0.71724 0.11055 0.76293 0.0
O513 O 0.65749 0.07757 0.70467 0.0
H514 H 0.71371 0.19541 0.54923 0.0
H515 H 0.75948 0.18427 0.48936 0.0
H516 H 0.85335 0.04681 0.53144 0.0
H517 H 0.80937 0.05944 0.59152 0.0
H518 H 0.89415 0.08426 0.88041 0.0
H519 H 0.84822 0.09546 0.94022 0.0
H520 H 0.75551 0.23388 0.89812 0.0
H521 H 0.79965 0.2212 0.83809 0.0
loop_
_geom_bond_atom_site_label_1
_geom_bond_atom_site_label_2
_geom_bond_distance
_geom_bond_site_symmetry_2
_ccdc_geom_bond_type
H0 C3 0.931 . S
H1 C6 0.928 . S
H2 C8 0.930 . S
C3 H0 0.931 . S
C3 C4 1.413 . S
C3 C5 1.360 . S
C4 C3 1.413 . S
C4 C8 1.429 . S
C5 C3 1.360 . S
C5 C6 1.372 . S
C6 H1 0.928 . S
C6 C5 1.372 . S
C6 C7 1.404 . S
C7 C6 1.404 . S
C7 C8 1.391 . S
C8 H2 0.930 . S
C8 C4 1.429 . S
C8 C7 1.391 . S
H9 C12 0.931 . S
H10 C15 0.928 . S
H11 C17 0.930 . S
C12 H9 0.931 . S
C12 C13 1.413 . S
C12 C14 1.360 . S
C13 C12 1.413 . S
C13 C17 1.429 . S
C14 C12 1.360 . S
C14 C15 1.372 . S
C15 H10 0.928 . S
C15 C14 1.372 . S
C15 C16 1.404 . S
C16 C15 1.404 . S
C16 C17 1.391 . S
C17 H11 0.930 . S
C17 C13 1.429 . S
C17 C16 1.391 . S
H18 C21 0.931 . S
H19 C24 0.928 . S
H20 C26 0.930 . S
C21 H18 0.931 . S
C21 C22 1.413 . S
C21 C23 1.360 . S
C22 C21 1.413 . S
C22 C26 1.429 . S
C23 C21 1.360 . S
C23 C24 1.372 . S
C24 H19 0.928 . S
C24 C23 1.372 . S
C24 C25 1.404 . S
C25 C24 1.404 . S
C25 C26 1.391 . S
C26 H20 0.930 . S
C26 C22 1.429 . S
C26 C25 1.391 . S
H27 C30 0.931 . S
H28 C33 0.928 . S
H29 C35 0.930 . S
C30 H27 0.931 . S
C30 C31 1.413 . S
C30 C32 1.360 . S
C31 C30 1.413 . S
C31 C35 1.429 . S
C32 C30 1.360 . S
C32 C33 1.372 . S
C33 H28 0.928 . S
C33 C32 1.372 . S
C33 C34 1.404 . S
C34 C33 1.404 . S
C34 C35 1.391 . S
C35 H29 0.930 . S
C35 C31 1.429 . S
C35 C34 1.391 . S
H36 C39 0.931 . S
H37 C42 0.928 . S
H38 C44 0.930 . S
C39 H36 0.931 . S
C39 C40 1.413 . S
C39 C41 1.360 . S
C40 C39 1.413 . S
C40 C44 1.429 . S
C41 C39 1.360 . S
C41 C42 1.372 . S
C42 H37 0.928 . S
C42 C41 1.372 . S
C42 C43 1.404 . S
C43 C42 1.404 . S
C43 C44 1.391 . S
C44 H38 0.930 . S
C44 C40 1.429 . S
C44 C43 1.391 . S
H45 C48 0.931 . S
H46 C51 0.928 . S
H47 C53 0.930 . S
C48 H45 0.931 . S
C48 C49 1.413 . S
C48 C50 1.360 . S
C49 C48 1.413 . S
C49 C53 1.429 . S
C50 C48 1.360 . S
C50 C51 1.372 . S
C51 H46 0.928 . S
C51 C50 1.372 . S
C51 C52 1.404 . S
C52 C51 1.404 . S
C52 C53 1.391 . S
C53 H47 0.930 . S
C53 C49 1.429 . S
C53 C52 1.391 . S
H54 C57 0.931 . S
H55 C60 0.928 . S
H56 C62 0.930 . S
C57 H54 0.931 . S
C57 C58 1.413 . S
C57 C59 1.360 . S
C58 C57 1.413 . S
C58 C62 1.429 . S
C59 C57 1.360 . S
C59 C60 1.372 . S
C60 H55 0.928 . S
C60 C59 1.372 . S
C60 C61 1.404 . S
C61 C60 1.404 . S
C61 C62 1.391 . S
C62 H56 0.930 . S
C62 C58 1.429 . S
C62 C61 1.391 . S
H63 C66 0.931 . S
H64 C69 0.928 . S
H65 C71 0.930 . S
C66 H63 0.931 . S
C66 C67 1.413 . S
C66 C68 1.360 . S
C67 C66 1.413 . S
C67 C71 1.429 . S
C68 C66 1.360 . S
C68 C69 1.372 . S
C69 H64 0.928 . S
C69 C68 1.372 . S
C69 C70 1.404 . S
C70 C69 1.404 . S
C70 C71 1.391 . S
C71 H65 0.930 . S
C71 C67 1.429 . S
C71 C70 1.391 . S
H72 C75 0.931 . S
H73 C78 0.928 . S
H74 C80 0.930 . S
C75 H72 0.931 . S
C75 C76 1.413 . S
C75 C77 1.360 . S
C76 C75 1.413 . S
C76 C80 1.429 . S
C77 C75 1.360 . S
C77 C78 1.372 . S
C78 H73 0.928 . S
C78 C77 1.372 . S
C78 C79 1.404 . S
C79 C78 1.404 . S
C79 C80 1.391 . S
C80 H74 0.930 . S
C80 C76 1.429 . S
C80 C79 1.391 . S
H81 C84 0.931 . S
H82 C87 0.928 . S
H83 C89 0.926 1_554 S
C84 H81 0.931 . S
C84 C85 1.413 . S
C84 C86 1.360 . S
C85 C84 1.413 . S
C85 C89 1.429 . S
C86 C84 1.360 . S
C86 C87 1.372 . S
C87 H82 0.928 . S
C87 C86 1.372 . S
C87 C88 1.404 . S
C88 C87 1.404 . S
C88 C89 1.391 . S
C89 H83 0.926 1_556 S
C89 C85 1.429 . S
C89 C88 1.391 . S
H90 C93 0.931 . S
H91 C96 0.928 . S
H92 C98 0.930 1_554 S
C93 H90 0.931 . S
C93 C94 1.413 . S
C93 C95 1.360 . S
C94 C93 1.413 . S
C94 C98 1.429 . S
C95 C93 1.360 . S
C95 C96 1.372 . S
C96 H91 0.928 . S
C96 C95 1.372 . S
C96 C97 1.404 . S
C97 C96 1.404 . S
C97 C98 1.391 . S
C98 H92 0.930 1_556 S
C98 C94 1.429 . S
C98 C97 1.391 . S
H99 C102 0.931 . S
H100 C105 0.928 . S
H101 C107 0.930 1_554 S
C102 H99 0.931 . S
C102 C103 1.413 . S
C102 C104 1.360 . S
C103 C102 1.413 . S
C103 C107 1.429 . S
C104 C102 1.360 . S
C104 C105 1.372 . S
C105 H100 0.928 . S
C105 C104 1.372 . S
C105 C106 1.404 . S
C106 C105 1.404 . S
C106 C107 1.391 . S
C107 H101 0.930 1_556 S
C107 C103 1.429 . S
C107 C106 1.391 . S
H108 C111 0.931 . S
H109 C114 0.928 . S
H110 C116 0.930 1_556 S
C111 H108 0.931 . S
C111 C112 1.413 . S
C111 C113 1.360 . S
C112 C111 1.413 . S
C112 C116 1.429 . S
C113 C111 1.360 . S
C113 C114 1.372 . S
C114 H109 0.928 . S
C114 C113 1.372 . S
C114 C115 1.404 . S
C115 C114 1.404 . S
C115 C116 1.391 . S
C116 H110 0.930 1_554 S
C116 C112 1.429 . S
C116 C115 1.391 . S
H117 C120 0.931 . S
H118 C123 0.928 . S
H119 C125 0.930 1_556 S
C120 H117 0.931 . S
C120 C121 1.413 . S
C120 C122 1.360 . S
C121 C120 1.413 . S
C121 C125 1.429 . S
C122 C120 1.360 . S
C122 C123 1.372 . S
C123 H118 0.928 . S
C123 C122 1.372 . S
C123 C124 1.404 . S
C124 C123 1.404 . S
C124 C125 1.391 . S
C125 H119 0.930 1_554 S
C125 C121 1.429 . S
C125 C124 1.391 . S
H126 C129 0.931 . S
H127 C132 0.928 . S
H128 C134 0.930 . S
C129 H126 0.931 . S
C129 C130 1.413 . S
C129 C131 1.360 . S
C130 C129 1.413 . S
C130 C134 1.429 . S
C131 C129 1.360 . S
C131 C132 1.372 . S
C132 H127 0.928 . S
C132 C131 1.372 . S
C132 C133 1.404 . S
C133 C132 1.404 . S
C133 C134 1.391 . S
C134 H128 0.930 . S
C134 C130 1.429 . S
C134 C133 1.391 . S
H135 C138 0.931 . S
H136 C141 0.928 . S
H137 C143 0.930 . S
C138 H135 0.931 . S
C138 C139 1.413 . S
C138 C140 1.360 . S
C139 C138 1.413 . S
C139 C143 1.429 . S
C140 C138 1.360 . S
C140 C141 1.372 . S
C141 H136 0.928 . S
C141 C140 1.372 . S
C141 C142 1.404 . S
C142 C141 1.404 . S
C142 C143 1.391 . S
C143 H137 0.930 . S
C143 C139 1.429 . S
C143 C142 1.391 . S
H144 C147 0.931 . S
H145 C150 0.928 . S
H146 C152 0.930 . S
C147 H144 0.931 . S
C147 C148 1.413 . S
C147 C149 1.360 . S
C148 C147 1.413 . S
C148 C152 1.429 . S
C149 C147 1.360 . S
C149 C150 1.372 . S
C150 H145 0.928 . S
C150 C149 1.372 . S
C150 C151 1.404 . S
C151 C150 1.404 . S
C151 C152 1.391 . S
C152 H146 0.930 . S
C152 C148 1.429 . S
C152 C151 1.391 . S
H153 C156 0.931 . S
H154 C159 0.928 . S
H155 C161 0.930 . S
C156 H153 0.931 . S
C156 C157 1.413 . S
C156 C158 1.360 . S
C157 C156 1.413 . S
C157 C161 1.429 . S
C158 C156 1.360 . S
C158 C159 1.372 . S
C159 H154 0.928 . S
C159 C158 1.372 . S
C159 C160 1.404 . S
C160 C159 1.404 . S
C160 C161 1.391 . S
C161 H155 0.930 . S
C161 C157 1.429 . S
C161 C160 1.391 . S
C162 Eu163 2.835 . S
C162 C164 1.500 . S
C162 O182 1.257 1_545 S
C162 O183 1.260 . S
Eu163 C162 2.835 . S
Eu163 O182 2.473 1_545 S
Eu163 O183 2.480 . S
Eu163 O184 2.430 . S
Eu163 O185 2.670 1_554 S
Eu163 O186 2.394 1_545 S
Eu163 O191 2.355 1_545 S
Eu163 O193 2.374 . S
C164 C162 1.500 . S
C164 C165 1.377 . S
C164 C169 1.377 1_545 S
C165 C164 1.377 . S
C165 C166 1.395 . S
C165 H194 0.931 . S
C166 C165 1.395 . S
C166 C167 1.383 . S
C166 H195 0.931 . S
C167 C166 1.383 . S
C167 C168 1.394 1_545 S
C168 C167 1.394 1_565 S
C168 C169 1.378 . S
C168 H196 0.931 . S
C169 C164 1.377 1_565 S
C169 C168 1.378 . S
C169 H197 0.931 . S
C170 O184 1.259 1_556 S
C170 O185 1.270 . S
C171 O186 1.251 . S
C171 O187 1.251 1_554 S
C172 Eu173 2.835 . S
C172 C174 1.500 . S
C172 O188 1.257 1_565 S
C172 O189 1.260 . S
Eu173 C172 2.835 . S
Eu173 O185 2.355 1_565 S
Eu173 O187 2.374 . S
Eu173 O188 2.473 1_565 S
Eu173 O189 2.480 . S
Eu173 O190 2.430 . S
Eu173 O191 2.670 1_556 S
Eu173 O192 2.394 1_565 S
C174 C172 1.500 . S
C174 C175 1.377 . S
C174 C179 1.377 1_565 S
C175 C174 1.377 . S
C175 C176 1.395 . S
C175 H198 0.931 . S
C176 C175 1.395 . S
C176 C177 1.383 . S
C176 H199 0.931 . S
C177 C176 1.383 . S
C177 C178 1.394 1_565 S
C178 C177 1.394 1_545 S
C178 C179 1.378 . S
C178 H200 0.931 . S
C179 C174 1.377 1_545 S
C179 C178 1.378 . S
C179 H201 0.931 . S
C180 O190 1.259 1_554 S
C180 O191 1.270 . S
C181 O192 1.251 . S
C181 O193 1.251 1_556 S
O182 C162 1.257 1_565 S
O182 Eu163 2.473 1_565 S
O183 C162 1.260 . S
O183 Eu163 2.480 . S
O184 Eu163 2.430 . S
O184 C170 1.259 1_554 S
O185 Eu163 2.670 1_556 S
O185 C170 1.270 . S
O185 Eu173 2.355 1_545 S
O186 Eu163 2.394 1_565 S
O186 C171 1.251 . S
O187 C171 1.251 1_556 S
O187 Eu173 2.374 . S
O188 C172 1.257 1_545 S
O188 Eu173 2.473 1_545 S
O189 C172 1.260 . S
O189 Eu173 2.480 . S
O190 Eu173 2.430 . S
O190 C180 1.259 1_556 S
O191 Eu163 2.355 1_565 S
O191 Eu173 2.670 1_554 S
O191 C180 1.270 . S
O192 Eu173 2.394 1_545 S
O192 C181 1.251 . S
O193 Eu163 2.374 . S
O193 C181 1.251 1_554 S
H194 C165 0.931 . S
H195 C166 0.931 . S
H196 C168 0.931 . S
H197 C169 0.931 . S
H198 C175 0.931 . S
H199 C176 0.931 . S
H200 C178 0.931 . S
H201 C179 0.931 . S
C202 Eu203 2.835 . S
C202 C204 1.499 1_655 S
C202 O222 1.257 1_655 S
C202 O223 1.260 . S
Eu203 C202 2.835 . S
Eu203 O222 2.473 1_655 S
Eu203 O223 2.480 . S
Eu203 O224 2.430 . S
Eu203 O225 2.670 1_554 S
Eu203 O226 2.394 1_655 S
Eu203 O231 2.355 1_655 S
Eu203 O233 2.374 . S
C204 C202 1.499 1_455 S
C204 C205 1.376 1_455 S
C204 C209 1.379 . S
C205 C204 1.376 1_655 S
C205 C206 1.395 . S
C205 H234 0.931 . S
C206 C205 1.395 . S
C206 C207 1.383 1_655 S
C206 H235 0.931 . S
C207 C206 1.383 1_455 S
C207 C208 1.394 . S
C208 C207 1.394 . S
C208 C209 1.378 . S
C208 H236 0.931 . S
C209 C204 1.379 . S
C209 C208 1.378 . S
C209 H237 0.931 . S
C210 O224 1.259 1_556 S
C210 O225 1.270 . S
C211 O226 1.251 . S
C211 O227 1.251 . S
C212 Eu213 2.835 . S
C212 C214 1.500 1_455 S
C212 O228 1.257 1_455 S
C212 O229 1.260 . S
Eu213 C212 2.835 . S
Eu213 O225 2.355 1_455 S
Eu213 O227 2.374 1_556 S
Eu213 O228 2.473 1_455 S
Eu213 O229 2.480 . S
Eu213 O230 2.430 . S
Eu213 O231 2.670 1_556 S
Eu213 O232 2.394 1_455 S
C214 C212 1.500 1_655 S
C214 C215 1.377 1_655 S
C214 C219 1.378 . S
C215 C214 1.377 1_455 S
C215 C216 1.395 . S
C215 H238 0.931 . S
C216 C215 1.395 . S
C216 C217 1.383 1_455 S
C216 H239 0.931 . S
C217 C216 1.383 1_655 S
C217 C218 1.394 . S
C218 C217 1.394 . S
C218 C219 1.378 . S
C218 H240 0.931 . S
C219 C214 1.378 . S
C219 C218 1.378 . S
C219 H241 0.931 . S
C220 O230 1.259 1_554 S
C220 O231 1.270 . S
C221 O232 1.251 . S
C221 O233 1.251 1_556 S
O222 C202 1.257 1_455 S
O222 Eu203 2.473 1_455 S
O223 C202 1.260 . S
O223 Eu203 2.480 . S
O224 Eu203 2.430 . S
O224 C210 1.259 1_554 S
O225 Eu203 2.670 1_556 S
O225 C210 1.270 . S
O225 Eu213 2.355 1_655 S
O226 Eu203 2.394 1_455 S
O226 C211 1.251 . S
O227 C211 1.251 . S
O227 Eu213 2.374 1_554 S
O228 C212 1.257 1_655 S
O228 Eu213 2.473 1_655 S
O229 C212 1.260 . S
O229 Eu213 2.480 . S
O230 Eu213 2.430 . S
O230 C220 1.259 1_556 S
O231 Eu203 2.355 1_455 S
O231 Eu213 2.670 1_554 S
O231 C220 1.270 . S
O232 Eu213 2.394 1_655 S
O232 C221 1.251 . S
O233 Eu203 2.374 . S
O233 C221 1.251 1_554 S
H234 C205 0.931 . S
H235 C206 0.931 . S
H236 C208 0.931 . S
H237 C209 0.931 . S
H238 C215 0.931 . S
H239 C216 0.931 . S
H240 C218 0.931 . S
H241 C219 0.931 . S
C242 Eu243 2.835 . S
C242 C244 1.500 . S
C242 O262 1.257 . S
C242 O263 1.260 . S
Eu243 C242 2.835 . S
Eu243 O262 2.473 . S
Eu243 O263 2.480 . S
Eu243 O264 2.430 . S
Eu243 O265 2.670 1_556 S
Eu243 O266 2.394 . S
Eu243 O271 2.355 . S
Eu243 O273 2.384 . S
C244 C242 1.500 . S
C244 C245 1.377 . S
C244 C249 1.377 . S
C245 C244 1.377 . S
C245 C246 1.395 . S
C245 H274 0.931 . S
C246 C245 1.395 . S
C246 C247 1.383 . S
C246 H275 0.931 . S
C247 C246 1.383 . S
C247 C248 1.394 . S
C248 C247 1.394 . S
C248 C249 1.378 . S
C248 H276 0.931 . S
C249 C244 1.377 . S
C249 C248 1.378 . S
C249 H277 0.931 . S
C250 O264 1.259 1_554 S
C250 O265 1.270 . S
C251 O266 1.251 . S
C251 O267 1.251 1_556 S
C252 Eu253 2.835 . S
C252 C254 1.500 . S
C252 O268 1.257 . S
C252 O269 1.260 . S
Eu253 C252 2.835 . S
Eu253 O265 2.355 . S
Eu253 O267 2.374 . S
Eu253 O268 2.473 . S
Eu253 O269 2.480 . S
Eu253 O270 2.430 . S
Eu253 O271 2.670 1_554 S
Eu253 O272 2.394 . S
C254 C252 1.500 . S
C254 C255 1.377 . S
C254 C259 1.377 . S
C255 C254 1.377 . S
C255 C256 1.395 . S
C255 H278 0.931 . S
C256 C255 1.395 . S
C256 C257 1.383 . S
C256 H279 0.931 . S
C257 C256 1.383 . S
C257 C258 1.394 . S
C258 C257 1.394 . S
C258 C259 1.378 . S
C258 H280 0.931 . S
C259 C254 1.377 . S
C259 C258 1.378 . S
C259 H281 0.931 . S
C260 O270 1.259 1_556 S
C260 O271 1.270 . S
C261 O272 1.251 . S
C261 O273 1.239 1_554 S
O262 C242 1.257 . S
O262 Eu243 2.473 . S
O263 C242 1.260 . S
O263 Eu243 2.480 . S
O264 Eu243 2.430 . S
O264 C250 1.259 1_556 S
O265 Eu243 2.670 1_554 S
O265 C250 1.270 . S
O265 Eu253 2.355 . S
O266 Eu243 2.394 . S
O266 C251 1.251 . S
O267 C251 1.251 1_554 S
O267 Eu253 2.374 . S
O268 C252 1.257 . S
O268 Eu253 2.473 . S
O269 C252 1.260 . S
O269 Eu253 2.480 . S
O270 Eu253 2.430 . S
O270 C260 1.259 1_554 S
O271 Eu243 2.355 . S
O271 Eu253 2.670 1_556 S
O271 C260 1.270 . S
O272 Eu253 2.394 . S
O272 C261 1.251 . S
O273 Eu243 2.384 . S
O273 C261 1.239 1_556 S
H274 C245 0.931 . S
H275 C246 0.931 . S
H276 C248 0.931 . S
H277 C249 0.931 . S
H278 C255 0.931 . S
H279 C256 0.931 . S
H280 C258 0.931 . S
H281 C259 0.931 . S
C282 Eu283 2.835 . S
C282 C284 1.500 . S
C282 O302 1.257 . S
C282 O303 1.260 . S
Eu283 C282 2.835 . S
Eu283 O302 2.473 . S
Eu283 O303 2.480 . S
Eu283 O304 2.430 . S
Eu283 O305 2.670 . S
Eu283 O306 2.394 . S
Eu283 O311 2.355 . S
Eu283 O313 2.374 . S
C284 C282 1.500 . S
C284 C285 1.377 . S
C284 C289 1.377 . S
C285 C284 1.377 . S
C285 C286 1.395 . S
C285 H314 0.931 . S
C286 C285 1.395 . S
C286 C287 1.383 . S
C286 H315 0.931 . S
C287 C286 1.383 . S
C287 C288 1.394 . S
C288 C287 1.394 . S
C288 C289 1.378 . S
C288 H316 0.931 . S
C289 C284 1.377 . S
C289 C288 1.378 . S
C289 H317 0.931 . S
C290 O304 1.259 . S
C290 O305 1.270 . S
C291 O306 1.251 . S
C291 O307 1.251 . S
C292 Eu293 2.835 . S
C292 C294 1.500 . S
C292 O308 1.257 . S
C292 O309 1.260 . S
Eu293 C292 2.835 . S
Eu293 O305 2.355 . S
Eu293 O307 2.374 . S
Eu293 O308 2.473 . S
Eu293 O309 2.480 . S
Eu293 O310 2.430 . S
Eu293 O311 2.670 . S
Eu293 O312 2.394 . S
C294 C292 1.500 . S
C294 C295 1.377 . S
C294 C299 1.377 . S
C295 C294 1.377 . S
C295 C296 1.395 . S
C295 H318 0.931 . S
C296 C295 1.395 . S
C296 C297 1.383 . S
C296 H319 0.931 . S
C297 C296 1.383 . S
C297 C298 1.394 . S
C298 C297 1.394 . S
C298 C299 1.378 . S
C298 H320 0.931 . S
C299 C294 1.377 . S
C299 C298 1.378 . S
C299 H321 0.931 . S
C300 O310 1.259 . S
C300 O311 1.270 . S
C301 O312 1.251 . S
C301 O313 1.251 . S
O302 C282 1.257 . S
O302 Eu283 2.473 . S
O303 C282 1.260 . S
O303 Eu283 2.480 . S
O304 Eu283 2.430 . S
O304 C290 1.259 . S
O305 Eu283 2.670 . S
O305 C290 1.270 . S
O305 Eu293 2.355 . S
O306 Eu283 2.394 . S
O306 C291 1.251 . S
O307 C291 1.251 . S
O307 Eu293 2.374 . S
O308 C292 1.257 . S
O308 Eu293 2.473 . S
O309 C292 1.260 . S
O309 Eu293 2.480 . S
O310 Eu293 2.430 . S
O310 C300 1.259 . S
O311 Eu283 2.355 . S
O311 Eu293 2.670 . S
O311 C300 1.270 . S
O312 Eu293 2.394 . S
O312 C301 1.251 . S
O313 Eu283 2.374 . S
O313 C301 1.251 . S
H314 C285 0.931 . S
H315 C286 0.931 . S
H316 C288 0.931 . S
H317 C289 0.931 . S
H318 C295 0.931 . S
H319 C296 0.931 . S
H320 C298 0.931 . S
H321 C299 0.931 . S
C322 Eu323 2.835 . S
C322 C324 1.500 . S
C322 O342 1.257 . S
C322 O343 1.260 . S
Eu323 C322 2.835 . S
Eu323 O342 2.473 . S
Eu323 O343 2.480 . S
Eu323 O344 2.430 . S
Eu323 O345 2.670 . S
Eu323 O346 2.394 . S
Eu323 O351 2.355 . S
Eu323 O353 2.374 . S
C324 C322 1.500 . S
C324 C325 1.377 . S
C324 C329 1.377 . S
C325 C324 1.377 . S
C325 C326 1.395 . S
C325 H354 0.931 . S
C326 C325 1.395 . S
C326 C327 1.383 . S
C326 H355 0.931 . S
C327 C326 1.383 . S
C327 C328 1.394 . S
C328 C327 1.394 . S
C328 C329 1.378 . S
C328 H356 0.931 . S
C329 C324 1.377 . S
C329 C328 1.378 . S
C329 H357 0.931 . S
C330 O344 1.259 . S
C330 O345 1.270 . S
C331 O346 1.251 . S
C331 O347 1.251 . S
C332 Eu333 2.835 . S
C332 C334 1.500 . S
C332 O348 1.257 . S
C332 O349 1.260 . S
Eu333 C332 2.835 . S
Eu333 O345 2.355 . S
Eu333 O347 2.374 . S
Eu333 O348 2.473 . S
Eu333 O349 2.480 . S
Eu333 O350 2.433 . S
Eu333 O351 2.670 . S
Eu333 O352 2.394 . S
C334 C332 1.500 . S
C334 C335 1.377 . S
C334 C339 1.377 . S
C335 C334 1.377 . S
C335 C336 1.395 . S
C335 H358 0.931 . S
C336 C335 1.395 . S
C336 C337 1.383 . S
C336 H359 0.931 . S
C337 C336 1.383 . S
C337 C338 1.394 . S
C338 C337 1.394 . S
C338 C339 1.378 . S
C338 H360 0.931 . S
C339 C334 1.377 . S
C339 C338 1.378 . S
C339 H361 0.931 . S
C340 O350 1.259 . S
C340 O351 1.270 . S
C341 O352 1.251 . S
C341 O353 1.251 . S
O342 C322 1.257 . S
O342 Eu323 2.473 . S
O343 C322 1.260 . S
O343 Eu323 2.480 . S
O344 Eu323 2.430 . S
O344 C330 1.259 . S
O345 Eu323 2.670 . S
O345 C330 1.270 . S
O345 Eu333 2.355 . S
O346 Eu323 2.394 . S
O346 C331 1.251 . S
O347 C331 1.251 . S
O347 Eu333 2.374 . S
O348 C332 1.257 . S
O348 Eu333 2.473 . S
O349 C332 1.260 . S
O349 Eu333 2.480 . S
O350 Eu333 2.433 . S
O350 C340 1.259 . S
O351 Eu323 2.355 . S
O351 Eu333 2.670 . S
O351 C340 1.270 . S
O352 Eu333 2.394 . S
O352 C341 1.251 . S
O353 Eu323 2.374 . S
O353 C341 1.251 . S
H354 C325 0.931 . S
H355 C326 0.931 . S
H356 C328 0.931 . S
H357 C329 0.931 . S
H358 C335 0.931 . S
H359 C336 0.931 . S
H360 C338 0.931 . S
H361 C339 0.931 . S
C362 Eu363 2.835 . S
C362 C364 1.500 . S
C362 O382 1.257 . S
C362 O383 1.260 . S
Eu363 C362 2.835 . S
Eu363 O382 2.473 . S
Eu363 O383 2.480 . S
Eu363 O384 2.430 . S
Eu363 O385 2.670 . S
Eu363 O386 2.394 . S
Eu363 O391 2.355 . S
Eu363 O393 2.374 . S
C364 C362 1.500 . S
C364 C365 1.377 . S
C364 C369 1.377 . S
C365 C364 1.377 . S
C365 C366 1.395 . S
C365 H394 0.931 . S
C366 C365 1.395 . S
C366 C367 1.383 . S
C366 H395 0.931 . S
C367 C366 1.383 . S
C367 C368 1.394 . S
C368 C367 1.394 . S
C368 C369 1.378 . S
C368 H396 0.931 . S
C369 C364 1.377 . S
C369 C368 1.378 . S
C369 H397 0.931 . S
C370 O384 1.259 . S
C370 O385 1.270 . S
C371 O386 1.251 . S
C371 O387 1.251 . S
C372 Eu373 2.835 . S
C372 C374 1.500 . S
C372 O388 1.257 . S
C372 O389 1.260 . S
Eu373 C372 2.835 . S
Eu373 O385 2.355 . S
Eu373 O387 2.374 . S
Eu373 O388 2.473 . S
Eu373 O389 2.480 . S
Eu373 O390 2.430 . S
Eu373 O391 2.670 . S
Eu373 O392 2.394 . S
C374 C372 1.500 . S
C374 C375 1.377 . S
C374 C379 1.377 . S
C375 C374 1.377 . S
C375 C376 1.395 . S
C375 H398 0.931 . S
C376 C375 1.395 . S
C376 C377 1.383 . S
C376 H399 0.931 . S
C377 C376 1.383 . S
C377 C378 1.394 . S
C378 C377 1.394 . S
C378 C379 1.378 . S
C378 H400 0.931 . S
C379 C374 1.377 . S
C379 C378 1.378 . S
C379 H401 0.931 . S
C380 O390 1.259 . S
C380 O391 1.270 . S
C381 O392 1.251 . S
C381 O393 1.251 . S
O382 C362 1.257 . S
O382 Eu363 2.473 . S
O383 C362 1.260 . S
O383 Eu363 2.480 . S
O384 Eu363 2.430 . S
O384 C370 1.259 . S
O385 Eu363 2.670 . S
O385 C370 1.270 . S
O385 Eu373 2.355 . S
O386 Eu363 2.394 . S
O386 C371 1.251 . S
O387 C371 1.251 . S
O387 Eu373 2.374 . S
O388 C372 1.257 . S
O388 Eu373 2.473 . S
O389 C372 1.260 . S
O389 Eu373 2.480 . S
O390 Eu373 2.430 . S
O390 C380 1.259 . S
O391 Eu363 2.355 . S
O391 Eu373 2.670 . S
O391 C380 1.270 . S
O392 Eu373 2.394 . S
O392 C381 1.251 . S
O393 Eu363 2.374 . S
O393 C381 1.251 . S
H394 C365 0.931 . S
H395 C366 0.931 . S
H396 C368 0.931 . S
H397 C369 0.931 . S
H398 C375 0.931 . S
H399 C376 0.931 . S
H400 C378 0.931 . S
H401 C379 0.931 . S
C402 Eu403 2.835 . S
C402 C404 1.500 . S
C402 O422 1.257 . S
C402 O423 1.260 . S
Eu403 C402 2.835 . S
Eu403 O422 2.473 . S
Eu403 O423 2.480 . S
Eu403 O424 2.430 . S
Eu403 O425 2.670 . S
Eu403 O426 2.394 . S
Eu403 O431 2.355 . S
Eu403 O433 2.374 . S
C404 C402 1.500 . S
C404 C405 1.377 . S
C404 C409 1.377 . S
C405 C404 1.377 . S
C405 C406 1.395 . S
C405 H434 0.931 . S
C406 C405 1.395 . S
C406 C407 1.383 . S
C406 H435 0.931 . S
C407 C406 1.383 . S
C407 C408 1.394 . S
C408 C407 1.394 . S
C408 C409 1.378 . S
C408 H436 0.931 . S
C409 C404 1.377 . S
C409 C408 1.378 . S
C409 H437 0.931 . S
C410 O424 1.259 . S
C410 O425 1.270 . S
C411 O426 1.251 . S
C411 O427 1.251 . S
C412 Eu413 2.835 . S
C412 C414 1.500 . S
C412 O428 1.257 . S
C412 O429 1.260 . S
Eu413 C412 2.835 . S
Eu413 O425 2.355 . S
Eu413 O427 2.374 . S
Eu413 O428 2.473 . S
Eu413 O429 2.480 . S
Eu413 O430 2.430 . S
Eu413 O431 2.670 . S
Eu413 O432 2.394 . S
C414 C412 1.500 . S
C414 C415 1.377 . S
C414 C419 1.377 . S
C415 C414 1.377 . S
C415 C416 1.395 . S
C415 H438 0.931 . S
C416 C415 1.395 . S
C416 C417 1.383 . S
C416 H439 0.931 . S
C417 C416 1.383 . S
C417 C418 1.394 . S
C418 C417 1.394 . S
C418 C419 1.378 . S
C418 H440 0.931 . S
C419 C414 1.377 . S
C419 C418 1.378 . S
C419 H441 0.931 . S
C420 O430 1.259 . S
C420 O431 1.270 . S
C421 O432 1.251 . S
C421 O433 1.251 . S
O422 C402 1.257 . S
O422 Eu403 2.473 . S
O423 C402 1.260 . S
O423 Eu403 2.480 . S
O424 Eu403 2.430 . S
O424 C410 1.259 . S
O425 Eu403 2.670 . S
O425 C410 1.270 . S
O425 Eu413 2.355 . S
O426 Eu403 2.394 . S
O426 C411 1.251 . S
O427 C411 1.251 . S
O427 Eu413 2.374 . S
O428 C412 1.257 . S
O428 Eu413 2.473 . S
O429 C412 1.260 . S
O429 Eu413 2.480 . S
O430 Eu413 2.430 . S
O430 C420 1.259 . S
O431 Eu403 2.355 . S
O431 Eu413 2.670 . S
O431 C420 1.270 . S
O432 Eu413 2.394 . S
O432 C421 1.251 . S
O433 Eu403 2.374 . S
O433 C421 1.251 . S
H434 C405 0.931 . S
H435 C406 0.931 . S
H436 C408 0.931 . S
H437 C409 0.931 . S
H438 C415 0.931 . S
H439 C416 0.931 . S
H440 C418 0.931 . S
H441 C419 0.931 . S
C442 Eu443 2.835 . S
C442 C444 1.500 . S
C442 O462 1.257 . S
C442 O463 1.260 . S
Eu443 C442 2.835 . S
Eu443 O462 2.473 . S
Eu443 O463 2.480 . S
Eu443 O464 2.430 . S
Eu443 O465 2.670 . S
Eu443 O466 2.394 . S
Eu443 O471 2.355 . S
Eu443 O473 2.374 . S
C444 C442 1.500 . S
C444 C445 1.377 . S
C444 C449 1.377 . S
C445 C444 1.377 . S
C445 C446 1.395 . S
C445 H474 0.931 . S
C446 C445 1.395 . S
C446 C447 1.383 . S
C446 H475 0.931 . S
C447 C446 1.383 . S
C447 C448 1.394 . S
C448 C447 1.394 . S
C448 C449 1.378 . S
C448 H476 0.931 . S
C449 C444 1.377 . S
C449 C448 1.378 . S
C449 H477 0.931 . S
C450 O464 1.259 . S
C450 O465 1.270 . S
C451 O466 1.251 . S
C451 O467 1.251 . S
C452 Eu453 2.835 . S
C452 C454 1.500 . S
C452 O468 1.257 . S
C452 O469 1.260 . S
Eu453 C452 2.835 . S
Eu453 O465 2.355 . S
Eu453 O467 2.374 . S
Eu453 O468 2.473 . S
Eu453 O469 2.480 . S
Eu453 O470 2.430 . S
Eu453 O471 2.670 . S
Eu453 O472 2.394 . S
C454 C452 1.500 . S
C454 C455 1.377 . S
C454 C459 1.377 . S
C455 C454 1.377 . S
C455 C456 1.395 . S
C455 H478 0.931 . S
C456 C455 1.395 . S
C456 C457 1.383 . S
C456 H479 0.931 . S
C457 C456 1.383 . S
C457 C458 1.394 . S
C458 C457 1.394 . S
C458 C459 1.378 . S
C458 H480 0.931 . S
C459 C454 1.377 . S
C459 C458 1.378 . S
C459 H481 0.931 . S
C460 O470 1.259 . S
C460 O471 1.270 . S
C461 O472 1.251 . S
C461 O473 1.251 . S
O462 C442 1.257 . S
O462 Eu443 2.473 . S
O463 C442 1.260 . S
O463 Eu443 2.480 . S
O464 Eu443 2.430 . S
O464 C450 1.259 . S
O465 Eu443 2.670 . S
O465 C450 1.270 . S
O465 Eu453 2.355 . S
O466 Eu443 2.394 . S
O466 C451 1.251 . S
O467 C451 1.251 . S
O467 Eu453 2.374 . S
O468 C452 1.257 . S
O468 Eu453 2.473 . S
O469 C452 1.260 . S
O469 Eu453 2.480 . S
O470 Eu453 2.430 . S
O470 C460 1.259 . S
O471 Eu443 2.355 . S
O471 Eu453 2.670 . S
O471 C460 1.270 . S
O472 Eu453 2.394 . S
O472 C461 1.251 . S
O473 Eu443 2.374 . S
O473 C461 1.251 . S
H474 C445 0.931 . S
H475 C446 0.931 . S
H476 C448 0.931 . S
H477 C449 0.931 . S
H478 C455 0.931 . S
H479 C456 0.931 . S
H480 C458 0.931 . S
H481 C459 0.931 . S
C482 Eu483 2.835 . S
C482 C484 1.500 . S
C482 O502 1.257 . S
C482 O503 1.260 . S
Eu483 C482 2.835 . S
Eu483 O502 2.473 . S
Eu483 O503 2.480 . S
Eu483 O504 2.430 . S
Eu483 O505 2.670 . S
Eu483 O506 2.394 . S
Eu483 O511 2.355 . S
Eu483 O513 2.374 . S
C484 C482 1.500 . S
C484 C485 1.377 . S
C484 C489 1.377 . S
C485 C484 1.377 . S
C485 C486 1.395 . S
C485 H514 0.931 . S
C486 C485 1.395 . S
C486 C487 1.383 . S
C486 H515 0.931 . S
C487 C486 1.383 . S
C487 C488 1.394 . S
C488 C487 1.394 . S
C488 C489 1.378 . S
C488 H516 0.931 . S
C489 C484 1.377 . S
C489 C488 1.378 . S
C489 H517 0.931 . S
C490 O504 1.259 . S
C490 O505 1.270 . S
C491 O506 1.251 . S
C491 O507 1.251 . S
C492 Eu493 2.835 . S
C492 C494 1.500 . S
C492 O508 1.257 . S
C492 O509 1.260 . S
Eu493 C492 2.835 . S
Eu493 O505 2.355 . S
Eu493 O507 2.374 . S
Eu493 O508 2.473 . S
Eu493 O509 2.480 . S
Eu493 O510 2.430 . S
Eu493 O511 2.670 . S
Eu493 O512 2.394 . S
C494 C492 1.500 . S
C494 C495 1.377 . S
C494 C499 1.377 . S
C495 C494 1.377 . S
C495 C496 1.395 . S
C495 H518 0.931 . S
C496 C495 1.395 . S
C496 C497 1.383 . S
C496 H519 0.931 . S
C497 C496 1.383 . S
C497 C498 1.394 . S
C498 C497 1.394 . S
C498 C499 1.378 . S
C498 H520 0.931 . S
C499 C494 1.377 . S
C499 C498 1.378 . S
C499 H521 0.931 . S
C500 O510 1.259 . S
C500 O511 1.270 . S
C501 O512 1.251 . S
C501 O513 1.251 . S
O502 C482 1.257 . S
O502 Eu483 2.473 . S
O503 C482 1.260 . S
O503 Eu483 2.480 . S
O504 Eu483 2.430 . S
O504 C490 1.259 . S
O505 Eu483 2.670 . S
O505 C490 1.270 . S
O505 Eu493 2.355 . S
O506 Eu483 2.394 . S
O506 C491 1.251 . S
O507 C491 1.251 . S
O507 Eu493 2.374 . S
O508 C492 1.257 . S
O508 Eu493 2.473 . S
O509 C492 1.260 . S
O509 Eu493 2.480 . S
O510 Eu493 2.430 . S
O510 C500 1.259 . S
O511 Eu483 2.355 . S
O511 Eu493 2.670 . S
O511 C500 1.270 . S
O512 Eu493 2.394 . S
O512 C501 1.251 . S
O513 Eu483 2.374 . S
O513 C501 1.251 . S
H514 C485 0.931 . S
H515 C486 0.931 . S
H516 C488 0.931 . S
H517 C489 0.931 . S
H518 C495 0.931 . S
H519 C496 0.931 . S
H520 C498 0.931 . S
H521 C499 0.931 . S
C124 C171 1.649 . S
C130 C211 1.736 . S
C115 C250 1.710 . S
C106 C210 1.591 . S
C251 C85 1.474 . S
C97 C170 1.589 . S
C181 C103 1.670 . S
C221 C88 1.707 . S
C94 C260 1.698 . S
C121 C220 1.579 . S
C133 C261 1.443 . S
C180 C112 1.603 . S
C291 C16 1.649 1_455 S
C22 C331 1.739 . S
C7 C370 1.710 1_545 S
C160 C330 1.591 . S
C139 C371 1.473 . S
C151 C290 1.589 . S
C157 C301 1.670 . S
C142 C341 1.704 . S
C380 C148 1.698 . S
C13 C340 1.578 1_545 S
C381 C25 1.443 1_455 S
C4 C300 1.604 . S
C411 C70 1.649 . S
C76 C451 1.738 . S
C490 C61 1.710 . S
C450 C52 1.591 1_545 S
C491 C31 1.473 1_655 S
C43 C410 1.590 . S
C49 C421 1.670 1_455 S
C34 C461 1.705 . S
C500 C40 1.698 1_545 S
C67 C460 1.578 . S
C79 C501 1.442 . S
C58 C420 1.603 . S
C140 C167 1.912 1_565 S
C207 C149 1.899 . S
C158 C257 1.633 . S
C59 C217 1.927 . S
C68 C247 1.608 . S
C177 C77 1.920 1_565 S
C32 C287 1.912 . S
C41 C327 1.898 . S
C50 C377 1.633 . S
C113 C337 1.928 . S
C367 C122 1.608 . S
C131 C297 1.919 . S
C86 C407 1.911 . S
C95 C447 1.899 . S
C497 C104 1.633 . S
C5 C457 1.928 . S
C14 C487 1.608 . S
C23 C417 1.920 . S
