# Generated by pormake.
# Topology ptr, (4,4)-cn, num edge types: 1
# Building blocks:
#     Node 0, Type 0, BuildingBlock: UXUYUI_clean_sbu_0, # of connection points: 4
#     Node 1, Type 0, BuildingBlock: UXUYUI_clean_sbu_0, # of connection points: 4
#     Node 2, Type 0, BuildingBlock: UXUYUI_clean_sbu_0, # of connection points: 4
#     Node 3, Type 0, BuildingBlock: UXUYUI_clean_sbu_0, # of connection points: 4
#     Node 4, Type 0, BuildingBlock: UXUYUI_clean_sbu_0, # of connection points: 4
#     Node 5, Type 0, BuildingBlock: UXUYUI_clean_sbu_0, # of connection points: 4
#     Node 6, Type 0, BuildingBlock: UXUYUI_clean_sbu_0, # of connection points: 4
#     Node 7, Type 0, BuildingBlock: UXUYUI_clean_sbu_0, # of connection points: 4
#     Node 8, Type 0, BuildingBlock: UXUYUI_clean_sbu_0, # of connection points: 4
#     Node 9, Type 0, BuildingBlock: UXUYUI_clean_sbu_0, # of connection points: 4
#     Node 10, Type 0, BuildingBlock: UXUYUI_clean_sbu_0, # of connection points: 4
#     Node 11, Type 0, BuildingBlock: UXUYUI_clean_sbu_0, # of connection points: 4
#     Node 12, Type 0, BuildingBlock: UXUYUI_clean_sbu_0, # of connection points: 4
#     Node 13, Type 0, BuildingBlock: UXUYUI_clean_sbu_0, # of connection points: 4
#     Node 14, Type 0, BuildingBlock: UXUYUI_clean_sbu_0, # of connection points: 4
#     Node 15, Type 0, BuildingBlock: UXUYUI_clean_sbu_0, # of connection points: 4
#     Node 16, Type 0, BuildingBlock: UXUYUI_clean_sbu_0, # of connection points: 4
#     Node 17, Type 0, BuildingBlock: UXUYUI_clean_sbu_0, # of connection points: 4
#     Node 18, Type 1, BuildingBlock: MIFKUJ_clean_linker_1, # of connection points: 4
#     Node 19, Type 1, BuildingBlock: MIFKUJ_clean_linker_1, # of connection points: 4
#     Node 20, Type 1, BuildingBlock: MIFKUJ_clean_linker_1, # of connection points: 4
#     Node 21, Type 1, BuildingBlock: MIFKUJ_clean_linker_1, # of connection points: 4
#     Node 22, Type 1, BuildingBlock: MIFKUJ_clean_linker_1, # of connection points: 4
#     Node 23, Type 1, BuildingBlock: MIFKUJ_clean_linker_1, # of connection points: 4
#     Node 24, Type 1, BuildingBlock: MIFKUJ_clean_linker_1, # of connection points: 4
#     Node 25, Type 1, BuildingBlock: MIFKUJ_clean_linker_1, # of connection points: 4
#     Node 26, Type 1, BuildingBlock: MIFKUJ_clean_linker_1, # of connection points: 4
#     Node 27, Type 1, BuildingBlock: MIFKUJ_clean_linker_1, # of connection points: 4
#     Node 28, Type 1, BuildingBlock: MIFKUJ_clean_linker_1, # of connection points: 4
#     Node 29, Type 1, BuildingBlock: MIFKUJ_clean_linker_1, # of connection points: 4
#     Node 30, Type 1, BuildingBlock: MIFKUJ_clean_linker_1, # of connection points: 4
#     Node 31, Type 1, BuildingBlock: MIFKUJ_clean_linker_1, # of connection points: 4
#     Node 32, Type 1, BuildingBlock: MIFKUJ_clean_linker_1, # of connection points: 4
#     Node 33, Type 1, BuildingBlock: MIFKUJ_clean_linker_1, # of connection points: 4
#     Node 34, Type 1, BuildingBlock: MIFKUJ_clean_linker_1, # of connection points: 4
#     Node 35, Type 1, BuildingBlock: MIFKUJ_clean_linker_1, # of connection points: 4
#     Edge 36, Type (0, 1), BuildingBlock: OJICUG_clean_linker_0, # of connection points: 2
#     Edge 37, Type (0, 1), BuildingBlock: OJICUG_clean_linker_0, # of connection points: 2
#     Edge 38, Type (0, 1), BuildingBlock: OJICUG_clean_linker_0, # of connection points: 2
#     Edge 39, Type (0, 1), BuildingBlock: OJICUG_clean_linker_0, # of connection points: 2
#     Edge 40, Type (0, 1), BuildingBlock: OJICUG_clean_linker_0, # of connection points: 2
#     Edge 41, Type (0, 1), BuildingBlock: OJICUG_clean_linker_0, # of connection points: 2
#     Edge 42, Type (0, 1), BuildingBlock: OJICUG_clean_linker_0, # of connection points: 2
#     Edge 43, Type (0, 1), BuildingBlock: OJICUG_clean_linker_0, # of connection points: 2
#     Edge 44, Type (0, 1), BuildingBlock: OJICUG_clean_linker_0, # of connection points: 2
#     Edge 45, Type (0, 1), BuildingBlock: OJICUG_clean_linker_0, # of connection points: 2
#     Edge 46, Type (0, 1), BuildingBlock: OJICUG_clean_linker_0, # of connection points: 2
#     Edge 47, Type (0, 1), BuildingBlock: OJICUG_clean_linker_0, # of connection points: 2
#     Edge 48, Type (0, 1), BuildingBlock: OJICUG_clean_linker_0, # of connection points: 2
#     Edge 49, Type (0, 1), BuildingBlock: OJICUG_clean_linker_0, # of connection points: 2
#     Edge 50, Type (0, 1), BuildingBlock: OJICUG_clean_linker_0, # of connection points: 2
#     Edge 51, Type (0, 1), BuildingBlock: OJICUG_clean_linker_0, # of connection points: 2
#     Edge 52, Type (0, 1), BuildingBlock: OJICUG_clean_linker_0, # of connection points: 2
#     Edge 53, Type (0, 1), BuildingBlock: OJICUG_clean_linker_0, # of connection points: 2
#     Edge 54, Type (0, 1), BuildingBlock: OJICUG_clean_linker_0, # of connection points: 2
#     Edge 55, Type (0, 1), BuildingBlock: OJICUG_clean_linker_0, # of connection points: 2
#     Edge 56, Type (0, 1), BuildingBlock: OJICUG_clean_linker_0, # of connection points: 2
#     Edge 57, Type (0, 1), BuildingBlock: OJICUG_clean_linker_0, # of connection points: 2
#     Edge 58, Type (0, 1), BuildingBlock: OJICUG_clean_linker_0, # of connection points: 2
#     Edge 59, Type (0, 1), BuildingBlock: OJICUG_clean_linker_0, # of connection points: 2
#     Edge 60, Type (0, 1), BuildingBlock: OJICUG_clean_linker_0, # of connection points: 2
#     Edge 61, Type (0, 1), BuildingBlock: OJICUG_clean_linker_0, # of connection points: 2
#     Edge 62, Type (0, 1), BuildingBlock: OJICUG_clean_linker_0, # of connection points: 2
#     Edge 63, Type (0, 1), BuildingBlock: OJICUG_clean_linker_0, # of connection points: 2
#     Edge 64, Type (0, 1), BuildingBlock: OJICUG_clean_linker_0, # of connection points: 2
#     Edge 65, Type (0, 1), BuildingBlock: OJICUG_clean_linker_0, # of connection points: 2
#     Edge 66, Type (0, 1), BuildingBlock: OJICUG_clean_linker_0, # of connection points: 2
#     Edge 67, Type (0, 1), BuildingBlock: OJICUG_clean_linker_0, # of connection points: 2
#     Edge 68, Type (0, 1), BuildingBlock: OJICUG_clean_linker_0, # of connection points: 2
#     Edge 69, Type (0, 1), BuildingBlock: OJICUG_clean_linker_0, # of connection points: 2
#     Edge 70, Type (0, 1), BuildingBlock: OJICUG_clean_linker_0, # of connection points: 2
#     Edge 71, Type (0, 1), BuildingBlock: OJICUG_clean_linker_0, # of connection points: 2
#     Edge 72, Type (0, 1), BuildingBlock: OJICUG_clean_linker_0, # of connection points: 2
#     Edge 73, Type (0, 1), BuildingBlock: OJICUG_clean_linker_0, # of connection points: 2
#     Edge 74, Type (0, 1), BuildingBlock: OJICUG_clean_linker_0, # of connection points: 2
#     Edge 75, Type (0, 1), BuildingBlock: OJICUG_clean_linker_0, # of connection points: 2
#     Edge 76, Type (0, 1), BuildingBlock: OJICUG_clean_linker_0, # of connection points: 2
#     Edge 77, Type (0, 1), BuildingBlock: OJICUG_clean_linker_0, # of connection points: 2
#     Edge 78, Type (0, 1), BuildingBlock: OJICUG_clean_linker_0, # of connection points: 2
#     Edge 79, Type (0, 1), BuildingBlock: OJICUG_clean_linker_0, # of connection points: 2
#     Edge 80, Type (0, 1), BuildingBlock: OJICUG_clean_linker_0, # of connection points: 2
#     Edge 81, Type (0, 1), BuildingBlock: OJICUG_clean_linker_0, # of connection points: 2
#     Edge 82, Type (0, 1), BuildingBlock: OJICUG_clean_linker_0, # of connection points: 2
#     Edge 83, Type (0, 1), BuildingBlock: OJICUG_clean_linker_0, # of connection points: 2
#     Edge 84, Type (0, 1), BuildingBlock: OJICUG_clean_linker_0, # of connection points: 2
#     Edge 85, Type (0, 1), BuildingBlock: OJICUG_clean_linker_0, # of connection points: 2
#     Edge 86, Type (0, 1), BuildingBlock: OJICUG_clean_linker_0, # of connection points: 2
#     Edge 87, Type (0, 1), BuildingBlock: OJICUG_clean_linker_0, # of connection points: 2
#     Edge 88, Type (0, 1), BuildingBlock: OJICUG_clean_linker_0, # of connection points: 2
#     Edge 89, Type (0, 1), BuildingBlock: OJICUG_clean_linker_0, # of connection points: 2
#     Edge 90, Type (0, 1), BuildingBlock: OJICUG_clean_linker_0, # of connection points: 2
#     Edge 91, Type (0, 1), BuildingBlock: OJICUG_clean_linker_0, # of connection points: 2
#     Edge 92, Type (0, 1), BuildingBlock: OJICUG_clean_linker_0, # of connection points: 2
#     Edge 93, Type (0, 1), BuildingBlock: OJICUG_clean_linker_0, # of connection points: 2
#     Edge 94, Type (0, 1), BuildingBlock: OJICUG_clean_linker_0, # of connection points: 2
#     Edge 95, Type (0, 1), BuildingBlock: OJICUG_clean_linker_0, # of connection points: 2
#     Edge 96, Type (0, 1), BuildingBlock: OJICUG_clean_linker_0, # of connection points: 2
#     Edge 97, Type (0, 1), BuildingBlock: OJICUG_clean_linker_0, # of connection points: 2
#     Edge 98, Type (0, 1), BuildingBlock: OJICUG_clean_linker_0, # of connection points: 2
#     Edge 99, Type (0, 1), BuildingBlock: OJICUG_clean_linker_0, # of connection points: 2
#     Edge 100, Type (0, 1), BuildingBlock: OJICUG_clean_linker_0, # of connection points: 2
#     Edge 101, Type (0, 1), BuildingBlock: OJICUG_clean_linker_0, # of connection points: 2
#     Edge 102, Type (0, 1), BuildingBlock: OJICUG_clean_linker_0, # of connection points: 2
#     Edge 103, Type (0, 1), BuildingBlock: OJICUG_clean_linker_0, # of connection points: 2
#     Edge 104, Type (0, 1), BuildingBlock: OJICUG_clean_linker_0, # of connection points: 2
#     Edge 105, Type (0, 1), BuildingBlock: OJICUG_clean_linker_0, # of connection points: 2
#     Edge 106, Type (0, 1), BuildingBlock: OJICUG_clean_linker_0, # of connection points: 2
#     Edge 107, Type (0, 1), BuildingBlock: OJICUG_clean_linker_0, # of connection points: 2
# Relax obj value: 0.094
# Max RMSD: 0.272
# Mean RMSD: 0.119
data_MOF--net-ptr--node1-UXUYUI_clean_sbu_0--node2-MIFKUJ_clean_linker_1--edge1-OJICUG_clean_linker_0
_symmetry_space_group_name_H-M    P1
_symmetry_Int_Tables_number       1
_symmetry_cell_setting            triclinic
loop_
_symmetry_equiv_pos_as_xyz
'x, y, z'
_cell_length_a     87.975313
_cell_length_b     87.967609
_cell_length_c     57.741216
_cell_angle_alpha  90.131677
_cell_angle_beta   89.88374
_cell_angle_gamma 120.10605
loop_
_atom_site_label
_atom_site_type_symbol
_atom_site_fract_x
_atom_site_fract_y
_atom_site_fract_z
_atom_type_partial_charge
Li0 Li 0.98875 0.3358 0.00188 0.0
Li1 Li 0.01837 0.35087 0.01803 0.0
Li2 Li 0.99747 0.36116 0.02719 0.0
Li3 Li 0.0102 0.3653 0.98878 0.0
C4 C 0.98809 0.3251 0.05018 0.0
N5 N 0.97259 0.29774 0.08151 0.0
C6 C 0.99453 0.31355 0.05282 0.0
C7 C 0.97388 0.32283 0.06365 0.0
C8 C 0.98648 0.29977 0.0687 0.0
C9 C 0.96619 0.30889 0.07934 0.0
C10 C 0.02551 0.34672 0.972 0.0
C11 C 0.05632 0.3645 0.96284 0.0
N12 N 0.05417 0.35354 0.94492 0.0
C13 C 0.0236 0.33564 0.95349 0.0
C14 C 0.042 0.36128 0.97673 0.0
C15 C 0.03825 0.33931 0.94 0.0
C16 C 0.96421 0.31427 0.96935 0.0
N17 N 0.9703 0.31387 0.99082 0.0
C18 C 0.9516 0.28271 0.99265 0.0
C19 C 0.96421 0.29853 0.0026 0.0
C20 C 0.94526 0.28267 0.97032 0.0
C21 C 0.9516 0.29877 0.95874 0.0
H22 H 0.96944 0.32666 0.96029 0.0
H23 H 0.96926 0.29843 0.01952 0.0
C24 C 0.04545 0.35709 0.04898 0.0
N25 N 0.03611 0.34717 0.03059 0.0
C26 C 0.05771 0.35386 0.05985 0.0
C27 C 0.05065 0.33043 0.0324 0.0
C28 C 0.03856 0.33415 0.02204 0.0
C29 C 0.06029 0.34023 0.05175 0.0
H30 H 0.04311 0.36729 0.05545 0.0
H31 H 0.03073 0.32629 0.0076 0.0
C32 C 0.96839 0.35282 0.99925 0.0
N33 N 0.93439 0.34627 0.0043 0.0
C34 C 0.96292 0.36308 0.98744 0.0
C35 C 0.95657 0.33919 0.01354 0.0
C36 C 0.94568 0.35959 0.99025 0.0
C37 C 0.93944 0.33608 0.01589 0.0
C38 C 0.02838 0.39296 0.02069 0.0
C39 C 0.01876 0.39992 0.01058 0.0
C40 C 0.04359 0.40395 0.03322 0.0
C41 C 0.02452 0.41778 0.01322 0.0
C42 C 0.04891 0.42176 0.03548 0.0
N43 N 0.03935 0.42824 0.02551 0.0
C44 C 0.99336 0.3692 0.07326 0.0
C45 C 0.98419 0.38235 0.04497 0.0
C46 C 0.99003 0.37801 0.09096 0.0
N47 N 0.99051 0.3716 0.0508 0.0
C48 C 0.98101 0.39166 0.06203 0.0
C49 C 0.98411 0.38975 0.08545 0.0
H50 H 0.99857 0.36071 0.0774 0.0
H51 H 0.98224 0.38425 0.02699 0.0
C52 C 0.0044 0.37665 0.94678 0.0
N53 N 0.01723 0.38025 0.9625 0.0
C54 C 0.0074 0.38822 0.92858 0.0
C55 C 0.03708 0.40665 0.94251 0.0
C56 C 0.0335 0.39467 0.96045 0.0
C57 C 0.02379 0.40367 0.92657 0.0
H58 H 0.99157 0.36511 0.94895 0.0
H59 H 0.04347 0.39723 0.97325 0.0
O60 O 0.99594 0.33881 0.03493 0.0
O61 O 0.01124 0.34327 0.98527 0.0
O62 O 0.98527 0.35622 0.99678 0.0
O63 O 0.02303 0.3755 0.0184 0.0
H64 H 0.00546 0.31504 0.04254 0.0
H65 H 0.96885 0.33176 0.06212 0.0
H66 H 0.99127 0.29068 0.07082 0.0
H67 H 0.95516 0.30697 0.08982 0.0
H68 H 0.06915 0.37572 0.96631 0.0
H69 H 0.01091 0.32433 0.9496 0.0
H70 H 0.04375 0.37001 0.99098 0.0
H71 H 0.03696 0.33084 0.92562 0.0
H72 H 0.94691 0.27063 0.00231 0.0
H73 H 0.94725 0.29934 0.9414 0.0
H74 H 0.06502 0.36189 0.0745 0.0
H75 H 0.05201 0.31965 0.02578 0.0
H76 H 0.97194 0.37372 0.97633 0.0
H77 H 0.96054 0.33104 0.02262 0.0
H78 H 0.94128 0.36746 0.98128 0.0
H79 H 0.93015 0.32557 0.0269 0.0
H80 H 0.00698 0.39163 0.00077 0.0
H81 H 0.0512 0.39878 0.04112 0.0
H82 H 0.01719 0.42333 0.00549 0.0
H83 H 0.06066 0.43042 0.04514 0.0
H84 H 0.99235 0.37581 0.10871 0.0
H85 H 0.97682 0.40079 0.05672 0.0
H86 H 0.9967 0.38549 0.91693 0.0
H87 H 0.04994 0.41832 0.94146 0.0
Li88 Li 0.66382 0.64862 0.99712 0.0
Li89 Li 0.64905 0.66334 0.01586 0.0
Li90 Li 0.64113 0.63285 0.02618 0.0
Li91 Li 0.63378 0.6393 0.98903 0.0
C92 C 0.67496 0.65143 0.04353 0.0
N93 N 0.69697 0.64459 0.06997 0.0
C94 C 0.68367 0.66202 0.06261 0.0
C95 C 0.67742 0.63735 0.03789 0.0
C96 C 0.69476 0.65835 0.07576 0.0
C97 C 0.68861 0.63411 0.05147 0.0
C98 C 0.65096 0.66522 0.9606 0.0
C99 C 0.63601 0.67405 0.93355 0.0
N100 N 0.64227 0.66862 0.91572 0.0
C101 C 0.65735 0.65983 0.94202 0.0
C102 C 0.6403 0.67249 0.95636 0.0
C103 C 0.65277 0.66163 0.91945 0.0
C104 C 0.68638 0.6417 0.96993 0.0
N105 N 0.68567 0.65312 0.98515 0.0
C106 C 0.71663 0.67251 0.98216 0.0
C107 C 0.70032 0.66825 0.99148 0.0
C108 C 0.71781 0.66112 0.9661 0.0
C109 C 0.70241 0.64546 0.96013 0.0
H110 H 0.67443 0.62986 0.96508 0.0
H111 H 0.69927 0.67706 0.00363 0.0
C112 C 0.64986 0.68492 0.05169 0.0
N113 N 0.653 0.68473 0.02869 0.0
C114 C 0.65354 0.70057 0.06257 0.0
C115 C 0.66339 0.71547 0.02575 0.0
C116 C 0.65957 0.69951 0.01559 0.0
C117 C 0.66052 0.71615 0.0496 0.0
H118 H 0.64469 0.6729 0.0616 0.0
H119 H 0.6621 0.69895 0.99736 0.0
C120 C 0.63212 0.60665 0.99375 0.0
N121 N 0.60782 0.57124 0.99002 0.0
C122 C 0.61461 0.60034 -0.0 0.0
C123 C 0.63728 0.59494 0.98563 0.0
C124 C 0.60252 0.58241 0.99798 0.0
C125 C 0.6248 0.57709 0.98386 0.0
C126 C 0.61044 0.64302 0.02103 0.0
C127 C 0.59514 0.6285 0.02946 0.0
C128 C 0.61012 0.65817 0.01458 0.0
C129 C 0.57969 0.62928 0.03089 0.0
C130 C 0.59441 0.65843 0.01629 0.0
N131 N 0.57964 0.6441 0.02432 0.0
C132 C 0.6242 0.61993 0.06813 0.0
C133 C 0.63529 0.6026 0.05205 0.0
C134 C 0.6162 0.60794 0.08611 0.0
N135 N 0.63321 0.6169 0.05137 0.0
C136 C 0.62747 0.59022 0.06973 0.0
C137 C 0.61751 0.59267 0.08686 0.0
H138 H 0.62277 0.63143 0.0671 0.0
H139 H 0.64263 0.60057 0.03856 0.0
C140 C 0.62025 0.62059 0.94785 0.0
N141 N 0.61678 0.62953 0.96431 0.0
C142 C 0.60817 0.61157 0.93027 0.0
C143 C 0.58941 0.62174 0.94609 0.0
C144 C 0.60188 0.63056 0.96341 0.0
C145 C 0.59233 0.61179 0.92946 0.0
H146 H 0.63229 0.62012 0.9487 0.0
H147 H 0.59944 0.63799 0.9762 0.0
O148 O 0.66403 0.65485 0.03057 0.0
O149 O 0.6549 0.66309 0.98282 0.0
O150 O 0.64428 0.62415 0.99568 0.0
O151 O 0.62574 0.64257 0.01991 0.0
H152 H 0.68186 0.67295 0.0672 0.0
H153 H 0.67076 0.62899 0.02321 0.0
H154 H 0.70159 0.66644 0.09058 0.0
H155 H 0.69063 0.62325 0.04731 0.0
H156 H 0.62768 0.67956 0.93002 0.0
H157 H 0.66557 0.65412 0.945 0.0
H158 H 0.63528 0.67675 0.97053 0.0
H159 H 0.65751 0.6574 0.90491 0.0
H160 H 0.72818 0.68459 0.98749 0.0
H161 H 0.70266 0.63643 0.94757 0.0
H162 H 0.65093 0.70048 0.08092 0.0
H163 H 0.66892 0.72721 0.01519 0.0
H164 H 0.61038 0.60919 0.00627 0.0
H165 H 0.65081 0.5996 0.9808 0.0
H166 H 0.58892 0.57737 0.00273 0.0
H167 H 0.62861 0.56788 0.97761 0.0
H168 H 0.59518 0.61677 0.03492 0.0
H169 H 0.6218 0.66954 0.00811 0.0
H170 H 0.56774 0.61812 0.03729 0.0
H171 H 0.59396 0.67003 0.01122 0.0
H172 H 0.60847 0.61026 0.09873 0.0
H173 H 0.62898 0.57874 0.06981 0.0
H174 H 0.61095 0.60397 0.91797 0.0
H175 H 0.57754 0.62257 0.94587 0.0
Li176 Li 0.35617 0.9932 0.98488 0.0
Li177 Li 0.36293 0.004 0.02386 0.0
Li178 Li 0.33277 0.98566 0.01225 0.0
Li179 Li 0.3492 0.0151 0.99823 0.0
C180 C 0.34395 0.96165 0.00853 0.0
N181 N 0.32902 0.92628 0.9985 0.0
C182 C 0.3476 0.95088 0.0224 0.0
C183 C 0.3327 0.95443 0.98954 0.0
C184 C 0.33993 0.93303 0.01704 0.0
C185 C 0.32528 0.93652 0.98477 0.0
C186 C 0.38962 0.02143 0.99115 0.0
C187 C 0.4186 0.04041 0.97564 0.0
N188 N 0.42355 0.02876 0.98256 0.0
C189 C 0.39499 0.00963 0.99809 0.0
C190 C 0.40149 0.03693 0.97982 0.0
C191 C 0.4122 0.01358 0.99359 0.0
C192 C 0.36729 0.99579 0.939 0.0
N193 N 0.36542 0.98696 0.95905 0.0
C194 C 0.38218 0.97469 0.94374 0.0
C195 C 0.37239 0.97633 0.96161 0.0
C196 C 0.38503 0.98428 0.9232 0.0
C197 C 0.37709 0.99463 0.92073 0.0
H198 H 0.36189 0.00443 0.93766 0.0
H199 H 0.37128 0.96993 0.97798 0.0
C200 C 0.37369 0.99507 0.06394 0.0
N201 N 0.37859 0.00861 0.04894 0.0
C202 C 0.38494 0.99625 0.08169 0.0
C203 C 0.40585 0.02562 0.06881 0.0
C204 C 0.39415 0.02386 0.05125 0.0
C205 C 0.40143 0.01154 0.08401 0.0
H206 H 0.36115 0.98317 0.06175 0.0
H207 H 0.39773 0.03444 0.03906 0.0
C208 C 0.3191 0.99354 0.97352 0.0
N209 N 0.28903 0.9939 0.96074 0.0
C210 C 0.30979 0.99743 0.98988 0.0
C211 C 0.31312 0.98985 0.95068 0.0
C212 C 0.29462 0.99754 0.98307 0.0
C213 C 0.29789 0.99009 0.94455 0.0
C214 C 0.34846 0.02169 0.04536 0.0
C215 C 0.33872 0.02052 0.0651 0.0
C216 C 0.36399 0.03738 0.04055 0.0
C217 C 0.34466 0.03508 0.07972 0.0
C218 C 0.36949 0.05164 0.0556 0.0
N219 N 0.3598 0.0502 0.07471 0.0
C220 C 0.30913 0.96724 0.04709 0.0
C221 C 0.29695 0.95725 0.00977 0.0
C222 C 0.29326 0.95534 0.05753 0.0
N223 N 0.31063 0.96808 0.02366 0.0
C224 C 0.28076 0.94519 0.01949 0.0
C225 C 0.27872 0.94422 0.04371 0.0
H226 H 0.32032 0.97593 0.05766 0.0
H227 H 0.29853 0.95812 0.99116 0.0
C228 C 0.35353 0.04063 0.96636 0.0
N229 N 0.34707 0.03441 0.98781 0.0
C230 C 0.35038 0.05309 0.95595 0.0
C231 C 0.33441 0.05286 0.99022 0.0
C232 C 0.33773 0.04029 0.99987 0.0
C233 C 0.34052 0.05918 0.96782 0.0
H234 H 0.36064 0.03546 0.95705 0.0
H235 H 0.33224 0.03473 0.01659 0.0
O236 O 0.35132 0.97912 0.01376 0.0
O237 O 0.37276 0.01776 0.99492 0.0
O238 O 0.33415 0.9936 0.97958 0.0
O239 O 0.34277 0.00745 0.03102 0.0
H240 H 0.35629 0.95626 0.03715 0.0
H241 H 0.32974 0.96251 0.97853 0.0
H242 H 0.34265 0.92454 0.02763 0.0
H243 H 0.31656 0.93076 0.97013 0.0
H244 H 0.42792 0.05236 0.96687 0.0
H245 H 0.38598 0.99751 0.00677 0.0
H246 H 0.3975 0.04615 0.97424 0.0
H247 H 0.41652 0.00456 0.99884 0.0
H248 H 0.38833 0.96683 0.94654 0.0
H249 H 0.37892 0.00218 0.90513 0.0
H250 H 0.38087 0.98521 0.09328 0.0
H251 H 0.41848 0.03759 0.06991 0.0
H252 H 0.31421 0.00036 0.00763 0.0
H253 H 0.32023 0.98689 0.9378 0.0
H254 H 0.2873 0.00054 0.99554 0.0
H255 H 0.29311 0.98727 0.92692 0.0
H256 H 0.32667 0.00847 0.06906 0.0
H257 H 0.3717 0.03861 0.02534 0.0
H258 H 0.33724 0.03435 0.09506 0.0
H259 H 0.38147 0.06385 0.05209 0.0
H260 H 0.29245 0.95481 0.07625 0.0
H261 H 0.2699 0.93697 0.00815 0.0
H262 H 0.35539 0.05773 0.9387 0.0
H263 H 0.32653 0.05704 0.99977 0.0
Li264 Li 0.01213 0.66388 0.01569 0.0
Li265 Li 0.9903 0.63378 0.02523 0.0
Li266 Li 0.00384 0.6419 0.98671 0.0
Li267 Li 0.98306 0.65096 0.99711 0.0
C268 C 0.03064 0.64923 0.02744 0.0
N269 N 0.06254 0.66287 0.04986 0.0
C270 C 0.03117 0.6471 0.05135 0.0
C271 C 0.04629 0.65809 0.01488 0.0
C272 C 0.04745 0.65415 0.06238 0.0
C273 C 0.0623 0.66495 0.02655 0.0
C274 C 0.9744 0.65225 0.04325 0.0
C275 C 0.94349 0.63402 0.05148 0.0
N276 N 0.94474 0.64582 0.06771 0.0
C277 C 0.97538 0.66421 0.05996 0.0
C278 C 0.95833 0.63702 0.03892 0.0
C279 C 0.96024 0.66072 0.07218 0.0
C280 C 0.04095 0.69889 0.0162 0.0
N281 N 0.0301 0.68479 0.02941 0.0
C282 C 0.04343 0.70078 0.06407 0.0
C283 C 0.03105 0.68546 0.0529 0.0
C284 C 0.05477 0.71566 0.05093 0.0
C285 C 0.05347 0.71453 0.02665 0.0
H286 H 0.03965 0.69814 0.99758 0.0
H287 H 0.02203 0.6741 0.06295 0.0
C288 C 0.9845 0.6023 0.0436 0.0
N289 N 0.983 0.61654 0.04889 0.0
C290 C 0.98132 0.58968 0.06039 0.0
C291 C 0.97528 0.60669 0.08798 0.0
C292 C 0.97854 0.61899 0.07059 0.0
C293 C 0.97681 0.59187 0.083 0.0
H294 H 0.98886 0.60112 0.02653 0.0
H295 H 0.97808 0.63073 0.07468 0.0
C296 C 0.0131 0.67163 0.96158 0.0
N297 N 0.02655 0.68399 0.91797 0.0
C298 C 0.00242 0.67261 0.94444 0.0
C299 C 0.03065 0.67708 0.9566 0.0
C300 C 0.00946 0.67886 0.92248 0.0
C301 C 0.03719 0.68324 0.93443 0.0
C302 C 0.97226 0.61549 0.97586 0.0
C303 C 0.96995 0.62157 0.95454 0.0
C304 C 0.96897 0.59826 0.9777 0.0
C305 C 0.96451 0.61035 0.93539 0.0
C306 C 0.96359 0.58745 0.95813 0.0
N307 N 0.96149 0.59366 0.93755 0.0
C308 C 0.01561 0.62003 0.97022 0.0
C309 C 0.01033 0.63464 0.93963 0.0
C310 C 0.01872 0.60984 0.95447 0.0
N311 N 0.01129 0.63198 0.96265 0.0
C312 C 0.01359 0.62493 0.92324 0.0
C313 C 0.01749 0.61202 0.93056 0.0
H314 H 0.01584 0.61782 0.98861 0.0
H315 H 0.00622 0.64365 0.93382 0.0
C316 C 0.96986 0.67314 0.98711 0.0
N317 N 0.96564 0.65603 0.98709 0.0
C318 C 0.95802 0.67792 0.97857 0.0
C319 C 0.93756 0.64726 0.97064 0.0
C320 C 0.94973 0.64308 0.97959 0.0
C321 C 0.9417 0.66493 0.96978 0.0
H322 H 0.98259 0.68311 0.99343 0.0
H323 H 0.94663 0.62954 0.98011 0.0
O324 O 0.01486 0.64274 0.01639 0.0
O325 O 0.98911 0.65562 0.03106 0.0
O326 O 0.00648 0.66574 0.98324 0.0
O327 O 0.97805 0.62648 0.99465 0.0
H328 H 0.01916 0.64026 0.06131 0.0
H329 H 0.04606 0.65967 0.99634 0.0
H330 H 0.04808 0.65272 0.0809 0.0
H331 H 0.07453 0.67193 0.01708 0.0
H332 H 0.93097 0.62229 0.04833 0.0
H333 H 0.98773 0.67608 0.06346 0.0
H334 H 0.95729 0.6276 0.02606 0.0
H335 H 0.96081 0.66986 0.08519 0.0
H336 H 0.04407 0.70096 0.0828 0.0
H337 H 0.0617 0.72575 0.01583 0.0
H338 H 0.98313 0.57872 0.05594 0.0
H339 H 0.97188 0.6089 0.1052 0.0
H340 H 0.98883 0.66853 0.948 0.0
H341 H 0.0391 0.67644 0.96967 0.0
H342 H 0.00133 0.67963 0.90903 0.0
H343 H 0.05073 0.68741 0.9303 0.0
H344 H 0.97266 0.63493 0.9527 0.0
H345 H 0.97058 0.59327 0.99403 0.0
H346 H 0.96281 0.61494 0.91876 0.0
H347 H 0.96108 0.57411 0.95929 0.0
H348 H 0.02129 0.59983 0.96105 0.0
H349 H 0.01264 0.62724 0.90504 0.0
H350 H 0.96167 0.69164 0.97874 0.0
H351 H 0.92527 0.63679 0.96387 0.0
Li352 Li 0.33557 0.35154 0.02032 0.0
Li353 Li 0.36586 0.35985 0.02835 0.0
Li354 Li 0.35703 0.36529 0.99032 0.0
Li355 Li 0.34868 0.33569 0.00113 0.0
C356 C 0.35214 0.3871 0.0296 0.0
N357 N 0.34278 0.41018 0.04839 0.0
C358 C 0.3601 0.39625 0.04997 0.0
C359 C 0.33948 0.38976 0.01875 0.0
C360 C 0.35518 0.40784 0.05921 0.0
C361 C 0.33491 0.40146 0.02853 0.0
C362 C 0.33974 0.3342 0.05794 0.0
C363 C 0.32535 0.31477 0.09018 0.0
N364 N 0.32978 0.32893 0.104 0.0
C365 C 0.34414 0.34853 0.07249 0.0
C366 C 0.33027 0.31716 0.06685 0.0
C367 C 0.339 0.34561 0.09571 0.0
C368 C 0.29902 0.3347 0.02427 0.0
N369 N 0.3141 0.34772 0.03378 0.0
C370 C 0.29783 0.3523 0.06343 0.0
C371 C 0.31376 0.35652 0.053 0.0
C372 C 0.28204 0.33874 0.0542 0.0
C373 C 0.28276 0.33001 0.03419 0.0
H374 H 0.29967 0.32769 0.00925 0.0
H375 H 0.32585 0.36659 0.06061 0.0
C376 C 0.39707 0.38669 0.0459 0.0
N377 N 0.38471 0.36968 0.04999 0.0
C378 C 0.41083 0.39579 0.06147 0.0
C379 C 0.39918 0.36955 0.08491 0.0
C380 C 0.38575 0.36085 0.06867 0.0
C381 C 0.4118 0.38731 0.08149 0.0
H382 H 0.39593 0.3933 0.03079 0.0
H383 H 0.37599 0.3472 0.07124 0.0
C384 C 0.32818 0.34715 0.96694 0.0
N385 N 0.31839 0.35451 0.92488 0.0
C386 C 0.3336 0.34303 0.94627 0.0
C387 C 0.31756 0.35477 0.96623 0.0
C388 C 0.32859 0.34693 0.92518 0.0
C389 C 0.3128 0.35845 0.94479 0.0
C390 C 0.38481 0.35032 0.99962 0.0
C391 C 0.40001 0.35775 0.98604 0.0
C392 C 0.38205 0.33746 0.01595 0.0
C393 C 0.41222 0.35218 0.989 0.0
C394 C 0.39457 0.33225 0.01839 0.0
N395 N 0.40927 0.33965 0.00498 0.0
C396 C 0.3641 0.39564 0.96355 0.0
C397 C 0.37446 0.37746 0.94834 0.0
C398 C 0.37227 0.40773 0.94565 0.0
N399 N 0.36554 0.38099 0.96472 0.0
C400 C 0.38281 0.38915 0.93016 0.0
C401 C 0.38206 0.40471 0.92887 0.0
H402 H 0.35707 0.39825 0.97682 0.0
H403 H 0.37548 0.36574 0.9498 0.0
C404 C 0.33283 0.29868 5e-05 0.0
N405 N 0.34428 0.31382 0.98909 0.0
C406 C 0.32865 0.28246 0.99043 0.0
C407 C 0.34804 0.29779 0.95835 0.0
C408 C 0.35203 0.3137 0.96876 0.0
C409 C 0.33612 0.28192 0.96916 0.0
H410 H 0.32668 0.29921 0.01601 0.0
H411 H 0.3611 0.32598 0.96045 0.0
O412 O 0.35674 0.3756 0.02041 0.0
O413 O 0.34447 0.33675 0.03505 0.0
O414 O 0.33328 0.34379 0.98776 0.0
O415 O 0.3728 0.35571 0.99687 0.0
H416 H 0.36993 0.39439 0.05863 0.0
H417 H 0.33311 0.38273 0.0031 0.0
H418 H 0.3612 0.41497 0.07499 0.0
H419 H 0.32506 0.40357 0.02036 0.0
H420 H 0.318 0.30166 0.09729 0.0
H421 H 0.35146 0.36178 0.06593 0.0
H422 H 0.32672 0.30589 0.05591 0.0
H423 H 0.34233 0.35662 0.10712 0.0
H424 H 0.2979 0.35954 0.07866 0.0
H425 H 0.27095 0.31931 0.02667 0.0
H426 H 0.42023 0.40951 0.0583 0.0
H427 H 0.39964 0.36253 0.10004 0.0
H428 H 0.34179 0.3371 0.94651 0.0
H429 H 0.31299 0.35777 0.98204 0.0
H430 H 0.33283 0.34396 0.90905 0.0
H431 H 0.30464 0.36441 0.94398 0.0
H432 H 0.40236 0.36774 0.97335 0.0
H433 H 0.37038 0.33154 0.02664 0.0
H434 H 0.42405 0.35782 0.9786 0.0
H435 H 0.3926 0.32232 0.03096 0.0
H436 H 0.37121 0.41947 0.94519 0.0
H437 H 0.39041 0.38638 0.91784 0.0
H438 H 0.31929 0.27047 0.99916 0.0
H439 H 0.35418 0.29788 0.94204 0.0
Li440 Li 0.65123 0.98463 0.01884 0.0
Li441 Li 0.64188 0.00492 0.03006 0.0
Li442 Li 0.63631 0.99293 0.99138 0.0
Li443 Li 0.66582 0.01363 0.00301 0.0
C444 C 0.61856 0.9701 0.03987 0.0
N445 N 0.60178 0.95023 0.07854 0.0
C446 C 0.6278 0.97285 0.06059 0.0
C447 C 0.6008 0.95724 0.03883 0.0
C448 C 0.61907 0.96267 0.07994 0.0
C449 C 0.59254 0.94733 0.05856 0.0
C450 C 0.67542 0.02183 0.04887 0.0
C451 C 0.68481 0.05186 0.05921 0.0
N452 N 0.69631 0.05164 0.07472 0.0
C453 C 0.68732 0.0219 0.06493 0.0
C454 C 0.67413 0.03693 0.04599 0.0
C455 C 0.69777 0.0371 0.07783 0.0
C456 C 0.67185 0.97233 0.03793 0.0
N457 N 0.65542 0.96676 0.02975 0.0
C458 C 0.64628 0.93713 0.04016 0.0
C459 C 0.64271 0.94953 0.03042 0.0
C460 C 0.66304 0.94258 0.04932 0.0
C461 C 0.67597 0.96041 0.04786 0.0
H462 H 0.6817 0.98611 0.037 0.0
H463 H 0.62973 0.94547 0.02384 0.0
C464 C 0.61591 0.01063 0.04618 0.0
N465 N 0.63083 0.01115 0.05345 0.0
C466 C 0.60496 0.01243 0.06204 0.0
C467 C 0.62529 0.01597 0.09255 0.0
C468 C 0.6358 0.01391 0.07607 0.0
C469 C 0.60945 0.01483 0.0856 0.0
H470 H 0.61221 0.00816 0.02811 0.0
H471 H 0.6475 0.0138 0.0815 0.0
C472 C 0.65341 0.97652 0.97307 0.0
N473 N 0.64496 0.94683 0.94724 0.0
C474 C 0.66559 0.97651 0.95752 0.0
C475 C 0.63689 0.96144 0.97542 0.0
C476 C 0.66108 0.96136 0.94463 0.0
C477 C 0.63288 0.94656 0.96223 0.0
C478 C 0.64659 0.02767 0.98199 0.0
C479 C 0.65539 0.02753 0.96187 0.0
C480 C 0.63849 0.03784 0.98284 0.0
C481 C 0.65596 0.03763 0.94291 0.0
C482 C 0.63934 0.04776 0.9635 0.0
N483 N 0.64798 0.04745 0.9441 0.0
C484 C 0.60284 0.98102 0.97416 0.0
C485 C 0.62416 0.98877 0.94454 0.0
C486 C 0.59017 0.97883 0.95796 0.0
N487 N 0.61951 0.98628 0.96728 0.0
C488 C 0.61196 0.98704 0.92774 0.0
C489 C 0.5948 0.9825 0.93446 0.0
H490 H 0.59958 0.97925 0.99239 0.0
H491 H 0.63755 0.993 0.93956 0.0
C492 C 0.69911 0.02604 0.98506 0.0
N493 N 0.68812 0.03163 0.99268 0.0
C494 C 0.71537 0.03792 0.97552 0.0
C495 C 0.70898 0.06126 0.98258 0.0
C496 C 0.69275 0.04887 0.99189 0.0
C497 C 0.7204 0.05576 0.97394 0.0
H498 H 0.69508 0.01225 0.98609 0.0
H499 H 0.68371 0.05294 0.99798 0.0
O500 O 0.6267 0.97994 0.02065 0.0
O501 O 0.66518 0.007 0.03613 0.0
O502 O 0.65775 0.99132 0.98575 0.0
O503 O 0.6457 0.0178 0.00077 0.0
H504 H 0.64154 0.98271 0.0618 0.0
H505 H 0.59346 0.95494 0.02292 0.0
H506 H 0.62606 0.96467 0.09608 0.0
H507 H 0.5788 0.93733 0.058 0.0
H508 H 0.68394 0.06362 0.05716 0.0
H509 H 0.68845 0.01032 0.06741 0.0
H510 H 0.66495 0.03715 0.03381 0.0
H511 H 0.70703 0.03733 0.09031 0.0
H512 H 0.6359 0.92352 0.04112 0.0
H513 H 0.68912 0.96512 0.05438 0.0
H514 H 0.5929 0.01158 0.05601 0.0
H515 H 0.62906 0.01761 0.11063 0.0
H516 H 0.67841 0.98809 0.95542 0.0
H517 H 0.62723 0.96116 0.98724 0.0
H518 H 0.67039 0.96117 0.93254 0.0
H519 H 0.62017 0.93481 0.96391 0.0
H520 H 0.66162 0.01963 0.96082 0.0
H521 H 0.63159 0.03804 0.99828 0.0
H522 H 0.66269 0.03762 0.92722 0.0
H523 H 0.63312 0.05569 0.9639 0.0
H524 H 0.57703 0.97486 0.96395 0.0
H525 H 0.61623 0.99014 0.90992 0.0
H526 H 0.7239 0.03319 0.96938 0.0
H527 H 0.71232 0.07488 0.9815 0.0
Li528 Li 0.65301 0.6679 0.33386 0.0
Li529 Li 0.68104 0.68421 0.35167 0.0
Li530 Li 0.65946 0.69185 0.36216 0.0
Li531 Li 0.67288 0.6987 0.32408 0.0
C532 C 0.66248 0.65953 0.38175 0.0
N533 N 0.67291 0.64126 0.41027 0.0
C534 C 0.66281 0.64477 0.37339 0.0
C535 C 0.66731 0.66491 0.40466 0.0
C536 C 0.66814 0.63573 0.38808 0.0
C537 C 0.67259 0.65553 0.41879 0.0
C538 C 0.69109 0.68364 0.30575 0.0
C539 C 0.72187 0.70387 0.29893 0.0
N540 N 0.72123 0.69451 0.2798 0.0
C541 C 0.69074 0.67423 0.28604 0.0
C542 C 0.70678 0.69858 0.31228 0.0
C543 C 0.70611 0.67993 0.27314 0.0
C544 C 0.63491 0.64522 0.29763 0.0
N545 N 0.63604 0.6461 0.32109 0.0
C546 C 0.61379 0.61592 0.32435 0.0
C547 C 0.62573 0.63194 0.33456 0.0
C548 C 0.61245 0.61452 0.30007 0.0
C549 C 0.62313 0.62951 0.2867 0.0
H550 H 0.64326 0.65677 0.28743 0.0
H551 H 0.62687 0.63306 0.35321 0.0
C552 C 0.70892 0.69169 0.38222 0.0
N553 N 0.69975 0.68169 0.36378 0.0
C554 C 0.72168 0.68906 0.39278 0.0
C555 C 0.71552 0.66614 0.36486 0.0
C556 C 0.70292 0.66925 0.35482 0.0
C557 C 0.72497 0.67598 0.38429 0.0
H558 H 0.70602 0.70143 0.38901 0.0
H559 H 0.69525 0.66134 0.34031 0.0
C560 C 0.62977 0.68067 0.33269 0.0
N561 N 0.59387 0.66706 0.33534 0.0
C562 C 0.62158 0.68721 0.31837 0.0
C563 C 0.61969 0.66719 0.34835 0.0
C564 C 0.60342 0.68017 0.31999 0.0
C565 C 0.60156 0.66049 0.34941 0.0
C566 C 0.6879 0.72499 0.35689 0.0
C567 C 0.67571 0.72967 0.34929 0.0
C568 C 0.70352 0.73763 0.36727 0.0
C569 C 0.67939 0.74695 0.35222 0.0
C570 C 0.70671 0.75478 0.36988 0.0
N571 N 0.69468 0.75905 0.36237 0.0
C572 C 0.66276 0.70771 0.4051 0.0
C573 C 0.63732 0.70307 0.38507 0.0
C574 C 0.65976 0.71688 0.4226 0.0
N575 N 0.65168 0.70111 0.38671 0.0
C576 C 0.6337 0.71195 0.40231 0.0
C577 C 0.64516 0.71931 0.42124 0.0
H578 H 0.67441 0.70653 0.40564 0.0
H579 H 0.62896 0.69836 0.37007 0.0
C580 C 0.66761 0.71144 0.28256 0.0
N581 N 0.67981 0.71498 0.29923 0.0
C582 C 0.67105 0.72345 0.26477 0.0
C583 C 0.69981 0.74227 0.28121 0.0
C584 C 0.6958 0.72989 0.29872 0.0
C585 C 0.68724 0.73924 0.26411 0.0
H586 H 0.65502 0.69945 0.28343 0.0
H587 H 0.70531 0.73236 0.31216 0.0
O588 O 0.65773 0.66882 0.36745 0.0
O589 O 0.67608 0.67815 0.31844 0.0
O590 O 0.6475 0.68726 0.33097 0.0
O591 O 0.68464 0.70813 0.35445 0.0
H592 H 0.65933 0.64056 0.35561 0.0
H593 H 0.66709 0.67626 0.41143 0.0
H594 H 0.66861 0.62438 0.38178 0.0
H595 H 0.67647 0.65961 0.43652 0.0
H596 H 0.73409 0.71541 0.30378 0.0
H597 H 0.67869 0.66263 0.28076 0.0
H598 H 0.70736 0.70604 0.32749 0.0
H599 H 0.70603 0.67277 0.25784 0.0
H600 H 0.60594 0.60468 0.33534 0.0
H601 H 0.62233 0.62915 0.26798 0.0
H602 H 0.72881 0.69711 0.40751 0.0
H603 H 0.71743 0.65577 0.35793 0.0
H604 H 0.62919 0.69763 0.30615 0.0
H605 H 0.62578 0.66204 0.35969 0.0
H606 H 0.59692 0.68512 0.30903 0.0
H607 H 0.59361 0.65008 0.36146 0.0
H608 H 0.66354 0.72012 0.34123 0.0
H609 H 0.71307 0.73421 0.37327 0.0
H610 H 0.67008 0.75075 0.34644 0.0
H611 H 0.71875 0.7647 0.37789 0.0
H612 H 0.66921 0.72262 0.43652 0.0
H613 H 0.6222 0.71333 0.40055 0.0
H614 H 0.66087 0.72065 0.25216 0.0
H615 H 0.71254 0.75415 0.28121 0.0
Li616 Li 0.29767 0.97202 0.32064 0.0
Li617 Li 0.30352 0.96535 0.36198 0.0
Li618 Li 0.31438 0.99567 0.34863 0.0
Li619 Li 0.32689 0.97938 0.33354 0.0
C620 C 0.28152 0.98596 0.35524 0.0
N621 N 0.26721 0.00708 0.364 0.0
C622 C 0.27546 0.98656 0.37742 0.0
C623 C 0.28024 0.99604 0.33749 0.0
C624 C 0.26828 0.99733 0.3815 0.0
C625 C 0.27299 0.00665 0.34227 0.0
C626 C 0.3127 0.94581 0.32361 0.0
C627 C 0.3315 0.93346 0.32909 0.0
N628 N 0.32815 0.92726 0.30699 0.0
C629 C 0.30931 0.93916 0.30103 0.0
C630 C 0.32375 0.94279 0.33784 0.0
C631 C 0.31729 0.92987 0.29293 0.0
C632 C 0.2864 0.96176 0.27468 0.0
N633 N 0.28114 0.96351 0.29616 0.0
C634 C 0.25135 0.95039 0.28354 0.0
C635 C 0.26406 0.95825 0.30079 0.0
C636 C 0.25614 0.94741 0.26144 0.0
C637 C 0.27405 0.95353 0.25706 0.0
H638 H 0.30011 0.96615 0.27152 0.0
H639 H 0.26024 0.95981 0.31805 0.0
C640 C 0.29048 0.95496 0.40733 0.0
N641 N 0.29381 0.94941 0.38699 0.0
C642 C 0.28208 0.94306 0.42537 0.0
C643 C 0.28169 0.92022 0.40157 0.0
C644 C 0.28978 0.93249 0.38388 0.0
C645 C 0.27734 0.92532 0.42255 0.0
H646 H 0.29404 0.96857 0.40937 0.0
H647 H 0.29261 0.92844 0.36752 0.0
C648 C 0.3338 0.00862 0.30645 0.0
N649 N 0.36238 0.03783 0.28761 0.0
C650 C 0.34887 0.0186 0.31973 0.0
C651 C 0.33326 0.01342 0.28355 0.0
C652 C 0.36319 0.03334 0.30991 0.0
C653 C 0.34784 0.02827 0.27435 0.0
C654 C 0.33947 0.98951 0.38182 0.0
C655 C 0.35238 0.00686 0.38662 0.0
C656 C 0.33964 0.97574 0.39361 0.0
C657 C 0.36547 0.0101 0.40277 0.0
C658 C 0.35296 0.97953 0.40964 0.0
N659 N 0.3655 0.99649 0.41383 0.0
C660 C 0.31934 0.01953 0.38337 0.0
C661 C 0.32227 0.03149 0.34579 0.0
C662 C 0.32336 0.03551 0.39348 0.0
N663 N 0.31905 0.01788 0.35997 0.0
C664 C 0.32651 0.0478 0.35517 0.0
C665 C 0.32726 0.05002 0.37936 0.0
H666 H 0.31652 0.00838 0.39418 0.0
H667 H 0.32171 0.02975 0.32722 0.0
C668 C 0.34827 0.9792 0.29816 0.0
N669 N 0.34812 0.98146 0.32145 0.0
C670 C 0.3633 0.9812 0.2872 0.0
C671 C 0.37791 0.98804 0.32433 0.0
C672 C 0.36251 0.9857 0.33463 0.0
C673 C 0.37842 0.98585 0.30032 0.0
H674 H 0.33671 0.97606 0.28806 0.0
H675 H 0.36221 0.98746 0.35304 0.0
O676 O 0.28915 0.97597 0.351 0.0
O677 O 0.30534 0.9553 0.3317 0.0
O678 O 0.3197 0.99401 0.31559 0.0
O679 O 0.32647 0.98609 0.36618 0.0
H680 H 0.27634 0.97886 0.39135 0.0
H681 H 0.28507 0.99587 0.32028 0.0
H682 H 0.26358 0.99798 0.3986 0.0
H683 H 0.27202 0.0146 0.32873 0.0
H684 H 0.34021 0.93118 0.33986 0.0
H685 H 0.30063 0.94115 0.28987 0.0
H686 H 0.32651 0.9478 0.35533 0.0
H687 H 0.31485 0.92474 0.27545 0.0
H688 H 0.23786 0.9464 0.28772 0.0
H689 H 0.2785 0.95141 0.24052 0.0
H690 H 0.27888 0.94766 0.44102 0.0
H691 H 0.27873 0.90685 0.39868 0.0
H692 H 0.34953 0.01494 0.33736 0.0
H693 H 0.3217 0.00575 0.27302 0.0
H694 H 0.37495 0.04118 0.31999 0.0
H695 H 0.34761 0.03217 0.25666 0.0
H696 H 0.3523 0.01773 0.37803 0.0
H697 H 0.3296 0.96226 0.39051 0.0
H698 H 0.37558 0.02346 0.40657 0.0
H699 H 0.35329 0.96898 0.4188 0.0
H700 H 0.32335 0.03645 0.41218 0.0
H701 H 0.3295 0.05861 0.34359 0.0
H702 H 0.36324 0.97959 0.26859 0.0
H703 H 0.38929 0.9915 0.33504 0.0
Li704 Li 0.02618 0.32944 0.32345 0.0
Li705 Li 0.03045 0.34143 0.36298 0.0
Li706 Li 0.00111 0.32149 0.35005 0.0
Li707 Li 0.01739 0.35014 0.3342 0.0
C708 C 0.03042 0.31133 0.36553 0.0
N709 N 0.05131 0.30283 0.39184 0.0
C710 C 0.04828 0.3187 0.36038 0.0
C711 C 0.02315 0.29951 0.38393 0.0
C712 C 0.05863 0.31427 0.37392 0.0
C713 C 0.03394 0.29541 0.39705 0.0
C714 C 0.05092 0.37145 0.33019 0.0
C715 C 0.06182 0.40118 0.34339 0.0
N716 N 0.06847 0.40719 0.32191 0.0
C717 C 0.05793 0.37792 0.30828 0.0
C718 C 0.05292 0.38316 0.34793 0.0
C719 C 0.06674 0.39604 0.30443 0.0
C720 C 0.03867 0.33131 0.2788 0.0
N721 N 0.03534 0.32216 0.29887 0.0
C722 C 0.04759 0.30541 0.2835 0.0
C723 C 0.03907 0.30901 0.3013 0.0
C724 C 0.05216 0.31539 0.26304 0.0
C725 C 0.04714 0.32815 0.26057 0.0
H726 H 0.03511 0.34137 0.27721 0.0
H727 H 0.03589 0.30164 0.31726 0.0
C728 C 0.0383 0.33981 0.40978 0.0
N729 N 0.04545 0.34751 0.38915 0.0
C730 C 0.04915 0.34136 0.42833 0.0
C731 C 0.07445 0.35957 0.40438 0.0
C732 C 0.06312 0.35751 0.38624 0.0
C733 C 0.06748 0.35106 0.42557 0.0
H734 H 0.02418 0.33174 0.41143 0.0
H735 H 0.06844 0.36312 0.36947 0.0
C736 C 0.99363 0.31402 0.3027 0.0
N737 N 0.97366 0.28535 0.27456 0.0
C738 C 0.98457 0.31556 0.28384 0.0
C739 C 0.99259 0.29791 0.30721 0.0
C740 C 0.97452 0.30091 0.26983 0.0
C741 C 0.98241 0.28357 0.29279 0.0
C742 C 0.99564 0.34628 0.37134 0.0
C743 C 0.98295 0.34257 0.35432 0.0
C744 C 0.9938 0.35208 0.39316 0.0
C745 C 0.96864 0.34477 0.35943 0.0
C746 C 0.97931 0.35413 0.39758 0.0
N747 N 0.96713 0.35046 0.38077 0.0
C748 C 0.9778 0.29912 0.38326 0.0
C749 C 0.96388 0.29772 0.34758 0.0
C750 C 0.96168 0.28735 0.39332 0.0
N751 N 0.97862 0.30394 0.36076 0.0
C752 C 0.94749 0.28588 0.35691 0.0
C753 C 0.94624 0.28061 0.38011 0.0
H754 H 0.98966 0.30475 0.39354 0.0
H755 H 0.96471 0.30229 0.33004 0.0
C756 C 0.0152 0.36914 0.29751 0.0
N757 N 0.01564 0.36897 0.321 0.0
C758 C 0.01347 0.38207 0.28596 0.0
C759 C 0.01282 0.39456 0.32304 0.0
C760 C 0.01473 0.38144 0.33389 0.0
C761 C 0.01199 0.39489 0.29873 0.0
H762 H 0.01619 0.35915 0.28776 0.0
H763 H 0.01531 0.3811 0.35257 0.0
O764 O 0.02024 0.31605 0.35302 0.0
O765 O 0.04181 0.35375 0.33418 0.0
O766 O 0.00359 0.32837 0.31638 0.0
O767 O 0.00972 0.34409 0.36699 0.0
H768 H 0.05416 0.32802 0.34635 0.0
H769 H 0.00935 0.29361 0.3881 0.0
H770 H 0.0725 0.32001 0.37026 0.0
H771 H 0.02851 0.28635 0.41141 0.0
H772 H 0.06337 0.41038 0.35691 0.0
H773 H 0.05654 0.36907 0.29437 0.0
H774 H 0.0474 0.37834 0.36492 0.0
H775 H 0.07217 0.40123 0.28753 0.0
H776 H 0.05125 0.29549 0.28618 0.0
H777 H 0.05006 0.33588 0.2449 0.0
H778 H 0.0433 0.33466 0.44443 0.0
H779 H 0.0885 0.36692 0.40144 0.0
H780 H 0.98528 0.32795 0.2801 0.0
H781 H -0.00051 0.2964 0.32167 0.0
H782 H 0.96742 0.30191 0.2552 0.0
H783 H 0.98146 0.27103 0.29609 0.0
H784 H 0.98408 0.33805 0.33734 0.0
H785 H 0.00348 0.35496 0.40654 0.0
H786 H 0.95874 0.34195 0.34642 0.0
H787 H 0.97773 0.35861 0.41439 0.0
H788 H 0.96133 0.28359 0.41125 0.0
H789 H 0.93586 0.28127 0.34627 0.0
H790 H 0.01329 0.382 0.26721 0.0
H791 H 0.0116 0.40408 0.33361 0.0
Li792 Li 0.67981 0.99725 0.34906 0.0
Li793 Li 0.65936 0.96676 0.3606 0.0
Li794 Li 0.67321 0.97354 0.32065 0.0
Li795 Li 0.6502 0.98018 0.3311 0.0
C796 C 0.7002 0.98045 0.35953 0.0
N797 N 0.73215 0.98608 0.37577 0.0
C798 C 0.70241 0.97841 0.38306 0.0
C799 C 0.71414 0.98499 0.34418 0.0
C800 C 0.7187 0.98144 0.39096 0.0
C801 C 0.73022 0.98787 0.35275 0.0
C802 C 0.64788 0.98627 0.38413 0.0
C803 C 0.6222 0.97126 0.40843 0.0
N804 N 0.6308 0.98314 0.42558 0.0
C805 C 0.65643 0.99839 0.40194 0.0
C806 C 0.63059 0.97265 0.38732 0.0
C807 C 0.64758 0.99656 0.42279 0.0
C808 C 0.70044 0.03449 0.34962 0.0
N809 N 0.69686 0.01952 0.36097 0.0
C810 C 0.71636 0.03616 0.39163 0.0
C811 C 0.70438 0.02008 0.3817 0.0
C812 C 0.72054 0.05187 0.3802 0.0
C813 C 0.71239 0.05089 0.3589 0.0
H814 H 0.69389 0.03372 0.33348 0.0
H815 H 0.70071 0.00805 0.39088 0.0
C816 C 0.64729 0.93341 0.3791 0.0
N817 N 0.65287 0.95032 0.3852 0.0
C818 C 0.64399 0.92082 0.39604 0.0
C819 C 0.65166 0.94318 0.42532 0.0
C820 C 0.65513 0.95539 0.40778 0.0
C821 C 0.6463 0.92564 0.41959 0.0
H822 H 0.64596 0.92982 0.36097 0.0
H823 H 0.66013 0.969 0.41222 0.0
C824 C 0.68514 0.00653 0.2996 0.0
N825 N 0.7095 0.02789 0.26698 0.0
C826 C 0.67965 0.01124 0.27954 0.0
C827 C 0.70302 0.01276 0.30315 0.0
C828 C 0.69217 0.02203 0.26323 0.0
C829 C 0.71513 0.02353 0.28645 0.0
C830 C 0.63323 0.94588 0.31904 0.0
C831 C 0.63314 0.94324 0.29515 0.0
C832 C 0.61753 0.93722 0.33152 0.0
C833 C 0.61721 0.93222 0.28405 0.0
C834 C 0.60187 0.9263 0.31979 0.0
N835 N 0.60204 0.92406 0.29649 0.0
C836 C 0.684 0.95091 0.30393 0.0
C837 C 0.68368 0.96971 0.27487 0.0
C838 C 0.68821 0.94189 0.28759 0.0
N839 N 0.68166 0.9644 0.29731 0.0
C840 C 0.68804 0.96116 0.25796 0.0
C841 C 0.69004 0.94681 0.26414 0.0
H842 H 0.682 0.94678 0.32186 0.0
H843 H 0.68134 0.98018 0.26988 0.0
C844 C 0.62178 0.98684 0.33175 0.0
N845 N 0.63132 0.98197 0.3183 0.0
C846 C 0.60847 0.98898 0.32198 0.0
C847 C 0.61507 0.98105 0.28472 0.0
C848 C 0.62834 0.97923 0.29517 0.0
C849 C 0.60501 0.9861 0.29816 0.0
H850 H 0.62468 0.98937 0.34997 0.0
H851 H 0.63651 0.97593 0.28477 0.0
O852 O 0.68427 0.9773 0.35145 0.0
O853 O 0.65639 0.98778 0.36368 0.0
O854 O 0.67302 0.99585 0.31561 0.0
O855 O 0.64867 0.95673 0.33018 0.0
H856 H 0.69171 0.97469 0.39514 0.0
H857 H 0.71254 0.98611 0.32581 0.0
H858 H 0.72063 0.98006 0.40917 0.0
H859 H 0.74113 0.99146 0.34108 0.0
H860 H 0.60885 0.96075 0.41116 0.0
H861 H 0.66976 0.00907 0.39971 0.0
H862 H 0.62376 0.96326 0.37366 0.0
H863 H 0.65406 0.0058 0.43675 0.0
H864 H 0.72196 0.03629 0.40837 0.0
H865 H 0.71525 0.06266 0.34946 0.0
H866 H 0.64029 0.90763 0.3906 0.0
H867 H 0.65344 0.94755 0.44315 0.0
H868 H 0.66585 0.00655 0.27657 0.0
H869 H 0.70749 0.00949 0.31875 0.0
H870 H 0.6881 0.02573 0.24758 0.0
H871 H 0.72902 0.02846 0.28899 0.0
H872 H 0.6452 0.94978 0.28525 0.0
H873 H 0.61743 0.93885 0.35008 0.0
H874 H 0.61692 0.93016 0.26554 0.0
H875 H 0.5896 0.91956 0.32921 0.0
H876 H 0.68927 0.93072 0.29318 0.0
H877 H 0.68948 0.96555 0.24017 0.0
H878 H 0.60099 0.99288 0.33292 0.0
H879 H 0.61302 0.97903 0.26622 0.0
Li880 Li 0.03346 0.6944 0.36416 0.0
Li881 Li 0.00294 0.68534 0.35325 0.0
Li882 Li 0.0188 0.67179 0.33482 0.0
Li883 Li 0.02661 0.70163 0.32433 0.0
C884 C 0.01235 0.66352 0.38816 0.0
N885 N 0.01355 0.64896 0.42997 0.0
C886 C 0.00026 0.66094 0.40561 0.0
C887 C 0.02498 0.65859 0.39191 0.0
C888 C 0.00109 0.65358 0.42665 0.0
C889 C 0.02539 0.65128 0.41319 0.0
C890 C 0.02306 0.72363 0.36372 0.0
C891 C 0.01972 0.74895 0.35782 0.0
N892 N 0.02282 0.75291 0.38073 0.0
C893 C 0.0264 0.72807 0.38715 0.0
C894 C 0.01986 0.73425 0.34887 0.0
C895 C 0.02613 0.74287 0.39544 0.0
C896 C 0.06702 0.71604 0.38201 0.0
N897 N 0.05033 0.7042 0.38847 0.0
C898 C 0.05826 0.70968 0.42847 0.0
C899 C 0.04577 0.70091 0.41119 0.0
C900 C 0.07554 0.7224 0.42239 0.0
C901 C 0.07986 0.72537 0.39871 0.0
H902 H 0.0702 0.71867 0.36382 0.0
H903 H 0.03233 0.69193 0.41602 0.0
C904 C 0.96582 0.66834 0.35624 0.0
N905 N 0.98111 0.68112 0.36561 0.0
C906 C 0.94972 0.66433 0.36611 0.0
C907 C 0.96544 0.6867 0.39506 0.0
C908 C 0.98119 0.69023 0.38467 0.0
C909 C 0.9494 0.67348 0.38593 0.0
H910 H 0.96615 0.66103 0.34135 0.0
H911 H 0.99348 0.69995 0.39217 0.0
C912 C 0.05265 0.68724 0.32246 0.0
N913 N 0.07225 0.67505 0.30013 0.0
C914 C 0.05525 0.68931 0.29853 0.0
C915 C 0.06023 0.67923 0.3351 0.0
C916 C 0.06514 0.68299 0.28754 0.0
C917 C 0.07004 0.67307 0.32347 0.0
C918 C 0.99262 0.68211 0.30543 0.0
C919 C 0.98577 0.67178 0.28556 0.0
C920 C 0.98812 0.69487 0.31068 0.0
C921 C 0.97463 0.6745 0.27115 0.0
C922 C 0.97692 0.69718 0.29585 0.0
N923 N 0.97047 0.68705 0.27654 0.0
C924 C 0.01188 0.6364 0.33465 0.0
C925 C 0.01759 0.6505 0.29813 0.0
C926 C 0.00934 0.62095 0.32423 0.0
N927 N 0.01601 0.65077 0.32152 0.0
C928 C 0.01536 0.63542 0.28702 0.0
C929 C 0.01111 0.62037 0.30011 0.0
H930 H 0.01031 0.63682 0.35314 0.0
H931 H 0.0204 0.66197 0.28807 0.0
C932 C 0.04992 0.73469 0.3066 0.0
N933 N 0.03595 0.71889 0.30068 0.0
C934 C 0.05883 0.74751 0.28975 0.0
C935 C 0.03859 0.72767 0.26106 0.0
C936 C 0.03013 0.71519 0.27846 0.0
C937 C 0.05334 0.74401 0.26652 0.0
H938 H 0.05445 0.73712 0.32435 0.0
H939 H 0.01929 0.70239 0.27406 0.0
O940 O 0.01177 0.6708 0.36752 0.0
O941 O 0.02356 0.70935 0.35523 0.0
O942 O 0.0428 0.69312 0.33347 0.0
O943 O 0.00361 0.67963 0.3196 0.0
H944 H 0.99035 0.66461 0.40296 0.0
H945 H 0.0344 0.66046 0.37857 0.0
H946 H 0.99185 0.65155 0.44033 0.0
H947 H 0.03514 0.64747 0.41636 0.0
H948 H 0.01722 0.75724 0.34653 0.0
H949 H 0.02898 0.72008 0.39888 0.0
H950 H 0.01764 0.73128 0.33058 0.0
H951 H 0.02857 0.74637 0.41358 0.0
H952 H 0.05426 0.7067 0.4464 0.0
H953 H 0.09283 0.73527 0.39303 0.0
H954 H 0.93769 0.65388 0.35869 0.0
H955 H 0.96584 0.69421 0.41017 0.0
H956 H 0.04952 0.69557 0.28852 0.0
H957 H 0.05858 0.6778 0.35368 0.0
H958 H 0.06714 0.68437 0.269 0.0
H959 H 0.07591 0.66676 0.33301 0.0
H960 H 0.98911 0.66181 0.28129 0.0
H961 H 0.99308 0.70276 0.32615 0.0
H962 H 0.96928 0.66665 0.25567 0.0
H963 H 0.97333 0.707 0.29973 0.0
H964 H 0.00609 0.60961 0.33491 0.0
H965 H 0.01653 0.6354 0.26835 0.0
H966 H 0.07032 0.75974 0.29477 0.0
H967 H 0.03379 0.72442 0.24345 0.0
Li968 Li 0.30989 0.34169 0.36045 0.0
Li969 Li 0.31864 0.32001 0.35152 0.0
Li970 Li 0.33329 0.34944 0.33185 0.0
Li971 Li 0.30345 0.3269 0.32131 0.0
C972 C 0.34028 0.35339 0.3851 0.0
N973 N 0.35418 0.37267 0.4252 0.0
C974 C 0.34001 0.34496 0.40572 0.0
C975 C 0.34795 0.37167 0.38481 0.0
C976 C 0.347 0.35491 0.42583 0.0
C977 C 0.35482 0.38117 0.40526 0.0
C978 C 0.28314 0.29994 0.36049 0.0
C979 C 0.26524 0.26866 0.35437 0.0
N980 N 0.26031 0.26658 0.377 0.0
C981 C 0.27766 0.29749 0.3836 0.0
C982 C 0.27668 0.28542 0.34568 0.0
C983 C 0.26621 0.28053 0.39166 0.0
C984 C 0.29174 0.35822 0.37715 0.0
N985 N 0.30004 0.34946 0.38387 0.0
C986 C 0.28966 0.34746 0.42268 0.0
C987 C 0.29943 0.34433 0.40621 0.0
C988 C 0.2804 0.35593 0.41606 0.0
C989 C 0.28198 0.36179 0.39308 0.0
H990 H 0.29204 0.36178 0.35919 0.0
H991 H 0.30565 0.33689 0.41099 0.0
C992 C 0.33207 0.29683 0.35275 0.0
N993 N 0.32257 0.30253 0.36477 0.0
C994 C 0.33568 0.28447 0.36246 0.0
C995 C 0.32015 0.28449 0.39704 0.0
C996 C 0.31668 0.2967 0.38656 0.0
C997 C 0.32976 0.27823 0.38493 0.0
H998 H 0.33711 0.3021 0.33578 0.0
H999 H 0.30961 0.30181 0.39602 0.0
C1000 C 0.31732 0.36841 0.32075 0.0
N1001 N 0.32789 0.40162 0.30379 0.0
C1002 C 0.31476 0.37073 0.29743 0.0
C1003 C 0.32493 0.38296 0.33553 0.0
C1004 C 0.32029 0.38763 0.28915 0.0
C1005 C 0.33027 0.39965 0.32662 0.0
C1006 C 0.32387 0.31596 0.29916 0.0
C1007 C 0.33309 0.32412 0.27892 0.0
C1008 C 0.31329 0.29768 0.29972 0.0
C1009 C 0.33119 0.31389 0.25941 0.0
C1010 C 0.31174 0.28789 0.27988 0.0
N1011 N 0.32063 0.29614 0.26028 0.0
C1012 C 0.3699 0.37389 0.33151 0.0
C1013 C 0.35487 0.37207 0.29667 0.0
C1014 C 0.38594 0.38599 0.32149 0.0
N1015 N 0.3548 0.36726 0.31903 0.0
C1016 C 0.3706 0.38399 0.28591 0.0
C1017 C 0.38642 0.391 0.2983 0.0
H1018 H 0.36957 0.36946 0.34903 0.0
H1019 H 0.34277 0.36624 0.28693 0.0
C1020 C 0.26955 0.30923 0.30165 0.0
N1021 N 0.28698 0.31859 0.29657 0.0
C1022 C 0.25707 0.30499 0.28423 0.0
C1023 C 0.2807 0.32001 0.25665 0.0
C1024 C 0.29272 0.3238 0.27456 0.0
C1025 C 0.26262 0.31078 0.2615 0.0
H1026 H 0.26533 0.30574 0.31939 0.0
H1027 H 0.30662 0.33168 0.27108 0.0
O1028 O 0.3334 0.34383 0.36525 0.0
O1029 O 0.2944 0.31648 0.35231 0.0
O1030 O 0.31206 0.35195 0.32914 0.0
O1031 O 0.32547 0.32579 0.3184 0.0
H1032 H 0.33436 0.33087 0.40625 0.0
H1033 H 0.34879 0.37848 0.3689 0.0
H1034 H 0.34674 0.34853 0.44193 0.0
H1035 H 0.36074 0.39532 0.40527 0.0
H1036 H 0.26021 0.25733 0.34308 0.0
H1037 H 0.2823 0.30854 0.39527 0.0
H1038 H 0.28026 0.28708 0.32758 0.0
H1039 H 0.262 0.27845 0.40956 0.0
H1040 H 0.28859 0.3424 0.44004 0.0
H1041 H 0.27527 0.36857 0.38722 0.0
H1042 H 0.3434 0.28018 0.35274 0.0
H1043 H 0.31534 0.27997 0.4144 0.0
H1044 H 0.3087 0.35963 0.28578 0.0
H1045 H 0.32648 0.38138 0.35375 0.0
H1046 H 0.31853 0.38961 0.2711 0.0
H1047 H 0.33623 0.41102 0.33787 0.0
H1048 H 0.34155 0.33821 0.2782 0.0
H1049 H 0.30653 0.29107 0.31541 0.0
H1050 H 0.33815 0.32007 0.24359 0.0
H1051 H 0.30355 0.27373 0.28009 0.0
H1052 H 0.3979 0.39092 0.33151 0.0
H1053 H 0.3704 0.38758 0.26802 0.0
H1054 H 0.24325 0.29815 0.28876 0.0
H1055 H 0.28548 0.32474 0.23935 0.0
Li1056 Li 0.3205 0.00364 0.66874 0.0
Li1057 Li 0.35065 0.02015 0.68253 0.0
Li1058 Li 0.32913 0.0289 0.69285 0.0
Li1059 Li 0.34069 0.03279 0.65346 0.0
C1060 C 0.31955 0.99031 0.70894 0.0
N1061 N 0.29997 0.95549 0.72202 0.0
C1062 C 0.3272 0.9797 0.70917 0.0
C1063 C 0.30198 0.98324 0.71546 0.0
C1064 C 0.31707 0.96212 0.71583 0.0
C1065 C 0.29229 0.9656 0.72198 0.0
C1066 C 0.34681 0.01183 0.62838 0.0
C1067 C 0.36825 0.02293 0.5976 0.0
N1068 N 0.35519 0.01413 0.5819 0.0
C1069 C 0.3336 0.00287 0.61195 0.0
C1070 C 0.36428 0.02191 0.62119 0.0
C1071 C 0.33811 0.0042 0.58853 0.0
C1072 C 0.28569 0.97625 0.6577 0.0
N1073 N 0.30279 0.98065 0.65999 0.0
C1074 C 0.29644 0.9525 0.64597 0.0
C1075 C 0.30829 0.96914 0.6546 0.0
C1076 C 0.27875 0.94768 0.64298 0.0
C1077 C 0.27333 0.95966 0.64933 0.0
H1078 H 0.28173 0.98575 0.6618 0.0
H1079 H 0.32201 0.97307 0.65647 0.0
C1080 C 0.37472 0.02297 0.71638 0.0
N1081 N 0.3696 0.01794 0.69414 0.0
C1082 C 0.38826 0.02121 0.726 0.0
C1083 C 0.39041 0.0082 0.69007 0.0
C1084 C 0.37706 0.01059 0.68094 0.0
C1085 C 0.39618 0.01365 0.71282 0.0
H1086 H 0.36812 0.02819 0.72671 0.0
H1087 H 0.37243 0.00632 0.66349 0.0
C1088 C 0.3052 0.02974 0.6674 0.0
N1089 N 0.28452 0.04432 0.67763 0.0
C1090 C 0.30928 0.04602 0.65809 0.0
C1091 C 0.29058 0.02088 0.68188 0.0
C1092 C 0.29865 0.05316 0.66346 0.0
C1093 C 0.2803 0.02848 0.68687 0.0
C1094 C 0.3698 0.05426 0.69133 0.0
C1095 C 0.37148 0.06072 0.71389 0.0
C1096 C 0.38484 0.05785 0.67879 0.0
C1097 C 0.38821 0.0706 0.72357 0.0
C1098 C 0.40134 0.06775 0.6891 0.0
N1099 N 0.40266 0.07387 0.71109 0.0
C1100 C 0.31471 0.0322 0.73598 0.0
C1101 C 0.32815 0.05738 0.71186 0.0
C1102 C 0.31162 0.04163 0.75308 0.0
N1103 N 0.32294 0.04025 0.71596 0.0
C1104 C 0.32536 0.06726 0.72842 0.0
C1105 C 0.31723 0.05949 0.74951 0.0
H1106 H 0.3109 0.01862 0.73888 0.0
H1107 H 0.33482 0.06345 0.69586 0.0
C1108 C 0.33413 0.04185 0.60974 0.0
N1109 N 0.34636 0.04729 0.62683 0.0
C1110 C 0.33634 0.05294 0.59123 0.0
C1111 C 0.36402 0.0748 0.60782 0.0
C1112 C 0.36122 0.06329 0.62609 0.0
C1113 C 0.35126 0.0698 0.59039 0.0
H1114 H 0.32229 0.02916 0.61101 0.0
H1115 H 0.37055 0.06744 0.64014 0.0
O1116 O 0.3291 0.00741 0.70186 0.0
O1117 O 0.34264 0.01099 0.65134 0.0
O1118 O 0.31564 0.02268 0.66274 0.0
O1119 O 0.35352 0.04437 0.68164 0.0
H1120 H 0.34075 0.98492 0.70405 0.0
H1121 H 0.29583 0.99124 0.71521 0.0
H1122 H 0.32279 0.95373 0.716 0.0
H1123 H 0.27864 0.95993 0.72692 0.0
H1124 H 0.3817 0.03074 0.59178 0.0
H1125 H 0.31999 0.99515 0.61717 0.0
H1126 H 0.37465 0.02895 0.63367 0.0
H1127 H 0.32801 0.9974 0.57561 0.0
H1128 H 0.3011 0.94358 0.64146 0.0
H1129 H 0.25984 0.95649 0.64703 0.0
H1130 H 0.39221 0.02527 0.74375 0.0
H1131 H 0.3962 0.00223 0.67951 0.0
H1132 H 0.32065 0.05319 0.64709 0.0
H1133 H 0.28736 0.0084 0.68951 0.0
H1134 H 0.3017 0.06577 0.65644 0.0
H1135 H 0.26902 0.02181 0.69817 0.0
H1136 H 0.36 0.05797 0.72395 0.0
H1137 H 0.38378 0.05286 0.66139 0.0
H1138 H 0.3897 0.07562 0.74105 0.0
H1139 H 0.41308 0.07052 0.67964 0.0
H1140 H 0.30545 0.03519 0.76919 0.0
H1141 H 0.32967 0.08091 0.7248 0.0
H1142 H 0.32626 0.04855 0.57805 0.0
H1143 H 0.37558 0.08777 0.60798 0.0
Li1144 Li 0.99638 0.31376 0.66772 0.0
Li1145 Li 0.98155 0.32865 0.6818 0.0
Li1146 Li 0.97149 0.29841 0.69315 0.0
Li1147 Li 0.96609 0.30525 0.65327 0.0
C1148 C 0.01061 0.3257 0.70876 0.0
N1149 N 0.04441 0.33832 0.72484 0.0
C1150 C 0.02185 0.34377 0.71169 0.0
C1151 C 0.01651 0.31406 0.71416 0.0
C1152 C 0.0389 0.34989 0.71982 0.0
C1153 C 0.03367 0.3207 0.7222 0.0
C1154 C 0.99076 0.34099 0.63521 0.0
C1155 C 0.97869 0.35473 0.61115 0.0
N1156 N 0.99524 0.36783 0.60611 0.0
C1157 C 0.00765 0.35453 0.62968 0.0
C1158 C 0.97615 0.34102 0.62579 0.0
C1159 C 0.00964 0.36801 0.61499 0.0
C1160 C 0.01866 0.30308 0.64728 0.0
N1161 N 0.01829 0.31685 0.65743 0.0
C1162 C 0.04876 0.33589 0.64921 0.0
C1163 C 0.0329 0.33304 0.65854 0.0
C1164 C 0.04943 0.32201 0.63816 0.0
C1165 C 0.03418 0.30539 0.63743 0.0
H1166 H 0.00677 0.29043 0.64624 0.0
H1167 H 0.03213 0.34388 0.66607 0.0
C1168 C 0.98447 0.35083 0.71775 0.0
N1169 N 0.9849 0.35035 0.69423 0.0
C1170 C 0.98695 0.36587 0.72922 0.0
C1171 C 0.99052 0.37988 0.69208 0.0
C1172 C 0.98773 0.36446 0.68131 0.0
C1173 C 0.99015 0.38069 0.71633 0.0
H1174 H 0.98232 0.33949 0.72764 0.0
H1175 H 0.98791 0.36393 0.66272 0.0
C1176 C 0.969 0.27253 0.66695 0.0
N1177 N 0.95469 0.23713 0.67613 0.0
C1178 C 0.95227 0.26044 0.65872 0.0
C1179 C 0.97852 0.26661 0.67966 0.0
C1180 C 0.94525 0.2426 0.66358 0.0
C1181 C 0.97103 0.24866 0.68418 0.0
C1182 C 0.94843 0.31566 0.69428 0.0
C1183 C 0.94535 0.31302 0.71808 0.0
C1184 C 0.94343 0.32629 0.68243 0.0
C1185 C 0.93744 0.3212 0.7297 0.0
C1186 C 0.93558 0.33427 0.69468 0.0
N1187 N 0.93278 0.33159 0.71786 0.0
C1188 C 0.96936 0.28215 0.73676 0.0
C1189 C 0.94374 0.26869 0.71343 0.0
C1190 C 0.9608 0.26969 0.75419 0.0
N1191 N 0.96074 0.28136 0.71688 0.0
C1192 C 0.93478 0.25588 0.73022 0.0
C1193 C 0.94329 0.25632 0.75096 0.0
H1194 H 0.98278 0.29255 0.7392 0.0
H1195 H 0.9371 0.26867 0.69768 0.0
C1196 C 0.95602 0.29062 0.60911 0.0
N1197 N 0.95058 0.29601 0.62783 0.0
C1198 C 0.94438 0.28171 0.59104 0.0
C1199 C 0.92199 0.28471 0.61149 0.0
C1200 C 0.93402 0.29342 0.62928 0.0
C1201 C 0.92703 0.27842 0.59228 0.0
H1202 H 0.96924 0.29274 0.60862 0.0
H1203 H 0.93002 0.29762 0.64458 0.0
O1204 O 0.9939 0.31945 0.70067 0.0
O1205 O 0.9886 0.3276 0.64934 0.0
O1206 O 0.97597 0.29008 0.66277 0.0
O1207 O 0.95656 0.30812 0.68271 0.0
H1208 H 0.01756 0.35299 0.70746 0.0
H1209 H 0.00799 0.30005 0.71201 0.0
H1210 H 0.04777 0.36383 0.72205 0.0
H1211 H 0.03844 0.31184 0.72633 0.0
H1212 H 0.9675 0.35496 0.60383 0.0
H1213 H 0.0191 0.35466 0.6367 0.0
H1214 H 0.96299 0.33069 0.62987 0.0
H1215 H 0.02264 0.37861 0.61063 0.0
H1216 H 0.06018 0.34896 0.64978 0.0
H1217 H 0.03422 0.29438 0.62907 0.0
H1218 H 0.98673 0.36604 0.74797 0.0
H1219 H 0.99279 0.39101 0.68156 0.0
H1220 H 0.94468 0.26479 0.64893 0.0
H1221 H 0.99151 0.27578 0.68607 0.0
H1222 H 0.93227 0.23311 0.65745 0.0
H1223 H 0.97821 0.24391 0.69411 0.0
H1224 H 0.94923 0.30491 0.72756 0.0
H1225 H 0.94576 0.32853 0.66403 0.0
H1226 H 0.93507 0.31936 0.74814 0.0
H1227 H 0.93175 0.34263 0.68576 0.0
H1228 H 0.96779 0.27047 0.76997 0.0
H1229 H 0.92118 0.24599 0.72725 0.0
H1230 H 0.94879 0.27716 0.57645 0.0
H1231 H 0.90867 0.28224 0.61321 0.0
Li1232 Li 0.67998 0.67901 0.66739 0.0
Li1233 Li 0.66591 0.65029 0.68257 0.0
Li1234 Li 0.69592 0.67152 0.69493 0.0
Li1235 Li 0.68903 0.65877 0.65374 0.0
C1236 C 0.67106 0.68172 0.71574 0.0
N1237 N 0.66444 0.70118 0.74762 0.0
C1238 C 0.65376 0.67678 0.72165 0.0
C1239 C 0.68498 0.69637 0.72637 0.0
C1240 C 0.6507 0.68685 0.73771 0.0
C1241 C 0.68137 0.70609 0.74235 0.0
C1242 C 0.64999 0.65417 0.64274 0.0
C1243 C 0.62667 0.64372 0.61457 0.0
N1244 N 0.61773 0.64895 0.62865 0.0
C1245 C 0.6406 0.65947 0.65689 0.0
C1246 C 0.64302 0.64627 0.62138 0.0
C1247 C 0.6243 0.65672 0.64948 0.0
C1248 C 0.67558 0.69785 0.6323 0.0
N1249 N 0.67626 0.69722 0.65577 0.0
C1250 C 0.67023 0.72075 0.65939 0.0
C1251 C 0.67382 0.70845 0.66937 0.0
C1252 C 0.66928 0.72159 0.63516 0.0
C1253 C 0.6722 0.71002 0.62159 0.0
H1254 H 0.6776 0.68878 0.62188 0.0
H1255 H 0.67442 0.70782 0.68794 0.0
C1256 C 0.64373 0.63137 0.71846 0.0
N1257 N 0.64475 0.63177 0.69499 0.0
C1258 C 0.62846 0.61892 0.72956 0.0
C1259 C 0.61559 0.60732 0.69207 0.0
C1260 C 0.63123 0.61992 0.68169 0.0
C1261 C 0.61399 0.60684 0.71635 0.0
H1262 H 0.65481 0.64086 0.72855 0.0
H1263 H 0.63248 0.6204 0.66304 0.0
C1264 C 0.71291 0.70032 0.65621 0.0
N1265 N 0.72873 0.73423 0.63926 0.0
C1266 C 0.71594 0.70342 0.63246 0.0
C1267 C 0.71815 0.71449 0.67136 0.0
C1268 C 0.7239 0.72065 0.62422 0.0
C1269 C 0.72607 0.73154 0.66245 0.0
C1270 C 0.67836 0.62935 0.6893 0.0
C1271 C 0.67824 0.62405 0.71213 0.0
C1272 C 0.66935 0.61674 0.67217 0.0
C1273 C 0.66898 0.60616 0.71748 0.0
C1274 C 0.66025 0.59897 0.67822 0.0
N1275 N 0.66024 0.5941 0.70057 0.0
C1276 C 0.70615 0.67133 0.74074 0.0
C1277 C 0.72959 0.68869 0.71503 0.0
C1278 C 0.71796 0.67436 0.75865 0.0
N1279 N 0.71217 0.67822 0.7194 0.0
C1280 C 0.74188 0.69218 0.73249 0.0
C1281 C 0.7361 0.68465 0.75449 0.0
H1282 H 0.69217 0.66306 0.74361 0.0
H1283 H 0.73396 0.69385 0.69779 0.0
C1284 C 0.6968 0.65676 0.6069 0.0
N1285 N 0.6982 0.65197 0.6288 0.0
C1286 C 0.70569 0.65409 0.58871 0.0
C1287 C 0.71629 0.64058 0.61579 0.0
C1288 C 0.70741 0.64375 0.6335 0.0
C1289 C 0.71585 0.6462 0.59318 0.0
H1290 H 0.68935 0.6633 0.60376 0.0
H1291 H 0.70839 0.64024 0.65115 0.0
O1292 O 0.67431 0.67188 0.70025 0.0
O1293 O 0.66601 0.65677 0.64955 0.0
O1294 O 0.7047 0.68351 0.66456 0.0
O1295 O 0.68685 0.64681 0.68381 0.0
H1296 H 0.6428 0.66526 0.71404 0.0
H1297 H 0.69843 0.70022 0.72238 0.0
H1298 H 0.63738 0.68322 0.74237 0.0
H1299 H 0.69202 0.71751 0.75061 0.0
H1300 H 0.6211 0.6376 0.59809 0.0
H1301 H 0.64588 0.66574 0.67333 0.0
H1302 H 0.65018 0.64214 0.6102 0.0
H1303 H 0.6169 0.66077 0.66026 0.0
H1304 H 0.66788 0.72926 0.67057 0.0
H1305 H 0.67196 0.71039 0.60285 0.0
H1306 H 0.62802 0.6188 0.7483 0.0
H1307 H 0.60477 0.59835 0.68118 0.0
H1308 H 0.71203 0.69263 0.62049 0.0
H1309 H 0.71606 0.71236 0.68979 0.0
H1310 H 0.7262 0.72322 0.60586 0.0
H1311 H 0.73008 0.74261 0.67398 0.0
H1312 H 0.6851 0.63366 0.72559 0.0
H1313 H 0.66921 0.62066 0.65445 0.0
H1314 H 0.6687 0.60186 0.7351 0.0
H1315 H 0.65313 0.58907 0.66518 0.0
H1316 H 0.713 0.66845 0.77544 0.0
H1317 H 0.75575 0.7 0.72851 0.0
H1318 H 0.705 0.65853 0.57147 0.0
H1319 H 0.72416 0.63464 0.61996 0.0
Li1320 Li 0.34618 0.32924 0.68159 0.0
Li1321 Li 0.32522 0.29919 0.69187 0.0
Li1322 Li 0.33916 0.30597 0.65301 0.0
Li1323 Li 0.31691 0.31413 0.66338 0.0
C1324 C 0.36362 0.31056 0.69676 0.0
N1325 N 0.39086 0.3134 0.72367 0.0
C1326 C 0.36251 0.31065 0.7209 0.0
C1327 C 0.37846 0.31161 0.68631 0.0
C1328 C 0.37644 0.31217 0.7342 0.0
C1329 C 0.39214 0.31313 0.70021 0.0
C1330 C 0.31877 0.32294 0.71814 0.0
C1331 C 0.29793 0.32264 0.74563 0.0
N1332 N 0.3104 0.32825 0.76245 0.0
C1333 C 0.33143 0.32888 0.73564 0.0
C1334 C 0.30192 0.31996 0.72309 0.0
C1335 C 0.32693 0.33142 0.75795 0.0
C1336 C 0.35828 0.3625 0.70039 0.0
N1337 N 0.3638 0.35136 0.69314 0.0
C1338 C 0.39324 0.37174 0.70461 0.0
C1339 C 0.38095 0.35576 0.69467 0.0
C1340 C 0.38779 0.38325 0.71304 0.0
C1341 C 0.37009 0.37855 0.71057 0.0
H1342 H 0.3446 0.35876 0.69863 0.0
H1343 H 0.38508 0.34683 0.68842 0.0
C1344 C 0.32443 0.27072 0.71198 0.0
N1345 N 0.31816 0.28185 0.71541 0.0
C1346 C 0.32199 0.25832 0.72871 0.0
C1347 C 0.30595 0.26849 0.75193 0.0
C1348 C 0.30873 0.28076 0.73467 0.0
C1349 C 0.31296 0.25732 0.74925 0.0
H1350 H 0.33176 0.27181 0.69639 0.0
H1351 H 0.30366 0.28957 0.73693 0.0
C1352 C 0.35475 0.34108 0.63632 0.0
N1353 N 0.38429 0.36599 0.61316 0.0
C1354 C 0.35406 0.35405 0.62322 0.0
C1355 C 0.37046 0.34079 0.63771 0.0
C1356 C 0.36914 0.36652 0.61161 0.0
C1357 C 0.38525 0.35349 0.62586 0.0
C1358 C 0.29676 0.27725 0.66338 0.0
C1359 C 0.28983 0.26251 0.64893 0.0
C1360 C 0.28609 0.27871 0.68013 0.0
C1361 C 0.27223 0.24946 0.65147 0.0
C1362 C 0.26857 0.26538 0.68213 0.0
N1363 N 0.26206 0.25115 0.66788 0.0
C1364 C 0.3492 0.28292 0.63599 0.0
C1365 C 0.34908 0.30199 0.60715 0.0
C1366 C 0.35324 0.27387 0.61953 0.0
N1367 N 0.34705 0.29655 0.62953 0.0
C1368 C 0.35327 0.29339 0.59009 0.0
C1369 C 0.35514 0.27892 0.59613 0.0
H1370 H 0.34722 0.27875 0.6539 0.0
H1371 H 0.34704 0.31273 0.60245 0.0
C1372 C 0.29655 0.33043 0.65985 0.0
N1373 N 0.29884 0.31735 0.65115 0.0
C1374 C 0.28404 0.33385 0.65018 0.0
C1375 C 0.27645 0.31018 0.62292 0.0
C1376 C 0.28913 0.30726 0.63308 0.0
C1377 C 0.27386 0.32372 0.63136 0.0
H1378 H 0.30463 0.33835 0.6741 0.0
H1379 H 0.29148 0.29715 0.62627 0.0
O1380 O 0.3501 0.30899 0.68334 0.0
O1381 O 0.32288 0.32042 0.69612 0.0
O1382 O 0.34017 0.32894 0.64804 0.0
O1383 O 0.31394 0.29014 0.66103 0.0
H1384 H 0.35094 0.30934 0.72931 0.0
H1385 H 0.37944 0.3113 0.66765 0.0
H1386 H 0.37576 0.31228 0.75291 0.0
H1387 H 0.40375 0.31407 0.69235 0.0
H1388 H 0.28492 0.32029 0.74973 0.0
H1389 H 0.34464 0.33169 0.73204 0.0
H1390 H 0.29201 0.31557 0.7097 0.0
H1391 H 0.33659 0.33598 0.77167 0.0
H1392 H 0.40676 0.37484 0.70624 0.0
H1393 H 0.36541 0.38718 0.71648 0.0
H1394 H 0.32729 0.24972 0.72569 0.0
H1395 H 0.29892 0.26816 0.76751 0.0
H1396 H 0.342 0.35448 0.62208 0.0
H1397 H 0.37124 0.33091 0.64786 0.0
H1398 H 0.3688 0.37664 0.60139 0.0
H1399 H 0.3975 0.35343 0.6268 0.0
H1400 H 0.29796 0.26121 0.63588 0.0
H1401 H 0.29127 0.28999 0.69145 0.0
H1402 H 0.26667 0.23798 0.64039 0.0
H1403 H 0.26015 0.26634 0.69503 0.0
H1404 H 0.35418 0.26261 0.62501 0.0
H1405 H 0.35479 0.29788 0.57235 0.0
H1406 H 0.28236 0.34431 0.65733 0.0
H1407 H 0.26909 0.30225 0.60822 0.0
Li1408 Li 0.67239 0.01947 0.68395 0.0
Li1409 Li 0.70198 0.02776 0.6945 0.0
Li1410 Li 0.69578 0.03374 0.6559 0.0
Li1411 Li 0.68619 0.00409 0.6676 0.0
C1412 C 0.68849 0.05597 0.68086 0.0
N1413 N 0.67936 0.08117 0.6717 0.0
C1414 C 0.69694 0.07211 0.69241 0.0
C1415 C 0.67539 0.05264 0.66464 0.0
C1416 C 0.69213 0.08468 0.68754 0.0
C1417 C 0.67097 0.06555 0.66025 0.0
C1418 C 0.67547 0.00346 0.72345 0.0
C1419 C 0.66192 0.98581 0.75738 0.0
N1420 N 0.66541 0.00054 0.76935 0.0
C1421 C 0.67894 0.01843 0.7361 0.0
C1422 C 0.6669 0.98701 0.73416 0.0
C1423 C 0.67375 0.01669 0.75928 0.0
C1424 C 0.63552 0.00254 0.68898 0.0
N1425 N 0.6509 0.01679 0.69558 0.0
C1426 C 0.63573 0.0261 0.72109 0.0
C1427 C 0.65127 0.02855 0.71121 0.0
C1428 C 0.6196 0.0114 0.71484 0.0
C1429 C 0.61962 -0.00043 0.69842 0.0
H1430 H 0.63566 0.99333 0.67664 0.0
H1431 H 0.66367 0.03966 0.71645 0.0
C1432 C 0.73034 0.05553 0.71513 0.0
N1433 N 0.71941 0.038 0.7179 0.0
C1434 C 0.74278 0.06524 0.73199 0.0
C1435 C 0.73294 0.03855 0.754 0.0
C1436 C 0.72068 0.02929 0.73657 0.0
C1437 C 0.74395 0.05685 0.75202 0.0
H1438 H 0.72912 0.06203 0.69995 0.0
H1439 H 0.71186 0.0153 0.73826 0.0
C1440 C 0.66921 0.0069 0.62869 0.0
N1441 N 0.66319 0.99474 0.58358 0.0
C1442 C 0.68328 0.0099 0.61439 0.0
C1443 C 0.65208 0.99773 0.62005 0.0
C1444 C 0.67997 0.00365 0.59164 0.0
C1445 C 0.64931 0.99169 0.59719 0.0
C1446 C 0.72234 0.01812 0.66913 0.0
C1447 C 0.73798 0.02503 0.65651 0.0
C1448 C 0.71869 0.00543 0.68611 0.0
C1449 C 0.74974 0.01913 0.6611 0.0
C1450 C 0.73079 -0.00012 0.69019 0.0
N1451 N 0.74594 0.00678 0.67771 0.0
C1452 C 0.72381 0.0609 0.63377 0.0
C1453 C 0.69713 0.05241 0.61397 0.0
C1454 C 0.73336 0.07324 0.61674 0.0
N1455 N 0.7061 0.05065 0.63194 0.0
C1456 C 0.7062 0.06459 0.5964 0.0
C1457 C 0.72462 0.07503 0.5975 0.0
H1458 H 0.73052 0.05932 0.64842 0.0
H1459 H 0.683 0.04414 0.61303 0.0
C1460 C 0.66883 0.96692 0.66556 0.0
N1461 N 0.68217 0.98198 0.65653 0.0
C1462 C 0.66499 0.95063 0.65648 0.0
C1463 C 0.68869 0.96573 0.62904 0.0
C1464 C 0.69222 0.98166 0.63886 0.0
C1465 C 0.67485 0.94987 0.63772 0.0
H1466 H 0.66104 0.96759 0.67962 0.0
H1467 H 0.70277 0.99382 0.63199 0.0
O1468 O 0.69315 0.0436 0.68547 0.0
O1469 O 0.68028 0.00474 0.70067 0.0
O1470 O 0.67204 0.01276 0.65111 0.0
O1471 O 0.71074 0.02382 0.6647 0.0
H1472 H 0.7071 0.07487 0.70503 0.0
H1473 H 0.66867 0.04023 0.65554 0.0
H1474 H 0.69856 0.09723 0.69637 0.0
H1475 H 0.66086 0.06315 0.64775 0.0
H1476 H 0.65527 0.97315 0.76587 0.0
H1477 H 0.6856 0.03129 0.72819 0.0
H1478 H 0.66412 0.97529 0.7246 0.0
H1479 H 0.67635 0.02817 0.76926 0.0
H1480 H 0.63641 0.03539 0.73398 0.0
H1481 H 0.60749 0.98816 0.69294 0.0
H1482 H 0.75127 0.07924 0.72947 0.0
H1483 H 0.73337 0.03157 0.76918 0.0
H1484 H 0.69662 0.01694 0.62077 0.0
H1485 H 0.64104 0.9953 0.63091 0.0
H1486 H 0.69074 0.00586 0.5804 0.0
H1487 H 0.63612 0.98456 0.59028 0.0
H1488 H 0.74098 0.03485 0.64328 0.0
H1489 H 0.70666 -0.00012 0.69603 0.0
H1490 H 0.7619 0.02436 0.65146 0.0
H1491 H 0.72814 0.99007 0.70328 0.0
H1492 H 0.74747 0.08128 0.61862 0.0
H1493 H 0.69895 0.06549 0.58185 0.0
H1494 H 0.6544 0.93879 0.66407 0.0
H1495 H 0.69648 0.96596 0.61438 0.0
Li1496 Li 0.97364 0.671 0.69588 0.0
Li1497 Li 0.98063 0.64832 0.68522 0.0
Li1498 Li 0.99724 0.67837 0.66724 0.0
Li1499 Li 0.96709 0.65749 0.65581 0.0
C1500 C 0.00536 0.68174 0.71884 0.0
N1501 N 0.0236 0.70259 0.75624 0.0
C1502 C 0.0071 0.67411 0.73914 0.0
C1503 C 0.01319 0.7 0.71746 0.0
C1504 C 0.01628 0.68486 0.7579 0.0
C1505 C 0.02229 0.71032 0.73656 0.0
C1506 C 0.94575 0.63015 0.69516 0.0
C1507 C 0.92712 0.59881 0.69055 0.0
N1508 N 0.92307 0.59738 0.71348 0.0
C1509 C 0.94119 0.62838 0.71861 0.0
C1510 C 0.93847 0.61527 0.68095 0.0
C1511 C 0.9298 0.6117 0.72757 0.0
C1512 C 0.9553 0.68673 0.7149 0.0
N1513 N 0.96473 0.67883 0.72034 0.0
C1514 C 0.95772 0.6783 0.76045 0.0
C1515 C 0.96624 0.67477 0.7426 0.0
C1516 C 0.94759 0.68609 0.75529 0.0
C1517 C 0.94673 0.69067 0.73224 0.0
H1518 H 0.95391 0.68937 0.69699 0.0
H1519 H 0.97331 0.66798 0.7464 0.0
C1520 C 0.98879 0.62074 0.68574 0.0
N1521 N 0.98262 0.6296 0.69829 0.0
C1522 C 0.99114 0.60776 0.69623 0.0
C1523 C 0.9808 0.61336 0.73229 0.0
C1524 C 0.97859 0.62614 0.7211 0.0
C1525 C 0.98731 0.60409 0.71989 0.0
H1526 H 0.99229 0.62402 0.66776 0.0
H1527 H 0.97399 0.63359 0.73076 0.0
C1528 C 0.98209 0.6994 0.65904 0.0
N1529 N 0.99212 0.73352 0.64662 0.0
C1530 C 0.98043 0.70341 0.6361 0.0
C1531 C 0.98846 0.71271 0.67575 0.0
C1532 C 0.98569 0.72074 0.63013 0.0
C1533 C 0.99356 0.72988 0.66912 0.0
C1534 C 0.98627 0.64646 0.63181 0.0
C1535 C 0.99658 0.65567 0.61274 0.0
C1536 C 0.97401 0.62858 0.62963 0.0
C1537 C 0.99413 0.64692 0.59165 0.0
C1538 C 0.97195 0.62029 0.60826 0.0
N1539 N 0.98195 0.62956 0.58985 0.0
C1540 C 0.0344 0.70111 0.66727 0.0
C1541 C 0.01953 0.70258 0.63393 0.0
C1542 C 0.05056 0.71362 0.65797 0.0
N1543 N 0.01929 0.69601 0.65529 0.0
C1544 C 0.03539 0.71493 0.62386 0.0
C1545 C 0.05116 0.72059 0.63592 0.0
H1546 H 0.03394 0.69526 0.68389 0.0
H1547 H 0.00743 0.69789 0.62443 0.0
C1548 C 0.93355 0.64127 0.63477 0.0
N1549 N 0.9511 0.65097 0.6306 0.0
C1550 C 0.92153 0.63838 0.61716 0.0
C1551 C 0.94587 0.65529 0.59122 0.0
C1552 C 0.95741 0.65773 0.60927 0.0
C1553 C 0.92768 0.64581 0.5952 0.0
H1554 H 0.92887 0.63644 0.65203 0.0
H1555 H 0.9714 0.66573 0.60654 0.0
O1556 O 0.9963 0.67138 0.70034 0.0
O1557 O 0.95701 0.64639 0.68612 0.0
O1558 O 0.97694 0.68245 0.66519 0.0
O1559 O 0.98835 0.65486 0.65255 0.0
H1560 H 0.00139 0.66004 0.74047 0.0
H1561 H 0.01254 0.70619 0.70167 0.0
H1562 H 0.01761 0.67911 0.77376 0.0
H1563 H 0.02838 0.72447 0.7357 0.0
H1564 H 0.92146 0.58719 0.67974 0.0
H1565 H 0.94651 0.63973 0.72984 0.0
H1566 H 0.9414 0.61641 0.66266 0.0
H1567 H 0.9263 0.61015 0.74573 0.0
H1568 H 0.95866 0.67453 0.778 0.0
H1569 H 0.93878 0.69641 0.7275 0.0
H1570 H 0.99643 0.60108 0.68613 0.0
H1571 H 0.97755 0.61084 0.7505 0.0
H1572 H 0.97528 0.69329 0.62297 0.0
H1573 H 0.98925 0.70981 0.69372 0.0
H1574 H 0.98463 0.72403 0.61239 0.0
H1575 H 0.99857 0.74029 0.68188 0.0
H1576 H 0.00633 0.66943 0.61414 0.0
H1577 H 0.96626 0.62114 0.64431 0.0
H1578 H 0.00194 0.65393 0.57672 0.0
H1579 H 0.96243 0.60646 0.60633 0.0
H1580 H 0.0625 0.71745 0.66763 0.0
H1581 H 0.03531 0.72 0.6068 0.0
H1582 H 0.9076 0.63124 0.62104 0.0
H1583 H 0.95113 0.6612 0.57452 0.0
H1584 H 0.14498 0.32904 0.19653 0.0
H1585 H 0.12245 0.33045 0.21952 0.0
H1586 H 0.08206 0.28825 0.1789 0.0
H1587 H 0.10482 0.2867 0.15601 0.0
H1588 H 0.15241 0.30347 0.19099 0.0
H1589 H 0.13632 0.33727 0.14443 0.0
H1590 H 0.11659 0.34448 0.12375 0.0
H1591 H 0.10147 0.30006 0.0783 0.0
H1592 H 0.12127 0.29286 0.09923 0.0
H1593 H 0.17237 0.29173 0.09917 0.0
H1594 H 0.19942 0.29812 0.07865 0.0
H1595 H 0.22939 0.34212 0.12445 0.0
H1596 H 0.20247 0.33581 0.14459 0.0
H1597 H 0.15739 0.31298 0.10598 0.0
H1598 H 0.17988 0.28333 0.1571 0.0
H1599 H 0.20364 0.28343 0.17969 0.0
H1600 H 0.21101 0.32925 0.21697 0.0
H1601 H 0.18728 0.32899 0.1947 0.0
C1602 C 0.12658 0.30779 0.17456 0.0
C1603 C 0.13128 0.32002 0.19262 0.0
C1604 C 0.11839 0.32093 0.20559 0.0
C1605 C 0.1005 0.30955 0.20086 0.0
C1606 C 0.09575 0.29713 0.18294 0.0
C1607 C 0.10872 0.2963 0.16982 0.0
C1608 C 0.14056 0.30738 0.16069 0.0
C1609 C 0.15341 0.30542 0.17237 0.0
C1610 C 0.14191 0.30999 0.13643 0.0
C1611 C 0.12998 0.31432 0.12365 0.0
C1612 C 0.1286 0.32896 0.13019 0.0
C1613 C 0.11733 0.33307 0.11835 0.0
C1614 C 0.10738 0.32276 0.09951 0.0
C1615 C 0.10906 0.30831 0.09266 0.0
C1616 C 0.12029 0.30414 0.10463 0.0
C1617 C 0.18548 0.31305 0.12371 0.0
C1618 C 0.18479 0.30274 0.10472 0.0
C1619 C 0.20021 0.30643 0.09301 0.0
C1620 C 0.21653 0.32049 0.10014 0.0
C1621 C 0.21707 0.33097 0.11888 0.0
C1622 C 0.2017 0.32736 0.13042 0.0
C1623 C 0.1693 0.30924 0.13637 0.0
C1624 C 0.15601 0.31038 0.12445 0.0
C1625 C 0.16787 0.30657 0.1606 0.0
C1626 C 0.18185 0.30615 0.1743 0.0
C1627 C 0.18662 0.29334 0.1702 0.0
C1628 C 0.20011 0.29339 0.18308 0.0
C1629 C 0.20917 0.30642 0.1999 0.0
C1630 C 0.20434 0.31919 0.20392 0.0
C1631 C 0.19072 0.31896 0.19136 0.0
H1632 H 0.72152 0.88459 0.17831 0.0
H1633 H 0.72256 0.90789 0.20273 0.0
H1634 H 0.66761 0.88858 0.18841 0.0
H1635 H 0.66688 0.86576 0.16365 0.0
H1636 H 0.69958 0.84826 0.18465 0.0
H1637 H 0.71044 0.89139 0.12535 0.0
H1638 H 0.7047 0.91228 0.10483 0.0
H1639 H 0.65217 0.8704 0.08895 0.0
H1640 H 0.65809 0.84958 0.10923 0.0
H1641 H 0.65841 0.8061 0.10752 0.0
H1642 H 0.65226 0.77929 0.08703 0.0
H1643 H 0.70355 0.78807 0.10592 0.0
H1644 H 0.70968 0.81496 0.12634 0.0
H1645 H 0.68155 0.83924 0.10211 0.0
H1646 H 0.66701 0.7971 0.16127 0.0
H1647 H 0.66746 0.77483 0.18588 0.0
H1648 H 0.72085 0.8119 0.2059 0.0
H1649 H 0.72036 0.83418 0.18103 0.0
C1650 C 0.69418 0.87358 0.16901 0.0
C1651 C 0.70977 0.88554 0.18031 0.0
C1652 C 0.71031 0.89878 0.19435 0.0
C1653 C 0.69517 0.90016 0.19755 0.0
C1654 C 0.67962 0.88819 0.186 0.0
C1655 C 0.67914 0.87505 0.17188 0.0
C1656 C 0.69326 0.85895 0.15516 0.0
C1657 C 0.69608 0.84647 0.16644 0.0
C1658 C 0.68793 0.85629 0.13171 0.0
C1659 C 0.68465 0.86896 0.11893 0.0
C1660 C 0.69768 0.88674 0.11749 0.0
C1661 C 0.69436 0.89867 0.10581 0.0
C1662 C 0.67796 0.89302 0.09529 0.0
C1663 C 0.66502 0.87515 0.09657 0.0
C1664 C 0.66836 0.86324 0.10822 0.0
C1665 C 0.68445 0.81247 0.11863 0.0
C1666 C 0.6684 0.80235 0.10708 0.0
C1667 C 0.66491 0.78704 0.09534 0.0
C1668 C 0.67741 0.78155 0.09491 0.0
C1669 C 0.69357 0.79183 0.10623 0.0
C1670 C 0.6971 0.8072 0.11788 0.0
C1671 C 0.6878 0.82843 0.13162 0.0
C1672 C 0.68542 0.84115 0.1202 0.0
C1673 C 0.69303 0.83105 0.15515 0.0
C1674 C 0.69374 0.81725 0.16905 0.0
C1675 C 0.67895 0.80034 0.17057 0.0
C1676 C 0.67922 0.78761 0.18465 0.0
C1677 C 0.69422 0.79159 0.19778 0.0
C1678 C 0.70907 0.80849 0.19612 0.0
C1679 C 0.70882 0.8212 0.1819 0.0
H1680 H 0.11325 0.8355 0.17652 0.0
H1681 H 0.09069 0.81375 0.20222 0.0
H1682 H 0.11012 0.77816 0.18852 0.0
H1683 H 0.13229 0.79977 0.16257 0.0
H1684 H 0.14943 0.85059 0.18157 0.0
H1685 H 0.10567 0.81607 0.12359 0.0
H1686 H 0.08486 0.78863 0.10433 0.0
H1687 H 0.12709 0.7783 0.08981 0.0
H1688 H 0.14783 0.80592 0.10866 0.0
H1689 H 0.19148 0.8517 0.10495 0.0
H1690 H 0.21757 0.87266 0.08356 0.0
H1691 H 0.20497 0.91342 0.09755 0.0
H1692 H 0.17906 0.89238 0.11943 0.0
H1693 H 0.15721 0.83969 0.09926 0.0
H1694 H 0.20107 0.87235 0.15434 0.0
H1695 H 0.22293 0.89588 0.1787 0.0
H1696 H 0.18315 0.90658 0.20437 0.0
H1697 H 0.16138 0.88364 0.17899 0.0
C1698 C 0.12431 0.81917 0.16748 0.0
C1699 C 0.1125 0.82293 0.17894 0.0
C1700 C 0.09968 0.81052 0.1937 0.0
C1701 C 0.09856 0.79418 0.19745 0.0
C1702 C 0.11035 0.79044 0.18572 0.0
C1703 C 0.12309 0.80281 0.17091 0.0
C1704 C 0.13857 0.83268 0.15292 0.0
C1705 C 0.15095 0.84849 0.16338 0.0
C1706 C 0.14089 0.82945 0.12956 0.0
C1707 C 0.12827 0.81297 0.11763 0.0
C1708 C 0.11041 0.80785 0.11627 0.0
C1709 C 0.09853 0.79213 0.10534 0.0
C1710 C 0.10429 0.78122 0.09557 0.0
C1711 C 0.12224 0.78649 0.09684 0.0
C1712 C 0.13411 0.80224 0.10768 0.0
C1713 C 0.18341 0.87051 0.11392 0.0
C1714 C 0.19427 0.86512 0.10324 0.0
C1715 C 0.20916 0.87712 0.09093 0.0
C1716 C 0.21341 0.89475 0.08884 0.0
C1717 C 0.20226 0.90002 0.09914 0.0
C1718 C 0.1874 0.88801 0.11157 0.0
C1719 C 0.1681 0.85783 0.12782 0.0
C1720 C 0.15556 0.8421 0.11728 0.0
C1721 C 0.16589 0.86101 0.15132 0.0
C1722 C 0.17957 0.87636 0.16445 0.0
C1723 C 0.19711 0.88015 0.16449 0.0
C1724 C 0.2096 0.89353 0.17852 0.0
C1725 C 0.20467 0.90301 0.19327 0.0
C1726 C 0.18723 0.89943 0.19307 0.0
C1727 C 0.17482 0.88631 0.17864 0.0
H1728 H 0.2801 0.16527 0.8352 0.0
H1729 H 0.28132 0.1877 0.80904 0.0
H1730 H 0.33306 0.22472 0.83486 0.0
H1731 H 0.33203 0.20207 0.86023 0.0
H1732 H 0.30177 0.15192 0.83367 0.0
H1733 H 0.28837 0.18446 0.88939 0.0
H1734 H 0.29411 0.21138 0.90954 0.0
H1735 H 0.34209 0.21681 0.93738 0.0
H1736 H 0.33674 0.19036 0.91661 0.0
H1737 H 0.33853 0.15037 0.91496 0.0
H1738 H 0.34541 0.13017 0.93505 0.0
H1739 H 0.29737 0.08614 0.90928 0.0
H1740 H 0.29031 0.10643 0.88953 0.0
H1741 H 0.31404 0.15811 0.91797 0.0
H1742 H 0.33402 0.13448 0.85909 0.0
H1743 H 0.33604 0.1134 0.83357 0.0
H1744 H 0.28329 0.09551 0.80922 0.0
H1745 H 0.28115 0.11628 0.83544 0.0
C1746 C 0.3059 0.18202 0.84981 0.0
C1747 C 0.29163 0.17827 0.83534 0.0
C1748 C 0.2923 0.19114 0.82053 0.0
C1749 C 0.30731 0.20799 0.81982 0.0
C1750 C 0.32139 0.21182 0.83479 0.0
C1751 C 0.32074 0.19894 0.8495 0.0
C1752 C 0.30589 0.16792 0.86388 0.0
C1753 C 0.30401 0.15306 0.85223 0.0
C1754 C 0.30955 0.1698 0.88793 0.0
C1755 C 0.31223 0.18546 0.90121 0.0
C1756 C 0.3002 0.1915 0.89968 0.0
C1757 C 0.30344 0.20683 0.91123 0.0
C1758 C 0.31855 0.21613 0.92495 0.0
C1759 C 0.33027 0.20979 0.92707 0.0
C1760 C 0.32719 0.19466 0.91522 0.0
C1761 C 0.31397 0.12994 0.90056 0.0
C1762 C 0.32934 0.13638 0.91385 0.0
C1763 C 0.33328 0.12483 0.92532 0.0
C1764 C 0.32196 0.1066 0.92363 0.0
C1765 C 0.30644 0.10014 0.91062 0.0
C1766 C 0.30241 0.11172 0.89933 0.0
C1767 C 0.31038 0.14237 0.88763 0.0
C1768 C 0.31143 0.15682 0.8995 0.0
C1769 C 0.30666 0.1405 0.86362 0.0
C1770 C 0.30736 0.12682 0.84936 0.0
C1771 C 0.32275 0.12577 0.84862 0.0
C1772 C 0.32396 0.11384 0.83383 0.0
C1773 C 0.30985 0.10284 0.81928 0.0
C1774 C 0.29431 0.10365 0.8204 0.0
C1775 C 0.29311 0.1156 0.83524 0.0
H1776 H 0.83581 0.11562 0.83883 0.0
H1777 H 0.81331 0.09417 0.81282 0.0
H1778 H 0.77642 0.10907 0.83848 0.0
H1779 H 0.79916 0.13105 0.8634 0.0
H1780 H 0.84966 0.15009 0.83658 0.0
H1781 H 0.81893 0.10693 0.89667 0.0
H1782 H 0.79261 0.086 0.91794 0.0
H1783 H 0.78255 0.12792 0.93578 0.0
H1784 H 0.80903 0.14877 0.91491 0.0
H1785 H 0.85213 0.19229 0.91373 0.0
H1786 H 0.87285 0.21925 0.93385 0.0
H1787 H 0.91562 0.21135 0.91309 0.0
H1788 H 0.89471 0.184 0.89364 0.0
H1789 H 0.84291 0.15922 0.91989 0.0
H1790 H 0.86966 0.20145 0.85998 0.0
H1791 H 0.89168 0.2232 0.83393 0.0
H1792 H 0.90621 0.18523 0.81194 0.0
H1793 H 0.88431 0.16354 0.83839 0.0
C1794 C 0.81916 0.12486 0.85324 0.0
C1795 C 0.82281 0.11413 0.83898 0.0
C1796 C 0.80989 0.10177 0.82426 0.0
C1797 C 0.79308 0.09996 0.82347 0.0
C1798 C 0.7893 0.11029 0.8384 0.0
C1799 C 0.80224 0.12272 0.85294 0.0
C1800 C 0.83338 0.13937 0.86683 0.0
C1801 C 0.84844 0.15185 0.85496 0.0
C1802 C 0.83144 0.14203 0.89058 0.0
C1803 C 0.81587 0.12938 0.90412 0.0
C1804 C 0.81105 0.11158 0.90522 0.0
C1805 C 0.79597 0.09964 0.91731 0.0
C1806 C 0.78542 0.10526 0.92851 0.0
C1807 C 0.79048 0.12317 0.92766 0.0
C1808 C 0.80559 0.13511 0.91567 0.0
C1809 C 0.87188 0.18618 0.90207 0.0
C1810 C 0.86596 0.19628 0.91368 0.0
C1811 C 0.87784 0.21179 0.92497 0.0
C1812 C 0.8959 0.21751 0.92495 0.0
C1813 C 0.90178 0.20723 0.91358 0.0
C1814 C 0.88987 0.19169 0.90229 0.0
C1815 C 0.85914 0.17 0.88958 0.0
C1816 C 0.84439 0.15724 0.90165 0.0
C1817 C 0.86119 0.16729 0.86587 0.0
C1818 C 0.87548 0.18091 0.8514 0.0
C1819 C 0.87787 0.19792 0.85001 0.0
C1820 C 0.89045 0.21034 0.83508 0.0
C1821 C 0.90068 0.20592 0.82093 0.0
C1822 C 0.89843 0.18897 0.82254 0.0
C1823 C 0.88595 0.17659 0.83765 0.0
H1824 H 0.81171 0.66756 0.82477 0.0
H1825 H 0.78799 0.6664 0.80148 0.0
H1826 H 0.79399 0.71242 0.83683 0.0
H1827 H 0.81786 0.71356 0.86015 0.0
H1828 H 0.84589 0.69263 0.82788 0.0
H1829 H 0.79728 0.66195 0.87708 0.0
H1830 H 0.77051 0.65532 0.89794 0.0
H1831 H 0.79976 0.70267 0.9385 0.0
H1832 H 0.82655 0.70945 0.91706 0.0
H1833 H 0.88447 0.71388 0.91152 0.0
H1834 H 0.90498 0.70837 0.93394 0.0
H1835 H 0.87962 0.65521 0.90769 0.0
H1836 H 0.8594 0.66086 0.88522 0.0
H1837 H 0.84298 0.68905 0.91369 0.0
H1838 H 0.89377 0.71591 0.85884 0.0
H1839 H 0.91695 0.71527 0.83572 0.0
H1840 H 0.87846 0.66528 0.80673 0.0
H1841 H 0.85543 0.66607 0.82962 0.0
C1842 C 0.81651 0.69063 0.84417 0.0
C1843 C 0.80794 0.67742 0.82748 0.0
C1844 C 0.79431 0.67668 0.81434 0.0
C1845 C 0.78911 0.68927 0.81746 0.0
C1846 C 0.79779 0.7026 0.83406 0.0
C1847 C 0.81134 0.70322 0.84741 0.0
C1848 C 0.83083 0.69112 0.85816 0.0
C1849 C 0.84528 0.69197 0.84665 0.0
C1850 C 0.82998 0.69007 0.88261 0.0
C1851 C 0.81383 0.68632 0.89531 0.0
C1852 C 0.7979 0.671 0.8903 0.0
C1853 C 0.78265 0.66713 0.90242 0.0
C1854 C 0.78304 0.67845 0.9199 0.0
C1855 C 0.79903 0.69379 0.92496 0.0
C1856 C 0.81434 0.69763 0.91284 0.0
C1857 C 0.87054 0.68777 0.89676 0.0
C1858 C 0.88341 0.70108 0.91064 0.0
C1859 C 0.89509 0.69794 0.92332 0.0
C1860 C 0.89377 0.68134 0.92259 0.0
C1861 C 0.88077 0.66804 0.90875 0.0
C1862 C 0.86931 0.67127 0.89584 0.0
C1863 C 0.85805 0.6908 0.88337 0.0
C1864 C 0.84386 0.69042 0.89499 0.0
C1865 C 0.85876 0.69157 0.85897 0.0
C1866 C 0.87294 0.69104 0.84586 0.0
C1867 C 0.89041 0.7048 0.84758 0.0
C1868 C 0.90358 0.70445 0.83435 0.0
C1869 C 0.89947 0.6902 0.81953 0.0
C1870 C 0.88201 0.67633 0.8182 0.0
C1871 C 0.86885 0.67681 0.83113 0.0
H1872 H 0.81113 0.66998 0.52526 0.0
H1873 H 0.787 0.66911 0.54751 0.0
H1874 H 0.74983 0.62274 0.50994 0.0
H1875 H 0.77409 0.62381 0.48738 0.0
H1876 H 0.8209 0.64422 0.522 0.0
H1877 H 0.80385 0.67686 0.47508 0.0
H1878 H 0.78317 0.68292 0.45478 0.0
H1879 H 0.76959 0.63894 0.40914 0.0
H1880 H 0.79032 0.63284 0.42974 0.0
H1881 H 0.84025 0.63168 0.43046 0.0
H1882 H 0.8669 0.63671 0.41009 0.0
H1883 H 0.89834 0.68043 0.45562 0.0
H1884 H 0.8718 0.67546 0.47567 0.0
H1885 H 0.82626 0.65338 0.4369 0.0
H1886 H 0.84802 0.62363 0.48828 0.0
H1887 H 0.87087 0.62264 0.5116 0.0
H1888 H 0.87863 0.66829 0.54974 0.0
H1889 H 0.85586 0.66917 0.52658 0.0
C1890 C 0.79435 0.64697 0.50472 0.0
C1891 C 0.79778 0.65964 0.5218 0.0
C1892 C 0.78401 0.65921 0.53435 0.0
C1893 C 0.76659 0.64591 0.53032 0.0
C1894 C 0.76316 0.63311 0.51335 0.0
C1895 C 0.77696 0.63372 0.50048 0.0
C1896 C 0.80908 0.64771 0.49138 0.0
C1897 C 0.82206 0.64619 0.50338 0.0
C1898 C 0.81058 0.65034 0.46714 0.0
C1899 C 0.79835 0.65418 0.45422 0.0
C1900 C 0.79629 0.6684 0.46086 0.0
C1901 C 0.78447 0.67186 0.44924 0.0
C1902 C 0.77463 0.66131 0.4305 0.0
C1903 C 0.77706 0.64734 0.42345 0.0
C1904 C 0.78884 0.64382 0.43522 0.0
C1905 C 0.85409 0.65296 0.45487 0.0
C1906 C 0.8529 0.64236 0.43597 0.0
C1907 C 0.8681 0.64527 0.42434 0.0
C1908 C 0.88471 0.65884 0.43144 0.0
C1909 C 0.88577 0.66964 0.45007 0.0
C1910 C 0.87061 0.6668 0.46155 0.0
C1911 C 0.8381 0.64982 0.46753 0.0
C1912 C 0.82486 0.65092 0.4554 0.0
C1913 C 0.83661 0.64733 0.49182 0.0
C1914 C 0.8503 0.64649 0.50572 0.0
C1915 C 0.85469 0.63341 0.50166 0.0
C1916 C 0.86765 0.63282 0.51499 0.0
C1917 C 0.87655 0.64545 0.53235 0.0
C1918 C 0.87212 0.65852 0.53629 0.0
C1919 C 0.85904 0.65896 0.52321 0.0
H1920 H 0.38707 0.21708 0.51036 0.0
H1921 H 0.3878 0.24002 0.5352 0.0
H1922 H 0.33306 0.221 0.51971 0.0
H1923 H 0.33268 0.19856 0.49443 0.0
H1924 H 0.36434 0.18009 0.51492 0.0
H1925 H 0.37661 0.22627 0.46011 0.0
H1926 H 0.37076 0.24774 0.44132 0.0
H1927 H 0.32083 0.20562 0.41709 0.0
H1928 H 0.32649 0.18424 0.43635 0.0
H1929 H 0.32549 0.14049 0.43619 0.0
H1930 H 0.31945 0.1138 0.41557 0.0
H1931 H 0.3716 0.12383 0.43232 0.0
H1932 H 0.37729 0.15026 0.45353 0.0
H1933 H 0.34977 0.17478 0.43125 0.0
H1934 H 0.33253 0.13005 0.48645 0.0
H1935 H 0.33143 0.10635 0.50937 0.0
H1936 H 0.38307 0.14219 0.53665 0.0
H1937 H 0.38451 0.16566 0.51245 0.0
C1938 C 0.35988 0.20625 0.50044 0.0
C1939 C 0.37529 0.21798 0.51226 0.0
C1940 C 0.37564 0.23102 0.52652 0.0
C1941 C 0.36049 0.23242 0.52946 0.0
C1942 C 0.34508 0.22059 0.51751 0.0
C1943 C 0.34479 0.20767 0.50315 0.0
C1944 C 0.35932 0.19214 0.4858 0.0
C1945 C 0.36161 0.17913 0.49649 0.0
C1946 C 0.35494 0.19055 0.46201 0.0
C1947 C 0.35189 0.20364 0.44988 0.0
C1948 C 0.36433 0.22166 0.45093 0.0
C1949 C 0.361 0.23391 0.44018 0.0
C1950 C 0.34533 0.22831 0.42782 0.0
C1951 C 0.33309 0.21027 0.42634 0.0
C1952 C 0.33632 0.19806 0.43732 0.0
C1953 C 0.35178 0.14727 0.44651 0.0
C1954 C 0.33567 0.13701 0.43521 0.0
C1955 C 0.33227 0.12178 0.42335 0.0
C1956 C 0.34502 0.1166 0.42232 0.0
C1957 C 0.36136 0.12723 0.43312 0.0
C1958 C 0.36469 0.1424 0.44514 0.0
C1959 C 0.35477 0.16271 0.46038 0.0
C1960 C 0.35293 0.17594 0.44956 0.0
C1961 C 0.35894 0.16418 0.48425 0.0
C1962 C 0.35874 0.1496 0.49739 0.0
C1963 C 0.34383 0.13272 0.49687 0.0
C1964 C 0.34311 0.11922 0.5103 0.0
C1965 C 0.35712 0.12236 0.525 0.0
C1966 C 0.37214 0.13923 0.5253 0.0
C1967 C 0.37293 0.15271 0.51164 0.0
H1968 H 0.78162 0.16877 0.51374 0.0
H1969 H 0.76105 0.14569 0.53978 0.0
H1970 H 0.77571 0.10969 0.5101 0.0
H1971 H 0.79688 0.13305 0.4851 0.0
H1972 H 0.81665 0.18275 0.51353 0.0
H1973 H 0.76988 0.15039 0.45724 0.0
H1974 H 0.74916 0.12305 0.43758 0.0
H1975 H 0.79265 0.11868 0.4105 0.0
H1976 H 0.81319 0.14553 0.43087 0.0
H1977 H 0.85412 0.18749 0.4301 0.0
H1978 H 0.88071 0.20889 0.40996 0.0
H1979 H 0.8742 0.25102 0.4374 0.0
H1980 H 0.84746 0.22947 0.45751 0.0
H1981 H 0.8211 0.17819 0.42846 0.0
H1982 H 0.86649 0.20337 0.48371 0.0
H1983 H 0.89017 0.22508 0.50775 0.0
H1984 H 0.85385 0.23822 0.54008 0.0
H1985 H 0.83044 0.21724 0.51479 0.0
C1986 C 0.79067 0.15262 0.49729 0.0
C1987 C 0.78029 0.15586 0.51276 0.0
C1988 C 0.76842 0.1426 0.5275 0.0
C1989 C 0.76673 0.12582 0.52708 0.0
C1990 C 0.77683 0.12251 0.51111 0.0
C1991 C 0.78879 0.13581 0.49655 0.0
C1992 C 0.80438 0.16712 0.48319 0.0
C1993 C 0.81739 0.182 0.49483 0.0
C1994 C 0.80578 0.1657 0.45894 0.0
C1995 C 0.79308 0.14991 0.44573 0.0
C1996 C 0.77492 0.14351 0.44709 0.0
C1997 C 0.76311 0.12797 0.43568 0.0
C1998 C 0.76926 0.11862 0.42262 0.0
C1999 C 0.78747 0.12538 0.42075 0.0
C2000 C 0.79924 0.14085 0.43219 0.0
C2001 C 0.84886 0.20688 0.44545 0.0
C2002 C 0.85826 0.20132 0.43152 0.0
C2003 C 0.87346 0.21356 0.42 0.0
C2004 C 0.87958 0.23164 0.42216 0.0
C2005 C 0.86993 0.23718 0.43567 0.0
C2006 C 0.85465 0.2249 0.44712 0.0
C2007 C 0.83343 0.19376 0.45883 0.0
C2008 C 0.82012 0.1792 0.44707 0.0
C2009 C 0.83215 0.19509 0.48312 0.0
C2010 C 0.84672 0.20887 0.49712 0.0
C2011 C 0.8637 0.21123 0.49555 0.0
C2012 C 0.87721 0.2235 0.5096 0.0
C2013 C 0.87395 0.23339 0.52599 0.0
C2014 C 0.85693 0.23106 0.52744 0.0
C2015 C 0.84347 0.21894 0.51313 0.0
H2016 H 0.9529 0.5017 0.17158 0.0
H2017 H 0.94941 0.52237 0.14694 0.0
H2018 H 0.00344 0.56188 0.16014 0.0
H2019 H 0.0068 0.54123 0.18469 0.0
H2020 H 0.97509 0.48924 0.16455 0.0
H2021 H 0.96555 0.52094 0.22654 0.0
H2022 H 0.97098 0.54756 0.24724 0.0
H2023 H 0.0254 0.56218 0.25612 0.0
H2024 H 0.01992 0.53562 0.23528 0.0
H2025 H 0.02076 0.48914 0.23547 0.0
H2026 H 0.02651 0.46801 0.2554 0.0
H2027 H 0.97218 0.42778 0.24582 0.0
H2028 H 0.96673 0.44885 0.22545 0.0
H2029 H 0.99764 0.5009 0.24518 0.0
H2030 H 0.01062 0.4753 0.1804 0.0
H2031 H 0.00969 0.45227 0.15595 0.0
H2032 H 0.9531 0.42784 0.15159 0.0
H2033 H 0.95439 0.45162 0.17516 0.0
C2034 C 0.98004 0.51997 0.18016 0.0
C2035 C 0.96392 0.51488 0.16932 0.0
C2036 C 0.96197 0.52668 0.15521 0.0
C2037 C 0.97614 0.54378 0.15161 0.0
C2038 C 0.99217 0.54893 0.16288 0.0
C2039 C 0.99412 0.53712 0.17693 0.0
C2040 C 0.98256 0.50705 0.19357 0.0
C2041 C 0.9796 0.49161 0.18237 0.0
C2042 C 0.98922 0.51047 0.21645 0.0
C2043 C 0.99236 0.52638 0.22929 0.0
C2044 C 0.97865 0.52991 0.23293 0.0
C2045 C 0.98174 0.54503 0.24486 0.0
C2046 C 0.99862 0.55693 0.25324 0.0
C2047 C 0.0123 0.55332 0.24966 0.0
C2048 C 0.00917 0.53812 0.23791 0.0
C2049 C 0.99338 0.47049 0.22882 0.0
C2050 C 0.01012 0.47577 0.23774 0.0
C2051 C 0.01335 0.46369 0.24921 0.0
C2052 C -0.00017 0.44616 0.25213 0.0
C2053 C 0.98299 0.44106 0.24347 0.0
C2054 C 0.97982 0.4531 0.23191 0.0
C2055 C 0.98999 0.48312 0.2162 0.0
C2056 C 0.99283 0.49844 0.2275 0.0
C2057 C 0.98354 0.4798 0.19328 0.0
C2058 C 0.98257 0.46511 0.17957 0.0
C2059 C 0.99801 0.46491 0.17425 0.0
C2060 C 0.99741 0.4516 0.1604 0.0
C2061 C 0.9813 0.43805 0.15176 0.0
C2062 C 0.96578 0.43817 0.15755 0.0
C2063 C 0.96645 0.45168 0.17114 0.0
H2064 H 0.50605 0.44938 0.16565 0.0
H2065 H 0.48433 0.42688 0.13978 0.0
H2066 H 0.44581 0.44059 0.16191 0.0
H2067 H 0.46762 0.46336 0.18718 0.0
H2068 H 0.51947 0.4835 0.16378 0.0
H2069 H 0.4848 0.43915 0.22068 0.0
H2070 H 0.45767 0.41855 0.24088 0.0
H2071 H 0.45051 0.46174 0.26175 0.0
H2072 H 0.47739 0.48221 0.24125 0.0
H2073 H 0.52038 0.52548 0.23992 0.0
H2074 H 0.54105 0.55223 0.26048 0.0
H2075 H 0.58299 0.54161 0.24529 0.0
H2076 H 0.56223 0.51499 0.22437 0.0
H2077 H 0.50993 0.49152 0.24652 0.0
H2078 H 0.53847 0.53422 0.18791 0.0
H2079 H 0.56184 0.5566 0.16403 0.0
H2080 H 0.57801 0.51938 0.14442 0.0
H2081 H 0.55453 0.49697 0.16853 0.0
C2082 C 0.48844 0.45793 0.17864 0.0
C2083 C 0.4929 0.44748 0.16503 0.0
C2084 C 0.48051 0.43464 0.15027 0.0
C2085 C 0.46338 0.43194 0.14897 0.0
C2086 C 0.45883 0.44219 0.16288 0.0
C2087 C 0.47129 0.45518 0.17737 0.0
C2088 C 0.50201 0.47244 0.19296 0.0
C2089 C 0.51755 0.48499 0.18204 0.0
C2090 C 0.49921 0.47482 0.21656 0.0
C2091 C 0.48307 0.46222 0.22926 0.0
C2092 C 0.47733 0.44416 0.22947 0.0
C2093 C 0.46185 0.43242 0.24102 0.0
C2094 C 0.452 0.43857 0.25287 0.0
C2095 C 0.45794 0.45666 0.25298 0.0
C2096 C 0.47329 0.46836 0.24126 0.0
C2097 C 0.53979 0.51831 0.23051 0.0
C2098 C 0.53401 0.52886 0.24118 0.0
C2099 C 0.54584 0.54412 0.25299 0.0
C2100 C 0.5637 0.54909 0.25453 0.0
C2101 C 0.56939 0.53832 0.24412 0.0
C2102 C 0.55754 0.52307 0.23224 0.0
C2103 C 0.52722 0.50251 0.21726 0.0
C2104 C 0.51194 0.48976 0.22839 0.0
C2105 C 0.53002 0.50015 0.19372 0.0
C2106 C 0.5449 0.51398 0.18026 0.0
C2107 C 0.54726 0.53097 0.17887 0.0
C2108 C 0.56065 0.54376 0.16521 0.0
C2109 C 0.57184 0.53979 0.15241 0.0
C2110 C 0.56954 0.5228 0.15396 0.0
C2111 C 0.55617 0.51001 0.16774 0.0
H2112 H 0.54516 0.04155 0.17185 0.0
H2113 H 0.56827 0.0424 0.14701 0.0
H2114 H 0.54829 0.98726 0.16016 0.0
H2115 H 0.52527 0.98647 0.18483 0.0
H2116 H 0.50841 0.01958 0.16447 0.0
H2117 H 0.55074 0.03082 0.22516 0.0
H2118 H 0.57204 0.02541 0.2453 0.0
H2119 H 0.53133 0.97188 0.25845 0.0
H2120 H 0.5101 0.97733 0.23811 0.0
H2121 H 0.46429 0.97747 0.23867 0.0
H2122 H 0.4377 0.97207 0.25934 0.0
H2123 H 0.45035 0.02541 0.24563 0.0
H2124 H 0.47696 0.03076 0.225 0.0
H2125 H 0.49888 0.00085 0.24675 0.0
H2126 H 0.45709 0.98704 0.18796 0.0
H2127 H 0.43486 0.98744 0.16332 0.0
H2128 H 0.47228 0.04044 0.14211 0.0
H2129 H 0.4943 0.04023 0.16775 0.0
C2130 C 0.53359 0.01397 0.18024 0.0
C2131 C 0.5459 0.02971 0.16952 0.0
C2132 C 0.55912 0.03021 0.15548 0.0
C2133 C 0.56002 0.01489 0.15166 0.0
C2134 C 0.54782 0.99923 0.16271 0.0
C2135 C 0.53475 0.99878 0.1769 0.0
C2136 C 0.51892 0.01305 0.19396 0.0
C2137 C 0.50653 0.01598 0.18264 0.0
C2138 C 0.51612 0.00754 0.21731 0.0
C2139 C 0.52889 0.00445 0.23008 0.0
C2140 C 0.54643 0.01793 0.23238 0.0
C2141 C 0.55853 0.01486 0.244 0.0
C2142 C 0.55332 0.99822 0.2534 0.0
C2143 C 0.53572 0.98478 0.25119 0.0
C2144 C 0.52358 0.9879 0.23974 0.0
C2145 C 0.47254 0.00448 0.23026 0.0
C2146 C 0.46137 0.98801 0.24023 0.0
C2147 C 0.44615 0.98491 0.25187 0.0
C2148 C 0.44198 0.99832 0.25403 0.0
C2149 C 0.45333 0.01489 0.24435 0.0
C2150 C 0.46845 0.01793 0.23248 0.0
C2151 C 0.48836 0.00752 0.21732 0.0
C2152 C 0.50092 0.0049 0.22874 0.0
C2153 C 0.49109 0.01293 0.19387 0.0
C2154 C 0.47731 0.0137 0.17998 0.0
C2155 C 0.46041 0.99891 0.17846 0.0
C2156 C 0.44777 0.99907 0.1641 0.0
C2157 C 0.45182 0.01393 0.15061 0.0
C2158 C 0.46867 0.02885 0.15245 0.0
C2159 C 0.48131 0.02871 0.16696 0.0
H2160 H 0.48346 0.01179 0.85927 0.0
H2161 H 0.45886 0.00995 0.88131 0.0
H2162 H 0.42256 0.96576 0.83952 0.0
H2163 H 0.44734 0.96757 0.81758 0.0
H2164 H 0.4943 0.98837 0.85472 0.0
H2165 H 0.47387 0.01754 0.80739 0.0
H2166 H 0.45287 0.02215 0.78583 0.0
H2167 H 0.44654 0.98213 0.73677 0.0
H2168 H 0.46652 0.97656 0.75972 0.0
H2169 H 0.5124 0.97243 0.76541 0.0
H2170 H 0.53821 0.97667 0.74367 0.0
H2171 H 0.57129 0.02233 0.78543 0.0
H2172 H 0.54546 0.01822 0.80671 0.0
H2173 H 0.49962 0.99559 0.76939 0.0
H2174 H 0.52001 0.96611 0.82349 0.0
H2175 H 0.54074 0.96367 0.84934 0.0
H2176 H 0.5514 0.01192 0.88333 0.0
H2177 H 0.53019 0.01377 0.85813 0.0
C2178 C 0.46723 0.98986 0.83675 0.0
C2179 C 0.47021 0.0017 0.85486 0.0
C2180 C 0.45613 0.00073 0.86729 0.0
C2181 C 0.43878 0.98777 0.86204 0.0
C2182 C 0.4358 0.97584 0.84399 0.0
C2183 C 0.44992 0.97691 0.8314 0.0
C2184 C 0.48233 0.99105 0.82368 0.0
C2185 C 0.49547 0.99002 0.83606 0.0
C2186 C 0.48386 0.99321 0.79932 0.0
C2187 C 0.47145 0.99636 0.78558 0.0
C2188 C 0.46769 0.00948 0.79227 0.0
C2189 C 0.45588 0.01235 0.77959 0.0
C2190 C 0.44793 0.00254 0.75944 0.0
C2191 C 0.45211 0.98972 0.75241 0.0
C2192 C 0.46368 0.98663 0.76539 0.0
C2193 C 0.52705 0.99489 0.78782 0.0
C2194 C 0.52524 0.98332 0.76987 0.0
C2195 C 0.53998 0.98571 0.75756 0.0
C2196 C 0.55677 -0.00015 0.76283 0.0
C2197 C 0.55851 0.01143 0.78081 0.0
C2198 C 0.54379 0.00898 0.79315 0.0
C2199 C 0.5114 0.99267 0.80045 0.0
C2200 C 0.49821 0.99361 0.78798 0.0
C2201 C 0.51002 0.99092 0.82479 0.0
C2202 C 0.52352 0.99005 0.83904 0.0
C2203 C 0.52693 0.97617 0.83646 0.0
C2204 C 0.53884 0.97486 0.85119 0.0
C2205 C 0.54762 0.98749 0.86864 0.0
C2206 C 0.54456 0.0017 0.87053 0.0
C2207 C 0.53253 0.00286 0.85604 0.0
H2208 H 0.04672 0.5474 0.84611 0.0
H2209 H 0.0478 0.57097 0.86993 0.0
H2210 H 0.9917 0.54837 0.8613 0.0
H2211 H 0.99097 0.52543 0.8368 0.0
H2212 H 0.02626 0.51044 0.85371 0.0
H2213 H 0.03381 0.55293 0.79684 0.0
H2214 H 0.02767 0.57374 0.77692 0.0
H2215 H 0.97587 0.53137 0.75921 0.0
H2216 H 0.982 0.5106 0.7794 0.0
H2217 H 0.98217 0.46531 0.78244 0.0
H2218 H 0.97655 0.43874 0.76146 0.0
H2219 H 0.03113 0.45363 0.76889 0.0
H2220 H 0.0367 0.48021 0.78989 0.0
H2221 H 0.00491 0.50044 0.77254 0.0
H2222 H 0.99495 0.45895 0.8316 0.0
H2223 H 0.99832 0.43742 0.85411 0.0
H2224 H 0.05219 0.47654 0.86895 0.0
H2225 H 0.04872 0.4981 0.8462 0.0
C2226 C 0.01881 0.5348 0.83957 0.0
C2227 C 0.03471 0.54765 0.84931 0.0
C2228 C 0.03527 0.56105 0.86302 0.0
C2229 C 0.01984 0.56166 0.86756 0.0
C2230 C 0.00392 0.54862 0.85781 0.0
C2231 C 0.00343 0.53539 0.84391 0.0
C2232 C 0.01805 0.52043 0.82529 0.0
C2233 C 0.02199 0.50846 0.83579 0.0
C2234 C 0.01195 0.51761 0.80216 0.0
C2235 C 0.00829 0.53023 0.78988 0.0
C2236 C 0.02105 0.54814 0.7889 0.0
C2237 C 0.01754 0.56001 0.77749 0.0
C2238 C 0.00126 0.55418 0.76658 0.0
C2239 C 0.98858 0.53622 0.76728 0.0
C2240 C 0.99206 0.52435 0.77884 0.0
C2241 C 0.00983 0.47465 0.78776 0.0
C2242 C 0.99294 0.46288 0.77943 0.0
C2243 C 0.98971 0.44768 0.76762 0.0
C2244 C 0.0034 0.44415 0.76363 0.0
C2245 C 0.02038 0.45612 0.77162 0.0
C2246 C 0.02356 0.47122 0.78368 0.0
C2247 C 0.01296 0.49038 0.80102 0.0
C2248 C 0.00946 0.50259 0.79034 0.0
C2249 C 0.01927 0.4933 0.82406 0.0
C2250 C 0.02166 0.48008 0.83694 0.0
C2251 C 0.0076 0.46282 0.8393 0.0
C2252 C 0.00956 0.45051 0.85217 0.0
C2253 C 0.02557 0.45524 0.8632 0.0
C2254 C 0.03967 0.47252 0.86076 0.0
C2255 C 0.03772 0.48484 0.84776 0.0
H2256 H 0.44748 0.49951 0.84688 0.0
H2257 H 0.42356 0.4775 0.87085 0.0
H2258 H 0.43873 0.43934 0.85222 0.0
H2259 H 0.46252 0.46132 0.82843 0.0
H2260 H 0.48243 0.51252 0.85188 0.0
H2261 H 0.43973 0.48137 0.79142 0.0
H2262 H 0.41861 0.45526 0.76994 0.0
H2263 H 0.45953 0.44309 0.75506 0.0
H2264 H 0.48058 0.46934 0.77621 0.0
H2265 H 0.52638 0.51396 0.77805 0.0
H2266 H 0.55319 0.53482 0.75774 0.0
H2267 H 0.54099 0.57602 0.77052 0.0
H2268 H 0.5145 0.55514 0.79146 0.0
H2269 H 0.49196 0.50347 0.76947 0.0
H2270 H 0.53379 0.5311 0.82908 0.0
H2271 H 0.55615 0.55429 0.85323 0.0
H2272 H 0.51913 0.57077 0.87259 0.0
H2273 H 0.49675 0.54752 0.84816 0.0
C2274 C 0.45665 0.482 0.83565 0.0
C2275 C 0.44554 0.48635 0.84786 0.0
C2276 C 0.43192 0.47379 0.86156 0.0
C2277 C 0.42921 0.45665 0.86334 0.0
C2278 C 0.44024 0.4523 0.85086 0.0
C2279 C 0.45387 0.46487 0.83726 0.0
C2280 C 0.47172 0.49556 0.82217 0.0
C2281 C 0.48431 0.51076 0.8337 0.0
C2282 C 0.47452 0.49291 0.79872 0.0
C2283 C 0.46169 0.47723 0.78551 0.0
C2284 C 0.44411 0.47304 0.78355 0.0
C2285 C 0.43206 0.45808 0.77133 0.0
C2286 C 0.43738 0.44706 0.76079 0.0
C2287 C 0.45505 0.45142 0.76264 0.0
C2288 C 0.46709 0.46638 0.77481 0.0
C2289 C 0.51856 0.53305 0.78636 0.0
C2290 C 0.52949 0.52749 0.77638 0.0
C2291 C 0.54476 0.53942 0.76468 0.0
C2292 C 0.54928 0.55713 0.76248 0.0
C2293 C 0.5381 0.56257 0.77222 0.0
C2294 C 0.5229 0.55065 0.78411 0.0
C2295 C 0.5026 0.52041 0.79917 0.0
C2296 C 0.4899 0.5054 0.78753 0.0
C2297 C 0.49988 0.52308 0.82263 0.0
C2298 C 0.51365 0.53772 0.83653 0.0
C2299 C 0.53057 0.53992 0.83814 0.0
C2300 C 0.54335 0.55319 0.85197 0.0
C2301 C 0.53944 0.56443 0.86474 0.0
C2302 C 0.5225 0.56225 0.86307 0.0
C2303 C 0.50973 0.549 0.8491 0.0
H2304 H 0.61348 0.83407 0.50965 0.0
H2305 H 0.61332 0.8566 0.48511 0.0
H2306 H 0.66962 0.8889 0.49379 0.0
H2307 H 0.66936 0.86673 0.5193 0.0
H2308 H 0.63545 0.81805 0.50055 0.0
H2309 H 0.62639 0.85313 0.5568 0.0
H2310 H 0.63335 0.8802 0.57696 0.0
H2311 H 0.68125 0.88395 0.60277 0.0
H2312 H 0.67494 0.85777 0.58092 0.0
H2313 H 0.67522 0.81511 0.5763 0.0
H2314 H 0.68054 0.79387 0.59639 0.0
H2315 H 0.62733 0.75297 0.5814 0.0
H2316 H 0.62233 0.77428 0.56066 0.0
H2317 H 0.65168 0.82591 0.58371 0.0
H2318 H 0.66611 0.79741 0.52571 0.0
H2319 H 0.66538 0.77448 0.50107 0.0
H2320 H 0.6136 0.76098 0.47723 0.0
H2321 H 0.61418 0.78372 0.50243 0.0
C2322 C 0.6414 0.84884 0.51635 0.0
C2323 C 0.62571 0.84613 0.5064 0.0
C2324 C 0.6257 0.85898 0.49224 0.0
C2325 C 0.64147 0.87463 0.4873 0.0
C2326 C 0.65715 0.87725 0.4975 0.0
C2327 C 0.65708 0.86453 0.51198 0.0
C2328 C 0.64163 0.8349 0.5303 0.0
C2329 C 0.6386 0.81954 0.51888 0.0
C2330 C 0.64651 0.83736 0.55394 0.0
C2331 C 0.65029 0.85353 0.56689 0.0
C2332 C 0.63857 0.85998 0.5664 0.0
C2333 C 0.64243 0.87534 0.57834 0.0
C2334 C 0.65792 0.8844 0.59153 0.0
C2335 C 0.6694 0.87763 0.59244 0.0
C2336 C 0.66568 0.86247 0.58015 0.0
C2337 C 0.64842 0.79624 0.56692 0.0
C2338 C 0.66468 0.80158 0.57749 0.0
C2339 C 0.66767 0.78942 0.58906 0.0
C2340 C 0.65437 0.77169 0.59055 0.0
C2341 C 0.63796 0.76645 0.58027 0.0
C2342 C 0.63504 0.77861 0.56851 0.0
C2343 C 0.64567 0.80913 0.55391 0.0
C2344 C 0.64822 0.82427 0.56549 0.0
C2345 C 0.64097 0.80678 0.53021 0.0
C2346 C 0.64006 0.79212 0.51628 0.0
C2347 C 0.65439 0.78923 0.51569 0.0
C2348 C 0.65399 0.77615 0.50153 0.0
C2349 C 0.63942 0.76591 0.48729 0.0
C2350 C 0.62505 0.76874 0.48795 0.0
C2351 C 0.62536 0.7817 0.50234 0.0
H2352 H 0.16795 0.78117 0.51148 0.0
H2353 H 0.14553 0.75891 0.4862 0.0
H2354 H 0.11231 0.78137 0.49869 0.0
H2355 H 0.13441 0.80284 0.52482 0.0
H2356 H 0.1836 0.81896 0.50533 0.0
H2357 H 0.14993 0.77352 0.56001 0.0
H2358 H 0.1228 0.75188 0.57914 0.0
H2359 H 0.11518 0.79369 0.60499 0.0
H2360 H 0.14205 0.81529 0.58528 0.0
H2361 H 0.18575 0.85969 0.58353 0.0
H2362 H 0.20679 0.88595 0.60459 0.0
H2363 H 0.24799 0.87447 0.58819 0.0
H2364 H 0.22688 0.84847 0.56652 0.0
H2365 H 0.1749 0.82517 0.58896 0.0
H2366 H 0.20486 0.86993 0.53323 0.0
H2367 H 0.22722 0.89213 0.5079 0.0
H2368 H 0.23912 0.85346 0.48102 0.0
H2369 H 0.21722 0.83137 0.50707 0.0
C2370 C 0.15274 0.79352 0.52009 0.0
C2371 C 0.15573 0.78111 0.50888 0.0
C2372 C 0.14293 0.76848 0.4943 0.0
C2373 C 0.12704 0.76828 0.49025 0.0
C2374 C 0.12416 0.78079 0.50167 0.0
C2375 C 0.13683 0.7932 0.51653 0.0
C2376 C 0.16657 0.80743 0.53465 0.0
C2377 C 0.18197 0.82014 0.52376 0.0
C2378 C 0.16395 0.80919 0.55845 0.0
C2379 C 0.14791 0.79604 0.57086 0.0
C2380 C 0.14233 0.77804 0.56956 0.0
C2381 C 0.12688 0.76569 0.58056 0.0
C2382 C 0.11689 0.77113 0.59345 0.0
C2383 C 0.12272 0.78916 0.59529 0.0
C2384 C 0.13805 0.80149 0.58403 0.0
C2385 C 0.20478 0.85221 0.57335 0.0
C2386 C 0.1993 0.86278 0.58463 0.0
C2387 C 0.21135 0.87776 0.59677 0.0
C2388 C 0.22913 0.88238 0.59811 0.0
C2389 C 0.23448 0.8715 0.58719 0.0
C2390 C 0.22243 0.85658 0.57489 0.0
C2391 C 0.19202 0.83682 0.55962 0.0
C2392 C 0.17678 0.82384 0.57065 0.0
C2393 C 0.19464 0.83501 0.5358 0.0
C2394 C 0.20948 0.84898 0.52235 0.0
C2395 C 0.21267 0.86633 0.52252 0.0
C2396 C 0.22539 0.879 0.50795 0.0
C2397 C 0.23485 0.87446 0.49254 0.0
C2398 C 0.23194 0.85724 0.4927 0.0
C2399 C 0.21944 0.84465 0.50756 0.0
H2400 H 0.13855 0.32621 0.49321 0.0
H2401 H 0.11505 0.3267 0.4713 0.0
H2402 H 0.12315 0.37221 0.51013 0.0
H2403 H 0.1468 0.37171 0.53196 0.0
H2404 H 0.17351 0.3523 0.49507 0.0
H2405 H 0.12709 0.31739 0.54944 0.0
H2406 H 0.10086 0.31079 0.57162 0.0
H2407 H 0.12941 0.36165 0.60492 0.0
H2408 H 0.15584 0.36771 0.58331 0.0
H2409 H 0.20781 0.36606 0.58543 0.0
H2410 H 0.22866 0.36034 0.60624 0.0
H2411 H 0.21695 0.31741 0.55944 0.0
H2412 H 0.19574 0.32279 0.53933 0.0
H2413 H 0.17264 0.34464 0.58026 0.0
H2414 H 0.22266 0.37348 0.52773 0.0
H2415 H 0.24601 0.37612 0.50187 0.0
H2416 H 0.20746 0.33185 0.46206 0.0
H2417 H 0.18431 0.32951 0.48761 0.0
C2418 C 0.14438 0.34891 0.51419 0.0
C2419 C 0.1352 0.33624 0.49707 0.0
C2420 C 0.1217 0.33645 0.48472 0.0
C2421 C 0.11724 0.34947 0.48907 0.0
C2422 C 0.12637 0.36208 0.50636 0.0
C2423 C 0.13979 0.36175 0.5189 0.0
C2424 C 0.1591 0.34891 0.52659 0.0
C2425 C 0.17336 0.3506 0.51369 0.0
C2426 C 0.15895 0.34692 0.55084 0.0
C2427 C 0.1433 0.34305 0.56472 0.0
C2428 C 0.12766 0.32705 0.56162 0.0
C2429 C 0.11265 0.32338 0.5742 0.0
C2430 C 0.11291 0.33574 0.58997 0.0
C2431 C 0.12875 0.35172 0.59319 0.0
C2432 C 0.14385 0.35528 0.58078 0.0
C2433 C 0.2004 0.34501 0.56065 0.0
C2434 C 0.20978 0.35544 0.57967 0.0
C2435 C 0.22176 0.35222 0.59144 0.0
C2436 C 0.22446 0.33841 0.58449 0.0
C2437 C 0.21504 0.32802 0.5654 0.0
C2438 C 0.20307 0.33123 0.55369 0.0
C2439 C 0.18716 0.3479 0.54871 0.0
C2440 C 0.17311 0.34677 0.56171 0.0
C2441 C 0.18736 0.35002 0.52439 0.0
C2442 C 0.20174 0.35132 0.50954 0.0
C2443 C 0.2193 0.3643 0.51349 0.0
C2444 C 0.23263 0.36577 0.49874 0.0
C2445 C 0.22858 0.35431 0.47975 0.0
C2446 C 0.211 0.34115 0.47618 0.0
C2447 C 0.19774 0.33973 0.49084 0.0
C2448 C 0.96953 0.40593 0.10162 0.0
C2449 C 0.98222 0.40074 0.10368 0.0
H2450 H 0.95951 0.42194 0.11459 0.0
C2451 C 0.99378 0.407 0.12269 0.0
H2452 H 0.96014 0.40113 0.08755 0.0
C2453 C 0.993 0.4185 0.13873 0.0
C2454 C 0.98088 0.42436 0.13603 0.0
H2455 H 0.00387 0.40352 0.12485 0.0
H2456 H 0.00214 0.423 0.15309 0.0
C2457 C 0.96896 0.41768 0.11745 0.0
C2458 C 0.59825 0.56109 0.09813 0.0
C2459 C 0.60752 0.57893 0.10449 0.0
H2460 H 0.57962 0.53478 0.10821 0.0
C2461 C 0.60605 0.58359 0.12735 0.0
H2462 H 0.59889 0.55707 0.08058 0.0
C2463 C 0.59497 0.57081 0.14318 0.0
C2464 C 0.58512 0.55307 0.13651 0.0
H2465 H 0.61326 0.59718 0.13291 0.0
H2466 H 0.59389 0.57485 0.16055 0.0
C2467 C 0.58718 0.5483 0.11397 0.0
C2468 C 0.42456 0.02759 0.11445 0.0
C2469 C 0.41422 0.0123 0.10138 0.0
H2470 H 0.44433 0.04003 0.1406 0.0
C2471 C 0.41635 0.99766 0.10466 0.0
H2472 H 0.42312 0.03904 0.11241 0.0
C2473 C 0.42848 0.99823 0.12066 0.0
C2474 C 0.43878 0.01345 0.13386 0.0
H2475 H 0.40888 0.98582 0.09451 0.0
H2476 H 0.43002 0.98682 0.12234 0.0
C2477 C 0.43671 0.02815 0.13056 0.0
C2478 C 0.39774 0.96943 0.89923 0.0
C2479 C 0.39758 0.98479 0.90556 0.0
H2480 H 0.41086 0.95832 0.88037 0.0
C2481 C 0.41041 0.00096 0.89625 0.0
H2482 H 0.38796 0.95678 0.90603 0.0
C2483 C 0.42348 0.00184 0.88162 0.0
C2484 C 0.42397 0.98657 0.87586 0.0
H2485 H 0.41077 0.01306 0.90099 0.0
H2486 H 0.43339 0.01453 0.87508 0.0
C2487 C 0.41076 0.9703 0.88442 0.0
C2488 C 0.01909 0.41221 0.88687 0.0
C2489 C 0.02635 0.41717 0.90916 0.0
H2490 H 0.01345 0.42039 0.85469 0.0
C2491 C 0.03473 0.43503 0.9154 0.0
H2492 H 0.0128 0.3986 0.88139 0.0
C2493 C 0.0351 0.4475 0.90011 0.0
C2494 C 0.02708 0.44239 0.87825 0.0
H2495 H 0.04024 0.43927 0.93255 0.0
H2496 H 0.04092 0.46101 0.90587 0.0
C2497 C 0.01945 0.42467 0.87159 0.0
C2498 C 0.58324 0.59915 0.8894 0.0
C2499 C 0.5786 0.60094 0.91215 0.0
H2500 H 0.57449 0.58646 0.85648 0.0
C2501 C 0.5608 0.59143 0.91867 0.0
H2502 H 0.59679 0.60651 0.88369 0.0
C2503 C 0.54803 0.58 0.90305 0.0
C2504 C 0.55277 0.57777 0.88058 0.0
H2505 H 0.55679 0.59228 0.93614 0.0
H2506 H 0.53454 0.57239 0.9089 0.0
C2507 C 0.57047 0.58768 0.87381 0.0
C2508 C 0.03068 0.59377 0.9175 0.0
C2509 C 0.0191 0.60014 0.91354 0.0
H2510 H 0.03977 0.57647 0.90656 0.0
C2511 C 0.00841 0.59438 0.89368 0.0
H2512 H 0.03932 0.59809 0.93239 0.0
C2513 C 0.00904 0.58234 0.87847 0.0
C2514 C 0.02017 0.5755 0.88285 0.0
H2515 H 0.99914 0.59875 0.89013 0.0
H2516 H 0.00064 0.57828 0.86335 0.0
C2517 C 0.03114 0.58153 0.90244 0.0
C2518 C 0.40213 0.43608 0.91738 0.0
C2519 C 0.39254 0.41822 0.91119 0.0
H2520 H 0.4213 0.46216 0.90721 0.0
C2521 C 0.3941 0.4133 0.88852 0.0
H2522 H 0.40144 0.4403 0.93479 0.0
C2523 C 0.40554 0.42586 0.8727 0.0
C2524 C 0.41565 0.44361 0.8792 0.0
H2525 H 0.38667 0.39969 0.88309 0.0
H2526 H 0.40665 0.42163 0.85546 0.0
C2527 C 0.41354 0.44863 0.90156 0.0
C2528 C 0.57105 0.98921 0.9245 0.0
C2529 C 0.58226 0.98296 0.91756 0.0
H2530 H 0.55114 0.99504 0.91491 0.0
C2531 C 0.5818 0.9779 0.89431 0.0
H2532 H 0.57121 0.99357 0.94209 0.0
C2533 C 0.57055 0.97927 0.87839 0.0
C2534 C 0.55945 0.98566 0.8854 0.0
H2535 H 0.59013 0.97288 0.88836 0.0
H2536 H 0.57078 0.9756 0.86054 0.0
C2537 C 0.55972 0.9904 0.90872 0.0
C2538 C 0.60276 0.02794 0.12013 0.0
C2539 C 0.59704 0.01495 0.10285 0.0
H2540 H 0.5954 0.03821 0.14912 0.0
C2541 C 0.57923 0.00188 0.10201 0.0
H2542 H 0.61643 0.03817 0.12109 0.0
C2543 C 0.56732 0.00182 0.11805 0.0
C2544 C 0.57293 0.01491 0.13514 0.0
H2545 H 0.57451 0.9916 0.08902 0.0
H2546 H 0.55364 0.99165 0.11684 0.0
C2547 C 0.59075 0.02802 0.13603 0.0
C2548 C 0.96653 0.56121 0.09694 0.0
C2549 C 0.97495 0.57934 0.1015 0.0
H2550 H 0.96036 0.5358 0.10912 0.0
C2551 C 0.98262 0.58552 0.12336 0.0
H2552 H 0.96033 0.55602 0.08036 0.0
C2553 C 0.9825 0.57391 0.13994 0.0
C2554 C 0.97467 0.55586 0.13504 0.0
H2555 H 0.98933 0.59943 0.12737 0.0
H2556 H 0.98881 0.57911 0.15646 0.0
C2557 C 0.96638 0.5496 0.11353 0.0
C2558 C 0.42066 0.39671 0.12257 0.0
C2559 C 0.42539 0.39734 0.09919 0.0
H2560 H 0.42901 0.40725 0.15671 0.0
C2561 C 0.44295 0.40857 0.09262 0.0
H2562 H 0.40718 0.38827 0.12807 0.0
C2563 C 0.45543 0.41932 0.10899 0.0
C2564 C 0.45054 0.41923 0.13219 0.0
H2565 H 0.44695 0.40923 0.07472 0.0
H2566 H 0.46876 0.42821 0.10331 0.0
C2567 C 0.43309 0.40765 0.1389 0.0
C2568 C 0.64692 0.73033 0.46206 0.0
C2569 C 0.64255 0.73035 0.43862 0.0
H2570 H 0.64922 0.74145 0.49585 0.0
C2571 C 0.63638 0.74162 0.43168 0.0
H2572 H 0.65144 0.72164 0.46813 0.0
C2573 C 0.63488 0.75276 0.44764 0.0
C2574 C 0.6397 0.75305 0.47087 0.0
H2575 H 0.63322 0.7423 0.41374 0.0
H2576 H 0.63055 0.76161 0.44159 0.0
C2577 C 0.64559 0.74162 0.47797 0.0
C2578 C 0.26968 0.91662 0.46448 0.0
C2579 C 0.2672 0.91207 0.44081 0.0
H2580 H 0.26135 0.90827 0.49943 0.0
C2581 C 0.25442 0.89481 0.43462 0.0
H2582 H 0.27958 0.92964 0.47001 0.0
C2583 C 0.24435 0.88253 0.45152 0.0
C2584 C 0.24657 0.88724 0.47502 0.0
H2585 H 0.25176 0.89085 0.41664 0.0
H2586 H 0.23437 0.86947 0.44615 0.0
C2587 C 0.25935 0.90437 0.48138 0.0
C2588 C 0.09492 0.36661 0.44952 0.0
C2589 C 0.07932 0.35109 0.44382 0.0
H2590 H 0.1191 0.37826 0.46848 0.0
C2591 C 0.07573 0.33525 0.4544 0.0
H2592 H 0.09797 0.379 0.4417 0.0
C2593 C 0.0878 0.33482 0.46966 0.0
C2594 C 0.10366 0.35024 0.47479 0.0
H2595 H 0.06391 0.32305 0.45015 0.0
H2596 H 0.08489 0.32236 0.47714 0.0
C2597 C 0.10693 0.3662 0.46496 0.0
C2598 C 0.07743 0.32864 0.23535 0.0
C2599 C 0.06336 0.31355 0.24529 0.0
H2600 H 0.1 0.33915 0.2133 0.0
C2601 C 0.06088 0.29696 0.23921 0.0
H2602 H 0.07985 0.34163 0.23984 0.0
C2603 C 0.07257 0.29556 0.22407 0.0
C2604 C 0.08701 0.31073 0.2149 0.0
H2605 H 0.05007 0.28509 0.24642 0.0
H2606 H 0.07067 0.28267 0.22022 0.0
C2607 C 0.0891 0.32724 0.22034 0.0
C2608 C 0.69881 0.77068 0.25267 0.0
C2609 C 0.69052 0.75283 0.24644 0.0
H2610 H 0.70636 0.79687 0.24225 0.0
C2611 C 0.6845 0.74799 0.22358 0.0
H2612 H 0.70337 0.77485 0.2702 0.0
C2613 C 0.68615 0.76063 0.20758 0.0
C2614 C 0.69392 0.77839 0.21405 0.0
H2615 H 0.67833 0.7344 0.2181 0.0
H2616 H 0.6812 0.75648 0.19018 0.0
C2617 C 0.70051 0.78332 0.23664 0.0
C2618 C 0.24619 0.93996 0.2198 0.0
C2619 C 0.24248 0.93701 0.24367 0.0
H2620 H 0.23714 0.93139 0.1851 0.0
C2621 C 0.22578 0.92334 0.25049 0.0
H2622 H 0.2587 0.95053 0.21377 0.0
C2623 C 0.21332 0.91281 0.23401 0.0
C2624 C 0.21733 0.91541 0.21034 0.0
H2625 H 0.22245 0.92026 0.26858 0.0
H2626 H 0.20076 0.90213 0.23982 0.0
C2627 C 0.23382 0.92912 0.20333 0.0
C2628 C 0.68416 0.93283 0.2247 0.0
C2629 C 0.69281 0.93626 0.24618 0.0
H2630 H 0.67849 0.91919 0.19235 0.0
C2631 C 0.70324 0.92865 0.25081 0.0
H2632 H 0.67587 0.93828 0.22057 0.0
C2633 C 0.7044 0.91734 0.23479 0.0
C2634 C 0.69527 0.91344 0.21366 0.0
H2635 H 0.71031 0.93121 0.267 0.0
H2636 H 0.71199 0.91118 0.23937 0.0
C2637 C 0.68545 0.92164 0.20862 0.0
C2638 C 0.07146 0.77506 0.25207 0.0
C2639 C 0.06364 0.75689 0.24804 0.0
H2640 H 0.08872 0.80102 0.23951 0.0
C2641 C 0.06653 0.75112 0.2266 0.0
H2642 H 0.06932 0.77998 0.26823 0.0
C2643 C 0.07739 0.7632 0.20993 0.0
C2644 C 0.08574 0.78136 0.21431 0.0
H2645 H 0.06089 0.73725 0.22294 0.0
H2646 H 0.07943 0.75829 0.1937 0.0
C2647 C 0.08241 0.78714 0.23544 0.0
C2648 C 0.23382 0.29295 0.24088 0.0
C2649 C 0.2497 0.30888 0.24367 0.0
H2650 H 0.20856 0.27961 0.22441 0.0
C2651 C 0.25261 0.32355 0.2306 0.0
H2652 H 0.23129 0.28143 0.25071 0.0
C2653 C 0.23962 0.32255 0.2158 0.0
C2654 C 0.22354 0.3068 0.21358 0.0
H2655 H 0.26463 0.33605 0.23257 0.0
H2656 H 0.24199 0.3342 0.20645 0.0
C2657 C 0.2209 0.29188 0.22579 0.0
C2658 C 0.25151 0.35407 0.42424 0.0
C2659 C 0.26786 0.35707 0.43234 0.0
H2660 H 0.22658 0.35125 0.43267 0.0
C2661 C 0.27155 0.36005 0.45616 0.0
H2662 H 0.24806 0.35147 0.4061 0.0
C2663 C 0.25899 0.35954 0.47156 0.0
C2664 C 0.24247 0.35605 0.46346 0.0
H2665 H 0.28407 0.36258 0.46296 0.0
H2666 H 0.26203 0.36139 0.48987 0.0
C2667 C 0.23904 0.35365 0.43957 0.0
C2668 C 0.65499 0.91811 0.45753 0.0
C2669 C 0.6441 0.91272 0.43784 0.0
H2670 H 0.6623 0.91059 0.48885 0.0
C2671 C 0.63165 0.89477 0.4353 0.0
H2672 H 0.66491 0.93174 0.46006 0.0
C2673 C 0.63061 0.88248 0.45147 0.0
C2674 C 0.64177 0.88784 0.47089 0.0
H2675 H 0.62279 0.8901 0.42065 0.0
H2676 H 0.62135 0.86873 0.44832 0.0
C2677 C 0.65372 0.90587 0.47391 0.0
C2678 C 0.10668 0.7393 0.43721 0.0
C2679 C 0.08867 0.73316 0.44051 0.0
H2680 H 0.13284 0.75541 0.44977 0.0
C2681 C 0.08337 0.73801 0.4609 0.0
H2682 H 0.11131 0.73564 0.42197 0.0
C2683 C 0.09572 0.74889 0.47731 0.0
C2684 C 0.11378 0.75555 0.47362 0.0
H2685 H 0.06969 0.73381 0.46404 0.0
H2686 H 0.09105 0.7522 0.49281 0.0
C2687 C 0.11907 0.75045 0.45344 0.0
C2688 C 0.32916 0.08733 0.77245 0.0
C2689 C 0.31531 0.07024 0.7679 0.0
H2690 H 0.33823 0.11097 0.79197 0.0
C2691 C 0.29973 0.0637 0.78085 0.0
H2692 H 0.34143 0.09267 0.763 0.0
C2693 C 0.29795 0.07417 0.79771 0.0
C2694 C 0.31177 0.09134 0.80204 0.0
H2695 H 0.2888 0.05061 0.77767 0.0
H2696 H 0.28578 0.06882 0.80738 0.0
C2697 C 0.32741 0.09774 0.78928 0.0
C2698 C 0.92297 0.22536 0.76368 0.0
C2699 C 0.93362 0.24322 0.76934 0.0
H2700 H 0.90429 0.19959 0.77559 0.0
C2701 C 0.93419 0.24857 0.79242 0.0
H2702 H 0.92239 0.22086 0.74605 0.0
C2703 C 0.92381 0.2364 0.80935 0.0
C2704 C 0.91282 0.21861 0.80355 0.0
H2705 H 0.9422 0.26227 0.79724 0.0
H2706 H 0.92422 0.24092 0.82692 0.0
C2707 C 0.91274 0.21318 0.78062 0.0
C2708 C 0.74645 0.67141 0.7844 0.0
C2709 C 0.74896 0.68634 0.77231 0.0
H2710 H 0.75718 0.66069 0.80825 0.0
C2711 C 0.76432 0.70253 0.7763 0.0
H2712 H 0.73483 0.65872 0.78152 0.0
C2713 C 0.77713 0.70364 0.79164 0.0
C2714 C 0.77488 0.68854 0.80302 0.0
H2715 H 0.76654 0.71426 0.76732 0.0
H2716 H 0.78906 0.71617 0.79396 0.0
C2717 C 0.7593 0.67249 0.79953 0.0
C2718 C 0.73847 0.66043 0.56215 0.0
C2719 C 0.7273 0.64534 0.57502 0.0
H2720 H 0.75974 0.67241 0.5379 0.0
C2721 C 0.72824 0.63 0.57174 0.0
H2722 H 0.73814 0.67248 0.56451 0.0
C2723 C 0.74051 0.62992 0.55637 0.0
C2724 C 0.75222 0.64528 0.54435 0.0
H2725 H 0.71973 0.61818 0.58141 0.0
H2726 H 0.74135 0.6181 0.5546 0.0
C2727 C 0.7509 0.66044 0.54709 0.0
C2728 C 0.3688 0.09372 0.56155 0.0
C2729 C 0.35273 0.08263 0.57262 0.0
H2730 H 0.38273 0.11469 0.53738 0.0
C2731 C 0.3381 0.0844 0.56748 0.0
H2732 H 0.38027 0.09256 0.56508 0.0
C2733 C 0.33953 0.09713 0.55188 0.0
C2734 C 0.35561 0.10836 0.54087 0.0
H2735 H 0.32563 0.0763 0.57609 0.0
H2736 H 0.32811 0.09848 0.54898 0.0
C2737 C 0.37021 0.10642 0.54576 0.0
C2738 C 0.9128 0.25168 0.56714 0.0
C2739 C 0.91397 0.26746 0.57446 0.0
H2740 H 0.89908 0.22842 0.54671 0.0
C2741 C 0.90217 0.27225 0.56536 0.0
H2742 H 0.92151 0.24749 0.57418 0.0
C2743 C 0.88939 0.2614 0.54931 0.0
C2744 C 0.88802 0.24544 0.54222 0.0
H2745 H 0.90287 0.28442 0.57059 0.0
H2746 H 0.88062 0.26555 0.54242 0.0
C2747 C 0.89994 0.24076 0.55131 0.0
C2748 C 0.34942 0.26508 0.55658 0.0
C2749 C 0.35796 0.26842 0.57813 0.0
H2750 H 0.34386 0.25152 0.52417 0.0
C2751 C 0.36831 0.26075 0.58283 0.0
H2752 H 0.3412 0.27061 0.55239 0.0
C2753 C 0.36949 0.24943 0.56684 0.0
C2754 C 0.36046 0.24562 0.54563 0.0
H2755 H 0.37532 0.26325 0.59906 0.0
H2756 H 0.37701 0.24322 0.57149 0.0
C2757 C 0.35072 0.25389 0.54051 0.0
C2758 C 0.75099 0.08936 0.57156 0.0
C2759 C 0.73485 0.08749 0.57864 0.0
H2760 H 0.77374 0.10299 0.55021 0.0
C2761 C 0.72885 0.09784 0.5679 0.0
H2762 H 0.75588 0.08139 0.57916 0.0
C2763 C 0.739 0.11007 0.55087 0.0
C2764 C 0.75535 0.11219 0.54419 0.0
H2765 H 0.71651 0.09679 0.57303 0.0
H2766 H 0.73406 0.1179 0.54298 0.0
C2767 C 0.76113 0.10159 0.55465 0.0
C2768 C 0.89938 0.6295 0.57298 0.0
C2769 C 0.91524 0.64513 0.57736 0.0
H2770 H 0.87472 0.61731 0.55498 0.0
C2771 C 0.9187 0.66054 0.56568 0.0
H2772 H 0.89642 0.61742 0.58166 0.0
C2773 C 0.90631 0.66049 0.55059 0.0
C2774 C 0.89026 0.645 0.54668 0.0
H2775 H 0.93072 0.67282 0.56888 0.0
H2776 H 0.90916 0.67266 0.54223 0.0
C2777 C 0.88704 0.62941 0.55763 0.0
C2778 C 0.93569 0.70339 0.77515 0.0
C2779 C 0.93665 0.68795 0.77338 0.0
H2780 H 0.92327 0.71627 0.79148 0.0
C2781 C 0.92615 0.67373 0.78802 0.0
H2782 H 0.94371 0.71456 0.76413 0.0
C2783 C 0.91443 0.67467 0.80349 0.0
C2784 C 0.91312 0.68991 0.80481 0.0
H2785 H 0.92648 0.66161 0.78688 0.0
H2786 H 0.90616 0.66336 0.81415 0.0
C2787 C 0.92411 0.7044 0.79087 0.0
C2788 C 0.32593 0.24306 0.77336 0.0
C2789 C 0.31147 0.24507 0.76794 0.0
H2790 H 0.33589 0.22973 0.79366 0.0
C2791 C 0.29571 0.23521 0.78031 0.0
H2792 H 0.33834 0.25065 0.76442 0.0
C2793 C 0.29436 0.22332 0.79738 0.0
C2794 C 0.30878 0.22114 0.80251 0.0
H2795 H 0.28432 0.23643 0.77647 0.0
H2796 H 0.28204 0.21584 0.80656 0.0
C2797 C 0.32459 0.23123 0.79038 0.0
C2798 C 0.76601 0.06143 0.78303 0.0
C2799 C 0.75612 0.06739 0.77098 0.0
H2800 H 0.78534 0.06693 0.80925 0.0
C2801 C 0.75804 0.08376 0.77696 0.0
H2802 H 0.76487 0.0489 0.77878 0.0
C2803 C 0.76983 0.09412 0.79414 0.0
C2804 C 0.77995 0.08835 0.80598 0.0
H2805 H 0.75042 0.08864 0.76833 0.0
H2806 H 0.77128 0.10686 0.79777 0.0
C2807 C 0.77784 0.07182 0.80033 0.0
C2808 C 0.08314 0.33103 0.05134 0.0
C2809 C 0.07248 0.33586 0.06388 0.0
H2810 H 0.10263 0.32326 0.05274 0.0
C2811 C 0.07332 0.33619 0.0882 0.0
H2812 H 0.08297 0.33085 0.03258 0.0
C2813 C 0.0846 0.33189 0.0997 0.0
C2814 C 0.09527 0.32711 0.08718 0.0
H2815 H 0.06503 0.33948 0.09842 0.0
H2816 H 0.08477 0.33207 0.11846 0.0
C2817 C 0.0944 0.32668 0.06287 0.0
C2818 C 0.66101 0.74492 0.05038 0.0
C2819 C 0.66506 0.73303 0.061 0.0
H2820 H 0.66184 0.76962 0.05268 0.0
C2821 C 0.67348 0.73737 0.08266 0.0
H2822 H 0.65442 0.74189 0.03376 0.0
C2823 C 0.67765 0.75319 0.09354 0.0
C2824 C 0.67344 0.765 0.08303 0.0
H2825 H 0.67696 0.72858 0.09116 0.0
H2826 H 0.68392 0.75605 0.11036 0.0
C2827 C 0.66511 0.76071 0.0613 0.0
C2828 C 0.25106 0.91473 0.0456 0.0
C2829 C 0.2616 0.93174 0.05462 0.0
H2830 H 0.22748 0.88986 0.049 0.0
C2831 C 0.2558 0.93667 0.07447 0.0
H2832 H 0.25517 0.91044 0.03045 0.0
C2833 C 0.24009 0.92477 0.08535 0.0
C2834 C 0.22969 0.90766 0.07657 0.0
H2835 H 0.26343 0.94975 0.08168 0.0
H2836 H 0.2363 0.92888 0.10096 0.0
C2837 C 0.23528 0.90285 0.05642 0.0
C2838 C 0.32977 0.06851 0.93356 0.0
C2839 C 0.33593 0.07145 0.9565 0.0
H2840 H 0.32046 0.07729 0.90525 0.0
C2841 C 0.33731 0.08595 0.96865 0.0
H2842 H 0.32837 0.05731 0.92388 0.0
C2843 C 0.33276 0.09736 0.95799 0.0
C2844 C 0.32655 0.09437 0.93508 0.0
H2845 H 0.34208 0.08856 0.98632 0.0
H2846 H 0.33395 0.10843 0.96775 0.0
C2847 C 0.32506 0.07981 0.92299 0.0
C2848 C 0.91854 0.26481 0.94576 0.0
C2849 C 0.93247 0.26591 0.95894 0.0
H2850 H 0.89622 0.24875 0.9245 0.0
C2851 C 0.93428 0.25096 0.96088 0.0
H2852 H 0.9167 0.27604 0.94407 0.0
C2853 C 0.92244 0.23527 0.94984 0.0
C2854 C 0.90852 0.23417 0.93665 0.0
H2855 H 0.945 0.25144 0.97066 0.0
H2856 H 0.92411 0.22396 0.95183 0.0
C2857 C 0.9067 0.24912 0.93474 0.0
C2858 C 0.74663 0.68309 0.9482 0.0
C2859 C 0.73489 0.66573 0.95517 0.0
H2860 H 0.77096 0.70069 0.93145 0.0
C2861 C 0.73942 0.65273 0.95111 0.0
H2862 H 0.74344 0.69337 0.95076 0.0
C2863 C 0.75515 0.65693 0.93997 0.0
C2864 C 0.76673 0.67422 0.93268 0.0
H2865 H 0.73083 0.6393 0.95662 0.0
H2866 H 0.75828 0.64662 0.93714 0.0
C2867 C 0.76239 0.68729 0.93711 0.0
C2868 C 0.93578 0.68519 0.94566 0.0
C2869 C 0.92937 0.66977 0.95898 0.0
H2870 H 0.9295 0.70094 0.92381 0.0
C2871 C 0.91108 0.6587 0.96109 0.0
H2872 H 0.94975 0.69389 0.94329 0.0
C2873 C 0.89954 0.66262 0.94957 0.0
C2874 C 0.906 0.67782 0.93595 0.0
H2875 H 0.90565 0.64693 0.97158 0.0
H2876 H 0.88552 0.65374 0.95126 0.0
C2877 C 0.9242 0.68922 0.9344 0.0
C2878 C 0.32639 0.26208 0.93457 0.0
C2879 C 0.33125 0.26491 0.95803 0.0
H2880 H 0.31834 0.24428 0.9058 0.0
C2881 C 0.33146 0.25142 0.97073 0.0
H2882 H 0.32597 0.27223 0.92446 0.0
C2883 C 0.32722 0.23551 0.96003 0.0
C2884 C 0.32241 0.23271 0.93655 0.0
H2885 H 0.33523 0.25331 0.98882 0.0
H2886 H 0.32766 0.22536 0.97011 0.0
C2887 C 0.32188 0.24607 0.92397 0.0
C2888 C 0.74228 0.06387 0.94184 0.0
C2889 C 0.7372 0.06839 0.96264 0.0
H2890 H 0.76124 0.07202 0.91458 0.0
C2891 C 0.74818 0.08505 0.97234 0.0
H2892 H 0.73395 0.05123 0.93374 0.0
C2893 C 0.76393 0.09694 0.96145 0.0
C2894 C 0.76896 0.09247 0.94053 0.0
H2895 H 0.74469 0.08881 0.9885 0.0
H2896 H 0.77222 0.10959 0.96954 0.0
C2897 C 0.75795 0.07578 0.93088 0.0
C2898 C 0.66105 0.91312 0.05141 0.0
C2899 C 0.66694 0.92988 0.0609 0.0
H2900 H 0.66021 0.88847 0.05454 0.0
C2901 C 0.67652 0.93444 0.08169 0.0
H2902 H 0.65381 0.9093 0.03527 0.0
C2903 C 0.68012 0.92252 0.09278 0.0
C2904 C 0.67427 0.90575 0.08331 0.0
H2905 H 0.68098 0.94715 0.08965 0.0
H2906 H 0.68723 0.92634 0.10901 0.0
C2907 C 0.6647 0.90119 0.06247 0.0
C2908 C 0.08442 0.74306 0.05312 0.0
C2909 C 0.06755 0.73237 0.06248 0.0
H2910 H 0.10909 0.76692 0.05594 0.0
C2911 C 0.0629 0.73788 0.08283 0.0
H2912 H 0.08851 0.73914 0.03761 0.0
C2913 C 0.07481 0.75367 0.09357 0.0
C2914 C 0.09164 0.7644 0.08416 0.0
H2915 H 0.04994 0.73011 0.09035 0.0
H2916 H 0.07085 0.75739 0.10938 0.0
C2917 C 0.0963 0.7589 0.06381 0.0
C2918 C 0.24986 0.32909 0.05281 0.0
C2919 C 0.26503 0.33349 0.0658 0.0
H2920 H 0.22261 0.32161 0.05349 0.0
C2921 C 0.26389 0.33292 0.0901 0.0
H2922 H 0.25033 0.32954 0.03406 0.0
C2923 C 0.24809 0.32845 0.10116 0.0
C2924 C 0.23302 0.32438 0.0882 0.0
H2925 H 0.27521 0.33582 0.10063 0.0
H2926 H 0.24764 0.32812 0.11992 0.0
C2927 C 0.23399 0.32454 0.06391 0.0
C2928 C 0.73879 0.67246 0.42033 0.0
C2929 C 0.73777 0.67226 0.39603 0.0
H2930 H 0.75102 0.66892 0.45021 0.0
C2931 C 0.74887 0.66822 0.38312 0.0
H2932 H 0.73018 0.67514 0.43082 0.0
C2933 C 0.76075 0.66452 0.39427 0.0
C2934 C 0.76183 0.66487 0.41856 0.0
H2935 H 0.74856 0.66814 0.36437 0.0
H2936 H 0.7693 0.66171 0.38387 0.0
C2937 C 0.7507 0.66884 0.43145 0.0
C2938 C 0.34261 0.07306 0.40999 0.0
C2939 C 0.33221 0.06734 0.38988 0.0
H2940 H 0.35453 0.09279 0.43614 0.0
C2941 C 0.32649 0.07823 0.38011 0.0
H2942 H 0.34751 0.06517 0.41778 0.0
C2943 C 0.33089 0.09434 0.39036 0.0
C2944 C 0.34102 0.09989 0.41072 0.0
H2945 H 0.31834 0.0742 0.36475 0.0
H2946 H 0.32633 0.10243 0.38231 0.0
C2947 C 0.34689 0.08907 0.42033 0.0
C2948 C 0.91641 0.25358 0.37822 0.0
C2949 C 0.92893 0.26836 0.39058 0.0
H2950 H 0.89093 0.23049 0.37841 0.0
C2951 C 0.92483 0.27128 0.4131 0.0
H2952 H 0.91922 0.25091 0.36089 0.0
C2953 C 0.90868 0.25955 0.42317 0.0
C2954 C 0.8963 0.24461 0.41096 0.0
H2955 H 0.93411 0.28268 0.42295 0.0
H2956 H 0.90606 0.26197 0.44072 0.0
C2957 C 0.90029 0.24181 0.38832 0.0
C2958 C 0.99824 0.40344 0.26711 0.0
C2959 C 0.00915 0.40818 0.28672 0.0
H2960 H 0.98709 0.4117 0.2406 0.0
C2961 C 0.01712 0.42561 0.29477 0.0
H2962 H 0.99168 0.39009 0.26059 0.0
C2963 C 0.01417 0.43796 0.28355 0.0
C2964 C 0.00322 0.43318 0.26397 0.0
H2965 H 0.02575 0.42976 0.30967 0.0
H2966 H 0.02028 0.45119 0.29043 0.0
C2967 C 0.99539 0.41579 0.25583 0.0
C2968 C 0.60493 0.5923 0.26831 0.0
C2969 C 0.60007 0.59756 0.28871 0.0
H2970 H 0.59726 0.57308 0.24142 0.0
C2971 C 0.58326 0.58656 0.29805 0.0
H2972 H 0.61785 0.60033 0.26082 0.0
C2973 C 0.57155 0.57076 0.28713 0.0
C2974 C 0.57634 0.56561 0.26657 0.0
H2975 H 0.57902 0.59027 0.31361 0.0
H2976 H 0.55875 0.56255 0.29485 0.0
C2977 C 0.5932 0.57654 0.25735 0.0
C2978 C 0.39426 0.97681 0.27236 0.0
C2979 C 0.39476 0.98881 0.28887 0.0
H2980 H 0.40888 0.97041 0.24846 0.0
C2981 C 0.41091 0.00386 0.29403 0.0
H2982 H 0.38199 0.96506 0.26816 0.0
C2983 C 0.42625 0.00697 0.28269 0.0
C2984 C 0.42575 0.99497 0.26618 0.0
H2985 H 0.41163 0.01339 0.30654 0.0
H2986 H 0.43853 0.0187 0.28693 0.0
C2987 C 0.40964 0.97981 0.26123 0.0
C2988 C 0.59041 0.00399 0.29243 0.0
C2989 C 0.59141 0.98891 0.2872 0.0
H2990 H 0.57756 0.01875 0.2858 0.0
C2991 C 0.57961 0.97676 0.27107 0.0
H2992 H 0.59945 0.01366 0.30464 0.0
C2993 C 0.56709 0.97968 0.26031 0.0
C2994 C 0.56625 0.99488 0.26531 0.0
H2995 H 0.58003 0.96498 0.26683 0.0
H2996 H 0.55827 0.97019 0.24776 0.0
C2997 C 0.57801 0.00699 0.2815 0.0
C2998 C 0.01973 0.60472 0.27124 0.0
C2999 C 0.00815 0.60405 0.28853 0.0
H3000 H 0.02578 0.59031 0.24655 0.0
C3001 C 0.99352 0.58775 0.29435 0.0
H3002 H 0.03117 0.6171 0.26652 0.0
C3003 C 0.99042 0.57244 0.28288 0.0
C3004 C 0.00198 0.57312 0.26556 0.0
H3005 H 0.9843 0.58687 0.30747 0.0
H3006 H 0.97903 0.56005 0.28767 0.0
C3007 C 0.01672 0.58939 0.25995 0.0
C3008 C 0.40699 0.39932 0.26454 0.0
C3009 C 0.40335 0.40308 0.28686 0.0
H3010 H 0.42526 0.40758 0.23634 0.0
C3011 C 0.41597 0.41842 0.29813 0.0
H3012 H 0.39757 0.38749 0.25555 0.0
C3013 C 0.43182 0.4299 0.28715 0.0
C3014 C 0.43542 0.42617 0.26478 0.0
H3015 H 0.41348 0.42168 0.3153 0.0
H3016 H 0.44131 0.44167 0.29619 0.0
C3017 C 0.42289 0.41071 0.25365 0.0
C3018 C 0.34017 0.26809 0.41869 0.0
C3019 C 0.33387 0.2655 0.39585 0.0
H3020 H 0.34882 0.25834 0.44667 0.0
C3021 C 0.33156 0.25073 0.38348 0.0
H3022 H 0.34221 0.27946 0.42854 0.0
C3023 C 0.33531 0.23865 0.39386 0.0
C3024 C 0.34162 0.24125 0.41669 0.0
H3025 H 0.32664 0.24838 0.36589 0.0
H3026 H 0.33339 0.22734 0.38396 0.0
C3027 C 0.3441 0.25612 0.42898 0.0
C3028 C 0.7299 0.08323 0.38995 0.0
C3029 C 0.73312 0.0691 0.39066 0.0
H3030 H 0.73884 0.10998 0.39933 0.0
C3031 C 0.74834 0.07146 0.4018 0.0
H3032 H 0.71819 0.08178 0.38173 0.0
C3033 C 0.76002 0.08751 0.4121 0.0
C3034 C 0.7568 0.10163 0.41147 0.0
H3035 H 0.7513 0.06091 0.40246 0.0
H3036 H 0.77148 0.08878 0.42085 0.0
C3037 C 0.74161 0.09932 0.40027 0.0
C3038 C 0.93141 0.66884 0.42173 0.0
C3039 C 0.93255 0.66907 0.39743 0.0
H3040 H 0.91538 0.6652 0.45143 0.0
C3041 C 0.91758 0.66525 0.38433 0.0
H3042 H 0.94255 0.67131 0.43235 0.0
C3043 C 0.90193 0.66163 0.39533 0.0
C3044 C 0.90097 0.66182 0.41962 0.0
H3045 H 0.91806 0.66547 0.36559 0.0
H3046 H 0.89072 0.65914 0.38482 0.0
C3047 C 0.91582 0.6653 0.43268 0.0
C3048 C 0.40812 0.99422 0.72384 0.0
C3049 C 0.41 0.01101 0.72321 0.0
H3050 H 0.41824 0.97821 0.73637 0.0
C3051 C 0.42474 0.02514 0.73355 0.0
H3052 H 0.39674 0.9831 0.71614 0.0
C3053 C 0.4373 0.02249 0.74465 0.0
C3054 C 0.43519 0.00556 0.74611 0.0
H3055 H 0.42651 0.03825 0.73305 0.0
H3056 H 0.44863 0.03375 0.75216 0.0
C3057 C 0.42051 0.99148 0.73535 0.0
C3058 C 0.00765 0.41332 0.72168 0.0
C3059 C 0.99337 0.39698 0.72818 0.0
H3060 H 0.02207 0.44108 0.72795 0.0
C3061 C 0.98236 0.39626 0.7463 0.0
H3062 H 0.01642 0.4142 0.70788 0.0
C3063 C 0.98554 0.41161 0.75768 0.0
C3064 C -8e-05 0.42793 0.75134 0.0
H3065 H 0.97121 0.38384 0.75155 0.0
H3066 H 0.97689 0.4107 0.77167 0.0
C3067 C 0.01096 0.42864 0.73326 0.0
C3068 C 0.58707 0.57686 0.71944 0.0
C3069 C 0.59729 0.59409 0.72791 0.0
H3070 H 0.56378 0.55182 0.72335 0.0
C3071 C 0.59144 0.5991 0.74763 0.0
H3072 H 0.59124 0.5725 0.70443 0.0
C3073 C 0.5759 0.58714 0.75879 0.0
C3074 C 0.5657 0.5699 0.75037 0.0
H3075 H 0.5988 0.61234 0.75444 0.0
H3076 H 0.57203 0.59137 0.77421 0.0
C3077 C 0.57143 0.56492 0.73049 0.0
C3078 C 0.65456 0.7296 0.60413 0.0
C3079 C 0.66515 0.73432 0.62406 0.0
H3080 H 0.64314 0.73767 0.57774 0.0
C3081 C 0.67183 0.75133 0.63319 0.0
H3082 H 0.64896 0.71653 0.59683 0.0
C3083 C 0.66811 0.76334 0.62254 0.0
C3084 C 0.65776 0.75869 0.6024 0.0
H3085 H 0.68016 0.75549 0.64837 0.0
H3086 H 0.67335 0.77627 0.63017 0.0
C3087 C 0.65098 0.74165 0.59337 0.0
C3088 C 0.24932 0.92009 0.64136 0.0
C3089 C 0.26624 0.9306 0.63216 0.0
H3090 H 0.22452 0.89639 0.6383 0.0
C3091 C 0.27104 0.92495 0.6121 0.0
H3092 H 0.24534 0.92405 0.65695 0.0
C3093 C 0.25908 0.90925 0.60123 0.0
C3094 C 0.24207 0.89875 0.61027 0.0
H3095 H 0.28392 0.93293 0.60443 0.0
H3096 H 0.26306 0.90561 0.58537 0.0
C3097 C 0.2374 0.90429 0.63061 0.0
C3098 C 0.06486 0.31933 0.60339 0.0
C3099 C 0.06567 0.32515 0.62624 0.0
H3100 H 0.07907 0.3186 0.57382 0.0
C3101 C 0.08207 0.33442 0.63725 0.0
H3102 H 0.05241 0.31243 0.59436 0.0
C3103 C 0.09739 0.33773 0.62562 0.0
C3104 C 0.09664 0.33204 0.60262 0.0
H3105 H 0.08301 0.33895 0.65493 0.0
H3106 H 0.10978 0.3446 0.63475 0.0
C3107 C 0.08017 0.32284 0.59166 0.0
C3108 C 0.26516 0.34496 0.61598 0.0
C3109 C 0.26096 0.32753 0.62014 0.0
H3110 H 0.25707 0.36206 0.60117 0.0
C3111 C 0.24452 0.31375 0.61297 0.0
H3112 H 0.27783 0.35586 0.62099 0.0
C3113 C 0.23263 0.3173 0.60164 0.0
C3114 C 0.23693 0.33471 0.59716 0.0
H3115 H 0.24078 0.30019 0.61625 0.0
H3116 H 0.22001 0.30638 0.59653 0.0
C3117 C 0.25328 0.34851 0.60461 0.0
C3118 C 0.65298 0.91904 0.62498 0.0
C3119 C 0.67051 0.93278 0.62682 0.0
H3120 H 0.63528 0.89298 0.61309 0.0
C3121 C 0.68385 0.93025 0.61744 0.0
H3122 H 0.6423 0.92053 0.6317 0.0
C3123 C 0.67976 0.91464 0.60603 0.0
C3124 C 0.66223 0.90095 0.60403 0.0
H3125 H 0.69754 0.94034 0.61882 0.0
H3126 H 0.69041 0.9135 0.59843 0.0
C3127 C 0.64891 0.9033 0.61389 0.0
C3128 C 0.08072 0.74791 0.63796 0.0
C3129 C 0.06816 0.73339 0.62526 0.0
H3130 H 0.10603 0.77132 0.63776 0.0
C3131 C 0.07185 0.73123 0.6022 0.0
H3132 H 0.07816 0.74992 0.65573 0.0
C3133 C 0.08777 0.74336 0.592 0.0
C3134 C 0.10024 0.75802 0.60457 0.0
H3135 H 0.06244 0.72006 0.59209 0.0
H3136 H 0.09022 0.74145 0.57413 0.0
C3137 C 0.09658 0.76019 0.62765 0.0
C3138 C 0.99874 0.59507 0.75373 0.0
C3139 C 0.99069 0.59116 0.73183 0.0
H3140 H 0.00828 0.58642 0.78189 0.0
C3141 C 0.98608 0.57496 0.72143 0.0
H3142 H 0.00262 0.60753 0.76208 0.0
C3143 C 0.98939 0.56288 0.73276 0.0
C3144 C 0.99752 0.56685 0.75461 0.0
H3145 H 0.97977 0.57154 0.70463 0.0
H3146 H 0.98581 0.55054 0.72427 0.0
C3147 C 0.00215 0.58307 0.76497 0.0
C3148 C 0.41739 0.41051 0.71603 0.0
C3149 C 0.40037 0.39983 0.72487 0.0
H3150 H 0.44228 0.43398 0.72011 0.0
C3151 C 0.39551 0.40494 0.74538 0.0
H3152 H 0.42144 0.40703 0.70009 0.0
C3153 C 0.40746 0.4203 0.75692 0.0
C3154 C 0.42453 0.43095 0.74818 0.0
H3155 H 0.38257 0.39683 0.75281 0.0
H3156 H 0.40343 0.42362 0.77299 0.0
C3157 C 0.42933 0.42593 0.72752 0.0
C3158 C 0.5901 0.99122 0.7327 0.0
C3159 C 0.60302 0.00825 0.72599 0.0
H3160 H 0.56545 0.97523 0.74979 0.0
C3161 C 0.60027 0.02236 0.7308 0.0
H3162 H 0.59191 0.98008 0.72956 0.0
C3163 C 0.58519 0.01959 0.74251 0.0
C3164 C 0.57245 0.00263 0.74961 0.0
H3165 H 0.60979 0.0356 0.7255 0.0
H3166 H 0.58347 0.03075 0.74595 0.0
C3167 C 0.57496 0.98843 0.74435 0.0
loop_
_geom_bond_atom_site_label_1
_geom_bond_atom_site_label_2
_geom_bond_distance
_geom_bond_site_symmetry_2
_ccdc_geom_bond_type
Li0 N17 1.990 1_554 S
Li0 O60 1.956 . S
Li0 O61 1.970 1_654 S
Li0 O62 1.964 . S
Li1 N25 1.990 . S
Li1 O60 1.970 1_455 S
Li1 O61 1.956 1_554 S
Li1 O63 1.961 . S
Li2 N47 1.990 . S
Li2 O60 1.961 . S
Li2 O62 1.984 . S
Li2 O63 1.970 1_655 S
Li3 N53 1.990 . S
Li3 O61 1.961 . S
Li3 O62 1.958 1_456 S
Li3 O63 1.956 1_556 S
C4 C6 1.341 1_655 S
C4 C7 1.356 . S
C4 O60 1.325 . S
N5 C8 1.314 . S
N5 C9 1.279 . S
C6 C4 1.341 1_455 S
C6 C8 1.353 1_455 S
C6 H64 0.936 . S
C7 C4 1.356 . S
C7 C9 1.358 . S
C7 H65 0.930 . S
C8 N5 1.314 . S
C8 C6 1.353 1_655 S
C8 H66 0.930 1_655 S
C9 N5 1.279 . S
C9 C7 1.358 . S
C9 H67 0.930 . S
C10 C13 1.348 . S
C10 C14 1.356 . S
C10 O61 1.325 . S
C11 N12 1.279 . S
C11 C14 1.358 . S
C11 H68 0.930 . S
N12 C11 1.279 . S
N12 C15 1.314 . S
C13 C10 1.348 . S
C13 C15 1.353 . S
C13 H69 0.929 1_455 S
C14 C10 1.356 . S
C14 C11 1.358 . S
C14 H70 0.930 . S
C15 N12 1.314 . S
C15 C13 1.353 . S
C15 H71 0.930 . S
C16 N17 1.314 . S
C16 C21 1.353 . S
C16 H22 0.930 . S
N17 Li0 1.990 1_556 S
N17 C16 1.314 . S
N17 C19 1.279 1_556 S
C18 C19 1.358 . S
C18 C20 1.356 1_554 S
C18 H72 0.930 . S
C19 N17 1.279 1_554 S
C19 C18 1.358 . S
C19 H23 0.930 . S
C20 C18 1.356 1_556 S
C20 C21 1.348 . S
C21 C16 1.353 . S
C21 C20 1.348 . S
C21 H73 0.929 . S
H22 C16 0.930 . S
H23 C19 0.930 . S
C24 N25 1.314 . S
C24 C26 1.353 . S
C24 H30 0.930 . S
N25 Li1 1.990 . S
N25 C24 1.314 . S
N25 C28 1.279 . S
C26 C24 1.353 . S
C26 C29 1.348 . S
C26 H74 0.929 . S
C27 C28 1.358 . S
C27 C29 1.356 . S
C27 H75 0.930 . S
C28 N25 1.279 . S
C28 C27 1.358 . S
C28 H31 0.930 1_554 S
C29 C26 1.348 . S
C29 C27 1.356 . S
H30 C24 0.930 . S
H31 C28 0.930 1_556 S
C32 C34 1.348 . S
C32 C35 1.356 1_556 S
C32 O62 1.319 1_556 S
N33 C36 1.314 . S
N33 C37 1.296 . S
C34 C32 1.348 . S
C34 C36 1.353 . S
C34 H76 0.929 . S
C35 C32 1.356 1_554 S
C35 C37 1.352 1_554 S
C35 H77 0.930 . S
C36 N33 1.314 . S
C36 C34 1.353 . S
C36 H78 0.930 . S
C37 N33 1.296 . S
C37 C35 1.352 1_556 S
C37 H79 0.920 1_556 S
C38 C39 1.348 . S
C38 C40 1.356 . S
C38 O63 1.325 . S
C39 C38 1.348 . S
C39 C41 1.353 . S
C39 H80 0.929 . S
C40 C38 1.356 . S
C40 C42 1.358 . S
C40 H81 0.930 . S
C41 C39 1.353 . S
C41 N43 1.314 . S
C41 H82 0.930 . S
C42 C40 1.358 . S
C42 N43 1.279 . S
C42 H83 0.930 . S
N43 C41 1.314 . S
N43 C42 1.279 . S
C44 C46 1.353 . S
C44 N47 1.314 . S
C44 H50 0.909 1_655 S
C45 N47 1.279 . S
C45 C48 1.358 . S
C45 H51 0.930 . S
C46 C44 1.353 . S
C46 C49 1.348 . S
C46 H84 0.929 . S
N47 Li2 1.990 . S
N47 C44 1.314 . S
N47 C45 1.279 . S
C48 C45 1.358 . S
C48 C49 1.356 . S
C48 H85 0.930 . S
C49 C46 1.348 . S
C49 C48 1.356 . S
H50 C44 0.909 1_455 S
H51 C45 0.930 . S
C52 N53 1.314 . S
C52 C54 1.353 . S
C52 H58 0.930 . S
N53 Li3 1.990 . S
N53 C52 1.314 . S
N53 C56 1.279 . S
C54 C52 1.353 . S
C54 C57 1.348 . S
C54 H86 0.929 . S
C55 C56 1.358 . S
C55 C57 1.356 . S
C55 H87 0.930 . S
C56 N53 1.279 . S
C56 C55 1.358 . S
C56 H59 0.930 . S
C57 C54 1.348 . S
C57 C55 1.356 . S
H58 C52 0.930 . S
H59 C56 0.930 . S
O60 Li0 1.956 . S
O60 Li1 1.970 1_655 S
O60 Li2 1.961 . S
O60 C4 1.325 . S
O61 Li0 1.970 1_456 S
O61 Li1 1.956 1_556 S
O61 Li3 1.961 . S
O61 C10 1.325 . S
O62 Li0 1.964 . S
O62 Li2 1.984 . S
O62 Li3 1.958 1_654 S
O62 C32 1.319 1_554 S
O63 Li1 1.961 . S
O63 Li2 1.970 1_455 S
O63 Li3 1.956 1_554 S
O63 C38 1.325 . S
H64 C6 0.936 . S
H65 C7 0.930 . S
H66 C8 0.930 1_455 S
H67 C9 0.930 . S
H68 C11 0.930 . S
H69 C13 0.929 1_655 S
H70 C14 0.930 . S
H71 C15 0.930 . S
H72 C18 0.930 . S
H73 C21 0.929 . S
H74 C26 0.929 . S
H75 C27 0.930 . S
H76 C34 0.929 . S
H77 C35 0.930 . S
H78 C36 0.930 . S
H79 C37 0.920 1_554 S
H80 C39 0.929 . S
H81 C40 0.930 . S
H82 C41 0.930 . S
H83 C42 0.930 . S
H84 C46 0.929 . S
H85 C48 0.930 . S
H86 C54 0.929 . S
H87 C55 0.930 . S
Li88 N105 1.981 1_554 S
Li88 O148 1.986 . S
Li88 O149 1.956 1_554 S
Li88 O150 1.959 1_554 S
Li89 N113 1.990 . S
Li89 O148 1.970 . S
Li89 O149 1.956 1_554 S
Li89 O151 1.961 . S
Li90 N135 1.990 . S
Li90 O148 1.961 . S
Li90 O150 1.956 1_554 S
Li90 O151 1.970 . S
Li91 N141 1.990 . S
Li91 O149 1.961 . S
Li91 O150 1.970 . S
Li91 O151 1.956 1_556 S
C92 C94 1.348 . S
C92 C95 1.356 . S
C92 O148 1.325 . S
N93 C96 1.314 . S
N93 C97 1.279 . S
C94 C92 1.348 . S
C94 C96 1.353 . S
C94 H152 0.929 . S
C95 C92 1.356 . S
C95 C97 1.358 . S
C95 H153 0.930 . S
C96 N93 1.314 . S
C96 C94 1.353 . S
C96 H154 0.930 . S
C97 N93 1.279 . S
C97 C95 1.358 . S
C97 H155 0.930 . S
C98 C101 1.348 . S
C98 C102 1.356 . S
C98 O149 1.325 . S
C99 N100 1.279 . S
C99 C102 1.358 . S
C99 H156 0.930 . S
N100 C99 1.279 . S
N100 C103 1.314 . S
C101 C98 1.348 . S
C101 C103 1.353 . S
C101 H157 0.929 . S
C102 C98 1.356 . S
C102 C99 1.358 . S
C102 H158 0.930 . S
C103 N100 1.314 . S
C103 C101 1.353 . S
C103 H159 0.930 . S
C104 N105 1.314 . S
C104 C109 1.353 . S
C104 H110 0.930 . S
N105 Li88 1.981 1_556 S
N105 C104 1.314 . S
N105 C107 1.279 1_556 S
C106 C107 1.358 1_556 S
C106 C108 1.356 . S
C106 H160 0.930 1_556 S
C107 N105 1.279 1_554 S
C107 C106 1.358 1_554 S
C107 H111 0.930 . S
C108 C106 1.356 . S
C108 C109 1.348 . S
C109 C104 1.353 . S
C109 C108 1.348 . S
C109 H161 0.929 . S
H110 C104 0.930 . S
H111 C107 0.930 . S
C112 N113 1.314 . S
C112 C114 1.353 . S
C112 H118 0.930 . S
N113 Li89 1.990 . S
N113 C112 1.314 . S
N113 C116 1.279 . S
C114 C112 1.353 . S
C114 C117 1.348 . S
C114 H162 0.929 . S
C115 C116 1.358 . S
C115 C117 1.356 . S
C115 H163 0.930 . S
C116 N113 1.279 . S
C116 C115 1.358 . S
C116 H119 0.930 . S
C117 C114 1.348 . S
C117 C115 1.356 . S
H118 C112 0.930 . S
H119 C116 0.930 . S
C120 C122 1.348 . S
C120 C123 1.356 . S
C120 O150 1.325 . S
N121 C124 1.314 . S
N121 C125 1.279 . S
C122 C120 1.348 . S
C122 C124 1.353 . S
C122 H164 0.929 . S
C123 C120 1.356 . S
C123 C125 1.358 . S
C123 H165 0.930 1_556 S
C124 N121 1.314 . S
C124 C122 1.353 . S
C124 H166 0.930 . S
C125 N121 1.279 . S
C125 C123 1.358 . S
C125 H167 0.930 . S
C126 C127 1.348 . S
C126 C128 1.356 . S
C126 O151 1.325 . S
C127 C126 1.348 . S
C127 C129 1.353 . S
C127 H168 0.929 . S
C128 C126 1.356 . S
C128 C130 1.358 . S
C128 H169 0.930 . S
C129 C127 1.353 . S
C129 N131 1.314 . S
C129 H170 0.930 . S
C130 C128 1.358 . S
C130 N131 1.279 . S
C130 H171 0.930 . S
N131 C129 1.314 . S
N131 C130 1.279 . S
C132 C134 1.353 . S
C132 N135 1.314 . S
C132 H138 0.930 . S
C133 N135 1.279 . S
C133 C136 1.358 . S
C133 H139 0.930 . S
C134 C132 1.353 . S
C134 C137 1.348 . S
C134 H172 0.929 . S
N135 Li90 1.990 . S
N135 C132 1.314 . S
N135 C133 1.279 . S
C136 C133 1.358 . S
C136 C137 1.356 . S
C136 H173 0.930 . S
C137 C134 1.348 . S
C137 C136 1.356 . S
H138 C132 0.930 . S
H139 C133 0.930 . S
C140 N141 1.314 . S
C140 C142 1.353 . S
C140 H146 0.930 . S
N141 Li91 1.990 . S
N141 C140 1.314 . S
N141 C144 1.279 . S
C142 C140 1.353 . S
C142 C145 1.348 . S
C142 H174 0.929 . S
C143 C144 1.358 . S
C143 C145 1.356 . S
C143 H175 0.930 . S
C144 N141 1.279 . S
C144 C143 1.358 . S
C144 H147 0.930 . S
C145 C142 1.348 . S
C145 C143 1.356 . S
H146 C140 0.930 . S
H147 C144 0.930 . S
O148 Li88 1.986 . S
O148 Li89 1.970 . S
O148 Li90 1.961 . S
O148 C92 1.325 . S
O149 Li88 1.956 1_556 S
O149 Li89 1.956 1_556 S
O149 Li91 1.961 . S
O149 C98 1.325 . S
O150 Li88 1.959 1_556 S
O150 Li90 1.956 1_556 S
O150 Li91 1.970 . S
O150 C120 1.325 . S
O151 Li89 1.961 . S
O151 Li90 1.970 . S
O151 Li91 1.956 1_554 S
O151 C126 1.325 . S
H152 C94 0.929 . S
H153 C95 0.930 . S
H154 C96 0.930 . S
H155 C97 0.930 . S
H156 C99 0.930 . S
H157 C101 0.929 . S
H158 C102 0.930 . S
H159 C103 0.930 . S
H160 C106 0.930 1_554 S
H161 C109 0.929 . S
H162 C114 0.929 . S
H163 C115 0.930 . S
H164 C122 0.929 . S
H165 C123 0.930 1_554 S
H166 C124 0.930 . S
H167 C125 0.930 . S
H168 C127 0.929 . S
H169 C128 0.930 . S
H170 C129 0.930 . S
H171 C130 0.930 . S
H172 C134 0.929 . S
H173 C136 0.930 . S
H174 C142 0.929 . S
H175 C143 0.930 . S
Li176 N193 1.990 . S
Li176 O236 1.956 1_556 S
Li176 O237 1.969 1_566 S
Li176 O238 1.961 . S
Li177 N201 1.990 . S
Li177 O236 1.970 1_545 S
Li177 O237 1.958 . S
Li177 O239 1.961 . S
Li178 N223 1.990 . S
Li178 O236 1.961 . S
Li178 O238 1.956 1_554 S
Li178 O239 1.970 1_565 S
Li179 N229 1.990 1_554 S
Li179 O237 1.961 . S
Li179 O238 1.970 1_544 S
Li179 O239 1.956 . S
C180 C182 1.348 . S
C180 C183 1.356 . S
C180 O236 1.325 . S
N181 C184 1.314 . S
N181 C185 1.279 . S
C182 C180 1.348 . S
C182 C184 1.353 . S
C182 H240 0.929 . S
C183 C180 1.356 . S
C183 C185 1.358 . S
C183 H241 0.930 . S
C184 N181 1.314 . S
C184 C182 1.353 . S
C184 H242 0.930 . S
C185 N181 1.279 . S
C185 C183 1.358 . S
C185 H243 0.930 . S
C186 C189 1.348 . S
C186 C190 1.356 1_556 S
C186 O237 1.324 1_556 S
C187 N188 1.279 . S
C187 C190 1.358 1_556 S
C187 H244 0.930 1_556 S
N188 C187 1.279 . S
N188 C191 1.314 . S
C189 C186 1.348 . S
C189 C191 1.353 . S
C189 H245 0.929 . S
C190 C186 1.356 1_554 S
C190 C187 1.358 1_554 S
C190 H246 0.930 . S
C191 N188 1.314 . S
C191 C189 1.353 . S
C191 H247 0.930 . S
C192 N193 1.314 . S
C192 C197 1.353 . S
C192 H198 0.907 1_565 S
N193 Li176 1.990 . S
N193 C192 1.314 . S
N193 C195 1.279 . S
C194 C195 1.358 . S
C194 C196 1.356 . S
C194 H248 0.930 . S
C195 N193 1.279 . S
C195 C194 1.358 . S
C195 H199 0.930 . S
C196 C194 1.356 . S
C196 C197 1.348 . S
C197 C192 1.353 . S
C197 C196 1.348 . S
C197 H249 0.929 . S
H198 C192 0.907 1_545 S
H199 C195 0.930 . S
C200 N201 1.314 . S
C200 C202 1.353 . S
C200 H206 0.930 . S
N201 Li177 1.990 . S
N201 C200 1.314 . S
N201 C204 1.279 . S
C202 C200 1.353 . S
C202 C205 1.348 . S
C202 H250 0.929 . S
C203 C204 1.358 . S
C203 C205 1.356 . S
C203 H251 0.930 . S
C204 N201 1.279 . S
C204 C203 1.358 . S
C204 H207 0.930 . S
C205 C202 1.348 . S
C205 C203 1.356 . S
H206 C200 0.930 . S
H207 C204 0.930 . S
C208 C210 1.340 1_565 S
C208 C211 1.356 . S
C208 O238 1.325 . S
N209 C212 1.314 . S
N209 C213 1.279 . S
C210 C208 1.340 1_545 S
C210 C212 1.353 1_545 S
C210 H252 0.937 . S
C211 C208 1.356 . S
C211 C213 1.358 . S
C211 H253 0.930 . S
C212 N209 1.314 . S
C212 C210 1.353 1_565 S
C212 H254 0.930 1_565 S
C213 N209 1.279 . S
C213 C211 1.358 . S
C213 H255 0.930 . S
C214 C215 1.348 . S
C214 C216 1.356 . S
C214 O239 1.325 . S
C215 C214 1.348 . S
C215 C217 1.353 . S
C215 H256 0.929 1_545 S
C216 C214 1.356 . S
C216 C218 1.358 . S
C216 H257 0.930 . S
C217 C215 1.353 . S
C217 N219 1.314 . S
C217 H258 0.930 . S
C218 C216 1.358 . S
C218 N219 1.279 . S
C218 H259 0.930 . S
N219 C217 1.314 . S
N219 C218 1.279 . S
C220 C222 1.353 . S
C220 N223 1.314 . S
C220 H226 0.930 . S
C221 N223 1.279 . S
C221 C224 1.358 . S
C221 H227 0.930 1_554 S
C222 C220 1.353 . S
C222 C225 1.348 . S
C222 H260 0.929 . S
N223 Li178 1.990 . S
N223 C220 1.314 . S
N223 C221 1.279 . S
C224 C221 1.358 . S
C224 C225 1.356 . S
C224 H261 0.930 . S
C225 C222 1.348 . S
C225 C224 1.356 . S
H226 C220 0.930 . S
H227 C221 0.930 1_556 S
C228 N229 1.314 . S
C228 C230 1.353 . S
C228 H234 0.930 . S
N229 Li179 1.990 1_556 S
N229 C228 1.314 . S
N229 C232 1.279 1_556 S
C230 C228 1.353 . S
C230 C233 1.348 . S
C230 H262 0.929 . S
C231 C232 1.368 . S
C231 C233 1.325 1_554 S
C231 H263 0.952 . S
C232 N229 1.279 1_554 S
C232 C231 1.368 . S
C232 H235 0.930 . S
C233 C230 1.348 . S
C233 C231 1.325 1_556 S
H234 C228 0.930 . S
H235 C232 0.930 . S
O236 Li176 1.956 1_554 S
O236 Li177 1.970 1_565 S
O236 Li178 1.961 . S
O236 C180 1.325 . S
O237 Li176 1.969 1_544 S
O237 Li177 1.958 . S
O237 Li179 1.961 . S
O237 C186 1.324 1_554 S
O238 Li176 1.961 . S
O238 Li178 1.956 1_556 S
O238 Li179 1.970 1_566 S
O238 C208 1.325 . S
O239 Li177 1.961 . S
O239 Li178 1.970 1_545 S
O239 Li179 1.956 . S
O239 C214 1.325 . S
H240 C182 0.929 . S
H241 C183 0.930 . S
H242 C184 0.930 . S
H243 C185 0.930 . S
H244 C187 0.930 1_554 S
H245 C189 0.929 . S
H246 C190 0.930 . S
H247 C191 0.930 . S
H248 C194 0.930 . S
H249 C197 0.929 . S
H250 C202 0.929 . S
H251 C203 0.930 . S
H252 C210 0.937 . S
H253 C211 0.930 . S
H254 C212 0.930 1_545 S
H255 C213 0.930 . S
H256 C215 0.929 1_565 S
H257 C216 0.930 . S
H258 C217 0.930 . S
H259 C218 0.930 . S
H260 C222 0.929 . S
H261 C224 0.930 . S
H262 C230 0.929 . S
H263 C231 0.952 . S
Li264 N281 1.990 . S
Li264 O324 1.956 . S
Li264 O325 1.970 1_455 S
Li264 O326 1.961 1_554 S
Li265 N289 1.990 . S
Li265 O324 1.970 1_655 S
Li265 O325 1.956 . S
Li265 O327 1.990 . S
Li266 N311 1.990 . S
Li266 O324 1.961 1_556 S
Li266 O326 1.956 . S
Li266 O327 1.956 1_456 S
Li267 N317 1.990 1_554 S
Li267 O325 1.961 . S
Li267 O326 1.970 1_654 S
Li267 O327 1.957 . S
C268 C270 1.348 . S
C268 C271 1.356 . S
C268 O324 1.325 . S
N269 C272 1.314 . S
N269 C273 1.279 . S
C270 C268 1.348 . S
C270 C272 1.353 . S
C270 H328 0.929 . S
C271 C268 1.356 . S
C271 C273 1.358 . S
C271 H329 0.930 1_554 S
C272 N269 1.314 . S
C272 C270 1.353 . S
C272 H330 0.930 . S
C273 N269 1.279 . S
C273 C271 1.358 . S
C273 H331 0.930 . S
C274 C277 1.348 1_655 S
C274 C278 1.356 . S
C274 O325 1.325 . S
C275 N276 1.279 . S
C275 C278 1.358 . S
C275 H332 0.930 . S
N276 C275 1.279 . S
N276 C279 1.314 . S
C277 C274 1.348 1_455 S
C277 C279 1.353 1_455 S
C277 H333 0.929 . S
C278 C274 1.356 . S
C278 C275 1.358 . S
C278 H334 0.930 . S
C279 N276 1.314 . S
C279 C277 1.353 1_655 S
C279 H335 0.930 1_655 S
C280 N281 1.314 . S
C280 C285 1.353 . S
C280 H286 0.930 . S
N281 Li264 1.990 . S
N281 C280 1.314 . S
N281 C283 1.279 . S
C282 C283 1.358 . S
C282 C284 1.356 . S
C282 H336 0.930 . S
C283 N281 1.279 . S
C283 C282 1.358 . S
C283 H287 0.930 . S
C284 C282 1.356 . S
C284 C285 1.348 . S
C285 C280 1.353 . S
C285 C284 1.348 . S
C285 H337 0.929 . S
H286 C280 0.930 . S
H287 C283 0.930 . S
C288 N289 1.314 . S
C288 C290 1.353 . S
C288 H294 0.930 . S
N289 Li265 1.990 . S
N289 C288 1.314 . S
N289 C292 1.279 . S
C290 C288 1.353 . S
C290 C293 1.348 . S
C290 H338 0.929 . S
C291 C292 1.358 . S
C291 C293 1.356 . S
C291 H339 0.930 . S
C292 N289 1.279 . S
C292 C291 1.358 . S
C292 H295 0.930 . S
C293 C290 1.348 . S
C293 C291 1.356 . S
H294 C288 0.930 . S
H295 C292 0.930 . S
C296 C298 1.348 1_455 S
C296 C299 1.356 . S
C296 O326 1.325 . S
N297 C300 1.314 . S
N297 C301 1.279 . S
C298 C296 1.348 1_655 S
C298 C300 1.353 1_655 S
C298 H340 0.929 . S
C299 C296 1.356 . S
C299 C301 1.358 . S
C299 H341 0.930 . S
C300 N297 1.314 . S
C300 C298 1.353 1_455 S
C300 H342 0.930 1_455 S
C301 N297 1.279 . S
C301 C299 1.358 . S
C301 H343 0.930 . S
C302 C303 1.348 . S
C302 C304 1.356 1_556 S
C302 O327 1.317 1_556 S
C303 C302 1.348 . S
C303 C305 1.353 . S
C303 H344 0.929 . S
C304 C302 1.356 1_554 S
C304 C306 1.358 . S
C304 H345 0.930 . S
C305 C303 1.353 . S
C305 N307 1.314 . S
C305 H346 0.930 . S
C306 C304 1.358 . S
C306 N307 1.279 1_554 S
C306 H347 0.930 . S
N307 C305 1.314 . S
N307 C306 1.279 1_556 S
C308 C310 1.353 . S
C308 N311 1.314 . S
C308 H314 0.930 . S
C309 N311 1.279 . S
C309 C312 1.358 . S
C309 H315 0.930 . S
C310 C308 1.353 . S
C310 C313 1.348 . S
C310 H348 0.929 . S
N311 Li266 1.990 . S
N311 C308 1.314 . S
N311 C309 1.279 . S
C312 C309 1.358 . S
C312 C313 1.356 . S
C312 H349 0.930 . S
C313 C310 1.348 . S
C313 C312 1.356 . S
H314 C308 0.930 . S
H315 C309 0.930 . S
C316 N317 1.314 . S
C316 C318 1.353 . S
C316 H322 0.930 1_556 S
N317 Li267 1.990 1_556 S
N317 C316 1.314 . S
N317 C320 1.279 . S
C318 C316 1.353 . S
C318 C321 1.348 . S
C318 H350 0.929 . S
C319 C320 1.358 . S
C319 C321 1.356 . S
C319 H351 0.930 . S
C320 N317 1.279 . S
C320 C319 1.358 . S
C320 H323 0.930 . S
C321 C318 1.348 . S
C321 C319 1.356 . S
H322 C316 0.930 1_554 S
H323 C320 0.930 . S
O324 Li264 1.956 . S
O324 Li265 1.970 1_455 S
O324 Li266 1.961 1_554 S
O324 C268 1.325 . S
O325 Li264 1.970 1_655 S
O325 Li265 1.956 . S
O325 Li267 1.961 . S
O325 C274 1.325 . S
O326 Li264 1.961 1_556 S
O326 Li266 1.956 . S
O326 Li267 1.970 1_456 S
O326 C296 1.325 . S
O327 Li265 1.990 . S
O327 Li266 1.956 1_654 S
O327 Li267 1.957 . S
O327 C302 1.317 1_554 S
H328 C270 0.929 . S
H329 C271 0.930 1_556 S
H330 C272 0.930 . S
H331 C273 0.930 . S
H332 C275 0.930 . S
H333 C277 0.929 . S
H334 C278 0.930 . S
H335 C279 0.930 1_455 S
H336 C282 0.930 . S
H337 C285 0.929 . S
H338 C290 0.929 . S
H339 C291 0.930 . S
H340 C298 0.929 . S
H341 C299 0.930 . S
H342 C300 0.930 1_655 S
H343 C301 0.930 . S
H344 C303 0.929 . S
H345 C304 0.930 . S
H346 C305 0.930 . S
H347 C306 0.930 . S
H348 C310 0.929 . S
H349 C312 0.930 . S
H350 C318 0.929 . S
H351 C319 0.930 . S
Li352 N369 1.990 . S
Li352 O412 1.956 . S
Li352 O413 1.970 . S
Li352 O414 1.961 1_554 S
Li353 N377 1.990 . S
Li353 O412 1.970 . S
Li353 O413 1.956 . S
Li353 O415 1.961 1_554 S
Li354 N399 1.990 . S
Li354 O412 1.961 1_556 S
Li354 O414 1.956 . S
Li354 O415 1.970 . S
Li355 N405 1.992 . S
Li355 O413 1.955 1_556 S
Li355 O414 1.973 . S
Li355 O415 1.956 . S
C356 C358 1.348 . S
C356 C359 1.356 . S
C356 O412 1.325 . S
N357 C360 1.314 . S
N357 C361 1.279 . S
C358 C356 1.348 . S
C358 C360 1.353 . S
C358 H416 0.929 . S
C359 C356 1.356 . S
C359 C361 1.358 . S
C359 H417 0.923 1_554 S
C360 N357 1.314 . S
C360 C358 1.353 . S
C360 H418 0.930 . S
C361 N357 1.279 . S
C361 C359 1.358 . S
C361 H419 0.930 . S
C362 C365 1.348 . S
C362 C366 1.356 . S
C362 O413 1.325 . S
C363 N364 1.279 . S
C363 C366 1.358 . S
C363 H420 0.930 . S
N364 C363 1.279 . S
N364 C367 1.314 . S
C365 C362 1.348 . S
C365 C367 1.353 . S
C365 H421 0.929 . S
C366 C362 1.356 . S
C366 C363 1.358 . S
C366 H422 0.930 . S
C367 N364 1.314 . S
C367 C365 1.353 . S
C367 H423 0.930 . S
C368 N369 1.314 . S
C368 C373 1.353 . S
C368 H374 0.930 . S
N369 Li352 1.990 . S
N369 C368 1.314 . S
N369 C371 1.279 . S
C370 C371 1.358 . S
C370 C372 1.356 . S
C370 H424 0.930 . S
C371 N369 1.279 . S
C371 C370 1.358 . S
C371 H375 0.930 . S
C372 C370 1.356 . S
C372 C373 1.348 . S
C373 C368 1.353 . S
C373 C372 1.348 . S
C373 H425 0.929 . S
H374 C368 0.930 . S
H375 C371 0.930 . S
C376 N377 1.314 . S
C376 C378 1.353 . S
C376 H382 0.930 . S
N377 Li353 1.990 . S
N377 C376 1.314 . S
N377 C380 1.279 . S
C378 C376 1.353 . S
C378 C381 1.348 . S
C378 H426 0.929 . S
C379 C380 1.358 . S
C379 C381 1.356 . S
C379 H427 0.930 . S
C380 N377 1.279 . S
C380 C379 1.358 . S
C380 H383 0.930 . S
C381 C378 1.348 . S
C381 C379 1.356 . S
H382 C376 0.930 . S
H383 C380 0.930 . S
C384 C386 1.348 . S
C384 C387 1.356 . S
C384 O414 1.325 . S
N385 C388 1.314 . S
N385 C389 1.279 . S
C386 C384 1.348 . S
C386 C388 1.353 . S
C386 H428 0.929 . S
C387 C384 1.356 . S
C387 C389 1.358 . S
C387 H429 0.930 . S
C388 N385 1.314 . S
C388 C386 1.353 . S
C388 H430 0.930 . S
C389 N385 1.279 . S
C389 C387 1.358 . S
C389 H431 0.930 . S
C390 C391 1.348 . S
C390 C392 1.356 1_556 S
C390 O415 1.325 . S
C391 C390 1.348 . S
C391 C393 1.353 . S
C391 H432 0.929 . S
C392 C390 1.356 1_554 S
C392 C394 1.358 1_554 S
C392 H433 0.930 . S
C393 C391 1.353 . S
C393 N395 1.314 . S
C393 H434 0.930 . S
C394 C392 1.358 1_556 S
C394 N395 1.279 . S
C394 H435 0.930 1_556 S
N395 C393 1.314 . S
N395 C394 1.279 . S
C396 C398 1.353 . S
C396 N399 1.314 . S
C396 H402 0.930 . S
C397 N399 1.279 . S
C397 C400 1.358 . S
C397 H403 0.930 . S
C398 C396 1.353 . S
C398 C401 1.348 . S
C398 H436 0.929 . S
N399 Li354 1.990 . S
N399 C396 1.314 . S
N399 C397 1.279 . S
C400 C397 1.358 . S
C400 C401 1.356 . S
C400 H437 0.930 . S
C401 C398 1.348 . S
C401 C400 1.356 . S
H402 C396 0.930 . S
H403 C397 0.930 . S
C404 N405 1.314 . S
C404 C406 1.353 . S
C404 H410 0.930 1_556 S
N405 Li355 1.992 . S
N405 C404 1.314 . S
N405 C408 1.279 . S
C406 C404 1.353 . S
C406 C409 1.348 . S
C406 H438 0.929 . S
C407 C408 1.358 . S
C407 C409 1.356 . S
C407 H439 0.930 . S
C408 N405 1.279 . S
C408 C407 1.358 . S
C408 H411 0.930 . S
C409 C406 1.348 . S
C409 C407 1.356 . S
H410 C404 0.930 1_554 S
H411 C408 0.930 . S
O412 Li352 1.956 . S
O412 Li353 1.970 . S
O412 Li354 1.961 1_554 S
O412 C356 1.325 . S
O413 Li352 1.970 . S
O413 Li353 1.956 . S
O413 Li355 1.955 1_554 S
O413 C362 1.325 . S
O414 Li352 1.961 1_556 S
O414 Li354 1.956 . S
O414 Li355 1.973 . S
O414 C384 1.325 . S
O415 Li353 1.961 1_556 S
O415 Li354 1.970 . S
O415 Li355 1.956 . S
O415 C390 1.325 . S
H416 C358 0.929 . S
H417 C359 0.923 1_556 S
H418 C360 0.930 . S
H419 C361 0.930 . S
H420 C363 0.930 . S
H421 C365 0.929 . S
H422 C366 0.930 . S
H423 C367 0.930 . S
H424 C370 0.930 . S
H425 C373 0.929 . S
H426 C378 0.929 . S
H427 C379 0.930 . S
H428 C386 0.929 . S
H429 C387 0.930 . S
H430 C388 0.930 . S
H431 C389 0.930 . S
H432 C391 0.929 . S
H433 C392 0.930 . S
H434 C393 0.930 . S
H435 C394 0.930 1_554 S
H436 C398 0.929 . S
H437 C400 0.930 . S
H438 C406 0.929 . S
H439 C407 0.930 . S
Li440 N457 1.990 . S
Li440 O500 1.956 . S
Li440 O501 1.970 1_565 S
Li440 O502 1.961 1_554 S
Li441 N465 1.990 . S
Li441 O500 1.970 1_545 S
Li441 O501 1.956 . S
Li441 O503 1.961 . S
Li442 N487 1.990 . S
Li442 O500 1.961 1_556 S
Li442 O502 1.956 . S
Li442 O503 1.970 1_566 S
Li443 N493 1.990 1_554 S
Li443 O501 1.961 . S
Li443 O502 1.970 1_544 S
Li443 O503 1.956 . S
C444 C446 1.348 . S
C444 C447 1.356 . S
C444 O500 1.325 . S
N445 C448 1.314 . S
N445 C449 1.279 . S
C446 C444 1.348 . S
C446 C448 1.353 . S
C446 H504 0.929 . S
C447 C444 1.356 . S
C447 C449 1.358 . S
C447 H505 0.930 1_554 S
C448 N445 1.314 . S
C448 C446 1.353 . S
C448 H506 0.930 . S
C449 N445 1.279 . S
C449 C447 1.358 . S
C449 H507 0.930 . S
C450 C453 1.348 1_545 S
C450 C454 1.356 . S
C450 O501 1.325 . S
C451 N452 1.279 . S
C451 C454 1.358 . S
C451 H508 0.930 . S
N452 C451 1.279 . S
N452 C455 1.314 . S
C453 C450 1.348 1_565 S
C453 C455 1.353 1_565 S
C453 H509 0.929 . S
C454 C450 1.356 . S
C454 C451 1.358 . S
C454 H510 0.930 . S
C455 N452 1.314 . S
C455 C453 1.353 1_545 S
C455 H511 0.930 1_545 S
C456 N457 1.314 . S
C456 C461 1.353 . S
C456 H462 0.930 . S
N457 Li440 1.990 . S
N457 C456 1.314 . S
N457 C459 1.279 . S
C458 C459 1.358 . S
C458 C460 1.356 . S
C458 H512 0.930 . S
C459 N457 1.279 . S
C459 C458 1.358 . S
C459 H463 0.930 . S
C460 C458 1.356 . S
C460 C461 1.348 . S
C461 C456 1.353 . S
C461 C460 1.348 . S
C461 H513 0.929 . S
H462 C456 0.930 . S
H463 C459 0.930 . S
C464 N465 1.314 . S
C464 C466 1.353 . S
C464 H470 0.930 . S
N465 Li441 1.990 . S
N465 C464 1.314 . S
N465 C468 1.279 . S
C466 C464 1.353 . S
C466 C469 1.348 . S
C466 H514 0.929 . S
C467 C468 1.358 . S
C467 C469 1.356 . S
C467 H515 0.930 . S
C468 N465 1.279 . S
C468 C467 1.358 . S
C468 H471 0.930 . S
C469 C466 1.348 . S
C469 C467 1.356 . S
H470 C464 0.930 . S
H471 C468 0.930 . S
C472 C474 1.348 1_565 S
C472 C475 1.356 . S
C472 O502 1.325 . S
N473 C476 1.314 . S
N473 C477 1.279 . S
C474 C472 1.348 1_545 S
C474 C476 1.353 1_545 S
C474 H516 0.929 . S
C475 C472 1.356 . S
C475 C477 1.358 . S
C475 H517 0.930 . S
C476 N473 1.314 . S
C476 C474 1.353 1_565 S
C476 H518 0.930 1_565 S
C477 N473 1.279 . S
C477 C475 1.358 . S
C477 H519 0.930 . S
C478 C479 1.348 . S
C478 C480 1.356 1_556 S
C478 O503 1.325 1_556 S
C479 C478 1.348 . S
C479 C481 1.353 . S
C479 H520 0.929 . S
C480 C478 1.356 1_554 S
C480 C482 1.358 . S
C480 H521 0.930 . S
C481 C479 1.353 . S
C481 N483 1.314 . S
C481 H522 0.930 . S
C482 C480 1.358 . S
C482 N483 1.279 1_554 S
C482 H523 0.930 . S
N483 C481 1.314 . S
N483 C482 1.279 1_556 S
C484 C486 1.353 . S
C484 N487 1.314 . S
C484 H490 0.930 . S
C485 N487 1.279 . S
C485 C488 1.358 . S
C485 H491 0.930 . S
C486 C484 1.353 . S
C486 C489 1.348 . S
C486 H524 0.929 . S
N487 Li442 1.990 . S
N487 C484 1.314 . S
N487 C485 1.279 . S
C488 C485 1.358 . S
C488 C489 1.356 . S
C488 H525 0.930 . S
C489 C486 1.348 . S
C489 C488 1.356 . S
H490 C484 0.930 . S
H491 C485 0.930 . S
C492 N493 1.310 1_554 S
C492 C494 1.349 1_554 S
C492 H498 0.940 . S
N493 Li443 1.990 1_556 S
N493 C492 1.310 1_556 S
N493 C496 1.279 . S
C494 C492 1.349 1_556 S
C494 C497 1.348 . S
C494 H526 0.928 1_556 S
C495 C496 1.358 . S
C495 C497 1.356 . S
C495 H527 0.930 . S
C496 N493 1.279 . S
C496 C495 1.358 . S
C496 H499 0.930 . S
C497 C494 1.348 . S
C497 C495 1.356 . S
H498 C492 0.940 . S
H499 C496 0.930 . S
O500 Li440 1.956 . S
O500 Li441 1.970 1_565 S
O500 Li442 1.961 1_554 S
O500 C444 1.325 . S
O501 Li440 1.970 1_545 S
O501 Li441 1.956 . S
O501 Li443 1.961 . S
O501 C450 1.325 . S
O502 Li440 1.961 1_556 S
O502 Li442 1.956 . S
O502 Li443 1.970 1_566 S
O502 C472 1.325 . S
O503 Li441 1.961 . S
O503 Li442 1.970 1_544 S
O503 Li443 1.956 . S
O503 C478 1.325 1_554 S
H504 C446 0.929 . S
H505 C447 0.930 1_556 S
H506 C448 0.930 . S
H507 C449 0.930 . S
H508 C451 0.930 . S
H509 C453 0.929 . S
H510 C454 0.930 . S
H511 C455 0.930 1_565 S
H512 C458 0.930 . S
H513 C461 0.929 . S
H514 C466 0.929 . S
H515 C467 0.930 . S
H516 C474 0.929 . S
H517 C475 0.930 . S
H518 C476 0.930 1_545 S
H519 C477 0.930 . S
H520 C479 0.929 . S
H521 C480 0.930 . S
H522 C481 0.930 . S
H523 C482 0.930 . S
H524 C486 0.929 . S
H525 C488 0.930 . S
H526 C494 0.928 1_554 S
H527 C495 0.930 . S
Li528 N545 1.990 . S
Li528 O588 1.956 . S
Li528 O589 1.970 . S
Li528 O590 1.961 . S
Li529 N553 1.990 . S
Li529 O588 1.970 . S
Li529 O589 1.956 . S
Li529 O591 1.961 . S
Li530 N575 1.990 . S
Li530 O588 1.961 . S
Li530 O590 1.956 . S
Li530 O591 1.970 . S
Li531 N581 1.990 . S
Li531 O589 1.961 . S
Li531 O590 1.970 . S
Li531 O591 1.956 . S
C532 C534 1.348 . S
C532 C535 1.356 . S
C532 O588 1.325 . S
N533 C536 1.314 . S
N533 C537 1.279 . S
C534 C532 1.348 . S
C534 C536 1.353 . S
C534 H592 0.929 . S
C535 C532 1.356 . S
C535 C537 1.358 . S
C535 H593 0.930 . S
C536 N533 1.314 . S
C536 C534 1.353 . S
C536 H594 0.930 . S
C537 N533 1.279 . S
C537 C535 1.358 . S
C537 H595 0.930 . S
C538 C541 1.348 . S
C538 C542 1.356 . S
C538 O589 1.325 . S
C539 N540 1.279 . S
C539 C542 1.358 . S
C539 H596 0.930 . S
N540 C539 1.279 . S
N540 C543 1.314 . S
C541 C538 1.348 . S
C541 C543 1.353 . S
C541 H597 0.929 . S
C542 C538 1.356 . S
C542 C539 1.358 . S
C542 H598 0.930 . S
C543 N540 1.314 . S
C543 C541 1.353 . S
C543 H599 0.930 . S
C544 N545 1.314 . S
C544 C549 1.353 . S
C544 H550 0.930 . S
N545 Li528 1.990 . S
N545 C544 1.314 . S
N545 C547 1.279 . S
C546 C547 1.358 . S
C546 C548 1.356 . S
C546 H600 0.930 . S
C547 N545 1.279 . S
C547 C546 1.358 . S
C547 H551 0.930 . S
C548 C546 1.356 . S
C548 C549 1.348 . S
C549 C544 1.353 . S
C549 C548 1.348 . S
C549 H601 0.929 . S
H550 C544 0.930 . S
H551 C547 0.930 . S
C552 N553 1.314 . S
C552 C554 1.353 . S
C552 H558 0.930 . S
N553 Li529 1.990 . S
N553 C552 1.314 . S
N553 C556 1.279 . S
C554 C552 1.353 . S
C554 C557 1.348 . S
C554 H602 0.929 . S
C555 C556 1.358 . S
C555 C557 1.356 . S
C555 H603 0.930 . S
C556 N553 1.279 . S
C556 C555 1.358 . S
C556 H559 0.930 . S
C557 C554 1.348 . S
C557 C555 1.356 . S
H558 C552 0.930 . S
H559 C556 0.930 . S
C560 C562 1.348 . S
C560 C563 1.356 . S
C560 O590 1.325 . S
N561 C564 1.314 . S
N561 C565 1.279 . S
C562 C560 1.348 . S
C562 C564 1.353 . S
C562 H604 0.929 . S
C563 C560 1.356 . S
C563 C565 1.358 . S
C563 H605 0.930 . S
C564 N561 1.314 . S
C564 C562 1.353 . S
C564 H606 0.930 . S
C565 N561 1.279 . S
C565 C563 1.358 . S
C565 H607 0.930 . S
C566 C567 1.348 . S
C566 C568 1.356 . S
C566 O591 1.325 . S
C567 C566 1.348 . S
C567 C569 1.353 . S
C567 H608 0.929 . S
C568 C566 1.356 . S
C568 C570 1.358 . S
C568 H609 0.930 . S
C569 C567 1.353 . S
C569 N571 1.314 . S
C569 H610 0.930 . S
C570 C568 1.358 . S
C570 N571 1.279 . S
C570 H611 0.930 . S
N571 C569 1.314 . S
N571 C570 1.279 . S
C572 C574 1.353 . S
C572 N575 1.314 . S
C572 H578 0.930 . S
C573 N575 1.279 . S
C573 C576 1.358 . S
C573 H579 0.930 . S
C574 C572 1.353 . S
C574 C577 1.348 . S
C574 H612 0.929 . S
N575 Li530 1.990 . S
N575 C572 1.314 . S
N575 C573 1.279 . S
C576 C573 1.358 . S
C576 C577 1.356 . S
C576 H613 0.930 . S
C577 C574 1.348 . S
C577 C576 1.356 . S
H578 C572 0.930 . S
H579 C573 0.930 . S
C580 N581 1.314 . S
C580 C582 1.353 . S
C580 H586 0.930 . S
N581 Li531 1.990 . S
N581 C580 1.314 . S
N581 C584 1.279 . S
C582 C580 1.353 . S
C582 C585 1.348 . S
C582 H614 0.929 . S
C583 C584 1.358 . S
C583 C585 1.356 . S
C583 H615 0.930 . S
C584 N581 1.279 . S
C584 C583 1.358 . S
C584 H587 0.930 . S
C585 C582 1.348 . S
C585 C583 1.356 . S
H586 C580 0.930 . S
H587 C584 0.930 . S
O588 Li528 1.956 . S
O588 Li529 1.970 . S
O588 Li530 1.961 . S
O588 C532 1.325 . S
O589 Li528 1.970 . S
O589 Li529 1.956 . S
O589 Li531 1.961 . S
O589 C538 1.325 . S
O590 Li528 1.961 . S
O590 Li530 1.956 . S
O590 Li531 1.970 . S
O590 C560 1.325 . S
O591 Li529 1.961 . S
O591 Li530 1.970 . S
O591 Li531 1.956 . S
O591 C566 1.325 . S
H592 C534 0.929 . S
H593 C535 0.930 . S
H594 C536 0.930 . S
H595 C537 0.930 . S
H596 C539 0.930 . S
H597 C541 0.929 . S
H598 C542 0.930 . S
H599 C543 0.930 . S
H600 C546 0.930 . S
H601 C549 0.929 . S
H602 C554 0.929 . S
H603 C555 0.930 . S
H604 C562 0.929 . S
H605 C563 0.930 . S
H606 C564 0.930 . S
H607 C565 0.930 . S
H608 C567 0.929 . S
H609 C568 0.930 . S
H610 C569 0.930 . S
H611 C570 0.930 . S
H612 C574 0.929 . S
H613 C576 0.930 . S
H614 C582 0.929 . S
H615 C583 0.930 . S
Li616 N633 1.990 . S
Li616 O676 1.956 . S
Li616 O677 1.970 . S
Li616 O678 1.961 . S
Li617 N641 1.990 . S
Li617 O676 1.970 . S
Li617 O677 1.956 . S
Li617 O679 1.961 . S
Li618 N663 1.990 . S
Li618 O676 1.961 1_545 S
Li618 O678 1.956 1_545 S
Li618 O679 1.970 1_545 S
Li619 N669 1.990 . S
Li619 O677 1.961 . S
Li619 O678 1.970 . S
Li619 O679 1.956 . S
C620 C622 1.348 . S
C620 C623 1.356 . S
C620 O676 1.325 . S
N621 C624 1.314 . S
N621 C625 1.279 . S
C622 C620 1.348 . S
C622 C624 1.353 . S
C622 H680 0.929 . S
C623 C620 1.356 . S
C623 C625 1.358 . S
C623 H681 0.923 1_565 S
C624 N621 1.314 . S
C624 C622 1.353 . S
C624 H682 0.930 . S
C625 N621 1.279 . S
C625 C623 1.358 . S
C625 H683 0.930 . S
C626 C629 1.348 . S
C626 C630 1.356 . S
C626 O677 1.325 . S
C627 N628 1.279 . S
C627 C630 1.358 . S
C627 H684 0.930 . S
N628 C627 1.279 . S
N628 C631 1.314 . S
C629 C626 1.348 . S
C629 C631 1.353 . S
C629 H685 0.929 . S
C630 C626 1.356 . S
C630 C627 1.358 . S
C630 H686 0.930 . S
C631 N628 1.314 . S
C631 C629 1.353 . S
C631 H687 0.930 . S
C632 N633 1.314 . S
C632 C637 1.353 . S
C632 H638 0.930 . S
N633 Li616 1.990 . S
N633 C632 1.314 . S
N633 C635 1.279 . S
C634 C635 1.358 . S
C634 C636 1.356 . S
C634 H688 0.930 . S
C635 N633 1.279 . S
C635 C634 1.358 . S
C635 H639 0.930 . S
C636 C634 1.356 . S
C636 C637 1.348 . S
C637 C632 1.353 . S
C637 C636 1.348 . S
C637 H689 0.929 . S
H638 C632 0.930 . S
H639 C635 0.930 . S
C640 N641 1.314 . S
C640 C642 1.353 . S
C640 H646 0.930 . S
N641 Li617 1.990 . S
N641 C640 1.314 . S
N641 C644 1.279 . S
C642 C640 1.353 . S
C642 C645 1.348 . S
C642 H690 0.929 . S
C643 C644 1.358 . S
C643 C645 1.356 . S
C643 H691 0.930 . S
C644 N641 1.279 . S
C644 C643 1.358 . S
C644 H647 0.930 . S
C645 C642 1.348 . S
C645 C643 1.356 . S
H646 C640 0.930 . S
H647 C644 0.930 . S
C648 C650 1.348 . S
C648 C651 1.356 . S
C648 O678 1.325 1_545 S
N649 C652 1.314 . S
N649 C653 1.279 . S
C650 C648 1.348 . S
C650 C652 1.353 . S
C650 H692 0.929 . S
C651 C648 1.356 . S
C651 C653 1.358 . S
C651 H693 0.930 . S
C652 N649 1.314 . S
C652 C650 1.353 . S
C652 H694 0.930 . S
C653 N649 1.279 . S
C653 C651 1.358 . S
C653 H695 0.930 . S
C654 C655 1.348 1_565 S
C654 C656 1.356 . S
C654 O679 1.325 . S
C655 C654 1.348 1_545 S
C655 C657 1.353 . S
C655 H696 0.929 . S
C656 C654 1.356 . S
C656 C658 1.358 . S
C656 H697 0.930 . S
C657 C655 1.353 . S
C657 N659 1.314 . S
C657 H698 0.930 . S
C658 C656 1.358 . S
C658 N659 1.279 1_565 S
C658 H699 0.930 . S
N659 C657 1.314 . S
N659 C658 1.279 1_545 S
C660 C662 1.353 . S
C660 N663 1.314 . S
C660 H666 0.930 . S
C661 N663 1.279 . S
C661 C664 1.358 . S
C661 H667 0.930 . S
C662 C660 1.353 . S
C662 C665 1.348 . S
C662 H700 0.929 . S
N663 Li618 1.990 . S
N663 C660 1.314 . S
N663 C661 1.279 . S
C664 C661 1.358 . S
C664 C665 1.356 . S
C664 H701 0.930 . S
C665 C662 1.348 . S
C665 C664 1.356 . S
H666 C660 0.930 . S
H667 C661 0.930 . S
C668 N669 1.314 . S
C668 C670 1.353 . S
C668 H674 0.930 . S
N669 Li619 1.990 . S
N669 C668 1.314 . S
N669 C672 1.279 . S
C670 C668 1.353 . S
C670 C673 1.348 . S
C670 H702 0.929 . S
C671 C672 1.358 . S
C671 C673 1.356 . S
C671 H703 0.930 1_565 S
C672 N669 1.279 . S
C672 C671 1.358 . S
C672 H675 0.969 . S
C673 C670 1.348 . S
C673 C671 1.356 . S
H674 C668 0.930 . S
H675 C672 0.969 . S
O676 Li616 1.956 . S
O676 Li617 1.970 . S
O676 Li618 1.961 1_565 S
O676 C620 1.325 . S
O677 Li616 1.970 . S
O677 Li617 1.956 . S
O677 Li619 1.961 . S
O677 C626 1.325 . S
O678 Li616 1.961 . S
O678 Li618 1.956 1_565 S
O678 Li619 1.970 . S
O678 C648 1.325 1_565 S
O679 Li617 1.961 . S
O679 Li618 1.970 1_565 S
O679 Li619 1.956 . S
O679 C654 1.325 . S
H680 C622 0.929 . S
H681 C623 0.923 1_545 S
H682 C624 0.930 . S
H683 C625 0.930 . S
H684 C627 0.930 . S
H685 C629 0.929 . S
H686 C630 0.930 . S
H687 C631 0.930 . S
H688 C634 0.930 . S
H689 C637 0.929 . S
H690 C642 0.929 . S
H691 C643 0.930 . S
H692 C650 0.929 . S
H693 C651 0.930 . S
H694 C652 0.930 . S
H695 C653 0.930 . S
H696 C655 0.929 . S
H697 C656 0.930 . S
H698 C657 0.930 . S
H699 C658 0.930 . S
H700 C662 0.929 . S
H701 C664 0.930 . S
H702 C670 0.929 . S
H703 C671 0.930 1_545 S
Li704 N721 1.990 . S
Li704 O764 1.956 . S
Li704 O765 1.970 . S
Li704 O766 1.961 . S
Li705 N729 1.990 . S
Li705 O764 1.970 . S
Li705 O765 1.956 . S
Li705 O767 1.961 . S
Li706 N751 1.988 1_455 S
Li706 O764 1.965 . S
Li706 O766 1.956 . S
Li706 O767 1.970 . S
Li707 N757 1.990 . S
Li707 O765 1.961 . S
Li707 O766 1.970 . S
Li707 O767 1.956 . S
C708 C710 1.348 . S
C708 C711 1.356 . S
C708 O764 1.325 . S
N709 C712 1.314 . S
N709 C713 1.279 . S
C710 C708 1.348 . S
C710 C712 1.353 . S
C710 H768 0.929 . S
C711 C708 1.356 . S
C711 C713 1.358 . S
C711 H769 0.930 . S
C712 N709 1.314 . S
C712 C710 1.353 . S
C712 H770 0.930 . S
C713 N709 1.279 . S
C713 C711 1.358 . S
C713 H771 0.930 . S
C714 C717 1.348 . S
C714 C718 1.356 . S
C714 O765 1.325 . S
C715 N716 1.279 . S
C715 C718 1.358 . S
C715 H772 0.930 . S
N716 C715 1.279 . S
N716 C719 1.314 . S
C717 C714 1.348 . S
C717 C719 1.353 . S
C717 H773 0.929 . S
C718 C714 1.356 . S
C718 C715 1.358 . S
C718 H774 0.930 . S
C719 N716 1.314 . S
C719 C717 1.353 . S
C719 H775 0.930 . S
C720 N721 1.314 . S
C720 C725 1.353 . S
C720 H726 0.930 . S
N721 Li704 1.990 . S
N721 C720 1.314 . S
N721 C723 1.279 . S
C722 C723 1.358 . S
C722 C724 1.356 . S
C722 H776 0.930 . S
C723 N721 1.279 . S
C723 C722 1.358 . S
C723 H727 0.930 . S
C724 C722 1.356 . S
C724 C725 1.348 . S
C725 C720 1.353 . S
C725 C724 1.348 . S
C725 H777 0.929 . S
H726 C720 0.930 . S
H727 C723 0.930 . S
C728 N729 1.314 . S
C728 C730 1.353 . S
C728 H734 0.930 . S
N729 Li705 1.990 . S
N729 C728 1.314 . S
N729 C732 1.279 . S
C730 C728 1.353 . S
C730 C733 1.348 . S
C730 H778 0.929 . S
C731 C732 1.358 . S
C731 C733 1.356 . S
C731 H779 0.930 . S
C732 N729 1.279 . S
C732 C731 1.358 . S
C732 H735 0.930 . S
C733 C730 1.348 . S
C733 C731 1.356 . S
H734 C728 0.930 . S
H735 C732 0.930 . S
C736 C738 1.348 . S
C736 C739 1.356 . S
C736 O766 1.325 1_655 S
N737 C740 1.314 . S
N737 C741 1.279 . S
C738 C736 1.348 . S
C738 C740 1.353 . S
C738 H780 0.929 . S
C739 C736 1.356 . S
C739 C741 1.358 . S
C739 H781 0.930 . S
C740 N737 1.314 . S
C740 C738 1.353 . S
C740 H782 0.930 . S
C741 N737 1.279 . S
C741 C739 1.358 . S
C741 H783 0.930 . S
C742 C743 1.348 1_455 S
C742 C744 1.356 . S
C742 O767 1.325 . S
C743 C742 1.348 1_655 S
C743 C745 1.353 . S
C743 H784 0.929 . S
C744 C742 1.356 . S
C744 C746 1.358 . S
C744 H785 0.930 . S
C745 C743 1.353 . S
C745 N747 1.314 . S
C745 H786 0.930 . S
C746 C744 1.358 . S
C746 N747 1.279 1_455 S
C746 H787 0.930 . S
N747 C745 1.314 . S
N747 C746 1.279 1_655 S
C748 C750 1.353 . S
C748 N751 1.314 . S
C748 H754 0.930 . S
C749 N751 1.279 . S
C749 C752 1.358 . S
C749 H755 0.930 . S
C750 C748 1.353 . S
C750 C753 1.348 . S
C750 H788 0.929 . S
N751 Li706 1.988 1_655 S
N751 C748 1.314 . S
N751 C749 1.279 . S
C752 C749 1.358 . S
C752 C753 1.356 . S
C752 H789 0.930 . S
C753 C750 1.348 . S
C753 C752 1.356 . S
H754 C748 0.930 . S
H755 C749 0.930 . S
C756 N757 1.314 . S
C756 C758 1.353 . S
C756 H762 0.930 . S
N757 Li707 1.990 . S
N757 C756 1.314 . S
N757 C760 1.279 . S
C758 C756 1.353 . S
C758 C761 1.348 . S
C758 H790 0.929 . S
C759 C760 1.358 . S
C759 C761 1.356 . S
C759 H791 0.955 . S
C760 N757 1.279 . S
C760 C759 1.358 . S
C760 H763 0.930 . S
C761 C758 1.348 . S
C761 C759 1.356 . S
H762 C756 0.930 . S
H763 C760 0.930 . S
O764 Li704 1.956 . S
O764 Li705 1.970 . S
O764 Li706 1.965 . S
O764 C708 1.325 . S
O765 Li704 1.970 . S
O765 Li705 1.956 . S
O765 Li707 1.961 . S
O765 C714 1.325 . S
O766 Li704 1.961 . S
O766 Li706 1.956 . S
O766 Li707 1.970 . S
O766 C736 1.325 1_455 S
O767 Li705 1.961 . S
O767 Li706 1.970 . S
O767 Li707 1.956 . S
O767 C742 1.325 . S
H768 C710 0.929 . S
H769 C711 0.930 . S
H770 C712 0.930 . S
H771 C713 0.930 . S
H772 C715 0.930 . S
H773 C717 0.929 . S
H774 C718 0.930 . S
H775 C719 0.930 . S
H776 C722 0.930 . S
H777 C725 0.929 . S
H778 C730 0.929 . S
H779 C731 0.930 . S
H780 C738 0.929 . S
H781 C739 0.930 . S
H782 C740 0.930 . S
H783 C741 0.930 . S
H784 C743 0.929 . S
H785 C744 0.930 . S
H786 C745 0.930 . S
H787 C746 0.930 . S
H788 C750 0.929 . S
H789 C752 0.930 . S
H790 C758 0.929 . S
H791 C759 0.955 . S
Li792 N809 1.995 . S
Li792 O852 1.948 1_545 S
Li792 O853 1.971 1_545 S
Li792 O854 1.961 1_545 S
Li793 N817 1.990 . S
Li793 O852 1.970 . S
Li793 O853 1.956 . S
Li793 O855 1.961 . S
Li794 N839 1.990 . S
Li794 O852 1.961 . S
Li794 O854 1.956 . S
Li794 O855 1.970 . S
Li795 N845 1.990 . S
Li795 O853 1.961 . S
Li795 O854 1.970 . S
Li795 O855 1.956 . S
C796 C798 1.348 . S
C796 C799 1.356 . S
C796 O852 1.325 . S
N797 C800 1.314 . S
N797 C801 1.279 . S
C798 C796 1.348 . S
C798 C800 1.353 . S
C798 H856 0.929 . S
C799 C796 1.356 . S
C799 C801 1.358 . S
C799 H857 0.930 . S
C800 N797 1.314 . S
C800 C798 1.353 . S
C800 H858 0.930 . S
C801 N797 1.279 . S
C801 C799 1.358 . S
C801 H859 0.930 . S
C802 C805 1.348 1_565 S
C802 C806 1.356 . S
C802 O853 1.325 . S
C803 N804 1.279 1_565 S
C803 C806 1.358 . S
C803 H860 0.930 . S
N804 C803 1.279 1_545 S
N804 C807 1.314 . S
C805 C802 1.348 1_545 S
C805 C807 1.353 . S
C805 H861 0.929 . S
C806 C802 1.356 . S
C806 C803 1.358 . S
C806 H862 0.930 . S
C807 N804 1.314 . S
C807 C805 1.353 . S
C807 H863 0.930 . S
C808 N809 1.314 . S
C808 C813 1.353 . S
C808 H814 0.930 . S
N809 Li792 1.995 . S
N809 C808 1.314 . S
N809 C811 1.279 . S
C810 C811 1.358 . S
C810 C812 1.356 . S
C810 H864 0.930 . S
C811 N809 1.279 . S
C811 C810 1.358 . S
C811 H815 0.930 . S
C812 C810 1.356 . S
C812 C813 1.348 . S
C813 C808 1.353 . S
C813 C812 1.348 . S
C813 H865 0.929 . S
H814 C808 0.930 . S
H815 C811 0.930 . S
C816 N817 1.314 . S
C816 C818 1.353 . S
C816 H822 0.930 . S
N817 Li793 1.990 . S
N817 C816 1.314 . S
N817 C820 1.279 . S
C818 C816 1.353 . S
C818 C821 1.348 . S
C818 H866 0.929 . S
C819 C820 1.358 . S
C819 C821 1.356 . S
C819 H867 0.930 . S
C820 N817 1.279 . S
C820 C819 1.358 . S
C820 H823 0.930 . S
C821 C818 1.348 . S
C821 C819 1.356 . S
H822 C816 0.930 . S
H823 C820 0.930 . S
C824 C826 1.348 . S
C824 C827 1.356 . S
C824 O854 1.325 1_545 S
N825 C828 1.314 . S
N825 C829 1.279 . S
C826 C824 1.348 . S
C826 C828 1.353 . S
C826 H868 0.931 1_545 S
C827 C824 1.356 . S
C827 C829 1.358 . S
C827 H869 0.930 . S
C828 N825 1.314 . S
C828 C826 1.353 . S
C828 H870 0.930 . S
C829 N825 1.279 . S
C829 C827 1.358 . S
C829 H871 0.930 . S
C830 C831 1.348 . S
C830 C832 1.356 . S
C830 O855 1.325 . S
C831 C830 1.348 . S
C831 C833 1.353 . S
C831 H872 0.929 . S
C832 C830 1.356 . S
C832 C834 1.358 . S
C832 H873 0.930 . S
C833 C831 1.353 . S
C833 N835 1.314 . S
C833 H874 0.930 . S
C834 C832 1.358 . S
C834 N835 1.279 . S
C834 H875 0.930 . S
N835 C833 1.314 . S
N835 C834 1.279 . S
C836 C838 1.353 . S
C836 N839 1.314 . S
C836 H842 0.930 . S
C837 N839 1.279 . S
C837 C840 1.358 . S
C837 H843 0.930 . S
C838 C836 1.353 . S
C838 C841 1.348 . S
C838 H876 0.929 . S
N839 Li794 1.990 . S
N839 C836 1.314 . S
N839 C837 1.279 . S
C840 C837 1.358 . S
C840 C841 1.356 . S
C840 H877 0.930 . S
C841 C838 1.348 . S
C841 C840 1.356 . S
H842 C836 0.930 . S
H843 C837 0.930 . S
C844 N845 1.314 . S
C844 C846 1.353 . S
C844 H850 0.930 1_565 S
N845 Li795 1.990 . S
N845 C844 1.314 . S
N845 C848 1.279 . S
C846 C844 1.353 . S
C846 C849 1.348 . S
C846 H878 0.929 1_565 S
C847 C848 1.358 . S
C847 C849 1.356 . S
C847 H879 0.930 . S
C848 N845 1.279 . S
C848 C847 1.358 . S
C848 H851 0.930 . S
C849 C846 1.348 . S
C849 C847 1.356 . S
H850 C844 0.930 1_545 S
H851 C848 0.930 . S
O852 Li792 1.948 1_565 S
O852 Li793 1.970 . S
O852 Li794 1.961 . S
O852 C796 1.325 . S
O853 Li792 1.971 1_565 S
O853 Li793 1.956 . S
O853 Li795 1.961 . S
O853 C802 1.325 . S
O854 Li792 1.961 1_565 S
O854 Li794 1.956 . S
O854 Li795 1.970 . S
O854 C824 1.325 1_565 S
O855 Li793 1.961 . S
O855 Li794 1.970 . S
O855 Li795 1.956 . S
O855 C830 1.325 . S
H856 C798 0.929 . S
H857 C799 0.930 . S
H858 C800 0.930 . S
H859 C801 0.930 . S
H860 C803 0.930 . S
H861 C805 0.929 . S
H862 C806 0.930 . S
H863 C807 0.930 . S
H864 C810 0.930 . S
H865 C813 0.929 . S
H866 C818 0.929 . S
H867 C819 0.930 . S
H868 C826 0.931 1_565 S
H869 C827 0.930 . S
H870 C828 0.930 . S
H871 C829 0.930 . S
H872 C831 0.929 . S
H873 C832 0.930 . S
H874 C833 0.930 . S
H875 C834 0.930 . S
H876 C838 0.929 . S
H877 C840 0.930 . S
H878 C846 0.929 1_545 S
H879 C847 0.930 . S
Li880 N897 1.990 . S
Li880 O940 1.956 . S
Li880 O941 1.970 . S
Li880 O942 1.961 . S
Li881 N905 2.014 . S
Li881 O940 1.951 1_655 S
Li881 O941 1.945 1_655 S
Li881 O943 1.954 1_655 S
Li882 N927 1.990 . S
Li882 O940 1.961 . S
Li882 O942 1.956 . S
Li882 O943 1.970 . S
Li883 N933 1.990 . S
Li883 O941 1.961 . S
Li883 O942 1.970 . S
Li883 O943 1.956 . S
C884 C886 1.348 1_455 S
C884 C887 1.356 . S
C884 O940 1.325 . S
N885 C888 1.314 . S
N885 C889 1.279 1_655 S
C886 C884 1.348 1_655 S
C886 C888 1.353 . S
C886 H944 0.929 . S
C887 C884 1.356 . S
C887 C889 1.358 . S
C887 H945 0.930 . S
C888 N885 1.314 . S
C888 C886 1.353 . S
C888 H946 0.930 . S
C889 N885 1.279 1_455 S
C889 C887 1.358 . S
C889 H947 0.930 . S
C890 C893 1.348 . S
C890 C894 1.356 . S
C890 O941 1.325 . S
C891 N892 1.279 . S
C891 C894 1.358 . S
C891 H948 0.930 . S
N892 C891 1.279 . S
N892 C895 1.314 . S
C893 C890 1.348 . S
C893 C895 1.353 . S
C893 H949 0.929 . S
C894 C890 1.356 . S
C894 C891 1.358 . S
C894 H950 0.930 . S
C895 N892 1.314 . S
C895 C893 1.353 . S
C895 H951 0.930 . S
C896 N897 1.314 . S
C896 C901 1.353 . S
C896 H902 0.930 . S
N897 Li880 1.990 . S
N897 C896 1.314 . S
N897 C899 1.279 . S
C898 C899 1.358 . S
C898 C900 1.356 . S
C898 H952 0.930 . S
C899 N897 1.279 . S
C899 C898 1.358 . S
C899 H903 0.930 . S
C900 C898 1.356 . S
C900 C901 1.348 . S
C901 C896 1.353 . S
C901 C900 1.348 . S
C901 H953 0.929 . S
H902 C896 0.930 . S
H903 C899 0.930 . S
C904 N905 1.314 . S
C904 C906 1.353 . S
C904 H910 0.930 . S
N905 Li881 2.014 . S
N905 C904 1.314 . S
N905 C908 1.279 . S
C906 C904 1.353 . S
C906 C909 1.348 . S
C906 H954 0.929 . S
C907 C908 1.358 . S
C907 C909 1.356 . S
C907 H955 0.930 . S
C908 N905 1.279 . S
C908 C907 1.358 . S
C908 H911 0.930 . S
C909 C906 1.348 . S
C909 C907 1.356 . S
H910 C904 0.930 . S
H911 C908 0.930 . S
C912 C914 1.348 . S
C912 C915 1.356 . S
C912 O942 1.325 . S
N913 C916 1.314 . S
N913 C917 1.279 . S
C914 C912 1.348 . S
C914 C916 1.353 . S
C914 H956 0.929 . S
C915 C912 1.356 . S
C915 C917 1.358 . S
C915 H957 0.930 . S
C916 N913 1.314 . S
C916 C914 1.353 . S
C916 H958 0.930 . S
C917 N913 1.279 . S
C917 C915 1.358 . S
C917 H959 0.930 . S
C918 C919 1.348 . S
C918 C920 1.356 . S
C918 O943 1.325 1_655 S
C919 C918 1.348 . S
C919 C921 1.353 . S
C919 H960 0.960 . S
C920 C918 1.356 . S
C920 C922 1.358 . S
C920 H961 0.930 . S
C921 C919 1.353 . S
C921 N923 1.314 . S
C921 H962 0.930 . S
C922 C920 1.358 . S
C922 N923 1.279 . S
C922 H963 0.930 . S
N923 C921 1.314 . S
N923 C922 1.279 . S
C924 C926 1.332 . S
C924 N927 1.314 . S
C924 H930 0.930 1_455 S
C925 N927 1.279 . S
C925 C928 1.358 . S
C925 H931 0.930 . S
C926 C924 1.332 . S
C926 C929 1.402 . S
C926 H964 0.901 1_455 S
N927 Li882 1.990 . S
N927 C924 1.314 . S
N927 C925 1.279 . S
C928 C925 1.358 . S
C928 C929 1.356 . S
C928 H965 0.930 . S
C929 C926 1.402 . S
C929 C928 1.356 . S
H930 C924 0.930 1_655 S
H931 C925 0.930 . S
C932 N933 1.314 . S
C932 C934 1.353 . S
C932 H938 0.930 . S
N933 Li883 1.990 . S
N933 C932 1.314 . S
N933 C936 1.279 . S
C934 C932 1.353 . S
C934 C937 1.348 . S
C934 H966 0.929 . S
C935 C936 1.358 . S
C935 C937 1.356 . S
C935 H967 0.930 . S
C936 N933 1.279 . S
C936 C935 1.358 . S
C936 H939 0.930 . S
C937 C934 1.348 . S
C937 C935 1.356 . S
H938 C932 0.930 . S
H939 C936 0.930 . S
O940 Li880 1.956 . S
O940 Li881 1.951 1_455 S
O940 Li882 1.961 . S
O940 C884 1.325 . S
O941 Li880 1.970 . S
O941 Li881 1.945 1_455 S
O941 Li883 1.961 . S
O941 C890 1.325 . S
O942 Li880 1.961 . S
O942 Li882 1.956 . S
O942 Li883 1.970 . S
O942 C912 1.325 . S
O943 Li881 1.954 1_455 S
O943 Li882 1.970 . S
O943 Li883 1.956 . S
O943 C918 1.325 1_455 S
H944 C886 0.929 . S
H945 C887 0.930 . S
H946 C888 0.930 . S
H947 C889 0.930 . S
H948 C891 0.930 . S
H949 C893 0.929 . S
H950 C894 0.930 . S
H951 C895 0.930 . S
H952 C898 0.930 . S
H953 C901 0.929 . S
H954 C906 0.929 . S
H955 C907 0.930 . S
H956 C914 0.929 . S
H957 C915 0.930 . S
H958 C916 0.930 . S
H959 C917 0.930 . S
H960 C919 0.960 . S
H961 C920 0.930 . S
H962 C921 0.930 . S
H963 C922 0.930 . S
H964 C926 0.901 1_655 S
H965 C928 0.930 . S
H966 C934 0.929 . S
H967 C935 0.930 . S
Li968 N985 1.990 . S
Li968 O1028 1.956 . S
Li968 O1029 1.970 . S
Li968 O1030 1.961 . S
Li969 N993 1.990 . S
Li969 O1028 1.970 . S
Li969 O1029 1.956 . S
Li969 O1031 1.961 . S
Li970 N1015 1.990 . S
Li970 O1028 1.961 . S
Li970 O1030 1.956 . S
Li970 O1031 1.970 . S
Li971 N1021 1.990 . S
Li971 O1029 1.961 . S
Li971 O1030 1.970 . S
Li971 O1031 1.956 . S
C972 C974 1.348 . S
C972 C975 1.356 . S
C972 O1028 1.325 . S
N973 C976 1.314 . S
N973 C977 1.279 . S
C974 C972 1.348 . S
C974 C976 1.353 . S
C974 H1032 0.929 . S
C975 C972 1.356 . S
C975 C977 1.358 . S
C975 H1033 0.930 . S
C976 N973 1.314 . S
C976 C974 1.353 . S
C976 H1034 0.930 . S
C977 N973 1.279 . S
C977 C975 1.358 . S
C977 H1035 0.930 . S
C978 C981 1.348 . S
C978 C982 1.356 . S
C978 O1029 1.325 . S
C979 N980 1.279 . S
C979 C982 1.358 . S
C979 H1036 0.930 . S
N980 C979 1.279 . S
N980 C983 1.314 . S
C981 C978 1.348 . S
C981 C983 1.353 . S
C981 H1037 0.929 . S
C982 C978 1.356 . S
C982 C979 1.358 . S
C982 H1038 0.930 . S
C983 N980 1.314 . S
C983 C981 1.353 . S
C983 H1039 0.930 . S
C984 N985 1.314 . S
C984 C989 1.353 . S
C984 H990 0.930 . S
N985 Li968 1.990 . S
N985 C984 1.314 . S
N985 C987 1.279 . S
C986 C987 1.358 . S
C986 C988 1.356 . S
C986 H1040 0.930 . S
C987 N985 1.279 . S
C987 C986 1.358 . S
C987 H991 0.930 . S
C988 C986 1.356 . S
C988 C989 1.348 . S
C989 C984 1.353 . S
C989 C988 1.348 . S
C989 H1041 0.929 . S
H990 C984 0.930 . S
H991 C987 0.930 . S
C992 N993 1.314 . S
C992 C994 1.353 . S
C992 H998 0.930 . S
N993 Li969 1.990 . S
N993 C992 1.314 . S
N993 C996 1.279 . S
C994 C992 1.353 . S
C994 C997 1.348 . S
C994 H1042 0.929 . S
C995 C996 1.358 . S
C995 C997 1.356 . S
C995 H1043 0.930 . S
C996 N993 1.279 . S
C996 C995 1.358 . S
C996 H999 0.930 . S
C997 C994 1.348 . S
C997 C995 1.356 . S
H998 C992 0.930 . S
H999 C996 0.930 . S
C1000 C1002 1.348 . S
C1000 C1003 1.356 . S
C1000 O1030 1.325 . S
N1001 C1004 1.314 . S
N1001 C1005 1.279 . S
C1002 C1000 1.348 . S
C1002 C1004 1.353 . S
C1002 H1044 0.929 . S
C1003 C1000 1.356 . S
C1003 C1005 1.358 . S
C1003 H1045 0.930 . S
C1004 N1001 1.314 . S
C1004 C1002 1.353 . S
C1004 H1046 0.930 . S
C1005 N1001 1.279 . S
C1005 C1003 1.358 . S
C1005 H1047 0.930 . S
C1006 C1007 1.348 . S
C1006 C1008 1.356 . S
C1006 O1031 1.325 . S
C1007 C1006 1.348 . S
C1007 C1009 1.353 . S
C1007 H1048 0.929 . S
C1008 C1006 1.356 . S
C1008 C1010 1.358 . S
C1008 H1049 0.930 . S
C1009 C1007 1.353 . S
C1009 N1011 1.314 . S
C1009 H1050 0.930 . S
C1010 C1008 1.358 . S
C1010 N1011 1.279 . S
C1010 H1051 0.930 . S
N1011 C1009 1.314 . S
N1011 C1010 1.279 . S
C1012 C1014 1.353 . S
C1012 N1015 1.314 . S
C1012 H1018 0.930 . S
C1013 N1015 1.279 . S
C1013 C1016 1.358 . S
C1013 H1019 0.930 . S
C1014 C1012 1.353 . S
C1014 C1017 1.348 . S
C1014 H1052 0.929 . S
N1015 Li970 1.990 . S
N1015 C1012 1.314 . S
N1015 C1013 1.279 . S
C1016 C1013 1.358 . S
C1016 C1017 1.356 . S
C1016 H1053 0.930 . S
C1017 C1014 1.348 . S
C1017 C1016 1.356 . S
H1018 C1012 0.930 . S
H1019 C1013 0.930 . S
C1020 N1021 1.314 . S
C1020 C1022 1.353 . S
C1020 H1026 0.930 . S
N1021 Li971 1.990 . S
N1021 C1020 1.314 . S
N1021 C1024 1.279 . S
C1022 C1020 1.353 . S
C1022 C1025 1.348 . S
C1022 H1054 0.929 . S
C1023 C1024 1.358 . S
C1023 C1025 1.356 . S
C1023 H1055 0.930 . S
C1024 N1021 1.279 . S
C1024 C1023 1.358 . S
C1024 H1027 0.930 . S
C1025 C1022 1.348 . S
C1025 C1023 1.356 . S
H1026 C1020 0.930 . S
H1027 C1024 0.930 . S
O1028 Li968 1.956 . S
O1028 Li969 1.970 . S
O1028 Li970 1.961 . S
O1028 C972 1.325 . S
O1029 Li968 1.970 . S
O1029 Li969 1.956 . S
O1029 Li971 1.961 . S
O1029 C978 1.325 . S
O1030 Li968 1.961 . S
O1030 Li970 1.956 . S
O1030 Li971 1.970 . S
O1030 C1000 1.325 . S
O1031 Li969 1.961 . S
O1031 Li970 1.970 . S
O1031 Li971 1.956 . S
O1031 C1006 1.325 . S
H1032 C974 0.929 . S
H1033 C975 0.930 . S
H1034 C976 0.930 . S
H1035 C977 0.930 . S
H1036 C979 0.930 . S
H1037 C981 0.929 . S
H1038 C982 0.930 . S
H1039 C983 0.930 . S
H1040 C986 0.930 . S
H1041 C989 0.929 . S
H1042 C994 0.929 . S
H1043 C995 0.930 . S
H1044 C1002 0.929 . S
H1045 C1003 0.930 . S
H1046 C1004 0.930 . S
H1047 C1005 0.930 . S
H1048 C1007 0.929 . S
H1049 C1008 0.930 . S
H1050 C1009 0.930 . S
H1051 C1010 0.930 . S
H1052 C1014 0.929 . S
H1053 C1016 0.930 . S
H1054 C1022 0.929 . S
H1055 C1023 0.930 . S
Li1056 N1073 1.985 . S
Li1056 O1116 1.956 1_565 S
Li1056 O1117 1.970 1_565 S
Li1056 O1118 1.969 1_565 S
Li1057 N1081 1.990 . S
Li1057 O1116 1.970 . S
Li1057 O1117 1.956 . S
Li1057 O1119 1.961 . S
Li1058 N1103 1.990 . S
Li1058 O1116 1.961 . S
Li1058 O1118 1.956 . S
Li1058 O1119 1.970 . S
Li1059 N1109 1.990 . S
Li1059 O1117 1.961 . S
Li1059 O1118 1.970 . S
Li1059 O1119 1.956 . S
C1060 C1062 1.348 . S
C1060 C1063 1.356 . S
C1060 O1116 1.325 1_565 S
N1061 C1064 1.314 . S
N1061 C1065 1.279 . S
C1062 C1060 1.348 . S
C1062 C1064 1.353 . S
C1062 H1120 0.929 . S
C1063 C1060 1.356 . S
C1063 C1065 1.358 . S
C1063 H1121 0.930 . S
C1064 N1061 1.314 . S
C1064 C1062 1.353 . S
C1064 H1122 0.930 . S
C1065 N1061 1.279 . S
C1065 C1063 1.358 . S
C1065 H1123 0.930 . S
C1066 C1069 1.348 1_545 S
C1066 C1070 1.356 . S
C1066 O1117 1.325 . S
C1067 N1068 1.279 1_545 S
C1067 C1070 1.358 . S
C1067 H1124 0.930 . S
N1068 C1067 1.279 1_565 S
N1068 C1071 1.314 . S
C1069 C1066 1.348 1_565 S
C1069 C1071 1.353 . S
C1069 H1125 0.929 . S
C1070 C1066 1.356 . S
C1070 C1067 1.358 . S
C1070 H1126 0.930 . S
C1071 N1068 1.314 . S
C1071 C1069 1.353 . S
C1071 H1127 0.930 . S
C1072 N1073 1.314 . S
C1072 C1077 1.353 . S
C1072 H1078 0.930 . S
N1073 Li1056 1.985 . S
N1073 C1072 1.314 . S
N1073 C1075 1.279 . S
C1074 C1075 1.358 . S
C1074 C1076 1.356 . S
C1074 H1128 0.930 . S
C1075 N1073 1.279 . S
C1075 C1074 1.358 . S
C1075 H1079 0.930 . S
C1076 C1074 1.356 . S
C1076 C1077 1.348 . S
C1077 C1072 1.353 . S
C1077 C1076 1.348 . S
C1077 H1129 0.929 . S
H1078 C1072 0.930 . S
H1079 C1075 0.930 . S
C1080 N1081 1.314 . S
C1080 C1082 1.353 . S
C1080 H1086 0.930 . S
N1081 Li1057 1.990 . S
N1081 C1080 1.314 . S
N1081 C1084 1.279 . S
C1082 C1080 1.353 . S
C1082 C1085 1.348 . S
C1082 H1130 0.929 . S
C1083 C1084 1.358 . S
C1083 C1085 1.356 . S
C1083 H1131 0.945 . S
C1084 N1081 1.279 . S
C1084 C1083 1.358 . S
C1084 H1087 0.930 . S
C1085 C1082 1.348 . S
C1085 C1083 1.356 . S
H1086 C1080 0.930 . S
H1087 C1084 0.930 . S
C1088 C1090 1.348 . S
C1088 C1091 1.356 . S
C1088 O1118 1.325 . S
N1089 C1092 1.314 . S
N1089 C1093 1.279 . S
C1090 C1088 1.348 . S
C1090 C1092 1.353 . S
C1090 H1132 0.929 . S
C1091 C1088 1.356 . S
C1091 C1093 1.358 . S
C1091 H1133 0.930 . S
C1092 N1089 1.314 . S
C1092 C1090 1.353 . S
C1092 H1134 0.930 . S
C1093 N1089 1.279 . S
C1093 C1091 1.358 . S
C1093 H1135 0.930 . S
C1094 C1095 1.348 . S
C1094 C1096 1.356 . S
C1094 O1119 1.325 . S
C1095 C1094 1.348 . S
C1095 C1097 1.353 . S
C1095 H1136 0.929 . S
C1096 C1094 1.356 . S
C1096 C1098 1.358 . S
C1096 H1137 0.930 . S
C1097 C1095 1.353 . S
C1097 N1099 1.314 . S
C1097 H1138 0.930 . S
C1098 C1096 1.358 . S
C1098 N1099 1.279 . S
C1098 H1139 0.930 . S
N1099 C1097 1.314 . S
N1099 C1098 1.279 . S
C1100 C1102 1.353 . S
C1100 N1103 1.314 . S
C1100 H1106 0.930 . S
C1101 N1103 1.279 . S
C1101 C1104 1.358 . S
C1101 H1107 0.930 . S
C1102 C1100 1.353 . S
C1102 C1105 1.348 . S
C1102 H1140 0.929 . S
N1103 Li1058 1.990 . S
N1103 C1100 1.314 . S
N1103 C1101 1.279 . S
C1104 C1101 1.358 . S
C1104 C1105 1.356 . S
C1104 H1141 0.930 . S
C1105 C1102 1.348 . S
C1105 C1104 1.356 . S
H1106 C1100 0.930 . S
H1107 C1101 0.930 . S
C1108 N1109 1.314 . S
C1108 C1110 1.353 . S
C1108 H1114 0.930 . S
N1109 Li1059 1.990 . S
N1109 C1108 1.314 . S
N1109 C1112 1.279 . S
C1110 C1108 1.353 . S
C1110 C1113 1.348 . S
C1110 H1142 0.929 . S
C1111 C1112 1.358 . S
C1111 C1113 1.356 . S
C1111 H1143 0.930 . S
C1112 N1109 1.279 . S
C1112 C1111 1.358 . S
C1112 H1115 0.930 . S
C1113 C1110 1.348 . S
C1113 C1111 1.356 . S
H1114 C1108 0.930 . S
H1115 C1112 0.930 . S
O1116 Li1056 1.956 1_545 S
O1116 Li1057 1.970 . S
O1116 Li1058 1.961 . S
O1116 C1060 1.325 1_545 S
O1117 Li1056 1.970 1_545 S
O1117 Li1057 1.956 . S
O1117 Li1059 1.961 . S
O1117 C1066 1.325 . S
O1118 Li1056 1.969 1_545 S
O1118 Li1058 1.956 . S
O1118 Li1059 1.970 . S
O1118 C1088 1.325 . S
O1119 Li1057 1.961 . S
O1119 Li1058 1.970 . S
O1119 Li1059 1.956 . S
O1119 C1094 1.325 . S
H1120 C1062 0.929 . S
H1121 C1063 0.930 . S
H1122 C1064 0.930 . S
H1123 C1065 0.930 . S
H1124 C1067 0.930 . S
H1125 C1069 0.929 . S
H1126 C1070 0.930 . S
H1127 C1071 0.930 . S
H1128 C1074 0.930 . S
H1129 C1077 0.929 . S
H1130 C1082 0.929 . S
H1131 C1083 0.945 . S
H1132 C1090 0.929 . S
H1133 C1091 0.930 . S
H1134 C1092 0.930 . S
H1135 C1093 0.930 . S
H1136 C1095 0.929 . S
H1137 C1096 0.930 . S
H1138 C1097 0.930 . S
H1139 C1098 0.930 . S
H1140 C1102 0.929 . S
H1141 C1104 0.930 . S
H1142 C1110 0.929 . S
H1143 C1111 0.930 . S
Li1144 N1161 1.990 . S
Li1144 O1204 1.956 1_455 S
Li1144 O1205 1.970 1_455 S
Li1144 O1206 1.961 1_455 S
Li1145 N1169 1.990 . S
Li1145 O1204 1.970 . S
Li1145 O1205 1.956 . S
Li1145 O1207 1.961 . S
Li1146 N1191 1.990 . S
Li1146 O1204 1.961 . S
Li1146 O1206 1.956 . S
Li1146 O1207 1.970 . S
Li1147 N1197 1.990 . S
Li1147 O1205 1.961 . S
Li1147 O1206 1.970 . S
Li1147 O1207 1.956 . S
C1148 C1150 1.348 . S
C1148 C1151 1.356 . S
C1148 O1204 1.325 1_455 S
N1149 C1152 1.314 . S
N1149 C1153 1.279 . S
C1150 C1148 1.348 . S
C1150 C1152 1.353 . S
C1150 H1208 0.929 . S
C1151 C1148 1.356 . S
C1151 C1153 1.358 . S
C1151 H1209 0.930 . S
C1152 N1149 1.314 . S
C1152 C1150 1.353 . S
C1152 H1210 0.930 . S
C1153 N1149 1.279 . S
C1153 C1151 1.358 . S
C1153 H1211 0.930 . S
C1154 C1157 1.348 1_655 S
C1154 C1158 1.356 . S
C1154 O1205 1.325 . S
C1155 N1156 1.279 1_655 S
C1155 C1158 1.358 . S
C1155 H1212 0.930 . S
N1156 C1155 1.279 1_455 S
N1156 C1159 1.314 . S
C1157 C1154 1.348 1_455 S
C1157 C1159 1.353 . S
C1157 H1213 0.929 . S
C1158 C1154 1.356 . S
C1158 C1155 1.358 . S
C1158 H1214 0.930 . S
C1159 N1156 1.314 . S
C1159 C1157 1.353 . S
C1159 H1215 0.930 . S
C1160 N1161 1.314 . S
C1160 C1165 1.353 . S
C1160 H1166 0.930 . S
N1161 Li1144 1.990 . S
N1161 C1160 1.314 . S
N1161 C1163 1.279 . S
C1162 C1163 1.358 . S
C1162 C1164 1.356 . S
C1162 H1216 0.930 . S
C1163 N1161 1.279 . S
C1163 C1162 1.358 . S
C1163 H1167 0.930 . S
C1164 C1162 1.356 . S
C1164 C1165 1.348 . S
C1165 C1160 1.353 . S
C1165 C1164 1.348 . S
C1165 H1217 0.929 . S
H1166 C1160 0.930 . S
H1167 C1163 0.930 . S
C1168 N1169 1.314 . S
C1168 C1170 1.353 . S
C1168 H1174 0.930 . S
N1169 Li1145 1.990 . S
N1169 C1168 1.314 . S
N1169 C1172 1.279 . S
C1170 C1168 1.353 . S
C1170 C1173 1.348 . S
C1170 H1218 0.929 . S
C1171 C1172 1.358 . S
C1171 C1173 1.356 . S
C1171 H1219 0.930 1_655 S
C1172 N1169 1.279 . S
C1172 C1171 1.358 . S
C1172 H1175 0.969 . S
C1173 C1170 1.348 . S
C1173 C1171 1.356 . S
H1174 C1168 0.930 . S
H1175 C1172 0.969 . S
C1176 C1178 1.348 . S
C1176 C1179 1.356 . S
C1176 O1206 1.325 . S
N1177 C1180 1.314 . S
N1177 C1181 1.279 . S
C1178 C1176 1.348 . S
C1178 C1180 1.353 . S
C1178 H1220 0.929 . S
C1179 C1176 1.356 . S
C1179 C1181 1.358 . S
C1179 H1221 0.922 1_655 S
C1180 N1177 1.314 . S
C1180 C1178 1.353 . S
C1180 H1222 0.930 . S
C1181 N1177 1.279 . S
C1181 C1179 1.358 . S
C1181 H1223 0.930 . S
C1182 C1183 1.348 . S
C1182 C1184 1.356 . S
C1182 O1207 1.325 . S
C1183 C1182 1.348 . S
C1183 C1185 1.353 . S
C1183 H1224 0.929 . S
C1184 C1182 1.356 . S
C1184 C1186 1.358 . S
C1184 H1225 0.930 . S
C1185 C1183 1.353 . S
C1185 N1187 1.314 . S
C1185 H1226 0.930 . S
C1186 C1184 1.358 . S
C1186 N1187 1.279 . S
C1186 H1227 0.930 . S
N1187 C1185 1.314 . S
N1187 C1186 1.279 . S
C1188 C1190 1.353 . S
C1188 N1191 1.314 . S
C1188 H1194 0.930 . S
C1189 N1191 1.279 . S
C1189 C1192 1.358 . S
C1189 H1195 0.930 . S
C1190 C1188 1.353 . S
C1190 C1193 1.348 . S
C1190 H1228 0.929 . S
N1191 Li1146 1.990 . S
N1191 C1188 1.314 . S
N1191 C1189 1.279 . S
C1192 C1189 1.358 . S
C1192 C1193 1.356 . S
C1192 H1229 0.930 . S
C1193 C1190 1.348 . S
C1193 C1192 1.356 . S
H1194 C1188 0.930 . S
H1195 C1189 0.930 . S
C1196 N1197 1.314 . S
C1196 C1198 1.353 . S
C1196 H1202 0.930 . S
N1197 Li1147 1.990 . S
N1197 C1196 1.314 . S
N1197 C1200 1.279 . S
C1198 C1196 1.353 . S
C1198 C1201 1.348 . S
C1198 H1230 0.929 . S
C1199 C1200 1.358 . S
C1199 C1201 1.356 . S
C1199 H1231 0.930 . S
C1200 N1197 1.279 . S
C1200 C1199 1.358 . S
C1200 H1203 0.930 . S
C1201 C1198 1.348 . S
C1201 C1199 1.356 . S
H1202 C1196 0.930 . S
H1203 C1200 0.930 . S
O1204 Li1144 1.956 1_655 S
O1204 Li1145 1.970 . S
O1204 Li1146 1.961 . S
O1204 C1148 1.325 1_655 S
O1205 Li1144 1.970 1_655 S
O1205 Li1145 1.956 . S
O1205 Li1147 1.961 . S
O1205 C1154 1.325 . S
O1206 Li1144 1.961 1_655 S
O1206 Li1146 1.956 . S
O1206 Li1147 1.970 . S
O1206 C1176 1.325 . S
O1207 Li1145 1.961 . S
O1207 Li1146 1.970 . S
O1207 Li1147 1.956 . S
O1207 C1182 1.325 . S
H1208 C1150 0.929 . S
H1209 C1151 0.930 . S
H1210 C1152 0.930 . S
H1211 C1153 0.930 . S
H1212 C1155 0.930 . S
H1213 C1157 0.929 . S
H1214 C1158 0.930 . S
H1215 C1159 0.930 . S
H1216 C1162 0.930 . S
H1217 C1165 0.929 . S
H1218 C1170 0.929 . S
H1219 C1171 0.930 1_455 S
H1220 C1178 0.929 . S
H1221 C1179 0.922 1_455 S
H1222 C1180 0.930 . S
H1223 C1181 0.930 . S
H1224 C1183 0.929 . S
H1225 C1184 0.930 . S
H1226 C1185 0.930 . S
H1227 C1186 0.930 . S
H1228 C1190 0.929 . S
H1229 C1192 0.930 . S
H1230 C1198 0.929 . S
H1231 C1199 0.930 . S
Li1232 N1249 1.990 . S
Li1232 O1292 1.956 . S
Li1232 O1293 1.970 . S
Li1232 O1294 1.961 . S
Li1233 N1257 1.990 . S
Li1233 O1292 1.970 . S
Li1233 O1293 1.956 . S
Li1233 O1295 1.961 . S
Li1234 N1279 1.990 . S
Li1234 O1292 1.961 . S
Li1234 O1294 1.956 . S
Li1234 O1295 1.970 . S
Li1235 N1285 1.990 . S
Li1235 O1293 1.961 . S
Li1235 O1294 1.970 . S
Li1235 O1295 1.956 . S
C1236 C1238 1.348 . S
C1236 C1239 1.356 . S
C1236 O1292 1.325 . S
N1237 C1240 1.314 . S
N1237 C1241 1.279 . S
C1238 C1236 1.348 . S
C1238 C1240 1.353 . S
C1238 H1296 0.929 . S
C1239 C1236 1.356 . S
C1239 C1241 1.358 . S
C1239 H1297 0.930 . S
C1240 N1237 1.314 . S
C1240 C1238 1.353 . S
C1240 H1298 0.930 . S
C1241 N1237 1.279 . S
C1241 C1239 1.358 . S
C1241 H1299 0.930 . S
C1242 C1245 1.348 . S
C1242 C1246 1.356 . S
C1242 O1293 1.325 . S
C1243 N1244 1.279 . S
C1243 C1246 1.358 . S
C1243 H1300 0.930 . S
N1244 C1243 1.279 . S
N1244 C1247 1.314 . S
C1245 C1242 1.348 . S
C1245 C1247 1.353 . S
C1245 H1301 0.929 . S
C1246 C1242 1.356 . S
C1246 C1243 1.358 . S
C1246 H1302 0.930 . S
C1247 N1244 1.314 . S
C1247 C1245 1.353 . S
C1247 H1303 0.930 . S
C1248 N1249 1.314 . S
C1248 C1253 1.353 . S
C1248 H1254 0.930 . S
N1249 Li1232 1.990 . S
N1249 C1248 1.314 . S
N1249 C1251 1.279 . S
C1250 C1251 1.358 . S
C1250 C1252 1.356 . S
C1250 H1304 0.930 . S
C1251 N1249 1.279 . S
C1251 C1250 1.358 . S
C1251 H1255 0.930 . S
C1252 C1250 1.356 . S
C1252 C1253 1.348 . S
C1253 C1248 1.353 . S
C1253 C1252 1.348 . S
C1253 H1305 0.929 . S
H1254 C1248 0.930 . S
H1255 C1251 0.930 . S
C1256 N1257 1.314 . S
C1256 C1258 1.353 . S
C1256 H1262 0.930 . S
N1257 Li1233 1.990 . S
N1257 C1256 1.314 . S
N1257 C1260 1.279 . S
C1258 C1256 1.353 . S
C1258 C1261 1.348 . S
C1258 H1306 0.929 . S
C1259 C1260 1.358 . S
C1259 C1261 1.356 . S
C1259 H1307 0.930 . S
C1260 N1257 1.279 . S
C1260 C1259 1.358 . S
C1260 H1263 0.930 . S
C1261 C1258 1.348 . S
C1261 C1259 1.356 . S
H1262 C1256 0.930 . S
H1263 C1260 0.930 . S
C1264 C1266 1.348 . S
C1264 C1267 1.356 . S
C1264 O1294 1.325 . S
N1265 C1268 1.314 . S
N1265 C1269 1.279 . S
C1266 C1264 1.348 . S
C1266 C1268 1.353 . S
C1266 H1308 0.929 . S
C1267 C1264 1.356 . S
C1267 C1269 1.358 . S
C1267 H1309 0.930 . S
C1268 N1265 1.314 . S
C1268 C1266 1.353 . S
C1268 H1310 0.930 . S
C1269 N1265 1.279 . S
C1269 C1267 1.358 . S
C1269 H1311 0.930 . S
C1270 C1271 1.348 . S
C1270 C1272 1.356 . S
C1270 O1295 1.325 . S
C1271 C1270 1.348 . S
C1271 C1273 1.353 . S
C1271 H1312 0.929 . S
C1272 C1270 1.356 . S
C1272 C1274 1.358 . S
C1272 H1313 0.930 . S
C1273 C1271 1.353 . S
C1273 N1275 1.314 . S
C1273 H1314 0.930 . S
C1274 C1272 1.358 . S
C1274 N1275 1.279 . S
C1274 H1315 0.930 . S
N1275 C1273 1.314 . S
N1275 C1274 1.279 . S
C1276 C1278 1.353 . S
C1276 N1279 1.314 . S
C1276 H1282 0.930 . S
C1277 N1279 1.279 . S
C1277 C1280 1.358 . S
C1277 H1283 0.930 . S
C1278 C1276 1.353 . S
C1278 C1281 1.348 . S
C1278 H1316 0.929 . S
N1279 Li1234 1.990 . S
N1279 C1276 1.314 . S
N1279 C1277 1.279 . S
C1280 C1277 1.358 . S
C1280 C1281 1.356 . S
C1280 H1317 0.930 . S
C1281 C1278 1.348 . S
C1281 C1280 1.356 . S
H1282 C1276 0.930 . S
H1283 C1277 0.930 . S
C1284 N1285 1.314 . S
C1284 C1286 1.353 . S
C1284 H1290 0.930 . S
N1285 Li1235 1.990 . S
N1285 C1284 1.314 . S
N1285 C1288 1.279 . S
C1286 C1284 1.353 . S
C1286 C1289 1.348 . S
C1286 H1318 0.929 . S
C1287 C1288 1.358 . S
C1287 C1289 1.356 . S
C1287 H1319 0.930 . S
C1288 N1285 1.279 . S
C1288 C1287 1.358 . S
C1288 H1291 0.930 . S
C1289 C1286 1.348 . S
C1289 C1287 1.356 . S
H1290 C1284 0.930 . S
H1291 C1288 0.930 . S
O1292 Li1232 1.956 . S
O1292 Li1233 1.970 . S
O1292 Li1234 1.961 . S
O1292 C1236 1.325 . S
O1293 Li1232 1.970 . S
O1293 Li1233 1.956 . S
O1293 Li1235 1.961 . S
O1293 C1242 1.325 . S
O1294 Li1232 1.961 . S
O1294 Li1234 1.956 . S
O1294 Li1235 1.970 . S
O1294 C1264 1.325 . S
O1295 Li1233 1.961 . S
O1295 Li1234 1.970 . S
O1295 Li1235 1.956 . S
O1295 C1270 1.325 . S
H1296 C1238 0.929 . S
H1297 C1239 0.930 . S
H1298 C1240 0.930 . S
H1299 C1241 0.930 . S
H1300 C1243 0.930 . S
H1301 C1245 0.929 . S
H1302 C1246 0.930 . S
H1303 C1247 0.930 . S
H1304 C1250 0.930 . S
H1305 C1253 0.929 . S
H1306 C1258 0.929 . S
H1307 C1259 0.930 . S
H1308 C1266 0.929 . S
H1309 C1267 0.930 . S
H1310 C1268 0.930 . S
H1311 C1269 0.930 . S
H1312 C1271 0.929 . S
H1313 C1272 0.930 . S
H1314 C1273 0.930 . S
H1315 C1274 0.930 . S
H1316 C1278 0.929 . S
H1317 C1280 0.930 . S
H1318 C1286 0.929 . S
H1319 C1287 0.930 . S
Li1320 N1337 1.990 . S
Li1320 O1380 1.956 . S
Li1320 O1381 1.970 . S
Li1320 O1382 1.961 . S
Li1321 N1345 1.990 . S
Li1321 O1380 1.970 . S
Li1321 O1381 1.956 . S
Li1321 O1383 1.961 . S
Li1322 N1367 1.990 . S
Li1322 O1380 1.961 . S
Li1322 O1382 1.956 . S
Li1322 O1383 1.970 . S
Li1323 N1373 1.990 . S
Li1323 O1381 1.961 . S
Li1323 O1382 1.970 . S
Li1323 O1383 1.956 . S
C1324 C1326 1.348 . S
C1324 C1327 1.356 . S
C1324 O1380 1.325 . S
N1325 C1328 1.314 . S
N1325 C1329 1.279 . S
C1326 C1324 1.348 . S
C1326 C1328 1.353 . S
C1326 H1384 0.929 . S
C1327 C1324 1.356 . S
C1327 C1329 1.358 . S
C1327 H1385 0.930 . S
C1328 N1325 1.314 . S
C1328 C1326 1.353 . S
C1328 H1386 0.930 . S
C1329 N1325 1.279 . S
C1329 C1327 1.358 . S
C1329 H1387 0.930 . S
C1330 C1333 1.348 . S
C1330 C1334 1.356 . S
C1330 O1381 1.325 . S
C1331 N1332 1.279 . S
C1331 C1334 1.358 . S
C1331 H1388 0.930 . S
N1332 C1331 1.279 . S
N1332 C1335 1.314 . S
C1333 C1330 1.348 . S
C1333 C1335 1.353 . S
C1333 H1389 0.929 . S
C1334 C1330 1.356 . S
C1334 C1331 1.358 . S
C1334 H1390 0.930 . S
C1335 N1332 1.314 . S
C1335 C1333 1.353 . S
C1335 H1391 0.930 . S
C1336 N1337 1.314 . S
C1336 C1341 1.353 . S
C1336 H1342 0.930 . S
N1337 Li1320 1.990 . S
N1337 C1336 1.314 . S
N1337 C1339 1.279 . S
C1338 C1339 1.358 . S
C1338 C1340 1.356 . S
C1338 H1392 0.930 . S
C1339 N1337 1.279 . S
C1339 C1338 1.358 . S
C1339 H1343 0.930 . S
C1340 C1338 1.356 . S
C1340 C1341 1.348 . S
C1341 C1336 1.353 . S
C1341 C1340 1.348 . S
C1341 H1393 0.929 . S
H1342 C1336 0.930 . S
H1343 C1339 0.930 . S
C1344 N1345 1.314 . S
C1344 C1346 1.353 . S
C1344 H1350 0.930 . S
N1345 Li1321 1.990 . S
N1345 C1344 1.314 . S
N1345 C1348 1.279 . S
C1346 C1344 1.353 . S
C1346 C1349 1.348 . S
C1346 H1394 0.929 . S
C1347 C1348 1.358 . S
C1347 C1349 1.356 . S
C1347 H1395 0.930 . S
C1348 N1345 1.279 . S
C1348 C1347 1.358 . S
C1348 H1351 0.930 . S
C1349 C1346 1.348 . S
C1349 C1347 1.356 . S
H1350 C1344 0.930 . S
H1351 C1348 0.930 . S
C1352 C1354 1.348 . S
C1352 C1355 1.356 . S
C1352 O1382 1.325 . S
N1353 C1356 1.314 . S
N1353 C1357 1.279 . S
C1354 C1352 1.348 . S
C1354 C1356 1.353 . S
C1354 H1396 0.929 . S
C1355 C1352 1.356 . S
C1355 C1357 1.358 . S
C1355 H1397 0.930 . S
C1356 N1353 1.314 . S
C1356 C1354 1.353 . S
C1356 H1398 0.930 . S
C1357 N1353 1.279 . S
C1357 C1355 1.358 . S
C1357 H1399 0.930 . S
C1358 C1359 1.348 . S
C1358 C1360 1.356 . S
C1358 O1383 1.325 . S
C1359 C1358 1.348 . S
C1359 C1361 1.353 . S
C1359 H1400 0.929 . S
C1360 C1358 1.356 . S
C1360 C1362 1.358 . S
C1360 H1401 0.930 . S
C1361 C1359 1.353 . S
C1361 N1363 1.314 . S
C1361 H1402 0.930 . S
C1362 C1360 1.358 . S
C1362 N1363 1.279 . S
C1362 H1403 0.930 . S
N1363 C1361 1.314 . S
N1363 C1362 1.279 . S
C1364 C1366 1.353 . S
C1364 N1367 1.314 . S
C1364 H1370 0.930 . S
C1365 N1367 1.279 . S
C1365 C1368 1.358 . S
C1365 H1371 0.930 . S
C1366 C1364 1.353 . S
C1366 C1369 1.348 . S
C1366 H1404 0.929 . S
N1367 Li1322 1.990 . S
N1367 C1364 1.314 . S
N1367 C1365 1.279 . S
C1368 C1365 1.358 . S
C1368 C1369 1.356 . S
C1368 H1405 0.930 . S
C1369 C1366 1.348 . S
C1369 C1368 1.356 . S
H1370 C1364 0.930 . S
H1371 C1365 0.930 . S
C1372 N1373 1.314 . S
C1372 C1374 1.353 . S
C1372 H1378 0.930 . S
N1373 Li1323 1.990 . S
N1373 C1372 1.314 . S
N1373 C1376 1.279 . S
C1374 C1372 1.353 . S
C1374 C1377 1.348 . S
C1374 H1406 0.929 . S
C1375 C1376 1.358 . S
C1375 C1377 1.356 . S
C1375 H1407 0.930 . S
C1376 N1373 1.279 . S
C1376 C1375 1.358 . S
C1376 H1379 0.930 . S
C1377 C1374 1.348 . S
C1377 C1375 1.356 . S
H1378 C1372 0.930 . S
H1379 C1376 0.930 . S
O1380 Li1320 1.956 . S
O1380 Li1321 1.970 . S
O1380 Li1322 1.961 . S
O1380 C1324 1.325 . S
O1381 Li1320 1.970 . S
O1381 Li1321 1.956 . S
O1381 Li1323 1.961 . S
O1381 C1330 1.325 . S
O1382 Li1320 1.961 . S
O1382 Li1322 1.956 . S
O1382 Li1323 1.970 . S
O1382 C1352 1.325 . S
O1383 Li1321 1.961 . S
O1383 Li1322 1.970 . S
O1383 Li1323 1.956 . S
O1383 C1358 1.325 . S
H1384 C1326 0.929 . S
H1385 C1327 0.930 . S
H1386 C1328 0.930 . S
H1387 C1329 0.930 . S
H1388 C1331 0.930 . S
H1389 C1333 0.929 . S
H1390 C1334 0.930 . S
H1391 C1335 0.930 . S
H1392 C1338 0.930 . S
H1393 C1341 0.929 . S
H1394 C1346 0.929 . S
H1395 C1347 0.930 . S
H1396 C1354 0.929 . S
H1397 C1355 0.930 . S
H1398 C1356 0.930 . S
H1399 C1357 0.930 . S
H1400 C1359 0.929 . S
H1401 C1360 0.930 . S
H1402 C1361 0.930 . S
H1403 C1362 0.930 . S
H1404 C1366 0.929 . S
H1405 C1368 0.930 . S
H1406 C1374 0.929 . S
H1407 C1375 0.930 . S
Li1408 N1425 1.990 . S
Li1408 O1468 1.956 . S
Li1408 O1469 1.970 . S
Li1408 O1470 1.961 . S
Li1409 N1433 1.990 . S
Li1409 O1468 1.970 . S
Li1409 O1469 1.956 . S
Li1409 O1471 1.961 . S
Li1410 N1455 1.990 . S
Li1410 O1468 1.961 . S
Li1410 O1470 1.956 . S
Li1410 O1471 1.970 . S
Li1411 N1461 2.015 . S
Li1411 O1469 1.953 1_565 S
Li1411 O1470 1.950 1_565 S
Li1411 O1471 1.944 1_565 S
C1412 C1414 1.348 . S
C1412 C1415 1.356 . S
C1412 O1468 1.325 . S
N1413 C1416 1.314 . S
N1413 C1417 1.279 . S
C1414 C1412 1.348 . S
C1414 C1416 1.353 . S
C1414 H1472 0.929 . S
C1415 C1412 1.356 . S
C1415 C1417 1.358 . S
C1415 H1473 0.930 . S
C1416 N1413 1.314 . S
C1416 C1414 1.353 . S
C1416 H1474 0.930 . S
C1417 N1413 1.279 . S
C1417 C1415 1.358 . S
C1417 H1475 0.930 . S
C1418 C1421 1.348 . S
C1418 C1422 1.356 . S
C1418 O1469 1.325 1_565 S
C1419 N1420 1.279 . S
C1419 C1422 1.358 . S
C1419 H1476 0.930 . S
N1420 C1419 1.279 . S
N1420 C1423 1.314 . S
C1421 C1418 1.348 . S
C1421 C1423 1.353 . S
C1421 H1477 0.961 . S
C1422 C1418 1.356 . S
C1422 C1419 1.358 . S
C1422 H1478 0.930 . S
C1423 N1420 1.314 . S
C1423 C1421 1.353 . S
C1423 H1479 0.930 . S
C1424 N1425 1.314 . S
C1424 C1429 1.332 . S
C1424 H1430 0.930 1_545 S
N1425 Li1408 1.990 . S
N1425 C1424 1.314 . S
N1425 C1427 1.279 . S
C1426 C1427 1.358 . S
C1426 C1428 1.356 . S
C1426 H1480 0.930 . S
C1427 N1425 1.279 . S
C1427 C1426 1.358 . S
C1427 H1431 0.930 . S
C1428 C1426 1.356 . S
C1428 C1429 1.401 . S
C1429 C1424 1.332 . S
C1429 C1428 1.401 . S
C1429 H1481 0.902 1_545 S
H1430 C1424 0.930 1_565 S
H1431 C1427 0.930 . S
C1432 N1433 1.314 . S
C1432 C1434 1.353 . S
C1432 H1438 0.930 . S
N1433 Li1409 1.990 . S
N1433 C1432 1.314 . S
N1433 C1436 1.279 . S
C1434 C1432 1.353 . S
C1434 C1437 1.348 . S
C1434 H1482 0.929 . S
C1435 C1436 1.358 . S
C1435 C1437 1.356 . S
C1435 H1483 0.930 . S
C1436 N1433 1.279 . S
C1436 C1435 1.358 . S
C1436 H1439 0.930 . S
C1437 C1434 1.348 . S
C1437 C1435 1.356 . S
H1438 C1432 0.930 . S
H1439 C1436 0.930 . S
C1440 C1442 1.348 1_545 S
C1440 C1443 1.356 . S
C1440 O1470 1.325 . S
N1441 C1444 1.314 . S
N1441 C1445 1.279 1_565 S
C1442 C1440 1.348 1_565 S
C1442 C1444 1.353 . S
C1442 H1484 0.929 . S
C1443 C1440 1.356 . S
C1443 C1445 1.358 . S
C1443 H1485 0.930 . S
C1444 N1441 1.314 . S
C1444 C1442 1.353 . S
C1444 H1486 0.930 . S
C1445 N1441 1.279 1_545 S
C1445 C1443 1.358 . S
C1445 H1487 0.930 . S
C1446 C1447 1.348 . S
C1446 C1448 1.356 . S
C1446 O1471 1.325 . S
C1447 C1446 1.348 . S
C1447 C1449 1.353 . S
C1447 H1488 0.929 . S
C1448 C1446 1.356 . S
C1448 C1450 1.358 . S
C1448 H1489 0.930 . S
C1449 C1447 1.353 . S
C1449 N1451 1.314 . S
C1449 H1490 0.930 . S
C1450 C1448 1.358 . S
C1450 N1451 1.279 . S
C1450 H1491 0.930 . S
N1451 C1449 1.314 . S
N1451 C1450 1.279 . S
C1452 C1454 1.353 . S
C1452 N1455 1.314 . S
C1452 H1458 0.930 . S
C1453 N1455 1.279 . S
C1453 C1456 1.358 . S
C1453 H1459 0.930 . S
C1454 C1452 1.353 . S
C1454 C1457 1.348 . S
C1454 H1492 0.929 . S
N1455 Li1410 1.990 . S
N1455 C1452 1.314 . S
N1455 C1453 1.279 . S
C1456 C1453 1.358 . S
C1456 C1457 1.356 . S
C1456 H1493 0.930 . S
C1457 C1454 1.348 . S
C1457 C1456 1.356 . S
H1458 C1452 0.930 . S
H1459 C1453 0.930 . S
C1460 N1461 1.314 . S
C1460 C1462 1.353 . S
C1460 H1466 0.930 . S
N1461 Li1411 2.015 . S
N1461 C1460 1.314 . S
N1461 C1464 1.279 . S
C1462 C1460 1.353 . S
C1462 C1465 1.348 . S
C1462 H1494 0.929 . S
C1463 C1464 1.358 . S
C1463 C1465 1.356 . S
C1463 H1495 0.930 . S
C1464 N1461 1.279 . S
C1464 C1463 1.358 . S
C1464 H1467 0.930 . S
C1465 C1462 1.348 . S
C1465 C1463 1.356 . S
H1466 C1460 0.930 . S
H1467 C1464 0.930 . S
O1468 Li1408 1.956 . S
O1468 Li1409 1.970 . S
O1468 Li1410 1.961 . S
O1468 C1412 1.325 . S
O1469 Li1408 1.970 . S
O1469 Li1409 1.956 . S
O1469 Li1411 1.953 1_545 S
O1469 C1418 1.325 1_545 S
O1470 Li1408 1.961 . S
O1470 Li1410 1.956 . S
O1470 Li1411 1.950 1_545 S
O1470 C1440 1.325 . S
O1471 Li1409 1.961 . S
O1471 Li1410 1.970 . S
O1471 Li1411 1.944 1_545 S
O1471 C1446 1.325 . S
H1472 C1414 0.929 . S
H1473 C1415 0.930 . S
H1474 C1416 0.930 . S
H1475 C1417 0.930 . S
H1476 C1419 0.930 . S
H1477 C1421 0.961 . S
H1478 C1422 0.930 . S
H1479 C1423 0.930 . S
H1480 C1426 0.930 . S
H1481 C1429 0.902 1_565 S
H1482 C1434 0.929 . S
H1483 C1435 0.930 . S
H1484 C1442 0.929 . S
H1485 C1443 0.930 . S
H1486 C1444 0.930 . S
H1487 C1445 0.930 . S
H1488 C1447 0.929 . S
H1489 C1448 0.930 . S
H1490 C1449 0.930 . S
H1491 C1450 0.930 . S
H1492 C1454 0.929 . S
H1493 C1456 0.930 . S
H1494 C1462 0.929 . S
H1495 C1463 0.930 . S
Li1496 N1513 1.990 . S
Li1496 O1556 1.956 . S
Li1496 O1557 1.970 . S
Li1496 O1558 1.961 . S
Li1497 N1521 1.990 . S
Li1497 O1556 1.970 . S
Li1497 O1557 1.956 . S
Li1497 O1559 1.961 . S
Li1498 N1543 2.004 . S
Li1498 O1556 1.962 1_455 S
Li1498 O1558 1.933 1_455 S
Li1498 O1559 1.971 1_455 S
Li1499 N1549 1.990 . S
Li1499 O1557 1.961 . S
Li1499 O1558 1.970 . S
Li1499 O1559 1.956 . S
C1500 C1502 1.348 . S
C1500 C1503 1.356 . S
C1500 O1556 1.325 1_455 S
N1501 C1504 1.314 . S
N1501 C1505 1.279 . S
C1502 C1500 1.348 . S
C1502 C1504 1.353 . S
C1502 H1560 0.930 . S
C1503 C1500 1.356 . S
C1503 C1505 1.358 . S
C1503 H1561 0.930 . S
C1504 N1501 1.314 . S
C1504 C1502 1.353 . S
C1504 H1562 0.930 . S
C1505 N1501 1.279 . S
C1505 C1503 1.358 . S
C1505 H1563 0.930 . S
C1506 C1509 1.348 . S
C1506 C1510 1.356 . S
C1506 O1557 1.325 . S
C1507 N1508 1.279 . S
C1507 C1510 1.358 . S
C1507 H1564 0.930 . S
N1508 C1507 1.279 . S
N1508 C1511 1.314 . S
C1509 C1506 1.348 . S
C1509 C1511 1.353 . S
C1509 H1565 0.929 . S
C1510 C1506 1.356 . S
C1510 C1507 1.358 . S
C1510 H1566 0.930 . S
C1511 N1508 1.314 . S
C1511 C1509 1.353 . S
C1511 H1567 0.930 . S
C1512 N1513 1.314 . S
C1512 C1517 1.353 . S
C1512 H1518 0.930 . S
N1513 Li1496 1.990 . S
N1513 C1512 1.314 . S
N1513 C1515 1.279 . S
C1514 C1515 1.358 . S
C1514 C1516 1.356 . S
C1514 H1568 0.930 . S
C1515 N1513 1.279 . S
C1515 C1514 1.358 . S
C1515 H1519 0.930 . S
C1516 C1514 1.356 . S
C1516 C1517 1.348 . S
C1517 C1512 1.353 . S
C1517 C1516 1.348 . S
C1517 H1569 0.929 . S
H1518 C1512 0.930 . S
H1519 C1515 0.930 . S
C1520 N1521 1.314 . S
C1520 C1522 1.353 . S
C1520 H1526 0.930 1_655 S
N1521 Li1497 1.990 . S
N1521 C1520 1.314 . S
N1521 C1524 1.279 . S
C1522 C1520 1.353 . S
C1522 C1525 1.348 . S
C1522 H1570 0.929 1_655 S
C1523 C1524 1.358 . S
C1523 C1525 1.356 . S
C1523 H1571 0.930 . S
C1524 N1521 1.279 . S
C1524 C1523 1.358 . S
C1524 H1527 0.930 . S
C1525 C1522 1.348 . S
C1525 C1523 1.356 . S
H1526 C1520 0.930 1_455 S
H1527 C1524 0.930 . S
C1528 C1530 1.348 . S
C1528 C1531 1.356 . S
C1528 O1558 1.325 . S
N1529 C1532 1.314 . S
N1529 C1533 1.279 . S
C1530 C1528 1.348 . S
C1530 C1532 1.353 . S
C1530 H1572 0.929 . S
C1531 C1528 1.356 . S
C1531 C1533 1.358 . S
C1531 H1573 0.930 . S
C1532 N1529 1.314 . S
C1532 C1530 1.353 . S
C1532 H1574 0.930 . S
C1533 N1529 1.279 . S
C1533 C1531 1.358 . S
C1533 H1575 0.930 . S
C1534 C1535 1.348 1_655 S
C1534 C1536 1.356 . S
C1534 O1559 1.325 . S
C1535 C1534 1.348 1_455 S
C1535 C1537 1.353 . S
C1535 H1576 0.929 . S
C1536 C1534 1.356 . S
C1536 C1538 1.358 . S
C1536 H1577 0.930 . S
C1537 C1535 1.353 . S
C1537 N1539 1.314 . S
C1537 H1578 0.930 . S
C1538 C1536 1.358 . S
C1538 N1539 1.279 1_655 S
C1538 H1579 0.930 . S
N1539 C1537 1.314 . S
N1539 C1538 1.279 1_455 S
C1540 C1542 1.353 . S
C1540 N1543 1.314 . S
C1540 H1546 0.930 . S
C1541 N1543 1.279 . S
C1541 C1544 1.358 . S
C1541 H1547 0.930 . S
C1542 C1540 1.353 . S
C1542 C1545 1.348 . S
C1542 H1580 0.929 . S
N1543 Li1498 2.004 . S
N1543 C1540 1.314 . S
N1543 C1541 1.279 . S
C1544 C1541 1.358 . S
C1544 C1545 1.356 . S
C1544 H1581 0.930 . S
C1545 C1542 1.348 . S
C1545 C1544 1.356 . S
H1546 C1540 0.930 . S
H1547 C1541 0.930 . S
C1548 N1549 1.314 . S
C1548 C1550 1.353 . S
C1548 H1554 0.930 . S
N1549 Li1499 1.990 . S
N1549 C1548 1.314 . S
N1549 C1552 1.279 . S
C1550 C1548 1.353 . S
C1550 C1553 1.348 . S
C1550 H1582 0.929 . S
C1551 C1552 1.358 . S
C1551 C1553 1.356 . S
C1551 H1583 0.930 . S
C1552 N1549 1.279 . S
C1552 C1551 1.358 . S
C1552 H1555 0.930 . S
C1553 C1550 1.348 . S
C1553 C1551 1.356 . S
H1554 C1548 0.930 . S
H1555 C1552 0.930 . S
O1556 Li1496 1.956 . S
O1556 Li1497 1.970 . S
O1556 Li1498 1.962 1_655 S
O1556 C1500 1.325 1_655 S
O1557 Li1496 1.970 . S
O1557 Li1497 1.956 . S
O1557 Li1499 1.961 . S
O1557 C1506 1.325 . S
O1558 Li1496 1.961 . S
O1558 Li1498 1.933 1_655 S
O1558 Li1499 1.970 . S
O1558 C1528 1.325 . S
O1559 Li1497 1.961 . S
O1559 Li1498 1.971 1_655 S
O1559 Li1499 1.956 . S
O1559 C1534 1.325 . S
H1560 C1502 0.930 . S
H1561 C1503 0.930 . S
H1562 C1504 0.930 . S
H1563 C1505 0.930 . S
H1564 C1507 0.930 . S
H1565 C1509 0.929 . S
H1566 C1510 0.930 . S
H1567 C1511 0.930 . S
H1568 C1514 0.930 . S
H1569 C1517 0.929 . S
H1570 C1522 0.929 1_455 S
H1571 C1523 0.930 . S
H1572 C1530 0.929 . S
H1573 C1531 0.930 . S
H1574 C1532 0.930 . S
H1575 C1533 0.930 . S
H1576 C1535 0.929 . S
H1577 C1536 0.930 . S
H1578 C1537 0.930 . S
H1579 C1538 0.930 . S
H1580 C1542 0.929 . S
H1581 C1544 0.930 . S
H1582 C1550 0.929 . S
H1583 C1551 0.930 . S
H1584 C1603 0.949 . S
H1585 C1604 0.950 . S
H1586 C1606 0.950 . S
H1587 C1607 0.950 . S
H1588 C1609 0.950 . S
H1589 C1612 0.950 . S
H1590 C1613 0.950 . S
H1591 C1615 0.951 . S
H1592 C1616 0.949 . S
H1593 C1618 0.949 . S
H1594 C1619 0.950 . S
H1595 C1621 0.950 . S
H1596 C1622 0.950 . S
H1597 C1624 0.950 . S
H1598 C1627 0.950 . S
H1599 C1628 0.950 . S
H1600 C1630 0.951 . S
H1601 C1631 0.949 . S
C1602 C1603 1.376 . S
C1602 C1607 1.386 . S
C1602 C1608 1.483 . S
C1603 H1584 0.949 . S
C1603 C1602 1.376 . S
C1603 C1604 1.397 . S
C1604 H1585 0.950 . S
C1604 C1603 1.397 . S
C1604 C1605 1.391 . S
C1605 C1604 1.391 . S
C1605 C1606 1.405 . S
C1606 H1586 0.950 . S
C1606 C1605 1.405 . S
C1606 C1607 1.367 . S
C1607 H1587 0.950 . S
C1607 C1602 1.386 . S
C1607 C1606 1.367 . S
C1608 C1602 1.483 . S
C1608 C1609 1.382 . S
C1608 C1610 1.403 . S
C1609 H1588 0.950 . S
C1609 C1608 1.382 . S
C1609 C1625 1.411 . S
C1610 C1608 1.403 . S
C1610 C1611 1.489 . S
C1610 C1624 1.411 . S
C1611 C1610 1.489 . S
C1611 C1612 1.383 . S
C1611 C1616 1.382 . S
C1612 H1589 0.950 . S
C1612 C1611 1.383 . S
C1612 C1613 1.395 . S
C1613 H1590 0.950 . S
C1613 C1612 1.395 . S
C1613 C1614 1.288 . S
C1614 C1613 1.288 . S
C1614 C1615 1.392 . S
C1615 H1591 0.951 . S
C1615 C1614 1.392 . S
C1615 C1616 1.392 . S
C1616 H1592 0.949 . S
C1616 C1611 1.382 . S
C1616 C1615 1.392 . S
C1617 C1618 1.376 . S
C1617 C1622 1.386 . S
C1617 C1623 1.483 . S
C1618 H1593 0.949 . S
C1618 C1617 1.376 . S
C1618 C1619 1.397 . S
C1619 H1594 0.950 . S
C1619 C1618 1.397 . S
C1619 C1620 1.391 . S
C1620 C1619 1.391 . S
C1620 C1621 1.405 . S
C1621 H1595 0.950 . S
C1621 C1620 1.405 . S
C1621 C1622 1.367 . S
C1622 H1596 0.950 . S
C1622 C1617 1.386 . S
C1622 C1621 1.367 . S
C1623 C1617 1.483 . S
C1623 C1624 1.382 . S
C1623 C1625 1.403 . S
C1624 H1597 0.950 . S
C1624 C1610 1.411 . S
C1624 C1623 1.382 . S
C1625 C1609 1.411 . S
C1625 C1623 1.403 . S
C1625 C1626 1.489 . S
C1626 C1625 1.489 . S
C1626 C1627 1.383 . S
C1626 C1631 1.382 . S
C1627 H1598 0.950 . S
C1627 C1626 1.383 . S
C1627 C1628 1.395 . S
C1628 H1599 0.950 . S
C1628 C1627 1.395 . S
C1628 C1629 1.288 . S
C1629 C1628 1.288 . S
C1629 C1630 1.392 . S
C1630 H1600 0.951 . S
C1630 C1629 1.392 . S
C1630 C1631 1.392 . S
C1631 H1601 0.949 . S
C1631 C1626 1.382 . S
C1631 C1630 1.392 . S
H1632 C1651 0.949 . S
H1633 C1652 0.950 . S
H1634 C1654 0.950 . S
H1635 C1655 0.950 . S
H1636 C1657 0.950 . S
H1637 C1660 0.950 . S
H1638 C1661 0.950 . S
H1639 C1663 0.951 . S
H1640 C1664 0.949 . S
H1641 C1666 0.949 . S
H1642 C1667 0.950 . S
H1643 C1669 0.950 . S
H1644 C1670 0.950 . S
H1645 C1672 0.950 . S
H1646 C1675 0.950 . S
H1647 C1676 0.950 . S
H1648 C1678 0.951 . S
H1649 C1679 0.949 . S
C1650 C1651 1.376 . S
C1650 C1655 1.386 . S
C1650 C1656 1.483 . S
C1651 H1632 0.949 . S
C1651 C1650 1.376 . S
C1651 C1652 1.397 . S
C1652 H1633 0.950 . S
C1652 C1651 1.397 . S
C1652 C1653 1.391 . S
C1653 C1652 1.391 . S
C1653 C1654 1.405 . S
C1654 H1634 0.950 . S
C1654 C1653 1.405 . S
C1654 C1655 1.367 . S
C1655 H1635 0.950 . S
C1655 C1650 1.386 . S
C1655 C1654 1.367 . S
C1656 C1650 1.483 . S
C1656 C1657 1.382 . S
C1656 C1658 1.403 . S
C1657 H1636 0.950 . S
C1657 C1656 1.382 . S
C1657 C1673 1.411 . S
C1658 C1656 1.403 . S
C1658 C1659 1.489 . S
C1658 C1672 1.411 . S
C1659 C1658 1.489 . S
C1659 C1660 1.383 . S
C1659 C1664 1.382 . S
C1660 H1637 0.950 . S
C1660 C1659 1.383 . S
C1660 C1661 1.395 . S
C1661 H1638 0.950 . S
C1661 C1660 1.395 . S
C1661 C1662 1.288 . S
C1662 C1661 1.288 . S
C1662 C1663 1.392 . S
C1663 H1639 0.951 . S
C1663 C1662 1.392 . S
C1663 C1664 1.392 . S
C1664 H1640 0.949 . S
C1664 C1659 1.382 . S
C1664 C1663 1.392 . S
C1665 C1666 1.376 . S
C1665 C1670 1.386 . S
C1665 C1671 1.483 . S
C1666 H1641 0.949 . S
C1666 C1665 1.376 . S
C1666 C1667 1.397 . S
C1667 H1642 0.950 . S
C1667 C1666 1.397 . S
C1667 C1668 1.391 . S
C1668 C1667 1.391 . S
C1668 C1669 1.405 . S
C1669 H1643 0.950 . S
C1669 C1668 1.405 . S
C1669 C1670 1.367 . S
C1670 H1644 0.950 . S
C1670 C1665 1.386 . S
C1670 C1669 1.367 . S
C1671 C1665 1.483 . S
C1671 C1672 1.382 . S
C1671 C1673 1.403 . S
C1672 H1645 0.950 . S
C1672 C1658 1.411 . S
C1672 C1671 1.382 . S
C1673 C1657 1.411 . S
C1673 C1671 1.403 . S
C1673 C1674 1.489 . S
C1674 C1673 1.489 . S
C1674 C1675 1.383 . S
C1674 C1679 1.382 . S
C1675 H1646 0.950 . S
C1675 C1674 1.383 . S
C1675 C1676 1.395 . S
C1676 H1647 0.950 . S
C1676 C1675 1.395 . S
C1676 C1677 1.288 . S
C1677 C1676 1.288 . S
C1677 C1678 1.392 . S
C1678 H1648 0.951 . S
C1678 C1677 1.392 . S
C1678 C1679 1.392 . S
C1679 H1649 0.949 . S
C1679 C1674 1.382 . S
C1679 C1678 1.392 . S
H1680 C1699 0.949 . S
H1681 C1700 0.950 . S
H1682 C1702 0.950 . S
H1683 C1703 0.950 . S
H1684 C1705 0.950 . S
H1685 C1708 0.950 . S
H1686 C1709 0.950 . S
H1687 C1711 0.951 . S
H1688 C1712 0.949 . S
H1689 C1714 0.949 . S
H1690 C1715 0.950 . S
H1691 C1717 0.950 . S
H1692 C1718 0.950 . S
H1693 C1720 0.950 . S
H1694 C1723 0.950 . S
H1695 C1724 0.950 . S
H1696 C1726 0.951 . S
H1697 C1727 0.949 . S
C1698 C1699 1.376 . S
C1698 C1703 1.386 . S
C1698 C1704 1.483 . S
C1699 H1680 0.949 . S
C1699 C1698 1.376 . S
C1699 C1700 1.397 . S
C1700 H1681 0.950 . S
C1700 C1699 1.397 . S
C1700 C1701 1.391 . S
C1701 C1700 1.391 . S
C1701 C1702 1.405 . S
C1702 H1682 0.950 . S
C1702 C1701 1.405 . S
C1702 C1703 1.367 . S
C1703 H1683 0.950 . S
C1703 C1698 1.386 . S
C1703 C1702 1.367 . S
C1704 C1698 1.483 . S
C1704 C1705 1.382 . S
C1704 C1706 1.403 . S
C1705 H1684 0.950 . S
C1705 C1704 1.382 . S
C1705 C1721 1.411 . S
C1706 C1704 1.403 . S
C1706 C1707 1.489 . S
C1706 C1720 1.411 . S
C1707 C1706 1.489 . S
C1707 C1708 1.383 . S
C1707 C1712 1.382 . S
C1708 H1685 0.950 . S
C1708 C1707 1.383 . S
C1708 C1709 1.395 . S
C1709 H1686 0.950 . S
C1709 C1708 1.395 . S
C1709 C1710 1.288 . S
C1710 C1709 1.288 . S
C1710 C1711 1.392 . S
C1711 H1687 0.951 . S
C1711 C1710 1.392 . S
C1711 C1712 1.392 . S
C1712 H1688 0.949 . S
C1712 C1707 1.382 . S
C1712 C1711 1.392 . S
C1713 C1714 1.376 . S
C1713 C1718 1.386 . S
C1713 C1719 1.483 . S
C1714 H1689 0.949 . S
C1714 C1713 1.376 . S
C1714 C1715 1.397 . S
C1715 H1690 0.950 . S
C1715 C1714 1.397 . S
C1715 C1716 1.391 . S
C1716 C1715 1.391 . S
C1716 C1717 1.405 . S
C1717 H1691 0.950 . S
C1717 C1716 1.405 . S
C1717 C1718 1.367 . S
C1718 H1692 0.950 . S
C1718 C1713 1.386 . S
C1718 C1717 1.367 . S
C1719 C1713 1.483 . S
C1719 C1720 1.382 . S
C1719 C1721 1.403 . S
C1720 H1693 0.950 . S
C1720 C1706 1.411 . S
C1720 C1719 1.382 . S
C1721 C1705 1.411 . S
C1721 C1719 1.403 . S
C1721 C1722 1.489 . S
C1722 C1721 1.489 . S
C1722 C1723 1.383 . S
C1722 C1727 1.382 . S
C1723 H1694 0.950 . S
C1723 C1722 1.383 . S
C1723 C1724 1.395 . S
C1724 H1695 0.950 . S
C1724 C1723 1.395 . S
C1724 C1725 1.288 . S
C1725 C1724 1.288 . S
C1725 C1726 1.392 . S
C1726 H1696 0.951 . S
C1726 C1725 1.392 . S
C1726 C1727 1.392 . S
C1727 H1697 0.949 . S
C1727 C1722 1.382 . S
C1727 C1726 1.392 . S
H1728 C1747 0.949 . S
H1729 C1748 0.950 . S
H1730 C1750 0.950 . S
H1731 C1751 0.950 . S
H1732 C1753 0.950 . S
H1733 C1756 0.950 . S
H1734 C1757 0.950 . S
H1735 C1759 0.951 . S
H1736 C1760 0.949 . S
H1737 C1762 0.949 . S
H1738 C1763 0.950 . S
H1739 C1765 0.950 . S
H1740 C1766 0.950 . S
H1741 C1768 0.950 . S
H1742 C1771 0.950 . S
H1743 C1772 0.950 . S
H1744 C1774 0.951 . S
H1745 C1775 0.949 . S
C1746 C1747 1.376 . S
C1746 C1751 1.386 . S
C1746 C1752 1.483 . S
C1747 H1728 0.949 . S
C1747 C1746 1.376 . S
C1747 C1748 1.397 . S
C1748 H1729 0.950 . S
C1748 C1747 1.397 . S
C1748 C1749 1.391 . S
C1749 C1748 1.391 . S
C1749 C1750 1.405 . S
C1750 H1730 0.950 . S
C1750 C1749 1.405 . S
C1750 C1751 1.367 . S
C1751 H1731 0.950 . S
C1751 C1746 1.386 . S
C1751 C1750 1.367 . S
C1752 C1746 1.483 . S
C1752 C1753 1.382 . S
C1752 C1754 1.403 . S
C1753 H1732 0.950 . S
C1753 C1752 1.382 . S
C1753 C1769 1.411 . S
C1754 C1752 1.403 . S
C1754 C1755 1.489 . S
C1754 C1768 1.411 . S
C1755 C1754 1.489 . S
C1755 C1756 1.383 . S
C1755 C1760 1.382 . S
C1756 H1733 0.950 . S
C1756 C1755 1.383 . S
C1756 C1757 1.395 . S
C1757 H1734 0.950 . S
C1757 C1756 1.395 . S
C1757 C1758 1.288 . S
C1758 C1757 1.288 . S
C1758 C1759 1.392 . S
C1759 H1735 0.951 . S
C1759 C1758 1.392 . S
C1759 C1760 1.392 . S
C1760 H1736 0.949 . S
C1760 C1755 1.382 . S
C1760 C1759 1.392 . S
C1761 C1762 1.376 . S
C1761 C1766 1.386 . S
C1761 C1767 1.483 . S
C1762 H1737 0.949 . S
C1762 C1761 1.376 . S
C1762 C1763 1.397 . S
C1763 H1738 0.950 . S
C1763 C1762 1.397 . S
C1763 C1764 1.391 . S
C1764 C1763 1.391 . S
C1764 C1765 1.405 . S
C1765 H1739 0.950 . S
C1765 C1764 1.405 . S
C1765 C1766 1.367 . S
C1766 H1740 0.950 . S
C1766 C1761 1.386 . S
C1766 C1765 1.367 . S
C1767 C1761 1.483 . S
C1767 C1768 1.382 . S
C1767 C1769 1.403 . S
C1768 H1741 0.950 . S
C1768 C1754 1.411 . S
C1768 C1767 1.382 . S
C1769 C1753 1.411 . S
C1769 C1767 1.403 . S
C1769 C1770 1.489 . S
C1770 C1769 1.489 . S
C1770 C1771 1.383 . S
C1770 C1775 1.382 . S
C1771 H1742 0.950 . S
C1771 C1770 1.383 . S
C1771 C1772 1.395 . S
C1772 H1743 0.950 . S
C1772 C1771 1.395 . S
C1772 C1773 1.288 . S
C1773 C1772 1.288 . S
C1773 C1774 1.392 . S
C1774 H1744 0.951 . S
C1774 C1773 1.392 . S
C1774 C1775 1.392 . S
C1775 H1745 0.949 . S
C1775 C1770 1.382 . S
C1775 C1774 1.392 . S
H1776 C1795 0.949 . S
H1777 C1796 0.950 . S
H1778 C1798 0.950 . S
H1779 C1799 0.950 . S
H1780 C1801 0.950 . S
H1781 C1804 0.950 . S
H1782 C1805 0.950 . S
H1783 C1807 0.951 . S
H1784 C1808 0.949 . S
H1785 C1810 0.949 . S
H1786 C1811 0.950 . S
H1787 C1813 0.950 . S
H1788 C1814 0.950 . S
H1789 C1816 0.950 . S
H1790 C1819 0.950 . S
H1791 C1820 0.950 . S
H1792 C1822 0.951 . S
H1793 C1823 0.949 . S
C1794 C1795 1.376 . S
C1794 C1799 1.386 . S
C1794 C1800 1.483 . S
C1795 H1776 0.949 . S
C1795 C1794 1.376 . S
C1795 C1796 1.397 . S
C1796 H1777 0.950 . S
C1796 C1795 1.397 . S
C1796 C1797 1.391 . S
C1797 C1796 1.391 . S
C1797 C1798 1.405 . S
C1798 H1778 0.950 . S
C1798 C1797 1.405 . S
C1798 C1799 1.367 . S
C1799 H1779 0.950 . S
C1799 C1794 1.386 . S
C1799 C1798 1.367 . S
C1800 C1794 1.483 . S
C1800 C1801 1.382 . S
C1800 C1802 1.403 . S
C1801 H1780 0.950 . S
C1801 C1800 1.382 . S
C1801 C1817 1.411 . S
C1802 C1800 1.403 . S
C1802 C1803 1.489 . S
C1802 C1816 1.411 . S
C1803 C1802 1.489 . S
C1803 C1804 1.383 . S
C1803 C1808 1.382 . S
C1804 H1781 0.950 . S
C1804 C1803 1.383 . S
C1804 C1805 1.395 . S
C1805 H1782 0.950 . S
C1805 C1804 1.395 . S
C1805 C1806 1.288 . S
C1806 C1805 1.288 . S
C1806 C1807 1.392 . S
C1807 H1783 0.951 . S
C1807 C1806 1.392 . S
C1807 C1808 1.392 . S
C1808 H1784 0.949 . S
C1808 C1803 1.382 . S
C1808 C1807 1.392 . S
C1809 C1810 1.376 . S
C1809 C1814 1.386 . S
C1809 C1815 1.483 . S
C1810 H1785 0.949 . S
C1810 C1809 1.376 . S
C1810 C1811 1.397 . S
C1811 H1786 0.950 . S
C1811 C1810 1.397 . S
C1811 C1812 1.391 . S
C1812 C1811 1.391 . S
C1812 C1813 1.405 . S
C1813 H1787 0.950 . S
C1813 C1812 1.405 . S
C1813 C1814 1.367 . S
C1814 H1788 0.950 . S
C1814 C1809 1.386 . S
C1814 C1813 1.367 . S
C1815 C1809 1.483 . S
C1815 C1816 1.382 . S
C1815 C1817 1.403 . S
C1816 H1789 0.950 . S
C1816 C1802 1.411 . S
C1816 C1815 1.382 . S
C1817 C1801 1.411 . S
C1817 C1815 1.403 . S
C1817 C1818 1.489 . S
C1818 C1817 1.489 . S
C1818 C1819 1.383 . S
C1818 C1823 1.382 . S
C1819 H1790 0.950 . S
C1819 C1818 1.383 . S
C1819 C1820 1.395 . S
C1820 H1791 0.950 . S
C1820 C1819 1.395 . S
C1820 C1821 1.288 . S
C1821 C1820 1.288 . S
C1821 C1822 1.392 . S
C1822 H1792 0.951 . S
C1822 C1821 1.392 . S
C1822 C1823 1.392 . S
C1823 H1793 0.949 . S
C1823 C1818 1.382 . S
C1823 C1822 1.392 . S
H1824 C1843 0.949 . S
H1825 C1844 0.950 . S
H1826 C1846 0.950 . S
H1827 C1847 0.950 . S
H1828 C1849 0.950 . S
H1829 C1852 0.950 . S
H1830 C1853 0.950 . S
H1831 C1855 0.951 . S
H1832 C1856 0.949 . S
H1833 C1858 0.949 . S
H1834 C1859 0.950 . S
H1835 C1861 0.950 . S
H1836 C1862 0.950 . S
H1837 C1864 0.950 . S
H1838 C1867 0.950 . S
H1839 C1868 0.950 . S
H1840 C1870 0.951 . S
H1841 C1871 0.949 . S
C1842 C1843 1.376 . S
C1842 C1847 1.386 . S
C1842 C1848 1.483 . S
C1843 H1824 0.949 . S
C1843 C1842 1.376 . S
C1843 C1844 1.397 . S
C1844 H1825 0.950 . S
C1844 C1843 1.397 . S
C1844 C1845 1.391 . S
C1845 C1844 1.391 . S
C1845 C1846 1.405 . S
C1846 H1826 0.950 . S
C1846 C1845 1.405 . S
C1846 C1847 1.367 . S
C1847 H1827 0.950 . S
C1847 C1842 1.386 . S
C1847 C1846 1.367 . S
C1848 C1842 1.483 . S
C1848 C1849 1.382 . S
C1848 C1850 1.403 . S
C1849 H1828 0.950 . S
C1849 C1848 1.382 . S
C1849 C1865 1.411 . S
C1850 C1848 1.403 . S
C1850 C1851 1.489 . S
C1850 C1864 1.411 . S
C1851 C1850 1.489 . S
C1851 C1852 1.383 . S
C1851 C1856 1.382 . S
C1852 H1829 0.950 . S
C1852 C1851 1.383 . S
C1852 C1853 1.395 . S
C1853 H1830 0.950 . S
C1853 C1852 1.395 . S
C1853 C1854 1.288 . S
C1854 C1853 1.288 . S
C1854 C1855 1.392 . S
C1855 H1831 0.951 . S
C1855 C1854 1.392 . S
C1855 C1856 1.392 . S
C1856 H1832 0.949 . S
C1856 C1851 1.382 . S
C1856 C1855 1.392 . S
C1857 C1858 1.376 . S
C1857 C1862 1.386 . S
C1857 C1863 1.483 . S
C1858 H1833 0.949 . S
C1858 C1857 1.376 . S
C1858 C1859 1.397 . S
C1859 H1834 0.950 . S
C1859 C1858 1.397 . S
C1859 C1860 1.391 . S
C1860 C1859 1.391 . S
C1860 C1861 1.405 . S
C1861 H1835 0.950 . S
C1861 C1860 1.405 . S
C1861 C1862 1.367 . S
C1862 H1836 0.950 . S
C1862 C1857 1.386 . S
C1862 C1861 1.367 . S
C1863 C1857 1.483 . S
C1863 C1864 1.382 . S
C1863 C1865 1.403 . S
C1864 H1837 0.950 . S
C1864 C1850 1.411 . S
C1864 C1863 1.382 . S
C1865 C1849 1.411 . S
C1865 C1863 1.403 . S
C1865 C1866 1.489 . S
C1866 C1865 1.489 . S
C1866 C1867 1.383 . S
C1866 C1871 1.382 . S
C1867 H1838 0.950 . S
C1867 C1866 1.383 . S
C1867 C1868 1.395 . S
C1868 H1839 0.950 . S
C1868 C1867 1.395 . S
C1868 C1869 1.288 . S
C1869 C1868 1.288 . S
C1869 C1870 1.392 . S
C1870 H1840 0.951 . S
C1870 C1869 1.392 . S
C1870 C1871 1.392 . S
C1871 H1841 0.949 . S
C1871 C1866 1.382 . S
C1871 C1870 1.392 . S
H1872 C1891 0.949 . S
H1873 C1892 0.950 . S
H1874 C1894 0.950 . S
H1875 C1895 0.950 . S
H1876 C1897 0.950 . S
H1877 C1900 0.950 . S
H1878 C1901 0.950 . S
H1879 C1903 0.951 . S
H1880 C1904 0.949 . S
H1881 C1906 0.949 . S
H1882 C1907 0.950 . S
H1883 C1909 0.950 . S
H1884 C1910 0.950 . S
H1885 C1912 0.950 . S
H1886 C1915 0.950 . S
H1887 C1916 0.950 . S
H1888 C1918 0.951 . S
H1889 C1919 0.949 . S
C1890 C1891 1.376 . S
C1890 C1895 1.386 . S
C1890 C1896 1.483 . S
C1891 H1872 0.949 . S
C1891 C1890 1.376 . S
C1891 C1892 1.397 . S
C1892 H1873 0.950 . S
C1892 C1891 1.397 . S
C1892 C1893 1.391 . S
C1893 C1892 1.391 . S
C1893 C1894 1.405 . S
C1894 H1874 0.950 . S
C1894 C1893 1.405 . S
C1894 C1895 1.367 . S
C1895 H1875 0.950 . S
C1895 C1890 1.386 . S
C1895 C1894 1.367 . S
C1896 C1890 1.483 . S
C1896 C1897 1.382 . S
C1896 C1898 1.403 . S
C1897 H1876 0.950 . S
C1897 C1896 1.382 . S
C1897 C1913 1.411 . S
C1898 C1896 1.403 . S
C1898 C1899 1.489 . S
C1898 C1912 1.411 . S
C1899 C1898 1.489 . S
C1899 C1900 1.383 . S
C1899 C1904 1.382 . S
C1900 H1877 0.950 . S
C1900 C1899 1.383 . S
C1900 C1901 1.395 . S
C1901 H1878 0.950 . S
C1901 C1900 1.395 . S
C1901 C1902 1.288 . S
C1902 C1901 1.288 . S
C1902 C1903 1.392 . S
C1903 H1879 0.951 . S
C1903 C1902 1.392 . S
C1903 C1904 1.392 . S
C1904 H1880 0.949 . S
C1904 C1899 1.382 . S
C1904 C1903 1.392 . S
C1905 C1906 1.376 . S
C1905 C1910 1.386 . S
C1905 C1911 1.483 . S
C1906 H1881 0.949 . S
C1906 C1905 1.376 . S
C1906 C1907 1.397 . S
C1907 H1882 0.950 . S
C1907 C1906 1.397 . S
C1907 C1908 1.391 . S
C1908 C1907 1.391 . S
C1908 C1909 1.405 . S
C1909 H1883 0.950 . S
C1909 C1908 1.405 . S
C1909 C1910 1.367 . S
C1910 H1884 0.950 . S
C1910 C1905 1.386 . S
C1910 C1909 1.367 . S
C1911 C1905 1.483 . S
C1911 C1912 1.382 . S
C1911 C1913 1.403 . S
C1912 H1885 0.950 . S
C1912 C1898 1.411 . S
C1912 C1911 1.382 . S
C1913 C1897 1.411 . S
C1913 C1911 1.403 . S
C1913 C1914 1.489 . S
C1914 C1913 1.489 . S
C1914 C1915 1.383 . S
C1914 C1919 1.382 . S
C1915 H1886 0.950 . S
C1915 C1914 1.383 . S
C1915 C1916 1.395 . S
C1916 H1887 0.950 . S
C1916 C1915 1.395 . S
C1916 C1917 1.288 . S
C1917 C1916 1.288 . S
C1917 C1918 1.392 . S
C1918 H1888 0.951 . S
C1918 C1917 1.392 . S
C1918 C1919 1.392 . S
C1919 H1889 0.949 . S
C1919 C1914 1.382 . S
C1919 C1918 1.392 . S
H1920 C1939 0.949 . S
H1921 C1940 0.950 . S
H1922 C1942 0.950 . S
H1923 C1943 0.950 . S
H1924 C1945 0.950 . S
H1925 C1948 0.950 . S
H1926 C1949 0.950 . S
H1927 C1951 0.951 . S
H1928 C1952 0.949 . S
H1929 C1954 0.949 . S
H1930 C1955 0.950 . S
H1931 C1957 0.950 . S
H1932 C1958 0.950 . S
H1933 C1960 0.950 . S
H1934 C1963 0.950 . S
H1935 C1964 0.950 . S
H1936 C1966 0.951 . S
H1937 C1967 0.949 . S
C1938 C1939 1.376 . S
C1938 C1943 1.386 . S
C1938 C1944 1.483 . S
C1939 H1920 0.949 . S
C1939 C1938 1.376 . S
C1939 C1940 1.397 . S
C1940 H1921 0.950 . S
C1940 C1939 1.397 . S
C1940 C1941 1.391 . S
C1941 C1940 1.391 . S
C1941 C1942 1.405 . S
C1942 H1922 0.950 . S
C1942 C1941 1.405 . S
C1942 C1943 1.367 . S
C1943 H1923 0.950 . S
C1943 C1938 1.386 . S
C1943 C1942 1.367 . S
C1944 C1938 1.483 . S
C1944 C1945 1.382 . S
C1944 C1946 1.403 . S
C1945 H1924 0.950 . S
C1945 C1944 1.382 . S
C1945 C1961 1.411 . S
C1946 C1944 1.403 . S
C1946 C1947 1.489 . S
C1946 C1960 1.411 . S
C1947 C1946 1.489 . S
C1947 C1948 1.383 . S
C1947 C1952 1.382 . S
C1948 H1925 0.950 . S
C1948 C1947 1.383 . S
C1948 C1949 1.395 . S
C1949 H1926 0.950 . S
C1949 C1948 1.395 . S
C1949 C1950 1.288 . S
C1950 C1949 1.288 . S
C1950 C1951 1.392 . S
C1951 H1927 0.951 . S
C1951 C1950 1.392 . S
C1951 C1952 1.392 . S
C1952 H1928 0.949 . S
C1952 C1947 1.382 . S
C1952 C1951 1.392 . S
C1953 C1954 1.376 . S
C1953 C1958 1.386 . S
C1953 C1959 1.483 . S
C1954 H1929 0.949 . S
C1954 C1953 1.376 . S
C1954 C1955 1.397 . S
C1955 H1930 0.950 . S
C1955 C1954 1.397 . S
C1955 C1956 1.391 . S
C1956 C1955 1.391 . S
C1956 C1957 1.405 . S
C1957 H1931 0.950 . S
C1957 C1956 1.405 . S
C1957 C1958 1.367 . S
C1958 H1932 0.950 . S
C1958 C1953 1.386 . S
C1958 C1957 1.367 . S
C1959 C1953 1.483 . S
C1959 C1960 1.382 . S
C1959 C1961 1.403 . S
C1960 H1933 0.950 . S
C1960 C1946 1.411 . S
C1960 C1959 1.382 . S
C1961 C1945 1.411 . S
C1961 C1959 1.403 . S
C1961 C1962 1.489 . S
C1962 C1961 1.489 . S
C1962 C1963 1.383 . S
C1962 C1967 1.382 . S
C1963 H1934 0.950 . S
C1963 C1962 1.383 . S
C1963 C1964 1.395 . S
C1964 H1935 0.950 . S
C1964 C1963 1.395 . S
C1964 C1965 1.288 . S
C1965 C1964 1.288 . S
C1965 C1966 1.392 . S
C1966 H1936 0.951 . S
C1966 C1965 1.392 . S
C1966 C1967 1.392 . S
C1967 H1937 0.949 . S
C1967 C1962 1.382 . S
C1967 C1966 1.392 . S
H1968 C1987 0.949 . S
H1969 C1988 0.950 . S
H1970 C1990 0.950 . S
H1971 C1991 0.950 . S
H1972 C1993 0.950 . S
H1973 C1996 0.950 . S
H1974 C1997 0.950 . S
H1975 C1999 0.951 . S
H1976 C2000 0.949 . S
H1977 C2002 0.949 . S
H1978 C2003 0.950 . S
H1979 C2005 0.950 . S
H1980 C2006 0.950 . S
H1981 C2008 0.950 . S
H1982 C2011 0.950 . S
H1983 C2012 0.950 . S
H1984 C2014 0.951 . S
H1985 C2015 0.949 . S
C1986 C1987 1.376 . S
C1986 C1991 1.386 . S
C1986 C1992 1.483 . S
C1987 H1968 0.949 . S
C1987 C1986 1.376 . S
C1987 C1988 1.397 . S
C1988 H1969 0.950 . S
C1988 C1987 1.397 . S
C1988 C1989 1.391 . S
C1989 C1988 1.391 . S
C1989 C1990 1.405 . S
C1990 H1970 0.950 . S
C1990 C1989 1.405 . S
C1990 C1991 1.367 . S
C1991 H1971 0.950 . S
C1991 C1986 1.386 . S
C1991 C1990 1.367 . S
C1992 C1986 1.483 . S
C1992 C1993 1.382 . S
C1992 C1994 1.403 . S
C1993 H1972 0.950 . S
C1993 C1992 1.382 . S
C1993 C2009 1.411 . S
C1994 C1992 1.403 . S
C1994 C1995 1.489 . S
C1994 C2008 1.411 . S
C1995 C1994 1.489 . S
C1995 C1996 1.383 . S
C1995 C2000 1.382 . S
C1996 H1973 0.950 . S
C1996 C1995 1.383 . S
C1996 C1997 1.395 . S
C1997 H1974 0.950 . S
C1997 C1996 1.395 . S
C1997 C1998 1.288 . S
C1998 C1997 1.288 . S
C1998 C1999 1.392 . S
C1999 H1975 0.951 . S
C1999 C1998 1.392 . S
C1999 C2000 1.392 . S
C2000 H1976 0.949 . S
C2000 C1995 1.382 . S
C2000 C1999 1.392 . S
C2001 C2002 1.376 . S
C2001 C2006 1.386 . S
C2001 C2007 1.483 . S
C2002 H1977 0.949 . S
C2002 C2001 1.376 . S
C2002 C2003 1.397 . S
C2003 H1978 0.950 . S
C2003 C2002 1.397 . S
C2003 C2004 1.391 . S
C2004 C2003 1.391 . S
C2004 C2005 1.405 . S
C2005 H1979 0.950 . S
C2005 C2004 1.405 . S
C2005 C2006 1.367 . S
C2006 H1980 0.950 . S
C2006 C2001 1.386 . S
C2006 C2005 1.367 . S
C2007 C2001 1.483 . S
C2007 C2008 1.382 . S
C2007 C2009 1.403 . S
C2008 H1981 0.950 . S
C2008 C1994 1.411 . S
C2008 C2007 1.382 . S
C2009 C1993 1.411 . S
C2009 C2007 1.403 . S
C2009 C2010 1.489 . S
C2010 C2009 1.489 . S
C2010 C2011 1.383 . S
C2010 C2015 1.382 . S
C2011 H1982 0.950 . S
C2011 C2010 1.383 . S
C2011 C2012 1.395 . S
C2012 H1983 0.950 . S
C2012 C2011 1.395 . S
C2012 C2013 1.288 . S
C2013 C2012 1.288 . S
C2013 C2014 1.392 . S
C2014 H1984 0.951 . S
C2014 C2013 1.392 . S
C2014 C2015 1.392 . S
C2015 H1985 0.949 . S
C2015 C2010 1.382 . S
C2015 C2014 1.392 . S
H2016 C2035 0.949 . S
H2017 C2036 0.950 . S
H2018 C2038 0.950 . S
H2019 C2039 0.950 . S
H2020 C2041 0.950 . S
H2021 C2044 0.950 . S
H2022 C2045 0.950 . S
H2023 C2047 0.951 . S
H2024 C2048 0.949 . S
H2025 C2050 0.949 . S
H2026 C2051 0.950 . S
H2027 C2053 0.950 . S
H2028 C2054 0.950 . S
H2029 C2056 0.950 . S
H2030 C2059 0.950 . S
H2031 C2060 0.950 . S
H2032 C2062 0.951 . S
H2033 C2063 0.949 . S
C2034 C2035 1.376 . S
C2034 C2039 1.386 1_655 S
C2034 C2040 1.483 . S
C2035 H2016 0.949 . S
C2035 C2034 1.376 . S
C2035 C2036 1.397 . S
C2036 H2017 0.950 . S
C2036 C2035 1.397 . S
C2036 C2037 1.391 . S
C2037 C2036 1.391 . S
C2037 C2038 1.405 1_655 S
C2038 H2018 0.950 . S
C2038 C2037 1.405 1_455 S
C2038 C2039 1.367 . S
C2039 H2019 0.950 . S
C2039 C2034 1.386 1_455 S
C2039 C2038 1.367 . S
C2040 C2034 1.483 . S
C2040 C2041 1.382 . S
C2040 C2042 1.403 1_655 S
C2041 H2020 0.950 . S
C2041 C2040 1.382 . S
C2041 C2057 1.411 . S
C2042 C2040 1.403 1_455 S
C2042 C2043 1.489 . S
C2042 C2056 1.411 . S
C2043 C2042 1.489 . S
C2043 C2044 1.383 1_455 S
C2043 C2048 1.382 . S
C2044 H2021 0.950 . S
C2044 C2043 1.383 1_655 S
C2044 C2045 1.395 . S
C2045 H2022 0.950 . S
C2045 C2044 1.395 . S
C2045 C2046 1.288 1_655 S
C2046 C2045 1.288 1_455 S
C2046 C2047 1.392 . S
C2047 H2023 0.951 . S
C2047 C2046 1.392 . S
C2047 C2048 1.392 . S
C2048 H2024 0.949 . S
C2048 C2043 1.382 . S
C2048 C2047 1.392 . S
C2049 C2050 1.376 . S
C2049 C2054 1.386 1_455 S
C2049 C2055 1.483 . S
C2050 H2025 0.949 . S
C2050 C2049 1.376 . S
C2050 C2051 1.397 . S
C2051 H2026 0.950 . S
C2051 C2050 1.397 . S
C2051 C2052 1.391 . S
C2052 C2051 1.391 . S
C2052 C2053 1.405 1_455 S
C2053 H2027 0.950 . S
C2053 C2052 1.405 1_655 S
C2053 C2054 1.367 . S
C2054 H2028 0.950 . S
C2054 C2049 1.386 1_655 S
C2054 C2053 1.367 . S
C2055 C2049 1.483 . S
C2055 C2056 1.382 . S
C2055 C2057 1.403 1_455 S
C2056 H2029 0.950 . S
C2056 C2042 1.411 . S
C2056 C2055 1.382 . S
C2057 C2041 1.411 . S
C2057 C2055 1.403 1_655 S
C2057 C2058 1.489 . S
C2058 C2057 1.489 . S
C2058 C2059 1.383 1_655 S
C2058 C2063 1.382 . S
C2059 H2030 0.950 . S
C2059 C2058 1.383 1_455 S
C2059 C2060 1.395 . S
C2060 H2031 0.950 . S
C2060 C2059 1.395 . S
C2060 C2061 1.288 1_455 S
C2061 C2060 1.288 1_655 S
C2061 C2062 1.392 . S
C2062 H2032 0.951 . S
C2062 C2061 1.392 . S
C2062 C2063 1.392 . S
C2063 H2033 0.949 . S
C2063 C2058 1.382 . S
C2063 C2062 1.392 . S
H2064 C2083 0.949 . S
H2065 C2084 0.950 . S
H2066 C2086 0.950 . S
H2067 C2087 0.950 . S
H2068 C2089 0.950 . S
H2069 C2092 0.950 . S
H2070 C2093 0.950 . S
H2071 C2095 0.951 . S
H2072 C2096 0.949 . S
H2073 C2098 0.949 . S
H2074 C2099 0.950 . S
H2075 C2101 0.950 . S
H2076 C2102 0.950 . S
H2077 C2104 0.950 . S
H2078 C2107 0.950 . S
H2079 C2108 0.950 . S
H2080 C2110 0.951 . S
H2081 C2111 0.949 . S
C2082 C2083 1.376 . S
C2082 C2087 1.386 . S
C2082 C2088 1.483 . S
C2083 H2064 0.949 . S
C2083 C2082 1.376 . S
C2083 C2084 1.397 . S
C2084 H2065 0.950 . S
C2084 C2083 1.397 . S
C2084 C2085 1.391 . S
C2085 C2084 1.391 . S
C2085 C2086 1.405 . S
C2086 H2066 0.950 . S
C2086 C2085 1.405 . S
C2086 C2087 1.367 . S
C2087 H2067 0.950 . S
C2087 C2082 1.386 . S
C2087 C2086 1.367 . S
C2088 C2082 1.483 . S
C2088 C2089 1.382 . S
C2088 C2090 1.403 . S
C2089 H2068 0.950 . S
C2089 C2088 1.382 . S
C2089 C2105 1.411 . S
C2090 C2088 1.403 . S
C2090 C2091 1.489 . S
C2090 C2104 1.411 . S
C2091 C2090 1.489 . S
C2091 C2092 1.383 . S
C2091 C2096 1.382 . S
C2092 H2069 0.950 . S
C2092 C2091 1.383 . S
C2092 C2093 1.395 . S
C2093 H2070 0.950 . S
C2093 C2092 1.395 . S
C2093 C2094 1.288 . S
C2094 C2093 1.288 . S
C2094 C2095 1.392 . S
C2095 H2071 0.951 . S
C2095 C2094 1.392 . S
C2095 C2096 1.392 . S
C2096 H2072 0.949 . S
C2096 C2091 1.382 . S
C2096 C2095 1.392 . S
C2097 C2098 1.376 . S
C2097 C2102 1.386 . S
C2097 C2103 1.483 . S
C2098 H2073 0.949 . S
C2098 C2097 1.376 . S
C2098 C2099 1.397 . S
C2099 H2074 0.950 . S
C2099 C2098 1.397 . S
C2099 C2100 1.391 . S
C2100 C2099 1.391 . S
C2100 C2101 1.405 . S
C2101 H2075 0.950 . S
C2101 C2100 1.405 . S
C2101 C2102 1.367 . S
C2102 H2076 0.950 . S
C2102 C2097 1.386 . S
C2102 C2101 1.367 . S
C2103 C2097 1.483 . S
C2103 C2104 1.382 . S
C2103 C2105 1.403 . S
C2104 H2077 0.950 . S
C2104 C2090 1.411 . S
C2104 C2103 1.382 . S
C2105 C2089 1.411 . S
C2105 C2103 1.403 . S
C2105 C2106 1.489 . S
C2106 C2105 1.489 . S
C2106 C2107 1.383 . S
C2106 C2111 1.382 . S
C2107 H2078 0.950 . S
C2107 C2106 1.383 . S
C2107 C2108 1.395 . S
C2108 H2079 0.950 . S
C2108 C2107 1.395 . S
C2108 C2109 1.288 . S
C2109 C2108 1.288 . S
C2109 C2110 1.392 . S
C2110 H2080 0.951 . S
C2110 C2109 1.392 . S
C2110 C2111 1.392 . S
C2111 H2081 0.949 . S
C2111 C2106 1.382 . S
C2111 C2110 1.392 . S
H2112 C2131 0.949 . S
H2113 C2132 0.950 . S
H2114 C2134 0.950 . S
H2115 C2135 0.950 . S
H2116 C2137 0.950 . S
H2117 C2140 0.950 . S
H2118 C2141 0.950 . S
H2119 C2143 0.951 . S
H2120 C2144 0.949 . S
H2121 C2146 0.949 . S
H2122 C2147 0.950 . S
H2123 C2149 0.950 . S
H2124 C2150 0.950 . S
H2125 C2152 0.950 . S
H2126 C2155 0.950 . S
H2127 C2156 0.950 . S
H2128 C2158 0.951 . S
H2129 C2159 0.949 . S
C2130 C2131 1.376 . S
C2130 C2135 1.386 1_545 S
C2130 C2136 1.483 . S
C2131 H2112 0.949 . S
C2131 C2130 1.376 . S
C2131 C2132 1.397 . S
C2132 H2113 0.950 . S
C2132 C2131 1.397 . S
C2132 C2133 1.391 . S
C2133 C2132 1.391 . S
C2133 C2134 1.405 1_545 S
C2134 H2114 0.950 . S
C2134 C2133 1.405 1_565 S
C2134 C2135 1.367 . S
C2135 H2115 0.950 . S
C2135 C2130 1.386 1_565 S
C2135 C2134 1.367 . S
C2136 C2130 1.483 . S
C2136 C2137 1.382 . S
C2136 C2138 1.403 1_545 S
C2137 H2116 0.950 . S
C2137 C2136 1.382 . S
C2137 C2153 1.411 . S
C2138 C2136 1.403 1_565 S
C2138 C2139 1.489 . S
C2138 C2152 1.411 . S
C2139 C2138 1.489 . S
C2139 C2140 1.383 1_565 S
C2139 C2144 1.382 . S
C2140 H2117 0.950 . S
C2140 C2139 1.383 1_545 S
C2140 C2141 1.395 . S
C2141 H2118 0.950 . S
C2141 C2140 1.395 . S
C2141 C2142 1.288 1_545 S
C2142 C2141 1.288 1_565 S
C2142 C2143 1.392 . S
C2143 H2119 0.951 . S
C2143 C2142 1.392 . S
C2143 C2144 1.392 . S
C2144 H2120 0.949 . S
C2144 C2139 1.382 . S
C2144 C2143 1.392 . S
C2145 C2146 1.376 . S
C2145 C2150 1.386 1_565 S
C2145 C2151 1.483 . S
C2146 H2121 0.949 . S
C2146 C2145 1.376 . S
C2146 C2147 1.397 . S
C2147 H2122 0.950 . S
C2147 C2146 1.397 . S
C2147 C2148 1.391 . S
C2148 C2147 1.391 . S
C2148 C2149 1.405 1_565 S
C2149 H2123 0.950 . S
C2149 C2148 1.405 1_545 S
C2149 C2150 1.367 . S
C2150 H2124 0.950 . S
C2150 C2145 1.386 1_545 S
C2150 C2149 1.367 . S
C2151 C2145 1.483 . S
C2151 C2152 1.382 . S
C2151 C2153 1.403 1_565 S
C2152 H2125 0.950 . S
C2152 C2138 1.411 . S
C2152 C2151 1.382 . S
C2153 C2137 1.411 . S
C2153 C2151 1.403 1_545 S
C2153 C2154 1.489 . S
C2154 C2153 1.489 . S
C2154 C2155 1.383 1_545 S
C2154 C2159 1.382 . S
C2155 H2126 0.950 . S
C2155 C2154 1.383 1_565 S
C2155 C2156 1.395 . S
C2156 H2127 0.950 . S
C2156 C2155 1.395 . S
C2156 C2157 1.288 1_565 S
C2157 C2156 1.288 1_545 S
C2157 C2158 1.392 . S
C2158 H2128 0.951 . S
C2158 C2157 1.392 . S
C2158 C2159 1.392 . S
C2159 H2129 0.949 . S
C2159 C2154 1.382 . S
C2159 C2158 1.392 . S
H2160 C2179 0.949 . S
H2161 C2180 0.950 . S
H2162 C2182 0.950 . S
H2163 C2183 0.950 . S
H2164 C2185 0.950 . S
H2165 C2188 0.950 . S
H2166 C2189 0.950 . S
H2167 C2191 0.951 . S
H2168 C2192 0.949 . S
H2169 C2194 0.949 . S
H2170 C2195 0.950 . S
H2171 C2197 0.950 . S
H2172 C2198 0.950 . S
H2173 C2200 0.950 . S
H2174 C2203 0.950 . S
H2175 C2204 0.950 . S
H2176 C2206 0.951 . S
H2177 C2207 0.949 . S
C2178 C2179 1.377 . S
C2178 C2183 1.385 1_545 S
C2178 C2184 1.506 . S
C2179 H2160 0.949 . S
C2179 C2178 1.377 . S
C2179 C2180 1.397 . S
C2180 H2161 0.950 . S
C2180 C2179 1.397 . S
C2180 C2181 1.391 1_545 S
C2181 C2180 1.391 1_565 S
C2181 C2182 1.405 . S
C2182 H2162 0.950 . S
C2182 C2181 1.405 . S
C2182 C2183 1.367 . S
C2183 H2163 0.950 . S
C2183 C2178 1.385 1_565 S
C2183 C2182 1.367 . S
C2184 C2178 1.506 . S
C2184 C2185 1.359 . S
C2184 C2186 1.399 1_545 S
C2185 H2164 0.950 . S
C2185 C2184 1.359 . S
C2185 C2201 1.440 . S
C2186 C2184 1.399 1_565 S
C2186 C2187 1.480 . S
C2186 C2200 1.431 . S
C2187 C2186 1.480 . S
C2187 C2188 1.365 1_565 S
C2187 C2192 1.391 . S
C2188 H2165 0.950 . S
C2188 C2187 1.365 1_545 S
C2188 C2189 1.395 . S
C2189 H2166 0.950 . S
C2189 C2188 1.395 . S
C2189 C2190 1.288 . S
C2190 C2189 1.288 . S
C2190 C2191 1.392 1_545 S
C2191 H2167 0.951 . S
C2191 C2190 1.392 1_565 S
C2191 C2192 1.392 . S
C2192 H2168 0.949 . S
C2192 C2187 1.391 . S
C2192 C2191 1.392 . S
C2193 C2194 1.377 1_545 S
C2193 C2198 1.385 . S
C2193 C2199 1.499 1_545 S
C2194 H2169 0.949 . S
C2194 C2193 1.377 1_565 S
C2194 C2195 1.397 . S
C2195 H2170 0.950 . S
C2195 C2194 1.397 . S
C2195 C2196 1.391 1_565 S
C2196 C2195 1.391 1_545 S
C2196 C2197 1.405 . S
C2197 H2171 0.950 . S
C2197 C2196 1.405 . S
C2197 C2198 1.367 . S
C2198 H2172 0.950 . S
C2198 C2193 1.385 . S
C2198 C2197 1.367 . S
C2199 C2193 1.499 1_565 S
C2199 C2200 1.366 . S
C2199 C2201 1.399 1_565 S
C2200 H2173 0.950 . S
C2200 C2186 1.431 . S
C2200 C2199 1.366 . S
C2201 C2185 1.440 . S
C2201 C2199 1.399 1_545 S
C2201 C2202 1.480 . S
C2202 C2201 1.480 . S
C2202 C2203 1.348 1_545 S
C2202 C2207 1.401 . S
C2203 H2174 0.950 . S
C2203 C2202 1.348 1_565 S
C2203 C2204 1.395 . S
C2204 H2175 0.950 . S
C2204 C2203 1.395 . S
C2204 C2205 1.288 . S
C2205 C2204 1.288 . S
C2205 C2206 1.392 1_565 S
C2206 H2176 0.951 . S
C2206 C2205 1.392 1_545 S
C2206 C2207 1.392 . S
C2207 H2177 0.949 . S
C2207 C2202 1.401 . S
C2207 C2206 1.392 . S
H2208 C2227 0.949 . S
H2209 C2228 0.950 . S
H2210 C2230 0.950 . S
H2211 C2231 0.950 . S
H2212 C2233 0.950 . S
H2213 C2236 0.950 . S
H2214 C2237 0.950 . S
H2215 C2239 0.951 . S
H2216 C2240 0.949 . S
H2217 C2242 0.949 . S
H2218 C2243 0.950 . S
H2219 C2245 0.950 . S
H2220 C2246 0.950 . S
H2221 C2248 0.950 . S
H2222 C2251 0.950 . S
H2223 C2252 0.950 . S
H2224 C2254 0.951 . S
H2225 C2255 0.949 . S
C2226 C2227 1.376 . S
C2226 C2231 1.386 1_455 S
C2226 C2232 1.483 . S
C2227 H2208 0.949 . S
C2227 C2226 1.376 . S
C2227 C2228 1.397 . S
C2228 H2209 0.950 . S
C2228 C2227 1.397 . S
C2228 C2229 1.391 . S
C2229 C2228 1.391 . S
C2229 C2230 1.405 1_455 S
C2230 H2210 0.950 . S
C2230 C2229 1.405 1_655 S
C2230 C2231 1.367 . S
C2231 H2211 0.950 . S
C2231 C2226 1.386 1_655 S
C2231 C2230 1.367 . S
C2232 C2226 1.483 . S
C2232 C2233 1.382 . S
C2232 C2234 1.403 1_455 S
C2233 H2212 0.950 . S
C2233 C2232 1.382 . S
C2233 C2249 1.411 . S
C2234 C2232 1.403 1_655 S
C2234 C2235 1.489 . S
C2234 C2248 1.411 . S
C2235 C2234 1.489 . S
C2235 C2236 1.383 1_655 S
C2235 C2240 1.382 . S
C2236 H2213 0.950 . S
C2236 C2235 1.383 1_455 S
C2236 C2237 1.395 . S
C2237 H2214 0.950 . S
C2237 C2236 1.395 . S
C2237 C2238 1.288 1_455 S
C2238 C2237 1.288 1_655 S
C2238 C2239 1.392 . S
C2239 H2215 0.951 . S
C2239 C2238 1.392 . S
C2239 C2240 1.392 . S
C2240 H2216 0.949 . S
C2240 C2235 1.382 . S
C2240 C2239 1.392 . S
C2241 C2242 1.376 . S
C2241 C2246 1.386 1_655 S
C2241 C2247 1.483 . S
C2242 H2217 0.949 . S
C2242 C2241 1.376 . S
C2242 C2243 1.397 . S
C2243 H2218 0.950 . S
C2243 C2242 1.397 . S
C2243 C2244 1.391 . S
C2244 C2243 1.391 . S
C2244 C2245 1.405 1_655 S
C2245 H2219 0.950 . S
C2245 C2244 1.405 1_455 S
C2245 C2246 1.367 . S
C2246 H2220 0.950 . S
C2246 C2241 1.386 1_455 S
C2246 C2245 1.367 . S
C2247 C2241 1.483 . S
C2247 C2248 1.382 . S
C2247 C2249 1.403 1_655 S
C2248 H2221 0.950 . S
C2248 C2234 1.411 . S
C2248 C2247 1.382 . S
C2249 C2233 1.411 . S
C2249 C2247 1.403 1_455 S
C2249 C2250 1.489 . S
C2250 C2249 1.489 . S
C2250 C2251 1.383 1_455 S
C2250 C2255 1.382 . S
C2251 H2222 0.950 . S
C2251 C2250 1.383 1_655 S
C2251 C2252 1.395 . S
C2252 H2223 0.950 . S
C2252 C2251 1.395 . S
C2252 C2253 1.288 1_655 S
C2253 C2252 1.288 1_455 S
C2253 C2254 1.392 . S
C2254 H2224 0.951 . S
C2254 C2253 1.392 . S
C2254 C2255 1.392 . S
C2255 H2225 0.949 . S
C2255 C2250 1.382 . S
C2255 C2254 1.392 . S
H2256 C2275 0.949 . S
H2257 C2276 0.950 . S
H2258 C2278 0.950 . S
H2259 C2279 0.950 . S
H2260 C2281 0.950 . S
H2261 C2284 0.950 . S
H2262 C2285 0.950 . S
H2263 C2287 0.951 . S
H2264 C2288 0.949 . S
H2265 C2290 0.949 . S
H2266 C2291 0.950 . S
H2267 C2293 0.950 . S
H2268 C2294 0.950 . S
H2269 C2296 0.950 . S
H2270 C2299 0.950 . S
H2271 C2300 0.950 . S
H2272 C2302 0.951 . S
H2273 C2303 0.949 . S
C2274 C2275 1.376 . S
C2274 C2279 1.386 . S
C2274 C2280 1.483 . S
C2275 H2256 0.949 . S
C2275 C2274 1.376 . S
C2275 C2276 1.397 . S
C2276 H2257 0.950 . S
C2276 C2275 1.397 . S
C2276 C2277 1.391 . S
C2277 C2276 1.391 . S
C2277 C2278 1.405 . S
C2278 H2258 0.950 . S
C2278 C2277 1.405 . S
C2278 C2279 1.367 . S
C2279 H2259 0.950 . S
C2279 C2274 1.386 . S
C2279 C2278 1.367 . S
C2280 C2274 1.483 . S
C2280 C2281 1.382 . S
C2280 C2282 1.403 . S
C2281 H2260 0.950 . S
C2281 C2280 1.382 . S
C2281 C2297 1.411 . S
C2282 C2280 1.403 . S
C2282 C2283 1.489 . S
C2282 C2296 1.411 . S
C2283 C2282 1.489 . S
C2283 C2284 1.383 . S
C2283 C2288 1.382 . S
C2284 H2261 0.950 . S
C2284 C2283 1.383 . S
C2284 C2285 1.395 . S
C2285 H2262 0.950 . S
C2285 C2284 1.395 . S
C2285 C2286 1.288 . S
C2286 C2285 1.288 . S
C2286 C2287 1.392 . S
C2287 H2263 0.951 . S
C2287 C2286 1.392 . S
C2287 C2288 1.392 . S
C2288 H2264 0.949 . S
C2288 C2283 1.382 . S
C2288 C2287 1.392 . S
C2289 C2290 1.376 . S
C2289 C2294 1.386 . S
C2289 C2295 1.483 . S
C2290 H2265 0.949 . S
C2290 C2289 1.376 . S
C2290 C2291 1.397 . S
C2291 H2266 0.950 . S
C2291 C2290 1.397 . S
C2291 C2292 1.391 . S
C2292 C2291 1.391 . S
C2292 C2293 1.405 . S
C2293 H2267 0.950 . S
C2293 C2292 1.405 . S
C2293 C2294 1.367 . S
C2294 H2268 0.950 . S
C2294 C2289 1.386 . S
C2294 C2293 1.367 . S
C2295 C2289 1.483 . S
C2295 C2296 1.382 . S
C2295 C2297 1.403 . S
C2296 H2269 0.950 . S
C2296 C2282 1.411 . S
C2296 C2295 1.382 . S
C2297 C2281 1.411 . S
C2297 C2295 1.403 . S
C2297 C2298 1.489 . S
C2298 C2297 1.489 . S
C2298 C2299 1.383 . S
C2298 C2303 1.382 . S
C2299 H2270 0.950 . S
C2299 C2298 1.383 . S
C2299 C2300 1.395 . S
C2300 H2271 0.950 . S
C2300 C2299 1.395 . S
C2300 C2301 1.288 . S
C2301 C2300 1.288 . S
C2301 C2302 1.392 . S
C2302 H2272 0.951 . S
C2302 C2301 1.392 . S
C2302 C2303 1.392 . S
C2303 H2273 0.949 . S
C2303 C2298 1.382 . S
C2303 C2302 1.392 . S
H2304 C2323 0.949 . S
H2305 C2324 0.950 . S
H2306 C2326 0.950 . S
H2307 C2327 0.950 . S
H2308 C2329 0.950 . S
H2309 C2332 0.950 . S
H2310 C2333 0.950 . S
H2311 C2335 0.951 . S
H2312 C2336 0.949 . S
H2313 C2338 0.949 . S
H2314 C2339 0.950 . S
H2315 C2341 0.950 . S
H2316 C2342 0.950 . S
H2317 C2344 0.950 . S
H2318 C2347 0.950 . S
H2319 C2348 0.950 . S
H2320 C2350 0.951 . S
H2321 C2351 0.949 . S
C2322 C2323 1.376 . S
C2322 C2327 1.386 . S
C2322 C2328 1.483 . S
C2323 H2304 0.949 . S
C2323 C2322 1.376 . S
C2323 C2324 1.397 . S
C2324 H2305 0.950 . S
C2324 C2323 1.397 . S
C2324 C2325 1.391 . S
C2325 C2324 1.391 . S
C2325 C2326 1.405 . S
C2326 H2306 0.950 . S
C2326 C2325 1.405 . S
C2326 C2327 1.367 . S
C2327 H2307 0.950 . S
C2327 C2322 1.386 . S
C2327 C2326 1.367 . S
C2328 C2322 1.483 . S
C2328 C2329 1.382 . S
C2328 C2330 1.403 . S
C2329 H2308 0.950 . S
C2329 C2328 1.382 . S
C2329 C2345 1.411 . S
C2330 C2328 1.403 . S
C2330 C2331 1.489 . S
C2330 C2344 1.411 . S
C2331 C2330 1.489 . S
C2331 C2332 1.383 . S
C2331 C2336 1.382 . S
C2332 H2309 0.950 . S
C2332 C2331 1.383 . S
C2332 C2333 1.395 . S
C2333 H2310 0.950 . S
C2333 C2332 1.395 . S
C2333 C2334 1.288 . S
C2334 C2333 1.288 . S
C2334 C2335 1.392 . S
C2335 H2311 0.951 . S
C2335 C2334 1.392 . S
C2335 C2336 1.392 . S
C2336 H2312 0.949 . S
C2336 C2331 1.382 . S
C2336 C2335 1.392 . S
C2337 C2338 1.376 . S
C2337 C2342 1.386 . S
C2337 C2343 1.483 . S
C2338 H2313 0.949 . S
C2338 C2337 1.376 . S
C2338 C2339 1.397 . S
C2339 H2314 0.950 . S
C2339 C2338 1.397 . S
C2339 C2340 1.391 . S
C2340 C2339 1.391 . S
C2340 C2341 1.405 . S
C2341 H2315 0.950 . S
C2341 C2340 1.405 . S
C2341 C2342 1.367 . S
C2342 H2316 0.950 . S
C2342 C2337 1.386 . S
C2342 C2341 1.367 . S
C2343 C2337 1.483 . S
C2343 C2344 1.382 . S
C2343 C2345 1.403 . S
C2344 H2317 0.950 . S
C2344 C2330 1.411 . S
C2344 C2343 1.382 . S
C2345 C2329 1.411 . S
C2345 C2343 1.403 . S
C2345 C2346 1.489 . S
C2346 C2345 1.489 . S
C2346 C2347 1.383 . S
C2346 C2351 1.382 . S
C2347 H2318 0.950 . S
C2347 C2346 1.383 . S
C2347 C2348 1.395 . S
C2348 H2319 0.950 . S
C2348 C2347 1.395 . S
C2348 C2349 1.288 . S
C2349 C2348 1.288 . S
C2349 C2350 1.392 . S
C2350 H2320 0.951 . S
C2350 C2349 1.392 . S
C2350 C2351 1.392 . S
C2351 H2321 0.949 . S
C2351 C2346 1.382 . S
C2351 C2350 1.392 . S
H2352 C2371 0.949 . S
H2353 C2372 0.950 . S
H2354 C2374 0.950 . S
H2355 C2375 0.950 . S
H2356 C2377 0.950 . S
H2357 C2380 0.950 . S
H2358 C2381 0.950 . S
H2359 C2383 0.951 . S
H2360 C2384 0.949 . S
H2361 C2386 0.949 . S
H2362 C2387 0.950 . S
H2363 C2389 0.950 . S
H2364 C2390 0.950 . S
H2365 C2392 0.950 . S
H2366 C2395 0.950 . S
H2367 C2396 0.950 . S
H2368 C2398 0.951 . S
H2369 C2399 0.949 . S
C2370 C2371 1.376 . S
C2370 C2375 1.386 . S
C2370 C2376 1.483 . S
C2371 H2352 0.949 . S
C2371 C2370 1.376 . S
C2371 C2372 1.397 . S
C2372 H2353 0.950 . S
C2372 C2371 1.397 . S
C2372 C2373 1.391 . S
C2373 C2372 1.391 . S
C2373 C2374 1.405 . S
C2374 H2354 0.950 . S
C2374 C2373 1.405 . S
C2374 C2375 1.367 . S
C2375 H2355 0.950 . S
C2375 C2370 1.386 . S
C2375 C2374 1.367 . S
C2376 C2370 1.483 . S
C2376 C2377 1.382 . S
C2376 C2378 1.403 . S
C2377 H2356 0.950 . S
C2377 C2376 1.382 . S
C2377 C2393 1.411 . S
C2378 C2376 1.403 . S
C2378 C2379 1.489 . S
C2378 C2392 1.411 . S
C2379 C2378 1.489 . S
C2379 C2380 1.383 . S
C2379 C2384 1.382 . S
C2380 H2357 0.950 . S
C2380 C2379 1.383 . S
C2380 C2381 1.395 . S
C2381 H2358 0.950 . S
C2381 C2380 1.395 . S
C2381 C2382 1.288 . S
C2382 C2381 1.288 . S
C2382 C2383 1.392 . S
C2383 H2359 0.951 . S
C2383 C2382 1.392 . S
C2383 C2384 1.392 . S
C2384 H2360 0.949 . S
C2384 C2379 1.382 . S
C2384 C2383 1.392 . S
C2385 C2386 1.376 . S
C2385 C2390 1.386 . S
C2385 C2391 1.483 . S
C2386 H2361 0.949 . S
C2386 C2385 1.376 . S
C2386 C2387 1.397 . S
C2387 H2362 0.950 . S
C2387 C2386 1.397 . S
C2387 C2388 1.391 . S
C2388 C2387 1.391 . S
C2388 C2389 1.405 . S
C2389 H2363 0.950 . S
C2389 C2388 1.405 . S
C2389 C2390 1.367 . S
C2390 H2364 0.950 . S
C2390 C2385 1.386 . S
C2390 C2389 1.367 . S
C2391 C2385 1.483 . S
C2391 C2392 1.382 . S
C2391 C2393 1.403 . S
C2392 H2365 0.950 . S
C2392 C2378 1.411 . S
C2392 C2391 1.382 . S
C2393 C2377 1.411 . S
C2393 C2391 1.403 . S
C2393 C2394 1.489 . S
C2394 C2393 1.489 . S
C2394 C2395 1.383 . S
C2394 C2399 1.382 . S
C2395 H2366 0.950 . S
C2395 C2394 1.383 . S
C2395 C2396 1.395 . S
C2396 H2367 0.950 . S
C2396 C2395 1.395 . S
C2396 C2397 1.288 . S
C2397 C2396 1.288 . S
C2397 C2398 1.392 . S
C2398 H2368 0.951 . S
C2398 C2397 1.392 . S
C2398 C2399 1.392 . S
C2399 H2369 0.949 . S
C2399 C2394 1.382 . S
C2399 C2398 1.392 . S
H2400 C2419 0.949 . S
H2401 C2420 0.950 . S
H2402 C2422 0.950 . S
H2403 C2423 0.950 . S
H2404 C2425 0.950 . S
H2405 C2428 0.950 . S
H2406 C2429 0.950 . S
H2407 C2431 0.951 . S
H2408 C2432 0.949 . S
H2409 C2434 0.949 . S
H2410 C2435 0.950 . S
H2411 C2437 0.950 . S
H2412 C2438 0.950 . S
H2413 C2440 0.950 . S
H2414 C2443 0.950 . S
H2415 C2444 0.950 . S
H2416 C2446 0.951 . S
H2417 C2447 0.949 . S
C2418 C2419 1.376 . S
C2418 C2423 1.386 . S
C2418 C2424 1.483 . S
C2419 H2400 0.949 . S
C2419 C2418 1.376 . S
C2419 C2420 1.397 . S
C2420 H2401 0.950 . S
C2420 C2419 1.397 . S
C2420 C2421 1.391 . S
C2421 C2420 1.391 . S
C2421 C2422 1.405 . S
C2422 H2402 0.950 . S
C2422 C2421 1.405 . S
C2422 C2423 1.367 . S
C2423 H2403 0.950 . S
C2423 C2418 1.386 . S
C2423 C2422 1.367 . S
C2424 C2418 1.483 . S
C2424 C2425 1.382 . S
C2424 C2426 1.403 . S
C2425 H2404 0.950 . S
C2425 C2424 1.382 . S
C2425 C2441 1.411 . S
C2426 C2424 1.403 . S
C2426 C2427 1.489 . S
C2426 C2440 1.411 . S
C2427 C2426 1.489 . S
C2427 C2428 1.383 . S
C2427 C2432 1.382 . S
C2428 H2405 0.950 . S
C2428 C2427 1.383 . S
C2428 C2429 1.395 . S
C2429 H2406 0.950 . S
C2429 C2428 1.395 . S
C2429 C2430 1.288 . S
C2430 C2429 1.288 . S
C2430 C2431 1.392 . S
C2431 H2407 0.951 . S
C2431 C2430 1.392 . S
C2431 C2432 1.392 . S
C2432 H2408 0.949 . S
C2432 C2427 1.382 . S
C2432 C2431 1.392 . S
C2433 C2434 1.376 . S
C2433 C2438 1.386 . S
C2433 C2439 1.483 . S
C2434 H2409 0.949 . S
C2434 C2433 1.376 . S
C2434 C2435 1.397 . S
C2435 H2410 0.950 . S
C2435 C2434 1.397 . S
C2435 C2436 1.391 . S
C2436 C2435 1.391 . S
C2436 C2437 1.405 . S
C2437 H2411 0.950 . S
C2437 C2436 1.405 . S
C2437 C2438 1.367 . S
C2438 H2412 0.950 . S
C2438 C2433 1.386 . S
C2438 C2437 1.367 . S
C2439 C2433 1.483 . S
C2439 C2440 1.382 . S
C2439 C2441 1.403 . S
C2440 H2413 0.950 . S
C2440 C2426 1.411 . S
C2440 C2439 1.382 . S
C2441 C2425 1.411 . S
C2441 C2439 1.403 . S
C2441 C2442 1.489 . S
C2442 C2441 1.489 . S
C2442 C2443 1.383 . S
C2442 C2447 1.382 . S
C2443 H2414 0.950 . S
C2443 C2442 1.383 . S
C2443 C2444 1.395 . S
C2444 H2415 0.950 . S
C2444 C2443 1.395 . S
C2444 C2445 1.288 . S
C2445 C2444 1.288 . S
C2445 C2446 1.392 . S
C2446 H2416 0.951 . S
C2446 C2445 1.392 . S
C2446 C2447 1.392 . S
C2447 H2417 0.949 . S
C2447 C2442 1.382 . S
C2447 C2446 1.392 . S
C2448 C2449 1.387 . S
C2448 H2452 0.950 . S
C2448 C2457 1.390 . S
C2449 C2448 1.387 . S
C2449 C2451 1.387 . S
H2450 C2457 0.950 . S
C2451 C2449 1.387 . S
C2451 C2453 1.390 1_655 S
C2451 H2455 0.950 1_655 S
H2452 C2448 0.950 . S
C2453 C2451 1.390 1_455 S
C2453 C2454 1.387 1_455 S
C2453 H2456 0.950 . S
C2454 C2453 1.387 1_655 S
C2454 C2457 1.387 . S
H2455 C2451 0.950 1_455 S
H2456 C2453 0.950 . S
C2457 C2448 1.390 . S
C2457 H2450 0.950 . S
C2457 C2454 1.387 . S
C2458 C2459 1.387 . S
C2458 H2462 0.950 . S
C2458 C2467 1.390 . S
C2459 C2458 1.387 . S
C2459 C2461 1.387 . S
H2460 C2467 0.950 . S
C2461 C2459 1.387 . S
C2461 C2463 1.390 . S
C2461 H2465 0.950 . S
H2462 C2458 0.950 . S
C2463 C2461 1.390 . S
C2463 C2464 1.387 . S
C2463 H2466 0.950 . S
C2464 C2463 1.387 . S
C2464 C2467 1.387 . S
H2465 C2461 0.950 . S
H2466 C2463 0.950 . S
C2467 C2458 1.390 . S
C2467 H2460 0.950 . S
C2467 C2464 1.387 . S
C2468 C2469 1.387 . S
C2468 H2472 0.950 . S
C2468 C2477 1.390 . S
C2469 C2468 1.387 . S
C2469 C2471 1.387 . S
H2470 C2477 0.950 . S
C2471 C2469 1.387 . S
C2471 C2473 1.390 1_545 S
C2471 H2475 0.950 1_545 S
H2472 C2468 0.950 . S
C2473 C2471 1.390 1_565 S
C2473 C2474 1.387 1_565 S
C2473 H2476 0.950 . S
C2474 C2473 1.387 1_545 S
C2474 C2477 1.387 . S
H2475 C2471 0.950 1_565 S
H2476 C2473 0.950 . S
C2477 C2468 1.390 . S
C2477 H2470 0.950 . S
C2477 C2474 1.387 . S
C2478 C2479 1.387 . S
C2478 H2482 0.950 . S
C2478 C2487 1.390 . S
C2479 C2478 1.387 . S
C2479 C2481 1.387 . S
H2480 C2487 0.950 . S
C2481 C2479 1.387 . S
C2481 C2483 1.390 1_565 S
C2481 H2485 0.950 1_565 S
H2482 C2478 0.950 . S
C2483 C2481 1.390 1_545 S
C2483 C2484 1.387 1_545 S
C2483 H2486 0.950 . S
C2484 C2483 1.387 1_565 S
C2484 C2487 1.387 . S
H2485 C2481 0.950 1_545 S
H2486 C2483 0.950 . S
C2487 C2478 1.390 . S
C2487 H2480 0.950 . S
C2487 C2484 1.387 . S
C2488 C2489 1.387 . S
C2488 H2492 0.950 . S
C2488 C2497 1.390 . S
C2489 C2488 1.387 . S
C2489 C2491 1.387 . S
H2490 C2497 0.955 . S
C2491 C2489 1.387 . S
C2491 C2493 1.390 . S
C2491 H2495 0.950 . S
H2492 C2488 0.950 . S
C2493 C2491 1.390 . S
C2493 C2494 1.387 . S
C2493 H2496 0.950 . S
C2494 C2493 1.387 . S
C2494 C2497 1.387 . S
H2495 C2491 0.950 . S
H2496 C2493 0.950 . S
C2497 C2488 1.390 . S
C2497 H2490 0.955 . S
C2497 C2494 1.387 . S
C2498 C2499 1.387 . S
C2498 H2502 0.950 . S
C2498 C2507 1.390 . S
C2499 C2498 1.387 . S
C2499 C2501 1.387 . S
H2500 C2507 0.950 . S
C2501 C2499 1.387 . S
C2501 C2503 1.390 . S
C2501 H2505 0.950 . S
H2502 C2498 0.950 . S
C2503 C2501 1.390 . S
C2503 C2504 1.387 . S
C2503 H2506 0.950 . S
C2504 C2503 1.387 . S
C2504 C2507 1.387 . S
H2505 C2501 0.950 . S
H2506 C2503 0.950 . S
C2507 C2498 1.390 . S
C2507 H2500 0.950 . S
C2507 C2504 1.387 . S
C2508 C2509 1.387 . S
C2508 H2512 0.950 . S
C2508 C2517 1.390 . S
C2509 C2508 1.387 . S
C2509 C2511 1.387 . S
H2510 C2517 0.950 . S
C2511 C2509 1.387 . S
C2511 C2513 1.390 1_455 S
C2511 H2515 0.950 1_455 S
H2512 C2508 0.950 . S
C2513 C2511 1.390 1_655 S
C2513 C2514 1.387 1_655 S
C2513 H2516 0.950 . S
C2514 C2513 1.387 1_455 S
C2514 C2517 1.387 . S
H2515 C2511 0.950 1_655 S
H2516 C2513 0.950 . S
C2517 C2508 1.390 . S
C2517 H2510 0.950 . S
C2517 C2514 1.387 . S
C2518 C2519 1.387 . S
C2518 H2522 0.950 . S
C2518 C2527 1.390 . S
C2519 C2518 1.387 . S
C2519 C2521 1.387 . S
H2520 C2527 0.950 . S
C2521 C2519 1.387 . S
C2521 C2523 1.390 . S
C2521 H2525 0.950 . S
H2522 C2518 0.950 . S
C2523 C2521 1.390 . S
C2523 C2524 1.387 . S
C2523 H2526 0.950 . S
C2524 C2523 1.387 . S
C2524 C2527 1.387 . S
H2525 C2521 0.950 . S
H2526 C2523 0.950 . S
C2527 C2518 1.390 . S
C2527 H2520 0.950 . S
C2527 C2524 1.387 . S
C2528 C2529 1.387 . S
C2528 H2532 0.942 1_565 S
C2528 C2537 1.362 1_565 S
C2529 C2528 1.387 . S
C2529 C2531 1.387 . S
H2530 C2537 0.990 . S
C2531 C2529 1.387 . S
C2531 C2533 1.390 . S
C2531 H2535 0.950 . S
H2532 C2528 0.942 1_545 S
C2533 C2531 1.390 . S
C2533 C2534 1.387 . S
C2533 H2536 0.950 . S
C2534 C2533 1.387 . S
C2534 C2537 1.377 1_565 S
H2535 C2531 0.950 . S
H2536 C2533 0.950 . S
C2537 C2528 1.362 1_545 S
C2537 H2530 0.990 . S
C2537 C2534 1.377 1_545 S
C2538 C2539 1.387 . S
C2538 H2542 0.950 . S
C2538 C2547 1.390 . S
C2539 C2538 1.387 . S
C2539 C2541 1.387 . S
H2540 C2547 0.950 . S
C2541 C2539 1.387 . S
C2541 C2543 1.390 1_545 S
C2541 H2545 0.950 1_545 S
H2542 C2538 0.950 . S
C2543 C2541 1.390 1_565 S
C2543 C2544 1.387 1_565 S
C2543 H2546 0.950 . S
C2544 C2543 1.387 1_545 S
C2544 C2547 1.387 . S
H2545 C2541 0.950 1_565 S
H2546 C2543 0.950 . S
C2547 C2538 1.390 . S
C2547 H2540 0.950 . S
C2547 C2544 1.387 . S
C2548 C2549 1.387 . S
C2548 H2552 0.950 . S
C2548 C2557 1.390 . S
C2549 C2548 1.387 . S
C2549 C2551 1.387 . S
H2550 C2557 0.950 . S
C2551 C2549 1.387 . S
C2551 C2553 1.390 . S
C2551 H2555 0.950 . S
H2552 C2548 0.950 . S
C2553 C2551 1.390 . S
C2553 C2554 1.387 . S
C2553 H2556 0.950 1_655 S
C2554 C2553 1.387 . S
C2554 C2557 1.387 . S
H2555 C2551 0.950 . S
H2556 C2553 0.950 1_455 S
C2557 C2548 1.390 . S
C2557 H2550 0.950 . S
C2557 C2554 1.387 . S
C2558 C2559 1.387 . S
C2558 H2562 0.950 . S
C2558 C2567 1.390 . S
C2559 C2558 1.387 . S
C2559 C2561 1.387 . S
H2560 C2567 0.950 . S
C2561 C2559 1.387 . S
C2561 C2563 1.390 . S
C2561 H2565 0.950 . S
H2562 C2558 0.950 . S
C2563 C2561 1.390 . S
C2563 C2564 1.387 . S
C2563 H2566 0.950 . S
C2564 C2563 1.387 . S
C2564 C2567 1.387 . S
H2565 C2561 0.950 . S
H2566 C2563 0.950 . S
C2567 C2558 1.390 . S
C2567 H2560 0.950 . S
C2567 C2564 1.387 . S
C2568 C2569 1.387 . S
C2568 H2572 0.950 . S
C2568 C2577 1.390 . S
C2569 C2568 1.387 . S
C2569 C2571 1.387 . S
H2570 C2577 0.950 . S
C2571 C2569 1.387 . S
C2571 C2573 1.390 . S
C2571 H2575 0.950 . S
H2572 C2568 0.950 . S
C2573 C2571 1.390 . S
C2573 C2574 1.387 . S
C2573 H2576 0.950 . S
C2574 C2573 1.387 . S
C2574 C2577 1.387 . S
H2575 C2571 0.950 . S
H2576 C2573 0.950 . S
C2577 C2568 1.390 . S
C2577 H2570 0.950 . S
C2577 C2574 1.387 . S
C2578 C2579 1.387 . S
C2578 H2582 0.950 . S
C2578 C2587 1.390 . S
C2579 C2578 1.387 . S
C2579 C2581 1.387 . S
H2580 C2587 0.950 . S
C2581 C2579 1.387 . S
C2581 C2583 1.390 . S
C2581 H2585 0.950 . S
H2582 C2578 0.950 . S
C2583 C2581 1.390 . S
C2583 C2584 1.387 . S
C2583 H2586 0.950 . S
C2584 C2583 1.387 . S
C2584 C2587 1.387 . S
H2585 C2581 0.950 . S
H2586 C2583 0.950 . S
C2587 C2578 1.390 . S
C2587 H2580 0.950 . S
C2587 C2584 1.387 . S
C2588 C2589 1.387 . S
C2588 H2592 0.950 . S
C2588 C2597 1.390 . S
C2589 C2588 1.387 . S
C2589 C2591 1.387 . S
H2590 C2597 0.950 . S
C2591 C2589 1.387 . S
C2591 C2593 1.390 . S
C2591 H2595 0.950 . S
H2592 C2588 0.950 . S
C2593 C2591 1.390 . S
C2593 C2594 1.387 . S
C2593 H2596 0.950 . S
C2594 C2593 1.387 . S
C2594 C2597 1.387 . S
H2595 C2591 0.950 . S
H2596 C2593 0.950 . S
C2597 C2588 1.390 . S
C2597 H2590 0.950 . S
C2597 C2594 1.387 . S
C2598 C2599 1.387 . S
C2598 H2602 0.950 . S
C2598 C2607 1.390 . S
C2599 C2598 1.387 . S
C2599 C2601 1.387 . S
H2600 C2607 0.950 . S
C2601 C2599 1.387 . S
C2601 C2603 1.390 . S
C2601 H2605 0.950 . S
H2602 C2598 0.950 . S
C2603 C2601 1.390 . S
C2603 C2604 1.387 . S
C2603 H2606 0.950 . S
C2604 C2603 1.387 . S
C2604 C2607 1.387 . S
H2605 C2601 0.950 . S
H2606 C2603 0.950 . S
C2607 C2598 1.390 . S
C2607 H2600 0.950 . S
C2607 C2604 1.387 . S
C2608 C2609 1.387 . S
C2608 H2612 0.950 . S
C2608 C2617 1.390 . S
C2609 C2608 1.387 . S
C2609 C2611 1.387 . S
H2610 C2617 0.950 . S
C2611 C2609 1.387 . S
C2611 C2613 1.390 . S
C2611 H2615 0.950 . S
H2612 C2608 0.950 . S
C2613 C2611 1.390 . S
C2613 C2614 1.387 . S
C2613 H2616 0.950 . S
C2614 C2613 1.387 . S
C2614 C2617 1.387 . S
H2615 C2611 0.950 . S
H2616 C2613 0.950 . S
C2617 C2608 1.390 . S
C2617 H2610 0.950 . S
C2617 C2614 1.387 . S
C2618 C2619 1.387 . S
C2618 H2622 0.950 . S
C2618 C2627 1.390 . S
C2619 C2618 1.387 . S
C2619 C2621 1.387 . S
H2620 C2627 0.950 . S
C2621 C2619 1.387 . S
C2621 C2623 1.390 . S
C2621 H2625 0.950 . S
H2622 C2618 0.950 . S
C2623 C2621 1.390 . S
C2623 C2624 1.387 . S
C2623 H2626 0.950 . S
C2624 C2623 1.387 . S
C2624 C2627 1.387 . S
H2625 C2621 0.950 . S
H2626 C2623 0.950 . S
C2627 C2618 1.390 . S
C2627 H2620 0.950 . S
C2627 C2624 1.387 . S
C2628 C2629 1.387 . S
C2628 H2632 0.950 . S
C2628 C2637 1.390 . S
C2629 C2628 1.387 . S
C2629 C2631 1.387 . S
H2630 C2637 0.950 . S
C2631 C2629 1.387 . S
C2631 C2633 1.390 . S
C2631 H2635 0.950 . S
H2632 C2628 0.950 . S
C2633 C2631 1.390 . S
C2633 C2634 1.387 . S
C2633 H2636 0.950 . S
C2634 C2633 1.387 . S
C2634 C2637 1.387 . S
H2635 C2631 0.950 . S
H2636 C2633 0.950 . S
C2637 C2628 1.390 . S
C2637 H2630 0.950 . S
C2637 C2634 1.387 . S
C2638 C2639 1.387 . S
C2638 H2642 0.950 . S
C2638 C2647 1.390 . S
C2639 C2638 1.387 . S
C2639 C2641 1.387 . S
H2640 C2647 0.950 . S
C2641 C2639 1.387 . S
C2641 C2643 1.390 . S
C2641 H2645 0.950 . S
H2642 C2638 0.950 . S
C2643 C2641 1.390 . S
C2643 C2644 1.387 . S
C2643 H2646 0.950 . S
C2644 C2643 1.387 . S
C2644 C2647 1.387 . S
H2645 C2641 0.950 . S
H2646 C2643 0.950 . S
C2647 C2638 1.390 . S
C2647 H2640 0.950 . S
C2647 C2644 1.387 . S
C2648 C2649 1.387 . S
C2648 H2652 0.950 . S
C2648 C2657 1.390 . S
C2649 C2648 1.387 . S
C2649 C2651 1.387 . S
H2650 C2657 0.950 . S
C2651 C2649 1.387 . S
C2651 C2653 1.390 . S
C2651 H2655 0.950 . S
H2652 C2648 0.950 . S
C2653 C2651 1.390 . S
C2653 C2654 1.387 . S
C2653 H2656 0.950 . S
C2654 C2653 1.387 . S
C2654 C2657 1.387 . S
H2655 C2651 0.950 . S
H2656 C2653 0.950 . S
C2657 C2648 1.390 . S
C2657 H2650 0.950 . S
C2657 C2654 1.387 . S
C2658 C2659 1.387 . S
C2658 H2662 0.950 . S
C2658 C2667 1.390 . S
C2659 C2658 1.387 . S
C2659 C2661 1.387 . S
H2660 C2667 0.950 . S
C2661 C2659 1.387 . S
C2661 C2663 1.390 . S
C2661 H2665 0.950 . S
H2662 C2658 0.950 . S
C2663 C2661 1.390 . S
C2663 C2664 1.387 . S
C2663 H2666 0.950 . S
C2664 C2663 1.387 . S
C2664 C2667 1.387 . S
H2665 C2661 0.950 . S
H2666 C2663 0.950 . S
C2667 C2658 1.390 . S
C2667 H2660 0.950 . S
C2667 C2664 1.387 . S
C2668 C2669 1.387 . S
C2668 H2672 0.950 . S
C2668 C2677 1.390 . S
C2669 C2668 1.387 . S
C2669 C2671 1.387 . S
H2670 C2677 0.950 . S
C2671 C2669 1.387 . S
C2671 C2673 1.390 . S
C2671 H2675 0.950 . S
H2672 C2668 0.950 . S
C2673 C2671 1.390 . S
C2673 C2674 1.387 . S
C2673 H2676 0.950 . S
C2674 C2673 1.387 . S
C2674 C2677 1.387 . S
H2675 C2671 0.950 . S
H2676 C2673 0.950 . S
C2677 C2668 1.390 . S
C2677 H2670 0.950 . S
C2677 C2674 1.387 . S
C2678 C2679 1.387 . S
C2678 H2682 0.950 . S
C2678 C2687 1.390 . S
C2679 C2678 1.387 . S
C2679 C2681 1.387 . S
H2680 C2687 0.950 . S
C2681 C2679 1.387 . S
C2681 C2683 1.390 . S
C2681 H2685 0.950 . S
H2682 C2678 0.950 . S
C2683 C2681 1.390 . S
C2683 C2684 1.387 . S
C2683 H2686 0.950 . S
C2684 C2683 1.387 . S
C2684 C2687 1.387 . S
H2685 C2681 0.950 . S
H2686 C2683 0.950 . S
C2687 C2678 1.390 . S
C2687 H2680 0.950 . S
C2687 C2684 1.387 . S
C2688 C2689 1.387 . S
C2688 H2692 0.950 . S
C2688 C2697 1.390 . S
C2689 C2688 1.387 . S
C2689 C2691 1.387 . S
H2690 C2697 0.950 . S
C2691 C2689 1.387 . S
C2691 C2693 1.390 . S
C2691 H2695 0.950 . S
H2692 C2688 0.950 . S
C2693 C2691 1.390 . S
C2693 C2694 1.387 . S
C2693 H2696 0.950 . S
C2694 C2693 1.387 . S
C2694 C2697 1.387 . S
H2695 C2691 0.950 . S
H2696 C2693 0.950 . S
C2697 C2688 1.390 . S
C2697 H2690 0.950 . S
C2697 C2694 1.387 . S
C2698 C2699 1.387 . S
C2698 H2702 0.950 . S
C2698 C2707 1.390 . S
C2699 C2698 1.387 . S
C2699 C2701 1.387 . S
H2700 C2707 0.950 . S
C2701 C2699 1.387 . S
C2701 C2703 1.390 . S
C2701 H2705 0.950 . S
H2702 C2698 0.950 . S
C2703 C2701 1.390 . S
C2703 C2704 1.387 . S
C2703 H2706 0.950 . S
C2704 C2703 1.387 . S
C2704 C2707 1.387 . S
H2705 C2701 0.950 . S
H2706 C2703 0.950 . S
C2707 C2698 1.390 . S
C2707 H2700 0.950 . S
C2707 C2704 1.387 . S
C2708 C2709 1.387 . S
C2708 H2712 0.950 . S
C2708 C2717 1.390 . S
C2709 C2708 1.387 . S
C2709 C2711 1.387 . S
H2710 C2717 0.950 . S
C2711 C2709 1.387 . S
C2711 C2713 1.390 . S
C2711 H2715 0.950 . S
H2712 C2708 0.950 . S
C2713 C2711 1.390 . S
C2713 C2714 1.387 . S
C2713 H2716 0.950 . S
C2714 C2713 1.387 . S
C2714 C2717 1.387 . S
H2715 C2711 0.950 . S
H2716 C2713 0.950 . S
C2717 C2708 1.390 . S
C2717 H2710 0.950 . S
C2717 C2714 1.387 . S
C2718 C2719 1.387 . S
C2718 H2722 0.950 . S
C2718 C2727 1.390 . S
C2719 C2718 1.387 . S
C2719 C2721 1.387 . S
H2720 C2727 0.950 . S
C2721 C2719 1.387 . S
C2721 C2723 1.390 . S
C2721 H2725 0.950 . S
H2722 C2718 0.950 . S
C2723 C2721 1.390 . S
C2723 C2724 1.387 . S
C2723 H2726 0.950 . S
C2724 C2723 1.387 . S
C2724 C2727 1.387 . S
H2725 C2721 0.950 . S
H2726 C2723 0.950 . S
C2727 C2718 1.390 . S
C2727 H2720 0.950 . S
C2727 C2724 1.387 . S
C2728 C2729 1.387 . S
C2728 H2732 0.950 . S
C2728 C2737 1.390 . S
C2729 C2728 1.387 . S
C2729 C2731 1.387 . S
H2730 C2737 0.950 . S
C2731 C2729 1.387 . S
C2731 C2733 1.390 . S
C2731 H2735 0.950 . S
H2732 C2728 0.950 . S
C2733 C2731 1.390 . S
C2733 C2734 1.387 . S
C2733 H2736 0.950 . S
C2734 C2733 1.387 . S
C2734 C2737 1.387 . S
H2735 C2731 0.950 . S
H2736 C2733 0.950 . S
C2737 C2728 1.390 . S
C2737 H2730 0.950 . S
C2737 C2734 1.387 . S
C2738 C2739 1.387 . S
C2738 H2742 0.950 . S
C2738 C2747 1.390 . S
C2739 C2738 1.387 . S
C2739 C2741 1.387 . S
H2740 C2747 0.950 . S
C2741 C2739 1.387 . S
C2741 C2743 1.390 . S
C2741 H2745 0.950 . S
H2742 C2738 0.950 . S
C2743 C2741 1.390 . S
C2743 C2744 1.387 . S
C2743 H2746 0.950 . S
C2744 C2743 1.387 . S
C2744 C2747 1.387 . S
H2745 C2741 0.950 . S
H2746 C2743 0.950 . S
C2747 C2738 1.390 . S
C2747 H2740 0.950 . S
C2747 C2744 1.387 . S
C2748 C2749 1.387 . S
C2748 H2752 0.950 . S
C2748 C2757 1.390 . S
C2749 C2748 1.387 . S
C2749 C2751 1.387 . S
H2750 C2757 0.950 . S
C2751 C2749 1.387 . S
C2751 C2753 1.390 . S
C2751 H2755 0.950 . S
H2752 C2748 0.950 . S
C2753 C2751 1.390 . S
C2753 C2754 1.387 . S
C2753 H2756 0.950 . S
C2754 C2753 1.387 . S
C2754 C2757 1.387 . S
H2755 C2751 0.950 . S
H2756 C2753 0.950 . S
C2757 C2748 1.390 . S
C2757 H2750 0.950 . S
C2757 C2754 1.387 . S
C2758 C2759 1.387 . S
C2758 H2762 0.950 . S
C2758 C2767 1.390 . S
C2759 C2758 1.387 . S
C2759 C2761 1.387 . S
H2760 C2767 0.950 . S
C2761 C2759 1.387 . S
C2761 C2763 1.390 . S
C2761 H2765 0.950 . S
H2762 C2758 0.950 . S
C2763 C2761 1.390 . S
C2763 C2764 1.387 . S
C2763 H2766 0.950 . S
C2764 C2763 1.387 . S
C2764 C2767 1.387 . S
H2765 C2761 0.950 . S
H2766 C2763 0.950 . S
C2767 C2758 1.390 . S
C2767 H2760 0.950 . S
C2767 C2764 1.387 . S
C2768 C2769 1.387 . S
C2768 H2772 0.950 . S
C2768 C2777 1.390 . S
C2769 C2768 1.387 . S
C2769 C2771 1.387 . S
H2770 C2777 0.950 . S
C2771 C2769 1.387 . S
C2771 C2773 1.390 . S
C2771 H2775 0.950 . S
H2772 C2768 0.950 . S
C2773 C2771 1.390 . S
C2773 C2774 1.387 . S
C2773 H2776 0.950 . S
C2774 C2773 1.387 . S
C2774 C2777 1.387 . S
H2775 C2771 0.950 . S
H2776 C2773 0.950 . S
C2777 C2768 1.390 . S
C2777 H2770 0.950 . S
C2777 C2774 1.387 . S
C2778 C2779 1.387 . S
C2778 H2782 0.950 . S
C2778 C2787 1.390 . S
C2779 C2778 1.387 . S
C2779 C2781 1.387 . S
H2780 C2787 0.950 . S
C2781 C2779 1.387 . S
C2781 C2783 1.390 . S
C2781 H2785 0.950 . S
H2782 C2778 0.950 . S
C2783 C2781 1.390 . S
C2783 C2784 1.387 . S
C2783 H2786 0.950 . S
C2784 C2783 1.387 . S
C2784 C2787 1.387 . S
H2785 C2781 0.950 . S
H2786 C2783 0.950 . S
C2787 C2778 1.390 . S
C2787 H2780 0.950 . S
C2787 C2784 1.387 . S
C2788 C2789 1.387 . S
C2788 H2792 0.950 . S
C2788 C2797 1.390 . S
C2789 C2788 1.387 . S
C2789 C2791 1.387 . S
H2790 C2797 0.950 . S
C2791 C2789 1.387 . S
C2791 C2793 1.390 . S
C2791 H2795 0.950 . S
H2792 C2788 0.950 . S
C2793 C2791 1.390 . S
C2793 C2794 1.387 . S
C2793 H2796 0.950 . S
C2794 C2793 1.387 . S
C2794 C2797 1.387 . S
H2795 C2791 0.950 . S
H2796 C2793 0.950 . S
C2797 C2788 1.390 . S
C2797 H2790 0.950 . S
C2797 C2794 1.387 . S
C2798 C2799 1.387 . S
C2798 H2802 0.950 . S
C2798 C2807 1.390 . S
C2799 C2798 1.387 . S
C2799 C2801 1.387 . S
H2800 C2807 0.950 . S
C2801 C2799 1.387 . S
C2801 C2803 1.390 . S
C2801 H2805 0.950 . S
H2802 C2798 0.950 . S
C2803 C2801 1.390 . S
C2803 C2804 1.387 . S
C2803 H2806 0.950 . S
C2804 C2803 1.387 . S
C2804 C2807 1.387 . S
H2805 C2801 0.950 . S
H2806 C2803 0.950 . S
C2807 C2798 1.390 . S
C2807 H2800 0.950 . S
C2807 C2804 1.387 . S
C2808 C2809 1.387 . S
C2808 H2812 0.950 . S
C2808 C2817 1.390 . S
C2809 C2808 1.387 . S
C2809 C2811 1.387 . S
H2810 C2817 0.950 . S
C2811 C2809 1.387 . S
C2811 C2813 1.390 . S
C2811 H2815 0.950 . S
H2812 C2808 0.950 . S
C2813 C2811 1.390 . S
C2813 C2814 1.387 . S
C2813 H2816 0.950 . S
C2814 C2813 1.387 . S
C2814 C2817 1.387 . S
H2815 C2811 0.950 . S
H2816 C2813 0.950 . S
C2817 C2808 1.390 . S
C2817 H2810 0.950 . S
C2817 C2814 1.387 . S
C2818 C2819 1.387 . S
C2818 H2822 0.950 . S
C2818 C2827 1.390 . S
C2819 C2818 1.387 . S
C2819 C2821 1.387 . S
H2820 C2827 0.950 . S
C2821 C2819 1.387 . S
C2821 C2823 1.390 . S
C2821 H2825 0.950 . S
H2822 C2818 0.950 . S
C2823 C2821 1.390 . S
C2823 C2824 1.387 . S
C2823 H2826 0.950 . S
C2824 C2823 1.387 . S
C2824 C2827 1.387 . S
H2825 C2821 0.950 . S
H2826 C2823 0.950 . S
C2827 C2818 1.390 . S
C2827 H2820 0.950 . S
C2827 C2824 1.387 . S
C2828 C2829 1.387 . S
C2828 H2832 0.950 . S
C2828 C2837 1.390 . S
C2829 C2828 1.387 . S
C2829 C2831 1.387 . S
H2830 C2837 0.950 . S
C2831 C2829 1.387 . S
C2831 C2833 1.390 . S
C2831 H2835 0.950 . S
H2832 C2828 0.950 . S
C2833 C2831 1.390 . S
C2833 C2834 1.387 . S
C2833 H2836 0.950 . S
C2834 C2833 1.387 . S
C2834 C2837 1.387 . S
H2835 C2831 0.950 . S
H2836 C2833 0.950 . S
C2837 C2828 1.390 . S
C2837 H2830 0.950 . S
C2837 C2834 1.387 . S
C2838 C2839 1.387 . S
C2838 H2842 0.950 . S
C2838 C2847 1.390 . S
C2839 C2838 1.387 . S
C2839 C2841 1.387 . S
H2840 C2847 0.950 . S
C2841 C2839 1.387 . S
C2841 C2843 1.390 . S
C2841 H2845 0.950 . S
H2842 C2838 0.950 . S
C2843 C2841 1.390 . S
C2843 C2844 1.387 . S
C2843 H2846 0.950 . S
C2844 C2843 1.387 . S
C2844 C2847 1.387 . S
H2845 C2841 0.950 . S
H2846 C2843 0.950 . S
C2847 C2838 1.390 . S
C2847 H2840 0.950 . S
C2847 C2844 1.387 . S
C2848 C2849 1.387 . S
C2848 H2852 0.950 . S
C2848 C2857 1.390 . S
C2849 C2848 1.387 . S
C2849 C2851 1.387 . S
H2850 C2857 0.950 . S
C2851 C2849 1.387 . S
C2851 C2853 1.390 . S
C2851 H2855 0.950 . S
H2852 C2848 0.950 . S
C2853 C2851 1.390 . S
C2853 C2854 1.387 . S
C2853 H2856 0.950 . S
C2854 C2853 1.387 . S
C2854 C2857 1.387 . S
H2855 C2851 0.950 . S
H2856 C2853 0.950 . S
C2857 C2848 1.390 . S
C2857 H2850 0.950 . S
C2857 C2854 1.387 . S
C2858 C2859 1.387 . S
C2858 H2862 0.950 . S
C2858 C2867 1.390 . S
C2859 C2858 1.387 . S
C2859 C2861 1.387 . S
H2860 C2867 0.950 . S
C2861 C2859 1.387 . S
C2861 C2863 1.390 . S
C2861 H2865 0.950 . S
H2862 C2858 0.950 . S
C2863 C2861 1.390 . S
C2863 C2864 1.387 . S
C2863 H2866 0.950 . S
C2864 C2863 1.387 . S
C2864 C2867 1.387 . S
H2865 C2861 0.950 . S
H2866 C2863 0.950 . S
C2867 C2858 1.390 . S
C2867 H2860 0.950 . S
C2867 C2864 1.387 . S
C2868 C2869 1.387 . S
C2868 H2872 0.950 . S
C2868 C2877 1.390 . S
C2869 C2868 1.387 . S
C2869 C2871 1.387 . S
H2870 C2877 0.950 . S
C2871 C2869 1.387 . S
C2871 C2873 1.390 . S
C2871 H2875 0.950 . S
H2872 C2868 0.950 . S
C2873 C2871 1.390 . S
C2873 C2874 1.387 . S
C2873 H2876 0.950 . S
C2874 C2873 1.387 . S
C2874 C2877 1.387 . S
H2875 C2871 0.950 . S
H2876 C2873 0.950 . S
C2877 C2868 1.390 . S
C2877 H2870 0.950 . S
C2877 C2874 1.387 . S
C2878 C2879 1.387 . S
C2878 H2882 0.950 . S
C2878 C2887 1.390 . S
C2879 C2878 1.387 . S
C2879 C2881 1.387 . S
H2880 C2887 0.950 . S
C2881 C2879 1.387 . S
C2881 C2883 1.390 . S
C2881 H2885 0.950 . S
H2882 C2878 0.950 . S
C2883 C2881 1.390 . S
C2883 C2884 1.387 . S
C2883 H2886 0.950 . S
C2884 C2883 1.387 . S
C2884 C2887 1.387 . S
H2885 C2881 0.950 . S
H2886 C2883 0.950 . S
C2887 C2878 1.390 . S
C2887 H2880 0.950 . S
C2887 C2884 1.387 . S
C2888 C2889 1.387 . S
C2888 H2892 0.950 . S
C2888 C2897 1.390 . S
C2889 C2888 1.387 . S
C2889 C2891 1.387 . S
H2890 C2897 0.950 . S
C2891 C2889 1.387 . S
C2891 C2893 1.390 . S
C2891 H2895 0.950 . S
H2892 C2888 0.950 . S
C2893 C2891 1.390 . S
C2893 C2894 1.387 . S
C2893 H2896 0.950 . S
C2894 C2893 1.387 . S
C2894 C2897 1.387 . S
H2895 C2891 0.950 . S
H2896 C2893 0.950 . S
C2897 C2888 1.390 . S
C2897 H2890 0.950 . S
C2897 C2894 1.387 . S
C2898 C2899 1.387 . S
C2898 H2902 0.950 . S
C2898 C2907 1.390 . S
C2899 C2898 1.387 . S
C2899 C2901 1.387 . S
H2900 C2907 0.950 . S
C2901 C2899 1.387 . S
C2901 C2903 1.390 . S
C2901 H2905 0.950 . S
H2902 C2898 0.950 . S
C2903 C2901 1.390 . S
C2903 C2904 1.387 . S
C2903 H2906 0.950 . S
C2904 C2903 1.387 . S
C2904 C2907 1.387 . S
H2905 C2901 0.950 . S
H2906 C2903 0.950 . S
C2907 C2898 1.390 . S
C2907 H2900 0.950 . S
C2907 C2904 1.387 . S
C2908 C2909 1.387 . S
C2908 H2912 0.950 . S
C2908 C2917 1.390 . S
C2909 C2908 1.387 . S
C2909 C2911 1.387 . S
H2910 C2917 0.950 . S
C2911 C2909 1.387 . S
C2911 C2913 1.390 . S
C2911 H2915 0.950 . S
H2912 C2908 0.950 . S
C2913 C2911 1.390 . S
C2913 C2914 1.387 . S
C2913 H2916 0.950 . S
C2914 C2913 1.387 . S
C2914 C2917 1.387 . S
H2915 C2911 0.950 . S
H2916 C2913 0.950 . S
C2917 C2908 1.390 . S
C2917 H2910 0.950 . S
C2917 C2914 1.387 . S
C2918 C2919 1.387 . S
C2918 H2922 0.950 . S
C2918 C2927 1.390 . S
C2919 C2918 1.387 . S
C2919 C2921 1.387 . S
H2920 C2927 0.950 . S
C2921 C2919 1.387 . S
C2921 C2923 1.390 . S
C2921 H2925 0.950 . S
H2922 C2918 0.950 . S
C2923 C2921 1.390 . S
C2923 C2924 1.387 . S
C2923 H2926 0.950 . S
C2924 C2923 1.387 . S
C2924 C2927 1.387 . S
H2925 C2921 0.950 . S
H2926 C2923 0.950 . S
C2927 C2918 1.390 . S
C2927 H2920 0.950 . S
C2927 C2924 1.387 . S
C2928 C2929 1.387 . S
C2928 H2932 0.950 . S
C2928 C2937 1.390 . S
C2929 C2928 1.387 . S
C2929 C2931 1.387 . S
H2930 C2937 0.950 . S
C2931 C2929 1.387 . S
C2931 C2933 1.390 . S
C2931 H2935 0.950 . S
H2932 C2928 0.950 . S
C2933 C2931 1.390 . S
C2933 C2934 1.387 . S
C2933 H2936 0.950 . S
C2934 C2933 1.387 . S
C2934 C2937 1.387 . S
H2935 C2931 0.950 . S
H2936 C2933 0.950 . S
C2937 C2928 1.390 . S
C2937 H2930 0.950 . S
C2937 C2934 1.387 . S
C2938 C2939 1.387 . S
C2938 H2942 0.950 . S
C2938 C2947 1.390 . S
C2939 C2938 1.387 . S
C2939 C2941 1.387 . S
H2940 C2947 0.950 . S
C2941 C2939 1.387 . S
C2941 C2943 1.390 . S
C2941 H2945 0.950 . S
H2942 C2938 0.950 . S
C2943 C2941 1.390 . S
C2943 C2944 1.387 . S
C2943 H2946 0.950 . S
C2944 C2943 1.387 . S
C2944 C2947 1.387 . S
H2945 C2941 0.950 . S
H2946 C2943 0.950 . S
C2947 C2938 1.390 . S
C2947 H2940 0.950 . S
C2947 C2944 1.387 . S
C2948 C2949 1.387 . S
C2948 H2952 0.950 . S
C2948 C2957 1.390 . S
C2949 C2948 1.387 . S
C2949 C2951 1.387 . S
H2950 C2957 0.950 . S
C2951 C2949 1.387 . S
C2951 C2953 1.390 . S
C2951 H2955 0.950 . S
H2952 C2948 0.950 . S
C2953 C2951 1.390 . S
C2953 C2954 1.387 . S
C2953 H2956 0.950 . S
C2954 C2953 1.387 . S
C2954 C2957 1.387 . S
H2955 C2951 0.950 . S
H2956 C2953 0.950 . S
C2957 C2948 1.390 . S
C2957 H2950 0.950 . S
C2957 C2954 1.387 . S
C2958 C2959 1.387 . S
C2958 H2962 0.950 . S
C2958 C2967 1.390 . S
C2959 C2958 1.387 . S
C2959 C2961 1.387 . S
H2960 C2967 0.950 . S
C2961 C2959 1.387 . S
C2961 C2963 1.390 . S
C2961 H2965 0.950 . S
H2962 C2958 0.950 . S
C2963 C2961 1.390 . S
C2963 C2964 1.387 . S
C2963 H2966 0.950 . S
C2964 C2963 1.387 . S
C2964 C2967 1.387 . S
H2965 C2961 0.950 . S
H2966 C2963 0.950 . S
C2967 C2958 1.390 . S
C2967 H2960 0.950 . S
C2967 C2964 1.387 . S
C2968 C2969 1.387 . S
C2968 H2972 0.950 . S
C2968 C2977 1.390 . S
C2969 C2968 1.387 . S
C2969 C2971 1.387 . S
H2970 C2977 0.950 . S
C2971 C2969 1.387 . S
C2971 C2973 1.390 . S
C2971 H2975 0.950 . S
H2972 C2968 0.950 . S
C2973 C2971 1.390 . S
C2973 C2974 1.387 . S
C2973 H2976 0.950 . S
C2974 C2973 1.387 . S
C2974 C2977 1.387 . S
H2975 C2971 0.950 . S
H2976 C2973 0.950 . S
C2977 C2968 1.390 . S
C2977 H2970 0.950 . S
C2977 C2974 1.387 . S
C2978 C2979 1.387 . S
C2978 H2982 0.950 . S
C2978 C2987 1.390 . S
C2979 C2978 1.387 . S
C2979 C2981 1.387 1_565 S
H2980 C2987 0.950 . S
C2981 C2979 1.387 1_545 S
C2981 C2983 1.390 . S
C2981 H2985 0.950 . S
H2982 C2978 0.950 . S
C2983 C2981 1.390 . S
C2983 C2984 1.387 1_545 S
C2983 H2986 0.950 . S
C2984 C2983 1.387 1_565 S
C2984 C2987 1.387 . S
H2985 C2981 0.950 . S
H2986 C2983 0.950 . S
C2987 C2978 1.390 . S
C2987 H2980 0.950 . S
C2987 C2984 1.387 . S
C2988 C2989 1.387 1_545 S
C2988 H2992 0.950 . S
C2988 C2997 1.390 . S
C2989 C2988 1.387 1_565 S
C2989 C2991 1.387 . S
H2990 C2997 0.950 . S
C2991 C2989 1.387 . S
C2991 C2993 1.390 . S
C2991 H2995 0.950 . S
H2992 C2988 0.950 . S
C2993 C2991 1.390 . S
C2993 C2994 1.387 . S
C2993 H2996 0.950 . S
C2994 C2993 1.387 . S
C2994 C2997 1.387 1_565 S
H2995 C2991 0.950 . S
H2996 C2993 0.950 . S
C2997 C2988 1.390 . S
C2997 H2990 0.950 . S
C2997 C2994 1.387 1_545 S
C2998 C2999 1.387 . S
C2998 H3002 0.950 . S
C2998 C3007 1.390 . S
C2999 C2998 1.387 . S
C2999 C3001 1.387 1_455 S
H3000 C3007 0.950 . S
C3001 C2999 1.387 1_655 S
C3001 C3003 1.390 . S
C3001 H3005 0.950 . S
H3002 C2998 0.950 . S
C3003 C3001 1.390 . S
C3003 C3004 1.387 1_655 S
C3003 H3006 0.950 . S
C3004 C3003 1.387 1_455 S
C3004 C3007 1.387 . S
H3005 C3001 0.950 . S
H3006 C3003 0.950 . S
C3007 C2998 1.390 . S
C3007 H3000 0.950 . S
C3007 C3004 1.387 . S
C3008 C3009 1.387 . S
C3008 H3012 0.950 . S
C3008 C3017 1.390 . S
C3009 C3008 1.387 . S
C3009 C3011 1.387 . S
H3010 C3017 0.950 . S
C3011 C3009 1.387 . S
C3011 C3013 1.390 . S
C3011 H3015 0.950 . S
H3012 C3008 0.950 . S
C3013 C3011 1.390 . S
C3013 C3014 1.387 . S
C3013 H3016 0.950 . S
C3014 C3013 1.387 . S
C3014 C3017 1.387 . S
H3015 C3011 0.950 . S
H3016 C3013 0.950 . S
C3017 C3008 1.390 . S
C3017 H3010 0.950 . S
C3017 C3014 1.387 . S
C3018 C3019 1.387 . S
C3018 H3022 0.950 . S
C3018 C3027 1.390 . S
C3019 C3018 1.387 . S
C3019 C3021 1.387 . S
H3020 C3027 0.950 . S
C3021 C3019 1.387 . S
C3021 C3023 1.390 . S
C3021 H3025 0.950 . S
H3022 C3018 0.950 . S
C3023 C3021 1.390 . S
C3023 C3024 1.387 . S
C3023 H3026 0.950 . S
C3024 C3023 1.387 . S
C3024 C3027 1.387 . S
H3025 C3021 0.950 . S
H3026 C3023 0.950 . S
C3027 C3018 1.390 . S
C3027 H3020 0.950 . S
C3027 C3024 1.387 . S
C3028 C3029 1.387 . S
C3028 H3032 0.950 . S
C3028 C3037 1.390 . S
C3029 C3028 1.387 . S
C3029 C3031 1.387 . S
H3030 C3037 0.950 . S
C3031 C3029 1.387 . S
C3031 C3033 1.390 . S
C3031 H3035 0.950 . S
H3032 C3028 0.950 . S
C3033 C3031 1.390 . S
C3033 C3034 1.387 . S
C3033 H3036 0.950 . S
C3034 C3033 1.387 . S
C3034 C3037 1.387 . S
H3035 C3031 0.950 . S
H3036 C3033 0.950 . S
C3037 C3028 1.390 . S
C3037 H3030 0.950 . S
C3037 C3034 1.387 . S
C3038 C3039 1.387 . S
C3038 H3042 0.950 . S
C3038 C3047 1.390 . S
C3039 C3038 1.387 . S
C3039 C3041 1.387 . S
H3040 C3047 0.950 . S
C3041 C3039 1.387 . S
C3041 C3043 1.390 . S
C3041 H3045 0.950 . S
H3042 C3038 0.950 . S
C3043 C3041 1.390 . S
C3043 C3044 1.387 . S
C3043 H3046 0.950 . S
C3044 C3043 1.387 . S
C3044 C3047 1.387 . S
H3045 C3041 0.950 . S
H3046 C3043 0.950 . S
C3047 C3038 1.390 . S
C3047 H3040 0.950 . S
C3047 C3044 1.387 . S
C3048 C3049 1.387 1_565 S
C3048 H3052 0.950 . S
C3048 C3057 1.390 . S
C3049 C3048 1.387 1_545 S
C3049 C3051 1.387 . S
H3050 C3057 0.950 . S
C3051 C3049 1.387 . S
C3051 C3053 1.390 . S
C3051 H3055 0.950 . S
H3052 C3048 0.950 . S
C3053 C3051 1.390 . S
C3053 C3054 1.387 . S
C3053 H3056 0.950 . S
C3054 C3053 1.387 . S
C3054 C3057 1.387 1_545 S
H3055 C3051 0.950 . S
H3056 C3053 0.950 . S
C3057 C3048 1.390 . S
C3057 H3050 0.950 . S
C3057 C3054 1.387 1_565 S
C3058 C3059 1.387 1_455 S
C3058 H3062 0.950 . S
C3058 C3067 1.390 . S
C3059 C3058 1.387 1_655 S
C3059 C3061 1.387 . S
H3060 C3067 0.950 . S
C3061 C3059 1.387 . S
C3061 C3063 1.390 . S
C3061 H3065 0.950 . S
H3062 C3058 0.950 . S
C3063 C3061 1.390 . S
C3063 C3064 1.387 . S
C3063 H3066 0.950 . S
C3064 C3063 1.387 . S
C3064 C3067 1.387 1_655 S
H3065 C3061 0.950 . S
H3066 C3063 0.950 . S
C3067 C3058 1.390 . S
C3067 H3060 0.950 . S
C3067 C3064 1.387 1_455 S
C3068 C3069 1.387 . S
C3068 H3072 0.950 . S
C3068 C3077 1.390 . S
C3069 C3068 1.387 . S
C3069 C3071 1.387 . S
H3070 C3077 0.950 . S
C3071 C3069 1.387 . S
C3071 C3073 1.390 . S
C3071 H3075 0.950 . S
H3072 C3068 0.950 . S
C3073 C3071 1.390 . S
C3073 C3074 1.387 . S
C3073 H3076 0.950 . S
C3074 C3073 1.387 . S
C3074 C3077 1.387 . S
H3075 C3071 0.950 . S
H3076 C3073 0.950 . S
C3077 C3068 1.390 . S
C3077 H3070 0.950 . S
C3077 C3074 1.387 . S
C3078 C3079 1.387 . S
C3078 H3082 0.950 . S
C3078 C3087 1.390 . S
C3079 C3078 1.387 . S
C3079 C3081 1.387 . S
H3080 C3087 0.950 . S
C3081 C3079 1.387 . S
C3081 C3083 1.390 . S
C3081 H3085 0.950 . S
H3082 C3078 0.950 . S
C3083 C3081 1.390 . S
C3083 C3084 1.387 . S
C3083 H3086 0.950 . S
C3084 C3083 1.387 . S
C3084 C3087 1.387 . S
H3085 C3081 0.950 . S
H3086 C3083 0.950 . S
C3087 C3078 1.390 . S
C3087 H3080 0.950 . S
C3087 C3084 1.387 . S
C3088 C3089 1.387 . S
C3088 H3092 0.950 . S
C3088 C3097 1.390 . S
C3089 C3088 1.387 . S
C3089 C3091 1.387 . S
H3090 C3097 0.950 . S
C3091 C3089 1.387 . S
C3091 C3093 1.390 . S
C3091 H3095 0.950 . S
H3092 C3088 0.950 . S
C3093 C3091 1.390 . S
C3093 C3094 1.387 . S
C3093 H3096 0.950 . S
C3094 C3093 1.387 . S
C3094 C3097 1.387 . S
H3095 C3091 0.950 . S
H3096 C3093 0.950 . S
C3097 C3088 1.390 . S
C3097 H3090 0.950 . S
C3097 C3094 1.387 . S
C3098 C3099 1.387 . S
C3098 H3102 0.950 . S
C3098 C3107 1.390 . S
C3099 C3098 1.387 . S
C3099 C3101 1.387 . S
H3100 C3107 0.950 . S
C3101 C3099 1.387 . S
C3101 C3103 1.390 . S
C3101 H3105 0.950 . S
H3102 C3098 0.950 . S
C3103 C3101 1.390 . S
C3103 C3104 1.387 . S
C3103 H3106 0.950 . S
C3104 C3103 1.387 . S
C3104 C3107 1.387 . S
H3105 C3101 0.950 . S
H3106 C3103 0.950 . S
C3107 C3098 1.390 . S
C3107 H3100 0.950 . S
C3107 C3104 1.387 . S
C3108 C3109 1.387 . S
C3108 H3112 0.950 . S
C3108 C3117 1.390 . S
C3109 C3108 1.387 . S
C3109 C3111 1.387 . S
H3110 C3117 0.950 . S
C3111 C3109 1.387 . S
C3111 C3113 1.390 . S
C3111 H3115 0.950 . S
H3112 C3108 0.950 . S
C3113 C3111 1.390 . S
C3113 C3114 1.387 . S
C3113 H3116 0.950 . S
C3114 C3113 1.387 . S
C3114 C3117 1.387 . S
H3115 C3111 0.950 . S
H3116 C3113 0.950 . S
C3117 C3108 1.390 . S
C3117 H3110 0.950 . S
C3117 C3114 1.387 . S
C3118 C3119 1.387 . S
C3118 H3122 0.950 . S
C3118 C3127 1.390 . S
C3119 C3118 1.387 . S
C3119 C3121 1.387 . S
H3120 C3127 0.950 . S
C3121 C3119 1.387 . S
C3121 C3123 1.390 . S
C3121 H3125 0.950 . S
H3122 C3118 0.950 . S
C3123 C3121 1.390 . S
C3123 C3124 1.387 . S
C3123 H3126 0.950 . S
C3124 C3123 1.387 . S
C3124 C3127 1.387 . S
H3125 C3121 0.950 . S
H3126 C3123 0.950 . S
C3127 C3118 1.390 . S
C3127 H3120 0.950 . S
C3127 C3124 1.387 . S
C3128 C3129 1.387 . S
C3128 H3132 0.950 . S
C3128 C3137 1.390 . S
C3129 C3128 1.387 . S
C3129 C3131 1.387 . S
H3130 C3137 0.950 . S
C3131 C3129 1.387 . S
C3131 C3133 1.390 . S
C3131 H3135 0.950 . S
H3132 C3128 0.950 . S
C3133 C3131 1.390 . S
C3133 C3134 1.387 . S
C3133 H3136 0.950 . S
C3134 C3133 1.387 . S
C3134 C3137 1.387 . S
H3135 C3131 0.950 . S
H3136 C3133 0.950 . S
C3137 C3128 1.390 . S
C3137 H3130 0.950 . S
C3137 C3134 1.387 . S
C3138 C3139 1.387 . S
C3138 H3142 0.950 1_655 S
C3138 C3147 1.390 1_655 S
C3139 C3138 1.387 . S
C3139 C3141 1.387 . S
H3140 C3147 0.950 . S
C3141 C3139 1.387 . S
C3141 C3143 1.390 . S
C3141 H3145 0.950 . S
H3142 C3138 0.950 1_455 S
C3143 C3141 1.390 . S
C3143 C3144 1.387 . S
C3143 H3146 0.950 . S
C3144 C3143 1.387 . S
C3144 C3147 1.387 1_655 S
H3145 C3141 0.950 . S
H3146 C3143 0.950 . S
C3147 C3138 1.390 1_455 S
C3147 H3140 0.950 . S
C3147 C3144 1.387 1_455 S
C3148 C3149 1.387 . S
C3148 H3152 0.950 . S
C3148 C3157 1.390 . S
C3149 C3148 1.387 . S
C3149 C3151 1.387 . S
H3150 C3157 0.950 . S
C3151 C3149 1.387 . S
C3151 C3153 1.390 . S
C3151 H3155 0.950 . S
H3152 C3148 0.950 . S
C3153 C3151 1.390 . S
C3153 C3154 1.387 . S
C3153 H3156 0.950 . S
C3154 C3153 1.387 . S
C3154 C3157 1.387 . S
H3155 C3151 0.950 . S
H3156 C3153 0.950 . S
C3157 C3148 1.390 . S
C3157 H3150 0.950 . S
C3157 C3154 1.387 . S
C3158 C3159 1.387 1_565 S
C3158 H3162 0.950 . S
C3158 C3167 1.390 . S
C3159 C3158 1.387 1_545 S
C3159 C3161 1.387 . S
H3160 C3167 0.950 . S
C3161 C3159 1.387 . S
C3161 C3163 1.390 . S
C3161 H3165 0.950 . S
H3162 C3158 0.950 . S
C3163 C3161 1.390 . S
C3163 C3164 1.387 . S
C3163 H3166 0.950 . S
C3164 C3163 1.387 . S
C3164 C3167 1.387 1_545 S
H3165 C3161 0.950 . S
H3166 C3163 0.950 . S
C3167 C3158 1.390 . S
C3167 H3160 0.950 . S
C3167 C3164 1.387 1_565 S
C2449 C49 1.652 . S
C2454 C2061 1.696 . S
C2459 C137 1.643 . S
C2464 C2109 1.668 . S
C2474 C2157 1.716 . S
C2469 C205 1.674 . S
C2479 C196 1.656 . S
C2484 C2181 1.728 . S
C2489 C57 1.670 . S
C2494 C2253 1.719 . S
C2499 C145 1.645 . S
C2504 C2301 1.669 . S
C2509 C313 1.664 . S
C2514 C2229 1.720 . S
C2524 C2277 1.669 . S
C2519 C401 1.649 . S
C2534 C2205 1.747 . S
C2529 C489 1.668 . S
C2539 C469 1.663 . S
C2544 C2133 1.718 . S
C2554 C2037 1.730 . S
C2549 C293 1.673 . S
C2559 C381 1.648 . S
C2564 C2085 1.670 . S
C2569 C577 1.697 . S
C2574 C2349 1.714 . S
C2579 C645 1.682 . S
C2584 C2397 1.688 . S
C2594 C2421 1.654 . S
C2589 C733 1.653 . S
C2599 C724 1.642 . S
C2604 C1605 1.652 . S
C2609 C585 1.680 . S
C2614 C1677 1.700 . S
C2619 C636 1.692 . S
C2624 C1725 1.704 . S
C2629 C841 1.639 . S
C2634 C1653 1.656 . S
C2639 C937 1.698 . S
C2644 C1701 1.707 . S
C2654 C1629 1.678 . S
C2649 C1025 1.684 . S
C2664 C2445 1.690 . S
C2659 C988 1.701 . S
C2674 C2325 1.660 . S
C2669 C821 1.652 . S
C2684 C2373 1.688 . S
C2679 C900 1.688 . S
C2689 C1105 1.637 . S
C2694 C1773 1.657 . S
C2699 C1193 1.690 . S
C2704 C1821 1.704 . S
C2709 C1281 1.686 . S
C2714 C1845 1.695 . S
C2719 C1289 1.701 . S
C2724 C1893 1.707 . S
C2734 C1965 1.664 . S
C2729 C1113 1.649 . S
C2744 C2013 1.688 . S
C2739 C1201 1.682 . S
C2754 C1941 1.718 . S
C2749 C1369 1.704 . S
C2764 C1989 1.689 . S
C2759 C1457 1.688 . S
C2769 C1553 1.650 . S
C2774 C1917 1.631 . S
C2784 C1869 1.633 . S
C2779 C1516 1.637 . S
C2789 C1349 1.687 . S
C2794 C1749 1.703 . S
C2804 C1797 1.707 . S
C2799 C1437 1.697 . S
C2814 C1614 1.669 . S
C2809 C29 1.634 . S
C2819 C117 1.554 . S
C2824 C1668 1.508 . S
C2834 C1716 1.649 . S
C2829 C225 1.675 . S
C2844 C1764 1.624 . S
C2839 C233 1.641 . S
C2854 C1812 1.649 . S
C2849 C20 1.675 . S
C2864 C1854 1.564 . S
C2859 C108 1.553 . S
C2869 C321 1.647 . S
C2874 C1860 1.661 . S
C2879 C409 1.559 . S
C2884 C1758 1.483 . S
C2889 C497 1.679 . S
C2894 C1806 1.615 . S
C2899 C460 1.643 . S
C2904 C1662 1.597 . S
C2914 C1710 1.620 . S
C2909 C284 1.683 . S
C2919 C372 1.562 . S
C2924 C1620 1.543 . S
C2934 C1902 1.561 . S
C2929 C557 1.552 . S
C2939 C665 1.611 . S
C2944 C1956 1.563 . S
C2949 C753 1.619 . S
C2954 C2004 1.566 . S
C2964 C2052 1.242 . S
C2959 C761 1.245 . S
C2969 C548 1.536 . S
C2974 C2100 1.498 . S
C2979 C673 1.246 . S
C2984 C2148 1.241 . S
C2989 C849 1.245 . S
C2994 C2142 1.230 . S
C2999 C929 1.253 . S
C3004 C2046 1.246 . S
C3014 C2094 1.471 . S
C3009 C1017 1.538 . S
C3019 C997 1.558 . S
C3024 C1950 1.485 . S
C3029 C812 1.619 . S
C3034 C1998 1.541 . S
C3044 C1908 1.590 . S
C3039 C909 1.615 . S
C3054 C2190 1.247 . S
C3049 C1085 1.239 . S
C3059 C1173 1.245 . S
C3064 C2244 1.241 . S
C3069 C1261 1.537 . S
C3074 C2292 1.497 . S
C3084 C2340 1.512 . S
C3079 C1252 1.555 . S
C3094 C2388 1.563 . S
C3089 C1076 1.616 . S
C3099 C1164 1.610 . S
C3104 C2430 1.610 . S
C3109 C1377 1.564 . S
C3114 C2436 1.543 . S
C3119 C1465 1.615 . S
C3124 C2334 1.540 . S
C3134 C2382 1.540 . S
C3129 C1545 1.617 . S
C3144 C2238 1.230 . S
C3139 C1525 1.236 . S
C3154 C2286 1.478 . S
C3149 C1340 1.543 . S
C3159 C1428 1.256 . S
C3164 C2196 1.255 . S
