# Generated by pormake.
# Topology tsx, (6,3)-cn, num edge types: 1
# Building blocks:
#     Node 0, Type 0, BuildingBlock: JUFBIX_clean_sbu_0, # of connection points: 6
#     Node 1, Type 0, BuildingBlock: JUFBIX_clean_sbu_0, # of connection points: 6
#     Node 2, Type 1, BuildingBlock: MIDCAF_clean_linker_0, # of connection points: 3
#     Node 3, Type 1, BuildingBlock: MIDCAF_clean_linker_0, # of connection points: 3
#     Node 4, Type 1, BuildingBlock: MIDCAF_clean_linker_0, # of connection points: 3
#     Node 5, Type 1, BuildingBlock: MIDCAF_clean_linker_0, # of connection points: 3
#     Edge 6, Type (0, 1), BuildingBlock: FUNLAD_clean_linker_1, # of connection points: 2
#     Edge 7, Type (0, 1), BuildingBlock: FUNLAD_clean_linker_1, # of connection points: 2
#     Edge 8, Type (0, 1), BuildingBlock: FUNLAD_clean_linker_1, # of connection points: 2
#     Edge 9, Type (0, 1), BuildingBlock: FUNLAD_clean_linker_1, # of connection points: 2
#     Edge 10, Type (0, 1), BuildingBlock: FUNLAD_clean_linker_1, # of connection points: 2
#     Edge 11, Type (0, 1), BuildingBlock: FUNLAD_clean_linker_1, # of connection points: 2
#     Edge 12, Type (0, 1), BuildingBlock: FUNLAD_clean_linker_1, # of connection points: 2
#     Edge 13, Type (0, 1), BuildingBlock: FUNLAD_clean_linker_1, # of connection points: 2
#     Edge 14, Type (0, 1), BuildingBlock: FUNLAD_clean_linker_1, # of connection points: 2
#     Edge 15, Type (0, 1), BuildingBlock: FUNLAD_clean_linker_1, # of connection points: 2
#     Edge 16, Type (0, 1), BuildingBlock: FUNLAD_clean_linker_1, # of connection points: 2
#     Edge 17, Type (0, 1), BuildingBlock: FUNLAD_clean_linker_1, # of connection points: 2
# Relax obj value: 0.160
# Max RMSD: 0.167
# Mean RMSD: 0.135
data_MOF--net-tsx--node1-JUFBIX_clean_sbu_0--node2-MIDCAF_clean_linker_0--edge1-FUNLAD_clean_linker_1
_symmetry_space_group_name_H-M    P1
_symmetry_Int_Tables_number       1
_symmetry_cell_setting            triclinic
loop_
_symmetry_equiv_pos_as_xyz
'x, y, z'
_cell_length_a     24.611403
_cell_length_b     29.219932
_cell_length_c     45.047703
_cell_angle_alpha  92.212677
_cell_angle_beta   89.701315
_cell_angle_gamma 97.946536
loop_
_atom_site_label
_atom_site_type_symbol
_atom_site_fract_x
_atom_site_fract_y
_atom_site_fract_z
_atom_type_partial_charge
Co0 Co 0.0744 0.99013 0.00797 0.0
C1 C 0.03161 0.01803 0.95548 0.0
Co2 Co 0.00501 0.03048 0.01423 0.0
C3 C 0.13841 0.91408 0.00979 0.0
C4 C 0.17932 0.97115 0.98628 0.0
N5 N 0.13312 0.95725 0.00158 0.0
N6 N 0.18595 0.90054 0.00024 0.0
C7 C 0.21186 0.93645 0.9854 0.0
H8 H 0.10744 0.89248 0.02203 0.0
H9 H 0.18817 0.00399 0.97574 0.0
C10 C 0.04762 0.00251 0.06675 0.0
N11 N 0.9463 0.06296 0.02102 0.0
C12 C 0.93633 0.10303 0.00958 0.0
C13 C 0.9041 0.05116 0.03968 0.0
N14 N 0.88965 0.11667 0.02039 0.0
C15 C 0.86918 0.08402 0.03935 0.0
C16 C 0.97347 0.93548 0.00796 0.0
O17 O 0.07988 0.98362 0.04961 0.0
O18 O 0.01243 0.02501 0.05578 0.0
O19 O 0.95602 0.97413 0.01225 0.0
O20 O 0.02457 0.93434 0.00502 0.0
O21 O 0.99822 0.03556 0.97268 0.0
H22 H 0.89919 0.02066 0.05285 0.0
H23 H 0.96288 0.12195 0.99367 0.0
O24 O 0.06828 0.99694 0.96634 0.0
O25 O 0.12345 0.0465 0.01108 0.0
O26 O 0.05453 0.08655 0.01607 0.0
C27 C 0.10585 0.08525 0.01417 0.0
H28 H 0.2505 0.93725 0.97376 0.0
H29 H 0.83188 0.08362 0.05217 0.0
Co30 Co 0.52262 0.50074 0.51392 0.0
C31 C 0.48291 0.52485 0.45968 0.0
Co32 Co 0.45243 0.54077 0.5175 0.0
C33 C 0.58924 0.42602 0.518 0.0
C34 C 0.63006 0.48444 0.4957 0.0
N35 N 0.58279 0.4689 0.5096 0.0
N36 N 0.63873 0.41451 0.51007 0.0
C37 C 0.66444 0.45125 0.49596 0.0
H38 H 0.55787 0.40324 0.52918 0.0
H39 H 0.63849 0.51735 0.48522 0.0
C40 C 0.49225 0.51673 0.57174 0.0
N41 N 0.39293 0.57309 0.52193 0.0
C42 C 0.38441 0.61256 0.50918 0.0
C43 C 0.34951 0.56288 0.54005 0.0
N44 N 0.33772 0.62758 0.5188 0.0
C45 C 0.31544 0.59624 0.53817 0.0
C46 C 0.42232 0.44525 0.51341 0.0
O47 O 0.52568 0.49696 0.55584 0.0
O48 O 0.45746 0.53811 0.55941 0.0
O49 O 0.40438 0.48391 0.51615 0.0
O50 O 0.47372 0.4442 0.51161 0.0
O51 O 0.44825 0.54309 0.47557 0.0
H52 H 0.34331 0.53327 0.55399 0.0
H53 H 0.41233 0.63037 0.4934 0.0
O54 O 0.519 0.50479 0.47205 0.0
O55 O 0.57054 0.5579 0.51639 0.0
O56 O 0.50086 0.59724 0.51884 0.0
C57 C 0.55225 0.5965 0.5181 0.0
H58 H 0.70419 0.4534 0.48533 0.0
H59 H 0.27735 0.59706 0.55012 0.0
C60 C 0.85347 0.12346 0.45452 0.0
C61 C 0.86718 0.14274 0.48305 0.0
C62 C 0.91224 0.12915 0.4978 0.0
C63 C 0.94331 0.09739 0.48417 0.0
H64 H 0.03507 0.98029 0.49743 0.0
H65 H 0.08531 0.92435 0.5208 0.0
H66 H 0.15172 0.88955 0.43516 0.0
H67 H 0.10278 0.94471 0.41225 0.0
H68 H 0.05184 0.96955 0.35451 0.0
H69 H 0.05215 0.96843 0.30087 0.0
H70 H 0.94641 0.07507 0.30237 0.0
H71 H 0.94533 0.07557 0.35643 0.0
H72 H 0.87362 0.07924 0.41856 0.0
H73 H 0.8202 0.13382 0.44195 0.0
H74 H 0.92409 0.14384 0.51965 0.0
H75 H 0.97851 0.08831 0.49578 0.0
N76 N 0.99851 0.02417 0.45346 0.0
N77 N 0.03038 0.99735 0.40764 0.0
N78 N 0.96649 0.04948 0.40871 0.0
C79 C 0.03072 0.99742 0.43781 0.0
C80 C 0.99859 0.02328 0.3929 0.0
C81 C 0.96613 0.05022 0.4389 0.0
C82 C 0.06448 0.96691 0.45294 0.0
C83 C 0.06097 0.96102 0.48376 0.0
C84 C 0.08979 0.9291 0.49713 0.0
C85 C 0.12347 0.9031 0.48008 0.0
C86 C 0.1278 0.90981 0.44937 0.0
C87 C 0.09891 0.94133 0.43606 0.0
C88 C 0.9988 0.02281 0.35994 0.0
C89 C 0.02878 0.99296 0.34347 0.0
C90 C 0.02923 0.99259 0.31244 0.0
C91 C 0.99996 0.02243 0.29705 0.0
C92 C 0.9696 0.05187 0.31354 0.0
C93 C 0.96901 0.05215 0.34456 0.0
C94 C 0.93056 0.07959 0.45521 0.0
C95 C 0.88477 0.09243 0.44083 0.0
C96 C 0.83974 0.90027 0.57398 0.0
C97 C 0.85621 0.87858 0.54766 0.0
C98 C 0.90608 0.89661 0.53441 0.0
C99 C 0.93899 0.93517 0.54736 0.0
H100 H 0.06075 0.0568 0.53177 0.0
H101 H 0.13457 0.10864 0.50862 0.0
H102 H 0.18626 0.16621 0.59532 0.0
H103 H 0.11335 0.11589 0.61817 0.0
H104 H 0.05047 0.09018 0.67471 0.0
H105 H 0.04074 0.09692 0.72832 0.0
H106 H 0.89415 0.99677 0.72379 0.0
H107 H 0.90324 0.99041 0.66998 0.0
H108 H 0.85875 0.95355 0.60743 0.0
H109 H 0.80274 0.88686 0.5856 0.0
H110 H 0.92013 0.88029 0.51434 0.0
H111 H 0.97787 0.94748 0.53715 0.0
N112 N 1.00128 0.01953 0.57594 0.0
N113 N 0.02675 0.05922 0.62119 0.0
N114 N 0.95206 1.00055 0.61961 0.0
C115 C 0.03499 0.05285 0.59153 0.0
C116 C 0.98545 0.03328 0.63541 0.0
C117 C 0.95949 0.99333 0.59 0.0
C118 C 0.08043 0.0825 0.57685 0.0
C119 C 0.08781 0.08066 0.54583 0.0
C120 C 0.13 0.11031 0.53256 0.0
C121 C 0.16506 0.14259 0.54999 0.0
C122 C 0.15866 0.14327 0.58101 0.0
C123 C 0.11688 0.11384 0.5942 0.0
C124 C 0.97807 0.0393 0.66795 0.0
C125 C 0.01608 0.06958 0.68507 0.0
C126 C 0.01079 0.07311 0.71596 0.0
C127 C 0.96737 0.0463 0.73041 0.0
C128 C 0.92828 0.01746 0.71324 0.0
C129 C 0.93365 0.01378 0.6824 0.0
C130 C 0.92291 0.95596 0.57403 0.0
C131 C 0.87251 0.93845 0.58687 0.0
C132 C 0.36917 0.58758 0.95162 0.0
C133 C 0.38537 0.60995 0.97901 0.0
C134 C 0.42928 0.59575 0.99441 0.0
C135 C 0.45726 0.5607 0.98235 0.0
H136 H 0.53761 0.43208 0.99855 0.0
H137 H 0.59433 0.38151 0.02272 0.0
H138 H 0.68795 0.37241 0.94177 0.0
H139 H 0.63286 0.42257 0.9182 0.0
H140 H 0.57644 0.43224 0.85835 0.0
H141 H 0.57978 0.42861 0.80436 0.0
H142 H 0.44698 0.51097 0.80149 0.0
H143 H 0.44434 0.51537 0.8553 0.0
H144 H 0.38498 0.53782 0.91785 0.0
H145 H 0.33656 0.59815 0.93861 0.0
H146 H 0.44292 0.61265 0.01542 0.0
H147 H 0.49196 0.55141 0.99428 0.0
N148 N 0.51061 0.48482 0.95481 0.0
N149 N 0.54291 0.45458 0.91008 0.0
N150 N 0.47646 0.50431 0.90898 0.0
C151 C 0.54374 0.45773 0.94023 0.0
C152 C 0.50948 0.4776 0.89426 0.0
C153 C 0.47676 0.50822 0.93917 0.0
C154 C 0.58056 0.43125 0.95642 0.0
C155 C 0.5711 0.41996 0.98623 0.0
C156 C 0.60345 0.39098 3e-05 0.0
C157 C 0.64639 0.37359 0.98449 0.0
C158 C 0.65658 0.38607 0.95494 0.0
C159 C 0.62421 0.41453 0.94117 0.0
C160 C 0.51038 0.47446 0.8613 0.0
C161 C 0.54802 0.44976 0.84625 0.0
C162 C 0.55002 0.44765 0.81525 0.0
C163 C 0.51471 0.47025 0.79845 0.0
C164 C 0.47619 0.49422 0.81344 0.0
C165 C 0.47427 0.49644 0.8445 0.0
C166 C 0.44262 0.54003 0.95431 0.0
C167 C 0.3975 0.55315 0.93945 0.0
C168 C 0.36276 0.4021 0.07866 0.0
C169 C 0.35933 0.39688 0.04759 0.0
C170 C 0.39487 0.4268 0.03021 0.0
C171 C 0.43485 0.4599 0.04375 0.0
H172 H 0.54364 0.59413 0.03532 0.0
H173 H 0.60449 0.65643 0.01216 0.0
H174 H 0.71637 0.66078 0.08619 0.0
H175 H 0.65704 0.59894 0.1086 0.0
H176 H 0.60248 0.5762 0.17185 0.0
H177 H 0.60749 0.57511 0.2259 0.0
H178 H 0.46691 0.46871 0.22618 0.0
H179 H 0.46121 0.47017 0.17257 0.0
H180 H 0.4034 0.43733 0.11614 0.0
H181 H 0.33462 0.38105 0.09281 0.0
H182 H 0.39246 0.42394 0.00619 0.0
H183 H 0.46254 0.4818 0.02984 0.0
N184 N 0.51743 0.52793 0.07482 0.0
N185 N 0.56163 0.55517 0.11953 0.0
N186 N 0.48768 0.49595 0.1201 0.0
C187 C 0.55729 0.55707 0.08955 0.0
C188 C 0.52692 0.52481 0.135 0.0
C189 C 0.48251 0.49701 0.09013 0.0
C190 C 0.59553 0.5915 0.07373 0.0
C191 C 0.58191 0.60776 0.04616 0.0
C192 C 0.61659 0.6435 0.033 0.0
C193 C 0.66587 0.66298 0.04689 0.0
C194 C 0.67984 0.64587 0.07417 0.0
C195 C 0.6452 0.6106 0.08734 0.0
C196 C 0.53107 0.52361 0.16778 0.0
C197 C 0.57243 0.55274 0.18344 0.0
C198 C 0.57539 0.55213 0.2144 0.0
C199 C 0.53686 0.52285 0.23042 0.0
C200 C 0.49619 0.49299 0.21476 0.0
C201 C 0.49328 0.49347 0.18383 0.0
C202 C 0.43931 0.46393 0.07493 0.0
C203 C 0.40218 0.43495 0.0921 0.0
H204 H 0.18867 0.1245 0.01839 0.0
C205 C 0.14545 0.12793 0.0162 0.0
H206 H 0.08696 0.17422 0.01418 0.0
H207 H 0.23579 0.33299 0.08736 0.0
H208 H 0.15851 0.31495 0.1205 0.0
H209 H 0.08615 0.24965 0.10873 0.0
H210 H 0.09034 0.20235 0.06364 0.0
C211 C 0.13009 0.17028 0.01584 0.0
C212 C 0.1709 0.2124 0.02115 0.0
C213 C 0.16754 0.23987 0.04753 0.0
C214 C 0.20982 0.2769 0.05461 0.0
C215 C 0.20539 0.30385 0.08114 0.0
C216 C 0.16112 0.29401 0.10032 0.0
C217 C 0.12034 0.25731 0.09367 0.0
C218 C 0.12328 0.23044 0.06765 0.0
H219 H 0.29877 0.36845 0.01278 0.0
C220 C 0.31785 0.361 0.03342 0.0
H221 H 0.32314 0.31192 0.0661 0.0
H222 H 0.18408 0.17257 0.96609 0.0
H223 H 0.26197 0.18988 0.93312 0.0
H224 H 0.33873 0.25033 0.94706 0.0
H225 H 0.33761 0.29444 0.9937 0.0
C226 C 0.30325 0.3199 0.04583 0.0
C227 C 0.25571 0.2861 0.03549 0.0
C228 C 0.25787 0.25998 0.00842 0.0
C229 C 0.21475 0.22371 0.00096 0.0
C230 C 0.21675 0.19925 0.97332 0.0
C231 C 0.26102 0.20904 0.95412 0.0
C232 C 0.30416 0.24318 0.96193 0.0
C233 C 0.30289 0.2684 0.98875 0.0
H234 H 0.17108 0.82748 0.01062 0.0
C235 C 0.20147 0.85503 0.00284 0.0
H236 H 0.28216 0.87187 0.98655 0.0
H237 H 0.3022 0.66714 0.04043 0.0
H238 H 0.29306 0.70405 0.08907 0.0
H239 H 0.2717 0.78404 0.094 0.0
H240 H 0.25864 0.82745 0.05034 0.0
C241 C 0.25136 0.84516 0.99473 0.0
C242 C 0.26388 0.79674 0.99238 0.0
C243 C 0.2725 0.77224 0.01812 0.0
C244 C 0.28655 0.72657 0.01527 0.0
C245 C 0.29312 0.70234 0.04133 0.0
C246 C 0.2877 0.72304 0.06937 0.0
C247 C 0.27554 0.76805 0.07215 0.0
C248 C 0.26799 0.79254 0.04691 0.0
H249 H 0.3881 0.67823 0.00249 0.0
C250 C 0.36153 0.65158 0.98994 0.0
H251 H 0.28295 0.63275 0.97092 0.0
H252 H 0.24768 0.83334 0.93859 0.0
H253 H 0.25814 0.79703 0.89001 0.0
H254 H 0.28541 0.719 0.88497 0.0
H255 H 0.30206 0.67675 0.92841 0.0
C256 C 0.31046 0.65917 0.98301 0.0
C257 C 0.29331 0.70603 0.98668 0.0
C258 C 0.284 0.73041 0.96095 0.0
C259 C 0.26917 0.7757 0.96382 0.0
C260 C 0.25975 0.79908 0.93773 0.0
C261 C 0.26548 0.77862 0.90967 0.0
C262 C 0.28074 0.73468 0.90684 0.0
C263 C 0.29004 0.71074 0.93205 0.0
H264 H 0.95252 0.85956 0.00525 0.0
C265 C 0.93551 0.89186 0.0082 0.0
H266 H 0.8647 0.92281 0.01856 0.0
H267 H 0.75905 0.70586 0.98213 0.0
H268 H 0.78175 0.72642 0.93142 0.0
H269 H 0.83353 0.80247 0.92069 0.0
H270 H 0.86339 0.8583 0.96067 0.0
C271 C 0.88189 0.89088 0.01424 0.0
C272 C 0.84692 0.84654 0.02012 0.0
C273 C 0.82868 0.81481 0.99648 0.0
C274 C 0.79763 0.77142 0.00262 0.0
C275 C 0.78158 0.73972 0.97868 0.0
C276 C 0.79454 0.75101 0.94947 0.0
C277 C 0.82379 0.7938 0.94343 0.0
C278 C 0.84082 0.82546 0.96657 0.0
H279 H 0.67911 0.7263 0.02069 0.0
C280 C 0.69963 0.70364 0.03406 0.0
H281 H 0.77539 0.69215 0.05234 0.0
H282 H 0.87488 0.9001 0.07048 0.0
H283 H 0.85064 0.88042 0.12107 0.0
H284 H 0.79519 0.80591 0.13175 0.0
H285 H 0.76374 0.75063 0.09189 0.0
C286 C 0.75366 0.71457 0.03953 0.0
C287 C 0.78412 0.76036 0.03238 0.0
C288 C 0.80156 0.79255 0.05597 0.0
C289 C 0.83296 0.83569 0.04982 0.0
C290 C 0.85051 0.86694 0.07384 0.0
C291 C 0.83695 0.85609 0.10303 0.0
C292 C 0.80577 0.81413 0.10903 0.0
C293 C 0.78812 0.78264 0.0859 0.0
H294 H 0.88982 0.18039 0.99667 0.0
C295 C 0.86741 0.15768 0.01248 0.0
H296 H 0.79689 0.14705 0.03981 0.0
H297 H 0.74957 0.35346 0.04503 0.0
H298 H 0.77978 0.34535 0.0955 0.0
H299 H 0.81808 0.27555 0.10955 0.0
H300 H 0.82658 0.2135 0.07321 0.0
C301 C 0.81946 0.16824 0.0234 0.0
C302 C 0.79652 0.21033 0.01464 0.0
C303 C 0.7912 0.24607 0.03626 0.0
C304 C 0.76867 0.28618 0.02825 0.0
C305 C 0.7653 0.32186 0.05007 0.0
C306 C 0.78278 0.31777 0.07909 0.0
C307 C 0.80437 0.27848 0.08699 0.0
C308 C 0.80885 0.24303 0.06591 0.0
H309 H 0.6554 0.31764 0.01521 0.0
C310 C 0.6765 0.33913 0.99836 0.0
H311 H 0.74967 0.35321 0.97343 0.0
H312 H 0.79488 0.14604 0.9684 0.0
H313 H 0.7651 0.15444 0.91803 0.0
H314 H 0.72879 0.22503 0.9038 0.0
H315 H 0.7216 0.28741 0.93996 0.0
C316 C 0.72718 0.33177 0.98979 0.0
C317 C 0.75102 0.29025 0.99869 0.0
C318 C 0.75634 0.25455 0.97705 0.0
C319 C 0.77838 0.21426 0.98511 0.0
C320 C 0.78043 0.17815 0.96336 0.0
C321 C 0.76298 0.18232 0.93436 0.0
C322 C 0.74246 0.22202 0.92635 0.0
C323 C 0.73877 0.25767 0.94736 0.0
H324 H 0.57217 0.67242 0.5215 0.0
C325 C 0.58986 0.64033 0.51964 0.0
H326 H 0.66321 0.61009 0.51874 0.0
H327 H 0.75285 0.82657 0.48488 0.0
H328 H 0.71512 0.80315 0.436 0.0
H329 H 0.66212 0.72585 0.42682 0.0
H330 H 0.64628 0.67154 0.4665 0.0
C331 C 0.64462 0.64175 0.51963 0.0
C332 C 0.68091 0.68648 0.52409 0.0
C333 C 0.69057 0.71739 0.50054 0.0
C334 C 0.72174 0.76172 0.50572 0.0
C335 C 0.72983 0.79236 0.48203 0.0
C336 C 0.7084 0.77935 0.4539 0.0
C337 C 0.67851 0.73583 0.44874 0.0
C338 C 0.66957 0.70506 0.47171 0.0
H339 H 0.84665 0.81129 0.52231 0.0
C340 C 0.82466 0.83491 0.53534 0.0
H341 H 0.74736 0.84547 0.55328 0.0
H342 H 0.6728 0.63407 0.57343 0.0
H343 H 0.71212 0.65678 0.62195 0.0
H344 H 0.76652 0.73352 0.63092 0.0
H345 H 0.78188 0.78802 0.59143 0.0
C346 C 0.77104 0.82241 0.54101 0.0
C347 C 0.7434 0.77471 0.53435 0.0
C348 C 0.73537 0.74311 0.55761 0.0
C349 C 0.70426 0.69885 0.55243 0.0
C350 C 0.69627 0.66812 0.57614 0.0
C351 C 0.71861 0.68071 0.6041 0.0
C352 C 0.7492 0.72392 0.60915 0.0
C353 C 0.75761 0.7549 0.58629 0.0
H354 H 0.62624 0.34011 0.51677 0.0
C355 C 0.65665 0.36988 0.51266 0.0
H356 H 0.74017 0.39317 0.50422 0.0
H357 H 0.7697 0.1841 0.54578 0.0
H358 H 0.74645 0.2109 0.59536 0.0
H359 H 0.71451 0.28679 0.60363 0.0
H360 H 0.70512 0.33624 0.56236 0.0
C361 C 0.70936 0.36383 0.50836 0.0
C362 C 0.72626 0.31711 0.50388 0.0
C363 C 0.73207 0.28894 0.52828 0.0
C364 C 0.7516 0.24554 0.52358 0.0
C365 C 0.75606 0.21769 0.54821 0.0
C366 C 0.74269 0.2326 0.57674 0.0
C367 C 0.72462 0.27532 0.5814 0.0
C368 C 0.71933 0.30333 0.55753 0.0
H369 H 0.8628 0.20691 0.51034 0.0
C370 C 0.83899 0.1807 0.49611 0.0
H371 H 0.76229 0.15993 0.47526 0.0
H372 H 0.71786 0.36201 0.45216 0.0
H373 H 0.74184 0.33565 0.40277 0.0
H374 H 0.77737 0.26125 0.39472 0.0
H375 H 0.78897 0.21277 0.43596 0.0
C376 C 0.78718 0.18597 0.48904 0.0
C377 C 0.76587 0.2308 0.49457 0.0
C378 C 0.75936 0.2588 0.47014 0.0
C379 C 0.73956 0.30194 0.47481 0.0
C380 C 0.73334 0.32914 0.44998 0.0
C381 C 0.74683 0.31439 0.42145 0.0
C382 C 0.76675 0.2725 0.41692 0.0
C383 C 0.77307 0.24492 0.44086 0.0
H384 H 0.34005 0.40579 0.51764 0.0
C385 C 0.38309 0.4024 0.51414 0.0
H386 H 0.44169 0.35609 0.51021 0.0
H387 H 0.29544 0.20969 0.58786 0.0
H388 H 0.37543 0.23146 0.6192 0.0
H389 H 0.44848 0.29333 0.60503 0.0
H390 H 0.44217 0.33361 0.55945 0.0
C391 C 0.39862 0.36007 0.51266 0.0
C392 C 0.3583 0.31864 0.51886 0.0
C393 C 0.36304 0.2951 0.54544 0.0
C394 C 0.32051 0.25996 0.55383 0.0
C395 C 0.32611 0.23718 0.58063 0.0
C396 C 0.3719 0.24921 0.59879 0.0
C397 C 0.41306 0.28399 0.5908 0.0
C398 C 0.40889 0.30683 0.56451 0.0
H399 H 0.22703 0.16351 0.51519 0.0
C400 C 0.20878 0.17475 0.53577 0.0
H401 H 0.20674 0.22955 0.56759 0.0
H402 H 0.3418 0.35075 0.46391 0.0
H403 H 0.26134 0.32977 0.43268 0.0
H404 H 0.18467 0.27249 0.44869 0.0
H405 H 0.18831 0.23526 0.49565 0.0
C406 C 0.22556 0.21746 0.54745 0.0
C407 C 0.27316 0.24861 0.53575 0.0
C408 C 0.26965 0.27058 0.50843 0.0
C409 C 0.31285 0.30502 0.49972 0.0
C410 C 0.30925 0.32554 0.47198 0.0
C411 C 0.26348 0.31363 0.45379 0.0
C412 C 0.22039 0.28127 0.46277 0.0
C413 C 0.22313 0.25998 0.48977 0.0
H414 H 0.33791 0.68756 0.49141 0.0
C415 C 0.31725 0.66867 0.50954 0.0
H416 H 0.25389 0.66777 0.54156 0.0
H417 H 0.23432 0.88061 0.53449 0.0
H418 H 0.2769 0.879 0.58281 0.0
H419 H 0.30898 0.80792 0.59955 0.0
H420 H 0.29893 0.73806 0.56801 0.0
C421 C 0.27373 0.6845 0.52251 0.0
C422 C 0.25321 0.72699 0.51249 0.0
C423 C 0.25847 0.7673 0.53142 0.0
C424 C 0.23942 0.80819 0.52191 0.0
C425 C 0.24694 0.84836 0.54085 0.0
C426 C 0.2716 0.84798 0.56859 0.0
C427 C 0.2897 0.80797 0.57801 0.0
C428 C 0.28353 0.76806 0.5597 0.0
H429 H 0.13091 0.85105 0.51386 0.0
C430 C 0.15003 0.86663 0.49417 0.0
H431 H 0.21576 0.86643 0.46367 0.0
H432 H 0.23125 0.65429 0.47198 0.0
H433 H 0.18853 0.65589 0.4238 0.0
H434 H 0.15726 0.72717 0.40689 0.0
H435 H 0.16817 0.79715 0.43817 0.0
C436 C 0.19516 0.851 0.48295 0.0
C437 C 0.21447 0.80844 0.49364 0.0
C438 C 0.20878 0.76801 0.47481 0.0
C439 C 0.22762 0.7271 0.48435 0.0
C440 C 0.21928 0.68673 0.46555 0.0
C441 C 0.1944 0.68705 0.43788 0.0
C442 C 0.17674 0.72715 0.42838 0.0
C443 C 0.18347 0.76717 0.44656 0.0
H444 H 0.08126 0.97825 0.10777 0.0
C445 C 0.05085 0.99793 0.09912 0.0
H446 H 0.98767 0.03808 0.1097 0.0
H447 H 0.99276 0.92098 0.23219 0.0
H448 H 0.95361 0.8545 0.20156 0.0
H449 H 0.94416 0.86025 0.14739 0.0
H450 H 0.97404 0.93236 0.12346 0.0
C451 C 0.01722 0.0172 0.11793 0.0
C452 C 0.02172 0.01354 0.15058 0.0
C453 C 1.00367 0.97114 0.16417 0.0
C454 C 0.00838 0.96801 0.19545 0.0
C455 C 0.99009 0.92527 0.20851 0.0
C456 C 0.96745 0.88687 0.1912 0.0
C457 C 0.96218 0.89009 0.16069 0.0
C458 C 0.97983 0.93166 0.14722 0.0
H459 H 0.96971 0.04312 0.25406 0.0
C460 C 0.99923 0.02382 0.26404 0.0
H461 H 0.06418 0.98458 0.25426 0.0
H462 H 0.05912 0.10006 0.13144 0.0
H463 H 0.09761 0.16667 0.16206 0.0
H464 H 0.10677 0.16101 0.21627 0.0
H465 H 0.07724 0.08883 0.24019 0.0
C466 C 0.03368 0.00416 0.24585 0.0
C467 C 0.03011 0.00746 0.21308 0.0
C468 C 0.04813 0.04988 0.19947 0.0
C469 C 0.04348 0.05299 0.16819 0.0
C470 C 0.06164 0.09577 0.15513 0.0
C471 C 0.08392 0.13426 0.17243 0.0
C472 C 0.08903 0.13109 0.20295 0.0
C473 C 0.07162 0.08947 0.21642 0.0
H474 H 0.05879 0.00681 0.90949 0.0
C475 C 0.02851 0.02167 0.92308 0.0
H476 H 0.96024 0.05839 0.92313 0.0
H477 H 0.02075 0.14233 0.79749 0.0
H478 H 0.03465 0.21107 0.83007 0.0
H479 H 0.02832 0.20501 0.88449 0.0
H480 H 0.00774 0.13027 0.90668 0.0
C481 C 0.9899 0.04217 0.90992 0.0
C482 C 0.98929 0.04588 0.87708 0.0
C483 C 1.00126 0.08987 0.86453 0.0
C484 C 0.00554 0.09333 0.83318 0.0
C485 C 0.01751 0.1377 0.82118 0.0
C486 C 0.02552 0.17744 0.83962 0.0
C487 C 0.02191 0.17403 0.87026 0.0
C488 C 0.01002 0.13088 0.8827 0.0
H489 H 0.92164 0.03516 0.77256 0.0
C490 C 0.96183 0.04682 0.76325 0.0
H491 H 0.04584 0.06745 0.77356 0.0
H492 H 0.95625 0.95707 0.89366 0.0
H493 H 0.94439 0.88817 0.86129 0.0
H494 H 0.95921 0.89351 0.80725 0.0
H495 H 0.98475 0.96775 0.78525 0.0
C496 C 0.00477 0.05668 0.78184 0.0
C497 C 0.99793 0.05283 0.81449 0.0
C498 C 0.98512 0.00881 0.82704 0.0
C499 C 0.97935 0.00548 0.85832 0.0
C500 C 0.96354 0.9614 0.87017 0.0
C501 C 0.95619 0.92158 0.85182 0.0
C502 C 0.96432 0.92461 0.82139 0.0
C503 C 0.97866 0.96757 0.80903 0.0
H504 H 0.46605 0.53585 0.61672 0.0
C505 C 0.49303 0.51556 0.60433 0.0
H506 H 0.55046 0.46824 0.60734 0.0
H507 H 0.56184 0.57129 0.74144 0.0
H508 H 0.61775 0.63382 0.71704 0.0
H509 H 0.63099 0.63085 0.6627 0.0
H510 H 0.5884 0.56523 0.63244 0.0
C511 C 0.52457 0.49017 0.61911 0.0
C512 C 0.52177 0.4896 0.65203 0.0
C513 C 0.54725 0.52799 0.6694 0.0
C514 C 0.53967 0.5296 0.7007 0.0
C515 C 0.56576 0.56838 0.71753 0.0
C516 C 0.59813 0.60448 0.70382 0.0
C517 C 0.60558 0.60282 0.67323 0.0
C518 C 0.58067 0.56506 0.65611 0.0
H519 H 0.54264 0.44164 0.75567 0.0
C520 C 0.51915 0.46731 0.76549 0.0
H521 H 0.47751 0.52385 0.75599 0.0
H522 H 0.47072 0.40974 0.62514 0.0
H523 H 0.414 0.34722 0.64924 0.0
H524 H 0.39802 0.351 0.70333 0.0
H525 H 0.43874 0.41703 0.73367 0.0
C526 C 0.49783 0.49557 0.74724 0.0
C527 C 0.50688 0.49266 0.71457 0.0
C528 C 0.48216 0.45382 0.69717 0.0
C529 C 0.49035 0.45205 0.66589 0.0
C530 C 0.46544 0.41293 0.64897 0.0
C531 C 0.43283 0.37682 0.6625 0.0
C532 C 0.42391 0.37892 0.69297 0.0
C533 C 0.44793 0.41694 0.71018 0.0
H534 H 0.44821 0.54297 0.41734 0.0
C535 C 0.48099 0.52713 0.42713 0.0
H536 H 0.55057 0.49345 0.41891 0.0
H537 H 0.48135 0.42479 0.28831 0.0
H538 H 0.46922 0.35255 0.3139 0.0
H539 H 0.47715 0.35202 0.36845 0.0
H540 H 0.49756 0.42368 0.39773 0.0
C541 C 0.51842 0.51044 0.40948 0.0
C542 C 0.51455 0.51121 0.3766 0.0
C543 C 0.50233 0.46899 0.35987 0.0
C544 C 0.49705 0.46933 0.32848 0.0
C545 C 0.48526 0.4266 0.31225 0.0
C546 C 0.47827 0.38485 0.32665 0.0
C547 C 0.48279 0.38455 0.35736 0.0
C548 C 0.49461 0.42598 0.37389 0.0
H549 H 0.58052 0.53623 0.27341 0.0
C550 C 0.54094 0.52366 0.26331 0.0
H551 H 0.45727 0.49981 0.27197 0.0
H552 H 0.5453 0.59792 0.40164 0.0
H553 H 0.55502 0.67027 0.37626 0.0
H554 H 0.53927 0.67122 0.32225 0.0
H555 H 0.5148 0.59979 0.29325 0.0
C556 C 0.49769 0.51167 0.2811 0.0
C557 C 0.5039 0.51188 0.31391 0.0
C558 C 0.51606 0.55417 0.33065 0.0
C559 C 0.52262 0.55376 0.36198 0.0
C560 C 0.53767 0.59629 0.37797 0.0
C561 C 0.54374 0.63809 0.36365 0.0
C562 C 0.53507 0.63861 0.33323 0.0
C563 C 0.52135 0.59728 0.31682 0.0
loop_
_geom_bond_atom_site_label_1
_geom_bond_atom_site_label_2
_geom_bond_distance
_geom_bond_site_symmetry_2
_ccdc_geom_bond_type
Co0 N5 2.057 . S
Co0 O17 2.021 . S
Co0 O20 2.062 1_455 S
Co0 O24 2.117 1_554 S
Co0 O25 2.020 1_565 S
C1 O21 1.259 1_455 S
C1 O24 1.258 1_545 S
Co2 N11 2.057 . S
Co2 O18 2.117 . S
Co2 O19 2.020 1_545 S
Co2 O21 2.021 1_554 S
Co2 O26 2.062 1_655 S
C3 N5 1.316 . S
C3 N6 1.347 . S
C3 H8 0.931 . S
C4 N5 1.375 1_556 S
C4 C7 1.350 . S
C4 H9 0.930 . S
N5 Co0 2.057 . S
N5 C3 1.316 . S
N5 C4 1.375 1_554 S
N6 C3 1.347 . S
N6 C7 1.373 1_554 S
C7 C4 1.350 . S
C7 N6 1.373 1_556 S
C7 H28 0.931 . S
H8 C3 0.931 . S
H9 C4 0.930 . S
C10 O17 1.259 1_545 S
C10 O18 1.258 1_455 S
N11 Co2 2.057 . S
N11 C12 1.316 . S
N11 C13 1.375 . S
C12 N11 1.316 . S
C12 N14 1.347 . S
C12 H23 0.931 1_554 S
C13 N11 1.375 . S
C13 C15 1.350 . S
C13 H22 0.930 . S
N14 C12 1.347 . S
N14 C15 1.373 . S
C15 C13 1.350 . S
C15 N14 1.373 . S
C15 H29 0.931 . S
C16 O19 1.256 . S
C16 O20 1.255 . S
O17 Co0 2.021 . S
O17 C10 1.259 1_565 S
O18 Co2 2.117 . S
O18 C10 1.258 1_655 S
O19 Co2 2.020 1_565 S
O19 C16 1.256 . S
O20 Co0 2.062 1_655 S
O20 C16 1.255 . S
O21 C1 1.259 1_655 S
O21 Co2 2.021 1_556 S
H22 C13 0.930 . S
H23 C12 0.931 1_556 S
O24 Co0 2.117 1_556 S
O24 C1 1.258 1_565 S
O25 Co0 2.020 1_545 S
O25 C27 1.256 . S
O26 Co2 2.062 1_455 S
O26 C27 1.255 . S
C27 O25 1.256 . S
C27 O26 1.255 . S
H28 C7 0.931 . S
H29 C15 0.931 . S
Co30 N35 2.057 . S
Co30 O47 2.021 . S
Co30 O50 2.062 . S
Co30 O54 2.117 . S
Co30 O55 2.020 . S
C31 O51 1.259 . S
C31 O54 1.258 . S
Co32 N41 2.057 . S
Co32 O48 2.117 . S
Co32 O49 2.020 . S
Co32 O51 2.021 . S
Co32 O56 2.062 . S
C33 N35 1.316 . S
C33 N36 1.347 . S
C33 H38 0.931 . S
C34 N35 1.375 . S
C34 C37 1.350 . S
C34 H39 0.930 . S
N35 Co30 2.057 . S
N35 C33 1.316 . S
N35 C34 1.375 . S
N36 C33 1.347 . S
N36 C37 1.373 . S
C37 C34 1.350 . S
C37 N36 1.373 . S
C37 H58 0.931 . S
H38 C33 0.931 . S
H39 C34 0.930 . S
C40 O47 1.259 . S
C40 O48 1.258 . S
N41 Co32 2.057 . S
N41 C42 1.316 . S
N41 C43 1.375 . S
C42 N41 1.316 . S
C42 N44 1.347 . S
C42 H53 0.931 . S
C43 N41 1.375 . S
C43 C45 1.350 . S
C43 H52 0.930 . S
N44 C42 1.347 . S
N44 C45 1.373 . S
C45 C43 1.350 . S
C45 N44 1.373 . S
C45 H59 0.931 . S
C46 O49 1.256 . S
C46 O50 1.255 . S
O47 Co30 2.021 . S
O47 C40 1.259 . S
O48 Co32 2.117 . S
O48 C40 1.258 . S
O49 Co32 2.020 . S
O49 C46 1.256 . S
O50 Co30 2.062 . S
O50 C46 1.255 . S
O51 C31 1.259 . S
O51 Co32 2.021 . S
H52 C43 0.930 . S
H53 C42 0.931 . S
O54 Co30 2.117 . S
O54 C31 1.258 . S
O55 Co30 2.020 . S
O55 C57 1.256 . S
O56 Co32 2.062 . S
O56 C57 1.255 . S
C57 O55 1.256 . S
C57 O56 1.255 . S
H58 C37 0.931 . S
H59 C45 0.931 . S
C60 C61 1.384 . S
C60 H73 0.947 . S
C60 C95 1.382 . S
C61 C60 1.384 . S
C61 C62 1.378 . S
C62 C61 1.378 . S
C62 C63 1.378 . S
C62 H74 0.952 . S
C63 C62 1.378 . S
C63 H75 0.950 . S
C63 C94 1.383 . S
H64 C83 0.947 . S
H65 C84 0.946 . S
H66 C86 0.953 . S
H67 C87 0.945 . S
H68 C89 0.952 . S
H69 C90 0.949 . S
H70 C92 0.950 . S
H71 C93 0.948 . S
H72 C95 0.951 . S
H73 C60 0.947 . S
H74 C62 0.952 . S
H75 C63 0.950 . S
N76 C79 1.382 1_545 S
N76 C81 1.363 1_455 S
N77 C79 1.371 . S
N77 C80 1.372 1_565 S
N78 C80 1.361 1_655 S
N78 C81 1.377 . S
C79 N76 1.382 1_565 S
C79 N77 1.371 . S
C79 C82 1.480 . S
C80 N77 1.372 1_545 S
C80 N78 1.361 1_455 S
C80 C88 1.457 . S
C81 N76 1.363 1_655 S
C81 N78 1.377 . S
C81 C94 1.479 . S
C82 C79 1.480 . S
C82 C83 1.383 . S
C82 C87 1.385 . S
C83 H64 0.947 . S
C83 C82 1.383 . S
C83 C84 1.388 . S
C84 H65 0.946 . S
C84 C83 1.388 . S
C84 C85 1.384 . S
C85 C84 1.384 . S
C85 C86 1.377 . S
C86 H66 0.953 . S
C86 C85 1.377 . S
C86 C87 1.369 . S
C87 H67 0.945 . S
C87 C82 1.385 . S
C87 C86 1.369 . S
C88 C80 1.457 . S
C88 C89 1.372 1_545 S
C88 C93 1.364 1_455 S
C89 H68 0.952 . S
C89 C88 1.372 1_565 S
C89 C90 1.389 . S
C90 H69 0.949 . S
C90 C89 1.389 . S
C90 C91 1.387 1_565 S
C91 C90 1.387 1_545 S
C91 C92 1.372 1_455 S
C92 H70 0.950 . S
C92 C91 1.372 1_655 S
C92 C93 1.379 . S
C93 H71 0.948 . S
C93 C88 1.364 1_655 S
C93 C92 1.379 . S
C94 C63 1.383 . S
C94 C81 1.479 . S
C94 C95 1.398 . S
C95 C60 1.382 . S
C95 H72 0.951 . S
C95 C94 1.398 . S
C96 C97 1.384 . S
C96 H109 0.947 . S
C96 C131 1.382 . S
C97 C96 1.384 . S
C97 C98 1.378 . S
C98 C97 1.378 . S
C98 C99 1.378 . S
C98 H110 0.952 . S
C99 C98 1.378 . S
C99 H111 0.950 . S
C99 C130 1.383 . S
H100 C119 0.947 . S
H101 C120 0.946 . S
H102 C122 0.953 . S
H103 C123 0.945 . S
H104 C125 0.952 . S
H105 C126 0.949 . S
H106 C128 0.950 . S
H107 C129 0.948 . S
H108 C131 0.951 . S
H109 C96 0.947 . S
H110 C98 0.952 . S
H111 C99 0.950 . S
N112 C115 1.382 . S
N112 C117 1.363 1_445 S
N113 C115 1.371 . S
N113 C116 1.372 . S
N114 C116 1.361 1_665 S
N114 C117 1.377 . S
C115 N112 1.382 . S
C115 N113 1.371 . S
C115 C118 1.480 . S
C116 N113 1.372 . S
C116 N114 1.361 1_445 S
C116 C124 1.457 . S
C117 N112 1.363 1_665 S
C117 N114 1.377 . S
C117 C130 1.479 . S
C118 C115 1.480 . S
C118 C119 1.383 . S
C118 C123 1.385 . S
C119 H100 0.947 . S
C119 C118 1.383 . S
C119 C120 1.388 . S
C120 H101 0.946 . S
C120 C119 1.388 . S
C120 C121 1.384 . S
C121 C120 1.384 . S
C121 C122 1.377 . S
C122 H102 0.953 . S
C122 C121 1.377 . S
C122 C123 1.369 . S
C123 H103 0.945 . S
C123 C118 1.385 . S
C123 C122 1.369 . S
C124 C116 1.457 . S
C124 C125 1.372 . S
C124 C129 1.364 1_445 S
C125 H104 0.952 . S
C125 C124 1.372 . S
C125 C126 1.389 . S
C126 H105 0.949 . S
C126 C125 1.389 . S
C126 C127 1.387 . S
C127 C126 1.387 . S
C127 C128 1.372 1_445 S
C128 H106 0.950 . S
C128 C127 1.372 1_665 S
C128 C129 1.379 . S
C129 H107 0.948 . S
C129 C124 1.364 1_665 S
C129 C128 1.379 . S
C130 C99 1.383 . S
C130 C117 1.479 . S
C130 C131 1.398 . S
C131 C96 1.382 . S
C131 H108 0.951 . S
C131 C130 1.398 . S
C132 C133 1.384 . S
C132 H145 0.947 . S
C132 C167 1.382 . S
C133 C132 1.384 . S
C133 C134 1.378 1_556 S
C134 C133 1.378 1_554 S
C134 C135 1.378 1_554 S
C134 H146 0.952 . S
C135 C134 1.378 1_556 S
C135 H147 0.953 . S
C135 C166 1.383 . S
H136 C155 0.947 . S
H137 C156 0.945 . S
H138 C158 0.953 . S
H139 C159 0.945 . S
H140 C161 0.952 . S
H141 C162 0.949 . S
H142 C164 0.950 . S
H143 C165 0.948 . S
H144 C167 0.951 . S
H145 C132 0.947 . S
H146 C134 0.952 . S
H147 C135 0.953 . S
N148 C151 1.382 . S
N148 C153 1.363 . S
N149 C151 1.371 . S
N149 C152 1.372 . S
N150 C152 1.361 . S
N150 C153 1.377 . S
C151 N148 1.382 . S
C151 N149 1.371 . S
C151 C154 1.480 . S
C152 N149 1.372 . S
C152 N150 1.361 . S
C152 C160 1.457 . S
C153 N148 1.363 . S
C153 N150 1.377 . S
C153 C166 1.479 . S
C154 C151 1.480 . S
C154 C155 1.383 . S
C154 C159 1.385 . S
C155 H136 0.947 . S
C155 C154 1.383 . S
C155 C156 1.388 1_556 S
C156 H137 0.945 . S
C156 C155 1.388 1_554 S
C156 C157 1.384 1_554 S
C157 C156 1.384 1_556 S
C157 C158 1.377 . S
C158 H138 0.953 . S
C158 C157 1.377 . S
C158 C159 1.369 . S
C159 H139 0.945 . S
C159 C154 1.385 . S
C159 C158 1.369 . S
C160 C152 1.457 . S
C160 C161 1.372 . S
C160 C165 1.364 . S
C161 H140 0.952 . S
C161 C160 1.372 . S
C161 C162 1.389 . S
C162 H141 0.949 . S
C162 C161 1.389 . S
C162 C163 1.387 . S
C163 C162 1.387 . S
C163 C164 1.372 . S
C164 H142 0.950 . S
C164 C163 1.372 . S
C164 C165 1.379 . S
C165 H143 0.948 . S
C165 C160 1.364 . S
C165 C164 1.379 . S
C166 C135 1.383 . S
C166 C153 1.479 . S
C166 C167 1.398 . S
C167 C132 1.382 . S
C167 H144 0.951 . S
C167 C166 1.398 . S
C168 C169 1.384 . S
C168 H181 0.947 . S
C168 C203 1.382 . S
C169 C168 1.384 . S
C169 C170 1.378 . S
C170 C169 1.378 . S
C170 C171 1.378 . S
C170 H182 0.952 . S
C171 C170 1.378 . S
C171 H183 0.950 . S
C171 C202 1.383 . S
H172 C191 0.947 . S
H173 C192 0.946 . S
H174 C194 0.953 . S
H175 C195 0.945 . S
H176 C197 0.952 . S
H177 C198 0.949 . S
H178 C200 0.950 . S
H179 C201 0.948 . S
H180 C203 0.951 . S
H181 C168 0.947 . S
H182 C170 0.952 . S
H183 C171 0.950 . S
N184 C187 1.382 . S
N184 C189 1.363 . S
N185 C187 1.371 . S
N185 C188 1.372 . S
N186 C188 1.361 . S
N186 C189 1.377 . S
C187 N184 1.382 . S
C187 N185 1.371 . S
C187 C190 1.480 . S
C188 N185 1.372 . S
C188 N186 1.361 . S
C188 C196 1.457 . S
C189 N184 1.363 . S
C189 N186 1.377 . S
C189 C202 1.479 . S
C190 C187 1.480 . S
C190 C191 1.383 . S
C190 C195 1.385 . S
C191 H172 0.947 . S
C191 C190 1.383 . S
C191 C192 1.388 . S
C192 H173 0.946 . S
C192 C191 1.388 . S
C192 C193 1.384 . S
C193 C192 1.384 . S
C193 C194 1.377 . S
C194 H174 0.953 . S
C194 C193 1.377 . S
C194 C195 1.369 . S
C195 H175 0.945 . S
C195 C190 1.385 . S
C195 C194 1.369 . S
C196 C188 1.457 . S
C196 C197 1.372 . S
C196 C201 1.364 . S
C197 H176 0.952 . S
C197 C196 1.372 . S
C197 C198 1.389 . S
C198 H177 0.949 . S
C198 C197 1.389 . S
C198 C199 1.387 . S
C199 C198 1.387 . S
C199 C200 1.372 . S
C200 H178 0.950 . S
C200 C199 1.372 . S
C200 C201 1.379 . S
C201 H179 0.948 . S
C201 C196 1.364 . S
C201 C200 1.379 . S
C202 C171 1.383 . S
C202 C189 1.479 . S
C202 C203 1.398 . S
C203 C168 1.382 . S
C203 H180 0.951 . S
C203 C202 1.398 . S
H204 C205 0.951 . S
C205 H204 0.951 . S
C205 C211 1.265 . S
H206 C211 0.950 . S
H207 C215 0.949 . S
H208 C216 0.950 . S
H209 C217 0.951 . S
H210 C218 0.951 . S
C211 C205 1.265 . S
C211 H206 0.950 . S
C211 C212 1.478 . S
C212 C211 1.478 . S
C212 C213 1.397 . S
C212 C229 1.382 1_554 S
C213 C212 1.397 . S
C213 C214 1.438 . S
C213 C218 1.429 . S
C214 C213 1.438 . S
C214 C215 1.428 . S
C214 C227 1.394 . S
C215 H207 0.949 . S
C215 C214 1.428 . S
C215 C216 1.345 . S
C216 H208 0.950 . S
C216 C215 1.345 . S
C216 C217 1.424 . S
C217 H209 0.951 . S
C217 C216 1.424 . S
C217 C218 1.347 . S
C218 H210 0.951 . S
C218 C213 1.429 . S
C218 C217 1.347 . S
H219 C220 0.951 . S
C220 H219 0.951 . S
C220 C226 1.265 . S
H221 C226 0.950 . S
H222 C230 0.949 . S
H223 C231 0.950 . S
H224 C232 0.951 . S
H225 C233 0.951 . S
C226 C220 1.265 . S
C226 H221 0.950 . S
C226 C227 1.478 . S
C227 C214 1.394 . S
C227 C226 1.478 . S
C227 C228 1.397 . S
C228 C227 1.397 . S
C228 C229 1.437 1_554 S
C228 C233 1.429 1_554 S
C229 C212 1.382 1_556 S
C229 C228 1.437 1_556 S
C229 C230 1.441 . S
C230 H222 0.949 . S
C230 C229 1.441 . S
C230 C231 1.345 . S
C231 H223 0.950 . S
C231 C230 1.345 . S
C231 C232 1.424 . S
C232 H224 0.951 . S
C232 C231 1.424 . S
C232 C233 1.347 . S
C233 H225 0.951 . S
C233 C228 1.429 1_556 S
C233 C232 1.347 . S
H234 C235 0.951 . S
C235 H234 0.951 . S
C235 C241 1.265 . S
H236 C241 0.950 . S
H237 C245 0.949 . S
H238 C246 0.950 . S
H239 C247 0.951 . S
H240 C248 0.951 . S
C241 C235 1.265 . S
C241 H236 0.950 . S
C241 C242 1.478 . S
C242 C241 1.478 . S
C242 C243 1.397 . S
C242 C259 1.394 1_554 S
C243 C242 1.397 . S
C243 C244 1.438 . S
C243 C248 1.429 . S
C244 C243 1.438 . S
C244 C245 1.428 . S
C244 C257 1.394 . S
C245 H237 0.949 . S
C245 C244 1.428 . S
C245 C246 1.345 . S
C246 H238 0.950 . S
C246 C245 1.345 . S
C246 C247 1.424 . S
C247 H239 0.951 . S
C247 C246 1.424 . S
C247 C248 1.347 . S
C248 H240 0.951 . S
C248 C243 1.429 . S
C248 C247 1.347 . S
H249 C250 0.952 . S
C250 H249 0.952 . S
C250 C256 1.267 . S
H251 C256 0.952 . S
H252 C260 0.949 . S
H253 C261 0.950 . S
H254 C262 0.951 . S
H255 C263 0.951 . S
C256 C250 1.267 . S
C256 H251 0.952 . S
C256 C257 1.476 1_556 S
C257 C244 1.394 . S
C257 C256 1.476 1_554 S
C257 C258 1.397 1_554 S
C258 C257 1.397 1_556 S
C258 C259 1.438 . S
C258 C263 1.429 . S
C259 C242 1.394 1_556 S
C259 C258 1.438 . S
C259 C260 1.428 . S
C260 H252 0.949 . S
C260 C259 1.428 . S
C260 C261 1.345 . S
C261 H253 0.950 . S
C261 C260 1.345 . S
C261 C262 1.424 . S
C262 H254 0.951 . S
C262 C261 1.424 . S
C262 C263 1.347 . S
C263 H255 0.951 . S
C263 C258 1.429 . S
C263 C262 1.347 . S
H264 C265 0.951 . S
C265 H264 0.951 . S
C265 C271 1.265 . S
H266 C271 0.950 . S
H267 C275 0.949 . S
H268 C276 0.950 . S
H269 C277 0.951 . S
H270 C278 0.951 . S
C271 C265 1.265 . S
C271 H266 0.950 . S
C271 C272 1.478 . S
C272 C271 1.478 . S
C272 C273 1.397 1_554 S
C272 C289 1.394 . S
C273 C272 1.397 1_556 S
C273 C274 1.438 1_556 S
C273 C278 1.429 . S
C274 C273 1.438 1_554 S
C274 C275 1.428 1_554 S
C274 C287 1.394 . S
C275 H267 0.949 . S
C275 C274 1.428 1_556 S
C275 C276 1.345 . S
C276 H268 0.950 . S
C276 C275 1.345 . S
C276 C277 1.424 . S
C277 H269 0.951 . S
C277 C276 1.424 . S
C277 C278 1.347 . S
C278 H270 0.951 . S
C278 C273 1.429 . S
C278 C277 1.347 . S
H279 C280 0.951 . S
C280 H279 0.951 . S
C280 C286 1.265 . S
H281 C286 0.950 . S
H282 C290 0.949 . S
H283 C291 0.950 . S
H284 C292 0.951 . S
H285 C293 0.951 . S
C286 C280 1.265 . S
C286 H281 0.950 . S
C286 C287 1.478 . S
C287 C274 1.394 . S
C287 C286 1.478 . S
C287 C288 1.397 . S
C288 C287 1.397 . S
C288 C289 1.438 . S
C288 C293 1.429 . S
C289 C272 1.394 . S
C289 C288 1.438 . S
C289 C290 1.428 . S
C290 H282 0.949 . S
C290 C289 1.428 . S
C290 C291 1.345 . S
C291 H283 0.950 . S
C291 C290 1.345 . S
C291 C292 1.424 . S
C292 H284 0.951 . S
C292 C291 1.424 . S
C292 C293 1.347 . S
C293 H285 0.951 . S
C293 C288 1.429 . S
C293 C292 1.347 . S
H294 C295 0.951 . S
C295 H294 0.951 . S
C295 C301 1.265 . S
H296 C301 0.950 . S
H297 C305 0.949 . S
H298 C306 0.950 . S
H299 C307 0.951 . S
H300 C308 0.951 . S
C301 C295 1.265 . S
C301 H296 0.950 . S
C301 C302 1.478 . S
C302 C301 1.478 . S
C302 C303 1.397 . S
C302 C319 1.394 1_554 S
C303 C302 1.397 . S
C303 C304 1.438 . S
C303 C308 1.429 . S
C304 C303 1.438 . S
C304 C305 1.428 . S
C304 C317 1.394 1_554 S
C305 H297 0.949 . S
C305 C304 1.428 . S
C305 C306 1.345 . S
C306 H298 0.950 . S
C306 C305 1.345 . S
C306 C307 1.424 . S
C307 H299 0.951 . S
C307 C306 1.424 . S
C307 C308 1.347 . S
C308 H300 0.951 . S
C308 C303 1.429 . S
C308 C307 1.347 . S
H309 C310 0.951 1_554 S
C310 H309 0.951 1_556 S
C310 C316 1.265 . S
H311 C316 0.950 . S
H312 C320 0.949 . S
H313 C321 0.950 . S
H314 C322 0.951 . S
H315 C323 0.951 . S
C316 C310 1.265 . S
C316 H311 0.950 . S
C316 C317 1.478 . S
C317 C304 1.394 1_556 S
C317 C316 1.478 . S
C317 C318 1.397 . S
C318 C317 1.397 . S
C318 C319 1.438 . S
C318 C323 1.429 . S
C319 C302 1.394 1_556 S
C319 C318 1.438 . S
C319 C320 1.428 . S
C320 H312 0.949 . S
C320 C319 1.428 . S
C320 C321 1.345 . S
C321 H313 0.950 . S
C321 C320 1.345 . S
C321 C322 1.424 . S
C322 H314 0.951 . S
C322 C321 1.424 . S
C322 C323 1.347 . S
C323 H315 0.951 . S
C323 C318 1.429 . S
C323 C322 1.347 . S
H324 C325 0.951 . S
C325 H324 0.951 . S
C325 C331 1.265 . S
H326 C331 0.950 . S
H327 C335 0.949 . S
H328 C336 0.950 . S
H329 C337 0.951 . S
H330 C338 0.951 . S
C331 C325 1.265 . S
C331 H326 0.950 . S
C331 C332 1.478 . S
C332 C331 1.478 . S
C332 C333 1.397 . S
C332 C349 1.394 . S
C333 C332 1.397 . S
C333 C334 1.438 . S
C333 C338 1.429 . S
C334 C333 1.438 . S
C334 C335 1.428 . S
C334 C347 1.394 . S
C335 H327 0.949 . S
C335 C334 1.428 . S
C335 C336 1.345 . S
C336 H328 0.950 . S
C336 C335 1.345 . S
C336 C337 1.424 . S
C337 H329 0.951 . S
C337 C336 1.424 . S
C337 C338 1.347 . S
C338 H330 0.951 . S
C338 C333 1.429 . S
C338 C337 1.347 . S
H339 C340 0.951 . S
C340 H339 0.951 . S
C340 C346 1.265 . S
H341 C346 0.950 . S
H342 C350 0.949 . S
H343 C351 0.950 . S
H344 C352 0.951 . S
H345 C353 0.951 . S
C346 C340 1.265 . S
C346 H341 0.950 . S
C346 C347 1.478 . S
C347 C334 1.394 . S
C347 C346 1.478 . S
C347 C348 1.397 . S
C348 C347 1.397 . S
C348 C349 1.438 . S
C348 C353 1.429 . S
C349 C332 1.394 . S
C349 C348 1.438 . S
C349 C350 1.428 . S
C350 H342 0.949 . S
C350 C349 1.428 . S
C350 C351 1.345 . S
C351 H343 0.950 . S
C351 C350 1.345 . S
C351 C352 1.424 . S
C352 H344 0.951 . S
C352 C351 1.424 . S
C352 C353 1.347 . S
C353 H345 0.951 . S
C353 C348 1.429 . S
C353 C352 1.347 . S
H354 C355 0.951 . S
C355 H354 0.951 . S
C355 C361 1.265 . S
H356 C361 0.950 . S
H357 C365 0.949 . S
H358 C366 0.950 . S
H359 C367 0.951 . S
H360 C368 0.951 . S
C361 C355 1.265 . S
C361 H356 0.950 . S
C361 C362 1.478 . S
C362 C361 1.478 . S
C362 C363 1.397 . S
C362 C379 1.394 . S
C363 C362 1.397 . S
C363 C364 1.438 . S
C363 C368 1.429 . S
C364 C363 1.438 . S
C364 C365 1.428 . S
C364 C377 1.394 . S
C365 H357 0.949 . S
C365 C364 1.428 . S
C365 C366 1.345 . S
C366 H358 0.950 . S
C366 C365 1.345 . S
C366 C367 1.424 . S
C367 H359 0.951 . S
C367 C366 1.424 . S
C367 C368 1.347 . S
C368 H360 0.951 . S
C368 C363 1.429 . S
C368 C367 1.347 . S
H369 C370 0.951 . S
C370 H369 0.951 . S
C370 C376 1.265 . S
H371 C376 0.950 . S
H372 C380 0.949 . S
H373 C381 0.950 . S
H374 C382 0.951 . S
H375 C383 0.951 . S
C376 C370 1.265 . S
C376 H371 0.950 . S
C376 C377 1.478 . S
C377 C364 1.394 . S
C377 C376 1.478 . S
C377 C378 1.397 . S
C378 C377 1.397 . S
C378 C379 1.438 . S
C378 C383 1.429 . S
C379 C362 1.394 . S
C379 C378 1.438 . S
C379 C380 1.428 . S
C380 H372 0.949 . S
C380 C379 1.428 . S
C380 C381 1.345 . S
C381 H373 0.950 . S
C381 C380 1.345 . S
C381 C382 1.424 . S
C382 H374 0.951 . S
C382 C381 1.424 . S
C382 C383 1.347 . S
C383 H375 0.951 . S
C383 C378 1.429 . S
C383 C382 1.347 . S
H384 C385 0.951 . S
C385 H384 0.951 . S
C385 C391 1.265 . S
H386 C391 0.950 . S
H387 C395 0.949 . S
H388 C396 0.950 . S
H389 C397 0.951 . S
H390 C398 0.951 . S
C391 C385 1.265 . S
C391 H386 0.950 . S
C391 C392 1.478 . S
C392 C391 1.478 . S
C392 C393 1.397 . S
C392 C409 1.394 . S
C393 C392 1.397 . S
C393 C394 1.438 . S
C393 C398 1.429 . S
C394 C393 1.438 . S
C394 C395 1.428 . S
C394 C407 1.394 . S
C395 H387 0.949 . S
C395 C394 1.428 . S
C395 C396 1.345 . S
C396 H388 0.950 . S
C396 C395 1.345 . S
C396 C397 1.424 . S
C397 H389 0.951 . S
C397 C396 1.424 . S
C397 C398 1.347 . S
C398 H390 0.951 . S
C398 C393 1.429 . S
C398 C397 1.347 . S
H399 C400 0.951 . S
C400 H399 0.951 . S
C400 C406 1.265 . S
H401 C406 0.950 . S
H402 C410 0.949 . S
H403 C411 0.950 . S
H404 C412 0.951 . S
H405 C413 0.951 . S
C406 C400 1.265 . S
C406 H401 0.950 . S
C406 C407 1.478 . S
C407 C394 1.394 . S
C407 C406 1.478 . S
C407 C408 1.397 . S
C408 C407 1.397 . S
C408 C409 1.438 . S
C408 C413 1.429 . S
C409 C392 1.394 . S
C409 C408 1.438 . S
C409 C410 1.428 . S
C410 H402 0.949 . S
C410 C409 1.428 . S
C410 C411 1.345 . S
C411 H403 0.950 . S
C411 C410 1.345 . S
C411 C412 1.424 . S
C412 H404 0.951 . S
C412 C411 1.424 . S
C412 C413 1.347 . S
C413 H405 0.951 . S
C413 C408 1.429 . S
C413 C412 1.347 . S
H414 C415 0.951 . S
C415 H414 0.951 . S
C415 C421 1.265 . S
H416 C421 0.950 . S
H417 C425 0.949 . S
H418 C426 0.950 . S
H419 C427 0.951 . S
H420 C428 0.951 . S
C421 C415 1.265 . S
C421 H416 0.950 . S
C421 C422 1.478 . S
C422 C421 1.478 . S
C422 C423 1.397 . S
C422 C439 1.394 . S
C423 C422 1.397 . S
C423 C424 1.438 . S
C423 C428 1.429 . S
C424 C423 1.438 . S
C424 C425 1.428 . S
C424 C437 1.394 . S
C425 H417 0.949 . S
C425 C424 1.428 . S
C425 C426 1.345 . S
C426 H418 0.950 . S
C426 C425 1.345 . S
C426 C427 1.424 . S
C427 H419 0.951 . S
C427 C426 1.424 . S
C427 C428 1.347 . S
C428 H420 0.951 . S
C428 C423 1.429 . S
C428 C427 1.347 . S
H429 C430 0.951 . S
C430 H429 0.951 . S
C430 C436 1.265 . S
H431 C436 0.950 . S
H432 C440 0.949 . S
H433 C441 0.950 . S
H434 C442 0.951 . S
H435 C443 0.951 . S
C436 C430 1.265 . S
C436 H431 0.950 . S
C436 C437 1.478 . S
C437 C424 1.394 . S
C437 C436 1.478 . S
C437 C438 1.397 . S
C438 C437 1.397 . S
C438 C439 1.438 . S
C438 C443 1.429 . S
C439 C422 1.394 . S
C439 C438 1.438 . S
C439 C440 1.428 . S
C440 H432 0.949 . S
C440 C439 1.428 . S
C440 C441 1.345 . S
C441 H433 0.950 . S
C441 C440 1.345 . S
C441 C442 1.424 . S
C442 H434 0.951 . S
C442 C441 1.424 . S
C442 C443 1.347 . S
C443 H435 0.951 . S
C443 C438 1.429 . S
C443 C442 1.347 . S
H444 C445 0.951 . S
C445 H444 0.951 . S
C445 C451 1.265 1_455 S
H446 C451 0.950 . S
H447 C455 0.949 . S
H448 C456 0.950 . S
H449 C457 0.951 . S
H450 C458 0.951 . S
C451 C445 1.265 1_655 S
C451 H446 0.950 . S
C451 C452 1.478 . S
C452 C451 1.478 . S
C452 C453 1.397 1_545 S
C452 C469 1.394 1_655 S
C453 C452 1.397 1_565 S
C453 C454 1.438 . S
C453 C458 1.429 . S
C454 C453 1.438 . S
C454 C455 1.428 . S
C454 C467 1.394 1_665 S
C455 H447 0.949 . S
C455 C454 1.428 . S
C455 C456 1.345 . S
C456 H448 0.950 . S
C456 C455 1.345 . S
C456 C457 1.424 . S
C457 H449 0.951 . S
C457 C456 1.424 . S
C457 C458 1.347 . S
C458 H450 0.951 . S
C458 C453 1.429 . S
C458 C457 1.347 . S
H459 C460 0.952 1_565 S
C460 H459 0.952 1_545 S
C460 C466 1.265 1_655 S
H461 C466 0.950 . S
H462 C470 0.949 . S
H463 C471 0.950 . S
H464 C472 0.951 . S
H465 C473 0.951 . S
C466 C460 1.265 1_455 S
C466 H461 0.950 . S
C466 C467 1.478 . S
C467 C454 1.394 1_445 S
C467 C466 1.478 . S
C467 C468 1.397 . S
C468 C467 1.397 . S
C468 C469 1.438 . S
C468 C473 1.429 . S
C469 C452 1.394 1_455 S
C469 C468 1.438 . S
C469 C470 1.428 . S
C470 H462 0.949 . S
C470 C469 1.428 . S
C470 C471 1.345 . S
C471 H463 0.950 . S
C471 C470 1.345 . S
C471 C472 1.424 . S
C472 H464 0.951 . S
C472 C471 1.424 . S
C472 C473 1.347 . S
C473 H465 0.951 . S
C473 C468 1.429 . S
C473 C472 1.347 . S
H474 C475 0.951 . S
C475 H474 0.951 . S
C475 C481 1.265 1_455 S
H476 C481 0.950 . S
H477 C485 0.949 . S
H478 C486 0.950 . S
H479 C487 0.951 . S
H480 C488 0.951 . S
C481 C475 1.265 1_655 S
C481 H476 0.950 . S
C481 C482 1.478 . S
C482 C481 1.478 . S
C482 C483 1.397 . S
C482 C499 1.394 1_645 S
C483 C482 1.397 . S
C483 C484 1.438 . S
C483 C488 1.429 . S
C484 C483 1.438 . S
C484 C485 1.428 . S
C484 C497 1.394 1_655 S
C485 H477 0.949 . S
C485 C484 1.428 . S
C485 C486 1.345 . S
C486 H478 0.950 . S
C486 C485 1.345 . S
C486 C487 1.424 . S
C487 H479 0.951 . S
C487 C486 1.424 . S
C487 C488 1.347 . S
C488 H480 0.951 . S
C488 C483 1.429 . S
C488 C487 1.347 . S
H489 C490 0.951 . S
C490 H489 0.951 . S
C490 C496 1.265 1_655 S
H491 C496 0.950 . S
H492 C500 0.949 . S
H493 C501 0.950 . S
H494 C502 0.951 . S
H495 C503 0.951 . S
C496 C490 1.265 1_455 S
C496 H491 0.950 . S
C496 C497 1.478 . S
C497 C484 1.394 1_455 S
C497 C496 1.478 . S
C497 C498 1.397 1_545 S
C498 C497 1.397 1_565 S
C498 C499 1.438 . S
C498 C503 1.429 . S
C499 C482 1.394 1_465 S
C499 C498 1.438 . S
C499 C500 1.428 . S
C500 H492 0.949 . S
C500 C499 1.428 . S
C500 C501 1.345 . S
C501 H493 0.950 . S
C501 C500 1.345 . S
C501 C502 1.424 . S
C502 H494 0.951 . S
C502 C501 1.424 . S
C502 C503 1.347 . S
C503 H495 0.951 . S
C503 C498 1.429 . S
C503 C502 1.347 . S
H504 C505 0.951 . S
C505 H504 0.951 . S
C505 C511 1.265 . S
H506 C511 0.950 . S
H507 C515 0.949 . S
H508 C516 0.950 . S
H509 C517 0.951 . S
H510 C518 0.951 . S
C511 C505 1.265 . S
C511 H506 0.950 . S
C511 C512 1.478 . S
C512 C511 1.478 . S
C512 C513 1.397 . S
C512 C529 1.394 . S
C513 C512 1.397 . S
C513 C514 1.438 . S
C513 C518 1.429 . S
C514 C513 1.438 . S
C514 C515 1.428 . S
C514 C527 1.394 . S
C515 H507 0.949 . S
C515 C514 1.428 . S
C515 C516 1.345 . S
C516 H508 0.950 . S
C516 C515 1.345 . S
C516 C517 1.424 . S
C517 H509 0.951 . S
C517 C516 1.424 . S
C517 C518 1.347 . S
C518 H510 0.951 . S
C518 C513 1.429 . S
C518 C517 1.347 . S
H519 C520 0.951 . S
C520 H519 0.951 . S
C520 C526 1.265 . S
H521 C526 0.950 . S
H522 C530 0.949 . S
H523 C531 0.950 . S
H524 C532 0.951 . S
H525 C533 0.951 . S
C526 C520 1.265 . S
C526 H521 0.950 . S
C526 C527 1.478 . S
C527 C514 1.394 . S
C527 C526 1.478 . S
C527 C528 1.397 . S
C528 C527 1.397 . S
C528 C529 1.438 . S
C528 C533 1.429 . S
C529 C512 1.394 . S
C529 C528 1.438 . S
C529 C530 1.428 . S
C530 H522 0.949 . S
C530 C529 1.428 . S
C530 C531 1.345 . S
C531 H523 0.950 . S
C531 C530 1.345 . S
C531 C532 1.424 . S
C532 H524 0.951 . S
C532 C531 1.424 . S
C532 C533 1.347 . S
C533 H525 0.951 . S
C533 C528 1.429 . S
C533 C532 1.347 . S
H534 C535 0.951 . S
C535 H534 0.951 . S
C535 C541 1.265 . S
H536 C541 0.950 . S
H537 C545 0.949 . S
H538 C546 0.950 . S
H539 C547 0.951 . S
H540 C548 0.951 . S
C541 C535 1.265 . S
C541 H536 0.950 . S
C541 C542 1.478 . S
C542 C541 1.478 . S
C542 C543 1.397 . S
C542 C559 1.394 . S
C543 C542 1.397 . S
C543 C544 1.438 . S
C543 C548 1.429 . S
C544 C543 1.438 . S
C544 C545 1.428 . S
C544 C557 1.394 . S
C545 H537 0.949 . S
C545 C544 1.428 . S
C545 C546 1.345 . S
C546 H538 0.950 . S
C546 C545 1.345 . S
C546 C547 1.424 . S
C547 H539 0.951 . S
C547 C546 1.424 . S
C547 C548 1.347 . S
C548 H540 0.951 . S
C548 C543 1.429 . S
C548 C547 1.347 . S
H549 C550 0.951 . S
C550 H549 0.951 . S
C550 C556 1.265 . S
H551 C556 0.950 . S
H552 C560 0.949 . S
H553 C561 0.950 . S
H554 C562 0.951 . S
H555 C563 0.951 . S
C556 C550 1.265 . S
C556 H551 0.950 . S
C556 C557 1.478 . S
C557 C544 1.394 . S
C557 C556 1.478 . S
C557 C558 1.397 . S
C558 C557 1.397 . S
C558 C559 1.438 . S
C558 C563 1.429 . S
C559 C542 1.394 . S
C559 C558 1.438 . S
C559 C560 1.428 . S
C560 H552 0.949 . S
C560 C559 1.428 . S
C560 C561 1.345 . S
C561 H553 0.950 . S
C561 C560 1.345 . S
C561 C562 1.424 . S
C562 H554 0.951 . S
C562 C561 1.424 . S
C562 C563 1.347 . S
C563 H555 0.951 . S
C563 C558 1.429 . S
C563 C562 1.347 . S
C220 C169 1.459 . S
C205 C27 1.471 . S
C235 N6 1.393 . S
C250 C133 1.381 . S
C265 C16 1.450 . S
C280 C193 1.425 . S
C295 N14 1.413 . S
C310 C157 1.393 . S
C325 C57 1.466 . S
C340 C97 1.448 . S
C355 N36 1.358 . S
C370 C61 1.407 . S
C400 C121 1.406 . S
C385 C46 1.444 . S
C430 C85 1.404 . S
C415 N44 1.417 . S
C445 C10 1.367 . S
C460 C91 1.385 1_655 S
C475 C1 1.532 . S
C490 C127 1.525 1_655 S
C520 C163 1.371 . S
C505 C40 1.392 . S
C535 C31 1.506 . S
C550 C199 1.512 . S
