# Generated by pormake.
# Topology zzz, (3,6)-cn, num edge types: 1
# Building blocks:
#     Node 0, Type 0, BuildingBlock: VETTIZ_charged_linker_0, # of connection points: 3
#     Node 1, Type 0, BuildingBlock: VETTIZ_charged_linker_0, # of connection points: 3
#     Node 2, Type 0, BuildingBlock: VETTIZ_charged_linker_0, # of connection points: 3
#     Node 3, Type 0, BuildingBlock: VETTIZ_charged_linker_0, # of connection points: 3
#     Node 4, Type 0, BuildingBlock: VETTIZ_charged_linker_0, # of connection points: 3
#     Node 5, Type 0, BuildingBlock: VETTIZ_charged_linker_0, # of connection points: 3
#     Node 6, Type 0, BuildingBlock: VETTIZ_charged_linker_0, # of connection points: 3
#     Node 7, Type 0, BuildingBlock: VETTIZ_charged_linker_0, # of connection points: 3
#     Node 8, Type 1, BuildingBlock: BETDEL_clean_sbu_0, # of connection points: 6
#     Node 9, Type 1, BuildingBlock: BETDEL_clean_sbu_0, # of connection points: 6
#     Node 10, Type 1, BuildingBlock: BETDEL_clean_sbu_0, # of connection points: 6
#     Node 11, Type 1, BuildingBlock: BETDEL_clean_sbu_0, # of connection points: 6
#     Edge 12, Type (0, 1), BuildingBlock: MIFKUJ_clean_linker_0, # of connection points: 2
#     Edge 13, Type (0, 1), BuildingBlock: MIFKUJ_clean_linker_0, # of connection points: 2
#     Edge 14, Type (0, 1), BuildingBlock: MIFKUJ_clean_linker_0, # of connection points: 2
#     Edge 15, Type (0, 1), BuildingBlock: MIFKUJ_clean_linker_0, # of connection points: 2
#     Edge 16, Type (0, 1), BuildingBlock: MIFKUJ_clean_linker_0, # of connection points: 2
#     Edge 17, Type (0, 1), BuildingBlock: MIFKUJ_clean_linker_0, # of connection points: 2
#     Edge 18, Type (0, 1), BuildingBlock: MIFKUJ_clean_linker_0, # of connection points: 2
#     Edge 19, Type (0, 1), BuildingBlock: MIFKUJ_clean_linker_0, # of connection points: 2
#     Edge 20, Type (0, 1), BuildingBlock: MIFKUJ_clean_linker_0, # of connection points: 2
#     Edge 21, Type (0, 1), BuildingBlock: MIFKUJ_clean_linker_0, # of connection points: 2
#     Edge 22, Type (0, 1), BuildingBlock: MIFKUJ_clean_linker_0, # of connection points: 2
#     Edge 23, Type (0, 1), BuildingBlock: MIFKUJ_clean_linker_0, # of connection points: 2
#     Edge 24, Type (0, 1), BuildingBlock: MIFKUJ_clean_linker_0, # of connection points: 2
#     Edge 25, Type (0, 1), BuildingBlock: MIFKUJ_clean_linker_0, # of connection points: 2
#     Edge 26, Type (0, 1), BuildingBlock: MIFKUJ_clean_linker_0, # of connection points: 2
#     Edge 27, Type (0, 1), BuildingBlock: MIFKUJ_clean_linker_0, # of connection points: 2
#     Edge 28, Type (0, 1), BuildingBlock: MIFKUJ_clean_linker_0, # of connection points: 2
#     Edge 29, Type (0, 1), BuildingBlock: MIFKUJ_clean_linker_0, # of connection points: 2
#     Edge 30, Type (0, 1), BuildingBlock: MIFKUJ_clean_linker_0, # of connection points: 2
#     Edge 31, Type (0, 1), BuildingBlock: MIFKUJ_clean_linker_0, # of connection points: 2
#     Edge 32, Type (0, 1), BuildingBlock: MIFKUJ_clean_linker_0, # of connection points: 2
#     Edge 33, Type (0, 1), BuildingBlock: MIFKUJ_clean_linker_0, # of connection points: 2
#     Edge 34, Type (0, 1), BuildingBlock: MIFKUJ_clean_linker_0, # of connection points: 2
#     Edge 35, Type (0, 1), BuildingBlock: MIFKUJ_clean_linker_0, # of connection points: 2
# Relax obj value: 0.331
# Max RMSD: 0.231
# Mean RMSD: 0.211
data_MOF--net-zzz--node1-BETDEL_clean_sbu_0--node2-VETTIZ_charged_linker_0--edge1-MIFKUJ_clean_linker_0
_symmetry_space_group_name_H-M    P1
_symmetry_Int_Tables_number       1
_symmetry_cell_setting            triclinic
loop_
_symmetry_equiv_pos_as_xyz
'x, y, z'
_cell_length_a     70.354765
_cell_length_b     69.783508
_cell_length_c     24.808454
_cell_angle_alpha  91.130444
_cell_angle_beta   89.459147
_cell_angle_gamma 96.152643
loop_
_atom_site_label
_atom_site_type_symbol
_atom_site_fract_x
_atom_site_fract_y
_atom_site_fract_z
_atom_type_partial_charge
C0 C 0.79353 0.47002 0.17587 0.0
C1 C 0.81092 0.46256 0.1889 0.0
C2 C 0.81785 0.44887 0.15341 0.0
C3 C 0.79087 0.44976 0.09467 0.0
C4 C 0.78366 0.46329 0.12827 0.0
C5 C 0.76497 0.46904 0.10627 0.0
H6 H 0.70226 0.46054 0.89342 0.0
C7 C 0.77826 0.44597 0.04783 0.0
C8 C 0.76283 0.45716 0.05352 0.0
H9 H 0.69547 0.49345 0.0402 0.0
H10 H 0.72553 0.48367 0.07391 0.0
H11 H 0.74475 0.47244 0.8764 0.0
H12 H 0.71367 0.42339 0.94983 0.0
H13 H 0.73196 0.41452 0.9111 0.0
H14 H 0.71437 0.42718 0.87847 0.0
H15 H 0.73416 0.45234 0.83709 0.0
H16 H 0.75831 0.45334 0.86178 0.0
C17 C 0.76736 0.49088 0.09603 0.0
C18 C 0.74881 0.46289 0.14673 0.0
C19 C 0.80131 0.40558 0.89396 0.0
C20 C 0.79572 0.40357 0.83987 0.0
C21 C 0.77775 0.40877 0.82496 0.0
C22 C 0.76625 0.41743 0.8627 0.0
C23 C 0.77307 0.4214 0.91539 0.0
C24 C 0.79008 0.41498 0.93052 0.0
C25 C 0.79627 0.42223 0.98562 0.0
C26 C 0.78025 0.43429 1.00108 0.0
C27 C 0.76675 0.43368 0.96007 0.0
C28 C 0.81586 0.43477 0.97977 0.0
C29 C 0.79642 0.40446 0.02218 0.0
C30 C 0.70691 0.46551 0.93329 0.0
C31 C 0.69617 0.47745 0.96442 0.0
C32 C 0.7034 0.48413 0.01526 0.0
C33 C 0.72076 0.47836 0.03489 0.0
C34 C 0.73098 0.46583 0.00329 0.0
C35 C 0.72377 0.45974 0.95337 0.0
C36 C 0.73572 0.44642 0.92423 0.0
C37 C 0.7512 0.44487 0.96498 0.0
C38 C 0.74886 0.45645 0.01146 0.0
C39 C 0.74361 0.45645 0.87197 0.0
C40 C 0.72338 0.42685 0.91488 0.0
H41 H 0.81422 0.43181 0.08332 0.0
H42 H 0.78776 0.4806 0.20202 0.0
H43 H 0.7496 0.44779 0.15942 0.0
H44 H 0.73449 0.46324 0.12932 0.0
H45 H 0.74997 0.47233 0.1834 0.0
H46 H 0.78056 0.49491 0.07201 0.0
H47 H 0.76852 0.4992 0.13473 0.0
H48 H 0.75536 0.49551 0.0731 0.0
H49 H 0.81533 0.40225 0.90608 0.0
H50 H 0.77331 0.40747 0.78323 0.0
H51 H 0.75307 0.42179 0.84833 0.0
H52 H 0.81786 0.44087 0.93873 0.0
H53 H 0.82798 0.4262 0.987 0.0
H54 H 0.81721 0.44764 0.00673 0.0
H55 H 0.78491 0.39295 0.01066 0.0
H56 H 0.79347 0.40776 0.06504 0.0
H57 H 0.81024 0.39818 0.0188 0.0
H58 H 0.83139 0.4433 0.16041 0.0
C59 C 0.80789 0.44229 0.10754 0.0
C60 C 0.91479 0.78578 0.88556 0.0
C61 C 0.91111 0.80508 0.89445 0.0
C62 C 0.90439 0.81053 0.94573 0.0
C63 C 0.91187 0.78041 0.98129 0.0
C64 C 0.91497 0.77359 0.92988 0.0
C65 C 0.9201 0.75315 0.93032 0.0
H66 H 0.96894 0.68916 0.05097 0.0
C67 C 0.9192 0.7673 0.01972 0.0
C68 C 0.92336 0.75083 0.99081 0.0
H69 H 0.93172 0.67981 0.91269 0.0
H70 H 0.91968 0.71041 0.93054 0.0
H71 H 0.98139 0.73714 0.03387 0.0
H72 H 0.93545 0.70757 0.12836 0.0
H73 H 0.94836 0.72631 0.16623 0.0
H74 H 0.96016 0.70593 0.14365 0.0
H75 H 0.98609 0.72281 0.09068 0.0
H76 H 0.98052 0.74725 0.0995 0.0
C77 C 0.93853 0.75159 0.89681 0.0
C78 C 0.90275 0.73969 0.90843 0.0
C79 C 0.94692 0.80015 0.18841 0.0
C80 C 0.9618 0.79669 0.22267 0.0
C81 C 0.96909 0.77862 0.21932 0.0
C82 C 0.96229 0.76475 0.17972 0.0
C83 C 0.9483 0.76917 0.14289 0.0
C84 C 0.94085 0.78667 0.14826 0.0
C85 C 0.92716 0.79004 0.10456 0.0
C86 C 0.92758 0.77166 0.07098 0.0
C87 C 0.93978 0.75926 0.09368 0.0
C88 C 0.93502 0.80859 0.07379 0.0
C89 C 0.90723 0.79117 0.13069 0.0
C90 C 0.95847 0.69391 0.02395 0.0
C91 C 0.95149 0.68212 0.97987 0.0
C92 C 0.93741 0.68855 0.94662 0.0
C93 C 0.93073 0.70643 0.95586 0.0
C94 C 0.93847 0.71835 0.9977 0.0
C95 C 0.95137 0.71189 0.03278 0.0
C96 C 0.95565 0.72612 0.07916 0.0
C97 C 0.94277 0.74169 0.06598 0.0
C98 C 0.93366 0.73725 0.01645 0.0
C99 C 0.97706 0.73375 0.07617 0.0
C100 C 0.94972 0.71602 0.13246 0.0
H101 H 0.89984 0.80299 0.02767 0.0
H102 H 0.91886 0.78087 0.84588 0.0
H103 H 0.89153 0.7478 0.89116 0.0
H104 H 0.89567 0.73066 0.94081 0.0
H105 H 0.90702 0.73011 0.87519 0.0
H106 H 0.95033 0.76219 0.91177 0.0
H107 H 0.93616 0.75436 0.8536 0.0
H108 H 0.94335 0.73706 0.89878 0.0
H109 H 0.94076 0.81374 0.19072 0.0
H110 H 0.98049 0.77555 0.24578 0.0
H111 H 0.96854 0.75138 0.17824 0.0
H112 H 0.9477 0.81664 0.09325 0.0
H113 H 0.92429 0.81908 0.07172 0.0
H114 H 0.93994 0.8052 0.0324 0.0
H115 H 0.90443 0.78024 0.16266 0.0
H116 H 0.89549 0.788 0.10149 0.0
H117 H 0.90623 0.80561 0.14951 0.0
H118 H 0.90085 0.82502 0.95395 0.0
C119 C 0.90446 0.79806 0.98905 0.0
C120 C 0.81329 0.98925 0.02584 0.0
C121 C 0.8233 0.98074 0.98296 0.0
C122 C 0.81451 0.96411 0.9565 0.0
C123 C 0.78523 0.96748 0.00432 0.0
C124 C 0.79415 0.98168 0.03721 0.0
C125 C 0.7809 0.98582 0.08437 0.0
H126 H 0.68885 0.96664 0.18676 0.0
C127 C 0.76533 0.96368 0.01997 0.0
C128 C 0.76236 0.97308 0.06938 0.0
H129 H 0.73501 0.00125 0.26688 0.0
H130 H 0.75636 0.99583 0.19018 0.0
H131 H 0.69132 0.98393 0.09098 0.0
H132 H 0.7116 0.9326 0.13749 0.0
H133 H 0.70238 0.92875 0.07167 0.0
H134 H 0.68753 0.93753 0.12429 0.0
H135 H 0.68063 0.96209 0.06188 0.0
H136 H 0.69954 0.97675 0.02735 0.0
C137 C 0.77803 0.00737 0.08587 0.0
C138 C 0.78966 0.97924 0.13663 0.0
C139 C 0.71745 0.95499 0.8705 0.0
C140 C 0.69736 0.95368 0.87214 0.0
C141 C 0.68776 0.94726 0.91975 0.0
C142 C 0.698 0.9448 0.96664 0.0
C143 C 0.71785 0.94949 0.96637 0.0
C144 C 0.72744 0.95289 0.91825 0.0
C145 C 0.74874 0.95592 0.92579 0.0
C146 C 0.74982 0.95613 0.98758 0.0
C147 C 0.73157 0.95352 0.01055 0.0
C148 C 0.7568 0.97548 0.90204 0.0
C149 C 0.75756 0.93886 0.89799 0.0
C150 C 0.70367 0.97272 0.18884 0.0
C151 C 0.71032 0.98384 0.23368 0.0
C152 C 0.72955 0.99232 0.23312 0.0
C153 C 0.74193 0.98903 0.18897 0.0
C154 C 0.73491 0.97741 0.14477 0.0
C155 C 0.71587 0.96992 0.14537 0.0
C156 C 0.70967 0.9596 0.09418 0.0
C157 C 0.72845 0.9606 0.06358 0.0
C158 C 0.7435 0.97101 0.09283 0.0
C159 C 0.69455 0.97102 0.06701 0.0
C160 C 0.70227 0.93849 0.10735 0.0
H161 H 0.78974 0.94373 0.95048 0.0
H162 H 0.82015 0.0012 0.04946 0.0
H163 H 0.79341 0.96422 0.13178 0.0
H164 H 0.77971 0.97936 0.17117 0.0
H165 H 0.80292 0.98869 0.14685 0.0
H166 H 0.77303 0.01181 0.04608 0.0
H167 H 0.79166 0.01629 0.09548 0.0
H168 H 0.76723 0.01065 0.11632 0.0
H169 H 0.72518 0.9589 0.83371 0.0
H170 H 0.67231 0.94565 0.92233 0.0
H171 H 0.69007 0.94031 0.0021 0.0
H172 H 0.74979 0.98747 0.92112 0.0
H173 H 0.75451 0.97565 0.85785 0.0
H174 H 0.77241 0.9784 0.90842 0.0
H175 H 0.74889 0.93285 0.86313 0.0
H176 H 0.75859 0.92692 0.92646 0.0
H177 H 0.77185 0.94345 0.88051 0.0
H178 H 0.82217 0.95663 0.92592 0.0
C179 C 0.79565 0.9572 0.96808 0.0
C180 C 0.55177 0.72851 0.21248 0.0
C181 C 0.55952 0.71238 0.23379 0.0
C182 C 0.57759 0.70797 0.21594 0.0
C183 C 0.57803 0.73231 0.14829 0.0
C184 C 0.56169 0.73866 0.17015 0.0
C185 C 0.55709 0.75686 0.14266 0.0
H186 H 0.57301 0.81434 0.92232 0.0
C187 C 0.58346 0.74328 0.09976 0.0
C188 C 0.5719 0.75844 0.09678 0.0
H189 H 0.53629 0.82442 0.05805 0.0
H190 H 0.54564 0.79579 0.10133 0.0
H191 H 0.6092 0.80209 0.98952 0.0
H192 H 0.56096 0.7738 0.9073 0.0
H193 H 0.57621 0.75555 0.90985 0.0
H194 H 0.58366 0.77742 0.8742 0.0
H195 H 0.60548 0.80125 0.91793 0.0
H196 H 0.61702 0.78287 0.95081 0.0
C197 C 0.56052 0.77382 0.1836 0.0
C198 C 0.53644 0.7538 0.12138 0.0
C199 C 0.61447 0.70779 0.94979 0.0
C200 C 0.61577 0.71127 0.89419 0.0
C201 C 0.61515 0.73027 0.87653 0.0
C202 C 0.61064 0.74483 0.91273 0.0
C203 C 0.60631 0.74021 0.96671 0.0
C204 C 0.60929 0.72225 0.98511 0.0
C205 C 0.60339 0.71956 0.04315 0.0
C206 C 0.59482 0.7384 0.05502 0.0
C207 C 0.59639 0.75024 0.00992 0.0
C208 C 0.62154 0.71759 0.07688 0.0
C209 C 0.5882 0.70176 0.0463 0.0
C210 C 0.56693 0.81049 0.96142 0.0
C211 C 0.55381 0.82161 0.98651 0.0
C212 C 0.5465 0.81613 0.03787 0.0
C213 C 0.55196 0.79956 0.06295 0.0
C214 C 0.56502 0.78849 0.03667 0.0
C215 C 0.57228 0.79422 0.98682 0.0
C216 C 0.58553 0.78082 0.96322 0.0
C217 C 0.58605 0.7666 0.00835 0.0
C218 C 0.57382 0.77083 0.05135 0.0
C219 C 0.60538 0.79229 0.95446 0.0
C220 C 0.57629 0.77143 0.91092 0.0
H221 H 0.60063 0.71408 0.16132 0.0
H222 H 0.53828 0.7327 0.2274 0.0
H223 H 0.53423 0.74026 0.09682 0.0
H224 H 0.53307 0.7656 0.09536 0.0
H225 H 0.52598 0.75272 0.15528 0.0
H226 H 0.57337 0.77238 0.20841 0.0
H227 H 0.54811 0.77425 0.21145 0.0
H228 H 0.56343 0.78788 0.16394 0.0
H229 H 0.61513 0.69343 0.96482 0.0
H230 H 0.61665 0.7335 0.83408 0.0
H231 H 0.60947 0.75878 0.89657 0.0
H232 H 0.63488 0.71915 0.05218 0.0
H233 H 0.62089 0.70323 0.09581 0.0
H234 H 0.62359 0.72893 0.10897 0.0
H235 H 0.57635 0.70314 0.01773 0.0
H236 H 0.58172 0.69968 0.08652 0.0
H237 H 0.59458 0.68826 0.03607 0.0
H238 H 0.58405 0.69608 0.23313 0.0
C239 C 0.58702 0.7181 0.17391 0.0
C240 C 0.31409 0.53176 0.16464 0.0
C241 C 0.32387 0.53816 0.21254 0.0
C242 C 0.31543 0.55098 0.24759 0.0
C243 C 0.2893 0.55255 0.18613 0.0
C244 C 0.29671 0.53923 0.15219 0.0
C245 C 0.28389 0.5346 0.10357 0.0
H246 H 0.20357 0.55555 0.97021 0.0
C247 C 0.27203 0.55867 0.16164 0.0
C248 C 0.26858 0.54841 0.11263 0.0
H249 H 0.23878 0.51073 0.92497 0.0
H250 H 0.25999 0.52025 1.00065 0.0
H251 H 0.20123 0.54728 0.08672 0.0
H252 H 0.23784 0.58807 0.99664 0.0
H253 H 0.23305 0.6002 0.05706 0.0
H254 H 0.21354 0.59143 0.01313 0.0
H255 H 0.19363 0.56951 0.06452 0.0
H256 H 0.20459 0.56759 0.12923 0.0
C257 C 0.27541 0.51332 0.10677 0.0
C258 C 0.29556 0.53912 0.05163 0.0
C259 C 0.23396 0.60523 0.26539 0.0
C260 C 0.21658 0.61252 0.2539 0.0
C261 C 0.20993 0.61136 0.20031 0.0
C262 C 0.21905 0.60108 0.16073 0.0
C263 C 0.23496 0.59175 0.17471 0.0
C264 C 0.24281 0.5948 0.22529 0.0
C265 C 0.25988 0.58388 0.23243 0.0
C266 C 0.26011 0.5728 0.17897 0.0
C267 C 0.24531 0.57725 0.14599 0.0
C268 C 0.25573 0.57012 0.28058 0.0
C269 C 0.27773 0.59885 0.23921 0.0
C270 C 0.21602 0.5479 0.97538 0.0
C271 C 0.21954 0.53255 0.94077 0.0
C272 C 0.23564 0.52264 0.95102 0.0
C273 C 0.24791 0.52814 0.995 0.0
C274 C 0.24388 0.54352 0.02953 0.0
C275 C 0.22811 0.55305 0.01867 0.0
C276 C 0.22498 0.56846 0.05933 0.0
C277 C 0.24128 0.5667 0.09741 0.0
C278 C 0.25263 0.55219 0.08034 0.0
C279 C 0.2051 0.56317 0.08634 0.0
C280 C 0.2273 0.5881 0.03036 0.0
H281 H 0.29317 0.56809 0.26316 0.0
H282 H 0.32 0.52164 0.13728 0.0
H283 H 0.30337 0.55383 0.05443 0.0
H284 H 0.28643 0.53877 0.01564 0.0
H285 H 0.30624 0.52865 0.04505 0.0
H286 H 0.27021 0.50994 0.14836 0.0
H287 H 0.28638 0.50353 0.09608 0.0
H288 H 0.26298 0.50988 0.0803 0.0
H289 H 0.23968 0.60622 0.30584 0.0
H290 H 0.19662 0.61678 0.18979 0.0
H291 H 0.2125 0.5997 0.12182 0.0
H292 H 0.24042 0.56416 0.28148 0.0
H293 H 0.25895 0.57778 0.31964 0.0
H294 H 0.26369 0.55731 0.27817 0.0
H295 H 0.27555 0.61291 0.22108 0.0
H296 H 0.29049 0.59434 0.21805 0.0
H297 H 0.28116 0.60171 0.28243 0.0
H298 H 0.32207 0.55558 0.28559 0.0
C299 C 0.29846 0.55825 0.23457 0.0
C300 C 0.10854 0.21626 0.22894 0.0
C301 C 0.118 0.20054 0.20991 0.0
C302 C 0.13028 0.20314 0.16459 0.0
C303 C 0.11705 0.23258 0.14638 0.0
C304 C 0.10875 0.23256 0.19666 0.0
C305 C 0.09874 0.25042 0.20611 0.0
H306 H 0.05441 0.32202 0.11087 0.0
C307 C 0.10948 0.24732 0.1146 0.0
C308 C 0.10153 0.2599 0.15074 0.0
H309 H 0.09086 0.32641 0.25134 0.0
H310 H 0.10458 0.29744 0.22127 0.0
H311 H 0.08896 0.31027 0.03286 0.0
H312 H 0.04412 0.27151 0.10613 0.0
H313 H 0.04658 0.26643 0.03655 0.0
H314 H 0.0389 0.28914 0.05808 0.0
H315 H 0.06429 0.3105 0.01475 0.0
H316 H 0.07861 0.29306 0.98549 0.0
C317 C 0.10858 0.26223 0.2531 0.0
C318 C 0.07735 0.24486 0.21851 0.0
C319 C 0.08633 0.22172 0.9325 0.0
C320 C 0.07194 0.22622 0.89775 0.0
C321 C 0.06299 0.24308 0.90843 0.0
C322 C 0.06821 0.25499 0.95372 0.0
C323 C 0.08212 0.24968 0.9894 0.0
C324 C 0.09095 0.23327 0.97803 0.0
C325 C 0.10362 0.22812 0.02257 0.0
C326 C 0.10223 0.24511 0.0613 0.0
C327 C 0.08907 0.25737 0.04274 0.0
C328 C 0.12422 0.22689 1.0008 0.0
C329 C 0.09438 0.20884 0.04621 0.0
C330 C 0.06447 0.31615 0.13707 0.0
C331 C 0.07092 0.32615 0.18475 0.0
C332 C 0.08512 0.31875 0.21569 0.0
C333 C 0.09235 0.30154 0.20056 0.0
C334 C 0.08458 0.29106 0.15614 0.0
C335 C 0.07194 0.29879 0.12279 0.0
C336 C 0.06959 0.28741 0.07005 0.0
C337 C 0.08361 0.27239 0.07751 0.0
C338 C 0.09094 0.27407 0.12983 0.0
C339 C 0.07556 0.30096 0.02297 0.0
C340 C 0.04868 0.27814 0.06703 0.0
H341 H 0.13852 0.2207 0.09651 0.0
H342 H 0.09968 0.21515 0.26488 0.0
H343 H 0.07055 0.23546 0.1858 0.0
H344 H 0.06969 0.25795 0.22211 0.0
H345 H 0.07542 0.23708 0.25713 0.0
H346 H 0.11184 0.25268 0.28637 0.0
H347 H 0.09905 0.2723 0.27125 0.0
H348 H 0.12224 0.27027 0.23968 0.0
H349 H 0.09311 0.20861 0.92641 0.0
H350 H 0.05182 0.24689 0.8822 0.0
H351 H 0.06093 0.2676 0.95998 0.0
H352 H 0.12538 0.22886 0.95648 0.0
H353 H 0.12915 0.21262 0.00875 0.0
H354 H 0.13455 0.23825 0.01926 0.0
H355 H 0.08 0.21057 0.06345 0.0
H356 H 0.10294 0.20323 0.07793 0.0
H357 H 0.09271 0.19727 0.01471 0.0
H358 H 0.13867 0.1918 0.15104 0.0
C359 C 0.12995 0.2194 0.13265 0.0
C360 C 0.28767 0.01197 0.93259 0.0
C361 C 0.30699 0.00843 0.92368 0.0
C362 C 0.3169 1.00061 0.96523 0.0
C363 C 0.28878 0.99871 0.02243 0.0
C364 C 0.27878 0.00696 0.98289 0.0
C365 C 0.25846 0.00934 0.00219 0.0
H366 H 0.19131 0.98879 0.2044 0.0
C367 C 0.27592 0.994 0.06861 0.0
C368 C 0.25786 1.00001 0.05785 0.0
H369 H 0.18276 0.02192 0.06346 0.0
H370 H 0.21543 0.01785 0.03247 0.0
H371 H 0.21253 0.95661 0.14764 0.0
H372 H 0.23062 0.00972 0.2313 0.0
H373 H 0.24642 0.99352 0.25143 0.0
H374 H 0.22124 0.98832 0.26556 0.0
H375 H 0.21163 0.95897 0.2197 0.0
H376 H 0.23256 0.952 0.18489 0.0
C377 C 0.24405 0.99845 0.96311 0.0
C378 C 0.25629 0.03106 0.00663 0.0
C379 C 0.30244 0.96128 0.22761 0.0
C380 C 0.2943 0.95419 0.27601 0.0
C381 C 0.27457 0.9542 0.28503 0.0
C382 C 0.26319 0.9621 0.24696 0.0
C383 C 0.27171 0.96995 0.19945 0.0
C384 C 0.29092 0.969 0.19006 0.0
C385 C 0.29751 0.97741 0.13711 0.0
C386 C 0.27915 0.98424 0.11671 0.0
C387 C 0.26425 0.98003 0.15351 0.0
C388 C 0.30431 0.96087 0.10131 0.0
C389 C 0.31299 0.99456 0.1488 0.0
C390 C 0.19622 0.99501 0.16636 0.0
C391 C 0.18428 0.00532 0.13603 0.0
C392 C 0.19165 0.01375 0.08761 0.0
C393 C 0.21057 0.01141 0.06977 0.0
C394 C 0.2223 1.00088 0.10126 0.0
C395 C 0.2148 0.9931 0.14888 0.0
C396 C 0.22877 0.98324 0.17999 0.0
C397 C 0.24612 0.98616 0.14388 0.0
C398 C 0.24265 0.99634 0.09686 0.0
C399 C 0.22104 0.9616 0.18382 0.0
C400 C 0.23194 0.99405 0.23512 0.0
H401 H 0.31663 0.98984 0.04336 0.0
H402 H 0.27977 0.01818 0.90133 0.0
H403 H 0.26844 0.03876 0.02939 0.0
H404 H 0.24315 0.03398 0.02838 0.0
H405 H 0.25612 0.03743 0.96596 0.0
H406 H 0.24723 0.98327 0.9574 0.0
H407 H 0.24477 0.00536 0.92306 0.0
H408 H 0.22922 0.99804 0.97836 0.0
H409 H 0.3176 0.96114 0.21957 0.0
H410 H 0.26812 0.94873 0.32228 0.0
H411 H 0.24831 0.96216 0.25665 0.0
H412 H 0.29762 0.94646 0.11395 0.0
H413 H 0.32005 0.96064 0.10348 0.0
H414 H 0.30012 0.96175 0.05861 0.0
H415 H 0.30977 0.00224 0.18701 0.0
H416 H 0.31367 0.00579 0.11783 0.0
H417 H 0.32735 0.98953 0.15291 0.0
H418 H 0.33171 0.99798 0.95953 0.0
C419 C 0.30801 0.9958 0.01409 0.0
C420 C 0.44632 0.27624 0.91742 0.0
C421 C 0.43689 0.29183 0.89874 0.0
C422 C 0.41916 0.29517 0.92218 0.0
C423 C 0.42317 0.27187 0.98985 0.0
C424 C 0.43863 0.26591 0.96254 0.0
C425 C 0.4445 0.24771 0.98752 0.0
H426 H 0.4387 0.19219 0.21386 0.0
C427 C 0.42053 0.26158 0.04026 0.0
C428 C 0.43213 0.24642 0.03891 0.0
H429 H 0.46546 0.1781 0.06289 0.0
H430 H 0.45685 0.20802 0.02495 0.0
H431 H 0.4543 0.23191 0.22129 0.0
H432 H 0.40035 0.20624 0.1667 0.0
H433 H 0.39637 0.22652 0.2074 0.0
H434 H 0.40883 0.20774 0.23492 0.0
H435 H 0.43394 0.23137 0.2647 0.0
H436 H 0.441 0.25181 0.2227 0.0
C437 C 0.46603 0.25043 1.00015 0.0
C438 C 0.43886 0.23072 0.94803 0.0
C439 C 0.40444 0.30195 0.20064 0.0
C440 C 0.40753 0.29932 0.2557 0.0
C441 C 0.40784 0.28046 0.27458 0.0
C442 C 0.4078 0.26488 0.2381 0.0
C443 C 0.4081 0.26836 0.18247 0.0
C444 C 0.40526 0.28642 0.1645 0.0
C445 C 0.4068 0.2878 0.10413 0.0
C446 C 0.41273 0.26787 0.08953 0.0
C447 C 0.41386 0.25686 0.13569 0.0
C448 C 0.42258 0.30426 0.09006 0.0
C449 C 0.38694 0.29118 0.08167 0.0
C450 C 0.4423 0.19509 0.17206 0.0
C451 C 0.45225 0.18235 0.14106 0.0
C452 C 0.45756 0.18749 0.08766 0.0
C453 C 0.45232 0.20469 0.0654 0.0
C454 C 0.44163 0.21679 0.09677 0.0
C455 C 0.43703 0.21185 0.14936 0.0
C456 C 0.42637 0.22638 0.17847 0.0
C457 C 0.4236 0.24008 0.13339 0.0
C458 C 0.43286 0.23479 0.08551 0.0
C459 C 0.43941 0.23586 0.22423 0.0
C460 C 0.40696 0.21626 0.19836 0.0
H461 H 0.39846 0.28756 0.98335 0.0
H462 H 0.45929 0.27248 0.89801 0.0
H463 H 0.42461 0.23195 0.93015 0.0
H464 H 0.43751 0.21665 0.9679 0.0
H465 H 0.44941 0.2305 0.91446 0.0
H466 H 0.46958 0.2637 0.02519 0.0
H467 H 0.47465 0.25181 0.96241 0.0
H468 H 0.47053 0.23822 0.02271 0.0
H469 H 0.40389 0.31628 0.18523 0.0
H470 H 0.40973 0.27802 0.31709 0.0
H471 H 0.40886 0.25095 0.25446 0.0
H472 H 0.43624 0.30208 0.11007 0.0
H473 H 0.41831 0.31849 0.10315 0.0
H474 H 0.42547 0.30537 0.04649 0.0
H475 H 0.37678 0.29485 0.11393 0.0
H476 H 0.3801 0.27812 0.06028 0.0
H477 H 0.38799 0.3035 0.05375 0.0
H478 H 0.41118 0.30646 0.90775 0.0
C479 C 0.41207 0.2849 0.96694 0.0
Dy480 Dy 0.01322 0.99946 0.62177 0.0
C481 C 0.00646 0.041 0.4225 0.0
C482 C 0.00876 0.97892 0.71413 0.0
Dy483 Dy 1.00085 0.02179 0.51644 0.0
O484 O 0.0237 0.97951 0.68252 0.0
O485 O 0.99713 0.99058 0.69677 0.0
O486 O 0.03856 0.99027 0.57516 0.0
O487 O 0.02709 0.01568 0.5553 0.0
C488 C 0.03894 0.0042 0.5408 0.0
C489 C 0.97147 0.01313 0.58614 0.0
O490 O 0.9986 0.99099 0.4869 0.0
O491 O 0.99812 0.97599 0.57028 0.0
O492 O 0.99717 0.04696 0.46413 0.0
O493 O 0.01182 0.02411 0.43158 0.0
O494 O 0.96925 0.02184 0.54085 0.0
O495 O 0.98842 0.00918 0.58698 0.0
O496 O 0.01919 0.03005 0.65197 0.0
O497 O 0.01365 0.04574 0.57144 0.0
C498 C 0.99646 0.97533 0.517 0.0
C499 C 0.01861 0.04595 0.62326 0.0
Dy500 Dy 0.49428 0.98972 0.54261 0.0
C501 C 0.55188 0.04088 0.6417 0.0
C502 C 0.46388 0.96565 0.50663 0.0
Dy503 Dy 0.51941 0.02109 0.601 0.0
O504 O 0.47625 0.97532 0.47554 0.0
O505 O 0.46806 0.96929 0.55668 0.0
O506 O 0.51952 0.97511 0.51352 0.0
O507 O 0.52244 0.00505 0.5254 0.0
C508 C 0.53146 0.99068 0.51475 0.0
C509 C 0.48222 0.02018 0.62801 0.0
O510 O 0.51125 0.03869 0.53257 0.0
O511 O 0.4869 0.01631 0.50038 0.0
O512 O 0.53704 0.03438 0.67012 0.0
O513 O 0.54826 0.03752 0.59109 0.0
O514 O 0.49412 0.03586 0.62946 0.0
O515 O 0.49132 0.0058 0.61798 0.0
O516 O 0.5025 0.97222 0.61095 0.0
O517 O 0.52647 0.99454 0.64402 0.0
C518 C 0.49679 0.03364 0.49962 0.0
C519 C 0.51681 0.97716 0.6442 0.0
Dy520 Dy 0.50512 0.51588 0.62958 0.0
C521 C 0.50942 0.46935 0.44034 0.0
C522 C 0.51122 0.54083 0.71514 0.0
Dy523 Dy 0.51612 0.49247 0.52914 0.0
O524 O 0.49777 0.54136 0.67977 0.0
O525 O 0.5205 0.5261 0.70495 0.0
O526 O 0.47397 0.51114 0.60702 0.0
O527 O 0.49543 0.51264 0.54717 0.0
C528 C 0.47768 0.50924 0.55561 0.0
C529 C 0.54369 0.49951 0.6029 0.0
O530 O 0.52276 0.52196 0.49578 0.0
O531 O 0.52259 0.53809 0.57852 0.0
O532 O 0.52601 0.47273 0.46361 0.0
O533 O 0.49686 0.47839 0.46592 0.0
O534 O 0.54737 0.49752 0.55149 0.0
O535 O 0.52597 0.49591 0.61126 0.0
O536 O 0.49567 0.48664 0.66231 0.0
O537 O 0.50119 0.46951 0.58285 0.0
C538 C 0.5259 0.53795 0.52562 0.0
C539 C 0.49511 0.47026 0.63384 0.0
Dy540 Dy 1.00295 0.4926 0.6155 0.0
C541 C 0.04511 0.54135 0.47063 0.0
C542 C 0.97704 0.4741 0.68455 0.0
Dy543 Dy 0.02108 0.51968 0.53817 0.0
O544 O 0.99081 0.4663 0.6604 0.0
O545 O 0.97802 0.49219 0.67268 0.0
O546 O 0.01952 0.46929 0.58333 0.0
O547 O 0.0104 0.48926 0.52966 0.0
C548 C 0.01991 0.47501 0.53386 0.0
C549 C 0.00359 0.53657 0.62039 0.0
O550 O 0.99411 0.51261 0.4915 0.0
O551 O 0.97788 0.49947 0.5654 0.0
O552 O 0.03322 0.548 0.50441 0.0
O553 O 0.04357 0.52267 0.47258 0.0
O554 O 0.00305 0.54186 0.57071 0.0
O555 O 0.01377 0.52285 0.62416 0.0
O556 O 0.03028 0.49974 0.66063 0.0
O557 O 0.04636 0.51129 0.58457 0.0
C558 C 0.97792 0.50598 0.51553 0.0
C559 C 0.04646 0.50527 0.63491 0.0
H560 H 0.1662 0.0382 0.15335 0.0
H561 H 0.13767 0.04107 0.2098 0.0
H562 H 0.13065 0.97938 0.22887 0.0
H563 H 0.15828 0.97649 0.17073 0.0
H564 H 0.09757 0.98975 0.23076 0.0
H565 H 0.15564 0.01349 0.32207 0.0
H566 H 0.18581 0.03438 0.33605 0.0
H567 H 0.15515 0.08434 0.34088 0.0
H568 H 0.12476 0.06379 0.32612 0.0
H569 H 0.05859 0.97675 0.49348 0.0
H570 H 0.07976 0.97975 0.41453 0.0
H571 H 0.0696 0.03927 0.40019 0.0
H572 H 0.04823 0.03627 0.47937 0.0
H573 H 0.10819 0.03382 0.38946 0.0
H574 H 0.04879 0.00617 0.31298 0.0
H575 H 0.02008 0.98256 0.30958 0.0
H576 H 0.0554 0.93657 0.2854 0.0
H577 H 0.08434 0.95989 0.28987 0.0
C578 C 0.15813 0.02524 0.16805 0.0
C579 C 0.16464 0.00714 0.15787 0.0
C580 C 0.14196 0.02689 0.20115 0.0
C581 C 0.13217 0.01049 0.22537 0.0
C582 C 0.13785 0.99233 0.21144 0.0
C583 C 0.15375 0.99068 0.17809 0.0
C584 C 0.11702 0.012 0.26806 0.0
C585 C 0.1 0.99939 0.26541 0.0
C586 C 0.1198 0.02469 0.31347 0.0
C587 C 0.13798 0.03713 0.32221 0.0
C588 C 0.15535 0.02896 0.32568 0.0
C589 C 0.17247 0.04073 0.33378 0.0
C590 C 0.17238 0.06069 0.33913 0.0
C591 C 0.15516 0.0689 0.33653 0.0
C592 C 0.13799 0.0572 0.32827 0.0
C593 C 0.06081 0.99047 0.47344 0.0
C594 C 0.05163 0.00623 0.49247 0.0
C595 C 0.07286 0.99215 0.42809 0.0
C596 C 0.07614 0.00968 0.40074 0.0
C597 C 0.06723 0.02557 0.42025 0.0
C598 C 0.05497 0.02382 0.46538 0.0
C599 C 0.08911 0.01131 0.35246 0.0
C600 C 0.10567 0.02448 0.3542 0.0
C601 C 0.08613 0.99879 0.30693 0.0
C602 C 0.06874 0.98479 0.30218 0.0
C603 C 0.05043 0.99102 0.30725 0.0
C604 C 0.03412 0.97768 0.30514 0.0
C605 C 0.03592 0.95807 0.2974 0.0
C606 C 0.05403 0.95177 0.29146 0.0
C607 C 0.07039 0.96505 0.29373 0.0
H608 H 0.02328 0.94775 0.29594 0.0
H609 H 0.18565 0.06979 0.34546 0.0
H610 H 0.42932 0.15878 0.2067 0.0
H611 H 0.43794 0.13233 0.26002 0.0
H612 H 0.49342 0.13639 0.18274 0.0
H613 H 0.48527 0.16415 0.1318 0.0
H614 H 0.44581 0.09888 0.24848 0.0
H615 H 0.52676 0.1225 0.26783 0.0
H616 H 0.54927 0.15215 0.26496 0.0
H617 H 0.50434 0.1859 0.31421 0.0
H618 H 0.48164 0.15644 0.31799 0.0
H619 H 0.48308 0.02605 0.39801 0.0
H620 H 0.47693 0.0492 0.32928 0.0
H621 H 0.49272 0.09606 0.44189 0.0
H622 H 0.50016 0.0729 0.50924 0.0
H623 H 0.50584 0.10699 0.35343 0.0
H624 H 0.44363 0.07801 0.40423 0.0
H625 H 0.41825 0.05147 0.42034 0.0
H626 H 0.42045 0.034 0.25365 0.0
H627 H 0.44603 0.06031 0.2367 0.0
C628 C 0.44345 0.15421 0.20115 0.0
C629 C 0.45678 0.16403 0.1659 0.0
C630 C 0.4483 0.13882 0.23138 0.0
C631 C 0.46652 0.13247 0.22665 0.0
C632 C 0.47943 0.14129 0.18846 0.0
C633 C 0.47467 0.15702 0.1587 0.0
C634 C 0.47192 0.11724 0.26358 0.0
C635 C 0.459 0.10066 0.27118 0.0
C636 C 0.48893 0.11953 0.29435 0.0
C637 C 0.50247 0.13731 0.29248 0.0
C638 C 0.52171 0.13626 0.27812 0.0
C639 C 0.53449 0.15302 0.27634 0.0
C640 C 0.52822 0.1709 0.28918 0.0
C641 C 0.50916 0.17205 0.30405 0.0
C642 C 0.49633 0.15533 0.30598 0.0
C643 C 0.48514 0.0413 0.40809 0.0
C644 C 0.49196 0.04767 0.45913 0.0
C645 C 0.48154 0.05458 0.36879 0.0
C646 C 0.48397 0.07453 0.38028 0.0
C647 C 0.49074 0.08083 0.43154 0.0
C648 C 0.49489 0.06757 0.47027 0.0
C649 C 0.47951 0.08884 0.33922 0.0
C650 C 0.49268 0.10515 0.33055 0.0
C651 C 0.46229 0.08677 0.30935 0.0
C652 C 0.44688 0.07099 0.31934 0.0
C653 C 0.43878 0.06843 0.3711 0.0
C654 C 0.42436 0.05344 0.38037 0.0
C655 C 0.41779 0.04102 0.33808 0.0
C656 C 0.42559 0.04361 0.28639 0.0
C657 C 0.44004 0.05856 0.27692 0.0
H658 H 0.40662 0.02943 0.34534 0.0
H659 H 0.53813 0.18386 0.28774 0.0
H660 H 0.35422 0.56134 0.25196 0.0
H661 H 0.38202 0.552 0.29674 0.0
H662 H 0.36584 0.49255 0.25061 0.0
H663 H 0.33655 0.50186 0.20946 0.0
H664 H 0.37648 0.49186 0.34523 0.0
H665 H 0.40829 0.52231 0.19823 0.0
H666 H 0.41699 0.54662 0.12893 0.0
H667 H 0.43495 0.58858 0.25213 0.0
H668 H 0.42602 0.56464 0.32218 0.0
H669 H 0.484 0.51139 0.44701 0.0
H670 H 0.46045 0.51065 0.37533 0.0
H671 H 0.4151 0.50681 0.49436 0.0
H672 H 0.43869 0.5061 0.56597 0.0
H673 H 0.43838 0.53317 0.34691 0.0
H674 H 0.37345 0.48674 0.44744 0.0
H675 H 0.36816 0.45801 0.50425 0.0
H676 H 0.42182 0.43995 0.45111 0.0
H677 H 0.42731 0.46839 0.39338 0.0
C678 C 0.35655 0.54624 0.25091 0.0
C679 C 0.3429 0.53231 0.22784 0.0
C680 C 0.37276 0.54091 0.27598 0.0
C681 C 0.37646 0.52153 0.27679 0.0
C682 C 0.36343 0.50761 0.25085 0.0
C683 C 0.34678 0.51295 0.22664 0.0
C684 C 0.39304 0.51605 0.30862 0.0
C685 C 0.39007 0.5008 0.34506 0.0
C686 C 0.41121 0.52708 0.30749 0.0
C687 C 0.41646 0.54165 0.26552 0.0
C688 C 0.41398 0.53676 0.21057 0.0
C689 C 0.41895 0.55047 0.17114 0.0
C690 C 0.42652 0.56913 0.18611 0.0
C691 C 0.42911 0.57412 0.24057 0.0
C692 C 0.42414 0.56046 0.28016 0.0
C693 C 0.46899 0.50984 0.45787 0.0
C694 C 0.46321 0.5084 0.5122 0.0
C695 C 0.45548 0.50965 0.41673 0.0
C696 C 0.43583 0.50842 0.42886 0.0
C697 C 0.43007 0.50721 0.48336 0.0
C698 C 0.44359 0.50699 0.52448 0.0
C699 C 0.4215 0.50956 0.38502 0.0
C700 C 0.42492 0.52402 0.34642 0.0
C701 C 0.40422 0.4971 0.3822 0.0
C702 C 0.40085 0.47981 0.41639 0.0
C703 C 0.38407 0.47659 0.44762 0.0
C704 C 0.38105 0.46036 0.48005 0.0
C705 C 0.39466 0.4472 0.4814 0.0
C706 C 0.41131 0.45019 0.45017 0.0
C707 C 0.41439 0.46637 0.41764 0.0
H708 H 0.3923 0.43466 0.50657 0.0
H709 H 0.43037 0.57973 0.15552 0.0
H710 H 0.03364 0.33431 0.1895 0.0
H711 H 0.0214 0.36271 0.23168 0.0
H712 H 0.0792 0.38709 0.26465 0.0
H713 H 0.09139 0.35926 0.2212 0.0
H714 H 0.02395 0.37329 0.33237 0.0
H715 H 0.08342 0.43496 0.27559 0.0
H716 H 0.10304 0.44524 0.19634 0.0
H717 H 0.06137 0.41492 0.09152 0.0
H718 H 0.04135 0.40468 0.17004 0.0
H719 H 0.03697 0.44202 0.5386 0.0
H720 H 0.0424 0.41945 0.46507 0.0
H721 H 0.019 0.45668 0.35206 0.0
H722 H 0.01365 0.47954 0.42596 0.0
H723 H 0.05026 0.44157 0.31008 0.0
H724 H 0.99172 0.4176 0.39168 0.0
H725 H 0.96945 0.40806 0.46611 0.0
H726 H 0.00421 0.36399 0.51036 0.0
H727 H 0.02685 0.37346 0.43667 0.0
C728 C 0.04371 0.346 0.20446 0.0
C729 C 0.06346 0.34445 0.20252 0.0
C730 C 0.03671 0.36216 0.2289 0.0
C731 C 0.04935 0.37714 0.25131 0.0
C732 C 0.0691 0.37595 0.24707 0.0
C733 C 0.07607 0.35988 0.22271 0.0
C734 C 0.04211 0.39306 0.28385 0.0
C735 C 0.02958 0.38822 0.32703 0.0
C736 C 0.04902 0.41269 0.27636 0.0
C737 C 0.06093 0.41895 0.22884 0.0
C738 C 0.07837 0.43057 0.23564 0.0
C739 C 0.08959 0.43637 0.19083 0.0
C740 C 0.08348 0.4307 0.13894 0.0
C741 C 0.06612 0.41925 0.13175 0.0
C742 C 0.05484 0.41342 0.17641 0.0
C743 C 0.03309 0.44549 0.49806 0.0
C744 C 0.02473 0.46245 0.48809 0.0
C745 C 0.03613 0.43253 0.45607 0.0
C746 C 0.03077 0.43618 0.40318 0.0
C747 C 0.02313 0.45351 0.39262 0.0
C748 C 0.02008 0.46654 0.43481 0.0
C749 C 0.0329 0.42155 0.35969 0.0
C750 C 0.04444 0.42665 0.31468 0.0
C751 C 0.02471 0.40222 0.36463 0.0
C752 C 0.01105 0.39632 0.40879 0.0
C753 C 0.99468 0.40595 0.41748 0.0
C754 C 0.98198 0.40055 0.45953 0.0
C755 C 0.98543 0.38544 0.49299 0.0
C756 C 1.00156 0.37569 0.4844 0.0
C757 C 0.01432 0.38105 0.44244 0.0
H758 H 0.97558 0.38128 0.52554 0.0
H759 H 0.09218 0.43521 0.10431 0.0
H760 H 0.85624 0.96352 0.98248 0.0
H761 H 0.88409 0.97118 0.92383 0.0
H762 H 0.86039 0.02216 0.87165 0.0
H763 H 0.83272 0.01465 0.9314 0.0
H764 H 0.88418 0.97079 0.82 0.0
H765 H 0.8951 0.05453 0.8193 0.0
H766 H 0.89322 0.08198 0.88262 0.0
H767 H 0.90315 0.04597 0.0156 0.0
H768 H 0.90534 0.01838 0.95305 0.0
H769 H 0.93286 0.00353 0.58093 0.0
H770 H 0.90984 1.00018 0.65625 0.0
H771 H 0.95552 0.01597 0.76859 0.0
H772 H 0.97839 0.01969 0.69321 0.0
H773 H 0.92328 0.03353 0.7952 0.0
H774 H 0.93962 0.97064 0.75267 0.0
H775 H 0.94463 0.94388 0.6898 0.0
H776 H 0.88467 0.93638 0.65412 0.0
H777 H 0.87941 0.96371 0.71515 0.0
C778 C 0.85741 0.97681 0.96024 0.0
C779 C 0.84245 0.98868 0.96237 0.0
C780 C 0.87321 0.98104 0.926 0.0
C781 C 0.87446 0.99721 0.89271 0.0
C782 C 0.86004 0.00973 0.89721 0.0
C783 C 0.84425 0.00554 0.93183 0.0
C784 C 0.88989 1.00001 0.85041 0.0
C785 C 0.8927 0.98454 0.81487 0.0
C786 C 0.90136 0.01781 0.84355 0.0
C787 C 0.90018 0.03434 0.88148 0.0
C788 C 0.89694 0.05249 0.86203 0.0
C789 C 0.89581 0.06807 0.89779 0.0
C790 C 0.898 0.0657 0.95311 0.0
C791 C 0.90138 0.04776 0.97277 0.0
C792 C 0.90253 0.03214 0.93718 0.0
C793 C 0.93794 0.00623 0.62174 0.0
C794 C 0.9575 0.01117 0.63146 0.0
C795 C 0.9248 0.00433 0.66478 0.0
C796 C 0.93093 0.00759 0.71838 0.0
C797 C 0.95041 0.01322 0.72782 0.0
C798 C 0.96354 0.01497 0.68481 0.0
C799 C 0.91713 0.00449 0.76452 0.0
C800 C 0.91468 0.01983 0.80058 0.0
C801 C 0.90628 0.98647 0.77267 0.0
C802 C 0.90916 0.96938 0.73808 0.0
C803 C 0.92751 0.96337 0.73121 0.0
C804 C 0.9304 0.9481 0.69584 0.0
C805 C 0.91498 0.93842 0.66797 0.0
C806 C 0.89661 0.94394 0.67562 0.0
C807 C 0.89367 0.95936 0.71051 0.0
H808 H 0.91725 0.92661 0.64058 0.0
H809 H 0.89711 0.07778 0.98073 0.0
H810 H 0.55086 0.85833 0.02649 0.0
H811 H 0.54513 0.88689 0.97507 0.0
H812 H 0.53808 0.85175 0.83018 0.0
H813 H 0.54378 0.8234 0.88103 0.0
H814 H 0.56187 0.88312 0.81144 0.0
H815 H 0.5 0.86946 0.8964 0.0
H816 H 0.47758 0.86406 0.97297 0.0
H817 H 0.49616 0.92051 0.037 0.0
H818 H 0.51887 0.92615 0.96112 0.0
H819 H 0.5103 0.938 0.63557 0.0
H820 H 0.51788 0.91415 0.70086 0.0
H821 H 0.54181 0.95971 0.80767 0.0
H822 H 0.53472 0.98378 0.74169 0.0
H823 H 0.51193 0.92649 0.85222 0.0
H824 H 0.57358 0.94031 0.76737 0.0
H825 H 0.59544 0.94598 0.68964 0.0
H826 H 0.57636 0.88978 0.62482 0.0
H827 H 0.55445 0.88372 0.70246 0.0
C828 C 0.54775 0.85668 0.98388 0.0
C829 C 0.54794 0.83861 0.95781 0.0
C830 C 0.54454 0.87303 0.95444 0.0
C831 C 0.54127 0.87155 0.89851 0.0
C832 C 0.54079 0.85337 0.87303 0.0
C833 C 0.54403 0.83714 0.90225 0.0
C834 C 0.5389 0.88885 0.86567 0.0
C835 C 0.55087 0.8925 0.82044 0.0
C836 C 0.52492 0.90152 0.87782 0.0
C837 C 0.5113 0.89813 0.92346 0.0
C838 C 0.49942 0.88065 0.92707 0.0
C839 C 0.48664 0.87756 0.97029 0.0
C840 C 0.48549 0.8919 0.00992 0.0
C841 C 0.49709 0.90939 0.00633 0.0
C842 C 0.50991 0.91255 0.96322 0.0
C843 C 0.5172 0.94299 0.67288 0.0
C844 C 0.52188 0.96279 0.68346 0.0
C845 C 0.52152 0.92933 0.71013 0.0
C846 C 0.5303 0.93518 0.75916 0.0
C847 C 0.53494 0.95493 0.77014 0.0
C848 C 0.53097 0.96863 0.73232 0.0
C849 C 0.53471 0.92042 0.79816 0.0
C850 C 0.5231 0.91722 0.8441 0.0
C851 C 0.54902 0.90818 0.7869 0.0
C852 C 0.56228 0.91163 0.74044 0.0
C853 C 0.57396 0.92921 0.73636 0.0
C854 C 0.58638 0.93248 0.69239 0.0
C855 C 0.58717 0.91831 0.6521 0.0
C856 C 0.57569 0.90076 0.656 0.0
C857 C 0.56333 0.89736 0.7001 0.0
H858 H 0.59674 0.92092 0.61798 0.0
H859 H 0.47558 0.88949 0.04334 0.0
H860 H 0.68069 0.51239 0.96568 0.0
H861 H 0.65205 0.52005 0.91767 0.0
H862 H 0.6422 0.46093 0.86133 0.0
H863 H 0.66936 0.45304 0.91214 0.0
H864 H 0.64356 0.52109 0.81913 0.0
H865 H 0.59873 0.44532 0.83156 0.0
H866 H 0.59116 0.41996 0.89861 0.0
H867 H 0.60465 0.4612 0.02697 0.0
H868 H 0.61204 0.48688 0.96078 0.0
H869 H 0.58277 0.50535 0.59324 0.0
H870 H 0.60641 0.50556 0.66522 0.0
H871 H 0.56083 0.49739 0.78297 0.0
H872 H 0.5374 0.49559 0.71092 0.0
H873 H 0.58418 0.47601 0.80914 0.0
H874 H 0.59158 0.5416 0.76744 0.0
H875 H 0.59599 0.57057 0.71159 0.0
H876 H 0.65171 0.55667 0.6633 0.0
H877 H 0.64748 0.52733 0.71783 0.0
C878 C 0.67201 0.50096 0.9444 0.0
C879 C 0.67749 0.48214 0.9425 0.0
C880 C 0.65576 0.50538 0.91633 0.0
C881 C 0.64467 0.49107 0.88591 0.0
C882 C 0.65 0.47224 0.88529 0.0
C883 C 0.66585 0.46778 0.91393 0.0
C884 C 0.62815 0.4956 0.85233 0.0
C885 C 0.63052 0.51132 0.8173 0.0
C886 C 0.61068 0.48339 0.85097 0.0
C887 C 0.60605 0.46802 0.8911 0.0
C888 C 0.59996 0.44902 0.87409 0.0
C889 C 0.59574 0.43458 0.91196 0.0
C890 C 0.59746 0.43896 0.967 0.0
C891 C 0.60337 0.45781 0.98431 0.0
C892 C 0.6076 0.47232 0.94663 0.0
C893 C 0.57784 0.50369 0.63455 0.0
C894 C 0.55818 0.50082 0.6464 0.0
C895 C 0.59138 0.50402 0.67589 0.0
C896 C 0.58556 0.50185 0.73016 0.0
C897 C 0.56586 0.49917 0.74179 0.0
C898 C 0.55239 0.49843 0.70046 0.0
C899 C 0.59987 0.50104 0.7743 0.0
C900 C 0.59708 0.48599 0.81134 0.0
C901 C 0.61644 0.51446 0.77924 0.0
C902 C 0.61913 0.53213 0.74641 0.0
C903 C 0.60472 0.54461 0.74458 0.0
C904 C 0.60719 0.56112 0.71318 0.0
C905 C 0.62409 0.56544 0.68384 0.0
C906 C 0.6386 0.55328 0.68597 0.0
C907 C 0.63617 0.5367 0.71712 0.0
H908 H 0.62598 0.57824 0.6596 0.0
H909 H 0.5942 0.42776 0.99625 0.0
H910 H 0.98882 0.67458 0.96982 0.0
H911 H 1.00035 0.64641 0.92447 0.0
H912 H 0.94227 0.62 0.90988 0.0
H913 H 0.93083 0.64772 0.95645 0.0
H914 H 0.96547 0.59263 0.91948 0.0
H915 H 0.9629 0.6492 0.81159 0.0
H916 H 0.97094 0.6834 0.7891 0.0
H917 H 0.03052 0.67512 0.78072 0.0
H918 H 0.02283 0.6409 0.80396 0.0
H919 H 0.983 0.56722 0.61657 0.0
H920 H 0.97583 0.58907 0.69029 0.0
H921 H 0.00516 0.55581 0.80137 0.0
H922 H 0.01206 0.53359 0.72748 0.0
H923 H 0.99904 0.61226 0.74936 0.0
H924 H 0.98505 0.56099 0.92882 0.0
H925 H 0.97335 0.52698 0.94534 0.0
H926 H 0.94066 0.5246 0.79962 0.0
H927 H 0.9519 0.55866 0.78272 0.0
C928 C 0.97861 0.66244 0.95873 0.0
C929 C 0.95891 0.66347 0.96586 0.0
C930 C 0.98518 0.6464 0.9324 0.0
C931 C 0.97213 0.63126 0.91253 0.0
C932 C 0.95263 0.6315 0.92443 0.0
C933 C 0.94609 0.64743 0.9508 0.0
C934 C 0.97823 0.61658 0.87339 0.0
C935 C 0.97304 0.59689 0.88261 0.0
C936 C 0.98768 0.62209 0.82453 0.0
C937 C 0.99232 0.64258 0.81012 0.0
C938 C 0.97773 0.65471 0.80528 0.0
C939 C 0.98222 0.67409 0.79238 0.0
C940 C 1.00124 0.68144 0.78364 0.0
C941 C 0.0158 0.66941 0.78763 0.0
C942 C 0.01139 0.65003 0.80067 0.0
C943 C 0.98778 0.56445 0.65679 0.0
C944 C 0.99812 0.54874 0.66627 0.0
C945 C 0.98375 0.57701 0.69889 0.0
C946 C 0.98998 0.57416 0.75148 0.0
C947 C 1.00005 0.55824 0.7613 0.0
C948 C 0.004 0.54557 0.71907 0.0
C949 C 0.98623 0.58826 0.79521 0.0
C950 C 0.99185 0.60789 0.78673 0.0
C951 C 0.9767 0.58268 0.8439 0.0
C952 C 0.96952 0.56231 0.85421 0.0
C953 C 0.9753 0.55322 0.90044 0.0
C954 C 0.96875 0.53394 0.90985 0.0
C955 C 0.95633 0.52361 0.87344 0.0
C956 C 0.95034 0.53259 0.82769 0.0
C957 C 0.95681 0.55188 0.81816 0.0
H958 H 0.95131 0.50867 0.88074 0.0
H959 H 0.00469 0.69645 0.77364 0.0
H960 H 0.10998 0.18826 0.31361 0.0
H961 H 0.09308 0.1571 0.3392 0.0
H962 H 0.09414 0.13741 0.17349 0.0
H963 H 0.11062 0.16826 0.14752 0.0
H964 H 0.05779 0.13488 0.21773 0.0
H965 H 0.11998 0.11779 0.26004 0.0
H966 H 0.15145 0.12179 0.30406 0.0
H967 H 0.12418 0.11801 0.45964 0.0
H968 H 0.09252 0.11442 0.41642 0.0
H969 H 0.03395 0.03347 0.35005 0.0
H970 H 0.05466 0.05734 0.29963 0.0
H971 H 0.01989 0.10161 0.35199 0.0
H972 H 0.99938 0.07785 0.40329 0.0
H973 H 0.0751 0.08846 0.35307 0.0
H974 H 0.02285 0.13593 0.25356 0.0
H975 H 0.99145 0.13201 0.20897 0.0
H976 H 0.99959 0.0737 0.16409 0.0
H977 H 0.03114 0.07734 0.20771 0.0
C978 C 0.10697 0.17713 0.28291 0.0
C979 C 0.11174 0.18076 0.22861 0.0
C980 C 0.09737 0.15935 0.29755 0.0
C981 C 0.09233 0.14504 0.25807 0.0
C982 C 0.09792 0.14828 0.20447 0.0
C983 C 0.10758 0.1659 0.18989 0.0
C984 C 0.07965 0.12747 0.27144 0.0
C985 C 0.06159 0.12467 0.24717 0.0
C986 C 0.08479 0.11407 0.3092 0.0
C987 C 0.10386 0.11608 0.33505 0.0
C988 C 0.12068 0.11803 0.30365 0.0
C989 C 0.13856 0.12023 0.32844 0.0
C990 C 0.13982 0.12024 0.38462 0.0
C991 C 0.1232 0.11804 0.41612 0.0
C992 C 0.10528 0.11595 0.39151 0.0
C993 C 0.03041 0.04818 0.34944 0.0
C994 C 0.0152 0.05389 0.38079 0.0
C995 C 0.0423 0.0618 0.32093 0.0
C996 C 0.03884 0.08122 0.32243 0.0
C997 C 0.02272 0.08665 0.35015 0.0
C998 C 0.01099 0.07307 0.37927 0.0
C999 C 0.0531 0.09617 0.30028 0.0
C1000 C 0.0714 0.09855 0.32312 0.0
C1001 C 0.04822 0.10917 0.2611 0.0
C1002 C 0.02931 0.10688 0.23433 0.0
C1003 C 0.01798 0.1223 0.23398 0.0
C1004 C 1.00015 0.12012 0.2089 0.0
C1005 C 0.99351 0.1026 0.18384 0.0
C1006 C 0.00471 0.08724 0.18369 0.0
C1007 C 0.02256 0.08934 0.20868 0.0
H1008 H 0.97969 0.10094 0.16446 0.0
H1009 H 0.15368 0.12187 0.40371 0.0
H1010 H 0.32428 0.97574 0.32024 0.0
H1011 H 0.34848 0.96503 0.37898 0.0
H1012 H 0.31726 0.9084 0.38457 0.0
H1013 H 0.29278 0.91918 0.3249 0.0
H1014 H 0.34478 0.94321 0.4876 0.0
H1015 H 0.34379 0.88893 0.34757 0.0
H1016 H 0.3367 0.8783 0.25362 0.0
H1017 H 0.37147 0.92807 0.19535 0.0
H1018 H 0.37862 0.939 0.289 0.0
H1019 H 0.44057 0.94067 0.56624 0.0
H1020 H 0.40874 0.92557 0.54171 0.0
H1021 H 0.41546 0.95075 0.3841 0.0
H1022 H 0.44755 0.96509 0.40777 0.0
H1023 H 0.39529 0.9176 0.37491 0.0
H1024 H 0.3949 0.97377 0.49706 0.0
H1025 H 0.4007 0.99206 0.58264 0.0
H1026 H 0.36851 0.94653 0.66885 0.0
H1027 H 0.36262 0.92792 0.58377 0.0
C1028 C 0.32242 0.9611 0.33478 0.0
C1029 C 0.30692 0.94817 0.31789 0.0
C1030 C 0.33613 0.95505 0.36848 0.0
C1031 C 0.33461 0.93594 0.38566 0.0
C1032 C 0.31859 0.92319 0.37145 0.0
C1033 C 0.30468 0.92933 0.33769 0.0
C1034 C 0.35129 0.92946 0.4124 0.0
C1035 C 0.35566 0.93675 0.46429 0.0
C1036 C 0.36548 0.92157 0.38107 0.0
C1037 C 0.3617 0.91473 0.325 0.0
C1038 C 0.3499 0.89756 0.31462 0.0
C1039 C 0.34587 0.8915 0.2615 0.0
C1040 C 0.35363 0.9025 0.21854 0.0
C1041 C 0.36549 0.91955 0.22863 0.0
C1042 C 0.36956 0.92566 0.28168 0.0
C1043 C 0.43537 0.94255 0.52593 0.0
C1044 C 0.44629 0.95417 0.48894 0.0
C1045 C 0.4172 0.93397 0.51206 0.0
C1046 C 0.40957 0.93734 0.46151 0.0
C1047 C 0.42105 0.94792 0.42337 0.0
C1048 C 0.43935 0.95619 0.4369 0.0
C1049 C 0.38908 0.93197 0.44981 0.0
C1050 C 0.38419 0.92269 0.4004 0.0
C1051 C 0.37448 0.93847 0.48311 0.0
C1052 C 0.37856 0.94936 0.53431 0.0
C1053 C 0.38923 0.96759 0.53437 0.0
C1054 C 0.39248 0.97803 0.58272 0.0
C1055 C 0.38499 0.97043 0.6311 0.0
C1056 C 0.37431 0.95236 0.63132 0.0
C1057 C 0.37102 0.94187 0.58309 0.0
H1058 H 0.38737 0.97856 0.66838 0.0
H1059 H 0.35046 0.89781 0.17745 0.0
H1060 H 0.39487 0.33513 0.26462 0.0
H1061 H 0.4146 0.36482 0.29104 0.0
H1062 H 0.45898 0.33133 0.3428 0.0
H1063 H 0.43939 0.30179 0.31712 0.0
H1064 H 0.45893 0.36195 0.40431 0.0
H1065 H 0.46054 0.34926 0.21571 0.0
H1066 H 0.44787 0.34182 0.12453 0.0
H1067 H 0.4213 0.39442 0.12726 0.0
H1068 H 0.43385 0.4022 0.21862 0.0
H1069 H 0.52903 0.43931 0.40758 0.0
H1070 H 0.51486 0.40995 0.36092 0.0
H1071 H 0.4633 0.43672 0.33477 0.0
H1072 H 0.47739 0.46596 0.38056 0.0
H1073 H 0.47019 0.40812 0.25449 0.0
H1074 H 0.46944 0.41775 0.45181 0.0
H1075 H 0.48722 0.42487 0.53574 0.0
H1076 H 0.5169 0.37474 0.50963 0.0
H1077 H 0.49948 0.3676 0.42442 0.0
C1078 C 0.40856 0.33412 0.28337 0.0
C1079 C 0.41565 0.31616 0.28829 0.0
C1080 C 0.4199 0.35106 0.29787 0.0
C1081 C 0.43851 0.35025 0.31708 0.0
C1082 C 0.44475 0.33228 0.32749 0.0
C1083 C 0.4334 0.31537 0.3133 0.0
C1084 C 0.452 0.36796 0.32231 0.0
C1085 C 0.46153 0.37188 0.37126 0.0
C1086 C 0.45567 0.38082 0.27896 0.0
C1087 C 0.44796 0.37621 0.22421 0.0
C1088 C 0.45187 0.35917 0.19703 0.0
C1089 C 0.44474 0.3549 0.14529 0.0
C1090 C 0.43368 0.36757 0.12024 0.0
C1091 C 0.42983 0.3846 0.14678 0.0
C1092 C 0.437 0.38898 0.19849 0.0
C1093 C 0.51504 0.43918 0.38966 0.0
C1094 C 0.50409 0.45461 0.39856 0.0
C1095 C 0.50696 0.42244 0.36304 0.0
C1096 C 0.4879 0.42109 0.34555 0.0
C1097 C 0.47799 0.43745 0.34816 0.0
C1098 C 0.48601 0.4541 0.37472 0.0
C1099 C 0.47683 0.4021 0.33649 0.0
C1100 C 0.46768 0.398 0.28708 0.0
C1101 C 0.47392 0.38874 0.37878 0.0
C1102 C 0.48336 0.39229 0.43159 0.0
C1103 C 0.47983 0.40831 0.46387 0.0
C1104 C 0.48988 0.41236 0.51168 0.0
C1105 C 0.50334 0.40033 0.52797 0.0
C1106 C 0.50655 0.38408 0.49681 0.0
C1107 C 0.49659 0.38003 0.44875 0.0
H1108 H 0.51133 0.40356 0.5646 0.0
H1109 H 0.42814 0.36422 0.08022 0.0
H1110 H 0.21068 0.59372 0.34894 0.0
H1111 H 0.1809 0.5907 0.39924 0.0
H1112 H 0.16107 0.63649 0.30803 0.0
H1113 H 0.19129 0.64007 0.25795 0.0
H1114 H 0.15297 0.60921 0.45493 0.0
H1115 H 0.12195 0.61597 0.24491 0.0
H1116 H 0.13246 0.61554 0.1496 0.0
H1117 H 0.17422 0.57739 0.1878 0.0
H1118 H 0.16382 0.57749 0.28305 0.0
H1119 H 0.05351 0.58009 0.48105 0.0
H1120 H 0.08261 0.59929 0.45047 0.0
H1121 H 0.10127 0.54895 0.3711 0.0
H1122 H 0.07224 0.52957 0.40212 0.0
H1123 H 0.10871 0.58219 0.31098 0.0
H1124 H 0.11807 0.55959 0.48863 0.0
H1125 H 0.11082 0.55448 0.58506 0.0
H1126 H 0.11614 0.6157 0.61379 0.0
H1127 H 0.12319 0.62116 0.51728 0.0
C1128 C 0.20057 0.604 0.34147 0.0
C1129 C 0.20311 0.61671 0.29797 0.0
C1130 C 0.18342 0.60218 0.37042 0.0
C1131 C 0.16862 0.61295 0.35607 0.0
C1132 C 0.17228 0.62782 0.31893 0.0
C1133 C 0.18951 0.62977 0.29016 0.0
C1134 C 0.14876 0.60537 0.36941 0.0
C1135 C 0.14309 0.60372 0.42356 0.0
C1136 C 0.13626 0.59742 0.32841 0.0
C1137 C 0.14225 0.59692 0.27102 0.0
C1138 C 0.13332 0.60746 0.23282 0.0
C1139 C 0.13927 0.60728 0.17886 0.0
C1140 C 0.15404 0.59649 0.16269 0.0
C1141 C 0.16281 0.58577 0.20037 0.0
C1142 C 0.15692 0.58591 0.25433 0.0
C1143 C 0.06364 0.5732 0.45616 0.0
C1144 C 0.06075 0.55335 0.44405 0.0
C1145 C 0.08026 0.58417 0.43899 0.0
C1146 C 0.09411 0.57545 0.40916 0.0
C1147 C 0.0907 0.55589 0.39419 0.0
C1148 C 0.07416 0.54486 0.41183 0.0
C1149 C 0.11271 0.58637 0.39653 0.0
C1150 C 0.11823 0.58839 0.3424 0.0
C1151 C 0.1253 0.59399 0.43771 0.0
C1152 C 0.12088 0.59079 0.49563 0.0
C1153 C 0.11748 0.57196 0.5154 0.0
C1154 C 0.11346 0.569 0.57009 0.0
C1155 C 0.11295 0.58476 0.60549 0.0
C1156 C 0.11649 0.60351 0.58628 0.0
C1157 C 0.12051 0.60655 0.5316 0.0
H1158 H 0.10987 0.58244 0.64783 0.0
H1159 H 0.15867 0.59642 0.12096 0.0
H1160 H 0.89508 0.83813 0.86976 0.0
H1161 H 0.91226 0.86726 0.83309 0.0
H1162 H 0.96049 0.83597 0.79514 0.0
H1163 H 0.94388 0.80714 0.83426 0.0
H1164 H 0.97132 0.86591 0.85668 0.0
H1165 H 0.93463 0.85616 0.69524 0.0
H1166 H 0.90557 0.84988 0.64012 0.0
H1167 H 0.88455 0.90108 0.70533 0.0
H1168 H 0.91344 0.90762 0.76112 0.0
H1169 H 0.02518 0.94556 0.72611 0.0
H1170 H 0.00864 0.91496 0.75619 0.0
H1171 H 0.95996 0.94401 0.80498 0.0
H1172 H 0.97637 0.97458 0.77465 0.0
H1173 H 0.95011 0.91463 0.73463 0.0
H1174 H 0.98671 0.9239 0.89749 0.0
H1175 H 0.01601 0.93014 0.95165 0.0
H1176 H 0.03726 0.87959 0.88284 0.0
H1177 H 0.00819 0.87319 0.8277 0.0
C1178 C 0.90916 0.83732 0.85246 0.0
C1179 C 0.9182 0.82036 0.85601 0.0
C1180 C 0.91895 0.85399 0.8311 0.0
C1181 C 0.93778 0.85386 0.8119 0.0
C1182 C 0.94603 0.83644 0.8102 0.0
C1183 C 0.93635 0.81984 0.83199 0.0
C1184 C 0.94968 0.87223 0.80063 0.0
C1185 C 0.96684 0.87643 0.82916 0.0
C1186 C 0.94357 0.88619 0.76608 0.0
C1187 C 0.92615 0.88229 0.73268 0.0
C1188 C 0.92374 0.866 0.69817 0.0
C1189 C 0.90731 0.86241 0.66671 0.0
C1190 C 0.89321 0.87506 0.66929 0.0
C1191 C 0.8955 0.89131 0.70333 0.0
C1192 C 0.91192 0.89498 0.7348 0.0
C1193 C 0.01128 0.94554 0.74523 0.0
C1194 C 1.00201 0.96239 0.74787 0.0
C1195 C 1.00178 0.92803 0.76211 0.0
C1196 C 0.98298 0.9272 0.78226 0.0
C1197 C 0.97439 0.94432 0.78911 0.0
C1198 C 0.98386 0.9618 0.77227 0.0
C1199 C 0.9716 0.90837 0.79102 0.0
C1200 C 0.95457 0.9041 0.76199 0.0
C1201 C 0.97784 0.89433 0.82499 0.0
C1202 C 0.99535 0.89818 0.85805 0.0
C1203 C 0.9977 0.91421 0.89354 0.0
C1204 C 0.01425 0.91776 0.9245 0.0
C1205 C 0.02851 0.9053 0.92058 0.0
C1206 C 0.02622 0.88925 0.88578 0.0
C1207 C 0.0097 0.88564 0.85471 0.0
H1208 H 0.04131 0.90807 0.9446 0.0
H1209 H 0.88052 0.87228 0.64483 0.0
H1210 H 0.70869 0.98609 0.81519 0.0
H1211 H 0.6885 0.00471 0.76251 0.0
H1212 H 0.64114 0.96073 0.78318 0.0
H1213 H 0.66159 0.94136 0.83307 0.0
H1214 H 0.63846 0.97627 0.6907 0.0
H1215 H 0.64949 0.99955 0.87198 0.0
H1216 H 0.66907 0.01177 0.94974 0.0
H1217 H 0.69161 0.06108 0.85943 0.0
H1218 H 0.67236 0.04897 0.78077 0.0
H1219 H 0.56301 0.04095 0.74667 0.0
H1220 H 0.59343 0.03118 0.77708 0.0
H1221 H 0.61503 0.03367 0.61379 0.0
H1222 H 0.58484 0.04376 0.58328 0.0
H1223 H 0.63298 0.04107 0.7719 0.0
H1224 H 0.62922 0.98672 0.58948 0.0
H1225 H 0.60574 0.96729 0.53205 0.0
H1226 H 0.56156 0.9744 0.64887 0.0
H1227 H 0.5848 0.99335 0.70771 0.0
C1228 C 0.69422 0.97992 0.80669 0.0
C1229 C 0.68667 0.96231 0.8292 0.0
C1230 C 0.68261 0.99078 0.77717 0.0
C1231 C 0.66319 0.98441 0.77048 0.0
C1232 C 0.65606 0.96605 0.78849 0.0
C1233 C 0.66773 0.95504 0.81736 0.0
C1234 C 0.64986 0.99743 0.74938 0.0
C1235 C 0.63752 0.99058 0.70772 0.0
C1236 C 0.6482 0.01585 0.773 0.0
C1237 C 0.65968 0.02324 0.82031 0.0
C1238 C 0.65873 0.01293 0.86858 0.0
C1239 C 0.66975 0.01984 0.91282 0.0
C1240 C 0.68162 0.03717 0.90947 0.0
C1241 C 0.68244 0.04764 0.86191 0.0
C1242 C 0.67148 0.04076 0.81748 0.0
C1243 C 0.57457 0.04034 0.71774 0.0
C1244 C 0.5715 0.04279 0.66259 0.0
C1245 C 0.59192 0.03469 0.7351 0.0
C1246 C 0.60622 0.03129 0.69737 0.0
C1247 C 0.60403 0.03602 0.64331 0.0
C1248 C 0.58679 0.04189 0.62606 0.0
C1249 C 0.62177 0.01992 0.71288 0.0
C1250 C 0.63443 0.02705 0.75358 0.0
C1251 C 0.62317 0.00134 0.69015 0.0
C1252 C 0.60872 0.99175 0.65255 0.0
C1253 C 0.61444 0.98431 0.60263 0.0
C1254 C 0.60119 0.97327 0.57002 0.0
C1255 C 0.58217 0.96961 0.58694 0.0
C1256 C 0.57626 0.97732 0.63584 0.0
C1257 C 0.58947 0.98824 0.6688 0.0
H1258 H 0.57204 0.96056 0.56259 0.0
H1259 H 0.69014 0.0425 0.94377 0.0
H1260 H 0.63087 0.67643 0.89625 0.0
H1261 H 0.61512 0.64618 0.85901 0.0
H1262 H 0.57699 0.67784 0.76949 0.0
H1263 H 0.59208 0.70792 0.80764 0.0
H1264 H 0.55846 0.65429 0.84385 0.0
H1265 H 0.60608 0.64936 0.70515 0.0
H1266 H 0.63853 0.64818 0.66777 0.0
H1267 H 0.64542 0.59851 0.76219 0.0
H1268 H 0.61308 0.59951 0.8006 0.0
H1269 H 0.50133 0.57746 0.71379 0.0
H1270 H 0.52115 0.60636 0.74468 0.0
H1271 H 0.56024 0.57098 0.81745 0.0
H1272 H 0.54067 0.54202 0.78535 0.0
H1273 H 0.57903 0.59581 0.75423 0.0
H1274 H 0.53283 0.60011 0.89411 0.0
H1275 H 0.50078 0.60054 0.93482 0.0
H1276 H 0.49197 0.65064 0.8444 0.0
H1277 H 0.52389 0.65036 0.80255 0.0
C1278 C 0.61958 0.67698 0.86711 0.0
C1279 C 0.61244 0.69458 0.85606 0.0
C1280 C 0.61063 0.65967 0.84571 0.0
C1281 C 0.59465 0.6598 0.81236 0.0
C1282 C 0.58919 0.67747 0.79564 0.0
C1283 C 0.59804 0.69472 0.81713 0.0
C1284 C 0.58162 0.64196 0.80314 0.0
C1285 C 0.56286 0.64158 0.82337 0.0
C1286 C 0.58768 0.62515 0.77891 0.0
C1287 C 0.60723 0.62467 0.75629 0.0
C1288 C 0.61459 0.63832 0.71842 0.0
C1289 C 0.63295 0.63764 0.6969 0.0
C1290 C 0.64406 0.62333 0.71274 0.0
C1291 C 0.63683 0.60964 0.75009 0.0
C1292 C 0.61847 0.61023 0.77167 0.0
C1293 C 0.51377 0.57586 0.73805 0.0
C1294 C 0.5195 0.55756 0.74719 0.0
C1295 C 0.52514 0.59239 0.75559 0.0
C1296 C 0.54223 0.59084 0.78327 0.0
C1297 C 0.54717 0.57251 0.79591 0.0
C1298 C 0.53588 0.55599 0.77805 0.0
C1299 C 0.55579 0.60822 0.79422 0.0
C1300 C 0.57464 0.60849 0.77469 0.0
C1301 C 0.54993 0.62489 0.8198 0.0
C1302 C 0.5307 0.62511 0.84483 0.0
C1303 C 0.524 0.61113 0.88256 0.0
C1304 C 0.50587 0.61137 0.90591 0.0
C1305 C 0.49433 0.62558 0.89211 0.0
C1306 C 0.50092 0.63962 0.85501 0.0
C1307 C 0.51904 0.63945 0.83151 0.0
H1308 H 0.48029 0.62574 0.91025 0.0
H1309 H 0.65825 0.62281 0.69596 0.0
H1310 H 0.80706 0.42957 0.76511 0.0
H1311 H 0.83854 0.43432 0.72525 0.0
H1312 H 0.85082 0.37892 0.78267 0.0
H1313 H 0.81942 0.37501 0.8273 0.0
H1314 H 0.87674 0.40275 0.81498 0.0
H1315 H 0.85355 0.39277 0.63524 0.0
H1316 H 0.83182 0.39522 0.55875 0.0
H1317 H 0.84314 0.45692 0.56507 0.0
H1318 H 0.86488 0.45485 0.64168 0.0
H1319 H 0.97122 0.43547 0.70292 0.0
H1320 H 0.94033 0.4166 0.72024 0.0
H1321 H 0.91303 0.46904 0.72932 0.0
H1322 H 0.94377 0.48795 0.71316 0.0
H1323 H 0.89714 0.43946 0.6515 0.0
H1324 H 0.91718 0.4482 0.83876 0.0
H1325 H 0.93916 0.44516 0.91423 0.0
H1326 H 0.93368 0.3837 0.89048 0.0
H1327 H 0.91185 0.38642 0.81432 0.0
C1328 C 0.81608 0.41795 0.76699 0.0
C1329 C 0.81083 0.4019 0.79904 0.0
C1330 C 0.83421 0.42063 0.74378 0.0
C1331 C 0.84722 0.4069 0.75016 0.0
C1332 C 0.84113 0.38977 0.77723 0.0
C1333 C 0.82313 0.3874 0.80217 0.0
C1334 C 0.86781 0.41223 0.73761 0.0
C1335 C 0.88123 0.41018 0.77827 0.0
C1336 C 0.87385 0.42227 0.69032 0.0
C1337 C 0.86086 0.42363 0.64409 0.0
C1338 C 0.85136 0.40686 0.62036 0.0
C1339 C 0.83907 0.40819 0.57696 0.0
C1340 C 0.83612 0.42622 0.55704 0.0
C1341 C 0.84544 0.44297 0.58052 0.0
C1342 C 0.8578 0.44172 0.62381 0.0
C1343 C 0.9587 0.44296 0.71011 0.0
C1344 C 0.95981 0.46313 0.70664 0.0
C1345 C 0.9411 0.43219 0.71959 0.0
C1346 C 0.92447 0.44149 0.72521 0.0
C1347 C 0.92574 0.46166 0.72451 0.0
C1348 C 0.94332 0.47243 0.71579 0.0
C1349 C 0.90551 0.43031 0.72932 0.0
C1350 C 0.89258 0.43137 0.6871 0.0
C1351 C 0.89999 0.41914 0.77472 0.0
C1352 C 0.91311 0.41754 0.82041 0.0
C1353 C 0.92083 0.43406 0.84926 0.0
C1354 C 0.93322 0.43239 0.89225 0.0
C1355 C 0.93787 0.41425 0.90701 0.0
C1356 C 0.9301 0.39774 0.87891 0.0
C1357 C 0.91772 0.39934 0.83585 0.0
H1358 H 0.94745 0.41299 0.94032 0.0
H1359 H 0.8266 0.42721 0.52342 0.0
H1360 H 0.03509 0.21276 0.87053 0.0
H1361 H 0.02493 0.18387 0.81607 0.0
H1362 H 0.08389 0.17742 0.77767 0.0
H1363 H 0.09394 0.2068 0.82893 0.0
H1364 H 0.06463 0.16494 0.69757 0.0
H1365 H 0.05862 0.15392 0.88669 0.0
H1366 H 0.04743 0.1591 0.97982 0.0
H1367 H 0.98924 0.14515 0.92975 0.0
H1368 H 1.00009 0.14015 0.83611 0.0
H1369 H 0.03335 0.05407 0.72471 0.0
H1370 H 0.04213 0.0859 0.76625 0.0
H1371 H 0.02401 0.11293 0.62339 0.0
H1372 H 0.01568 0.08143 0.5813 0.0
H1373 H 0.02324 0.11469 0.7949 0.0
H1374 H 0.05136 0.15448 0.60019 0.0
H1375 H 0.06842 0.14739 0.51591 0.0
H1376 H 0.09154 0.10019 0.5912 0.0
H1377 H 0.07485 0.10713 0.67603 0.0
C1378 C 0.04581 0.20558 0.84882 0.0
C1379 C 0.06535 0.21191 0.85476 0.0
C1380 C 0.04002 0.18886 0.81838 0.0
C1381 C 0.05367 0.17802 0.79414 0.0
C1382 C 0.07304 0.18531 0.79632 0.0
C1383 C 0.07879 0.20211 0.82594 0.0
C1384 C 0.04813 0.15851 0.76983 0.0
C1385 C 0.05544 0.15404 0.71875 0.0
C1386 C 0.03673 0.14392 0.79808 0.0
C1387 C 0.03015 0.14687 0.85431 0.0
C1388 C 0.04343 0.15209 0.89549 0.0
C1389 C 0.03715 0.15497 0.94836 0.0
C1390 C 0.01763 0.1525 0.96067 0.0
C1391 C 0.00435 0.14709 0.92013 0.0
C1392 C 0.01056 0.14423 0.86715 0.0
C1393 C 0.0313 0.06679 0.70205 0.0
C1394 C 0.02395 0.06511 0.64941 0.0
C1395 C 0.03625 0.08499 0.72596 0.0
C1396 C 0.03396 0.10187 0.69775 0.0
C1397 C 0.0263 0.10018 0.64565 0.0
C1398 C 0.02148 0.08207 0.62165 0.0
C1399 C 0.03955 0.12127 0.72246 0.0
C1400 C 0.03226 0.12568 0.77355 0.0
C1401 C 0.0517 0.13554 0.69535 0.0
C1402 C 0.06167 0.13121 0.64427 0.0
C1403 C 0.0601 0.14261 0.59876 0.0
C1404 C 0.06971 0.13861 0.5509 0.0
C1405 C 0.081 0.12332 0.54822 0.0
C1406 C 0.08272 0.11198 0.5933 0.0
C1407 C 0.07316 0.11592 0.64123 0.0
H1408 H 0.0885 0.12031 0.51131 0.0
H1409 H 0.01279 0.15473 0.00163 0.0
H1410 H 0.32679 0.04197 0.89012 0.0
H1411 H 0.35387 0.04433 0.82652 0.0
H1412 H 0.34076 0.98427 0.78316 0.0
H1413 H 0.31371 0.98201 0.84646 0.0
H1414 H 0.37719 0.99182 0.81695 0.0
H1415 H 0.33754 0.01911 0.69019 0.0
H1416 H 0.3156 0.04159 0.65792 0.0
H1417 H 0.35805 0.08939 0.68874 0.0
H1418 H 0.38016 0.06721 0.72192 0.0
H1419 H 0.45633 0.98808 0.63935 0.0
H1420 H 0.42387 0.9863 0.67603 0.0
H1421 H 0.43055 0.04786 0.70425 0.0
H1422 H 0.46272 0.04973 0.66494 0.0
H1423 H 0.39608 0.03861 0.67328 0.0
H1424 H 0.43456 0.01212 0.80749 0.0
H1425 H 0.45664 0.99001 0.8413 0.0
H1426 H 0.41646 0.9414 0.79935 0.0
H1427 H 0.39423 0.96323 0.76475 0.0
C1428 C 0.32908 0.02958 0.86483 0.0
C1429 C 0.31777 0.01194 0.87225 0.0
C1430 C 0.34473 0.03085 0.82886 0.0
C1431 C 0.34953 0.01445 0.79994 0.0
C1432 C 0.33746 0.99715 0.80483 0.0
C1433 C 0.32177 0.99593 0.84042 0.0
C1434 C 0.36815 0.01471 0.7697 0.0
C1435 C 0.38115 0.00187 0.78493 0.0
C1436 C 0.37371 0.02811 0.72884 0.0
C1437 C 0.36044 0.0415 0.70905 0.0
C1438 C 0.34213 0.03443 0.69056 0.0
C1439 C 0.32968 0.04712 0.672 0.0
C1440 C 0.3354 0.06691 0.67141 0.0
C1441 C 0.35362 0.07406 0.68928 0.0
C1442 C 0.36613 0.06143 0.70792 0.0
C1443 C 0.45081 0.00126 0.65263 0.0
C1444 C 0.46219 0.01903 0.64907 0.0
C1445 C 0.43221 1.00024 0.67427 0.0
C1446 C 0.42461 0.01691 0.69417 0.0
C1447 C 0.43589 0.03473 0.68948 0.0
C1448 C 0.45439 0.03578 0.66716 0.0
C1449 C 0.40522 0.01583 0.72089 0.0
C1450 C 0.39209 0.02852 0.70516 0.0
C1451 C 0.39957 0.00241 0.76182 0.0
C1452 C 0.41282 0.98929 0.78314 0.0
C1453 C 0.43048 0.99671 0.80526 0.0
C1454 C 0.44302 0.98424 0.82457 0.0
C1455 C 0.43798 0.96432 0.82236 0.0
C1456 C 0.42036 0.95683 0.80098 0.0
C1457 C 0.40778 0.96925 0.78157 0.0
H1458 H 0.44771 0.95468 0.8373 0.0
H1459 H 0.32574 0.07671 0.65701 0.0
H1460 H 0.47318 0.31047 0.89771 0.0
H1461 H 0.48414 0.33978 0.84833 0.0
H1462 H 0.43037 0.33552 0.76434 0.0
H1463 H 0.41984 0.30592 0.81159 0.0
H1464 H 0.4556 0.34973 0.69999 0.0
H1465 H 0.43938 0.36404 0.88118 0.0
H1466 H 0.44043 0.3622 0.98022 0.0
H1467 H 0.4995 0.38531 0.9784 0.0
H1468 H 0.49888 0.38699 0.87914 0.0
H1469 H 0.46975 0.46317 0.71842 0.0
H1470 H 0.45974 0.43194 0.76011 0.0
H1471 H 0.49744 0.40445 0.65285 0.0
H1472 H 0.50755 0.43547 0.61159 0.0
H1473 H 0.47813 0.4068 0.81358 0.0
H1474 H 0.47531 0.35837 0.61547 0.0
H1475 H 0.46467 0.35918 0.52123 0.0
H1476 H 0.43217 0.40623 0.56094 0.0
H1477 H 0.44202 0.4053 0.65577 0.0
C1478 C 0.46402 0.3154 0.8672 0.0
C1479 C 0.44558 0.30596 0.8589 0.0
C1480 C 0.47015 0.33237 0.83963 0.0
C1481 C 0.45787 0.3403 0.80368 0.0
C1482 C 0.44011 0.32992 0.79213 0.0
C1483 C 0.43407 0.31295 0.81924 0.0
C1484 C 0.46287 0.35984 0.78039 0.0
C1485 C 0.46074 0.36216 0.72475 0.0
C1486 C 0.46869 0.37633 0.81297 0.0
C1487 C 0.46914 0.37544 0.87267 0.0
C1488 C 0.45263 0.3686 0.90186 0.0
C1489 C 0.45315 0.3676 0.95805 0.0
C1490 C 0.47003 0.3736 0.9856 0.0
C1491 C 0.48644 0.38064 0.957 0.0
C1492 C 0.48602 0.38162 0.90076 0.0
C1493 C 0.47585 0.45044 0.70369 0.0
C1494 C 0.48902 0.45168 0.66056 0.0
C1495 C 0.47014 0.4326 0.72754 0.0
C1496 C 0.47752 0.4157 0.70871 0.0
C1497 C 0.49111 0.41712 0.66688 0.0
C1498 C 0.4968 0.43486 0.6432 0.0
C1499 C 0.47138 0.39656 0.73283 0.0
C1500 C 0.47326 0.39433 0.78865 0.0
C1501 C 0.46448 0.38029 0.7007 0.0
C1502 C 0.45962 0.3819 0.64285 0.0
C1503 C 0.46591 0.36892 0.60417 0.0
C1504 C 0.45989 0.3693 0.55069 0.0
C1505 C 0.44767 0.38267 0.53521 0.0
C1506 C 0.44161 0.39585 0.57304 0.0
C1507 C 0.44743 0.39541 0.62669 0.0
H1508 H 0.44299 0.38291 0.49381 0.0
H1509 H 0.47039 0.37282 0.02912 0.0
H1510 H 0.20485 0.49612 0.90585 0.0
H1511 H 0.17813 0.4879 0.84371 0.0
H1512 H 0.17485 0.54843 0.81782 0.0
H1513 H 0.20223 0.5565 0.87556 0.0
H1514 H 0.14356 0.49289 0.85104 0.0
H1515 H 0.15341 0.55853 0.70599 0.0
H1516 H 0.17953 0.57811 0.65918 0.0
H1517 H 0.21518 0.53214 0.67064 0.0
H1518 H 0.18918 0.51215 0.71677 0.0
H1519 H 0.0538 0.50831 0.74335 0.0
H1520 H 0.08488 0.50991 0.78763 0.0
H1521 H 0.11223 0.50267 0.63312 0.0
H1522 H 0.08138 0.50231 0.58874 0.0
H1523 H 0.13338 0.52691 0.6819 0.0
H1524 H 0.10495 0.46567 0.73623 0.0
H1525 H 0.08037 0.44169 0.77402 0.0
H1526 H 0.08497 0.47104 0.92785 0.0
H1527 H 0.1094 0.49536 0.89079 0.0
C1528 C 0.19885 0.50761 0.88536 0.0
C1529 C 0.20566 0.52699 0.89627 0.0
C1530 C 0.18336 0.50292 0.85032 0.0
C1531 C 0.17431 0.51749 0.82548 0.0
C1532 C 0.18163 0.53678 0.83504 0.0
C1533 C 0.19724 0.54142 0.86898 0.0
C1534 C 0.1565 0.51287 0.79279 0.0
C1535 C 0.14144 0.50023 0.8138 0.0
C1536 C 0.15364 0.52197 0.74327 0.0
C1537 C 0.16936 0.53389 0.71532 0.0
C1538 C 0.16678 0.55255 0.69833 0.0
C1539 C 0.18158 0.56373 0.67194 0.0
C1540 C 0.19902 0.55639 0.6621 0.0
C1541 C 0.20169 0.53783 0.67848 0.0
C1542 C 0.18693 0.52658 0.70482 0.0
C1543 C 0.06645 0.50696 0.71894 0.0
C1544 C 0.06511 0.50516 0.66254 0.0
C1545 C 0.08427 0.50773 0.74434 0.0
C1546 C 0.1011 0.50607 0.71412 0.0
C1547 C 0.09963 0.50404 0.65772 0.0
C1548 C 0.08192 0.50377 0.63227 0.0
C1549 C 0.12029 0.50727 0.74077 0.0
C1550 C 0.13556 0.51936 0.71874 0.0
C1551 C 0.12358 0.49702 0.78803 0.0
C1552 C 0.1089 0.48243 0.81058 0.0
C1553 C 0.10063 0.46709 0.77802 0.0
C1554 C 0.08673 0.45342 0.79932 0.0
C1555 C 0.08109 0.45486 0.85327 0.0
C1556 C 0.08935 0.46995 0.88606 0.0
C1557 C 0.10324 0.48367 0.86494 0.0
H1558 H 0.07033 0.44427 0.86969 0.0
H1559 H 0.21047 0.56507 0.64168 0.0
H1560 H 0.97324 0.83311 0.19206 0.0
H1561 H 0.98204 0.86134 0.24893 0.0
H1562 H 0.97864 0.82561 0.38946 0.0
H1563 H 0.96903 0.79705 0.33195 0.0
H1564 H 0.96032 0.85589 0.40835 0.0
H1565 H 0.02203 0.84805 0.34016 0.0
H1566 H 0.04723 0.84292 0.27337 0.0
H1567 H 0.03815 0.89577 0.19667 0.0
H1568 H 0.01266 0.90107 0.26236 0.0
H1569 H 0.99286 0.94006 0.56471 0.0
H1570 H 0.98974 0.90833 0.52108 0.0
H1571 H 0.98919 0.93473 0.36538 0.0
H1572 H 0.99289 0.96668 0.4087 0.0
H1573 H 0.01228 0.90707 0.36411 0.0
H1574 H 0.94764 0.91214 0.43087 0.0
H1575 H 0.92396 0.91706 0.50246 0.0
H1576 H 0.94088 0.8687 0.58746 0.0
H1577 H 0.96479 0.86366 0.51681 0.0
C1578 C 0.97458 0.83119 0.23505 0.0
C1579 C 0.97029 0.81288 0.25764 0.0
C1580 C 0.97979 0.84736 0.26758 0.0
C1581 C 0.98122 0.84569 0.32362 0.0
C1582 C 0.97767 0.82728 0.3463 0.0
C1583 C 0.97235 0.81096 0.31349 0.0
C1584 C 0.985 0.86348 0.35796 0.0
C1585 C 0.97193 0.86691 0.39933 0.0
C1586 C 1.0 0.87805 0.346 0.0
C1587 C 0.01528 0.87487 0.30604 0.0
C1588 C 0.02526 0.85849 0.30876 0.0
C1589 C 0.03963 0.85557 0.27112 0.0
C1590 C 0.04426 0.86898 0.23073 0.0
C1591 C 0.03454 0.88537 0.22794 0.0
C1592 C 0.02013 0.88835 0.26541 0.0
C1593 C 0.99191 0.9392 0.52117 0.0
C1594 C 0.993 0.95603 0.4903 0.0
C1595 C 0.99005 0.92096 0.49626 0.0
C1596 C 0.98895 0.91905 0.43992 0.0
C1597 C 0.98994 0.9358 0.40896 0.0
C1598 C 0.99194 0.95409 0.43383 0.0
C1599 C 0.98726 0.89966 0.41305 0.0
C1600 C 1.00078 0.89595 0.37326 0.0
C1601 C 0.97283 0.88478 0.42693 0.0
C1602 C 0.95812 0.88762 0.46877 0.0
C1603 C 0.94636 0.90262 0.46497 0.0
C1604 C 0.93289 0.90542 0.50539 0.0
C1605 C 0.93094 0.89323 0.54959 0.0
C1606 C 0.94239 0.87816 0.55331 0.0
C1607 C 0.95589 0.8753 0.51305 0.0
H1608 H 0.92052 0.89544 0.58087 0.0
H1609 H 0.0554 0.8667 0.20166 0.0
H1610 H 0.70078 0.01755 0.28264 0.0
H1611 H 0.67247 0.0211 0.33993 0.0
H1612 H 0.65944 0.95934 0.34048 0.0
H1613 H 0.68762 0.95576 0.28464 0.0
H1614 H 0.62961 0.97864 0.30216 0.0
H1615 H 0.67255 0.98202 0.45291 0.0
H1616 H 0.70015 0.99514 0.50774 0.0
H1617 H 0.67723 0.04965 0.52142 0.0
H1618 H 0.64963 0.03695 0.46592 0.0
H1619 H 0.54931 0.96116 0.4714 0.0
H1620 H 0.58123 0.96227 0.43147 0.0
H1621 H 0.59021 0.02353 0.4632 0.0
H1622 H 0.55807 0.02244 0.50305 0.0
H1623 H 0.62237 0.00757 0.4844 0.0
H1624 H 0.57978 0.0052 0.33536 0.0
H1625 H 0.55191 0.99299 0.28035 0.0
H1626 H 0.57419 0.93832 0.26086 0.0
H1627 H 0.60208 0.95012 0.31641 0.0
C1628 C 0.69224 0.00475 0.29663 0.0
C1629 C 0.69643 0.98637 0.27877 0.0
C1630 C 0.67597 0.00678 0.32911 0.0
C1631 C 0.66362 0.99048 0.34415 0.0
C1632 C 0.66857 0.97215 0.32919 0.0
C1633 C 0.68477 0.97012 0.29734 0.0
C1634 C 0.64459 0.99223 0.37039 0.0
C1635 C 0.62809 0.98482 0.34225 0.0
C1636 C 0.64242 1.00088 0.42195 0.0
C1637 C 0.65917 0.00862 0.45453 0.0
C1638 C 0.67352 0.99689 0.46697 0.0
C1639 C 0.68913 0.00422 0.49835 0.0
C1640 C 0.69048 0.02324 0.51787 0.0
C1641 C 0.6762 0.03494 0.50614 0.0
C1642 C 0.66057 0.02768 0.47473 0.0
C1643 C 0.55803 0.97491 0.46992 0.0
C1644 C 0.55112 0.99169 0.4911 0.0
C1645 C 0.57633 0.97554 0.4468 0.0
C1646 C 0.58822 0.99303 0.44354 0.0
C1647 C 0.58145 0.00982 0.46525 0.0
C1648 C 0.56304 0.00919 0.48827 0.0
C1649 C 0.60744 0.99367 0.4164 0.0
C1650 C 0.62391 0.00154 0.44416 0.0
C1651 C 0.60965 0.98564 0.36406 0.0
C1652 C 0.59295 0.9785 0.33042 0.0
C1653 C 0.57868 0.99053 0.31965 0.0
C1654 C 0.56288 0.98369 0.28833 0.0
C1655 C 0.56126 0.96488 0.26722 0.0
C1656 C 0.57546 0.95288 0.27728 0.0
C1657 C 0.59127 0.95965 0.30864 0.0
H1658 H 0.54902 0.95961 0.24299 0.0
H1659 H 0.70257 0.02888 0.54222 0.0
H1660 H 0.56021 0.71252 0.34389 0.0
H1661 H 0.55134 0.68455 0.4009 0.0
H1662 H 0.52872 0.65206 0.26165 0.0
H1663 H 0.53683 0.68025 0.2056 0.0
H1664 H 0.50901 0.63962 0.34469 0.0
H1665 H 0.57596 0.65184 0.30539 0.0
H1666 H 0.60753 0.67093 0.30277 0.0
H1667 H 0.6076 0.67544 0.47566 0.0
H1668 H 0.57585 0.65663 0.47925 0.0
H1669 H 0.52534 0.54504 0.41743 0.0
H1670 H 0.52896 0.57631 0.37372 0.0
H1671 H 0.54033 0.60477 0.5276 0.0
H1672 H 0.53665 0.57351 0.57193 0.0
H1673 H 0.56463 0.61988 0.44311 0.0
H1674 H 0.49728 0.60389 0.4777 0.0
H1675 H 0.46728 0.58213 0.47369 0.0
H1676 H 0.46966 0.58213 0.3007 0.0
H1677 H 0.49987 0.60366 0.30366 0.0
C1678 C 0.55252 0.69968 0.32621 0.0
C1679 C 0.54888 0.6986 0.27066 0.0
C1680 C 0.54774 0.68357 0.35853 0.0
C1681 C 0.53981 0.66592 0.33544 0.0
C1682 C 0.53485 0.66539 0.28064 0.0
C1683 C 0.53936 0.68156 0.2486 0.0
C1684 C 0.53843 0.64763 0.36647 0.0
C1685 C 0.52122 0.63533 0.36597 0.0
C1686 C 0.5543 0.64184 0.39454 0.0
C1687 C 0.57344 0.65303 0.39256 0.0
C1688 C 0.58265 0.65701 0.34283 0.0
C1689 C 0.60058 0.66778 0.34117 0.0
C1690 C 0.60954 0.67444 0.38902 0.0
C1691 C 0.60062 0.67031 0.43863 0.0
C1692 C 0.58265 0.6596 0.44051 0.0
C1693 C 0.52889 0.55789 0.44205 0.0
C1694 C 0.53065 0.55669 0.49834 0.0
C1695 C 0.53083 0.57579 0.41694 0.0
C1696 C 0.53464 0.59292 0.44745 0.0
C1697 C 0.53729 0.59176 0.50328 0.0
C1698 C 0.53518 0.57385 0.52854 0.0
C1699 C 0.53529 0.61202 0.42121 0.0
C1700 C 0.55238 0.62437 0.42241 0.0
C1701 C 0.51946 0.61763 0.39286 0.0
C1702 C 0.50093 0.60527 0.39093 0.0
C1703 C 0.49145 0.59919 0.4388 0.0
C1704 C 0.47441 0.5869 0.43671 0.0
C1705 C 0.4666 0.58071 0.38698 0.0
C1706 C 0.47574 0.58692 0.3392 0.0
C1707 C 0.49282 0.59919 0.34106 0.0
H1708 H 0.45347 0.57111 0.38552 0.0
H1709 H 0.62343 0.68276 0.38766 0.0
H1710 H 0.81871 0.49901 0.23633 0.0
H1711 H 0.84363 0.50893 0.30281 0.0
H1712 H 0.85655 0.44989 0.31118 0.0
H1713 H 0.83011 0.43986 0.25281 0.0
H1714 H 0.86646 0.46159 0.39399 0.0
H1715 H 0.88135 0.49107 0.22378 0.0
H1716 H 0.87695 0.51128 0.14529 0.0
H1717 H 0.87708 0.5612 0.24936 0.0
H1718 H 0.88128 0.54123 0.32854 0.0
H1719 H 0.97228 0.50937 0.40668 0.0
H1720 H 0.94195 0.50445 0.35799 0.0
H1721 H 0.91155 0.4953 0.50872 0.0
H1722 H 0.94175 0.4996 0.55722 0.0
H1723 H 0.91055 0.51947 0.34984 0.0
H1724 H 0.87472 0.45962 0.49548 0.0
H1725 H 0.88519 0.43326 0.54931 0.0
H1726 H 0.93657 0.43399 0.455 0.0
H1727 H 0.92624 0.45973 0.39925 0.0
C1728 C 0.82643 0.48812 0.25406 0.0
C1729 C 0.82278 0.4687 0.23744 0.0
C1730 C 0.84109 0.49385 0.29123 0.0
C1731 C 0.85296 0.48042 0.31065 0.0
C1732 C 0.8481 0.46086 0.29719 0.0
C1733 C 0.83299 0.45509 0.26259 0.0
C1734 C 0.87089 0.48634 0.34252 0.0
C1735 C 0.87596 0.47429 0.38389 0.0
C1736 C 0.88398 0.50259 0.3294 0.0
C1737 C 0.88137 0.51463 0.28206 0.0
C1738 C 0.88032 0.50634 0.2299 0.0
C1739 C 0.87788 0.51775 0.18532 0.0
C1740 C 0.87667 0.5375 0.19236 0.0
C1741 C 0.87796 0.5459 0.24399 0.0
C1742 C 0.88038 0.53454 0.28873 0.0
C1743 C 0.95912 0.50645 0.42947 0.0
C1744 C 0.95951 0.50468 0.48585 0.0
C1745 C 0.94174 0.50371 0.40156 0.0
C1746 C 0.92436 0.49922 0.42942 0.0
C1747 C 0.92472 0.49835 0.48598 0.0
C1748 C 0.94205 0.50086 0.51376 0.0
C1749 C 0.906 0.49446 0.39958 0.0
C1750 C 0.90088 0.5068 0.35939 0.0
C1751 C 0.89368 0.47752 0.41017 0.0
C1752 C 0.89985 0.46193 0.44385 0.0
C1753 C 0.88824 0.45416 0.48619 0.0
C1754 C 0.89413 0.43931 0.51701 0.0
C1755 C 0.91158 0.43216 0.50607 0.0
C1756 C 0.92312 0.43965 0.46378 0.0
C1757 C 0.91724 0.45435 0.43249 0.0
H1758 H 0.91609 0.42073 0.53017 0.0
H1759 H 0.87478 0.54631 0.15779 0.0
loop_
_geom_bond_atom_site_label_1
_geom_bond_atom_site_label_2
_geom_bond_distance
_geom_bond_site_symmetry_2
_ccdc_geom_bond_type
C0 C1 1.391 . S
C0 C4 1.391 . S
C0 H42 0.948 . S
C1 C0 1.391 . S
C1 C2 1.391 . S
C2 C1 1.391 . S
C2 H58 0.947 . S
C2 C59 1.392 . S
C3 C4 1.391 . S
C3 C7 1.397 . S
C3 C59 1.419 . S
C4 C0 1.391 . S
C4 C3 1.391 . S
C4 C5 1.399 . S
C5 C4 1.399 . S
C5 C8 1.396 . S
C5 C17 1.453 . S
C5 C18 1.684 . S
H6 C30 0.948 . S
C7 C3 1.397 . S
C7 C8 1.394 . S
C7 C26 1.723 . S
C8 C5 1.396 . S
C8 C7 1.394 . S
C8 C38 1.723 . S
H9 C32 0.947 . S
H10 C33 0.948 . S
H11 C39 0.982 . S
H12 C40 0.979 . S
H13 C40 0.980 . S
H14 C40 0.983 . S
H15 C39 0.979 . S
H16 C39 0.977 . S
C17 C5 1.453 . S
C17 H46 0.982 . S
C17 H47 0.979 . S
C17 H48 0.977 . S
C18 C5 1.684 . S
C18 H43 0.979 . S
C18 H44 0.980 . S
C18 H45 0.983 . S
C19 C20 1.391 . S
C19 C24 1.391 . S
C19 H49 0.948 . S
C20 C19 1.391 . S
C20 C21 1.391 . S
C21 C20 1.391 . S
C21 C22 1.392 . S
C21 H50 0.947 . S
C22 C21 1.392 . S
C22 C23 1.419 . S
C22 H51 0.948 . S
C23 C22 1.419 . S
C23 C24 1.391 . S
C23 C27 1.397 . S
C24 C19 1.391 . S
C24 C23 1.391 . S
C24 C25 1.399 . S
C25 C24 1.399 . S
C25 C26 1.396 1_556 S
C25 C28 1.453 1_556 S
C25 C29 1.684 1_556 S
C26 C7 1.723 . S
C26 C25 1.396 1_554 S
C26 C27 1.394 1_554 S
C27 C23 1.397 . S
C27 C26 1.394 1_556 S
C27 C37 1.723 . S
C28 C25 1.453 1_554 S
C28 H52 0.982 . S
C28 H53 0.979 . S
C28 H54 0.977 . S
C29 C25 1.684 1_554 S
C29 H55 0.979 . S
C29 H56 0.980 . S
C29 H57 0.983 . S
C30 H6 0.948 . S
C30 C31 1.391 . S
C30 C35 1.391 . S
C31 C30 1.391 . S
C31 C32 1.391 1_556 S
C32 H9 0.947 . S
C32 C31 1.391 1_554 S
C32 C33 1.392 . S
C33 H10 0.948 . S
C33 C32 1.392 . S
C33 C34 1.419 . S
C34 C33 1.419 . S
C34 C35 1.391 1_554 S
C34 C38 1.397 . S
C35 C30 1.391 . S
C35 C34 1.391 1_556 S
C35 C36 1.399 . S
C36 C35 1.399 . S
C36 C37 1.396 . S
C36 C39 1.453 . S
C36 C40 1.684 . S
C37 C27 1.723 . S
C37 C36 1.396 . S
C37 C38 1.394 1_556 S
C38 C8 1.723 . S
C38 C34 1.397 . S
C38 C37 1.394 1_554 S
C39 H11 0.982 . S
C39 H15 0.979 . S
C39 H16 0.977 . S
C39 C36 1.453 . S
C40 H12 0.979 . S
C40 H13 0.980 . S
C40 H14 0.983 . S
C40 C36 1.684 . S
H41 C59 0.948 . S
H42 C0 0.948 . S
H43 C18 0.979 . S
H44 C18 0.980 . S
H45 C18 0.983 . S
H46 C17 0.982 . S
H47 C17 0.979 . S
H48 C17 0.977 . S
H49 C19 0.948 . S
H50 C21 0.947 . S
H51 C22 0.948 . S
H52 C28 0.982 . S
H53 C28 0.979 . S
H54 C28 0.977 . S
H55 C29 0.979 . S
H56 C29 0.980 . S
H57 C29 0.983 . S
H58 C2 0.947 . S
C59 C2 1.392 . S
C59 C3 1.419 . S
C59 H41 0.948 . S
C60 C61 1.391 . S
C60 C64 1.391 . S
C60 H102 0.948 . S
C61 C60 1.391 . S
C61 C62 1.391 . S
C62 C61 1.391 . S
C62 H118 0.947 . S
C62 C119 1.392 . S
C63 C64 1.391 . S
C63 C67 1.397 . S
C63 C119 1.419 . S
C64 C60 1.391 . S
C64 C63 1.391 . S
C64 C65 1.399 . S
C65 C64 1.399 . S
C65 C68 1.396 . S
C65 C77 1.453 . S
C65 C78 1.684 . S
H66 C90 0.948 1_554 S
C67 C63 1.397 . S
C67 C68 1.394 . S
C67 C86 1.723 1_556 S
C68 C65 1.396 . S
C68 C67 1.394 . S
C68 C98 1.723 . S
H69 C92 0.947 . S
H70 C93 0.948 . S
H71 C99 0.982 . S
H72 C100 0.979 . S
H73 C100 0.980 . S
H74 C100 0.983 . S
H75 C99 0.979 . S
H76 C99 0.977 . S
C77 C65 1.453 . S
C77 H106 0.982 . S
C77 H107 0.979 . S
C77 H108 0.977 . S
C78 C65 1.684 . S
C78 H103 0.979 . S
C78 H104 0.980 . S
C78 H105 0.983 . S
C79 C80 1.391 . S
C79 C84 1.391 . S
C79 H109 0.948 . S
C80 C79 1.391 . S
C80 C81 1.391 . S
C81 C80 1.391 . S
C81 C82 1.392 . S
C81 H110 0.947 . S
C82 C81 1.392 . S
C82 C83 1.419 . S
C82 H111 0.948 . S
C83 C82 1.419 . S
C83 C84 1.391 . S
C83 C87 1.397 . S
C84 C79 1.391 . S
C84 C83 1.391 . S
C84 C85 1.399 . S
C85 C84 1.399 . S
C85 C86 1.396 . S
C85 C88 1.453 . S
C85 C89 1.684 . S
C86 C67 1.723 1_554 S
C86 C85 1.396 . S
C86 C87 1.394 . S
C87 C83 1.397 . S
C87 C86 1.394 . S
C87 C97 1.723 . S
C88 C85 1.453 . S
C88 H112 0.982 . S
C88 H113 0.979 . S
C88 H114 0.977 . S
C89 C85 1.684 . S
C89 H115 0.979 . S
C89 H116 0.980 . S
C89 H117 0.983 . S
C90 H66 0.948 1_556 S
C90 C91 1.391 . S
C90 C95 1.391 1_556 S
C91 C90 1.391 . S
C91 C92 1.391 . S
C92 H69 0.947 . S
C92 C91 1.391 . S
C92 C93 1.392 . S
C93 H70 0.948 . S
C93 C92 1.392 . S
C93 C94 1.419 . S
C94 C93 1.419 . S
C94 C95 1.391 1_556 S
C94 C98 1.397 . S
C95 C90 1.391 1_554 S
C95 C94 1.391 1_554 S
C95 C96 1.399 . S
C96 C95 1.399 . S
C96 C97 1.396 . S
C96 C99 1.453 . S
C96 C100 1.684 . S
C97 C87 1.723 . S
C97 C96 1.396 . S
C97 C98 1.394 1_554 S
C98 C68 1.723 . S
C98 C94 1.397 . S
C98 C97 1.394 1_556 S
C99 H71 0.982 . S
C99 H75 0.979 . S
C99 H76 0.977 . S
C99 C96 1.453 . S
C100 H72 0.979 . S
C100 H73 0.980 . S
C100 H74 0.983 . S
C100 C96 1.684 . S
H101 C119 0.948 . S
H102 C60 0.948 . S
H103 C78 0.979 . S
H104 C78 0.980 . S
H105 C78 0.983 . S
H106 C77 0.982 . S
H107 C77 0.979 . S
H108 C77 0.977 . S
H109 C79 0.948 . S
H110 C81 0.947 . S
H111 C82 0.948 . S
H112 C88 0.982 . S
H113 C88 0.979 . S
H114 C88 0.977 . S
H115 C89 0.979 . S
H116 C89 0.980 . S
H117 C89 0.983 . S
H118 C62 0.947 . S
C119 C62 1.392 . S
C119 C63 1.419 . S
C119 H101 0.948 . S
C120 C121 1.391 1_554 S
C120 C124 1.391 . S
C120 H162 0.948 . S
C121 C120 1.391 1_556 S
C121 C122 1.391 . S
C122 C121 1.391 . S
C122 H178 0.947 . S
C122 C179 1.392 . S
C123 C124 1.391 1_556 S
C123 C127 1.398 1_566 S
C123 C179 1.419 . S
C124 C120 1.391 . S
C124 C123 1.391 1_554 S
C124 C125 1.399 . S
C125 C124 1.399 . S
C125 C128 1.382 1_565 S
C125 C137 1.453 1_565 S
C125 C138 1.684 . S
H126 C150 0.948 . S
C127 C123 1.398 1_544 S
C127 C128 1.395 . S
C127 C146 1.716 1_554 S
C128 C125 1.382 1_545 S
C128 C127 1.395 . S
C128 C158 1.727 . S
H129 C152 0.947 . S
H130 C153 0.948 . S
H131 C159 0.982 . S
H132 C160 0.979 . S
H133 C160 0.980 . S
H134 C160 0.983 . S
H135 C159 0.979 . S
H136 C159 0.977 . S
C137 C125 1.453 1_545 S
C137 H166 0.982 . S
C137 H167 0.979 . S
C137 H168 0.977 . S
C138 C125 1.684 . S
C138 H163 0.979 . S
C138 H164 0.980 . S
C138 H165 0.983 . S
C139 C140 1.391 . S
C139 C144 1.391 . S
C139 H169 0.948 . S
C140 C139 1.391 . S
C140 C141 1.391 . S
C141 C140 1.391 . S
C141 C142 1.392 . S
C141 H170 0.947 . S
C142 C141 1.392 . S
C142 C143 1.419 . S
C142 H171 0.948 1_556 S
C143 C142 1.419 . S
C143 C144 1.391 . S
C143 C147 1.397 1_565 S
C144 C139 1.391 . S
C144 C143 1.391 . S
C144 C145 1.399 . S
C145 C144 1.399 . S
C145 C146 1.391 1_565 S
C145 C148 1.453 1_565 S
C145 C149 1.684 . S
C146 C127 1.716 1_556 S
C146 C145 1.391 1_545 S
C146 C147 1.398 . S
C147 C143 1.397 1_545 S
C147 C146 1.398 . S
C147 C157 1.722 1_556 S
C148 C145 1.453 1_545 S
C148 H172 0.982 . S
C148 H173 0.979 . S
C148 H174 0.977 . S
C149 C145 1.684 . S
C149 H175 0.979 . S
C149 H176 0.980 . S
C149 H177 0.983 . S
C150 H126 0.948 . S
C150 C151 1.391 . S
C150 C155 1.391 . S
C151 C150 1.391 . S
C151 C152 1.391 . S
C152 H129 0.947 . S
C152 C151 1.391 . S
C152 C153 1.392 . S
C153 H130 0.948 . S
C153 C152 1.392 . S
C153 C154 1.419 . S
C154 C153 1.419 . S
C154 C155 1.391 . S
C154 C158 1.397 1_565 S
C155 C150 1.391 . S
C155 C154 1.391 . S
C155 C156 1.399 . S
C156 C155 1.399 . S
C156 C157 1.392 1_565 S
C156 C159 1.453 1_565 S
C156 C160 1.684 . S
C157 C147 1.722 1_554 S
C157 C156 1.392 1_545 S
C157 C158 1.386 . S
C158 C128 1.727 . S
C158 C154 1.397 1_545 S
C158 C157 1.386 . S
C159 H131 0.982 . S
C159 H135 0.979 . S
C159 H136 0.977 . S
C159 C156 1.453 1_545 S
C160 H132 0.979 . S
C160 H133 0.980 . S
C160 H134 0.983 . S
C160 C156 1.684 . S
H161 C179 0.948 . S
H162 C120 0.948 . S
H163 C138 0.979 . S
H164 C138 0.980 . S
H165 C138 0.983 . S
H166 C137 0.982 . S
H167 C137 0.979 . S
H168 C137 0.977 . S
H169 C139 0.948 . S
H170 C141 0.947 . S
H171 C142 0.948 1_554 S
H172 C148 0.982 . S
H173 C148 0.979 . S
H174 C148 0.977 . S
H175 C149 0.979 . S
H176 C149 0.980 . S
H177 C149 0.983 . S
H178 C122 0.947 . S
C179 C122 1.392 . S
C179 C123 1.419 . S
C179 H161 0.948 . S
C180 C181 1.391 . S
C180 C184 1.391 . S
C180 H222 0.948 . S
C181 C180 1.391 . S
C181 C182 1.391 . S
C182 C181 1.391 . S
C182 H238 0.947 . S
C182 C239 1.392 . S
C183 C184 1.391 . S
C183 C187 1.397 . S
C183 C239 1.419 . S
C184 C180 1.391 . S
C184 C183 1.391 . S
C184 C185 1.399 . S
C185 C184 1.399 . S
C185 C188 1.396 . S
C185 C197 1.453 . S
C185 C198 1.684 . S
H186 C210 0.948 . S
C187 C183 1.397 . S
C187 C188 1.394 . S
C187 C206 1.723 . S
C188 C185 1.396 . S
C188 C187 1.394 . S
C188 C218 1.723 . S
H189 C212 0.947 . S
H190 C213 0.948 . S
H191 C219 0.982 . S
H192 C220 0.979 . S
H193 C220 0.980 . S
H194 C220 0.983 . S
H195 C219 0.979 . S
H196 C219 0.977 . S
C197 C185 1.453 . S
C197 H226 0.982 . S
C197 H227 0.979 . S
C197 H228 0.977 . S
C198 C185 1.684 . S
C198 H223 0.979 . S
C198 H224 0.980 . S
C198 H225 0.983 . S
C199 C200 1.391 . S
C199 C204 1.391 . S
C199 H229 0.948 . S
C200 C199 1.391 . S
C200 C201 1.391 . S
C201 C200 1.391 . S
C201 C202 1.392 . S
C201 H230 0.947 . S
C202 C201 1.392 . S
C202 C203 1.419 . S
C202 H231 0.948 . S
C203 C202 1.419 . S
C203 C204 1.391 . S
C203 C207 1.397 1_556 S
C204 C199 1.391 . S
C204 C203 1.391 . S
C204 C205 1.399 1_556 S
C205 C204 1.399 1_554 S
C205 C206 1.396 . S
C205 C208 1.453 . S
C205 C209 1.684 . S
C206 C187 1.723 . S
C206 C205 1.396 . S
C206 C207 1.394 . S
C207 C203 1.397 1_554 S
C207 C206 1.394 . S
C207 C217 1.723 . S
C208 C205 1.453 . S
C208 H232 0.982 . S
C208 H233 0.979 . S
C208 H234 0.977 . S
C209 C205 1.684 . S
C209 H235 0.979 . S
C209 H236 0.980 . S
C209 H237 0.983 . S
C210 H186 0.948 . S
C210 C211 1.391 1_556 S
C210 C215 1.393 . S
C211 C210 1.391 1_554 S
C211 C212 1.391 . S
C212 H189 0.947 . S
C212 C211 1.391 . S
C212 C213 1.392 . S
C213 H190 0.948 . S
C213 C212 1.392 . S
C213 C214 1.419 . S
C214 C213 1.419 . S
C214 C215 1.386 1_554 S
C214 C218 1.397 . S
C215 C210 1.393 . S
C215 C214 1.386 1_556 S
C215 C216 1.402 . S
C216 C215 1.402 . S
C216 C217 1.396 1_556 S
C216 C219 1.453 . S
C216 C220 1.684 . S
C217 C207 1.723 . S
C217 C216 1.396 1_554 S
C217 C218 1.394 . S
C218 C188 1.723 . S
C218 C214 1.397 . S
C218 C217 1.394 . S
C219 H191 0.982 . S
C219 H195 0.979 . S
C219 H196 0.977 . S
C219 C216 1.453 . S
C220 H192 0.979 . S
C220 H193 0.980 . S
C220 H194 0.983 . S
C220 C216 1.684 . S
H221 C239 0.948 . S
H222 C180 0.948 . S
H223 C198 0.979 . S
H224 C198 0.980 . S
H225 C198 0.983 . S
H226 C197 0.982 . S
H227 C197 0.979 . S
H228 C197 0.977 . S
H229 C199 0.948 . S
H230 C201 0.947 . S
H231 C202 0.948 . S
H232 C208 0.982 . S
H233 C208 0.979 . S
H234 C208 0.977 . S
H235 C209 0.979 . S
H236 C209 0.980 . S
H237 C209 0.983 . S
H238 C182 0.947 . S
C239 C182 1.392 . S
C239 C183 1.419 . S
C239 H221 0.948 . S
C240 C241 1.391 . S
C240 C244 1.391 . S
C240 H282 0.948 . S
C241 C240 1.391 . S
C241 C242 1.391 . S
C242 C241 1.391 . S
C242 H298 0.947 . S
C242 C299 1.392 . S
C243 C244 1.391 . S
C243 C247 1.397 . S
C243 C299 1.419 . S
C244 C240 1.391 . S
C244 C243 1.391 . S
C244 C245 1.399 . S
C245 C244 1.399 . S
C245 C248 1.396 . S
C245 C257 1.453 . S
C245 C258 1.684 . S
H246 C270 0.948 . S
C247 C243 1.397 . S
C247 C248 1.394 . S
C247 C266 1.723 . S
C248 C245 1.396 . S
C248 C247 1.394 . S
C248 C278 1.723 . S
H249 C272 0.947 . S
H250 C273 0.948 . S
H251 C279 0.982 . S
H252 C280 0.979 . S
H253 C280 0.980 . S
H254 C280 0.983 . S
H255 C279 0.979 . S
H256 C279 0.977 . S
C257 C245 1.453 . S
C257 H286 0.982 . S
C257 H287 0.979 . S
C257 H288 0.977 1_554 S
C258 C245 1.684 . S
C258 H283 0.979 . S
C258 H284 0.980 1_554 S
C258 H285 0.983 . S
C259 C260 1.391 . S
C259 C264 1.391 . S
C259 H289 0.948 . S
C260 C259 1.391 . S
C260 C261 1.391 . S
C261 C260 1.391 . S
C261 C262 1.392 . S
C261 H290 0.947 . S
C262 C261 1.392 . S
C262 C263 1.419 . S
C262 H291 0.948 . S
C263 C262 1.419 . S
C263 C264 1.391 . S
C263 C267 1.397 . S
C264 C259 1.391 . S
C264 C263 1.391 . S
C264 C265 1.399 . S
C265 C264 1.399 . S
C265 C266 1.396 . S
C265 C268 1.453 . S
C265 C269 1.684 . S
C266 C247 1.723 . S
C266 C265 1.396 . S
C266 C267 1.394 . S
C267 C263 1.397 . S
C267 C266 1.394 . S
C267 C277 1.723 . S
C268 C265 1.453 . S
C268 H292 0.982 . S
C268 H293 0.979 . S
C268 H294 0.977 . S
C269 C265 1.684 . S
C269 H295 0.979 . S
C269 H296 0.980 . S
C269 H297 0.983 . S
C270 H246 0.948 . S
C270 C271 1.391 . S
C270 C275 1.391 . S
C271 C270 1.391 . S
C271 C272 1.391 . S
C272 H249 0.947 . S
C272 C271 1.391 . S
C272 C273 1.392 . S
C273 H250 0.948 . S
C273 C272 1.392 . S
C273 C274 1.419 1_556 S
C274 C273 1.419 1_554 S
C274 C275 1.391 1_554 S
C274 C278 1.397 . S
C275 C270 1.391 . S
C275 C274 1.391 1_556 S
C275 C276 1.399 1_556 S
C276 C275 1.399 1_554 S
C276 C277 1.396 . S
C276 C279 1.453 . S
C276 C280 1.684 . S
C277 C267 1.723 . S
C277 C276 1.396 . S
C277 C278 1.394 . S
C278 C248 1.723 . S
C278 C274 1.397 . S
C278 C277 1.394 . S
C279 H251 0.982 . S
C279 H255 0.979 . S
C279 H256 0.977 . S
C279 C276 1.453 . S
C280 H252 0.979 . S
C280 H253 0.980 . S
C280 H254 0.983 . S
C280 C276 1.684 . S
H281 C299 0.948 . S
H282 C240 0.948 . S
H283 C258 0.979 . S
H284 C258 0.980 1_556 S
H285 C258 0.983 . S
H286 C257 0.982 . S
H287 C257 0.979 . S
H288 C257 0.977 1_556 S
H289 C259 0.948 . S
H290 C261 0.947 . S
H291 C262 0.948 . S
H292 C268 0.982 . S
H293 C268 0.979 . S
H294 C268 0.977 . S
H295 C269 0.979 . S
H296 C269 0.980 . S
H297 C269 0.983 . S
H298 C242 0.947 . S
C299 C242 1.392 . S
C299 C243 1.419 . S
C299 H281 0.948 . S
C300 C301 1.391 . S
C300 C304 1.391 . S
C300 H342 0.948 . S
C301 C300 1.391 . S
C301 C302 1.391 . S
C302 C301 1.391 . S
C302 H358 0.947 . S
C302 C359 1.392 . S
C303 C304 1.391 . S
C303 C307 1.397 . S
C303 C359 1.419 . S
C304 C300 1.391 . S
C304 C303 1.391 . S
C304 C305 1.399 . S
C305 C304 1.399 . S
C305 C308 1.396 . S
C305 C317 1.453 . S
C305 C318 1.684 . S
H306 C330 0.948 . S
C307 C303 1.397 . S
C307 C308 1.394 . S
C307 C326 1.723 . S
C308 C305 1.396 . S
C308 C307 1.394 . S
C308 C338 1.723 . S
H309 C332 0.947 . S
H310 C333 0.948 . S
H311 C339 0.982 . S
H312 C340 0.979 . S
H313 C340 0.980 . S
H314 C340 0.983 . S
H315 C339 0.979 . S
H316 C339 0.977 . S
C317 C305 1.453 . S
C317 H346 0.982 . S
C317 H347 0.979 . S
C317 H348 0.977 . S
C318 C305 1.684 . S
C318 H343 0.979 . S
C318 H344 0.980 . S
C318 H345 0.983 . S
C319 C320 1.391 . S
C319 C324 1.391 1_556 S
C319 H349 0.948 . S
C320 C319 1.391 . S
C320 C321 1.391 . S
C321 C320 1.391 . S
C321 C322 1.392 . S
C321 H350 0.947 . S
C322 C321 1.392 . S
C322 C323 1.419 1_556 S
C322 H351 0.948 . S
C323 C322 1.419 1_554 S
C323 C324 1.391 . S
C323 C327 1.397 . S
C324 C319 1.391 1_554 S
C324 C323 1.391 . S
C324 C325 1.399 . S
C325 C324 1.399 . S
C325 C326 1.396 . S
C325 C328 1.453 . S
C325 C329 1.684 . S
C326 C307 1.723 . S
C326 C325 1.396 . S
C326 C327 1.394 . S
C327 C323 1.397 . S
C327 C326 1.394 . S
C327 C337 1.723 . S
C328 C325 1.453 . S
C328 H352 0.982 . S
C328 H353 0.979 . S
C328 H354 0.977 . S
C329 C325 1.684 . S
C329 H355 0.979 . S
C329 H356 0.980 . S
C329 H357 0.983 . S
C330 H306 0.948 . S
C330 C331 1.391 . S
C330 C335 1.391 . S
C331 C330 1.391 . S
C331 C332 1.391 . S
C332 H309 0.947 . S
C332 C331 1.391 . S
C332 C333 1.392 . S
C333 H310 0.948 . S
C333 C332 1.392 . S
C333 C334 1.419 . S
C334 C333 1.419 . S
C334 C335 1.391 . S
C334 C338 1.397 . S
C335 C330 1.391 . S
C335 C334 1.391 . S
C335 C336 1.399 . S
C336 C335 1.399 . S
C336 C337 1.396 . S
C336 C339 1.453 . S
C336 C340 1.684 . S
C337 C327 1.723 . S
C337 C336 1.396 . S
C337 C338 1.394 . S
C338 C308 1.723 . S
C338 C334 1.397 . S
C338 C337 1.394 . S
C339 H311 0.982 . S
C339 H315 0.979 . S
C339 H316 0.977 . S
C339 C336 1.453 . S
C340 H312 0.979 . S
C340 H313 0.980 . S
C340 H314 0.983 . S
C340 C336 1.684 . S
H341 C359 0.948 . S
H342 C300 0.948 . S
H343 C318 0.979 . S
H344 C318 0.980 . S
H345 C318 0.983 . S
H346 C317 0.982 . S
H347 C317 0.979 . S
H348 C317 0.977 . S
H349 C319 0.948 . S
H350 C321 0.947 . S
H351 C322 0.948 . S
H352 C328 0.982 . S
H353 C328 0.979 . S
H354 C328 0.977 . S
H355 C329 0.979 . S
H356 C329 0.980 . S
H357 C329 0.983 . S
H358 C302 0.947 . S
C359 C302 1.392 . S
C359 C303 1.419 . S
C359 H341 0.948 . S
C360 C361 1.391 . S
C360 C364 1.391 . S
C360 H402 0.948 . S
C361 C360 1.391 . S
C361 C362 1.391 . S
C362 C361 1.391 . S
C362 H418 0.947 . S
C362 C419 1.392 . S
C363 C364 1.391 . S
C363 C367 1.397 1_546 S
C363 C419 1.419 . S
C364 C360 1.391 . S
C364 C363 1.391 . S
C364 C365 1.399 . S
C365 C364 1.399 . S
C365 C368 1.386 1_546 S
C365 C377 1.453 1_545 S
C365 C378 1.684 . S
H366 C390 0.948 . S
C367 C363 1.397 1_564 S
C367 C368 1.400 . S
C367 C386 1.717 . S
C368 C365 1.386 1_564 S
C368 C367 1.400 . S
C368 C398 1.720 . S
H369 C392 0.947 . S
H370 C393 0.948 . S
H371 C399 0.982 . S
H372 C400 0.979 . S
H373 C400 0.980 . S
H374 C400 0.983 . S
H375 C399 0.979 . S
H376 C399 0.977 . S
C377 C365 1.453 1_565 S
C377 H406 0.982 . S
C377 H407 0.979 . S
C377 H408 0.977 . S
C378 C365 1.684 . S
C378 H403 0.979 . S
C378 H404 0.980 . S
C378 H405 0.983 . S
C379 C380 1.391 . S
C379 C384 1.391 . S
C379 H409 0.948 . S
C380 C379 1.391 . S
C380 C381 1.391 . S
C381 C380 1.391 . S
C381 C382 1.392 . S
C381 H410 0.947 . S
C382 C381 1.392 . S
C382 C383 1.419 . S
C382 H411 0.948 . S
C383 C382 1.419 . S
C383 C384 1.391 . S
C383 C387 1.397 1_545 S
C384 C379 1.391 . S
C384 C383 1.391 . S
C384 C385 1.399 . S
C385 C384 1.399 . S
C385 C386 1.394 1_545 S
C385 C388 1.453 1_545 S
C385 C389 1.684 . S
C386 C367 1.717 . S
C386 C385 1.394 1_565 S
C386 C387 1.390 . S
C387 C383 1.397 1_565 S
C387 C386 1.390 . S
C387 C397 1.728 . S
C388 C385 1.453 1_565 S
C388 H412 0.982 . S
C388 H413 0.979 . S
C388 H414 0.977 . S
C389 C385 1.684 . S
C389 H415 0.979 . S
C389 H416 0.980 . S
C389 H417 0.983 . S
C390 H366 0.948 . S
C390 C391 1.391 . S
C390 C395 1.391 . S
C391 C390 1.391 . S
C391 C392 1.391 . S
C392 H369 0.947 . S
C392 C391 1.391 . S
C392 C393 1.392 . S
C393 H370 0.948 . S
C393 C392 1.392 . S
C393 C394 1.419 . S
C394 C393 1.419 . S
C394 C395 1.391 . S
C394 C398 1.398 1_545 S
C395 C390 1.391 . S
C395 C394 1.391 . S
C395 C396 1.399 . S
C396 C395 1.399 . S
C396 C397 1.384 1_545 S
C396 C399 1.453 1_545 S
C396 C400 1.684 . S
C397 C387 1.728 . S
C397 C396 1.384 1_565 S
C397 C398 1.389 . S
C398 C368 1.720 . S
C398 C394 1.398 1_565 S
C398 C397 1.389 . S
C399 H371 0.982 . S
C399 H375 0.979 . S
C399 H376 0.977 . S
C399 C396 1.453 1_565 S
C400 H372 0.979 . S
C400 H373 0.980 . S
C400 H374 0.983 . S
C400 C396 1.684 . S
H401 C419 0.948 1_554 S
H402 C360 0.948 . S
H403 C378 0.979 . S
H404 C378 0.980 . S
H405 C378 0.983 . S
H406 C377 0.982 . S
H407 C377 0.979 . S
H408 C377 0.977 . S
H409 C379 0.948 . S
H410 C381 0.947 . S
H411 C382 0.948 . S
H412 C388 0.982 . S
H413 C388 0.979 . S
H414 C388 0.977 . S
H415 C389 0.979 . S
H416 C389 0.980 . S
H417 C389 0.983 . S
H418 C362 0.947 . S
C419 C362 1.392 . S
C419 C363 1.419 . S
C419 H401 0.948 1_556 S
C420 C421 1.391 . S
C420 C424 1.391 . S
C420 H462 0.948 . S
C421 C420 1.391 . S
C421 C422 1.391 . S
C422 C421 1.391 . S
C422 H478 0.947 . S
C422 C479 1.392 . S
C423 C424 1.391 . S
C423 C427 1.397 1_556 S
C423 C479 1.419 . S
C424 C420 1.391 . S
C424 C423 1.391 . S
C424 C425 1.399 . S
C425 C424 1.399 . S
C425 C428 1.396 1_556 S
C425 C437 1.453 . S
C425 C438 1.684 . S
H426 C450 0.948 . S
C427 C423 1.397 1_554 S
C427 C428 1.394 . S
C427 C446 1.723 . S
C428 C425 1.396 1_554 S
C428 C427 1.394 . S
C428 C458 1.723 . S
H429 C452 0.947 . S
H430 C453 0.948 . S
H431 C459 0.982 . S
H432 C460 0.979 . S
H433 C460 0.980 . S
H434 C460 0.983 . S
H435 C459 0.979 . S
H436 C459 0.977 . S
C437 C425 1.453 . S
C437 H466 0.982 . S
C437 H467 0.979 . S
C437 H468 0.977 . S
C438 C425 1.684 . S
C438 H463 0.979 . S
C438 H464 0.980 . S
C438 H465 0.983 . S
C439 C440 1.391 . S
C439 C444 1.391 . S
C439 H469 0.948 . S
C440 C439 1.391 . S
C440 C441 1.391 . S
C441 C440 1.391 . S
C441 C442 1.392 . S
C441 H470 0.947 . S
C442 C441 1.392 . S
C442 C443 1.419 . S
C442 H471 0.948 . S
C443 C442 1.419 . S
C443 C444 1.391 . S
C443 C447 1.397 . S
C444 C439 1.391 . S
C444 C443 1.391 . S
C444 C445 1.399 . S
C445 C444 1.399 . S
C445 C446 1.396 . S
C445 C448 1.453 . S
C445 C449 1.684 . S
C446 C427 1.723 . S
C446 C445 1.396 . S
C446 C447 1.394 . S
C447 C443 1.397 . S
C447 C446 1.394 . S
C447 C457 1.723 . S
C448 C445 1.453 . S
C448 H472 0.982 . S
C448 H473 0.979 . S
C448 H474 0.977 . S
C449 C445 1.684 . S
C449 H475 0.979 . S
C449 H476 0.980 . S
C449 H477 0.983 . S
C450 H426 0.948 . S
C450 C451 1.391 . S
C450 C455 1.391 . S
C451 C450 1.391 . S
C451 C452 1.391 . S
C452 H429 0.947 . S
C452 C451 1.391 . S
C452 C453 1.392 . S
C453 H430 0.948 . S
C453 C452 1.392 . S
C453 C454 1.419 . S
C454 C453 1.419 . S
C454 C455 1.391 . S
C454 C458 1.397 . S
C455 C450 1.391 . S
C455 C454 1.391 . S
C455 C456 1.399 . S
C456 C455 1.399 . S
C456 C457 1.396 . S
C456 C459 1.453 . S
C456 C460 1.684 . S
C457 C447 1.723 . S
C457 C456 1.396 . S
C457 C458 1.394 . S
C458 C428 1.723 . S
C458 C454 1.397 . S
C458 C457 1.394 . S
C459 H431 0.982 . S
C459 H435 0.979 . S
C459 H436 0.977 . S
C459 C456 1.453 . S
C460 H432 0.979 . S
C460 H433 0.980 . S
C460 H434 0.983 . S
C460 C456 1.684 . S
H461 C479 0.948 . S
H462 C420 0.948 . S
H463 C438 0.979 . S
H464 C438 0.980 . S
H465 C438 0.983 . S
H466 C437 0.982 . S
H467 C437 0.979 . S
H468 C437 0.977 . S
H469 C439 0.948 . S
H470 C441 0.947 . S
H471 C442 0.948 . S
H472 C448 0.982 . S
H473 C448 0.979 . S
H474 C448 0.977 . S
H475 C449 0.979 . S
H476 C449 0.980 . S
H477 C449 0.983 . S
H478 C422 0.947 . S
C479 C422 1.392 . S
C479 C423 1.419 . S
C479 H461 0.948 . S
Dy480 O484 2.398 . S
Dy480 O485 2.491 1_455 S
Dy480 O486 2.403 . S
Dy480 O487 2.664 1_565 S
Dy480 O491 2.326 . S
Dy480 O495 2.310 1_455 S
Dy480 O496 2.351 1_565 S
C481 O492 1.185 1_455 S
C481 O493 1.355 . S
C482 O484 1.185 . S
C482 O485 1.355 1_455 S
Dy483 O487 2.286 1_655 S
Dy483 O490 2.357 1_545 S
Dy483 O492 2.405 . S
Dy483 O493 2.474 1_655 S
Dy483 O494 2.428 . S
Dy483 O495 2.672 1_545 S
Dy483 O497 2.320 1_655 S
O484 Dy480 2.398 . S
O484 C482 1.185 . S
O485 Dy480 2.491 1_655 S
O485 C482 1.355 1_655 S
O486 Dy480 2.403 . S
O486 C488 1.254 . S
O487 Dy480 2.664 1_545 S
O487 Dy483 2.286 1_455 S
O487 C488 1.268 1_545 S
C488 O486 1.254 . S
C488 O487 1.268 1_565 S
C489 O494 1.254 . S
C489 O495 1.268 1_545 S
O490 Dy483 2.357 1_565 S
O490 C498 1.249 . S
O491 Dy480 2.326 . S
O491 C498 1.267 1_455 S
O492 C481 1.185 1_655 S
O492 Dy483 2.405 . S
O493 C481 1.355 . S
O493 Dy483 2.474 1_455 S
O494 Dy483 2.428 . S
O494 C489 1.254 . S
O495 Dy480 2.310 1_655 S
O495 Dy483 2.672 1_565 S
O495 C489 1.268 1_565 S
O496 Dy480 2.351 1_545 S
O496 C499 1.249 . S
O497 Dy483 2.320 1_455 S
O497 C499 1.267 . S
C498 O490 1.249 . S
C498 O491 1.267 1_655 S
C499 O496 1.249 . S
C499 O497 1.267 . S
Dy500 O504 2.398 . S
Dy500 O505 2.491 . S
Dy500 O506 2.403 . S
Dy500 O507 2.664 . S
Dy500 O511 2.326 1_565 S
Dy500 O515 2.310 1_565 S
Dy500 O516 2.351 . S
C501 O512 1.185 . S
C501 O513 1.355 . S
C502 O504 1.185 . S
C502 O505 1.355 . S
Dy503 O507 2.310 1_545 S
Dy503 O510 2.351 . S
Dy503 O512 2.398 . S
Dy503 O513 2.491 . S
Dy503 O514 2.403 . S
Dy503 O515 2.664 . S
Dy503 O517 2.326 1_545 S
O504 Dy500 2.398 . S
O504 C502 1.185 . S
O505 Dy500 2.491 . S
O505 C502 1.355 . S
O506 Dy500 2.403 . S
O506 C508 1.254 . S
O507 Dy500 2.664 . S
O507 Dy503 2.310 1_565 S
O507 C508 1.268 . S
C508 O506 1.254 . S
C508 O507 1.268 . S
C509 O514 1.254 . S
C509 O515 1.268 . S
O510 Dy503 2.351 . S
O510 C518 1.249 . S
O511 Dy500 2.326 1_545 S
O511 C518 1.267 . S
O512 C501 1.185 . S
O512 Dy503 2.398 . S
O513 C501 1.355 . S
O513 Dy503 2.491 . S
O514 Dy503 2.403 . S
O514 C509 1.254 . S
O515 Dy500 2.310 1_545 S
O515 Dy503 2.664 . S
O515 C509 1.268 . S
O516 Dy500 2.351 . S
O516 C519 1.249 . S
O517 Dy503 2.326 1_565 S
O517 C519 1.267 . S
C518 O510 1.249 . S
C518 O511 1.267 . S
C519 O516 1.249 . S
C519 O517 1.267 . S
Dy520 O524 2.398 . S
Dy520 O525 2.491 . S
Dy520 O526 2.403 . S
Dy520 O527 2.664 . S
Dy520 O531 2.326 . S
Dy520 O535 2.310 . S
Dy520 O536 2.351 . S
C521 O532 1.185 . S
C521 O533 1.355 . S
C522 O524 1.185 . S
C522 O525 1.355 . S
Dy523 O527 2.310 . S
Dy523 O530 2.351 . S
Dy523 O532 2.398 . S
Dy523 O533 2.491 . S
Dy523 O534 2.403 . S
Dy523 O535 2.664 . S
Dy523 O537 2.326 . S
O524 Dy520 2.398 . S
O524 C522 1.185 . S
O525 Dy520 2.491 . S
O525 C522 1.355 . S
O526 Dy520 2.403 . S
O526 C528 1.254 . S
O527 Dy520 2.664 . S
O527 Dy523 2.310 . S
O527 C528 1.268 . S
C528 O526 1.254 . S
C528 O527 1.268 . S
C529 O534 1.254 . S
C529 O535 1.268 . S
O530 Dy523 2.351 . S
O530 C538 1.249 . S
O531 Dy520 2.326 . S
O531 C538 1.267 . S
O532 C521 1.185 . S
O532 Dy523 2.398 . S
O533 C521 1.355 . S
O533 Dy523 2.491 . S
O534 Dy523 2.403 . S
O534 C529 1.254 . S
O535 Dy520 2.310 . S
O535 Dy523 2.664 . S
O535 C529 1.268 . S
O536 Dy520 2.351 . S
O536 C539 1.249 . S
O537 Dy523 2.326 . S
O537 C539 1.267 . S
C538 O530 1.249 . S
C538 O531 1.267 . S
C539 O536 1.249 . S
C539 O537 1.267 . S
Dy540 O544 2.398 . S
Dy540 O545 2.491 . S
Dy540 O546 2.403 1_655 S
Dy540 O547 2.664 1_655 S
Dy540 O551 2.326 . S
Dy540 O555 2.310 . S
Dy540 O556 2.351 1_655 S
C541 O552 1.185 . S
C541 O553 1.355 . S
C542 O544 1.185 . S
C542 O545 1.355 . S
Dy543 O547 2.310 . S
Dy543 O550 2.351 1_455 S
Dy543 O552 2.398 . S
Dy543 O553 2.491 . S
Dy543 O554 2.403 . S
Dy543 O555 2.664 1_455 S
Dy543 O557 2.326 . S
O544 Dy540 2.398 . S
O544 C542 1.185 . S
O545 Dy540 2.491 . S
O545 C542 1.355 . S
O546 Dy540 2.403 1_455 S
O546 C548 1.254 . S
O547 Dy540 2.664 1_455 S
O547 Dy543 2.310 . S
O547 C548 1.268 . S
C548 O546 1.254 . S
C548 O547 1.268 . S
C549 O554 1.254 1_655 S
C549 O555 1.268 . S
O550 Dy543 2.351 1_655 S
O550 C558 1.249 . S
O551 Dy540 2.326 . S
O551 C558 1.267 . S
O552 C541 1.185 . S
O552 Dy543 2.398 . S
O553 C541 1.355 . S
O553 Dy543 2.491 . S
O554 Dy543 2.403 . S
O554 C549 1.254 1_455 S
O555 Dy540 2.310 . S
O555 Dy543 2.664 1_655 S
O555 C549 1.268 . S
O556 Dy540 2.351 1_455 S
O556 C559 1.249 . S
O557 Dy543 2.326 . S
O557 C559 1.267 . S
C558 O550 1.249 . S
C558 O551 1.267 . S
C559 O556 1.249 . S
C559 O557 1.267 . S
H560 C578 0.951 . S
H561 C580 0.951 . S
H562 C582 0.950 . S
H563 C583 0.950 . S
H564 C585 0.950 . S
H565 C588 0.950 . S
H566 C589 0.950 . S
H567 C591 0.950 . S
H568 C592 0.950 . S
H569 C593 0.951 . S
H570 C595 0.951 . S
H571 C597 0.950 . S
H572 C598 0.950 . S
H573 C600 0.950 . S
H574 C603 0.950 . S
H575 C604 0.950 . S
H576 C606 0.950 . S
H577 C607 0.950 . S
C578 H560 0.951 . S
C578 C579 1.361 1_545 S
C578 C580 1.388 . S
C579 C578 1.361 1_565 S
C579 C583 1.390 . S
C580 H561 0.951 . S
C580 C578 1.388 . S
C580 C581 1.329 1_545 S
C581 C580 1.329 1_565 S
C581 C582 1.453 . S
C581 C584 1.498 . S
C582 H562 0.950 . S
C582 C581 1.453 . S
C582 C583 1.374 . S
C583 H563 0.950 . S
C583 C579 1.390 . S
C583 C582 1.374 . S
C584 C581 1.498 . S
C584 C585 1.373 . S
C584 C586 1.389 1_565 S
C585 H564 0.950 . S
C585 C584 1.373 . S
C585 C601 1.377 . S
C586 C584 1.389 1_545 S
C586 C587 1.524 . S
C586 C600 1.377 . S
C587 C586 1.524 . S
C587 C588 1.397 . S
C587 C592 1.363 . S
C588 H565 0.950 . S
C588 C587 1.397 . S
C588 C589 1.334 . S
C589 H566 0.950 . S
C589 C588 1.334 . S
C589 C590 1.287 . S
C590 C589 1.287 . S
C590 C591 1.524 . S
C590 H609 0.913 . S
C591 H567 0.950 . S
C591 C590 1.524 . S
C591 C592 1.415 . S
C592 H568 0.950 . S
C592 C587 1.363 . S
C592 C591 1.415 . S
C593 H569 0.951 . S
C593 C594 1.366 . S
C593 C595 1.388 . S
C594 C593 1.366 . S
C594 C598 1.385 1_565 S
C595 H570 0.951 . S
C595 C593 1.388 . S
C595 C596 1.366 . S
C596 C595 1.366 . S
C596 C597 1.414 1_565 S
C596 C599 1.499 . S
C597 H571 0.950 . S
C597 C596 1.414 1_545 S
C597 C598 1.374 . S
C598 H572 0.950 . S
C598 C594 1.385 1_545 S
C598 C597 1.374 . S
C599 C596 1.499 . S
C599 C600 1.373 1_565 S
C599 C601 1.389 . S
C600 H573 0.950 . S
C600 C586 1.377 . S
C600 C599 1.373 1_545 S
C601 C585 1.377 . S
C601 C599 1.389 . S
C601 C602 1.524 . S
C602 C601 1.524 . S
C602 C603 1.397 . S
C602 C607 1.363 . S
C603 H574 0.950 . S
C603 C602 1.397 . S
C603 C604 1.334 . S
C604 H575 0.950 . S
C604 C603 1.334 . S
C604 C605 1.287 . S
C605 C604 1.287 . S
C605 C606 1.524 . S
C605 H608 0.999 . S
C606 H576 0.950 . S
C606 C605 1.524 . S
C606 C607 1.415 . S
C607 H577 0.950 . S
C607 C602 1.363 . S
C607 C606 1.415 . S
H608 C605 0.999 . S
H609 C590 0.913 . S
H610 C628 0.951 . S
H611 C630 0.951 . S
H612 C632 0.950 . S
H613 C633 0.950 . S
H614 C635 0.950 . S
H615 C638 0.950 . S
H616 C639 0.950 . S
H617 C641 0.950 . S
H618 C642 0.950 . S
H619 C643 0.951 . S
H620 C645 0.951 . S
H621 C647 0.950 . S
H622 C648 0.950 . S
H623 C650 0.950 . S
H624 C653 0.950 . S
H625 C654 0.950 . S
H626 C656 0.950 . S
H627 C657 0.950 . S
C628 H610 0.951 . S
C628 C629 1.366 . S
C628 C630 1.388 . S
C629 C628 1.366 . S
C629 C633 1.385 . S
C630 H611 0.951 . S
C630 C628 1.388 . S
C630 C631 1.366 . S
C631 C630 1.366 . S
C631 C632 1.414 . S
C631 C634 1.499 . S
C632 H612 0.950 . S
C632 C631 1.414 . S
C632 C633 1.374 . S
C633 H613 0.950 . S
C633 C629 1.385 . S
C633 C632 1.374 . S
C634 C631 1.499 . S
C634 C635 1.373 . S
C634 C636 1.389 . S
C635 H614 0.950 . S
C635 C634 1.373 . S
C635 C651 1.377 . S
C636 C634 1.389 . S
C636 C637 1.524 . S
C636 C650 1.377 . S
C637 C636 1.524 . S
C637 C638 1.397 . S
C637 C642 1.363 . S
C638 H615 0.950 . S
C638 C637 1.397 . S
C638 C639 1.334 . S
C639 H616 0.950 . S
C639 C638 1.334 . S
C639 C640 1.287 . S
C640 C639 1.287 . S
C640 C641 1.524 . S
C640 H659 0.913 . S
C641 H617 0.950 . S
C641 C640 1.524 . S
C641 C642 1.415 . S
C642 H618 0.950 . S
C642 C637 1.363 . S
C642 C641 1.415 . S
C643 H619 0.951 . S
C643 C644 1.366 . S
C643 C645 1.388 . S
C644 C643 1.366 . S
C644 C648 1.385 . S
C645 H620 0.951 . S
C645 C643 1.388 . S
C645 C646 1.366 . S
C646 C645 1.366 . S
C646 C647 1.414 . S
C646 C649 1.499 . S
C647 H621 0.950 . S
C647 C646 1.414 . S
C647 C648 1.374 . S
C648 H622 0.950 . S
C648 C644 1.385 . S
C648 C647 1.374 . S
C649 C646 1.499 . S
C649 C650 1.373 . S
C649 C651 1.389 . S
C650 H623 0.950 . S
C650 C636 1.377 . S
C650 C649 1.373 . S
C651 C635 1.377 . S
C651 C649 1.389 . S
C651 C652 1.524 . S
C652 C651 1.524 . S
C652 C653 1.397 . S
C652 C657 1.363 . S
C653 H624 0.950 . S
C653 C652 1.397 . S
C653 C654 1.334 . S
C654 H625 0.950 . S
C654 C653 1.334 . S
C654 C655 1.287 . S
C655 C654 1.287 . S
C655 C656 1.524 . S
C655 H658 0.999 . S
C656 H626 0.950 . S
C656 C655 1.524 . S
C656 C657 1.415 . S
C657 H627 0.950 . S
C657 C652 1.363 . S
C657 C656 1.415 . S
H658 C655 0.999 . S
H659 C640 0.913 . S
H660 C678 0.951 . S
H661 C680 0.951 . S
H662 C682 0.950 . S
H663 C683 0.950 . S
H664 C685 0.950 . S
H665 C688 0.950 . S
H666 C689 0.950 . S
H667 C691 0.950 . S
H668 C692 0.950 . S
H669 C693 0.951 . S
H670 C695 0.951 . S
H671 C697 0.950 . S
H672 C698 0.950 . S
H673 C700 0.950 . S
H674 C703 0.950 . S
H675 C704 0.950 . S
H676 C706 0.950 . S
H677 C707 0.950 . S
C678 H660 0.951 . S
C678 C679 1.366 . S
C678 C680 1.388 . S
C679 C678 1.366 . S
C679 C683 1.385 . S
C680 H661 0.951 . S
C680 C678 1.388 . S
C680 C681 1.366 . S
C681 C680 1.366 . S
C681 C682 1.414 . S
C681 C684 1.499 . S
C682 H662 0.950 . S
C682 C681 1.414 . S
C682 C683 1.374 . S
C683 H663 0.950 . S
C683 C679 1.385 . S
C683 C682 1.374 . S
C684 C681 1.499 . S
C684 C685 1.373 . S
C684 C686 1.389 . S
C685 H664 0.950 . S
C685 C684 1.373 . S
C685 C701 1.377 . S
C686 C684 1.389 . S
C686 C687 1.524 . S
C686 C700 1.377 . S
C687 C686 1.524 . S
C687 C688 1.397 . S
C687 C692 1.363 . S
C688 H665 0.950 . S
C688 C687 1.397 . S
C688 C689 1.334 . S
C689 H666 0.950 . S
C689 C688 1.334 . S
C689 C690 1.287 . S
C690 C689 1.287 . S
C690 C691 1.524 . S
C690 H709 0.913 . S
C691 H667 0.950 . S
C691 C690 1.524 . S
C691 C692 1.415 . S
C692 H668 0.950 . S
C692 C687 1.363 . S
C692 C691 1.415 . S
C693 H669 0.951 . S
C693 C694 1.366 . S
C693 C695 1.388 . S
C694 C693 1.366 . S
C694 C698 1.385 . S
C695 H670 0.951 . S
C695 C693 1.388 . S
C695 C696 1.366 . S
C696 C695 1.366 . S
C696 C697 1.414 . S
C696 C699 1.499 . S
C697 H671 0.950 . S
C697 C696 1.414 . S
C697 C698 1.374 . S
C698 H672 0.950 . S
C698 C694 1.385 . S
C698 C697 1.374 . S
C699 C696 1.499 . S
C699 C700 1.373 . S
C699 C701 1.389 . S
C700 H673 0.950 . S
C700 C686 1.377 . S
C700 C699 1.373 . S
C701 C685 1.377 . S
C701 C699 1.389 . S
C701 C702 1.524 . S
C702 C701 1.524 . S
C702 C703 1.397 . S
C702 C707 1.363 . S
C703 H674 0.950 . S
C703 C702 1.397 . S
C703 C704 1.334 . S
C704 H675 0.950 . S
C704 C703 1.334 . S
C704 C705 1.287 . S
C705 C704 1.287 . S
C705 C706 1.524 . S
C705 H708 0.999 . S
C706 H676 0.950 . S
C706 C705 1.524 . S
C706 C707 1.415 . S
C707 H677 0.950 . S
C707 C702 1.363 . S
C707 C706 1.415 . S
H708 C705 0.999 . S
H709 C690 0.913 . S
H710 C728 0.951 . S
H711 C730 0.951 . S
H712 C732 0.950 . S
H713 C733 0.950 . S
H714 C735 0.950 . S
H715 C738 0.950 . S
H716 C739 0.950 . S
H717 C741 0.950 . S
H718 C742 0.950 . S
H719 C743 0.951 . S
H720 C745 0.951 . S
H721 C747 0.950 . S
H722 C748 0.950 . S
H723 C750 0.950 . S
H724 C753 0.950 . S
H725 C754 0.950 . S
H726 C756 0.950 . S
H727 C757 0.950 . S
C728 H710 0.951 . S
C728 C729 1.366 . S
C728 C730 1.388 . S
C729 C728 1.366 . S
C729 C733 1.385 . S
C730 H711 0.951 . S
C730 C728 1.388 . S
C730 C731 1.366 . S
C731 C730 1.366 . S
C731 C732 1.414 . S
C731 C734 1.499 . S
C732 H712 0.950 . S
C732 C731 1.414 . S
C732 C733 1.374 . S
C733 H713 0.950 . S
C733 C729 1.385 . S
C733 C732 1.374 . S
C734 C731 1.499 . S
C734 C735 1.373 . S
C734 C736 1.389 . S
C735 H714 0.950 . S
C735 C734 1.373 . S
C735 C751 1.377 . S
C736 C734 1.389 . S
C736 C737 1.524 . S
C736 C750 1.377 . S
C737 C736 1.524 . S
C737 C738 1.397 . S
C737 C742 1.363 . S
C738 H715 0.950 . S
C738 C737 1.397 . S
C738 C739 1.334 . S
C739 H716 0.950 . S
C739 C738 1.334 . S
C739 C740 1.287 . S
C740 C739 1.287 . S
C740 C741 1.524 . S
C740 H759 0.913 . S
C741 H717 0.950 . S
C741 C740 1.524 . S
C741 C742 1.415 . S
C742 H718 0.950 . S
C742 C737 1.363 . S
C742 C741 1.415 . S
C743 H719 0.951 . S
C743 C744 1.366 . S
C743 C745 1.388 . S
C744 C743 1.366 . S
C744 C748 1.385 . S
C745 H720 0.951 . S
C745 C743 1.388 . S
C745 C746 1.366 . S
C746 C745 1.366 . S
C746 C747 1.414 . S
C746 C749 1.499 . S
C747 H721 0.950 . S
C747 C746 1.414 . S
C747 C748 1.374 . S
C748 H722 0.950 . S
C748 C744 1.385 . S
C748 C747 1.374 . S
C749 C746 1.499 . S
C749 C750 1.373 . S
C749 C751 1.389 . S
C750 H723 0.950 . S
C750 C736 1.377 . S
C750 C749 1.373 . S
C751 C735 1.377 . S
C751 C749 1.389 . S
C751 C752 1.524 . S
C752 C751 1.524 . S
C752 C753 1.397 . S
C752 C757 1.363 . S
C753 H724 0.950 . S
C753 C752 1.397 . S
C753 C754 1.334 . S
C754 H725 0.950 . S
C754 C753 1.334 . S
C754 C755 1.287 . S
C755 C754 1.287 . S
C755 C756 1.524 . S
C755 H758 0.999 . S
C756 H726 0.950 . S
C756 C755 1.524 . S
C756 C757 1.415 . S
C757 H727 0.950 . S
C757 C752 1.363 . S
C757 C756 1.415 . S
H758 C755 0.999 . S
H759 C740 0.913 . S
H760 C778 0.951 . S
H761 C780 0.951 . S
H762 C782 0.950 . S
H763 C783 0.950 . S
H764 C785 0.950 . S
H765 C788 0.950 . S
H766 C789 0.950 . S
H767 C791 0.950 . S
H768 C792 0.950 . S
H769 C793 0.951 . S
H770 C795 0.951 . S
H771 C797 0.950 . S
H772 C798 0.950 . S
H773 C800 0.950 . S
H774 C803 0.950 . S
H775 C804 0.950 . S
H776 C806 0.950 . S
H777 C807 0.950 . S
C778 H760 0.951 . S
C778 C779 1.361 1_565 S
C778 C780 1.388 . S
C779 C778 1.361 1_545 S
C779 C783 1.390 . S
C780 H761 0.951 . S
C780 C778 1.388 . S
C780 C781 1.366 1_565 S
C781 C780 1.366 1_545 S
C781 C782 1.414 . S
C781 C784 1.499 . S
C782 H762 0.950 . S
C782 C781 1.414 . S
C782 C783 1.374 . S
C783 H763 0.950 . S
C783 C779 1.390 . S
C783 C782 1.374 . S
C784 C781 1.499 . S
C784 C785 1.373 1_545 S
C784 C786 1.389 . S
C785 H764 0.950 . S
C785 C784 1.373 1_565 S
C785 C801 1.377 . S
C786 C784 1.389 . S
C786 C787 1.524 . S
C786 C800 1.377 . S
C787 C786 1.524 . S
C787 C788 1.397 . S
C787 C792 1.363 . S
C788 H765 0.950 . S
C788 C787 1.397 . S
C788 C789 1.334 . S
C789 H766 0.950 . S
C789 C788 1.334 . S
C789 C790 1.287 . S
C790 C789 1.287 . S
C790 C791 1.524 . S
C790 H809 0.913 1_556 S
C791 H767 0.950 . S
C791 C790 1.524 . S
C791 C792 1.415 . S
C792 H768 0.950 . S
C792 C787 1.363 . S
C792 C791 1.415 . S
C793 H769 0.951 . S
C793 C794 1.366 . S
C793 C795 1.388 . S
C794 C793 1.366 . S
C794 C798 1.385 1_545 S
C795 H770 0.951 . S
C795 C793 1.388 . S
C795 C796 1.366 . S
C796 C795 1.366 . S
C796 C797 1.414 1_545 S
C796 C799 1.499 . S
C797 H771 0.950 . S
C797 C796 1.414 1_565 S
C797 C798 1.374 . S
C798 H772 0.950 . S
C798 C794 1.385 1_565 S
C798 C797 1.374 . S
C799 C796 1.499 . S
C799 C800 1.373 . S
C799 C801 1.389 1_545 S
C800 H773 0.950 . S
C800 C786 1.377 . S
C800 C799 1.373 . S
C801 C785 1.377 . S
C801 C799 1.389 1_565 S
C801 C802 1.524 . S
C802 C801 1.524 . S
C802 C803 1.397 . S
C802 C807 1.363 . S
C803 H774 0.950 . S
C803 C802 1.397 . S
C803 C804 1.334 . S
C804 H775 0.950 . S
C804 C803 1.334 . S
C804 C805 1.287 . S
C805 C804 1.287 . S
C805 C806 1.524 . S
C805 H808 0.999 . S
C806 H776 0.950 . S
C806 C805 1.524 . S
C806 C807 1.415 . S
C807 H777 0.950 . S
C807 C802 1.363 . S
C807 C806 1.415 . S
H808 C805 0.999 . S
H809 C790 0.913 1_554 S
H810 C828 0.951 1_554 S
H811 C830 0.951 . S
H812 C832 0.950 . S
H813 C833 0.950 . S
H814 C835 0.950 . S
H815 C838 0.950 . S
H816 C839 0.950 . S
H817 C841 0.950 1_554 S
H818 C842 0.950 . S
H819 C843 0.951 . S
H820 C845 0.951 . S
H821 C847 0.950 . S
H822 C848 0.950 . S
H823 C850 0.950 . S
H824 C853 0.950 . S
H825 C854 0.950 . S
H826 C856 0.950 . S
H827 C857 0.950 . S
C828 H810 0.951 1_556 S
C828 C829 1.366 . S
C828 C830 1.388 . S
C829 C828 1.366 . S
C829 C833 1.385 . S
C830 H811 0.951 . S
C830 C828 1.388 . S
C830 C831 1.366 . S
C831 C830 1.366 . S
C831 C832 1.414 . S
C831 C834 1.499 . S
C832 H812 0.950 . S
C832 C831 1.414 . S
C832 C833 1.374 . S
C833 H813 0.950 . S
C833 C829 1.385 . S
C833 C832 1.374 . S
C834 C831 1.499 . S
C834 C835 1.373 . S
C834 C836 1.389 . S
C835 H814 0.950 . S
C835 C834 1.373 . S
C835 C851 1.377 . S
C836 C834 1.389 . S
C836 C837 1.524 . S
C836 C850 1.377 . S
C837 C836 1.524 . S
C837 C838 1.397 . S
C837 C842 1.363 . S
C838 H815 0.950 . S
C838 C837 1.397 . S
C838 C839 1.334 . S
C839 H816 0.950 . S
C839 C838 1.334 . S
C839 C840 1.287 . S
C840 C839 1.287 . S
C840 C841 1.524 . S
C840 H859 0.913 1_556 S
C841 H817 0.950 1_556 S
C841 C840 1.524 . S
C841 C842 1.415 . S
C842 H818 0.950 . S
C842 C837 1.363 . S
C842 C841 1.415 . S
C843 H819 0.951 . S
C843 C844 1.366 . S
C843 C845 1.388 . S
C844 C843 1.366 . S
C844 C848 1.385 . S
C845 H820 0.951 . S
C845 C843 1.388 . S
C845 C846 1.366 . S
C846 C845 1.366 . S
C846 C847 1.414 . S
C846 C849 1.499 . S
C847 H821 0.950 . S
C847 C846 1.414 . S
C847 C848 1.374 . S
C848 H822 0.950 . S
C848 C844 1.385 . S
C848 C847 1.374 . S
C849 C846 1.499 . S
C849 C850 1.373 . S
C849 C851 1.389 . S
C850 H823 0.950 . S
C850 C836 1.377 . S
C850 C849 1.373 . S
C851 C835 1.377 . S
C851 C849 1.389 . S
C851 C852 1.524 . S
C852 C851 1.524 . S
C852 C853 1.397 . S
C852 C857 1.363 . S
C853 H824 0.950 . S
C853 C852 1.397 . S
C853 C854 1.334 . S
C854 H825 0.950 . S
C854 C853 1.334 . S
C854 C855 1.287 . S
C855 C854 1.287 . S
C855 C856 1.524 . S
C855 H858 0.999 . S
C856 H826 0.950 . S
C856 C855 1.524 . S
C856 C857 1.415 . S
C857 H827 0.950 . S
C857 C852 1.363 . S
C857 C856 1.415 . S
H858 C855 0.999 . S
H859 C840 0.913 1_554 S
H860 C878 0.951 . S
H861 C880 0.951 . S
H862 C882 0.950 . S
H863 C883 0.950 . S
H864 C885 0.950 . S
H865 C888 0.950 . S
H866 C889 0.950 . S
H867 C891 0.950 . S
H868 C892 0.950 . S
H869 C893 0.951 . S
H870 C895 0.951 . S
H871 C897 0.950 . S
H872 C898 0.950 . S
H873 C900 0.950 . S
H874 C903 0.950 . S
H875 C904 0.950 . S
H876 C906 0.950 . S
H877 C907 0.950 . S
C878 H860 0.951 . S
C878 C879 1.366 . S
C878 C880 1.388 . S
C879 C878 1.366 . S
C879 C883 1.385 . S
C880 H861 0.951 . S
C880 C878 1.388 . S
C880 C881 1.366 . S
C881 C880 1.366 . S
C881 C882 1.414 . S
C881 C884 1.499 . S
C882 H862 0.950 . S
C882 C881 1.414 . S
C882 C883 1.374 . S
C883 H863 0.950 . S
C883 C879 1.385 . S
C883 C882 1.374 . S
C884 C881 1.499 . S
C884 C885 1.373 . S
C884 C886 1.389 . S
C885 H864 0.950 . S
C885 C884 1.373 . S
C885 C901 1.377 . S
C886 C884 1.389 . S
C886 C887 1.524 . S
C886 C900 1.377 . S
C887 C886 1.524 . S
C887 C888 1.397 . S
C887 C892 1.363 . S
C888 H865 0.950 . S
C888 C887 1.397 . S
C888 C889 1.334 . S
C889 H866 0.950 . S
C889 C888 1.334 . S
C889 C890 1.287 . S
C890 C889 1.287 . S
C890 C891 1.524 . S
C890 H909 0.913 . S
C891 H867 0.950 . S
C891 C890 1.524 . S
C891 C892 1.415 . S
C892 H868 0.950 . S
C892 C887 1.363 . S
C892 C891 1.415 . S
C893 H869 0.951 . S
C893 C894 1.366 . S
C893 C895 1.388 . S
C894 C893 1.366 . S
C894 C898 1.385 . S
C895 H870 0.951 . S
C895 C893 1.388 . S
C895 C896 1.366 . S
C896 C895 1.366 . S
C896 C897 1.414 . S
C896 C899 1.499 . S
C897 H871 0.950 . S
C897 C896 1.414 . S
C897 C898 1.374 . S
C898 H872 0.950 . S
C898 C894 1.385 . S
C898 C897 1.374 . S
C899 C896 1.499 . S
C899 C900 1.373 . S
C899 C901 1.389 . S
C900 H873 0.950 . S
C900 C886 1.377 . S
C900 C899 1.373 . S
C901 C885 1.377 . S
C901 C899 1.389 . S
C901 C902 1.524 . S
C902 C901 1.524 . S
C902 C903 1.397 . S
C902 C907 1.363 . S
C903 H874 0.950 . S
C903 C902 1.397 . S
C903 C904 1.334 . S
C904 H875 0.950 . S
C904 C903 1.334 . S
C904 C905 1.287 . S
C905 C904 1.287 . S
C905 C906 1.524 . S
C905 H908 0.999 . S
C906 H876 0.950 . S
C906 C905 1.524 . S
C906 C907 1.415 . S
C907 H877 0.950 . S
C907 C902 1.363 . S
C907 C906 1.415 . S
H908 C905 0.999 . S
H909 C890 0.913 . S
H910 C928 0.951 . S
H911 C930 0.951 . S
H912 C932 0.950 . S
H913 C933 0.950 . S
H914 C935 0.950 . S
H915 C938 0.950 . S
H916 C939 0.950 . S
H917 C941 0.950 . S
H918 C942 0.950 1_455 S
H919 C943 0.951 . S
H920 C945 0.951 . S
H921 C947 0.950 . S
H922 C948 0.900 1_455 S
H923 C950 0.950 . S
H924 C953 0.950 . S
H925 C954 0.950 . S
H926 C956 0.950 . S
H927 C957 0.950 . S
C928 H910 0.951 . S
C928 C929 1.366 . S
C928 C930 1.388 . S
C929 C928 1.366 . S
C929 C933 1.385 . S
C930 H911 0.951 . S
C930 C928 1.388 . S
C930 C931 1.366 . S
C931 C930 1.366 . S
C931 C932 1.414 . S
C931 C934 1.499 . S
C932 H912 0.950 . S
C932 C931 1.414 . S
C932 C933 1.374 . S
C933 H913 0.950 . S
C933 C929 1.385 . S
C933 C932 1.374 . S
C934 C931 1.499 . S
C934 C935 1.373 . S
C934 C936 1.389 . S
C935 H914 0.950 . S
C935 C934 1.373 . S
C935 C951 1.377 . S
C936 C934 1.389 . S
C936 C937 1.524 . S
C936 C950 1.377 . S
C937 C936 1.524 . S
C937 C938 1.397 . S
C937 C942 1.363 . S
C938 H915 0.950 . S
C938 C937 1.397 . S
C938 C939 1.334 . S
C939 H916 0.950 . S
C939 C938 1.334 . S
C939 C940 1.287 . S
C940 C939 1.287 . S
C940 C941 1.524 1_655 S
C940 H959 0.913 1_655 S
C941 H917 0.950 . S
C941 C940 1.524 1_455 S
C941 C942 1.415 1_455 S
C942 H918 0.950 1_655 S
C942 C937 1.363 . S
C942 C941 1.415 1_655 S
C943 H919 0.951 . S
C943 C944 1.366 . S
C943 C945 1.388 . S
C944 C943 1.366 . S
C944 C948 1.411 . S
C945 H920 0.951 . S
C945 C943 1.388 . S
C945 C946 1.366 . S
C946 C945 1.366 . S
C946 C947 1.414 . S
C946 C949 1.499 . S
C947 H921 0.950 . S
C947 C946 1.414 . S
C947 C948 1.398 . S
C948 H922 0.900 1_655 S
C948 C944 1.411 . S
C948 C947 1.398 . S
C949 C946 1.499 . S
C949 C950 1.373 . S
C949 C951 1.389 . S
C950 H923 0.950 . S
C950 C936 1.377 . S
C950 C949 1.373 . S
C951 C935 1.377 . S
C951 C949 1.389 . S
C951 C952 1.524 . S
C952 C951 1.524 . S
C952 C953 1.397 . S
C952 C957 1.363 . S
C953 H924 0.950 . S
C953 C952 1.397 . S
C953 C954 1.334 . S
C954 H925 0.950 . S
C954 C953 1.334 . S
C954 C955 1.287 . S
C955 C954 1.287 . S
C955 C956 1.524 . S
C955 H958 0.999 . S
C956 H926 0.950 . S
C956 C955 1.524 . S
C956 C957 1.415 . S
C957 H927 0.950 . S
C957 C952 1.363 . S
C957 C956 1.415 . S
H958 C955 0.999 . S
H959 C940 0.913 1_455 S
H960 C978 0.951 . S
H961 C980 0.951 . S
H962 C982 0.950 . S
H963 C983 0.950 . S
H964 C985 0.950 . S
H965 C988 0.950 . S
H966 C989 0.950 . S
H967 C991 0.950 . S
H968 C992 0.950 . S
H969 C993 0.951 . S
H970 C995 0.951 . S
H971 C997 0.950 . S
H972 C998 0.950 . S
H973 C1000 0.950 . S
H974 C1003 0.953 . S
H975 C1004 0.950 . S
H976 C1006 0.950 . S
H977 C1007 0.950 . S
C978 H960 0.951 . S
C978 C979 1.366 . S
C978 C980 1.388 . S
C979 C978 1.366 . S
C979 C983 1.385 . S
C980 H961 0.951 . S
C980 C978 1.388 . S
C980 C981 1.366 . S
C981 C980 1.366 . S
C981 C982 1.414 . S
C981 C984 1.499 . S
C982 H962 0.950 . S
C982 C981 1.414 . S
C982 C983 1.374 . S
C983 H963 0.950 . S
C983 C979 1.385 . S
C983 C982 1.374 . S
C984 C981 1.499 . S
C984 C985 1.373 . S
C984 C986 1.389 . S
C985 H964 0.950 . S
C985 C984 1.373 . S
C985 C1001 1.377 . S
C986 C984 1.389 . S
C986 C987 1.524 . S
C986 C1000 1.377 . S
C987 C986 1.524 . S
C987 C988 1.397 . S
C987 C992 1.363 . S
C988 H965 0.950 . S
C988 C987 1.397 . S
C988 C989 1.334 . S
C989 H966 0.950 . S
C989 C988 1.334 . S
C989 C990 1.287 . S
C990 C989 1.287 . S
C990 C991 1.524 . S
C990 H1009 0.913 . S
C991 H967 0.950 . S
C991 C990 1.524 . S
C991 C992 1.415 . S
C992 H968 0.950 . S
C992 C987 1.363 . S
C992 C991 1.415 . S
C993 H969 0.951 . S
C993 C994 1.366 . S
C993 C995 1.388 . S
C994 C993 1.366 . S
C994 C998 1.385 . S
C995 H970 0.951 . S
C995 C993 1.388 . S
C995 C996 1.366 . S
C996 C995 1.366 . S
C996 C997 1.414 . S
C996 C999 1.499 . S
C997 H971 0.950 . S
C997 C996 1.414 . S
C997 C998 1.374 . S
C998 H972 0.950 . S
C998 C994 1.385 . S
C998 C997 1.374 . S
C999 C996 1.499 . S
C999 C1000 1.373 . S
C999 C1001 1.389 . S
C1000 H973 0.950 . S
C1000 C986 1.377 . S
C1000 C999 1.373 . S
C1001 C985 1.377 . S
C1001 C999 1.389 . S
C1001 C1002 1.524 . S
C1002 C1001 1.524 . S
C1002 C1003 1.410 . S
C1002 C1007 1.363 . S
C1003 H974 0.953 . S
C1003 C1002 1.410 . S
C1003 C1004 1.317 1_455 S
C1004 H975 0.950 . S
C1004 C1003 1.317 1_655 S
C1004 C1005 1.287 . S
C1005 C1004 1.287 . S
C1005 C1006 1.524 . S
C1005 H1008 0.999 . S
C1006 H976 0.950 . S
C1006 C1005 1.524 . S
C1006 C1007 1.415 1_655 S
C1007 H977 0.950 . S
C1007 C1002 1.363 . S
C1007 C1006 1.415 1_455 S
H1008 C1005 0.999 . S
H1009 C990 0.913 . S
H1010 C1028 0.951 . S
H1011 C1030 0.951 . S
H1012 C1032 0.950 . S
H1013 C1033 0.950 . S
H1014 C1035 0.950 . S
H1015 C1038 0.950 1_565 S
H1016 C1039 0.950 . S
H1017 C1041 0.950 . S
H1018 C1042 0.950 . S
H1019 C1043 0.951 . S
H1020 C1045 0.951 . S
H1021 C1047 0.950 . S
H1022 C1048 0.950 . S
H1023 C1050 0.950 . S
H1024 C1053 0.950 . S
H1025 C1054 0.950 . S
H1026 C1056 0.950 . S
H1027 C1057 0.950 . S
C1028 H1010 0.951 . S
C1028 C1029 1.366 . S
C1028 C1030 1.388 . S
C1029 C1028 1.366 . S
C1029 C1033 1.385 1_545 S
C1030 H1011 0.951 . S
C1030 C1028 1.388 . S
C1030 C1031 1.366 1_545 S
C1031 C1030 1.366 1_565 S
C1031 C1032 1.414 . S
C1031 C1034 1.499 . S
C1032 H1012 0.950 . S
C1032 C1031 1.414 . S
C1032 C1033 1.374 . S
C1033 H1013 0.950 . S
C1033 C1029 1.385 1_565 S
C1033 C1032 1.374 . S
C1034 C1031 1.499 . S
C1034 C1035 1.373 . S
C1034 C1036 1.389 1_565 S
C1035 H1014 0.950 . S
C1035 C1034 1.373 . S
C1035 C1051 1.377 . S
C1036 C1034 1.389 1_545 S
C1036 C1037 1.524 . S
C1036 C1050 1.377 . S
C1037 C1036 1.524 . S
C1037 C1038 1.397 . S
C1037 C1042 1.363 . S
C1038 H1015 0.950 1_545 S
C1038 C1037 1.397 . S
C1038 C1039 1.334 . S
C1039 H1016 0.950 . S
C1039 C1038 1.334 . S
C1039 C1040 1.287 . S
C1040 C1039 1.287 . S
C1040 C1041 1.524 . S
C1040 H1059 0.913 . S
C1041 H1017 0.950 . S
C1041 C1040 1.524 . S
C1041 C1042 1.415 . S
C1042 H1018 0.950 . S
C1042 C1037 1.363 . S
C1042 C1041 1.415 . S
C1043 H1019 0.951 . S
C1043 C1044 1.366 . S
C1043 C1045 1.388 . S
C1044 C1043 1.366 . S
C1044 C1048 1.385 1_565 S
C1045 H1020 0.951 . S
C1045 C1043 1.388 . S
C1045 C1046 1.366 . S
C1046 C1045 1.366 . S
C1046 C1047 1.414 1_565 S
C1046 C1049 1.499 . S
C1047 H1021 0.950 . S
C1047 C1046 1.414 1_545 S
C1047 C1048 1.374 . S
C1048 H1022 0.950 . S
C1048 C1044 1.385 1_545 S
C1048 C1047 1.374 . S
C1049 C1046 1.499 . S
C1049 C1050 1.373 1_565 S
C1049 C1051 1.389 . S
C1050 H1023 0.950 . S
C1050 C1036 1.377 . S
C1050 C1049 1.373 1_545 S
C1051 C1035 1.377 . S
C1051 C1049 1.389 . S
C1051 C1052 1.524 . S
C1052 C1051 1.524 . S
C1052 C1053 1.397 . S
C1052 C1057 1.363 . S
C1053 H1024 0.950 . S
C1053 C1052 1.397 . S
C1053 C1054 1.334 . S
C1054 H1025 0.950 . S
C1054 C1053 1.334 . S
C1054 C1055 1.287 . S
C1055 C1054 1.287 . S
C1055 C1056 1.524 . S
C1055 H1058 0.999 . S
C1056 H1026 0.950 . S
C1056 C1055 1.524 . S
C1056 C1057 1.415 . S
C1057 H1027 0.950 . S
C1057 C1052 1.363 . S
C1057 C1056 1.415 . S
H1058 C1055 0.999 . S
H1059 C1040 0.913 . S
H1060 C1078 0.951 . S
H1061 C1080 0.951 . S
H1062 C1082 0.950 . S
H1063 C1083 0.950 . S
H1064 C1085 0.950 . S
H1065 C1088 0.950 . S
H1066 C1089 0.950 . S
H1067 C1091 0.950 . S
H1068 C1092 0.950 . S
H1069 C1093 0.951 . S
H1070 C1095 0.951 . S
H1071 C1097 0.950 . S
H1072 C1098 0.950 . S
H1073 C1100 0.950 . S
H1074 C1103 0.950 . S
H1075 C1104 0.950 . S
H1076 C1106 0.950 . S
H1077 C1107 0.950 . S
C1078 H1060 0.951 . S
C1078 C1079 1.366 . S
C1078 C1080 1.388 . S
C1079 C1078 1.366 . S
C1079 C1083 1.385 . S
C1080 H1061 0.951 . S
C1080 C1078 1.388 . S
C1080 C1081 1.366 . S
C1081 C1080 1.366 . S
C1081 C1082 1.414 . S
C1081 C1084 1.499 . S
C1082 H1062 0.950 . S
C1082 C1081 1.414 . S
C1082 C1083 1.374 . S
C1083 H1063 0.950 . S
C1083 C1079 1.385 . S
C1083 C1082 1.374 . S
C1084 C1081 1.499 . S
C1084 C1085 1.373 . S
C1084 C1086 1.389 . S
C1085 H1064 0.950 . S
C1085 C1084 1.373 . S
C1085 C1101 1.377 . S
C1086 C1084 1.389 . S
C1086 C1087 1.524 . S
C1086 C1100 1.377 . S
C1087 C1086 1.524 . S
C1087 C1088 1.397 . S
C1087 C1092 1.363 . S
C1088 H1065 0.950 . S
C1088 C1087 1.397 . S
C1088 C1089 1.334 . S
C1089 H1066 0.950 . S
C1089 C1088 1.334 . S
C1089 C1090 1.287 . S
C1090 C1089 1.287 . S
C1090 C1091 1.524 . S
C1090 H1109 0.913 . S
C1091 H1067 0.950 . S
C1091 C1090 1.524 . S
C1091 C1092 1.415 . S
C1092 H1068 0.950 . S
C1092 C1087 1.363 . S
C1092 C1091 1.415 . S
C1093 H1069 0.951 . S
C1093 C1094 1.366 . S
C1093 C1095 1.388 . S
C1094 C1093 1.366 . S
C1094 C1098 1.385 . S
C1095 H1070 0.951 . S
C1095 C1093 1.388 . S
C1095 C1096 1.366 . S
C1096 C1095 1.366 . S
C1096 C1097 1.414 . S
C1096 C1099 1.499 . S
C1097 H1071 0.950 . S
C1097 C1096 1.414 . S
C1097 C1098 1.374 . S
C1098 H1072 0.950 . S
C1098 C1094 1.385 . S
C1098 C1097 1.374 . S
C1099 C1096 1.499 . S
C1099 C1100 1.373 . S
C1099 C1101 1.389 . S
C1100 H1073 0.950 . S
C1100 C1086 1.377 . S
C1100 C1099 1.373 . S
C1101 C1085 1.377 . S
C1101 C1099 1.389 . S
C1101 C1102 1.524 . S
C1102 C1101 1.524 . S
C1102 C1103 1.397 . S
C1102 C1107 1.363 . S
C1103 H1074 0.950 . S
C1103 C1102 1.397 . S
C1103 C1104 1.334 . S
C1104 H1075 0.950 . S
C1104 C1103 1.334 . S
C1104 C1105 1.287 . S
C1105 C1104 1.287 . S
C1105 C1106 1.524 . S
C1105 H1108 0.999 . S
C1106 H1076 0.950 . S
C1106 C1105 1.524 . S
C1106 C1107 1.415 . S
C1107 H1077 0.950 . S
C1107 C1102 1.363 . S
C1107 C1106 1.415 . S
H1108 C1105 0.999 . S
H1109 C1090 0.913 . S
H1110 C1128 0.951 . S
H1111 C1130 0.951 . S
H1112 C1132 0.950 . S
H1113 C1133 0.950 . S
H1114 C1135 0.950 . S
H1115 C1138 0.950 . S
H1116 C1139 0.950 . S
H1117 C1141 0.950 . S
H1118 C1142 0.950 . S
H1119 C1143 0.951 . S
H1120 C1145 0.951 . S
H1121 C1147 0.950 . S
H1122 C1148 0.950 . S
H1123 C1150 0.950 . S
H1124 C1153 0.950 . S
H1125 C1154 0.950 . S
H1126 C1156 0.950 . S
H1127 C1157 0.950 . S
C1128 H1110 0.951 . S
C1128 C1129 1.366 . S
C1128 C1130 1.388 . S
C1129 C1128 1.366 . S
C1129 C1133 1.385 . S
C1130 H1111 0.951 . S
C1130 C1128 1.388 . S
C1130 C1131 1.366 . S
C1131 C1130 1.366 . S
C1131 C1132 1.414 . S
C1131 C1134 1.499 . S
C1132 H1112 0.950 . S
C1132 C1131 1.414 . S
C1132 C1133 1.374 . S
C1133 H1113 0.950 . S
C1133 C1129 1.385 . S
C1133 C1132 1.374 . S
C1134 C1131 1.499 . S
C1134 C1135 1.373 . S
C1134 C1136 1.389 . S
C1135 H1114 0.950 . S
C1135 C1134 1.373 . S
C1135 C1151 1.377 . S
C1136 C1134 1.389 . S
C1136 C1137 1.524 . S
C1136 C1150 1.377 . S
C1137 C1136 1.524 . S
C1137 C1138 1.397 . S
C1137 C1142 1.363 . S
C1138 H1115 0.950 . S
C1138 C1137 1.397 . S
C1138 C1139 1.334 . S
C1139 H1116 0.950 . S
C1139 C1138 1.334 . S
C1139 C1140 1.287 . S
C1140 C1139 1.287 . S
C1140 C1141 1.524 . S
C1140 H1159 0.913 . S
C1141 H1117 0.950 . S
C1141 C1140 1.524 . S
C1141 C1142 1.415 . S
C1142 H1118 0.950 . S
C1142 C1137 1.363 . S
C1142 C1141 1.415 . S
C1143 H1119 0.951 . S
C1143 C1144 1.366 . S
C1143 C1145 1.388 . S
C1144 C1143 1.366 . S
C1144 C1148 1.385 . S
C1145 H1120 0.951 . S
C1145 C1143 1.388 . S
C1145 C1146 1.366 . S
C1146 C1145 1.366 . S
C1146 C1147 1.414 . S
C1146 C1149 1.499 . S
C1147 H1121 0.950 . S
C1147 C1146 1.414 . S
C1147 C1148 1.374 . S
C1148 H1122 0.950 . S
C1148 C1144 1.385 . S
C1148 C1147 1.374 . S
C1149 C1146 1.499 . S
C1149 C1150 1.373 . S
C1149 C1151 1.389 . S
C1150 H1123 0.950 . S
C1150 C1136 1.377 . S
C1150 C1149 1.373 . S
C1151 C1135 1.377 . S
C1151 C1149 1.389 . S
C1151 C1152 1.524 . S
C1152 C1151 1.524 . S
C1152 C1153 1.397 . S
C1152 C1157 1.363 . S
C1153 H1124 0.950 . S
C1153 C1152 1.397 . S
C1153 C1154 1.334 . S
C1154 H1125 0.950 . S
C1154 C1153 1.334 . S
C1154 C1155 1.287 . S
C1155 C1154 1.287 . S
C1155 C1156 1.524 . S
C1155 H1158 0.999 . S
C1156 H1126 0.950 . S
C1156 C1155 1.524 . S
C1156 C1157 1.415 . S
C1157 H1127 0.950 . S
C1157 C1152 1.363 . S
C1157 C1156 1.415 . S
H1158 C1155 0.999 . S
H1159 C1140 0.913 . S
H1160 C1178 0.951 . S
H1161 C1180 0.951 . S
H1162 C1182 0.950 . S
H1163 C1183 0.950 . S
H1164 C1185 0.950 . S
H1165 C1188 0.950 . S
H1166 C1189 0.950 . S
H1167 C1191 0.950 . S
H1168 C1192 0.950 . S
H1169 C1193 0.951 . S
H1170 C1195 0.921 1_455 S
H1171 C1197 0.950 . S
H1172 C1198 0.950 . S
H1173 C1200 0.950 . S
H1174 C1203 0.950 . S
H1175 C1204 0.950 . S
H1176 C1206 0.950 . S
H1177 C1207 0.950 . S
C1178 H1160 0.951 . S
C1178 C1179 1.366 . S
C1178 C1180 1.388 . S
C1179 C1178 1.366 . S
C1179 C1183 1.385 . S
C1180 H1161 0.951 . S
C1180 C1178 1.388 . S
C1180 C1181 1.366 . S
C1181 C1180 1.366 . S
C1181 C1182 1.414 . S
C1181 C1184 1.499 . S
C1182 H1162 0.950 . S
C1182 C1181 1.414 . S
C1182 C1183 1.374 . S
C1183 H1163 0.950 . S
C1183 C1179 1.385 . S
C1183 C1182 1.374 . S
C1184 C1181 1.499 . S
C1184 C1185 1.373 . S
C1184 C1186 1.389 . S
C1185 H1164 0.950 . S
C1185 C1184 1.373 . S
C1185 C1201 1.377 . S
C1186 C1184 1.389 . S
C1186 C1187 1.524 . S
C1186 C1200 1.377 . S
C1187 C1186 1.524 . S
C1187 C1188 1.397 . S
C1187 C1192 1.363 . S
C1188 H1165 0.950 . S
C1188 C1187 1.397 . S
C1188 C1189 1.334 . S
C1189 H1166 0.950 . S
C1189 C1188 1.334 . S
C1189 C1190 1.287 . S
C1190 C1189 1.287 . S
C1190 C1191 1.524 . S
C1190 H1209 0.913 . S
C1191 H1167 0.950 . S
C1191 C1190 1.524 . S
C1191 C1192 1.415 . S
C1192 H1168 0.950 . S
C1192 C1187 1.363 . S
C1192 C1191 1.415 . S
C1193 H1169 0.951 . S
C1193 C1194 1.385 . S
C1193 C1195 1.364 1_455 S
C1194 C1193 1.385 . S
C1194 C1198 1.350 1_455 S
C1195 H1170 0.921 1_655 S
C1195 C1193 1.364 1_655 S
C1195 C1196 1.421 . S
C1196 C1195 1.421 . S
C1196 C1197 1.414 . S
C1196 C1199 1.499 . S
C1197 H1171 0.950 . S
C1197 C1196 1.414 . S
C1197 C1198 1.374 . S
C1198 H1172 0.950 . S
C1198 C1194 1.350 1_655 S
C1198 C1197 1.374 . S
C1199 C1196 1.499 . S
C1199 C1200 1.373 . S
C1199 C1201 1.389 . S
C1200 H1173 0.950 . S
C1200 C1186 1.377 . S
C1200 C1199 1.373 . S
C1201 C1185 1.377 . S
C1201 C1199 1.389 . S
C1201 C1202 1.524 . S
C1202 C1201 1.524 . S
C1202 C1203 1.397 . S
C1202 C1207 1.363 . S
C1203 H1174 0.950 . S
C1203 C1202 1.397 . S
C1203 C1204 1.334 . S
C1204 H1175 0.950 . S
C1204 C1203 1.334 . S
C1204 C1205 1.287 . S
C1205 C1204 1.287 . S
C1205 C1206 1.524 1_655 S
C1205 H1208 0.999 1_655 S
C1206 H1176 0.950 . S
C1206 C1205 1.524 1_455 S
C1206 C1207 1.415 1_455 S
C1207 H1177 0.950 . S
C1207 C1202 1.363 . S
C1207 C1206 1.415 1_655 S
H1208 C1205 0.999 1_455 S
H1209 C1190 0.913 . S
H1210 C1228 0.951 . S
H1211 C1230 0.951 . S
H1212 C1232 0.950 . S
H1213 C1233 0.950 . S
H1214 C1235 0.950 . S
H1215 C1238 0.950 1_565 S
H1216 C1239 0.946 1_554 S
H1217 C1241 0.950 . S
H1218 C1242 0.950 . S
H1219 C1243 0.951 . S
H1220 C1245 0.951 . S
H1221 C1247 0.950 . S
H1222 C1248 0.950 . S
H1223 C1250 0.950 . S
H1224 C1253 0.950 . S
H1225 C1254 0.950 1_545 S
H1226 C1256 0.950 . S
H1227 C1257 0.950 . S
C1228 H1210 0.951 . S
C1228 C1229 1.313 1_545 S
C1228 C1230 1.388 . S
C1229 C1228 1.313 1_565 S
C1229 C1233 1.429 . S
C1230 H1211 0.951 . S
C1230 C1228 1.388 . S
C1230 C1231 1.366 . S
C1231 C1230 1.366 . S
C1231 C1232 1.414 1_545 S
C1231 C1234 1.499 . S
C1232 H1212 0.950 . S
C1232 C1231 1.414 1_565 S
C1232 C1233 1.374 . S
C1233 H1213 0.950 . S
C1233 C1229 1.429 . S
C1233 C1232 1.374 . S
C1234 C1231 1.499 . S
C1234 C1235 1.373 1_545 S
C1234 C1236 1.389 . S
C1235 H1214 0.950 . S
C1235 C1234 1.373 1_565 S
C1235 C1251 1.377 . S
C1236 C1234 1.389 . S
C1236 C1237 1.524 . S
C1236 C1250 1.377 . S
C1237 C1236 1.524 . S
C1237 C1238 1.397 . S
C1237 C1242 1.363 . S
C1238 H1215 0.950 1_545 S
C1238 C1237 1.397 . S
C1238 C1239 1.334 . S
C1239 H1216 0.946 1_556 S
C1239 C1238 1.334 . S
C1239 C1240 1.287 . S
C1240 C1239 1.287 . S
C1240 C1241 1.524 . S
C1240 H1259 0.913 1_556 S
C1241 H1217 0.950 . S
C1241 C1240 1.524 . S
C1241 C1242 1.415 . S
C1242 H1218 0.950 . S
C1242 C1237 1.363 . S
C1242 C1241 1.415 . S
C1243 H1219 0.951 . S
C1243 C1244 1.366 1_565 S
C1243 C1245 1.388 . S
C1244 C1243 1.366 1_545 S
C1244 C1248 1.385 . S
C1245 H1220 0.951 . S
C1245 C1243 1.388 . S
C1245 C1246 1.366 1_565 S
C1246 C1245 1.366 1_545 S
C1246 C1247 1.414 . S
C1246 C1249 1.499 . S
C1247 H1221 0.950 . S
C1247 C1246 1.414 . S
C1247 C1248 1.374 . S
C1248 H1222 0.950 . S
C1248 C1244 1.385 . S
C1248 C1247 1.374 . S
C1249 C1246 1.499 . S
C1249 C1250 1.373 . S
C1249 C1251 1.389 1_545 S
C1250 H1223 0.950 . S
C1250 C1236 1.377 . S
C1250 C1249 1.373 . S
C1251 C1235 1.377 . S
C1251 C1249 1.389 1_565 S
C1251 C1252 1.524 . S
C1252 C1251 1.524 . S
C1252 C1253 1.397 1_565 S
C1252 C1257 1.363 . S
C1253 H1224 0.950 . S
C1253 C1252 1.397 1_545 S
C1253 C1254 1.334 1_545 S
C1254 H1225 0.950 1_565 S
C1254 C1253 1.334 1_565 S
C1254 C1255 1.287 . S
C1255 C1254 1.287 . S
C1255 C1256 1.524 . S
C1255 H1258 0.999 . S
C1256 H1226 0.950 . S
C1256 C1255 1.524 . S
C1256 C1257 1.415 . S
C1257 H1227 0.950 . S
C1257 C1252 1.363 . S
C1257 C1256 1.415 . S
H1258 C1255 0.999 . S
H1259 C1240 0.913 1_554 S
H1260 C1278 0.951 . S
H1261 C1280 0.951 . S
H1262 C1282 0.950 . S
H1263 C1283 0.950 . S
H1264 C1285 0.950 . S
H1265 C1288 0.950 . S
H1266 C1289 0.950 . S
H1267 C1291 0.950 . S
H1268 C1292 0.950 . S
H1269 C1293 0.951 . S
H1270 C1295 0.951 . S
H1271 C1297 0.950 . S
H1272 C1298 0.950 . S
H1273 C1300 0.950 . S
H1274 C1303 0.950 . S
H1275 C1304 0.950 . S
H1276 C1306 0.950 . S
H1277 C1307 0.950 . S
C1278 H1260 0.951 . S
C1278 C1279 1.366 . S
C1278 C1280 1.388 . S
C1279 C1278 1.366 . S
C1279 C1283 1.385 . S
C1280 H1261 0.951 . S
C1280 C1278 1.388 . S
C1280 C1281 1.366 . S
C1281 C1280 1.366 . S
C1281 C1282 1.414 . S
C1281 C1284 1.499 . S
C1282 H1262 0.950 . S
C1282 C1281 1.414 . S
C1282 C1283 1.374 . S
C1283 H1263 0.950 . S
C1283 C1279 1.385 . S
C1283 C1282 1.374 . S
C1284 C1281 1.499 . S
C1284 C1285 1.373 . S
C1284 C1286 1.389 . S
C1285 H1264 0.950 . S
C1285 C1284 1.373 . S
C1285 C1301 1.377 . S
C1286 C1284 1.389 . S
C1286 C1287 1.524 . S
C1286 C1300 1.377 . S
C1287 C1286 1.524 . S
C1287 C1288 1.397 . S
C1287 C1292 1.363 . S
C1288 H1265 0.950 . S
C1288 C1287 1.397 . S
C1288 C1289 1.334 . S
C1289 H1266 0.950 . S
C1289 C1288 1.334 . S
C1289 C1290 1.287 . S
C1290 C1289 1.287 . S
C1290 C1291 1.524 . S
C1290 H1309 0.913 . S
C1291 H1267 0.950 . S
C1291 C1290 1.524 . S
C1291 C1292 1.415 . S
C1292 H1268 0.950 . S
C1292 C1287 1.363 . S
C1292 C1291 1.415 . S
C1293 H1269 0.951 . S
C1293 C1294 1.366 . S
C1293 C1295 1.388 . S
C1294 C1293 1.366 . S
C1294 C1298 1.385 . S
C1295 H1270 0.951 . S
C1295 C1293 1.388 . S
C1295 C1296 1.366 . S
C1296 C1295 1.366 . S
C1296 C1297 1.414 . S
C1296 C1299 1.499 . S
C1297 H1271 0.950 . S
C1297 C1296 1.414 . S
C1297 C1298 1.374 . S
C1298 H1272 0.950 . S
C1298 C1294 1.385 . S
C1298 C1297 1.374 . S
C1299 C1296 1.499 . S
C1299 C1300 1.373 . S
C1299 C1301 1.389 . S
C1300 H1273 0.950 . S
C1300 C1286 1.377 . S
C1300 C1299 1.373 . S
C1301 C1285 1.377 . S
C1301 C1299 1.389 . S
C1301 C1302 1.524 . S
C1302 C1301 1.524 . S
C1302 C1303 1.397 . S
C1302 C1307 1.363 . S
C1303 H1274 0.950 . S
C1303 C1302 1.397 . S
C1303 C1304 1.334 . S
C1304 H1275 0.950 . S
C1304 C1303 1.334 . S
C1304 C1305 1.287 . S
C1305 C1304 1.287 . S
C1305 C1306 1.524 . S
C1305 H1308 0.999 . S
C1306 H1276 0.950 . S
C1306 C1305 1.524 . S
C1306 C1307 1.415 . S
C1307 H1277 0.950 . S
C1307 C1302 1.363 . S
C1307 C1306 1.415 . S
H1308 C1305 0.999 . S
H1309 C1290 0.913 . S
H1310 C1328 0.951 . S
H1311 C1330 0.951 . S
H1312 C1332 0.950 . S
H1313 C1333 0.950 . S
H1314 C1335 0.950 . S
H1315 C1338 0.950 . S
H1316 C1339 0.950 . S
H1317 C1341 0.950 . S
H1318 C1342 0.950 . S
H1319 C1343 0.951 . S
H1320 C1345 0.951 . S
H1321 C1347 0.950 . S
H1322 C1348 0.950 . S
H1323 C1350 0.950 . S
H1324 C1353 0.950 . S
H1325 C1354 0.950 . S
H1326 C1356 0.950 . S
H1327 C1357 0.950 . S
C1328 H1310 0.951 . S
C1328 C1329 1.366 . S
C1328 C1330 1.388 . S
C1329 C1328 1.366 . S
C1329 C1333 1.385 . S
C1330 H1311 0.951 . S
C1330 C1328 1.388 . S
C1330 C1331 1.366 . S
C1331 C1330 1.366 . S
C1331 C1332 1.414 . S
C1331 C1334 1.499 . S
C1332 H1312 0.950 . S
C1332 C1331 1.414 . S
C1332 C1333 1.374 . S
C1333 H1313 0.950 . S
C1333 C1329 1.385 . S
C1333 C1332 1.374 . S
C1334 C1331 1.499 . S
C1334 C1335 1.373 . S
C1334 C1336 1.389 . S
C1335 H1314 0.950 . S
C1335 C1334 1.373 . S
C1335 C1351 1.377 . S
C1336 C1334 1.389 . S
C1336 C1337 1.524 . S
C1336 C1350 1.377 . S
C1337 C1336 1.524 . S
C1337 C1338 1.397 . S
C1337 C1342 1.363 . S
C1338 H1315 0.950 . S
C1338 C1337 1.397 . S
C1338 C1339 1.334 . S
C1339 H1316 0.950 . S
C1339 C1338 1.334 . S
C1339 C1340 1.287 . S
C1340 C1339 1.287 . S
C1340 C1341 1.524 . S
C1340 H1359 0.913 . S
C1341 H1317 0.950 . S
C1341 C1340 1.524 . S
C1341 C1342 1.415 . S
C1342 H1318 0.950 . S
C1342 C1337 1.363 . S
C1342 C1341 1.415 . S
C1343 H1319 0.951 . S
C1343 C1344 1.366 . S
C1343 C1345 1.388 . S
C1344 C1343 1.366 . S
C1344 C1348 1.385 . S
C1345 H1320 0.951 . S
C1345 C1343 1.388 . S
C1345 C1346 1.366 . S
C1346 C1345 1.366 . S
C1346 C1347 1.414 . S
C1346 C1349 1.499 . S
C1347 H1321 0.950 . S
C1347 C1346 1.414 . S
C1347 C1348 1.374 . S
C1348 H1322 0.950 . S
C1348 C1344 1.385 . S
C1348 C1347 1.374 . S
C1349 C1346 1.499 . S
C1349 C1350 1.373 . S
C1349 C1351 1.389 . S
C1350 H1323 0.950 . S
C1350 C1336 1.377 . S
C1350 C1349 1.373 . S
C1351 C1335 1.377 . S
C1351 C1349 1.389 . S
C1351 C1352 1.524 . S
C1352 C1351 1.524 . S
C1352 C1353 1.397 . S
C1352 C1357 1.363 . S
C1353 H1324 0.950 . S
C1353 C1352 1.397 . S
C1353 C1354 1.334 . S
C1354 H1325 0.950 . S
C1354 C1353 1.334 . S
C1354 C1355 1.287 . S
C1355 C1354 1.287 . S
C1355 C1356 1.524 . S
C1355 H1358 0.999 . S
C1356 H1326 0.950 . S
C1356 C1355 1.524 . S
C1356 C1357 1.415 . S
C1357 H1327 0.950 . S
C1357 C1352 1.363 . S
C1357 C1356 1.415 . S
H1358 C1355 0.999 . S
H1359 C1340 0.913 . S
H1360 C1378 0.951 . S
H1361 C1380 0.951 . S
H1362 C1382 0.950 . S
H1363 C1383 0.950 . S
H1364 C1385 0.950 . S
H1365 C1388 0.950 . S
H1366 C1389 0.950 . S
H1367 C1391 0.950 . S
H1368 C1392 0.950 . S
H1369 C1393 0.951 . S
H1370 C1395 0.951 . S
H1371 C1397 0.950 . S
H1372 C1398 0.950 . S
H1373 C1400 0.950 . S
H1374 C1403 0.950 . S
H1375 C1404 0.950 . S
H1376 C1406 0.950 . S
H1377 C1407 0.950 . S
C1378 H1360 0.951 . S
C1378 C1379 1.366 . S
C1378 C1380 1.388 . S
C1379 C1378 1.366 . S
C1379 C1383 1.385 . S
C1380 H1361 0.951 . S
C1380 C1378 1.388 . S
C1380 C1381 1.366 . S
C1381 C1380 1.366 . S
C1381 C1382 1.414 . S
C1381 C1384 1.499 . S
C1382 H1362 0.950 . S
C1382 C1381 1.414 . S
C1382 C1383 1.374 . S
C1383 H1363 0.950 . S
C1383 C1379 1.385 . S
C1383 C1382 1.374 . S
C1384 C1381 1.499 . S
C1384 C1385 1.373 . S
C1384 C1386 1.389 . S
C1385 H1364 0.950 . S
C1385 C1384 1.373 . S
C1385 C1401 1.377 . S
C1386 C1384 1.389 . S
C1386 C1387 1.524 . S
C1386 C1400 1.377 . S
C1387 C1386 1.524 . S
C1387 C1388 1.397 . S
C1387 C1392 1.363 . S
C1388 H1365 0.950 . S
C1388 C1387 1.397 . S
C1388 C1389 1.334 . S
C1389 H1366 0.950 . S
C1389 C1388 1.334 . S
C1389 C1390 1.287 . S
C1390 C1389 1.287 . S
C1390 C1391 1.524 . S
C1390 H1409 0.913 1_455 S
C1391 H1367 0.950 . S
C1391 C1390 1.524 . S
C1391 C1392 1.415 . S
C1392 H1368 0.950 . S
C1392 C1387 1.363 . S
C1392 C1391 1.415 . S
C1393 H1369 0.951 . S
C1393 C1394 1.366 . S
C1393 C1395 1.388 . S
C1394 C1393 1.366 . S
C1394 C1398 1.385 . S
C1395 H1370 0.951 . S
C1395 C1393 1.388 . S
C1395 C1396 1.366 . S
C1396 C1395 1.366 . S
C1396 C1397 1.414 . S
C1396 C1399 1.499 . S
C1397 H1371 0.950 . S
C1397 C1396 1.414 . S
C1397 C1398 1.374 . S
C1398 H1372 0.950 . S
C1398 C1394 1.385 . S
C1398 C1397 1.374 . S
C1399 C1396 1.499 . S
C1399 C1400 1.373 . S
C1399 C1401 1.389 . S
C1400 H1373 0.950 . S
C1400 C1386 1.377 . S
C1400 C1399 1.373 . S
C1401 C1385 1.377 . S
C1401 C1399 1.389 . S
C1401 C1402 1.524 . S
C1402 C1401 1.524 . S
C1402 C1403 1.397 . S
C1402 C1407 1.363 . S
C1403 H1374 0.950 . S
C1403 C1402 1.397 . S
C1403 C1404 1.334 . S
C1404 H1375 0.950 . S
C1404 C1403 1.334 . S
C1404 C1405 1.287 . S
C1405 C1404 1.287 . S
C1405 C1406 1.524 . S
C1405 H1408 0.999 . S
C1406 H1376 0.950 . S
C1406 C1405 1.524 . S
C1406 C1407 1.415 . S
C1407 H1377 0.950 . S
C1407 C1402 1.363 . S
C1407 C1406 1.415 . S
H1408 C1405 0.999 . S
H1409 C1390 0.913 1_655 S
H1410 C1428 0.951 . S
H1411 C1430 0.951 . S
H1412 C1432 0.950 . S
H1413 C1433 0.950 . S
H1414 C1435 0.950 . S
H1415 C1438 0.950 . S
H1416 C1439 0.950 . S
H1417 C1441 0.950 . S
H1418 C1442 0.950 . S
H1419 C1443 0.950 1_565 S
H1420 C1445 0.954 . S
H1421 C1447 0.950 . S
H1422 C1448 0.950 . S
H1423 C1450 0.950 . S
H1424 C1453 0.950 . S
H1425 C1454 0.950 . S
H1426 C1456 0.950 . S
H1427 C1457 0.950 . S
C1428 H1410 0.951 . S
C1428 C1429 1.367 . S
C1428 C1430 1.388 . S
C1429 C1428 1.367 . S
C1429 C1433 1.383 1_545 S
C1430 H1411 0.951 . S
C1430 C1428 1.388 . S
C1430 C1431 1.366 . S
C1431 C1430 1.366 . S
C1431 C1432 1.414 1_545 S
C1431 C1434 1.499 . S
C1432 H1412 0.950 . S
C1432 C1431 1.414 1_565 S
C1432 C1433 1.374 . S
C1433 H1413 0.950 . S
C1433 C1429 1.383 1_565 S
C1433 C1432 1.374 . S
C1434 C1431 1.499 . S
C1434 C1435 1.373 1_545 S
C1434 C1436 1.389 . S
C1435 H1414 0.950 . S
C1435 C1434 1.373 1_565 S
C1435 C1451 1.377 . S
C1436 C1434 1.389 . S
C1436 C1437 1.524 . S
C1436 C1450 1.377 . S
C1437 C1436 1.524 . S
C1437 C1438 1.397 . S
C1437 C1442 1.363 . S
C1438 H1415 0.950 . S
C1438 C1437 1.397 . S
C1438 C1439 1.334 . S
C1439 H1416 0.950 . S
C1439 C1438 1.334 . S
C1439 C1440 1.287 . S
C1440 C1439 1.287 . S
C1440 C1441 1.524 . S
C1440 H1459 0.913 . S
C1441 H1417 0.950 . S
C1441 C1440 1.524 . S
C1441 C1442 1.415 . S
C1442 H1418 0.950 . S
C1442 C1437 1.363 . S
C1442 C1441 1.415 . S
C1443 H1419 0.950 1_545 S
C1443 C1444 1.366 . S
C1443 C1445 1.391 1_545 S
C1444 C1443 1.366 . S
C1444 C1448 1.385 . S
C1445 H1420 0.954 . S
C1445 C1443 1.391 1_565 S
C1445 C1446 1.362 1_565 S
C1446 C1445 1.362 1_545 S
C1446 C1447 1.414 . S
C1446 C1449 1.499 . S
C1447 H1421 0.950 . S
C1447 C1446 1.414 . S
C1447 C1448 1.374 . S
C1448 H1422 0.950 . S
C1448 C1444 1.385 . S
C1448 C1447 1.374 . S
C1449 C1446 1.499 . S
C1449 C1450 1.373 . S
C1449 C1451 1.389 1_545 S
C1450 H1423 0.950 . S
C1450 C1436 1.377 . S
C1450 C1449 1.373 . S
C1451 C1435 1.377 . S
C1451 C1449 1.389 1_565 S
C1451 C1452 1.524 . S
C1452 C1451 1.524 . S
C1452 C1453 1.397 . S
C1452 C1457 1.363 . S
C1453 H1424 0.950 . S
C1453 C1452 1.397 . S
C1453 C1454 1.334 . S
C1454 H1425 0.950 . S
C1454 C1453 1.334 . S
C1454 C1455 1.287 . S
C1455 C1454 1.287 . S
C1455 C1456 1.524 . S
C1455 H1458 0.999 . S
C1456 H1426 0.950 . S
C1456 C1455 1.524 . S
C1456 C1457 1.415 . S
C1457 H1427 0.950 . S
C1457 C1452 1.363 . S
C1457 C1456 1.415 . S
H1458 C1455 0.999 . S
H1459 C1440 0.913 . S
H1460 C1478 0.951 . S
H1461 C1480 0.951 . S
H1462 C1482 0.950 . S
H1463 C1483 0.950 . S
H1464 C1485 0.950 . S
H1465 C1488 0.950 . S
H1466 C1489 0.950 . S
H1467 C1491 0.950 . S
H1468 C1492 0.950 . S
H1469 C1493 0.951 . S
H1470 C1495 0.951 . S
H1471 C1497 0.950 . S
H1472 C1498 0.950 . S
H1473 C1500 0.950 . S
H1474 C1503 0.950 . S
H1475 C1504 0.950 . S
H1476 C1506 0.950 . S
H1477 C1507 0.950 . S
C1478 H1460 0.951 . S
C1478 C1479 1.366 . S
C1478 C1480 1.388 . S
C1479 C1478 1.366 . S
C1479 C1483 1.385 . S
C1480 H1461 0.951 . S
C1480 C1478 1.388 . S
C1480 C1481 1.366 . S
C1481 C1480 1.366 . S
C1481 C1482 1.414 . S
C1481 C1484 1.499 . S
C1482 H1462 0.950 . S
C1482 C1481 1.414 . S
C1482 C1483 1.374 . S
C1483 H1463 0.950 . S
C1483 C1479 1.385 . S
C1483 C1482 1.374 . S
C1484 C1481 1.499 . S
C1484 C1485 1.373 . S
C1484 C1486 1.389 . S
C1485 H1464 0.950 . S
C1485 C1484 1.373 . S
C1485 C1501 1.377 . S
C1486 C1484 1.389 . S
C1486 C1487 1.524 . S
C1486 C1500 1.377 . S
C1487 C1486 1.524 . S
C1487 C1488 1.397 . S
C1487 C1492 1.363 . S
C1488 H1465 0.950 . S
C1488 C1487 1.397 . S
C1488 C1489 1.334 . S
C1489 H1466 0.950 . S
C1489 C1488 1.334 . S
C1489 C1490 1.287 . S
C1490 C1489 1.287 . S
C1490 C1491 1.524 . S
C1490 H1509 0.913 . S
C1491 H1467 0.950 . S
C1491 C1490 1.524 . S
C1491 C1492 1.415 . S
C1492 H1468 0.950 . S
C1492 C1487 1.363 . S
C1492 C1491 1.415 . S
C1493 H1469 0.951 . S
C1493 C1494 1.366 . S
C1493 C1495 1.388 . S
C1494 C1493 1.366 . S
C1494 C1498 1.385 . S
C1495 H1470 0.951 . S
C1495 C1493 1.388 . S
C1495 C1496 1.366 . S
C1496 C1495 1.366 . S
C1496 C1497 1.414 . S
C1496 C1499 1.499 . S
C1497 H1471 0.950 . S
C1497 C1496 1.414 . S
C1497 C1498 1.374 . S
C1498 H1472 0.950 . S
C1498 C1494 1.385 . S
C1498 C1497 1.374 . S
C1499 C1496 1.499 . S
C1499 C1500 1.373 . S
C1499 C1501 1.389 . S
C1500 H1473 0.950 . S
C1500 C1486 1.377 . S
C1500 C1499 1.373 . S
C1501 C1485 1.377 . S
C1501 C1499 1.389 . S
C1501 C1502 1.524 . S
C1502 C1501 1.524 . S
C1502 C1503 1.397 . S
C1502 C1507 1.363 . S
C1503 H1474 0.950 . S
C1503 C1502 1.397 . S
C1503 C1504 1.334 . S
C1504 H1475 0.950 . S
C1504 C1503 1.334 . S
C1504 C1505 1.287 . S
C1505 C1504 1.287 . S
C1505 C1506 1.524 . S
C1505 H1508 0.999 . S
C1506 H1476 0.950 . S
C1506 C1505 1.524 . S
C1506 C1507 1.415 . S
C1507 H1477 0.950 . S
C1507 C1502 1.363 . S
C1507 C1506 1.415 . S
H1508 C1505 0.999 . S
H1509 C1490 0.913 . S
H1510 C1528 0.951 . S
H1511 C1530 0.951 . S
H1512 C1532 0.950 . S
H1513 C1533 0.950 . S
H1514 C1535 0.950 . S
H1515 C1538 0.950 . S
H1516 C1539 0.950 . S
H1517 C1541 0.950 . S
H1518 C1542 0.950 . S
H1519 C1543 0.951 . S
H1520 C1545 0.951 . S
H1521 C1547 0.950 . S
H1522 C1548 0.950 . S
H1523 C1550 0.950 . S
H1524 C1553 0.950 . S
H1525 C1554 0.950 . S
H1526 C1556 0.950 . S
H1527 C1557 0.950 . S
C1528 H1510 0.951 . S
C1528 C1529 1.366 . S
C1528 C1530 1.388 . S
C1529 C1528 1.366 . S
C1529 C1533 1.385 . S
C1530 H1511 0.951 . S
C1530 C1528 1.388 . S
C1530 C1531 1.366 . S
C1531 C1530 1.366 . S
C1531 C1532 1.414 . S
C1531 C1534 1.499 . S
C1532 H1512 0.950 . S
C1532 C1531 1.414 . S
C1532 C1533 1.374 . S
C1533 H1513 0.950 . S
C1533 C1529 1.385 . S
C1533 C1532 1.374 . S
C1534 C1531 1.499 . S
C1534 C1535 1.373 . S
C1534 C1536 1.389 . S
C1535 H1514 0.950 . S
C1535 C1534 1.373 . S
C1535 C1551 1.377 . S
C1536 C1534 1.389 . S
C1536 C1537 1.524 . S
C1536 C1550 1.377 . S
C1537 C1536 1.524 . S
C1537 C1538 1.397 . S
C1537 C1542 1.363 . S
C1538 H1515 0.950 . S
C1538 C1537 1.397 . S
C1538 C1539 1.334 . S
C1539 H1516 0.950 . S
C1539 C1538 1.334 . S
C1539 C1540 1.287 . S
C1540 C1539 1.287 . S
C1540 C1541 1.524 . S
C1540 H1559 0.913 . S
C1541 H1517 0.950 . S
C1541 C1540 1.524 . S
C1541 C1542 1.415 . S
C1542 H1518 0.950 . S
C1542 C1537 1.363 . S
C1542 C1541 1.415 . S
C1543 H1519 0.951 . S
C1543 C1544 1.366 . S
C1543 C1545 1.388 . S
C1544 C1543 1.366 . S
C1544 C1548 1.385 . S
C1545 H1520 0.951 . S
C1545 C1543 1.388 . S
C1545 C1546 1.366 . S
C1546 C1545 1.366 . S
C1546 C1547 1.414 . S
C1546 C1549 1.499 . S
C1547 H1521 0.950 . S
C1547 C1546 1.414 . S
C1547 C1548 1.374 . S
C1548 H1522 0.950 . S
C1548 C1544 1.385 . S
C1548 C1547 1.374 . S
C1549 C1546 1.499 . S
C1549 C1550 1.373 . S
C1549 C1551 1.389 . S
C1550 H1523 0.950 . S
C1550 C1536 1.377 . S
C1550 C1549 1.373 . S
C1551 C1535 1.377 . S
C1551 C1549 1.389 . S
C1551 C1552 1.524 . S
C1552 C1551 1.524 . S
C1552 C1553 1.397 . S
C1552 C1557 1.363 . S
C1553 H1524 0.950 . S
C1553 C1552 1.397 . S
C1553 C1554 1.334 . S
C1554 H1525 0.950 . S
C1554 C1553 1.334 . S
C1554 C1555 1.287 . S
C1555 C1554 1.287 . S
C1555 C1556 1.524 . S
C1555 H1558 0.999 . S
C1556 H1526 0.950 . S
C1556 C1555 1.524 . S
C1556 C1557 1.415 . S
C1557 H1527 0.950 . S
C1557 C1552 1.363 . S
C1557 C1556 1.415 . S
H1558 C1555 0.999 . S
H1559 C1540 0.913 . S
H1560 C1578 0.951 . S
H1561 C1580 0.951 . S
H1562 C1582 0.950 . S
H1563 C1583 0.950 . S
H1564 C1585 0.950 . S
H1565 C1588 0.950 . S
H1566 C1589 0.950 . S
H1567 C1591 0.950 . S
H1568 C1592 0.950 . S
H1569 C1593 0.951 . S
H1570 C1595 0.951 . S
H1571 C1597 0.950 . S
H1572 C1598 0.950 . S
H1573 C1600 0.950 . S
H1574 C1603 0.950 . S
H1575 C1604 0.950 . S
H1576 C1606 0.950 . S
H1577 C1607 0.950 . S
C1578 H1560 0.951 . S
C1578 C1579 1.366 . S
C1578 C1580 1.388 . S
C1579 C1578 1.366 . S
C1579 C1583 1.385 . S
C1580 H1561 0.951 . S
C1580 C1578 1.388 . S
C1580 C1581 1.366 . S
C1581 C1580 1.366 . S
C1581 C1582 1.414 . S
C1581 C1584 1.499 . S
C1582 H1562 0.950 . S
C1582 C1581 1.414 . S
C1582 C1583 1.374 . S
C1583 H1563 0.950 . S
C1583 C1579 1.385 . S
C1583 C1582 1.374 . S
C1584 C1581 1.499 . S
C1584 C1585 1.373 . S
C1584 C1586 1.389 . S
C1585 H1564 0.950 . S
C1585 C1584 1.373 . S
C1585 C1601 1.377 . S
C1586 C1584 1.389 . S
C1586 C1587 1.524 . S
C1586 C1600 1.377 . S
C1587 C1586 1.524 . S
C1587 C1588 1.397 . S
C1587 C1592 1.363 . S
C1588 H1565 0.950 . S
C1588 C1587 1.397 . S
C1588 C1589 1.334 . S
C1589 H1566 0.950 . S
C1589 C1588 1.334 . S
C1589 C1590 1.287 1_655 S
C1590 C1589 1.287 1_455 S
C1590 C1591 1.524 . S
C1590 H1609 0.913 . S
C1591 H1567 0.950 . S
C1591 C1590 1.524 . S
C1591 C1592 1.415 1_455 S
C1592 H1568 0.950 . S
C1592 C1587 1.363 . S
C1592 C1591 1.415 1_655 S
C1593 H1569 0.951 . S
C1593 C1594 1.366 . S
C1593 C1595 1.388 . S
C1594 C1593 1.366 . S
C1594 C1598 1.385 . S
C1595 H1570 0.951 . S
C1595 C1593 1.388 . S
C1595 C1596 1.366 . S
C1596 C1595 1.366 . S
C1596 C1597 1.414 . S
C1596 C1599 1.499 . S
C1597 H1571 0.950 . S
C1597 C1596 1.414 . S
C1597 C1598 1.374 . S
C1598 H1572 0.950 . S
C1598 C1594 1.385 . S
C1598 C1597 1.374 . S
C1599 C1596 1.499 . S
C1599 C1600 1.373 . S
C1599 C1601 1.389 . S
C1600 H1573 0.950 . S
C1600 C1586 1.377 . S
C1600 C1599 1.373 . S
C1601 C1585 1.377 . S
C1601 C1599 1.389 . S
C1601 C1602 1.524 . S
C1602 C1601 1.524 . S
C1602 C1603 1.397 . S
C1602 C1607 1.363 . S
C1603 H1574 0.950 . S
C1603 C1602 1.397 . S
C1603 C1604 1.334 . S
C1604 H1575 0.950 . S
C1604 C1603 1.334 . S
C1604 C1605 1.287 . S
C1605 C1604 1.287 . S
C1605 C1606 1.524 . S
C1605 H1608 0.999 . S
C1606 H1576 0.950 . S
C1606 C1605 1.524 . S
C1606 C1607 1.415 . S
C1607 H1577 0.950 . S
C1607 C1602 1.363 . S
C1607 C1606 1.415 . S
H1608 C1605 0.999 . S
H1609 C1590 0.913 . S
H1610 C1628 0.951 . S
H1611 C1630 0.951 . S
H1612 C1632 0.950 . S
H1613 C1633 0.950 . S
H1614 C1635 0.950 . S
H1615 C1638 0.950 . S
H1616 C1639 0.950 . S
H1617 C1641 0.950 . S
H1618 C1642 0.950 . S
H1619 C1643 0.951 . S
H1620 C1645 0.951 . S
H1621 C1647 0.950 . S
H1622 C1648 0.950 . S
H1623 C1650 0.950 . S
H1624 C1653 0.950 . S
H1625 C1654 0.950 . S
H1626 C1656 0.950 . S
H1627 C1657 0.950 . S
C1628 H1610 0.951 . S
C1628 C1629 1.359 1_545 S
C1628 C1630 1.388 . S
C1629 C1628 1.359 1_565 S
C1629 C1633 1.391 . S
C1630 H1611 0.951 . S
C1630 C1628 1.388 . S
C1630 C1631 1.333 1_545 S
C1631 C1630 1.333 1_565 S
C1631 C1632 1.450 . S
C1631 C1634 1.497 . S
C1632 H1612 0.950 . S
C1632 C1631 1.450 . S
C1632 C1633 1.374 . S
C1633 H1613 0.950 . S
C1633 C1629 1.391 . S
C1633 C1632 1.374 . S
C1634 C1631 1.497 . S
C1634 C1635 1.373 . S
C1634 C1636 1.389 1_565 S
C1635 H1614 0.950 . S
C1635 C1634 1.373 . S
C1635 C1651 1.377 . S
C1636 C1634 1.389 1_545 S
C1636 C1637 1.524 . S
C1636 C1650 1.377 . S
C1637 C1636 1.524 . S
C1637 C1638 1.397 . S
C1637 C1642 1.363 . S
C1638 H1615 0.950 . S
C1638 C1637 1.397 . S
C1638 C1639 1.334 . S
C1639 H1616 0.950 . S
C1639 C1638 1.334 . S
C1639 C1640 1.287 . S
C1640 C1639 1.287 . S
C1640 C1641 1.524 . S
C1640 H1659 0.913 . S
C1641 H1617 0.950 . S
C1641 C1640 1.524 . S
C1641 C1642 1.415 . S
C1642 H1618 0.950 . S
C1642 C1637 1.363 . S
C1642 C1641 1.415 . S
C1643 H1619 0.951 . S
C1643 C1644 1.366 . S
C1643 C1645 1.388 . S
C1644 C1643 1.366 . S
C1644 C1648 1.385 1_565 S
C1645 H1620 0.951 . S
C1645 C1643 1.388 . S
C1645 C1646 1.366 . S
C1646 C1645 1.366 . S
C1646 C1647 1.414 1_565 S
C1646 C1649 1.499 . S
C1647 H1621 0.950 . S
C1647 C1646 1.414 1_545 S
C1647 C1648 1.374 . S
C1648 H1622 0.950 . S
C1648 C1644 1.385 1_545 S
C1648 C1647 1.374 . S
C1649 C1646 1.499 . S
C1649 C1650 1.373 1_565 S
C1649 C1651 1.389 . S
C1650 H1623 0.950 . S
C1650 C1636 1.377 . S
C1650 C1649 1.373 1_545 S
C1651 C1635 1.377 . S
C1651 C1649 1.389 . S
C1651 C1652 1.524 . S
C1652 C1651 1.524 . S
C1652 C1653 1.397 . S
C1652 C1657 1.363 . S
C1653 H1624 0.950 . S
C1653 C1652 1.397 . S
C1653 C1654 1.334 . S
C1654 H1625 0.950 . S
C1654 C1653 1.334 . S
C1654 C1655 1.287 . S
C1655 C1654 1.287 . S
C1655 C1656 1.524 . S
C1655 H1658 0.999 . S
C1656 H1626 0.950 . S
C1656 C1655 1.524 . S
C1656 C1657 1.415 . S
C1657 H1627 0.950 . S
C1657 C1652 1.363 . S
C1657 C1656 1.415 . S
H1658 C1655 0.999 . S
H1659 C1640 0.913 . S
H1660 C1678 0.951 . S
H1661 C1680 0.951 . S
H1662 C1682 0.950 . S
H1663 C1683 0.950 . S
H1664 C1685 0.950 . S
H1665 C1688 0.950 . S
H1666 C1689 0.950 . S
H1667 C1691 0.950 . S
H1668 C1692 0.950 . S
H1669 C1693 0.951 . S
H1670 C1695 0.951 . S
H1671 C1697 0.950 . S
H1672 C1698 0.950 . S
H1673 C1700 0.950 . S
H1674 C1703 0.950 . S
H1675 C1704 0.950 . S
H1676 C1706 0.950 . S
H1677 C1707 0.950 . S
C1678 H1660 0.951 . S
C1678 C1679 1.366 . S
C1678 C1680 1.388 . S
C1679 C1678 1.366 . S
C1679 C1683 1.385 . S
C1680 H1661 0.951 . S
C1680 C1678 1.388 . S
C1680 C1681 1.366 . S
C1681 C1680 1.366 . S
C1681 C1682 1.414 . S
C1681 C1684 1.499 . S
C1682 H1662 0.950 . S
C1682 C1681 1.414 . S
C1682 C1683 1.374 . S
C1683 H1663 0.950 . S
C1683 C1679 1.385 . S
C1683 C1682 1.374 . S
C1684 C1681 1.499 . S
C1684 C1685 1.373 . S
C1684 C1686 1.389 . S
C1685 H1664 0.950 . S
C1685 C1684 1.373 . S
C1685 C1701 1.377 . S
C1686 C1684 1.389 . S
C1686 C1687 1.524 . S
C1686 C1700 1.377 . S
C1687 C1686 1.524 . S
C1687 C1688 1.397 . S
C1687 C1692 1.363 . S
C1688 H1665 0.950 . S
C1688 C1687 1.397 . S
C1688 C1689 1.334 . S
C1689 H1666 0.950 . S
C1689 C1688 1.334 . S
C1689 C1690 1.287 . S
C1690 C1689 1.287 . S
C1690 C1691 1.524 . S
C1690 H1709 0.913 . S
C1691 H1667 0.950 . S
C1691 C1690 1.524 . S
C1691 C1692 1.415 . S
C1692 H1668 0.950 . S
C1692 C1687 1.363 . S
C1692 C1691 1.415 . S
C1693 H1669 0.951 . S
C1693 C1694 1.366 . S
C1693 C1695 1.388 . S
C1694 C1693 1.366 . S
C1694 C1698 1.385 . S
C1695 H1670 0.951 . S
C1695 C1693 1.388 . S
C1695 C1696 1.366 . S
C1696 C1695 1.366 . S
C1696 C1697 1.414 . S
C1696 C1699 1.499 . S
C1697 H1671 0.950 . S
C1697 C1696 1.414 . S
C1697 C1698 1.374 . S
C1698 H1672 0.950 . S
C1698 C1694 1.385 . S
C1698 C1697 1.374 . S
C1699 C1696 1.499 . S
C1699 C1700 1.373 . S
C1699 C1701 1.389 . S
C1700 H1673 0.950 . S
C1700 C1686 1.377 . S
C1700 C1699 1.373 . S
C1701 C1685 1.377 . S
C1701 C1699 1.389 . S
C1701 C1702 1.524 . S
C1702 C1701 1.524 . S
C1702 C1703 1.397 . S
C1702 C1707 1.363 . S
C1703 H1674 0.950 . S
C1703 C1702 1.397 . S
C1703 C1704 1.334 . S
C1704 H1675 0.950 . S
C1704 C1703 1.334 . S
C1704 C1705 1.287 . S
C1705 C1704 1.287 . S
C1705 C1706 1.524 . S
C1705 H1708 0.999 . S
C1706 H1676 0.950 . S
C1706 C1705 1.524 . S
C1706 C1707 1.415 . S
C1707 H1677 0.950 . S
C1707 C1702 1.363 . S
C1707 C1706 1.415 . S
H1708 C1705 0.999 . S
H1709 C1690 0.913 . S
H1710 C1728 0.951 . S
H1711 C1730 0.951 . S
H1712 C1732 0.950 . S
H1713 C1733 0.950 . S
H1714 C1735 0.950 . S
H1715 C1738 0.950 . S
H1716 C1739 0.950 . S
H1717 C1741 0.950 . S
H1718 C1742 0.950 . S
H1719 C1743 0.951 . S
H1720 C1745 0.951 . S
H1721 C1747 0.950 . S
H1722 C1748 0.950 . S
H1723 C1750 0.950 . S
H1724 C1753 0.950 . S
H1725 C1754 0.950 . S
H1726 C1756 0.950 . S
H1727 C1757 0.950 . S
C1728 H1710 0.951 . S
C1728 C1729 1.366 . S
C1728 C1730 1.388 . S
C1729 C1728 1.366 . S
C1729 C1733 1.385 . S
C1730 H1711 0.951 . S
C1730 C1728 1.388 . S
C1730 C1731 1.366 . S
C1731 C1730 1.366 . S
C1731 C1732 1.414 . S
C1731 C1734 1.499 . S
C1732 H1712 0.950 . S
C1732 C1731 1.414 . S
C1732 C1733 1.374 . S
C1733 H1713 0.950 . S
C1733 C1729 1.385 . S
C1733 C1732 1.374 . S
C1734 C1731 1.499 . S
C1734 C1735 1.373 . S
C1734 C1736 1.389 . S
C1735 H1714 0.950 . S
C1735 C1734 1.373 . S
C1735 C1751 1.377 . S
C1736 C1734 1.389 . S
C1736 C1737 1.524 . S
C1736 C1750 1.377 . S
C1737 C1736 1.524 . S
C1737 C1738 1.397 . S
C1737 C1742 1.363 . S
C1738 H1715 0.950 . S
C1738 C1737 1.397 . S
C1738 C1739 1.334 . S
C1739 H1716 0.950 . S
C1739 C1738 1.334 . S
C1739 C1740 1.287 . S
C1740 C1739 1.287 . S
C1740 C1741 1.524 . S
C1740 H1759 0.913 . S
C1741 H1717 0.950 . S
C1741 C1740 1.524 . S
C1741 C1742 1.415 . S
C1742 H1718 0.950 . S
C1742 C1737 1.363 . S
C1742 C1741 1.415 . S
C1743 H1719 0.951 . S
C1743 C1744 1.366 . S
C1743 C1745 1.388 . S
C1744 C1743 1.366 . S
C1744 C1748 1.385 . S
C1745 H1720 0.951 . S
C1745 C1743 1.388 . S
C1745 C1746 1.366 . S
C1746 C1745 1.366 . S
C1746 C1747 1.414 . S
C1746 C1749 1.499 . S
C1747 H1721 0.950 . S
C1747 C1746 1.414 . S
C1747 C1748 1.374 . S
C1748 H1722 0.950 . S
C1748 C1744 1.385 . S
C1748 C1747 1.374 . S
C1749 C1746 1.499 . S
C1749 C1750 1.373 . S
C1749 C1751 1.389 . S
C1750 H1723 0.950 . S
C1750 C1736 1.377 . S
C1750 C1749 1.373 . S
C1751 C1735 1.377 . S
C1751 C1749 1.389 . S
C1751 C1752 1.524 . S
C1752 C1751 1.524 . S
C1752 C1753 1.397 . S
C1752 C1757 1.363 . S
C1753 H1724 0.950 . S
C1753 C1752 1.397 . S
C1753 C1754 1.334 . S
C1754 H1725 0.950 . S
C1754 C1753 1.334 . S
C1754 C1755 1.287 . S
C1755 C1754 1.287 . S
C1755 C1756 1.524 . S
C1755 H1758 0.999 . S
C1756 H1726 0.950 . S
C1756 C1755 1.524 . S
C1756 C1757 1.415 . S
C1757 H1727 0.950 . S
C1757 C1752 1.363 . S
C1757 C1756 1.415 . S
H1758 C1755 0.999 . S
H1759 C1740 0.913 . S
C579 C391 1.640 1_565 S
C594 C488 1.650 . S
C644 C518 2.387 . S
C629 C451 2.386 . S
C694 C528 1.728 . S
C679 C241 1.609 . S
C744 C548 1.593 . S
C729 C331 1.396 . S
C794 C489 1.650 . S
C779 C121 1.511 1_545 S
C829 C211 2.303 1_556 S
C844 C519 2.390 . S
C879 C31 1.742 . S
C894 C529 1.728 . S
C929 C91 1.462 . S
C944 C549 1.593 . S
C994 C481 0.489 . S
C979 C301 0.628 . S
C1044 C502 0.419 . S
C1029 C380 0.355 . S
C1094 C521 0.846 . S
C1079 C440 0.843 . S
C1129 C260 0.477 . S
C1144 C541 0.304 . S
C1179 C61 0.559 . S
C1194 C482 0.498 . S
C1244 C501 0.419 . S
C1229 C140 0.726 . S
C1294 C522 0.847 . S
C1279 C200 0.824 . S
C1329 C20 0.280 . S
C1344 C542 0.306 . S
C1379 C320 2.283 . S
C1394 C499 2.389 . S
C1429 C361 1.446 . S
C1444 C509 1.735 . S
C1494 C539 2.560 . S
C1479 C421 2.244 . S
C1544 C559 2.435 . S
C1529 C271 2.397 . S
C1579 C80 2.346 . S
C1594 C498 2.398 . S
C1644 C508 1.735 . S
C1629 C151 1.669 . S
C1694 C538 2.560 . S
C1679 C181 2.154 . S
C1729 C1 2.158 . S
C1744 C558 2.435 . S
