# Generated by pormake.
# Topology eea, (3,6)-cn, num edge types: 1
# Building blocks:
#     Node 0, Type 0, BuildingBlock: QEWDON_clean_linker_0, # of connection points: 3
#     Node 1, Type 0, BuildingBlock: QEWDON_clean_linker_0, # of connection points: 3
#     Node 2, Type 0, BuildingBlock: QEWDON_clean_linker_0, # of connection points: 3
#     Node 3, Type 0, BuildingBlock: QEWDON_clean_linker_0, # of connection points: 3
#     Node 4, Type 0, BuildingBlock: QEWDON_clean_linker_0, # of connection points: 3
#     Node 5, Type 0, BuildingBlock: QEWDON_clean_linker_0, # of connection points: 3
#     Node 6, Type 0, BuildingBlock: QEWDON_clean_linker_0, # of connection points: 3
#     Node 7, Type 0, BuildingBlock: QEWDON_clean_linker_0, # of connection points: 3
#     Node 8, Type 0, BuildingBlock: QEWDON_clean_linker_0, # of connection points: 3
#     Node 9, Type 0, BuildingBlock: QEWDON_clean_linker_0, # of connection points: 3
#     Node 10, Type 0, BuildingBlock: QEWDON_clean_linker_0, # of connection points: 3
#     Node 11, Type 0, BuildingBlock: QEWDON_clean_linker_0, # of connection points: 3
#     Node 12, Type 0, BuildingBlock: QEWDON_clean_linker_0, # of connection points: 3
#     Node 13, Type 0, BuildingBlock: QEWDON_clean_linker_0, # of connection points: 3
#     Node 14, Type 0, BuildingBlock: QEWDON_clean_linker_0, # of connection points: 3
#     Node 15, Type 0, BuildingBlock: QEWDON_clean_linker_0, # of connection points: 3
#     Node 16, Type 0, BuildingBlock: QEWDON_clean_linker_0, # of connection points: 3
#     Node 17, Type 0, BuildingBlock: QEWDON_clean_linker_0, # of connection points: 3
#     Node 18, Type 1, BuildingBlock: KUMBOL_clean_sbu_0, # of connection points: 6
#     Node 19, Type 1, BuildingBlock: KUMBOL_clean_sbu_0, # of connection points: 6
#     Node 20, Type 1, BuildingBlock: KUMBOL_clean_sbu_0, # of connection points: 6
#     Node 21, Type 1, BuildingBlock: KUMBOL_clean_sbu_0, # of connection points: 6
#     Node 22, Type 1, BuildingBlock: KUMBOL_clean_sbu_0, # of connection points: 6
#     Node 23, Type 1, BuildingBlock: KUMBOL_clean_sbu_0, # of connection points: 6
#     Node 24, Type 1, BuildingBlock: KUMBOL_clean_sbu_0, # of connection points: 6
#     Node 25, Type 1, BuildingBlock: KUMBOL_clean_sbu_0, # of connection points: 6
#     Node 26, Type 1, BuildingBlock: KUMBOL_clean_sbu_0, # of connection points: 6
#     Edge 27, Type (0, 1), BuildingBlock: KIFKEQ_clean_linker_1, # of connection points: 2
#     Edge 28, Type (0, 1), BuildingBlock: KIFKEQ_clean_linker_1, # of connection points: 2
#     Edge 29, Type (0, 1), BuildingBlock: KIFKEQ_clean_linker_1, # of connection points: 2
#     Edge 30, Type (0, 1), BuildingBlock: KIFKEQ_clean_linker_1, # of connection points: 2
#     Edge 31, Type (0, 1), BuildingBlock: KIFKEQ_clean_linker_1, # of connection points: 2
#     Edge 32, Type (0, 1), BuildingBlock: KIFKEQ_clean_linker_1, # of connection points: 2
#     Edge 33, Type (0, 1), BuildingBlock: KIFKEQ_clean_linker_1, # of connection points: 2
#     Edge 34, Type (0, 1), BuildingBlock: KIFKEQ_clean_linker_1, # of connection points: 2
#     Edge 35, Type (0, 1), BuildingBlock: KIFKEQ_clean_linker_1, # of connection points: 2
#     Edge 36, Type (0, 1), BuildingBlock: KIFKEQ_clean_linker_1, # of connection points: 2
#     Edge 37, Type (0, 1), BuildingBlock: KIFKEQ_clean_linker_1, # of connection points: 2
#     Edge 38, Type (0, 1), BuildingBlock: KIFKEQ_clean_linker_1, # of connection points: 2
#     Edge 39, Type (0, 1), BuildingBlock: KIFKEQ_clean_linker_1, # of connection points: 2
#     Edge 40, Type (0, 1), BuildingBlock: KIFKEQ_clean_linker_1, # of connection points: 2
#     Edge 41, Type (0, 1), BuildingBlock: KIFKEQ_clean_linker_1, # of connection points: 2
#     Edge 42, Type (0, 1), BuildingBlock: KIFKEQ_clean_linker_1, # of connection points: 2
#     Edge 43, Type (0, 1), BuildingBlock: KIFKEQ_clean_linker_1, # of connection points: 2
#     Edge 44, Type (0, 1), BuildingBlock: KIFKEQ_clean_linker_1, # of connection points: 2
#     Edge 45, Type (0, 1), BuildingBlock: KIFKEQ_clean_linker_1, # of connection points: 2
#     Edge 46, Type (0, 1), BuildingBlock: KIFKEQ_clean_linker_1, # of connection points: 2
#     Edge 47, Type (0, 1), BuildingBlock: KIFKEQ_clean_linker_1, # of connection points: 2
#     Edge 48, Type (0, 1), BuildingBlock: KIFKEQ_clean_linker_1, # of connection points: 2
#     Edge 49, Type (0, 1), BuildingBlock: KIFKEQ_clean_linker_1, # of connection points: 2
#     Edge 50, Type (0, 1), BuildingBlock: KIFKEQ_clean_linker_1, # of connection points: 2
#     Edge 51, Type (0, 1), BuildingBlock: KIFKEQ_clean_linker_1, # of connection points: 2
#     Edge 52, Type (0, 1), BuildingBlock: KIFKEQ_clean_linker_1, # of connection points: 2
#     Edge 53, Type (0, 1), BuildingBlock: KIFKEQ_clean_linker_1, # of connection points: 2
#     Edge 54, Type (0, 1), BuildingBlock: KIFKEQ_clean_linker_1, # of connection points: 2
#     Edge 55, Type (0, 1), BuildingBlock: KIFKEQ_clean_linker_1, # of connection points: 2
#     Edge 56, Type (0, 1), BuildingBlock: KIFKEQ_clean_linker_1, # of connection points: 2
#     Edge 57, Type (0, 1), BuildingBlock: KIFKEQ_clean_linker_1, # of connection points: 2
#     Edge 58, Type (0, 1), BuildingBlock: KIFKEQ_clean_linker_1, # of connection points: 2
#     Edge 59, Type (0, 1), BuildingBlock: KIFKEQ_clean_linker_1, # of connection points: 2
#     Edge 60, Type (0, 1), BuildingBlock: KIFKEQ_clean_linker_1, # of connection points: 2
#     Edge 61, Type (0, 1), BuildingBlock: KIFKEQ_clean_linker_1, # of connection points: 2
#     Edge 62, Type (0, 1), BuildingBlock: KIFKEQ_clean_linker_1, # of connection points: 2
#     Edge 63, Type (0, 1), BuildingBlock: KIFKEQ_clean_linker_1, # of connection points: 2
#     Edge 64, Type (0, 1), BuildingBlock: KIFKEQ_clean_linker_1, # of connection points: 2
#     Edge 65, Type (0, 1), BuildingBlock: KIFKEQ_clean_linker_1, # of connection points: 2
#     Edge 66, Type (0, 1), BuildingBlock: KIFKEQ_clean_linker_1, # of connection points: 2
#     Edge 67, Type (0, 1), BuildingBlock: KIFKEQ_clean_linker_1, # of connection points: 2
#     Edge 68, Type (0, 1), BuildingBlock: KIFKEQ_clean_linker_1, # of connection points: 2
#     Edge 69, Type (0, 1), BuildingBlock: KIFKEQ_clean_linker_1, # of connection points: 2
#     Edge 70, Type (0, 1), BuildingBlock: KIFKEQ_clean_linker_1, # of connection points: 2
#     Edge 71, Type (0, 1), BuildingBlock: KIFKEQ_clean_linker_1, # of connection points: 2
#     Edge 72, Type (0, 1), BuildingBlock: KIFKEQ_clean_linker_1, # of connection points: 2
#     Edge 73, Type (0, 1), BuildingBlock: KIFKEQ_clean_linker_1, # of connection points: 2
#     Edge 74, Type (0, 1), BuildingBlock: KIFKEQ_clean_linker_1, # of connection points: 2
#     Edge 75, Type (0, 1), BuildingBlock: KIFKEQ_clean_linker_1, # of connection points: 2
#     Edge 76, Type (0, 1), BuildingBlock: KIFKEQ_clean_linker_1, # of connection points: 2
#     Edge 77, Type (0, 1), BuildingBlock: KIFKEQ_clean_linker_1, # of connection points: 2
#     Edge 78, Type (0, 1), BuildingBlock: KIFKEQ_clean_linker_1, # of connection points: 2
#     Edge 79, Type (0, 1), BuildingBlock: KIFKEQ_clean_linker_1, # of connection points: 2
#     Edge 80, Type (0, 1), BuildingBlock: KIFKEQ_clean_linker_1, # of connection points: 2
# Relax obj value: 0.044
# Max RMSD: 0.208
# Mean RMSD: 0.149
data_MOF--net-eea--node1-KUMBOL_clean_sbu_0--node2-QEWDON_clean_linker_0--edge1-KIFKEQ_clean_linker_1
_symmetry_space_group_name_H-M    P1
_symmetry_Int_Tables_number       1
_symmetry_cell_setting            triclinic
loop_
_symmetry_equiv_pos_as_xyz
'x, y, z'
_cell_length_a     58.473911
_cell_length_b     60.15764
_cell_length_c     64.335483
_cell_angle_alpha  89.987564
_cell_angle_beta   89.923592
_cell_angle_gamma 119.94929
loop_
_atom_site_label
_atom_site_type_symbol
_atom_site_fract_x
_atom_site_fract_y
_atom_site_fract_z
_atom_type_partial_charge
H0 H 0.21328 0.1168 0.43651 0.0
C1 C 0.21423 0.10171 0.42804 0.0
C2 C 0.23059 0.09239 0.4352 0.0
C3 C 0.19755 0.09019 0.41087 0.0
H4 H 0.24427 0.06571 0.42941 0.0
C5 C 0.23103 0.07236 0.42435 0.0
C6 C 0.21426 0.06036 0.40742 0.0
C7 C 0.19771 0.06956 0.40065 0.0
C8 C 0.17796 0.09778 0.40481 0.0
H9 H 0.18425 0.06015 0.38785 0.0
C10 C 0.18564 0.1235 0.40022 0.0
C11 C 0.16675 0.13006 0.39367 0.0
C12 C 0.1512 0.07888 0.40336 0.0
H13 H 0.1448 0.05903 0.40702 0.0
C14 C 0.1324 0.08538 0.39739 0.0
H15 H 0.2063 0.1381 0.40102 0.0
C16 C 0.14006 0.11073 0.39253 0.0
H17 H 0.12502 0.11524 0.38794 0.0
H18 H 0.11182 0.0707 0.39645 0.0
H19 H 0.90422 0.09827 0.42961 0.0
C20 C 0.92013 0.11459 0.4217 0.0
C21 C 0.92804 0.1395 0.42873 0.0
C22 C 0.93325 0.11058 0.40505 0.0
H23 H 0.95543 0.17985 0.42437 0.0
C24 C 0.94895 0.16064 0.41869 0.0
C25 C 0.96274 0.15704 0.40234 0.0
C26 C 0.95475 0.13196 0.3956 0.0
C27 C 0.92581 0.08401 0.39868 0.0
H28 H 0.96532 0.12914 0.38297 0.0
C29 C 0.89911 0.06473 0.39626 0.0
C30 C 0.89245 0.03935 0.39133 0.0
C31 C 0.94564 0.07758 0.39575 0.0
H32 H 0.96626 0.09182 0.39774 0.0
C33 C 0.93909 0.05253 0.39079 0.0
H34 H 0.88358 0.06938 0.39838 0.0
C35 C 0.91273 0.03351 0.38869 0.0
H36 H 0.90816 0.01421 0.38474 0.0
H37 H 0.95454 0.04779 0.38868 0.0
H38 H 0.92474 0.79765 0.42728 0.0
C39 C 0.90846 0.79828 0.41984 0.0
C40 C 0.88264 0.78312 0.42771 0.0
C41 C 0.91342 0.81493 0.40288 0.0
H42 H 0.84189 0.77334 0.42442 0.0
C43 C 0.86169 0.78442 0.41814 0.0
C44 C 0.86618 0.8011 0.40143 0.0
C45 C 0.89205 0.81625 0.39389 0.0
C46 C 0.94102 0.83274 0.39563 0.0
H47 H 0.89553 0.82915 0.38098 0.0
C48 C 0.95966 0.82455 0.39209 0.0
C49 C 0.98526 0.842 0.38443 0.0
C50 C 0.94874 0.85863 0.39213 0.0
H51 H 0.93524 0.86568 0.39512 0.0
C52 C 0.974 0.87589 0.38503 0.0
H53 H 0.95404 0.80465 0.39461 0.0
C54 C 0.99205 0.86771 0.38115 0.0
H55 H 1.01159 0.8817 0.37575 0.0
H56 H 0.97965 0.89578 0.38252 0.0
H57 H 0.1351 0.21234 0.60683 0.0
C58 C 0.11857 0.21276 0.61407 0.0
C59 C 0.10935 0.2284 0.60556 0.0
C60 C 0.106 0.19705 0.63141 0.0
H61 H 0.08015 0.24023 0.60793 0.0
C62 C 0.0876 0.2286 0.61473 0.0
C63 C 0.0743 0.21261 0.63173 0.0
C64 C 0.08371 0.19703 0.64001 0.0
C65 C 0.11459 0.17906 0.63953 0.0
H66 H 0.07358 0.18484 0.65321 0.0
C67 C 0.14158 0.18661 0.64241 0.0
C68 C 0.14885 0.16909 0.65055 0.0
C69 C 0.09526 0.1537 0.64432 0.0
H70 H 0.07452 0.14709 0.64185 0.0
C71 C 0.10235 0.13635 0.65197 0.0
H72 H 0.15673 0.20611 0.63893 0.0
C73 C 0.1288 0.14391 0.65509 0.0
H74 H 0.13358 0.12979 0.66085 0.0
H75 H 0.08722 0.11684 0.65544 0.0
H76 H 0.81289 0.9182 0.59955 0.0
C77 C 0.8123 0.90197 0.60739 0.0
C78 C 0.79502 0.87697 0.60032 0.0
C79 C 0.82916 0.90608 0.62426 0.0
H80 H 0.78183 0.83679 0.60436 0.0
C81 C 0.7946 0.85598 0.61027 0.0
C82 C 0.81166 0.85977 0.62697 0.0
C83 C 0.82861 0.88488 0.63398 0.0
C84 C 0.84812 0.93244 0.63142 0.0
H85 H 0.84139 0.88796 0.64716 0.0
C86 C 0.84006 0.95069 0.63475 0.0
C87 C 0.85789 0.97496 0.64294 0.0
C88 C 0.87441 0.93919 0.63561 0.0
H89 H 0.88124 0.92569 0.63287 0.0
C90 C 0.89219 0.96342 0.64336 0.0
H91 H 0.8198 0.94571 0.63182 0.0
C92 C 0.88396 0.98114 0.64719 0.0
H93 H 0.89799 0.99978 0.65345 0.0
H94 H 0.91236 0.96839 0.64658 0.0
H95 H 0.10139 0.88356 0.60432 0.0
C96 C 0.1175 0.89952 0.61233 0.0
C97 C 0.14346 0.90984 0.60472 0.0
C98 C 0.11224 0.91035 0.62983 0.0
H99 H 0.18393 0.93988 0.60836 0.0
C100 C 0.16415 0.93118 0.61477 0.0
C101 C 0.15937 0.94242 0.63211 0.0
C102 C 0.13343 0.93158 0.63971 0.0
C103 C 0.08459 0.90138 0.63678 0.0
H104 H 0.12968 0.93994 0.65329 0.0
C105 C 0.06526 0.87502 0.6381 0.0
C106 C 0.03922 0.86743 0.64458 0.0
C107 C 0.07737 0.91979 0.64194 0.0
H108 H 0.09142 0.94011 0.64065 0.0
C109 C 0.0519 0.91236 0.64856 0.0
H110 H 0.07039 0.86057 0.63406 0.0
C111 C 0.03301 0.88649 0.64995 0.0
H112 H 0.01344 0.88136 0.65538 0.0
H113 H 0.04672 0.92678 0.6526 0.0
H114 H 0.88109 0.4506 0.76832 0.0
C115 C 0.88305 0.43609 0.75981 0.0
C116 C 0.89965 0.4273 0.76749 0.0
C117 C 0.8675 0.4248 0.74202 0.0
H118 H 0.91459 0.40147 0.7623 0.0
C119 C 0.90129 0.40782 0.75673 0.0
C120 C 0.88567 0.39603 0.73921 0.0
C121 C 0.86916 0.40496 0.73175 0.0
C122 C 0.84756 0.43173 0.7352 0.0
H123 H 0.8568 0.39579 0.71835 0.0
C124 C 0.85367 0.45754 0.73361 0.0
C125 C 0.83443 0.46355 0.72682 0.0
C126 C 0.82192 0.41209 0.73023 0.0
H127 H 0.81644 0.3921 0.73171 0.0
C128 C 0.80294 0.41792 0.72345 0.0
H129 H 0.87331 0.47281 0.73755 0.0
C130 C 0.80911 0.44337 0.72162 0.0
H131 H 0.79404 0.44722 0.71584 0.0
H132 H 0.78335 0.40262 0.7195 0.0
H133 H 0.56868 0.43365 0.76286 0.0
C134 C 0.58465 0.45036 0.75538 0.0
C135 C 0.59257 0.47494 0.76329 0.0
C136 C 0.59774 0.44722 0.73826 0.0
H137 H 0.62004 0.51551 0.76012 0.0
C138 C 0.61353 0.49659 0.75376 0.0
C139 C 0.62727 0.49378 0.73697 0.0
C140 C 0.61914 0.4691 0.72926 0.0
C141 C 0.5902 0.42115 0.73041 0.0
H142 H 0.62956 0.46697 0.71615 0.0
C143 C 0.56349 0.40214 0.72734 0.0
C144 C 0.55709 0.37813 0.71878 0.0
C145 C 0.61011 0.41535 0.72555 0.0
H146 H 0.63071 0.42928 0.72814 0.0
C147 C 0.60374 0.39148 0.71743 0.0
H148 H 0.54788 0.40629 0.73084 0.0
C149 C 0.57748 0.37307 0.71391 0.0
H150 H 0.57303 0.3547 0.70744 0.0
H151 H 0.61926 0.38728 0.71374 0.0
H152 H 0.59224 0.13147 0.75945 0.0
C153 C 0.57568 0.13139 0.75184 0.0
C154 C 0.54999 0.11586 0.75984 0.0
C155 C 0.58012 0.14746 0.73453 0.0
H156 H 0.50896 0.10511 0.7567 0.0
C157 C 0.52864 0.11636 0.75023 0.0
C158 C 0.53257 0.13249 0.73323 0.0
C159 C 0.55826 0.14776 0.72538 0.0
C160 C 0.60758 0.16574 0.7271 0.0
H161 H 0.56116 0.16002 0.71212 0.0
C162 C 0.62761 0.15895 0.72577 0.0
C163 C 0.65344 0.17715 0.71902 0.0
C164 C 0.61397 0.19085 0.7216 0.0
H165 H 0.59954 0.19705 0.72293 0.0
C166 C 0.63914 0.20855 0.71464 0.0
H167 H 0.62323 0.13981 0.73007 0.0
C168 C 0.65865 0.20182 0.7133 0.0
H169 H 0.67796 0.21605 0.70766 0.0
H170 H 0.64362 0.22772 0.71036 0.0
H171 H 0.80144 0.5482 0.94194 0.0
C172 C 0.7846 0.54871 0.94842 0.0
C173 C 0.77438 0.56229 0.93779 0.0
C174 C 0.77214 0.53446 0.96644 0.0
H175 H 0.74446 0.57299 0.93743 0.0
C176 C 0.75173 0.56198 0.94552 0.0
C177 C 0.73864 0.5479 0.96347 0.0
C178 C 0.7494 0.53461 0.97396 0.0
C179 C 0.78108 0.51736 0.97622 0.0
H180 H 0.73957 0.52365 0.98772 0.0
C181 C 0.80806 0.52391 0.97685 0.0
C182 C 0.81539 0.50648 0.98504 0.0
C183 C 0.76198 0.49331 0.98416 0.0
H184 H 0.74113 0.48701 0.98337 0.0
C185 C 0.76926 0.47652 0.99272 0.0
H186 H 0.8232 0.54216 0.97074 0.0
C187 C 0.79564 0.48297 0.99316 0.0
H188 H 0.80063 0.4694 0.99984 0.0
H189 H 0.75428 0.45817 0.9988 0.0
H190 H 0.48058 0.25527 0.93394 0.0
C191 C 0.48015 0.23889 0.94138 0.0
C192 C 0.46315 0.21409 0.9338 0.0
C193 C 0.49693 0.24261 0.95822 0.0
H194 H 0.45046 0.1739 0.9368 0.0
C195 C 0.46298 0.19291 0.94315 0.0
C196 C 0.47996 0.19632 0.9598 0.0
C197 C 0.49657 0.22122 0.96738 0.0
C198 C 0.51561 0.26879 0.96594 0.0
H199 H 0.50925 0.22398 0.98056 0.0
C200 C 0.50732 0.28679 0.96965 0.0
C201 C 0.52488 0.31084 0.97835 0.0
C202 C 0.54188 0.27558 0.97029 0.0
H203 H 0.54891 0.26229 0.96727 0.0
C204 C 0.55939 0.29958 0.97856 0.0
H205 H 0.48708 0.28178 0.96659 0.0
C206 C 0.55092 0.31705 0.98275 0.0
H207 H 0.56476 0.33552 0.98938 0.0
H208 H 0.57954 0.30459 0.9819 0.0
H209 H 0.76893 0.22144 0.93482 0.0
C210 C 0.78518 0.23707 0.94303 0.0
C211 C 0.81077 0.24904 0.93438 0.0
C212 C 0.78014 0.24662 0.96141 0.0
H213 H 0.85118 0.27924 0.93836 0.0
C214 C 0.83145 0.26993 0.9449 0.0
C215 C 0.82683 0.27976 0.96319 0.0
C216 C 0.80113 0.26788 0.97137 0.0
C217 C 0.75268 0.23688 0.96897 0.0
H218 H 0.7973 0.27546 0.98541 0.0
C219 C 0.73513 0.21056 0.97299 0.0
C220 C 0.70971 0.20246 0.98127 0.0
C221 C 0.74416 0.25465 0.97259 0.0
H222 H 0.75705 0.27486 0.96936 0.0
C223 C 0.71896 0.24664 0.98024 0.0
H224 H 0.74153 0.1967 0.97039 0.0
C225 C 0.70191 0.22084 0.98461 0.0
H226 H 0.68238 0.21521 0.99048 0.0
H227 H 0.71263 0.26052 0.98285 0.0
H228 H 0.55222 0.78848 0.10186 0.0
C229 C 0.55261 0.77324 0.09317 0.0
C230 C 0.57038 0.76497 0.09886 0.0
C231 C 0.53477 0.76133 0.07673 0.0
H232 H 0.58305 0.73751 0.09279 0.0
C233 C 0.57024 0.74471 0.08785 0.0
C234 C 0.55251 0.73254 0.07144 0.0
C235 C 0.53511 0.74123 0.06584 0.0
C236 C 0.51449 0.7685 0.07169 0.0
H237 H 0.52161 0.73217 0.053 0.0
C238 C 0.52099 0.79439 0.07008 0.0
C239 C 0.5015 0.80075 0.0649 0.0
C240 C 0.48824 0.74907 0.06837 0.0
H241 H 0.48257 0.72902 0.06985 0.0
C242 C 0.46895 0.75523 0.06325 0.0
H243 H 0.54114 0.80947 0.07272 0.0
C244 C 0.47548 0.7808 0.0614 0.0
H245 H 0.46013 0.78489 0.05688 0.0
H246 H 0.44885 0.7401 0.06058 0.0
H247 H 0.23852 0.7687 0.09461 0.0
C248 C 0.254 0.78559 0.08695 0.0
C249 C 0.26298 0.8098 0.0959 0.0
C250 C 0.26529 0.78304 0.06847 0.0
H251 H 0.29135 0.84986 0.09433 0.0
C252 C 0.28383 0.83161 0.08651 0.0
C253 C 0.29561 0.82972 0.06792 0.0
C254 C 0.28558 0.80523 0.05885 0.0
C255 C 0.25753 0.7571 0.06014 0.0
H256 H 0.29355 0.80317 0.04426 0.0
C257 C 0.23084 0.73731 0.05934 0.0
C258 C 0.22425 0.71248 0.05263 0.0
C259 C 0.2773 0.75172 0.05381 0.0
H260 H 0.29795 0.76632 0.05453 0.0
C261 C 0.27077 0.72724 0.04704 0.0
H262 H 0.21532 0.74109 0.06409 0.0
C263 C 0.24448 0.70772 0.04654 0.0
H264 H 0.2399 0.68886 0.04119 0.0
H265 H 0.28619 0.72334 0.04231 0.0
H266 H 0.25879 0.46621 0.09399 0.0
C267 C 0.24221 0.46694 0.08722 0.0
C268 C 0.21684 0.45184 0.09579 0.0
C269 C 0.24635 0.48356 0.07041 0.0
H270 H 0.17606 0.44158 0.09394 0.0
C271 C 0.19551 0.45336 0.08729 0.0
C272 C 0.19905 0.47037 0.07095 0.0
C273 C 0.22457 0.48504 0.0624 0.0
C274 C 0.27367 0.50126 0.06244 0.0
H275 H 0.22772 0.49826 0.04985 0.0
C276 C 0.29239 0.49314 0.05892 0.0
C277 C 0.31782 0.51049 0.0509 0.0
C278 C 0.28119 0.52702 0.05849 0.0
H279 H 0.26776 0.53414 0.06153 0.0
C280 C 0.30625 0.54416 0.05094 0.0
H281 H 0.28699 0.47337 0.06183 0.0
C282 C 0.32435 0.53604 0.04713 0.0
H283 H 0.34377 0.54998 0.04145 0.0
H284 H 0.31173 0.56395 0.04809 0.0
H285 H 0.46816 0.88075 0.2731 0.0
C286 C 0.45157 0.88094 0.28047 0.0
C287 C 0.44204 0.89644 0.27215 0.0
C288 C 0.43919 0.86501 0.29774 0.0
H289 H 0.41244 0.90774 0.27488 0.0
C290 C 0.42019 0.89628 0.28153 0.0
C291 C 0.40714 0.88015 0.29851 0.0
C292 C 0.41684 0.8647 0.30654 0.0
C293 C 0.4479 0.84696 0.30552 0.0
H294 H 0.40687 0.85234 0.3197 0.0
C295 C 0.4749 0.85456 0.30851 0.0
C296 C 0.48217 0.83693 0.31639 0.0
C297 C 0.42861 0.82146 0.3099 0.0
H298 H 0.40787 0.81482 0.30735 0.0
C299 C 0.43572 0.804 0.31726 0.0
H300 H 0.49002 0.87417 0.30532 0.0
C301 C 0.46215 0.8116 0.32052 0.0
H302 H 0.46694 0.79741 0.32607 0.0
H303 H 0.42061 0.78439 0.32043 0.0
H304 H 0.1477 0.58549 0.26638 0.0
C305 C 0.14651 0.56903 0.27426 0.0
C306 C 0.1296 0.54408 0.2667 0.0
C307 C 0.16306 0.57305 0.29135 0.0
H308 H 0.11635 0.50381 0.27126 0.0
C309 C 0.12928 0.52312 0.2768 0.0
C310 C 0.14602 0.52686 0.29368 0.0
C311 C 0.16261 0.55187 0.30095 0.0
C312 C 0.18182 0.59937 0.29874 0.0
H313 H 0.17521 0.55488 0.31425 0.0
C314 C 0.17355 0.61741 0.30236 0.0
C315 C 0.1912 0.64157 0.31085 0.0
C316 C 0.20815 0.60623 0.30292 0.0
H317 H 0.21513 0.59289 0.29998 0.0
C318 C 0.22575 0.63035 0.31095 0.0
H319 H 0.15326 0.61233 0.29942 0.0
C320 C 0.21731 0.64785 0.31507 0.0
H321 H 0.23121 0.6664 0.32154 0.0
H322 H 0.24595 0.63542 0.31416 0.0
H323 H 0.43448 0.54929 0.27168 0.0
C324 C 0.45059 0.56573 0.27927 0.0
C325 C 0.47648 0.57605 0.27153 0.0
C326 C 0.44536 0.57718 0.29633 0.0
H327 H 0.51688 0.60642 0.27468 0.0
C328 C 0.49714 0.59783 0.28114 0.0
C329 C 0.49234 0.60965 0.29808 0.0
C330 C 0.46641 0.59902 0.30566 0.0
C331 C 0.41782 0.56803 0.30344 0.0
H332 H 0.46252 0.6079 0.31882 0.0
C333 C 0.39986 0.54184 0.30756 0.0
C334 C 0.37429 0.53414 0.31528 0.0
C335 C 0.40957 0.58611 0.30645 0.0
H336 H 0.42272 0.60624 0.30309 0.0
C337 C 0.38425 0.57851 0.31363 0.0
H338 H 0.40602 0.52773 0.30545 0.0
C339 C 0.36678 0.55281 0.31808 0.0
H340 H 0.34716 0.54749 0.32354 0.0
H341 H 0.37813 0.59263 0.31578 0.0
Gd342 Gd 0.51777 0.01995 0.04375 0.0
Gd343 Gd 0.49956 0.99619 0.9895 0.0
C344 C 0.41959 0.92549 0.97626 0.0
C345 C 0.43202 0.89371 0.9672 0.0
C346 C 0.4657 0.9374 0.9755 0.0
C347 C 0.44644 0.94383 0.97915 0.0
C348 C 0.45879 0.91244 0.96904 0.0
C349 C 0.41244 0.90023 0.97081 0.0
C350 C 0.40083 0.93332 0.97821 0.0
C351 C 0.40915 0.95908 0.98214 0.0
N352 N 0.45409 0.96848 0.98416 0.0
C353 C 0.43603 0.97655 0.98489 0.0
H354 H 0.44211 0.99632 0.98811 0.0
C355 C 0.51115 0.95152 0.97139 0.0
N356 N 0.49134 0.95603 0.97725 0.0
C357 C 0.5053 0.92701 0.96503 0.0
C358 C 0.47901 0.90728 0.96409 0.0
H359 H 0.53149 0.9667 0.9723 0.0
H360 H 0.39189 0.88579 0.96876 0.0
H361 H 0.57561 0.02068 0.04225 0.0
H362 H 0.37999 0.91983 0.97614 0.0
H363 H 0.39486 0.96546 0.98324 0.0
H364 H 0.42628 0.87434 0.96246 0.0
H365 H 0.48575 0.04812 0.06346 0.0
H366 H 0.63744 0.09664 0.05636 0.0
H367 H 0.6229 0.05169 0.04677 0.0
H368 H 0.59065 0.1404 0.07469 0.0
H369 H 0.52105 0.92332 0.96089 0.0
H370 H 0.47453 0.88833 0.95909 0.0
H371 H 0.62523 0.12977 0.06647 0.0
H372 H 0.49596 0.0906 0.07696 0.0
N373 N 0.5633 0.04783 0.04874 0.0
C374 C 0.6166 0.08307 0.05444 0.0
C375 C 0.60846 0.05771 0.04907 0.0
C376 C 0.59767 0.09044 0.05783 0.0
C377 C 0.57082 0.07207 0.05497 0.0
C378 C 0.58156 0.04016 0.04654 0.0
N379 N 0.52589 0.05947 0.05748 0.0
C380 C 0.55147 0.07812 0.05943 0.0
C381 C 0.51176 0.08739 0.07198 0.0
C382 C 0.53798 0.10722 0.07306 0.0
C383 C 0.50605 0.06337 0.06439 0.0
C384 C 0.55827 0.10261 0.06707 0.0
H385 H 0.54237 0.12579 0.07901 0.0
O386 O 0.49464 0.00584 0.07213 0.0
O387 O 0.48734 0.99168 0.02255 0.0
O388 O 0.48771 0.02599 0.99756 0.0
O389 O 0.51375 0.04988 0.0257 0.0
O390 O 0.47377 0.0052 0.046 0.0
O391 O 0.5303 0.0038 0.06856 0.0
O392 O 0.52079 0.00665 0.96008 0.0
O393 O 0.52979 0.02482 0.01055 0.0
O394 O 0.5294 0.98993 0.03535 0.0
O395 O 0.5008 0.9657 0.00872 0.0
O396 O 0.54379 0.01183 0.98711 0.0
O397 O 0.4885 0.01395 0.96506 0.0
C398 C 0.46666 0.98963 0.03048 0.0
C399 C 0.585 0.12137 0.06907 0.0
C400 C 0.60469 0.1153 0.06442 0.0
C401 C 0.51115 1.00027 0.08103 0.0
C402 C 0.51848 0.00934 0.10261 0.0
C403 C 0.53623 0.03532 0.10659 0.0
C404 C 0.50693 0.99224 0.11944 0.0
C405 C 0.51261 1.00132 0.14007 0.0
C406 C 0.54199 0.04432 0.12698 0.0
C407 C 0.53013 0.02751 0.14362 0.0
C408 C 0.49845 0.04679 0.0095 0.0
C409 C 0.5507 0.02774 1.00238 0.0
C410 C 0.50568 0.01446 0.9518 0.0
C411 C 0.49575 0.00492 0.93071 0.0
C412 C 0.47599 0.97933 0.92781 0.0
C413 C 0.50574 0.02142 0.91337 0.0
C414 C 0.49567 0.0124 0.89328 0.0
C415 C 0.46619 0.97024 0.908 0.0
C416 C 0.47586 0.98659 0.89086 0.0
C417 C 0.51657 0.96843 0.02442 0.0
H418 H 0.54551 0.04869 0.09397 0.0
H419 H 0.49315 0.97214 0.1165 0.0
H420 H 0.5556 0.06444 0.12988 0.0
H421 H 0.53482 0.03491 0.15933 0.0
H422 H 0.46807 0.96639 0.94085 0.0
H423 H 0.52088 0.04128 0.91557 0.0
H424 H 0.45097 0.95042 0.90592 0.0
H425 H 0.46797 0.97897 0.87563 0.0
Gd426 Gd 1.00256 0.49847 0.04404 0.0
Gd427 Gd 0.02902 0.50378 0.99092 0.0
C428 C 0.10185 0.49542 0.98087 0.0
C429 C 0.13411 0.53785 0.9684 0.0
C430 C 0.0894 0.52795 0.97666 0.0
C431 C 0.08297 0.50342 0.98244 0.0
C432 C 0.11477 0.54518 0.96888 0.0
C433 C 0.12767 0.513 0.97444 0.0
C434 C 0.09399 0.4698 0.98518 0.0
C435 C 0.06764 0.45266 0.99 0.0
N436 N 0.05773 0.48687 0.98828 0.0
C437 C 0.04959 0.46147 0.99118 0.0
H438 H 0.02938 0.44792 0.99504 0.0
C439 C 0.07409 0.55639 0.96795 0.0
N440 N 0.07013 0.5342 0.97701 0.0
C441 C 0.09896 0.57424 0.96017 0.0
C442 C 0.11955 0.56882 0.96099 0.0
H443 H 0.0582 0.56066 0.96742 0.0
H444 H 0.14254 0.50731 0.97341 0.0
H445 H 1.00017 0.55304 0.04051 0.0
H446 H 0.10792 0.46292 0.98426 0.0
H447 H 0.0612 0.43267 0.99291 0.0
H448 H 0.15382 0.55093 0.96273 0.0
H449 H 0.9744 0.43982 0.06496 0.0
H450 H 0.92088 0.53548 0.05234 0.0
H451 H 0.96718 0.56696 0.04348 0.0
H452 H 0.87736 0.44684 0.07218 0.0
H453 H 0.10223 0.59215 0.95358 0.0
H454 H 0.13876 0.58259 0.95485 0.0
H455 H 0.88735 0.49044 0.06272 0.0
H456 H 0.93064 0.40696 0.07819 0.0
N457 N 0.97278 0.51386 0.04717 0.0
C458 C 0.9353 0.52924 0.0511 0.0
C459 C 0.96143 0.54707 0.04615 0.0
C460 C 0.92827 0.50373 0.05501 0.0
C461 C 0.94777 0.49658 0.05305 0.0
C462 C 0.9801 0.53909 0.0445 0.0
N463 N 0.96182 0.46642 0.05729 0.0
C464 C 0.94209 0.47205 0.05824 0.0
C465 C 0.93355 0.42513 0.07252 0.0
C466 C 0.91262 0.4301 0.07255 0.0
C467 C 0.95828 0.44376 0.06507 0.0
C468 C 0.91685 0.45396 0.0657 0.0
H469 H 0.89351 0.41568 0.0784 0.0
O470 O 0.01557 0.49087 0.07344 0.0
O471 O 0.03445 0.49913 0.02459 0.0
O472 O 0.9984 0.46241 0.99925 0.0
O473 O 0.97254 0.46398 0.02625 0.0
O474 O 0.01886 0.47167 0.04767 0.0
O475 O 0.0163 0.52689 0.06869 0.0
O476 O 0.01724 0.51194 0.96115 0.0
O477 O 0.998 0.50382 0.01059 0.0
O478 O 0.03335 0.53992 0.03644 0.0
O479 O 0.05798 0.53996 0.00761 0.0
O480 O 1.01163 0.52992 0.98676 0.0
O481 O 0.01263 0.47448 0.967 0.0
C482 C 0.03667 0.4815 0.03338 0.0
C483 C 0.89698 0.46056 0.06672 0.0
C484 C 0.90267 0.4854 0.06135 0.0
C485 C 0.0197 0.51228 0.08183 0.0
C486 C 1.00888 0.51015 0.10284 0.0
C487 C 0.98205 0.5019 0.10587 0.0
C488 C 0.02541 0.51552 0.12015 0.0
C489 C 0.01506 0.51201 0.14039 0.0
C490 C 0.9717 0.49843 0.12594 0.0
C491 C 0.98804 0.50325 0.14315 0.0
C492 C 0.9765 0.45194 0.01065 0.0
C493 C 0.99469 0.52068 1.00169 0.0
C494 C 1.01099 0.48966 0.95335 0.0
C495 C 0.02149 0.48995 0.93252 0.0
C496 C 0.04752 0.49518 0.92991 0.0
C497 C 1.00524 0.48477 0.91504 0.0
C498 C 0.01482 0.48445 0.89501 0.0
C499 C 0.05727 0.4953 0.91009 0.0
C500 C 0.04105 0.48991 0.89273 0.0
C501 C 0.05423 0.55117 0.02396 0.0
H502 H 0.96909 0.49802 0.0928 0.0
H503 H 0.04616 0.52185 0.11789 0.0
H504 H 0.95094 0.4919 0.12816 0.0
H505 H 0.97968 0.50041 0.15862 0.0
H506 H 0.06024 0.49898 0.94314 0.0
H507 H 0.98498 0.48034 0.91709 0.0
H508 H 0.07741 0.4994 0.90819 0.0
H509 H 0.04901 0.49001 0.87749 0.0
Gd510 Gd 0.51243 0.51764 0.9891 0.0
Gd511 Gd 0.53476 0.51624 0.04263 0.0
C512 C 0.61528 0.52387 0.05487 0.0
C513 C 0.60313 0.48144 0.06789 0.0
C514 C 0.56917 0.49165 0.05848 0.0
C515 C 0.58831 0.5161 0.05271 0.0
C516 C 0.57632 0.47418 0.06654 0.0
C517 C 0.62258 0.50623 0.06204 0.0
C518 C 0.63408 0.5493 0.05024 0.0
C519 C 0.62575 0.56646 0.04436 0.0
N520 N 0.58054 0.5327 0.04602 0.0
C521 C 0.59876 0.55789 0.04261 0.0
H522 H 0.59269 0.57139 0.03797 0.0
C523 C 0.52395 0.46246 0.06472 0.0
N524 N 0.54348 0.48533 0.05705 0.0
C525 C 0.53004 0.44443 0.07275 0.0
C526 C 0.55633 0.45019 0.07344 0.0
H527 H 0.5036 0.45789 0.06406 0.0
H528 H 0.6432 0.51177 0.06359 0.0
H529 H 0.45519 0.46207 0.99403 0.0
H530 H 0.65499 0.556 0.05159 0.0
H531 H 0.64011 0.58629 0.0411 0.0
H532 H 0.60904 0.46821 0.07386 0.0
H533 H 0.54237 0.57554 0.96675 0.0
H534 H 0.3918 0.47617 0.98119 0.0
H535 H 0.40753 0.44638 0.99121 0.0
H536 H 0.43621 0.56405 0.95918 0.0
H537 H 0.51448 0.4261 0.07836 0.0
H538 H 0.561 0.43622 0.07972 0.0
H539 H 0.4027 0.5203 0.96957 0.0
H540 H 0.53062 0.60683 0.95273 0.0
N541 N 0.46654 0.50058 0.98611 0.0
C542 C 0.41279 0.48318 0.98235 0.0
C543 C 0.4216 0.4663 0.98797 0.0
C544 C 0.43121 0.50874 0.97777 0.0
C545 C 0.4583 0.51692 0.97967 0.0
C546 C 0.44869 0.47529 0.98954 0.0
N547 N 0.50288 0.54813 0.9749 0.0
C548 C 0.47709 0.54153 0.97395 0.0
C549 C 0.51538 0.58859 0.95875 0.0
C550 C 0.48903 0.58264 0.95871 0.0
C551 C 0.52197 0.57084 0.96664 0.0
C552 C 0.46943 0.55868 0.96602 0.0
H553 H 0.48396 0.59636 0.9525 0.0
O554 O 0.53315 0.52448 0.95966 0.0
O555 O 0.54468 0.51999 0.00894 0.0
O556 O 0.54644 0.55675 0.03229 0.0
O557 O 0.51722 0.5526 1.00588 0.0
O558 O 0.55604 0.54529 0.98444 0.0
O559 O 0.49784 0.48802 0.9653 0.0
O560 O 0.51529 0.50932 0.07269 0.0
O561 O 0.50278 0.51395 0.0227 0.0
O562 O 0.502 0.47702 0.99901 0.0
O563 O 0.53151 0.48238 0.02553 0.0
O564 O 0.49071 0.4893 0.04745 0.0
O565 O 0.5485 0.54679 0.06548 0.0
C566 C 0.5646 0.53732 0.99952 0.0
C567 C 0.4425 0.55106 0.96501 0.0
C568 C 0.42342 0.52613 0.9709 0.0
C569 C 0.51583 0.50249 0.95178 0.0
C570 C 0.50665 0.5035 0.93066 0.0
C571 C 0.48743 0.51058 0.92764 0.0
C572 C 0.51794 0.49837 0.91329 0.0
C573 C 0.51046 0.50079 0.89288 0.0
C574 C 0.48003 0.51321 0.90763 0.0
C575 C 0.49156 0.50861 0.89039 0.0
C576 C 0.5342 0.56592 0.02076 0.0
C577 C 0.48254 0.49723 0.03211 0.0
C578 C 0.53184 0.53212 0.07972 0.0
C579 C 0.5428 0.5331 0.10054 0.0
C580 C 0.56507 0.5303 0.10285 0.0
C581 C 0.53095 0.53677 0.11828 0.0
C582 C 0.54153 0.53793 0.13822 0.0
C583 C 0.57538 0.53104 0.12251 0.0
C584 C 0.56376 0.53483 0.14008 0.0
C585 C 0.51495 0.46862 0.0106 0.0
H586 H 0.47827 0.51427 0.94071 0.0
H587 H 0.53239 0.49239 0.91578 0.0
H588 H 0.46544 0.51907 0.90547 0.0
H589 H 0.48582 0.51156 0.87511 0.0
H590 H 0.57458 0.52765 0.0895 0.0
H591 H 0.5139 0.53921 0.11652 0.0
H592 H 0.59251 0.52874 0.12414 0.0
H593 H 0.57211 0.53518 0.15518 0.0
Gd594 Gd 0.18341 0.35016 0.37783 0.0
Gd595 Gd 0.16399 0.32708 0.32352 0.0
C596 C 0.08325 0.25673 0.31069 0.0
C597 C 0.09537 0.22638 0.29697 0.0
C598 C 0.12932 0.26931 0.30698 0.0
C599 C 0.11023 0.27505 0.313 0.0
C600 C 0.12216 0.24523 0.29822 0.0
C601 C 0.07593 0.23211 0.30324 0.0
C602 C 0.06449 0.26398 0.31523 0.0
C603 C 0.07288 0.28926 0.321 0.0
N604 N 0.11809 0.29918 0.31974 0.0
C605 C 0.09988 0.3068 0.32285 0.0
H606 H 0.10589 0.32618 0.3274 0.0
C607 C 0.17423 0.28496 0.29899 0.0
N608 N 0.15492 0.2881 0.30809 0.0
C609 C 0.16818 0.26138 0.29018 0.0
C610 C 0.14207 0.24124 0.29015 0.0
H611 H 0.19448 0.30045 0.29916 0.0
H612 H 0.05531 0.21768 0.30161 0.0
H613 H 0.24101 0.35053 0.37509 0.0
H614 H 0.04357 0.25046 0.31375 0.0
H615 H 0.05856 0.29525 0.32409 0.0
H616 H 0.08947 0.20763 0.29054 0.0
H617 H 0.15216 0.37871 0.39838 0.0
H618 H 0.30346 0.42651 0.3883 0.0
H619 H 0.28848 0.38142 0.37891 0.0
H620 H 0.25761 0.47091 0.40743 0.0
H621 H 0.18365 0.25874 0.28349 0.0
H622 H 0.1374 0.22303 0.28325 0.0
H623 H 0.29176 0.45993 0.39858 0.0
H624 H 0.16304 0.42145 0.4118 0.0
N625 N 0.22908 0.37788 0.38188 0.0
C626 C 0.28255 0.413 0.38671 0.0
C627 C 0.27417 0.38755 0.38145 0.0
C628 C 0.26382 0.42054 0.3904 0.0
C629 C 0.23686 0.40224 0.38798 0.0
C630 C 0.24719 0.37007 0.37932 0.0
N631 N 0.19202 0.38993 0.39131 0.0
C632 C 0.21772 0.40851 0.39275 0.0
C633 C 0.17859 0.41811 0.40637 0.0
C634 C 0.20487 0.4379 0.40684 0.0
C635 C 0.1725 0.39396 0.39883 0.0
C636 C 0.22487 0.43311 0.40034 0.0
H637 H 0.20955 0.45655 0.41277 0.0
O638 O 0.16124 0.33701 0.40672 0.0
O639 O 0.15292 0.32073 0.35709 0.0
O640 O 0.15148 0.35594 0.33307 0.0
O641 O 0.17895 0.38016 0.36031 0.0
O642 O 0.13956 0.33468 0.38064 0.0
O643 O 0.19702 0.33524 0.40281 0.0
O644 O 0.18501 0.34031 0.29408 0.0
O645 O 0.19447 0.35552 0.3445 0.0
O646 O 0.19432 0.31971 0.36963 0.0
O647 O 0.17108 0.29779 0.33964 0.0
O648 O 0.20824 0.34359 0.32011 0.0
O649 O 0.15168 0.34542 0.30049 0.0
C650 C 0.13236 0.31825 0.36571 0.0
C651 C 0.2517 0.45179 0.40187 0.0
C652 C 0.27114 0.44552 0.39687 0.0
C653 C 0.17817 0.33194 0.41554 0.0
C654 C 0.18606 0.3417 0.43691 0.0
C655 C 0.20271 0.36798 0.44036 0.0
C656 C 0.17636 0.32485 0.45406 0.0
C657 C 0.18295 0.33431 0.47464 0.0
C658 C 0.20909 0.37754 0.46051 0.0
C659 C 0.19916 0.36098 0.47749 0.0
C660 C 0.16287 0.37694 0.3447 0.0
C661 C 0.21529 0.35897 0.33576 0.0
C662 C 0.16901 0.34751 0.2867 0.0
C663 C 0.15895 0.33865 0.2655 0.0
C664 C 0.13806 0.31362 0.26238 0.0
C665 C 0.16996 0.35521 0.24828 0.0
C666 C 0.15979 0.34679 0.2281 0.0
C667 C 0.12825 0.30506 0.24248 0.0
C668 C 0.13895 0.32146 0.22547 0.0
C669 C 0.18529 0.30014 0.35642 0.0
H670 H 0.21064 0.38116 0.42751 0.0
H671 H 0.16391 0.30448 0.45129 0.0
H672 H 0.22165 0.39795 0.46298 0.0
H673 H 0.20401 0.36928 0.4929 0.0
H674 H 0.12921 0.3007 0.27532 0.0
H675 H 0.18592 0.37468 0.25064 0.0
H676 H 0.11218 0.28565 0.24024 0.0
H677 H 0.13097 0.31425 0.21018 0.0
Gd678 Gd 0.6689 0.82946 0.37675 0.0
Gd679 Gd 0.6952 0.83345 0.32373 0.0
C680 C 0.76859 0.82612 0.31352 0.0
C681 C 0.79997 0.86821 0.29988 0.0
C682 C 0.75534 0.858 0.30878 0.0
C683 C 0.74948 0.83382 0.31516 0.0
C684 C 0.78036 0.87518 0.30039 0.0
C685 C 0.7941 0.84371 0.30647 0.0
C686 C 0.76118 0.80071 0.31826 0.0
C687 C 0.73502 0.78345 0.32357 0.0
N688 N 0.72447 0.8172 0.32146 0.0
C689 C 0.71673 0.79195 0.32476 0.0
H690 H 0.69664 0.77834 0.32894 0.0
C691 C 0.73912 0.88562 0.29964 0.0
N692 N 0.73579 0.86388 0.30913 0.0
C693 C 0.76361 0.90334 0.29117 0.0
C694 C 0.78449 0.89834 0.29191 0.0
H695 H 0.72304 0.88961 0.29921 0.0
H696 H 0.80914 0.83825 0.30537 0.0
H697 H 0.66726 0.88432 0.37239 0.0
H698 H 0.77529 0.79405 0.31729 0.0
H699 H 0.72892 0.7636 0.3268 0.0
H700 H 0.81943 0.88127 0.29373 0.0
H701 H 0.64001 0.77083 0.39776 0.0
H702 H 0.58849 0.86805 0.3848 0.0
H703 H 0.63479 0.8989 0.37537 0.0
H704 H 0.54403 0.77962 0.40526 0.0
H705 H 0.76637 0.92087 0.28416 0.0
H706 H 0.80341 0.91204 0.28526 0.0
H707 H 0.55463 0.82335 0.39564 0.0
H708 H 0.59611 0.73847 0.41113 0.0
N709 N 0.63957 0.8454 0.37961 0.0
C710 C 0.60269 0.86153 0.38356 0.0
C711 C 0.62881 0.87901 0.37828 0.0
C712 C 0.59536 0.83599 0.38771 0.0
C713 C 0.61455 0.82846 0.38571 0.0
C714 C 0.64718 0.87064 0.37661 0.0
N715 N 0.62797 0.79781 0.39003 0.0
C716 C 0.60852 0.80384 0.39101 0.0
C717 C 0.59929 0.75673 0.40541 0.0
C718 C 0.57865 0.76211 0.4055 0.0
C719 C 0.6241 0.77506 0.39788 0.0
C720 C 0.58323 0.78607 0.39859 0.0
H721 H 0.55948 0.74792 0.41143 0.0
O722 O 0.68173 0.82205 0.4063 0.0
O723 O 0.70059 0.82946 0.35753 0.0
O724 O 0.66493 0.7923 0.33293 0.0
O725 O 0.63872 0.79491 0.35908 0.0
O726 O 0.68512 0.80265 0.38109 0.0
O727 O 0.68263 0.8581 0.40124 0.0
O728 O 0.68301 0.84008 0.29352 0.0
O729 O 0.6644 0.83426 0.34316 0.0
O730 O 0.70006 0.87064 0.36863 0.0
O731 O 0.7247 0.86972 0.34016 0.0
O732 O 0.67779 0.85946 0.31871 0.0
O733 O 0.67862 0.803 0.30077 0.0
C734 C 0.70286 0.81209 0.36672 0.0
C735 C 0.56367 0.79309 0.39969 0.0
C736 C 0.56972 0.818 0.39424 0.0
C737 C 0.68593 0.84355 0.41453 0.0
C738 C 0.67507 0.84161 0.43551 0.0
C739 C 0.64831 0.83374 0.43845 0.0
C740 C 0.69145 0.84669 0.45288 0.0
C741 C 0.68102 0.8433 0.4731 0.0
C742 C 0.63788 0.83036 0.45849 0.0
C743 C 0.65407 0.8349 0.47575 0.0
C744 C 0.64277 0.78234 0.34397 0.0
C745 C 0.66106 0.85085 0.33381 0.0
C746 C 0.67696 0.81751 0.28647 0.0
C747 C 0.6877 0.81699 0.2659 0.0
C748 C 0.71327 0.82072 0.26393 0.0
C749 C 0.67227 0.81269 0.24802 0.0
C750 C 0.68227 0.81197 0.22824 0.0
C751 C 0.72343 0.82039 0.2444 0.0
C752 C 0.7081 0.81606 0.22665 0.0
C753 C 0.72121 0.88136 0.35636 0.0
H754 H 0.63547 0.83009 0.42534 0.0
H755 H 0.71215 0.85275 0.45069 0.0
H756 H 0.61718 0.82413 0.46063 0.0
H757 H 0.64564 0.83219 0.49119 0.0
H758 H 0.72533 0.82375 0.27744 0.0
H759 H 0.65236 0.80941 0.24959 0.0
H760 H 0.74324 0.82341 0.24302 0.0
H761 H 0.71652 0.81603 0.21165 0.0
Gd762 Gd 0.17998 0.84885 0.32214 0.0
Gd763 Gd 0.20146 0.84709 0.37589 0.0
C764 C 0.28178 0.8548 0.38925 0.0
C765 C 0.26945 0.8123 0.40222 0.0
C766 C 0.23562 0.82247 0.39224 0.0
C767 C 0.25485 0.84698 0.38669 0.0
C768 C 0.24266 0.80499 0.40047 0.0
C769 C 0.28898 0.83716 0.39661 0.0
C770 C 0.30063 0.88028 0.38484 0.0
C771 C 0.29237 0.89743 0.37875 0.0
N772 N 0.24717 0.86359 0.37985 0.0
C773 C 0.26541 0.88881 0.37661 0.0
H774 H 0.25941 0.9023 0.37182 0.0
C775 C 0.19031 0.79319 0.39794 0.0
N776 N 0.20996 0.81612 0.39049 0.0
C777 C 0.19628 0.77513 0.4061 0.0
C778 C 0.22256 0.78094 0.40715 0.0
H779 H 0.16996 0.78859 0.39703 0.0
H780 H 0.30957 0.84274 0.39847 0.0
H781 H 0.12255 0.79336 0.32656 0.0
H782 H 0.32152 0.88703 0.38652 0.0
H783 H 0.30676 0.9173 0.37565 0.0
H784 H 0.27527 0.79907 0.40832 0.0
H785 H 0.21045 0.90691 0.30005 0.0
H786 H 0.05955 0.8079 0.31327 0.0
H787 H 0.07496 0.7779 0.3234 0.0
H788 H 0.10458 0.89592 0.29158 0.0
H789 H 0.18063 0.75675 0.41155 0.0
H790 H 0.22714 0.76695 0.41354 0.0
H791 H 0.07079 0.85216 0.30173 0.0
H792 H 0.19906 0.93842 0.28593 0.0
N793 N 0.13416 0.83196 0.3187 0.0
C794 C 0.08051 0.81481 0.31458 0.0
C795 C 0.08914 0.79781 0.32025 0.0
C796 C 0.09907 0.84037 0.31011 0.0
C797 C 0.12611 0.84841 0.31219 0.0
C798 C 0.11619 0.80668 0.32201 0.0
N799 N 0.17079 0.87951 0.30778 0.0
C800 C 0.14505 0.87302 0.30661 0.0
C801 C 0.18369 0.92015 0.2918 0.0
C802 C 0.15736 0.91429 0.29152 0.0
C803 C 0.19007 0.90227 0.29973 0.0
C804 C 0.1376 0.89031 0.29864 0.0
H805 H 0.15246 0.92812 0.28529 0.0
O806 O 0.2011 0.85573 0.2929 0.0
O807 O 0.21192 0.85106 0.3423 0.0
O808 O 0.21329 0.88762 0.36547 0.0
O809 O 0.18431 0.88361 0.33893 0.0
O810 O 0.2237 0.87647 0.31786 0.0
O811 O 0.16567 0.81928 0.29832 0.0
O812 O 0.18157 0.84007 0.40578 0.0
O813 O 0.16978 0.84488 0.35565 0.0
O814 O 0.16926 0.80817 0.33205 0.0
O815 O 0.19842 0.81329 0.35879 0.0
O816 O 0.15737 0.82005 0.38029 0.0
O817 O 0.21466 0.87764 0.39872 0.0
C818 C 0.23201 0.86841 0.33305 0.0
C819 C 0.11071 0.88281 0.29743 0.0
C820 C 0.09148 0.85789 0.30319 0.0
C821 C 0.18388 0.83375 0.28495 0.0
C822 C 0.17503 0.83479 0.26372 0.0
C823 C 0.15587 0.84189 0.26043 0.0
C824 C 0.1866 0.82967 0.24653 0.0
C825 C 0.17942 0.8321 0.22602 0.0
C826 C 0.14875 0.8445 0.24031 0.0
C827 C 0.16054 0.83989 0.22325 0.0
C828 C 0.20106 0.89682 0.35397 0.0
C829 C 0.1494 0.82807 0.36487 0.0
C830 C 0.19784 0.86294 0.41285 0.0
C831 C 0.20853 0.8641 0.43382 0.0
C832 C 0.23039 0.86073 0.43651 0.0
C833 C 0.1969 0.8686 0.45132 0.0
C834 C 0.20732 0.87002 0.47137 0.0
C835 C 0.24055 0.86173 0.45628 0.0
C836 C 0.22916 0.86636 0.4736 0.0
C837 C 0.18202 0.79965 0.34373 0.0
H838 H 0.14654 0.8456 0.27337 0.0
H839 H 0.20103 0.82371 0.24923 0.0
H840 H 0.1342 0.85035 0.23793 0.0
H841 H 0.15503 0.84283 0.20787 0.0
H842 H 0.2397 0.85741 0.42336 0.0
H843 H 0.18015 0.87147 0.44927 0.0
H844 H 0.25736 0.85899 0.45819 0.0
H845 H 0.23738 0.8669 0.48879 0.0
Gd846 Gd 0.85034 0.68292 0.71005 0.0
Gd847 Gd 0.82885 0.66007 0.65611 0.0
C848 C 0.74861 0.58982 0.64261 0.0
C849 C 0.76098 0.55905 0.63033 0.0
C850 C 0.79477 0.60214 0.64009 0.0
C851 C 0.77552 0.60814 0.64523 0.0
C852 C 0.78777 0.57771 0.63219 0.0
C853 C 0.74143 0.56509 0.63554 0.0
C854 C 0.72975 0.59708 0.64673 0.0
C855 C 0.73798 0.62229 0.65264 0.0
N856 N 0.78318 0.63227 0.65187 0.0
C857 C 0.76493 0.63983 0.65488 0.0
H858 H 0.77091 0.65918 0.65954 0.0
C859 C 0.84014 0.61663 0.63494 0.0
N860 N 0.82043 0.62066 0.64198 0.0
C861 C 0.8342 0.59264 0.62713 0.0
C862 C 0.80791 0.57299 0.62596 0.0
H863 H 0.86049 0.63176 0.63595 0.0
H864 H 0.72085 0.55068 0.63362 0.0
H865 H 0.90712 0.68172 0.70508 0.0
H866 H 0.70887 0.58355 0.64499 0.0
H867 H 0.72358 0.62823 0.65555 0.0
H868 H 0.75519 0.54008 0.62446 0.0
H869 H 0.82153 0.71261 0.73254 0.0
H870 H 0.97147 0.75674 0.71788 0.0
H871 H 0.95485 0.71158 0.70774 0.0
H872 H 0.92861 0.80269 0.74068 0.0
H873 H 0.84989 0.58933 0.62202 0.0
H874 H 0.80335 0.55445 0.61984 0.0
H875 H 0.96148 0.79076 0.72991 0.0
H876 H 0.8341 0.75538 0.74687 0.0
N877 N 0.89642 0.70968 0.71317 0.0
C878 C 0.9504 0.74368 0.71677 0.0
C879 C 0.94109 0.71819 0.7111 0.0
C880 C 0.93238 0.75178 0.72159 0.0
C881 C 0.90517 0.73403 0.71979 0.0
C882 C 0.9139 0.70128 0.70962 0.0
N883 N 0.8609 0.72271 0.72476 0.0
C884 C 0.88679 0.74075 0.72579 0.0
C885 C 0.84912 0.75156 0.74091 0.0
C886 C 0.87564 0.77079 0.74113 0.0
C887 C 0.84208 0.72738 0.73288 0.0
C888 C 0.89491 0.7654 0.73381 0.0
H889 H 0.88107 0.78949 0.74741 0.0
O890 O 0.83138 0.67226 0.74046 0.0
O891 O 0.81839 0.65475 0.6897 0.0
O892 O 0.81692 0.68916 0.66606 0.0
O893 O 0.84484 0.71293 0.69334 0.0
O894 O 0.80671 0.66838 0.71441 0.0
O895 O 0.86133 0.66271 0.7322 0.0
O896 O 0.84916 0.67221 0.62635 0.0
O897 O 0.86019 0.68863 0.67653 0.0
O898 O 0.86091 0.65265 0.69999 0.0
O899 O 0.83132 0.62911 0.67363 0.0
O900 O 0.873 0.67592 0.65213 0.0
O901 O 0.81609 0.67784 0.63292 0.0
C902 C 0.79837 0.65268 0.69896 0.0
C903 C 0.92195 0.78356 0.73477 0.0
C904 C 0.94067 0.77677 0.72864 0.0
C905 C 0.84586 0.66274 0.74682 0.0
C906 C 0.85762 0.67053 0.76768 0.0
C907 C 0.88193 0.6931 0.77033 0.0
C908 C 0.8449 0.65488 0.78505 0.0
C909 C 0.85675 0.66145 0.80487 0.0
C910 C 0.89362 0.69981 0.78993 0.0
C911 C 0.88125 0.68405 0.80706 0.0
C912 C 0.82843 0.70991 0.67798 0.0
C913 C 0.88068 0.69174 0.6675 0.0
C914 C 0.83319 0.67952 0.61902 0.0
C915 C 0.82291 0.67059 0.59789 0.0
C916 C 0.80204 0.64554 0.59482 0.0
C917 C 0.83383 0.68712 0.58064 0.0
C918 C 0.82357 0.67867 0.56048 0.0
C919 C 0.79208 0.63698 0.57495 0.0
C920 C 0.80268 0.65336 0.55791 0.0
C921 C 0.84769 0.63146 0.68874 0.0
H922 H 0.89202 0.70539 0.75723 0.0
H923 H 0.82615 0.63736 0.78307 0.0
H924 H 0.91242 0.71723 0.79182 0.0
H925 H 0.89071 0.68968 0.82212 0.0
H926 H 0.79335 0.63261 0.60777 0.0
H927 H 0.84983 0.70657 0.58296 0.0
H928 H 0.776 0.61756 0.57275 0.0
H929 H 0.79462 0.64614 0.54264 0.0
Gd930 Gd 0.33635 0.16296 0.71046 0.0
Gd931 Gd 0.36181 0.1659 0.65735 0.0
C932 C 0.43504 0.15915 0.64519 0.0
C933 C 0.46657 0.20203 0.63305 0.0
C934 C 0.42188 0.19133 0.64225 0.0
C935 C 0.41591 0.16673 0.64751 0.0
C936 C 0.44708 0.20911 0.63453 0.0
C937 C 0.46056 0.1771 0.63838 0.0
C938 C 0.42777 0.13362 0.64932 0.0
C939 C 0.40175 0.1162 0.65492 0.0
N940 N 0.39099 0.14982 0.65386 0.0
C941 C 0.38343 0.12459 0.65686 0.0
H942 H 0.36346 0.1109 0.66127 0.0
C943 C 0.40646 0.22043 0.63634 0.0
N944 N 0.40254 0.19746 0.64371 0.0
C945 C 0.43119 0.23878 0.62869 0.0
C946 C 0.4517 0.23322 0.62802 0.0
H947 H 0.39067 0.22482 0.63696 0.0
H948 H 0.4756 0.17171 0.63672 0.0
H949 H 0.3345 0.21766 0.70572 0.0
H950 H 0.44191 0.12706 0.64783 0.0
H951 H 0.39581 0.09632 0.65782 0.0
H952 H 0.48614 0.2155 0.62734 0.0
H953 H 0.30794 0.1049 0.73249 0.0
H954 H 0.25578 0.20142 0.71827 0.0
H955 H 0.30199 0.23219 0.70855 0.0
H956 H 0.21175 0.11338 0.73983 0.0
H957 H 0.43443 0.25719 0.62335 0.0
H958 H 0.47082 0.24744 0.62201 0.0
H959 H 0.22209 0.15687 0.72963 0.0
H960 H 0.26426 0.07273 0.74633 0.0
N961 N 0.30693 0.17883 0.71328 0.0
C962 C 0.26999 0.19492 0.71709 0.0
C963 C 0.29607 0.21235 0.71164 0.0
C964 C 0.26276 0.16946 0.7215 0.0
C965 C 0.28198 0.16195 0.71957 0.0
C966 C 0.31447 0.20401 0.71006 0.0
N967 N 0.29565 0.1316 0.72436 0.0
C968 C 0.27612 0.13751 0.72523 0.0
C969 C 0.26728 0.09082 0.74034 0.0
C970 C 0.24655 0.09608 0.74034 0.0
C971 C 0.29198 0.10907 0.73255 0.0
C972 C 0.25094 0.11984 0.73307 0.0
H973 H 0.22748 0.08197 0.74648 0.0
O974 O 0.34969 0.15652 0.74016 0.0
O975 O 0.36699 0.16156 0.691 0.0
O976 O 0.33163 0.12487 0.66672 0.0
O977 O 0.30603 0.12778 0.69332 0.0
O978 O 0.35253 0.13608 0.71537 0.0
O979 O 0.35128 0.1927 0.7341 0.0
O980 O 0.34974 0.1735 0.62752 0.0
O981 O 0.3312 0.16701 0.67686 0.0
O982 O 0.36729 0.20408 0.7011 0.0
O983 O 0.39259 0.19972 0.6751 0.0
O984 O 0.34497 0.19246 0.6526 0.0
O985 O 0.34572 0.13625 0.6337 0.0
C986 C 0.36941 0.14441 0.70036 0.0
C987 C 0.23132 0.12677 0.73407 0.0
C988 C 0.23721 0.15155 0.72828 0.0
C989 C 0.35439 0.17845 0.74782 0.0
C990 C 0.34373 0.17744 0.76873 0.0
C991 C 0.3171 0.17013 0.77159 0.0
C992 C 0.3601 0.18277 0.78615 0.0
C993 C 0.34974 0.18017 0.80632 0.0
C994 C 0.30676 0.16755 0.79158 0.0
C995 C 0.32291 0.17233 0.8089 0.0
C996 C 0.30979 0.11502 0.67816 0.0
C997 C 0.32808 0.18376 0.66759 0.0
C998 C 0.34381 0.15118 0.61992 0.0
C999 C 0.35427 0.15144 0.59907 0.0
C1000 C 0.38012 0.15614 0.59642 0.0
C1001 C 0.33823 0.147 0.58157 0.0
C1002 C 0.34782 0.14692 0.56151 0.0
C1003 C 0.38989 0.15647 0.57657 0.0
C1004 C 0.37387 0.15183 0.55919 0.0
C1005 C 0.38934 0.21309 0.68995 0.0
H1006 H 0.30428 0.1663 0.75844 0.0
H1007 H 0.38069 0.18838 0.78404 0.0
H1008 H 0.28614 0.16175 0.79364 0.0
H1009 H 0.31457 0.17022 0.82431 0.0
H1010 H 0.3927 0.15942 0.60964 0.0
H1011 H 0.31812 0.14302 0.58363 0.0
H1012 H 0.40988 0.16016 0.57466 0.0
H1013 H 0.38184 0.15209 0.54393 0.0
Gd1014 Gd 0.84781 0.1835 0.65391 0.0
Gd1015 Gd 0.86848 0.18034 0.70763 0.0
C1016 C 0.94825 0.18718 0.72188 0.0
C1017 C 0.93533 0.14433 0.73433 0.0
C1018 C 0.90196 0.15501 0.72411 0.0
C1019 C 0.92142 0.1796 0.719 0.0
C1020 C 0.90863 0.13723 0.73221 0.0
C1021 C 0.95511 0.16926 0.72916 0.0
C1022 C 0.96733 0.21268 0.71781 0.0
C1023 C 0.9594 0.23007 0.71171 0.0
N1024 N 0.91407 0.19646 0.71217 0.0
C1025 C 0.93254 0.22167 0.70923 0.0
H1026 H 0.92682 0.23537 0.70443 0.0
C1027 C 0.85646 0.12577 0.72893 0.0
N1028 N 0.87639 0.14886 0.72198 0.0
C1029 C 0.86207 0.10741 0.73695 0.0
C1030 C 0.88827 0.11305 0.73839 0.0
H1031 H 0.83617 0.12129 0.72772 0.0
H1032 H 0.97562 0.17466 0.73127 0.0
H1033 H 0.79021 0.12813 0.65765 0.0
H1034 H 0.98815 0.21924 0.71974 0.0
H1035 H 0.97398 0.24993 0.70885 0.0
H1036 H 0.94088 0.13086 0.74035 0.0
H1037 H 0.87854 0.24174 0.63215 0.0
H1038 H 0.72754 0.14367 0.64596 0.0
H1039 H 0.74265 0.1131 0.65493 0.0
H1040 H 0.77309 0.23211 0.62543 0.0
H1041 H 0.84621 0.08893 0.742 0.0
H1042 H 0.89258 0.09883 0.74467 0.0
H1043 H 0.7391 0.18831 0.63529 0.0
H1044 H 0.86743 0.27376 0.61875 0.0
N1045 N 0.80205 0.16701 0.65072 0.0
C1046 C 0.74847 0.15039 0.64709 0.0
C1047 C 0.75693 0.13306 0.6521 0.0
C1048 C 0.76717 0.17601 0.64297 0.0
C1049 C 0.79417 0.18378 0.64479 0.0
C1050 C 0.78396 0.14168 0.65361 0.0
N1051 N 0.83891 0.21463 0.6402 0.0
C1052 C 0.81322 0.20842 0.63938 0.0
C1053 C 0.85201 0.25551 0.62461 0.0
C1054 C 0.82578 0.24996 0.62474 0.0
C1055 C 0.85823 0.23736 0.63214 0.0
C1056 C 0.80593 0.226 0.63183 0.0
H1057 H 0.82099 0.26401 0.61882 0.0
O1058 O 0.86896 0.19086 0.62463 0.0
O1059 O 0.87934 0.18498 0.67412 0.0
O1060 O 0.88108 0.22121 0.6978 0.0
O1061 O 0.85275 0.21828 0.67108 0.0
O1062 O 0.89168 0.21076 0.64991 0.0
O1063 O 0.83317 0.15457 0.62956 0.0
O1064 O 0.84783 0.1727 0.7372 0.0
O1065 O 0.8372 0.17892 0.68733 0.0
O1066 O 0.83705 0.14252 0.66308 0.0
O1067 O 0.86567 0.14697 0.69007 0.0
O1068 O 0.82433 0.15318 0.71132 0.0
O1069 O 0.88127 0.21035 0.73089 0.0
C1070 C 0.89963 0.20233 0.66508 0.0
C1071 C 0.7791 0.21879 0.63095 0.0
C1072 C 0.75974 0.19384 0.63655 0.0
C1073 C 0.8515 0.16922 0.61634 0.0
C1074 C 0.84281 0.17101 0.59522 0.0
C1075 C 0.82417 0.17886 0.59225 0.0
C1076 C 0.85399 0.16582 0.57782 0.0
C1077 C 0.84701 0.16894 0.55743 0.0
C1078 C 0.81725 0.18216 0.57225 0.0
C1079 C 0.82869 0.17749 0.55498 0.0
C1080 C 0.86941 0.231 0.6863 0.0
C1081 C 0.81664 0.16182 0.69615 0.0
C1082 C 0.86396 0.1954 0.74465 0.0
C1083 C 0.8739 0.19612 0.76581 0.0
C1084 C 0.89526 0.19208 0.76904 0.0
C1085 C 0.86214 0.20109 0.78295 0.0
C1086 C 0.87204 0.2025 0.80317 0.0
C1087 C 0.90489 0.19308 0.78904 0.0
C1088 C 0.89347 0.19834 0.806 0.0
C1089 C 0.84953 0.13369 0.67477 0.0
H1090 H 0.8151 0.18261 0.60535 0.0
H1091 H 0.86796 0.15923 0.58028 0.0
H1092 H 0.80311 0.1886 0.57012 0.0
H1093 H 0.82334 0.18095 0.53972 0.0
H1094 H 0.90462 0.18833 0.75614 0.0
H1095 H 0.84578 0.20446 0.78049 0.0
H1096 H 0.92138 0.18992 0.79139 0.0
H1097 H 0.90135 0.1991 0.82138 0.0
H1098 H 0.30884 0.88076 0.07059 0.0
H1099 H 0.33632 0.83227 0.04387 0.0
H1100 H 0.34889 0.91812 0.05974 0.0
H1101 H 0.37448 0.86959 0.03016 0.0
H1102 H 0.45639 0.94018 0.03037 0.0
H1103 H 0.4146 0.90179 0.037 0.0
H1104 H 0.37592 0.9473 0.0373 0.0
H1105 H 0.41858 0.98586 0.0327 0.0
C1106 C 0.32319 0.87784 0.06224 0.0
C1107 C 0.31904 0.85299 0.05868 0.0
C1108 C 0.34623 0.89961 0.05541 0.0
C1109 C 0.36563 0.89745 0.044 0.0
C1110 C 0.36075 0.87254 0.03939 0.0
C1111 C 0.33818 0.85077 0.04692 0.0
C1112 C 0.43884 0.94181 0.03153 0.0
C1113 C 0.44064 0.96592 0.03074 0.0
C1114 C 0.41457 0.91965 0.03529 0.0
C1115 C 0.39125 0.9209 0.03798 0.0
C1116 C 0.39317 0.94517 0.03613 0.0
C1117 C 0.41762 0.96741 0.03314 0.0
H1118 H 0.15818 0.46745 0.09438 0.0
H1119 H 0.18804 0.48121 0.03134 0.0
H1120 H 0.11998 0.46998 0.08296 0.0
H1121 H 0.15014 0.48535 0.02033 0.0
H1122 H 0.08822 0.51953 0.02604 0.0
H1123 H 0.12858 0.51752 0.03289 0.0
H1124 H 0.08109 0.43966 0.05454 0.0
H1125 H 0.04097 0.44126 0.04691 0.0
C1126 C 0.15667 0.47081 0.07804 0.0
C1127 C 0.17627 0.47351 0.06379 0.0
C1128 C 0.13479 0.47255 0.07158 0.0
C1129 C 0.13202 0.47773 0.05077 0.0
C1130 C 0.15186 0.48141 0.03651 0.0
C1131 C 0.17363 0.47912 0.0429 0.0
C1132 C 0.08645 0.50178 0.03169 0.0
C1133 C 0.06139 0.48033 0.03547 0.0
C1134 C 0.10952 0.50068 0.0357 0.0
C1135 C 0.10793 0.4784 0.04421 0.0
C1136 C 0.0829 0.45704 0.04794 0.0
C1137 C 0.05996 0.45797 0.04358 0.0
H1138 H 0.59321 0.72512 0.05927 0.0
H1139 H 0.5081 0.68788 0.06082 0.0
H1140 H 0.59023 0.68624 0.04475 0.0
H1141 H 0.50513 0.64915 0.04639 0.0
H1142 H 0.50716 0.58897 1.00611 0.0
H1143 H 0.5131 0.63066 0.01571 0.0
H1144 H 0.57698 0.64311 0.0566 0.0
H1145 H 0.57167 0.60183 0.04649 0.0
C1146 C 0.57388 0.70866 0.05648 0.0
C1147 C 0.5509 0.70962 0.06121 0.0
C1148 C 0.57217 0.68639 0.04817 0.0
C1149 C 0.54744 0.66455 0.04442 0.0
C1150 C 0.52449 0.66574 0.04874 0.0
C1151 C 0.5262 0.68798 0.05703 0.0
C1152 C 0.52282 0.60077 0.01683 0.0
C1153 C 0.53899 0.59202 0.02546 0.0
C1154 C 0.52603 0.62459 0.02252 0.0
C1155 C 0.54543 0.64021 0.03701 0.0
C1156 C 0.56205 0.63174 0.04522 0.0
C1157 C 0.55885 0.60793 0.03952 0.0
H1158 H 0.82465 0.32165 0.97706 0.0
H1159 H 0.87819 0.2923 0.97018 0.0
H1160 H 0.86078 0.3623 0.98947 0.0
H1161 H 0.91439 0.33286 0.98296 0.0
H1162 H 0.97762 0.41836 0.9823 0.0
H1163 H 0.94158 0.37635 0.97227 0.0
H1164 H 0.89062 0.38371 0.01706 0.0
H1165 H 0.92618 0.42613 0.02632 0.0
C1166 C 0.84406 0.3237 0.9786 0.0
C1167 C 0.8485 0.30369 0.97262 0.0
C1168 C 0.86485 0.34707 0.98573 0.0
C1169 C 0.89066 0.35104 0.98719 0.0
C1170 C 0.89494 0.33075 0.98169 0.0
C1171 C 0.87415 0.30742 0.97445 0.0
C1172 C 0.95876 0.41102 0.99007 0.0
C1173 C 0.95498 0.42568 1.00527 0.0
C1174 C 0.93808 0.38675 0.98442 0.0
C1175 C 0.91306 0.37646 0.99385 0.0
C1176 C 0.90944 0.39103 0.00924 0.0
C1177 C 0.93004 0.41533 0.01479 0.0
H1178 H 0.71858 0.5427 1.00358 0.0
H1179 H 0.69996 0.54866 0.93945 0.0
H1180 H 0.67677 0.53939 0.01434 0.0
H1181 H 0.65951 0.54721 0.95059 0.0
H1182 H 0.60946 0.57767 0.98484 0.0
H1183 H 0.65176 0.5801 0.97752 0.0
H1184 H 0.62183 0.5041 1.00266 0.0
H1185 H 0.57896 0.50111 0.00904 0.0
C1186 C 0.70578 0.54327 0.99171 0.0
C1187 C 0.7132 0.54622 0.97053 0.0
C1188 C 0.68187 0.54152 0.99798 0.0
C1189 C 0.66505 0.54323 0.9833 0.0
C1190 C 0.67228 0.54615 0.96225 0.0
C1191 C 0.69576 0.54728 0.95593 0.0
C1192 C 0.61199 0.56159 0.98905 0.0
C1193 C 0.59101 0.53944 0.99798 0.0
C1194 C 0.63618 0.56299 0.98484 0.0
C1195 C 0.64011 0.54237 0.98963 0.0
C1196 C 0.61942 0.5204 0.99903 0.0
C1197 C 0.59494 0.51877 1.00283 0.0
H1198 H 0.5242 0.19468 0.97078 0.0
H1199 H 0.43926 0.14776 0.9683 0.0
H1200 H 0.52719 0.15842 0.98417 0.0
H1201 H 0.44228 0.11129 0.98171 0.0
H1202 H 0.46329 0.04638 0.98115 0.0
H1203 H 0.45783 0.08227 0.97036 0.0
H1204 H 0.51719 0.13127 0.01463 0.0
H1205 H 0.52328 0.09568 0.02498 0.0
C1206 C 0.50611 0.17671 0.97339 0.0
C1207 C 0.48147 0.17418 0.96855 0.0
C1208 C 0.50783 0.15589 0.98107 0.0
C1209 C 0.48497 0.13195 0.98409 0.0
C1210 C 0.46029 0.1294 0.97935 0.0
C1211 C 0.45856 0.15028 0.97166 0.0
C1212 C 0.47509 0.06475 0.98869 0.0
C1213 C 0.49371 0.06807 1.00398 0.0
C1214 C 0.47181 0.0853 0.98259 0.0
C1215 C 0.48711 0.10967 0.99159 0.0
C1216 C 0.5053 0.11283 0.0072 0.0
C1217 C 0.50859 0.09231 0.0133 0.0
H1218 H 0.69588 0.15914 0.95799 0.0
H1219 H 0.68044 0.18404 0.01662 0.0
H1220 H 0.65918 0.11563 0.96462 0.0
H1221 H 0.64399 0.14087 0.02319 0.0
H1222 H 0.55913 0.07603 0.00984 0.0
H1223 H 0.60006 0.11659 0.00651 0.0
H1224 H 0.64052 0.07631 0.98775 0.0
H1225 H 0.59914 0.03529 0.99151 0.0
C1226 C 0.68506 0.1552 0.97248 0.0
C1227 C 0.69079 0.17514 0.9866 0.0
C1228 C 0.66402 0.1303 0.97627 0.0
C1229 C 0.64834 0.12491 0.99427 0.0
C1230 C 0.65525 0.14451 0.00897 0.0
C1231 C 0.67619 0.16924 1.00521 0.0
C1232 C 0.57679 0.07567 1.00552 0.0
C1233 C 0.57605 0.05236 1.00163 0.0
C1234 C 0.60033 0.099 1.00351 0.0
C1235 C 0.62369 0.09972 0.99707 0.0
C1236 C 0.62289 0.07641 0.99277 0.0
C1237 C 0.59928 0.05297 0.99501 0.0
H1238 H 0.86059 0.54932 0.99898 0.0
H1239 H 0.83295 0.47497 0.97122 0.0
H1240 H 0.90459 0.55404 1.00335 0.0
H1241 H 0.87649 0.47968 0.97525 0.0
H1242 H 0.94485 0.47995 0.0077 0.0
H1243 H 0.90293 0.47867 1.00331 0.0
H1244 H 0.94426 0.55864 0.98566 0.0
H1245 H 0.98652 0.55997 0.99076 0.0
C1246 C 0.86405 0.53424 0.99345 0.0
C1247 C 0.8432 0.51167 0.98494 0.0
C1248 C 0.88922 0.53688 0.99599 0.0
C1249 C 0.89405 0.51702 0.99003 0.0
C1250 C 0.87343 0.49508 0.98059 0.0
C1251 C 0.84845 0.49244 0.97812 0.0
C1252 C 0.94508 0.49738 1.00327 0.0
C1253 C 0.96907 0.52023 1.00011 0.0
C1254 C 0.92096 0.49659 1.00043 0.0
C1255 C 0.92006 0.51853 0.99398 0.0
C1256 C 0.94412 0.54145 0.99083 0.0
C1257 C 0.96832 0.5422 0.99366 0.0
H1258 H 0.52488 0.32998 0.01635 0.0
H1259 H 0.50618 0.3339 0.95214 0.0
H1260 H 0.51749 0.3654 0.02475 0.0
H1261 H 0.49976 0.37028 0.96027 0.0
H1262 H 0.47837 0.42957 0.98578 0.0
H1263 H 0.47558 0.38822 0.9785 0.0
H1264 H 0.54362 0.41004 0.01756 0.0
H1265 H 0.5462 0.45048 0.02487 0.0
C1266 C 0.5189 0.33835 1.00409 0.0
C1267 C 0.51633 0.3295 0.9836 0.0
C1268 C 0.51483 0.35873 0.00883 0.0
C1269 C 0.5086 0.37109 0.9931 0.0
C1270 C 0.50445 0.36117 0.97276 0.0
C1271 C 0.50819 0.34044 0.96807 0.0
C1272 C 0.49255 0.42534 0.9929 0.0
C1273 C 0.51223 0.44322 1.00618 0.0
C1274 C 0.49101 0.40172 0.98869 0.0
C1275 C 0.50912 0.3956 0.99769 0.0
C1276 C 0.52882 0.41366 0.01082 0.0
C1277 C 0.53033 0.43704 0.015 0.0
H1278 H 0.20352 0.66539 0.07052 0.0
H1279 H 0.18268 0.71141 0.03221 0.0
H1280 H 0.1597 0.62819 0.06519 0.0
H1281 H 0.13865 0.674 0.02667 0.0
H1282 H 0.08456 0.5914 0.99808 0.0
H1283 H 0.12344 0.63215 0.00713 0.0
H1284 H 0.111 0.61074 0.07196 0.0
H1285 H 0.0722 0.56972 0.06276 0.0
C1286 C 0.18935 0.66759 0.06122 0.0
C1287 C 0.19646 0.69122 0.05174 0.0
C1288 C 0.16423 0.64635 0.05824 0.0
C1289 C 0.14574 0.64813 0.04545 0.0
C1290 C 0.15255 0.67202 0.03651 0.0
C1291 C 0.17761 0.69344 0.03979 0.0
C1292 C 0.09014 0.59537 0.01422 0.0
C1293 C 0.07564 0.57718 0.02963 0.0
C1294 C 0.11219 0.61889 0.01946 0.0
C1295 C 0.12039 0.62462 0.04026 0.0
C1296 C 0.10528 0.60679 0.05578 0.0
C1297 C 0.08299 0.5834 0.05053 0.0
H1298 H 0.33338 0.4826 0.0753 0.0
H1299 H 0.34884 0.52178 0.01635 0.0
H1300 H 0.37196 0.47723 0.07003 0.0
H1301 H 0.38713 0.51654 0.01114 0.0
H1302 H 0.47251 0.53629 0.02388 0.0
H1303 H 0.43093 0.53603 0.02733 0.0
H1304 H 0.393 0.45751 0.04863 0.0
H1305 H 0.43498 0.45782 0.0449 0.0
C1306 C 0.34463 0.48957 0.06104 0.0
C1307 C 0.33819 0.50295 0.04641 0.0
C1308 C 0.36681 0.48657 0.05803 0.0
C1309 C 0.38304 0.49692 0.04033 0.0
C1310 C 0.37557 0.50891 0.02519 0.0
C1311 C 0.3535 0.51183 0.02815 0.0
C1312 C 0.45525 0.5188 0.02888 0.0
C1313 C 0.45688 0.49679 0.0334 0.0
C1314 C 0.43133 0.51865 0.03096 0.0
C1315 C 0.4084 0.49663 0.03804 0.0
C1316 C 0.4102 0.47479 0.04312 0.0
C1317 C 0.43419 0.47491 0.04088 0.0
H1318 H 0.54573 0.84107 0.04717 0.0
H1319 H 0.47182 0.82206 0.07694 0.0
H1320 H 0.55283 0.8839 0.03896 0.0
H1321 H 0.47855 0.86425 0.0679 0.0
H1322 H 0.48243 0.91882 0.01424 0.0
H1323 H 0.4823 0.88051 0.02629 0.0
H1324 H 0.55345 0.92701 0.06123 0.0
H1325 H 0.55355 0.966 0.04939 0.0
C1326 C 0.53128 0.84612 0.05233 0.0
C1327 C 0.50796 0.82791 0.06241 0.0
C1328 C 0.53536 0.87059 0.04757 0.0
C1329 C 0.5161 0.87711 0.05267 0.0
C1330 C 0.49355 0.8595 0.06368 0.0
C1331 C 0.48965 0.83529 0.06867 0.0
C1332 C 0.49828 0.92111 0.02431 0.0
C1333 C 0.51804 0.94554 0.03084 0.0
C1334 C 0.49807 0.89909 0.03128 0.0
C1335 C 0.51778 0.90092 0.04471 0.0
C1336 C 0.53807 0.92525 0.05084 0.0
C1337 C 0.53806 0.94745 0.04411 0.0
H1338 H 0.96723 0.20112 0.3863 0.0
H1339 H 0.01211 0.16346 0.39849 0.0
H1340 H 1.00703 0.23894 0.37374 0.0
H1341 H 0.05232 0.20166 0.38725 0.0
H1342 H 0.12099 0.26907 0.35667 0.0
H1343 H 0.07908 0.22947 0.36175 0.0
H1344 H 0.04492 0.27362 0.38579 0.0
H1345 H 0.08615 0.31296 0.37912 0.0
C1346 C 0.98571 0.20102 0.3863 0.0
C1347 C 0.98661 0.1794 0.39338 0.0
C1348 C 1.00865 0.22279 0.37927 0.0
C1349 C 0.03327 0.22377 0.37963 0.0
C1350 C 0.03388 0.20175 0.38633 0.0
C1351 C 1.01082 0.1798 0.39293 0.0
C1352 C 0.10423 0.27023 0.36246 0.0
C1353 C 0.10662 0.29413 0.36699 0.0
C1354 C 0.08024 0.24747 0.36575 0.0
C1355 C 0.05828 0.24803 0.37427 0.0
C1356 C 0.06091 0.27213 0.37875 0.0
C1357 C 0.0847 0.2948 0.37511 0.0
H1358 H 0.86238 0.84447 0.3978 0.0
H1359 H 0.81933 0.76312 0.38612 0.0
H1360 H 0.8238 0.84761 0.3879 0.0
H1361 H 0.78123 0.76619 0.37486 0.0
H1362 H 0.70728 0.77214 0.38088 0.0
H1363 H 0.74702 0.77009 0.38757 0.0
H1364 H 0.79437 0.8474 0.36399 0.0
H1365 H 0.75426 0.84981 0.35883 0.0
C1366 C 0.84479 0.82734 0.39262 0.0
C1367 C 0.84382 0.80353 0.39285 0.0
C1368 C 0.82258 0.8291 0.38682 0.0
C1369 C 0.79889 0.80711 0.38073 0.0
C1370 C 0.79858 0.7835 0.38004 0.0
C1371 C 0.82057 0.7817 0.38627 0.0
C1372 C 0.72621 0.78864 0.37703 0.0
C1373 C 0.72755 0.81088 0.36883 0.0
C1374 C 0.74916 0.78743 0.38067 0.0
C1375 C 0.77433 0.80845 0.37614 0.0
C1376 C 0.77559 0.83082 0.36794 0.0
C1377 C 0.75252 0.83213 0.36462 0.0
H1378 H 0.2147 0.02075 0.42764 0.0
H1379 H 0.20997 0.04688 0.36606 0.0
H1380 H 0.21338 0.98302 0.41286 0.0
H1381 H 0.20823 0.00853 0.35119 0.0
H1382 H 0.17392 0.91993 0.3394 0.0
H1383 H 0.17824 0.96058 0.35069 0.0
H1384 H 0.24192 0.97264 0.39159 0.0
H1385 H 0.23771 0.93215 0.3804 0.0
C1386 C 0.21371 0.01862 0.41089 0.0
C1387 C 0.21285 0.03709 0.39802 0.0
C1388 C 0.21292 0.99693 0.40242 0.0
C1389 C 0.21104 0.99295 0.38084 0.0
C1390 C 0.20962 0.01107 0.3679 0.0
C1391 C 0.21057 0.03298 0.37641 0.0
C1392 C 0.18919 0.93146 0.3505 0.0
C1393 C 0.2054 0.92267 0.35904 0.0
C1394 C 0.19164 0.95477 0.35696 0.0
C1395 C 0.21023 0.96967 0.37219 0.0
C1396 C 0.22709 0.96136 0.3801 0.0
C1397 C 0.22472 0.93816 0.37361 0.0
H1398 H 0.491 0.65296 0.30909 0.0
H1399 H 0.54325 0.62169 0.30655 0.0
H1400 H 0.52729 0.69377 0.32111 0.0
H1401 H 0.5796 0.66248 0.31881 0.0
H1402 H 0.64411 0.74766 0.31696 0.0
H1403 H 0.60788 0.70565 0.30709 0.0
H1404 H 0.55614 0.71531 0.34951 0.0
H1405 H 0.59198 0.75765 0.35869 0.0
C1406 C 0.51014 0.65464 0.31145 0.0
C1407 C 0.51417 0.634 0.30685 0.0
C1408 C 0.53101 0.6781 0.31835 0.0
C1409 C 0.5565 0.68156 0.32092 0.0
C1410 C 0.5604 0.66073 0.31668 0.0
C1411 C 0.53953 0.63728 0.30971 0.0
C1412 C 0.62504 0.74081 0.32425 0.0
C1413 C 0.62112 0.75609 0.33876 0.0
C1414 C 0.60425 0.71658 0.31869 0.0
C1415 C 0.57897 0.70695 0.32749 0.0
C1416 C 0.57519 0.72213 0.3422 0.0
C1417 C 0.59592 0.74638 0.34768 0.0
H1418 H 0.35893 0.8371 0.30378 0.0
H1419 H 0.39939 0.91912 0.3118 0.0
H1420 H 0.31748 0.83434 0.31409 0.0
H1421 H 0.35845 0.91652 0.32349 0.0
H1422 H 0.27714 0.90881 0.31884 0.0
H1423 H 0.31937 0.91157 0.31226 0.0
H1424 H 0.28918 0.83552 0.33807 0.0
H1425 H 0.24626 0.83226 0.34293 0.0
C1426 C 0.35901 0.85451 0.30821 0.0
C1427 C 0.38241 0.87834 0.30687 0.0
C1428 C 0.33518 0.85298 0.31428 0.0
C1429 C 0.33412 0.87522 0.31959 0.0
C1430 C 0.35795 0.89895 0.31902 0.0
C1431 C 0.38162 0.90051 0.31249 0.0
C1432 C 0.27966 0.89279 0.32327 0.0
C1433 C 0.25848 0.87058 0.33187 0.0
C1434 C 0.30408 0.8944 0.31967 0.0
C1435 C 0.30824 0.87385 0.32467 0.0
C1436 C 0.28698 0.8517 0.33363 0.0
C1437 C 0.26235 0.84995 0.33685 0.0
H1438 H 0.10495 0.4789 0.30328 0.0
H1439 H 0.18999 0.52491 0.30493 0.0
H1440 H 0.10751 0.44244 0.31727 0.0
H1441 H 0.19256 0.48862 0.31881 0.0
H1442 H 0.18881 0.42611 0.35957 0.0
H1443 H 0.18308 0.4619 0.34923 0.0
H1444 H 0.12182 0.41259 0.30634 0.0
H1445 H 0.12685 0.37649 0.31724 0.0
C1446 C 0.12417 0.48122 0.3066 0.0
C1447 C 0.14725 0.50484 0.30302 0.0
C1448 C 0.12565 0.46033 0.3146 0.0
C1449 C 0.15024 0.46259 0.31921 0.0
C1450 C 0.17327 0.48631 0.31582 0.0
C1451 C 0.17179 0.50715 0.30784 0.0
C1452 C 0.17374 0.42271 0.34825 0.0
C1453 C 0.1582 0.39832 0.33935 0.0
C1454 C 0.17068 0.44336 0.34213 0.0
C1455 C 0.15209 0.44019 0.32686 0.0
C1456 C 0.13612 0.41566 0.3183 0.0
C1457 C 0.13915 0.39498 0.32446 0.0
H1458 H 0.3436 0.51604 0.35 0.0
H1459 H 0.36102 0.49069 0.29242 0.0
H1460 H 0.30705 0.47288 0.35641 0.0
H1461 H 0.32419 0.44723 0.29883 0.0
H1462 H 0.26396 0.36704 0.32516 0.0
H1463 H 0.30512 0.40827 0.32162 0.0
H1464 H 0.2637 0.44786 0.33974 0.0
H1465 H 0.22303 0.40706 0.34297 0.0
C1466 C 0.33973 0.50116 0.33877 0.0
C1467 C 0.35497 0.5069 0.32052 0.0
C1468 C 0.31873 0.47643 0.34243 0.0
C1469 C 0.31237 0.45669 0.32796 0.0
C1470 C 0.3286 0.46199 0.31032 0.0
C1471 C 0.34971 0.48686 0.30664 0.0
C1472 C 0.26386 0.38462 0.32858 0.0
C1473 C 0.24046 0.38375 0.33507 0.0
C1474 C 0.28734 0.4082 0.32646 0.0
C1475 C 0.28782 0.43138 0.33064 0.0
C1476 C 0.26425 0.43039 0.33686 0.0
C1477 C 0.24085 0.40692 0.33882 0.0
H1478 H 0.52619 0.86498 0.29172 0.0
H1479 H 0.5018 0.82468 0.35027 0.0
H1480 H 0.57033 0.87031 0.29642 0.0
H1481 H 0.54547 0.82978 0.35484 0.0
H1482 H 0.61097 0.81098 0.34097 0.0
H1483 H 0.56941 0.81077 0.33763 0.0
H1484 H 0.61164 0.89001 0.31809 0.0
H1485 H 0.65354 0.89018 0.32174 0.0
C1486 C 0.53035 0.8577 0.30575 0.0
C1487 C 0.51025 0.84404 0.32044 0.0
C1488 C 0.55563 0.86067 0.30843 0.0
C1489 C 0.56134 0.85001 0.32583 0.0
C1490 C 0.54164 0.83766 0.34101 0.0
C1491 C 0.51656 0.8348 0.33839 0.0
C1492 C 0.61151 0.82851 0.33637 0.0
C1493 C 0.63566 0.85087 0.33239 0.0
C1494 C 0.5876 0.82839 0.33435 0.0
C1495 C 0.5871 0.85049 0.32783 0.0
C1496 C 0.61125 0.87267 0.32317 0.0
C1497 C 0.63524 0.87281 0.32536 0.0
H1498 H 0.17315 0.66521 0.28465 0.0
H1499 H 0.19078 0.66024 0.34895 0.0
H1500 H 0.16701 0.70172 0.29294 0.0
H1501 H 0.18365 0.69578 0.35752 0.0
H1502 H 0.21266 0.78097 0.35842 0.0
H1503 H 0.20995 0.74049 0.35092 0.0
H1504 H 0.14286 0.71966 0.311 0.0
H1505 H 0.1458 0.76102 0.31844 0.0
C1506 C 0.17497 0.67154 0.30063 0.0
C1507 C 0.18271 0.66025 0.31615 0.0
C1508 C 0.1714 0.69236 0.30542 0.0
C1509 C 0.17532 0.70201 0.32584 0.0
C1510 C 0.18117 0.68932 0.34154 0.0
C1511 C 0.18507 0.66886 0.3367 0.0
C1512 C 0.19698 0.76773 0.34831 0.0
C1513 C 0.1792 0.77421 0.33928 0.0
C1514 C 0.19538 0.74433 0.34403 0.0
C1515 C 0.17593 0.72654 0.33059 0.0
C1516 C 0.15811 0.73295 0.32141 0.0
C1517 C 0.15973 0.75658 0.32572 0.0
H1518 H 0.86754 0.99273 0.41039 0.0
H1519 H 0.85482 0.03912 0.3659 0.0
H1520 H 0.82369 0.95653 0.40297 0.0
H1521 H 0.81083 1.0027 0.35828 0.0
H1522 H 0.75675 0.91951 0.33084 0.0
H1523 H 0.79587 0.95949 0.3408 0.0
H1524 H 0.77472 0.94168 0.40543 0.0
H1525 H 0.73555 0.90148 0.39536 0.0
C1526 C 0.85516 0.99524 0.39922 0.0
C1527 C 0.86457 0.01869 0.38868 0.0
C1528 C 0.83001 0.97457 0.39505 0.0
C1529 C 0.81382 0.97672 0.37999 0.0
C1530 C 0.82293 1.00044 0.36988 0.0
C1531 C 0.84798 0.0213 0.37433 0.0
C1532 C 0.76035 0.9241 0.34711 0.0
C1533 C 0.74317 0.90711 0.36223 0.0
C1534 C 0.78263 0.9472 0.35285 0.0
C1535 C 0.78847 0.95372 0.37392 0.0
C1536 C 0.77085 0.93712 0.38907 0.0
C1537 C 0.74832 0.91418 0.38328 0.0
H1538 H 0.0162 0.85369 0.34982 0.0
H1539 H 1.00054 0.81351 0.4083 0.0
H1540 H 0.05426 0.84816 0.3442 0.0
H1541 H 0.03894 0.80794 0.40267 0.0
H1542 H 0.10172 0.78863 0.37735 0.0
H1543 H 0.05982 0.78844 0.38111 0.0
H1544 H 0.09801 0.86709 0.36009 0.0
H1545 H 0.1395 0.86722 0.35659 0.0
C1546 C 0.02077 0.84345 0.36143 0.0
C1547 C 1.00547 0.83436 0.37967 0.0
C1548 C 0.04271 0.84039 0.35824 0.0
C1549 C 0.05008 0.82807 0.37315 0.0
C1550 C 0.03387 0.81753 0.39083 0.0
C1551 C 1.0118 0.82065 0.39406 0.0
C1552 C 0.101 0.80577 0.37338 0.0
C1553 C 0.12375 0.82766 0.366 0.0
C1554 C 0.07705 0.80571 0.37564 0.0
C1555 C 0.07535 0.82764 0.37068 0.0
C1556 C 0.09832 0.84964 0.36362 0.0
C1557 C 0.1222 0.84972 0.36152 0.0
H1558 H 0.20085 0.17521 0.41342 0.0
H1559 H 0.15 0.14515 0.35987 0.0
H1560 H 0.21058 0.21862 0.40416 0.0
H1561 H 0.15889 0.18797 0.35105 0.0
H1562 H 0.19221 0.26845 0.33001 0.0
H1563 H 0.19219 0.22908 0.33855 0.0
H1564 H 0.18757 0.24319 0.40385 0.0
H1565 H 0.1878 0.28283 0.39511 0.0
C1566 C 0.19196 0.17791 0.39959 0.0
C1567 C 0.17447 0.15673 0.38748 0.0
C1568 C 0.19733 0.20271 0.39439 0.0
C1569 C 0.1855 0.20682 0.37687 0.0
C1570 C 0.16865 0.18565 0.36449 0.0
C1571 C 0.16327 0.161 0.36969 0.0
C1572 C 0.19116 0.26317 0.34613 0.0
C1573 C 0.18938 0.27844 0.36178 0.0
C1574 C 0.19125 0.24061 0.35108 0.0
C1575 C 0.1894 0.23268 0.37188 0.0
C1576 C 0.18916 0.24876 0.38767 0.0
C1577 C 0.18925 0.27147 0.38266 0.0
H1578 H 0.67624 0.49969 0.73216 0.0
H1579 H 0.63236 0.53891 0.72268 0.0
H1580 H 0.7164 0.5375 0.72052 0.0
H1581 H 0.67215 0.57646 0.70967 0.0
H1582 H 0.75315 0.64934 0.71281 0.0
H1583 H 0.7113 0.61086 0.72008 0.0
H1584 H 0.74209 0.56448 0.69455 0.0
H1585 H 0.78454 0.60301 0.68909 0.0
C1586 C 0.67516 0.51634 0.72715 0.0
C1587 C 0.65123 0.51642 0.7284 0.0
C1588 C 0.6982 0.53807 0.72028 0.0
C1589 C 0.69787 0.56038 0.71406 0.0
C1590 C 0.67356 0.56003 0.71473 0.0
C1591 C 0.65062 0.53844 0.72205 0.0
C1592 C 0.75078 0.63087 0.70855 0.0
C1593 C 0.77199 0.62929 0.69996 0.0
C1594 C 0.72664 0.60869 0.71257 0.0
C1595 C 0.72295 0.5842 0.70799 0.0
C1596 C 0.74408 0.58278 0.69875 0.0
C1597 C 0.76841 0.60499 0.69516 0.0
H1598 H 0.5287 0.17567 0.72897 0.0
H1599 H 0.48519 0.09399 0.71899 0.0
H1600 H 0.49004 0.17865 0.71929 0.0
H1601 H 0.4469 0.09685 0.70789 0.0
H1602 H 0.37327 0.10389 0.71392 0.0
H1603 H 0.41282 0.10124 0.72005 0.0
H1604 H 0.4605 0.17816 0.69578 0.0
H1605 H 0.42079 0.18124 0.69138 0.0
C1606 C 0.51096 0.15841 0.72419 0.0
C1607 C 0.50994 0.13459 0.72482 0.0
C1608 C 0.48869 0.16007 0.7185 0.0
C1609 C 0.46484 0.13797 0.71288 0.0
C1610 C 0.4644 0.11429 0.71265 0.0
C1611 C 0.48649 0.11259 0.71881 0.0
C1612 C 0.39224 0.12014 0.70977 0.0
C1613 C 0.39378 0.1425 0.70164 0.0
C1614 C 0.41508 0.11859 0.71309 0.0
C1615 C 0.4403 0.13938 0.7083 0.0
C1616 C 0.44171 0.16177 0.7 0.0
C1617 C 0.41881 0.16343 0.69705 0.0
H1618 H 0.88624 0.35657 0.75966 0.0
H1619 H 0.88297 0.38296 0.69783 0.0
H1620 H 0.88459 0.3186 0.74511 0.0
H1621 H 0.8808 0.34433 0.68323 0.0
H1622 H 0.84355 0.25539 0.6718 0.0
H1623 H 0.84938 0.29667 0.68295 0.0
H1624 H 0.91214 0.30667 0.72406 0.0
H1625 H 0.90646 0.26556 0.71295 0.0
C1626 C 0.8856 0.35451 0.74292 0.0
C1627 C 0.88507 0.37305 0.72992 0.0
C1628 C 0.88458 0.33264 0.73458 0.0
C1629 C 0.88279 0.32856 0.71301 0.0
C1630 C 0.88204 0.34692 0.69993 0.0
C1631 C 0.88325 0.36899 0.70829 0.0
C1632 C 0.85895 0.2666 0.6829 0.0
C1633 C 0.8745 0.25708 0.69148 0.0
C1634 C 0.86228 0.29027 0.68929 0.0
C1635 C 0.88108 0.30482 0.7045 0.0
C1636 C 0.89721 0.29571 0.71253 0.0
C1637 C 0.89398 0.27215 0.70611 0.0
H1638 H 0.2104 0.95446 0.64022 0.0
H1639 H 0.15785 0.98529 0.64429 0.0
H1640 H 0.2467 0.99506 0.65283 0.0
H1641 H 0.19408 0.02591 0.65663 0.0
H1642 H 0.2593 0.09 0.69369 0.0
H1643 H 0.22343 0.04752 0.68473 0.0
H1644 H 0.2746 0.03828 0.6414 0.0
H1645 H 0.3108 0.08034 0.65101 0.0
C1646 C 0.20659 0.96991 0.64381 0.0
C1647 C 0.18117 0.96656 0.64124 0.0
C1648 C 0.22744 0.99325 0.65098 0.0
C1649 C 0.22346 0.01393 0.65571 0.0
C1650 C 0.19789 0.01037 0.6535 0.0
C1651 C 0.17704 0.98701 0.6464 0.0
C1652 C 0.26311 0.07877 0.68253 0.0
C1653 C 0.28813 0.08864 0.67325 0.0
C1654 C 0.24236 0.05445 0.67718 0.0
C1655 C 0.24597 0.03934 0.66227 0.0
C1656 C 0.27109 0.04911 0.65316 0.0
C1657 C 0.29188 0.0734 0.65858 0.0
H1658 H 0.06696 0.25189 0.64488 0.0
H1659 H 0.02584 0.16988 0.63667 0.0
H1660 H 0.02612 0.24968 0.65636 0.0
H1661 H 0.98451 0.16752 0.64672 0.0
H1662 H 0.91342 0.16589 0.67506 0.0
H1663 H 0.95622 0.16886 0.67054 0.0
H1664 H 0.98727 0.24517 0.64504 0.0
H1665 H 0.94512 0.24271 0.65134 0.0
C1666 C 0.04906 0.23336 0.64547 0.0
C1667 C 0.04962 0.21108 0.63988 0.0
C1668 C 0.02545 0.23203 0.65188 0.0
C1669 C 1.00148 0.20842 0.65234 0.0
C1670 C 1.00232 0.18607 0.64702 0.0
C1671 C 0.02608 0.18737 0.64109 0.0
C1672 C 0.92966 0.18357 0.66914 0.0
C1673 C 0.92604 0.20436 0.66415 0.0
C1674 C 0.95424 0.18516 0.6661 0.0
C1675 C 0.97569 0.20728 0.6573 0.0
C1676 C 0.97181 0.228 0.65232 0.0
C1677 C 0.94744 0.22656 0.65576 0.0
H1678 H 0.85558 0.8577 0.63825 0.0
H1679 H 0.77051 0.81196 0.63678 0.0
H1680 H 0.85801 0.82152 0.65256 0.0
H1681 H 0.77294 0.7756 0.65119 0.0
H1682 H 0.79209 0.70958 0.65103 0.0
H1683 H 0.78704 0.74567 0.64037 0.0
H1684 H 0.84855 0.79486 0.68314 0.0
H1685 H 0.85424 0.75894 0.69335 0.0
C1686 C 0.83735 0.84003 0.6413 0.0
C1687 C 0.81284 0.83777 0.6364 0.0
C1688 C 0.83875 0.81926 0.64953 0.0
C1689 C 0.81567 0.79564 0.65309 0.0
C1690 C 0.79111 0.79343 0.64841 0.0
C1691 C 0.78971 0.81425 0.64014 0.0
C1692 C 0.80443 0.72803 0.65831 0.0
C1693 C 0.8236 0.7313 0.67307 0.0
C1694 C 0.80138 0.74872 0.65228 0.0
C1695 C 0.81744 0.77322 0.66083 0.0
C1696 C 0.83608 0.77633 0.67604 0.0
C1697 C 0.83915 0.75563 0.68207 0.0
H1698 H 0.98865 0.84632 0.63079 0.0
H1699 H 0.04157 0.82643 0.66157 0.0
H1700 H 0.95189 0.80345 0.63731 0.0
H1701 H 1.00439 0.78296 0.66797 0.0
H1702 H 0.92918 0.70026 0.65541 0.0
H1703 H 0.96935 0.74182 0.64944 0.0
H1704 H 0.92802 0.78072 0.66956 0.0
H1705 H 0.88829 0.73967 0.67511 0.0
C1706 C 0.99247 0.83271 0.63888 0.0
C1707 C 0.01801 0.83997 0.64594 0.0
C1708 C 0.97135 0.80813 0.64268 0.0
C1709 C 0.9751 0.78994 0.65353 0.0
C1710 C 1.00088 0.79659 0.6596 0.0
C1711 C 0.02216 0.82142 0.65587 0.0
C1712 C 0.92891 0.71777 0.65878 0.0
C1713 C 0.90568 0.71665 0.66609 0.0
C1714 C 0.95188 0.74151 0.65544 0.0
C1715 C 0.95182 0.76458 0.65887 0.0
C1716 C 0.92866 0.76334 0.66651 0.0
C1717 C 0.90589 0.73972 0.66995 0.0
H1718 H 0.1925 0.1967 0.62545 0.0
H1719 H 0.16893 0.15737 0.68445 0.0
H1720 H 0.23675 0.20224 0.62996 0.0
H1721 H 0.21271 0.16268 0.68882 0.0
H1722 H 0.27814 0.14389 0.67499 0.0
H1723 H 0.23648 0.14348 0.67165 0.0
H1724 H 0.27832 0.22245 0.65138 0.0
H1725 H 0.32034 0.22283 0.65501 0.0
C1726 C 0.19686 0.18967 0.63953 0.0
C1727 C 0.17696 0.17622 0.6544 0.0
C1728 C 0.22221 0.19277 0.6421 0.0
C1729 C 0.22817 0.18245 0.65958 0.0
C1730 C 0.20866 0.17029 0.67493 0.0
C1731 C 0.18352 0.1673 0.67242 0.0
C1732 C 0.27857 0.16132 0.67019 0.0
C1733 C 0.30265 0.18367 0.66599 0.0
C1734 C 0.25461 0.16108 0.66818 0.0
C1735 C 0.25398 0.18305 0.66149 0.0
C1736 C 0.27805 0.20521 0.6566 0.0
C1737 C 0.3021 0.20548 0.65877 0.0
H1738 H 0.85738 0.99405 0.68081 0.0
H1739 H 0.8403 0.99859 0.6163 0.0
H1740 H 0.85042 0.02981 0.68893 0.0
H1741 H 0.83434 0.03533 0.62415 0.0
H1742 H 0.81333 0.09518 0.64932 0.0
H1743 H 0.8102 0.05368 0.64198 0.0
H1744 H 0.87729 0.07443 0.68188 0.0
H1745 H 0.88021 0.115 0.68925 0.0
C1746 C 0.85183 1.00263 0.66843 0.0
C1747 C 0.84958 0.99385 0.64795 0.0
C1748 C 0.84802 0.02321 0.673 0.0
C1749 C 0.8424 0.03584 0.65711 0.0
C1750 C 0.83857 0.02601 0.63676 0.0
C1751 C 0.84205 0.00508 0.63223 0.0
C1752 C 0.82724 0.0907 0.65659 0.0
C1753 C 0.84673 0.1083 0.67014 0.0
C1754 C 0.8255 0.06699 0.65235 0.0
C1755 C 0.84322 0.06051 0.66161 0.0
C1756 C 0.86278 0.07833 0.67495 0.0
C1757 C 0.86449 0.10178 0.67916 0.0
H1758 H 0.53697 0.35655 0.68146 0.0
H1759 H 0.51536 0.35424 0.74584 0.0
H1760 H 0.49437 0.31873 0.67436 0.0
H1761 H 0.47266 0.31559 0.73897 0.0
H1762 H 0.39089 0.25176 0.7143 0.0
H1763 H 0.42927 0.29428 0.72107 0.0
H1764 H 0.47754 0.27459 0.68309 0.0
H1765 H 0.43987 0.23289 0.67638 0.0
C1766 C 0.52285 0.34806 0.69404 0.0
C1767 C 0.52947 0.35815 0.7142 0.0
C1768 C 0.49852 0.32627 0.69004 0.0
C1769 C 0.48026 0.3137 0.70619 0.0
C1770 C 0.48621 0.32477 0.72617 0.0
C1771 C 0.51062 0.34687 0.73012 0.0
C1772 C 0.40971 0.25664 0.70736 0.0
C1773 C 0.41209 0.23899 0.69447 0.0
C1774 C 0.43171 0.28097 0.71128 0.0
C1775 C 0.45645 0.28809 0.70234 0.0
C1776 C 0.45871 0.27019 0.68976 0.0
C1777 C 0.43695 0.24609 0.68591 0.0
H1778 H 0.65345 0.13477 0.70225 0.0
H1779 H 0.70385 0.20689 0.73278 0.0
H1780 H 0.69198 0.12949 0.69587 0.0
H1781 H 0.74195 0.20177 0.72637 0.0
H1782 H 0.80826 0.20229 0.69002 0.0
H1783 H 0.76777 0.2036 0.69563 0.0
H1784 H 0.72745 0.12368 0.7133 0.0
H1785 H 0.76826 0.12236 0.70728 0.0
C1786 C 0.6726 0.14924 0.70791 0.0
C1787 C 0.67556 0.1714 0.71779 0.0
C1788 C 0.6947 0.1463 0.70418 0.0
C1789 C 0.72021 0.16548 0.71021 0.0
C1790 C 0.7228 0.18694 0.72098 0.0
C1791 C 0.70087 0.18981 0.72476 0.0
C1792 C 0.7907 0.18486 0.6947 0.0
C1793 C 0.79137 0.16208 0.69778 0.0
C1794 C 0.76748 0.18567 0.69819 0.0
C1795 C 0.74429 0.16378 0.70509 0.0
C1796 C 0.74483 0.14084 0.70786 0.0
C1797 C 0.76821 0.1401 0.70448 0.0
H1798 H 0.8025 0.48307 0.73673 0.0
H1799 H 0.87964 0.50532 0.71167 0.0
H1800 H 0.80866 0.52505 0.7278 0.0
H1801 H 0.88609 0.54797 0.7035 0.0
H1802 H 0.8848 0.62844 0.71311 0.0
H1803 H 0.88487 0.58928 0.72403 0.0
H1804 H 0.81425 0.54358 0.68826 0.0
H1805 H 0.8142 0.58213 0.67713 0.0
C1806 C 0.82089 0.49697 0.72948 0.0
C1807 C 0.84034 0.49057 0.72451 0.0
C1808 C 0.82443 0.52105 0.7245 0.0
C1809 C 0.8477 0.53953 0.71477 0.0
C1810 C 0.86798 0.53397 0.71103 0.0
C1811 C 0.86429 0.50961 0.71578 0.0
C1812 C 0.86948 0.61004 0.70741 0.0
C1813 C 0.8495 0.60846 0.69425 0.0
C1814 C 0.86959 0.58772 0.71362 0.0
C1815 C 0.84945 0.56353 0.70708 0.0
C1816 C 0.82988 0.56203 0.69362 0.0
C1817 C 0.82999 0.5842 0.68717 0.0
H1818 H 0.45031 0.87962 0.23499 0.0
H1819 H 0.45939 0.94725 0.26566 0.0
H1820 H 0.46574 0.90343 0.20244 0.0
H1821 H 0.47628 0.97166 0.2336 0.0
H1822 H 0.48184 0.00475 0.17008 0.0
H1823 H 0.46447 0.97878 0.20135 0.0
H1824 H 0.50043 0.93402 0.18288 0.0
H1825 H 0.51628 0.95927 0.15094 0.0
C1826 C 0.45612 0.89977 0.23481 0.0
C1827 C 0.45364 0.91159 0.25284 0.0
C1828 C 0.46507 0.91353 0.21614 0.0
C1829 C 0.47219 0.93962 0.21509 0.0
C1830 C 0.47036 0.95151 0.23343 0.0
C1831 C 0.46093 0.93761 0.25195 0.0
C1832 C 0.48568 0.98911 0.17267 0.0
C1833 C 0.50031 0.98394 0.15812 0.0
C1834 C 0.47603 0.97436 0.19075 0.0
C1835 C 0.48128 0.95436 0.19506 0.0
C1836 C 0.49559 0.94895 0.18017 0.0
C1837 C 0.50479 0.96344 0.16184 0.0
H1838 H 0.11706 0.5082 0.23584 0.0
H1839 H 0.10482 0.57066 0.25437 0.0
H1840 H 0.0891 0.50055 0.20561 0.0
H1841 H 0.07817 0.56376 0.22324 0.0
H1842 H 0.05979 0.55649 0.15033 0.0
H1843 H 0.08781 0.56498 0.18112 0.0
H1844 H 0.03724 0.48715 0.20193 0.0
H1845 H 1.00889 0.47888 0.17149 0.0
C1846 C 0.10833 0.52021 0.23365 0.0
C1847 C 0.11307 0.5399 0.24784 0.0
C1848 C 0.09251 0.51592 0.21619 0.0
C1849 C 0.08155 0.53156 0.21219 0.0
C1850 C 0.0866 0.55157 0.22598 0.0
C1851 C 0.10198 0.55555 0.24373 0.0
C1852 C 0.05475 0.54127 0.16153 0.0
C1853 C 0.03227 0.51707 0.15866 0.0
C1854 C 0.07063 0.54615 0.17911 0.0
C1855 C 0.06458 0.5267 0.19379 0.0
C1856 C 0.04229 0.5024 0.19076 0.0
C1857 C 0.0261 0.49771 0.17345 0.0
H1858 H 0.5158 0.56486 0.26592 0.0
H1859 H 0.45057 0.56429 0.23415 0.0
H1860 H 0.52957 0.55393 0.23358 0.0
H1861 H 0.46461 0.55379 0.20152 0.0
H1862 H 0.48918 0.51647 0.14916 0.0
H1863 H 0.47103 0.52268 0.18159 0.0
H1864 H 0.54993 0.57684 0.20219 0.0
H1865 H 0.56787 0.57046 0.17013 0.0
C1866 C 0.5043 0.56219 0.252 0.0
C1867 C 0.48224 0.56562 0.25254 0.0
C1868 C 0.51226 0.5561 0.23342 0.0
C1869 C 0.49852 0.55348 0.21481 0.0
C1870 C 0.47562 0.55559 0.21555 0.0
C1871 C 0.46753 0.56156 0.23424 0.0
C1872 C 0.50256 0.52984 0.16058 0.0
C1873 C 0.52999 0.54274 0.15717 0.0
C1874 C 0.49218 0.53338 0.17917 0.0
C1875 C 0.50903 0.54994 0.19469 0.0
C1876 C 0.53638 0.56337 0.1909 0.0
C1877 C 0.54669 0.55979 0.17245 0.0
H1878 H 0.92817 0.47708 0.78167 0.0
H1879 H 0.90324 0.39876 0.79873 0.0
H1880 H 0.95518 0.49206 0.81333 0.0
H1881 H 0.93031 0.41367 0.82984 0.0
H1882 H 1.00884 0.45081 0.86443 0.0
H1883 H 0.97983 0.43834 0.83431 0.0
H1884 H 0.95175 0.4892 0.85382 0.0
H1885 H 0.98114 0.50192 0.88412 0.0
C1886 C 0.92822 0.4631 0.79226 0.0
C1887 C 0.91405 0.43679 0.78747 0.0
C1888 C 0.94365 0.47166 0.81033 0.0
C1889 C 0.94517 0.45402 0.82381 0.0
C1890 C 0.92999 0.42772 0.81948 0.0
C1891 C 0.91455 0.41921 0.80162 0.0
C1892 C 0.99666 0.4595 0.86223 0.0
C1893 C 0.99727 0.47735 0.87661 0.0
C1894 C 0.97989 0.45222 0.84508 0.0
C1895 C 0.96344 0.46271 0.8418 0.0
C1896 C 0.9643 0.48089 0.85596 0.0
C1897 C 0.98093 0.48799 0.87333 0.0
H1898 H 0.56873 0.5037 0.76819 0.0
H1899 H 0.58862 0.45323 0.80121 0.0
H1900 H 0.54853 0.50903 0.79991 0.0
H1901 H 0.5691 0.45913 0.83307 0.0
H1902 H 0.56108 0.50899 0.88784 0.0
H1903 H 0.58042 0.50153 0.8568 0.0
H1904 H 0.50708 0.47489 0.824 0.0
H1905 H 0.48698 0.48059 0.8552 0.0
C1906 C 0.56878 0.49381 0.78226 0.0
C1907 C 0.58003 0.47795 0.7823 0.0
C1908 C 0.55723 0.49681 0.80033 0.0
C1909 C 0.55734 0.48451 0.81887 0.0
C1910 C 0.56887 0.46888 0.81897 0.0
C1911 C 0.57986 0.4654 0.80078 0.0
C1912 C 0.54878 0.50102 0.87423 0.0
C1913 C 0.52238 0.49561 0.87419 0.0
C1914 C 0.56 0.49695 0.8564 0.0
C1915 C 0.54527 0.48787 0.83802 0.0
C1916 C 0.51894 0.48225 0.83792 0.0
C1917 C 0.50754 0.48574 0.85583 0.0
H1918 H 0.51198 0.06606 0.76638 0.0
H1919 H 0.57677 0.13059 0.79688 0.0
H1920 H 0.50052 0.04194 0.7988 0.0
H1921 H 0.56498 0.10668 0.82963 0.0
H1922 H 0.54686 0.04635 0.88164 0.0
H1923 H 0.562 0.07118 0.84933 0.0
H1924 H 0.48089 0.04207 0.83099 0.0
H1925 H 0.46601 0.01707 0.86284 0.0
C1926 C 0.52383 0.07506 0.78005 0.0
C1927 C 0.54518 0.10028 0.77907 0.0
C1928 C 0.51716 0.06131 0.79872 0.0
C1929 C 0.53149 0.07247 0.81705 0.0
C1930 C 0.55354 0.09738 0.81587 0.0
C1931 C 0.56035 0.1111 0.79708 0.0
C1932 C 0.53234 0.04551 0.87074 0.0
C1933 C 0.50524 0.02951 0.87469 0.0
C1934 C 0.54099 0.05972 0.85221 0.0
C1935 C 0.52271 0.05835 0.83728 0.0
C1936 C 0.49562 0.04307 0.84173 0.0
C1937 C 0.48704 0.02881 0.86009 0.0
H1938 H 0.12995 0.27981 0.59958 0.0
H1939 H 0.11514 0.2106 0.56806 0.0
H1940 H 0.14835 0.30432 0.56741 0.0
H1941 H 0.13288 0.235 0.53569 0.0
H1942 H 0.13508 0.28951 0.47974 0.0
H1943 H 0.11821 0.26296 0.511 0.0
H1944 H 0.19029 0.31359 0.54331 0.0
H1945 H 0.20799 0.33925 0.51197 0.0
C1946 C 0.13068 0.2699 0.58576 0.0
C1947 C 0.12132 0.2434 0.5863 0.0
C1948 C 0.1412 0.28388 0.5674 0.0
C1949 C 0.14197 0.27151 0.54909 0.0
C1950 C 0.13241 0.24495 0.54957 0.0
C1951 C 0.12246 0.23108 0.56808 0.0
C1952 C 0.14765 0.29476 0.4933 0.0
C1953 C 0.17288 0.3169 0.4932 0.0
C1954 C 0.13786 0.27959 0.51125 0.0
C1955 C 0.15285 0.28644 0.52961 0.0
C1956 C 0.17817 0.30812 0.52946 0.0
C1957 C 0.18818 0.32294 0.51146 0.0
H1958 H 0.81089 0.89756 0.56178 0.0
H1959 H 0.74168 0.84675 0.59735 0.0
H1960 H 0.78386 0.8891 0.53078 0.0
H1961 H 0.71413 0.83933 0.5668 0.0
H1962 H 0.67403 0.81053 0.50474 0.0
H1963 H 0.70186 0.81862 0.53518 0.0
H1964 H 0.75343 0.89628 0.51374 0.0
H1965 H 0.72628 0.88733 0.48271 0.0
C1966 C 0.78975 0.88488 0.56296 0.0
C1967 C 0.7783 0.87279 0.58186 0.0
C1968 C 0.77416 0.8801 0.54524 0.0
C1969 C 0.74664 0.86347 0.54611 0.0
C1970 C 0.73524 0.85177 0.56527 0.0
C1971 C 0.75094 0.85615 0.58287 0.0
C1972 C 0.69142 0.82926 0.5066 0.0
C1973 C 0.69811 0.8483 0.49146 0.0
C1974 C 0.7073 0.83404 0.52413 0.0
C1975 C 0.72996 0.85822 0.52716 0.0
C1976 C 0.7365 0.87728 0.51189 0.0
C1977 C 0.72089 0.87227 0.49414 0.0
H1978 H 0.11767 0.89878 0.56725 0.0
H1979 H 0.18278 0.89872 0.5987 0.0
H1980 H 0.13147 0.88829 0.53448 0.0
H1981 H 0.19632 0.88787 0.56623 0.0
H1982 H 0.23411 0.90324 0.50278 0.0
H1983 H 0.21659 0.91051 0.5347 0.0
H1984 H 0.13734 0.85674 0.51458 0.0
H1985 H 0.15508 0.84964 0.48228 0.0
C1986 C 0.13458 0.89597 0.56724 0.0
C1987 C 0.14929 0.89981 0.5855 0.0
C1988 C 0.14253 0.89 0.54846 0.0
C1989 C 0.16531 0.88769 0.5476 0.0
C1990 C 0.17912 0.8902 0.56616 0.0
C1991 C 0.17128 0.89626 0.58482 0.0
C1992 C 0.21294 0.89288 0.50516 0.0
C1993 C 0.19602 0.87563 0.49008 0.0
C1994 C 0.20287 0.89697 0.52353 0.0
C1995 C 0.17555 0.88386 0.52745 0.0
C1996 C 0.15848 0.86719 0.51207 0.0
C1997 C 0.16862 0.86314 0.49356 0.0
H1998 H 0.62253 0.77944 0.10186 0.0
H1999 H 0.55764 0.77493 0.13737 0.0
H2000 H 0.64999 0.79276 0.13294 0.0
H2001 H 0.585 0.78798 0.16859 0.0
H2002 H 0.64976 0.83092 0.21764 0.0
H2003 H 0.62354 0.82234 0.18598 0.0
H2004 H 0.65131 0.77187 0.16457 0.0
H2005 H 0.67744 0.7805 0.196 0.0
C2006 C 0.61419 0.78142 0.11631 0.0
C2007 C 0.58789 0.77598 0.11721 0.0
C2008 C 0.62987 0.78895 0.13414 0.0
C2009 C 0.61959 0.7911 0.15333 0.0
C2010 C 0.5936 0.7867 0.15404 0.0
C2011 C 0.57792 0.77925 0.13615 0.0
C2012 C 0.6501 0.81788 0.2062 0.0
C2013 C 0.66582 0.80652 0.20927 0.0
C2014 C 0.63512 0.81299 0.18806 0.0
C2015 C 0.63552 0.79662 0.17263 0.0
C2016 C 0.65102 0.78507 0.17588 0.0
C2017 C 0.66597 0.78997 0.19393 0.0
H2018 H 0.23993 0.83884 0.10223 0.0
H2019 H 0.25908 0.78668 0.13332 0.0
H2020 H 0.21951 0.84295 0.13426 0.0
H2021 H 0.23931 0.7914 0.1656 0.0
H2022 H 0.23022 0.84059 0.22152 0.0
H2023 H 0.25026 0.83376 0.19058 0.0
H2024 H 0.17727 0.80669 0.15718 0.0
H2025 H 0.1565 0.81176 0.18824 0.0
C2026 C 0.23985 0.82839 0.11598 0.0
C2027 C 0.25094 0.81239 0.11537 0.0
C2028 C 0.22816 0.83068 0.13422 0.0
C2029 C 0.2279 0.81749 0.15232 0.0
C2030 C 0.23937 0.8018 0.15183 0.0
C2031 C 0.25052 0.79903 0.13342 0.0
C2032 C 0.21815 0.83263 0.20779 0.0
C2033 C 0.19168 0.82699 0.20751 0.0
C2034 C 0.22976 0.8289 0.19004 0.0
C2035 C 0.21533 0.81994 0.17153 0.0
C2036 C 0.18889 0.81395 0.17123 0.0
C2037 C 0.17711 0.8171 0.18904 0.0
H2038 H 0.17875 0.40193 0.10163 0.0
H2039 H 0.24426 0.46533 0.13253 0.0
H2040 H 0.16696 0.37726 0.13379 0.0
H2041 H 0.23217 0.44083 0.16504 0.0
H2042 H 0.21156 0.37918 0.21671 0.0
H2043 H 0.22779 0.4042 0.18453 0.0
H2044 H 0.14741 0.37848 0.16595 0.0
H2045 H 0.13143 0.35343 0.19769 0.0
C2046 C 0.19075 0.41052 0.11532 0.0
C2047 C 0.21232 0.43563 0.11457 0.0
C2048 C 0.18389 0.39647 0.13383 0.0
C2049 C 0.19825 0.4072 0.15222 0.0
C2050 C 0.22067 0.43189 0.15122 0.0
C2051 C 0.22766 0.44593 0.13258 0.0
C2052 C 0.19745 0.37913 0.20579 0.0
C2053 C 0.17019 0.36405 0.20963 0.0
C2054 C 0.20672 0.39343 0.18733 0.0
C2055 C 0.18892 0.39301 0.17237 0.0
C2056 C 0.16173 0.37868 0.17672 0.0
C2057 C 0.15253 0.36439 0.19502 0.0
H2058 H 0.7497 0.55797 0.90084 0.0
H2059 H 0.82628 0.59696 0.9299 0.0
H2060 H 0.76903 0.58 0.86823 0.0
H2061 H 0.84568 0.62017 0.89764 0.0
H2062 H 0.87857 0.6433 0.83276 0.0
H2063 H 0.85864 0.61815 0.86406 0.0
H2064 H 0.78639 0.61862 0.85065 0.0
H2065 H 0.80616 0.64266 0.81879 0.0
C2066 C 0.77069 0.57152 0.90026 0.0
C2067 C 0.78648 0.5758 0.91792 0.0
C2068 C 0.78182 0.58432 0.88157 0.0
C2069 C 0.80903 0.60212 0.88009 0.0
C2070 C 0.82478 0.60632 0.89788 0.0
C2071 C 0.81368 0.59315 0.91648 0.0
C2072 C 0.85836 0.63784 0.8365 0.0
C2073 C 0.84392 0.64495 0.82335 0.0
C2074 C 0.84693 0.62358 0.85457 0.0
C2075 C 0.82085 0.61639 0.86022 0.0
C2076 C 0.80634 0.62332 0.84682 0.0
C2077 C 0.81766 0.63722 0.82853 0.0
H2078 H 0.40983 0.18425 0.93082 0.0
H2079 H 0.47919 0.23506 0.89541 0.0
H2080 H 0.38238 0.17694 0.90022 0.0
H2081 H 0.45227 0.22666 0.86434 0.0
H2082 H 0.39488 0.22433 0.81583 0.0
H2083 H 0.42188 0.2336 0.847 0.0
H2084 H 0.37036 0.15605 0.86871 0.0
H2085 H 0.34267 0.14767 0.83815 0.0
C2086 C 0.41913 0.19371 0.91636 0.0
C2087 C 0.4465 0.21027 0.91539 0.0
C2088 C 0.40351 0.18937 0.89874 0.0
C2089 C 0.415 0.20103 0.87959 0.0
C2090 C 0.44252 0.21768 0.87878 0.0
C2091 C 0.45804 0.22243 0.89654 0.0
C2092 C 0.38948 0.20938 0.82735 0.0
C2093 C 0.36676 0.18536 0.82472 0.0
C2094 C 0.40499 0.21457 0.84518 0.0
C2095 C 0.39841 0.19562 0.86057 0.0
C2096 C 0.37581 0.17139 0.85758 0.0
C2097 C 0.36002 0.16643 0.83998 0.0
H2098 H 0.84063 0.28039 0.90279 0.0
H2099 H 0.79257 0.20028 0.91888 0.0
H2100 H 0.85335 0.26864 0.87043 0.0
H2101 H 0.80503 0.18848 0.88596 0.0
H2102 H 0.82002 0.18147 0.8147 0.0
H2103 H 0.80241 0.19178 0.84569 0.0
H2104 H 0.88158 0.24863 0.86343 0.0
H2105 H 0.89901 0.2384 0.83274 0.0
C2106 C 0.83279 0.26022 0.89945 0.0
C2107 C 0.81608 0.24128 0.91372 0.0
C2108 C 0.84001 0.25351 0.88083 0.0
C2109 C 0.8305 0.22767 0.87579 0.0
C2110 C 0.81264 0.20857 0.88944 0.0
C2111 C 0.80552 0.21532 0.90827 0.0
C2112 C 0.83355 0.19627 0.82521 0.0
C2113 C 0.86089 0.20912 0.82135 0.0
C2114 C 0.82352 0.20201 0.84298 0.0
C2115 C 0.84062 0.22104 0.85695 0.0
C2116 C 0.86788 0.23403 0.85288 0.0
C2117 C 0.87789 0.22807 0.83537 0.0
H2118 H 0.23449 0.06363 0.46606 0.0
H2119 H 0.26065 0.14223 0.44902 0.0
H2120 H 0.26246 0.07821 0.49667 0.0
H2121 H 0.28856 0.15689 0.48023 0.0
H2122 H 0.31501 0.16557 0.55114 0.0
H2123 H 0.28554 0.15379 0.52094 0.0
H2124 H 0.31228 0.10228 0.50032 0.0
H2125 H 0.34135 0.1138 0.53034 0.0
C2126 C 0.24629 0.08408 0.46883 0.0
C2127 C 0.24584 0.10182 0.45483 0.0
C2128 C 0.26224 0.0924 0.48641 0.0
C2129 C 0.27799 0.11867 0.49062 0.0
C2130 C 0.2766 0.1365 0.47729 0.0
C2131 C 0.26066 0.12813 0.45948 0.0
C2132 C 0.3145 0.15173 0.54011 0.0
C2133 C 0.33044 0.14058 0.54307 0.0
C2134 C 0.29785 0.14517 0.5228 0.0
C2135 C 0.29657 0.12705 0.50838 0.0
C2136 C 0.31269 0.11613 0.51129 0.0
C2137 C 0.32948 0.12287 0.52839 0.0
H2138 H 0.92384 0.11879 0.4671 0.0
H2139 H 0.90496 0.16912 0.43274 0.0
H2140 H 0.9046 0.12584 0.49858 0.0
H2141 H 0.88508 0.17567 0.46413 0.0
H2142 H 0.82378 0.14981 0.51945 0.0
H2143 H 0.8437 0.14352 0.48839 0.0
H2144 H 0.91627 0.16788 0.52176 0.0
H2145 H 0.89715 0.17587 0.55266 0.0
C2146 C 0.91537 0.13119 0.46629 0.0
C2147 C 0.91574 0.14334 0.44753 0.0
C2148 C 0.90455 0.13533 0.48428 0.0
C2149 C 0.89338 0.15127 0.48373 0.0
C2150 C 0.89349 0.16321 0.46491 0.0
C2151 C 0.90487 0.15953 0.44702 0.0
C2152 C 0.84416 0.15435 0.52022 0.0
C2153 C 0.85883 0.16366 0.53872 0.0
C2154 C 0.85546 0.15054 0.50239 0.0
C2155 C 0.8815 0.15531 0.5027 0.0
C2156 C 0.89606 0.16395 0.52119 0.0
C2157 C 0.88497 0.16832 0.53894 0.0
H2158 H 0.84346 0.73366 0.43383 0.0
H2159 H 0.90935 0.79661 0.4648 0.0
H2160 H 0.83097 0.70922 0.4661 0.0
H2161 H 0.89657 0.77236 0.4974 0.0
H2162 H 0.87536 0.71082 0.54912 0.0
H2163 H 0.89175 0.73576 0.51694 0.0
H2164 H 0.81149 0.71042 0.49823 0.0
H2165 H 0.79534 0.6854 0.52997 0.0
C2166 C 0.85535 0.74223 0.44756 0.0
C2167 C 0.87728 0.76713 0.44677 0.0
C2168 C 0.8481 0.7283 0.46614 0.0
C2169 C 0.86243 0.73895 0.48456 0.0
C2170 C 0.8851 0.76346 0.48356 0.0
C2171 C 0.89247 0.77737 0.46486 0.0
C2172 C 0.86131 0.71084 0.53818 0.0
C2173 C 0.83404 0.69587 0.54199 0.0
C2174 C 0.87068 0.7251 0.51971 0.0
C2175 C 0.85296 0.72479 0.50472 0.0
C2176 C 0.82575 0.71056 0.50903 0.0
C2177 C 0.81645 0.69628 0.52733 0.0
loop_
_geom_bond_atom_site_label_1
_geom_bond_atom_site_label_2
_geom_bond_distance
_geom_bond_site_symmetry_2
_ccdc_geom_bond_type
H0 C1 0.949 . S
C1 H0 0.949 . S
C1 C2 1.395 . S
C1 C3 1.391 . S
C2 C1 1.395 . S
C2 C5 1.390 . S
C3 C1 1.391 . S
C3 C7 1.387 . S
C3 C8 1.491 . S
H4 C5 0.950 . S
C5 C2 1.390 . S
C5 H4 0.950 . S
C5 C6 1.378 . S
C6 C5 1.378 . S
C6 C7 1.409 . S
C7 C3 1.387 . S
C7 C6 1.409 . S
C7 H9 0.951 . S
C8 C3 1.491 . S
C8 C10 1.382 . S
C8 C12 1.404 . S
H9 C7 0.951 . S
C10 C8 1.382 . S
C10 C11 1.390 . S
C10 H15 0.949 . S
C11 C10 1.390 . S
C11 C16 1.399 . S
C12 C8 1.404 . S
C12 H13 0.950 . S
C12 C14 1.375 . S
H13 C12 0.950 . S
C14 C12 1.375 . S
C14 C16 1.382 . S
C14 H18 0.950 . S
H15 C10 0.949 . S
C16 C11 1.399 . S
C16 C14 1.382 . S
C16 H17 0.952 . S
H17 C16 0.952 . S
H18 C14 0.950 . S
H19 C20 0.949 . S
C20 H19 0.949 . S
C20 C21 1.395 . S
C20 C22 1.391 . S
C21 C20 1.395 . S
C21 C24 1.390 . S
C22 C20 1.391 . S
C22 C26 1.387 . S
C22 C27 1.491 . S
H23 C24 0.950 . S
C24 C21 1.390 . S
C24 H23 0.950 . S
C24 C25 1.378 . S
C25 C24 1.378 . S
C25 C26 1.409 . S
C26 C22 1.387 . S
C26 C25 1.409 . S
C26 H28 0.951 . S
C27 C22 1.491 . S
C27 C29 1.382 . S
C27 C31 1.404 . S
H28 C26 0.951 . S
C29 C27 1.382 . S
C29 C30 1.390 . S
C29 H34 0.949 . S
C30 C29 1.390 . S
C30 C35 1.399 . S
C31 C27 1.404 . S
C31 H32 0.950 . S
C31 C33 1.375 . S
H32 C31 0.950 . S
C33 C31 1.375 . S
C33 C35 1.382 . S
C33 H37 0.950 . S
H34 C29 0.949 . S
C35 C30 1.399 . S
C35 C33 1.382 . S
C35 H36 0.952 1_545 S
H36 C35 0.952 1_565 S
H37 C33 0.950 . S
H38 C39 0.949 . S
C39 H38 0.949 . S
C39 C40 1.395 . S
C39 C41 1.391 . S
C40 C39 1.395 . S
C40 C43 1.390 . S
C41 C39 1.391 . S
C41 C45 1.387 . S
C41 C46 1.491 . S
H42 C43 0.950 . S
C43 C40 1.390 . S
C43 H42 0.950 . S
C43 C44 1.378 . S
C44 C43 1.378 . S
C44 C45 1.409 . S
C45 C41 1.387 . S
C45 C44 1.409 . S
C45 H47 0.951 . S
C46 C41 1.491 . S
C46 C48 1.382 . S
C46 C50 1.404 . S
H47 C45 0.951 . S
C48 C46 1.382 . S
C48 C49 1.390 . S
C48 H53 0.949 . S
C49 C48 1.390 . S
C49 C54 1.399 1_655 S
C50 C46 1.404 . S
C50 H51 0.950 . S
C50 C52 1.375 . S
H51 C50 0.950 . S
C52 C50 1.375 . S
C52 C54 1.382 1_655 S
C52 H56 0.950 . S
H53 C48 0.949 . S
C54 C49 1.399 1_455 S
C54 C52 1.382 1_455 S
C54 H55 0.952 . S
H55 C54 0.952 . S
H56 C52 0.950 . S
H57 C58 0.949 . S
C58 H57 0.949 . S
C58 C59 1.395 . S
C58 C60 1.391 . S
C59 C58 1.395 . S
C59 C62 1.390 . S
C60 C58 1.391 . S
C60 C64 1.387 . S
C60 C65 1.491 . S
H61 C62 0.950 . S
C62 C59 1.390 . S
C62 H61 0.950 . S
C62 C63 1.378 . S
C63 C62 1.378 . S
C63 C64 1.409 . S
C64 C60 1.387 . S
C64 C63 1.409 . S
C64 H66 0.951 . S
C65 C60 1.491 . S
C65 C67 1.382 . S
C65 C69 1.404 . S
H66 C64 0.951 . S
C67 C65 1.382 . S
C67 C68 1.390 . S
C67 H72 0.949 . S
C68 C67 1.390 . S
C68 C73 1.399 . S
C69 C65 1.404 . S
C69 H70 0.950 . S
C69 C71 1.375 . S
H70 C69 0.950 . S
C71 C69 1.375 . S
C71 C73 1.382 . S
C71 H75 0.950 . S
H72 C67 0.949 . S
C73 C68 1.399 . S
C73 C71 1.382 . S
C73 H74 0.952 . S
H74 C73 0.952 . S
H75 C71 0.950 . S
H76 C77 0.949 . S
C77 H76 0.949 . S
C77 C78 1.395 . S
C77 C79 1.391 . S
C78 C77 1.395 . S
C78 C81 1.390 . S
C79 C77 1.391 . S
C79 C83 1.387 . S
C79 C84 1.491 . S
H80 C81 0.950 . S
C81 C78 1.390 . S
C81 H80 0.950 . S
C81 C82 1.378 . S
C82 C81 1.378 . S
C82 C83 1.409 . S
C83 C79 1.387 . S
C83 C82 1.409 . S
C83 H85 0.951 . S
C84 C79 1.491 . S
C84 C86 1.382 . S
C84 C88 1.404 . S
H85 C83 0.951 . S
C86 C84 1.382 . S
C86 C87 1.390 . S
C86 H91 0.949 . S
C87 C86 1.390 . S
C87 C92 1.399 . S
C88 C84 1.404 . S
C88 H89 0.950 . S
C88 C90 1.375 . S
H89 C88 0.950 . S
C90 C88 1.375 . S
C90 C92 1.382 . S
C90 H94 0.950 . S
H91 C86 0.949 . S
C92 C87 1.399 . S
C92 C90 1.382 . S
C92 H93 0.952 1_565 S
H93 C92 0.952 1_545 S
H94 C90 0.950 . S
H95 C96 0.949 . S
C96 H95 0.949 . S
C96 C97 1.395 . S
C96 C98 1.391 . S
C97 C96 1.395 . S
C97 C100 1.390 . S
C98 C96 1.391 . S
C98 C102 1.387 . S
C98 C103 1.491 . S
H99 C100 0.950 . S
C100 C97 1.390 . S
C100 H99 0.950 . S
C100 C101 1.378 . S
C101 C100 1.378 . S
C101 C102 1.409 . S
C102 C98 1.387 . S
C102 C101 1.409 . S
C102 H104 0.951 . S
C103 C98 1.491 . S
C103 C105 1.382 . S
C103 C107 1.404 . S
H104 C102 0.951 . S
C105 C103 1.382 . S
C105 C106 1.390 . S
C105 H110 0.949 . S
C106 C105 1.390 . S
C106 C111 1.399 . S
C107 C103 1.404 . S
C107 H108 0.950 . S
C107 C109 1.375 . S
H108 C107 0.950 . S
C109 C107 1.375 . S
C109 C111 1.382 . S
C109 H113 0.950 . S
H110 C105 0.949 . S
C111 C106 1.399 . S
C111 C109 1.382 . S
C111 H112 0.952 1_455 S
H112 C111 0.952 1_655 S
H113 C109 0.950 . S
H114 C115 0.949 . S
C115 H114 0.949 . S
C115 C116 1.395 . S
C115 C117 1.391 . S
C116 C115 1.395 . S
C116 C119 1.390 . S
C117 C115 1.391 . S
C117 C121 1.387 . S
C117 C122 1.491 . S
H118 C119 0.950 . S
C119 C116 1.390 . S
C119 H118 0.950 . S
C119 C120 1.378 . S
C120 C119 1.378 . S
C120 C121 1.409 . S
C121 C117 1.387 . S
C121 C120 1.409 . S
C121 H123 0.951 . S
C122 C117 1.491 . S
C122 C124 1.382 . S
C122 C126 1.404 . S
H123 C121 0.951 . S
C124 C122 1.382 . S
C124 C125 1.390 . S
C124 H129 0.949 . S
C125 C124 1.390 . S
C125 C130 1.399 . S
C126 C122 1.404 . S
C126 H127 0.950 . S
C126 C128 1.375 . S
H127 C126 0.950 . S
C128 C126 1.375 . S
C128 C130 1.382 . S
C128 H132 0.950 . S
H129 C124 0.949 . S
C130 C125 1.399 . S
C130 C128 1.382 . S
C130 H131 0.952 . S
H131 C130 0.952 . S
H132 C128 0.950 . S
H133 C134 0.949 . S
C134 H133 0.949 . S
C134 C135 1.395 . S
C134 C136 1.391 . S
C135 C134 1.395 . S
C135 C138 1.390 . S
C136 C134 1.391 . S
C136 C140 1.387 . S
C136 C141 1.491 . S
H137 C138 0.950 . S
C138 C135 1.390 . S
C138 H137 0.950 . S
C138 C139 1.378 . S
C139 C138 1.378 . S
C139 C140 1.409 . S
C140 C136 1.387 . S
C140 C139 1.409 . S
C140 H142 0.951 . S
C141 C136 1.491 . S
C141 C143 1.382 . S
C141 C145 1.404 . S
H142 C140 0.951 . S
C143 C141 1.382 . S
C143 C144 1.390 . S
C143 H148 0.949 . S
C144 C143 1.390 . S
C144 C149 1.399 . S
C145 C141 1.404 . S
C145 H146 0.950 . S
C145 C147 1.375 . S
H146 C145 0.950 . S
C147 C145 1.375 . S
C147 C149 1.382 . S
C147 H151 0.950 . S
H148 C143 0.949 . S
C149 C144 1.399 . S
C149 C147 1.382 . S
C149 H150 0.952 . S
H150 C149 0.952 . S
H151 C147 0.950 . S
H152 C153 0.949 . S
C153 H152 0.949 . S
C153 C154 1.395 . S
C153 C155 1.391 . S
C154 C153 1.395 . S
C154 C157 1.390 . S
C155 C153 1.391 . S
C155 C159 1.387 . S
C155 C160 1.491 . S
H156 C157 0.950 . S
C157 C154 1.390 . S
C157 H156 0.950 . S
C157 C158 1.378 . S
C158 C157 1.378 . S
C158 C159 1.409 . S
C159 C155 1.387 . S
C159 C158 1.409 . S
C159 H161 0.951 . S
C160 C155 1.491 . S
C160 C162 1.382 . S
C160 C164 1.404 . S
H161 C159 0.951 . S
C162 C160 1.382 . S
C162 C163 1.390 . S
C162 H167 0.949 . S
C163 C162 1.390 . S
C163 C168 1.399 . S
C164 C160 1.404 . S
C164 H165 0.950 . S
C164 C166 1.375 . S
H165 C164 0.950 . S
C166 C164 1.375 . S
C166 C168 1.382 . S
C166 H170 0.950 . S
H167 C162 0.949 . S
C168 C163 1.399 . S
C168 C166 1.382 . S
C168 H169 0.952 . S
H169 C168 0.952 . S
H170 C166 0.950 . S
H171 C172 0.949 . S
C172 H171 0.949 . S
C172 C173 1.395 . S
C172 C174 1.391 . S
C173 C172 1.395 . S
C173 C176 1.390 . S
C174 C172 1.391 . S
C174 C178 1.387 . S
C174 C179 1.491 . S
H175 C176 0.950 . S
C176 C173 1.390 . S
C176 H175 0.950 . S
C176 C177 1.378 . S
C177 C176 1.378 . S
C177 C178 1.409 . S
C178 C174 1.387 . S
C178 C177 1.409 . S
C178 H180 0.951 . S
C179 C174 1.491 . S
C179 C181 1.382 . S
C179 C183 1.404 . S
H180 C178 0.951 . S
C181 C179 1.382 . S
C181 C182 1.390 . S
C181 H186 0.949 . S
C182 C181 1.390 . S
C182 C187 1.399 . S
C183 C179 1.404 . S
C183 H184 0.950 . S
C183 C185 1.375 . S
H184 C183 0.950 . S
C185 C183 1.375 . S
C185 C187 1.382 . S
C185 H189 0.950 . S
H186 C181 0.949 . S
C187 C182 1.399 . S
C187 C185 1.382 . S
C187 H188 0.952 . S
H188 C187 0.952 . S
H189 C185 0.950 . S
H190 C191 0.949 . S
C191 H190 0.949 . S
C191 C192 1.395 . S
C191 C193 1.391 . S
C192 C191 1.395 . S
C192 C195 1.390 . S
C193 C191 1.391 . S
C193 C197 1.387 . S
C193 C198 1.491 . S
H194 C195 0.950 . S
C195 C192 1.390 . S
C195 H194 0.950 . S
C195 C196 1.378 . S
C196 C195 1.378 . S
C196 C197 1.409 . S
C197 C193 1.387 . S
C197 C196 1.409 . S
C197 H199 0.951 . S
C198 C193 1.491 . S
C198 C200 1.382 . S
C198 C202 1.404 . S
H199 C197 0.951 . S
C200 C198 1.382 . S
C200 C201 1.390 . S
C200 H205 0.949 . S
C201 C200 1.390 . S
C201 C206 1.399 . S
C202 C198 1.404 . S
C202 H203 0.950 . S
C202 C204 1.375 . S
H203 C202 0.950 . S
C204 C202 1.375 . S
C204 C206 1.382 . S
C204 H208 0.950 1_556 S
H205 C200 0.949 . S
C206 C201 1.399 . S
C206 C204 1.382 . S
C206 H207 0.943 1_556 S
H207 C206 0.943 1_554 S
H208 C204 0.950 1_554 S
H209 C210 0.949 . S
C210 H209 0.949 . S
C210 C211 1.395 . S
C210 C212 1.391 . S
C211 C210 1.395 . S
C211 C214 1.390 . S
C212 C210 1.391 . S
C212 C216 1.387 . S
C212 C217 1.491 . S
H213 C214 0.950 . S
C214 C211 1.390 . S
C214 H213 0.950 . S
C214 C215 1.378 . S
C215 C214 1.378 . S
C215 C216 1.409 . S
C216 C212 1.387 . S
C216 C215 1.409 . S
C216 H218 0.951 . S
C217 C212 1.491 . S
C217 C219 1.382 . S
C217 C221 1.404 . S
H218 C216 0.951 . S
C219 C217 1.382 . S
C219 C220 1.390 . S
C219 H224 0.949 . S
C220 C219 1.390 . S
C220 C225 1.399 . S
C221 C217 1.404 . S
C221 H222 0.950 . S
C221 C223 1.375 . S
H222 C221 0.950 . S
C223 C221 1.375 . S
C223 C225 1.382 . S
C223 H227 0.950 . S
H224 C219 0.949 . S
C225 C220 1.399 . S
C225 C223 1.382 . S
C225 H226 0.952 . S
H226 C225 0.952 . S
H227 C223 0.950 . S
H228 C229 0.949 . S
C229 H228 0.949 . S
C229 C230 1.395 . S
C229 C231 1.391 . S
C230 C229 1.395 . S
C230 C233 1.390 . S
C231 C229 1.391 . S
C231 C235 1.387 . S
C231 C236 1.491 . S
H232 C233 0.950 . S
C233 C230 1.390 . S
C233 H232 0.950 . S
C233 C234 1.378 . S
C234 C233 1.378 . S
C234 C235 1.409 . S
C235 C231 1.387 . S
C235 C234 1.409 . S
C235 H237 0.951 . S
C236 C231 1.491 . S
C236 C238 1.382 . S
C236 C240 1.404 . S
H237 C235 0.951 . S
C238 C236 1.382 . S
C238 C239 1.390 . S
C238 H243 0.949 . S
C239 C238 1.390 . S
C239 C244 1.399 . S
C240 C236 1.404 . S
C240 H241 0.950 . S
C240 C242 1.375 . S
H241 C240 0.950 . S
C242 C240 1.375 . S
C242 C244 1.382 . S
C242 H246 0.950 . S
H243 C238 0.949 . S
C244 C239 1.399 . S
C244 C242 1.382 . S
C244 H245 0.952 . S
H245 C244 0.952 . S
H246 C242 0.950 . S
H247 C248 0.949 . S
C248 H247 0.949 . S
C248 C249 1.395 . S
C248 C250 1.391 . S
C249 C248 1.395 . S
C249 C252 1.390 . S
C250 C248 1.391 . S
C250 C254 1.387 . S
C250 C255 1.491 . S
H251 C252 0.950 . S
C252 C249 1.390 . S
C252 H251 0.950 . S
C252 C253 1.378 . S
C253 C252 1.378 . S
C253 C254 1.409 . S
C254 C250 1.387 . S
C254 C253 1.409 . S
C254 H256 0.951 . S
C255 C250 1.491 . S
C255 C257 1.382 . S
C255 C259 1.404 . S
H256 C254 0.951 . S
C257 C255 1.382 . S
C257 C258 1.390 . S
C257 H262 0.949 . S
C258 C257 1.390 . S
C258 C263 1.399 . S
C259 C255 1.404 . S
C259 H260 0.950 . S
C259 C261 1.375 . S
H260 C259 0.950 . S
C261 C259 1.375 . S
C261 C263 1.382 . S
C261 H265 0.950 . S
H262 C257 0.949 . S
C263 C258 1.399 . S
C263 C261 1.382 . S
C263 H264 0.952 . S
H264 C263 0.952 . S
H265 C261 0.950 . S
H266 C267 0.949 . S
C267 H266 0.949 . S
C267 C268 1.395 . S
C267 C269 1.391 . S
C268 C267 1.395 . S
C268 C271 1.390 . S
C269 C267 1.391 . S
C269 C273 1.387 . S
C269 C274 1.491 . S
H270 C271 0.950 . S
C271 C268 1.390 . S
C271 H270 0.950 . S
C271 C272 1.378 . S
C272 C271 1.378 . S
C272 C273 1.409 . S
C273 C269 1.387 . S
C273 C272 1.409 . S
C273 H275 0.951 . S
C274 C269 1.491 . S
C274 C276 1.382 . S
C274 C278 1.404 . S
H275 C273 0.951 . S
C276 C274 1.382 . S
C276 C277 1.390 . S
C276 H281 0.949 . S
C277 C276 1.390 . S
C277 C282 1.399 . S
C278 C274 1.404 . S
C278 H279 0.950 . S
C278 C280 1.375 . S
H279 C278 0.950 . S
C280 C278 1.375 . S
C280 C282 1.382 . S
C280 H284 0.950 . S
H281 C276 0.949 . S
C282 C277 1.399 . S
C282 C280 1.382 . S
C282 H283 0.952 . S
H283 C282 0.952 . S
H284 C280 0.950 . S
H285 C286 0.949 . S
C286 H285 0.949 . S
C286 C287 1.395 . S
C286 C288 1.391 . S
C287 C286 1.395 . S
C287 C290 1.390 . S
C288 C286 1.391 . S
C288 C292 1.387 . S
C288 C293 1.491 . S
H289 C290 0.950 . S
C290 C287 1.390 . S
C290 H289 0.950 . S
C290 C291 1.378 . S
C291 C290 1.378 . S
C291 C292 1.409 . S
C292 C288 1.387 . S
C292 C291 1.409 . S
C292 H294 0.951 . S
C293 C288 1.491 . S
C293 C295 1.382 . S
C293 C297 1.404 . S
H294 C292 0.951 . S
C295 C293 1.382 . S
C295 C296 1.390 . S
C295 H300 0.949 . S
C296 C295 1.390 . S
C296 C301 1.399 . S
C297 C293 1.404 . S
C297 H298 0.950 . S
C297 C299 1.375 . S
H298 C297 0.950 . S
C299 C297 1.375 . S
C299 C301 1.382 . S
C299 H303 0.950 . S
H300 C295 0.949 . S
C301 C296 1.399 . S
C301 C299 1.382 . S
C301 H302 0.952 . S
H302 C301 0.952 . S
H303 C299 0.950 . S
H304 C305 0.949 . S
C305 H304 0.949 . S
C305 C306 1.395 . S
C305 C307 1.391 . S
C306 C305 1.395 . S
C306 C309 1.390 . S
C307 C305 1.391 . S
C307 C311 1.387 . S
C307 C312 1.491 . S
H308 C309 0.950 . S
C309 C306 1.390 . S
C309 H308 0.950 . S
C309 C310 1.378 . S
C310 C309 1.378 . S
C310 C311 1.409 . S
C311 C307 1.387 . S
C311 C310 1.409 . S
C311 H313 0.951 . S
C312 C307 1.491 . S
C312 C314 1.382 . S
C312 C316 1.404 . S
H313 C311 0.951 . S
C314 C312 1.382 . S
C314 C315 1.390 . S
C314 H319 0.949 . S
C315 C314 1.390 . S
C315 C320 1.399 . S
C316 C312 1.404 . S
C316 H317 0.950 . S
C316 C318 1.375 . S
H317 C316 0.950 . S
C318 C316 1.375 . S
C318 C320 1.382 . S
C318 H322 0.950 . S
H319 C314 0.949 . S
C320 C315 1.399 . S
C320 C318 1.382 . S
C320 H321 0.952 . S
H321 C320 0.952 . S
H322 C318 0.950 . S
H323 C324 0.949 . S
C324 H323 0.949 . S
C324 C325 1.395 . S
C324 C326 1.391 . S
C325 C324 1.395 . S
C325 C328 1.390 . S
C326 C324 1.391 . S
C326 C330 1.387 . S
C326 C331 1.491 . S
H327 C328 0.950 . S
C328 C325 1.390 . S
C328 H327 0.950 . S
C328 C329 1.378 . S
C329 C328 1.378 . S
C329 C330 1.409 . S
C330 C326 1.387 . S
C330 C329 1.409 . S
C330 H332 0.951 . S
C331 C326 1.491 . S
C331 C333 1.382 . S
C331 C335 1.404 . S
H332 C330 0.951 . S
C333 C331 1.382 . S
C333 C334 1.390 . S
C333 H338 0.949 . S
C334 C333 1.390 . S
C334 C339 1.399 . S
C335 C331 1.404 . S
C335 H336 0.950 . S
C335 C337 1.375 . S
H336 C335 0.950 . S
C337 C335 1.375 . S
C337 C339 1.382 . S
C337 H341 0.950 . S
H338 C333 0.949 . S
C339 C334 1.399 . S
C339 C337 1.382 . S
C339 H340 0.952 . S
H340 C339 0.952 . S
H341 C337 0.950 . S
Gd342 N373 2.661 . S
Gd342 N379 2.601 . S
Gd342 O386 2.545 . S
Gd342 O387 2.606 1_545 S
Gd342 O389 2.429 . S
Gd342 O390 2.545 1_545 S
Gd342 O391 2.412 1_545 S
Gd342 O393 2.362 . S
Gd342 O394 2.324 1_545 S
Gd342 C401 2.828 1_545 S
Gd343 N352 2.661 . S
Gd343 N356 2.601 . S
Gd343 O387 2.362 1_556 S
Gd343 O388 2.324 1_565 S
Gd343 O392 2.545 . S
Gd343 O393 2.606 1_566 S
Gd343 O395 2.429 . S
Gd343 O396 2.545 1_565 S
Gd343 O397 2.412 1_565 S
Gd343 C410 2.828 1_565 S
C344 C347 1.417 . S
C344 C349 1.431 . S
C344 C350 1.412 . S
C345 C348 1.437 . S
C345 C349 1.317 . S
C345 H364 0.929 . S
C346 C347 1.426 . S
C346 C348 1.413 . S
C346 N356 1.359 . S
C347 C344 1.417 . S
C347 C346 1.426 . S
C347 N352 1.350 . S
C348 C345 1.437 . S
C348 C346 1.413 . S
C348 C358 1.391 . S
C349 C344 1.431 . S
C349 C345 1.317 . S
C349 H360 0.930 . S
C350 C344 1.412 . S
C350 C351 1.355 . S
C350 H362 0.930 . S
C351 C350 1.355 . S
C351 C353 1.402 . S
C351 H363 0.930 . S
N352 Gd343 2.661 . S
N352 C347 1.350 . S
N352 C353 1.307 . S
C353 C351 1.402 . S
C353 N352 1.307 . S
C353 H354 0.936 . S
H354 C353 0.936 . S
C355 N356 1.334 . S
C355 C357 1.394 . S
C355 H359 0.930 . S
N356 Gd343 2.601 . S
N356 C346 1.359 . S
N356 C355 1.334 . S
C357 C355 1.394 . S
C357 C358 1.359 . S
C357 H369 0.930 . S
C358 C348 1.391 . S
C358 C357 1.359 . S
C358 H370 0.929 . S
H359 C355 0.930 . S
H360 C349 0.930 . S
H361 C378 0.930 . S
H362 C350 0.930 . S
H363 C351 0.930 . S
H364 C345 0.929 . S
H365 C383 0.930 . S
H366 C374 0.930 . S
H367 C375 0.930 . S
H368 C399 0.929 . S
H369 C357 0.930 . S
H370 C358 0.929 . S
H371 C400 0.930 . S
H372 C381 0.930 . S
N373 Gd342 2.661 . S
N373 C377 1.350 . S
N373 C378 1.307 . S
C374 H366 0.930 . S
C374 C375 1.355 . S
C374 C376 1.412 . S
C375 H367 0.930 . S
C375 C374 1.355 . S
C375 C378 1.402 . S
C376 C374 1.412 . S
C376 C377 1.417 . S
C376 C400 1.431 . S
C377 N373 1.350 . S
C377 C376 1.417 . S
C377 C380 1.426 . S
C378 H361 0.930 . S
C378 N373 1.307 . S
C378 C375 1.402 . S
N379 Gd342 2.601 . S
N379 C380 1.359 . S
N379 C383 1.334 . S
C380 C377 1.426 . S
C380 N379 1.359 . S
C380 C384 1.413 . S
C381 H372 0.930 . S
C381 C382 1.359 . S
C381 C383 1.394 . S
C382 C381 1.359 . S
C382 C384 1.391 . S
C382 H385 0.929 . S
C383 H365 0.930 . S
C383 N379 1.334 . S
C383 C381 1.394 . S
C384 C380 1.413 . S
C384 C382 1.391 . S
C384 C399 1.437 . S
H385 C382 0.929 . S
O386 Gd342 2.545 . S
O386 C401 1.257 1_545 S
O387 Gd342 2.606 1_565 S
O387 Gd343 2.362 1_554 S
O387 C398 1.284 . S
O388 Gd343 2.324 1_545 S
O388 C408 1.254 1_556 S
O389 Gd342 2.429 . S
O389 C408 1.268 . S
O390 Gd342 2.545 1_565 S
O390 C398 1.250 . S
O391 Gd342 2.412 1_565 S
O391 C401 1.252 . S
O392 Gd343 2.545 . S
O392 C410 1.258 1_565 S
O393 Gd342 2.362 . S
O393 Gd343 2.606 1_544 S
O393 C409 1.284 1_554 S
O394 Gd342 2.324 1_565 S
O394 C417 1.254 . S
O395 Gd343 2.429 . S
O395 C417 1.268 1_556 S
O396 Gd343 2.545 1_545 S
O396 C409 1.250 . S
O397 Gd343 2.412 1_545 S
O397 C410 1.252 . S
C398 O387 1.284 . S
C398 O390 1.250 . S
C399 H368 0.929 . S
C399 C384 1.437 . S
C399 C400 1.317 . S
C400 H371 0.930 . S
C400 C376 1.431 . S
C400 C399 1.317 . S
C401 Gd342 2.828 1_565 S
C401 O386 1.257 1_565 S
C401 O391 1.252 . S
C401 C402 1.497 . S
C402 C401 1.497 . S
C402 C403 1.395 1_565 S
C402 C404 1.380 . S
C403 C402 1.395 1_545 S
C403 C406 1.398 1_545 S
C403 H418 0.930 . S
C404 C402 1.380 . S
C404 C405 1.391 . S
C404 H419 0.930 . S
C405 C404 1.391 . S
C405 C407 1.387 . S
C406 C403 1.398 1_565 S
C406 C407 1.380 . S
C406 H420 0.930 1_565 S
C407 C405 1.387 . S
C407 C406 1.380 . S
C407 H421 0.930 . S
C408 O388 1.254 1_554 S
C408 O389 1.268 . S
C409 O393 1.284 1_556 S
C409 O396 1.250 . S
C410 Gd343 2.828 1_545 S
C410 O392 1.258 1_545 S
C410 O397 1.252 . S
C410 C411 1.497 . S
C411 C410 1.497 . S
C411 C412 1.395 1_545 S
C411 C413 1.380 . S
C412 C411 1.395 1_565 S
C412 C415 1.398 1_565 S
C412 H422 0.930 . S
C413 C411 1.380 . S
C413 C414 1.391 . S
C413 H423 0.930 . S
C414 C413 1.391 . S
C414 C416 1.387 . S
C415 C412 1.398 1_545 S
C415 C416 1.380 . S
C415 H424 0.930 1_545 S
C416 C414 1.387 . S
C416 C415 1.380 . S
C416 H425 0.930 . S
C417 O394 1.254 . S
C417 O395 1.268 1_554 S
H418 C403 0.930 . S
H419 C404 0.930 . S
H420 C406 0.930 1_545 S
H421 C407 0.930 . S
H422 C412 0.930 . S
H423 C413 0.930 . S
H424 C415 0.930 1_565 S
H425 C416 0.930 . S
Gd426 N457 2.661 . S
Gd426 N463 2.601 . S
Gd426 O470 2.545 . S
Gd426 O471 2.606 1_655 S
Gd426 O473 2.429 . S
Gd426 O474 2.545 1_655 S
Gd426 O475 2.412 1_655 S
Gd426 O477 2.362 . S
Gd426 O478 2.324 1_655 S
Gd426 C485 2.828 1_655 S
Gd427 N436 2.661 . S
Gd427 N440 2.601 . S
Gd427 O471 2.362 1_556 S
Gd427 O472 2.324 1_455 S
Gd427 O476 2.545 . S
Gd427 O477 2.606 1_456 S
Gd427 O479 2.429 . S
Gd427 O480 2.545 1_455 S
Gd427 O481 2.412 1_455 S
Gd427 C494 2.828 . S
C428 C431 1.417 . S
C428 C433 1.431 . S
C428 C434 1.412 . S
C429 C432 1.437 . S
C429 C433 1.317 . S
C429 H448 0.929 . S
C430 C431 1.426 . S
C430 C432 1.413 . S
C430 N440 1.359 . S
C431 C428 1.417 . S
C431 C430 1.426 . S
C431 N436 1.350 . S
C432 C429 1.437 . S
C432 C430 1.413 . S
C432 C442 1.391 . S
C433 C428 1.431 . S
C433 C429 1.317 . S
C433 H444 0.930 . S
C434 C428 1.412 . S
C434 C435 1.355 . S
C434 H446 0.930 . S
C435 C434 1.355 . S
C435 C437 1.402 . S
C435 H447 0.930 . S
N436 Gd427 2.661 . S
N436 C431 1.350 . S
N436 C437 1.307 . S
C437 C435 1.402 . S
C437 N436 1.307 . S
C437 H438 0.930 . S
H438 C437 0.930 . S
C439 N440 1.334 . S
C439 C441 1.394 . S
C439 H443 0.930 . S
N440 Gd427 2.601 . S
N440 C430 1.359 . S
N440 C439 1.334 . S
C441 C439 1.394 . S
C441 C442 1.359 . S
C441 H453 0.930 . S
C442 C432 1.391 . S
C442 C441 1.359 . S
C442 H454 0.929 . S
H443 C439 0.930 . S
H444 C433 0.930 . S
H445 C462 0.913 1_455 S
H446 C434 0.930 . S
H447 C435 0.930 . S
H448 C429 0.929 . S
H449 C467 0.930 . S
H450 C458 0.930 . S
H451 C459 0.930 . S
H452 C483 0.929 . S
H453 C441 0.930 . S
H454 C442 0.929 . S
H455 C484 0.930 . S
H456 C465 0.930 . S
N457 Gd426 2.661 . S
N457 C461 1.350 . S
N457 C462 1.307 . S
C458 H450 0.930 . S
C458 C459 1.355 . S
C458 C460 1.412 . S
C459 H451 0.930 . S
C459 C458 1.355 . S
C459 C462 1.402 . S
C460 C458 1.412 . S
C460 C461 1.417 . S
C460 C484 1.431 . S
C461 N457 1.350 . S
C461 C460 1.417 . S
C461 C464 1.426 . S
C462 H445 0.913 1_655 S
C462 N457 1.307 . S
C462 C459 1.402 . S
N463 Gd426 2.601 . S
N463 C464 1.359 . S
N463 C467 1.334 . S
C464 C461 1.426 . S
C464 N463 1.359 . S
C464 C468 1.413 . S
C465 H456 0.930 . S
C465 C466 1.359 . S
C465 C467 1.394 . S
C466 C465 1.359 . S
C466 C468 1.391 . S
C466 H469 0.929 . S
C467 H449 0.930 . S
C467 N463 1.334 . S
C467 C465 1.394 . S
C468 C464 1.413 . S
C468 C466 1.391 . S
C468 C483 1.437 . S
H469 C466 0.929 . S
O470 Gd426 2.545 . S
O470 C485 1.258 1_655 S
O471 Gd426 2.606 1_455 S
O471 Gd427 2.362 1_554 S
O471 C482 1.284 . S
O472 Gd427 2.324 1_655 S
O472 C492 1.254 1_556 S
O473 Gd426 2.429 . S
O473 C492 1.268 . S
O474 Gd426 2.545 1_455 S
O474 C482 1.250 . S
O475 Gd426 2.412 1_455 S
O475 C485 1.252 . S
O476 Gd427 2.545 . S
O476 C494 1.258 . S
O477 Gd426 2.362 . S
O477 Gd427 2.606 1_654 S
O477 C493 1.284 1_554 S
O478 Gd426 2.324 1_455 S
O478 C501 1.254 . S
O479 Gd427 2.429 . S
O479 C501 1.268 1_556 S
O480 Gd427 2.545 1_655 S
O480 C493 1.250 . S
O481 Gd427 2.412 1_655 S
O481 C494 1.252 1_655 S
C482 O471 1.284 . S
C482 O474 1.250 . S
C483 H452 0.929 . S
C483 C468 1.437 . S
C483 C484 1.317 . S
C484 H455 0.930 . S
C484 C460 1.431 . S
C484 C483 1.317 . S
C485 Gd426 2.828 1_455 S
C485 O470 1.258 1_455 S
C485 O475 1.252 . S
C485 C486 1.497 . S
C486 C485 1.497 . S
C486 C487 1.395 1_455 S
C486 C488 1.380 . S
C487 C486 1.395 1_655 S
C487 C490 1.398 1_655 S
C487 H502 0.930 . S
C488 C486 1.380 . S
C488 C489 1.391 . S
C488 H503 0.930 . S
C489 C488 1.391 . S
C489 C491 1.387 . S
C490 C487 1.398 1_455 S
C490 C491 1.380 . S
C490 H504 0.930 1_455 S
C491 C489 1.387 . S
C491 C490 1.380 . S
C491 H505 0.930 . S
C492 O472 1.254 1_554 S
C492 O473 1.268 . S
C493 O477 1.284 1_556 S
C493 O480 1.250 . S
C494 Gd427 2.828 . S
C494 O476 1.258 . S
C494 O481 1.252 1_455 S
C494 C495 1.497 1_455 S
C495 C494 1.497 1_655 S
C495 C496 1.395 1_655 S
C495 C497 1.380 . S
C496 C495 1.395 1_455 S
C496 C499 1.398 . S
C496 H506 0.930 . S
C497 C495 1.380 . S
C497 C498 1.391 . S
C497 H507 0.930 . S
C498 C497 1.391 . S
C498 C500 1.387 . S
C499 C496 1.398 . S
C499 C500 1.380 1_455 S
C499 H508 0.930 . S
C500 C498 1.387 . S
C500 C499 1.380 1_655 S
C500 H509 0.930 . S
C501 O478 1.254 . S
C501 O479 1.268 1_554 S
H502 C487 0.930 . S
H503 C488 0.930 . S
H504 C490 0.930 1_655 S
H505 C491 0.930 . S
H506 C496 0.930 . S
H507 C497 0.930 . S
H508 C499 0.930 . S
H509 C500 0.930 . S
Gd510 N541 2.661 . S
Gd510 N547 2.601 . S
Gd510 O554 2.545 . S
Gd510 O555 2.606 1_556 S
Gd510 O557 2.429 . S
Gd510 O558 2.545 . S
Gd510 O559 2.412 . S
Gd510 O561 2.362 1_556 S
Gd510 O562 2.324 . S
Gd510 C569 2.828 . S
Gd511 N520 2.661 . S
Gd511 N524 2.601 . S
Gd511 O555 2.362 . S
Gd511 O556 2.324 . S
Gd511 O560 2.545 . S
Gd511 O561 2.606 . S
Gd511 O563 2.429 . S
Gd511 O564 2.545 . S
Gd511 O565 2.412 . S
Gd511 C578 2.828 . S
C512 C515 1.417 . S
C512 C517 1.431 . S
C512 C518 1.412 . S
C513 C516 1.437 . S
C513 C517 1.317 . S
C513 H532 0.929 . S
C514 C515 1.426 . S
C514 C516 1.413 . S
C514 N524 1.359 . S
C515 C512 1.417 . S
C515 C514 1.426 . S
C515 N520 1.350 . S
C516 C513 1.437 . S
C516 C514 1.413 . S
C516 C526 1.391 . S
C517 C512 1.431 . S
C517 C513 1.317 . S
C517 H528 0.930 . S
C518 C512 1.412 . S
C518 C519 1.355 . S
C518 H530 0.930 . S
C519 C518 1.355 . S
C519 C521 1.402 . S
C519 H531 0.930 . S
N520 Gd511 2.661 . S
N520 C515 1.350 . S
N520 C521 1.307 . S
C521 C519 1.402 . S
C521 N520 1.307 . S
C521 H522 0.930 . S
H522 C521 0.930 . S
C523 N524 1.334 . S
C523 C525 1.394 . S
C523 H527 0.930 . S
N524 Gd511 2.601 . S
N524 C514 1.359 . S
N524 C523 1.334 . S
C525 C523 1.394 . S
C525 C526 1.359 . S
C525 H537 0.930 . S
C526 C516 1.391 . S
C526 C525 1.359 . S
C526 H538 0.929 . S
H527 C523 0.930 . S
H528 C517 0.930 . S
H529 C546 0.930 . S
H530 C518 0.930 . S
H531 C519 0.930 . S
H532 C513 0.929 . S
H533 C551 0.930 . S
H534 C542 0.930 . S
H535 C543 0.930 . S
H536 C567 0.929 . S
H537 C525 0.930 . S
H538 C526 0.929 . S
H539 C568 0.930 . S
H540 C549 0.930 . S
N541 Gd510 2.661 . S
N541 C545 1.350 . S
N541 C546 1.307 . S
C542 H534 0.930 . S
C542 C543 1.355 . S
C542 C544 1.412 . S
C543 H535 0.930 . S
C543 C542 1.355 . S
C543 C546 1.402 . S
C544 C542 1.412 . S
C544 C545 1.417 . S
C544 C568 1.431 . S
C545 N541 1.350 . S
C545 C544 1.417 . S
C545 C548 1.426 . S
C546 H529 0.930 . S
C546 N541 1.307 . S
C546 C543 1.402 . S
N547 Gd510 2.601 . S
N547 C548 1.359 . S
N547 C551 1.334 . S
C548 C545 1.426 . S
C548 N547 1.359 . S
C548 C552 1.413 . S
C549 H540 0.930 . S
C549 C550 1.359 . S
C549 C551 1.394 . S
C550 C549 1.359 . S
C550 C552 1.391 . S
C550 H553 0.929 . S
C551 H533 0.930 . S
C551 N547 1.334 . S
C551 C549 1.394 . S
C552 C548 1.413 . S
C552 C550 1.391 . S
C552 C567 1.437 . S
H553 C550 0.929 . S
O554 Gd510 2.545 . S
O554 C569 1.258 . S
O555 Gd510 2.606 1_554 S
O555 Gd511 2.362 . S
O555 C566 1.284 1_554 S
O556 Gd511 2.324 . S
O556 C576 1.254 . S
O557 Gd510 2.429 . S
O557 C576 1.268 1_556 S
O558 Gd510 2.545 . S
O558 C566 1.250 . S
O559 Gd510 2.412 . S
O559 C569 1.252 . S
O560 Gd511 2.545 . S
O560 C578 1.258 . S
O561 Gd510 2.362 1_554 S
O561 Gd511 2.606 . S
O561 C577 1.284 . S
O562 Gd510 2.324 . S
O562 C585 1.254 1_556 S
O563 Gd511 2.429 . S
O563 C585 1.268 . S
O564 Gd511 2.545 . S
O564 C577 1.250 . S
O565 Gd511 2.412 . S
O565 C578 1.252 . S
C566 O555 1.284 1_556 S
C566 O558 1.250 . S
C567 H536 0.929 . S
C567 C552 1.437 . S
C567 C568 1.317 . S
C568 H539 0.930 . S
C568 C544 1.431 . S
C568 C567 1.317 . S
C569 Gd510 2.828 . S
C569 O554 1.258 . S
C569 O559 1.252 . S
C569 C570 1.497 . S
C570 C569 1.497 . S
C570 C571 1.395 . S
C570 C572 1.380 . S
C571 C570 1.395 . S
C571 C574 1.398 . S
C571 H586 0.930 . S
C572 C570 1.380 . S
C572 C573 1.391 . S
C572 H587 0.930 . S
C573 C572 1.391 . S
C573 C575 1.387 . S
C574 C571 1.398 . S
C574 C575 1.380 . S
C574 H588 0.930 . S
C575 C573 1.387 . S
C575 C574 1.380 . S
C575 H589 0.930 . S
C576 O556 1.254 . S
C576 O557 1.268 1_554 S
C577 O561 1.284 . S
C577 O564 1.250 . S
C578 Gd511 2.828 . S
C578 O560 1.258 . S
C578 O565 1.252 . S
C578 C579 1.497 . S
C579 C578 1.497 . S
C579 C580 1.395 . S
C579 C581 1.380 . S
C580 C579 1.395 . S
C580 C583 1.398 . S
C580 H590 0.930 . S
C581 C579 1.380 . S
C581 C582 1.391 . S
C581 H591 0.930 . S
C582 C581 1.391 . S
C582 C584 1.387 . S
C583 C580 1.398 . S
C583 C584 1.380 . S
C583 H592 0.930 . S
C584 C582 1.387 . S
C584 C583 1.380 . S
C584 H593 0.930 . S
C585 O562 1.254 1_554 S
C585 O563 1.268 . S
H586 C571 0.930 . S
H587 C572 0.930 . S
H588 C574 0.930 . S
H589 C575 0.930 . S
H590 C580 0.930 . S
H591 C581 0.930 . S
H592 C583 0.930 . S
H593 C584 0.930 . S
Gd594 N625 2.661 . S
Gd594 N631 2.601 . S
Gd594 O638 2.545 . S
Gd594 O639 2.606 . S
Gd594 O641 2.429 . S
Gd594 O642 2.545 . S
Gd594 O643 2.412 . S
Gd594 O645 2.362 . S
Gd594 O646 2.324 . S
Gd594 C653 2.828 . S
Gd595 N604 2.661 . S
Gd595 N608 2.601 . S
Gd595 O639 2.362 . S
Gd595 O640 2.324 . S
Gd595 O644 2.545 . S
Gd595 O645 2.606 . S
Gd595 O647 2.429 . S
Gd595 O648 2.545 . S
Gd595 O649 2.412 . S
Gd595 C662 2.828 . S
C596 C599 1.417 . S
C596 C601 1.431 . S
C596 C602 1.412 . S
C597 C600 1.437 . S
C597 C601 1.317 . S
C597 H616 0.929 . S
C598 C599 1.426 . S
C598 C600 1.413 . S
C598 N608 1.359 . S
C599 C596 1.417 . S
C599 C598 1.426 . S
C599 N604 1.350 . S
C600 C597 1.437 . S
C600 C598 1.413 . S
C600 C610 1.391 . S
C601 C596 1.431 . S
C601 C597 1.317 . S
C601 H612 0.912 1_455 S
C602 C596 1.412 . S
C602 C603 1.355 . S
C602 H614 0.930 1_455 S
C603 C602 1.355 . S
C603 C605 1.402 . S
C603 H615 0.930 . S
N604 Gd595 2.661 . S
N604 C599 1.350 . S
N604 C605 1.307 . S
C605 C603 1.402 . S
C605 N604 1.307 . S
C605 H606 0.930 . S
H606 C605 0.930 . S
C607 N608 1.334 . S
C607 C609 1.394 . S
C607 H611 0.930 . S
N608 Gd595 2.601 . S
N608 C598 1.359 . S
N608 C607 1.334 . S
C609 C607 1.394 . S
C609 C610 1.359 . S
C609 H621 0.930 . S
C610 C600 1.391 . S
C610 C609 1.359 . S
C610 H622 0.929 . S
H611 C607 0.930 . S
H612 C601 0.912 1_655 S
H613 C630 0.930 . S
H614 C602 0.930 1_655 S
H615 C603 0.930 . S
H616 C597 0.929 . S
H617 C635 0.930 . S
H618 C626 0.930 . S
H619 C627 0.930 . S
H620 C651 0.929 . S
H621 C609 0.930 . S
H622 C610 0.929 . S
H623 C652 0.930 . S
H624 C633 0.930 . S
N625 Gd594 2.661 . S
N625 C629 1.350 . S
N625 C630 1.307 . S
C626 H618 0.930 . S
C626 C627 1.355 . S
C626 C628 1.412 . S
C627 H619 0.930 . S
C627 C626 1.355 . S
C627 C630 1.402 . S
C628 C626 1.412 . S
C628 C629 1.417 . S
C628 C652 1.431 . S
C629 N625 1.350 . S
C629 C628 1.417 . S
C629 C632 1.426 . S
C630 H613 0.930 . S
C630 N625 1.307 . S
C630 C627 1.402 . S
N631 Gd594 2.601 . S
N631 C632 1.359 . S
N631 C635 1.334 . S
C632 C629 1.426 . S
C632 N631 1.359 . S
C632 C636 1.413 . S
C633 H624 0.930 . S
C633 C634 1.359 . S
C633 C635 1.394 . S
C634 C633 1.359 . S
C634 C636 1.391 . S
C634 H637 0.929 . S
C635 H617 0.930 . S
C635 N631 1.334 . S
C635 C633 1.394 . S
C636 C632 1.413 . S
C636 C634 1.391 . S
C636 C651 1.437 . S
H637 C634 0.929 . S
O638 Gd594 2.545 . S
O638 C653 1.258 . S
O639 Gd594 2.606 . S
O639 Gd595 2.362 . S
O639 C650 1.284 . S
O640 Gd595 2.324 . S
O640 C660 1.254 . S
O641 Gd594 2.429 . S
O641 C660 1.268 . S
O642 Gd594 2.545 . S
O642 C650 1.250 . S
O643 Gd594 2.412 . S
O643 C653 1.252 . S
O644 Gd595 2.545 . S
O644 C662 1.258 . S
O645 Gd594 2.362 . S
O645 Gd595 2.606 . S
O645 C661 1.284 . S
O646 Gd594 2.324 . S
O646 C669 1.254 . S
O647 Gd595 2.429 . S
O647 C669 1.268 . S
O648 Gd595 2.545 . S
O648 C661 1.250 . S
O649 Gd595 2.412 . S
O649 C662 1.252 . S
C650 O639 1.284 . S
C650 O642 1.250 . S
C651 H620 0.929 . S
C651 C636 1.437 . S
C651 C652 1.317 . S
C652 H623 0.930 . S
C652 C628 1.431 . S
C652 C651 1.317 . S
C653 Gd594 2.828 . S
C653 O638 1.258 . S
C653 O643 1.252 . S
C653 C654 1.497 . S
C654 C653 1.497 . S
C654 C655 1.395 . S
C654 C656 1.380 . S
C655 C654 1.395 . S
C655 C658 1.398 . S
C655 H670 0.930 . S
C656 C654 1.380 . S
C656 C657 1.391 . S
C656 H671 0.930 . S
C657 C656 1.391 . S
C657 C659 1.387 . S
C658 C655 1.398 . S
C658 C659 1.380 . S
C658 H672 0.930 . S
C659 C657 1.387 . S
C659 C658 1.380 . S
C659 H673 0.930 . S
C660 O640 1.254 . S
C660 O641 1.268 . S
C661 O645 1.284 . S
C661 O648 1.250 . S
C662 Gd595 2.828 . S
C662 O644 1.258 . S
C662 O649 1.252 . S
C662 C663 1.497 . S
C663 C662 1.497 . S
C663 C664 1.395 . S
C663 C665 1.380 . S
C664 C663 1.395 . S
C664 C667 1.398 . S
C664 H674 0.930 . S
C665 C663 1.380 . S
C665 C666 1.391 . S
C665 H675 0.930 . S
C666 C665 1.391 . S
C666 C668 1.387 . S
C667 C664 1.398 . S
C667 C668 1.380 . S
C667 H676 0.930 . S
C668 C666 1.387 . S
C668 C667 1.380 . S
C668 H677 0.930 . S
C669 O646 1.254 . S
C669 O647 1.268 . S
H670 C655 0.930 . S
H671 C656 0.930 . S
H672 C658 0.930 . S
H673 C659 0.930 . S
H674 C664 0.930 . S
H675 C665 0.930 . S
H676 C667 0.930 . S
H677 C668 0.930 . S
Gd678 N709 2.661 . S
Gd678 N715 2.601 . S
Gd678 O722 2.545 . S
Gd678 O723 2.606 . S
Gd678 O725 2.429 . S
Gd678 O726 2.545 . S
Gd678 O727 2.412 . S
Gd678 O729 2.362 . S
Gd678 O730 2.324 . S
Gd678 C737 2.828 . S
Gd679 N688 2.661 . S
Gd679 N692 2.601 . S
Gd679 O723 2.362 . S
Gd679 O724 2.324 . S
Gd679 O728 2.545 . S
Gd679 O729 2.606 . S
Gd679 O731 2.429 . S
Gd679 O732 2.545 . S
Gd679 O733 2.412 . S
Gd679 C746 2.828 . S
C680 C683 1.417 . S
C680 C685 1.431 . S
C680 C686 1.412 . S
C681 C684 1.437 . S
C681 C685 1.317 . S
C681 H700 0.929 . S
C682 C683 1.426 . S
C682 C684 1.413 . S
C682 N692 1.359 . S
C683 C680 1.417 . S
C683 C682 1.426 . S
C683 N688 1.350 . S
C684 C681 1.437 . S
C684 C682 1.413 . S
C684 C694 1.391 . S
C685 C680 1.431 . S
C685 C681 1.317 . S
C685 H696 0.930 . S
C686 C680 1.412 . S
C686 C687 1.355 . S
C686 H698 0.930 . S
C687 C686 1.355 . S
C687 C689 1.402 . S
C687 H699 0.930 . S
N688 Gd679 2.661 . S
N688 C683 1.350 . S
N688 C689 1.307 . S
C689 C687 1.402 . S
C689 N688 1.307 . S
C689 H690 0.930 . S
H690 C689 0.930 . S
C691 N692 1.334 . S
C691 C693 1.394 . S
C691 H695 0.930 . S
N692 Gd679 2.601 . S
N692 C682 1.359 . S
N692 C691 1.334 . S
C693 C691 1.394 . S
C693 C694 1.359 . S
C693 H705 0.930 . S
C694 C684 1.391 . S
C694 C693 1.359 . S
C694 H706 0.929 . S
H695 C691 0.930 . S
H696 C685 0.930 . S
H697 C714 0.930 . S
H698 C686 0.930 . S
H699 C687 0.930 . S
H700 C681 0.929 . S
H701 C719 0.930 . S
H702 C710 0.930 . S
H703 C711 0.930 . S
H704 C735 0.929 . S
H705 C693 0.930 . S
H706 C694 0.929 . S
H707 C736 0.930 . S
H708 C717 0.930 . S
N709 Gd678 2.661 . S
N709 C713 1.350 . S
N709 C714 1.307 . S
C710 H702 0.930 . S
C710 C711 1.355 . S
C710 C712 1.412 . S
C711 H703 0.930 . S
C711 C710 1.355 . S
C711 C714 1.402 . S
C712 C710 1.412 . S
C712 C713 1.417 . S
C712 C736 1.431 . S
C713 N709 1.350 . S
C713 C712 1.417 . S
C713 C716 1.426 . S
C714 H697 0.930 . S
C714 N709 1.307 . S
C714 C711 1.402 . S
N715 Gd678 2.601 . S
N715 C716 1.359 . S
N715 C719 1.334 . S
C716 C713 1.426 . S
C716 N715 1.359 . S
C716 C720 1.413 . S
C717 H708 0.930 . S
C717 C718 1.359 . S
C717 C719 1.394 . S
C718 C717 1.359 . S
C718 C720 1.391 . S
C718 H721 0.929 . S
C719 H701 0.930 . S
C719 N715 1.334 . S
C719 C717 1.394 . S
C720 C716 1.413 . S
C720 C718 1.391 . S
C720 C735 1.437 . S
H721 C718 0.929 . S
O722 Gd678 2.545 . S
O722 C737 1.258 . S
O723 Gd678 2.606 . S
O723 Gd679 2.362 . S
O723 C734 1.284 . S
O724 Gd679 2.324 . S
O724 C744 1.254 . S
O725 Gd678 2.429 . S
O725 C744 1.268 . S
O726 Gd678 2.545 . S
O726 C734 1.250 . S
O727 Gd678 2.412 . S
O727 C737 1.252 . S
O728 Gd679 2.545 . S
O728 C746 1.258 . S
O729 Gd678 2.362 . S
O729 Gd679 2.606 . S
O729 C745 1.284 . S
O730 Gd678 2.324 . S
O730 C753 1.254 . S
O731 Gd679 2.429 . S
O731 C753 1.268 . S
O732 Gd679 2.545 . S
O732 C745 1.250 . S
O733 Gd679 2.412 . S
O733 C746 1.252 . S
C734 O723 1.284 . S
C734 O726 1.250 . S
C735 H704 0.929 . S
C735 C720 1.437 . S
C735 C736 1.317 . S
C736 H707 0.930 . S
C736 C712 1.431 . S
C736 C735 1.317 . S
C737 Gd678 2.828 . S
C737 O722 1.258 . S
C737 O727 1.252 . S
C737 C738 1.497 . S
C738 C737 1.497 . S
C738 C739 1.395 . S
C738 C740 1.380 . S
C739 C738 1.395 . S
C739 C742 1.398 . S
C739 H754 0.930 . S
C740 C738 1.380 . S
C740 C741 1.391 . S
C740 H755 0.930 . S
C741 C740 1.391 . S
C741 C743 1.387 . S
C742 C739 1.398 . S
C742 C743 1.380 . S
C742 H756 0.930 . S
C743 C741 1.387 . S
C743 C742 1.380 . S
C743 H757 0.930 . S
C744 O724 1.254 . S
C744 O725 1.268 . S
C745 O729 1.284 . S
C745 O732 1.250 . S
C746 Gd679 2.828 . S
C746 O728 1.258 . S
C746 O733 1.252 . S
C746 C747 1.497 . S
C747 C746 1.497 . S
C747 C748 1.395 . S
C747 C749 1.380 . S
C748 C747 1.395 . S
C748 C751 1.398 . S
C748 H758 0.930 . S
C749 C747 1.380 . S
C749 C750 1.391 . S
C749 H759 0.930 . S
C750 C749 1.391 . S
C750 C752 1.387 . S
C751 C748 1.398 . S
C751 C752 1.380 . S
C751 H760 0.930 . S
C752 C750 1.387 . S
C752 C751 1.380 . S
C752 H761 0.930 . S
C753 O730 1.254 . S
C753 O731 1.268 . S
H754 C739 0.930 . S
H755 C740 0.930 . S
H756 C742 0.930 . S
H757 C743 0.930 . S
H758 C748 0.930 . S
H759 C749 0.930 . S
H760 C751 0.930 . S
H761 C752 0.930 . S
Gd762 N793 2.661 . S
Gd762 N799 2.601 . S
Gd762 O806 2.545 . S
Gd762 O807 2.606 . S
Gd762 O809 2.429 . S
Gd762 O810 2.545 . S
Gd762 O811 2.412 . S
Gd762 O813 2.362 . S
Gd762 O814 2.324 . S
Gd762 C821 2.828 . S
Gd763 N772 2.661 . S
Gd763 N776 2.601 . S
Gd763 O807 2.362 . S
Gd763 O808 2.324 . S
Gd763 O812 2.545 . S
Gd763 O813 2.606 . S
Gd763 O815 2.429 . S
Gd763 O816 2.545 . S
Gd763 O817 2.412 . S
Gd763 C830 2.828 . S
C764 C767 1.417 . S
C764 C769 1.431 . S
C764 C770 1.412 . S
C765 C768 1.437 . S
C765 C769 1.317 . S
C765 H784 0.929 . S
C766 C767 1.426 . S
C766 C768 1.413 . S
C766 N776 1.359 . S
C767 C764 1.417 . S
C767 C766 1.426 . S
C767 N772 1.350 . S
C768 C765 1.437 . S
C768 C766 1.413 . S
C768 C778 1.391 . S
C769 C764 1.431 . S
C769 C765 1.317 . S
C769 H780 0.930 . S
C770 C764 1.412 . S
C770 C771 1.355 . S
C770 H782 0.930 . S
C771 C770 1.355 . S
C771 C773 1.402 . S
C771 H783 0.930 . S
N772 Gd763 2.661 . S
N772 C767 1.350 . S
N772 C773 1.307 . S
C773 C771 1.402 . S
C773 N772 1.307 . S
C773 H774 0.930 . S
H774 C773 0.930 . S
C775 N776 1.334 . S
C775 C777 1.394 . S
C775 H779 0.930 . S
N776 Gd763 2.601 . S
N776 C766 1.359 . S
N776 C775 1.334 . S
C777 C775 1.394 . S
C777 C778 1.359 . S
C777 H789 0.930 . S
C778 C768 1.391 . S
C778 C777 1.359 . S
C778 H790 0.929 . S
H779 C775 0.930 . S
H780 C769 0.930 . S
H781 C798 0.930 . S
H782 C770 0.930 . S
H783 C771 0.930 . S
H784 C765 0.929 . S
H785 C803 0.930 . S
H786 C794 0.930 . S
H787 C795 0.930 . S
H788 C819 0.929 . S
H789 C777 0.930 . S
H790 C778 0.929 . S
H791 C820 0.930 . S
H792 C801 0.930 . S
N793 Gd762 2.661 . S
N793 C797 1.350 . S
N793 C798 1.307 . S
C794 H786 0.930 . S
C794 C795 1.355 . S
C794 C796 1.412 . S
C795 H787 0.930 . S
C795 C794 1.355 . S
C795 C798 1.402 . S
C796 C794 1.412 . S
C796 C797 1.417 . S
C796 C820 1.431 . S
C797 N793 1.350 . S
C797 C796 1.417 . S
C797 C800 1.426 . S
C798 H781 0.930 . S
C798 N793 1.307 . S
C798 C795 1.402 . S
N799 Gd762 2.601 . S
N799 C800 1.359 . S
N799 C803 1.334 . S
C800 C797 1.426 . S
C800 N799 1.359 . S
C800 C804 1.413 . S
C801 H792 0.930 . S
C801 C802 1.359 . S
C801 C803 1.394 . S
C802 C801 1.359 . S
C802 C804 1.391 . S
C802 H805 0.929 . S
C803 H785 0.930 . S
C803 N799 1.334 . S
C803 C801 1.394 . S
C804 C800 1.413 . S
C804 C802 1.391 . S
C804 C819 1.437 . S
H805 C802 0.929 . S
O806 Gd762 2.545 . S
O806 C821 1.258 . S
O807 Gd762 2.606 . S
O807 Gd763 2.362 . S
O807 C818 1.284 . S
O808 Gd763 2.324 . S
O808 C828 1.254 . S
O809 Gd762 2.429 . S
O809 C828 1.268 . S
O810 Gd762 2.545 . S
O810 C818 1.250 . S
O811 Gd762 2.412 . S
O811 C821 1.252 . S
O812 Gd763 2.545 . S
O812 C830 1.258 . S
O813 Gd762 2.362 . S
O813 Gd763 2.606 . S
O813 C829 1.284 . S
O814 Gd762 2.324 . S
O814 C837 1.254 . S
O815 Gd763 2.429 . S
O815 C837 1.268 . S
O816 Gd763 2.545 . S
O816 C829 1.250 . S
O817 Gd763 2.412 . S
O817 C830 1.252 . S
C818 O807 1.284 . S
C818 O810 1.250 . S
C819 H788 0.929 . S
C819 C804 1.437 . S
C819 C820 1.317 . S
C820 H791 0.930 . S
C820 C796 1.431 . S
C820 C819 1.317 . S
C821 Gd762 2.828 . S
C821 O806 1.258 . S
C821 O811 1.252 . S
C821 C822 1.497 . S
C822 C821 1.497 . S
C822 C823 1.395 . S
C822 C824 1.380 . S
C823 C822 1.395 . S
C823 C826 1.398 . S
C823 H838 0.930 . S
C824 C822 1.380 . S
C824 C825 1.391 . S
C824 H839 0.930 . S
C825 C824 1.391 . S
C825 C827 1.387 . S
C826 C823 1.398 . S
C826 C827 1.380 . S
C826 H840 0.930 . S
C827 C825 1.387 . S
C827 C826 1.380 . S
C827 H841 0.930 . S
C828 O808 1.254 . S
C828 O809 1.268 . S
C829 O813 1.284 . S
C829 O816 1.250 . S
C830 Gd763 2.828 . S
C830 O812 1.258 . S
C830 O817 1.252 . S
C830 C831 1.497 . S
C831 C830 1.497 . S
C831 C832 1.395 . S
C831 C833 1.380 . S
C832 C831 1.395 . S
C832 C835 1.398 . S
C832 H842 0.930 . S
C833 C831 1.380 . S
C833 C834 1.391 . S
C833 H843 0.930 . S
C834 C833 1.391 . S
C834 C836 1.387 . S
C835 C832 1.398 . S
C835 C836 1.380 . S
C835 H844 0.930 . S
C836 C834 1.387 . S
C836 C835 1.380 . S
C836 H845 0.930 . S
C837 O814 1.254 . S
C837 O815 1.268 . S
H838 C823 0.930 . S
H839 C824 0.930 . S
H840 C826 0.930 . S
H841 C827 0.930 . S
H842 C832 0.930 . S
H843 C833 0.930 . S
H844 C835 0.930 . S
H845 C836 0.930 . S
Gd846 N877 2.661 . S
Gd846 N883 2.601 . S
Gd846 O890 2.545 . S
Gd846 O891 2.606 . S
Gd846 O893 2.429 . S
Gd846 O894 2.545 . S
Gd846 O895 2.412 . S
Gd846 O897 2.362 . S
Gd846 O898 2.324 . S
Gd846 C905 2.828 . S
Gd847 N856 2.661 . S
Gd847 N860 2.601 . S
Gd847 O891 2.362 . S
Gd847 O892 2.324 . S
Gd847 O896 2.545 . S
Gd847 O897 2.606 . S
Gd847 O899 2.429 . S
Gd847 O900 2.545 . S
Gd847 O901 2.412 . S
Gd847 C914 2.828 . S
C848 C851 1.417 . S
C848 C853 1.431 . S
C848 C854 1.412 . S
C849 C852 1.437 . S
C849 C853 1.317 . S
C849 H868 0.929 . S
C850 C851 1.426 . S
C850 C852 1.413 . S
C850 N860 1.359 . S
C851 C848 1.417 . S
C851 C850 1.426 . S
C851 N856 1.350 . S
C852 C849 1.437 . S
C852 C850 1.413 . S
C852 C862 1.391 . S
C853 C848 1.431 . S
C853 C849 1.317 . S
C853 H864 0.930 . S
C854 C848 1.412 . S
C854 C855 1.355 . S
C854 H866 0.930 . S
C855 C854 1.355 . S
C855 C857 1.402 . S
C855 H867 0.930 . S
N856 Gd847 2.661 . S
N856 C851 1.350 . S
N856 C857 1.307 . S
C857 C855 1.402 . S
C857 N856 1.307 . S
C857 H858 0.930 . S
H858 C857 0.930 . S
C859 N860 1.334 . S
C859 C861 1.394 . S
C859 H863 0.930 . S
N860 Gd847 2.601 . S
N860 C850 1.359 . S
N860 C859 1.334 . S
C861 C859 1.394 . S
C861 C862 1.359 . S
C861 H873 0.930 . S
C862 C852 1.391 . S
C862 C861 1.359 . S
C862 H874 0.929 . S
H863 C859 0.930 . S
H864 C853 0.930 . S
H865 C882 0.930 . S
H866 C854 0.930 . S
H867 C855 0.930 . S
H868 C849 0.929 . S
H869 C887 0.930 . S
H870 C878 0.930 . S
H871 C879 0.930 . S
H872 C903 0.929 . S
H873 C861 0.930 . S
H874 C862 0.929 . S
H875 C904 0.930 . S
H876 C885 0.930 . S
N877 Gd846 2.661 . S
N877 C881 1.350 . S
N877 C882 1.307 . S
C878 H870 0.930 . S
C878 C879 1.355 . S
C878 C880 1.412 . S
C879 H871 0.930 . S
C879 C878 1.355 . S
C879 C882 1.402 . S
C880 C878 1.412 . S
C880 C881 1.417 . S
C880 C904 1.431 . S
C881 N877 1.350 . S
C881 C880 1.417 . S
C881 C884 1.426 . S
C882 H865 0.930 . S
C882 N877 1.307 . S
C882 C879 1.402 . S
N883 Gd846 2.601 . S
N883 C884 1.359 . S
N883 C887 1.334 . S
C884 C881 1.426 . S
C884 N883 1.359 . S
C884 C888 1.413 . S
C885 H876 0.930 . S
C885 C886 1.359 . S
C885 C887 1.394 . S
C886 C885 1.359 . S
C886 C888 1.391 . S
C886 H889 0.929 . S
C887 H869 0.930 . S
C887 N883 1.334 . S
C887 C885 1.394 . S
C888 C884 1.413 . S
C888 C886 1.391 . S
C888 C903 1.437 . S
H889 C886 0.929 . S
O890 Gd846 2.545 . S
O890 C905 1.258 . S
O891 Gd846 2.606 . S
O891 Gd847 2.362 . S
O891 C902 1.284 . S
O892 Gd847 2.324 . S
O892 C912 1.254 . S
O893 Gd846 2.429 . S
O893 C912 1.268 . S
O894 Gd846 2.545 . S
O894 C902 1.250 . S
O895 Gd846 2.412 . S
O895 C905 1.252 . S
O896 Gd847 2.545 . S
O896 C914 1.258 . S
O897 Gd846 2.362 . S
O897 Gd847 2.606 . S
O897 C913 1.284 . S
O898 Gd846 2.324 . S
O898 C921 1.254 . S
O899 Gd847 2.429 . S
O899 C921 1.268 . S
O900 Gd847 2.545 . S
O900 C913 1.250 . S
O901 Gd847 2.412 . S
O901 C914 1.252 . S
C902 O891 1.284 . S
C902 O894 1.250 . S
C903 H872 0.929 . S
C903 C888 1.437 . S
C903 C904 1.317 . S
C904 H875 0.930 . S
C904 C880 1.431 . S
C904 C903 1.317 . S
C905 Gd846 2.828 . S
C905 O890 1.258 . S
C905 O895 1.252 . S
C905 C906 1.497 . S
C906 C905 1.497 . S
C906 C907 1.395 . S
C906 C908 1.380 . S
C907 C906 1.395 . S
C907 C910 1.398 . S
C907 H922 0.930 . S
C908 C906 1.380 . S
C908 C909 1.391 . S
C908 H923 0.930 . S
C909 C908 1.391 . S
C909 C911 1.387 . S
C910 C907 1.398 . S
C910 C911 1.380 . S
C910 H924 0.930 . S
C911 C909 1.387 . S
C911 C910 1.380 . S
C911 H925 0.930 . S
C912 O892 1.254 . S
C912 O893 1.268 . S
C913 O897 1.284 . S
C913 O900 1.250 . S
C914 Gd847 2.828 . S
C914 O896 1.258 . S
C914 O901 1.252 . S
C914 C915 1.497 . S
C915 C914 1.497 . S
C915 C916 1.395 . S
C915 C917 1.380 . S
C916 C915 1.395 . S
C916 C919 1.398 . S
C916 H926 0.930 . S
C917 C915 1.380 . S
C917 C918 1.391 . S
C917 H927 0.930 . S
C918 C917 1.391 . S
C918 C920 1.387 . S
C919 C916 1.398 . S
C919 C920 1.380 . S
C919 H928 0.930 . S
C920 C918 1.387 . S
C920 C919 1.380 . S
C920 H929 0.930 . S
C921 O898 1.254 . S
C921 O899 1.268 . S
H922 C907 0.930 . S
H923 C908 0.930 . S
H924 C910 0.930 . S
H925 C911 0.930 . S
H926 C916 0.930 . S
H927 C917 0.930 . S
H928 C919 0.930 . S
H929 C920 0.930 . S
Gd930 N961 2.661 . S
Gd930 N967 2.601 . S
Gd930 O974 2.545 . S
Gd930 O975 2.606 . S
Gd930 O977 2.429 . S
Gd930 O978 2.545 . S
Gd930 O979 2.412 . S
Gd930 O981 2.362 . S
Gd930 O982 2.324 . S
Gd930 C989 2.828 . S
Gd931 N940 2.661 . S
Gd931 N944 2.601 . S
Gd931 O975 2.362 . S
Gd931 O976 2.324 . S
Gd931 O980 2.545 . S
Gd931 O981 2.606 . S
Gd931 O983 2.429 . S
Gd931 O984 2.545 . S
Gd931 O985 2.412 . S
Gd931 C998 2.828 . S
C932 C935 1.417 . S
C932 C937 1.431 . S
C932 C938 1.412 . S
C933 C936 1.437 . S
C933 C937 1.317 . S
C933 H952 0.929 . S
C934 C935 1.426 . S
C934 C936 1.413 . S
C934 N944 1.359 . S
C935 C932 1.417 . S
C935 C934 1.426 . S
C935 N940 1.350 . S
C936 C933 1.437 . S
C936 C934 1.413 . S
C936 C946 1.391 . S
C937 C932 1.431 . S
C937 C933 1.317 . S
C937 H948 0.930 . S
C938 C932 1.412 . S
C938 C939 1.355 . S
C938 H950 0.930 . S
C939 C938 1.355 . S
C939 C941 1.402 . S
C939 H951 0.930 . S
N940 Gd931 2.661 . S
N940 C935 1.350 . S
N940 C941 1.307 . S
C941 C939 1.402 . S
C941 N940 1.307 . S
C941 H942 0.930 . S
H942 C941 0.930 . S
C943 N944 1.334 . S
C943 C945 1.394 . S
C943 H947 0.930 . S
N944 Gd931 2.601 . S
N944 C934 1.359 . S
N944 C943 1.334 . S
C945 C943 1.394 . S
C945 C946 1.359 . S
C945 H957 0.930 . S
C946 C936 1.391 . S
C946 C945 1.359 . S
C946 H958 0.929 . S
H947 C943 0.930 . S
H948 C937 0.930 . S
H949 C966 0.930 . S
H950 C938 0.930 . S
H951 C939 0.930 . S
H952 C933 0.929 . S
H953 C971 0.930 . S
H954 C962 0.930 . S
H955 C963 0.930 . S
H956 C987 0.929 . S
H957 C945 0.930 . S
H958 C946 0.929 . S
H959 C988 0.930 . S
H960 C969 0.930 . S
N961 Gd930 2.661 . S
N961 C965 1.350 . S
N961 C966 1.307 . S
C962 H954 0.930 . S
C962 C963 1.355 . S
C962 C964 1.412 . S
C963 H955 0.930 . S
C963 C962 1.355 . S
C963 C966 1.402 . S
C964 C962 1.412 . S
C964 C965 1.417 . S
C964 C988 1.431 . S
C965 N961 1.350 . S
C965 C964 1.417 . S
C965 C968 1.426 . S
C966 H949 0.930 . S
C966 N961 1.307 . S
C966 C963 1.402 . S
N967 Gd930 2.601 . S
N967 C968 1.359 . S
N967 C971 1.334 . S
C968 C965 1.426 . S
C968 N967 1.359 . S
C968 C972 1.413 . S
C969 H960 0.930 . S
C969 C970 1.359 . S
C969 C971 1.394 . S
C970 C969 1.359 . S
C970 C972 1.391 . S
C970 H973 0.929 . S
C971 H953 0.930 . S
C971 N967 1.334 . S
C971 C969 1.394 . S
C972 C968 1.413 . S
C972 C970 1.391 . S
C972 C987 1.437 . S
H973 C970 0.929 . S
O974 Gd930 2.545 . S
O974 C989 1.258 . S
O975 Gd930 2.606 . S
O975 Gd931 2.362 . S
O975 C986 1.284 . S
O976 Gd931 2.324 . S
O976 C996 1.254 . S
O977 Gd930 2.429 . S
O977 C996 1.268 . S
O978 Gd930 2.545 . S
O978 C986 1.250 . S
O979 Gd930 2.412 . S
O979 C989 1.252 . S
O980 Gd931 2.545 . S
O980 C998 1.258 . S
O981 Gd930 2.362 . S
O981 Gd931 2.606 . S
O981 C997 1.284 . S
O982 Gd930 2.324 . S
O982 C1005 1.254 . S
O983 Gd931 2.429 . S
O983 C1005 1.268 . S
O984 Gd931 2.545 . S
O984 C997 1.250 . S
O985 Gd931 2.412 . S
O985 C998 1.252 . S
C986 O975 1.284 . S
C986 O978 1.250 . S
C987 H956 0.929 . S
C987 C972 1.437 . S
C987 C988 1.317 . S
C988 H959 0.930 . S
C988 C964 1.431 . S
C988 C987 1.317 . S
C989 Gd930 2.828 . S
C989 O974 1.258 . S
C989 O979 1.252 . S
C989 C990 1.497 . S
C990 C989 1.497 . S
C990 C991 1.395 . S
C990 C992 1.380 . S
C991 C990 1.395 . S
C991 C994 1.398 . S
C991 H1006 0.930 . S
C992 C990 1.380 . S
C992 C993 1.391 . S
C992 H1007 0.930 . S
C993 C992 1.391 . S
C993 C995 1.387 . S
C994 C991 1.398 . S
C994 C995 1.380 . S
C994 H1008 0.930 . S
C995 C993 1.387 . S
C995 C994 1.380 . S
C995 H1009 0.930 . S
C996 O976 1.254 . S
C996 O977 1.268 . S
C997 O981 1.284 . S
C997 O984 1.250 . S
C998 Gd931 2.828 . S
C998 O980 1.258 . S
C998 O985 1.252 . S
C998 C999 1.497 . S
C999 C998 1.497 . S
C999 C1000 1.395 . S
C999 C1001 1.380 . S
C1000 C999 1.395 . S
C1000 C1003 1.398 . S
C1000 H1010 0.930 . S
C1001 C999 1.380 . S
C1001 C1002 1.391 . S
C1001 H1011 0.930 . S
C1002 C1001 1.391 . S
C1002 C1004 1.387 . S
C1003 C1000 1.398 . S
C1003 C1004 1.380 . S
C1003 H1012 0.930 . S
C1004 C1002 1.387 . S
C1004 C1003 1.380 . S
C1004 H1013 0.930 . S
C1005 O982 1.254 . S
C1005 O983 1.268 . S
H1006 C991 0.930 . S
H1007 C992 0.930 . S
H1008 C994 0.930 . S
H1009 C995 0.930 . S
H1010 C1000 0.930 . S
H1011 C1001 0.930 . S
H1012 C1003 0.930 . S
H1013 C1004 0.930 . S
Gd1014 N1045 2.661 . S
Gd1014 N1051 2.601 . S
Gd1014 O1058 2.545 . S
Gd1014 O1059 2.606 . S
Gd1014 O1061 2.429 . S
Gd1014 O1062 2.545 . S
Gd1014 O1063 2.412 . S
Gd1014 O1065 2.362 . S
Gd1014 O1066 2.324 . S
Gd1014 C1073 2.828 . S
Gd1015 N1024 2.661 . S
Gd1015 N1028 2.601 . S
Gd1015 O1059 2.362 . S
Gd1015 O1060 2.324 . S
Gd1015 O1064 2.545 . S
Gd1015 O1065 2.606 . S
Gd1015 O1067 2.429 . S
Gd1015 O1068 2.545 . S
Gd1015 O1069 2.412 . S
Gd1015 C1082 2.828 . S
C1016 C1019 1.417 . S
C1016 C1021 1.431 . S
C1016 C1022 1.412 . S
C1017 C1020 1.437 . S
C1017 C1021 1.317 . S
C1017 H1036 0.929 . S
C1018 C1019 1.426 . S
C1018 C1020 1.413 . S
C1018 N1028 1.359 . S
C1019 C1016 1.417 . S
C1019 C1018 1.426 . S
C1019 N1024 1.350 . S
C1020 C1017 1.437 . S
C1020 C1018 1.413 . S
C1020 C1030 1.391 . S
C1021 C1016 1.431 . S
C1021 C1017 1.317 . S
C1021 H1032 0.930 1_655 S
C1022 C1016 1.412 . S
C1022 C1023 1.355 . S
C1022 H1034 0.930 1_655 S
C1023 C1022 1.355 . S
C1023 C1025 1.402 . S
C1023 H1035 0.930 . S
N1024 Gd1015 2.661 . S
N1024 C1019 1.350 . S
N1024 C1025 1.307 . S
C1025 C1023 1.402 . S
C1025 N1024 1.307 . S
C1025 H1026 0.930 . S
H1026 C1025 0.930 . S
C1027 N1028 1.334 . S
C1027 C1029 1.394 . S
C1027 H1031 0.930 . S
N1028 Gd1015 2.601 . S
N1028 C1018 1.359 . S
N1028 C1027 1.334 . S
C1029 C1027 1.394 . S
C1029 C1030 1.359 . S
C1029 H1041 0.930 . S
C1030 C1020 1.391 . S
C1030 C1029 1.359 . S
C1030 H1042 0.929 . S
H1031 C1027 0.930 . S
H1032 C1021 0.930 1_455 S
H1033 C1050 0.930 . S
H1034 C1022 0.930 1_455 S
H1035 C1023 0.930 . S
H1036 C1017 0.929 . S
H1037 C1055 0.930 . S
H1038 C1046 0.930 . S
H1039 C1047 0.930 . S
H1040 C1071 0.929 . S
H1041 C1029 0.930 . S
H1042 C1030 0.929 . S
H1043 C1072 0.930 . S
H1044 C1053 0.930 . S
N1045 Gd1014 2.661 . S
N1045 C1049 1.350 . S
N1045 C1050 1.307 . S
C1046 H1038 0.930 . S
C1046 C1047 1.355 . S
C1046 C1048 1.412 . S
C1047 H1039 0.930 . S
C1047 C1046 1.355 . S
C1047 C1050 1.402 . S
C1048 C1046 1.412 . S
C1048 C1049 1.417 . S
C1048 C1072 1.431 . S
C1049 N1045 1.350 . S
C1049 C1048 1.417 . S
C1049 C1052 1.426 . S
C1050 H1033 0.930 . S
C1050 N1045 1.307 . S
C1050 C1047 1.402 . S
N1051 Gd1014 2.601 . S
N1051 C1052 1.359 . S
N1051 C1055 1.334 . S
C1052 C1049 1.426 . S
C1052 N1051 1.359 . S
C1052 C1056 1.413 . S
C1053 H1044 0.930 . S
C1053 C1054 1.359 . S
C1053 C1055 1.394 . S
C1054 C1053 1.359 . S
C1054 C1056 1.391 . S
C1054 H1057 0.929 . S
C1055 H1037 0.930 . S
C1055 N1051 1.334 . S
C1055 C1053 1.394 . S
C1056 C1052 1.413 . S
C1056 C1054 1.391 . S
C1056 C1071 1.437 . S
H1057 C1054 0.929 . S
O1058 Gd1014 2.545 . S
O1058 C1073 1.258 . S
O1059 Gd1014 2.606 . S
O1059 Gd1015 2.362 . S
O1059 C1070 1.284 . S
O1060 Gd1015 2.324 . S
O1060 C1080 1.254 . S
O1061 Gd1014 2.429 . S
O1061 C1080 1.268 . S
O1062 Gd1014 2.545 . S
O1062 C1070 1.250 . S
O1063 Gd1014 2.412 . S
O1063 C1073 1.252 . S
O1064 Gd1015 2.545 . S
O1064 C1082 1.258 . S
O1065 Gd1014 2.362 . S
O1065 Gd1015 2.606 . S
O1065 C1081 1.284 . S
O1066 Gd1014 2.324 . S
O1066 C1089 1.254 . S
O1067 Gd1015 2.429 . S
O1067 C1089 1.268 . S
O1068 Gd1015 2.545 . S
O1068 C1081 1.250 . S
O1069 Gd1015 2.412 . S
O1069 C1082 1.252 . S
C1070 O1059 1.284 . S
C1070 O1062 1.250 . S
C1071 H1040 0.929 . S
C1071 C1056 1.437 . S
C1071 C1072 1.317 . S
C1072 H1043 0.930 . S
C1072 C1048 1.431 . S
C1072 C1071 1.317 . S
C1073 Gd1014 2.828 . S
C1073 O1058 1.258 . S
C1073 O1063 1.252 . S
C1073 C1074 1.497 . S
C1074 C1073 1.497 . S
C1074 C1075 1.395 . S
C1074 C1076 1.380 . S
C1075 C1074 1.395 . S
C1075 C1078 1.398 . S
C1075 H1090 0.930 . S
C1076 C1074 1.380 . S
C1076 C1077 1.391 . S
C1076 H1091 0.930 . S
C1077 C1076 1.391 . S
C1077 C1079 1.387 . S
C1078 C1075 1.398 . S
C1078 C1079 1.380 . S
C1078 H1092 0.930 . S
C1079 C1077 1.387 . S
C1079 C1078 1.380 . S
C1079 H1093 0.930 . S
C1080 O1060 1.254 . S
C1080 O1061 1.268 . S
C1081 O1065 1.284 . S
C1081 O1068 1.250 . S
C1082 Gd1015 2.828 . S
C1082 O1064 1.258 . S
C1082 O1069 1.252 . S
C1082 C1083 1.497 . S
C1083 C1082 1.497 . S
C1083 C1084 1.395 . S
C1083 C1085 1.380 . S
C1084 C1083 1.395 . S
C1084 C1087 1.398 . S
C1084 H1094 0.930 . S
C1085 C1083 1.380 . S
C1085 C1086 1.391 . S
C1085 H1095 0.930 . S
C1086 C1085 1.391 . S
C1086 C1088 1.387 . S
C1087 C1084 1.398 . S
C1087 C1088 1.380 . S
C1087 H1096 0.930 . S
C1088 C1086 1.387 . S
C1088 C1087 1.380 . S
C1088 H1097 0.930 . S
C1089 O1066 1.254 . S
C1089 O1067 1.268 . S
H1090 C1075 0.930 . S
H1091 C1076 0.930 . S
H1092 C1078 0.930 . S
H1093 C1079 0.930 . S
H1094 C1084 0.930 . S
H1095 C1085 0.930 . S
H1096 C1087 0.930 . S
H1097 C1088 0.930 . S
H1098 C1106 0.950 . S
H1099 C1111 0.950 . S
H1100 C1108 0.950 . S
H1101 C1110 0.950 . S
H1102 C1112 0.950 1_556 S
H1103 C1114 0.950 . S
H1104 C1116 0.950 . S
H1105 C1117 0.950 . S
C1106 H1098 0.950 . S
C1106 C1107 1.386 . S
C1106 C1108 1.391 . S
C1107 C1106 1.386 . S
C1107 C1111 1.393 . S
C1108 H1100 0.950 . S
C1108 C1106 1.391 . S
C1108 C1109 1.400 . S
C1109 C1108 1.400 . S
C1109 C1110 1.398 . S
C1109 C1115 1.491 . S
C1110 H1101 0.950 . S
C1110 C1109 1.398 . S
C1110 C1111 1.391 . S
C1111 H1099 0.950 . S
C1111 C1107 1.393 . S
C1111 C1110 1.391 . S
C1112 H1102 0.950 1_554 S
C1112 C1113 1.386 . S
C1112 C1114 1.391 . S
C1113 C1112 1.386 . S
C1113 C1117 1.393 . S
C1114 H1103 0.950 . S
C1114 C1112 1.391 . S
C1114 C1115 1.400 . S
C1115 C1109 1.491 . S
C1115 C1114 1.400 . S
C1115 C1116 1.398 . S
C1116 H1104 0.950 . S
C1116 C1115 1.398 . S
C1116 C1117 1.391 . S
C1117 H1105 0.950 . S
C1117 C1113 1.393 . S
C1117 C1116 1.391 . S
H1118 C1126 0.950 . S
H1119 C1131 0.950 . S
H1120 C1128 0.950 . S
H1121 C1130 0.950 . S
H1122 C1132 0.950 1_556 S
H1123 C1134 0.950 . S
H1124 C1136 0.950 . S
H1125 C1137 0.950 . S
C1126 H1118 0.950 . S
C1126 C1127 1.386 . S
C1126 C1128 1.391 . S
C1127 C1126 1.386 . S
C1127 C1131 1.393 . S
C1128 H1120 0.950 . S
C1128 C1126 1.391 . S
C1128 C1129 1.400 . S
C1129 C1128 1.400 . S
C1129 C1130 1.398 . S
C1129 C1135 1.491 . S
C1130 H1121 0.950 . S
C1130 C1129 1.398 . S
C1130 C1131 1.391 . S
C1131 H1119 0.950 . S
C1131 C1127 1.393 . S
C1131 C1130 1.391 . S
C1132 H1122 0.950 1_554 S
C1132 C1133 1.386 . S
C1132 C1134 1.391 . S
C1133 C1132 1.386 . S
C1133 C1137 1.393 . S
C1134 H1123 0.950 . S
C1134 C1132 1.391 . S
C1134 C1135 1.400 . S
C1135 C1129 1.491 . S
C1135 C1134 1.400 . S
C1135 C1136 1.398 . S
C1136 H1124 0.950 . S
C1136 C1135 1.398 . S
C1136 C1137 1.391 . S
C1137 H1125 0.950 . S
C1137 C1133 1.393 . S
C1137 C1136 1.391 . S
H1138 C1146 0.950 . S
H1139 C1151 0.950 . S
H1140 C1148 0.950 . S
H1141 C1150 0.950 . S
H1142 C1152 0.950 . S
H1143 C1154 0.950 . S
H1144 C1156 0.950 . S
H1145 C1157 0.950 . S
C1146 H1138 0.950 . S
C1146 C1147 1.386 . S
C1146 C1148 1.391 . S
C1147 C1146 1.386 . S
C1147 C1151 1.393 . S
C1148 H1140 0.950 . S
C1148 C1146 1.391 . S
C1148 C1149 1.400 . S
C1149 C1148 1.400 . S
C1149 C1150 1.398 . S
C1149 C1155 1.491 . S
C1150 H1141 0.950 . S
C1150 C1149 1.398 . S
C1150 C1151 1.391 . S
C1151 H1139 0.950 . S
C1151 C1147 1.393 . S
C1151 C1150 1.391 . S
C1152 H1142 0.950 . S
C1152 C1153 1.386 . S
C1152 C1154 1.391 . S
C1153 C1152 1.386 . S
C1153 C1157 1.393 . S
C1154 H1143 0.950 . S
C1154 C1152 1.391 . S
C1154 C1155 1.400 . S
C1155 C1149 1.491 . S
C1155 C1154 1.400 . S
C1155 C1156 1.398 . S
C1156 H1144 0.950 . S
C1156 C1155 1.398 . S
C1156 C1157 1.391 . S
C1157 H1145 0.950 . S
C1157 C1153 1.393 . S
C1157 C1156 1.391 . S
H1158 C1166 0.950 . S
H1159 C1171 0.950 . S
H1160 C1168 0.950 . S
H1161 C1170 0.950 . S
H1162 C1172 0.950 . S
H1163 C1174 0.950 . S
H1164 C1176 0.950 . S
H1165 C1177 0.950 . S
C1166 H1158 0.950 . S
C1166 C1167 1.386 . S
C1166 C1168 1.391 . S
C1167 C1166 1.386 . S
C1167 C1171 1.393 . S
C1168 H1160 0.950 . S
C1168 C1166 1.391 . S
C1168 C1169 1.400 . S
C1169 C1168 1.400 . S
C1169 C1170 1.398 . S
C1169 C1175 1.491 . S
C1170 H1161 0.950 . S
C1170 C1169 1.398 . S
C1170 C1171 1.391 . S
C1171 H1159 0.950 . S
C1171 C1167 1.393 . S
C1171 C1170 1.391 . S
C1172 H1162 0.950 . S
C1172 C1173 1.386 . S
C1172 C1174 1.391 . S
C1173 C1172 1.386 . S
C1173 C1177 1.393 . S
C1174 H1163 0.950 . S
C1174 C1172 1.391 . S
C1174 C1175 1.400 . S
C1175 C1169 1.491 . S
C1175 C1174 1.400 . S
C1175 C1176 1.398 . S
C1176 H1164 0.950 . S
C1176 C1175 1.398 . S
C1176 C1177 1.391 . S
C1177 H1165 0.950 . S
C1177 C1173 1.393 . S
C1177 C1176 1.391 . S
H1178 C1186 0.950 . S
H1179 C1191 0.950 . S
H1180 C1188 0.950 1_554 S
H1181 C1190 0.950 . S
H1182 C1192 0.950 . S
H1183 C1194 0.950 . S
H1184 C1196 0.950 . S
H1185 C1197 0.950 . S
C1186 H1178 0.950 . S
C1186 C1187 1.386 . S
C1186 C1188 1.391 . S
C1187 C1186 1.386 . S
C1187 C1191 1.393 . S
C1188 H1180 0.950 1_556 S
C1188 C1186 1.391 . S
C1188 C1189 1.400 . S
C1189 C1188 1.400 . S
C1189 C1190 1.398 . S
C1189 C1195 1.491 . S
C1190 H1181 0.950 . S
C1190 C1189 1.398 . S
C1190 C1191 1.391 . S
C1191 H1179 0.950 . S
C1191 C1187 1.393 . S
C1191 C1190 1.391 . S
C1192 H1182 0.950 . S
C1192 C1193 1.386 . S
C1192 C1194 1.391 . S
C1193 C1192 1.386 . S
C1193 C1197 1.393 1_556 S
C1194 H1183 0.950 . S
C1194 C1192 1.391 . S
C1194 C1195 1.400 . S
C1195 C1189 1.491 . S
C1195 C1194 1.400 . S
C1195 C1196 1.398 1_556 S
C1196 H1184 0.950 . S
C1196 C1195 1.398 1_554 S
C1196 C1197 1.391 . S
C1197 H1185 0.950 . S
C1197 C1193 1.393 1_554 S
C1197 C1196 1.391 . S
H1198 C1206 0.950 . S
H1199 C1211 0.950 . S
H1200 C1208 0.950 1_554 S
H1201 C1210 0.950 . S
H1202 C1212 0.950 . S
H1203 C1214 0.950 . S
H1204 C1216 0.950 . S
H1205 C1217 0.950 . S
C1206 H1198 0.950 . S
C1206 C1207 1.386 . S
C1206 C1208 1.391 . S
C1207 C1206 1.386 . S
C1207 C1211 1.393 . S
C1208 H1200 0.950 1_556 S
C1208 C1206 1.391 . S
C1208 C1209 1.400 . S
C1209 C1208 1.400 . S
C1209 C1210 1.398 . S
C1209 C1215 1.491 . S
C1210 H1201 0.950 . S
C1210 C1209 1.398 . S
C1210 C1211 1.391 . S
C1211 H1199 0.950 . S
C1211 C1207 1.393 . S
C1211 C1210 1.391 . S
C1212 H1202 0.950 . S
C1212 C1213 1.386 . S
C1212 C1214 1.391 . S
C1213 C1212 1.386 . S
C1213 C1217 1.393 1_556 S
C1214 H1203 0.950 . S
C1214 C1212 1.391 . S
C1214 C1215 1.400 . S
C1215 C1209 1.491 . S
C1215 C1214 1.400 . S
C1215 C1216 1.398 1_556 S
C1216 H1204 0.950 . S
C1216 C1215 1.398 1_554 S
C1216 C1217 1.391 . S
C1217 H1205 0.950 . S
C1217 C1213 1.393 1_554 S
C1217 C1216 1.391 . S
H1218 C1226 0.950 . S
H1219 C1231 0.947 1_554 S
H1220 C1228 0.950 . S
H1221 C1230 0.950 . S
H1222 C1232 0.950 . S
H1223 C1234 0.950 . S
H1224 C1236 0.950 . S
H1225 C1237 0.950 . S
C1226 H1218 0.950 . S
C1226 C1227 1.386 . S
C1226 C1228 1.391 . S
C1227 C1226 1.386 . S
C1227 C1231 1.396 . S
C1228 H1220 0.950 . S
C1228 C1226 1.391 . S
C1228 C1229 1.400 . S
C1229 C1228 1.400 . S
C1229 C1230 1.398 1_556 S
C1229 C1235 1.491 . S
C1230 H1221 0.950 . S
C1230 C1229 1.398 1_554 S
C1230 C1231 1.390 1_554 S
C1231 H1219 0.947 1_556 S
C1231 C1227 1.396 . S
C1231 C1230 1.390 1_556 S
C1232 H1222 0.950 . S
C1232 C1233 1.386 1_554 S
C1232 C1234 1.391 . S
C1233 C1232 1.386 1_556 S
C1233 C1237 1.393 . S
C1234 H1223 0.950 . S
C1234 C1232 1.391 . S
C1234 C1235 1.400 1_554 S
C1235 C1229 1.491 . S
C1235 C1234 1.400 1_556 S
C1235 C1236 1.398 . S
C1236 H1224 0.950 . S
C1236 C1235 1.398 . S
C1236 C1237 1.391 . S
C1237 H1225 0.950 . S
C1237 C1233 1.393 . S
C1237 C1236 1.391 . S
H1238 C1246 0.950 1_554 S
H1239 C1251 0.950 . S
H1240 C1248 0.921 1_554 S
H1241 C1250 0.950 . S
H1242 C1252 0.950 . S
H1243 C1254 0.950 . S
H1244 C1256 0.950 . S
H1245 C1257 0.950 . S
C1246 H1238 0.950 1_556 S
C1246 C1247 1.386 . S
C1246 C1248 1.397 . S
C1247 C1246 1.386 . S
C1247 C1251 1.393 . S
C1248 H1240 0.921 1_556 S
C1248 C1246 1.397 . S
C1248 C1249 1.423 . S
C1249 C1248 1.423 . S
C1249 C1250 1.398 . S
C1249 C1255 1.491 . S
C1250 H1241 0.950 . S
C1250 C1249 1.398 . S
C1250 C1251 1.391 . S
C1251 H1239 0.950 . S
C1251 C1247 1.393 . S
C1251 C1250 1.391 . S
C1252 H1242 0.950 . S
C1252 C1253 1.386 . S
C1252 C1254 1.391 . S
C1253 C1252 1.386 . S
C1253 C1257 1.393 1_556 S
C1254 H1243 0.950 . S
C1254 C1252 1.391 . S
C1254 C1255 1.400 . S
C1255 C1249 1.491 . S
C1255 C1254 1.400 . S
C1255 C1256 1.398 1_556 S
C1256 H1244 0.950 . S
C1256 C1255 1.398 1_554 S
C1256 C1257 1.391 . S
C1257 H1245 0.950 . S
C1257 C1253 1.393 1_554 S
C1257 C1256 1.391 . S
H1258 C1266 0.985 . S
H1259 C1271 0.950 . S
H1260 C1268 0.950 . S
H1261 C1270 0.950 . S
H1262 C1272 0.950 . S
H1263 C1274 0.950 . S
H1264 C1276 0.950 . S
H1265 C1277 0.950 . S
C1266 H1258 0.985 . S
C1266 C1267 1.344 1_554 S
C1266 C1268 1.400 . S
C1267 C1266 1.344 1_556 S
C1267 C1271 1.393 . S
C1268 H1260 0.950 . S
C1268 C1266 1.400 . S
C1268 C1269 1.400 1_554 S
C1269 C1268 1.400 1_556 S
C1269 C1270 1.398 . S
C1269 C1275 1.491 . S
C1270 H1261 0.950 . S
C1270 C1269 1.398 . S
C1270 C1271 1.391 . S
C1271 H1259 0.950 . S
C1271 C1267 1.393 . S
C1271 C1270 1.391 . S
C1272 H1262 0.950 . S
C1272 C1273 1.384 1_556 S
C1272 C1274 1.391 . S
C1273 C1272 1.384 1_554 S
C1273 C1277 1.394 . S
C1274 H1263 0.950 . S
C1274 C1272 1.391 . S
C1274 C1275 1.400 . S
C1275 C1269 1.491 . S
C1275 C1274 1.400 . S
C1275 C1276 1.398 1_556 S
C1276 H1264 0.950 . S
C1276 C1275 1.398 1_554 S
C1276 C1277 1.391 . S
C1277 H1265 0.950 . S
C1277 C1273 1.394 . S
C1277 C1276 1.391 . S
H1278 C1286 0.950 . S
H1279 C1291 0.950 . S
H1280 C1288 0.950 . S
H1281 C1290 0.950 . S
H1282 C1292 0.950 1_556 S
H1283 C1294 0.950 . S
H1284 C1296 0.950 . S
H1285 C1297 0.950 . S
C1286 H1278 0.950 . S
C1286 C1287 1.386 . S
C1286 C1288 1.391 . S
C1287 C1286 1.386 . S
C1287 C1291 1.393 . S
C1288 H1280 0.950 . S
C1288 C1286 1.391 . S
C1288 C1289 1.400 . S
C1289 C1288 1.400 . S
C1289 C1290 1.398 . S
C1289 C1295 1.491 . S
C1290 H1281 0.950 . S
C1290 C1289 1.398 . S
C1290 C1291 1.391 . S
C1291 H1279 0.950 . S
C1291 C1287 1.393 . S
C1291 C1290 1.391 . S
C1292 H1282 0.950 1_554 S
C1292 C1293 1.386 . S
C1292 C1294 1.391 . S
C1293 C1292 1.386 . S
C1293 C1297 1.393 . S
C1294 H1283 0.950 . S
C1294 C1292 1.391 . S
C1294 C1295 1.400 . S
C1295 C1289 1.491 . S
C1295 C1294 1.400 . S
C1295 C1296 1.398 . S
C1296 H1284 0.950 . S
C1296 C1295 1.398 . S
C1296 C1297 1.391 . S
C1297 H1285 0.950 . S
C1297 C1293 1.393 . S
C1297 C1296 1.391 . S
H1298 C1306 0.950 . S
H1299 C1311 0.950 . S
H1300 C1308 0.950 . S
H1301 C1310 0.950 . S
H1302 C1312 0.992 . S
H1303 C1314 0.950 . S
H1304 C1316 0.950 . S
H1305 C1317 0.950 . S
C1306 H1298 0.950 . S
C1306 C1307 1.386 . S
C1306 C1308 1.391 . S
C1307 C1306 1.386 . S
C1307 C1311 1.393 . S
C1308 H1300 0.950 . S
C1308 C1306 1.391 . S
C1308 C1309 1.400 . S
C1309 C1308 1.400 . S
C1309 C1310 1.398 . S
C1309 C1315 1.491 . S
C1310 H1301 0.950 . S
C1310 C1309 1.398 . S
C1310 C1311 1.391 . S
C1311 H1299 0.950 . S
C1311 C1307 1.393 . S
C1311 C1310 1.391 . S
C1312 H1302 0.992 . S
C1312 C1313 1.386 . S
C1312 C1314 1.391 . S
C1313 C1312 1.386 . S
C1313 C1317 1.393 . S
C1314 H1303 0.950 . S
C1314 C1312 1.391 . S
C1314 C1315 1.400 . S
C1315 C1309 1.491 . S
C1315 C1314 1.400 . S
C1315 C1316 1.398 . S
C1316 H1304 0.950 . S
C1316 C1315 1.398 . S
C1316 C1317 1.391 . S
C1317 H1305 0.950 . S
C1317 C1313 1.393 . S
C1317 C1316 1.391 . S
H1318 C1326 0.950 . S
H1319 C1331 0.950 . S
H1320 C1328 0.950 . S
H1321 C1330 0.950 . S
H1322 C1332 0.950 . S
H1323 C1334 0.950 . S
H1324 C1336 0.950 . S
H1325 C1337 0.950 . S
C1326 H1318 0.950 . S
C1326 C1327 1.386 . S
C1326 C1328 1.391 . S
C1327 C1326 1.386 . S
C1327 C1331 1.393 . S
C1328 H1320 0.950 . S
C1328 C1326 1.391 . S
C1328 C1329 1.400 . S
C1329 C1328 1.400 . S
C1329 C1330 1.398 . S
C1329 C1335 1.491 . S
C1330 H1321 0.950 . S
C1330 C1329 1.398 . S
C1330 C1331 1.391 . S
C1331 H1319 0.950 . S
C1331 C1327 1.393 . S
C1331 C1330 1.391 . S
C1332 H1322 0.950 . S
C1332 C1333 1.386 . S
C1332 C1334 1.391 . S
C1333 C1332 1.386 . S
C1333 C1337 1.393 . S
C1334 H1323 0.950 . S
C1334 C1332 1.391 . S
C1334 C1335 1.400 . S
C1335 C1329 1.491 . S
C1335 C1334 1.400 . S
C1335 C1336 1.398 . S
C1336 H1324 0.950 . S
C1336 C1335 1.398 . S
C1336 C1337 1.391 . S
C1337 H1325 0.950 . S
C1337 C1333 1.393 . S
C1337 C1336 1.391 . S
H1338 C1346 0.950 . S
H1339 C1351 0.950 . S
H1340 C1348 0.950 . S
H1341 C1350 0.950 1_455 S
H1342 C1352 0.950 . S
H1343 C1354 0.950 . S
H1344 C1356 0.950 1_655 S
H1345 C1357 0.950 . S
C1346 H1338 0.950 . S
C1346 C1347 1.386 . S
C1346 C1348 1.391 . S
C1347 C1346 1.386 . S
C1347 C1351 1.393 . S
C1348 H1340 0.950 . S
C1348 C1346 1.391 . S
C1348 C1349 1.400 . S
C1349 C1348 1.400 . S
C1349 C1350 1.398 . S
C1349 C1355 1.491 1_655 S
C1350 H1341 0.950 1_655 S
C1350 C1349 1.398 . S
C1350 C1351 1.391 . S
C1351 H1339 0.950 . S
C1351 C1347 1.393 . S
C1351 C1350 1.391 . S
C1352 H1342 0.950 . S
C1352 C1353 1.386 . S
C1352 C1354 1.391 . S
C1353 C1352 1.386 . S
C1353 C1357 1.393 . S
C1354 H1343 0.950 . S
C1354 C1352 1.391 . S
C1354 C1355 1.400 . S
C1355 C1349 1.491 1_455 S
C1355 C1354 1.400 . S
C1355 C1356 1.398 . S
C1356 H1344 0.950 1_455 S
C1356 C1355 1.398 . S
C1356 C1357 1.391 . S
C1357 H1345 0.950 . S
C1357 C1353 1.393 . S
C1357 C1356 1.391 . S
H1358 C1366 0.950 . S
H1359 C1371 0.950 . S
H1360 C1368 0.950 . S
H1361 C1370 0.950 . S
H1362 C1372 0.950 . S
H1363 C1374 0.950 . S
H1364 C1376 0.950 . S
H1365 C1377 0.950 . S
C1366 H1358 0.950 . S
C1366 C1367 1.386 . S
C1366 C1368 1.391 . S
C1367 C1366 1.386 . S
C1367 C1371 1.393 . S
C1368 H1360 0.950 . S
C1368 C1366 1.391 . S
C1368 C1369 1.400 . S
C1369 C1368 1.400 . S
C1369 C1370 1.398 . S
C1369 C1375 1.491 . S
C1370 H1361 0.950 . S
C1370 C1369 1.398 . S
C1370 C1371 1.391 . S
C1371 H1359 0.950 . S
C1371 C1367 1.393 . S
C1371 C1370 1.391 . S
C1372 H1362 0.950 . S
C1372 C1373 1.386 . S
C1372 C1374 1.391 . S
C1373 C1372 1.386 . S
C1373 C1377 1.393 . S
C1374 H1363 0.950 . S
C1374 C1372 1.391 . S
C1374 C1375 1.400 . S
C1375 C1369 1.491 . S
C1375 C1374 1.400 . S
C1375 C1376 1.398 . S
C1376 H1364 0.950 . S
C1376 C1375 1.398 . S
C1376 C1377 1.391 . S
C1377 H1365 0.950 . S
C1377 C1373 1.393 . S
C1377 C1376 1.391 . S
H1378 C1386 0.950 . S
H1379 C1391 0.950 . S
H1380 C1388 0.950 . S
H1381 C1390 0.950 . S
H1382 C1392 0.950 . S
H1383 C1394 0.948 . S
H1384 C1396 0.950 . S
H1385 C1397 0.950 . S
C1386 H1378 0.950 . S
C1386 C1387 1.386 . S
C1386 C1388 1.391 . S
C1387 C1386 1.386 . S
C1387 C1391 1.393 . S
C1388 H1380 0.950 . S
C1388 C1386 1.391 . S
C1388 C1389 1.400 . S
C1389 C1388 1.400 . S
C1389 C1390 1.398 . S
C1389 C1395 1.491 1_545 S
C1390 H1381 0.950 . S
C1390 C1389 1.398 . S
C1390 C1391 1.391 . S
C1391 H1379 0.950 . S
C1391 C1387 1.393 . S
C1391 C1390 1.391 . S
C1392 H1382 0.950 . S
C1392 C1393 1.386 . S
C1392 C1394 1.391 . S
C1393 C1392 1.386 . S
C1393 C1397 1.393 . S
C1394 H1383 0.948 . S
C1394 C1392 1.391 . S
C1394 C1395 1.400 . S
C1395 C1389 1.491 1_565 S
C1395 C1394 1.400 . S
C1395 C1396 1.398 . S
C1396 H1384 0.950 . S
C1396 C1395 1.398 . S
C1396 C1397 1.391 . S
C1397 H1385 0.950 . S
C1397 C1393 1.393 . S
C1397 C1396 1.391 . S
H1398 C1406 0.950 . S
H1399 C1411 0.950 . S
H1400 C1408 0.950 . S
H1401 C1410 0.950 . S
H1402 C1412 0.950 . S
H1403 C1414 0.950 . S
H1404 C1416 0.950 . S
H1405 C1417 0.950 . S
C1406 H1398 0.950 . S
C1406 C1407 1.386 . S
C1406 C1408 1.391 . S
C1407 C1406 1.386 . S
C1407 C1411 1.393 . S
C1408 H1400 0.950 . S
C1408 C1406 1.391 . S
C1408 C1409 1.400 . S
C1409 C1408 1.400 . S
C1409 C1410 1.398 . S
C1409 C1415 1.491 . S
C1410 H1401 0.950 . S
C1410 C1409 1.398 . S
C1410 C1411 1.391 . S
C1411 H1399 0.950 . S
C1411 C1407 1.393 . S
C1411 C1410 1.391 . S
C1412 H1402 0.950 . S
C1412 C1413 1.386 . S
C1412 C1414 1.391 . S
C1413 C1412 1.386 . S
C1413 C1417 1.393 . S
C1414 H1403 0.950 . S
C1414 C1412 1.391 . S
C1414 C1415 1.400 . S
C1415 C1409 1.491 . S
C1415 C1414 1.400 . S
C1415 C1416 1.398 . S
C1416 H1404 0.950 . S
C1416 C1415 1.398 . S
C1416 C1417 1.391 . S
C1417 H1405 0.950 . S
C1417 C1413 1.393 . S
C1417 C1416 1.391 . S
H1418 C1426 0.950 . S
H1419 C1431 0.950 . S
H1420 C1428 0.950 . S
H1421 C1430 0.950 . S
H1422 C1432 0.950 . S
H1423 C1434 0.950 . S
H1424 C1436 0.950 . S
H1425 C1437 0.950 . S
C1426 H1418 0.950 . S
C1426 C1427 1.386 . S
C1426 C1428 1.391 . S
C1427 C1426 1.386 . S
C1427 C1431 1.393 . S
C1428 H1420 0.950 . S
C1428 C1426 1.391 . S
C1428 C1429 1.400 . S
C1429 C1428 1.400 . S
C1429 C1430 1.398 . S
C1429 C1435 1.491 . S
C1430 H1421 0.950 . S
C1430 C1429 1.398 . S
C1430 C1431 1.391 . S
C1431 H1419 0.950 . S
C1431 C1427 1.393 . S
C1431 C1430 1.391 . S
C1432 H1422 0.950 . S
C1432 C1433 1.386 . S
C1432 C1434 1.391 . S
C1433 C1432 1.386 . S
C1433 C1437 1.393 . S
C1434 H1423 0.950 . S
C1434 C1432 1.391 . S
C1434 C1435 1.400 . S
C1435 C1429 1.491 . S
C1435 C1434 1.400 . S
C1435 C1436 1.398 . S
C1436 H1424 0.950 . S
C1436 C1435 1.398 . S
C1436 C1437 1.391 . S
C1437 H1425 0.950 . S
C1437 C1433 1.393 . S
C1437 C1436 1.391 . S
H1438 C1446 0.950 . S
H1439 C1451 0.950 . S
H1440 C1448 0.950 . S
H1441 C1450 0.950 . S
H1442 C1452 0.950 . S
H1443 C1454 0.950 . S
H1444 C1456 0.950 . S
H1445 C1457 0.950 . S
C1446 H1438 0.950 . S
C1446 C1447 1.386 . S
C1446 C1448 1.391 . S
C1447 C1446 1.386 . S
C1447 C1451 1.393 . S
C1448 H1440 0.950 . S
C1448 C1446 1.391 . S
C1448 C1449 1.400 . S
C1449 C1448 1.400 . S
C1449 C1450 1.398 . S
C1449 C1455 1.491 . S
C1450 H1441 0.950 . S
C1450 C1449 1.398 . S
C1450 C1451 1.391 . S
C1451 H1439 0.950 . S
C1451 C1447 1.393 . S
C1451 C1450 1.391 . S
C1452 H1442 0.950 . S
C1452 C1453 1.386 . S
C1452 C1454 1.391 . S
C1453 C1452 1.386 . S
C1453 C1457 1.393 . S
C1454 H1443 0.950 . S
C1454 C1452 1.391 . S
C1454 C1455 1.400 . S
C1455 C1449 1.491 . S
C1455 C1454 1.400 . S
C1455 C1456 1.398 . S
C1456 H1444 0.950 . S
C1456 C1455 1.398 . S
C1456 C1457 1.391 . S
C1457 H1445 0.950 . S
C1457 C1453 1.393 . S
C1457 C1456 1.391 . S
H1458 C1466 0.950 . S
H1459 C1471 0.950 . S
H1460 C1468 0.950 . S
H1461 C1470 0.950 . S
H1462 C1472 0.950 . S
H1463 C1474 0.950 . S
H1464 C1476 0.950 . S
H1465 C1477 0.950 . S
C1466 H1458 0.950 . S
C1466 C1467 1.386 . S
C1466 C1468 1.391 . S
C1467 C1466 1.386 . S
C1467 C1471 1.393 . S
C1468 H1460 0.950 . S
C1468 C1466 1.391 . S
C1468 C1469 1.400 . S
C1469 C1468 1.400 . S
C1469 C1470 1.398 . S
C1469 C1475 1.491 . S
C1470 H1461 0.950 . S
C1470 C1469 1.398 . S
C1470 C1471 1.391 . S
C1471 H1459 0.950 . S
C1471 C1467 1.393 . S
C1471 C1470 1.391 . S
C1472 H1462 0.950 . S
C1472 C1473 1.386 . S
C1472 C1474 1.391 . S
C1473 C1472 1.386 . S
C1473 C1477 1.393 . S
C1474 H1463 0.950 . S
C1474 C1472 1.391 . S
C1474 C1475 1.400 . S
C1475 C1469 1.491 . S
C1475 C1474 1.400 . S
C1475 C1476 1.398 . S
C1476 H1464 0.950 . S
C1476 C1475 1.398 . S
C1476 C1477 1.391 . S
C1477 H1465 0.950 . S
C1477 C1473 1.393 . S
C1477 C1476 1.391 . S
H1478 C1486 0.950 . S
H1479 C1491 0.950 . S
H1480 C1488 0.950 . S
H1481 C1490 0.950 . S
H1482 C1492 0.950 . S
H1483 C1494 0.950 . S
H1484 C1496 0.950 . S
H1485 C1497 0.950 . S
C1486 H1478 0.950 . S
C1486 C1487 1.386 . S
C1486 C1488 1.391 . S
C1487 C1486 1.386 . S
C1487 C1491 1.393 . S
C1488 H1480 0.950 . S
C1488 C1486 1.391 . S
C1488 C1489 1.400 . S
C1489 C1488 1.400 . S
C1489 C1490 1.398 . S
C1489 C1495 1.491 . S
C1490 H1481 0.950 . S
C1490 C1489 1.398 . S
C1490 C1491 1.391 . S
C1491 H1479 0.950 . S
C1491 C1487 1.393 . S
C1491 C1490 1.391 . S
C1492 H1482 0.950 . S
C1492 C1493 1.386 . S
C1492 C1494 1.391 . S
C1493 C1492 1.386 . S
C1493 C1497 1.393 . S
C1494 H1483 0.950 . S
C1494 C1492 1.391 . S
C1494 C1495 1.400 . S
C1495 C1489 1.491 . S
C1495 C1494 1.400 . S
C1495 C1496 1.398 . S
C1496 H1484 0.950 . S
C1496 C1495 1.398 . S
C1496 C1497 1.391 . S
C1497 H1485 0.950 . S
C1497 C1493 1.393 . S
C1497 C1496 1.391 . S
H1498 C1506 0.950 . S
H1499 C1511 0.950 . S
H1500 C1508 0.950 . S
H1501 C1510 0.950 . S
H1502 C1512 0.950 . S
H1503 C1514 0.950 . S
H1504 C1516 0.950 . S
H1505 C1517 0.950 . S
C1506 H1498 0.950 . S
C1506 C1507 1.386 . S
C1506 C1508 1.391 . S
C1507 C1506 1.386 . S
C1507 C1511 1.393 . S
C1508 H1500 0.950 . S
C1508 C1506 1.391 . S
C1508 C1509 1.400 . S
C1509 C1508 1.400 . S
C1509 C1510 1.398 . S
C1509 C1515 1.491 . S
C1510 H1501 0.950 . S
C1510 C1509 1.398 . S
C1510 C1511 1.391 . S
C1511 H1499 0.950 . S
C1511 C1507 1.393 . S
C1511 C1510 1.391 . S
C1512 H1502 0.950 . S
C1512 C1513 1.386 . S
C1512 C1514 1.391 . S
C1513 C1512 1.386 . S
C1513 C1517 1.393 . S
C1514 H1503 0.950 . S
C1514 C1512 1.391 . S
C1514 C1515 1.400 . S
C1515 C1509 1.491 . S
C1515 C1514 1.400 . S
C1515 C1516 1.398 . S
C1516 H1504 0.950 . S
C1516 C1515 1.398 . S
C1516 C1517 1.391 . S
C1517 H1505 0.950 . S
C1517 C1513 1.393 . S
C1517 C1516 1.391 . S
H1518 C1526 0.950 . S
H1519 C1531 0.973 . S
H1520 C1528 0.950 . S
H1521 C1530 0.950 . S
H1522 C1532 0.950 . S
H1523 C1534 0.950 . S
H1524 C1536 0.950 . S
H1525 C1537 0.950 . S
C1526 H1518 0.950 . S
C1526 C1527 1.386 . S
C1526 C1528 1.391 . S
C1527 C1526 1.386 . S
C1527 C1531 1.393 . S
C1528 H1520 0.950 . S
C1528 C1526 1.391 . S
C1528 C1529 1.400 . S
C1529 C1528 1.400 . S
C1529 C1530 1.398 . S
C1529 C1535 1.491 . S
C1530 H1521 0.950 . S
C1530 C1529 1.398 . S
C1530 C1531 1.391 . S
C1531 H1519 0.973 . S
C1531 C1527 1.393 . S
C1531 C1530 1.391 . S
C1532 H1522 0.950 . S
C1532 C1533 1.386 . S
C1532 C1534 1.391 . S
C1533 C1532 1.386 . S
C1533 C1537 1.393 . S
C1534 H1523 0.950 . S
C1534 C1532 1.391 . S
C1534 C1535 1.400 . S
C1535 C1529 1.491 . S
C1535 C1534 1.400 . S
C1535 C1536 1.398 . S
C1536 H1524 0.950 . S
C1536 C1535 1.398 . S
C1536 C1537 1.391 . S
C1537 H1525 0.950 . S
C1537 C1533 1.393 . S
C1537 C1536 1.391 . S
H1538 C1546 0.950 . S
H1539 C1551 0.950 . S
H1540 C1548 0.950 . S
H1541 C1550 0.950 . S
H1542 C1552 0.950 . S
H1543 C1554 0.950 . S
H1544 C1556 0.950 . S
H1545 C1557 0.950 . S
C1546 H1538 0.950 . S
C1546 C1547 1.386 . S
C1546 C1548 1.391 . S
C1547 C1546 1.386 . S
C1547 C1551 1.393 . S
C1548 H1540 0.950 . S
C1548 C1546 1.391 . S
C1548 C1549 1.400 . S
C1549 C1548 1.400 . S
C1549 C1550 1.398 . S
C1549 C1555 1.491 . S
C1550 H1541 0.950 . S
C1550 C1549 1.398 . S
C1550 C1551 1.391 . S
C1551 H1539 0.950 . S
C1551 C1547 1.393 . S
C1551 C1550 1.391 . S
C1552 H1542 0.950 . S
C1552 C1553 1.386 . S
C1552 C1554 1.391 . S
C1553 C1552 1.386 . S
C1553 C1557 1.393 . S
C1554 H1543 0.950 . S
C1554 C1552 1.391 . S
C1554 C1555 1.400 . S
C1555 C1549 1.491 . S
C1555 C1554 1.400 . S
C1555 C1556 1.398 . S
C1556 H1544 0.950 . S
C1556 C1555 1.398 . S
C1556 C1557 1.391 . S
C1557 H1545 0.950 . S
C1557 C1553 1.393 . S
C1557 C1556 1.391 . S
H1558 C1566 0.950 . S
H1559 C1571 0.950 . S
H1560 C1568 0.950 . S
H1561 C1570 0.950 . S
H1562 C1572 0.950 . S
H1563 C1574 0.950 . S
H1564 C1576 0.950 . S
H1565 C1577 0.950 . S
C1566 H1558 0.950 . S
C1566 C1567 1.386 . S
C1566 C1568 1.391 . S
C1567 C1566 1.386 . S
C1567 C1571 1.393 . S
C1568 H1560 0.950 . S
C1568 C1566 1.391 . S
C1568 C1569 1.400 . S
C1569 C1568 1.400 . S
C1569 C1570 1.398 . S
C1569 C1575 1.491 . S
C1570 H1561 0.950 . S
C1570 C1569 1.398 . S
C1570 C1571 1.391 . S
C1571 H1559 0.950 . S
C1571 C1567 1.393 . S
C1571 C1570 1.391 . S
C1572 H1562 0.950 . S
C1572 C1573 1.386 . S
C1572 C1574 1.391 . S
C1573 C1572 1.386 . S
C1573 C1577 1.393 . S
C1574 H1563 0.950 . S
C1574 C1572 1.391 . S
C1574 C1575 1.400 . S
C1575 C1569 1.491 . S
C1575 C1574 1.400 . S
C1575 C1576 1.398 . S
C1576 H1564 0.950 . S
C1576 C1575 1.398 . S
C1576 C1577 1.391 . S
C1577 H1565 0.950 . S
C1577 C1573 1.393 . S
C1577 C1576 1.391 . S
H1578 C1586 0.950 . S
H1579 C1591 0.950 . S
H1580 C1588 0.950 . S
H1581 C1590 0.950 . S
H1582 C1592 0.950 . S
H1583 C1594 0.950 . S
H1584 C1596 0.950 . S
H1585 C1597 0.950 . S
C1586 H1578 0.950 . S
C1586 C1587 1.386 . S
C1586 C1588 1.391 . S
C1587 C1586 1.386 . S
C1587 C1591 1.393 . S
C1588 H1580 0.950 . S
C1588 C1586 1.391 . S
C1588 C1589 1.400 . S
C1589 C1588 1.400 . S
C1589 C1590 1.398 . S
C1589 C1595 1.491 . S
C1590 H1581 0.950 . S
C1590 C1589 1.398 . S
C1590 C1591 1.391 . S
C1591 H1579 0.950 . S
C1591 C1587 1.393 . S
C1591 C1590 1.391 . S
C1592 H1582 0.950 . S
C1592 C1593 1.386 . S
C1592 C1594 1.391 . S
C1593 C1592 1.386 . S
C1593 C1597 1.393 . S
C1594 H1583 0.950 . S
C1594 C1592 1.391 . S
C1594 C1595 1.400 . S
C1595 C1589 1.491 . S
C1595 C1594 1.400 . S
C1595 C1596 1.398 . S
C1596 H1584 0.950 . S
C1596 C1595 1.398 . S
C1596 C1597 1.391 . S
C1597 H1585 0.950 . S
C1597 C1593 1.393 . S
C1597 C1596 1.391 . S
H1598 C1606 0.950 . S
H1599 C1611 0.950 . S
H1600 C1608 0.950 . S
H1601 C1610 0.950 . S
H1602 C1612 0.950 . S
H1603 C1614 0.950 . S
H1604 C1616 0.950 . S
H1605 C1617 0.950 . S
C1606 H1598 0.950 . S
C1606 C1607 1.386 . S
C1606 C1608 1.391 . S
C1607 C1606 1.386 . S
C1607 C1611 1.393 . S
C1608 H1600 0.950 . S
C1608 C1606 1.391 . S
C1608 C1609 1.400 . S
C1609 C1608 1.400 . S
C1609 C1610 1.398 . S
C1609 C1615 1.491 . S
C1610 H1601 0.950 . S
C1610 C1609 1.398 . S
C1610 C1611 1.391 . S
C1611 H1599 0.950 . S
C1611 C1607 1.393 . S
C1611 C1610 1.391 . S
C1612 H1602 0.950 . S
C1612 C1613 1.386 . S
C1612 C1614 1.391 . S
C1613 C1612 1.386 . S
C1613 C1617 1.393 . S
C1614 H1603 0.950 . S
C1614 C1612 1.391 . S
C1614 C1615 1.400 . S
C1615 C1609 1.491 . S
C1615 C1614 1.400 . S
C1615 C1616 1.398 . S
C1616 H1604 0.950 . S
C1616 C1615 1.398 . S
C1616 C1617 1.391 . S
C1617 H1605 0.950 . S
C1617 C1613 1.393 . S
C1617 C1616 1.391 . S
H1618 C1626 0.950 . S
H1619 C1631 0.950 . S
H1620 C1628 0.950 . S
H1621 C1630 0.950 . S
H1622 C1632 0.950 . S
H1623 C1634 0.950 . S
H1624 C1636 0.950 . S
H1625 C1637 0.950 . S
C1626 H1618 0.950 . S
C1626 C1627 1.386 . S
C1626 C1628 1.391 . S
C1627 C1626 1.386 . S
C1627 C1631 1.393 . S
C1628 H1620 0.950 . S
C1628 C1626 1.391 . S
C1628 C1629 1.400 . S
C1629 C1628 1.400 . S
C1629 C1630 1.398 . S
C1629 C1635 1.491 . S
C1630 H1621 0.950 . S
C1630 C1629 1.398 . S
C1630 C1631 1.391 . S
C1631 H1619 0.950 . S
C1631 C1627 1.393 . S
C1631 C1630 1.391 . S
C1632 H1622 0.950 . S
C1632 C1633 1.386 . S
C1632 C1634 1.391 . S
C1633 C1632 1.386 . S
C1633 C1637 1.393 . S
C1634 H1623 0.950 . S
C1634 C1632 1.391 . S
C1634 C1635 1.400 . S
C1635 C1629 1.491 . S
C1635 C1634 1.400 . S
C1635 C1636 1.398 . S
C1636 H1624 0.950 . S
C1636 C1635 1.398 . S
C1636 C1637 1.391 . S
C1637 H1625 0.950 . S
C1637 C1633 1.393 . S
C1637 C1636 1.391 . S
H1638 C1646 0.950 . S
H1639 C1651 0.950 . S
H1640 C1648 0.950 . S
H1641 C1650 0.950 1_545 S
H1642 C1652 0.950 . S
H1643 C1654 0.950 . S
H1644 C1656 0.954 . S
H1645 C1657 0.950 . S
C1646 H1638 0.950 . S
C1646 C1647 1.386 . S
C1646 C1648 1.391 . S
C1647 C1646 1.386 . S
C1647 C1651 1.393 . S
C1648 H1640 0.950 . S
C1648 C1646 1.391 . S
C1648 C1649 1.400 . S
C1649 C1648 1.400 . S
C1649 C1650 1.398 . S
C1649 C1655 1.491 1_565 S
C1650 H1641 0.950 1_565 S
C1650 C1649 1.398 . S
C1650 C1651 1.391 . S
C1651 H1639 0.950 . S
C1651 C1647 1.393 . S
C1651 C1650 1.391 . S
C1652 H1642 0.950 . S
C1652 C1653 1.386 . S
C1652 C1654 1.391 . S
C1653 C1652 1.386 . S
C1653 C1657 1.393 . S
C1654 H1643 0.950 . S
C1654 C1652 1.391 . S
C1654 C1655 1.400 . S
C1655 C1649 1.491 1_545 S
C1655 C1654 1.400 . S
C1655 C1656 1.398 . S
C1656 H1644 0.954 . S
C1656 C1655 1.398 . S
C1656 C1657 1.391 . S
C1657 H1645 0.950 . S
C1657 C1653 1.393 . S
C1657 C1656 1.391 . S
H1658 C1666 0.950 . S
H1659 C1671 0.950 . S
H1660 C1668 0.950 . S
H1661 C1670 0.950 . S
H1662 C1672 0.950 . S
H1663 C1674 0.950 . S
H1664 C1676 0.950 . S
H1665 C1677 0.950 . S
C1666 H1658 0.950 . S
C1666 C1667 1.386 . S
C1666 C1668 1.391 . S
C1667 C1666 1.386 . S
C1667 C1671 1.393 . S
C1668 H1660 0.950 . S
C1668 C1666 1.391 . S
C1668 C1669 1.400 . S
C1669 C1668 1.400 . S
C1669 C1670 1.398 . S
C1669 C1675 1.491 1_455 S
C1670 H1661 0.950 . S
C1670 C1669 1.398 . S
C1670 C1671 1.391 . S
C1671 H1659 0.950 . S
C1671 C1667 1.393 . S
C1671 C1670 1.391 . S
C1672 H1662 0.950 . S
C1672 C1673 1.386 . S
C1672 C1674 1.391 . S
C1673 C1672 1.386 . S
C1673 C1677 1.393 . S
C1674 H1663 0.950 . S
C1674 C1672 1.391 . S
C1674 C1675 1.400 . S
C1675 C1669 1.491 1_655 S
C1675 C1674 1.400 . S
C1675 C1676 1.398 . S
C1676 H1664 0.950 . S
C1676 C1675 1.398 . S
C1676 C1677 1.391 . S
C1677 H1665 0.950 . S
C1677 C1673 1.393 . S
C1677 C1676 1.391 . S
H1678 C1686 0.950 . S
H1679 C1691 0.950 . S
H1680 C1688 0.950 . S
H1681 C1690 0.950 . S
H1682 C1692 0.950 . S
H1683 C1694 0.950 . S
H1684 C1696 0.950 . S
H1685 C1697 0.950 . S
C1686 H1678 0.950 . S
C1686 C1687 1.386 . S
C1686 C1688 1.391 . S
C1687 C1686 1.386 . S
C1687 C1691 1.393 . S
C1688 H1680 0.950 . S
C1688 C1686 1.391 . S
C1688 C1689 1.400 . S
C1689 C1688 1.400 . S
C1689 C1690 1.398 . S
C1689 C1695 1.491 . S
C1690 H1681 0.950 . S
C1690 C1689 1.398 . S
C1690 C1691 1.391 . S
C1691 H1679 0.950 . S
C1691 C1687 1.393 . S
C1691 C1690 1.391 . S
C1692 H1682 0.950 . S
C1692 C1693 1.386 . S
C1692 C1694 1.391 . S
C1693 C1692 1.386 . S
C1693 C1697 1.393 . S
C1694 H1683 0.950 . S
C1694 C1692 1.391 . S
C1694 C1695 1.400 . S
C1695 C1689 1.491 . S
C1695 C1694 1.400 . S
C1695 C1696 1.398 . S
C1696 H1684 0.950 . S
C1696 C1695 1.398 . S
C1696 C1697 1.391 . S
C1697 H1685 0.950 . S
C1697 C1693 1.393 . S
C1697 C1696 1.391 . S
H1698 C1706 0.950 . S
H1699 C1711 0.950 . S
H1700 C1708 0.950 . S
H1701 C1710 0.950 . S
H1702 C1712 0.950 . S
H1703 C1714 0.950 . S
H1704 C1716 0.950 . S
H1705 C1717 0.950 . S
C1706 H1698 0.950 . S
C1706 C1707 1.386 . S
C1706 C1708 1.391 . S
C1707 C1706 1.386 . S
C1707 C1711 1.393 . S
C1708 H1700 0.950 . S
C1708 C1706 1.391 . S
C1708 C1709 1.400 . S
C1709 C1708 1.400 . S
C1709 C1710 1.398 . S
C1709 C1715 1.491 . S
C1710 H1701 0.950 . S
C1710 C1709 1.398 . S
C1710 C1711 1.391 . S
C1711 H1699 0.950 . S
C1711 C1707 1.393 . S
C1711 C1710 1.391 . S
C1712 H1702 0.950 . S
C1712 C1713 1.386 . S
C1712 C1714 1.391 . S
C1713 C1712 1.386 . S
C1713 C1717 1.393 . S
C1714 H1703 0.950 . S
C1714 C1712 1.391 . S
C1714 C1715 1.400 . S
C1715 C1709 1.491 . S
C1715 C1714 1.400 . S
C1715 C1716 1.398 . S
C1716 H1704 0.950 . S
C1716 C1715 1.398 . S
C1716 C1717 1.391 . S
C1717 H1705 0.950 . S
C1717 C1713 1.393 . S
C1717 C1716 1.391 . S
H1718 C1726 0.950 . S
H1719 C1731 0.950 . S
H1720 C1728 0.950 . S
H1721 C1730 0.950 . S
H1722 C1732 0.950 . S
H1723 C1734 0.950 . S
H1724 C1736 0.950 . S
H1725 C1737 0.950 . S
C1726 H1718 0.950 . S
C1726 C1727 1.386 . S
C1726 C1728 1.391 . S
C1727 C1726 1.386 . S
C1727 C1731 1.393 . S
C1728 H1720 0.950 . S
C1728 C1726 1.391 . S
C1728 C1729 1.400 . S
C1729 C1728 1.400 . S
C1729 C1730 1.398 . S
C1729 C1735 1.491 . S
C1730 H1721 0.950 . S
C1730 C1729 1.398 . S
C1730 C1731 1.391 . S
C1731 H1719 0.950 . S
C1731 C1727 1.393 . S
C1731 C1730 1.391 . S
C1732 H1722 0.950 . S
C1732 C1733 1.386 . S
C1732 C1734 1.391 . S
C1733 C1732 1.386 . S
C1733 C1737 1.393 . S
C1734 H1723 0.950 . S
C1734 C1732 1.391 . S
C1734 C1735 1.400 . S
C1735 C1729 1.491 . S
C1735 C1734 1.400 . S
C1735 C1736 1.398 . S
C1736 H1724 0.950 . S
C1736 C1735 1.398 . S
C1736 C1737 1.391 . S
C1737 H1725 0.950 . S
C1737 C1733 1.393 . S
C1737 C1736 1.391 . S
H1738 C1746 0.950 . S
H1739 C1751 0.950 . S
H1740 C1748 0.950 . S
H1741 C1750 0.950 . S
H1742 C1752 0.950 . S
H1743 C1754 0.950 . S
H1744 C1756 0.950 . S
H1745 C1757 0.950 . S
C1746 H1738 0.950 . S
C1746 C1747 1.386 . S
C1746 C1748 1.391 . S
C1747 C1746 1.386 . S
C1747 C1751 1.393 . S
C1748 H1740 0.950 . S
C1748 C1746 1.391 . S
C1748 C1749 1.400 . S
C1749 C1748 1.400 . S
C1749 C1750 1.398 . S
C1749 C1755 1.491 . S
C1750 H1741 0.950 . S
C1750 C1749 1.398 . S
C1750 C1751 1.391 . S
C1751 H1739 0.950 . S
C1751 C1747 1.393 . S
C1751 C1750 1.391 . S
C1752 H1742 0.950 . S
C1752 C1753 1.386 . S
C1752 C1754 1.391 . S
C1753 C1752 1.386 . S
C1753 C1757 1.393 . S
C1754 H1743 0.950 . S
C1754 C1752 1.391 . S
C1754 C1755 1.400 . S
C1755 C1749 1.491 . S
C1755 C1754 1.400 . S
C1755 C1756 1.398 . S
C1756 H1744 0.950 . S
C1756 C1755 1.398 . S
C1756 C1757 1.391 . S
C1757 H1745 0.950 . S
C1757 C1753 1.393 . S
C1757 C1756 1.391 . S
H1758 C1766 0.950 . S
H1759 C1771 0.950 . S
H1760 C1768 0.950 . S
H1761 C1770 0.950 . S
H1762 C1772 0.950 . S
H1763 C1774 0.950 . S
H1764 C1776 0.950 . S
H1765 C1777 0.950 . S
C1766 H1758 0.950 . S
C1766 C1767 1.386 . S
C1766 C1768 1.391 . S
C1767 C1766 1.386 . S
C1767 C1771 1.393 . S
C1768 H1760 0.950 . S
C1768 C1766 1.391 . S
C1768 C1769 1.400 . S
C1769 C1768 1.400 . S
C1769 C1770 1.398 . S
C1769 C1775 1.491 . S
C1770 H1761 0.950 . S
C1770 C1769 1.398 . S
C1770 C1771 1.391 . S
C1771 H1759 0.950 . S
C1771 C1767 1.393 . S
C1771 C1770 1.391 . S
C1772 H1762 0.950 . S
C1772 C1773 1.386 . S
C1772 C1774 1.391 . S
C1773 C1772 1.386 . S
C1773 C1777 1.393 . S
C1774 H1763 0.950 . S
C1774 C1772 1.391 . S
C1774 C1775 1.400 . S
C1775 C1769 1.491 . S
C1775 C1774 1.400 . S
C1775 C1776 1.398 . S
C1776 H1764 0.950 . S
C1776 C1775 1.398 . S
C1776 C1777 1.391 . S
C1777 H1765 0.950 . S
C1777 C1773 1.393 . S
C1777 C1776 1.391 . S
H1778 C1786 0.950 . S
H1779 C1791 0.950 . S
H1780 C1788 0.950 . S
H1781 C1790 0.950 . S
H1782 C1792 0.950 . S
H1783 C1794 0.950 . S
H1784 C1796 0.950 . S
H1785 C1797 0.950 . S
C1786 H1778 0.950 . S
C1786 C1787 1.386 . S
C1786 C1788 1.391 . S
C1787 C1786 1.386 . S
C1787 C1791 1.393 . S
C1788 H1780 0.950 . S
C1788 C1786 1.391 . S
C1788 C1789 1.400 . S
C1789 C1788 1.400 . S
C1789 C1790 1.398 . S
C1789 C1795 1.491 . S
C1790 H1781 0.950 . S
C1790 C1789 1.398 . S
C1790 C1791 1.391 . S
C1791 H1779 0.950 . S
C1791 C1787 1.393 . S
C1791 C1790 1.391 . S
C1792 H1782 0.950 . S
C1792 C1793 1.386 . S
C1792 C1794 1.391 . S
C1793 C1792 1.386 . S
C1793 C1797 1.393 . S
C1794 H1783 0.950 . S
C1794 C1792 1.391 . S
C1794 C1795 1.400 . S
C1795 C1789 1.491 . S
C1795 C1794 1.400 . S
C1795 C1796 1.398 . S
C1796 H1784 0.950 . S
C1796 C1795 1.398 . S
C1796 C1797 1.391 . S
C1797 H1785 0.950 . S
C1797 C1793 1.393 . S
C1797 C1796 1.391 . S
H1798 C1806 0.950 . S
H1799 C1811 0.950 . S
H1800 C1808 0.950 . S
H1801 C1810 0.950 . S
H1802 C1812 0.950 . S
H1803 C1814 0.950 . S
H1804 C1816 0.950 . S
H1805 C1817 0.950 . S
C1806 H1798 0.950 . S
C1806 C1807 1.386 . S
C1806 C1808 1.391 . S
C1807 C1806 1.386 . S
C1807 C1811 1.393 . S
C1808 H1800 0.950 . S
C1808 C1806 1.391 . S
C1808 C1809 1.400 . S
C1809 C1808 1.400 . S
C1809 C1810 1.398 . S
C1809 C1815 1.491 . S
C1810 H1801 0.950 . S
C1810 C1809 1.398 . S
C1810 C1811 1.391 . S
C1811 H1799 0.950 . S
C1811 C1807 1.393 . S
C1811 C1810 1.391 . S
C1812 H1802 0.950 . S
C1812 C1813 1.386 . S
C1812 C1814 1.391 . S
C1813 C1812 1.386 . S
C1813 C1817 1.393 . S
C1814 H1803 0.950 . S
C1814 C1812 1.391 . S
C1814 C1815 1.400 . S
C1815 C1809 1.491 . S
C1815 C1814 1.400 . S
C1815 C1816 1.398 . S
C1816 H1804 0.950 . S
C1816 C1815 1.398 . S
C1816 C1817 1.391 . S
C1817 H1805 0.950 . S
C1817 C1813 1.393 . S
C1817 C1816 1.391 . S
H1818 C1826 0.950 . S
H1819 C1831 0.950 . S
H1820 C1828 0.950 . S
H1821 C1830 0.950 . S
H1822 C1832 0.950 . S
H1823 C1834 0.950 . S
H1824 C1836 0.950 . S
H1825 C1837 0.950 . S
C1826 H1818 0.950 . S
C1826 C1827 1.386 . S
C1826 C1828 1.391 . S
C1827 C1826 1.386 . S
C1827 C1831 1.393 . S
C1828 H1820 0.950 . S
C1828 C1826 1.391 . S
C1828 C1829 1.400 . S
C1829 C1828 1.400 . S
C1829 C1830 1.398 . S
C1829 C1835 1.491 . S
C1830 H1821 0.950 . S
C1830 C1829 1.398 . S
C1830 C1831 1.391 . S
C1831 H1819 0.950 . S
C1831 C1827 1.393 . S
C1831 C1830 1.391 . S
C1832 H1822 0.950 . S
C1832 C1833 1.386 . S
C1832 C1834 1.391 . S
C1833 C1832 1.386 . S
C1833 C1837 1.393 . S
C1834 H1823 0.950 . S
C1834 C1832 1.391 . S
C1834 C1835 1.400 . S
C1835 C1829 1.491 . S
C1835 C1834 1.400 . S
C1835 C1836 1.398 . S
C1836 H1824 0.950 . S
C1836 C1835 1.398 . S
C1836 C1837 1.391 . S
C1837 H1825 0.950 . S
C1837 C1833 1.393 . S
C1837 C1836 1.391 . S
H1838 C1846 0.950 . S
H1839 C1851 0.950 . S
H1840 C1848 0.950 . S
H1841 C1850 0.950 . S
H1842 C1852 0.950 . S
H1843 C1854 0.950 . S
H1844 C1856 0.950 . S
H1845 C1857 0.950 . S
C1846 H1838 0.950 . S
C1846 C1847 1.386 . S
C1846 C1848 1.391 . S
C1847 C1846 1.386 . S
C1847 C1851 1.393 . S
C1848 H1840 0.950 . S
C1848 C1846 1.391 . S
C1848 C1849 1.400 . S
C1849 C1848 1.400 . S
C1849 C1850 1.398 . S
C1849 C1855 1.491 . S
C1850 H1841 0.950 . S
C1850 C1849 1.398 . S
C1850 C1851 1.391 . S
C1851 H1839 0.950 . S
C1851 C1847 1.393 . S
C1851 C1850 1.391 . S
C1852 H1842 0.950 . S
C1852 C1853 1.386 . S
C1852 C1854 1.391 . S
C1853 C1852 1.386 . S
C1853 C1857 1.393 . S
C1854 H1843 0.950 . S
C1854 C1852 1.391 . S
C1854 C1855 1.400 . S
C1855 C1849 1.491 . S
C1855 C1854 1.400 . S
C1855 C1856 1.398 . S
C1856 H1844 0.950 . S
C1856 C1855 1.398 . S
C1856 C1857 1.391 . S
C1857 H1845 0.950 . S
C1857 C1853 1.393 . S
C1857 C1856 1.391 . S
H1858 C1866 0.950 . S
H1859 C1871 0.950 . S
H1860 C1868 0.950 . S
H1861 C1870 0.950 . S
H1862 C1872 0.950 . S
H1863 C1874 0.950 . S
H1864 C1876 0.950 . S
H1865 C1877 0.950 . S
C1866 H1858 0.950 . S
C1866 C1867 1.386 . S
C1866 C1868 1.391 . S
C1867 C1866 1.386 . S
C1867 C1871 1.393 . S
C1868 H1860 0.950 . S
C1868 C1866 1.391 . S
C1868 C1869 1.400 . S
C1869 C1868 1.400 . S
C1869 C1870 1.398 . S
C1869 C1875 1.491 . S
C1870 H1861 0.950 . S
C1870 C1869 1.398 . S
C1870 C1871 1.391 . S
C1871 H1859 0.950 . S
C1871 C1867 1.393 . S
C1871 C1870 1.391 . S
C1872 H1862 0.950 . S
C1872 C1873 1.386 . S
C1872 C1874 1.391 . S
C1873 C1872 1.386 . S
C1873 C1877 1.393 . S
C1874 H1863 0.950 . S
C1874 C1872 1.391 . S
C1874 C1875 1.400 . S
C1875 C1869 1.491 . S
C1875 C1874 1.400 . S
C1875 C1876 1.398 . S
C1876 H1864 0.950 . S
C1876 C1875 1.398 . S
C1876 C1877 1.391 . S
C1877 H1865 0.950 . S
C1877 C1873 1.393 . S
C1877 C1876 1.391 . S
H1878 C1886 0.950 . S
H1879 C1891 0.950 . S
H1880 C1888 0.950 . S
H1881 C1890 0.950 . S
H1882 C1892 0.950 . S
H1883 C1894 0.950 . S
H1884 C1896 0.950 . S
H1885 C1897 0.950 . S
C1886 H1878 0.950 . S
C1886 C1887 1.386 . S
C1886 C1888 1.391 . S
C1887 C1886 1.386 . S
C1887 C1891 1.393 . S
C1888 H1880 0.950 . S
C1888 C1886 1.391 . S
C1888 C1889 1.400 . S
C1889 C1888 1.400 . S
C1889 C1890 1.398 . S
C1889 C1895 1.491 . S
C1890 H1881 0.950 . S
C1890 C1889 1.398 . S
C1890 C1891 1.391 . S
C1891 H1879 0.950 . S
C1891 C1887 1.393 . S
C1891 C1890 1.391 . S
C1892 H1882 0.950 . S
C1892 C1893 1.386 . S
C1892 C1894 1.391 . S
C1893 C1892 1.386 . S
C1893 C1897 1.393 . S
C1894 H1883 0.950 . S
C1894 C1892 1.391 . S
C1894 C1895 1.400 . S
C1895 C1889 1.491 . S
C1895 C1894 1.400 . S
C1895 C1896 1.398 . S
C1896 H1884 0.950 . S
C1896 C1895 1.398 . S
C1896 C1897 1.391 . S
C1897 H1885 0.950 . S
C1897 C1893 1.393 . S
C1897 C1896 1.391 . S
H1898 C1906 0.950 . S
H1899 C1911 0.950 . S
H1900 C1908 0.950 . S
H1901 C1910 0.950 . S
H1902 C1912 0.950 . S
H1903 C1914 0.950 . S
H1904 C1916 0.950 . S
H1905 C1917 0.950 . S
C1906 H1898 0.950 . S
C1906 C1907 1.386 . S
C1906 C1908 1.391 . S
C1907 C1906 1.386 . S
C1907 C1911 1.393 . S
C1908 H1900 0.950 . S
C1908 C1906 1.391 . S
C1908 C1909 1.400 . S
C1909 C1908 1.400 . S
C1909 C1910 1.398 . S
C1909 C1915 1.491 . S
C1910 H1901 0.950 . S
C1910 C1909 1.398 . S
C1910 C1911 1.391 . S
C1911 H1899 0.950 . S
C1911 C1907 1.393 . S
C1911 C1910 1.391 . S
C1912 H1902 0.950 . S
C1912 C1913 1.386 . S
C1912 C1914 1.391 . S
C1913 C1912 1.386 . S
C1913 C1917 1.393 . S
C1914 H1903 0.950 . S
C1914 C1912 1.391 . S
C1914 C1915 1.400 . S
C1915 C1909 1.491 . S
C1915 C1914 1.400 . S
C1915 C1916 1.398 . S
C1916 H1904 0.950 . S
C1916 C1915 1.398 . S
C1916 C1917 1.391 . S
C1917 H1905 0.950 . S
C1917 C1913 1.393 . S
C1917 C1916 1.391 . S
H1918 C1926 0.950 . S
H1919 C1931 0.950 . S
H1920 C1928 0.950 . S
H1921 C1930 0.950 . S
H1922 C1932 0.950 . S
H1923 C1934 0.950 . S
H1924 C1936 0.950 . S
H1925 C1937 0.950 . S
C1926 H1918 0.950 . S
C1926 C1927 1.386 . S
C1926 C1928 1.391 . S
C1927 C1926 1.386 . S
C1927 C1931 1.393 . S
C1928 H1920 0.950 . S
C1928 C1926 1.391 . S
C1928 C1929 1.400 . S
C1929 C1928 1.400 . S
C1929 C1930 1.398 . S
C1929 C1935 1.491 . S
C1930 H1921 0.950 . S
C1930 C1929 1.398 . S
C1930 C1931 1.391 . S
C1931 H1919 0.950 . S
C1931 C1927 1.393 . S
C1931 C1930 1.391 . S
C1932 H1922 0.950 . S
C1932 C1933 1.386 . S
C1932 C1934 1.391 . S
C1933 C1932 1.386 . S
C1933 C1937 1.393 . S
C1934 H1923 0.950 . S
C1934 C1932 1.391 . S
C1934 C1935 1.400 . S
C1935 C1929 1.491 . S
C1935 C1934 1.400 . S
C1935 C1936 1.398 . S
C1936 H1924 0.950 . S
C1936 C1935 1.398 . S
C1936 C1937 1.391 . S
C1937 H1925 0.950 . S
C1937 C1933 1.393 . S
C1937 C1936 1.391 . S
H1938 C1946 0.950 . S
H1939 C1951 0.950 . S
H1940 C1948 0.950 . S
H1941 C1950 0.950 . S
H1942 C1952 0.950 . S
H1943 C1954 0.950 . S
H1944 C1956 0.950 . S
H1945 C1957 0.950 . S
C1946 H1938 0.950 . S
C1946 C1947 1.386 . S
C1946 C1948 1.391 . S
C1947 C1946 1.386 . S
C1947 C1951 1.393 . S
C1948 H1940 0.950 . S
C1948 C1946 1.391 . S
C1948 C1949 1.400 . S
C1949 C1948 1.400 . S
C1949 C1950 1.398 . S
C1949 C1955 1.491 . S
C1950 H1941 0.950 . S
C1950 C1949 1.398 . S
C1950 C1951 1.391 . S
C1951 H1939 0.950 . S
C1951 C1947 1.393 . S
C1951 C1950 1.391 . S
C1952 H1942 0.950 . S
C1952 C1953 1.386 . S
C1952 C1954 1.391 . S
C1953 C1952 1.386 . S
C1953 C1957 1.393 . S
C1954 H1943 0.950 . S
C1954 C1952 1.391 . S
C1954 C1955 1.400 . S
C1955 C1949 1.491 . S
C1955 C1954 1.400 . S
C1955 C1956 1.398 . S
C1956 H1944 0.950 . S
C1956 C1955 1.398 . S
C1956 C1957 1.391 . S
C1957 H1945 0.950 . S
C1957 C1953 1.393 . S
C1957 C1956 1.391 . S
H1958 C1966 0.950 . S
H1959 C1971 0.950 . S
H1960 C1968 0.950 . S
H1961 C1970 0.950 . S
H1962 C1972 0.950 . S
H1963 C1974 0.950 . S
H1964 C1976 0.950 . S
H1965 C1977 0.950 . S
C1966 H1958 0.950 . S
C1966 C1967 1.386 . S
C1966 C1968 1.391 . S
C1967 C1966 1.386 . S
C1967 C1971 1.393 . S
C1968 H1960 0.950 . S
C1968 C1966 1.391 . S
C1968 C1969 1.400 . S
C1969 C1968 1.400 . S
C1969 C1970 1.398 . S
C1969 C1975 1.491 . S
C1970 H1961 0.950 . S
C1970 C1969 1.398 . S
C1970 C1971 1.391 . S
C1971 H1959 0.950 . S
C1971 C1967 1.393 . S
C1971 C1970 1.391 . S
C1972 H1962 0.950 . S
C1972 C1973 1.386 . S
C1972 C1974 1.391 . S
C1973 C1972 1.386 . S
C1973 C1977 1.393 . S
C1974 H1963 0.950 . S
C1974 C1972 1.391 . S
C1974 C1975 1.400 . S
C1975 C1969 1.491 . S
C1975 C1974 1.400 . S
C1975 C1976 1.398 . S
C1976 H1964 0.950 . S
C1976 C1975 1.398 . S
C1976 C1977 1.391 . S
C1977 H1965 0.950 . S
C1977 C1973 1.393 . S
C1977 C1976 1.391 . S
H1978 C1986 0.950 . S
H1979 C1991 0.950 . S
H1980 C1988 0.950 . S
H1981 C1990 0.950 . S
H1982 C1992 0.950 . S
H1983 C1994 0.950 . S
H1984 C1996 0.950 . S
H1985 C1997 0.950 . S
C1986 H1978 0.950 . S
C1986 C1987 1.386 . S
C1986 C1988 1.391 . S
C1987 C1986 1.386 . S
C1987 C1991 1.393 . S
C1988 H1980 0.950 . S
C1988 C1986 1.391 . S
C1988 C1989 1.400 . S
C1989 C1988 1.400 . S
C1989 C1990 1.398 . S
C1989 C1995 1.491 . S
C1990 H1981 0.950 . S
C1990 C1989 1.398 . S
C1990 C1991 1.391 . S
C1991 H1979 0.950 . S
C1991 C1987 1.393 . S
C1991 C1990 1.391 . S
C1992 H1982 0.950 . S
C1992 C1993 1.386 . S
C1992 C1994 1.391 . S
C1993 C1992 1.386 . S
C1993 C1997 1.393 . S
C1994 H1983 0.950 . S
C1994 C1992 1.391 . S
C1994 C1995 1.400 . S
C1995 C1989 1.491 . S
C1995 C1994 1.400 . S
C1995 C1996 1.398 . S
C1996 H1984 0.950 . S
C1996 C1995 1.398 . S
C1996 C1997 1.391 . S
C1997 H1985 0.950 . S
C1997 C1993 1.393 . S
C1997 C1996 1.391 . S
H1998 C2006 0.950 . S
H1999 C2011 0.950 . S
H2000 C2008 0.950 . S
H2001 C2010 0.950 . S
H2002 C2012 0.950 . S
H2003 C2014 0.950 . S
H2004 C2016 0.950 . S
H2005 C2017 0.950 . S
C2006 H1998 0.950 . S
C2006 C2007 1.386 . S
C2006 C2008 1.391 . S
C2007 C2006 1.386 . S
C2007 C2011 1.393 . S
C2008 H2000 0.950 . S
C2008 C2006 1.391 . S
C2008 C2009 1.400 . S
C2009 C2008 1.400 . S
C2009 C2010 1.398 . S
C2009 C2015 1.491 . S
C2010 H2001 0.950 . S
C2010 C2009 1.398 . S
C2010 C2011 1.391 . S
C2011 H1999 0.950 . S
C2011 C2007 1.393 . S
C2011 C2010 1.391 . S
C2012 H2002 0.950 . S
C2012 C2013 1.386 . S
C2012 C2014 1.391 . S
C2013 C2012 1.386 . S
C2013 C2017 1.393 . S
C2014 H2003 0.950 . S
C2014 C2012 1.391 . S
C2014 C2015 1.400 . S
C2015 C2009 1.491 . S
C2015 C2014 1.400 . S
C2015 C2016 1.398 . S
C2016 H2004 0.950 . S
C2016 C2015 1.398 . S
C2016 C2017 1.391 . S
C2017 H2005 0.950 . S
C2017 C2013 1.393 . S
C2017 C2016 1.391 . S
H2018 C2026 0.950 . S
H2019 C2031 0.950 . S
H2020 C2028 0.950 . S
H2021 C2030 0.950 . S
H2022 C2032 0.950 . S
H2023 C2034 0.950 . S
H2024 C2036 0.950 . S
H2025 C2037 0.950 . S
C2026 H2018 0.950 . S
C2026 C2027 1.386 . S
C2026 C2028 1.391 . S
C2027 C2026 1.386 . S
C2027 C2031 1.393 . S
C2028 H2020 0.950 . S
C2028 C2026 1.391 . S
C2028 C2029 1.400 . S
C2029 C2028 1.400 . S
C2029 C2030 1.398 . S
C2029 C2035 1.491 . S
C2030 H2021 0.950 . S
C2030 C2029 1.398 . S
C2030 C2031 1.391 . S
C2031 H2019 0.950 . S
C2031 C2027 1.393 . S
C2031 C2030 1.391 . S
C2032 H2022 0.950 . S
C2032 C2033 1.386 . S
C2032 C2034 1.391 . S
C2033 C2032 1.386 . S
C2033 C2037 1.393 . S
C2034 H2023 0.950 . S
C2034 C2032 1.391 . S
C2034 C2035 1.400 . S
C2035 C2029 1.491 . S
C2035 C2034 1.400 . S
C2035 C2036 1.398 . S
C2036 H2024 0.950 . S
C2036 C2035 1.398 . S
C2036 C2037 1.391 . S
C2037 H2025 0.950 . S
C2037 C2033 1.393 . S
C2037 C2036 1.391 . S
H2038 C2046 0.950 . S
H2039 C2051 0.950 . S
H2040 C2048 0.950 . S
H2041 C2050 0.950 . S
H2042 C2052 0.950 . S
H2043 C2054 0.950 . S
H2044 C2056 0.950 . S
H2045 C2057 0.950 . S
C2046 H2038 0.950 . S
C2046 C2047 1.386 . S
C2046 C2048 1.391 . S
C2047 C2046 1.386 . S
C2047 C2051 1.393 . S
C2048 H2040 0.950 . S
C2048 C2046 1.391 . S
C2048 C2049 1.400 . S
C2049 C2048 1.400 . S
C2049 C2050 1.398 . S
C2049 C2055 1.491 . S
C2050 H2041 0.950 . S
C2050 C2049 1.398 . S
C2050 C2051 1.391 . S
C2051 H2039 0.950 . S
C2051 C2047 1.393 . S
C2051 C2050 1.391 . S
C2052 H2042 0.950 . S
C2052 C2053 1.386 . S
C2052 C2054 1.391 . S
C2053 C2052 1.386 . S
C2053 C2057 1.393 . S
C2054 H2043 0.950 . S
C2054 C2052 1.391 . S
C2054 C2055 1.400 . S
C2055 C2049 1.491 . S
C2055 C2054 1.400 . S
C2055 C2056 1.398 . S
C2056 H2044 0.950 . S
C2056 C2055 1.398 . S
C2056 C2057 1.391 . S
C2057 H2045 0.950 . S
C2057 C2053 1.393 . S
C2057 C2056 1.391 . S
H2058 C2066 0.950 . S
H2059 C2071 0.950 . S
H2060 C2068 0.950 . S
H2061 C2070 0.950 . S
H2062 C2072 0.950 . S
H2063 C2074 0.950 . S
H2064 C2076 0.950 . S
H2065 C2077 0.950 . S
C2066 H2058 0.950 . S
C2066 C2067 1.386 . S
C2066 C2068 1.391 . S
C2067 C2066 1.386 . S
C2067 C2071 1.393 . S
C2068 H2060 0.950 . S
C2068 C2066 1.391 . S
C2068 C2069 1.400 . S
C2069 C2068 1.400 . S
C2069 C2070 1.398 . S
C2069 C2075 1.491 . S
C2070 H2061 0.950 . S
C2070 C2069 1.398 . S
C2070 C2071 1.391 . S
C2071 H2059 0.950 . S
C2071 C2067 1.393 . S
C2071 C2070 1.391 . S
C2072 H2062 0.950 . S
C2072 C2073 1.386 . S
C2072 C2074 1.391 . S
C2073 C2072 1.386 . S
C2073 C2077 1.393 . S
C2074 H2063 0.950 . S
C2074 C2072 1.391 . S
C2074 C2075 1.400 . S
C2075 C2069 1.491 . S
C2075 C2074 1.400 . S
C2075 C2076 1.398 . S
C2076 H2064 0.950 . S
C2076 C2075 1.398 . S
C2076 C2077 1.391 . S
C2077 H2065 0.950 . S
C2077 C2073 1.393 . S
C2077 C2076 1.391 . S
H2078 C2086 0.950 . S
H2079 C2091 0.950 . S
H2080 C2088 0.950 . S
H2081 C2090 0.950 . S
H2082 C2092 0.950 . S
H2083 C2094 0.950 . S
H2084 C2096 0.950 . S
H2085 C2097 0.950 . S
C2086 H2078 0.950 . S
C2086 C2087 1.386 . S
C2086 C2088 1.391 . S
C2087 C2086 1.386 . S
C2087 C2091 1.393 . S
C2088 H2080 0.950 . S
C2088 C2086 1.391 . S
C2088 C2089 1.400 . S
C2089 C2088 1.400 . S
C2089 C2090 1.398 . S
C2089 C2095 1.491 . S
C2090 H2081 0.950 . S
C2090 C2089 1.398 . S
C2090 C2091 1.391 . S
C2091 H2079 0.950 . S
C2091 C2087 1.393 . S
C2091 C2090 1.391 . S
C2092 H2082 0.950 . S
C2092 C2093 1.386 . S
C2092 C2094 1.391 . S
C2093 C2092 1.386 . S
C2093 C2097 1.393 . S
C2094 H2083 0.950 . S
C2094 C2092 1.391 . S
C2094 C2095 1.400 . S
C2095 C2089 1.491 . S
C2095 C2094 1.400 . S
C2095 C2096 1.398 . S
C2096 H2084 0.950 . S
C2096 C2095 1.398 . S
C2096 C2097 1.391 . S
C2097 H2085 0.950 . S
C2097 C2093 1.393 . S
C2097 C2096 1.391 . S
H2098 C2106 0.950 . S
H2099 C2111 0.950 . S
H2100 C2108 0.950 . S
H2101 C2110 0.950 . S
H2102 C2112 0.950 . S
H2103 C2114 0.950 . S
H2104 C2116 0.950 . S
H2105 C2117 0.950 . S
C2106 H2098 0.950 . S
C2106 C2107 1.386 . S
C2106 C2108 1.391 . S
C2107 C2106 1.386 . S
C2107 C2111 1.393 . S
C2108 H2100 0.950 . S
C2108 C2106 1.391 . S
C2108 C2109 1.400 . S
C2109 C2108 1.400 . S
C2109 C2110 1.398 . S
C2109 C2115 1.491 . S
C2110 H2101 0.950 . S
C2110 C2109 1.398 . S
C2110 C2111 1.391 . S
C2111 H2099 0.950 . S
C2111 C2107 1.393 . S
C2111 C2110 1.391 . S
C2112 H2102 0.950 . S
C2112 C2113 1.386 . S
C2112 C2114 1.391 . S
C2113 C2112 1.386 . S
C2113 C2117 1.393 . S
C2114 H2103 0.950 . S
C2114 C2112 1.391 . S
C2114 C2115 1.400 . S
C2115 C2109 1.491 . S
C2115 C2114 1.400 . S
C2115 C2116 1.398 . S
C2116 H2104 0.950 . S
C2116 C2115 1.398 . S
C2116 C2117 1.391 . S
C2117 H2105 0.950 . S
C2117 C2113 1.393 . S
C2117 C2116 1.391 . S
H2118 C2126 0.950 . S
H2119 C2131 0.950 . S
H2120 C2128 0.950 . S
H2121 C2130 0.950 . S
H2122 C2132 0.950 . S
H2123 C2134 0.950 . S
H2124 C2136 0.950 . S
H2125 C2137 0.950 . S
C2126 H2118 0.950 . S
C2126 C2127 1.386 . S
C2126 C2128 1.391 . S
C2127 C2126 1.386 . S
C2127 C2131 1.393 . S
C2128 H2120 0.950 . S
C2128 C2126 1.391 . S
C2128 C2129 1.400 . S
C2129 C2128 1.400 . S
C2129 C2130 1.398 . S
C2129 C2135 1.491 . S
C2130 H2121 0.950 . S
C2130 C2129 1.398 . S
C2130 C2131 1.391 . S
C2131 H2119 0.950 . S
C2131 C2127 1.393 . S
C2131 C2130 1.391 . S
C2132 H2122 0.950 . S
C2132 C2133 1.386 . S
C2132 C2134 1.391 . S
C2133 C2132 1.386 . S
C2133 C2137 1.393 . S
C2134 H2123 0.950 . S
C2134 C2132 1.391 . S
C2134 C2135 1.400 . S
C2135 C2129 1.491 . S
C2135 C2134 1.400 . S
C2135 C2136 1.398 . S
C2136 H2124 0.950 . S
C2136 C2135 1.398 . S
C2136 C2137 1.391 . S
C2137 H2125 0.950 . S
C2137 C2133 1.393 . S
C2137 C2136 1.391 . S
H2138 C2146 0.950 . S
H2139 C2151 0.950 . S
H2140 C2148 0.950 . S
H2141 C2150 0.950 . S
H2142 C2152 0.950 . S
H2143 C2154 0.950 . S
H2144 C2156 0.950 . S
H2145 C2157 0.950 . S
C2146 H2138 0.950 . S
C2146 C2147 1.386 . S
C2146 C2148 1.391 . S
C2147 C2146 1.386 . S
C2147 C2151 1.393 . S
C2148 H2140 0.950 . S
C2148 C2146 1.391 . S
C2148 C2149 1.400 . S
C2149 C2148 1.400 . S
C2149 C2150 1.398 . S
C2149 C2155 1.491 . S
C2150 H2141 0.950 . S
C2150 C2149 1.398 . S
C2150 C2151 1.391 . S
C2151 H2139 0.950 . S
C2151 C2147 1.393 . S
C2151 C2150 1.391 . S
C2152 H2142 0.950 . S
C2152 C2153 1.386 . S
C2152 C2154 1.391 . S
C2153 C2152 1.386 . S
C2153 C2157 1.393 . S
C2154 H2143 0.950 . S
C2154 C2152 1.391 . S
C2154 C2155 1.400 . S
C2155 C2149 1.491 . S
C2155 C2154 1.400 . S
C2155 C2156 1.398 . S
C2156 H2144 0.950 . S
C2156 C2155 1.398 . S
C2156 C2157 1.391 . S
C2157 H2145 0.950 . S
C2157 C2153 1.393 . S
C2157 C2156 1.391 . S
H2158 C2166 0.950 . S
H2159 C2171 0.950 . S
H2160 C2168 0.950 . S
H2161 C2170 0.950 . S
H2162 C2172 0.950 . S
H2163 C2174 0.950 . S
H2164 C2176 0.950 . S
H2165 C2177 0.950 . S
C2166 H2158 0.950 . S
C2166 C2167 1.386 . S
C2166 C2168 1.391 . S
C2167 C2166 1.386 . S
C2167 C2171 1.393 . S
C2168 H2160 0.950 . S
C2168 C2166 1.391 . S
C2168 C2169 1.400 . S
C2169 C2168 1.400 . S
C2169 C2170 1.398 . S
C2169 C2175 1.491 . S
C2170 H2161 0.950 . S
C2170 C2169 1.398 . S
C2170 C2171 1.391 . S
C2171 H2159 0.950 . S
C2171 C2167 1.393 . S
C2171 C2170 1.391 . S
C2172 H2162 0.950 . S
C2172 C2173 1.386 . S
C2172 C2174 1.391 . S
C2173 C2172 1.386 . S
C2173 C2177 1.393 . S
C2174 H2163 0.950 . S
C2174 C2172 1.391 . S
C2174 C2175 1.400 . S
C2175 C2169 1.491 . S
C2175 C2174 1.400 . S
C2175 C2176 1.398 . S
C2176 H2164 0.950 . S
C2176 C2175 1.398 . S
C2176 C2177 1.391 . S
C2177 H2165 0.950 . S
C2177 C2173 1.393 . S
C2177 C2176 1.391 . S
C1107 C253 1.463 . S
C1113 C398 1.414 . S
C1127 C272 1.500 . S
C1133 C482 1.439 . S
C1147 C234 1.450 . S
C1153 C576 1.455 . S
C1167 C215 1.448 . S
C1173 C492 1.453 1_556 S
C1193 C566 1.400 . S
C1187 C177 1.454 . S
C1207 C196 1.418 . S
C1213 C408 1.425 1_556 S
C1233 C409 1.491 . S
C1227 C220 1.477 . S
C1253 C493 1.502 . S
C1247 C182 1.473 . S
C1267 C201 1.465 . S
C1273 C585 1.503 . S
C1287 C258 1.465 . S
C1293 C501 1.495 . S
C1307 C277 1.450 . S
C1313 C577 1.460 . S
C1333 C417 1.472 . S
C1327 C239 1.422 . S
C1353 C650 1.419 . S
C1347 C25 1.457 . S
C1367 C44 1.501 . S
C1373 C734 1.427 . S
C1387 C6 1.455 . S
C1393 C828 1.456 . S
C1407 C329 1.445 . S
C1413 C744 1.454 . S
C1427 C291 1.464 . S
C1433 C818 1.388 . S
C1447 C310 1.414 . S
C1453 C660 1.417 . S
C1467 C334 1.448 . S
C1473 C661 1.480 . S
C1487 C296 1.492 . S
C1493 C745 1.506 . S
C1513 C837 1.526 . S
C1507 C315 1.481 . S
C1527 C30 1.466 1_565 S
C1533 C753 1.499 . S
C1553 C829 1.457 . S
C1547 C49 1.428 1_455 S
C1567 C11 1.444 . S
C1573 C669 1.476 . S
C1593 C902 1.394 . S
C1587 C139 1.466 . S
C1607 C158 1.501 . S
C1613 C986 1.428 . S
C1633 C1080 1.455 . S
C1627 C120 1.453 . S
C1653 C996 1.447 . S
C1647 C101 1.441 . S
C1673 C1070 1.401 . S
C1667 C63 1.454 . S
C1687 C82 1.418 . S
C1693 C912 1.425 . S
C1707 C106 1.474 1_655 S
C1713 C913 1.501 . S
C1727 C68 1.490 . S
C1733 C997 1.504 . S
C1753 C1089 1.502 . S
C1747 C87 1.461 1_545 S
C1767 C144 1.433 . S
C1773 C1005 1.476 . S
C1787 C163 1.434 . S
C1793 C1081 1.448 . S
C1807 C125 1.442 . S
C1813 C921 1.474 . S
C1827 C287 1.649 . S
C1833 C405 1.525 . S
C1853 C489 1.597 . S
C1847 C306 1.714 . S
C1867 C325 1.666 . S
C1873 C582 1.465 . S
C1887 C116 1.676 . S
C1893 C498 1.445 . S
C1907 C135 1.682 . S
C1913 C573 1.537 . S
C1933 C414 1.442 . S
C1927 C154 1.622 . S
C1947 C59 1.661 . S
C1953 C657 1.537 . S
C1967 C78 1.713 . S
C1973 C741 1.566 . S
C1987 C97 1.648 . S
C1993 C834 1.442 . S
C2007 C230 1.688 . S
C2013 C750 1.476 . S
C2033 C825 1.541 . S
C2027 C249 1.683 . S
C2047 C268 1.623 . S
C2053 C666 1.436 . S
C2067 C173 1.645 . S
C2073 C909 1.552 . S
C2087 C192 1.725 . S
C2093 C993 1.589 . S
C2113 C1086 1.457 . S
C2107 C211 1.649 . S
C2127 C2 1.675 . S
C2133 C1002 1.477 . S
C2147 C21 1.665 . S
C2153 C1077 1.551 . S
C2167 C40 1.616 . S
C2173 C918 1.451 . S
