# Generated by pormake.
# Topology sqc, (4,8)-cn, num edge types: 1
# Building blocks:
#     Node 0, Type 0, BuildingBlock: KUFVIS_clean_linker_0, # of connection points: 4
#     Node 1, Type 0, BuildingBlock: KUFVIS_clean_linker_0, # of connection points: 4
#     Node 2, Type 0, BuildingBlock: KUFVIS_clean_linker_0, # of connection points: 4
#     Node 3, Type 0, BuildingBlock: KUFVIS_clean_linker_0, # of connection points: 4
#     Node 4, Type 0, BuildingBlock: KUFVIS_clean_linker_0, # of connection points: 4
#     Node 5, Type 0, BuildingBlock: KUFVIS_clean_linker_0, # of connection points: 4
#     Node 6, Type 0, BuildingBlock: KUFVIS_clean_linker_0, # of connection points: 4
#     Node 7, Type 0, BuildingBlock: KUFVIS_clean_linker_0, # of connection points: 4
#     Node 8, Type 1, BuildingBlock: VETTIZ_charged_sbu_0, # of connection points: 8
#     Node 9, Type 1, BuildingBlock: VETTIZ_charged_sbu_0, # of connection points: 8
#     Node 10, Type 1, BuildingBlock: VETTIZ_charged_sbu_0, # of connection points: 8
#     Node 11, Type 1, BuildingBlock: VETTIZ_charged_sbu_0, # of connection points: 8
#     Edge 12, Type (0, 1), None
#     Edge 13, Type (0, 1), None
#     Edge 14, Type (0, 1), None
#     Edge 15, Type (0, 1), None
#     Edge 16, Type (0, 1), None
#     Edge 17, Type (0, 1), None
#     Edge 18, Type (0, 1), None
#     Edge 19, Type (0, 1), None
#     Edge 20, Type (0, 1), None
#     Edge 21, Type (0, 1), None
#     Edge 22, Type (0, 1), None
#     Edge 23, Type (0, 1), None
#     Edge 24, Type (0, 1), None
#     Edge 25, Type (0, 1), None
#     Edge 26, Type (0, 1), None
#     Edge 27, Type (0, 1), None
#     Edge 28, Type (0, 1), None
#     Edge 29, Type (0, 1), None
#     Edge 30, Type (0, 1), None
#     Edge 31, Type (0, 1), None
#     Edge 32, Type (0, 1), None
#     Edge 33, Type (0, 1), None
#     Edge 34, Type (0, 1), None
#     Edge 35, Type (0, 1), None
#     Edge 36, Type (0, 1), None
#     Edge 37, Type (0, 1), None
#     Edge 38, Type (0, 1), None
#     Edge 39, Type (0, 1), None
#     Edge 40, Type (0, 1), None
#     Edge 41, Type (0, 1), None
#     Edge 42, Type (0, 1), None
#     Edge 43, Type (0, 1), None
# Relax obj value: 0.164
# Max RMSD: 0.278
# Mean RMSD: 0.218
data_MOF--net-sqc--node1-VETTIZ_charged_sbu_0--node2-KUFVIS_clean_linker_0--edge1-none
_symmetry_space_group_name_H-M    P1
_symmetry_Int_Tables_number       1
_symmetry_cell_setting            triclinic
loop_
_symmetry_equiv_pos_as_xyz
'x, y, z'
_cell_length_a     11.485657
_cell_length_b     11.48588
_cell_length_c     36.332862
_cell_angle_alpha  89.999405
_cell_angle_beta   89.99968
_cell_angle_gamma 90.000453
loop_
_atom_site_label
_atom_site_type_symbol
_atom_site_fract_x
_atom_site_fract_y
_atom_site_fract_z
_atom_type_partial_charge
H0 H 0.62398 0.07228 0.47733 0.0
H1 H 0.95701 0.05658 0.52984 0.0
H2 H 0.92843 0.9879 0.41338 0.0
H3 H 0.12607 0.94044 0.41803 0.0
H4 H 0.42839 0.08784 0.46984 0.0
H5 H 0.09511 0.16959 0.51222 0.0
C6 C 0.71625 0.05507 0.47612 0.0
C7 C 0.76702 1.01777 0.44203 0.0
C8 C 0.78521 0.07236 0.50834 0.0
C9 C 0.90504 0.04992 0.5051 0.0
C10 C 0.96007 1.02873 0.47065 0.0
C11 C 0.88908 1.00696 0.43978 0.0
C12 C 0.09061 1.04435 0.46737 0.0
C13 C 0.16293 0.99348 0.4397 0.0
C14 C 0.28561 1.01243 0.44095 0.0
C15 C 0.33467 0.07655 0.46859 0.0
C16 C 0.26588 0.12932 0.49402 0.0
C17 C 0.14522 0.11855 0.49284 0.0
H18 H 0.25951 0.187 0.71982 0.0
H19 H 0.17769 0.85372 0.76219 0.0
H20 H 0.40697 0.88468 0.66802 0.0
H21 H 0.3595 0.68705 0.66337 0.0
H22 H 0.27518 0.38259 0.72733 0.0
H23 H 0.29073 0.71566 0.77982 0.0
C24 C 0.27081 0.09328 0.71857 0.0
C25 C 0.33499 1.04423 0.69094 0.0
C26 C 0.21799 1.02449 0.74399 0.0
C27 C 0.22876 0.90383 0.74281 0.0
C28 C 0.303 0.84923 0.71734 0.0
C29 C 0.35391 0.92154 0.68969 0.0
C30 C 0.3186 0.71869 0.72063 0.0
C31 C 0.34042 0.6477 0.68977 0.0
C32 C 0.32965 0.52564 0.69202 0.0
C33 C 0.29235 0.47487 0.72611 0.0
C34 C 0.27502 0.54384 0.75833 0.0
C35 C 0.29742 0.66367 0.75509 0.0
H36 H 0.9649 1.03377 -0.02267 0.0
H37 H 0.63185 0.04945 0.02983 0.0
H38 H 0.66046 0.11808 0.91336 0.0
H39 H 0.46282 0.16553 0.918 0.0
H40 H 0.1605 1.01809 -0.03019 0.0
H41 H 0.49377 0.93643 0.01222 0.0
C42 C 0.87263 0.05096 -0.02389 0.0
C43 C 0.82187 0.08824 0.94202 0.0
C44 C 0.80366 1.03368 0.00833 0.0
C45 C 0.68383 0.05611 0.00509 0.0
C46 C 0.62881 0.07727 -0.02937 0.0
C47 C 0.6998 0.09903 0.93977 0.0
C48 C 0.49827 0.06165 -0.03265 0.0
C49 C 0.42596 0.1125 0.93968 0.0
C50 C 0.30327 0.09352 0.94092 0.0
C51 C 0.25422 1.02941 -0.03143 0.0
C52 C 0.323 0.97667 -0.006 0.0
C53 C 0.44366 0.98746 -0.00718 0.0
H54 H 0.31367 0.7235 0.22733 0.0
H55 H 0.29793 0.39047 0.27984 0.0
H56 H 0.22934 0.41906 0.16337 0.0
H57 H 0.18193 0.22142 0.168 0.0
H58 H 0.32921 0.9191 0.21984 0.0
H59 H 0.41092 0.25236 0.26224 0.0
C60 C 0.29647 0.63124 0.22611 0.0
C61 C 0.25919 0.58047 0.19202 0.0
C62 C 0.31374 0.56227 0.25834 0.0
C63 C 0.29129 0.44245 0.2551 0.0
C64 C 0.27013 0.38742 0.22064 0.0
C65 C 0.24839 0.45841 0.18977 0.0
C66 C 0.28574 0.25687 0.21736 0.0
C67 C 0.23492 0.18456 0.18969 0.0
C68 C 0.25386 0.06188 0.19094 0.0
C69 C 0.31792 1.01282 0.21859 0.0
C70 C 0.37066 0.0816 0.24403 0.0
C71 C 0.35989 0.20226 0.24285 0.0
H72 H 0.75939 0.68699 0.21979 0.0
H73 H 0.67762 0.35372 0.26217 0.0
H74 H 0.90692 0.38467 0.16801 0.0
H75 H 0.85944 0.18704 0.16336 0.0
H76 H 0.77517 0.88258 0.22733 0.0
H77 H 0.79066 0.21567 0.27981 0.0
C78 C 0.7707 0.59327 0.21855 0.0
C79 C 0.83491 0.54422 0.19092 0.0
C80 C 0.7179 0.52448 0.24397 0.0
C81 C 0.72868 0.40382 0.24279 0.0
C82 C 0.80293 0.34922 0.21733 0.0
C83 C 0.85385 0.42153 0.18968 0.0
C84 C 0.81854 0.21869 0.22062 0.0
C85 C 0.84037 0.14769 0.18976 0.0
C86 C 0.82962 1.02563 0.19202 0.0
C87 C 0.79232 0.97486 0.22611 0.0
C88 C 0.77498 1.04384 0.25833 0.0
C89 C 0.79737 0.16367 0.25508 0.0
H90 H 0.8137 0.22351 0.72733 0.0
H91 H 0.798 0.89046 0.77983 0.0
H92 H 0.7294 0.91907 0.66336 0.0
H93 H 0.68198 0.72143 0.66799 0.0
H94 H 0.82932 0.41911 0.71982 0.0
H95 H 0.91099 0.75236 0.76223 0.0
C96 C 0.7965 0.13124 0.72611 0.0
C97 C 0.75923 0.08047 0.69202 0.0
C98 C 0.81378 0.06227 0.75833 0.0
C99 C 0.79135 0.94244 0.75509 0.0
C100 C 0.7702 0.88742 0.72063 0.0
C101 C 0.74844 0.95841 0.68977 0.0
C102 C 0.78581 0.75688 0.71735 0.0
C103 C 0.73498 0.68457 0.68968 0.0
C104 C 0.75394 0.56188 0.69092 0.0
C105 C 0.81802 0.51283 0.71857 0.0
C106 C 0.87074 0.5816 0.74402 0.0
C107 C 0.85997 0.70226 0.74284 0.0
H108 H 0.92839 0.58792 -0.03018 0.0
H109 H 0.62606 0.4405 0.91802 0.0
H110 H 0.59511 0.66972 0.0122 0.0
H111 H 0.45703 0.5567 0.02983 0.0
H112 H 0.12397 0.57229 -0.02267 0.0
H113 H 0.42843 0.48797 0.91337 0.0
C114 C 0.83466 0.57663 -0.03142 0.0
C115 C 0.76588 0.62943 -0.006 0.0
C116 C 0.78561 0.51247 0.94095 0.0
C117 C 0.66292 0.49355 0.93969 0.0
C118 C 0.59061 0.54444 -0.03265 0.0
C119 C 0.64522 0.61866 -0.00718 0.0
C120 C 0.46007 0.52884 -0.02937 0.0
C121 C 0.40504 0.55002 0.00509 0.0
C122 C 0.28521 0.57241 0.00833 0.0
C123 C 0.21624 0.5551 -0.02389 0.0
C124 C 0.26701 0.51781 0.94202 0.0
C125 C 0.38908 0.50704 0.93977 0.0
H126 H 0.4649 0.53375 0.47733 0.0
H127 H 0.13183 0.54936 0.52982 0.0
H128 H 0.16046 0.61804 0.41336 0.0
H129 H 0.96282 0.6655 0.418 0.0
H130 H 0.6605 0.51798 0.46979 0.0
H131 H 0.99376 0.43634 0.5122 0.0
C132 C 0.37263 0.55093 0.47611 0.0
C133 C 0.32187 0.58821 0.44202 0.0
C134 C 0.30365 0.53362 0.50833 0.0
C135 C 0.18382 0.55604 0.50508 0.0
C136 C 0.1288 0.57721 0.47063 0.0
C137 C 0.1998 0.59899 0.43976 0.0
C138 C 0.99827 0.56157 0.46734 0.0
C139 C 0.92595 0.61244 0.43967 0.0
C140 C 0.80327 0.59345 0.44091 0.0
C141 C 0.75422 0.52931 0.46855 0.0
C142 C 0.823 0.47657 0.49399 0.0
C143 C 0.94366 0.48737 0.49281 0.0
Fe144 Fe 1.04442 0.80305 0.13869 0.0
O145 O 0.14412 0.86286 0.0982 0.0
Fe146 Fe 0.77558 0.77365 0.10029 0.0
Fe147 Fe 0.31327 0.83245 0.10029 0.0
O148 O 0.94473 0.74325 0.0982 0.0
O149 O 0.9437 0.74561 0.09455 0.0
O150 O 0.14516 0.8605 0.09455 0.0
Fe151 Fe 1.04443 0.80305 0.05345 0.0
C152 C 0.22218 0.97759 0.16315 0.0
O153 O 0.13874 0.64977 0.14206 0.0
O154 O 0.31154 0.72693 0.14748 0.0
O155 O 0.92118 0.73829 0.01769 0.0
O156 O 0.76995 0.67511 0.05498 0.0
O157 O 0.7923 0.637 0.13641 0.0
O158 O 0.933 0.71467 0.17375 0.0
O159 O 0.31605 0.6931 0.06206 0.0
O160 O 0.13199 0.64505 0.0491 0.0
C161 C 0.86669 0.62851 0.16314 0.0
O162 O 0.95687 0.96104 0.0491 0.0
O163 O 0.77281 0.91301 0.06206 0.0
O164 O 0.15584 0.89143 0.17375 0.0
O165 O 0.29656 0.9691 0.13641 0.0
C166 C 0.23684 0.65297 0.1581 0.0
C167 C 0.24141 0.63434 0.0431 0.0
C168 C 0.26698 0.9189 0.02389 0.0
O169 O 0.31891 0.931 0.05498 0.0
O170 O 0.1677 0.8678 0.01769 0.0
C171 C 0.82189 0.6872 0.02389 0.0
O172 O 0.77731 0.87916 0.14747 0.0
O173 O 0.9501 0.95633 0.14206 0.0
C174 C 0.84745 0.97175 0.0431 0.0
C175 C 0.85199 0.95312 0.1581 0.0
Fe176 Fe 0.54445 0.80299 0.38869 0.0
O177 O 0.60423 0.70332 0.34819 0.0
Fe178 Fe 0.515 0.07185 0.3503 0.0
Fe179 Fe 0.5738 0.53418 0.35027 0.0
O180 O 0.48461 0.90271 0.34821 0.0
O181 O 0.48697 0.90374 0.34456 0.0
O182 O 0.60186 0.70229 0.34454 0.0
Fe183 Fe 0.54437 0.80304 0.30345 0.0
C184 C 0.71899 0.62521 0.41312 0.0
O185 O 0.39116 0.70867 0.39206 0.0
O186 O 0.46833 0.53588 0.39747 0.0
O187 O 0.47957 0.92631 0.2677 0.0
O188 O 0.41641 0.07751 0.305 0.0
O189 O 0.37838 0.0551 0.38644 0.0
O190 O 0.45608 0.91438 0.42376 0.0
O191 O 0.43442 0.53142 0.31206 0.0
O192 O 0.38636 0.71548 0.29911 0.0
C193 C 0.3699 0.98069 0.41316 0.0
O194 O 0.70236 0.89061 0.29909 0.0
O195 O 0.65433 0.07465 0.31207 0.0
O196 O 0.63285 0.69154 0.42374 0.0
O197 O 0.71049 0.55086 0.38638 0.0
C198 C 0.39437 0.61057 0.4081 0.0
C199 C 0.37565 0.60606 0.2931 0.0
C200 C 0.66016 0.58049 0.27386 0.0
O201 O 0.6723 0.52856 0.30495 0.0
O202 O 0.60908 0.67979 0.26768 0.0
C203 C 0.42846 1.02558 0.27391 0.0
O204 O 0.62055 0.0701 0.39748 0.0
O205 O 0.69773 0.89731 0.39206 0.0
C206 C 0.71306 1.00003 0.29309 0.0
C207 C 0.69452 0.99541 0.40811 0.0
Fe208 Fe 0.54445 0.30306 0.63869 0.0
O209 O 0.64414 0.36285 0.5982 0.0
Fe210 Fe 0.2756 0.27363 0.6003 0.0
Fe211 Fe 0.81329 0.33243 0.60028 0.0
O212 O 0.44475 0.24323 0.59821 0.0
O213 O 0.44371 0.24559 0.59456 0.0
O214 O 0.64518 0.36048 0.59455 0.0
Fe215 Fe 0.54444 0.30301 0.55345 0.0
C216 C 0.72223 0.4776 0.66313 0.0
O217 O 0.63877 0.14978 0.64206 0.0
O218 O 0.81157 0.22694 0.64747 0.0
O219 O 0.42117 0.23822 0.5177 0.0
O220 O 0.26995 0.17505 0.55499 0.0
O221 O 0.29234 0.13699 0.63643 0.0
O222 O 0.43305 0.21469 0.67376 0.0
O223 O 0.81605 0.19306 0.56206 0.0
O224 O 0.632 0.14501 0.54911 0.0
C225 C 0.36674 0.12852 0.66316 0.0
O226 O 0.45687 0.461 0.54909 0.0
O227 O 0.27282 0.41296 0.56207 0.0
O228 O 0.65589 0.39145 0.67375 0.0
O229 O 0.79659 0.4691 0.6364 0.0
C230 C 0.73688 0.15298 0.6581 0.0
C231 C 0.74141 0.13429 0.5431 0.0
C232 C 0.76698 0.41882 0.52387 0.0
O233 O 0.81892 0.43095 0.55496 0.0
O234 O 0.66769 0.36774 0.51768 0.0
C235 C 0.32189 0.18712 0.5239 0.0
O236 O 0.27734 0.37917 0.64748 0.0
O237 O 0.45013 0.45634 0.64206 0.0
C238 C 0.34745 0.4717 0.54309 0.0
C239 C 0.35202 0.45313 0.6581 0.0
Fe240 Fe 1.04445 0.30302 0.88869 0.0
O241 O 0.10424 0.20334 0.8482 0.0
Fe242 Fe 1.01501 0.57186 0.8503 0.0
Fe243 Fe 0.07382 1.03419 0.85028 0.0
O244 O 0.98462 0.40272 0.84821 0.0
O245 O 0.98698 0.40375 0.84456 0.0
O246 O 0.10187 0.2023 0.84455 0.0
Fe247 Fe 1.0444 0.30304 0.80345 0.0
C248 C 0.21899 0.12525 0.91313 0.0
O249 O 0.89117 0.2087 0.89206 0.0
O250 O 0.96833 1.03591 0.89747 0.0
O251 O 0.97962 0.4263 0.7677 0.0
O252 O 0.91643 0.57751 0.80499 0.0
O253 O 0.87837 0.55512 0.88643 0.0
O254 O 0.95608 0.41441 0.92376 0.0
O255 O 0.93445 1.03142 0.81206 0.0
O256 O 0.8864 0.21548 0.79911 0.0
C257 C 0.8699 0.48072 0.91316 0.0
O258 O 0.20239 0.39061 0.79909 0.0
O259 O 0.15435 0.57466 0.81207 0.0
O260 O 0.13284 0.19158 0.92375 0.0
O261 O 0.2105 0.05089 0.8864 0.0
C262 C 0.89437 0.1106 0.9081 0.0
C263 C 0.87569 0.10606 0.7931 0.0
C264 C 0.16022 0.0805 0.77388 0.0
O265 O 0.17234 1.02856 0.80496 0.0
O266 O 0.10914 0.17979 0.76768 0.0
C267 C 0.92851 0.52558 0.7739 0.0
O268 O 0.12055 0.57013 0.89748 0.0
O269 O 0.19772 0.39734 0.89206 0.0
C270 C 0.21309 0.50003 0.79309 0.0
C271 C 0.19451 0.49545 0.90811 0.0
loop_
_geom_bond_atom_site_label_1
_geom_bond_atom_site_label_2
_geom_bond_distance
_geom_bond_site_symmetry_2
_ccdc_geom_bond_type
H0 C6 0.930 . S
H1 C9 0.931 . S
H2 C11 0.931 . S
H3 C13 0.930 . S
H4 C15 0.930 . S
H5 C17 0.931 . S
C6 H0 0.930 . S
C6 C7 1.380 1_545 S
C6 C8 1.394 . S
C7 C6 1.380 1_565 S
C7 C11 1.382 . S
C8 C6 1.394 . S
C8 C9 1.400 . S
C9 H1 0.931 . S
C9 C8 1.400 . S
C9 C10 1.375 . S
C10 C9 1.375 . S
C10 C11 1.415 1_545 S
C10 C12 1.501 1_655 S
C11 H2 0.931 . S
C11 C7 1.382 . S
C11 C10 1.415 1_565 S
C12 C10 1.501 1_455 S
C12 C13 1.384 1_545 S
C12 C17 1.408 . S
C13 H3 0.930 . S
C13 C12 1.384 1_565 S
C13 C14 1.389 . S
C14 C13 1.389 . S
C14 C15 1.405 1_565 S
C15 H4 0.930 . S
C15 C14 1.405 1_545 S
C15 C16 1.364 . S
C16 C15 1.364 . S
C16 C17 1.400 . S
C17 H5 0.931 . S
C17 C12 1.408 . S
C17 C16 1.400 . S
H18 C24 0.930 . S
H19 C27 0.931 . S
H20 C29 0.931 . S
H21 C31 0.930 . S
H22 C33 0.930 . S
H23 C35 0.931 . S
C24 H18 0.930 . S
C24 C25 1.380 1_545 S
C24 C26 1.394 1_545 S
C25 C24 1.380 1_565 S
C25 C29 1.382 . S
C26 C24 1.394 1_565 S
C26 C27 1.400 . S
C27 H19 0.931 . S
C27 C26 1.400 . S
C27 C28 1.375 . S
C28 C27 1.375 . S
C28 C29 1.415 . S
C28 C30 1.501 . S
C29 H20 0.931 . S
C29 C25 1.382 . S
C29 C28 1.415 . S
C30 C28 1.501 . S
C30 C31 1.384 . S
C30 C35 1.408 . S
C31 H21 0.930 . S
C31 C30 1.384 . S
C31 C32 1.389 . S
C32 C31 1.389 . S
C32 C33 1.405 . S
C33 H22 0.930 . S
C33 C32 1.405 . S
C33 C34 1.364 . S
C34 C33 1.364 . S
C34 C35 1.400 . S
C35 H23 0.931 . S
C35 C30 1.408 . S
C35 C34 1.400 . S
H36 C42 0.930 . S
H37 C45 0.931 . S
H38 C47 0.931 . S
H39 C49 0.930 . S
H40 C51 0.930 . S
H41 C53 0.931 . S
C42 H36 0.930 . S
C42 C43 1.377 1_564 S
C42 C44 1.397 . S
C43 C42 1.377 1_546 S
C43 C47 1.382 . S
C44 C42 1.397 . S
C44 C45 1.400 . S
C45 H37 0.931 . S
C45 C44 1.400 . S
C45 C46 1.375 1_565 S
C46 C45 1.375 1_545 S
C46 C47 1.415 1_554 S
C46 C48 1.501 . S
C47 H38 0.931 . S
C47 C43 1.382 . S
C47 C46 1.415 1_556 S
C48 C46 1.501 . S
C48 C49 1.384 1_554 S
C48 C53 1.408 1_545 S
C49 H39 0.930 . S
C49 C48 1.384 1_556 S
C49 C50 1.389 . S
C50 C49 1.389 . S
C50 C51 1.405 1_556 S
C51 H40 0.930 . S
C51 C50 1.405 1_554 S
C51 C52 1.364 1_545 S
C52 C51 1.364 1_565 S
C52 C53 1.400 . S
C53 H41 0.931 . S
C53 C48 1.408 1_565 S
C53 C52 1.400 . S
H54 C60 0.930 . S
H55 C63 0.931 . S
H56 C65 0.931 . S
H57 C67 0.930 . S
H58 C69 0.930 . S
H59 C71 0.931 . S
C60 H54 0.930 . S
C60 C61 1.380 . S
C60 C62 1.394 . S
C61 C60 1.380 . S
C61 C65 1.382 . S
C62 C60 1.394 . S
C62 C63 1.400 . S
C63 H55 0.931 . S
C63 C62 1.400 . S
C63 C64 1.375 . S
C64 C63 1.375 . S
C64 C65 1.415 . S
C64 C66 1.501 . S
C65 H56 0.931 . S
C65 C61 1.382 . S
C65 C64 1.415 . S
C66 C64 1.501 . S
C66 C67 1.384 . S
C66 C71 1.408 . S
C67 H57 0.930 . S
C67 C66 1.384 . S
C67 C68 1.389 . S
C68 C67 1.389 . S
C68 C69 1.405 1_545 S
C69 H58 0.930 . S
C69 C68 1.405 1_565 S
C69 C70 1.364 1_565 S
C70 C69 1.364 1_545 S
C70 C71 1.400 . S
C71 H59 0.931 . S
C71 C66 1.408 . S
C71 C70 1.400 . S
H72 C78 0.930 . S
H73 C81 0.931 . S
H74 C83 0.931 . S
H75 C85 0.930 . S
H76 C87 0.930 . S
H77 C89 0.931 . S
C78 H72 0.930 . S
C78 C79 1.380 . S
C78 C80 1.394 . S
C79 C78 1.380 . S
C79 C83 1.382 . S
C80 C78 1.394 . S
C80 C81 1.400 . S
C81 H73 0.931 . S
C81 C80 1.400 . S
C81 C82 1.375 . S
C82 C81 1.375 . S
C82 C83 1.415 . S
C82 C84 1.501 . S
C83 H74 0.931 . S
C83 C79 1.382 . S
C83 C82 1.415 . S
C84 C82 1.501 . S
C84 C85 1.384 . S
C84 C89 1.408 . S
C85 H75 0.930 . S
C85 C84 1.384 . S
C85 C86 1.389 . S
C86 C85 1.389 . S
C86 C87 1.405 1_545 S
C87 H76 0.930 . S
C87 C86 1.405 1_565 S
C87 C88 1.364 1_565 S
C88 C87 1.364 1_545 S
C88 C89 1.400 . S
C89 H77 0.931 . S
C89 C84 1.408 . S
C89 C88 1.400 . S
H90 C96 0.930 . S
H91 C99 0.931 . S
H92 C101 0.931 . S
H93 C103 0.930 . S
H94 C105 0.930 . S
H95 C107 0.931 . S
C96 H90 0.930 . S
C96 C97 1.380 1_545 S
C96 C98 1.394 1_545 S
C97 C96 1.380 1_565 S
C97 C101 1.382 . S
C98 C96 1.394 1_565 S
C98 C99 1.400 . S
C99 H91 0.931 . S
C99 C98 1.400 . S
C99 C100 1.375 . S
C100 C99 1.375 . S
C100 C101 1.415 . S
C100 C102 1.501 . S
C101 H92 0.931 . S
C101 C97 1.382 . S
C101 C100 1.415 . S
C102 C100 1.501 . S
C102 C103 1.384 . S
C102 C107 1.408 . S
C103 H93 0.930 . S
C103 C102 1.384 . S
C103 C104 1.389 . S
C104 C103 1.389 . S
C104 C105 1.405 . S
C105 H94 0.930 . S
C105 C104 1.405 . S
C105 C106 1.364 . S
C106 C105 1.364 . S
C106 C107 1.400 . S
C107 H95 0.931 . S
C107 C102 1.408 . S
C107 C106 1.400 . S
H108 C114 0.930 . S
H109 C117 0.931 . S
H110 C119 0.931 . S
H111 C121 0.930 . S
H112 C123 0.930 . S
H113 C125 0.931 . S
C114 H108 0.930 . S
C114 C115 1.380 . S
C114 C116 1.394 1_554 S
C115 C114 1.380 . S
C115 C119 1.382 . S
C116 C114 1.394 1_556 S
C116 C117 1.400 . S
C117 H109 0.931 . S
C117 C116 1.400 . S
C117 C118 1.375 1_556 S
C118 C117 1.375 1_554 S
C118 C119 1.415 . S
C118 C120 1.501 . S
C119 H110 0.931 . S
C119 C115 1.382 . S
C119 C118 1.415 . S
C120 C118 1.501 . S
C120 C121 1.384 . S
C120 C125 1.408 1_554 S
C121 H111 0.930 . S
C121 C120 1.384 . S
C121 C122 1.389 . S
C122 C121 1.389 . S
C122 C123 1.405 . S
C123 H112 0.930 . S
C123 C122 1.405 . S
C123 C124 1.364 1_554 S
C124 C123 1.364 1_556 S
C124 C125 1.400 . S
C125 H113 0.931 . S
C125 C120 1.408 1_556 S
C125 C124 1.400 . S
H126 C132 0.930 . S
H127 C135 0.931 . S
H128 C137 0.931 . S
H129 C139 0.930 . S
H130 C141 0.930 . S
H131 C143 0.931 . S
C132 H126 0.930 . S
C132 C133 1.380 . S
C132 C134 1.394 . S
C133 C132 1.380 . S
C133 C137 1.382 . S
C134 C132 1.394 . S
C134 C135 1.400 . S
C135 H127 0.931 . S
C135 C134 1.400 . S
C135 C136 1.375 . S
C136 C135 1.375 . S
C136 C137 1.415 . S
C136 C138 1.501 1_455 S
C137 H128 0.931 . S
C137 C133 1.382 . S
C137 C136 1.415 . S
C138 C136 1.501 1_655 S
C138 C139 1.384 . S
C138 C143 1.408 . S
C139 H129 0.930 . S
C139 C138 1.384 . S
C139 C140 1.389 . S
C140 C139 1.389 . S
C140 C141 1.405 . S
C141 H130 0.930 . S
C141 C140 1.405 . S
C141 C142 1.364 . S
C142 C141 1.364 . S
C142 C143 1.400 . S
C143 H131 0.931 . S
C143 C138 1.408 . S
C143 C142 1.400 . S
Fe144 O145 1.886 . S
Fe144 O148 1.715 1_455 S
Fe144 O153 2.077 . S
Fe144 O158 1.935 1_455 S
Fe144 O164 2.077 . S
Fe144 O173 1.935 1_455 S
O145 Fe144 1.886 . S
O145 Fe147 1.715 . S
Fe146 O148 1.886 . S
Fe146 O149 1.715 . S
Fe146 O156 1.935 . S
Fe146 O157 2.077 . S
Fe146 O163 1.935 . S
Fe146 O172 2.077 . S
Fe147 O145 1.715 . S
Fe147 O150 1.886 . S
Fe147 O154 1.935 . S
Fe147 O159 2.077 . S
Fe147 O165 1.935 . S
Fe147 O169 2.077 . S
O148 Fe144 1.715 1_655 S
O148 Fe146 1.886 . S
O149 Fe146 1.715 . S
O149 Fe151 1.886 . S
O150 Fe147 1.886 . S
O150 Fe151 1.715 1_455 S
Fe151 O149 1.886 . S
Fe151 O150 1.715 1_655 S
Fe151 O155 2.077 . S
Fe151 O160 1.935 1_655 S
Fe151 O162 2.077 . S
Fe151 O170 1.935 1_655 S
C152 O164 1.381 . S
C152 O165 1.421 . S
O153 Fe144 2.077 . S
O153 C166 1.381 . S
O154 Fe147 1.935 . S
O154 C166 1.421 . S
O155 Fe151 2.077 . S
O155 C171 1.381 . S
O156 Fe146 1.935 . S
O156 C171 1.421 . S
O157 Fe146 2.077 . S
O157 C161 1.381 . S
O158 Fe144 1.935 1_655 S
O158 C161 1.421 . S
O159 Fe147 2.077 . S
O159 C167 1.381 . S
O160 Fe151 1.935 1_455 S
O160 C167 1.421 . S
C161 O157 1.381 . S
C161 O158 1.421 . S
O162 Fe151 2.077 . S
O162 C174 1.381 . S
O163 Fe146 1.935 . S
O163 C174 1.421 . S
O164 Fe144 2.077 . S
O164 C152 1.381 . S
O165 Fe147 1.935 . S
O165 C152 1.421 . S
C166 O153 1.381 . S
C166 O154 1.421 . S
C167 O159 1.381 . S
C167 O160 1.421 . S
C168 O169 1.381 . S
C168 O170 1.421 . S
O169 Fe147 2.077 . S
O169 C168 1.381 . S
O170 Fe151 1.935 1_455 S
O170 C168 1.421 . S
C171 O155 1.381 . S
C171 O156 1.421 . S
O172 Fe146 2.077 . S
O172 C175 1.381 . S
O173 Fe144 1.935 1_655 S
O173 C175 1.421 . S
C174 O162 1.381 . S
C174 O163 1.421 . S
C175 O172 1.381 . S
C175 O173 1.421 . S
Fe176 O177 1.886 . S
Fe176 O180 1.715 . S
Fe176 O185 2.077 . S
Fe176 O190 1.935 . S
Fe176 O196 2.077 . S
Fe176 O205 1.935 . S
O177 Fe176 1.886 . S
O177 Fe179 1.715 . S
Fe178 O180 1.886 . S
Fe178 O181 1.715 . S
Fe178 O188 1.935 . S
Fe178 O189 2.077 1_565 S
Fe178 O195 1.935 . S
Fe178 O204 2.077 1_565 S
Fe179 O177 1.715 . S
Fe179 O182 1.886 . S
Fe179 O186 1.935 . S
Fe179 O191 2.077 . S
Fe179 O197 1.935 . S
Fe179 O201 2.077 . S
O180 Fe176 1.715 . S
O180 Fe178 1.886 . S
O181 Fe178 1.715 . S
O181 Fe183 1.886 . S
O182 Fe179 1.886 . S
O182 Fe183 1.715 . S
Fe183 O181 1.886 . S
Fe183 O182 1.715 . S
Fe183 O187 2.077 . S
Fe183 O192 1.935 . S
Fe183 O194 2.077 . S
Fe183 O202 1.935 . S
C184 O196 1.381 . S
C184 O197 1.421 . S
O185 Fe176 2.077 . S
O185 C198 1.381 . S
O186 Fe179 1.935 . S
O186 C198 1.421 . S
O187 Fe183 2.077 . S
O187 C203 1.381 . S
O188 Fe178 1.935 . S
O188 C203 1.421 . S
O189 Fe178 2.077 1_545 S
O189 C193 1.381 1_545 S
O190 Fe176 1.935 . S
O190 C193 1.421 . S
O191 Fe179 2.077 . S
O191 C199 1.381 . S
O192 Fe183 1.935 . S
O192 C199 1.421 . S
C193 O189 1.381 1_565 S
C193 O190 1.421 . S
O194 Fe183 2.077 . S
O194 C206 1.381 . S
O195 Fe178 1.935 . S
O195 C206 1.421 . S
O196 Fe176 2.077 . S
O196 C184 1.381 . S
O197 Fe179 1.935 . S
O197 C184 1.421 . S
C198 O185 1.381 . S
C198 O186 1.421 . S
C199 O191 1.381 . S
C199 O192 1.421 . S
C200 O201 1.381 . S
C200 O202 1.421 . S
O201 Fe179 2.077 . S
O201 C200 1.381 . S
O202 Fe183 1.935 . S
O202 C200 1.421 . S
C203 O187 1.381 . S
C203 O188 1.421 . S
O204 Fe178 2.077 1_545 S
O204 C207 1.381 1_545 S
O205 Fe176 1.935 . S
O205 C207 1.421 . S
C206 O194 1.381 . S
C206 O195 1.421 . S
C207 O204 1.381 1_565 S
C207 O205 1.421 . S
Fe208 O209 1.886 . S
Fe208 O212 1.715 . S
Fe208 O217 2.077 . S
Fe208 O222 1.935 . S
Fe208 O228 2.077 . S
Fe208 O237 1.935 . S
O209 Fe208 1.886 . S
O209 Fe211 1.715 . S
Fe210 O212 1.886 . S
Fe210 O213 1.715 . S
Fe210 O220 1.935 . S
Fe210 O221 2.077 . S
Fe210 O227 1.935 . S
Fe210 O236 2.077 . S
Fe211 O209 1.715 . S
Fe211 O214 1.886 . S
Fe211 O218 1.935 . S
Fe211 O223 2.077 . S
Fe211 O229 1.935 . S
Fe211 O233 2.077 . S
O212 Fe208 1.715 . S
O212 Fe210 1.886 . S
O213 Fe210 1.715 . S
O213 Fe215 1.886 . S
O214 Fe211 1.886 . S
O214 Fe215 1.715 . S
Fe215 O213 1.886 . S
Fe215 O214 1.715 . S
Fe215 O219 2.077 . S
Fe215 O224 1.935 . S
Fe215 O226 2.077 . S
Fe215 O234 1.935 . S
C216 O228 1.381 . S
C216 O229 1.421 . S
O217 Fe208 2.077 . S
O217 C230 1.381 . S
O218 Fe211 1.935 . S
O218 C230 1.421 . S
O219 Fe215 2.077 . S
O219 C235 1.381 . S
O220 Fe210 1.935 . S
O220 C235 1.421 . S
O221 Fe210 2.077 . S
O221 C225 1.381 . S
O222 Fe208 1.935 . S
O222 C225 1.421 . S
O223 Fe211 2.077 . S
O223 C231 1.381 . S
O224 Fe215 1.935 . S
O224 C231 1.421 . S
C225 O221 1.381 . S
C225 O222 1.421 . S
O226 Fe215 2.077 . S
O226 C238 1.381 . S
O227 Fe210 1.935 . S
O227 C238 1.421 . S
O228 Fe208 2.077 . S
O228 C216 1.381 . S
O229 Fe211 1.935 . S
O229 C216 1.421 . S
C230 O217 1.381 . S
C230 O218 1.421 . S
C231 O223 1.381 . S
C231 O224 1.421 . S
C232 O233 1.381 . S
C232 O234 1.421 . S
O233 Fe211 2.077 . S
O233 C232 1.381 . S
O234 Fe215 1.935 . S
O234 C232 1.421 . S
C235 O219 1.381 . S
C235 O220 1.421 . S
O236 Fe210 2.077 . S
O236 C239 1.381 . S
O237 Fe208 1.935 . S
O237 C239 1.421 . S
C238 O226 1.381 . S
C238 O227 1.421 . S
C239 O236 1.381 . S
C239 O237 1.421 . S
Fe240 O241 1.886 . S
Fe240 O244 1.715 . S
Fe240 O249 2.077 1_455 S
Fe240 O254 1.935 1_455 S
Fe240 O260 2.077 . S
Fe240 O269 1.935 . S
O241 Fe240 1.886 . S
O241 Fe243 1.715 . S
Fe242 O244 1.886 . S
Fe242 O245 1.715 . S
Fe242 O252 1.934 1_455 S
Fe242 O253 2.076 1_455 S
Fe242 O259 1.936 . S
Fe242 O268 2.078 . S
Fe243 O241 1.715 . S
Fe243 O246 1.886 . S
Fe243 O250 1.936 1_455 S
Fe243 O255 2.078 1_455 S
Fe243 O261 1.934 . S
Fe243 O265 2.076 . S
O244 Fe240 1.715 . S
O244 Fe242 1.886 . S
O245 Fe242 1.715 . S
O245 Fe247 1.886 . S
O246 Fe243 1.886 . S
O246 Fe247 1.715 . S
Fe247 O245 1.886 . S
Fe247 O246 1.715 . S
Fe247 O251 2.077 1_455 S
Fe247 O256 1.935 1_455 S
Fe247 O258 2.077 . S
Fe247 O266 1.935 . S
C248 O260 1.381 . S
C248 O261 1.421 . S
O249 Fe240 2.077 1_655 S
O249 C262 1.381 . S
O250 Fe243 1.936 1_655 S
O250 C262 1.421 . S
O251 Fe247 2.077 1_655 S
O251 C267 1.381 . S
O252 Fe242 1.934 1_655 S
O252 C267 1.421 . S
O253 Fe242 2.076 1_655 S
O253 C257 1.381 . S
O254 Fe240 1.935 1_655 S
O254 C257 1.421 . S
O255 Fe243 2.078 1_655 S
O255 C263 1.381 . S
O256 Fe247 1.935 1_655 S
O256 C263 1.421 . S
C257 O253 1.381 . S
C257 O254 1.421 . S
O258 Fe247 2.077 . S
O258 C270 1.381 . S
O259 Fe242 1.936 . S
O259 C270 1.421 . S
O260 Fe240 2.077 . S
O260 C248 1.381 . S
O261 Fe243 1.934 . S
O261 C248 1.421 . S
C262 O249 1.381 . S
C262 O250 1.421 . S
C263 O255 1.381 . S
C263 O256 1.421 . S
C264 O265 1.381 . S
C264 O266 1.421 . S
O265 Fe243 2.076 . S
O265 C264 1.381 . S
O266 Fe247 1.935 . S
O266 C264 1.421 . S
C267 O251 1.381 . S
C267 O252 1.421 . S
O268 Fe242 2.078 . S
O268 C271 1.381 . S
O269 Fe240 1.935 . S
O269 C271 1.421 . S
C270 O258 1.381 . S
C270 O259 1.421 . S
C271 O268 1.381 . S
C271 O269 1.421 . S
C193 C14 1.738 . S
C25 C225 1.712 1_565 S
C50 C248 1.791 . S
C152 C68 1.796 1_565 S
C235 C16 1.415 . S
C264 C26 1.436 1_545 S
C168 C52 1.416 . S
C203 C70 1.412 1_565 S
C8 C231 1.393 . S
C88 C206 1.384 1_545 S
C44 C174 1.379 . S
C263 C98 1.394 1_545 S
C207 C7 1.672 . S
C86 C175 1.668 1_545 S
C43 C262 1.704 . S
C230 C97 1.703 1_545 S
C116 C257 1.721 . S
C79 C161 1.712 . S
C140 C184 1.793 . S
C104 C216 1.796 . S
C171 C115 1.426 . S
C80 C200 1.436 . S
C142 C232 1.415 . S
C267 C106 1.412 . S
C122 C167 1.400 . S
C34 C270 1.384 . S
C134 C238 1.378 . S
C199 C62 1.394 . S
C271 C124 1.670 . S
C239 C32 1.669 . S
C198 C133 1.705 . S
C166 C61 1.703 . S
