# Generated by pormake.
# Topology ptr, (4,4)-cn, num edge types: 1
# Building blocks:
#     Node 0, Type 0, BuildingBlock: NAHDIM_clean_sbu_0, # of connection points: 4
#     Node 1, Type 0, BuildingBlock: NAHDIM_clean_sbu_0, # of connection points: 4
#     Node 2, Type 0, BuildingBlock: NAHDIM_clean_sbu_0, # of connection points: 4
#     Node 3, Type 0, BuildingBlock: NAHDIM_clean_sbu_0, # of connection points: 4
#     Node 4, Type 0, BuildingBlock: NAHDIM_clean_sbu_0, # of connection points: 4
#     Node 5, Type 0, BuildingBlock: NAHDIM_clean_sbu_0, # of connection points: 4
#     Node 6, Type 0, BuildingBlock: NAHDIM_clean_sbu_0, # of connection points: 4
#     Node 7, Type 0, BuildingBlock: NAHDIM_clean_sbu_0, # of connection points: 4
#     Node 8, Type 0, BuildingBlock: NAHDIM_clean_sbu_0, # of connection points: 4
#     Node 9, Type 0, BuildingBlock: NAHDIM_clean_sbu_0, # of connection points: 4
#     Node 10, Type 0, BuildingBlock: NAHDIM_clean_sbu_0, # of connection points: 4
#     Node 11, Type 0, BuildingBlock: NAHDIM_clean_sbu_0, # of connection points: 4
#     Node 12, Type 0, BuildingBlock: NAHDIM_clean_sbu_0, # of connection points: 4
#     Node 13, Type 0, BuildingBlock: NAHDIM_clean_sbu_0, # of connection points: 4
#     Node 14, Type 0, BuildingBlock: NAHDIM_clean_sbu_0, # of connection points: 4
#     Node 15, Type 0, BuildingBlock: NAHDIM_clean_sbu_0, # of connection points: 4
#     Node 16, Type 0, BuildingBlock: NAHDIM_clean_sbu_0, # of connection points: 4
#     Node 17, Type 0, BuildingBlock: NAHDIM_clean_sbu_0, # of connection points: 4
#     Node 18, Type 1, BuildingBlock: KUFVIS_clean_linker_0, # of connection points: 4
#     Node 19, Type 1, BuildingBlock: KUFVIS_clean_linker_0, # of connection points: 4
#     Node 20, Type 1, BuildingBlock: KUFVIS_clean_linker_0, # of connection points: 4
#     Node 21, Type 1, BuildingBlock: KUFVIS_clean_linker_0, # of connection points: 4
#     Node 22, Type 1, BuildingBlock: KUFVIS_clean_linker_0, # of connection points: 4
#     Node 23, Type 1, BuildingBlock: KUFVIS_clean_linker_0, # of connection points: 4
#     Node 24, Type 1, BuildingBlock: KUFVIS_clean_linker_0, # of connection points: 4
#     Node 25, Type 1, BuildingBlock: KUFVIS_clean_linker_0, # of connection points: 4
#     Node 26, Type 1, BuildingBlock: KUFVIS_clean_linker_0, # of connection points: 4
#     Node 27, Type 1, BuildingBlock: KUFVIS_clean_linker_0, # of connection points: 4
#     Node 28, Type 1, BuildingBlock: KUFVIS_clean_linker_0, # of connection points: 4
#     Node 29, Type 1, BuildingBlock: KUFVIS_clean_linker_0, # of connection points: 4
#     Node 30, Type 1, BuildingBlock: KUFVIS_clean_linker_0, # of connection points: 4
#     Node 31, Type 1, BuildingBlock: KUFVIS_clean_linker_0, # of connection points: 4
#     Node 32, Type 1, BuildingBlock: KUFVIS_clean_linker_0, # of connection points: 4
#     Node 33, Type 1, BuildingBlock: KUFVIS_clean_linker_0, # of connection points: 4
#     Node 34, Type 1, BuildingBlock: KUFVIS_clean_linker_0, # of connection points: 4
#     Node 35, Type 1, BuildingBlock: KUFVIS_clean_linker_0, # of connection points: 4
#     Edge 36, Type (0, 1), BuildingBlock: TEMPAE_clean_linker_10, # of connection points: 2
#     Edge 37, Type (0, 1), BuildingBlock: TEMPAE_clean_linker_10, # of connection points: 2
#     Edge 38, Type (0, 1), BuildingBlock: TEMPAE_clean_linker_10, # of connection points: 2
#     Edge 39, Type (0, 1), BuildingBlock: TEMPAE_clean_linker_10, # of connection points: 2
#     Edge 40, Type (0, 1), BuildingBlock: TEMPAE_clean_linker_10, # of connection points: 2
#     Edge 41, Type (0, 1), BuildingBlock: TEMPAE_clean_linker_10, # of connection points: 2
#     Edge 42, Type (0, 1), BuildingBlock: TEMPAE_clean_linker_10, # of connection points: 2
#     Edge 43, Type (0, 1), BuildingBlock: TEMPAE_clean_linker_10, # of connection points: 2
#     Edge 44, Type (0, 1), BuildingBlock: TEMPAE_clean_linker_10, # of connection points: 2
#     Edge 45, Type (0, 1), BuildingBlock: TEMPAE_clean_linker_10, # of connection points: 2
#     Edge 46, Type (0, 1), BuildingBlock: TEMPAE_clean_linker_10, # of connection points: 2
#     Edge 47, Type (0, 1), BuildingBlock: TEMPAE_clean_linker_10, # of connection points: 2
#     Edge 48, Type (0, 1), BuildingBlock: TEMPAE_clean_linker_10, # of connection points: 2
#     Edge 49, Type (0, 1), BuildingBlock: TEMPAE_clean_linker_10, # of connection points: 2
#     Edge 50, Type (0, 1), BuildingBlock: TEMPAE_clean_linker_10, # of connection points: 2
#     Edge 51, Type (0, 1), BuildingBlock: TEMPAE_clean_linker_10, # of connection points: 2
#     Edge 52, Type (0, 1), BuildingBlock: TEMPAE_clean_linker_10, # of connection points: 2
#     Edge 53, Type (0, 1), BuildingBlock: TEMPAE_clean_linker_10, # of connection points: 2
#     Edge 54, Type (0, 1), BuildingBlock: TEMPAE_clean_linker_10, # of connection points: 2
#     Edge 55, Type (0, 1), BuildingBlock: TEMPAE_clean_linker_10, # of connection points: 2
#     Edge 56, Type (0, 1), BuildingBlock: TEMPAE_clean_linker_10, # of connection points: 2
#     Edge 57, Type (0, 1), BuildingBlock: TEMPAE_clean_linker_10, # of connection points: 2
#     Edge 58, Type (0, 1), BuildingBlock: TEMPAE_clean_linker_10, # of connection points: 2
#     Edge 59, Type (0, 1), BuildingBlock: TEMPAE_clean_linker_10, # of connection points: 2
#     Edge 60, Type (0, 1), BuildingBlock: TEMPAE_clean_linker_10, # of connection points: 2
#     Edge 61, Type (0, 1), BuildingBlock: TEMPAE_clean_linker_10, # of connection points: 2
#     Edge 62, Type (0, 1), BuildingBlock: TEMPAE_clean_linker_10, # of connection points: 2
#     Edge 63, Type (0, 1), BuildingBlock: TEMPAE_clean_linker_10, # of connection points: 2
#     Edge 64, Type (0, 1), BuildingBlock: TEMPAE_clean_linker_10, # of connection points: 2
#     Edge 65, Type (0, 1), BuildingBlock: TEMPAE_clean_linker_10, # of connection points: 2
#     Edge 66, Type (0, 1), BuildingBlock: TEMPAE_clean_linker_10, # of connection points: 2
#     Edge 67, Type (0, 1), BuildingBlock: TEMPAE_clean_linker_10, # of connection points: 2
#     Edge 68, Type (0, 1), BuildingBlock: TEMPAE_clean_linker_10, # of connection points: 2
#     Edge 69, Type (0, 1), BuildingBlock: TEMPAE_clean_linker_10, # of connection points: 2
#     Edge 70, Type (0, 1), BuildingBlock: TEMPAE_clean_linker_10, # of connection points: 2
#     Edge 71, Type (0, 1), BuildingBlock: TEMPAE_clean_linker_10, # of connection points: 2
#     Edge 72, Type (0, 1), BuildingBlock: TEMPAE_clean_linker_10, # of connection points: 2
#     Edge 73, Type (0, 1), BuildingBlock: TEMPAE_clean_linker_10, # of connection points: 2
#     Edge 74, Type (0, 1), BuildingBlock: TEMPAE_clean_linker_10, # of connection points: 2
#     Edge 75, Type (0, 1), BuildingBlock: TEMPAE_clean_linker_10, # of connection points: 2
#     Edge 76, Type (0, 1), BuildingBlock: TEMPAE_clean_linker_10, # of connection points: 2
#     Edge 77, Type (0, 1), BuildingBlock: TEMPAE_clean_linker_10, # of connection points: 2
#     Edge 78, Type (0, 1), BuildingBlock: TEMPAE_clean_linker_10, # of connection points: 2
#     Edge 79, Type (0, 1), BuildingBlock: TEMPAE_clean_linker_10, # of connection points: 2
#     Edge 80, Type (0, 1), BuildingBlock: TEMPAE_clean_linker_10, # of connection points: 2
#     Edge 81, Type (0, 1), BuildingBlock: TEMPAE_clean_linker_10, # of connection points: 2
#     Edge 82, Type (0, 1), BuildingBlock: TEMPAE_clean_linker_10, # of connection points: 2
#     Edge 83, Type (0, 1), BuildingBlock: TEMPAE_clean_linker_10, # of connection points: 2
#     Edge 84, Type (0, 1), BuildingBlock: TEMPAE_clean_linker_10, # of connection points: 2
#     Edge 85, Type (0, 1), BuildingBlock: TEMPAE_clean_linker_10, # of connection points: 2
#     Edge 86, Type (0, 1), BuildingBlock: TEMPAE_clean_linker_10, # of connection points: 2
#     Edge 87, Type (0, 1), BuildingBlock: TEMPAE_clean_linker_10, # of connection points: 2
#     Edge 88, Type (0, 1), BuildingBlock: TEMPAE_clean_linker_10, # of connection points: 2
#     Edge 89, Type (0, 1), BuildingBlock: TEMPAE_clean_linker_10, # of connection points: 2
#     Edge 90, Type (0, 1), BuildingBlock: TEMPAE_clean_linker_10, # of connection points: 2
#     Edge 91, Type (0, 1), BuildingBlock: TEMPAE_clean_linker_10, # of connection points: 2
#     Edge 92, Type (0, 1), BuildingBlock: TEMPAE_clean_linker_10, # of connection points: 2
#     Edge 93, Type (0, 1), BuildingBlock: TEMPAE_clean_linker_10, # of connection points: 2
#     Edge 94, Type (0, 1), BuildingBlock: TEMPAE_clean_linker_10, # of connection points: 2
#     Edge 95, Type (0, 1), BuildingBlock: TEMPAE_clean_linker_10, # of connection points: 2
#     Edge 96, Type (0, 1), BuildingBlock: TEMPAE_clean_linker_10, # of connection points: 2
#     Edge 97, Type (0, 1), BuildingBlock: TEMPAE_clean_linker_10, # of connection points: 2
#     Edge 98, Type (0, 1), BuildingBlock: TEMPAE_clean_linker_10, # of connection points: 2
#     Edge 99, Type (0, 1), BuildingBlock: TEMPAE_clean_linker_10, # of connection points: 2
#     Edge 100, Type (0, 1), BuildingBlock: TEMPAE_clean_linker_10, # of connection points: 2
#     Edge 101, Type (0, 1), BuildingBlock: TEMPAE_clean_linker_10, # of connection points: 2
#     Edge 102, Type (0, 1), BuildingBlock: TEMPAE_clean_linker_10, # of connection points: 2
#     Edge 103, Type (0, 1), BuildingBlock: TEMPAE_clean_linker_10, # of connection points: 2
#     Edge 104, Type (0, 1), BuildingBlock: TEMPAE_clean_linker_10, # of connection points: 2
#     Edge 105, Type (0, 1), BuildingBlock: TEMPAE_clean_linker_10, # of connection points: 2
#     Edge 106, Type (0, 1), BuildingBlock: TEMPAE_clean_linker_10, # of connection points: 2
#     Edge 107, Type (0, 1), BuildingBlock: TEMPAE_clean_linker_10, # of connection points: 2
# Relax obj value: 0.075
# Max RMSD: 0.212
# Mean RMSD: 0.121
data_MOF--net-ptr--node1-NAHDIM_clean_sbu_0--node2-KUFVIS_clean_linker_0--edge1-TEMPAE_clean_linker_10
_symmetry_space_group_name_H-M    P1
_symmetry_Int_Tables_number       1
_symmetry_cell_setting            triclinic
loop_
_symmetry_equiv_pos_as_xyz
'x, y, z'
_cell_length_a     81.419581
_cell_length_b     79.953686
_cell_length_c     47.897448
_cell_angle_alpha  91.859373
_cell_angle_beta   89.175382
_cell_angle_gamma 121.72859
loop_
_atom_site_label
_atom_site_type_symbol
_atom_site_fract_x
_atom_site_fract_y
_atom_site_fract_z
_atom_type_partial_charge
C0 C 0.03175 0.36084 0.03859 0.0
O1 O 0.02097 0.35897 0.06037 0.0
O2 O 0.98102 0.34333 0.00559 0.0
Zn3 Zn 0.00566 0.36966 0.0123 0.0
O4 O 0.00336 0.38323 0.04703 0.0
C5 C 0.99936 0.38287 0.95976 0.0
O6 O 0.98392 0.36507 0.95821 0.0
O7 O 0.02801 0.36547 0.01544 0.0
C8 C 0.99138 0.38888 0.04701 0.0
O9 O 0.98049 0.38501 0.02484 0.0
C10 C 0.96891 0.33331 0.02445 0.0
O11 O 0.9722 0.34014 0.05039 0.0
O12 O 0.01073 0.38776 0.98047 0.0
C13 C 0.68185 0.64787 0.98983 0.0
O14 O 0.67423 0.65283 0.97019 0.0
O15 O 0.65093 0.66639 0.0222 0.0
Zn16 Zn 0.64696 0.63939 0.01601 0.0
O17 O 0.63132 0.62608 0.98128 0.0
C18 C 0.62433 0.62715 0.06694 0.0
O19 O 0.62745 0.64503 0.06726 0.0
O20 O 0.6727 0.64153 0.01257 0.0
C21 C 0.61304 0.61756 0.98217 0.0
O22 O 0.60483 0.61862 0.00542 0.0
C23 C 0.65036 0.67692 0.00334 0.0
O24 O 0.64716 0.67031 0.97729 0.0
O25 O 0.63186 0.62195 0.04781 0.0
C26 C 0.36155 0.03601 0.98485 0.0
O27 O 0.36323 0.0273 0.96221 0.0
O28 O 0.33983 0.98237 0.01797 0.0
Zn29 Zn 0.36612 0.00676 0.01176 0.0
O30 O 0.37858 0.00317 0.97712 0.0
C31 C 0.38113 0.99878 0.06105 0.0
O32 O 0.36506 0.98149 0.05884 0.0
O33 O 0.36261 0.02995 0.00858 0.0
C34 C 0.38323 0.99026 0.97667 0.0
O35 O 0.3789 0.97893 -0.00177 0.0
C36 C 0.32696 0.97459 -0.00105 0.0
O37 O 0.33096 0.98229 0.97411 0.0
O38 O 0.38429 0.01194 0.04388 0.0
C39 C 0.97182 0.64661 0.98514 0.0
O40 O 0.98354 0.64909 0.96436 0.0
O41 O 0.02207 0.66535 0.01269 0.0
Zn42 Zn 0.9978 0.63833 0.01061 0.0
O43 O 0.99749 0.62239 0.97652 0.0
C44 C 0.01239 0.62684 0.0554 0.0
O45 O 0.02887 0.64026 0.04452 0.0
O46 O 0.9748 0.64164 0.00859 0.0
C47 C 0.00742 0.61431 0.97532 0.0
O48 O 0.01888 0.61702 0.99622 0.0
C49 C 0.03558 0.67317 0.99482 0.0
O50 O 0.03427 0.66343 0.97149 0.0
O51 O 0.99665 0.62371 0.04509 0.0
C52 C 0.32718 0.36007 0.03129 0.0
O53 O 0.33536 0.35696 0.05229 0.0
O54 O 0.35955 0.34171 0.99651 0.0
Zn55 Zn 0.36227 0.36823 0.00375 0.0
O56 O 0.37832 0.38138 0.03831 0.0
C57 C 0.38551 0.38308 0.95349 0.0
O58 O 0.3857 0.36678 0.95432 0.0
O59 O 0.33596 0.36493 0.00805 0.0
C60 C 0.39584 0.38602 0.03883 0.0
O61 O 0.40294 0.38164 0.01696 0.0
C62 C 0.36139 0.33199 0.01546 0.0
O63 O 0.36485 0.33906 0.04128 0.0
O64 O 0.37618 0.38645 0.97198 0.0
C65 C 0.64213 0.9671 0.02813 0.0
O66 O 0.64693 0.98027 0.04851 0.0
O67 O 0.66479 0.01862 0.00471 0.0
Zn68 Zn 0.6372 0.99556 0.0041 0.0
O69 O 0.6234 0.99742 0.03804 0.0
C70 C 0.61315 0.98415 0.95255 0.0
O71 O 0.61311 0.96768 0.95167 0.0
O72 O 0.63697 0.97012 0.00485 0.0
C73 C 0.61707 0.00896 0.03783 0.0
O74 O 0.62065 0.02001 0.01613 0.0
C75 C 0.67351 0.02524 0.98174 0.0
O76 O 0.66427 0.01685 0.95825 0.0
O77 O 0.62269 0.99709 0.97149 0.0
C78 C 0.69626 0.69416 0.37303 0.0
O79 O 0.68266 0.68544 0.39188 0.0
O80 O 0.6458 0.67332 0.35277 0.0
Zn81 Zn 0.66808 0.70161 0.35355 0.0
O82 O 0.66611 0.7153 0.3882 0.0
C83 C 0.67604 0.72137 0.2995 0.0
O84 O 0.68939 0.71698 0.29589 0.0
O85 O 0.69353 0.70268 0.35326 0.0
C86 C 0.65232 0.71843 0.3894 0.0
O87 O 0.63975 0.71184 0.3688 0.0
C88 C 0.64075 0.6637 0.32964 0.0
O89 O 0.65034 0.67243 0.30697 0.0
O90 O 0.66578 0.71599 0.32143 0.0
C91 C 0.34436 0.97622 0.32429 0.0
O92 O 0.33831 0.9827 0.30444 0.0
O93 O 0.31298 0.99507 0.34972 0.0
Zn94 Zn 0.30836 0.96762 0.34621 0.0
O95 O 0.29323 0.95281 0.3119 0.0
C96 C 0.28215 0.95685 0.39263 0.0
O97 O 0.28314 0.97335 0.38722 0.0
O98 O 0.33378 0.96888 0.34563 0.0
C99 C 0.27852 0.95295 0.30381 0.0
O100 O 0.27343 0.96415 0.3171 0.0
C101 C 0.31377 0.00603 0.3304 0.0
O102 O 0.31191 0.99983 0.30423 0.0
O103 O 0.2922 0.95177 0.37841 0.0
C104 C 0.03251 0.37576 0.32551 0.0
O105 O 0.03149 0.36512 0.30336 0.0
O106 O 0.00894 0.32178 0.35352 0.0
Zn107 Zn 0.03588 0.34586 0.35035 0.0
O108 O 0.04995 0.34445 0.31609 0.0
C109 C 0.05588 0.33335 0.38241 0.0
O110 O 0.04962 0.32051 0.36136 0.0
O111 O 0.03458 0.37054 0.34937 0.0
C112 C 0.06814 0.35648 0.3161 0.0
O113 O 0.0761 0.36905 0.33729 0.0
C114 C 0.99531 0.31521 0.3357 0.0
O115 O 0.99835 0.32421 0.31201 0.0
O116 O 0.05136 0.34637 0.38334 0.0
C117 C 0.64012 0.98181 0.31537 0.0
O118 O 0.65057 0.98328 0.29335 0.0
O119 O 0.69219 0.00332 0.34664 0.0
Zn120 Zn 0.66839 0.97617 0.34152 0.0
O121 O 0.67112 0.96265 0.30711 0.0
C122 C 0.67864 0.96504 0.39267 0.0
O123 O 0.69387 0.98296 0.39193 0.0
O124 O 0.64481 0.97851 0.33884 0.0
C125 C 0.68407 0.95829 0.30703 0.0
O126 O 0.69557 0.96347 0.32878 0.0
C127 C 0.70291 0.01389 0.32694 0.0
O128 O 0.69852 0.00719 0.301 0.0
O129 O 0.66569 0.95928 0.37395 0.0
C130 C 0.99325 0.69833 0.36309 0.0
O131 O 1.00133 0.69702 0.3858 0.0
O132 O 0.0255 0.67842 0.33274 0.0
Zn133 Zn 0.02888 0.70526 0.33872 0.0
O134 O 0.04389 0.71829 0.37429 0.0
C135 C 0.05377 0.71891 0.28994 0.0
O136 O 0.05351 0.70248 0.29269 0.0
O137 O 1.00244 0.702 0.34019 0.0
C138 C 0.06118 0.72233 0.3764 0.0
O139 O 0.06862 0.71734 0.35564 0.0
C140 C 0.0213 0.66625 0.35207 0.0
O141 O 0.0191 0.67112 0.3777 0.0
O142 O 0.04411 0.72298 0.3069 0.0
C143 C 0.31124 0.30113 0.35844 0.0
O144 O 0.3123 0.31145 0.381 0.0
O145 O 0.32807 0.35275 0.3238 0.0
Zn146 Zn 0.30274 0.32797 0.33272 0.0
O147 O 0.29172 0.33208 0.36839 0.0
C148 C 0.28609 0.33167 0.28154 0.0
O149 O 0.30359 0.34683 0.27755 0.0
O150 O 0.30718 0.30541 0.33525 0.0
C151 C 0.28695 0.3449 0.36857 0.0
O152 O 0.29014 0.35524 0.34616 0.0
C153 C 0.33893 0.36558 0.34219 0.0
O154 O 0.33363 0.36292 0.36851 0.0
O155 O 0.28276 0.3214 0.30296 0.0
C156 C 0.37036 0.03246 0.69407 0.0
O157 O 0.36 0.03283 0.71509 0.0
O158 O 0.31791 0.0096 0.66139 0.0
Zn159 Zn 0.34258 0.03665 0.66418 0.0
O160 O 0.34192 0.05372 0.69568 0.0
C161 C 0.35799 0.06964 0.62867 0.0
O162 O 0.36888 0.07835 0.65083 0.0
O163 O 0.3657 0.03386 0.66941 0.0
C164 C 0.32695 0.05125 0.70815 0.0
O165 O 0.30994 0.03589 0.70156 0.0
C166 C 0.31017 0.99758 0.68117 0.0
O167 O 0.31817 0.00263 0.70608 0.0
O168 O 0.34574 0.05122 0.62895 0.0
C169 C 0.01606 0.31145 0.65725 0.0
O170 O 0.0059 0.30954 0.63499 0.0
O171 O 0.98048 0.32772 0.68791 0.0
Zn172 Zn 0.98065 0.3025 0.68361 0.0
O173 O 0.96542 0.28563 0.64995 0.0
C174 C 0.94956 0.27627 0.7182 0.0
O175 O 0.93989 0.27736 0.69736 0.0
O176 O 0.00827 0.30911 0.68115 0.0
C177 C 0.9535 0.2878 0.63609 0.0
O178 O 0.95091 0.30231 0.64279 0.0
C179 C 0.98505 0.34045 0.6693 0.0
O180 O 0.9901 0.33746 0.64434 0.0
O181 O 0.96792 0.28624 0.7175 0.0
C182 C 0.69474 0.70754 0.65272 0.0
O183 O 0.68704 0.69353 0.63326 0.0
O184 O 0.67538 0.65673 0.68005 0.0
Zn185 Zn 0.70291 0.68005 0.67583 0.0
O186 O 0.71424 0.67595 0.6405 0.0
C187 C 0.71806 0.68156 0.73284 0.0
O188 O 0.70125 0.67756 0.7426 0.0
O189 O 0.70264 0.7052 0.67371 0.0
C190 C 0.71791 0.66232 0.63965 0.0
O191 O 0.71341 0.65098 0.66125 0.0
C192 C 0.67068 0.64184 0.69463 0.0
O193 O 0.6841 0.64106 0.70834 0.0
O194 O 0.7211 0.68304 0.70668 0.0
C195 C 0.30861 0.31357 0.65263 0.0
O196 O 0.32111 0.31762 0.63237 0.0
O197 O 0.35887 0.3293 0.67479 0.0
Zn198 Zn 0.33347 0.30312 0.67587 0.0
O199 O 0.33095 0.28547 0.64333 0.0
C200 C 0.32036 0.28138 0.72835 0.0
O201 O 0.30648 0.28515 0.7287 0.0
O202 O 0.31088 0.30707 0.6752 0.0
C203 C 0.34212 0.29032 0.62241 0.0
O204 O 0.3564 0.30867 0.62028 0.0
C205 C 0.3635 0.34085 0.69605 0.0
O206 O 0.35155 0.33534 0.71731 0.0
O207 O 0.33297 0.28821 0.70916 0.0
C208 C 0.65349 0.03121 0.65781 0.0
O209 O 0.65676 0.028 0.63183 0.0
O210 O 0.6909 0.01493 0.66336 0.0
Zn211 Zn 0.69335 0.04136 0.6691 0.0
O212 O 0.70974 0.05578 0.70331 0.0
C213 C 0.71921 0.05682 0.62268 0.0
O214 O 0.72308 0.04365 0.63052 0.0
O215 O 0.66682 0.03698 0.67594 0.0
C216 C 0.7281 0.06493 0.70317 0.0
O217 O 0.737 0.06465 0.68029 0.0
C218 C 0.68902 0.00385 0.6832 0.0
O219 O 0.68871 0.00964 0.70908 0.0
O220 O 0.70611 0.05818 0.63536 0.0
C221 C 0.97953 0.63355 0.68597 0.0
O222 O 0.98229 0.64551 0.70732 0.0
O223 O 0.99651 0.68464 0.65598 0.0
Zn224 Zn 0.97054 0.6596 0.66081 0.0
O225 O 0.95736 0.66147 0.69562 0.0
C226 C 0.95706 0.6681 0.61036 0.0
O227 O 0.97468 0.68359 0.60978 0.0
O228 O 0.97422 0.6365 0.66276 0.0
C229 C 0.95009 0.67218 0.69529 0.0
O230 O 0.9524 0.68236 0.67301 0.0
C231 C 0.00545 0.6979 0.6749 0.0
O232 O 0.99775 0.6956 0.69984 0.0
O233 O 0.95255 0.65556 0.6292 0.0
H234 H 0.21762 0.32592 0.11594 0.0
H235 H 0.1874 0.34976 0.07777 0.0
H236 H 0.17099 0.3248 0.15994 0.0
H237 H 0.16453 0.34836 0.16592 0.0
H238 H 0.12167 0.35568 0.12755 0.0
H239 H 0.1549 0.33935 0.07642 0.0
C240 C 0.20572 0.32839 0.11642 0.0
C241 C 0.19466 0.32449 0.14061 0.0
C242 C 0.20296 0.33717 0.09368 0.0
C243 C 0.18872 0.34206 0.09495 0.0
C244 C 0.17675 0.33754 0.11877 0.0
C245 C 0.17984 0.32852 0.14138 0.0
C246 C 0.16174 0.34301 0.12087 0.0
C247 C 0.15694 0.34782 0.14723 0.0
C248 C 0.14244 0.35225 0.14981 0.0
C249 C 0.13317 0.35263 0.12578 0.0
C250 C 0.13787 0.34841 0.09943 0.0
C251 C 0.15191 0.34329 0.09688 0.0
H252 H 0.6742 0.89419 0.12148 0.0
H253 H 0.65399 0.83896 0.07863 0.0
H254 H 0.6798 0.85027 0.16108 0.0
H255 H 0.66089 0.81858 0.16482 0.0
H256 H 0.6559 0.76903 0.11978 0.0
H257 H 0.66455 0.81816 0.07433 0.0
C258 C 0.67265 0.87984 0.1208 0.0
C259 C 0.67753 0.87336 0.1442 0.0
C260 C 0.66459 0.86764 0.09706 0.0
C261 C 0.66113 0.84848 0.09668 0.0
C262 C 0.66661 0.84174 0.11969 0.0
C263 C 0.67506 0.85461 0.14324 0.0
C264 C 0.66323 0.82134 0.11958 0.0
C265 C 0.661 0.81176 0.14501 0.0
C266 C 0.65863 0.79305 0.14529 0.0
C267 C 0.6575 0.78339 0.11991 0.0
C268 C 0.65917 0.79223 0.09451 0.0
C269 C 0.66245 0.81129 0.09424 0.0
H270 H 0.22702 0.89746 0.10874 0.0
H271 H 0.18253 0.84933 0.0605 0.0
H272 H 0.18532 0.84525 0.15009 0.0
H273 H 0.15365 0.82846 0.14716 0.0
H274 H 0.11506 0.77325 0.10587 0.0
H275 H 0.16499 0.81658 0.06233 0.0
C276 C 0.21431 0.88273 0.10798 0.0
C277 C 0.20694 0.87245 0.13263 0.0
C278 C 0.20599 0.87418 0.08205 0.0
C279 C 0.18909 0.8554 0.08071 0.0
C280 C 0.18073 0.84493 0.10545 0.0
C281 C 0.19037 0.85347 0.13113 0.0
C282 C 0.16216 0.82522 0.10495 0.0
C283 C 0.15016 0.81886 0.12889 0.0
C284 C 0.1333 0.8001 0.12954 0.0
C285 C 0.12796 0.78786 0.10564 0.0
C286 C 0.13911 0.79397 0.0814 0.0
C287 C 0.15626 0.81249 0.08102 0.0
H288 H 0.33673 0.11355 0.8962 0.0
H289 H 0.33794 0.15902 0.94695 0.0
H290 H 0.34413 0.1643 0.85689 0.0
H291 H 0.33109 0.18166 0.86112 0.0
H292 H 0.34164 0.23265 0.90824 0.0
H293 H 0.35045 0.19078 0.94748 0.0
C294 C 0.33794 0.12773 0.89764 0.0
C295 C 0.34011 0.13793 0.8734 0.0
C296 C 0.33783 0.13563 0.92397 0.0
C297 C 0.33872 0.15364 0.9263 0.0
C298 C 0.34027 0.16416 0.90209 0.0
C299 C 0.34154 0.15622 0.87575 0.0
C300 C 0.34065 0.18327 0.90403 0.0
C301 C 0.33568 0.19013 0.88053 0.0
C302 C 0.33683 0.2083 0.88161 0.0
C303 C 0.34147 0.21898 0.90687 0.0
C304 C 0.34601 0.21249 0.93052 0.0
C305 C 0.34604 0.19495 0.92911 0.0
H306 H 0.77804 0.11037 0.90177 0.0
H307 H 0.82245 0.1555 0.95402 0.0
H308 H 0.82362 0.16184 0.86415 0.0
H309 H 0.85428 0.17921 0.86904 0.0
H310 H 0.89404 0.23119 0.91573 0.0
H311 H 0.84188 0.18783 0.95496 0.0
C312 C 0.79156 0.12443 0.9038 0.0
C313 C 0.8006 0.13496 0.87996 0.0
C314 C 0.79915 0.13206 0.93036 0.0
C315 C 0.81656 0.15029 0.93326 0.0
C316 C 0.8262 0.16132 0.90938 0.0
C317 C 0.81746 0.1536 0.88287 0.0
C318 C 0.84524 0.18061 0.91169 0.0
C319 C 0.8578 0.18773 0.88838 0.0
C320 C 0.87492 0.20627 0.88934 0.0
C321 C 0.88052 0.21709 0.91452 0.0
C322 C 0.86885 0.21024 0.93816 0.0
C323 C 0.85105 0.1923 0.93672 0.0
H324 H 0.78408 0.67524 0.89531 0.0
H325 H 0.82095 0.65952 0.9337 0.0
H326 H 0.83338 0.68373 0.85057 0.0
H327 H 0.85022 0.67063 0.8454 0.0
H328 H 0.89586 0.67009 0.8871 0.0
H329 H 0.85143 0.66972 0.93606 0.0
C330 C 0.79708 0.6746 0.89457 0.0
C331 C 0.80809 0.67975 0.87033 0.0
C332 C 0.80193 0.66763 0.91738 0.0
C333 C 0.81815 0.6658 0.91612 0.0
C334 C 0.8302 0.67176 0.89219 0.0
C335 C 0.82479 0.67877 0.86931 0.0
C336 C 0.84818 0.67067 0.89093 0.0
C337 C 0.8568 0.67082 0.8649 0.0
C338 C 0.87432 0.67141 0.86356 0.0
C339 C 0.88271 0.67043 0.88812 0.0
C340 C 0.87414 0.66925 0.91398 0.0
C341 C 0.85719 0.66979 0.91557 0.0
H342 H 0.8889 0.66799 0.44204 0.0
H343 H 0.84644 0.6745 0.40099 0.0
H344 H 0.84501 0.66833 0.49107 0.0
H345 H 0.81478 0.65643 0.48798 0.0
H346 H 0.77707 0.67283 0.4549 0.0
H347 H 0.82747 0.68573 0.4086 0.0
C348 C 0.8758 0.66843 0.44319 0.0
C349 C 0.867 0.66673 0.46895 0.0
C350 C 0.8687 0.67172 0.41902 0.0
C351 C 0.85193 0.67261 0.42026 0.0
C352 C 0.84248 0.67084 0.44618 0.0
C353 C 0.85084 0.66862 0.47058 0.0
C354 C 0.82411 0.6712 0.44807 0.0
C355 C 0.81179 0.66343 0.47159 0.0
C356 C 0.79507 0.66428 0.47431 0.0
C357 C 0.78995 0.67204 0.45288 0.0
C358 C 0.80139 0.67937 0.42913 0.0
C359 C 0.81856 0.67925 0.42677 0.0
H360 H 0.32626 0.21811 0.44244 0.0
H361 H 0.33705 0.17873 0.39481 0.0
H362 H 0.33068 0.17444 0.48492 0.0
H363 H 0.35094 0.16453 0.4814 0.0
H364 H 0.34818 0.115 0.43979 0.0
H365 H 0.32773 0.14689 0.39734 0.0
C366 C 0.32814 0.20563 0.44184 0.0
C367 C 0.32852 0.19721 0.46668 0.0
C368 C 0.3307 0.19868 0.41608 0.0
C369 C 0.3343 0.18331 0.41493 0.0
C370 C 0.33468 0.17437 0.43981 0.0
C371 C 0.33132 0.18133 0.46554 0.0
C372 C 0.33885 0.15813 0.43932 0.0
C373 C 0.34694 0.15493 0.46305 0.0
C374 C 0.34998 0.13922 0.46357 0.0
C375 C 0.34618 0.12739 0.43951 0.0
C376 C 0.33862 0.13044 0.41553 0.0
C377 C 0.33449 0.14543 0.41561 0.0
H378 H 0.90037 0.22961 0.44908 0.0
H379 H 0.85177 0.18937 0.39867 0.0
H380 H 0.85468 0.17733 0.48561 0.0
H381 H 0.82351 0.16215 0.48411 0.0
H382 H 0.77757 0.11734 0.4335 0.0
H383 H 0.83152 0.15707 0.3952 0.0
C384 C 0.88657 0.21585 0.44717 0.0
C385 C 0.87841 0.20417 0.47048 0.0
C386 C 0.87725 0.21025 0.4213 0.0
C387 C 0.85902 0.19293 0.41868 0.0
C388 C 0.85013 0.18084 0.44199 0.0
C389 C 0.8604 0.18655 0.46766 0.0
C390 C 0.83014 0.16273 0.4398 0.0
C391 C 0.81829 0.15517 0.4638 0.0
C392 C 0.79963 0.13823 0.46196 0.0
C393 C 0.79222 0.12989 0.43554 0.0
C394 C 0.80365 0.13664 0.41166 0.0
C395 C 0.82269 0.15269 0.41379 0.0
H396 H 1.00079 0.44975 0.23636 0.0
H397 H 0.01634 0.50277 0.2828 0.0
H398 H 0.99418 0.49351 0.19824 0.0
H399 H 0.01361 0.52593 0.19767 0.0
H400 H 0.00798 0.56972 0.24301 0.0
H401 H 1.00267 0.52135 0.28677 0.0
C402 C 1.00162 0.46376 0.23769 0.0
C403 C 0.99705 0.47056 0.21434 0.0
C404 C 0.00822 0.47514 0.26241 0.0
C405 C 0.01051 0.49384 0.26387 0.0
C406 C 0.00547 0.50089 0.24076 0.0
C407 C 0.99858 0.48887 0.21615 0.0
C408 C 0.00733 0.52062 0.2419 0.0
C409 C 0.01078 0.53121 0.21713 0.0
C410 C 0.01093 0.54886 0.21723 0.0
C411 C 0.00822 0.55627 0.24254 0.0
C412 C 0.00584 0.54674 0.26752 0.0
C413 C 0.00522 0.52886 0.26732 0.0
H414 H 0.44305 0.44097 0.23163 0.0
H415 H 0.48167 0.49263 0.28005 0.0
H416 H 0.49725 0.48328 0.19641 0.0
H417 H 0.51476 0.51463 0.1955 0.0
H418 H 0.5606 0.56035 0.24465 0.0
H419 H 0.51283 0.5128 0.28618 0.0
C420 C 0.45692 0.45466 0.23359 0.0
C421 C 0.46952 0.46134 0.21092 0.0
C422 C 0.46157 0.46571 0.25856 0.0
C423 C 0.47892 0.48402 0.2609 0.0
C424 C 0.49227 0.491 0.23851 0.0
C425 C 0.48735 0.4791 0.21376 0.0
C426 C 0.51111 0.51054 0.24053 0.0
C427 C 0.52095 0.52037 0.21596 0.0
C428 C 0.53913 0.53782 0.21735 0.0
C429 C 0.54697 0.54635 0.2434 0.0
C430 C 0.53732 0.53759 0.26798 0.0
C431 C 0.51961 0.51957 0.26674 0.0
H432 H 0.44284 0.99649 0.2349 0.0
H433 H 0.48432 0.98763 0.27415 0.0
H434 H 0.49619 0.01497 0.19333 0.0
H435 H 0.51424 0.00322 0.18656 0.0
H436 H 0.56232 0.0069 0.2272 0.0
H437 H 0.51551 1.00069 0.27695 0.0
C438 C 0.45698 0.99819 0.23452 0.0
C439 C 0.4688 0.00603 0.21124 0.0
C440 C 0.4628 0.99205 0.25726 0.0
C441 C 0.48062 0.99325 0.25667 0.0
C442 C 0.49309 1.00123 0.2334 0.0
C443 C 0.48696 0.00796 0.21103 0.0
C444 C 0.51222 0.00241 0.23205 0.0
C445 C 0.52124 0.00391 0.20591 0.0
C446 C 0.53955 0.00632 0.20423 0.0
C447 C 0.54854 0.00597 0.22856 0.0
C448 C 0.53966 0.00342 0.2545 0.0
C449 C 0.52171 0.00197 0.25645 0.0
H450 H 0.55865 0.00322 0.77866 0.0
H451 H 0.51198 0.00251 0.73791 0.0
H452 H 0.51582 0.00545 0.82849 0.0
H453 H 0.48462 0.9902 0.82719 0.0
H454 H 0.44247 0.99949 0.7911 0.0
H455 H 0.49345 0.01466 0.74472 0.0
C456 C 0.54549 0.00351 0.78017 0.0
C457 C 0.53803 0.00401 0.80639 0.0
C458 C 0.53639 0.00346 0.75569 0.0
C459 C 0.51905 0.00325 0.75724 0.0
C460 C 0.51086 0.00345 0.78353 0.0
C461 C 0.52091 0.00426 0.808 0.0
C462 C 0.49187 0.0025 0.78557 0.0
C463 C 0.48029 0.99539 0.80989 0.0
C464 C 0.46264 0.99453 0.81212 0.0
C465 C 0.45601 0.99995 0.7895 0.0
C466 C 0.46691 0.00679 0.76517 0.0
C467 C 0.48497 0.00853 0.76336 0.0
H468 H 0.99782 0.55448 0.77952 0.0
H469 H 1.00057 0.50968 0.73261 0.0
H470 H 0.9994 0.5099 0.82347 0.0
H471 H 0.01265 0.49341 0.82113 0.0
H472 H 0.00701 0.44294 0.77888 0.0
H473 H 0.99357 0.47968 0.7345 0.0
C474 C 0.99867 0.54137 0.77918 0.0
C475 C 0.9996 0.53355 0.80424 0.0
C476 C 0.99846 0.53242 0.75361 0.0
C477 C 0.99987 0.51564 0.75284 0.0
C478 C 1.00061 0.5071 0.77801 0.0
C479 C 0.99973 0.51607 0.80363 0.0
C480 C 1.0026 0.4893 0.77787 0.0
C481 C 0.00862 0.48432 0.80231 0.0
C482 C 0.0098 0.46746 0.80301 0.0
C483 C 0.0063 0.45611 0.77857 0.0
C484 C 1.00107 0.46091 0.75386 0.0
C485 C 0.9986 0.47702 0.75362 0.0
H486 H 0.56297 0.56597 0.78799 0.0
H487 H 0.5198 0.51998 0.73491 0.0
H488 H 0.51656 0.51505 0.82514 0.0
H489 H 0.48584 0.49891 0.81864 0.0
H490 H 0.44744 0.44486 0.77513 0.0
H491 H 0.49992 0.48714 0.73533 0.0
C492 C 0.54953 0.55187 0.78559 0.0
C493 C 0.53989 0.54169 0.80935 0.0
C494 C 0.54262 0.54399 0.75882 0.0
C495 C 0.52529 0.52557 0.75575 0.0
C496 C 0.51505 0.51492 0.77966 0.0
C497 C 0.52318 0.52301 0.80635 0.0
C498 C 0.49589 0.49574 0.77743 0.0
C499 C 0.48285 0.48955 0.80024 0.0
C500 C 0.4656 0.47113 0.7998 0.0
C501 C 0.46064 0.45926 0.77565 0.0
C502 C 0.47268 0.4652 0.75232 0.0
C503 C 0.49045 0.48324 0.7532 0.0
H504 H 0.66772 0.78581 0.57153 0.0
H505 H 0.68534 0.8403 0.61514 0.0
H506 H 0.65537 0.82622 0.53555 0.0
H507 H 0.67277 0.85808 0.53081 0.0
H508 H 0.67384 0.9054 0.5767 0.0
H509 H 0.67213 0.85904 0.62147 0.0
C510 C 0.66806 0.79957 0.57283 0.0
C511 C 0.66087 0.80484 0.55075 0.0
C512 C 0.67653 0.81211 0.59612 0.0
C513 C 0.67806 0.83047 0.59741 0.0
C514 C 0.67058 0.8361 0.57548 0.0
C515 C 0.66174 0.82282 0.55241 0.0
C516 C 0.6721 0.85569 0.57608 0.0
C517 C 0.67256 0.86468 0.55077 0.0
C518 C 0.67245 0.88218 0.55086 0.0
C519 C 0.67319 0.89148 0.57639 0.0
C520 C 0.6734 0.88337 0.60164 0.0
C521 C 0.67264 0.86541 0.60165 0.0
H522 H 0.10738 0.779 0.57071 0.0
H523 H 0.14694 0.83052 0.61878 0.0
H524 H 0.16116 0.82122 0.53425 0.0
H525 H 0.17744 0.85268 0.53308 0.0
H526 H 0.22362 0.89979 0.5802 0.0
H527 H 0.17871 0.85071 0.6235 0.0
C528 C 0.1213 0.79265 0.57239 0.0
C529 C 0.13361 0.79922 0.54937 0.0
C530 C 0.12635 0.80367 0.59743 0.0
C531 C 0.14382 0.8219 0.59954 0.0
C532 C 0.15675 0.82894 0.57667 0.0
C533 C 0.15148 0.817 0.55187 0.0
C534 C 0.17533 0.84873 0.57808 0.0
C535 C 0.18414 0.85874 0.55318 0.0
C536 C 0.20191 0.87668 0.55373 0.0
C537 C 0.21029 0.88549 0.57946 0.0
C538 C 0.20188 0.87632 0.60444 0.0
C539 C 0.18458 0.85784 0.60391 0.0
H540 H 0.11433 0.33183 0.56499 0.0
H541 H 0.16314 0.33918 0.60902 0.0
H542 H 0.15927 0.33111 0.51875 0.0
H543 H 0.19074 0.34976 0.52093 0.0
H544 H 0.23377 0.34248 0.55873 0.0
H545 H 0.18231 0.32691 0.60431 0.0
C546 C 0.1281 0.33272 0.56449 0.0
C547 C 0.13594 0.33156 0.53894 0.0
C548 C 0.13766 0.33501 0.58959 0.0
C549 C 0.15576 0.33681 0.58934 0.0
C550 C 0.16422 0.33589 0.56372 0.0
C551 C 0.15382 0.33287 0.53865 0.0
C552 C 0.18376 0.33815 0.56285 0.0
C553 C 0.19538 0.3452 0.53864 0.0
C554 C 0.21323 0.3465 0.53685 0.0
C555 C 0.22011 0.34181 0.56 0.0
C556 C 0.20918 0.33517 0.58437 0.0
C557 C 0.1909 0.33296 0.58571 0.0
C558 C 0.97689 0.40642 0.07105 0.0
C559 C 0.9903 0.40043 0.07104 0.0
C560 C 0.97612 0.4179 0.09326 0.0
C561 C 0.98911 0.42358 0.11595 0.0
C562 C 1.00258 0.41747 0.11615 0.0
C563 C 1.00299 0.40594 0.09374 0.0
C564 C 0.96147 0.42402 0.09241 0.0
C565 C 0.0167 0.42323 0.13999 0.0
C566 C 1.00233 0.46798 0.16322 0.0
C567 C 0.99226 0.45897 0.18764 0.0
C568 C 1.00075 0.45667 0.13919 0.0
C569 C 0.98873 0.43591 0.13961 0.0
C570 C 0.97758 0.42686 0.16362 0.0
C571 C 0.97951 0.4385 0.18737 0.0
C572 C 0.01285 0.46688 0.11398 0.0
C573 C 0.96443 0.4048 0.16481 0.0
H574 H 0.967 0.40221 0.05362 0.0
H575 H 0.0134 0.4014 0.09391 0.0
H576 H 0.9521 0.41878 0.11113 0.0
H577 H 0.96896 0.44031 0.09288 0.0
H578 H 0.95221 0.41816 0.07345 0.0
H579 H 0.02627 0.4173 0.13696 0.0
H580 H 0.02582 0.4395 0.14216 0.0
H581 H 0.00876 0.41776 0.1599 0.0
H582 H 0.01233 0.48377 0.16343 0.0
H583 H 0.97156 0.43153 0.20615 0.0
H584 H 0.00387 0.46159 0.09476 0.0
H585 H 0.02425 0.4633 0.11134 0.0
H586 H 0.01991 0.48312 0.11593 0.0
H587 H 0.95495 0.39893 0.14611 0.0
H588 H 0.95525 0.40025 0.1838 0.0
H589 H 0.97324 0.39792 0.16481 0.0
C590 C 0.60561 0.61914 0.11141 0.0
C591 C 0.61114 0.61278 0.08748 0.0
C592 C 0.59296 0.60567 0.13094 0.0
C593 C 0.58548 0.58532 0.12622 0.0
C594 C 0.59074 0.57877 0.10186 0.0
C595 C 0.60363 0.5926 0.08286 0.0
C596 C 0.58788 0.61324 0.1569 0.0
C597 C 0.5829 0.55718 0.09602 0.0
C598 C 0.57016 0.55507 0.19121 0.0
C599 C 0.55026 0.54766 0.19194 0.0
C600 C 0.58168 0.56684 0.16946 0.0
C601 C 0.57304 0.57111 0.14765 0.0
C602 C 0.55278 0.56276 0.14738 0.0
C603 C 0.54159 0.55114 0.16964 0.0
C604 C 0.60322 0.57546 0.17056 0.0
C605 C 0.54306 0.5668 0.12423 0.0
H606 H 0.61135 0.63471 0.11509 0.0
H607 H 0.60768 0.58756 0.06424 0.0
H608 H 0.57199 0.60617 0.1585 0.0
H609 H 0.59281 0.60933 0.17572 0.0
H610 H 0.59456 0.62945 0.15711 0.0
H611 H 0.58759 0.55442 0.07539 0.0
H612 H 0.58783 0.55134 0.11247 0.0
H613 H 0.56689 0.54879 0.09657 0.0
H614 H 0.57685 0.5521 0.20819 0.0
H615 H 0.52623 0.54551 0.17019 0.0
H616 H 0.61082 0.59172 0.17298 0.0
H617 H 0.60826 0.57208 0.15076 0.0
H618 H 0.6075 0.56981 0.18816 0.0
H619 H 0.54751 0.58252 0.12535 0.0
H620 H 0.52706 0.55763 0.12557 0.0
H621 H 0.54762 0.564 0.10356 0.0
C622 C 0.39158 0.98851 0.10264 0.0
C623 C 0.39585 0.00244 0.08228 0.0
C624 C 0.40546 0.99137 0.12238 0.0
C625 C 0.42417 0.00854 0.12168 0.0
C626 C 0.4286 0.0227 0.10123 0.0
C627 C 0.41436 0.01952 0.08182 0.0
C628 C 0.40009 0.97598 0.14401 0.0
C629 C 0.44839 0.04113 0.09979 0.0
C630 C 0.45083 0.02021 0.19056 0.0
C631 C 0.46113 0.01071 0.18667 0.0
C632 C 0.43964 0.02069 0.16899 0.0
C633 C 0.43884 0.01159 0.14278 0.0
C634 C 0.45048 0.00343 0.13801 0.0
C635 C 0.46149 0.00307 0.16006 0.0
C636 C 0.42754 0.02962 0.17497 0.0
C637 C 0.4502 0.99378 0.11027 0.0
H638 H 0.37733 0.9753 0.1032 0.0
H639 H 0.41783 0.03032 0.06608 0.0
H640 H 0.40978 0.97014 0.14229 0.0
H641 H 0.40201 0.98269 0.16529 0.0
H642 H 0.38492 0.96349 0.14175 0.0
H643 H 0.44955 0.05067 0.08256 0.0
H644 H 0.45179 0.0497 0.1198 0.0
H645 H 0.45948 0.03718 0.09667 0.0
H646 H 0.45074 0.02639 0.21101 0.0
H647 H 0.46934 0.99563 0.15696 0.0
H648 H 0.4121 0.01774 0.17603 0.0
H649 H 0.429 0.03939 0.15794 0.0
H650 H 0.4316 0.03821 0.19506 0.0
H651 H 0.43617 0.97969 0.10763 0.0
H652 H 0.46196 0.99066 0.10865 0.0
H653 H 0.4516 0.00324 0.09282 0.0
C654 C 0.39983 0.97475 0.95291 0.0
C655 C 0.3944 0.98877 0.953 0.0
C656 C 0.41106 0.97367 0.9312 0.0
C657 C 0.41705 0.98695 0.90907 0.0
C658 C 0.41149 1.00103 0.90893 0.0
C659 C 0.40022 1.00175 0.93085 0.0
C660 C 0.41661 0.9584 0.93199 0.0
C661 C 0.41755 0.01544 0.88567 0.0
C662 C 0.46044 0.9995 0.86353 0.0
C663 C 0.45146 0.98941 0.83851 0.0
C664 C 0.44944 0.99807 0.88724 0.0
C665 C 0.42902 0.98618 0.88585 0.0
C666 C 0.42 0.97488 0.86123 0.0
C667 C 0.43133 0.97666 0.83785 0.0
C668 C 0.45961 0.01029 0.91313 0.0
C669 C 0.3983 0.96185 0.85896 0.0
H670 H 0.39541 0.96465 0.96993 0.0
H671 H 0.39613 0.01263 0.93074 0.0
H672 H 0.41135 0.94882 0.91285 0.0
H673 H 0.43256 0.9657 0.93234 0.0
H674 H 0.41062 0.94901 0.95051 0.0
H675 H 0.41208 0.0255 0.88868 0.0
H676 H 0.43354 0.02441 0.88437 0.0
H677 H 0.41212 0.00737 0.86534 0.0
H678 H 0.47597 0.0095 0.86403 0.0
H679 H 0.42437 0.96871 0.81857 0.0
H680 H 0.45415 1.00119 0.93194 0.0
H681 H 0.45657 0.02224 0.91587 0.0
H682 H 0.47551 0.01703 0.91196 0.0
H683 H 0.39235 0.9523 0.87729 0.0
H684 H 0.3937 0.9524 0.83965 0.0
H685 H 0.39188 0.97112 0.85879 0.0
C686 C 0.99148 0.3914 0.91413 0.0
C687 C 1.00308 0.39732 0.93815 0.0
C688 C 0.9945 0.40492 0.89372 0.0
C689 C 0.00941 0.42491 0.89746 0.0
C690 C 0.0212 0.43101 0.92163 0.0
C691 C 0.01793 0.41713 0.94167 0.0
C692 C 0.9817 0.39779 0.8681 0.0
C693 C 0.03716 0.4522 0.92637 0.0
C694 C 0.02481 0.45246 0.82989 0.0
C695 C 0.01304 0.46044 0.82952 0.0
C696 C 0.02467 0.44181 0.85269 0.0
C697 C 0.01258 0.43922 0.87577 0.0
C698 C 1.00189 0.44861 0.8765 0.0
C699 C 1.00222 0.45909 0.85331 0.0
C700 C 0.03639 0.43216 0.85114 0.0
C701 C 0.98899 0.44638 0.90087 0.0
H702 H 0.98001 0.37614 0.91121 0.0
H703 H 0.02692 0.42185 0.96023 0.0
H704 H 0.974 0.40578 0.86668 0.0
H705 H 0.99061 0.40092 0.849 0.0
H706 H 0.97082 0.38175 0.86829 0.0
H707 H 0.04506 0.45457 0.94626 0.0
H708 H 0.04762 0.45696 0.90889 0.0
H709 H 0.03109 0.46179 0.92677 0.0
H710 H 0.03344 0.45374 0.81171 0.0
H711 H 0.99302 0.46513 0.85312 0.0
H712 H 0.02653 0.41601 0.84834 0.0
H713 H 0.04451 0.43487 0.87085 0.0
H714 H 0.04676 0.43753 0.83348 0.0
H715 H 0.97627 0.43113 0.90076 0.0
H716 H 0.98377 0.4567 0.90001 0.0
H717 H 0.99673 0.44895 0.92093 0.0
C718 C 0.60984 0.60417 0.9333 0.0
C719 C 0.60108 0.60569 0.95789 0.0
C720 C 0.59868 0.59265 0.91034 0.0
C721 C 0.57829 0.58242 0.91198 0.0
C722 C 0.56934 0.58378 0.93676 0.0
C723 C 0.58086 0.59542 0.95943 0.0
C724 C 0.60875 0.59161 0.88419 0.0
C725 C 0.54764 0.57311 0.93921 0.0
C726 C 0.55271 0.57062 0.84226 0.0
C727 C 0.54755 0.55107 0.83717 0.0
C728 C 0.5621 0.58075 0.86701 0.0
C729 C 0.56644 0.57109 0.88718 0.0
C730 C 0.56049 0.55106 0.88274 0.0
C731 C 0.55105 0.54124 0.85771 0.0
C732 C 0.56806 0.60204 0.87103 0.0
C733 C 0.56484 0.54029 0.90386 0.0
H734 H 0.62545 0.612 0.93196 0.0
H735 H 0.57397 0.59645 0.97839 0.0
H736 H 0.60371 0.57606 0.87859 0.0
H737 H 0.60505 0.59765 0.86646 0.0
H738 H 0.6247 0.59994 0.88661 0.0
H739 H 0.54293 0.57513 0.96027 0.0
H740 H 0.5418 0.57854 0.92348 0.0
H741 H 0.54117 0.55714 0.93476 0.0
H742 H 0.54975 0.57814 0.82649 0.0
H743 H 0.54713 0.52616 0.85372 0.0
H744 H 0.58405 0.61152 0.87131 0.0
H745 H 0.56279 0.60435 0.89141 0.0
H746 H 0.56244 0.60697 0.8542 0.0
H747 H 0.58068 0.54679 0.90509 0.0
H748 H 0.55783 0.52437 0.89839 0.0
H749 H 0.55994 0.54195 0.92492 0.0
C750 C 0.99301 0.59785 0.92904 0.0
C751 C 0.00581 0.60159 0.95102 0.0
C752 C 0.99143 0.58579 0.90598 0.0
C753 C 1.00295 0.57732 0.90485 0.0
C754 C 0.01572 0.58085 0.92711 0.0
C755 C 0.01699 0.59293 0.94992 0.0
C756 C 0.97764 0.58235 0.8826 0.0
C757 C 0.02832 0.57217 0.92658 0.0
C758 C 0.98892 0.53455 0.85344 0.0
C759 C 1.00099 0.54426 0.83084 0.0
C760 C 0.98947 0.54508 0.87787 0.0
C761 C 1.00248 0.56573 0.87964 0.0
C762 C 0.015 0.57549 0.8571 0.0
C763 C 0.01411 0.56464 0.83301 0.0
C764 C 0.97591 0.5342 0.90153 0.0
C765 C 0.02919 0.59745 0.85824 0.0
H766 H 0.98426 0.60441 0.92977 0.0
H767 H 0.02689 0.59568 0.96684 0.0
H768 H 0.98583 0.5885 0.86303 0.0
H769 H 0.96758 0.56634 0.87868 0.0
H770 H 0.96906 0.58924 0.88725 0.0
H771 H 0.03686 0.57562 0.9461 0.0
H772 H 0.01931 0.55595 0.92353 0.0
H773 H 0.03844 0.57794 0.90871 0.0
H774 H 0.97869 0.51882 0.85172 0.0
H775 H 0.02366 0.57214 0.81569 0.0
H776 H 0.96602 0.53968 0.90517 0.0
H777 H 0.9842 0.53703 0.92111 0.0
H778 H 0.96711 0.51807 0.89723 0.0
H779 H 0.02132 0.60527 0.86079 0.0
H780 H 0.03819 0.6027 0.83912 0.0
H781 H 0.03888 0.60158 0.87659 0.0
C782 C 0.40552 0.39324 0.9101 0.0
C783 C 0.39666 0.39772 0.9319 0.0
C784 C 0.41646 0.40705 0.8898 0.0
C785 C 0.41873 0.42588 0.89142 0.0
C786 C 0.40981 0.43052 0.91332 0.0
C787 C 0.39882 0.41636 0.93327 0.0
C788 C 0.42562 0.40148 0.86661 0.0
C789 C 0.41197 0.45045 0.91576 0.0
C790 C 0.46196 0.46405 0.85079 0.0
C791 C 0.45343 0.46313 0.82511 0.0
C792 C 0.45067 0.45292 0.87329 0.0
C793 C 0.43041 0.44054 0.86994 0.0
C794 C 0.42161 0.4407 0.84477 0.0
C795 C 0.43322 0.45207 0.82271 0.0
C796 C 0.46059 0.45332 0.89993 0.0
C797 C 0.40006 0.42778 0.84035 0.0
H798 H 0.4039 0.37889 0.90883 0.0
H799 H 0.39208 0.41998 0.9501 0.0
H800 H 0.42042 0.40287 0.84604 0.0
H801 H 0.44153 0.41167 0.86708 0.0
H802 H 0.42235 0.38619 0.86823 0.0
H803 H 0.40408 0.45173 0.93401 0.0
H804 H 0.42746 0.46211 0.91779 0.0
H805 H 0.40648 0.45329 0.89653 0.0
H806 H 0.47756 0.47245 0.85274 0.0
H807 H 0.42653 0.45156 0.80303 0.0
H808 H 0.46004 0.43923 0.90162 0.0
H809 H 0.45305 0.45485 0.9184 0.0
H810 H 0.47595 0.46555 0.90061 0.0
H811 H 0.39591 0.41216 0.83865 0.0
H812 H 0.39527 0.43137 0.82105 0.0
H813 H 0.39219 0.42925 0.85842 0.0
C814 C 0.59433 0.97599 0.90797 0.0
C815 C 0.60133 0.98736 0.93274 0.0
C816 C 0.58329 0.97917 0.88903 0.0
C817 C 0.57889 0.99385 0.89525 0.0
C818 C 0.58556 0.00506 0.92052 0.0
C819 C 0.59683 1.0018 0.93883 0.0
C820 C 0.57667 0.96711 0.86207 0.0
C821 C 0.58094 0.02062 0.9281 0.0
C822 C 0.56842 0.01493 0.83302 0.0
C823 C 0.54817 0.00361 0.83171 0.0
C824 C 0.57855 0.01224 0.85401 0.0
C825 C 0.5682 0.99813 0.87457 0.0
C826 C 0.54774 0.98756 0.87447 0.0
C827 C 0.53794 0.99037 0.85294 0.0
C828 C 0.60036 0.02385 0.85334 0.0
C829 C 0.53621 0.97266 0.89637 0.0
H830 H 0.59776 0.96482 0.90315 0.0
H831 H 0.602 0.01051 0.9581 0.0
H832 H 0.56073 0.95939 0.86018 0.0
H833 H 0.58293 0.97693 0.84406 0.0
H834 H 0.58095 0.95601 0.86062 0.0
H835 H 0.58621 0.02722 0.94931 0.0
H836 H 0.58764 0.03252 0.91277 0.0
H837 H 0.56511 0.01422 0.92721 0.0
H838 H 0.57639 0.02546 0.81695 0.0
H839 H 0.52231 0.98152 0.85198 0.0
H840 H 0.60563 0.01367 0.84977 0.0
H841 H 0.60628 0.03162 0.87372 0.0
H842 H 0.60622 0.03485 0.83665 0.0
H843 H 0.5381 0.95994 0.89368 0.0
H844 H 0.52055 0.96719 0.89508 0.0
H845 H 0.54152 0.97916 0.91759 0.0
C846 C 0.60184 0.99804 0.0847 0.0
C847 C 0.60509 0.00929 0.06108 0.0
C848 C 0.59028 0.998 0.1067 0.0
C849 C 0.58172 0.00943 0.105 0.0
C850 C 0.58481 0.02071 0.08115 0.0
C851 C 0.59651 0.02054 0.05948 0.0
C852 C 0.58738 0.98587 0.13192 0.0
C853 C 0.57589 0.03305 0.07864 0.0
C854 C 0.53998 0.99548 0.15468 0.0
C855 C 0.54946 0.00868 0.17716 0.0
C856 C 0.55014 0.99605 0.13043 0.0
C857 C 0.57019 0.01013 0.12879 0.0
C858 C 0.57957 0.02411 0.15088 0.0
C859 C 0.56908 0.02322 0.17477 0.0
C860 C 0.53965 0.98098 0.10718 0.0
C861 C 0.6009 0.03942 0.14987 0.0
H862 H 0.60839 0.98929 0.08608 0.0
H863 H 0.59887 0.0292 0.04123 0.0
H864 H 0.59311 0.9956 0.15087 0.0
H865 H 0.57175 0.97537 0.13534 0.0
H866 H 0.59468 0.97744 0.1297 0.0
H867 H 0.5792 0.04047 0.05831 0.0
H868 H 0.55998 0.02373 0.08093 0.0
H869 H 0.58129 0.04444 0.0957 0.0
H870 H 0.52484 0.98416 0.15657 0.0
H871 H 0.57636 0.0336 0.19204 0.0
H872 H 0.54491 0.97069 0.10586 0.0
H873 H 0.54268 0.98826 0.08681 0.0
H874 H 0.52378 0.97232 0.11047 0.0
H875 H 0.60929 0.03209 0.15004 0.0
H876 H 0.60567 0.0501 0.16784 0.0
H877 H 0.60448 0.04763 0.13024 0.0
C878 C 0.99708 0.60583 0.09683 0.0
C879 C 0.01227 0.61442 0.07765 0.0
C880 C 0.99722 0.59443 0.11843 0.0
C881 C 0.01265 0.59112 0.12031 0.0
C882 C 0.02768 0.59924 0.10038 0.0
C883 C 0.02745 0.61103 0.07953 0.0
C884 C 0.98117 0.58641 0.1397 0.0
C885 C 0.04408 0.5956 0.10122 0.0
C886 C 0.02366 0.58022 0.19169 0.0
C887 C 0.01331 0.55956 0.19112 0.0
C888 C 0.02365 0.59063 0.16874 0.0
C889 C 0.01364 0.58019 0.14412 0.0
C890 C 0.00419 0.55941 0.14267 0.0
C891 C 0.00395 0.54931 0.16631 0.0
C892 C 0.03377 0.61278 0.17126 0.0
C893 C 0.99383 0.54782 0.11646 0.0
H894 H 0.98534 0.60846 0.0954 0.0
H895 H 0.03908 0.61742 0.06444 0.0
H896 H 0.97401 0.57019 0.14044 0.0
H897 H 0.98725 0.59252 0.16079 0.0
H898 H 0.9701 0.59006 0.13505 0.0
H899 H 0.0538 0.60167 0.08291 0.0
H900 H 0.05275 0.60247 0.12049 0.0
H901 H 0.03832 0.57958 0.10182 0.0
H902 H 0.03141 0.58832 0.21046 0.0
H903 H 0.99585 0.53337 0.16564 0.0
H904 H 0.02319 0.61733 0.16825 0.0
H905 H 0.04485 0.61965 0.15473 0.0
H906 H 0.04088 0.61865 0.19191 0.0
H907 H 0.98105 0.54898 0.11283 0.0
H908 H 0.98892 0.53201 0.11775 0.0
H909 H 0.00342 0.55397 0.09807 0.0
C910 C 0.40097 0.40249 0.08594 0.0
C911 C 0.40821 0.39664 0.06345 0.0
C912 C 0.41263 0.41299 0.10908 0.0
C913 C 0.432 0.4177 0.10984 0.0
C914 C 0.43937 0.41169 0.08735 0.0
C915 C 0.42739 0.40126 0.06437 0.0
C916 C 0.40425 0.41917 0.13267 0.0
C917 C 0.4599 0.41636 0.08752 0.0
C918 C 0.46425 0.46027 0.15947 0.0
C919 C 0.46309 0.45036 0.18373 0.0
C920 C 0.45499 0.44981 0.13473 0.0
C921 C 0.44442 0.42898 0.13427 0.0
C922 C 0.4443 0.41895 0.15817 0.0
C923 C 0.45362 0.42977 0.18264 0.0
C924 C 0.45548 0.46104 0.10967 0.0
C925 C 0.4334 0.39677 0.15842 0.0
H926 H 0.38618 0.399 0.08541 0.0
H927 H 0.43309 0.39677 0.0471 0.0
H928 H 0.40511 0.41288 0.1525 0.0
H929 H 0.41277 0.43542 0.13555 0.0
H930 H 0.38893 0.41436 0.12885 0.0
H931 H 0.46334 0.41038 0.06859 0.0
H932 H 0.47008 0.43252 0.08878 0.0
H933 H 0.46243 0.41018 0.10624 0.0
H934 H 0.47142 0.47617 0.16029 0.0
H935 H 0.45289 0.42209 0.2013 0.0
H936 H 0.44092 0.45863 0.10625 0.0
H937 H 0.4593 0.45562 0.09056 0.0
H938 H 0.46597 0.47711 0.11238 0.0
H939 H 0.41765 0.39084 0.15759 0.0
H940 H 0.43652 0.39132 0.17746 0.0
H941 H 0.43707 0.3908 0.13977 0.0
C942 C 0.66495 0.73809 0.43411 0.0
C943 C 0.65106 0.73032 0.41273 0.0
C944 C 0.66441 0.75007 0.45568 0.0
C945 C 0.64961 0.75438 0.45594 0.0
C946 C 0.63541 0.74641 0.43464 0.0
C947 C 0.63631 0.73447 0.41327 0.0
C948 C 0.6798 0.75826 0.47811 0.0
C949 C 0.61939 0.75063 0.43432 0.0
C950 C 0.64251 0.77165 0.52704 0.0
C951 C 0.65431 0.79214 0.52506 0.0
C952 C 0.63983 0.75912 0.50409 0.0
C953 C 0.64921 0.76731 0.4786 0.0
C954 C 0.65992 0.788 0.47587 0.0
C955 C 0.66232 0.80019 0.49918 0.0
C956 C 0.62813 0.73715 0.50778 0.0
C957 C 0.67005 0.79729 0.44898 0.0
H958 H 0.67639 0.73496 0.43387 0.0
H959 H 0.62551 0.72853 0.39684 0.0
H960 H 0.68786 0.77458 0.47839 0.0
H961 H 0.67303 0.75352 0.49893 0.0
H962 H 0.69026 0.75344 0.47495 0.0
H963 H 0.60925 0.74299 0.41656 0.0
H964 H 0.61111 0.74595 0.4541 0.0
H965 H 0.62559 0.76668 0.43289 0.0
H966 H 0.63614 0.76541 0.547 0.0
H967 H 0.67158 0.81602 0.49763 0.0
H968 H 0.63795 0.73145 0.5081 0.0
H969 H 0.61798 0.72966 0.49004 0.0
H970 H 0.61975 0.73314 0.52754 0.0
H971 H 0.68234 0.79511 0.44575 0.0
H972 H 0.67572 0.81333 0.44915 0.0
H973 H 0.66013 0.79017 0.43091 0.0
C974 C 0.26293 0.95182 0.43597 0.0
C975 C 0.26904 0.94402 0.41452 0.0
C976 C 0.25084 0.93991 0.45728 0.0
C977 C 0.2444 0.91964 0.45671 0.0
C978 C 0.25 0.91155 0.43458 0.0
C979 C 0.26246 0.9239 0.41389 0.0
C980 C 0.2455 0.94914 0.48088 0.0
C981 C 0.24311 0.88994 0.43302 0.0
C982 C 0.23241 0.89503 0.52643 0.0
C983 C 0.21229 0.8863 0.52769 0.0
C984 C 0.24295 0.90573 0.50333 0.0
C985 C 0.23311 0.90731 0.48048 0.0
C986 C 0.21272 0.89778 0.48093 0.0
C987 C 0.20253 0.88748 0.50468 0.0
C988 C 0.2647 0.91581 0.50378 0.0
C989 C 0.20174 0.89885 0.45663 0.0
H990 H 0.26801 0.96738 0.4365 0.0
H991 H 0.26695 0.91777 0.39709 0.0
H992 H 0.22959 0.94129 0.48311 0.0
H993 H 0.25141 0.94779 0.50085 0.0
H994 H 0.25112 0.96496 0.47767 0.0
H995 H 0.24739 0.88566 0.41319 0.0
H996 H 0.24923 0.8863 0.45069 0.0
H997 H 0.22715 0.88092 0.4349 0.0
H998 H 0.24002 0.89373 0.54381 0.0
H999 H 0.18701 0.88084 0.50552 0.0
H1000 H 0.27137 0.93193 0.50213 0.0
H1001 H 0.26967 0.91072 0.48557 0.0
H1002 H 0.27011 0.91299 0.52314 0.0
H1003 H 0.20541 0.91422 0.4545 0.0
H1004 H 0.18586 0.88924 0.45922 0.0
H1005 H 0.20597 0.89448 0.43688 0.0
C1006 C 0.07395 0.34528 0.42784 0.0
C1007 C 0.06852 0.3329 0.40395 0.0
C1008 C 0.08576 0.34473 0.44842 0.0
C1009 C 0.0924 0.33158 0.44491 0.0
C1010 C 0.08724 0.3193 0.42063 0.0
C1011 C 0.07531 0.32006 0.4005 0.0
C1012 C 0.09087 0.35798 0.47415 0.0
C1013 C 0.09411 0.30518 0.41608 0.0
C1014 C 0.13483 0.34203 0.49054 0.0
C1015 C 0.12534 0.32956 0.51283 0.0
C1016 C 0.12436 0.3424 0.46774 0.0
C1017 C 0.10396 0.33005 0.46734 0.0
C1018 C 0.09444 0.31677 0.48914 0.0
C1019 C 0.10525 0.31662 0.51151 0.0
C1020 C 0.13503 0.35661 0.44471 0.0
C1021 C 0.07273 0.30329 0.48947 0.0
H1022 H 0.0688 0.35526 0.43064 0.0
H1023 H 0.07131 0.31053 0.38201 0.0
H1024 H 0.08509 0.34894 0.493 0.0
H1025 H 0.10679 0.36723 0.47661 0.0
H1026 H 0.08502 0.36775 0.47334 0.0
H1027 H 0.08957 0.2973 0.39546 0.0
H1028 H 0.11009 0.3132 0.41752 0.0
H1029 H 0.08829 0.29413 0.43268 0.0
H1030 H 0.15034 0.35214 0.49156 0.0
H1031 H 0.09789 0.30674 0.52851 0.0
H1032 H 0.1313 0.36811 0.44507 0.0
H1033 H 0.13059 0.34887 0.42402 0.0
H1034 H 0.15094 0.36391 0.44683 0.0
H1035 H 0.06591 0.31219 0.49102 0.0
H1036 H 0.06766 0.29316 0.50725 0.0
H1037 H 0.06763 0.2944 0.46972 0.0
C1038 C 0.07202 0.34478 0.26873 0.0
C1039 C 0.08037 0.35613 0.2932 0.0
C1040 C 0.08358 0.34462 0.24681 0.0
C1041 C 0.10395 0.35595 0.24954 0.0
C1042 C 0.11246 0.36717 0.27437 0.0
C1043 C 0.10057 0.3672 0.29584 0.0
C1044 C 0.07398 0.33258 0.22052 0.0
C1045 C 0.13411 0.3793 0.27812 0.0
C1046 C 0.13134 0.34192 0.19877 0.0
C1047 C 0.13576 0.35527 0.17747 0.0
C1048 C 0.12169 0.34247 0.22301 0.0
C1049 C 0.1163 0.35665 0.22586 0.0
C1050 C 0.12173 0.37085 0.20514 0.0
C1051 C 0.13148 0.37005 0.18129 0.0
C1052 C 0.11635 0.32724 0.24484 0.0
C1053 C 0.11634 0.38626 0.20743 0.0
H1054 H 0.05644 0.3362 0.26655 0.0
H1055 H 0.10715 0.3759 0.31478 0.0
H1056 H 0.07843 0.34237 0.20243 0.0
H1057 H 0.07869 0.32201 0.21624 0.0
H1058 H 0.05797 0.32425 0.22194 0.0
H1059 H 0.13842 0.38652 0.29919 0.0
H1060 H 0.14027 0.36988 0.27487 0.0
H1061 H 0.14063 0.39084 0.26224 0.0
H1062 H 0.13449 0.33039 0.19584 0.0
H1063 H 0.13513 0.38058 0.16503 0.0
H1064 H 0.10047 0.31692 0.24486 0.0
H1065 H 0.12055 0.33435 0.26595 0.0
H1066 H 0.12335 0.31863 0.24099 0.0
H1067 H 0.1004 0.37903 0.20645 0.0
H1068 H 0.12276 0.39702 0.19046 0.0
H1069 H 0.12115 0.39437 0.22782 0.0
C1070 C 0.68237 0.73664 0.25261 0.0
C1071 C 0.673 0.73273 0.2785 0.0
C1072 C 0.6794 0.7472 0.23251 0.0
C1073 C 0.66688 0.75415 0.23852 0.0
C1074 C 0.65759 0.75049 0.26475 0.0
C1075 C 0.66069 0.73975 0.28438 0.0
C1076 C 0.68947 0.7507 0.20466 0.0
C1077 C 0.64426 0.75778 0.27201 0.0
C1078 C 0.67292 0.79467 0.19204 0.0
C1079 C 0.65863 0.78383 0.17174 0.0
C1080 C 0.67527 0.78533 0.21464 0.0
C1081 C 0.66308 0.76468 0.2169 0.0
C1082 C 0.64795 0.75387 0.19735 0.0
C1083 C 0.64586 0.76358 0.1751 0.0
C1084 C 0.69145 0.79741 0.23525 0.0
C1085 C 0.63457 0.73185 0.19907 0.0
H1086 H 0.69189 0.73127 0.24789 0.0
H1087 H 0.65347 0.73691 0.30441 0.0
H1088 H 0.67861 0.74381 0.18761 0.0
H1089 H 0.69833 0.7667 0.20088 0.0
H1090 H 0.69899 0.7446 0.20342 0.0
H1091 H 0.63869 0.75432 0.2937 0.0
H1092 H 0.65193 0.77394 0.26964 0.0
H1093 H 0.6318 0.75101 0.25739 0.0
H1094 H 0.68292 0.81029 0.18945 0.0
H1095 H 0.63462 0.75519 0.15967 0.0
H1096 H 0.70266 0.79358 0.2327 0.0
H1097 H 0.68601 0.79404 0.25697 0.0
H1098 H 0.69831 0.81346 0.23232 0.0
H1099 H 0.64289 0.72457 0.19547 0.0
H1100 H 0.62271 0.72584 0.18343 0.0
H1101 H 0.62815 0.72794 0.22022 0.0
C1102 C 0.26488 0.92154 0.27617 0.0
C1103 C 0.26683 0.93993 0.28033 0.0
C1104 C 0.2539 0.90894 0.25387 0.0
C1105 C 0.24527 0.91522 0.23478 0.0
C1106 C 0.24713 0.93377 0.239 0.0
C1107 C 0.25764 0.94579 0.26207 0.0
C1108 C 0.25171 0.88901 0.25058 0.0
C1109 C 0.2386 0.94122 0.21863 0.0
C1110 C 0.23695 0.89411 0.16085 0.0
C1111 C 0.21674 0.88183 0.15972 0.0
C1112 C 0.24636 0.90503 0.18513 0.0
C1113 C 0.23542 0.90301 0.20937 0.0
C1114 C 0.21516 0.88978 0.209 0.0
C1115 C 0.20601 0.87954 0.18405 0.0
C1116 C 0.26797 0.91919 0.18454 0.0
C1117 C 0.20311 0.88678 0.23476 0.0
H1118 H 0.27178 0.9169 0.29058 0.0
H1119 H 0.25922 0.96005 0.26532 0.0
H1120 H 0.23623 0.87734 0.24824 0.0
H1121 H 0.25919 0.88844 0.23137 0.0
H1122 H 0.25778 0.88563 0.26865 0.0
H1123 H 0.24109 0.95584 0.22518 0.0
H1124 H 0.2451 0.94242 0.19769 0.0
H1125 H 0.22284 0.93066 0.21647 0.0
H1126 H 0.24547 0.89552 0.14249 0.0
H1127 H 0.19041 0.87019 0.18344 0.0
H1128 H 0.27507 0.91528 0.20044 0.0
H1129 H 0.27143 0.93432 0.18985 0.0
H1130 H 0.2743 0.91927 0.1638 0.0
H1131 H 0.20931 0.88359 0.25283 0.0
H1132 H 0.18788 0.87455 0.23179 0.0
H1133 H 0.20323 0.90044 0.24013 0.0
C1134 C 0.67279 0.94047 0.26074 0.0
C1135 C 0.68551 0.94661 0.28352 0.0
C1136 C 0.67343 0.92867 0.23895 0.0
C1137 C 0.68712 0.92287 0.23991 0.0
C1138 C 0.70019 0.92924 0.26261 0.0
C1139 C 0.69923 0.94104 0.28416 0.0
C1140 C 0.65926 0.9222 0.21503 0.0
C1141 C 0.71503 0.92342 0.26428 0.0
C1142 C 0.67345 0.87728 0.19532 0.0
C1143 C 0.68316 0.88559 0.17039 0.0
C1144 C 0.67544 0.88922 0.21876 0.0
C1145 C 0.68747 0.90993 0.21717 0.0
C1146 C 0.69838 0.91828 0.19272 0.0
C1147 C 0.69608 0.906 0.1696 0.0
C1148 C 0.66362 0.87975 0.24449 0.0
C1149 C 0.71153 0.94026 0.19031 0.0
H1150 H 0.66217 0.94472 0.26004 0.0
H1151 H 0.70912 0.94572 0.30167 0.0
H1152 H 0.66715 0.92711 0.19497 0.0
H1153 H 0.65016 0.90591 0.21378 0.0
H1154 H 0.64967 0.92816 0.21727 0.0
H1155 H 0.7245 0.93005 0.28295 0.0
H1156 H 0.70769 0.90718 0.26505 0.0
H1157 H 0.72418 0.92803 0.24531 0.0
H1158 H 0.66332 0.86154 0.19596 0.0
H1159 H 0.70377 0.91244 0.15042 0.0
H1160 H 0.65211 0.88319 0.2466 0.0
H1161 H 0.67276 0.88571 0.26352 0.0
H1162 H 0.65673 0.8635 0.2436 0.0
H1163 H 0.70271 0.94709 0.1893 0.0
H1164 H 0.72072 0.94423 0.17135 0.0
H1165 H 0.72101 0.9467 0.20896 0.0
C1166 C 0.07415 0.72699 0.24705 0.0
C1167 C 0.06546 0.73265 0.26765 0.0
C1168 C 0.08529 0.73975 0.22579 0.0
C1169 C 0.08798 0.75873 0.22517 0.0
C1170 C 0.07939 0.76463 0.24601 0.0
C1171 C 0.06816 0.75149 0.26695 0.0
C1172 C 0.09407 0.73282 0.20381 0.0
C1173 C 0.08204 0.78479 0.24615 0.0
C1174 C 0.13063 0.79448 0.18107 0.0
C1175 C 0.12162 0.79251 0.15539 0.0
C1176 C 0.11974 0.78443 0.20454 0.0
C1177 C 0.09941 0.77208 0.20219 0.0
C1178 C 0.09017 0.77104 0.17682 0.0
C1179 C 0.10138 0.78134 0.15379 0.0
C1180 C 0.13011 0.7861 0.23132 0.0
C1181 C 0.06853 0.75811 0.17343 0.0
H1182 H 0.07213 0.71248 0.24738 0.0
H1183 H 0.06158 0.75603 0.28287 0.0
H1184 H 0.08861 0.73309 0.18283 0.0
H1185 H 0.10999 0.74291 0.20358 0.0
H1186 H 0.09072 0.71768 0.20736 0.0
H1187 H 0.0748 0.78731 0.2642 0.0
H1188 H 0.09765 0.79628 0.24685 0.0
H1189 H 0.07612 0.78667 0.2266 0.0
H1190 H 0.14625 0.80301 0.18243 0.0
H1191 H 0.09432 0.78005 0.13413 0.0
H1192 H 0.12937 0.77205 0.23472 0.0
H1193 H 0.12304 0.78876 0.24942 0.0
H1194 H 0.14555 0.79814 0.23089 0.0
H1195 H 0.06414 0.74243 0.17422 0.0
H1196 H 0.06345 0.76038 0.15331 0.0
H1197 H 0.0611 0.76098 0.19079 0.0
C1198 C 0.27405 0.33794 0.2378 0.0
C1199 C 0.27015 0.32736 0.26229 0.0
C1200 C 0.25908 0.33473 0.21998 0.0
C1201 C 0.23969 0.32064 0.22686 0.0
C1202 C 0.23564 0.30969 0.25134 0.0
C1203 C 0.25093 0.31315 0.26875 0.0
C1204 C 0.26402 0.3466 0.1939 0.0
C1205 C 0.21517 0.29456 0.25931 0.0
C1206 C 0.20496 0.33073 0.19056 0.0
C1207 C 0.20099 0.31921 0.166 0.0
C1208 C 0.21631 0.33015 0.21184 0.0
C1209 C 0.22383 0.31777 0.20836 0.0
C1210 C 0.21821 0.30467 0.1849 0.0
C1211 C 0.2068 0.30552 0.16401 0.0
C1212 C 0.22176 0.34417 0.23671 0.0
C1213 C 0.22572 0.29108 0.18051 0.0
H1214 H 0.28883 0.34889 0.23259 0.0
H1215 H 0.24778 0.30493 0.28768 0.0
H1216 H 0.25833 0.33662 0.17518 0.0
H1217 H 0.2571 0.35541 0.1946 0.0
H1218 H 0.27984 0.35675 0.19133 0.0
H1219 H 0.21449 0.28677 0.27848 0.0
H1220 H 0.20681 0.3018 0.26292 0.0
H1221 H 0.20796 0.28354 0.242 0.0
H1222 H 0.2006 0.34142 0.19216 0.0
H1223 H 0.20356 0.29643 0.14515 0.0
H1224 H 0.23695 0.35648 0.23451 0.0
H1225 H 0.22079 0.3367 0.25632 0.0
H1226 H 0.21241 0.35043 0.23857 0.0
H1227 H 0.24111 0.29979 0.17421 0.0
H1228 H 0.21755 0.27966 0.16396 0.0
H1229 H 0.22497 0.28371 0.20014 0.0
C1230 C 0.27212 0.36189 0.39321 0.0
C1231 C 0.27706 0.34749 0.39302 0.0
C1232 C 0.262 0.36394 0.41569 0.0
C1233 C 0.25661 0.35125 0.43846 0.0
C1234 C 0.26177 0.33688 0.43857 0.0
C1235 C 0.27197 0.3352 0.41589 0.0
C1236 C 0.25687 0.37954 0.41495 0.0
C1237 C 0.25628 0.32305 0.4625 0.0
C1238 C 0.24418 0.36322 0.50996 0.0
C1239 C 0.22402 0.35076 0.51016 0.0
C1240 C 0.25495 0.36436 0.48619 0.0
C1241 C 0.24531 0.35268 0.46211 0.0
C1242 C 0.22488 0.34103 0.46161 0.0
C1243 C 0.21446 0.34025 0.48565 0.0
C1244 C 0.2767 0.37716 0.48744 0.0
C1245 C 0.21406 0.32839 0.43632 0.0
H1246 H 0.27604 0.37149 0.37566 0.0
H1247 H 0.27572 0.32405 0.41593 0.0
H1248 H 0.24095 0.37252 0.41516 0.0
H1249 H 0.26259 0.38933 0.43384 0.0
H1250 H 0.26267 0.38866 0.39615 0.0
H1251 H 0.26156 0.31282 0.45952 0.0
H1252 H 0.2623 0.33158 0.48237 0.0
H1253 H 0.24034 0.31424 0.46471 0.0
H1254 H 0.25159 0.37152 0.52882 0.0
H1255 H 0.19889 0.33045 0.4858 0.0
H1256 H 0.28235 0.38631 0.46868 0.0
H1257 H 0.28294 0.36772 0.48762 0.0
H1258 H 0.28182 0.38699 0.50638 0.0
H1259 H 0.2191 0.33716 0.41716 0.0
H1260 H 0.19821 0.32176 0.43823 0.0
H1261 H 0.21697 0.31635 0.43359 0.0
C1262 C 0.6636 0.93117 0.41152 0.0
C1263 C 0.67706 0.95146 0.41433 0.0
C1264 C 0.66227 0.91815 0.43171 0.0
C1265 C 0.67449 0.92564 0.45545 0.0
C1266 C 0.68813 0.94609 0.45835 0.0
C1267 C 0.68933 0.95873 0.43768 0.0
C1268 C 0.64769 0.89642 0.42777 0.0
C1269 C 0.70124 0.95469 0.48357 0.0
C1270 C 0.65917 0.89846 0.52333 0.0
C1271 C 0.6714 0.89105 0.52465 0.0
C1272 C 0.6596 0.90918 0.50049 0.0
C1273 C 0.67238 0.91236 0.47815 0.0
C1274 C 0.68398 0.90398 0.47856 0.0
C1275 C 0.6834 0.89344 0.5019 0.0
C1276 C 0.64698 0.91785 0.50092 0.0
C1277 C 0.6976 0.90686 0.45492 0.0
H1278 H 0.65419 0.92542 0.39339 0.0
H1279 H 0.69975 0.97437 0.44001 0.0
H1280 H 0.65495 0.88799 0.42896 0.0
H1281 H 0.63687 0.89138 0.4448 0.0
H1282 H 0.63998 0.89284 0.40744 0.0
H1283 H 0.71136 0.97084 0.48236 0.0
H1284 H 0.69245 0.95167 0.50279 0.0
H1285 H 0.70978 0.94764 0.48568 0.0
H1286 H 0.64956 0.89629 0.54062 0.0
H1287 H 0.6929 0.88779 0.50283 0.0
H1288 H 0.63826 0.91358 0.4815 0.0
H1289 H 0.65619 0.93415 0.50181 0.0
H1290 H 0.63706 0.91306 0.51911 0.0
H1291 H 0.68993 0.90314 0.43458 0.0
H1292 H 0.70409 0.89773 0.45701 0.0
H1293 H 0.70942 0.92255 0.45452 0.0
C1294 C 0.06541 0.73924 0.42309 0.0
C1295 C 0.07305 0.73319 0.40138 0.0
C1296 C 0.07666 0.75 0.44647 0.0
C1297 C 0.09604 0.75482 0.44826 0.0
C1298 C 0.10381 0.74864 0.42654 0.0
C1299 C 0.09223 0.73791 0.40336 0.0
C1300 C 0.06783 0.7563 0.46922 0.0
C1301 C 0.12437 0.75343 0.42775 0.0
C1302 C 0.12803 0.79776 0.49782 0.0
C1303 C 0.12684 0.78803 0.5223 0.0
C1304 C 0.11873 0.78713 0.47316 0.0
C1305 C 0.10805 0.76629 0.47299 0.0
C1306 C 0.10775 0.75643 0.49719 0.0
C1307 C 0.11714 0.76742 0.52154 0.0
C1308 C 0.11946 0.7982 0.44776 0.0
C1309 C 0.09669 0.73425 0.49781 0.0
H1310 H 0.05062 0.73568 0.42176 0.0
H1311 H 0.09827 0.7333 0.38672 0.0
H1312 H 0.06838 0.7502 0.48942 0.0
H1313 H 0.07626 0.77257 0.47184 0.0
H1314 H 0.05257 0.75139 0.46467 0.0
H1315 H 0.12819 0.74741 0.40927 0.0
H1316 H 0.13447 0.76961 0.42897 0.0
H1317 H 0.12659 0.74738 0.44687 0.0
H1318 H 0.13535 0.81367 0.49835 0.0
H1319 H 0.11638 0.75984 0.54033 0.0
H1320 H 0.10491 0.7956 0.44369 0.0
H1321 H 0.12365 0.79277 0.42903 0.0
H1322 H 0.12981 0.8143 0.45043 0.0
H1323 H 0.08099 0.72839 0.49606 0.0
H1324 H 0.09931 0.72889 0.51737 0.0
H1325 H 0.10075 0.72812 0.47976 0.0
C1326 C 0.31514 0.06008 0.75123 0.0
C1327 C 0.32884 0.06571 0.72989 0.0
C1328 C 0.31741 0.07343 0.77286 0.0
C1329 C 0.33351 0.09299 0.77269 0.0
C1330 C 0.34693 0.09897 0.75049 0.0
C1331 C 0.34458 0.08518 0.72956 0.0
C1332 C 0.30301 0.06636 0.79648 0.0
C1333 C 0.36398 0.11982 0.74917 0.0
C1334 C 0.33023 0.12902 0.82291 0.0
C1335 C 0.34071 0.129 0.84591 0.0
C1336 C 0.32849 0.11808 0.79831 0.0
C1337 C 0.33711 0.10662 0.79695 0.0
C1338 C 0.34843 0.10731 0.8196 0.0
C1339 C 0.35036 0.11875 0.84352 0.0
C1340 C 0.31677 0.11817 0.77424 0.0
C1341 C 0.35775 0.0952 0.81917 0.0
H1342 H 0.30298 0.04504 0.75156 0.0
H1343 H 0.35507 0.08965 0.71285 0.0
H1344 H 0.31039 0.06739 0.81635 0.0
H1345 H 0.29691 0.07587 0.79907 0.0
H1346 H 0.29095 0.0509 0.79302 0.0
H1347 H 0.37188 0.12263 0.72908 0.0
H1348 H 0.35914 0.1304 0.7519 0.0
H1349 H 0.37417 0.12278 0.76645 0.0
H1350 H 0.32272 0.13687 0.82455 0.0
H1351 H 0.35896 0.11911 0.86087 0.0
H1352 H 0.30314 0.10364 0.77221 0.0
H1353 H 0.32478 0.12062 0.75435 0.0
H1354 H 0.31312 0.12968 0.77714 0.0
H1355 H 0.34644 0.07933 0.81728 0.0
H1356 H 0.36637 0.09767 0.83832 0.0
H1357 H 0.36733 0.09876 0.80077 0.0
C1358 C 0.94914 0.26382 0.76576 0.0
C1359 C 0.93909 0.26396 0.74232 0.0
C1360 C 0.93919 0.25302 0.78929 0.0
C1361 C 0.91874 0.24212 0.78931 0.0
C1362 C 0.90855 0.24164 0.76532 0.0
C1363 C 0.91884 0.25258 0.74214 0.0
C1364 C 0.95054 0.25388 0.81452 0.0
C1365 C 0.88674 0.23019 0.76453 0.0
C1366 C 0.89079 0.20434 0.84483 0.0
C1367 C 0.88642 0.21519 0.86377 0.0
C1368 C 0.90155 0.21295 0.82059 0.0
C1369 C 0.90798 0.2328 0.81525 0.0
C1370 C 0.90363 0.24379 0.83435 0.0
C1371 C 0.89286 0.23484 0.85827 0.0
C1372 C 0.90595 0.20082 0.80064 0.0
C1373 C 0.91011 0.26496 0.82937 0.0
H1374 H 0.96479 0.27249 0.76601 0.0
H1375 H 0.91094 0.25245 0.72403 0.0
H1376 H 0.94818 0.26179 0.83205 0.0
H1377 H 0.94547 0.23882 0.82148 0.0
H1378 H 0.96629 0.26153 0.81029 0.0
H1379 H 0.88102 0.23001 0.74352 0.0
H1380 H 0.88089 0.2148 0.77063 0.0
H1381 H 0.88127 0.23685 0.77981 0.0
H1382 H 0.88595 0.1892 0.84909 0.0
H1383 H 0.88921 0.24319 0.87255 0.0
H1384 H 0.92179 0.20813 0.79771 0.0
H1385 H 0.89954 0.19971 0.77986 0.0
H1386 H 0.90027 0.18573 0.80811 0.0
H1387 H 0.92602 0.27389 0.82689 0.0
H1388 H 0.90598 0.27159 0.8467 0.0
H1389 H 0.90362 0.2659 0.80971 0.0
C1390 C 0.75256 0.69312 0.74314 0.0
C1391 C 0.73322 0.68352 0.75183 0.0
C1392 C 0.76704 0.6946 0.76055 0.0
C1393 C 0.762 0.68589 0.78701 0.0
C1394 C 0.74251 0.67623 0.79592 0.0
C1395 C 0.72839 0.67535 0.77834 0.0
C1396 C 0.78771 0.70544 0.7506 0.0
C1397 C 0.73649 0.66648 0.82384 0.0
C1398 C 0.79284 0.67035 0.82334 0.0
C1399 C 0.80055 0.68414 0.84556 0.0
C1400 C 0.78092 0.67123 0.80329 0.0
C1401 C 0.77695 0.6865 0.80535 0.0
C1402 C 0.78596 0.70132 0.82659 0.0
C1403 C 0.79745 0.69981 0.84671 0.0
C1404 C 0.7714 0.65499 0.78124 0.0
C1405 C 0.78252 0.7181 0.82912 0.0
H1406 H 0.75642 0.6996 0.72274 0.0
H1407 H 0.71347 0.66781 0.7851 0.0
H1408 H 0.79707 0.71724 0.76602 0.0
H1409 H 0.79303 0.69521 0.74889 0.0
H1410 H 0.78936 0.71212 0.72998 0.0
H1411 H 0.72072 0.65935 0.8275 0.0
H1412 H 0.74042 0.65517 0.82505 0.0
H1413 H 0.74428 0.6775 0.84095 0.0
H1414 H 0.79497 0.65804 0.82284 0.0
H1415 H 0.80329 0.71034 0.86413 0.0
H1416 H 0.77326 0.6612 0.76025 0.0
H1417 H 0.75566 0.64593 0.78535 0.0
H1418 H 0.77731 0.64523 0.78091 0.0
H1419 H 0.78403 0.72468 0.80848 0.0
H1420 H 0.79268 0.72981 0.8441 0.0
H1421 H 0.76757 0.71251 0.83646 0.0
C1422 C 0.73525 0.67362 0.59412 0.0
C1423 C 0.72825 0.66001 0.61555 0.0
C1424 C 0.74591 0.6722 0.5719 0.0
C1425 C 0.74957 0.65671 0.57097 0.0
C1426 C 0.74227 0.64273 0.59226 0.0
C1427 C 0.73174 0.64457 0.61435 0.0
C1428 C 0.75347 0.68743 0.54958 0.0
C1429 C 0.74572 0.62592 0.59181 0.0
C1430 C 0.76328 0.64733 0.49886 0.0
C1431 C 0.78351 0.65865 0.50032 0.0
C1432 C 0.75198 0.64553 0.52227 0.0
C1433 C 0.76115 0.65539 0.54766 0.0
C1434 C 0.78155 0.66568 0.54976 0.0
C1435 C 0.79251 0.66713 0.52602 0.0
C1436 C 0.73027 0.63418 0.51925 0.0
C1437 C 0.79187 0.67638 0.57647 0.0
H1438 H 0.73265 0.6856 0.59488 0.0
H1439 H 0.72634 0.63395 0.63078 0.0
H1440 H 0.76945 0.69517 0.54867 0.0
H1441 H 0.74783 0.68017 0.52883 0.0
H1442 H 0.74935 0.69853 0.55335 0.0
H1443 H 0.73864 0.61599 0.60956 0.0
H1444 H 0.74019 0.61717 0.57199 0.0
H1445 H 0.76145 0.63176 0.59268 0.0
H1446 H 0.75632 0.64064 0.479 0.0
H1447 H 0.80814 0.67602 0.52713 0.0
H1448 H 0.72517 0.64461 0.51954 0.0
H1449 H 0.72334 0.62426 0.53701 0.0
H1450 H 0.72537 0.62528 0.49944 0.0
H1451 H 0.79024 0.6892 0.58025 0.0
H1452 H 0.80753 0.68175 0.57565 0.0
H1453 H 0.7854 0.66665 0.59453 0.0
C1454 C 0.34653 0.07236 0.58174 0.0
C1455 C 0.3591 0.08137 0.60456 0.0
C1456 C 0.34672 0.08346 0.55949 0.0
C1457 C 0.35984 0.10409 0.56 0.0
C1458 C 0.37279 0.11325 0.58272 0.0
C1459 C 0.37225 0.10179 0.60475 0.0
C1460 C 0.33268 0.07313 0.5356 0.0
C1461 C 0.38702 0.13519 0.58394 0.0
C1462 C 0.36849 0.1275 0.48937 0.0
C1463 C 0.35522 0.13366 0.48981 0.0
C1464 C 0.37085 0.1187 0.5126 0.0
C1465 C 0.35967 0.11598 0.53685 0.0
C1466 C 0.34712 0.12327 0.53802 0.0
C1467 C 0.34507 0.13205 0.51449 0.0
C1468 C 0.38453 0.11133 0.51061 0.0
C1469 C 0.33498 0.12072 0.56352 0.0
H1470 H 0.33632 0.05661 0.5814 0.0
H1471 H 0.38204 0.1089 0.62227 0.0
H1472 H 0.32304 0.07898 0.534 0.0
H1473 H 0.34064 0.076 0.51559 0.0
H1474 H 0.32362 0.05696 0.53816 0.0
H1475 H 0.39654 0.13997 0.60262 0.0
H1476 H 0.39616 0.13973 0.56495 0.0
H1477 H 0.37914 0.14306 0.58435 0.0
H1478 H 0.37653 0.12892 0.47043 0.0
H1479 H 0.33466 0.1366 0.51488 0.0
H1480 H 0.37614 0.09501 0.51018 0.0
H1481 H 0.39412 0.11636 0.5292 0.0
H1482 H 0.39361 0.11638 0.49154 0.0
H1483 H 0.324 0.10488 0.56587 0.0
H1484 H 0.32742 0.12887 0.56217 0.0
H1485 H 0.34407 0.12585 0.58264 0.0
C1486 C 0.93429 0.27897 0.5921 0.0
C1487 C 0.94194 0.27351 0.61347 0.0
C1488 C 0.92343 0.26563 0.57034 0.0
C1489 C 0.91971 0.24622 0.57037 0.0
C1490 C 0.92702 0.24048 0.59228 0.0
C1491 C 0.93828 0.25429 0.61341 0.0
C1492 C 0.91623 0.27245 0.54703 0.0
C1493 C 0.92297 0.21978 0.59338 0.0
C1494 C 0.87851 0.21095 0.52206 0.0
C1495 C 0.88859 0.21137 0.49783 0.0
C1496 C 0.88846 0.22119 0.5466 0.0
C1497 C 0.90892 0.23233 0.54668 0.0
C1498 C 0.9191 0.23169 0.5229 0.0
C1499 C 0.9088 0.22099 0.49894 0.0
C1500 C 0.87709 0.22107 0.57184 0.0
C1501 C 0.9409 0.24345 0.522 0.0
H1502 H 0.93714 0.29383 0.59207 0.0
H1503 H 0.94398 0.24994 0.63012 0.0
H1504 H 0.92214 0.27087 0.52677 0.0
H1505 H 0.90027 0.26315 0.54554 0.0
H1506 H 0.92042 0.28805 0.55008 0.0
H1507 H 0.92879 0.21737 0.61265 0.0
H1508 H 0.90717 0.20905 0.59239 0.0
H1509 H 0.92947 0.21663 0.57503 0.0
H1510 H 0.8629 0.20358 0.5214 0.0
H1511 H 0.91667 0.22095 0.4805 0.0
H1512 H 0.87826 0.2355 0.57426 0.0
H1513 H 0.88302 0.21882 0.5911 0.0
H1514 H 0.86155 0.2094 0.56997 0.0
H1515 H 0.94617 0.25939 0.5228 0.0
H1516 H 0.9466 0.24016 0.50275 0.0
H1517 H 0.94698 0.24046 0.5404 0.0
C1518 C 0.34947 0.28049 0.57598 0.0
C1519 C 0.33931 0.27513 0.60124 0.0
C1520 C 0.34681 0.26616 0.55579 0.0
C1521 C 0.33385 0.24599 0.56114 0.0
C1522 C 0.32376 0.24047 0.58674 0.0
C1523 C 0.32652 0.25512 0.60642 0.0
C1524 C 0.35769 0.2726 0.52856 0.0
C1525 C 0.30997 0.21912 0.59326 0.0
C1526 C 0.31445 0.21282 0.49648 0.0
C1527 C 0.32738 0.20629 0.49359 0.0
C1528 C 0.31591 0.22515 0.51901 0.0
C1529 C 0.33044 0.23079 0.53942 0.0
C1530 C 0.34256 0.22302 0.53779 0.0
C1531 C 0.34093 0.21089 0.51479 0.0
C1532 C 0.30269 0.23311 0.51998 0.0
C1533 C 0.358 0.22845 0.55944 0.0
H1534 H 0.35935 0.29591 0.57184 0.0
H1535 H 0.31872 0.25083 0.62599 0.0
H1536 H 0.36651 0.26583 0.52544 0.0
H1537 H 0.34734 0.26748 0.51086 0.0
H1538 H 0.36738 0.28884 0.52777 0.0
H1539 H 0.3038 0.21727 0.61458 0.0
H1540 H 0.29794 0.21232 0.57791 0.0
H1541 H 0.31749 0.21091 0.59143 0.0
H1542 H 0.30372 0.20901 0.48037 0.0
H1543 H 0.35103 0.20597 0.5126 0.0
H1544 H 0.31125 0.24919 0.51669 0.0
H1545 H 0.29578 0.23083 0.54078 0.0
H1546 H 0.2912 0.22607 0.50376 0.0
H1547 H 0.36957 0.24413 0.55747 0.0
H1548 H 0.36458 0.21933 0.55707 0.0
H1549 H 0.35195 0.22673 0.5808 0.0
C1550 C 0.75062 0.07647 0.59822 0.0
C1551 C 0.73129 0.07099 0.60122 0.0
C1552 C 0.76236 0.08953 0.57763 0.0
C1553 C 0.75439 0.09681 0.559 0.0
C1554 C 0.73496 0.09166 0.56233 0.0
C1555 C 0.72369 0.07902 0.58373 0.0
C1556 C 0.78312 0.09501 0.57526 0.0
C1557 C 0.72578 0.09869 0.54244 0.0
C1558 C 0.78814 0.13858 0.51135 0.0
C1559 C 0.78812 0.12808 0.48726 0.0
C1560 C 0.77722 0.12867 0.53498 0.0
C1561 C 0.76572 0.10783 0.53422 0.0
C1562 C 0.76554 0.09722 0.50993 0.0
C1563 C 0.77701 0.1074 0.48713 0.0
C1564 C 0.77815 0.14044 0.56082 0.0
C1565 C 0.75335 0.075 0.50804 0.0
H1566 H 0.75663 0.07056 0.61207 0.0
H1567 H 0.70874 0.0748 0.58608 0.0
H1568 H 0.78499 0.08811 0.55599 0.0
H1569 H 0.79284 0.11117 0.57363 0.0
H1570 H 0.78775 0.09014 0.5934 0.0
H1571 H 0.71106 0.09467 0.54914 0.0
H1572 H 0.73483 0.11488 0.54059 0.0
H1573 H 0.72478 0.09206 0.52132 0.0
H1574 H 0.79656 0.15451 0.51175 0.0
H1575 H 0.77734 0.099 0.46916 0.0
H1576 H 0.78336 0.13604 0.57879 0.0
H1577 H 0.76352 0.13731 0.56619 0.0
H1578 H 0.78788 0.15653 0.55816 0.0
H1579 H 0.75864 0.06871 0.52326 0.0
H1580 H 0.75365 0.06908 0.48685 0.0
H1581 H 0.73814 0.06983 0.51343 0.0
C1582 C 0.92246 0.65349 0.59672 0.0
C1583 C 0.94215 0.66626 0.59101 0.0
C1584 C 0.90816 0.65239 0.57931 0.0
C1585 C 0.9137 0.66413 0.55544 0.0
C1586 C 0.93355 0.67693 0.54946 0.0
C1587 C 0.94753 0.67793 0.56742 0.0
C1588 C 0.88715 0.63871 0.58648 0.0
C1589 C 0.94005 0.68946 0.52393 0.0
C1590 C 0.88107 0.64967 0.49235 0.0
C1591 C 0.87562 0.66366 0.49388 0.0
C1592 C 0.8927 0.64903 0.513 0.0
C1593 C 0.89888 0.66258 0.53594 0.0
C1594 C 0.89225 0.67578 0.53869 0.0
C1595 C 0.88069 0.6762 0.51752 0.0
C1596 C 0.89942 0.63473 0.50923 0.0
C1597 C 0.89832 0.69025 0.56309 0.0
H1598 H 0.91818 0.64457 0.61509 0.0
H1599 H 0.9627 0.68782 0.56288 0.0
H1600 H 0.87982 0.64709 0.5885 0.0
H1601 H 0.8798 0.62753 0.56939 0.0
H1602 H 0.88525 0.63099 0.60625 0.0
H1603 H 0.95602 0.69874 0.52236 0.0
H1604 H 0.93437 0.67994 0.50477 0.0
H1605 H 0.93414 0.6992 0.52443 0.0
H1606 H 0.87693 0.63978 0.47422 0.0
H1607 H 0.87658 0.68708 0.51869 0.0
H1608 H 0.89706 0.62653 0.52862 0.0
H1609 H 0.91516 0.64295 0.50493 0.0
H1610 H 0.89187 0.62397 0.4917 0.0
H1611 H 0.89639 0.68275 0.58303 0.0
H1612 H 0.89 0.69768 0.56406 0.0
H1613 H 0.91388 0.70164 0.56122 0.0
C1614 C 0.93026 0.68419 0.71836 0.0
C1615 C 0.93847 0.67256 0.71909 0.0
C1616 C 0.91892 0.68445 0.74052 0.0
C1617 C 0.91572 0.67279 0.76396 0.0
C1618 C 0.92387 0.66093 0.76478 0.0
C1619 C 0.93517 0.66098 0.74235 0.0
C1620 C 0.91054 0.69735 0.73899 0.0
C1621 C 0.9208 0.64833 0.78947 0.0
C1622 C 0.90407 0.68682 0.83443 0.0
C1623 C 0.88422 0.67303 0.83667 0.0
C1624 C 0.91436 0.68728 0.8105 0.0
C1625 C 0.90456 0.67359 0.78824 0.0
C1626 C 0.88436 0.66013 0.78989 0.0
C1627 C 0.87439 0.66004 0.81414 0.0
C1628 C 0.93584 0.70197 0.80947 0.0
C1629 C 0.87345 0.64534 0.76653 0.0
H1630 H 0.93269 0.69315 0.70044 0.0
H1631 H 0.9414 0.6519 0.74305 0.0
H1632 H 0.89463 0.68837 0.74148 0.0
H1633 H 0.91632 0.7085 0.75636 0.0
H1634 H 0.9139 0.70508 0.71892 0.0
H1635 H 0.92763 0.63949 0.78649 0.0
H1636 H 0.92691 0.65777 0.80861 0.0
H1637 H 0.90512 0.63817 0.79309 0.0
H1638 H 0.91163 0.69703 0.85175 0.0
H1639 H 0.85907 0.6493 0.81594 0.0
H1640 H 0.9396 0.71057 0.79019 0.0
H1641 H 0.94371 0.69409 0.80885 0.0
H1642 H 0.94104 0.71236 0.82781 0.0
H1643 H 0.87636 0.65286 0.74637 0.0
H1644 H 0.85761 0.63685 0.77018 0.0
H1645 H 0.87848 0.63488 0.76445 0.0
C1646 C 0.31117 0.2652 0.77469 0.0
C1647 C 0.32103 0.26855 0.74929 0.0
C1648 C 0.31248 0.25369 0.79504 0.0
C1649 C 0.32364 0.24507 0.78961 0.0
C1650 C 0.33294 0.24773 0.76353 0.0
C1651 C 0.33167 0.25958 0.7438 0.0
C1652 C 0.30259 0.25142 0.8228 0.0
C1653 C 0.34476 0.23857 0.75678 0.0
C1654 C 0.34664 0.23698 0.85166 0.0
C1655 C 0.33393 0.21691 0.8565 0.0
C1656 C 0.34341 0.24622 0.82997 0.0
C1657 C 0.32727 0.23506 0.81218 0.0
C1658 C 0.31477 0.21461 0.81617 0.0
C1659 C 0.31821 0.20575 0.83841 0.0
C1660 C 0.35712 0.26805 0.82647 0.0
C1661 C 0.29758 0.20221 0.79729 0.0
H1662 H 0.30288 0.27206 0.779 0.0
H1663 H 0.3391 0.26185 0.72402 0.0
H1664 H 0.2935 0.23565 0.82786 0.0
H1665 H 0.31362 0.2588 0.83957 0.0
H1666 H 0.2934 0.25789 0.82304 0.0
H1667 H 0.34937 0.24033 0.73458 0.0
H1668 H 0.35785 0.24554 0.77019 0.0
H1669 H 0.33636 0.22266 0.76126 0.0
H1670 H 0.35906 0.2456 0.8652 0.0
H1671 H 0.30832 0.19026 0.84212 0.0
H1672 H 0.3491 0.27575 0.82834 0.0
H1673 H 0.36366 0.27085 0.80536 0.0
H1674 H 0.36892 0.2746 0.84224 0.0
H1675 H 0.28726 0.20725 0.79947 0.0
H1676 H 0.28993 0.18635 0.80215 0.0
H1677 H 0.30225 0.20397 0.77515 0.0
C1678 C 0.75968 0.08633 0.72776 0.0
C1679 C 0.73943 0.07615 0.72829 0.0
C1680 C 0.77068 0.097 0.75135 0.0
C1681 C 0.7612 0.09751 0.77605 0.0
C1682 C 0.74078 0.08746 0.77665 0.0
C1683 C 0.73014 0.07689 0.75276 0.0
C1684 C 0.79243 0.10748 0.74996 0.0
C1685 C 0.73017 0.08765 0.80267 0.0
C1686 C 0.78616 0.10651 0.84593 0.0
C1687 C 0.79208 0.12616 0.85218 0.0
C1688 C 0.77645 0.09716 0.82097 0.0
C1689 C 0.77257 0.10772 0.80174 0.0
C1690 C 0.77903 0.12776 0.8075 0.0
C1691 C 0.78877 0.13678 0.83271 0.0
C1692 C 0.76996 0.07584 0.8155 0.0
C1693 C 0.77514 0.13947 0.78745 0.0
H1694 H 0.76701 0.08591 0.70893 0.0
H1695 H 0.71451 0.06912 0.75333 0.0
H1696 H 0.799 0.12328 0.75579 0.0
H1697 H 0.7977 0.10118 0.7652 0.0
H1698 H 0.7976 0.10628 0.72883 0.0
H1699 H 0.7143 0.07972 0.79939 0.0
H1700 H 0.73319 0.08067 0.81988 0.0
H1701 H 0.73536 0.10302 0.80957 0.0
H1702 H 0.78893 0.09835 0.86083 0.0
H1703 H 0.79321 0.15192 0.8376 0.0
H1704 H 0.77565 0.07407 0.79515 0.0
H1705 H 0.75397 0.06678 0.8142 0.0
H1706 H 0.7748 0.06997 0.83209 0.0
H1707 H 0.78059 0.13877 0.76635 0.0
H1708 H 0.78199 0.15515 0.79432 0.0
H1709 H 0.75934 0.133 0.78554 0.0
C1710 C 0.058 0.35681 0.0175 0.0
C1711 C 0.04821 0.35791 0.04122 0.0
C1712 C 0.07374 0.35424 0.02004 0.0
C1713 C 0.07997 0.35303 0.04692 0.0
C1714 C 0.07005 0.35402 0.07088 0.0
C1715 C 0.05427 0.35632 0.06771 0.0
C1716 C 0.08379 0.35299 0.99405 0.0
C1717 C 0.0763 0.35296 0.10002 0.0
C1718 C 0.10977 0.33177 0.06741 0.0
C1719 C 0.12697 0.34896 0.07552 0.0
C1720 C 0.09483 0.33278 0.05481 0.0
C1721 C 0.09723 0.35141 0.05066 0.0
C1722 C 0.11548 0.3687 0.05573 0.0
C1723 C 0.13017 0.36724 0.06812 0.0
C1724 C 0.07576 0.31397 0.04917 0.0
C1725 C 0.11877 0.38887 0.05158 0.0
H1726 H 0.05334 0.3579 0.99692 0.0
H1727 H 0.04683 0.35719 0.08614 0.0
H1728 H 0.09894 0.36558 0.99391 0.0
H1729 H 0.08425 0.33937 0.9939 0.0
H1730 H 0.07653 0.35309 0.97466 0.0
H1731 H 0.06701 0.35389 0.11642 0.0
H1732 H 0.07586 0.33896 0.10224 0.0
H1733 H 0.09142 0.36515 0.10378 0.0
H1734 H 0.10721 0.31766 0.07355 0.0
H1735 H 0.14341 0.38052 0.07483 0.0
H1736 H 0.0691 0.31477 0.02962 0.0
H1737 H 0.06567 0.31165 0.06655 0.0
H1738 H 0.07741 0.30103 0.04759 0.0
H1739 H 0.11214 0.3893 0.03177 0.0
H1740 H 0.1344 0.40039 0.0514 0.0
H1741 H 0.11186 0.39249 0.06892 0.0
C1742 C 0.65181 0.70798 0.99076 0.0
C1743 C 0.65269 0.69617 0.01107 0.0
C1744 C 0.65336 0.72592 -0.00173 0.0
C1745 C 0.65575 0.73212 0.02672 0.0
C1746 C 0.65696 0.72041 0.04721 0.0
C1747 C 0.65544 0.70264 0.03913 0.0
C1748 C 0.6521 0.73805 0.97588 0.0
C1749 C 0.65949 0.72644 0.07784 0.0
C1750 C 0.67479 0.78323 0.05718 0.0
C1751 C 0.65789 0.78093 0.06885 0.0
C1752 C 0.67415 0.76811 0.04052 0.0
C1753 C 0.65621 0.75034 0.03581 0.0
C1754 C 0.63894 0.74896 0.04502 0.0
C1755 C 0.64001 0.7643 0.06155 0.0
C1756 C 0.69287 0.77031 0.03076 0.0
C1757 C 0.61949 0.73038 0.04038 0.0
H1758 H 0.64973 0.70312 0.96901 0.0
H1759 H 0.65618 0.69369 0.05498 0.0
H1760 H 0.63884 0.73858 0.97891 0.0
H1761 H 0.66457 0.75342 0.97745 0.0
H1762 H 0.65174 0.73199 0.95455 0.0
H1763 H 0.66057 0.71588 0.09103 0.0
H1764 H 0.67273 0.74118 0.081 0.0
H1765 H 0.64708 0.7275 0.08525 0.0
H1766 H 0.68862 0.79601 0.06324 0.0
H1767 H 0.62699 0.76249 0.07097 0.0
H1768 H 0.69133 0.76383 0.00941 0.0
H1769 H 0.69691 0.76233 0.04493 0.0
H1770 H 0.70481 0.78599 0.03083 0.0
H1771 H 0.6182 0.72437 0.01879 0.0
H1772 H 0.60745 0.73288 0.04426 0.0
H1773 H 0.6179 0.71907 0.05489 0.0
C1774 C 0.2928 0.94946 0.9847 0.0
C1775 C 0.30735 0.95771 0.00523 0.0
C1776 C 0.27394 0.93412 0.99093 0.0
C1777 C 0.26951 0.92694 0.01835 0.0
C1778 C 0.28425 0.93493 0.03898 0.0
C1779 C 0.30294 0.95015 0.03216 0.0
C1780 C 0.25867 0.92593 0.96838 0.0
C1781 C 0.28018 0.9277 0.06853 0.0
C1782 C 0.22106 0.90415 0.05382 0.0
C1783 C 0.21672 0.88488 0.057 0.0
C1784 C 0.23728 0.91767 0.03859 0.0
C1785 C 0.24941 0.91171 0.02634 0.0
C1786 C 0.24368 0.89163 0.0266 0.0
C1787 C 0.22733 0.8784 0.04201 0.0
C1788 C 0.24266 0.93885 0.03859 0.0
C1789 C 0.25599 0.88456 0.01345 0.0
H1790 H 0.29606 0.95515 0.9638 0.0
H1791 H 0.31406 0.95635 0.04815 0.0
H1792 H 0.25117 0.90965 0.96706 0.0
H1793 H 0.24761 0.92964 0.97363 0.0
H1794 H 0.26479 0.93185 0.94757 0.0
H1795 H 0.29333 0.9351 0.08188 0.0
H1796 H 0.26924 0.93036 0.07815 0.0
H1797 H 0.27413 0.91161 0.06844 0.0
H1798 H 0.21289 0.90917 0.06561 0.0
H1799 H 0.22409 0.86355 0.04472 0.0
H1800 H 0.24799 0.94522 0.01778 0.0
H1801 H 0.25449 0.9476 0.05389 0.0
H1802 H 0.23026 0.94039 0.04446 0.0
H1803 H 0.26174 0.89143 0.99301 0.0
H1804 H 0.24779 0.86831 0.01038 0.0
H1805 H 0.26851 0.88886 0.02728 0.0
C1806 C 0.35847 0.05985 0.95634 0.0
C1807 C 0.35795 0.0523 0.98256 0.0
C1808 C 0.35459 0.07484 0.95339 0.0
C1809 C 0.34996 0.0825 0.97727 0.0
C1810 C 0.34958 0.07512 0.00389 0.0
C1811 C 0.35362 0.06012 0.00624 0.0
C1812 C 0.35527 0.08234 0.92455 0.0
C1813 C 0.3446 0.08282 0.02976 0.0
C1814 C 0.35676 0.1314 0.95975 0.0
C1815 C 0.33865 0.12517 0.94825 0.0
C1816 C 0.36024 0.11795 0.97245 0.0
C1817 C 0.34519 0.09793 0.97365 0.0
C1818 C 0.32625 0.09229 0.96553 0.0
C1819 C 0.32322 0.10601 0.95275 0.0
C1820 C 0.3806 0.12468 0.9811 0.0
C1821 C 0.30968 0.07122 0.96689 0.0
H1822 H 0.36186 0.05399 0.93794 0.0
H1823 H 0.35313 0.05434 0.0266 0.0
H1824 H 0.34089 0.07966 0.91895 0.0
H1825 H 0.36568 0.09846 0.92425 0.0
H1826 H 0.35956 0.07516 0.90826 0.0
H1827 H 0.34613 0.07645 0.04911 0.0
H1828 H 0.35402 0.09907 0.03149 0.0
H1829 H 0.3295 0.07925 0.02827 0.0
H1830 H 0.36874 0.14616 0.95592 0.0
H1831 H 0.30926 0.10117 0.94356 0.0
H1832 H 0.38745 0.12049 0.96438 0.0
H1833 H 0.38072 0.11753 0.00048 0.0
H1834 H 0.38949 0.1409 0.9845 0.0
H1835 H 0.3108 0.06254 0.94921 0.0
H1836 H 0.2955 0.07004 0.9654 0.0
H1837 H 0.31016 0.06452 0.98654 0.0
C1838 C 0.94868 0.30637 0.98964 0.0
C1839 C 0.95144 0.31397 0.01713 0.0
C1840 C 0.93251 0.28798 0.98227 0.0
C1841 C 0.91862 0.27683 0.00285 0.0
C1842 C 0.92115 0.28447 0.03058 0.0
C1843 C 0.93758 0.30294 0.03743 0.0
C1844 C 0.93042 0.28038 0.95239 0.0
C1845 C 0.90661 0.27307 0.05299 0.0
C1846 C 0.87261 0.23838 0.96667 0.0
C1847 C 0.87593 0.22293 0.96358 0.0
C1848 C 0.88534 0.25547 0.98236 0.0
C1849 C 0.9018 0.25707 0.99488 0.0
C1850 C 0.90383 0.24052 0.99451 0.0
C1851 C 0.89084 0.22361 0.97875 0.0
C1852 C 0.88245 0.27263 0.98256 0.0
C1853 C 0.92104 0.24148 0.00768 0.0
H1854 H 0.95927 0.31475 0.97379 0.0
H1855 H 0.93956 0.30871 0.05872 0.0
H1856 H 0.92998 0.26627 0.95173 0.0
H1857 H 0.91663 0.27745 0.94341 0.0
H1858 H 0.94244 0.29091 0.93892 0.0
H1859 H 0.9103 0.28136 0.07331 0.0
H1860 H 0.89203 0.26941 0.04648 0.0
H1861 H 0.90579 0.25895 0.05601 0.0
H1862 H 0.86124 0.23794 0.9545 0.0
H1863 H 0.89354 0.21175 0.97592 0.0
H1864 H 0.89211 0.28329 0.96684 0.0
H1865 H 0.8862 0.2804 0.00324 0.0
H1866 H 0.86733 0.26786 0.9773 0.0
H1867 H 0.93385 0.24987 0.99412 0.0
H1868 H 0.91862 0.22659 0.01028 0.0
H1869 H 0.92444 0.24923 0.02837 0.0
C1870 C 0.71005 0.65578 0.95948 0.0
C1871 C 0.70064 0.64941 0.98517 0.0
C1872 C 0.72773 0.65725 0.95432 0.0
C1873 C 0.73633 0.65226 0.97542 0.0
C1874 C 0.72696 0.64584 0.00145 0.0
C1875 C 0.70919 0.64447 0.00603 0.0
C1876 C 0.73722 0.66417 0.92618 0.0
C1877 C 0.73572 0.64045 0.02439 0.0
C1878 C 0.77243 0.6425 0.94106 0.0
C1879 C 0.78878 0.66153 0.94147 0.0
C1880 C 0.75556 0.63852 0.95512 0.0
C1881 C 0.75518 0.65403 0.96966 0.0
C1882 C 0.77248 0.6726 0.97307 0.0
C1883 C 0.78912 0.67616 0.95876 0.0
C1884 C 0.73752 0.61845 0.95119 0.0
C1885 C 0.77282 0.68949 0.98865 0.0
H1886 H 0.70357 0.65961 0.94322 0.0
H1887 H 0.702 0.63953 0.02596 0.0
H1888 H 0.75169 0.67771 0.92891 0.0
H1889 H 0.73932 0.6528 0.91587 0.0
H1890 H 0.72857 0.66736 0.91202 0.0
H1891 H 0.7266 0.63567 0.04342 0.0
H1892 H 0.7378 0.62841 0.01693 0.0
H1893 H 0.75018 0.65324 0.03008 0.0
H1894 H 0.77215 0.6313 0.92731 0.0
H1895 H 0.80174 0.69095 0.95868 0.0
H1896 H 0.72846 0.61901 0.9346 0.0
H1897 H 0.72885 0.61384 0.97062 0.0
H1898 H 0.74097 0.60715 0.94483 0.0
H1899 H 0.76662 0.69584 0.97515 0.0
H1900 H 0.78777 0.70132 0.99443 0.0
H1901 H 0.76396 0.68443 0.00787 0.0
C1902 C 0.95091 0.65202 0.95386 0.0
C1903 C 0.95554 0.64963 0.98093 0.0
C1904 C 0.9358 0.65514 0.94906 0.0
C1905 C 0.92505 0.6561 0.97193 0.0
C1906 C 0.92959 0.65368 -0.00064 0.0
C1907 C 0.94474 0.65037 0.00355 0.0
C1908 C 0.93139 0.65747 0.91938 0.0
C1909 C 0.91858 0.65479 0.02423 0.0
C1910 C 0.90067 0.68238 0.94867 0.0
C1911 C 0.88316 0.6665 0.93847 0.0
C1912 C 0.91372 0.67923 0.96291 0.0
C1913 C 0.90922 0.65973 0.96646 0.0
C1914 C 0.8906 0.64373 0.95899 0.0
C1915 C 0.87775 0.64734 0.94506 0.0
C1916 C 0.93323 0.69674 0.97099 0.0
C1917 C 0.88512 0.62271 0.96239 0.0
H1918 H 0.95909 0.65139 0.93624 0.0
H1919 H 0.94827 0.6486 0.02455 0.0
H1920 H 0.91614 0.64627 0.91414 0.0
H1921 H 0.93326 0.67215 0.91718 0.0
H1922 H 0.94085 0.65594 0.90392 0.0
H1923 H 0.92356 0.65214 0.04415 0.0
H1924 H 0.92031 0.66951 0.02569 0.0
H1925 H 0.90293 0.64381 0.02164 0.0
H1926 H 0.90494 0.69719 0.94316 0.0
H1927 H 0.86433 0.63506 0.93671 0.0
H1928 H 0.944 0.69853 0.955 0.0
H1929 H 0.93809 0.69456 0.99133 0.0
H1930 H 0.93303 0.71052 0.97238 0.0
H1931 H 0.89205 0.61865 0.9456 0.0
H1932 H 0.86925 0.61234 0.96094 0.0
H1933 H 0.89029 0.62089 0.98269 0.0
C1934 C 0.35526 0.30503 0.98109 0.0
C1935 C 0.36 0.31306 0.00835 0.0
C1936 C 0.354 0.28725 0.97388 0.0
C1937 C 0.35766 0.2772 0.9944 0.0
C1938 C 0.36249 0.2852 0.02196 0.0
C1939 C 0.36356 0.30302 0.02863 0.0
C1940 C 0.34874 0.2792 0.94421 0.0
C1941 C 0.36658 0.27499 0.0443 0.0
C1942 C 0.33554 0.224 0.97145 0.0
C1943 C 0.35076 0.22503 0.95602 0.0
C1944 C 0.33808 0.24047 0.98677 0.0
C1945 C 0.35628 0.25831 0.9865 0.0
C1946 C 0.37224 0.25859 0.97377 0.0
C1947 C 0.36925 0.2419 0.95853 0.0
C1948 C 0.32069 0.23943 0.0002 0.0
C1949 C 0.39195 0.27717 0.97329 0.0
H1950 H 0.35248 0.31264 0.96527 0.0
H1951 H 0.36729 0.30913 0.04975 0.0
H1952 H 0.36046 0.27773 0.93478 0.0
H1953 H 0.33547 0.26431 0.94405 0.0
H1954 H 0.34621 0.28874 0.93083 0.0
H1955 H 0.37009 0.28309 0.06476 0.0
H1956 H 0.35389 0.25993 0.04698 0.0
H1957 H 0.37887 0.27342 0.0379 0.0
H1958 H 0.32117 0.21105 0.96903 0.0
H1959 H 0.38092 0.24278 0.94614 0.0
H1960 H 0.31529 0.24648 0.98655 0.0
H1961 H 0.32453 0.24748 0.02067 0.0
H1962 H 0.30881 0.22398 0.00329 0.0
H1963 H 0.39203 0.2871 0.95755 0.0
H1964 H 0.40339 0.27405 0.96769 0.0
H1965 H 0.39551 0.2851 0.99385 0.0
C1966 C 0.70223 0.05065 0.95578 0.0
C1967 C 0.69372 0.04219 0.98126 0.0
C1968 C 0.72132 0.06661 0.95458 0.0
C1969 C 0.73232 0.07432 0.97951 0.0
C1970 C 0.72386 0.06591 0.00537 0.0
C1971 C 0.70461 0.04996 0.00596 0.0
C1972 C 0.72972 0.07518 0.9265 0.0
C1973 C 0.73519 0.07362 0.03229 0.0
C1974 C 0.78455 0.10225 0.95855 0.0
C1975 C 0.78733 0.12081 0.95428 0.0
C1976 C 0.76738 0.0873 0.97041 0.0
C1977 C 0.7527 0.09108 0.97777 0.0
C1978 C 0.75664 0.11056 0.97704 0.0
C1979 C 0.77402 0.12527 0.96529 0.0
C1980 C 0.76399 0.06687 0.97136 0.0
C1981 C 0.74151 0.11533 0.98491 0.0
H1982 H 0.69394 0.04482 0.93661 0.0
H1983 H 0.69816 0.04347 0.02575 0.0
H1984 H 0.73478 0.09107 0.92679 0.0
H1985 H 0.74241 0.07389 0.92193 0.0
H1986 H 0.71911 0.06772 0.90921 0.0
H1987 H 0.72625 0.06607 0.0508 0.0
H1988 H 0.74764 0.07156 0.03154 0.0
H1989 H 0.74113 0.08964 0.03498 0.0
H1990 H 0.7948 0.09878 0.94973 0.0
H1991 H 0.7761 0.13958 0.96164 0.0
H1992 H 0.75536 0.0581 0.95284 0.0
H1993 H 0.75577 0.05926 0.99028 0.0
H1994 H 0.77781 0.0672 0.97104 0.0
H1995 H 0.73104 0.1107 0.96744 0.0
H1996 H 0.74801 0.13136 0.98905 0.0
H1997 H 0.73337 0.1073 0.00365 0.0
C1998 C 0.64006 0.93597 0.01054 0.0
C1999 C 0.64315 0.94937 0.03254 0.0
C2000 C 0.64178 0.91959 0.01482 0.0
C2001 C 0.6467 0.91663 0.04168 0.0
C2002 C 0.64942 0.92991 0.06402 0.0
C2003 C 0.64762 0.94606 0.05916 0.0
C2004 C 0.63878 0.90576 0.99054 0.0
C2005 C 0.65461 0.92732 0.09308 0.0
C2006 C 0.63965 0.87028 0.07187 0.0
C2007 C 0.65886 0.87534 0.07399 0.0
C2008 C 0.63499 0.88259 0.0583 0.0
C2009 C 0.64997 0.90031 0.04685 0.0
C2010 C 0.66904 0.90414 0.04608 0.0
C2011 C 0.67327 0.89162 0.05983 0.0
C2012 C 0.61443 0.87779 0.05926 0.0
C2013 C 0.68544 0.92272 0.03391 0.0
H2014 H 0.63658 0.93841 0.9899 0.0
H2015 H 0.64991 0.95622 0.07634 0.0
H2016 H 0.65268 0.90706 0.98509 0.0
H2017 H 0.62856 0.89029 0.99632 0.0
H2018 H 0.63314 0.90893 0.97175 0.0
H2019 H 0.65569 0.93865 0.10829 0.0
H2020 H 0.64361 0.9126 0.1007 0.0
H2021 H 0.66867 0.92819 0.09266 0.0
H2022 H 0.62856 0.85779 0.08315 0.0
H2023 H 0.68817 0.89558 0.06176 0.0
H2024 H 0.61042 0.88163 0.03949 0.0
H2025 H 0.61297 0.88658 0.07644 0.0
H2026 H 0.60409 0.86196 0.06311 0.0
H2027 H 0.68106 0.92597 0.01397 0.0
H2028 H 0.6984 0.92172 0.03013 0.0
H2029 H 0.6895 0.93529 0.04871 0.0
C2030 C 0.06874 0.70133 0.98271 0.0
C2031 C 0.05307 0.6927 0.00125 0.0
C2032 C 0.08567 0.71941 0.98955 0.0
C2033 C 0.08693 0.72896 0.01555 0.0
C2034 C 0.071 0.72049 0.03403 0.0
C2035 C 0.05431 0.70253 0.02665 0.0
C2036 C 0.10231 0.72805 0.96929 0.0
C2037 C 0.07169 0.73018 0.06201 0.0
C2038 C 0.13158 0.76274 0.05788 0.0
C2039 C 0.13187 0.78037 0.05689 0.0
C2040 C 0.11833 0.7462 0.04175 0.0
C2041 C 0.10501 0.74739 0.02452 0.0
C2042 C 0.10687 0.76585 0.021 0.0
C2043 C 0.12032 0.78218 0.03738 0.0
C2044 C 0.11702 0.72691 0.04596 0.0
C2045 C 0.09314 0.76784 0.00261 0.0
H2046 H 0.0679 0.69386 0.96301 0.0
H2047 H 0.0423 0.69606 0.04109 0.0
H2048 H 0.1073 0.74364 0.96557 0.0
H2049 H 0.11466 0.72782 0.97833 0.0
H2050 H 0.09841 0.7198 0.94892 0.0
H2051 H 0.05789 0.7219 0.07363 0.0
H2052 H 0.08341 0.73133 0.07507 0.0
H2053 H 0.07494 0.74533 0.05906 0.0
H2054 H 0.14041 0.76136 0.07328 0.0
H2055 H 0.1204 0.79578 0.03695 0.0
H2056 H 0.1143 0.71857 0.02586 0.0
H2057 H 0.10475 0.71778 0.06005 0.0
H2058 H 0.1304 0.72912 0.05552 0.0
H2059 H 0.0901 0.75898 0.98294 0.0
H2060 H 0.09895 0.78342 0.99741 0.0
H2061 H 0.07924 0.76229 0.01372 0.0
C2062 C 0.29924 0.36159 0.01271 0.0
C2063 C 0.30808 0.35809 0.03486 0.0
C2064 C 0.28112 0.35967 0.01608 0.0
C2065 C 0.27164 0.35411 0.04217 0.0
C2066 C 0.28056 0.35067 0.06461 0.0
C2067 C 0.29862 0.3527 0.06067 0.0
C2068 C 0.27208 0.36347 0.99173 0.0
C2069 C 0.27096 0.34467 0.09284 0.0
C2070 C 0.23291 0.36239 0.07067 0.0
C2071 C 0.21711 0.34302 0.07078 0.0
C2072 C 0.25051 0.36676 0.05855 0.0
C2073 C 0.25219 0.35132 0.04639 0.0
C2074 C 0.23552 0.33222 0.0434 0.0
C2075 C 0.21815 0.32829 0.05574 0.0
C2076 C 0.26783 0.38738 0.06189 0.0
C2077 C 0.23654 0.31536 0.03034 0.0
H2078 H 0.30645 0.36579 0.99269 0.0
H2079 H 0.30531 0.34999 0.07792 0.0
H2080 H 0.25818 0.34991 0.98601 0.0
H2081 H 0.26882 0.37495 0.99766 0.0
H2082 H 0.28157 0.36828 0.97306 0.0
H2083 H 0.27992 0.34279 0.10819 0.0
H2084 H 0.26804 0.35593 0.10137 0.0
H2085 H 0.25686 0.3306 0.09069 0.0
H2086 H 0.23217 0.37372 0.08268 0.0
H2087 H 0.20596 0.31326 0.05615 0.0
H2088 H 0.27693 0.39169 0.04287 0.0
H2089 H 0.2768 0.388 0.07958 0.0
H2090 H 0.26349 0.39825 0.06631 0.0
H2091 H 0.24562 0.32 0.0113 0.0
H2092 H 0.22198 0.30264 0.02477 0.0
H2093 H 0.24325 0.31041 0.0454 0.0
C2094 C 0.72896 0.70272 0.35493 0.0
C2095 C 0.71441 0.69408 0.37522 0.0
C2096 C 0.74616 0.70267 0.35728 0.0
C2097 C 0.74888 0.69384 0.38049 0.0
C2098 C 0.73419 0.68506 0.40094 0.0
C2099 C 0.7172 0.68527 0.39802 0.0
C2100 C 0.76145 0.7121 0.33506 0.0
C2101 C 0.73645 0.67549 0.42613 0.0
C2102 C 0.78128 0.67368 0.38758 0.0
C2103 C 0.79446 0.68698 0.40755 0.0
C2104 C 0.76754 0.6769 0.37568 0.0
C2105 C 0.76699 0.69375 0.3842 0.0
C2106 C 0.7819 0.7084 0.40156 0.0
C2107 C 0.79546 0.7048 0.41311 0.0
C2108 C 0.75212 0.66102 0.35694 0.0
C2109 C 0.78206 0.72667 0.41099 0.0
H2110 H 0.72692 0.70954 0.3372 0.0
H2111 H 0.70609 0.67856 0.41382 0.0
H2112 H 0.775 0.72438 0.34446 0.0
H2113 H 0.76478 0.70127 0.32603 0.0
H2114 H 0.75694 0.71789 0.31794 0.0
H2115 H 0.72364 0.66925 0.44003 0.0
H2116 H 0.73875 0.66348 0.41931 0.0
H2117 H 0.74931 0.68642 0.43846 0.0
H2118 H 0.78033 0.65976 0.38364 0.0
H2119 H 0.80549 0.71493 0.4289 0.0
H2120 H 0.74827 0.66745 0.33995 0.0
H2121 H 0.73891 0.65184 0.3694 0.0
H2122 H 0.75679 0.65129 0.34755 0.0
H2123 H 0.77811 0.73274 0.3936 0.0
H2124 H 0.79641 0.73825 0.41935 0.0
H2125 H 0.77122 0.72288 0.42779 0.0
C2126 C 0.31622 0.03746 0.31711 0.0
C2127 C 0.31645 0.02548 0.33773 0.0
C2128 C 0.3188 0.05592 0.32418 0.0
C2129 C 0.32177 0.06255 0.35247 0.0
C2130 C 0.32183 0.05043 0.37335 0.0
C2131 C 0.31914 0.03209 0.36573 0.0
C2132 C 0.31855 0.06841 0.30143 0.0
C2133 C 0.32501 0.05694 0.40381 0.0
C2134 C 0.34896 0.11518 0.37921 0.0
C2135 C 0.33403 0.11658 0.39159 0.0
C2136 C 0.34501 0.0983 0.36366 0.0
C2137 C 0.32566 0.08243 0.36071 0.0
C2138 C 0.31043 0.0847 0.37066 0.0
C2139 C 0.31482 0.10182 0.38609 0.0
C2140 C 0.3617 0.09663 0.35325 0.0
C2141 C 0.2896 0.06823 0.36772 0.0
H2142 H 0.31405 0.03243 0.29543 0.0
H2143 H 0.3193 0.02296 0.38185 0.0
H2144 H 0.30776 0.07254 0.30631 0.0
H2145 H 0.33284 0.08226 0.30027 0.0
H2146 H 0.31511 0.06073 0.28063 0.0
H2147 H 0.32427 0.0456 0.41748 0.0
H2148 H 0.33938 0.07062 0.40662 0.0
H2149 H 0.314 0.0603 0.41089 0.0
H2150 H 0.36382 0.12661 0.38369 0.0
H2151 H 0.30331 0.10286 0.39596 0.0
H2152 H 0.3587 0.08969 0.33202 0.0
H2153 H 0.36379 0.08715 0.36734 0.0
H2154 H 0.37536 0.11121 0.35272 0.0
H2155 H 0.28677 0.06101 0.34668 0.0
H2156 H 0.27958 0.07356 0.37133 0.0
H2157 H 0.28639 0.05692 0.38329 0.0
C2158 C 0.96029 0.29135 0.32397 0.0
C2159 C 0.97593 0.2981 0.34243 0.0
C2160 C 0.94171 0.27578 0.331 0.0
C2161 C 0.93872 0.26681 0.35711 0.0
C2162 C 0.95455 0.27328 0.37552 0.0
C2163 C 0.97291 0.28877 0.36795 0.0
C2164 C 0.92522 0.26926 0.31081 0.0
C2165 C 0.95204 0.26412 0.4036 0.0
C2166 C 0.89249 0.24247 0.39859 0.0
C2167 C 0.88764 0.22286 0.39749 0.0
C2168 C 0.90804 0.2568 0.3831 0.0
C2169 C 0.91902 0.25133 0.3663 0.0
C2170 C 0.9128 0.23116 0.36278 0.0
C2171 C 0.89713 0.21711 0.37852 0.0
C2172 C 0.91399 0.27805 0.38731 0.0
C2173 C 0.92393 0.22465 0.34484 0.0
H2174 H 0.96247 0.29842 0.30417 0.0
H2175 H 0.98487 0.29377 0.38233 0.0
H2176 H 0.91737 0.25308 0.30718 0.0
H2177 H 0.91475 0.2728 0.31989 0.0
H2178 H 0.9302 0.2765 0.2904 0.0
H2179 H 0.96592 0.27043 0.41509 0.0
H2180 H 0.94198 0.2664 0.41667 0.0
H2181 H 0.94561 0.24802 0.40086 0.0
H2182 H 0.88523 0.24689 0.4135 0.0
H2183 H 0.89352 0.20197 0.37797 0.0
H2184 H 0.91814 0.28572 0.36719 0.0
H2185 H 0.92677 0.28564 0.40133 0.0
H2186 H 0.90227 0.2795 0.39689 0.0
H2187 H 0.92857 0.23275 0.32507 0.0
H2188 H 0.91526 0.20861 0.3398 0.0
H2189 H 0.93713 0.22791 0.35619 0.0
C2190 C 0.03218 0.40518 0.34543 0.0
C2191 C 0.03072 0.39316 0.32237 0.0
C2192 C 0.02995 0.42135 0.34225 0.0
C2193 C 0.02604 0.42544 0.31544 0.0
C2194 C 0.02481 0.41348 0.29209 0.0
C2195 C 0.02722 0.39759 0.29585 0.0
C2196 C 0.03149 0.43384 0.36755 0.0
C2197 C 0.0206 0.41722 0.26308 0.0
C2198 C 0.99884 0.44992 0.29791 0.0
C2199 C 0.01346 0.46703 0.28551 0.0
C2200 C 1.00305 0.43713 0.3109 0.0
C2201 C 0.02234 0.44158 0.31128 0.0
C2202 C 0.03739 0.46003 0.30182 0.0
C2203 C 0.03274 0.47257 0.28888 0.0
C2204 C 0.98654 0.41772 0.32087 0.0
C2205 C 0.05817 0.46552 0.30222 0.0
H2206 H 0.03494 0.40191 0.366 0.0
H2207 H 0.02609 0.38845 0.27787 0.0
H2208 H 0.04188 0.44961 0.36359 0.0
H2209 H 0.01727 0.43215 0.3718 0.0
H2210 H 0.03617 0.42975 0.38647 0.0
H2211 H 0.02043 0.40674 0.24711 0.0
H2212 H 0.00636 0.41595 0.26277 0.0
H2213 H 0.03163 0.43239 0.25703 0.0
H2214 H 0.98391 0.44559 0.29498 0.0
H2215 H 0.04401 0.48569 0.27894 0.0
H2216 H 0.9903 0.41368 0.34065 0.0
H2217 H 0.98343 0.406 0.30497 0.0
H2218 H 0.97319 0.41809 0.32414 0.0
H2219 H 0.06159 0.46093 0.32182 0.0
H2220 H 0.06826 0.4816 0.30003 0.0
H2221 H 0.06067 0.4578 0.28454 0.0
C2222 C 0.61465 0.63295 0.35216 0.0
C2223 C 0.62404 0.64315 0.32795 0.0
C2224 C 0.59868 0.6135 0.35046 0.0
C2225 C 0.59188 0.60416 0.32392 0.0
C2226 C 0.60136 0.61441 0.29946 0.0
C2227 C 0.61731 0.63369 0.3018 0.0
C2228 C 0.58909 0.60298 0.37694 0.0
C2229 C 0.59459 0.60506 0.27064 0.0
C2230 C 0.56332 0.55053 0.30314 0.0
C2231 C 0.54618 0.54881 0.29417 0.0
C2232 C 0.57771 0.56786 0.31669 0.0
C2233 C 0.57482 0.58375 0.321 0.0
C2234 C 0.55638 0.58082 0.31578 0.0
C2235 C 0.5422 0.56326 0.30245 0.0
C2236 C 0.59695 0.57012 0.32253 0.0
C2237 C 0.55254 0.59723 0.32027 0.0
H2238 H 0.6198 0.64013 0.37248 0.0
H2239 H 0.62443 0.64143 0.28298 0.0
H2240 H 0.57379 0.59891 0.37724 0.0
H2241 H 0.58906 0.58911 0.37774 0.0
H2242 H 0.59641 0.61212 0.39597 0.0
H2243 H 0.60339 0.61513 0.25377 0.0
H2244 H 0.5953 0.5916 0.26851 0.0
H2245 H 0.57931 0.60058 0.2675 0.0
H2246 H 0.56645 0.53941 0.29645 0.0
H2247 H 0.52901 0.56199 0.2952 0.0
H2248 H 0.60354 0.57902 0.34196 0.0
H2249 H 0.60695 0.57786 0.30504 0.0
H2250 H 0.59553 0.5556 0.32443 0.0
H2251 H 0.55947 0.60584 0.33976 0.0
H2252 H 0.53682 0.59151 0.32121 0.0
H2253 H 0.55874 0.6074 0.30261 0.0
C2254 C 0.37418 0.98515 0.29732 0.0
C2255 C 0.36292 0.97705 0.32122 0.0
C2256 C 0.39151 0.98566 0.29335 0.0
C2257 C 0.39786 0.97789 0.31385 0.0
C2258 C 0.38675 0.96991 0.33825 0.0
C2259 C 0.36936 0.96955 0.34165 0.0
C2260 C 0.40292 0.99437 0.26695 0.0
C2261 C 0.39306 0.96152 0.36052 0.0
C2262 C 0.43228 0.96646 0.2781 0.0
C2263 C 0.44951 0.98472 0.28118 0.0
C2264 C 0.41544 0.96288 0.29184 0.0
C2265 C 0.41601 0.978 0.30884 0.0
C2266 C 0.43403 0.99529 0.31517 0.0
C2267 C 0.45065 0.99847 0.30114 0.0
C2268 C 0.39664 0.94409 0.28484 0.0
C2269 C 0.43537 0.01166 0.33353 0.0
H2270 H 0.36938 0.99102 0.28145 0.0
H2271 H 0.36074 0.96325 0.3602 0.0
H2272 H 0.41775 0.00662 0.27227 0.0
H2273 H 0.40423 0.98306 0.25485 0.0
H2274 H 0.39612 1.00006 0.25333 0.0
H2275 H 0.38371 0.95742 0.3793 0.0
H2276 H 0.39263 0.94821 0.35203 0.0
H2277 H 0.4082 0.97228 0.3669 0.0
H2278 H 0.43142 0.95594 0.26239 0.0
H2279 H 0.46396 0.01268 0.30323 0.0
H2280 H 0.38896 0.94697 0.26852 0.0
H2281 H 0.38711 0.93866 0.30338 0.0
H2282 H 0.39904 0.93237 0.27672 0.0
H2283 H 0.43115 0.02035 0.32122 0.0
H2284 H 0.45031 0.02174 0.34143 0.0
H2285 H 0.42542 0.00573 0.35156 0.0
C2286 C 0.61738 0.98598 0.28622 0.0
C2287 C 0.6234 0.98435 0.31273 0.0
C2288 C 0.60196 0.98888 0.28303 0.0
C2289 C 0.59228 0.9903 0.30697 0.0
C2290 C 0.59813 0.98851 0.33384 0.0
C2291 C 0.61361 0.9855 0.33641 0.0
C2292 C 0.59615 0.99058 0.25391 0.0
C2293 C 0.58826 0.99007 0.35981 0.0
C2294 C 0.56727 0.01673 0.28726 0.0
C2295 C 0.54929 1.00085 0.27842 0.0
C2296 C 0.58084 0.01357 0.29985 0.0
C2297 C 0.57633 0.99406 0.30328 0.0
C2298 C 0.55734 0.97812 0.29749 0.0
C2299 C 0.54399 0.98173 0.28511 0.0
C2300 C 0.60077 0.03103 0.30614 0.0
C2301 C 0.55182 0.9571 0.30098 0.0
H2302 H 0.62477 0.98504 0.26779 0.0
H2303 H 0.61818 0.98431 0.357 0.0
H2304 H 0.58069 0.97932 0.25018 0.0
H2305 H 0.59793 0.00522 0.25169 0.0
H2306 H 0.60485 0.98867 0.23748 0.0
H2307 H 0.59389 0.98741 0.37907 0.0
H2308 H 0.59037 0.00495 0.36163 0.0
H2309 H 0.57248 0.97934 0.35843 0.0
H2310 H 0.57144 0.03149 0.2817 0.0
H2311 H 0.5302 0.96944 0.27785 0.0
H2312 H 0.61072 0.03237 0.28906 0.0
H2313 H 0.6065 0.02913 0.32586 0.0
H2314 H 0.60082 0.04495 0.30778 0.0
H2315 H 0.55778 0.95261 0.2833 0.0
H2316 H 0.5359 0.94689 0.30116 0.0
H2317 H 0.55794 0.95553 0.32055 0.0
C2318 C 0.02137 0.6418 0.31821 0.0
C2319 C 0.01854 0.64664 0.34552 0.0
C2320 C 0.0184 0.62322 0.31133 0.0
C2321 C 0.01243 0.60903 0.33227 0.0
C2322 C 0.00976 0.61385 0.35997 0.0
C2323 C 0.01284 0.63261 0.36628 0.0
C2324 C 0.02148 0.61874 0.28148 0.0
C2325 C 0.00342 0.59911 0.3828 0.0
C2326 C 0.98888 0.55871 0.29735 0.0
C2327 C 0.00489 0.55681 0.2933 0.0
C2328 C 0.99053 0.57469 0.31294 0.0
C2329 C 0.00867 0.58911 0.32446 0.0
C2330 C 0.02419 0.58585 0.3233 0.0
C2331 C 0.0221 0.56968 0.30764 0.0
C2332 C 0.97352 0.57739 0.31395 0.0
C2333 C 0.04371 0.60069 0.33554 0.0
H2334 H 0.02582 0.65253 0.30203 0.0
H2335 H 0.01063 0.63621 0.38745 0.0
H2336 H 0.03237 0.61439 0.28075 0.0
H2337 H 0.00782 0.60617 0.27276 0.0
H2338 H 0.02644 0.6315 0.26783 0.0
H2339 H 1.00287 0.60544 0.40354 0.0
H2340 H 0.98887 0.5862 0.37786 0.0
H2341 H 0.01341 0.59367 0.38411 0.0
H2342 H 0.97566 0.54888 0.28589 0.0
H2343 H 0.03456 0.56835 0.3041 0.0
H2344 H 0.97562 0.58832 0.29836 0.0
H2345 H 0.9723 0.58309 0.33479 0.0
H2346 H 0.95975 0.56341 0.30904 0.0
H2347 H 0.05131 0.61329 0.32141 0.0
H2348 H 0.0528 0.59425 0.33801 0.0
H2349 H 0.04224 0.60651 0.35614 0.0
C2350 C 0.36929 0.39781 0.35386 0.0
C2351 C 0.35763 0.38302 0.33404 0.0
C2352 C 0.38731 0.41407 0.34641 0.0
C2353 C 0.39385 0.41547 0.31856 0.0
C2354 C 0.38201 0.40073 0.2984 0.0
C2355 C 0.36405 0.38476 0.30636 0.0
C2356 C 0.39947 0.42958 0.36837 0.0
C2357 C 0.38846 0.40162 0.26845 0.0
C2358 C 0.43263 0.46128 0.28332 0.0
C2359 C 0.44751 0.45744 0.2815 0.0
C2360 C 0.41554 0.44865 0.29777 0.0
C2361 C 0.41336 0.43178 0.31028 0.0
C2362 C 0.42914 0.42897 0.31064 0.0
C2363 C 0.44605 0.44185 0.29612 0.0
C2364 C 0.39916 0.45232 0.29718 0.0
C2365 C 0.4275 0.41123 0.32374 0.0
H2366 H 0.36441 0.39665 0.37528 0.0
H2367 H 0.35515 0.37345 0.29088 0.0
H2368 H 0.41303 0.4298 0.3717 0.0
H2369 H 0.40358 0.44435 0.36123 0.0
H2370 H 0.39183 0.42696 0.38867 0.0
H2371 H 0.37739 0.38917 0.25526 0.0
H2372 H 0.39169 0.41559 0.25924 0.0
H2373 H 0.40194 0.40134 0.26768 0.0
H2374 H 0.4337 0.47317 0.27153 0.0
H2375 H 0.45751 0.43877 0.29422 0.0
H2376 H 0.39186 0.4494 0.31775 0.0
H2377 H 0.38827 0.44216 0.28151 0.0
H2378 H 0.40423 0.46765 0.29148 0.0
H2379 H 0.42057 0.40872 0.34456 0.0
H2380 H 0.44181 0.41281 0.3261 0.0
H2381 H 0.41825 0.39797 0.31037 0.0
C2382 C 0.31605 0.27815 0.38627 0.0
C2383 C 0.3147 0.28473 0.36013 0.0
C2384 C 0.31924 0.26263 0.38851 0.0
C2385 C 0.32135 0.25352 0.36397 0.0
C2386 C 0.32016 0.26016 0.33748 0.0
C2387 C 0.31674 0.27563 0.33586 0.0
C2388 C 0.32024 0.25592 0.41726 0.0
C2389 C 0.32254 0.25097 0.31093 0.0
C2390 C 0.34568 0.22664 0.38443 0.0
C2391 C 0.32956 0.20842 0.39123 0.0
C2392 C 0.34341 0.24099 0.37203 0.0
C2393 C 0.32456 0.23693 0.3667 0.0
C2394 C 0.3085 0.21762 0.37005 0.0
C2395 C 0.31122 0.20353 0.38228 0.0
C2396 C 0.36098 0.26123 0.36825 0.0
C2397 C 0.28816 0.21255 0.36448 0.0
H2398 H 0.31444 0.28502 0.40512 0.0
H2399 H 0.31582 0.28069 0.31556 0.0
H2400 H 0.30902 0.24012 0.4193 0.0
H2401 H 0.33447 0.2575 0.42037 0.0
H2402 H 0.31813 0.26443 0.4342 0.0
H2403 H 0.32132 0.25788 0.29196 0.0
H2404 H 0.33684 0.25237 0.31087 0.0
H2405 H 0.31144 0.23502 0.30981 0.0
H2406 H 0.35983 0.23049 0.39175 0.0
H2407 H 0.29874 0.18952 0.38797 0.0
H2408 H 0.3622 0.27095 0.38622 0.0
H2409 H 0.35977 0.26785 0.34898 0.0
H2410 H 0.37443 0.26086 0.36725 0.0
H2411 H 0.28336 0.21829 0.38212 0.0
H2412 H 0.27794 0.19639 0.36247 0.0
H2413 H 0.28743 0.21943 0.34519 0.0
C2414 C 0.73199 0.04574 0.312 0.0
C2415 C 0.72014 0.0336 0.33339 0.0
C2416 C 0.74817 0.06454 0.31814 0.0
C2417 C 0.75255 0.07131 0.3463 0.0
C2418 C 0.74074 0.05902 0.36795 0.0
C2419 C 0.72473 0.04037 0.36123 0.0
C2420 C 0.76045 0.07721 0.29456 0.0
C2421 C 0.74487 0.06565 0.39833 0.0
C2422 C 0.79996 0.11085 0.37784 0.0
C2423 C 0.79539 0.12496 0.38556 0.0
C2424 C 0.78694 0.09401 0.36192 0.0
C2425 C 0.76906 0.09139 0.35372 0.0
C2426 C 0.76566 0.1069 0.35837 0.0
C2427 C 0.77889 0.12353 0.37437 0.0
C2428 C 0.79129 0.07798 0.35708 0.0
C2429 C 0.74693 0.10489 0.34975 0.0
H2430 H 0.72857 0.04062 0.29042 0.0
H2431 H 0.71573 0.03111 0.37792 0.0
H2432 H 0.75972 0.09067 0.29406 0.0
H2433 H 0.77579 0.08204 0.29797 0.0
H2434 H 0.75573 0.06939 0.27392 0.0
H2435 H 0.73446 0.05419 0.41263 0.0
H2436 H 0.75965 0.06945 0.40394 0.0
H2437 H 0.74425 0.07908 0.40192 0.0
H2438 H 0.81263 0.11188 0.38681 0.0
H2439 H 0.77533 0.13441 0.38062 0.0
H2440 H 0.78625 0.07082 0.33613 0.0
H2441 H 0.78353 0.06652 0.37286 0.0
H2442 H 0.80698 0.08375 0.35904 0.0
H2443 H 0.74237 0.09782 0.32867 0.0
H2444 H 0.74811 0.11938 0.34973 0.0
H2445 H 0.73543 0.0954 0.36467 0.0
C2446 C 0.96419 0.69535 0.33996 0.0
C2447 C 0.97357 0.69518 0.36426 0.0
C2448 C 0.94538 0.69197 0.34106 0.0
C2449 C 0.93577 0.68835 0.36705 0.0
C2450 C 0.94525 0.68832 0.39164 0.0
C2451 C 0.96397 0.69172 0.38992 0.0
C2452 C 0.93573 0.69204 0.31444 0.0
C2453 C 0.93557 0.68454 0.41989 0.0
C2454 C 0.8951 0.69525 0.38905 0.0
C2455 C 0.8806 0.67571 0.39371 0.0
C2456 C 0.91272 0.69976 0.37688 0.0
C2457 C 0.9157 0.68429 0.36919 0.0
C2458 C 0.89997 0.66456 0.36991 0.0
C2459 C 0.88255 0.66049 0.38225 0.0
C2460 C 0.92895 0.72101 0.3761 0.0
C2461 C 0.90232 0.64759 0.36146 0.0
H2462 H 0.97148 0.69798 0.32001 0.0
H2463 H 0.97106 0.69157 0.40881 0.0
H2464 H 0.92285 0.67721 0.31017 0.0
H2465 H 0.93061 0.70242 0.31669 0.0
H2466 H 0.94555 0.69622 0.29617 0.0
H2467 H 0.94507 0.68541 0.43702 0.0
H2468 H 0.9313 0.69542 0.4246 0.0
H2469 H 0.92222 0.66972 0.41973 0.0
H2470 H 0.89367 0.70701 0.39821 0.0
H2471 H 0.87139 0.64537 0.38613 0.0
H2472 H 0.93792 0.7238 0.35715 0.0
H2473 H 0.93843 0.72454 0.39458 0.0
H2474 H 0.92341 0.73109 0.37666 0.0
H2475 H 0.91142 0.65095 0.34254 0.0
H2476 H 0.88815 0.63388 0.35737 0.0
H2477 H 0.9096 0.6449 0.37861 0.0
C2478 C 0.3902 0.02608 0.72621 0.0
C2479 C 0.38698 0.03014 0.69927 0.0
C2480 C 0.40554 0.02345 0.73176 0.0
C2481 C 0.41817 0.02507 0.7099 0.0
C2482 C 0.41522 0.02946 0.68271 0.0
C2483 C 0.39958 0.03186 0.67767 0.0
C2484 C 0.40805 0.01863 0.76108 0.0
C2485 C 0.42846 0.03147 0.65896 0.0
C2486 C 0.4639 0.03198 0.74076 0.0
C2487 C 0.4588 0.01238 0.74252 0.0
C2488 C 0.45165 0.0367 0.72739 0.0
C2489 C 0.4339 0.02138 0.71585 0.0
C2490 C 0.4298 1.00182 0.71504 0.0
C2491 C 0.44231 0.99756 0.72849 0.0
C2492 C 0.45671 0.05777 0.72839 0.0
C2493 C 0.41113 0.98503 0.70291 0.0
H2494 H 0.38056 0.0247 0.74304 0.0
H2495 H 0.39725 0.03509 0.65681 0.0
H2496 H 0.4069 0.00417 0.76092 0.0
H2497 H 0.42261 0.02981 0.76917 0.0
H2498 H 0.39709 0.01808 0.77575 0.0
H2499 H 0.42477 0.03584 0.63936 0.0
H2500 H 0.44365 0.04258 0.66464 0.0
H2501 H 0.42762 0.01729 0.65499 0.0
H2502 H 0.47651 0.04338 0.75202 0.0
H2503 H 0.43829 0.98237 0.73025 0.0
H2504 H 0.44832 0.05973 0.74524 0.0
H2505 H 0.45291 0.06161 0.70844 0.0
H2506 H 0.47232 0.06818 0.7327 0.0
H2507 H 0.39916 0.98162 0.71759 0.0
H2508 H 0.41167 0.97153 0.69942 0.0
H2509 H 0.4077 0.98907 0.68283 0.0
C2510 C 0.9867 0.37131 0.65515 0.0
C2511 C 0.98538 0.35884 0.67622 0.0
C2512 C 0.98782 0.38916 0.66181 0.0
C2513 C 0.98803 0.39483 0.69017 0.0
C2514 C 0.98632 0.38209 0.71146 0.0
C2515 C 0.98485 0.36423 0.70421 0.0
C2516 C 0.98922 0.40214 0.63856 0.0
C2517 C 0.9867 0.38763 0.74203 0.0
C2518 C 0.01354 0.44695 0.71898 0.0
C2519 C 0.99793 0.4481 0.72905 0.0
C2520 C 0.01055 0.43033 0.70367 0.0
C2521 C 0.99144 0.41458 0.69821 0.0
C2522 C 0.9757 0.41676 0.70546 0.0
C2523 C 0.97914 0.43352 0.72106 0.0
C2524 C 0.02778 0.42871 0.69644 0.0
C2525 C 0.95515 0.40053 0.69939 0.0
H2526 H 0.98694 0.36716 0.63345 0.0
H2527 H 0.98384 0.35471 0.72062 0.0
H2528 H 0.97872 0.40686 0.6419 0.0
H2529 H 0.00384 0.41563 0.63851 0.0
H2530 H 0.98651 0.39461 0.61773 0.0
H2531 H 0.98485 0.37592 0.75596 0.0
H2532 H 1.00064 0.40132 0.7472 0.0
H2533 H 0.97505 0.3906 0.74658 0.0
H2534 H 0.02806 0.4582 0.72546 0.0
H2535 H 0.96706 0.43434 0.72914 0.0
H2536 H 0.02645 0.4225 0.67498 0.0
H2537 H 0.02849 0.41859 0.71103 0.0
H2538 H 0.04155 0.44319 0.69809 0.0
H2539 H 0.9539 0.39372 0.67836 0.0
H2540 H 0.94513 0.40602 0.70066 0.0
H2541 H 0.95051 0.38888 0.71493 0.0
C2542 C 0.63687 0.62156 0.67571 0.0
C2543 C 0.65015 0.62595 0.69729 0.0
C2544 C 0.61729 0.60666 0.67846 0.0
C2545 C 0.61077 0.59646 0.70377 0.0
C2546 C 0.62421 0.60084 0.72552 0.0
C2547 C 0.64375 0.61528 0.72182 0.0
C2548 C 0.60359 0.602 0.65446 0.0
C2549 C 0.61788 0.59068 0.75315 0.0
C2550 C 0.56093 0.57537 0.73404 0.0
C2551 C 0.55482 0.5554 0.73506 0.0
C2552 C 0.57845 0.58888 0.72139 0.0
C2553 C 0.58983 0.58213 0.70876 0.0
C2554 C 0.58225 0.56161 0.70608 0.0
C2555 C 0.56484 0.54843 0.71957 0.0
C2556 C 0.58588 0.61056 0.72502 0.0
C2557 C 0.59351 0.55373 0.69171 0.0
H2558 H 0.64182 0.62966 0.65658 0.0
H2559 H 0.65395 0.61868 0.73858 0.0
H2560 H 0.59461 0.58587 0.65042 0.0
H2561 H 0.59364 0.60715 0.65984 0.0
H2562 H 0.61134 0.60916 0.63498 0.0
H2563 H 0.6301 0.59597 0.76802 0.0
H2564 H 0.60691 0.59323 0.76291 0.0
H2565 H 0.61106 0.57458 0.74979 0.0
H2566 H 0.55314 0.58074 0.74605 0.0
H2567 H 0.56019 0.53301 0.72036 0.0
H2568 H 0.59263 0.61842 0.70554 0.0
H2569 H 0.59714 0.61702 0.74158 0.0
H2570 H 0.57423 0.61323 0.73119 0.0
H2571 H 0.60082 0.56214 0.67278 0.0
H2572 H 0.58404 0.53791 0.68565 0.0
H2573 H 0.60481 0.55526 0.7061 0.0
C2574 C 0.68577 0.72806 0.6263 0.0
C2575 C 0.69418 0.7257 0.65001 0.0
C2576 C 0.685 0.74501 0.62311 0.0
C2577 C 0.69281 0.76009 0.64418 0.0
C2578 C 0.70134 0.75786 0.66821 0.0
C2579 C 0.70194 0.74069 0.67085 0.0
C2580 C 0.67577 0.74674 0.59706 0.0
C2581 C 0.70978 0.77359 0.69108 0.0
C2582 C 0.70203 0.80709 0.61327 0.0
C2583 C 0.68415 0.80527 0.61782 0.0
C2584 C 0.70607 0.79362 0.62453 0.0
C2585 C 0.6918 0.77799 0.64053 0.0
C2586 C 0.67473 0.77767 0.648 0.0
C2587 C 0.67107 0.79132 0.63642 0.0
C2588 C 0.72455 0.79469 0.61625 0.0
C2589 C 0.65921 0.76145 0.66524 0.0
H2590 H 0.67975 0.71662 0.61007 0.0
H2591 H 0.70846 0.73901 0.68926 0.0
H2592 H 0.66344 0.7484 0.60282 0.0
H2593 H 0.68635 0.76005 0.58569 0.0
H2594 H 0.67043 0.73374 0.58264 0.0
H2595 H 0.71596 0.76967 0.70841 0.0
H2596 H 0.72131 0.78771 0.68246 0.0
H2597 H 0.69848 0.77606 0.69968 0.0
H2598 H 0.71197 0.81767 0.59846 0.0
H2599 H 0.6571 0.78971 0.6395 0.0
H2600 H 0.72148 0.78382 0.599 0.0
H2601 H 0.7306 0.79101 0.63395 0.0
H2602 H 0.7356 0.80952 0.60893 0.0
H2603 H 0.65099 0.74792 0.6519 0.0
H2604 H 0.64893 0.76542 0.67386 0.0
H2605 H 0.66559 0.75797 0.68274 0.0
C2606 C 0.28522 0.97179 0.64872 0.0
C2607 C 0.29242 0.97796 0.67597 0.0
C2608 C 0.26876 0.95317 0.64319 0.0
C2609 C 0.25907 0.94032 0.66547 0.0
C2610 C 0.26609 0.9465 0.6931 0.0
C2611 C 0.28273 0.96522 0.69801 0.0
C2612 C 0.26186 0.94716 0.61333 0.0
C2613 C 0.25611 0.9333 0.71738 0.0
C2614 C 0.20879 0.90131 0.64163 0.0
C2615 C 0.21219 0.88704 0.63031 0.0
C2616 C 0.22343 0.91798 0.6562 0.0
C2617 C 0.24185 0.92038 0.65921 0.0
C2618 C 0.24446 0.90476 0.65088 0.0
C2619 C 0.22955 0.88824 0.63649 0.0
C2620 C 0.21987 0.93407 0.66517 0.0
C2621 C 0.26375 0.90654 0.65381 0.0
H2622 H 0.29258 0.98147 0.63153 0.0
H2623 H 0.28814 0.96985 0.71916 0.0
H2624 H 0.26194 0.93372 0.60707 0.0
H2625 H 0.24677 0.94358 0.61145 0.0
H2626 H 0.27097 0.95888 0.59843 0.0
H2627 H 0.26295 0.94054 0.73771 0.0
H2628 H 0.24071 0.92887 0.718 0.0
H2629 H 0.25642 0.91964 0.7147 0.0
H2630 H 0.19549 0.90055 0.63642 0.0
H2631 H 0.23228 0.87736 0.62727 0.0
H2632 H 0.2262 0.94578 0.64952 0.0
H2633 H 0.22687 0.94085 0.68557 0.0
H2634 H 0.20419 0.92846 0.66683 0.0
H2635 H 0.27364 0.91619 0.63736 0.0
H2636 H 0.26242 0.89201 0.65149 0.0
H2637 H 0.27046 0.91334 0.67434 0.0
C2638 C 0.04357 0.31622 0.62761 0.0
C2639 C 0.03616 0.316 0.65428 0.0
C2640 C 0.06244 0.32033 0.62405 0.0
C2641 C 0.07436 0.32449 0.64776 0.0
C2642 C 0.06705 0.3244 0.67479 0.0
C2643 C 0.04798 0.32008 0.67775 0.0
C2644 C 0.06959 0.32017 0.59477 0.0
C2645 C 0.07938 0.32892 0.70047 0.0
C2646 C 0.11411 0.31613 0.62617 0.0
C2647 C 0.12739 0.33453 0.61541 0.0
C2648 C 0.09754 0.31306 0.64024 0.0
C2649 C 0.09438 0.32883 0.64356 0.0
C2650 C 0.10921 0.34803 0.63636 0.0
C2651 C 0.12556 0.35064 0.62216 0.0
C2652 C 0.08224 0.29238 0.6478 0.0
C2653 C 0.10666 0.36535 0.64 0.0
H2654 H 0.03456 0.31305 0.60936 0.0
H2655 H 0.04238 0.31999 0.69844 0.0
H2656 H 0.08237 0.33483 0.59025 0.0
H2657 H 0.07416 0.30933 0.59287 0.0
H2658 H 0.0584 0.31641 0.57863 0.0
H2659 H 0.07154 0.32817 0.72002 0.0
H2660 H 0.08432 0.31841 0.70159 0.0
H2661 H 0.09249 0.34386 0.69925 0.0
H2662 H 0.11543 0.30364 0.62058 0.0
H2663 H 0.13576 0.36482 0.61351 0.0
H2664 H 0.07104 0.28585 0.63118 0.0
H2665 H 0.07505 0.29228 0.66769 0.0
H2666 H 0.08838 0.28291 0.64974 0.0
H2667 H 0.09754 0.36503 0.62274 0.0
H2668 H 0.12074 0.37953 0.6395 0.0
H2669 H 0.09929 0.36469 0.65995 0.0
C2670 C 0.28933 0.32204 0.6227 0.0
C2671 C 0.29194 0.31598 0.64854 0.0
C2672 C 0.27355 0.32407 0.61785 0.0
C2673 C 0.25995 0.32001 0.6394 0.0
C2674 C 0.2625 0.31401 0.66564 0.0
C2675 C 0.27847 0.31201 0.6699 0.0
C2676 C 0.27141 0.3305 0.58948 0.0
C2677 C 0.24836 0.30966 0.68911 0.0
C2678 C 0.23258 0.34459 0.62295 0.0
C2679 C 0.21721 0.32965 0.60719 0.0
C2680 C 0.24559 0.34107 0.63654 0.0
C2681 C 0.24323 0.32222 0.63386 0.0
C2682 C 0.22649 0.30659 0.62053 0.0
C2683 C 0.21366 0.31052 0.60725 0.0
C2684 C 0.26307 0.35811 0.6508 0.0
C2685 C 0.22333 0.28626 0.61729 0.0
H2686 H 0.29961 0.32512 0.60605 0.0
H2687 H 0.28037 0.30732 0.68994 0.0
H2688 H 0.25742 0.31918 0.57989 0.0
H2689 H 0.27139 0.34434 0.5917 0.0
H2690 H 0.2832 0.33297 0.57495 0.0
H2691 H 0.2525 0.30536 0.70837 0.0
H2692 H 0.24742 0.32278 0.69407 0.0
H2693 H 0.23373 0.29759 0.68256 0.0
H2694 H 0.23544 0.35945 0.62249 0.0
H2695 H 0.20193 0.29908 0.59462 0.0
H2696 H 0.27569 0.36366 0.63666 0.0
H2697 H 0.26662 0.35345 0.6702 0.0
H2698 H 0.26084 0.37042 0.65606 0.0
H2699 H 0.23288 0.28623 0.60056 0.0
H2700 H 0.20814 0.27509 0.61153 0.0
H2701 H 0.22704 0.28189 0.63683 0.0
C2702 C 0.68459 0.97194 0.69863 0.0
C2703 C 0.6869 0.98448 0.67702 0.0
C2704 C 0.68225 0.95343 0.69279 0.0
C2705 C 0.68219 0.94733 0.6647 0.0
C2706 C 0.68466 0.96 0.64285 0.0
C2707 C 0.68699 0.97837 0.64928 0.0
C2708 C 0.67968 0.94035 0.71659 0.0
C2709 C 0.68468 0.95409 0.61255 0.0
C2710 C 0.69289 0.90927 0.63721 0.0
C2711 C 0.67462 0.89465 0.62732 0.0
C2712 C 0.69539 0.92579 0.6524 0.0
C2713 C 0.67922 0.92764 0.65754 0.0
C2714 C 0.66047 0.91172 0.65049 0.0
C2715 C 0.65841 0.8954 0.63534 0.0
C2716 C 0.7156 0.94228 0.65981 0.0
C2717 C 0.6428 0.91292 0.65578 0.0
H2718 H 0.68451 0.97653 0.72015 0.0
H2719 H 0.68879 0.98792 0.63243 0.0
H2720 H 0.66537 0.92651 0.71492 0.0
H2721 H 0.69076 0.93626 0.71542 0.0
H2722 H 0.68077 0.94753 0.73731 0.0
H2723 H 0.68697 0.96572 0.59809 0.0
H2724 H 0.69624 0.95085 0.60894 0.0
H2725 H 0.67073 0.94048 0.60719 0.0
H2726 H 0.70544 0.90882 0.63056 0.0
H2727 H 0.64433 0.88421 0.62723 0.0
H2728 H 0.71598 0.94894 0.68064 0.0
H2729 H 0.72059 0.95397 0.64425 0.0
H2730 H 0.72588 0.93712 0.65975 0.0
H2731 H 0.64346 0.91957 0.67674 0.0
H2732 H 0.62931 0.89821 0.65416 0.0
H2733 H 0.64214 0.92246 0.64007 0.0
C2734 C 0.03273 0.71771 0.64226 0.0
C2735 C 0.02433 0.71581 0.66864 0.0
C2736 C 0.0505 0.73451 0.63576 0.0
C2737 C 0.06016 0.74991 0.65608 0.0
C2738 C 0.0518 0.74815 0.68277 0.0
C2739 C 0.03397 0.73109 0.68876 0.0
C2740 C 0.05893 0.73576 0.60701 0.0
C2741 C 0.06165 0.76428 0.70489 0.0
C2742 C 0.11288 0.78156 0.63733 0.0
C2743 C 0.11253 0.79541 0.62064 0.0
C2744 C 0.09627 0.7677 0.65161 0.0
C2745 C 0.07898 0.76773 0.64886 0.0
C2746 C 0.07925 0.78308 0.63447 0.0
C2747 C 0.09605 0.79671 0.62034 0.0
C2748 C 0.09669 0.75171 0.66687 0.0
C2749 C 0.06122 0.7838 0.63123 0.0
H2750 H 0.02543 0.70602 0.62657 0.0
H2751 H 0.02757 0.72977 0.70919 0.0
H2752 H 0.06087 0.74878 0.59633 0.0
H2753 H 0.07339 0.73763 0.60879 0.0
H2754 H 0.04965 0.72245 0.59369 0.0
H2755 H 0.05331 0.76061 0.72467 0.0
H2756 H 0.07623 0.76708 0.70937 0.0
H2757 H 0.06362 0.77817 0.6972 0.0
H2758 H 0.12556 0.78039 0.63708 0.0
H2759 H 0.09575 0.80724 0.60698 0.0
H2760 H 0.08975 0.73802 0.65367 0.0
H2761 H 0.08849 0.74845 0.68668 0.0
H2762 H 0.1117 0.75577 0.67158 0.0
H2763 H 0.05163 0.77249 0.61542 0.0
H2764 H 0.0646 0.79839 0.62426 0.0
H2765 H 0.05313 0.78048 0.65116 0.0
C2766 C 0.98501 0.61201 0.716 0.0
C2767 C 0.98241 0.61687 0.68925 0.0
C2768 C 0.9877 0.59631 0.7199 0.0
C2769 C 0.98803 0.58523 0.69642 0.0
C2770 C 0.98555 0.5901 0.66929 0.0
C2771 C 0.98266 0.60582 0.66602 0.0
C2772 C 0.99012 0.59155 0.7493 0.0
C2773 C 0.98605 0.57879 0.64379 0.0
C2774 C 0.01218 0.55858 0.71885 0.0
C2775 C 0.99621 0.54119 0.72844 0.0
C2776 C 0.0097 0.57229 0.7049 0.0
C2777 C 0.99081 0.56852 0.70097 0.0
C2778 C 0.97467 0.54986 0.7075 0.0
C2779 C 0.97759 0.53636 0.72117 0.0
C2780 C 0.02732 0.5918 0.69775 0.0
C2781 C 0.95428 0.54513 0.70364 0.0
H2782 H 0.98478 0.62039 0.73408 0.0
H2783 H 0.98075 0.60955 0.64525 0.0
H2784 H 0.97878 0.57614 0.75379 0.0
H2785 H 0.00431 0.59287 0.75146 0.0
H2786 H 0.98924 0.60143 0.76528 0.0
H2787 H 0.98393 0.58444 0.62413 0.0
H2788 H 1.00011 0.57968 0.64273 0.0
H2789 H 0.97465 0.56301 0.64522 0.0
H2790 H 0.02657 0.56242 0.72488 0.0
H2791 H 0.96526 0.52302 0.72904 0.0
H2792 H 0.02981 0.6029 0.71438 0.0
H2793 H 0.02526 0.59711 0.67777 0.0
H2794 H 0.04043 0.59085 0.69618 0.0
H2795 H 0.95078 0.55244 0.72074 0.0
H2796 H 0.94365 0.52904 0.7042 0.0
H2797 H 0.95268 0.55069 0.68359 0.0
C2798 C 0.38708 0.37211 0.72147 0.0
C2799 C 0.38213 0.36004 0.6973 0.0
C2800 C 0.40467 0.39017 0.72354 0.0
C2801 C 0.41774 0.39648 0.7008 0.0
C2802 C 0.41284 0.38448 0.67621 0.0
C2803 C 0.39508 0.36636 0.67475 0.0
C2804 C 0.40927 0.40246 0.75026 0.0
C2805 C 0.42636 0.39072 0.65158 0.0
C2806 C 0.45182 0.45107 0.71078 0.0
C2807 C 0.46573 0.45138 0.72801 0.0
C2808 C 0.43714 0.43335 0.69839 0.0
C2809 C 0.43648 0.41565 0.70351 0.0
C2810 C 0.45219 0.4165 0.71733 0.0
C2811 C 0.46669 0.43444 0.72945 0.0
C2812 C 0.42092 0.43324 0.68338 0.0
C2813 C 0.45229 0.3981 0.72295 0.0
H2814 H 0.37722 0.3674 0.739 0.0
H2815 H 0.39138 0.35714 0.65597 0.0
H2816 H 0.4227 0.40481 0.75974 0.0
H2817 H 0.41178 0.41715 0.7457 0.0
H2818 H 0.39749 0.3955 0.76589 0.0
H2819 H 0.42014 0.38005 0.63362 0.0
H2820 H 0.42986 0.40535 0.64468 0.0
H2821 H 0.44015 0.39219 0.65778 0.0
H2822 H 0.45094 0.46412 0.70997 0.0
H2823 H 0.47731 0.43464 0.74308 0.0
H2824 H 0.40872 0.42884 0.69805 0.0
H2825 H 0.41553 0.42249 0.66552 0.0
H2826 H 0.42553 0.44802 0.67562 0.0
H2827 H 0.44274 0.39063 0.74097 0.0
H2828 H 0.46703 0.40152 0.72809 0.0
H2829 H 0.4467 0.38767 0.70472 0.0
C2830 C 0.63067 0.0297 0.69457 0.0
C2831 C 0.63421 0.02734 0.66641 0.0
C2832 C 0.61238 0.02527 0.70355 0.0
C2833 C 0.59715 0.01836 0.68389 0.0
C2834 C 0.60068 0.01637 0.65532 0.0
C2835 C 0.61917 0.02083 0.64691 0.0
C2836 C 0.60928 0.02759 0.73428 0.0
C2837 C 0.58485 0.00917 0.63377 0.0
C2838 C 0.54983 0.98968 0.72189 0.0
C2839 C 0.5463 0.00463 0.72908 0.0
C2840 C 0.56527 0.99334 0.70441 0.0
C2841 C 0.57747 0.01245 0.69403 0.0
C2842 C 0.57248 0.02685 0.69851 0.0
C2843 C 0.5569 0.02276 0.71611 0.0
C2844 C 0.56989 0.97747 0.70001 0.0
C2845 C 0.58489 0.0473 0.6875 0.0
H2846 H 0.64216 0.03476 0.70982 0.0
H2847 H 0.62177 0.01901 0.62508 0.0
H2848 H 0.60377 0.0376 0.73731 0.0
H2849 H 0.59825 0.01313 0.74267 0.0
H2850 H 0.62273 0.03356 0.74674 0.0
H2851 H 0.59032 0.01008 0.61214 0.0
H2852 H 0.57355 0.99364 0.63761 0.0
H2853 H 0.57784 0.01789 0.63548 0.0
H2854 H 0.54168 0.97571 0.73217 0.0
H2855 H 0.55429 0.03438 0.72195 0.0
H2856 H 0.58205 0.98063 0.71391 0.0
H2857 H 0.57445 0.97712 0.67818 0.0
H2858 H 0.55734 0.9627 0.70487 0.0
H2859 H 0.59791 0.05582 0.70091 0.0
H2860 H 0.57705 0.05524 0.68758 0.0
H2861 H 0.58983 0.04683 0.66595 0.0
loop_
_geom_bond_atom_site_label_1
_geom_bond_atom_site_label_2
_geom_bond_distance
_geom_bond_site_symmetry_2
_ccdc_geom_bond_type
C0 O1 1.160 . S
C0 O7 1.185 . S
O1 C0 1.160 . S
O2 Zn3 1.899 1_656 S
O2 C10 1.289 . S
Zn3 O2 1.899 1_454 S
Zn3 O4 2.032 . S
Zn3 O7 2.086 . S
Zn3 O12 1.977 1_554 S
O4 Zn3 2.032 . S
O4 C8 1.278 1_455 S
C5 O6 1.203 1_455 S
C5 O12 1.267 . S
O6 C5 1.203 1_655 S
O7 C0 1.185 . S
O7 Zn3 2.086 . S
C8 O4 1.278 1_655 S
C8 O9 1.211 . S
O9 C8 1.211 . S
C10 O2 1.289 . S
C10 O11 1.265 1_556 S
O11 C10 1.265 1_554 S
O12 Zn3 1.977 1_556 S
O12 C5 1.267 . S
C13 O14 1.160 . S
C13 O20 1.185 1_556 S
O14 C13 1.160 . S
O15 Zn16 1.899 . S
O15 C23 1.284 . S
Zn16 O15 1.899 . S
Zn16 O17 2.032 1_554 S
Zn16 O20 2.086 . S
Zn16 O25 1.977 . S
O17 Zn16 2.032 1_556 S
O17 C21 1.278 . S
C18 O19 1.203 . S
C18 O25 1.267 . S
O19 C18 1.203 . S
O20 C13 1.185 1_554 S
O20 Zn16 2.086 . S
C21 O17 1.278 . S
C21 O22 1.211 . S
O22 C21 1.211 . S
C23 O15 1.284 . S
C23 O24 1.273 . S
O24 C23 1.273 . S
O25 Zn16 1.977 . S
O25 C18 1.267 . S
C26 O27 1.160 . S
C26 O33 1.185 1_556 S
O27 C26 1.160 . S
O28 Zn29 1.899 1_565 S
O28 C36 1.284 . S
Zn29 O28 1.899 1_545 S
Zn29 O30 2.032 1_554 S
Zn29 O33 2.086 . S
Zn29 O38 1.977 . S
O30 Zn29 2.032 1_556 S
O30 C34 1.232 1_545 S
C31 O32 1.203 1_545 S
C31 O38 1.267 . S
O32 C31 1.203 1_565 S
O33 C26 1.185 1_554 S
O33 Zn29 2.086 . S
C34 O30 1.232 1_565 S
C34 O35 1.248 . S
O35 C34 1.248 . S
C36 O28 1.284 . S
C36 O37 1.273 . S
O37 C36 1.273 . S
O38 Zn29 1.977 . S
O38 C31 1.267 . S
C39 O40 1.160 . S
C39 O46 1.185 1_556 S
O40 C39 1.160 . S
O41 Zn42 1.899 1_455 S
O41 C49 1.284 . S
Zn42 O41 1.899 1_655 S
Zn42 O43 2.032 1_554 S
Zn42 O46 2.086 . S
Zn42 O51 1.977 . S
O43 Zn42 2.032 1_556 S
O43 C47 1.278 1_655 S
C44 O45 1.203 1_655 S
C44 O51 1.267 . S
O45 C44 1.203 1_455 S
O46 C39 1.185 1_554 S
O46 Zn42 2.086 . S
C47 O43 1.278 1_455 S
C47 O48 1.211 . S
O48 C47 1.211 . S
C49 O41 1.284 . S
C49 O50 1.273 . S
O50 C49 1.273 . S
O51 Zn42 1.977 . S
O51 C44 1.267 . S
C52 O53 1.160 . S
C52 O59 1.185 . S
O53 C52 1.160 . S
O54 Zn55 1.899 1_556 S
O54 C62 1.284 . S
Zn55 O54 1.899 1_554 S
Zn55 O56 2.032 . S
Zn55 O59 2.086 . S
Zn55 O64 1.977 1_554 S
O56 Zn55 2.032 . S
O56 C60 1.278 . S
C57 O58 1.203 . S
C57 O64 1.267 . S
O58 C57 1.203 . S
O59 C52 1.185 . S
O59 Zn55 2.086 . S
C60 O56 1.278 . S
C60 O61 1.211 . S
O61 C60 1.211 . S
C62 O54 1.284 . S
C62 O63 1.273 1_556 S
O63 C62 1.273 1_554 S
O64 Zn55 1.977 1_556 S
O64 C57 1.267 . S
C65 O66 1.160 . S
C65 O72 1.185 . S
O66 C65 1.160 . S
O67 Zn68 1.899 1_546 S
O67 C75 1.284 . S
Zn68 O67 1.899 1_564 S
Zn68 O69 2.032 . S
Zn68 O72 2.086 . S
Zn68 O77 1.977 1_554 S
O69 Zn68 2.032 . S
O69 C73 1.278 1_565 S
C70 O71 1.203 1_565 S
C70 O77 1.267 . S
O71 C70 1.203 1_545 S
O72 C65 1.185 . S
O72 Zn68 2.086 . S
C73 O69 1.278 1_545 S
C73 O74 1.211 . S
O74 C73 1.211 . S
C75 O67 1.284 . S
C75 O76 1.273 1_556 S
O76 C75 1.273 1_554 S
O77 Zn68 1.977 1_556 S
O77 C70 1.267 . S
C78 O79 1.160 . S
C78 O85 1.185 . S
O79 C78 1.160 . S
O80 Zn81 1.899 . S
O80 C88 1.284 . S
Zn81 O80 1.899 . S
Zn81 O82 2.032 . S
Zn81 O85 2.086 . S
Zn81 O90 1.977 . S
O82 Zn81 2.032 . S
O82 C86 1.278 . S
C83 O84 1.203 . S
C83 O90 1.267 . S
O84 C83 1.203 . S
O85 C78 1.185 . S
O85 Zn81 2.086 . S
C86 O82 1.278 . S
C86 O87 1.211 . S
O87 C86 1.211 . S
C88 O80 1.284 . S
C88 O89 1.273 . S
O89 C88 1.273 . S
O90 Zn81 1.977 . S
O90 C83 1.267 . S
C91 O92 1.160 1_565 S
C91 O98 1.185 . S
O92 C91 1.160 1_545 S
O93 Zn94 1.899 1_545 S
O93 C101 1.284 . S
Zn94 O93 1.899 1_565 S
Zn94 O95 2.032 . S
Zn94 O98 2.086 . S
Zn94 O103 1.977 . S
O95 Zn94 2.032 . S
O95 C99 1.278 . S
C96 O97 1.203 . S
C96 O103 1.267 . S
O97 C96 1.203 . S
O98 C91 1.185 . S
O98 Zn94 2.086 . S
C99 O95 1.278 . S
C99 O100 1.211 . S
O100 C99 1.211 . S
C101 O93 1.284 . S
C101 O102 1.273 . S
O102 C101 1.273 . S
O103 Zn94 1.977 . S
O103 C96 1.267 . S
C104 O105 1.160 . S
C104 O111 1.185 . S
O105 C104 1.160 . S
O106 Zn107 1.870 1_655 S
O106 C114 1.281 . S
Zn107 O106 1.870 1_455 S
Zn107 O108 2.032 . S
Zn107 O111 2.086 . S
Zn107 O116 1.977 . S
O108 Zn107 2.032 . S
O108 C112 1.278 . S
C109 O110 1.203 . S
C109 O116 1.267 . S
O110 C109 1.203 . S
O111 C104 1.185 . S
O111 Zn107 2.086 . S
C112 O108 1.278 . S
C112 O113 1.211 . S
O113 C112 1.211 . S
C114 O106 1.281 . S
C114 O115 1.273 . S
O115 C114 1.273 . S
O116 Zn107 1.977 . S
O116 C109 1.267 . S
C117 O118 1.160 1_565 S
C117 O124 1.185 . S
O118 C117 1.160 1_545 S
O119 Zn120 1.899 1_545 S
O119 C127 1.284 . S
Zn120 O119 1.899 1_565 S
Zn120 O121 2.032 . S
Zn120 O124 2.086 . S
Zn120 O129 1.977 . S
O121 Zn120 2.032 . S
O121 C125 1.278 . S
C122 O123 1.203 . S
C122 O129 1.267 . S
O123 C122 1.203 . S
O124 C117 1.185 . S
O124 Zn120 2.086 . S
C125 O121 1.278 . S
C125 O126 1.211 . S
O126 C125 1.211 . S
C127 O119 1.284 . S
C127 O128 1.273 . S
O128 C127 1.273 . S
O129 Zn120 1.977 . S
O129 C122 1.267 . S
C130 O131 1.160 . S
C130 O137 1.185 . S
O131 C130 1.160 . S
O132 Zn133 1.899 . S
O132 C140 1.284 . S
Zn133 O132 1.899 . S
Zn133 O134 2.032 . S
Zn133 O137 2.086 1_455 S
Zn133 O142 1.977 . S
O134 Zn133 2.032 . S
O134 C138 1.278 . S
C135 O136 1.203 . S
C135 O142 1.267 . S
O136 C135 1.203 . S
O137 C130 1.185 . S
O137 Zn133 2.086 1_655 S
C138 O134 1.278 . S
C138 O139 1.211 . S
O139 C138 1.211 . S
C140 O132 1.284 . S
C140 O141 1.273 . S
O141 C140 1.273 . S
O142 Zn133 1.977 . S
O142 C135 1.267 . S
C143 O144 1.160 . S
C143 O150 1.185 . S
O144 C143 1.160 . S
O145 Zn146 1.899 . S
O145 C153 1.284 . S
Zn146 O145 1.899 . S
Zn146 O147 2.032 . S
Zn146 O150 2.086 . S
Zn146 O155 1.977 . S
O147 Zn146 2.032 . S
O147 C151 1.278 . S
C148 O149 1.203 . S
C148 O155 1.267 . S
O149 C148 1.203 . S
O150 C143 1.185 . S
O150 Zn146 2.086 . S
C151 O147 1.278 . S
C151 O152 1.211 . S
O152 C151 1.211 . S
C153 O145 1.284 . S
C153 O154 1.273 . S
O154 C153 1.273 . S
O155 Zn146 1.977 . S
O155 C148 1.267 . S
C156 O157 1.139 1_545 S
C156 O163 1.185 . S
O157 C156 1.139 1_565 S
O158 Zn159 1.899 1_565 S
O158 C166 1.284 . S
Zn159 O158 1.899 1_545 S
Zn159 O160 2.032 . S
Zn159 O163 2.086 . S
Zn159 O168 1.977 . S
O160 Zn159 2.032 . S
O160 C164 1.278 . S
C161 O162 1.203 . S
C161 O168 1.267 . S
O162 C161 1.203 . S
O163 C156 1.185 . S
O163 Zn159 2.086 . S
C164 O160 1.278 . S
C164 O165 1.211 . S
O165 C164 1.211 . S
C166 O158 1.284 . S
C166 O167 1.273 . S
O167 C166 1.273 . S
O168 Zn159 1.977 . S
O168 C161 1.267 . S
C169 O170 1.160 . S
C169 O176 1.185 . S
O170 C169 1.160 . S
O171 Zn172 1.899 . S
O171 C179 1.284 . S
Zn172 O171 1.899 . S
Zn172 O173 2.032 . S
Zn172 O176 2.086 1_655 S
Zn172 O181 1.977 . S
O173 Zn172 2.032 . S
O173 C177 1.278 . S
C174 O175 1.203 . S
C174 O181 1.267 . S
O175 C174 1.203 . S
O176 C169 1.185 . S
O176 Zn172 2.086 1_455 S
C177 O173 1.278 . S
C177 O178 1.211 . S
O178 C177 1.211 . S
C179 O171 1.284 . S
C179 O180 1.273 . S
O180 C179 1.273 . S
O181 Zn172 1.977 . S
O181 C174 1.267 . S
C182 O183 1.160 . S
C182 O189 1.185 . S
O183 C182 1.160 . S
O184 Zn185 1.899 . S
O184 C192 1.284 . S
Zn185 O184 1.899 . S
Zn185 O186 2.032 . S
Zn185 O189 2.086 . S
Zn185 O194 1.977 . S
O186 Zn185 2.032 . S
O186 C190 1.278 . S
C187 O188 1.203 . S
C187 O194 1.267 . S
O188 C187 1.203 . S
O189 C182 1.185 . S
O189 Zn185 2.086 . S
C190 O186 1.278 . S
C190 O191 1.211 . S
O191 C190 1.211 . S
C192 O184 1.284 . S
C192 O193 1.273 . S
O193 C192 1.273 . S
O194 Zn185 1.977 . S
O194 C187 1.267 . S
C195 O196 1.160 . S
C195 O202 1.185 . S
O196 C195 1.160 . S
O197 Zn198 1.899 . S
O197 C205 1.284 . S
Zn198 O197 1.899 . S
Zn198 O199 2.032 . S
Zn198 O202 2.086 . S
Zn198 O207 1.977 . S
O199 Zn198 2.032 . S
O199 C203 1.278 . S
C200 O201 1.203 . S
C200 O207 1.267 . S
O201 C200 1.203 . S
O202 C195 1.185 . S
O202 Zn198 2.086 . S
C203 O199 1.278 . S
C203 O204 1.211 . S
O204 C203 1.211 . S
C205 O197 1.284 . S
C205 O206 1.273 . S
O206 C205 1.273 . S
O207 Zn198 1.977 . S
O207 C200 1.267 . S
C208 O209 1.127 1_545 S
C208 O215 1.185 . S
O209 C208 1.127 1_565 S
O210 Zn211 1.899 1_565 S
O210 C218 1.284 . S
Zn211 O210 1.899 1_545 S
Zn211 O212 2.032 . S
Zn211 O215 2.086 . S
Zn211 O220 1.977 . S
O212 Zn211 2.032 . S
O212 C216 1.278 . S
C213 O214 1.203 . S
C213 O220 1.267 . S
O214 C213 1.203 . S
O215 C208 1.185 . S
O215 Zn211 2.086 . S
C216 O212 1.278 . S
C216 O217 1.211 . S
O217 C216 1.211 . S
C218 O210 1.284 . S
C218 O219 1.277 . S
O219 C218 1.277 . S
O220 Zn211 1.977 . S
O220 C213 1.267 . S
C221 O222 1.160 . S
C221 O228 1.185 . S
O222 C221 1.160 . S
O223 Zn224 1.876 1_455 S
O223 C231 1.281 . S
Zn224 O223 1.876 1_655 S
Zn224 O225 2.032 . S
Zn224 O228 2.086 . S
Zn224 O233 1.977 . S
O225 Zn224 2.032 . S
O225 C229 1.278 . S
C226 O227 1.203 . S
C226 O233 1.267 . S
O227 C226 1.203 . S
O228 C221 1.185 . S
O228 Zn224 2.086 . S
C229 O225 1.278 . S
C229 O230 1.211 . S
O230 C229 1.211 . S
C231 O223 1.281 . S
C231 O232 1.275 1_455 S
O232 C231 1.275 1_655 S
O233 Zn224 1.977 . S
O233 C226 1.267 . S
H234 C240 0.930 . S
H235 C243 0.931 . S
H236 C245 0.931 . S
H237 C247 0.930 . S
H238 C249 0.930 . S
H239 C251 0.931 . S
C240 H234 0.930 . S
C240 C241 1.380 . S
C240 C242 1.394 . S
C241 C240 1.380 . S
C241 C245 1.382 . S
C242 C240 1.394 . S
C242 C243 1.400 . S
C243 H235 0.931 . S
C243 C242 1.400 . S
C243 C244 1.375 . S
C244 C243 1.375 . S
C244 C245 1.415 . S
C244 C246 1.501 . S
C245 H236 0.931 . S
C245 C241 1.382 . S
C245 C244 1.415 . S
C246 C244 1.501 . S
C246 C247 1.384 . S
C246 C251 1.408 . S
C247 H237 0.930 . S
C247 C246 1.384 . S
C247 C248 1.389 . S
C248 C247 1.389 . S
C248 C249 1.405 . S
C249 H238 0.930 . S
C249 C248 1.405 . S
C249 C250 1.364 . S
C250 C249 1.364 . S
C250 C251 1.400 . S
C251 H239 0.931 . S
C251 C246 1.408 . S
C251 C250 1.400 . S
H252 C258 0.930 . S
H253 C261 0.931 . S
H254 C263 0.931 . S
H255 C265 0.930 . S
H256 C267 0.930 . S
H257 C269 0.931 . S
C258 H252 0.930 . S
C258 C259 1.380 . S
C258 C260 1.394 . S
C259 C258 1.380 . S
C259 C263 1.382 . S
C260 C258 1.394 . S
C260 C261 1.400 . S
C261 H253 0.931 . S
C261 C260 1.400 . S
C261 C262 1.375 . S
C262 C261 1.375 . S
C262 C263 1.415 . S
C262 C264 1.501 . S
C263 H254 0.931 . S
C263 C259 1.382 . S
C263 C262 1.415 . S
C264 C262 1.501 . S
C264 C265 1.384 . S
C264 C269 1.408 . S
C265 H255 0.930 . S
C265 C264 1.384 . S
C265 C266 1.389 . S
C266 C265 1.389 . S
C266 C267 1.405 . S
C267 H256 0.930 . S
C267 C266 1.405 . S
C267 C268 1.364 . S
C268 C267 1.364 . S
C268 C269 1.400 . S
C269 H257 0.931 . S
C269 C264 1.408 . S
C269 C268 1.400 . S
H270 C276 0.930 . S
H271 C279 0.931 . S
H272 C281 0.931 . S
H273 C283 0.930 . S
H274 C285 0.930 . S
H275 C287 0.931 . S
C276 H270 0.930 . S
C276 C277 1.380 . S
C276 C278 1.394 . S
C277 C276 1.380 . S
C277 C281 1.382 . S
C278 C276 1.394 . S
C278 C279 1.400 . S
C279 H271 0.931 . S
C279 C278 1.400 . S
C279 C280 1.375 . S
C280 C279 1.375 . S
C280 C281 1.415 . S
C280 C282 1.501 . S
C281 H272 0.931 . S
C281 C277 1.382 . S
C281 C280 1.415 . S
C282 C280 1.501 . S
C282 C283 1.384 . S
C282 C287 1.408 . S
C283 H273 0.930 . S
C283 C282 1.384 . S
C283 C284 1.389 . S
C284 C283 1.389 . S
C284 C285 1.405 . S
C285 H274 0.930 . S
C285 C284 1.405 . S
C285 C286 1.364 . S
C286 C285 1.364 . S
C286 C287 1.400 . S
C287 H275 0.931 . S
C287 C282 1.408 . S
C287 C286 1.400 . S
H288 C294 0.930 . S
H289 C297 0.931 . S
H290 C299 0.931 . S
H291 C301 0.930 . S
H292 C303 0.930 . S
H293 C305 0.931 . S
C294 H288 0.930 . S
C294 C295 1.380 . S
C294 C296 1.394 . S
C295 C294 1.380 . S
C295 C299 1.382 . S
C296 C294 1.394 . S
C296 C297 1.400 . S
C297 H289 0.931 . S
C297 C296 1.400 . S
C297 C298 1.375 . S
C298 C297 1.375 . S
C298 C299 1.415 . S
C298 C300 1.501 . S
C299 H290 0.931 . S
C299 C295 1.382 . S
C299 C298 1.415 . S
C300 C298 1.501 . S
C300 C301 1.384 . S
C300 C305 1.408 . S
C301 H291 0.930 . S
C301 C300 1.384 . S
C301 C302 1.389 . S
C302 C301 1.389 . S
C302 C303 1.405 . S
C303 H292 0.930 . S
C303 C302 1.405 . S
C303 C304 1.364 . S
C304 C303 1.364 . S
C304 C305 1.400 . S
C305 H293 0.931 . S
C305 C300 1.408 . S
C305 C304 1.400 . S
H306 C312 0.930 . S
H307 C315 0.931 . S
H308 C317 0.931 . S
H309 C319 0.930 . S
H310 C321 0.930 . S
H311 C323 0.931 . S
C312 H306 0.930 . S
C312 C313 1.380 . S
C312 C314 1.394 . S
C313 C312 1.380 . S
C313 C317 1.382 . S
C314 C312 1.394 . S
C314 C315 1.400 . S
C315 H307 0.931 . S
C315 C314 1.400 . S
C315 C316 1.375 . S
C316 C315 1.375 . S
C316 C317 1.415 . S
C316 C318 1.501 . S
C317 H308 0.931 . S
C317 C313 1.382 . S
C317 C316 1.415 . S
C318 C316 1.501 . S
C318 C319 1.384 . S
C318 C323 1.408 . S
C319 H309 0.930 . S
C319 C318 1.384 . S
C319 C320 1.389 . S
C320 C319 1.389 . S
C320 C321 1.405 . S
C321 H310 0.930 . S
C321 C320 1.405 . S
C321 C322 1.364 . S
C322 C321 1.364 . S
C322 C323 1.400 . S
C323 H311 0.931 . S
C323 C318 1.408 . S
C323 C322 1.400 . S
H324 C330 0.930 . S
H325 C333 0.931 . S
H326 C335 0.931 . S
H327 C337 0.930 . S
H328 C339 0.930 . S
H329 C341 0.931 . S
C330 H324 0.930 . S
C330 C331 1.380 . S
C330 C332 1.394 . S
C331 C330 1.380 . S
C331 C335 1.382 . S
C332 C330 1.394 . S
C332 C333 1.400 . S
C333 H325 0.931 . S
C333 C332 1.400 . S
C333 C334 1.375 . S
C334 C333 1.375 . S
C334 C335 1.415 . S
C334 C336 1.501 . S
C335 H326 0.931 . S
C335 C331 1.382 . S
C335 C334 1.415 . S
C336 C334 1.501 . S
C336 C337 1.384 . S
C336 C341 1.408 . S
C337 H327 0.930 . S
C337 C336 1.384 . S
C337 C338 1.389 . S
C338 C337 1.389 . S
C338 C339 1.405 . S
C339 H328 0.930 . S
C339 C338 1.405 . S
C339 C340 1.364 . S
C340 C339 1.364 . S
C340 C341 1.400 . S
C341 H329 0.931 . S
C341 C336 1.408 . S
C341 C340 1.400 . S
H342 C348 0.930 . S
H343 C351 0.931 . S
H344 C353 0.931 . S
H345 C355 0.930 . S
H346 C357 0.930 . S
H347 C359 0.931 . S
C348 H342 0.930 . S
C348 C349 1.380 . S
C348 C350 1.394 . S
C349 C348 1.380 . S
C349 C353 1.382 . S
C350 C348 1.394 . S
C350 C351 1.400 . S
C351 H343 0.931 . S
C351 C350 1.400 . S
C351 C352 1.375 . S
C352 C351 1.375 . S
C352 C353 1.415 . S
C352 C354 1.501 . S
C353 H344 0.931 . S
C353 C349 1.382 . S
C353 C352 1.415 . S
C354 C352 1.501 . S
C354 C355 1.384 . S
C354 C359 1.408 . S
C355 H345 0.930 . S
C355 C354 1.384 . S
C355 C356 1.389 . S
C356 C355 1.389 . S
C356 C357 1.405 . S
C357 H346 0.930 . S
C357 C356 1.405 . S
C357 C358 1.364 . S
C358 C357 1.364 . S
C358 C359 1.400 . S
C359 H347 0.931 . S
C359 C354 1.408 . S
C359 C358 1.400 . S
H360 C366 0.930 . S
H361 C369 0.931 . S
H362 C371 0.931 . S
H363 C373 0.930 . S
H364 C375 0.930 . S
H365 C377 0.931 . S
C366 H360 0.930 . S
C366 C367 1.380 . S
C366 C368 1.394 . S
C367 C366 1.380 . S
C367 C371 1.382 . S
C368 C366 1.394 . S
C368 C369 1.400 . S
C369 H361 0.931 . S
C369 C368 1.400 . S
C369 C370 1.375 . S
C370 C369 1.375 . S
C370 C371 1.415 . S
C370 C372 1.501 . S
C371 H362 0.931 . S
C371 C367 1.382 . S
C371 C370 1.415 . S
C372 C370 1.501 . S
C372 C373 1.384 . S
C372 C377 1.408 . S
C373 H363 0.930 . S
C373 C372 1.384 . S
C373 C374 1.389 . S
C374 C373 1.389 . S
C374 C375 1.405 . S
C375 H364 0.930 . S
C375 C374 1.405 . S
C375 C376 1.364 . S
C376 C375 1.364 . S
C376 C377 1.400 . S
C377 H365 0.931 . S
C377 C372 1.408 . S
C377 C376 1.400 . S
H378 C384 0.930 . S
H379 C387 0.931 . S
H380 C389 0.931 . S
H381 C391 0.930 . S
H382 C393 0.930 . S
H383 C395 0.931 . S
C384 H378 0.930 . S
C384 C385 1.380 . S
C384 C386 1.394 . S
C385 C384 1.380 . S
C385 C389 1.382 . S
C386 C384 1.394 . S
C386 C387 1.400 . S
C387 H379 0.931 . S
C387 C386 1.400 . S
C387 C388 1.375 . S
C388 C387 1.375 . S
C388 C389 1.415 . S
C388 C390 1.501 . S
C389 H380 0.931 . S
C389 C385 1.382 . S
C389 C388 1.415 . S
C390 C388 1.501 . S
C390 C391 1.384 . S
C390 C395 1.408 . S
C391 H381 0.930 . S
C391 C390 1.384 . S
C391 C392 1.389 . S
C392 C391 1.389 . S
C392 C393 1.405 . S
C393 H382 0.930 . S
C393 C392 1.405 . S
C393 C394 1.364 . S
C394 C393 1.364 . S
C394 C395 1.400 . S
C395 H383 0.931 . S
C395 C390 1.408 . S
C395 C394 1.400 . S
H396 C402 0.956 1_655 S
H397 C405 0.931 . S
H398 C407 0.931 . S
H399 C409 0.930 . S
H400 C411 0.906 . S
H401 C413 0.938 1_655 S
C402 H396 0.956 1_455 S
C402 C403 1.376 1_455 S
C402 C404 1.393 . S
C403 C402 1.376 1_655 S
C403 C407 1.382 . S
C404 C402 1.393 . S
C404 C405 1.400 . S
C405 H397 0.931 . S
C405 C404 1.400 . S
C405 C406 1.375 . S
C406 C405 1.375 . S
C406 C407 1.415 1_455 S
C406 C408 1.501 . S
C407 H398 0.931 . S
C407 C403 1.382 . S
C407 C406 1.415 1_655 S
C408 C406 1.501 . S
C408 C409 1.384 . S
C408 C413 1.416 . S
C409 H399 0.930 . S
C409 C408 1.384 . S
C409 C410 1.426 . S
C410 C409 1.426 . S
C410 C411 1.401 . S
C411 H400 0.906 . S
C411 C410 1.401 . S
C411 C412 1.379 . S
C412 C411 1.379 . S
C412 C413 1.383 . S
C413 H401 0.938 1_455 S
C413 C408 1.416 . S
C413 C412 1.383 . S
H414 C420 0.930 . S
H415 C423 0.931 . S
H416 C425 0.931 . S
H417 C427 0.930 . S
H418 C429 0.930 . S
H419 C431 0.931 . S
C420 H414 0.930 . S
C420 C421 1.380 . S
C420 C422 1.394 . S
C421 C420 1.380 . S
C421 C425 1.382 . S
C422 C420 1.394 . S
C422 C423 1.400 . S
C423 H415 0.931 . S
C423 C422 1.400 . S
C423 C424 1.375 . S
C424 C423 1.375 . S
C424 C425 1.415 . S
C424 C426 1.501 . S
C425 H416 0.931 . S
C425 C421 1.382 . S
C425 C424 1.415 . S
C426 C424 1.501 . S
C426 C427 1.384 . S
C426 C431 1.408 . S
C427 H417 0.930 . S
C427 C426 1.384 . S
C427 C428 1.389 . S
C428 C427 1.389 . S
C428 C429 1.405 . S
C429 H418 0.930 . S
C429 C428 1.405 . S
C429 C430 1.364 . S
C430 C429 1.364 . S
C430 C431 1.400 . S
C431 H419 0.931 . S
C431 C426 1.408 . S
C431 C430 1.400 . S
H432 C438 0.967 . S
H433 C441 0.931 . S
H434 C443 0.931 . S
H435 C445 0.930 . S
H436 C447 0.930 . S
H437 C449 0.938 . S
C438 H432 0.967 . S
C438 C439 1.374 . S
C438 C440 1.366 1_545 S
C439 C438 1.374 . S
C439 C443 1.382 . S
C440 C438 1.366 1_565 S
C440 C441 1.400 . S
C441 H433 0.931 . S
C441 C440 1.400 . S
C441 C442 1.375 . S
C442 C441 1.375 . S
C442 C443 1.415 1_565 S
C442 C444 1.501 . S
C443 H434 0.931 . S
C443 C439 1.382 . S
C443 C442 1.415 1_545 S
C444 C442 1.501 . S
C444 C445 1.384 . S
C444 C449 1.408 . S
C445 H435 0.930 . S
C445 C444 1.384 . S
C445 C446 1.389 . S
C446 C445 1.389 . S
C446 C447 1.405 . S
C447 H436 0.930 . S
C447 C446 1.405 . S
C447 C448 1.364 . S
C448 C447 1.364 . S
C448 C449 1.400 . S
C449 H437 0.938 . S
C449 C444 1.408 . S
C449 C448 1.400 . S
H450 C456 0.927 . S
H451 C459 0.931 . S
H452 C461 0.924 . S
H453 C463 0.930 . S
H454 C465 0.908 . S
H455 C467 0.931 . S
C456 H450 0.927 . S
C456 C457 1.382 . S
C456 C458 1.395 1_545 S
C457 C456 1.382 . S
C457 C461 1.396 1_545 S
C458 C456 1.395 1_565 S
C458 C459 1.400 . S
C459 H451 0.931 . S
C459 C458 1.400 . S
C459 C460 1.375 . S
C460 C459 1.375 . S
C460 C461 1.407 . S
C460 C462 1.501 . S
C461 H452 0.924 . S
C461 C457 1.396 1_565 S
C461 C460 1.407 . S
C462 C460 1.501 . S
C462 C463 1.384 . S
C462 C467 1.408 1_565 S
C463 H453 0.930 . S
C463 C462 1.384 . S
C463 C464 1.389 . S
C464 C463 1.389 . S
C464 C465 1.424 . S
C465 H454 0.908 . S
C465 C464 1.424 . S
C465 C466 1.369 1_565 S
C466 C465 1.369 1_545 S
C466 C467 1.400 . S
C467 H455 0.931 . S
C467 C462 1.408 1_545 S
C467 C466 1.400 . S
H468 C474 0.930 . S
H469 C477 0.931 . S
H470 C479 0.934 . S
H471 C481 0.930 . S
H472 C483 0.930 . S
H473 C485 0.931 . S
C474 H468 0.930 . S
C474 C475 1.397 . S
C474 C476 1.395 1_655 S
C475 C474 1.397 . S
C475 C479 1.349 1_655 S
C476 C474 1.395 1_455 S
C476 C477 1.399 . S
C477 H469 0.931 . S
C477 C476 1.399 . S
C477 C478 1.375 . S
C478 C477 1.375 . S
C478 C479 1.416 . S
C478 C480 1.501 . S
C479 H470 0.934 . S
C479 C475 1.349 1_455 S
C479 C478 1.416 . S
C480 C478 1.501 . S
C480 C481 1.384 . S
C480 C485 1.408 1_455 S
C481 H471 0.930 . S
C481 C480 1.384 . S
C481 C482 1.389 . S
C482 C481 1.389 . S
C482 C483 1.405 . S
C483 H472 0.930 . S
C483 C482 1.405 . S
C483 C484 1.364 1_455 S
C484 C483 1.364 1_655 S
C484 C485 1.400 . S
C485 H473 0.931 . S
C485 C480 1.408 1_655 S
C485 C484 1.400 . S
H486 C492 0.930 . S
H487 C495 0.931 . S
H488 C497 0.931 . S
H489 C499 0.930 . S
H490 C501 0.930 . S
H491 C503 0.931 . S
C492 H486 0.930 . S
C492 C493 1.380 . S
C492 C494 1.394 . S
C493 C492 1.380 . S
C493 C497 1.382 . S
C494 C492 1.394 . S
C494 C495 1.400 . S
C495 H487 0.931 . S
C495 C494 1.400 . S
C495 C496 1.375 . S
C496 C495 1.375 . S
C496 C497 1.415 . S
C496 C498 1.501 . S
C497 H488 0.931 . S
C497 C493 1.382 . S
C497 C496 1.415 . S
C498 C496 1.501 . S
C498 C499 1.384 . S
C498 C503 1.408 . S
C499 H489 0.930 . S
C499 C498 1.384 . S
C499 C500 1.389 . S
C500 C499 1.389 . S
C500 C501 1.405 . S
C501 H490 0.930 . S
C501 C500 1.405 . S
C501 C502 1.364 . S
C502 C501 1.364 . S
C502 C503 1.400 . S
C503 H491 0.931 . S
C503 C498 1.408 . S
C503 C502 1.400 . S
H504 C510 0.930 . S
H505 C513 0.931 . S
H506 C515 0.931 . S
H507 C517 0.930 . S
H508 C519 0.930 . S
H509 C521 0.931 . S
C510 H504 0.930 . S
C510 C511 1.380 . S
C510 C512 1.394 . S
C511 C510 1.380 . S
C511 C515 1.382 . S
C512 C510 1.394 . S
C512 C513 1.400 . S
C513 H505 0.931 . S
C513 C512 1.400 . S
C513 C514 1.375 . S
C514 C513 1.375 . S
C514 C515 1.415 . S
C514 C516 1.501 . S
C515 H506 0.931 . S
C515 C511 1.382 . S
C515 C514 1.415 . S
C516 C514 1.501 . S
C516 C517 1.384 . S
C516 C521 1.408 . S
C517 H507 0.930 . S
C517 C516 1.384 . S
C517 C518 1.389 . S
C518 C517 1.389 . S
C518 C519 1.405 . S
C519 H508 0.930 . S
C519 C518 1.405 . S
C519 C520 1.364 . S
C520 C519 1.364 . S
C520 C521 1.400 . S
C521 H509 0.931 . S
C521 C516 1.408 . S
C521 C520 1.400 . S
H522 C528 0.930 . S
H523 C531 0.931 . S
H524 C533 0.931 . S
H525 C535 0.930 . S
H526 C537 0.930 . S
H527 C539 0.931 . S
C528 H522 0.930 . S
C528 C529 1.380 . S
C528 C530 1.394 . S
C529 C528 1.380 . S
C529 C533 1.382 . S
C530 C528 1.394 . S
C530 C531 1.400 . S
C531 H523 0.931 . S
C531 C530 1.400 . S
C531 C532 1.375 . S
C532 C531 1.375 . S
C532 C533 1.415 . S
C532 C534 1.501 . S
C533 H524 0.931 . S
C533 C529 1.382 . S
C533 C532 1.415 . S
C534 C532 1.501 . S
C534 C535 1.384 . S
C534 C539 1.408 . S
C535 H525 0.930 . S
C535 C534 1.384 . S
C535 C536 1.389 . S
C536 C535 1.389 . S
C536 C537 1.405 . S
C537 H526 0.930 . S
C537 C536 1.405 . S
C537 C538 1.364 . S
C538 C537 1.364 . S
C538 C539 1.400 . S
C539 H527 0.931 . S
C539 C534 1.408 . S
C539 C538 1.400 . S
H540 C546 0.930 . S
H541 C549 0.931 . S
H542 C551 0.931 . S
H543 C553 0.930 . S
H544 C555 0.930 . S
H545 C557 0.931 . S
C546 H540 0.930 . S
C546 C547 1.380 . S
C546 C548 1.394 . S
C547 C546 1.380 . S
C547 C551 1.382 . S
C548 C546 1.394 . S
C548 C549 1.400 . S
C549 H541 0.931 . S
C549 C548 1.400 . S
C549 C550 1.375 . S
C550 C549 1.375 . S
C550 C551 1.415 . S
C550 C552 1.501 . S
C551 H542 0.931 . S
C551 C547 1.382 . S
C551 C550 1.415 . S
C552 C550 1.501 . S
C552 C553 1.384 . S
C552 C557 1.408 . S
C553 H543 0.930 . S
C553 C552 1.384 . S
C553 C554 1.389 . S
C554 C553 1.389 . S
C554 C555 1.405 . S
C555 H544 0.930 . S
C555 C554 1.405 . S
C555 C556 1.364 . S
C556 C555 1.364 . S
C556 C557 1.400 . S
C557 H545 0.931 . S
C557 C552 1.408 . S
C557 C556 1.400 . S
C558 C559 1.391 1_455 S
C558 C560 1.405 . S
C558 H574 0.931 . S
C559 C558 1.391 1_655 S
C559 C563 1.376 . S
C560 C558 1.405 . S
C560 C561 1.360 1_455 S
C560 C564 1.529 . S
C561 C560 1.360 1_655 S
C561 C562 1.410 . S
C561 C569 1.503 . S
C562 C561 1.410 . S
C562 C563 1.392 . S
C562 C565 1.511 . S
C563 C559 1.376 . S
C563 C562 1.392 . S
C563 H575 0.929 . S
C564 C560 1.529 . S
C564 H576 0.960 . S
C564 H577 0.962 . S
C564 H578 0.960 . S
C565 C562 1.511 . S
C565 H579 0.961 . S
C565 H580 0.961 . S
C565 H581 0.961 . S
C566 C567 1.370 1_455 S
C566 C568 1.363 . S
C566 H582 0.931 . S
C567 C566 1.370 1_655 S
C567 C571 1.408 . S
C568 C566 1.363 . S
C568 C569 1.370 1_455 S
C568 C572 1.524 . S
C569 C561 1.503 . S
C569 C568 1.370 1_655 S
C569 C570 1.403 . S
C570 C569 1.403 . S
C570 C571 1.404 . S
C570 C573 1.539 . S
C571 C567 1.408 . S
C571 C570 1.404 . S
C571 H583 0.930 . S
C572 C568 1.524 . S
C572 H584 0.956 . S
C572 H585 0.961 . S
C572 H586 0.961 . S
C573 C570 1.539 . S
C573 H587 0.958 . S
C573 H588 0.961 . S
C573 H589 0.960 . S
H574 C558 0.931 . S
H575 C563 0.929 . S
H576 C564 0.960 . S
H577 C564 0.962 . S
H578 C564 0.960 . S
H579 C565 0.961 . S
H580 C565 0.961 . S
H581 C565 0.961 . S
H582 C566 0.931 . S
H583 C571 0.930 . S
H584 C572 0.956 . S
H585 C572 0.961 . S
H586 C572 0.961 . S
H587 C573 0.958 . S
H588 C573 0.961 . S
H589 C573 0.960 . S
C590 C591 1.391 . S
C590 C592 1.394 . S
C590 H606 0.931 . S
C591 C590 1.391 . S
C591 C595 1.376 . S
C592 C590 1.394 . S
C592 C593 1.369 . S
C592 C596 1.531 . S
C593 C592 1.369 . S
C593 C594 1.410 . S
C593 C601 1.503 . S
C594 C593 1.410 . S
C594 C595 1.392 . S
C594 C597 1.511 . S
C595 C591 1.376 . S
C595 C594 1.392 . S
C595 H607 0.929 . S
C596 C592 1.531 . S
C596 H608 0.960 . S
C596 H609 0.962 . S
C596 H610 0.960 . S
C597 C594 1.511 . S
C597 H611 0.961 . S
C597 H612 0.961 . S
C597 H613 0.961 . S
C598 C599 1.370 . S
C598 C600 1.363 . S
C598 H614 0.931 . S
C599 C598 1.370 . S
C599 C603 1.408 . S
C600 C598 1.363 . S
C600 C601 1.370 . S
C600 C604 1.524 . S
C601 C593 1.503 . S
C601 C600 1.370 . S
C601 C602 1.403 . S
C602 C601 1.403 . S
C602 C603 1.404 . S
C602 C605 1.539 . S
C603 C599 1.408 . S
C603 C602 1.404 . S
C603 H615 0.930 . S
C604 C600 1.524 . S
C604 H616 0.956 . S
C604 H617 0.961 . S
C604 H618 0.961 . S
C605 C602 1.539 . S
C605 H619 0.958 . S
C605 H620 0.961 . S
C605 H621 0.960 . S
H606 C590 0.931 . S
H607 C595 0.929 . S
H608 C596 0.960 . S
H609 C596 0.962 . S
H610 C596 0.960 . S
H611 C597 0.961 . S
H612 C597 0.961 . S
H613 C597 0.961 . S
H614 C598 0.931 . S
H615 C603 0.930 . S
H616 C604 0.956 . S
H617 C604 0.961 . S
H618 C604 0.961 . S
H619 C605 0.958 . S
H620 C605 0.961 . S
H621 C605 0.960 . S
C622 C623 1.391 1_565 S
C622 C624 1.394 . S
C622 H638 0.931 . S
C623 C622 1.391 1_545 S
C623 C627 1.376 . S
C624 C622 1.394 . S
C624 C625 1.369 1_565 S
C624 C628 1.531 . S
C625 C624 1.369 1_545 S
C625 C626 1.410 . S
C625 C633 1.503 . S
C626 C625 1.410 . S
C626 C627 1.392 . S
C626 C629 1.511 . S
C627 C623 1.376 . S
C627 C626 1.392 . S
C627 H639 0.929 . S
C628 C624 1.531 . S
C628 H640 0.960 . S
C628 H641 0.962 . S
C628 H642 0.960 . S
C629 C626 1.511 . S
C629 H643 0.961 . S
C629 H644 0.961 . S
C629 H645 0.961 . S
C630 C631 1.370 . S
C630 C632 1.363 . S
C630 H646 0.931 . S
C631 C630 1.370 . S
C631 C635 1.408 1_545 S
C632 C630 1.363 . S
C632 C633 1.370 . S
C632 C636 1.524 . S
C633 C625 1.503 . S
C633 C632 1.370 . S
C633 C634 1.403 1_545 S
C634 C633 1.403 1_565 S
C634 C635 1.404 . S
C634 C637 1.539 . S
C635 C631 1.408 1_565 S
C635 C634 1.404 . S
C635 H647 0.930 . S
C636 C632 1.524 . S
C636 H648 0.956 . S
C636 H649 0.961 . S
C636 H650 0.961 . S
C637 C634 1.539 . S
C637 H651 0.958 . S
C637 H652 0.961 . S
C637 H653 0.960 . S
H638 C622 0.931 . S
H639 C627 0.929 . S
H640 C628 0.960 . S
H641 C628 0.962 . S
H642 C628 0.960 . S
H643 C629 0.961 . S
H644 C629 0.961 . S
H645 C629 0.961 . S
H646 C630 0.931 . S
H647 C635 0.930 . S
H648 C636 0.956 . S
H649 C636 0.961 . S
H650 C636 0.961 . S
H651 C637 0.958 . S
H652 C637 0.961 . S
H653 C637 0.960 . S
C654 C655 1.391 . S
C654 C656 1.394 . S
C654 H670 0.931 . S
C655 C654 1.391 . S
C655 C659 1.376 1_565 S
C656 C654 1.394 . S
C656 C657 1.369 . S
C656 C660 1.531 . S
C657 C656 1.369 . S
C657 C658 1.410 1_565 S
C657 C665 1.503 . S
C658 C657 1.410 1_545 S
C658 C659 1.392 . S
C658 C661 1.511 . S
C659 C655 1.376 1_545 S
C659 C658 1.392 . S
C659 H671 0.929 . S
C660 C656 1.531 . S
C660 H672 0.960 . S
C660 H673 0.962 . S
C660 H674 0.960 . S
C661 C658 1.511 . S
C661 H675 0.961 . S
C661 H676 0.961 . S
C661 H677 0.961 . S
C662 C663 1.370 1_545 S
C662 C664 1.363 . S
C662 H678 0.931 . S
C663 C662 1.370 1_565 S
C663 C667 1.408 . S
C664 C662 1.363 . S
C664 C665 1.370 1_545 S
C664 C668 1.524 . S
C665 C657 1.503 . S
C665 C664 1.370 1_565 S
C665 C666 1.403 . S
C666 C665 1.403 . S
C666 C667 1.404 . S
C666 C669 1.539 . S
C667 C663 1.408 . S
C667 C666 1.404 . S
C667 H679 0.930 . S
C668 C664 1.524 . S
C668 H680 0.956 1_545 S
C668 H681 0.961 . S
C668 H682 0.961 . S
C669 C666 1.539 . S
C669 H683 0.958 . S
C669 H684 0.961 . S
C669 H685 0.960 . S
H670 C654 0.931 . S
H671 C659 0.929 . S
H672 C660 0.960 . S
H673 C660 0.962 . S
H674 C660 0.960 . S
H675 C661 0.961 . S
H676 C661 0.961 . S
H677 C661 0.961 . S
H678 C662 0.931 . S
H679 C667 0.930 . S
H680 C668 0.956 1_565 S
H681 C668 0.961 . S
H682 C668 0.961 . S
H683 C669 0.958 . S
H684 C669 0.961 . S
H685 C669 0.960 . S
C686 C687 1.391 . S
C686 C688 1.394 . S
C686 H702 0.931 . S
C687 C686 1.391 . S
C687 C691 1.376 . S
C688 C686 1.394 . S
C688 C689 1.369 . S
C688 C692 1.531 . S
C689 C688 1.369 . S
C689 C690 1.400 1_455 S
C689 C697 1.503 . S
C690 C689 1.400 1_655 S
C690 C691 1.370 1_655 S
C690 C693 1.543 . S
C691 C687 1.376 . S
C691 C690 1.370 1_455 S
C691 H703 0.921 1_455 S
C692 C688 1.531 . S
C692 H704 0.960 . S
C692 H705 0.962 . S
C692 H706 0.960 . S
C693 C690 1.543 . S
C693 H707 0.961 . S
C693 H708 0.961 1_655 S
C693 H709 0.961 . S
C694 C695 1.370 . S
C694 C696 1.363 . S
C694 H710 0.931 . S
C695 C694 1.370 . S
C695 C699 1.408 1_455 S
C696 C694 1.363 . S
C696 C697 1.370 . S
C696 C700 1.524 . S
C697 C689 1.503 . S
C697 C696 1.370 . S
C697 C698 1.403 1_455 S
C698 C697 1.403 1_655 S
C698 C699 1.404 . S
C698 C701 1.539 . S
C699 C695 1.408 1_655 S
C699 C698 1.404 . S
C699 H711 0.930 . S
C700 C696 1.524 . S
C700 H712 0.956 . S
C700 H713 0.961 . S
C700 H714 0.961 . S
C701 C698 1.539 . S
C701 H715 0.958 . S
C701 H716 0.961 . S
C701 H717 0.960 . S
H702 C686 0.931 . S
H703 C691 0.921 1_655 S
H704 C692 0.960 . S
H705 C692 0.962 . S
H706 C692 0.960 . S
H707 C693 0.961 . S
H708 C693 0.961 1_455 S
H709 C693 0.961 . S
H710 C694 0.931 . S
H711 C699 0.930 . S
H712 C700 0.956 . S
H713 C700 0.961 . S
H714 C700 0.961 . S
H715 C701 0.958 . S
H716 C701 0.961 . S
H717 C701 0.960 . S
C718 C719 1.391 . S
C718 C720 1.394 . S
C718 H734 0.931 . S
C719 C718 1.391 . S
C719 C723 1.376 . S
C720 C718 1.394 . S
C720 C721 1.369 . S
C720 C724 1.531 . S
C721 C720 1.369 . S
C721 C722 1.410 . S
C721 C729 1.503 . S
C722 C721 1.410 . S
C722 C723 1.392 . S
C722 C725 1.511 . S
C723 C719 1.376 . S
C723 C722 1.392 . S
C723 H735 0.929 . S
C724 C720 1.531 . S
C724 H736 0.960 . S
C724 H737 0.962 . S
C724 H738 0.960 . S
C725 C722 1.511 . S
C725 H739 0.961 . S
C725 H740 0.961 . S
C725 H741 0.961 . S
C726 C727 1.370 . S
C726 C728 1.363 . S
C726 H742 0.931 . S
C727 C726 1.370 . S
C727 C731 1.408 . S
C728 C726 1.363 . S
C728 C729 1.370 . S
C728 C732 1.524 . S
C729 C721 1.503 . S
C729 C728 1.370 . S
C729 C730 1.403 . S
C730 C729 1.403 . S
C730 C731 1.404 . S
C730 C733 1.539 . S
C731 C727 1.408 . S
C731 C730 1.404 . S
C731 H743 0.930 . S
C732 C728 1.524 . S
C732 H744 0.956 . S
C732 H745 0.961 . S
C732 H746 0.961 . S
C733 C730 1.539 . S
C733 H747 0.958 . S
C733 H748 0.961 . S
C733 H749 0.960 . S
H734 C718 0.931 . S
H735 C723 0.929 . S
H736 C724 0.960 . S
H737 C724 0.962 . S
H738 C724 0.960 . S
H739 C725 0.961 . S
H740 C725 0.961 . S
H741 C725 0.961 . S
H742 C726 0.931 . S
H743 C731 0.930 . S
H744 C732 0.956 . S
H745 C732 0.961 . S
H746 C732 0.961 . S
H747 C733 0.958 . S
H748 C733 0.961 . S
H749 C733 0.960 . S
C750 C751 1.391 1_655 S
C750 C752 1.394 . S
C750 H766 0.931 . S
C751 C750 1.391 1_455 S
C751 C755 1.376 . S
C752 C750 1.394 . S
C752 C753 1.369 1_655 S
C752 C756 1.531 . S
C753 C752 1.369 1_455 S
C753 C754 1.410 . S
C753 C761 1.503 . S
C754 C753 1.410 . S
C754 C755 1.392 . S
C754 C757 1.511 . S
C755 C751 1.376 . S
C755 C754 1.392 . S
C755 H767 0.929 . S
C756 C752 1.531 . S
C756 H768 0.960 . S
C756 H769 0.962 . S
C756 H770 0.960 . S
C757 C754 1.511 . S
C757 H771 0.961 . S
C757 H772 0.961 . S
C757 H773 0.961 . S
C758 C759 1.349 1_655 S
C758 C760 1.363 . S
C758 H774 0.931 . S
C759 C758 1.349 1_455 S
C759 C763 1.417 . S
C760 C758 1.363 . S
C760 C761 1.370 1_655 S
C760 C764 1.524 . S
C761 C753 1.503 . S
C761 C760 1.370 1_455 S
C761 C762 1.403 . S
C762 C761 1.403 . S
C762 C763 1.404 . S
C762 C765 1.539 . S
C763 C759 1.417 . S
C763 C762 1.404 . S
C763 H775 0.930 . S
C764 C760 1.524 . S
C764 H776 0.956 . S
C764 H777 0.961 . S
C764 H778 0.961 . S
C765 C762 1.539 . S
C765 H779 0.958 . S
C765 H780 0.961 . S
C765 H781 0.960 . S
H766 C750 0.931 . S
H767 C755 0.929 . S
H768 C756 0.960 . S
H769 C756 0.962 . S
H770 C756 0.960 . S
H771 C757 0.961 . S
H772 C757 0.961 . S
H773 C757 0.961 . S
H774 C758 0.931 . S
H775 C763 0.930 . S
H776 C764 0.956 . S
H777 C764 0.961 . S
H778 C764 0.961 . S
H779 C765 0.958 . S
H780 C765 0.961 . S
H781 C765 0.960 . S
C782 C783 1.391 . S
C782 C784 1.394 . S
C782 H798 0.931 . S
C783 C782 1.391 . S
C783 C787 1.376 . S
C784 C782 1.394 . S
C784 C785 1.369 . S
C784 C788 1.531 . S
C785 C784 1.369 . S
C785 C786 1.410 . S
C785 C793 1.503 . S
C786 C785 1.410 . S
C786 C787 1.392 . S
C786 C789 1.511 . S
C787 C783 1.376 . S
C787 C786 1.392 . S
C787 H799 0.929 . S
C788 C784 1.531 . S
C788 H800 0.960 . S
C788 H801 0.962 . S
C788 H802 0.960 . S
C789 C786 1.511 . S
C789 H803 0.961 . S
C789 H804 0.961 . S
C789 H805 0.961 . S
C790 C791 1.370 . S
C790 C792 1.363 . S
C790 H806 0.931 . S
C791 C790 1.370 . S
C791 C795 1.408 . S
C792 C790 1.363 . S
C792 C793 1.370 . S
C792 C796 1.524 . S
C793 C785 1.503 . S
C793 C792 1.370 . S
C793 C794 1.403 . S
C794 C793 1.403 . S
C794 C795 1.404 . S
C794 C797 1.539 . S
C795 C791 1.408 . S
C795 C794 1.404 . S
C795 H807 0.930 . S
C796 C792 1.524 . S
C796 H808 0.956 . S
C796 H809 0.961 . S
C796 H810 0.961 . S
C797 C794 1.539 . S
C797 H811 0.958 . S
C797 H812 0.961 . S
C797 H813 0.960 . S
H798 C782 0.931 . S
H799 C787 0.929 . S
H800 C788 0.960 . S
H801 C788 0.962 . S
H802 C788 0.960 . S
H803 C789 0.961 . S
H804 C789 0.961 . S
H805 C789 0.961 . S
H806 C790 0.931 . S
H807 C795 0.930 . S
H808 C796 0.956 . S
H809 C796 0.961 . S
H810 C796 0.961 . S
H811 C797 0.958 . S
H812 C797 0.961 . S
H813 C797 0.960 . S
C814 C815 1.391 . S
C814 C816 1.394 . S
C814 H830 0.931 . S
C815 C814 1.391 . S
C815 C819 1.376 . S
C816 C814 1.394 . S
C816 C817 1.369 . S
C816 C820 1.531 . S
C817 C816 1.369 . S
C817 C818 1.410 . S
C817 C825 1.503 . S
C818 C817 1.410 . S
C818 C819 1.392 . S
C818 C821 1.511 1_565 S
C819 C815 1.376 . S
C819 C818 1.392 . S
C819 H831 0.929 1_565 S
C820 C816 1.531 . S
C820 H832 0.960 . S
C820 H833 0.962 . S
C820 H834 0.960 . S
C821 C818 1.511 1_545 S
C821 H835 0.961 . S
C821 H836 0.961 . S
C821 H837 0.961 1_545 S
C822 C823 1.370 1_545 S
C822 C824 1.363 . S
C822 H838 0.931 . S
C823 C822 1.370 1_565 S
C823 C827 1.408 . S
C824 C822 1.363 . S
C824 C825 1.370 1_545 S
C824 C828 1.524 . S
C825 C817 1.503 . S
C825 C824 1.370 1_565 S
C825 C826 1.403 . S
C826 C825 1.403 . S
C826 C827 1.404 . S
C826 C829 1.539 . S
C827 C823 1.408 . S
C827 C826 1.404 . S
C827 H839 0.930 . S
C828 C824 1.524 . S
C828 H840 0.956 . S
C828 H841 0.961 . S
C828 H842 0.961 . S
C829 C826 1.539 . S
C829 H843 0.958 . S
C829 H844 0.961 . S
C829 H845 0.960 . S
H830 C814 0.931 . S
H831 C819 0.929 1_545 S
H832 C820 0.960 . S
H833 C820 0.962 . S
H834 C820 0.960 . S
H835 C821 0.961 . S
H836 C821 0.961 . S
H837 C821 0.961 1_565 S
H838 C822 0.931 . S
H839 C827 0.930 . S
H840 C828 0.956 . S
H841 C828 0.961 . S
H842 C828 0.961 . S
H843 C829 0.958 . S
H844 C829 0.961 . S
H845 C829 0.960 . S
C846 C847 1.391 . S
C846 C848 1.394 . S
C846 H862 0.931 . S
C847 C846 1.391 . S
C847 C851 1.376 . S
C848 C846 1.394 . S
C848 C849 1.369 . S
C848 C852 1.531 . S
C849 C848 1.369 . S
C849 C850 1.410 . S
C849 C857 1.503 . S
C850 C849 1.410 . S
C850 C851 1.392 . S
C850 C853 1.511 . S
C851 C847 1.376 . S
C851 C850 1.392 . S
C851 H863 0.929 . S
C852 C848 1.531 . S
C852 H864 0.960 . S
C852 H865 0.962 . S
C852 H866 0.960 . S
C853 C850 1.511 . S
C853 H867 0.961 1_545 S
C853 H868 0.961 1_545 S
C853 H869 0.961 . S
C854 C855 1.305 1_565 S
C854 C856 1.363 . S
C854 H870 0.931 . S
C855 C854 1.305 1_545 S
C855 C859 1.458 . S
C856 C854 1.363 . S
C856 C857 1.370 1_565 S
C856 C860 1.524 . S
C857 C849 1.503 . S
C857 C856 1.370 1_545 S
C857 C858 1.403 . S
C858 C857 1.403 . S
C858 C859 1.404 . S
C858 C861 1.539 . S
C859 C855 1.458 . S
C859 C858 1.404 . S
C859 H871 0.930 . S
C860 C856 1.524 . S
C860 H872 0.956 . S
C860 H873 0.961 . S
C860 H874 0.961 . S
C861 C858 1.539 . S
C861 H875 0.958 . S
C861 H876 0.961 . S
C861 H877 0.960 . S
H862 C846 0.931 . S
H863 C851 0.929 . S
H864 C852 0.960 . S
H865 C852 0.962 . S
H866 C852 0.960 . S
H867 C853 0.961 1_565 S
H868 C853 0.961 1_565 S
H869 C853 0.961 . S
H870 C854 0.931 . S
H871 C859 0.930 . S
H872 C860 0.956 . S
H873 C860 0.961 . S
H874 C860 0.961 . S
H875 C861 0.958 . S
H876 C861 0.961 . S
H877 C861 0.960 . S
C878 C879 1.391 . S
C878 C880 1.394 . S
C878 H894 0.931 . S
C879 C878 1.391 . S
C879 C883 1.376 1_655 S
C880 C878 1.394 . S
C880 C881 1.369 . S
C880 C884 1.531 . S
C881 C880 1.369 . S
C881 C882 1.410 1_655 S
C881 C889 1.503 . S
C882 C881 1.410 1_455 S
C882 C883 1.392 . S
C882 C885 1.511 . S
C883 C879 1.376 1_455 S
C883 C882 1.392 . S
C883 H895 0.929 . S
C884 C880 1.531 . S
C884 H896 0.960 . S
C884 H897 0.962 . S
C884 H898 0.960 . S
C885 C882 1.511 . S
C885 H899 0.961 . S
C885 H900 0.961 . S
C885 H901 0.961 . S
C886 C887 1.382 1_455 S
C886 C888 1.363 . S
C886 H902 0.931 . S
C887 C886 1.382 1_655 S
C887 C891 1.426 . S
C888 C886 1.363 . S
C888 C889 1.370 1_455 S
C888 C892 1.524 . S
C889 C881 1.503 . S
C889 C888 1.370 1_655 S
C889 C890 1.403 . S
C890 C889 1.403 . S
C890 C891 1.404 . S
C890 C893 1.539 . S
C891 C887 1.426 . S
C891 C890 1.404 . S
C891 H903 0.930 . S
C892 C888 1.524 . S
C892 H904 0.956 . S
C892 H905 0.961 . S
C892 H906 0.961 . S
C893 C890 1.539 . S
C893 H907 0.958 . S
C893 H908 0.961 . S
C893 H909 0.960 . S
H894 C878 0.931 . S
H895 C883 0.929 . S
H896 C884 0.960 . S
H897 C884 0.962 . S
H898 C884 0.960 . S
H899 C885 0.961 . S
H900 C885 0.961 . S
H901 C885 0.961 . S
H902 C886 0.931 . S
H903 C891 0.930 . S
H904 C892 0.956 . S
H905 C892 0.961 . S
H906 C892 0.961 . S
H907 C893 0.958 . S
H908 C893 0.961 . S
H909 C893 0.960 . S
C910 C911 1.391 . S
C910 C912 1.394 . S
C910 H926 0.931 . S
C911 C910 1.391 . S
C911 C915 1.376 . S
C912 C910 1.394 . S
C912 C913 1.369 . S
C912 C916 1.531 . S
C913 C912 1.369 . S
C913 C914 1.410 . S
C913 C921 1.503 . S
C914 C913 1.410 . S
C914 C915 1.392 . S
C914 C917 1.511 . S
C915 C911 1.376 . S
C915 C914 1.392 . S
C915 H927 0.929 . S
C916 C912 1.531 . S
C916 H928 0.960 . S
C916 H929 0.962 . S
C916 H930 0.960 . S
C917 C914 1.511 . S
C917 H931 0.961 . S
C917 H932 0.961 . S
C917 H933 0.961 . S
C918 C919 1.370 . S
C918 C920 1.363 . S
C918 H934 0.931 . S
C919 C918 1.370 . S
C919 C923 1.408 . S
C920 C918 1.363 . S
C920 C921 1.370 . S
C920 C924 1.524 . S
C921 C913 1.503 . S
C921 C920 1.370 . S
C921 C922 1.403 . S
C922 C921 1.403 . S
C922 C923 1.404 . S
C922 C925 1.539 . S
C923 C919 1.408 . S
C923 C922 1.404 . S
C923 H935 0.930 . S
C924 C920 1.524 . S
C924 H936 0.956 . S
C924 H937 0.961 . S
C924 H938 0.961 . S
C925 C922 1.539 . S
C925 H939 0.958 . S
C925 H940 0.961 . S
C925 H941 0.960 . S
H926 C910 0.931 . S
H927 C915 0.929 . S
H928 C916 0.960 . S
H929 C916 0.962 . S
H930 C916 0.960 . S
H931 C917 0.961 . S
H932 C917 0.961 . S
H933 C917 0.961 . S
H934 C918 0.931 . S
H935 C923 0.930 . S
H936 C924 0.956 . S
H937 C924 0.961 . S
H938 C924 0.961 . S
H939 C925 0.958 . S
H940 C925 0.961 . S
H941 C925 0.960 . S
C942 C943 1.391 . S
C942 C944 1.394 . S
C942 H958 0.931 . S
C943 C942 1.391 . S
C943 C947 1.376 . S
C944 C942 1.394 . S
C944 C945 1.369 . S
C944 C948 1.531 . S
C945 C944 1.369 . S
C945 C946 1.410 . S
C945 C953 1.503 . S
C946 C945 1.410 . S
C946 C947 1.392 . S
C946 C949 1.511 . S
C947 C943 1.376 . S
C947 C946 1.392 . S
C947 H959 0.929 . S
C948 C944 1.531 . S
C948 H960 0.960 . S
C948 H961 0.962 . S
C948 H962 0.960 . S
C949 C946 1.511 . S
C949 H963 0.961 . S
C949 H964 0.961 . S
C949 H965 0.961 . S
C950 C951 1.370 . S
C950 C952 1.363 . S
C950 H966 0.931 . S
C951 C950 1.370 . S
C951 C955 1.408 . S
C952 C950 1.363 . S
C952 C953 1.370 . S
C952 C956 1.524 . S
C953 C945 1.503 . S
C953 C952 1.370 . S
C953 C954 1.403 . S
C954 C953 1.403 . S
C954 C955 1.404 . S
C954 C957 1.539 . S
C955 C951 1.408 . S
C955 C954 1.404 . S
C955 H967 0.930 . S
C956 C952 1.524 . S
C956 H968 0.956 . S
C956 H969 0.961 . S
C956 H970 0.961 . S
C957 C954 1.539 . S
C957 H971 0.958 . S
C957 H972 0.961 . S
C957 H973 0.960 . S
H958 C942 0.931 . S
H959 C947 0.929 . S
H960 C948 0.960 . S
H961 C948 0.962 . S
H962 C948 0.960 . S
H963 C949 0.961 . S
H964 C949 0.961 . S
H965 C949 0.961 . S
H966 C950 0.931 . S
H967 C955 0.930 . S
H968 C956 0.956 . S
H969 C956 0.961 . S
H970 C956 0.961 . S
H971 C957 0.958 . S
H972 C957 0.961 . S
H973 C957 0.960 . S
C974 C975 1.391 . S
C974 C976 1.394 . S
C974 H990 0.931 . S
C975 C974 1.391 . S
C975 C979 1.376 . S
C976 C974 1.394 . S
C976 C977 1.369 . S
C976 C980 1.531 . S
C977 C976 1.369 . S
C977 C978 1.410 . S
C977 C985 1.503 . S
C978 C977 1.410 . S
C978 C979 1.392 . S
C978 C981 1.511 . S
C979 C975 1.376 . S
C979 C978 1.392 . S
C979 H991 0.929 . S
C980 C976 1.531 . S
C980 H992 0.960 . S
C980 H993 0.962 . S
C980 H994 0.960 . S
C981 C978 1.511 . S
C981 H995 0.961 . S
C981 H996 0.961 . S
C981 H997 0.961 . S
C982 C983 1.370 . S
C982 C984 1.363 . S
C982 H998 0.931 . S
C983 C982 1.370 . S
C983 C987 1.408 . S
C984 C982 1.363 . S
C984 C985 1.370 . S
C984 C988 1.524 . S
C985 C977 1.503 . S
C985 C984 1.370 . S
C985 C986 1.403 . S
C986 C985 1.403 . S
C986 C987 1.404 . S
C986 C989 1.539 . S
C987 C983 1.408 . S
C987 C986 1.404 . S
C987 H999 0.930 . S
C988 C984 1.524 . S
C988 H1000 0.956 . S
C988 H1001 0.961 . S
C988 H1002 0.961 . S
C989 C986 1.539 . S
C989 H1003 0.958 . S
C989 H1004 0.961 . S
C989 H1005 0.960 . S
H990 C974 0.931 . S
H991 C979 0.929 . S
H992 C980 0.960 . S
H993 C980 0.962 . S
H994 C980 0.960 . S
H995 C981 0.961 . S
H996 C981 0.961 . S
H997 C981 0.961 . S
H998 C982 0.931 . S
H999 C987 0.930 . S
H1000 C988 0.956 . S
H1001 C988 0.961 . S
H1002 C988 0.961 . S
H1003 C989 0.958 . S
H1004 C989 0.961 . S
H1005 C989 0.960 . S
C1006 C1007 1.391 . S
C1006 C1008 1.394 . S
C1006 H1022 0.931 . S
C1007 C1006 1.391 . S
C1007 C1011 1.376 . S
C1008 C1006 1.394 . S
C1008 C1009 1.369 . S
C1008 C1012 1.531 . S
C1009 C1008 1.369 . S
C1009 C1010 1.410 . S
C1009 C1017 1.503 . S
C1010 C1009 1.410 . S
C1010 C1011 1.392 . S
C1010 C1013 1.511 . S
C1011 C1007 1.376 . S
C1011 C1010 1.392 . S
C1011 H1023 0.929 . S
C1012 C1008 1.531 . S
C1012 H1024 0.960 . S
C1012 H1025 0.962 . S
C1012 H1026 0.960 . S
C1013 C1010 1.511 . S
C1013 H1027 0.961 . S
C1013 H1028 0.961 . S
C1013 H1029 0.961 . S
C1014 C1015 1.370 . S
C1014 C1016 1.363 . S
C1014 H1030 0.931 . S
C1015 C1014 1.370 . S
C1015 C1019 1.408 . S
C1016 C1014 1.363 . S
C1016 C1017 1.370 . S
C1016 C1020 1.524 . S
C1017 C1009 1.503 . S
C1017 C1016 1.370 . S
C1017 C1018 1.403 . S
C1018 C1017 1.403 . S
C1018 C1019 1.404 . S
C1018 C1021 1.539 . S
C1019 C1015 1.408 . S
C1019 C1018 1.404 . S
C1019 H1031 0.930 . S
C1020 C1016 1.524 . S
C1020 H1032 0.956 . S
C1020 H1033 0.961 . S
C1020 H1034 0.961 . S
C1021 C1018 1.539 . S
C1021 H1035 0.958 . S
C1021 H1036 0.961 . S
C1021 H1037 0.960 . S
H1022 C1006 0.931 . S
H1023 C1011 0.929 . S
H1024 C1012 0.960 . S
H1025 C1012 0.962 . S
H1026 C1012 0.960 . S
H1027 C1013 0.961 . S
H1028 C1013 0.961 . S
H1029 C1013 0.961 . S
H1030 C1014 0.931 . S
H1031 C1019 0.930 . S
H1032 C1020 0.956 . S
H1033 C1020 0.961 . S
H1034 C1020 0.961 . S
H1035 C1021 0.958 . S
H1036 C1021 0.961 . S
H1037 C1021 0.960 . S
C1038 C1039 1.391 . S
C1038 C1040 1.394 . S
C1038 H1054 0.931 . S
C1039 C1038 1.391 . S
C1039 C1043 1.376 . S
C1040 C1038 1.394 . S
C1040 C1041 1.369 . S
C1040 C1044 1.531 . S
C1041 C1040 1.369 . S
C1041 C1042 1.410 . S
C1041 C1049 1.503 . S
C1042 C1041 1.410 . S
C1042 C1043 1.392 . S
C1042 C1045 1.511 . S
C1043 C1039 1.376 . S
C1043 C1042 1.392 . S
C1043 H1055 0.929 . S
C1044 C1040 1.531 . S
C1044 H1056 0.960 . S
C1044 H1057 0.962 . S
C1044 H1058 0.960 . S
C1045 C1042 1.511 . S
C1045 H1059 0.961 . S
C1045 H1060 0.961 . S
C1045 H1061 0.961 . S
C1046 C1047 1.370 . S
C1046 C1048 1.363 . S
C1046 H1062 0.931 . S
C1047 C1046 1.370 . S
C1047 C1051 1.408 . S
C1048 C1046 1.363 . S
C1048 C1049 1.370 . S
C1048 C1052 1.524 . S
C1049 C1041 1.503 . S
C1049 C1048 1.370 . S
C1049 C1050 1.403 . S
C1050 C1049 1.403 . S
C1050 C1051 1.404 . S
C1050 C1053 1.539 . S
C1051 C1047 1.408 . S
C1051 C1050 1.404 . S
C1051 H1063 0.930 . S
C1052 C1048 1.524 . S
C1052 H1064 0.956 . S
C1052 H1065 0.961 . S
C1052 H1066 0.961 . S
C1053 C1050 1.539 . S
C1053 H1067 0.958 . S
C1053 H1068 0.961 . S
C1053 H1069 0.960 . S
H1054 C1038 0.931 . S
H1055 C1043 0.929 . S
H1056 C1044 0.960 . S
H1057 C1044 0.962 . S
H1058 C1044 0.960 . S
H1059 C1045 0.961 . S
H1060 C1045 0.961 . S
H1061 C1045 0.961 . S
H1062 C1046 0.931 . S
H1063 C1051 0.930 . S
H1064 C1052 0.956 . S
H1065 C1052 0.961 . S
H1066 C1052 0.961 . S
H1067 C1053 0.958 . S
H1068 C1053 0.961 . S
H1069 C1053 0.960 . S
C1070 C1071 1.391 . S
C1070 C1072 1.394 . S
C1070 H1086 0.931 . S
C1071 C1070 1.391 . S
C1071 C1075 1.376 . S
C1072 C1070 1.394 . S
C1072 C1073 1.369 . S
C1072 C1076 1.531 . S
C1073 C1072 1.369 . S
C1073 C1074 1.410 . S
C1073 C1081 1.503 . S
C1074 C1073 1.410 . S
C1074 C1075 1.392 . S
C1074 C1077 1.511 . S
C1075 C1071 1.376 . S
C1075 C1074 1.392 . S
C1075 H1087 0.929 . S
C1076 C1072 1.531 . S
C1076 H1088 0.960 . S
C1076 H1089 0.962 . S
C1076 H1090 0.960 . S
C1077 C1074 1.511 . S
C1077 H1091 0.961 . S
C1077 H1092 0.961 . S
C1077 H1093 0.961 . S
C1078 C1079 1.370 . S
C1078 C1080 1.363 . S
C1078 H1094 0.931 . S
C1079 C1078 1.370 . S
C1079 C1083 1.408 . S
C1080 C1078 1.363 . S
C1080 C1081 1.370 . S
C1080 C1084 1.524 . S
C1081 C1073 1.503 . S
C1081 C1080 1.370 . S
C1081 C1082 1.403 . S
C1082 C1081 1.403 . S
C1082 C1083 1.404 . S
C1082 C1085 1.539 . S
C1083 C1079 1.408 . S
C1083 C1082 1.404 . S
C1083 H1095 0.930 . S
C1084 C1080 1.524 . S
C1084 H1096 0.956 . S
C1084 H1097 0.961 . S
C1084 H1098 0.961 . S
C1085 C1082 1.539 . S
C1085 H1099 0.958 . S
C1085 H1100 0.961 . S
C1085 H1101 0.960 . S
H1086 C1070 0.931 . S
H1087 C1075 0.929 . S
H1088 C1076 0.960 . S
H1089 C1076 0.962 . S
H1090 C1076 0.960 . S
H1091 C1077 0.961 . S
H1092 C1077 0.961 . S
H1093 C1077 0.961 . S
H1094 C1078 0.931 . S
H1095 C1083 0.930 . S
H1096 C1084 0.956 . S
H1097 C1084 0.961 . S
H1098 C1084 0.961 . S
H1099 C1085 0.958 . S
H1100 C1085 0.961 . S
H1101 C1085 0.960 . S
C1102 C1103 1.391 . S
C1102 C1104 1.394 . S
C1102 H1118 0.931 . S
C1103 C1102 1.391 . S
C1103 C1107 1.376 . S
C1104 C1102 1.394 . S
C1104 C1105 1.369 . S
C1104 C1108 1.531 . S
C1105 C1104 1.369 . S
C1105 C1106 1.410 . S
C1105 C1113 1.503 . S
C1106 C1105 1.410 . S
C1106 C1107 1.392 . S
C1106 C1109 1.511 . S
C1107 C1103 1.376 . S
C1107 C1106 1.392 . S
C1107 H1119 0.929 . S
C1108 C1104 1.531 . S
C1108 H1120 0.960 . S
C1108 H1121 0.962 . S
C1108 H1122 0.960 . S
C1109 C1106 1.511 . S
C1109 H1123 0.961 . S
C1109 H1124 0.961 . S
C1109 H1125 0.961 . S
C1110 C1111 1.370 . S
C1110 C1112 1.363 . S
C1110 H1126 0.931 . S
C1111 C1110 1.370 . S
C1111 C1115 1.408 . S
C1112 C1110 1.363 . S
C1112 C1113 1.370 . S
C1112 C1116 1.524 . S
C1113 C1105 1.503 . S
C1113 C1112 1.370 . S
C1113 C1114 1.403 . S
C1114 C1113 1.403 . S
C1114 C1115 1.404 . S
C1114 C1117 1.539 . S
C1115 C1111 1.408 . S
C1115 C1114 1.404 . S
C1115 H1127 0.930 . S
C1116 C1112 1.524 . S
C1116 H1128 0.956 . S
C1116 H1129 0.961 . S
C1116 H1130 0.961 . S
C1117 C1114 1.539 . S
C1117 H1131 0.958 . S
C1117 H1132 0.961 . S
C1117 H1133 0.960 . S
H1118 C1102 0.931 . S
H1119 C1107 0.929 . S
H1120 C1108 0.960 . S
H1121 C1108 0.962 . S
H1122 C1108 0.960 . S
H1123 C1109 0.961 . S
H1124 C1109 0.961 . S
H1125 C1109 0.961 . S
H1126 C1110 0.931 . S
H1127 C1115 0.930 . S
H1128 C1116 0.956 . S
H1129 C1116 0.961 . S
H1130 C1116 0.961 . S
H1131 C1117 0.958 . S
H1132 C1117 0.961 . S
H1133 C1117 0.960 . S
C1134 C1135 1.391 . S
C1134 C1136 1.394 . S
C1134 H1150 0.931 . S
C1135 C1134 1.391 . S
C1135 C1139 1.376 . S
C1136 C1134 1.394 . S
C1136 C1137 1.369 . S
C1136 C1140 1.531 . S
C1137 C1136 1.369 . S
C1137 C1138 1.410 . S
C1137 C1145 1.503 . S
C1138 C1137 1.410 . S
C1138 C1139 1.392 . S
C1138 C1141 1.511 . S
C1139 C1135 1.376 . S
C1139 C1138 1.392 . S
C1139 H1151 0.929 . S
C1140 C1136 1.531 . S
C1140 H1152 0.960 . S
C1140 H1153 0.962 . S
C1140 H1154 0.960 . S
C1141 C1138 1.511 . S
C1141 H1155 0.961 . S
C1141 H1156 0.961 . S
C1141 H1157 0.961 . S
C1142 C1143 1.370 . S
C1142 C1144 1.363 . S
C1142 H1158 0.931 . S
C1143 C1142 1.370 . S
C1143 C1147 1.408 . S
C1144 C1142 1.363 . S
C1144 C1145 1.370 . S
C1144 C1148 1.524 . S
C1145 C1137 1.503 . S
C1145 C1144 1.370 . S
C1145 C1146 1.403 . S
C1146 C1145 1.403 . S
C1146 C1147 1.404 . S
C1146 C1149 1.539 . S
C1147 C1143 1.408 . S
C1147 C1146 1.404 . S
C1147 H1159 0.930 . S
C1148 C1144 1.524 . S
C1148 H1160 0.956 . S
C1148 H1161 0.961 . S
C1148 H1162 0.961 . S
C1149 C1146 1.539 . S
C1149 H1163 0.958 . S
C1149 H1164 0.961 . S
C1149 H1165 0.960 . S
H1150 C1134 0.931 . S
H1151 C1139 0.929 . S
H1152 C1140 0.960 . S
H1153 C1140 0.962 . S
H1154 C1140 0.960 . S
H1155 C1141 0.961 . S
H1156 C1141 0.961 . S
H1157 C1141 0.961 . S
H1158 C1142 0.931 . S
H1159 C1147 0.930 . S
H1160 C1148 0.956 . S
H1161 C1148 0.961 . S
H1162 C1148 0.961 . S
H1163 C1149 0.958 . S
H1164 C1149 0.961 . S
H1165 C1149 0.960 . S
C1166 C1167 1.391 . S
C1166 C1168 1.394 . S
C1166 H1182 0.931 . S
C1167 C1166 1.391 . S
C1167 C1171 1.376 . S
C1168 C1166 1.394 . S
C1168 C1169 1.369 . S
C1168 C1172 1.531 . S
C1169 C1168 1.369 . S
C1169 C1170 1.410 . S
C1169 C1177 1.503 . S
C1170 C1169 1.410 . S
C1170 C1171 1.392 . S
C1170 C1173 1.511 . S
C1171 C1167 1.376 . S
C1171 C1170 1.392 . S
C1171 H1183 0.929 . S
C1172 C1168 1.531 . S
C1172 H1184 0.960 . S
C1172 H1185 0.962 . S
C1172 H1186 0.960 . S
C1173 C1170 1.511 . S
C1173 H1187 0.961 . S
C1173 H1188 0.961 . S
C1173 H1189 0.961 . S
C1174 C1175 1.370 . S
C1174 C1176 1.363 . S
C1174 H1190 0.931 . S
C1175 C1174 1.370 . S
C1175 C1179 1.408 . S
C1176 C1174 1.363 . S
C1176 C1177 1.370 . S
C1176 C1180 1.524 . S
C1177 C1169 1.503 . S
C1177 C1176 1.370 . S
C1177 C1178 1.403 . S
C1178 C1177 1.403 . S
C1178 C1179 1.404 . S
C1178 C1181 1.539 . S
C1179 C1175 1.408 . S
C1179 C1178 1.404 . S
C1179 H1191 0.930 . S
C1180 C1176 1.524 . S
C1180 H1192 0.956 . S
C1180 H1193 0.961 . S
C1180 H1194 0.961 . S
C1181 C1178 1.539 . S
C1181 H1195 0.958 . S
C1181 H1196 0.961 . S
C1181 H1197 0.960 . S
H1182 C1166 0.931 . S
H1183 C1171 0.929 . S
H1184 C1172 0.960 . S
H1185 C1172 0.962 . S
H1186 C1172 0.960 . S
H1187 C1173 0.961 . S
H1188 C1173 0.961 . S
H1189 C1173 0.961 . S
H1190 C1174 0.931 . S
H1191 C1179 0.930 . S
H1192 C1180 0.956 . S
H1193 C1180 0.961 . S
H1194 C1180 0.961 . S
H1195 C1181 0.958 . S
H1196 C1181 0.961 . S
H1197 C1181 0.960 . S
C1198 C1199 1.391 . S
C1198 C1200 1.394 . S
C1198 H1214 0.931 . S
C1199 C1198 1.391 . S
C1199 C1203 1.376 . S
C1200 C1198 1.394 . S
C1200 C1201 1.369 . S
C1200 C1204 1.531 . S
C1201 C1200 1.369 . S
C1201 C1202 1.410 . S
C1201 C1209 1.503 . S
C1202 C1201 1.410 . S
C1202 C1203 1.392 . S
C1202 C1205 1.511 . S
C1203 C1199 1.376 . S
C1203 C1202 1.392 . S
C1203 H1215 0.929 . S
C1204 C1200 1.531 . S
C1204 H1216 0.960 . S
C1204 H1217 0.962 . S
C1204 H1218 0.960 . S
C1205 C1202 1.511 . S
C1205 H1219 0.961 . S
C1205 H1220 0.961 . S
C1205 H1221 0.961 . S
C1206 C1207 1.370 . S
C1206 C1208 1.363 . S
C1206 H1222 0.931 . S
C1207 C1206 1.370 . S
C1207 C1211 1.408 . S
C1208 C1206 1.363 . S
C1208 C1209 1.370 . S
C1208 C1212 1.524 . S
C1209 C1201 1.503 . S
C1209 C1208 1.370 . S
C1209 C1210 1.403 . S
C1210 C1209 1.403 . S
C1210 C1211 1.404 . S
C1210 C1213 1.539 . S
C1211 C1207 1.408 . S
C1211 C1210 1.404 . S
C1211 H1223 0.930 . S
C1212 C1208 1.524 . S
C1212 H1224 0.956 . S
C1212 H1225 0.961 . S
C1212 H1226 0.961 . S
C1213 C1210 1.539 . S
C1213 H1227 0.958 . S
C1213 H1228 0.961 . S
C1213 H1229 0.960 . S
H1214 C1198 0.931 . S
H1215 C1203 0.929 . S
H1216 C1204 0.960 . S
H1217 C1204 0.962 . S
H1218 C1204 0.960 . S
H1219 C1205 0.961 . S
H1220 C1205 0.961 . S
H1221 C1205 0.961 . S
H1222 C1206 0.931 . S
H1223 C1211 0.930 . S
H1224 C1212 0.956 . S
H1225 C1212 0.961 . S
H1226 C1212 0.961 . S
H1227 C1213 0.958 . S
H1228 C1213 0.961 . S
H1229 C1213 0.960 . S
C1230 C1231 1.391 . S
C1230 C1232 1.394 . S
C1230 H1246 0.931 . S
C1231 C1230 1.391 . S
C1231 C1235 1.376 . S
C1232 C1230 1.394 . S
C1232 C1233 1.369 . S
C1232 C1236 1.531 . S
C1233 C1232 1.369 . S
C1233 C1234 1.410 . S
C1233 C1241 1.503 . S
C1234 C1233 1.410 . S
C1234 C1235 1.392 . S
C1234 C1237 1.511 . S
C1235 C1231 1.376 . S
C1235 C1234 1.392 . S
C1235 H1247 0.929 . S
C1236 C1232 1.531 . S
C1236 H1248 0.960 . S
C1236 H1249 0.962 . S
C1236 H1250 0.960 . S
C1237 C1234 1.511 . S
C1237 H1251 0.961 . S
C1237 H1252 0.961 . S
C1237 H1253 0.961 . S
C1238 C1239 1.370 . S
C1238 C1240 1.363 . S
C1238 H1254 0.931 . S
C1239 C1238 1.370 . S
C1239 C1243 1.408 . S
C1240 C1238 1.363 . S
C1240 C1241 1.370 . S
C1240 C1244 1.524 . S
C1241 C1233 1.503 . S
C1241 C1240 1.370 . S
C1241 C1242 1.403 . S
C1242 C1241 1.403 . S
C1242 C1243 1.404 . S
C1242 C1245 1.539 . S
C1243 C1239 1.408 . S
C1243 C1242 1.404 . S
C1243 H1255 0.930 . S
C1244 C1240 1.524 . S
C1244 H1256 0.956 . S
C1244 H1257 0.961 . S
C1244 H1258 0.961 . S
C1245 C1242 1.539 . S
C1245 H1259 0.958 . S
C1245 H1260 0.961 . S
C1245 H1261 0.960 . S
H1246 C1230 0.931 . S
H1247 C1235 0.929 . S
H1248 C1236 0.960 . S
H1249 C1236 0.962 . S
H1250 C1236 0.960 . S
H1251 C1237 0.961 . S
H1252 C1237 0.961 . S
H1253 C1237 0.961 . S
H1254 C1238 0.931 . S
H1255 C1243 0.930 . S
H1256 C1244 0.956 . S
H1257 C1244 0.961 . S
H1258 C1244 0.961 . S
H1259 C1245 0.958 . S
H1260 C1245 0.961 . S
H1261 C1245 0.960 . S
C1262 C1263 1.391 . S
C1262 C1264 1.394 . S
C1262 H1278 0.931 . S
C1263 C1262 1.391 . S
C1263 C1267 1.376 . S
C1264 C1262 1.394 . S
C1264 C1265 1.369 . S
C1264 C1268 1.531 . S
C1265 C1264 1.369 . S
C1265 C1266 1.410 . S
C1265 C1273 1.503 . S
C1266 C1265 1.410 . S
C1266 C1267 1.392 . S
C1266 C1269 1.511 . S
C1267 C1263 1.376 . S
C1267 C1266 1.392 . S
C1267 H1279 0.929 . S
C1268 C1264 1.531 . S
C1268 H1280 0.960 . S
C1268 H1281 0.962 . S
C1268 H1282 0.960 . S
C1269 C1266 1.511 . S
C1269 H1283 0.961 . S
C1269 H1284 0.961 . S
C1269 H1285 0.961 . S
C1270 C1271 1.370 . S
C1270 C1272 1.363 . S
C1270 H1286 0.931 . S
C1271 C1270 1.370 . S
C1271 C1275 1.408 . S
C1272 C1270 1.363 . S
C1272 C1273 1.370 . S
C1272 C1276 1.524 . S
C1273 C1265 1.503 . S
C1273 C1272 1.370 . S
C1273 C1274 1.403 . S
C1274 C1273 1.403 . S
C1274 C1275 1.404 . S
C1274 C1277 1.539 . S
C1275 C1271 1.408 . S
C1275 C1274 1.404 . S
C1275 H1287 0.930 . S
C1276 C1272 1.524 . S
C1276 H1288 0.956 . S
C1276 H1289 0.961 . S
C1276 H1290 0.961 . S
C1277 C1274 1.539 . S
C1277 H1291 0.958 . S
C1277 H1292 0.961 . S
C1277 H1293 0.960 . S
H1278 C1262 0.931 . S
H1279 C1267 0.929 . S
H1280 C1268 0.960 . S
H1281 C1268 0.962 . S
H1282 C1268 0.960 . S
H1283 C1269 0.961 . S
H1284 C1269 0.961 . S
H1285 C1269 0.961 . S
H1286 C1270 0.931 . S
H1287 C1275 0.930 . S
H1288 C1276 0.956 . S
H1289 C1276 0.961 . S
H1290 C1276 0.961 . S
H1291 C1277 0.958 . S
H1292 C1277 0.961 . S
H1293 C1277 0.960 . S
C1294 C1295 1.391 . S
C1294 C1296 1.394 . S
C1294 H1310 0.931 . S
C1295 C1294 1.391 . S
C1295 C1299 1.376 . S
C1296 C1294 1.394 . S
C1296 C1297 1.369 . S
C1296 C1300 1.531 . S
C1297 C1296 1.369 . S
C1297 C1298 1.410 . S
C1297 C1305 1.503 . S
C1298 C1297 1.410 . S
C1298 C1299 1.392 . S
C1298 C1301 1.511 . S
C1299 C1295 1.376 . S
C1299 C1298 1.392 . S
C1299 H1311 0.929 . S
C1300 C1296 1.531 . S
C1300 H1312 0.960 . S
C1300 H1313 0.962 . S
C1300 H1314 0.960 . S
C1301 C1298 1.511 . S
C1301 H1315 0.961 . S
C1301 H1316 0.961 . S
C1301 H1317 0.961 . S
C1302 C1303 1.370 . S
C1302 C1304 1.363 . S
C1302 H1318 0.931 . S
C1303 C1302 1.370 . S
C1303 C1307 1.408 . S
C1304 C1302 1.363 . S
C1304 C1305 1.370 . S
C1304 C1308 1.524 . S
C1305 C1297 1.503 . S
C1305 C1304 1.370 . S
C1305 C1306 1.403 . S
C1306 C1305 1.403 . S
C1306 C1307 1.404 . S
C1306 C1309 1.539 . S
C1307 C1303 1.408 . S
C1307 C1306 1.404 . S
C1307 H1319 0.930 . S
C1308 C1304 1.524 . S
C1308 H1320 0.956 . S
C1308 H1321 0.961 . S
C1308 H1322 0.961 . S
C1309 C1306 1.539 . S
C1309 H1323 0.958 . S
C1309 H1324 0.961 . S
C1309 H1325 0.960 . S
H1310 C1294 0.931 . S
H1311 C1299 0.929 . S
H1312 C1300 0.960 . S
H1313 C1300 0.962 . S
H1314 C1300 0.960 . S
H1315 C1301 0.961 . S
H1316 C1301 0.961 . S
H1317 C1301 0.961 . S
H1318 C1302 0.931 . S
H1319 C1307 0.930 . S
H1320 C1308 0.956 . S
H1321 C1308 0.961 . S
H1322 C1308 0.961 . S
H1323 C1309 0.958 . S
H1324 C1309 0.961 . S
H1325 C1309 0.960 . S
C1326 C1327 1.391 . S
C1326 C1328 1.394 . S
C1326 H1342 0.931 . S
C1327 C1326 1.391 . S
C1327 C1331 1.376 . S
C1328 C1326 1.394 . S
C1328 C1329 1.369 . S
C1328 C1332 1.531 . S
C1329 C1328 1.369 . S
C1329 C1330 1.410 . S
C1329 C1337 1.503 . S
C1330 C1329 1.410 . S
C1330 C1331 1.392 . S
C1330 C1333 1.511 . S
C1331 C1327 1.376 . S
C1331 C1330 1.392 . S
C1331 H1343 0.929 . S
C1332 C1328 1.531 . S
C1332 H1344 0.960 . S
C1332 H1345 0.962 . S
C1332 H1346 0.960 . S
C1333 C1330 1.511 . S
C1333 H1347 0.961 . S
C1333 H1348 0.961 . S
C1333 H1349 0.961 . S
C1334 C1335 1.370 . S
C1334 C1336 1.363 . S
C1334 H1350 0.931 . S
C1335 C1334 1.370 . S
C1335 C1339 1.408 . S
C1336 C1334 1.363 . S
C1336 C1337 1.370 . S
C1336 C1340 1.524 . S
C1337 C1329 1.503 . S
C1337 C1336 1.370 . S
C1337 C1338 1.403 . S
C1338 C1337 1.403 . S
C1338 C1339 1.404 . S
C1338 C1341 1.539 . S
C1339 C1335 1.408 . S
C1339 C1338 1.404 . S
C1339 H1351 0.930 . S
C1340 C1336 1.524 . S
C1340 H1352 0.956 . S
C1340 H1353 0.961 . S
C1340 H1354 0.961 . S
C1341 C1338 1.539 . S
C1341 H1355 0.958 . S
C1341 H1356 0.961 . S
C1341 H1357 0.960 . S
H1342 C1326 0.931 . S
H1343 C1331 0.929 . S
H1344 C1332 0.960 . S
H1345 C1332 0.962 . S
H1346 C1332 0.960 . S
H1347 C1333 0.961 . S
H1348 C1333 0.961 . S
H1349 C1333 0.961 . S
H1350 C1334 0.931 . S
H1351 C1339 0.930 . S
H1352 C1340 0.956 . S
H1353 C1340 0.961 . S
H1354 C1340 0.961 . S
H1355 C1341 0.958 . S
H1356 C1341 0.961 . S
H1357 C1341 0.960 . S
C1358 C1359 1.391 . S
C1358 C1360 1.394 . S
C1358 H1374 0.931 . S
C1359 C1358 1.391 . S
C1359 C1363 1.376 . S
C1360 C1358 1.394 . S
C1360 C1361 1.369 . S
C1360 C1364 1.531 . S
C1361 C1360 1.369 . S
C1361 C1362 1.410 . S
C1361 C1369 1.503 . S
C1362 C1361 1.410 . S
C1362 C1363 1.392 . S
C1362 C1365 1.511 . S
C1363 C1359 1.376 . S
C1363 C1362 1.392 . S
C1363 H1375 0.929 . S
C1364 C1360 1.531 . S
C1364 H1376 0.960 . S
C1364 H1377 0.962 . S
C1364 H1378 0.960 . S
C1365 C1362 1.511 . S
C1365 H1379 0.961 . S
C1365 H1380 0.961 . S
C1365 H1381 0.961 . S
C1366 C1367 1.370 . S
C1366 C1368 1.363 . S
C1366 H1382 0.931 . S
C1367 C1366 1.370 . S
C1367 C1371 1.408 . S
C1368 C1366 1.363 . S
C1368 C1369 1.370 . S
C1368 C1372 1.524 . S
C1369 C1361 1.503 . S
C1369 C1368 1.370 . S
C1369 C1370 1.403 . S
C1370 C1369 1.403 . S
C1370 C1371 1.404 . S
C1370 C1373 1.539 . S
C1371 C1367 1.408 . S
C1371 C1370 1.404 . S
C1371 H1383 0.930 . S
C1372 C1368 1.524 . S
C1372 H1384 0.956 . S
C1372 H1385 0.961 . S
C1372 H1386 0.961 . S
C1373 C1370 1.539 . S
C1373 H1387 0.958 . S
C1373 H1388 0.961 . S
C1373 H1389 0.960 . S
H1374 C1358 0.931 . S
H1375 C1363 0.929 . S
H1376 C1364 0.960 . S
H1377 C1364 0.962 . S
H1378 C1364 0.960 . S
H1379 C1365 0.961 . S
H1380 C1365 0.961 . S
H1381 C1365 0.961 . S
H1382 C1366 0.931 . S
H1383 C1371 0.930 . S
H1384 C1372 0.956 . S
H1385 C1372 0.961 . S
H1386 C1372 0.961 . S
H1387 C1373 0.958 . S
H1388 C1373 0.961 . S
H1389 C1373 0.960 . S
C1390 C1391 1.391 . S
C1390 C1392 1.394 . S
C1390 H1406 0.931 . S
C1391 C1390 1.391 . S
C1391 C1395 1.376 . S
C1392 C1390 1.394 . S
C1392 C1393 1.369 . S
C1392 C1396 1.531 . S
C1393 C1392 1.369 . S
C1393 C1394 1.410 . S
C1393 C1401 1.503 . S
C1394 C1393 1.410 . S
C1394 C1395 1.392 . S
C1394 C1397 1.511 . S
C1395 C1391 1.376 . S
C1395 C1394 1.392 . S
C1395 H1407 0.929 . S
C1396 C1392 1.531 . S
C1396 H1408 0.960 . S
C1396 H1409 0.962 . S
C1396 H1410 0.960 . S
C1397 C1394 1.511 . S
C1397 H1411 0.961 . S
C1397 H1412 0.961 . S
C1397 H1413 0.961 . S
C1398 C1399 1.370 . S
C1398 C1400 1.363 . S
C1398 H1414 0.931 . S
C1399 C1398 1.370 . S
C1399 C1403 1.408 . S
C1400 C1398 1.363 . S
C1400 C1401 1.370 . S
C1400 C1404 1.524 . S
C1401 C1393 1.503 . S
C1401 C1400 1.370 . S
C1401 C1402 1.403 . S
C1402 C1401 1.403 . S
C1402 C1403 1.404 . S
C1402 C1405 1.539 . S
C1403 C1399 1.408 . S
C1403 C1402 1.404 . S
C1403 H1415 0.930 . S
C1404 C1400 1.524 . S
C1404 H1416 0.956 . S
C1404 H1417 0.961 . S
C1404 H1418 0.961 . S
C1405 C1402 1.539 . S
C1405 H1419 0.958 . S
C1405 H1420 0.961 . S
C1405 H1421 0.960 . S
H1406 C1390 0.931 . S
H1407 C1395 0.929 . S
H1408 C1396 0.960 . S
H1409 C1396 0.962 . S
H1410 C1396 0.960 . S
H1411 C1397 0.961 . S
H1412 C1397 0.961 . S
H1413 C1397 0.961 . S
H1414 C1398 0.931 . S
H1415 C1403 0.930 . S
H1416 C1404 0.956 . S
H1417 C1404 0.961 . S
H1418 C1404 0.961 . S
H1419 C1405 0.958 . S
H1420 C1405 0.961 . S
H1421 C1405 0.960 . S
C1422 C1423 1.391 . S
C1422 C1424 1.394 . S
C1422 H1438 0.931 . S
C1423 C1422 1.391 . S
C1423 C1427 1.376 . S
C1424 C1422 1.394 . S
C1424 C1425 1.369 . S
C1424 C1428 1.531 . S
C1425 C1424 1.369 . S
C1425 C1426 1.410 . S
C1425 C1433 1.503 . S
C1426 C1425 1.410 . S
C1426 C1427 1.392 . S
C1426 C1429 1.511 . S
C1427 C1423 1.376 . S
C1427 C1426 1.392 . S
C1427 H1439 0.929 . S
C1428 C1424 1.531 . S
C1428 H1440 0.960 . S
C1428 H1441 0.962 . S
C1428 H1442 0.960 . S
C1429 C1426 1.511 . S
C1429 H1443 0.961 . S
C1429 H1444 0.961 . S
C1429 H1445 0.961 . S
C1430 C1431 1.370 . S
C1430 C1432 1.363 . S
C1430 H1446 0.931 . S
C1431 C1430 1.370 . S
C1431 C1435 1.408 . S
C1432 C1430 1.363 . S
C1432 C1433 1.370 . S
C1432 C1436 1.524 . S
C1433 C1425 1.503 . S
C1433 C1432 1.370 . S
C1433 C1434 1.403 . S
C1434 C1433 1.403 . S
C1434 C1435 1.404 . S
C1434 C1437 1.539 . S
C1435 C1431 1.408 . S
C1435 C1434 1.404 . S
C1435 H1447 0.930 . S
C1436 C1432 1.524 . S
C1436 H1448 0.956 . S
C1436 H1449 0.961 . S
C1436 H1450 0.961 . S
C1437 C1434 1.539 . S
C1437 H1451 0.958 . S
C1437 H1452 0.961 . S
C1437 H1453 0.960 . S
H1438 C1422 0.931 . S
H1439 C1427 0.929 . S
H1440 C1428 0.960 . S
H1441 C1428 0.962 . S
H1442 C1428 0.960 . S
H1443 C1429 0.961 . S
H1444 C1429 0.961 . S
H1445 C1429 0.961 . S
H1446 C1430 0.931 . S
H1447 C1435 0.930 . S
H1448 C1436 0.956 . S
H1449 C1436 0.961 . S
H1450 C1436 0.961 . S
H1451 C1437 0.958 . S
H1452 C1437 0.961 . S
H1453 C1437 0.960 . S
C1454 C1455 1.391 . S
C1454 C1456 1.394 . S
C1454 H1470 0.931 . S
C1455 C1454 1.391 . S
C1455 C1459 1.376 . S
C1456 C1454 1.394 . S
C1456 C1457 1.369 . S
C1456 C1460 1.531 . S
C1457 C1456 1.369 . S
C1457 C1458 1.410 . S
C1457 C1465 1.503 . S
C1458 C1457 1.410 . S
C1458 C1459 1.392 . S
C1458 C1461 1.511 . S
C1459 C1455 1.376 . S
C1459 C1458 1.392 . S
C1459 H1471 0.929 . S
C1460 C1456 1.531 . S
C1460 H1472 0.960 . S
C1460 H1473 0.962 . S
C1460 H1474 0.960 . S
C1461 C1458 1.511 . S
C1461 H1475 0.961 . S
C1461 H1476 0.961 . S
C1461 H1477 0.961 . S
C1462 C1463 1.370 . S
C1462 C1464 1.363 . S
C1462 H1478 0.931 . S
C1463 C1462 1.370 . S
C1463 C1467 1.408 . S
C1464 C1462 1.363 . S
C1464 C1465 1.370 . S
C1464 C1468 1.524 . S
C1465 C1457 1.503 . S
C1465 C1464 1.370 . S
C1465 C1466 1.403 . S
C1466 C1465 1.403 . S
C1466 C1467 1.404 . S
C1466 C1469 1.539 . S
C1467 C1463 1.408 . S
C1467 C1466 1.404 . S
C1467 H1479 0.930 . S
C1468 C1464 1.524 . S
C1468 H1480 0.956 . S
C1468 H1481 0.961 . S
C1468 H1482 0.961 . S
C1469 C1466 1.539 . S
C1469 H1483 0.958 . S
C1469 H1484 0.961 . S
C1469 H1485 0.960 . S
H1470 C1454 0.931 . S
H1471 C1459 0.929 . S
H1472 C1460 0.960 . S
H1473 C1460 0.962 . S
H1474 C1460 0.960 . S
H1475 C1461 0.961 . S
H1476 C1461 0.961 . S
H1477 C1461 0.961 . S
H1478 C1462 0.931 . S
H1479 C1467 0.930 . S
H1480 C1468 0.956 . S
H1481 C1468 0.961 . S
H1482 C1468 0.961 . S
H1483 C1469 0.958 . S
H1484 C1469 0.961 . S
H1485 C1469 0.960 . S
C1486 C1487 1.391 . S
C1486 C1488 1.394 . S
C1486 H1502 0.931 . S
C1487 C1486 1.391 . S
C1487 C1491 1.376 . S
C1488 C1486 1.394 . S
C1488 C1489 1.369 . S
C1488 C1492 1.531 . S
C1489 C1488 1.369 . S
C1489 C1490 1.410 . S
C1489 C1497 1.503 . S
C1490 C1489 1.410 . S
C1490 C1491 1.392 . S
C1490 C1493 1.511 . S
C1491 C1487 1.376 . S
C1491 C1490 1.392 . S
C1491 H1503 0.929 . S
C1492 C1488 1.531 . S
C1492 H1504 0.960 . S
C1492 H1505 0.962 . S
C1492 H1506 0.960 . S
C1493 C1490 1.511 . S
C1493 H1507 0.961 . S
C1493 H1508 0.961 . S
C1493 H1509 0.961 . S
C1494 C1495 1.370 . S
C1494 C1496 1.363 . S
C1494 H1510 0.931 . S
C1495 C1494 1.370 . S
C1495 C1499 1.408 . S
C1496 C1494 1.363 . S
C1496 C1497 1.370 . S
C1496 C1500 1.524 . S
C1497 C1489 1.503 . S
C1497 C1496 1.370 . S
C1497 C1498 1.403 . S
C1498 C1497 1.403 . S
C1498 C1499 1.404 . S
C1498 C1501 1.539 . S
C1499 C1495 1.408 . S
C1499 C1498 1.404 . S
C1499 H1511 0.930 . S
C1500 C1496 1.524 . S
C1500 H1512 0.956 . S
C1500 H1513 0.961 . S
C1500 H1514 0.961 . S
C1501 C1498 1.539 . S
C1501 H1515 0.958 . S
C1501 H1516 0.961 . S
C1501 H1517 0.960 . S
H1502 C1486 0.931 . S
H1503 C1491 0.929 . S
H1504 C1492 0.960 . S
H1505 C1492 0.962 . S
H1506 C1492 0.960 . S
H1507 C1493 0.961 . S
H1508 C1493 0.961 . S
H1509 C1493 0.961 . S
H1510 C1494 0.931 . S
H1511 C1499 0.930 . S
H1512 C1500 0.956 . S
H1513 C1500 0.961 . S
H1514 C1500 0.961 . S
H1515 C1501 0.958 . S
H1516 C1501 0.961 . S
H1517 C1501 0.960 . S
C1518 C1519 1.391 . S
C1518 C1520 1.394 . S
C1518 H1534 0.931 . S
C1519 C1518 1.391 . S
C1519 C1523 1.376 . S
C1520 C1518 1.394 . S
C1520 C1521 1.369 . S
C1520 C1524 1.531 . S
C1521 C1520 1.369 . S
C1521 C1522 1.410 . S
C1521 C1529 1.503 . S
C1522 C1521 1.410 . S
C1522 C1523 1.392 . S
C1522 C1525 1.511 . S
C1523 C1519 1.376 . S
C1523 C1522 1.392 . S
C1523 H1535 0.929 . S
C1524 C1520 1.531 . S
C1524 H1536 0.960 . S
C1524 H1537 0.962 . S
C1524 H1538 0.960 . S
C1525 C1522 1.511 . S
C1525 H1539 0.961 . S
C1525 H1540 0.961 . S
C1525 H1541 0.961 . S
C1526 C1527 1.370 . S
C1526 C1528 1.363 . S
C1526 H1542 0.931 . S
C1527 C1526 1.370 . S
C1527 C1531 1.408 . S
C1528 C1526 1.363 . S
C1528 C1529 1.370 . S
C1528 C1532 1.524 . S
C1529 C1521 1.503 . S
C1529 C1528 1.370 . S
C1529 C1530 1.403 . S
C1530 C1529 1.403 . S
C1530 C1531 1.404 . S
C1530 C1533 1.539 . S
C1531 C1527 1.408 . S
C1531 C1530 1.404 . S
C1531 H1543 0.930 . S
C1532 C1528 1.524 . S
C1532 H1544 0.956 . S
C1532 H1545 0.961 . S
C1532 H1546 0.961 . S
C1533 C1530 1.539 . S
C1533 H1547 0.958 . S
C1533 H1548 0.961 . S
C1533 H1549 0.960 . S
H1534 C1518 0.931 . S
H1535 C1523 0.929 . S
H1536 C1524 0.960 . S
H1537 C1524 0.962 . S
H1538 C1524 0.960 . S
H1539 C1525 0.961 . S
H1540 C1525 0.961 . S
H1541 C1525 0.961 . S
H1542 C1526 0.931 . S
H1543 C1531 0.930 . S
H1544 C1532 0.956 . S
H1545 C1532 0.961 . S
H1546 C1532 0.961 . S
H1547 C1533 0.958 . S
H1548 C1533 0.961 . S
H1549 C1533 0.960 . S
C1550 C1551 1.391 . S
C1550 C1552 1.394 . S
C1550 H1566 0.931 . S
C1551 C1550 1.391 . S
C1551 C1555 1.376 . S
C1552 C1550 1.394 . S
C1552 C1553 1.369 . S
C1552 C1556 1.531 . S
C1553 C1552 1.369 . S
C1553 C1554 1.410 . S
C1553 C1561 1.503 . S
C1554 C1553 1.410 . S
C1554 C1555 1.392 . S
C1554 C1557 1.511 . S
C1555 C1551 1.376 . S
C1555 C1554 1.392 . S
C1555 H1567 0.929 . S
C1556 C1552 1.531 . S
C1556 H1568 0.960 . S
C1556 H1569 0.962 . S
C1556 H1570 0.960 . S
C1557 C1554 1.511 . S
C1557 H1571 0.961 . S
C1557 H1572 0.961 . S
C1557 H1573 0.961 . S
C1558 C1559 1.370 . S
C1558 C1560 1.363 . S
C1558 H1574 0.931 . S
C1559 C1558 1.370 . S
C1559 C1563 1.408 . S
C1560 C1558 1.363 . S
C1560 C1561 1.370 . S
C1560 C1564 1.524 . S
C1561 C1553 1.503 . S
C1561 C1560 1.370 . S
C1561 C1562 1.403 . S
C1562 C1561 1.403 . S
C1562 C1563 1.404 . S
C1562 C1565 1.539 . S
C1563 C1559 1.408 . S
C1563 C1562 1.404 . S
C1563 H1575 0.930 . S
C1564 C1560 1.524 . S
C1564 H1576 0.956 . S
C1564 H1577 0.961 . S
C1564 H1578 0.961 . S
C1565 C1562 1.539 . S
C1565 H1579 0.958 . S
C1565 H1580 0.961 . S
C1565 H1581 0.960 . S
H1566 C1550 0.931 . S
H1567 C1555 0.929 . S
H1568 C1556 0.960 . S
H1569 C1556 0.962 . S
H1570 C1556 0.960 . S
H1571 C1557 0.961 . S
H1572 C1557 0.961 . S
H1573 C1557 0.961 . S
H1574 C1558 0.931 . S
H1575 C1563 0.930 . S
H1576 C1564 0.956 . S
H1577 C1564 0.961 . S
H1578 C1564 0.961 . S
H1579 C1565 0.958 . S
H1580 C1565 0.961 . S
H1581 C1565 0.960 . S
C1582 C1583 1.391 . S
C1582 C1584 1.394 . S
C1582 H1598 0.931 . S
C1583 C1582 1.391 . S
C1583 C1587 1.376 . S
C1584 C1582 1.394 . S
C1584 C1585 1.369 . S
C1584 C1588 1.531 . S
C1585 C1584 1.369 . S
C1585 C1586 1.410 . S
C1585 C1593 1.503 . S
C1586 C1585 1.410 . S
C1586 C1587 1.392 . S
C1586 C1589 1.511 . S
C1587 C1583 1.376 . S
C1587 C1586 1.392 . S
C1587 H1599 0.929 . S
C1588 C1584 1.531 . S
C1588 H1600 0.960 . S
C1588 H1601 0.962 . S
C1588 H1602 0.960 . S
C1589 C1586 1.511 . S
C1589 H1603 0.961 . S
C1589 H1604 0.961 . S
C1589 H1605 0.961 . S
C1590 C1591 1.370 . S
C1590 C1592 1.363 . S
C1590 H1606 0.931 . S
C1591 C1590 1.370 . S
C1591 C1595 1.408 . S
C1592 C1590 1.363 . S
C1592 C1593 1.370 . S
C1592 C1596 1.524 . S
C1593 C1585 1.503 . S
C1593 C1592 1.370 . S
C1593 C1594 1.403 . S
C1594 C1593 1.403 . S
C1594 C1595 1.404 . S
C1594 C1597 1.539 . S
C1595 C1591 1.408 . S
C1595 C1594 1.404 . S
C1595 H1607 0.930 . S
C1596 C1592 1.524 . S
C1596 H1608 0.956 . S
C1596 H1609 0.961 . S
C1596 H1610 0.961 . S
C1597 C1594 1.539 . S
C1597 H1611 0.958 . S
C1597 H1612 0.961 . S
C1597 H1613 0.960 . S
H1598 C1582 0.931 . S
H1599 C1587 0.929 . S
H1600 C1588 0.960 . S
H1601 C1588 0.962 . S
H1602 C1588 0.960 . S
H1603 C1589 0.961 . S
H1604 C1589 0.961 . S
H1605 C1589 0.961 . S
H1606 C1590 0.931 . S
H1607 C1595 0.930 . S
H1608 C1596 0.956 . S
H1609 C1596 0.961 . S
H1610 C1596 0.961 . S
H1611 C1597 0.958 . S
H1612 C1597 0.961 . S
H1613 C1597 0.960 . S
C1614 C1615 1.391 . S
C1614 C1616 1.394 . S
C1614 H1630 0.931 . S
C1615 C1614 1.391 . S
C1615 C1619 1.376 . S
C1616 C1614 1.394 . S
C1616 C1617 1.369 . S
C1616 C1620 1.531 . S
C1617 C1616 1.369 . S
C1617 C1618 1.410 . S
C1617 C1625 1.503 . S
C1618 C1617 1.410 . S
C1618 C1619 1.392 . S
C1618 C1621 1.511 . S
C1619 C1615 1.376 . S
C1619 C1618 1.392 . S
C1619 H1631 0.929 . S
C1620 C1616 1.531 . S
C1620 H1632 0.960 . S
C1620 H1633 0.962 . S
C1620 H1634 0.960 . S
C1621 C1618 1.511 . S
C1621 H1635 0.961 . S
C1621 H1636 0.961 . S
C1621 H1637 0.961 . S
C1622 C1623 1.370 . S
C1622 C1624 1.363 . S
C1622 H1638 0.931 . S
C1623 C1622 1.370 . S
C1623 C1627 1.408 . S
C1624 C1622 1.363 . S
C1624 C1625 1.370 . S
C1624 C1628 1.524 . S
C1625 C1617 1.503 . S
C1625 C1624 1.370 . S
C1625 C1626 1.403 . S
C1626 C1625 1.403 . S
C1626 C1627 1.404 . S
C1626 C1629 1.539 . S
C1627 C1623 1.408 . S
C1627 C1626 1.404 . S
C1627 H1639 0.930 . S
C1628 C1624 1.524 . S
C1628 H1640 0.956 . S
C1628 H1641 0.961 . S
C1628 H1642 0.961 . S
C1629 C1626 1.539 . S
C1629 H1643 0.958 . S
C1629 H1644 0.961 . S
C1629 H1645 0.960 . S
H1630 C1614 0.931 . S
H1631 C1619 0.929 . S
H1632 C1620 0.960 . S
H1633 C1620 0.962 . S
H1634 C1620 0.960 . S
H1635 C1621 0.961 . S
H1636 C1621 0.961 . S
H1637 C1621 0.961 . S
H1638 C1622 0.931 . S
H1639 C1627 0.930 . S
H1640 C1628 0.956 . S
H1641 C1628 0.961 . S
H1642 C1628 0.961 . S
H1643 C1629 0.958 . S
H1644 C1629 0.961 . S
H1645 C1629 0.960 . S
C1646 C1647 1.391 . S
C1646 C1648 1.394 . S
C1646 H1662 0.931 . S
C1647 C1646 1.391 . S
C1647 C1651 1.376 . S
C1648 C1646 1.394 . S
C1648 C1649 1.369 . S
C1648 C1652 1.531 . S
C1649 C1648 1.369 . S
C1649 C1650 1.410 . S
C1649 C1657 1.503 . S
C1650 C1649 1.410 . S
C1650 C1651 1.392 . S
C1650 C1653 1.511 . S
C1651 C1647 1.376 . S
C1651 C1650 1.392 . S
C1651 H1663 0.929 . S
C1652 C1648 1.531 . S
C1652 H1664 0.960 . S
C1652 H1665 0.962 . S
C1652 H1666 0.960 . S
C1653 C1650 1.511 . S
C1653 H1667 0.961 . S
C1653 H1668 0.961 . S
C1653 H1669 0.961 . S
C1654 C1655 1.370 . S
C1654 C1656 1.363 . S
C1654 H1670 0.931 . S
C1655 C1654 1.370 . S
C1655 C1659 1.408 . S
C1656 C1654 1.363 . S
C1656 C1657 1.370 . S
C1656 C1660 1.524 . S
C1657 C1649 1.503 . S
C1657 C1656 1.370 . S
C1657 C1658 1.403 . S
C1658 C1657 1.403 . S
C1658 C1659 1.404 . S
C1658 C1661 1.539 . S
C1659 C1655 1.408 . S
C1659 C1658 1.404 . S
C1659 H1671 0.930 . S
C1660 C1656 1.524 . S
C1660 H1672 0.956 . S
C1660 H1673 0.961 . S
C1660 H1674 0.961 . S
C1661 C1658 1.539 . S
C1661 H1675 0.958 . S
C1661 H1676 0.961 . S
C1661 H1677 0.960 . S
H1662 C1646 0.931 . S
H1663 C1651 0.929 . S
H1664 C1652 0.960 . S
H1665 C1652 0.962 . S
H1666 C1652 0.960 . S
H1667 C1653 0.961 . S
H1668 C1653 0.961 . S
H1669 C1653 0.961 . S
H1670 C1654 0.931 . S
H1671 C1659 0.930 . S
H1672 C1660 0.956 . S
H1673 C1660 0.961 . S
H1674 C1660 0.961 . S
H1675 C1661 0.958 . S
H1676 C1661 0.961 . S
H1677 C1661 0.960 . S
C1678 C1679 1.391 . S
C1678 C1680 1.394 . S
C1678 H1694 0.931 . S
C1679 C1678 1.391 . S
C1679 C1683 1.376 . S
C1680 C1678 1.394 . S
C1680 C1681 1.369 . S
C1680 C1684 1.531 . S
C1681 C1680 1.369 . S
C1681 C1682 1.410 . S
C1681 C1689 1.503 . S
C1682 C1681 1.410 . S
C1682 C1683 1.392 . S
C1682 C1685 1.511 . S
C1683 C1679 1.376 . S
C1683 C1682 1.392 . S
C1683 H1695 0.929 . S
C1684 C1680 1.531 . S
C1684 H1696 0.960 . S
C1684 H1697 0.962 . S
C1684 H1698 0.960 . S
C1685 C1682 1.511 . S
C1685 H1699 0.961 . S
C1685 H1700 0.961 . S
C1685 H1701 0.961 . S
C1686 C1687 1.370 . S
C1686 C1688 1.363 . S
C1686 H1702 0.931 . S
C1687 C1686 1.370 . S
C1687 C1691 1.408 . S
C1688 C1686 1.363 . S
C1688 C1689 1.370 . S
C1688 C1692 1.524 . S
C1689 C1681 1.503 . S
C1689 C1688 1.370 . S
C1689 C1690 1.403 . S
C1690 C1689 1.403 . S
C1690 C1691 1.404 . S
C1690 C1693 1.539 . S
C1691 C1687 1.408 . S
C1691 C1690 1.404 . S
C1691 H1703 0.930 . S
C1692 C1688 1.524 . S
C1692 H1704 0.956 . S
C1692 H1705 0.961 . S
C1692 H1706 0.961 . S
C1693 C1690 1.539 . S
C1693 H1707 0.958 . S
C1693 H1708 0.961 . S
C1693 H1709 0.960 . S
H1694 C1678 0.931 . S
H1695 C1683 0.929 . S
H1696 C1684 0.960 . S
H1697 C1684 0.962 . S
H1698 C1684 0.960 . S
H1699 C1685 0.961 . S
H1700 C1685 0.961 . S
H1701 C1685 0.961 . S
H1702 C1686 0.931 . S
H1703 C1691 0.930 . S
H1704 C1692 0.956 . S
H1705 C1692 0.961 . S
H1706 C1692 0.961 . S
H1707 C1693 0.958 . S
H1708 C1693 0.961 . S
H1709 C1693 0.960 . S
C1710 C1711 1.391 . S
C1710 C1712 1.394 . S
C1710 H1726 0.931 . S
C1711 C1710 1.391 . S
C1711 C1715 1.376 . S
C1712 C1710 1.394 . S
C1712 C1713 1.369 . S
C1712 C1716 1.531 . S
C1713 C1712 1.369 . S
C1713 C1714 1.410 . S
C1713 C1721 1.503 . S
C1714 C1713 1.410 . S
C1714 C1715 1.392 . S
C1714 C1717 1.511 . S
C1715 C1711 1.376 . S
C1715 C1714 1.392 . S
C1715 H1727 0.929 . S
C1716 C1712 1.531 . S
C1716 H1728 0.960 . S
C1716 H1729 0.962 . S
C1716 H1730 0.960 . S
C1717 C1714 1.511 . S
C1717 H1731 0.961 . S
C1717 H1732 0.961 . S
C1717 H1733 0.961 . S
C1718 C1719 1.370 . S
C1718 C1720 1.363 . S
C1718 H1734 0.931 . S
C1719 C1718 1.370 . S
C1719 C1723 1.408 . S
C1720 C1718 1.363 . S
C1720 C1721 1.370 . S
C1720 C1724 1.524 . S
C1721 C1713 1.503 . S
C1721 C1720 1.370 . S
C1721 C1722 1.403 . S
C1722 C1721 1.403 . S
C1722 C1723 1.404 . S
C1722 C1725 1.539 . S
C1723 C1719 1.408 . S
C1723 C1722 1.404 . S
C1723 H1735 0.930 . S
C1724 C1720 1.524 . S
C1724 H1736 0.956 . S
C1724 H1737 0.961 . S
C1724 H1738 0.961 . S
C1725 C1722 1.539 . S
C1725 H1739 0.958 . S
C1725 H1740 0.961 . S
C1725 H1741 0.960 . S
H1726 C1710 0.931 . S
H1727 C1715 0.929 . S
H1728 C1716 0.960 . S
H1729 C1716 0.962 . S
H1730 C1716 0.960 . S
H1731 C1717 0.961 . S
H1732 C1717 0.961 . S
H1733 C1717 0.961 . S
H1734 C1718 0.931 . S
H1735 C1723 0.930 . S
H1736 C1724 0.956 . S
H1737 C1724 0.961 . S
H1738 C1724 0.961 . S
H1739 C1725 0.958 . S
H1740 C1725 0.961 . S
H1741 C1725 0.960 . S
C1742 C1743 1.391 . S
C1742 C1744 1.394 . S
C1742 H1758 0.931 . S
C1743 C1742 1.391 . S
C1743 C1747 1.376 . S
C1744 C1742 1.394 . S
C1744 C1745 1.369 . S
C1744 C1748 1.531 . S
C1745 C1744 1.369 . S
C1745 C1746 1.410 . S
C1745 C1753 1.503 . S
C1746 C1745 1.410 . S
C1746 C1747 1.392 . S
C1746 C1749 1.511 . S
C1747 C1743 1.376 . S
C1747 C1746 1.392 . S
C1747 H1759 0.929 . S
C1748 C1744 1.531 . S
C1748 H1760 0.960 . S
C1748 H1761 0.962 . S
C1748 H1762 0.960 . S
C1749 C1746 1.511 . S
C1749 H1763 0.961 . S
C1749 H1764 0.961 . S
C1749 H1765 0.961 . S
C1750 C1751 1.370 . S
C1750 C1752 1.363 . S
C1750 H1766 0.931 . S
C1751 C1750 1.370 . S
C1751 C1755 1.408 . S
C1752 C1750 1.363 . S
C1752 C1753 1.370 . S
C1752 C1756 1.524 . S
C1753 C1745 1.503 . S
C1753 C1752 1.370 . S
C1753 C1754 1.403 . S
C1754 C1753 1.403 . S
C1754 C1755 1.404 . S
C1754 C1757 1.539 . S
C1755 C1751 1.408 . S
C1755 C1754 1.404 . S
C1755 H1767 0.930 . S
C1756 C1752 1.524 . S
C1756 H1768 0.956 . S
C1756 H1769 0.961 . S
C1756 H1770 0.961 . S
C1757 C1754 1.539 . S
C1757 H1771 0.958 . S
C1757 H1772 0.961 . S
C1757 H1773 0.960 . S
H1758 C1742 0.931 . S
H1759 C1747 0.929 . S
H1760 C1748 0.960 . S
H1761 C1748 0.962 . S
H1762 C1748 0.960 . S
H1763 C1749 0.961 . S
H1764 C1749 0.961 . S
H1765 C1749 0.961 . S
H1766 C1750 0.931 . S
H1767 C1755 0.930 . S
H1768 C1756 0.956 . S
H1769 C1756 0.961 . S
H1770 C1756 0.961 . S
H1771 C1757 0.958 . S
H1772 C1757 0.961 . S
H1773 C1757 0.960 . S
C1774 C1775 1.391 . S
C1774 C1776 1.394 . S
C1774 H1790 0.931 1_554 S
C1775 C1774 1.391 . S
C1775 C1779 1.376 . S
C1776 C1774 1.394 . S
C1776 C1777 1.369 . S
C1776 C1780 1.531 . S
C1777 C1776 1.369 . S
C1777 C1778 1.410 . S
C1777 C1785 1.503 . S
C1778 C1777 1.410 . S
C1778 C1779 1.392 . S
C1778 C1781 1.511 . S
C1779 C1775 1.376 . S
C1779 C1778 1.392 . S
C1779 H1791 0.929 . S
C1780 C1776 1.531 . S
C1780 H1792 0.960 . S
C1780 H1793 0.962 . S
C1780 H1794 0.960 1_554 S
C1781 C1778 1.511 . S
C1781 H1795 0.961 . S
C1781 H1796 0.961 . S
C1781 H1797 0.961 . S
C1782 C1783 1.370 . S
C1782 C1784 1.363 . S
C1782 H1798 0.931 . S
C1783 C1782 1.370 . S
C1783 C1787 1.408 . S
C1784 C1782 1.363 . S
C1784 C1785 1.370 . S
C1784 C1788 1.524 . S
C1785 C1777 1.503 . S
C1785 C1784 1.370 . S
C1785 C1786 1.403 . S
C1786 C1785 1.403 . S
C1786 C1787 1.404 . S
C1786 C1789 1.539 . S
C1787 C1783 1.408 . S
C1787 C1786 1.404 . S
C1787 H1799 0.930 . S
C1788 C1784 1.524 . S
C1788 H1800 0.956 . S
C1788 H1801 0.961 . S
C1788 H1802 0.961 . S
C1789 C1786 1.539 . S
C1789 H1803 0.958 . S
C1789 H1804 0.961 . S
C1789 H1805 0.960 . S
H1790 C1774 0.931 1_556 S
H1791 C1779 0.929 . S
H1792 C1780 0.960 . S
H1793 C1780 0.962 . S
H1794 C1780 0.960 1_556 S
H1795 C1781 0.961 . S
H1796 C1781 0.961 . S
H1797 C1781 0.961 . S
H1798 C1782 0.931 . S
H1799 C1787 0.930 . S
H1800 C1788 0.956 . S
H1801 C1788 0.961 . S
H1802 C1788 0.961 . S
H1803 C1789 0.958 . S
H1804 C1789 0.961 . S
H1805 C1789 0.960 . S
C1806 C1807 1.391 . S
C1806 C1808 1.394 . S
C1806 H1822 0.931 . S
C1807 C1806 1.391 . S
C1807 C1811 1.376 . S
C1808 C1806 1.394 . S
C1808 C1809 1.369 . S
C1808 C1812 1.531 . S
C1809 C1808 1.369 . S
C1809 C1810 1.410 . S
C1809 C1817 1.503 . S
C1810 C1809 1.410 . S
C1810 C1811 1.392 . S
C1810 C1813 1.511 . S
C1811 C1807 1.376 . S
C1811 C1810 1.392 . S
C1811 H1823 0.929 1_556 S
C1812 C1808 1.531 . S
C1812 H1824 0.960 . S
C1812 H1825 0.962 . S
C1812 H1826 0.960 . S
C1813 C1810 1.511 . S
C1813 H1827 0.961 1_556 S
C1813 H1828 0.961 . S
C1813 H1829 0.961 . S
C1814 C1815 1.370 . S
C1814 C1816 1.363 . S
C1814 H1830 0.931 . S
C1815 C1814 1.370 . S
C1815 C1819 1.408 . S
C1816 C1814 1.363 . S
C1816 C1817 1.370 . S
C1816 C1820 1.524 . S
C1817 C1809 1.503 . S
C1817 C1816 1.370 . S
C1817 C1818 1.403 . S
C1818 C1817 1.403 . S
C1818 C1819 1.404 . S
C1818 C1821 1.539 . S
C1819 C1815 1.408 . S
C1819 C1818 1.404 . S
C1819 H1831 0.930 . S
C1820 C1816 1.524 . S
C1820 H1832 0.956 . S
C1820 H1833 0.961 1_556 S
C1820 H1834 0.961 . S
C1821 C1818 1.539 . S
C1821 H1835 0.958 . S
C1821 H1836 0.961 . S
C1821 H1837 0.960 . S
H1822 C1806 0.931 . S
H1823 C1811 0.929 1_554 S
H1824 C1812 0.960 . S
H1825 C1812 0.962 . S
H1826 C1812 0.960 . S
H1827 C1813 0.961 1_554 S
H1828 C1813 0.961 . S
H1829 C1813 0.961 . S
H1830 C1814 0.931 . S
H1831 C1819 0.930 . S
H1832 C1820 0.956 . S
H1833 C1820 0.961 1_554 S
H1834 C1820 0.961 . S
H1835 C1821 0.958 . S
H1836 C1821 0.961 . S
H1837 C1821 0.960 . S
C1838 C1839 1.391 . S
C1838 C1840 1.394 . S
C1838 H1854 0.931 . S
C1839 C1838 1.391 . S
C1839 C1843 1.366 1_556 S
C1840 C1838 1.394 . S
C1840 C1841 1.369 . S
C1840 C1844 1.531 . S
C1841 C1840 1.369 . S
C1841 C1842 1.410 . S
C1841 C1849 1.503 . S
C1842 C1841 1.410 . S
C1842 C1843 1.385 1_556 S
C1842 C1845 1.511 1_556 S
C1843 C1839 1.366 1_554 S
C1843 C1842 1.385 1_554 S
C1843 H1855 0.947 . S
C1844 C1840 1.531 . S
C1844 H1856 0.960 . S
C1844 H1857 0.962 . S
C1844 H1858 0.960 . S
C1845 C1842 1.511 1_554 S
C1845 H1859 0.961 . S
C1845 H1860 0.961 1_554 S
C1845 H1861 0.961 . S
C1846 C1847 1.370 . S
C1846 C1848 1.363 . S
C1846 H1862 0.931 . S
C1847 C1846 1.370 . S
C1847 C1851 1.408 . S
C1848 C1846 1.363 . S
C1848 C1849 1.370 . S
C1848 C1852 1.524 . S
C1849 C1841 1.503 . S
C1849 C1848 1.370 . S
C1849 C1850 1.403 . S
C1850 C1849 1.403 . S
C1850 C1851 1.404 . S
C1850 C1853 1.539 . S
C1851 C1847 1.408 . S
C1851 C1850 1.404 . S
C1851 H1863 0.930 . S
C1852 C1848 1.524 . S
C1852 H1864 0.956 . S
C1852 H1865 0.961 . S
C1852 H1866 0.961 . S
C1853 C1850 1.539 . S
C1853 H1867 0.958 . S
C1853 H1868 0.961 1_556 S
C1853 H1869 0.960 1_556 S
H1854 C1838 0.931 . S
H1855 C1843 0.947 . S
H1856 C1844 0.960 . S
H1857 C1844 0.962 . S
H1858 C1844 0.960 . S
H1859 C1845 0.961 . S
H1860 C1845 0.961 1_556 S
H1861 C1845 0.961 . S
H1862 C1846 0.931 . S
H1863 C1851 0.930 . S
H1864 C1852 0.956 . S
H1865 C1852 0.961 . S
H1866 C1852 0.961 . S
H1867 C1853 0.958 . S
H1868 C1853 0.961 1_554 S
H1869 C1853 0.960 1_554 S
C1870 C1871 1.391 . S
C1870 C1872 1.394 . S
C1870 H1886 0.931 . S
C1871 C1870 1.391 . S
C1871 C1875 1.376 1_556 S
C1872 C1870 1.394 . S
C1872 C1873 1.369 . S
C1872 C1876 1.531 . S
C1873 C1872 1.369 . S
C1873 C1874 1.410 . S
C1873 C1881 1.503 . S
C1874 C1873 1.410 . S
C1874 C1875 1.392 1_556 S
C1874 C1877 1.511 1_556 S
C1875 C1871 1.376 1_554 S
C1875 C1874 1.392 1_554 S
C1875 H1887 0.929 . S
C1876 C1872 1.531 . S
C1876 H1888 0.960 . S
C1876 H1889 0.962 . S
C1876 H1890 0.960 . S
C1877 C1874 1.511 1_554 S
C1877 H1891 0.961 . S
C1877 H1892 0.961 . S
C1877 H1893 0.961 . S
C1878 C1879 1.370 . S
C1878 C1880 1.363 . S
C1878 H1894 0.931 . S
C1879 C1878 1.370 . S
C1879 C1883 1.408 . S
C1880 C1878 1.363 . S
C1880 C1881 1.370 . S
C1880 C1884 1.524 . S
C1881 C1873 1.503 . S
C1881 C1880 1.370 . S
C1881 C1882 1.403 . S
C1882 C1881 1.403 . S
C1882 C1883 1.404 . S
C1882 C1885 1.539 . S
C1883 C1879 1.408 . S
C1883 C1882 1.404 . S
C1883 H1895 0.930 . S
C1884 C1880 1.524 . S
C1884 H1896 0.956 . S
C1884 H1897 0.961 . S
C1884 H1898 0.961 . S
C1885 C1882 1.539 . S
C1885 H1899 0.958 . S
C1885 H1900 0.961 . S
C1885 H1901 0.960 . S
H1886 C1870 0.931 . S
H1887 C1875 0.929 . S
H1888 C1876 0.960 . S
H1889 C1876 0.962 . S
H1890 C1876 0.960 . S
H1891 C1877 0.961 . S
H1892 C1877 0.961 . S
H1893 C1877 0.961 . S
H1894 C1878 0.931 . S
H1895 C1883 0.930 . S
H1896 C1884 0.956 . S
H1897 C1884 0.961 . S
H1898 C1884 0.961 . S
H1899 C1885 0.958 . S
H1900 C1885 0.961 . S
H1901 C1885 0.960 . S
C1902 C1903 1.391 . S
C1902 C1904 1.394 . S
C1902 H1918 0.931 . S
C1903 C1902 1.391 . S
C1903 C1907 1.376 . S
C1904 C1902 1.394 . S
C1904 C1905 1.369 . S
C1904 C1908 1.531 . S
C1905 C1904 1.369 . S
C1905 C1906 1.410 . S
C1905 C1913 1.503 . S
C1906 C1905 1.410 . S
C1906 C1907 1.392 . S
C1906 C1909 1.511 . S
C1907 C1903 1.376 . S
C1907 C1906 1.392 . S
C1907 H1919 0.929 . S
C1908 C1904 1.531 . S
C1908 H1920 0.960 . S
C1908 H1921 0.962 . S
C1908 H1922 0.960 . S
C1909 C1906 1.511 . S
C1909 H1923 0.961 . S
C1909 H1924 0.961 . S
C1909 H1925 0.961 . S
C1910 C1911 1.370 . S
C1910 C1912 1.363 . S
C1910 H1926 0.931 . S
C1911 C1910 1.370 . S
C1911 C1915 1.408 . S
C1912 C1910 1.363 . S
C1912 C1913 1.370 . S
C1912 C1916 1.524 . S
C1913 C1905 1.503 . S
C1913 C1912 1.370 . S
C1913 C1914 1.403 . S
C1914 C1913 1.403 . S
C1914 C1915 1.404 . S
C1914 C1917 1.539 . S
C1915 C1911 1.408 . S
C1915 C1914 1.404 . S
C1915 H1927 0.930 . S
C1916 C1912 1.524 . S
C1916 H1928 0.956 . S
C1916 H1929 0.961 1_556 S
C1916 H1930 0.961 1_556 S
C1917 C1914 1.539 . S
C1917 H1931 0.958 . S
C1917 H1932 0.961 . S
C1917 H1933 0.960 . S
H1918 C1902 0.931 . S
H1919 C1907 0.929 . S
H1920 C1908 0.960 . S
H1921 C1908 0.962 . S
H1922 C1908 0.960 . S
H1923 C1909 0.961 . S
H1924 C1909 0.961 . S
H1925 C1909 0.961 . S
H1926 C1910 0.931 . S
H1927 C1915 0.930 . S
H1928 C1916 0.956 . S
H1929 C1916 0.961 1_554 S
H1930 C1916 0.961 1_554 S
H1931 C1917 0.958 . S
H1932 C1917 0.961 . S
H1933 C1917 0.960 . S
C1934 C1935 1.391 . S
C1934 C1936 1.394 . S
C1934 H1950 0.931 . S
C1935 C1934 1.391 . S
C1935 C1939 1.376 . S
C1936 C1934 1.394 . S
C1936 C1937 1.369 . S
C1936 C1940 1.531 . S
C1937 C1936 1.369 . S
C1937 C1938 1.410 . S
C1937 C1945 1.503 . S
C1938 C1937 1.410 . S
C1938 C1939 1.392 . S
C1938 C1941 1.511 . S
C1939 C1935 1.376 . S
C1939 C1938 1.392 . S
C1939 H1951 0.909 1_556 S
C1940 C1936 1.531 . S
C1940 H1952 0.960 . S
C1940 H1953 0.962 . S
C1940 H1954 0.960 . S
C1941 C1938 1.511 . S
C1941 H1955 0.961 1_556 S
C1941 H1956 0.961 . S
C1941 H1957 0.961 . S
C1942 C1943 1.370 . S
C1942 C1944 1.363 . S
C1942 H1958 0.931 . S
C1943 C1942 1.370 . S
C1943 C1947 1.408 . S
C1944 C1942 1.363 . S
C1944 C1945 1.370 . S
C1944 C1948 1.524 . S
C1945 C1937 1.503 . S
C1945 C1944 1.370 . S
C1945 C1946 1.403 . S
C1946 C1945 1.403 . S
C1946 C1947 1.404 . S
C1946 C1949 1.539 . S
C1947 C1943 1.408 . S
C1947 C1946 1.404 . S
C1947 H1959 0.930 . S
C1948 C1944 1.524 . S
C1948 H1960 0.956 . S
C1948 H1961 0.961 1_556 S
C1948 H1962 0.961 . S
C1949 C1946 1.539 . S
C1949 H1963 0.958 . S
C1949 H1964 0.961 . S
C1949 H1965 0.960 . S
H1950 C1934 0.931 . S
H1951 C1939 0.909 1_554 S
H1952 C1940 0.960 . S
H1953 C1940 0.962 . S
H1954 C1940 0.960 . S
H1955 C1941 0.961 1_554 S
H1956 C1941 0.961 . S
H1957 C1941 0.961 . S
H1958 C1942 0.931 . S
H1959 C1947 0.930 . S
H1960 C1948 0.956 . S
H1961 C1948 0.961 1_554 S
H1962 C1948 0.961 . S
H1963 C1949 0.958 . S
H1964 C1949 0.961 . S
H1965 C1949 0.960 . S
C1966 C1967 1.391 . S
C1966 C1968 1.394 . S
C1966 H1982 0.931 . S
C1967 C1966 1.391 . S
C1967 C1971 1.376 . S
C1968 C1966 1.394 . S
C1968 C1969 1.369 . S
C1968 C1972 1.531 . S
C1969 C1968 1.369 . S
C1969 C1970 1.410 . S
C1969 C1977 1.503 . S
C1970 C1969 1.410 . S
C1970 C1971 1.392 . S
C1970 C1973 1.511 . S
C1971 C1967 1.376 . S
C1971 C1970 1.392 . S
C1971 H1983 0.929 . S
C1972 C1968 1.531 . S
C1972 H1984 0.960 . S
C1972 H1985 0.962 . S
C1972 H1986 0.960 . S
C1973 C1970 1.511 . S
C1973 H1987 0.961 . S
C1973 H1988 0.961 . S
C1973 H1989 0.961 1_556 S
C1974 C1975 1.370 . S
C1974 C1976 1.363 . S
C1974 H1990 0.931 . S
C1975 C1974 1.370 . S
C1975 C1979 1.408 . S
C1976 C1974 1.363 . S
C1976 C1977 1.370 . S
C1976 C1980 1.524 . S
C1977 C1969 1.503 . S
C1977 C1976 1.370 . S
C1977 C1978 1.403 . S
C1978 C1977 1.403 . S
C1978 C1979 1.404 . S
C1978 C1981 1.539 1_556 S
C1979 C1975 1.408 . S
C1979 C1978 1.404 . S
C1979 H1991 0.930 . S
C1980 C1976 1.524 . S
C1980 H1992 0.956 . S
C1980 H1993 0.961 . S
C1980 H1994 0.961 . S
C1981 C1978 1.539 1_554 S
C1981 H1995 0.958 . S
C1981 H1996 0.961 . S
C1981 H1997 0.960 . S
H1982 C1966 0.931 . S
H1983 C1971 0.929 . S
H1984 C1972 0.960 . S
H1985 C1972 0.962 . S
H1986 C1972 0.960 . S
H1987 C1973 0.961 . S
H1988 C1973 0.961 . S
H1989 C1973 0.961 1_554 S
H1990 C1974 0.931 . S
H1991 C1979 0.930 . S
H1992 C1980 0.956 . S
H1993 C1980 0.961 . S
H1994 C1980 0.961 . S
H1995 C1981 0.958 . S
H1996 C1981 0.961 . S
H1997 C1981 0.960 . S
C1998 C1999 1.391 . S
C1998 C2000 1.394 . S
C1998 H2014 0.931 1_554 S
C1999 C1998 1.391 . S
C1999 C2003 1.376 . S
C2000 C1998 1.394 . S
C2000 C2001 1.369 . S
C2000 C2004 1.531 . S
C2001 C2000 1.369 . S
C2001 C2002 1.410 . S
C2001 C2009 1.503 . S
C2002 C2001 1.410 . S
C2002 C2003 1.392 . S
C2002 C2005 1.511 . S
C2003 C1999 1.376 . S
C2003 C2002 1.392 . S
C2003 H2015 0.929 . S
C2004 C2000 1.531 . S
C2004 H2016 0.960 . S
C2004 H2017 0.962 . S
C2004 H2018 0.960 1_554 S
C2005 C2002 1.511 . S
C2005 H2019 0.961 . S
C2005 H2020 0.961 . S
C2005 H2021 0.961 . S
C2006 C2007 1.370 . S
C2006 C2008 1.363 . S
C2006 H2022 0.931 . S
C2007 C2006 1.370 . S
C2007 C2011 1.408 . S
C2008 C2006 1.363 . S
C2008 C2009 1.370 . S
C2008 C2012 1.524 . S
C2009 C2001 1.503 . S
C2009 C2008 1.370 . S
C2009 C2010 1.403 . S
C2010 C2009 1.403 . S
C2010 C2011 1.404 . S
C2010 C2013 1.539 . S
C2011 C2007 1.408 . S
C2011 C2010 1.404 . S
C2011 H2023 0.930 . S
C2012 C2008 1.524 . S
C2012 H2024 0.956 . S
C2012 H2025 0.961 . S
C2012 H2026 0.961 . S
C2013 C2010 1.539 . S
C2013 H2027 0.958 . S
C2013 H2028 0.961 . S
C2013 H2029 0.960 . S
H2014 C1998 0.931 1_556 S
H2015 C2003 0.929 . S
H2016 C2004 0.960 . S
H2017 C2004 0.962 . S
H2018 C2004 0.960 1_556 S
H2019 C2005 0.961 . S
H2020 C2005 0.961 . S
H2021 C2005 0.961 . S
H2022 C2006 0.931 . S
H2023 C2011 0.930 . S
H2024 C2012 0.956 . S
H2025 C2012 0.961 . S
H2026 C2012 0.961 . S
H2027 C2013 0.958 . S
H2028 C2013 0.961 . S
H2029 C2013 0.960 . S
C2030 C2031 1.391 . S
C2030 C2032 1.394 . S
C2030 H2046 0.931 1_554 S
C2031 C2030 1.391 . S
C2031 C2035 1.376 . S
C2032 C2030 1.394 . S
C2032 C2033 1.369 . S
C2032 C2036 1.531 . S
C2033 C2032 1.369 . S
C2033 C2034 1.410 . S
C2033 C2041 1.503 . S
C2034 C2033 1.410 . S
C2034 C2035 1.392 . S
C2034 C2037 1.511 . S
C2035 C2031 1.376 . S
C2035 C2034 1.392 . S
C2035 H2047 0.929 . S
C2036 C2032 1.531 . S
C2036 H2048 0.960 . S
C2036 H2049 0.958 1_554 S
C2036 H2050 0.960 1_554 S
C2037 C2034 1.511 . S
C2037 H2051 0.961 . S
C2037 H2052 0.961 . S
C2037 H2053 0.961 . S
C2038 C2039 1.370 . S
C2038 C2040 1.363 . S
C2038 H2054 0.931 . S
C2039 C2038 1.370 . S
C2039 C2043 1.408 . S
C2040 C2038 1.363 . S
C2040 C2041 1.370 . S
C2040 C2044 1.524 . S
C2041 C2033 1.503 . S
C2041 C2040 1.370 . S
C2041 C2042 1.403 . S
C2042 C2041 1.403 . S
C2042 C2043 1.404 . S
C2042 C2045 1.539 . S
C2043 C2039 1.408 . S
C2043 C2042 1.404 . S
C2043 H2055 0.930 . S
C2044 C2040 1.524 . S
C2044 H2056 0.956 . S
C2044 H2057 0.961 . S
C2044 H2058 0.961 . S
C2045 C2042 1.539 . S
C2045 H2059 0.958 . S
C2045 H2060 0.961 . S
C2045 H2061 0.960 . S
H2046 C2030 0.931 1_556 S
H2047 C2035 0.929 . S
H2048 C2036 0.960 . S
H2049 C2036 0.958 1_556 S
H2050 C2036 0.960 1_556 S
H2051 C2037 0.961 . S
H2052 C2037 0.961 . S
H2053 C2037 0.961 . S
H2054 C2038 0.931 . S
H2055 C2043 0.930 . S
H2056 C2044 0.956 . S
H2057 C2044 0.961 . S
H2058 C2044 0.961 . S
H2059 C2045 0.958 . S
H2060 C2045 0.961 . S
H2061 C2045 0.960 . S
C2062 C2063 1.391 . S
C2062 C2064 1.394 . S
C2062 H2078 0.931 1_554 S
C2063 C2062 1.391 . S
C2063 C2067 1.376 . S
C2064 C2062 1.394 . S
C2064 C2065 1.369 . S
C2064 C2068 1.531 . S
C2065 C2064 1.369 . S
C2065 C2066 1.410 . S
C2065 C2073 1.503 . S
C2066 C2065 1.410 . S
C2066 C2067 1.392 . S
C2066 C2069 1.511 . S
C2067 C2063 1.376 . S
C2067 C2066 1.392 . S
C2067 H2079 0.929 . S
C2068 C2064 1.531 . S
C2068 H2080 0.960 . S
C2068 H2081 0.979 . S
C2068 H2082 0.960 1_554 S
C2069 C2066 1.511 . S
C2069 H2083 0.961 . S
C2069 H2084 0.961 . S
C2069 H2085 0.961 . S
C2070 C2071 1.370 . S
C2070 C2072 1.363 . S
C2070 H2086 0.931 . S
C2071 C2070 1.370 . S
C2071 C2075 1.408 . S
C2072 C2070 1.363 . S
C2072 C2073 1.370 . S
C2072 C2076 1.524 . S
C2073 C2065 1.503 . S
C2073 C2072 1.370 . S
C2073 C2074 1.403 . S
C2074 C2073 1.403 . S
C2074 C2075 1.404 . S
C2074 C2077 1.539 . S
C2075 C2071 1.408 . S
C2075 C2074 1.404 . S
C2075 H2087 0.930 . S
C2076 C2072 1.524 . S
C2076 H2088 0.956 . S
C2076 H2089 0.961 . S
C2076 H2090 0.961 . S
C2077 C2074 1.539 . S
C2077 H2091 0.958 . S
C2077 H2092 0.961 . S
C2077 H2093 0.960 . S
H2078 C2062 0.931 1_556 S
H2079 C2067 0.929 . S
H2080 C2068 0.960 . S
H2081 C2068 0.979 . S
H2082 C2068 0.960 1_556 S
H2083 C2069 0.961 . S
H2084 C2069 0.961 . S
H2085 C2069 0.961 . S
H2086 C2070 0.931 . S
H2087 C2075 0.930 . S
H2088 C2076 0.956 . S
H2089 C2076 0.961 . S
H2090 C2076 0.961 . S
H2091 C2077 0.958 . S
H2092 C2077 0.961 . S
H2093 C2077 0.960 . S
C2094 C2095 1.391 . S
C2094 C2096 1.394 . S
C2094 H2110 0.931 . S
C2095 C2094 1.391 . S
C2095 C2099 1.376 . S
C2096 C2094 1.394 . S
C2096 C2097 1.369 . S
C2096 C2100 1.531 . S
C2097 C2096 1.369 . S
C2097 C2098 1.410 . S
C2097 C2105 1.503 . S
C2098 C2097 1.410 . S
C2098 C2099 1.392 . S
C2098 C2101 1.511 . S
C2099 C2095 1.376 . S
C2099 C2098 1.392 . S
C2099 H2111 0.929 . S
C2100 C2096 1.531 . S
C2100 H2112 0.960 . S
C2100 H2113 0.962 . S
C2100 H2114 0.960 . S
C2101 C2098 1.511 . S
C2101 H2115 0.961 . S
C2101 H2116 0.961 . S
C2101 H2117 0.961 . S
C2102 C2103 1.370 . S
C2102 C2104 1.363 . S
C2102 H2118 0.931 . S
C2103 C2102 1.370 . S
C2103 C2107 1.408 . S
C2104 C2102 1.363 . S
C2104 C2105 1.370 . S
C2104 C2108 1.524 . S
C2105 C2097 1.503 . S
C2105 C2104 1.370 . S
C2105 C2106 1.403 . S
C2106 C2105 1.403 . S
C2106 C2107 1.404 . S
C2106 C2109 1.539 . S
C2107 C2103 1.408 . S
C2107 C2106 1.404 . S
C2107 H2119 0.930 . S
C2108 C2104 1.524 . S
C2108 H2120 0.956 . S
C2108 H2121 0.961 . S
C2108 H2122 0.961 . S
C2109 C2106 1.539 . S
C2109 H2123 0.958 . S
C2109 H2124 0.961 . S
C2109 H2125 0.960 . S
H2110 C2094 0.931 . S
H2111 C2099 0.929 . S
H2112 C2100 0.960 . S
H2113 C2100 0.962 . S
H2114 C2100 0.960 . S
H2115 C2101 0.961 . S
H2116 C2101 0.961 . S
H2117 C2101 0.961 . S
H2118 C2102 0.931 . S
H2119 C2107 0.930 . S
H2120 C2108 0.956 . S
H2121 C2108 0.961 . S
H2122 C2108 0.961 . S
H2123 C2109 0.958 . S
H2124 C2109 0.961 . S
H2125 C2109 0.960 . S
C2126 C2127 1.391 . S
C2126 C2128 1.394 . S
C2126 H2142 0.931 . S
C2127 C2126 1.391 . S
C2127 C2131 1.376 . S
C2128 C2126 1.394 . S
C2128 C2129 1.369 . S
C2128 C2132 1.531 . S
C2129 C2128 1.369 . S
C2129 C2130 1.410 . S
C2129 C2137 1.503 . S
C2130 C2129 1.410 . S
C2130 C2131 1.392 . S
C2130 C2133 1.511 . S
C2131 C2127 1.376 . S
C2131 C2130 1.392 . S
C2131 H2143 0.929 . S
C2132 C2128 1.531 . S
C2132 H2144 0.960 . S
C2132 H2145 0.962 . S
C2132 H2146 0.960 . S
C2133 C2130 1.511 . S
C2133 H2147 0.961 . S
C2133 H2148 0.961 . S
C2133 H2149 0.961 . S
C2134 C2135 1.370 . S
C2134 C2136 1.363 . S
C2134 H2150 0.931 . S
C2135 C2134 1.370 . S
C2135 C2139 1.408 . S
C2136 C2134 1.363 . S
C2136 C2137 1.370 . S
C2136 C2140 1.524 . S
C2137 C2129 1.503 . S
C2137 C2136 1.370 . S
C2137 C2138 1.403 . S
C2138 C2137 1.403 . S
C2138 C2139 1.404 . S
C2138 C2141 1.539 . S
C2139 C2135 1.408 . S
C2139 C2138 1.404 . S
C2139 H2151 0.930 . S
C2140 C2136 1.524 . S
C2140 H2152 0.956 . S
C2140 H2153 0.961 . S
C2140 H2154 0.961 . S
C2141 C2138 1.539 . S
C2141 H2155 0.958 . S
C2141 H2156 0.961 . S
C2141 H2157 0.960 . S
H2142 C2126 0.931 . S
H2143 C2131 0.929 . S
H2144 C2132 0.960 . S
H2145 C2132 0.962 . S
H2146 C2132 0.960 . S
H2147 C2133 0.961 . S
H2148 C2133 0.961 . S
H2149 C2133 0.961 . S
H2150 C2134 0.931 . S
H2151 C2139 0.930 . S
H2152 C2140 0.956 . S
H2153 C2140 0.961 . S
H2154 C2140 0.961 . S
H2155 C2141 0.958 . S
H2156 C2141 0.961 . S
H2157 C2141 0.960 . S
C2158 C2159 1.391 . S
C2158 C2160 1.394 . S
C2158 H2174 0.931 . S
C2159 C2158 1.391 . S
C2159 C2163 1.376 . S
C2160 C2158 1.394 . S
C2160 C2161 1.369 . S
C2160 C2164 1.531 . S
C2161 C2160 1.369 . S
C2161 C2162 1.410 . S
C2161 C2169 1.503 . S
C2162 C2161 1.410 . S
C2162 C2163 1.392 . S
C2162 C2165 1.511 . S
C2163 C2159 1.376 . S
C2163 C2162 1.392 . S
C2163 H2175 0.929 . S
C2164 C2160 1.531 . S
C2164 H2176 0.960 . S
C2164 H2177 0.962 . S
C2164 H2178 0.960 . S
C2165 C2162 1.511 . S
C2165 H2179 0.961 . S
C2165 H2180 0.961 . S
C2165 H2181 0.961 . S
C2166 C2167 1.370 . S
C2166 C2168 1.363 . S
C2166 H2182 0.931 . S
C2167 C2166 1.370 . S
C2167 C2171 1.408 . S
C2168 C2166 1.363 . S
C2168 C2169 1.370 . S
C2168 C2172 1.524 . S
C2169 C2161 1.503 . S
C2169 C2168 1.370 . S
C2169 C2170 1.403 . S
C2170 C2169 1.403 . S
C2170 C2171 1.404 . S
C2170 C2173 1.539 . S
C2171 C2167 1.408 . S
C2171 C2170 1.404 . S
C2171 H2183 0.930 . S
C2172 C2168 1.524 . S
C2172 H2184 0.956 . S
C2172 H2185 0.961 . S
C2172 H2186 0.961 . S
C2173 C2170 1.539 . S
C2173 H2187 0.958 . S
C2173 H2188 0.961 . S
C2173 H2189 0.960 . S
H2174 C2158 0.931 . S
H2175 C2163 0.929 . S
H2176 C2164 0.960 . S
H2177 C2164 0.962 . S
H2178 C2164 0.960 . S
H2179 C2165 0.961 . S
H2180 C2165 0.961 . S
H2181 C2165 0.961 . S
H2182 C2166 0.931 . S
H2183 C2171 0.930 . S
H2184 C2172 0.956 . S
H2185 C2172 0.961 . S
H2186 C2172 0.961 . S
H2187 C2173 0.958 . S
H2188 C2173 0.961 . S
H2189 C2173 0.960 . S
C2190 C2191 1.391 . S
C2190 C2192 1.394 . S
C2190 H2206 0.931 . S
C2191 C2190 1.391 . S
C2191 C2195 1.376 . S
C2192 C2190 1.394 . S
C2192 C2193 1.369 . S
C2192 C2196 1.531 . S
C2193 C2192 1.369 . S
C2193 C2194 1.410 . S
C2193 C2201 1.503 . S
C2194 C2193 1.410 . S
C2194 C2195 1.392 . S
C2194 C2197 1.511 . S
C2195 C2191 1.376 . S
C2195 C2194 1.392 . S
C2195 H2207 0.929 . S
C2196 C2192 1.531 . S
C2196 H2208 0.960 . S
C2196 H2209 0.962 1_455 S
C2196 H2210 0.960 . S
C2197 C2194 1.511 . S
C2197 H2211 0.961 . S
C2197 H2212 0.961 . S
C2197 H2213 0.961 . S
C2198 C2199 1.370 1_655 S
C2198 C2200 1.363 . S
C2198 H2214 0.931 . S
C2199 C2198 1.370 1_455 S
C2199 C2203 1.408 . S
C2200 C2198 1.363 . S
C2200 C2201 1.370 1_655 S
C2200 C2204 1.524 . S
C2201 C2193 1.503 . S
C2201 C2200 1.370 1_455 S
C2201 C2202 1.403 . S
C2202 C2201 1.403 . S
C2202 C2203 1.404 . S
C2202 C2205 1.539 . S
C2203 C2199 1.408 . S
C2203 C2202 1.404 . S
C2203 H2215 0.930 . S
C2204 C2200 1.524 . S
C2204 H2216 0.956 . S
C2204 H2217 0.961 . S
C2204 H2218 0.961 . S
C2205 C2202 1.539 . S
C2205 H2219 0.958 . S
C2205 H2220 0.961 . S
C2205 H2221 0.960 . S
H2206 C2190 0.931 . S
H2207 C2195 0.929 . S
H2208 C2196 0.960 . S
H2209 C2196 0.962 1_655 S
H2210 C2196 0.960 . S
H2211 C2197 0.961 . S
H2212 C2197 0.961 . S
H2213 C2197 0.961 . S
H2214 C2198 0.931 . S
H2215 C2203 0.930 . S
H2216 C2204 0.956 . S
H2217 C2204 0.961 . S
H2218 C2204 0.961 . S
H2219 C2205 0.958 . S
H2220 C2205 0.961 . S
H2221 C2205 0.960 . S
C2222 C2223 1.391 . S
C2222 C2224 1.394 . S
C2222 H2238 0.931 . S
C2223 C2222 1.391 . S
C2223 C2227 1.376 . S
C2224 C2222 1.394 . S
C2224 C2225 1.369 . S
C2224 C2228 1.531 . S
C2225 C2224 1.369 . S
C2225 C2226 1.410 . S
C2225 C2233 1.503 . S
C2226 C2225 1.410 . S
C2226 C2227 1.392 . S
C2226 C2229 1.511 . S
C2227 C2223 1.376 . S
C2227 C2226 1.392 . S
C2227 H2239 0.929 . S
C2228 C2224 1.531 . S
C2228 H2240 0.960 . S
C2228 H2241 0.962 . S
C2228 H2242 0.960 . S
C2229 C2226 1.511 . S
C2229 H2243 0.961 . S
C2229 H2244 0.961 . S
C2229 H2245 0.961 . S
C2230 C2231 1.370 . S
C2230 C2232 1.363 . S
C2230 H2246 0.931 . S
C2231 C2230 1.370 . S
C2231 C2235 1.408 . S
C2232 C2230 1.363 . S
C2232 C2233 1.370 . S
C2232 C2236 1.524 . S
C2233 C2225 1.503 . S
C2233 C2232 1.370 . S
C2233 C2234 1.403 . S
C2234 C2233 1.403 . S
C2234 C2235 1.404 . S
C2234 C2237 1.539 . S
C2235 C2231 1.408 . S
C2235 C2234 1.404 . S
C2235 H2247 0.930 . S
C2236 C2232 1.524 . S
C2236 H2248 0.956 . S
C2236 H2249 0.961 . S
C2236 H2250 0.961 . S
C2237 C2234 1.539 . S
C2237 H2251 0.958 . S
C2237 H2252 0.961 . S
C2237 H2253 0.960 . S
H2238 C2222 0.931 . S
H2239 C2227 0.929 . S
H2240 C2228 0.960 . S
H2241 C2228 0.962 . S
H2242 C2228 0.960 . S
H2243 C2229 0.961 . S
H2244 C2229 0.961 . S
H2245 C2229 0.961 . S
H2246 C2230 0.931 . S
H2247 C2235 0.930 . S
H2248 C2236 0.956 . S
H2249 C2236 0.961 . S
H2250 C2236 0.961 . S
H2251 C2237 0.958 . S
H2252 C2237 0.961 . S
H2253 C2237 0.960 . S
C2254 C2255 1.390 1_545 S
C2254 C2256 1.392 . S
C2254 H2270 0.933 . S
C2255 C2254 1.390 1_565 S
C2255 C2259 1.376 . S
C2256 C2254 1.392 . S
C2256 C2257 1.369 1_545 S
C2256 C2260 1.531 . S
C2257 C2256 1.369 1_565 S
C2257 C2258 1.410 . S
C2257 C2265 1.503 . S
C2258 C2257 1.410 . S
C2258 C2259 1.392 . S
C2258 C2261 1.511 . S
C2259 C2255 1.376 . S
C2259 C2258 1.392 . S
C2259 H2271 0.929 . S
C2260 C2256 1.531 . S
C2260 H2272 0.960 . S
C2260 H2273 0.962 . S
C2260 H2274 0.960 . S
C2261 C2258 1.511 . S
C2261 H2275 0.961 . S
C2261 H2276 0.961 . S
C2261 H2277 0.961 . S
C2262 C2263 1.370 . S
C2262 C2264 1.363 . S
C2262 H2278 0.931 . S
C2263 C2262 1.370 . S
C2263 C2267 1.408 1_565 S
C2264 C2262 1.363 . S
C2264 C2265 1.370 . S
C2264 C2268 1.524 . S
C2265 C2257 1.503 . S
C2265 C2264 1.370 . S
C2265 C2266 1.403 1_565 S
C2266 C2265 1.403 1_545 S
C2266 C2267 1.404 . S
C2266 C2269 1.539 . S
C2267 C2263 1.408 1_545 S
C2267 C2266 1.404 . S
C2267 H2279 0.930 . S
C2268 C2264 1.524 . S
C2268 H2280 0.956 . S
C2268 H2281 0.961 . S
C2268 H2282 0.961 . S
C2269 C2266 1.539 . S
C2269 H2283 0.958 . S
C2269 H2284 0.961 . S
C2269 H2285 0.960 . S
H2270 C2254 0.933 . S
H2271 C2259 0.929 . S
H2272 C2260 0.960 . S
H2273 C2260 0.962 . S
H2274 C2260 0.960 . S
H2275 C2261 0.961 . S
H2276 C2261 0.961 . S
H2277 C2261 0.961 . S
H2278 C2262 0.931 . S
H2279 C2267 0.930 . S
H2280 C2268 0.956 . S
H2281 C2268 0.961 . S
H2282 C2268 0.961 . S
H2283 C2269 0.958 . S
H2284 C2269 0.961 . S
H2285 C2269 0.960 . S
C2286 C2287 1.391 . S
C2286 C2288 1.394 . S
C2286 H2302 0.928 . S
C2287 C2286 1.391 . S
C2287 C2291 1.376 . S
C2288 C2286 1.394 . S
C2288 C2289 1.369 . S
C2288 C2292 1.531 1_565 S
C2289 C2288 1.369 . S
C2289 C2290 1.410 . S
C2289 C2297 1.503 . S
C2290 C2289 1.410 . S
C2290 C2291 1.392 . S
C2290 C2293 1.511 . S
C2291 C2287 1.376 . S
C2291 C2290 1.392 . S
C2291 H2303 0.929 . S
C2292 C2288 1.531 1_545 S
C2292 H2304 0.960 1_545 S
C2292 H2305 0.962 . S
C2292 H2306 0.960 . S
C2293 C2290 1.511 . S
C2293 H2307 0.961 . S
C2293 H2308 0.961 . S
C2293 H2309 0.961 . S
C2294 C2295 1.370 1_545 S
C2294 C2296 1.363 . S
C2294 H2310 0.931 . S
C2295 C2294 1.370 1_565 S
C2295 C2299 1.408 . S
C2296 C2294 1.363 . S
C2296 C2297 1.370 1_545 S
C2296 C2300 1.524 . S
C2297 C2289 1.503 . S
C2297 C2296 1.370 1_565 S
C2297 C2298 1.403 . S
C2298 C2297 1.403 . S
C2298 C2299 1.404 . S
C2298 C2301 1.539 . S
C2299 C2295 1.408 . S
C2299 C2298 1.404 . S
C2299 H2311 0.930 . S
C2300 C2296 1.524 . S
C2300 H2312 0.956 . S
C2300 H2313 0.961 . S
C2300 H2314 0.961 . S
C2301 C2298 1.539 . S
C2301 H2315 0.958 . S
C2301 H2316 0.961 . S
C2301 H2317 0.960 . S
H2302 C2286 0.928 . S
H2303 C2291 0.929 . S
H2304 C2292 0.960 1_565 S
H2305 C2292 0.962 . S
H2306 C2292 0.960 . S
H2307 C2293 0.961 . S
H2308 C2293 0.961 . S
H2309 C2293 0.961 . S
H2310 C2294 0.931 . S
H2311 C2299 0.930 . S
H2312 C2300 0.956 . S
H2313 C2300 0.961 . S
H2314 C2300 0.961 . S
H2315 C2301 0.958 . S
H2316 C2301 0.961 . S
H2317 C2301 0.960 . S
C2318 C2319 1.367 1_655 S
C2318 C2320 1.372 . S
C2318 H2334 0.977 . S
C2319 C2318 1.367 1_455 S
C2319 C2323 1.376 . S
C2320 C2318 1.372 . S
C2320 C2321 1.369 1_655 S
C2320 C2324 1.531 . S
C2321 C2320 1.369 1_455 S
C2321 C2322 1.410 . S
C2321 C2329 1.503 . S
C2322 C2321 1.410 . S
C2322 C2323 1.392 . S
C2322 C2325 1.511 . S
C2323 C2319 1.376 . S
C2323 C2322 1.392 . S
C2323 H2335 0.929 . S
C2324 C2320 1.531 . S
C2324 H2336 0.960 . S
C2324 H2337 0.962 . S
C2324 H2338 0.960 . S
C2325 C2322 1.511 . S
C2325 H2339 0.961 . S
C2325 H2340 0.961 . S
C2325 H2341 0.961 . S
C2326 C2327 1.352 1_655 S
C2326 C2328 1.363 . S
C2326 H2342 0.931 . S
C2327 C2326 1.352 1_455 S
C2327 C2331 1.416 . S
C2328 C2326 1.363 . S
C2328 C2329 1.370 1_655 S
C2328 C2332 1.524 . S
C2329 C2321 1.503 . S
C2329 C2328 1.370 1_455 S
C2329 C2330 1.403 . S
C2330 C2329 1.403 . S
C2330 C2331 1.404 . S
C2330 C2333 1.539 . S
C2331 C2327 1.416 . S
C2331 C2330 1.404 . S
C2331 H2343 0.930 . S
C2332 C2328 1.524 . S
C2332 H2344 0.956 . S
C2332 H2345 0.961 . S
C2332 H2346 0.961 . S
C2333 C2330 1.539 . S
C2333 H2347 0.958 . S
C2333 H2348 0.961 . S
C2333 H2349 0.960 . S
H2334 C2318 0.977 . S
H2335 C2323 0.929 . S
H2336 C2324 0.960 . S
H2337 C2324 0.962 . S
H2338 C2324 0.960 . S
H2339 C2325 0.961 . S
H2340 C2325 0.961 . S
H2341 C2325 0.961 . S
H2342 C2326 0.931 . S
H2343 C2331 0.930 . S
H2344 C2332 0.956 . S
H2345 C2332 0.961 . S
H2346 C2332 0.961 . S
H2347 C2333 0.958 . S
H2348 C2333 0.961 . S
H2349 C2333 0.960 . S
C2350 C2351 1.391 . S
C2350 C2352 1.394 . S
C2350 H2366 0.931 . S
C2351 C2350 1.391 . S
C2351 C2355 1.376 . S
C2352 C2350 1.394 . S
C2352 C2353 1.369 . S
C2352 C2356 1.531 . S
C2353 C2352 1.369 . S
C2353 C2354 1.410 . S
C2353 C2361 1.503 . S
C2354 C2353 1.410 . S
C2354 C2355 1.392 . S
C2354 C2357 1.511 . S
C2355 C2351 1.376 . S
C2355 C2354 1.392 . S
C2355 H2367 0.929 . S
C2356 C2352 1.531 . S
C2356 H2368 0.960 . S
C2356 H2369 0.962 . S
C2356 H2370 0.960 . S
C2357 C2354 1.511 . S
C2357 H2371 0.961 . S
C2357 H2372 0.961 . S
C2357 H2373 0.961 . S
C2358 C2359 1.370 . S
C2358 C2360 1.363 . S
C2358 H2374 0.931 . S
C2359 C2358 1.370 . S
C2359 C2363 1.408 . S
C2360 C2358 1.363 . S
C2360 C2361 1.370 . S
C2360 C2364 1.524 . S
C2361 C2353 1.503 . S
C2361 C2360 1.370 . S
C2361 C2362 1.403 . S
C2362 C2361 1.403 . S
C2362 C2363 1.404 . S
C2362 C2365 1.539 . S
C2363 C2359 1.408 . S
C2363 C2362 1.404 . S
C2363 H2375 0.930 . S
C2364 C2360 1.524 . S
C2364 H2376 0.956 . S
C2364 H2377 0.961 . S
C2364 H2378 0.961 . S
C2365 C2362 1.539 . S
C2365 H2379 0.958 . S
C2365 H2380 0.961 . S
C2365 H2381 0.960 . S
H2366 C2350 0.931 . S
H2367 C2355 0.929 . S
H2368 C2356 0.960 . S
H2369 C2356 0.962 . S
H2370 C2356 0.960 . S
H2371 C2357 0.961 . S
H2372 C2357 0.961 . S
H2373 C2357 0.961 . S
H2374 C2358 0.931 . S
H2375 C2363 0.930 . S
H2376 C2364 0.956 . S
H2377 C2364 0.961 . S
H2378 C2364 0.961 . S
H2379 C2365 0.958 . S
H2380 C2365 0.961 . S
H2381 C2365 0.960 . S
C2382 C2383 1.391 . S
C2382 C2384 1.394 . S
C2382 H2398 0.931 . S
C2383 C2382 1.391 . S
C2383 C2387 1.376 . S
C2384 C2382 1.394 . S
C2384 C2385 1.369 . S
C2384 C2388 1.531 . S
C2385 C2384 1.369 . S
C2385 C2386 1.410 . S
C2385 C2393 1.503 . S
C2386 C2385 1.410 . S
C2386 C2387 1.392 . S
C2386 C2389 1.511 . S
C2387 C2383 1.376 . S
C2387 C2386 1.392 . S
C2387 H2399 0.929 . S
C2388 C2384 1.531 . S
C2388 H2400 0.960 . S
C2388 H2401 0.962 . S
C2388 H2402 0.960 . S
C2389 C2386 1.511 . S
C2389 H2403 0.961 . S
C2389 H2404 0.961 . S
C2389 H2405 0.961 . S
C2390 C2391 1.370 . S
C2390 C2392 1.363 . S
C2390 H2406 0.931 . S
C2391 C2390 1.370 . S
C2391 C2395 1.408 . S
C2392 C2390 1.363 . S
C2392 C2393 1.370 . S
C2392 C2396 1.524 . S
C2393 C2385 1.503 . S
C2393 C2392 1.370 . S
C2393 C2394 1.403 . S
C2394 C2393 1.403 . S
C2394 C2395 1.404 . S
C2394 C2397 1.539 . S
C2395 C2391 1.408 . S
C2395 C2394 1.404 . S
C2395 H2407 0.930 . S
C2396 C2392 1.524 . S
C2396 H2408 0.956 . S
C2396 H2409 0.961 . S
C2396 H2410 0.961 . S
C2397 C2394 1.539 . S
C2397 H2411 0.958 . S
C2397 H2412 0.961 . S
C2397 H2413 0.960 . S
H2398 C2382 0.931 . S
H2399 C2387 0.929 . S
H2400 C2388 0.960 . S
H2401 C2388 0.962 . S
H2402 C2388 0.960 . S
H2403 C2389 0.961 . S
H2404 C2389 0.961 . S
H2405 C2389 0.961 . S
H2406 C2390 0.931 . S
H2407 C2395 0.930 . S
H2408 C2396 0.956 . S
H2409 C2396 0.961 . S
H2410 C2396 0.961 . S
H2411 C2397 0.958 . S
H2412 C2397 0.961 . S
H2413 C2397 0.960 . S
C2414 C2415 1.391 . S
C2414 C2416 1.394 . S
C2414 H2430 0.931 . S
C2415 C2414 1.391 . S
C2415 C2419 1.376 . S
C2416 C2414 1.394 . S
C2416 C2417 1.369 . S
C2416 C2420 1.531 . S
C2417 C2416 1.369 . S
C2417 C2418 1.410 . S
C2417 C2425 1.503 . S
C2418 C2417 1.410 . S
C2418 C2419 1.392 . S
C2418 C2421 1.511 . S
C2419 C2415 1.376 . S
C2419 C2418 1.392 . S
C2419 H2431 0.929 . S
C2420 C2416 1.531 . S
C2420 H2432 0.960 . S
C2420 H2433 0.962 . S
C2420 H2434 0.960 . S
C2421 C2418 1.511 . S
C2421 H2435 0.961 . S
C2421 H2436 0.961 . S
C2421 H2437 0.961 . S
C2422 C2423 1.370 . S
C2422 C2424 1.363 . S
C2422 H2438 0.931 . S
C2423 C2422 1.370 . S
C2423 C2427 1.408 . S
C2424 C2422 1.363 . S
C2424 C2425 1.370 . S
C2424 C2428 1.524 . S
C2425 C2417 1.503 . S
C2425 C2424 1.370 . S
C2425 C2426 1.403 . S
C2426 C2425 1.403 . S
C2426 C2427 1.404 . S
C2426 C2429 1.539 . S
C2427 C2423 1.408 . S
C2427 C2426 1.404 . S
C2427 H2439 0.930 . S
C2428 C2424 1.524 . S
C2428 H2440 0.956 . S
C2428 H2441 0.961 . S
C2428 H2442 0.961 . S
C2429 C2426 1.539 . S
C2429 H2443 0.958 . S
C2429 H2444 0.961 . S
C2429 H2445 0.960 . S
H2430 C2414 0.931 . S
H2431 C2419 0.929 . S
H2432 C2420 0.960 . S
H2433 C2420 0.962 . S
H2434 C2420 0.960 . S
H2435 C2421 0.961 . S
H2436 C2421 0.961 . S
H2437 C2421 0.961 . S
H2438 C2422 0.931 . S
H2439 C2427 0.930 . S
H2440 C2428 0.956 . S
H2441 C2428 0.961 . S
H2442 C2428 0.961 . S
H2443 C2429 0.958 . S
H2444 C2429 0.961 . S
H2445 C2429 0.960 . S
C2446 C2447 1.391 . S
C2446 C2448 1.394 . S
C2446 H2462 0.931 . S
C2447 C2446 1.391 . S
C2447 C2451 1.376 . S
C2448 C2446 1.394 . S
C2448 C2449 1.369 . S
C2448 C2452 1.531 . S
C2449 C2448 1.369 . S
C2449 C2450 1.410 . S
C2449 C2457 1.503 . S
C2450 C2449 1.410 . S
C2450 C2451 1.392 . S
C2450 C2453 1.511 . S
C2451 C2447 1.376 . S
C2451 C2450 1.392 . S
C2451 H2463 0.929 . S
C2452 C2448 1.531 . S
C2452 H2464 0.960 . S
C2452 H2465 0.962 . S
C2452 H2466 0.960 . S
C2453 C2450 1.511 . S
C2453 H2467 0.961 . S
C2453 H2468 0.961 . S
C2453 H2469 0.961 . S
C2454 C2455 1.370 . S
C2454 C2456 1.363 . S
C2454 H2470 0.931 . S
C2455 C2454 1.370 . S
C2455 C2459 1.408 . S
C2456 C2454 1.363 . S
C2456 C2457 1.370 . S
C2456 C2460 1.524 . S
C2457 C2449 1.503 . S
C2457 C2456 1.370 . S
C2457 C2458 1.403 . S
C2458 C2457 1.403 . S
C2458 C2459 1.404 . S
C2458 C2461 1.539 . S
C2459 C2455 1.408 . S
C2459 C2458 1.404 . S
C2459 H2471 0.930 . S
C2460 C2456 1.524 . S
C2460 H2472 0.956 . S
C2460 H2473 0.961 . S
C2460 H2474 0.961 . S
C2461 C2458 1.539 . S
C2461 H2475 0.958 . S
C2461 H2476 0.961 . S
C2461 H2477 0.960 . S
H2462 C2446 0.931 . S
H2463 C2451 0.929 . S
H2464 C2452 0.960 . S
H2465 C2452 0.962 . S
H2466 C2452 0.960 . S
H2467 C2453 0.961 . S
H2468 C2453 0.961 . S
H2469 C2453 0.961 . S
H2470 C2454 0.931 . S
H2471 C2459 0.930 . S
H2472 C2460 0.956 . S
H2473 C2460 0.961 . S
H2474 C2460 0.961 . S
H2475 C2461 0.958 . S
H2476 C2461 0.961 . S
H2477 C2461 0.960 . S
C2478 C2479 1.391 1_565 S
C2478 C2480 1.394 . S
C2478 H2494 0.931 . S
C2479 C2478 1.391 1_545 S
C2479 C2483 1.376 . S
C2480 C2478 1.394 . S
C2480 C2481 1.369 1_565 S
C2480 C2484 1.531 . S
C2481 C2480 1.369 1_545 S
C2481 C2482 1.410 . S
C2481 C2489 1.503 . S
C2482 C2481 1.410 . S
C2482 C2483 1.392 . S
C2482 C2485 1.511 . S
C2483 C2479 1.376 . S
C2483 C2482 1.392 . S
C2483 H2495 0.929 . S
C2484 C2480 1.531 . S
C2484 H2496 0.960 . S
C2484 H2497 0.962 . S
C2484 H2498 0.960 . S
C2485 C2482 1.511 . S
C2485 H2499 0.961 . S
C2485 H2500 0.961 . S
C2485 H2501 0.961 . S
C2486 C2487 1.370 . S
C2486 C2488 1.363 . S
C2486 H2502 0.931 . S
C2487 C2486 1.370 . S
C2487 C2491 1.403 1_545 S
C2488 C2486 1.363 . S
C2488 C2489 1.370 . S
C2488 C2492 1.524 . S
C2489 C2481 1.503 . S
C2489 C2488 1.370 . S
C2489 C2490 1.443 . S
C2490 C2489 1.443 . S
C2490 C2491 1.359 1_545 S
C2490 C2493 1.532 1_545 S
C2491 C2487 1.403 1_565 S
C2491 C2490 1.359 1_565 S
C2491 H2503 0.952 . S
C2492 C2488 1.524 . S
C2492 H2504 0.956 . S
C2492 H2505 0.961 . S
C2492 H2506 0.961 . S
C2493 C2490 1.532 1_565 S
C2493 H2507 0.958 . S
C2493 H2508 0.961 . S
C2493 H2509 0.960 1_565 S
H2494 C2478 0.931 . S
H2495 C2483 0.929 . S
H2496 C2484 0.960 . S
H2497 C2484 0.962 . S
H2498 C2484 0.960 . S
H2499 C2485 0.961 . S
H2500 C2485 0.961 . S
H2501 C2485 0.961 . S
H2502 C2486 0.931 . S
H2503 C2491 0.952 . S
H2504 C2492 0.956 . S
H2505 C2492 0.961 . S
H2506 C2492 0.961 . S
H2507 C2493 0.958 . S
H2508 C2493 0.961 . S
H2509 C2493 0.960 1_545 S
C2510 C2511 1.391 . S
C2510 C2512 1.394 . S
C2510 H2526 0.931 . S
C2511 C2510 1.391 . S
C2511 C2515 1.376 . S
C2512 C2510 1.394 . S
C2512 C2513 1.369 . S
C2512 C2516 1.531 . S
C2513 C2512 1.369 . S
C2513 C2514 1.410 . S
C2513 C2521 1.503 . S
C2514 C2513 1.410 . S
C2514 C2515 1.392 . S
C2514 C2517 1.511 1_655 S
C2515 C2511 1.376 . S
C2515 C2514 1.392 . S
C2515 H2527 0.929 1_655 S
C2516 C2512 1.531 . S
C2516 H2528 0.960 . S
C2516 H2529 0.962 . S
C2516 H2530 0.960 . S
C2517 C2514 1.511 1_455 S
C2517 H2531 0.961 . S
C2517 H2532 0.961 . S
C2517 H2533 0.959 1_455 S
C2518 C2519 1.370 1_455 S
C2518 C2520 1.363 . S
C2518 H2534 0.931 . S
C2519 C2518 1.370 1_655 S
C2519 C2523 1.408 . S
C2520 C2518 1.363 . S
C2520 C2521 1.370 1_455 S
C2520 C2524 1.524 . S
C2521 C2513 1.503 . S
C2521 C2520 1.370 1_655 S
C2521 C2522 1.403 . S
C2522 C2521 1.403 . S
C2522 C2523 1.404 . S
C2522 C2525 1.539 . S
C2523 C2519 1.408 . S
C2523 C2522 1.404 . S
C2523 H2535 0.930 . S
C2524 C2520 1.524 . S
C2524 H2536 0.956 . S
C2524 H2537 0.961 . S
C2524 H2538 0.961 . S
C2525 C2522 1.539 . S
C2525 H2539 0.958 . S
C2525 H2540 0.961 . S
C2525 H2541 0.960 . S
H2526 C2510 0.931 . S
H2527 C2515 0.929 1_455 S
H2528 C2516 0.960 . S
H2529 C2516 0.962 . S
H2530 C2516 0.960 . S
H2531 C2517 0.961 . S
H2532 C2517 0.961 . S
H2533 C2517 0.959 1_655 S
H2534 C2518 0.931 . S
H2535 C2523 0.930 . S
H2536 C2524 0.956 . S
H2537 C2524 0.961 . S
H2538 C2524 0.961 . S
H2539 C2525 0.958 . S
H2540 C2525 0.961 . S
H2541 C2525 0.960 . S
C2542 C2543 1.391 . S
C2542 C2544 1.394 . S
C2542 H2558 0.931 . S
C2543 C2542 1.391 . S
C2543 C2547 1.376 . S
C2544 C2542 1.394 . S
C2544 C2545 1.369 . S
C2544 C2548 1.531 . S
C2545 C2544 1.369 . S
C2545 C2546 1.410 . S
C2545 C2553 1.503 . S
C2546 C2545 1.410 . S
C2546 C2547 1.392 . S
C2546 C2549 1.511 . S
C2547 C2543 1.376 . S
C2547 C2546 1.392 . S
C2547 H2559 0.929 . S
C2548 C2544 1.531 . S
C2548 H2560 0.960 . S
C2548 H2561 0.962 . S
C2548 H2562 0.960 . S
C2549 C2546 1.511 . S
C2549 H2563 0.961 . S
C2549 H2564 0.961 . S
C2549 H2565 0.961 . S
C2550 C2551 1.370 . S
C2550 C2552 1.363 . S
C2550 H2566 0.931 . S
C2551 C2550 1.370 . S
C2551 C2555 1.408 . S
C2552 C2550 1.363 . S
C2552 C2553 1.370 . S
C2552 C2556 1.524 . S
C2553 C2545 1.503 . S
C2553 C2552 1.370 . S
C2553 C2554 1.403 . S
C2554 C2553 1.403 . S
C2554 C2555 1.404 . S
C2554 C2557 1.539 . S
C2555 C2551 1.408 . S
C2555 C2554 1.404 . S
C2555 H2567 0.930 . S
C2556 C2552 1.524 . S
C2556 H2568 0.956 . S
C2556 H2569 0.961 . S
C2556 H2570 0.961 . S
C2557 C2554 1.539 . S
C2557 H2571 0.958 . S
C2557 H2572 0.961 . S
C2557 H2573 0.960 . S
H2558 C2542 0.931 . S
H2559 C2547 0.929 . S
H2560 C2548 0.960 . S
H2561 C2548 0.962 . S
H2562 C2548 0.960 . S
H2563 C2549 0.961 . S
H2564 C2549 0.961 . S
H2565 C2549 0.961 . S
H2566 C2550 0.931 . S
H2567 C2555 0.930 . S
H2568 C2556 0.956 . S
H2569 C2556 0.961 . S
H2570 C2556 0.961 . S
H2571 C2557 0.958 . S
H2572 C2557 0.961 . S
H2573 C2557 0.960 . S
C2574 C2575 1.391 . S
C2574 C2576 1.394 . S
C2574 H2590 0.931 . S
C2575 C2574 1.391 . S
C2575 C2579 1.376 . S
C2576 C2574 1.394 . S
C2576 C2577 1.369 . S
C2576 C2580 1.531 . S
C2577 C2576 1.369 . S
C2577 C2578 1.410 . S
C2577 C2585 1.503 . S
C2578 C2577 1.410 . S
C2578 C2579 1.392 . S
C2578 C2581 1.511 . S
C2579 C2575 1.376 . S
C2579 C2578 1.392 . S
C2579 H2591 0.929 . S
C2580 C2576 1.531 . S
C2580 H2592 0.960 . S
C2580 H2593 0.962 . S
C2580 H2594 0.960 . S
C2581 C2578 1.511 . S
C2581 H2595 0.961 . S
C2581 H2596 0.961 . S
C2581 H2597 0.961 . S
C2582 C2583 1.370 . S
C2582 C2584 1.363 . S
C2582 H2598 0.931 . S
C2583 C2582 1.370 . S
C2583 C2587 1.408 . S
C2584 C2582 1.363 . S
C2584 C2585 1.370 . S
C2584 C2588 1.524 . S
C2585 C2577 1.503 . S
C2585 C2584 1.370 . S
C2585 C2586 1.403 . S
C2586 C2585 1.403 . S
C2586 C2587 1.404 . S
C2586 C2589 1.539 . S
C2587 C2583 1.408 . S
C2587 C2586 1.404 . S
C2587 H2599 0.930 . S
C2588 C2584 1.524 . S
C2588 H2600 0.956 . S
C2588 H2601 0.961 . S
C2588 H2602 0.961 . S
C2589 C2586 1.539 . S
C2589 H2603 0.958 . S
C2589 H2604 0.961 . S
C2589 H2605 0.960 . S
H2590 C2574 0.931 . S
H2591 C2579 0.929 . S
H2592 C2580 0.960 . S
H2593 C2580 0.962 . S
H2594 C2580 0.960 . S
H2595 C2581 0.961 . S
H2596 C2581 0.961 . S
H2597 C2581 0.961 . S
H2598 C2582 0.931 . S
H2599 C2587 0.930 . S
H2600 C2588 0.956 . S
H2601 C2588 0.961 . S
H2602 C2588 0.961 . S
H2603 C2589 0.958 . S
H2604 C2589 0.961 . S
H2605 C2589 0.960 . S
C2606 C2607 1.391 . S
C2606 C2608 1.394 . S
C2606 H2622 0.931 . S
C2607 C2606 1.391 . S
C2607 C2611 1.376 . S
C2608 C2606 1.394 . S
C2608 C2609 1.369 . S
C2608 C2612 1.531 . S
C2609 C2608 1.369 . S
C2609 C2610 1.410 . S
C2609 C2617 1.503 . S
C2610 C2609 1.410 . S
C2610 C2611 1.392 . S
C2610 C2613 1.511 . S
C2611 C2607 1.376 . S
C2611 C2610 1.392 . S
C2611 H2623 0.929 . S
C2612 C2608 1.531 . S
C2612 H2624 0.960 . S
C2612 H2625 0.962 . S
C2612 H2626 0.960 . S
C2613 C2610 1.511 . S
C2613 H2627 0.961 . S
C2613 H2628 0.961 . S
C2613 H2629 0.961 . S
C2614 C2615 1.370 . S
C2614 C2616 1.363 . S
C2614 H2630 0.931 . S
C2615 C2614 1.370 . S
C2615 C2619 1.408 . S
C2616 C2614 1.363 . S
C2616 C2617 1.370 . S
C2616 C2620 1.524 . S
C2617 C2609 1.503 . S
C2617 C2616 1.370 . S
C2617 C2618 1.403 . S
C2618 C2617 1.403 . S
C2618 C2619 1.404 . S
C2618 C2621 1.539 . S
C2619 C2615 1.408 . S
C2619 C2618 1.404 . S
C2619 H2631 0.930 . S
C2620 C2616 1.524 . S
C2620 H2632 0.956 . S
C2620 H2633 0.961 . S
C2620 H2634 0.961 . S
C2621 C2618 1.539 . S
C2621 H2635 0.958 . S
C2621 H2636 0.961 . S
C2621 H2637 0.960 . S
H2622 C2606 0.931 . S
H2623 C2611 0.929 . S
H2624 C2612 0.960 . S
H2625 C2612 0.962 . S
H2626 C2612 0.960 . S
H2627 C2613 0.961 . S
H2628 C2613 0.961 . S
H2629 C2613 0.961 . S
H2630 C2614 0.931 . S
H2631 C2619 0.930 . S
H2632 C2620 0.956 . S
H2633 C2620 0.961 . S
H2634 C2620 0.961 . S
H2635 C2621 0.958 . S
H2636 C2621 0.961 . S
H2637 C2621 0.960 . S
C2638 C2639 1.391 . S
C2638 C2640 1.394 . S
C2638 H2654 0.931 . S
C2639 C2638 1.391 . S
C2639 C2643 1.376 . S
C2640 C2638 1.394 . S
C2640 C2641 1.369 . S
C2640 C2644 1.531 . S
C2641 C2640 1.369 . S
C2641 C2642 1.410 . S
C2641 C2649 1.503 . S
C2642 C2641 1.410 . S
C2642 C2643 1.392 . S
C2642 C2645 1.511 . S
C2643 C2639 1.376 . S
C2643 C2642 1.392 . S
C2643 H2655 0.929 . S
C2644 C2640 1.531 . S
C2644 H2656 0.960 . S
C2644 H2657 0.962 . S
C2644 H2658 0.960 . S
C2645 C2642 1.511 . S
C2645 H2659 0.961 . S
C2645 H2660 0.961 . S
C2645 H2661 0.961 . S
C2646 C2647 1.370 . S
C2646 C2648 1.363 . S
C2646 H2662 0.931 . S
C2647 C2646 1.370 . S
C2647 C2651 1.408 . S
C2648 C2646 1.363 . S
C2648 C2649 1.370 . S
C2648 C2652 1.524 . S
C2649 C2641 1.503 . S
C2649 C2648 1.370 . S
C2649 C2650 1.403 . S
C2650 C2649 1.403 . S
C2650 C2651 1.404 . S
C2650 C2653 1.539 . S
C2651 C2647 1.408 . S
C2651 C2650 1.404 . S
C2651 H2663 0.930 . S
C2652 C2648 1.524 . S
C2652 H2664 0.956 . S
C2652 H2665 0.961 . S
C2652 H2666 0.961 . S
C2653 C2650 1.539 . S
C2653 H2667 0.958 . S
C2653 H2668 0.961 . S
C2653 H2669 0.960 . S
H2654 C2638 0.931 . S
H2655 C2643 0.929 . S
H2656 C2644 0.960 . S
H2657 C2644 0.962 . S
H2658 C2644 0.960 . S
H2659 C2645 0.961 . S
H2660 C2645 0.961 . S
H2661 C2645 0.961 . S
H2662 C2646 0.931 . S
H2663 C2651 0.930 . S
H2664 C2652 0.956 . S
H2665 C2652 0.961 . S
H2666 C2652 0.961 . S
H2667 C2653 0.958 . S
H2668 C2653 0.961 . S
H2669 C2653 0.960 . S
C2670 C2671 1.391 . S
C2670 C2672 1.394 . S
C2670 H2686 0.931 . S
C2671 C2670 1.391 . S
C2671 C2675 1.376 . S
C2672 C2670 1.394 . S
C2672 C2673 1.369 . S
C2672 C2676 1.531 . S
C2673 C2672 1.369 . S
C2673 C2674 1.410 . S
C2673 C2681 1.503 . S
C2674 C2673 1.410 . S
C2674 C2675 1.392 . S
C2674 C2677 1.511 . S
C2675 C2671 1.376 . S
C2675 C2674 1.392 . S
C2675 H2687 0.929 . S
C2676 C2672 1.531 . S
C2676 H2688 0.960 . S
C2676 H2689 0.962 . S
C2676 H2690 0.960 . S
C2677 C2674 1.511 . S
C2677 H2691 0.961 . S
C2677 H2692 0.961 . S
C2677 H2693 0.961 . S
C2678 C2679 1.370 . S
C2678 C2680 1.363 . S
C2678 H2694 0.931 . S
C2679 C2678 1.370 . S
C2679 C2683 1.408 . S
C2680 C2678 1.363 . S
C2680 C2681 1.370 . S
C2680 C2684 1.524 . S
C2681 C2673 1.503 . S
C2681 C2680 1.370 . S
C2681 C2682 1.403 . S
C2682 C2681 1.403 . S
C2682 C2683 1.404 . S
C2682 C2685 1.539 . S
C2683 C2679 1.408 . S
C2683 C2682 1.404 . S
C2683 H2695 0.930 . S
C2684 C2680 1.524 . S
C2684 H2696 0.956 . S
C2684 H2697 0.961 . S
C2684 H2698 0.961 . S
C2685 C2682 1.539 . S
C2685 H2699 0.958 . S
C2685 H2700 0.961 . S
C2685 H2701 0.960 . S
H2686 C2670 0.931 . S
H2687 C2675 0.929 . S
H2688 C2676 0.960 . S
H2689 C2676 0.962 . S
H2690 C2676 0.960 . S
H2691 C2677 0.961 . S
H2692 C2677 0.961 . S
H2693 C2677 0.961 . S
H2694 C2678 0.931 . S
H2695 C2683 0.930 . S
H2696 C2684 0.956 . S
H2697 C2684 0.961 . S
H2698 C2684 0.961 . S
H2699 C2685 0.958 . S
H2700 C2685 0.961 . S
H2701 C2685 0.960 . S
C2702 C2703 1.391 . S
C2702 C2704 1.394 . S
C2702 H2718 0.931 . S
C2703 C2702 1.391 . S
C2703 C2707 1.376 . S
C2704 C2702 1.394 . S
C2704 C2705 1.369 . S
C2704 C2708 1.531 . S
C2705 C2704 1.369 . S
C2705 C2706 1.410 . S
C2705 C2713 1.503 . S
C2706 C2705 1.410 . S
C2706 C2707 1.392 . S
C2706 C2709 1.511 . S
C2707 C2703 1.376 . S
C2707 C2706 1.392 . S
C2707 H2719 0.929 . S
C2708 C2704 1.531 . S
C2708 H2720 0.960 . S
C2708 H2721 0.962 . S
C2708 H2722 0.960 . S
C2709 C2706 1.511 . S
C2709 H2723 0.961 . S
C2709 H2724 0.961 . S
C2709 H2725 0.961 . S
C2710 C2711 1.370 . S
C2710 C2712 1.363 . S
C2710 H2726 0.931 . S
C2711 C2710 1.370 . S
C2711 C2715 1.408 . S
C2712 C2710 1.363 . S
C2712 C2713 1.370 . S
C2712 C2716 1.524 . S
C2713 C2705 1.503 . S
C2713 C2712 1.370 . S
C2713 C2714 1.403 . S
C2714 C2713 1.403 . S
C2714 C2715 1.404 . S
C2714 C2717 1.539 . S
C2715 C2711 1.408 . S
C2715 C2714 1.404 . S
C2715 H2727 0.930 . S
C2716 C2712 1.524 . S
C2716 H2728 0.956 . S
C2716 H2729 0.961 . S
C2716 H2730 0.961 . S
C2717 C2714 1.539 . S
C2717 H2731 0.958 . S
C2717 H2732 0.961 . S
C2717 H2733 0.960 . S
H2718 C2702 0.931 . S
H2719 C2707 0.929 . S
H2720 C2708 0.960 . S
H2721 C2708 0.962 . S
H2722 C2708 0.960 . S
H2723 C2709 0.961 . S
H2724 C2709 0.961 . S
H2725 C2709 0.961 . S
H2726 C2710 0.931 . S
H2727 C2715 0.930 . S
H2728 C2716 0.956 . S
H2729 C2716 0.961 . S
H2730 C2716 0.961 . S
H2731 C2717 0.958 . S
H2732 C2717 0.961 . S
H2733 C2717 0.960 . S
C2734 C2735 1.391 . S
C2734 C2736 1.394 . S
C2734 H2750 0.931 . S
C2735 C2734 1.391 . S
C2735 C2739 1.376 . S
C2736 C2734 1.394 . S
C2736 C2737 1.369 . S
C2736 C2740 1.531 . S
C2737 C2736 1.369 . S
C2737 C2738 1.410 . S
C2737 C2745 1.503 . S
C2738 C2737 1.410 . S
C2738 C2739 1.392 . S
C2738 C2741 1.511 . S
C2739 C2735 1.376 . S
C2739 C2738 1.392 . S
C2739 H2751 0.929 . S
C2740 C2736 1.531 . S
C2740 H2752 0.960 . S
C2740 H2753 0.962 . S
C2740 H2754 0.960 . S
C2741 C2738 1.511 . S
C2741 H2755 0.961 . S
C2741 H2756 0.961 . S
C2741 H2757 0.961 . S
C2742 C2743 1.370 . S
C2742 C2744 1.363 . S
C2742 H2758 0.931 . S
C2743 C2742 1.370 . S
C2743 C2747 1.408 . S
C2744 C2742 1.363 . S
C2744 C2745 1.370 . S
C2744 C2748 1.524 . S
C2745 C2737 1.503 . S
C2745 C2744 1.370 . S
C2745 C2746 1.403 . S
C2746 C2745 1.403 . S
C2746 C2747 1.404 . S
C2746 C2749 1.539 . S
C2747 C2743 1.408 . S
C2747 C2746 1.404 . S
C2747 H2759 0.930 . S
C2748 C2744 1.524 . S
C2748 H2760 0.956 . S
C2748 H2761 0.961 . S
C2748 H2762 0.961 . S
C2749 C2746 1.539 . S
C2749 H2763 0.958 . S
C2749 H2764 0.961 . S
C2749 H2765 0.960 . S
H2750 C2734 0.931 . S
H2751 C2739 0.929 . S
H2752 C2740 0.960 . S
H2753 C2740 0.962 . S
H2754 C2740 0.960 . S
H2755 C2741 0.961 . S
H2756 C2741 0.961 . S
H2757 C2741 0.961 . S
H2758 C2742 0.931 . S
H2759 C2747 0.930 . S
H2760 C2748 0.956 . S
H2761 C2748 0.961 . S
H2762 C2748 0.961 . S
H2763 C2749 0.958 . S
H2764 C2749 0.961 . S
H2765 C2749 0.960 . S
C2766 C2767 1.391 . S
C2766 C2768 1.394 . S
C2766 H2782 0.931 . S
C2767 C2766 1.391 . S
C2767 C2771 1.376 . S
C2768 C2766 1.394 . S
C2768 C2769 1.369 . S
C2768 C2772 1.531 . S
C2769 C2768 1.369 . S
C2769 C2770 1.410 . S
C2769 C2777 1.503 . S
C2770 C2769 1.410 . S
C2770 C2771 1.392 . S
C2770 C2773 1.511 . S
C2771 C2767 1.376 . S
C2771 C2770 1.392 . S
C2771 H2783 0.929 . S
C2772 C2768 1.531 . S
C2772 H2784 0.960 . S
C2772 H2785 0.962 . S
C2772 H2786 0.960 . S
C2773 C2770 1.511 . S
C2773 H2787 0.961 1_655 S
C2773 H2788 0.961 1_655 S
C2773 H2789 0.961 . S
C2774 C2775 1.370 1_455 S
C2774 C2776 1.363 . S
C2774 H2790 0.931 . S
C2775 C2774 1.370 1_655 S
C2775 C2779 1.408 . S
C2776 C2774 1.363 . S
C2776 C2777 1.370 1_455 S
C2776 C2780 1.524 . S
C2777 C2769 1.503 . S
C2777 C2776 1.370 1_655 S
C2777 C2778 1.403 . S
C2778 C2777 1.403 . S
C2778 C2779 1.404 . S
C2778 C2781 1.539 . S
C2779 C2775 1.408 . S
C2779 C2778 1.404 . S
C2779 H2791 0.930 . S
C2780 C2776 1.524 . S
C2780 H2792 0.956 . S
C2780 H2793 0.961 . S
C2780 H2794 0.961 . S
C2781 C2778 1.539 . S
C2781 H2795 0.958 . S
C2781 H2796 0.961 . S
C2781 H2797 0.960 . S
H2782 C2766 0.931 . S
H2783 C2771 0.929 . S
H2784 C2772 0.960 . S
H2785 C2772 0.962 . S
H2786 C2772 0.960 . S
H2787 C2773 0.961 1_455 S
H2788 C2773 0.961 1_455 S
H2789 C2773 0.961 . S
H2790 C2774 0.931 . S
H2791 C2779 0.930 . S
H2792 C2780 0.956 . S
H2793 C2780 0.961 . S
H2794 C2780 0.961 . S
H2795 C2781 0.958 . S
H2796 C2781 0.961 . S
H2797 C2781 0.960 . S
C2798 C2799 1.391 . S
C2798 C2800 1.394 . S
C2798 H2814 0.931 . S
C2799 C2798 1.391 . S
C2799 C2803 1.376 . S
C2800 C2798 1.394 . S
C2800 C2801 1.369 . S
C2800 C2804 1.531 . S
C2801 C2800 1.369 . S
C2801 C2802 1.410 . S
C2801 C2809 1.503 . S
C2802 C2801 1.410 . S
C2802 C2803 1.392 . S
C2802 C2805 1.511 . S
C2803 C2799 1.376 . S
C2803 C2802 1.392 . S
C2803 H2815 0.929 . S
C2804 C2800 1.531 . S
C2804 H2816 0.960 . S
C2804 H2817 0.962 . S
C2804 H2818 0.960 . S
C2805 C2802 1.511 . S
C2805 H2819 0.961 . S
C2805 H2820 0.961 . S
C2805 H2821 0.961 . S
C2806 C2807 1.370 . S
C2806 C2808 1.363 . S
C2806 H2822 0.931 . S
C2807 C2806 1.370 . S
C2807 C2811 1.408 . S
C2808 C2806 1.363 . S
C2808 C2809 1.370 . S
C2808 C2812 1.524 . S
C2809 C2801 1.503 . S
C2809 C2808 1.370 . S
C2809 C2810 1.403 . S
C2810 C2809 1.403 . S
C2810 C2811 1.404 . S
C2810 C2813 1.539 . S
C2811 C2807 1.408 . S
C2811 C2810 1.404 . S
C2811 H2823 0.930 . S
C2812 C2808 1.524 . S
C2812 H2824 0.956 . S
C2812 H2825 0.961 . S
C2812 H2826 0.961 . S
C2813 C2810 1.539 . S
C2813 H2827 0.958 . S
C2813 H2828 0.961 . S
C2813 H2829 0.960 . S
H2814 C2798 0.931 . S
H2815 C2803 0.929 . S
H2816 C2804 0.960 . S
H2817 C2804 0.962 . S
H2818 C2804 0.960 . S
H2819 C2805 0.961 . S
H2820 C2805 0.961 . S
H2821 C2805 0.961 . S
H2822 C2806 0.931 . S
H2823 C2811 0.930 . S
H2824 C2812 0.956 . S
H2825 C2812 0.961 . S
H2826 C2812 0.961 . S
H2827 C2813 0.958 . S
H2828 C2813 0.961 . S
H2829 C2813 0.960 . S
C2830 C2831 1.391 . S
C2830 C2832 1.394 . S
C2830 H2846 0.931 . S
C2831 C2830 1.391 . S
C2831 C2835 1.376 . S
C2832 C2830 1.394 . S
C2832 C2833 1.369 . S
C2832 C2836 1.531 . S
C2833 C2832 1.369 . S
C2833 C2834 1.422 . S
C2833 C2841 1.503 . S
C2834 C2833 1.422 . S
C2834 C2835 1.385 . S
C2834 C2837 1.506 1_545 S
C2835 C2831 1.376 . S
C2835 C2834 1.385 . S
C2835 H2847 0.929 1_545 S
C2836 C2832 1.531 . S
C2836 H2848 0.960 . S
C2836 H2849 0.962 . S
C2836 H2850 0.960 . S
C2837 C2834 1.506 1_565 S
C2837 H2851 0.961 . S
C2837 H2852 0.961 . S
C2837 H2853 0.961 . S
C2838 C2839 1.331 1_565 S
C2838 C2840 1.363 . S
C2838 H2854 0.931 . S
C2839 C2838 1.331 1_545 S
C2839 C2843 1.436 . S
C2840 C2838 1.363 . S
C2840 C2841 1.370 1_565 S
C2840 C2844 1.524 . S
C2841 C2833 1.503 . S
C2841 C2840 1.370 1_545 S
C2841 C2842 1.403 . S
C2842 C2841 1.403 . S
C2842 C2843 1.404 . S
C2842 C2845 1.539 . S
C2843 C2839 1.436 . S
C2843 C2842 1.404 . S
C2843 H2855 0.930 . S
C2844 C2840 1.524 . S
C2844 H2856 0.956 . S
C2844 H2857 0.961 . S
C2844 H2858 0.961 . S
C2845 C2842 1.539 . S
C2845 H2859 0.958 . S
C2845 H2860 0.961 . S
C2845 H2861 0.960 . S
H2846 C2830 0.931 . S
H2847 C2835 0.929 1_565 S
H2848 C2836 0.960 . S
H2849 C2836 0.962 . S
H2850 C2836 0.960 . S
H2851 C2837 0.961 . S
H2852 C2837 0.961 . S
H2853 C2837 0.961 . S
H2854 C2838 0.931 . S
H2855 C2843 0.930 . S
H2856 C2844 0.956 . S
H2857 C2844 0.961 . S
H2858 C2844 0.961 . S
H2859 C2845 0.958 . S
H2860 C2845 0.961 . S
H2861 C2845 0.960 . S
C559 C8 1.474 . S
C567 C403 1.546 . S
C591 C18 1.494 . S
C599 C428 1.544 . S
C631 C439 1.556 . S
C623 C31 1.485 . S
C655 C34 1.558 . S
C663 C464 1.552 . S
C687 C5 1.488 . S
C695 C482 1.552 . S
C719 C21 1.522 . S
C727 C493 1.546 . S
C751 C47 1.512 . S
C759 C475 1.558 1_455 S
C791 C500 1.528 . S
C783 C57 1.499 . S
C823 C457 1.563 1_565 S
C815 C70 1.544 . S
C847 C73 1.489 . S
C855 C446 1.565 1_545 S
C887 C410 1.517 1_655 S
C879 C44 1.513 . S
C911 C60 1.502 . S
C919 C421 1.545 . S
C943 C86 1.546 . S
C951 C511 1.580 . S
C975 C96 1.527 . S
C983 C536 1.570 . S
C1015 C547 1.580 . S
C1007 C109 1.577 . S
C1039 C112 1.582 . S
C1047 C248 1.608 . S
C1071 C83 1.565 . S
C1079 C266 1.595 . S
C1103 C99 1.504 . S
C1111 C277 1.582 . S
C1135 C125 1.496 . S
C1143 C259 1.551 . S
C1167 C135 1.527 . S
C1175 C284 1.548 . S
C1207 C241 1.575 . S
C1199 C148 1.578 . S
C1239 C554 1.613 . S
C1231 C151 1.525 . S
C1271 C518 1.566 . S
C1263 C122 1.521 . S
C1303 C529 1.576 . S
C1295 C138 1.536 . S
C1327 C164 1.542 . S
C1335 C295 1.554 . S
C1359 C174 1.530 . S
C1367 C320 1.556 . S
C1391 C187 1.595 . S
C1399 C331 1.578 . S
C1423 C190 1.569 . S
C1431 C356 1.636 . S
C1463 C374 1.586 . S
C1455 C161 1.567 . S
C1495 C385 1.579 . S
C1487 C177 1.570 . S
C1527 C367 1.590 . S
C1519 C203 1.494 . S
C1559 C392 1.548 . S
C1551 C213 1.535 . S
C1583 C226 1.539 . S
C1591 C349 1.580 . S
C1623 C338 1.573 . S
C1615 C229 1.536 . S
C1647 C200 1.576 . S
C1655 C302 1.582 . S
C1687 C313 1.574 . S
C1679 C216 1.491 . S
C1719 C250 1.308 . S
C1711 C0 1.357 . S
C1743 C23 1.343 . S
C1751 C268 1.248 . S
C1783 C278 1.318 . S
C1775 C36 1.384 . S
C1815 C296 1.331 . S
C1807 C26 1.339 . S
C1847 C322 1.298 . S
C1839 C10 1.359 . S
C1879 C332 1.284 . S
C1871 C13 1.278 . S
C1903 C39 1.382 . S
C1911 C340 1.321 . S
C1935 C62 1.370 . S
C1943 C304 1.255 . S
C1967 C75 1.390 . S
C1975 C314 1.334 . S
C1999 C65 1.384 . S
C2007 C260 1.395 . S
C2039 C286 1.293 . S
C2031 C49 1.385 . S
C2063 C52 1.316 . S
C2071 C242 1.308 . S
C2103 C358 1.301 . S
C2095 C78 1.361 . S
C2127 C101 1.400 . S
C2135 C376 1.306 . S
C2159 C114 1.410 . S
C2167 C386 1.345 . S
C2199 C404 1.280 . S
C2191 C104 1.341 . S
C2223 C88 1.339 . S
C2231 C430 1.295 . S
C2255 C91 1.242 . S
C2263 C440 1.231 . S
C2287 C117 1.319 . S
C2295 C448 1.236 . S
C2319 C140 1.313 . S
C2327 C412 1.239 . S
C2359 C422 1.343 . S
C2351 C153 1.392 . S
C2383 C143 1.406 . S
C2391 C368 1.336 . S
C2415 C127 1.432 . S
C2423 C394 1.353 . S
C2455 C350 1.351 . S
C2447 C130 1.363 . S
C2487 C466 1.274 . S
C2479 C156 1.289 . S
C2511 C179 1.289 . S
C2519 C484 1.223 . S
C2543 C192 1.362 . S
C2551 C494 1.313 . S
C2583 C512 1.328 . S
C2575 C182 1.337 . S
C2615 C538 1.325 . S
C2607 C166 1.416 . S
C2639 C169 1.346 . S
C2647 C548 1.341 . S
C2671 C195 1.409 . S
C2679 C556 1.323 . S
C2703 C218 1.424 . S
C2711 C520 1.341 . S
C2743 C530 1.334 . S
C2735 C231 1.438 . S
C2775 C476 1.288 1_655 S
C2767 C221 1.343 . S
C2807 C502 1.308 . S
C2799 C205 1.373 . S
C2831 C208 1.300 . S
C2839 C458 1.271 1_545 S
