# Generated by pormake.
# Topology rtl, (3,6)-cn, num edge types: 1
# Building blocks:
#     Node 0, Type 0, BuildingBlock: VETTIZ_charged_linker_0, # of connection points: 3
#     Node 1, Type 0, BuildingBlock: VETTIZ_charged_linker_0, # of connection points: 3
#     Node 2, Type 0, BuildingBlock: VETTIZ_charged_linker_0, # of connection points: 3
#     Node 3, Type 0, BuildingBlock: VETTIZ_charged_linker_0, # of connection points: 3
#     Node 4, Type 1, BuildingBlock: KUMJIN_clean_sbu_1, # of connection points: 6
#     Node 5, Type 1, BuildingBlock: KUMJIN_clean_sbu_1, # of connection points: 6
#     Edge 6, Type (0, 1), BuildingBlock: AJUNOK_clean_linker_0, # of connection points: 2
#     Edge 7, Type (0, 1), BuildingBlock: AJUNOK_clean_linker_0, # of connection points: 2
#     Edge 8, Type (0, 1), BuildingBlock: AJUNOK_clean_linker_0, # of connection points: 2
#     Edge 9, Type (0, 1), BuildingBlock: AJUNOK_clean_linker_0, # of connection points: 2
#     Edge 10, Type (0, 1), BuildingBlock: AJUNOK_clean_linker_0, # of connection points: 2
#     Edge 11, Type (0, 1), BuildingBlock: AJUNOK_clean_linker_0, # of connection points: 2
#     Edge 12, Type (0, 1), BuildingBlock: AJUNOK_clean_linker_0, # of connection points: 2
#     Edge 13, Type (0, 1), BuildingBlock: AJUNOK_clean_linker_0, # of connection points: 2
#     Edge 14, Type (0, 1), BuildingBlock: AJUNOK_clean_linker_0, # of connection points: 2
#     Edge 15, Type (0, 1), BuildingBlock: AJUNOK_clean_linker_0, # of connection points: 2
#     Edge 16, Type (0, 1), BuildingBlock: AJUNOK_clean_linker_0, # of connection points: 2
#     Edge 17, Type (0, 1), BuildingBlock: AJUNOK_clean_linker_0, # of connection points: 2
# Relax obj value: 0.018
# Max RMSD: 0.113
# Mean RMSD: 0.067
data_MOF--net-rtl--node1-KUMJIN_clean_sbu_1--node2-VETTIZ_charged_linker_0--edge1-AJUNOK_clean_linker_0
_symmetry_space_group_name_H-M    P1
_symmetry_Int_Tables_number       1
_symmetry_cell_setting            triclinic
loop_
_symmetry_equiv_pos_as_xyz
'x, y, z'
_cell_length_a     30.929435
_cell_length_b     31.830915
_cell_length_c     28.340759
_cell_angle_alpha  77.108658
_cell_angle_beta   98.777253
_cell_angle_gamma 90.90409
loop_
_atom_site_label
_atom_site_type_symbol
_atom_site_fract_x
_atom_site_fract_y
_atom_site_fract_z
_atom_type_partial_charge
C0 C 0.16464 0.899 0.84147 0.0
C1 C 0.12788 0.92651 0.82987 0.0
C2 C 0.10996 0.93898 0.86747 0.0
C3 C 0.16459 0.89486 0.92808 0.0
C4 C 0.18249 0.8837 0.89065 0.0
C5 C 0.22134 0.85371 0.90925 0.0
H6 H 0.33965 0.71446 0.09583 0.0
C7 C 0.18991 0.87175 0.97506 0.0
C8 C 0.22328 0.8478 0.96422 0.0
H9 H 0.35505 0.74612 0.9427 0.0
H10 H 0.30053 0.80228 0.92662 0.0
H11 H 0.33816 0.81609 0.10188 0.0
H12 H 0.23414 0.72641 0.08416 0.0
H13 H 0.22605 0.75354 0.13024 0.0
H14 H 0.27425 0.72038 0.13838 0.0
H15 H 0.32467 0.77626 0.15285 0.0
H16 H 0.29678 0.8281 0.13313 0.0
C17 C 0.26219 0.8769 0.8909 0.0
C18 C 0.21035 0.8113 0.89205 0.0
C19 C 0.14285 0.88411 0.13539 0.0
C20 C 0.15882 0.866 0.18484 0.0
C21 C 0.19495 0.83705 0.19609 0.0
C22 C 0.21498 0.82669 0.15874 0.0
C23 C 0.19875 0.84541 0.10952 0.0
C24 C 0.16343 0.87382 0.09865 0.0
C25 C 0.15065 0.89103 0.0445 0.0
C26 C 0.18451 0.86883 0.02455 0.0
C27 C 0.21238 0.84172 0.06271 0.0
C28 C 0.15596 0.9406 0.03339 0.0
C29 C 0.10364 0.87606 0.02945 0.0
C30 C 0.33171 0.73392 0.059 0.0
C31 C 0.35105 0.72502 0.02021 0.0
C32 C 0.33982 0.75139 0.97293 0.0
C33 C 0.30815 0.78414 0.96361 0.0
C34 C 0.28731 0.79101 1.0019 0.0
C35 C 0.30033 0.76747 0.04904 0.0
C36 C 0.27662 0.7823 0.08539 0.0
C37 C 0.24571 0.81681 0.05163 0.0
C38 C 0.25173 0.8209 1.00273 0.0
C39 C 0.31059 0.80147 0.12053 0.0
C40 C 0.25149 0.74373 0.11131 0.0
H41 H 0.11296 0.93356 0.94388 0.0
H42 H 0.179 0.88945 0.81279 0.0
H43 H 0.17655 0.8012 0.89766 0.0
H44 H 0.23173 0.78381 0.91243 0.0
H45 H 0.21228 0.81559 0.85244 0.0
H46 H 0.2576 0.91257 0.88133 0.0
H47 H 0.2695 0.86704 0.8577 0.0
H48 H 0.29158 0.87095 0.91941 0.0
H49 H 0.1144 0.90545 0.12526 0.0
H50 H 0.20786 0.82259 0.23387 0.0
H51 H 0.24222 0.80438 0.16958 0.0
H52 H 0.18466 0.94979 0.05757 0.0
H53 H 0.12659 0.95708 0.0395 0.0
H54 H 0.16249 0.954 0.99576 0.0
H55 H 0.09826 0.84313 0.05098 0.0
H56 H 0.09693 0.87341 0.99087 0.0
H57 H 0.07878 0.89803 0.03604 0.0
H58 H 0.08164 0.96049 0.8587 0.0
C59 C 0.12816 0.92328 0.91667 0.0
C60 C 0.65143 0.66302 0.79344 0.0
C61 C 0.61733 0.63354 0.80123 0.0
C62 C 0.59653 0.61656 0.76208 0.0
C63 C 0.64333 0.65755 0.70833 0.0
C64 C 0.66357 0.67498 0.74637 0.0
C65 C 0.69788 0.70706 0.72996 0.0
H66 H 0.79841 0.81586 0.54166 0.0
C67 C 0.6629 0.67614 0.66418 0.0
C68 C 0.69458 0.7058 0.67602 0.0
H69 H 0.82498 0.82509 0.69321 0.0
H70 H 0.76969 0.77215 0.71332 0.0
H71 H 0.79901 0.71568 0.56628 0.0
H72 H 0.69365 0.80915 0.53169 0.0
H73 H 0.67809 0.76889 0.49921 0.0
H74 H 0.72619 0.79983 0.48758 0.0
H75 H 0.77967 0.74359 0.50451 0.0
H76 H 0.7561 0.69361 0.53222 0.0
C77 C 0.74287 0.69014 0.75935 0.0
C78 C 0.68429 0.75163 0.73668 0.0
C79 C 0.61644 0.62038 0.50998 0.0
C80 C 0.62931 0.63032 0.4634 0.0
C81 C 0.65839 0.66438 0.4523 0.0
C82 C 0.6757 0.68709 0.48768 0.0
C83 C 0.66377 0.67574 0.53473 0.0
C84 C 0.63408 0.64335 0.54493 0.0
C85 C 0.6247 0.63606 0.59658 0.0
C86 C 0.65491 0.66839 0.61624 0.0
C87 C 0.67763 0.69146 0.57992 0.0
C88 C 0.63831 0.58895 0.62277 0.0
C89 C 0.57569 0.64739 0.5946 0.0
C90 C 0.7925 0.80658 0.57926 0.0
C91 C 0.81571 0.82547 0.61556 0.0
C92 C 0.80678 0.81211 0.66408 0.0
C93 C 0.7749 0.78103 0.67584 0.0
C94 C 0.75192 0.76265 0.63885 0.0
C95 C 0.7614 0.77531 0.59165 0.0
C96 C 0.73605 0.75096 0.55729 0.0
C97 C 0.70891 0.72222 0.59116 0.0
C98 C 0.71786 0.7292 0.63901 0.0
C99 C 0.7691 0.72472 0.53863 0.0
C100 C 0.70707 0.78367 0.51645 0.0
H101 H 0.59229 0.61379 0.68795 0.0
H102 H 0.66771 0.67674 0.82299 0.0
H103 H 0.64865 0.7578 0.72396 0.0
H104 H 0.70075 0.77851 0.71504 0.0
H105 H 0.6911 0.7533 0.77585 0.0
H106 H 0.74592 0.65463 0.76381 0.0
H107 H 0.74721 0.69704 0.7965 0.0
H108 H 0.77047 0.70372 0.74077 0.0
H109 H 0.59396 0.59451 0.51945 0.0
H110 H 0.66786 0.67336 0.41618 0.0
H111 H 0.69798 0.71238 0.47709 0.0
H112 H 0.66955 0.57983 0.6124 0.0
H113 H 0.61304 0.56606 0.61248 0.0
H114 H 0.64457 0.58374 0.66304 0.0
H115 H 0.5623 0.67003 0.55962 0.0
H116 H 0.5704 0.66443 0.62336 0.0
H117 H 0.55535 0.61812 0.59779 0.0
H118 H 0.57045 0.59366 0.76745 0.0
C119 C 0.60935 0.62827 0.7159 0.0
C120 C 0.86351 0.11796 0.2387 0.0
C121 C 0.89293 0.08285 0.24942 0.0
C122 C 0.90221 0.06432 0.21133 0.0
C123 C 0.8553 0.11805 0.15219 0.0
C124 C 0.8451 0.13489 0.19013 0.0
C125 C 0.81384 0.17267 0.17268 0.0
H126 H 0.68316 0.3044 0.98853 0.0
C127 C 0.83181 0.14446 0.10594 0.0
C128 C 0.80721 0.17618 0.11779 0.0
H129 H 0.70485 0.30432 0.14313 0.0
H130 H 0.75715 0.24637 0.15842 0.0
H131 H 0.78874 0.29557 0.98476 0.0
H132 H 0.68698 0.20104 0.99709 0.0
H133 H 0.71858 0.19287 0.95296 0.0
H134 H 0.6882 0.24268 0.94284 0.0
H135 H 0.74732 0.29247 0.93393 0.0
H136 H 0.79652 0.25949 0.94798 0.0
C137 C 0.83691 0.2127 0.18702 0.0
C138 C 0.77125 0.16018 0.19467 0.0
C139 C 0.85929 0.11655 0.94388 0.0
C140 C 0.84398 0.13614 0.89474 0.0
C141 C 0.81199 0.1694 0.88428 0.0
C142 C 0.79639 0.18354 0.92231 0.0
C143 C 0.813 0.16426 0.97131 0.0
C144 C 0.84353 0.13097 0.98126 0.0
C145 C 0.8576 0.1139 0.03519 0.0
C146 C 0.83149 0.14321 0.05617 0.0
C147 C 0.80532 0.17273 0.01873 0.0
C148 C 0.90752 0.12045 0.04693 0.0
C149 C 0.84332 0.06634 0.04858 0.0
C150 C 0.69961 0.29225 0.02555 0.0
C151 C 0.68923 0.30875 0.06481 0.0
C152 C 0.71134 0.29165 0.11241 0.0
C153 C 0.74198 0.25801 0.12125 0.0
C154 C 0.75129 0.24123 0.08208 0.0
C155 C 0.73108 0.25885 0.035 0.0
C156 C 0.74753 0.2382 0.99788 0.0
C157 C 0.77936 0.20416 0.0309 0.0
C158 C 0.78096 0.20609 0.08013 0.0
C159 C 0.77107 0.27305 0.96394 0.0
C160 C 0.70841 0.21773 0.97084 0.0
H161 H 0.89254 0.06697 0.13496 0.0
H162 H 0.85553 0.13239 0.26759 0.0
H163 H 0.76356 0.12575 0.19561 0.0
H164 H 0.74206 0.17832 0.17285 0.0
H165 H 0.77452 0.16465 0.23282 0.0
H166 H 0.873 0.21031 0.1887 0.0
H167 H 0.83058 0.21614 0.22352 0.0
H168 H 0.82719 0.24299 0.15974 0.0
H169 H 0.88399 0.09107 0.95321 0.0
H170 H 0.799 0.18442 0.8467 0.0
H171 H 0.77215 0.209 0.91214 0.0
H172 H 0.91686 0.15233 0.02605 0.0
H173 H 0.92632 0.09521 0.03682 0.0
H174 H 0.91873 0.12056 0.08575 0.0
H175 H 0.81319 0.06062 0.02403 0.0
H176 H 0.83453 0.05712 0.08585 0.0
H177 H 0.86924 0.04391 0.0452 0.0
H178 H 0.92487 0.03716 0.21914 0.0
C179 C 0.88359 0.08183 0.16264 0.0
C180 C 0.36285 0.36496 0.2944 0.0
C181 C 0.39059 0.40056 0.28715 0.0
C182 C 0.40167 0.42279 0.32489 0.0
C183 C 0.35747 0.37464 0.37614 0.0
C184 C 0.34615 0.35292 0.33894 0.0
C185 C 0.31432 0.31735 0.35247 0.0
H186 H 0.18084 0.22176 0.51413 0.0
C187 C 0.33352 0.35567 0.41689 0.0
C188 C 0.30718 0.32262 0.40284 0.0
H189 H 0.20415 0.17989 0.38526 0.0
H190 H 0.25335 0.23988 0.36649 0.0
H191 H 0.27378 0.22415 0.55127 0.0
H192 H 0.18283 0.32484 0.47435 0.0
H193 H 0.21503 0.34537 0.52049 0.0
H194 H 0.18387 0.29734 0.53712 0.0
H195 H 0.24161 0.25113 0.58328 0.0
H196 H 0.29542 0.26916 0.57159 0.0
C197 C 0.33695 0.27375 0.35514 0.0
C198 C 0.27197 0.32638 0.31479 0.0
C199 C 0.36384 0.40269 0.58007 0.0
C200 C 0.34518 0.38967 0.62329 0.0
C201 C 0.30834 0.36328 0.62327 0.0
C202 C 0.2914 0.3481 0.58195 0.0
C203 C 0.31175 0.3588 0.54002 0.0
C204 C 0.34649 0.38668 0.53867 0.0
C205 C 0.36198 0.39557 0.48932 0.0
C206 C 0.333 0.36563 0.46337 0.0
C207 C 0.30398 0.34434 0.49361 0.0
C208 C 0.41084 0.38219 0.49718 0.0
C209 C 0.35256 0.44378 0.4643 0.0
C210 C 0.19665 0.22503 0.48195 0.0
C211 C 0.18932 0.19536 0.45191 0.0
C212 C 0.20953 0.20209 0.4094 0.0
C213 C 0.23833 0.23669 0.39882 0.0
C214 C 0.24728 0.2645 0.43137 0.0
C215 C 0.22653 0.25785 0.47221 0.0
C216 C 0.24305 0.28605 0.50645 0.0
C217 C 0.27647 0.31203 0.47908 0.0
C218 C 0.27852 0.30026 0.43451 0.0
C219 C 0.26435 0.25645 0.55582 0.0
C220 C 0.20433 0.31484 0.51034 0.0
H221 H 0.39526 0.42801 0.39675 0.0
H222 H 0.3537 0.34758 0.2657 0.0
H223 H 0.26126 0.36063 0.30858 0.0
H224 H 0.24436 0.30682 0.32704 0.0
H225 H 0.2773 0.32016 0.27904 0.0
H226 H 0.37207 0.27386 0.37128 0.0
H227 H 0.33532 0.26708 0.31807 0.0
H228 H 0.32286 0.2465 0.37905 0.0
H229 H 0.39179 0.42362 0.57907 0.0
H230 H 0.29299 0.35374 0.65587 0.0
H231 H 0.26356 0.32782 0.58485 0.0
H232 H 0.41636 0.34944 0.5214 0.0
H233 H 0.4316 0.40497 0.51473 0.0
H234 H 0.42269 0.38069 0.46278 0.0
H235 H 0.32729 0.45808 0.48037 0.0
H236 H 0.33905 0.44839 0.42493 0.0
H237 H 0.38248 0.46326 0.46816 0.0
H238 H 0.42295 0.45028 0.31985 0.0
C239 C 0.38549 0.40991 0.36936 0.0
Eu240 Eu 0.04501 0.95608 0.52267 0.0
C241 C 0.95111 0.14156 0.48331 0.0
N242 N 0.98641 0.12543 0.51702 0.0
C243 C 0.02228 0.19314 0.49949 0.0
C244 C 0.95029 0.18443 0.45591 0.0
C245 C 0.02159 0.15046 0.52585 0.0
C246 C 0.98651 0.2102 0.46434 0.0
C247 C 0.87966 0.13011 0.43938 0.0
C248 C 0.91612 0.11472 0.47515 0.0
C249 C 0.87864 0.17288 0.41224 0.0
C250 C 0.91381 0.19997 0.42053 0.0
Eu251 Eu 0.9825 0.05297 0.5587 0.0
N252 N 0.91875 0.07294 0.50066 0.0
C253 C 0.84548 0.10188 0.43161 0.0
C254 C 0.88499 0.04566 0.49436 0.0
C255 C 0.84806 0.05957 0.45944 0.0
H256 H 0.04898 0.13763 0.55361 0.0
H257 H 0.82158 0.03767 0.45404 0.0
H258 H 1.00335 0.86425 0.57839 0.0
H259 H 0.21295 0.01475 0.55227 0.0
H260 H 0.88648 0.01314 0.51596 0.0
H261 H 0.81693 0.11245 0.40438 0.0
H262 H 0.14007 0.00999 0.50564 0.0
H263 H 0.05034 0.21286 0.50638 0.0
H264 H 0.85093 0.18524 0.38452 0.0
H265 H 0.91266 0.23278 0.39904 0.0
H266 H 0.02411 0.80427 0.65051 0.0
H267 H 0.9872 0.24325 0.4439 0.0
H268 H 0.23539 0.96375 0.6317 0.0
N269 N 0.06324 0.89664 0.58916 0.0
C270 C 0.10374 0.89627 0.61588 0.0
C271 C 0.04673 0.83 0.64125 0.0
C272 C 0.11677 0.86307 0.65762 0.0
C273 C 0.03502 0.86388 0.60054 0.0
C274 C 0.08765 0.82974 0.67014 0.0
N275 N 0.11826 0.96131 0.56128 0.0
C276 C 0.14798 0.98949 0.54167 0.0
C277 C 0.17389 0.93027 0.62916 0.0
C278 C 0.13166 0.92992 0.60208 0.0
C279 C 0.20269 0.96236 0.612 0.0
C280 C 0.19006 0.99137 0.56736 0.0
H281 H 0.09645 0.80367 0.70195 0.0
H282 H 0.16844 0.83949 0.71828 0.0
H283 H 0.21863 0.89805 0.6931 0.0
O284 O 0.08225 0.94855 0.46522 0.0
O285 O 0.03639 0.95374 0.60163 0.0
O286 O 0.0447 0.0239 0.60652 0.0
O287 O 0.04103 0.89736 0.4944 0.0
O288 O 0.06286 0.02588 0.492 0.0
O289 O 0.05502 0.05782 0.55546 0.0
O290 O 0.93747 0.04476 0.6121 0.0
O291 O 0.97891 0.05469 0.47788 0.0
O292 O 0.98454 0.98443 0.47003 0.0
O293 O 0.97979 0.09951 0.60471 0.0
O294 O 0.95464 0.98552 0.57825 0.0
O295 O 0.97306 0.94352 0.52644 0.0
C296 C 0.05012 0.98274 0.62647 0.0
C297 C 0.04709 0.90879 0.41047 0.0
C298 C 0.05842 0.90073 0.32969 0.0
C299 C 0.01363 0.90878 0.3127 0.0
C300 C 1.00223 0.91613 0.39307 0.0
C301 C 0.98567 0.91621 0.34439 0.0
C302 C 0.07509 0.90068 0.3787 0.0
C303 C 0.07114 0.0573 0.51528 0.0
C304 C 0.06514 0.91182 0.46074 0.0
C305 C 0.15806 0.86442 0.68574 0.0
C306 C 0.18653 0.89792 0.67155 0.0
C307 C 0.9743 0.02527 0.45167 0.0
C308 C 0.96059 0.07075 0.68283 0.0
C309 C 0.9399 0.0768 0.76072 0.0
C310 C 0.97686 0.05157 0.78545 0.0
C311 C 0.99753 0.04622 0.70818 0.0
C312 C 0.93186 0.08637 0.70917 0.0
C313 C 0.00563 0.03658 0.75922 0.0
C314 C 0.94876 0.9519 0.55791 0.0
C315 C 0.95096 0.07821 0.62917 0.0
H316 H 1.00034 0.90912 0.27495 0.0
H317 H 0.9801 0.92206 0.41707 0.0
H318 H 0.95112 0.92225 0.33114 0.0
H319 H 0.1098 0.89515 0.39174 0.0
H320 H 0.98372 0.04389 0.82511 0.0
H321 H 0.01979 0.03438 0.68828 0.0
H322 H 0.90306 0.10519 0.68975 0.0
H323 H 0.03417 0.01738 0.77847 0.0
Eu324 Eu 0.46578 0.48772 0.99732 0.0
C325 C 0.65792 0.53808 0.08684 0.0
N326 N 0.63229 0.50484 0.10411 0.0
C327 C 0.69448 0.45666 0.12658 0.0
C328 C 0.70317 0.53163 0.08846 0.0
C329 C 0.64987 0.46469 0.12467 0.0
C330 C 0.72125 0.49023 0.10829 0.0
C331 C 0.66442 0.6137 0.04828 0.0
C332 C 0.63877 0.5787 0.0669 0.0
C333 C 0.70956 0.60741 0.05017 0.0
C334 C 0.72885 0.5665 0.07013 0.0
Eu335 Eu 0.55749 0.5217 0.09836 0.0
N336 N 0.59473 0.58355 0.06398 0.0
C337 C 0.64384 0.65391 0.02786 0.0
C338 C 0.57466 0.62288 0.04544 0.0
C339 C 0.59882 0.65854 0.02666 0.0
H340 H 0.62957 0.43897 0.14023 0.0
H341 H 0.58271 0.68958 0.01133 0.0
H342 H 0.37194 0.53603 1.00219 0.0
H343 H 0.50509 0.31444 0.03807 0.0
H344 H 0.54001 0.62678 0.0447 0.0
H345 H 0.66241 0.68158 0.01307 0.0
H346 H 0.51184 0.39066 0.99831 0.0
H347 H 0.70825 0.42467 0.14248 0.0
H348 H 0.72978 0.63392 0.03595 0.0
H349 H 0.76367 0.56214 0.07104 0.0
H350 H 0.30368 0.51786 0.03745 0.0
H351 H 0.75584 0.48393 0.10997 0.0
H352 H 0.44497 0.29186 0.08603 0.0
N353 N 0.39833 0.47241 0.0263 0.0
C354 C 0.39215 0.43084 0.04891 0.0
C355 C 0.32833 0.49313 0.04098 0.0
C356 C 0.35403 0.41909 0.06993 0.0
C357 C 0.3668 0.50334 0.02097 0.0
C358 C 0.3221 0.45093 0.06601 0.0
N359 N 0.46037 0.41247 0.02961 0.0
C360 C 0.48726 0.3819 0.02176 0.0
C361 C 0.41806 0.35654 0.07288 0.0
C362 C 0.42431 0.40016 0.05112 0.0
C363 C 0.44863 0.32569 0.06989 0.0
C364 C 0.48273 0.33832 0.04309 0.0
H365 H 0.29239 0.44318 0.08177 0.0
H366 H 0.32001 0.36651 0.11068 0.0
H367 H 0.37576 0.31162 0.11268 0.0
O368 O 0.4674 0.46598 0.92968 0.0
O369 O 0.45135 0.48894 0.07369 0.0
O370 O 0.51558 0.46393 0.12142 0.0
O371 O 0.41339 0.50555 0.93484 0.0
O372 O 0.53557 0.46142 0.00787 0.0
O373 O 0.55387 0.45285 0.09066 0.0
O374 O 0.54096 0.55672 0.15128 0.0
O375 O 0.57198 0.53805 0.01972 0.0
O376 O 0.50491 0.54632 0.9697 0.0
O377 O 0.59617 0.51208 0.17128 0.0
O378 O 0.49467 0.56276 0.07751 0.0
O379 O 0.45922 0.5576 1.00035 0.0
C380 C 0.47287 0.46727 0.11518 0.0
C381 C 0.39929 0.45424 0.88596 0.0
C382 C 0.37427 0.42175 0.81666 0.0
C383 C 0.34526 0.39644 0.84431 0.0
C384 C 0.37002 0.4288 0.91287 0.0
C385 C 0.34309 0.40013 0.89202 0.0
C386 C 0.40119 0.45084 0.83768 0.0
C387 C 0.55986 0.44338 0.04946 0.0
C388 C 0.42942 0.48281 0.90858 0.0
C389 C 0.34889 0.3761 0.09388 0.0
C390 C 0.38077 0.34488 0.09524 0.0
C391 C 0.54731 0.5523 0.97711 0.0
C392 C 0.5596 0.52323 0.23466 0.0
C393 C 0.56349 0.53244 0.31814 0.0
C394 C 0.53609 0.49698 0.32833 0.0
C395 C 0.53314 0.48731 0.24547 0.0
C396 C 0.57462 0.54568 0.27093 0.0
C397 C 0.52118 0.47442 0.2921 0.0
C398 C 0.46566 0.57648 0.03782 0.0
C399 C 0.57189 0.53817 0.18587 0.0
H400 H 0.32406 0.37393 0.82881 0.0
H401 H 0.36812 0.43089 0.95002 0.0
H402 H 0.32062 0.38054 0.91299 0.0
H403 H 0.42415 0.47004 0.81697 0.0
H404 H 0.52698 0.48629 0.36447 0.0
H405 H 0.52202 0.46932 0.218 0.0
H406 H 0.59492 0.57362 0.26234 0.0
H407 H 0.50067 0.44669 0.30025 0.0
C408 C 0.129 0.14423 0.43343 0.0
C409 C 0.16209 0.157 0.46708 0.0
C410 C 0.10024 0.11104 0.44896 0.0
C411 C 0.10298 0.09036 0.49872 0.0
H412 H 0.12448 0.16078 0.39519 0.0
H413 H 0.0749 0.10244 0.42214 0.0
S414 S 0.18782 0.10656 0.6 0.0
N415 N 0.19959 0.14145 0.55137 0.0
N416 N 0.14365 0.08178 0.58055 0.0
C417 C 0.13677 0.10162 0.53227 0.0
C418 C 0.16682 0.13419 0.51642 0.0
C419 C 0.37495 0.66128 0.99239 0.0
C420 C 0.38074 0.68708 0.02714 0.0
C421 C 0.40285 0.62626 0.99603 0.0
C422 C 0.43752 0.61473 0.03514 0.0
H423 H 0.34839 0.6681 0.9619 0.0
H424 H 0.39677 0.60804 0.96775 0.0
S425 S 0.46727 0.67227 0.1359 0.0
N426 N 0.42439 0.69949 0.10148 0.0
N427 N 0.47616 0.63252 0.10962 0.0
C428 C 0.44355 0.64004 0.07062 0.0
C429 C 0.41526 0.6763 0.06643 0.0
C430 C 0.87837 0.8517 0.5704 0.0
C431 C 0.84963 0.85814 0.60232 0.0
C432 C 0.90952 0.88238 0.5557 0.0
C433 C 0.914 0.92073 0.57284 0.0
H434 H 0.877 0.82247 0.55668 0.0
H435 H 0.93042 0.8756 0.53083 0.0
S436 S 0.84504 0.95433 0.65527 0.0
N437 N 0.82609 0.90689 0.64868 0.0
N438 N 0.8855 0.96385 0.62277 0.0
C439 C 0.88523 0.92771 0.60471 0.0
C440 C 0.85307 0.89659 0.61917 0.0
C441 C 0.62539 0.33914 0.09161 0.0
C442 C 0.65486 0.34279 0.05762 0.0
C443 C 0.5947 0.3718 0.0885 0.0
C444 C 0.59155 0.40898 0.05064 0.0
H445 H 0.62618 0.31084 0.12123 0.0
H446 H 0.57308 0.36782 0.11583 0.0
S447 S 0.66043 0.43502 0.95234 0.0
N448 N 0.67913 0.38745 0.98522 0.0
N449 N 0.61968 0.44796 0.9782 0.0
C450 C 0.61974 0.41281 0.0156 0.0
C451 C 0.65178 0.3799 0.0193 0.0
C452 C 0.12639 0.84275 0.26248 0.0
C453 C 0.13675 0.87615 0.22426 0.0
C454 C 0.10223 0.85111 0.29763 0.0
C455 C 0.0875 0.89306 0.29559 0.0
H456 H 0.13571 0.8097 0.26431 0.0
H457 H 0.09384 0.82444 0.32565 0.0
S458 S 0.10948 0.99238 0.20676 0.0
N459 N 0.13351 0.95349 0.18962 0.0
N460 N 0.08698 0.96862 0.25486 0.0
C461 C 0.09873 0.92688 0.25883 0.0
C462 C 0.12364 0.91857 0.22336 0.0
C463 C 0.55829 0.62409 0.85327 0.0
C464 C 0.60265 0.61921 0.84958 0.0
C465 C 0.54121 0.60363 0.89538 0.0
C466 C 0.56772 0.57712 0.93543 0.0
H467 H 0.53625 0.64268 0.82255 0.0
H468 H 0.5066 0.60778 0.89589 0.0
S469 S 0.68655 0.55465 0.94393 0.0
N470 N 0.67319 0.58734 0.88963 0.0
N471 N 0.6412 0.54797 0.96863 0.0
C472 C 0.61263 0.57325 0.9328 0.0
C473 C 0.63005 0.59453 0.88992 0.0
C474 C 0.9113 0.02486 0.32566 0.0
C475 C 0.9156 0.06753 0.30001 0.0
C476 C 0.93069 0.01107 0.37479 0.0
C477 C 0.95538 0.03941 0.39943 0.0
H478 H 0.8919 0.00242 0.30805 0.0
H479 H 0.92528 0.97844 0.39389 0.0
S480 S 0.97981 0.15323 0.34616 0.0
N481 N 0.94814 0.13721 0.30138 0.0
N482 N 0.98545 0.11128 0.39302 0.0
C483 C 0.96088 0.08181 0.37341 0.0
C484 C 0.94084 0.09585 0.32382 0.0
C485 C 0.37621 0.36757 0.71127 0.0
C486 C 0.36365 0.40112 0.66997 0.0
C487 C 0.38233 0.37516 0.75856 0.0
C488 C 0.37624 0.41661 0.7663 0.0
H489 H 0.37865 0.3347 0.7071 0.0
H490 H 0.38981 0.348 0.78946 0.0
S491 S 0.34753 0.51608 0.67011 0.0
N492 N 0.34862 0.47776 0.63938 0.0
N493 N 0.36049 0.49228 0.72865 0.0
C494 C 0.36688 0.45103 0.72519 0.0
C495 C 0.36049 0.44321 0.67684 0.0
C496 C 0.56823 0.59623 0.41705 0.0
C497 C 0.61315 0.60462 0.42689 0.0
C498 C 0.55237 0.57216 0.38243 0.0
C499 C 0.5809 0.55576 0.35648 0.0
H500 H 0.54512 0.60897 0.43567 0.0
H501 H 0.51749 0.56711 0.37516 0.0
S502 S 0.70169 0.56467 0.37253 0.0
N503 N 0.68618 0.59177 0.41062 0.0
N504 N 0.6563 0.54685 0.34534 0.0
C505 C 0.62593 0.56296 0.36688 0.0
C506 C 0.64207 0.58733 0.40211 0.0
C507 C 0.86874 0.07783 0.85797 0.0
C508 C 0.8628 0.12213 0.85532 0.0
C509 C 0.89218 0.06346 0.82585 0.0
C510 C 0.91021 0.09279 0.78949 0.0
H511 H 0.85623 0.05403 0.88608 0.0
H512 H 0.89721 0.0291 0.83026 0.0
S513 S 0.90306 0.21193 0.76578 0.0
N514 N 0.87622 0.19519 0.81245 0.0
N515 N 0.91954 0.16793 0.75139 0.0
C516 C 0.90293 0.13706 0.78485 0.0
C517 C 0.87935 0.1518 0.81789 0.0
C518 C 0.4415 0.3922 0.22882 0.0
C519 C 0.40786 0.41554 0.24033 0.0
C520 C 0.46197 0.40879 0.18768 0.0
C521 C 0.44908 0.44899 0.15645 0.0
H522 H 0.45303 0.36167 0.2527 0.0
H523 H 0.48844 0.39033 0.18059 0.0
S524 S 0.36131 0.52156 0.1697 0.0
N525 N 0.36173 0.48004 0.21668 0.0
N526 N 0.39968 0.51096 0.13916 0.0
C527 C 0.41447 0.47183 0.16674 0.0
C528 C 0.39407 0.45521 0.20883 0.0
C529 C 0.07902 0.9153 0.75568 0.0
C530 C 0.1081 0.94167 0.77839 0.0
C531 C 0.06049 0.9288 0.70636 0.0
C532 C 0.07096 0.96882 0.67811 0.0
H533 H 0.07046 0.88416 0.77627 0.0
H534 H 0.0375 0.90791 0.69043 0.0
S535 S 0.14681 0.04871 0.72114 0.0
N536 N 0.14715 0.00887 0.76983 0.0
N537 N 0.11323 0.03416 0.67667 0.0
C538 C 0.10058 0.99514 0.70058 0.0
C539 C 0.11898 0.98154 0.75089 0.0
loop_
_geom_bond_atom_site_label_1
_geom_bond_atom_site_label_2
_geom_bond_distance
_geom_bond_site_symmetry_2
_ccdc_geom_bond_type
C0 C1 1.391 . S
C0 C4 1.391 . S
C0 H42 0.948 . S
C1 C0 1.391 . S
C1 C2 1.391 . S
C2 C1 1.391 . S
C2 H58 0.947 . S
C2 C59 1.392 . S
C3 C4 1.391 . S
C3 C7 1.397 . S
C3 C59 1.419 . S
C4 C0 1.391 . S
C4 C3 1.391 . S
C4 C5 1.399 . S
C5 C4 1.399 . S
C5 C8 1.396 . S
C5 C17 1.453 . S
C5 C18 1.684 . S
H6 C30 0.948 . S
C7 C3 1.397 . S
C7 C8 1.394 . S
C7 C26 1.723 1_556 S
C8 C5 1.396 . S
C8 C7 1.394 . S
C8 C38 1.723 1_556 S
H9 C32 0.947 . S
H10 C33 0.948 . S
H11 C39 0.982 . S
H12 C40 0.979 . S
H13 C40 0.980 . S
H14 C40 0.983 . S
H15 C39 0.979 . S
H16 C39 0.977 . S
C17 C5 1.453 . S
C17 H46 0.982 . S
C17 H47 0.979 . S
C17 H48 0.977 . S
C18 C5 1.684 . S
C18 H43 0.979 . S
C18 H44 0.980 . S
C18 H45 0.983 . S
C19 C20 1.391 . S
C19 C24 1.391 . S
C19 H49 0.948 . S
C20 C19 1.391 . S
C20 C21 1.391 . S
C21 C20 1.391 . S
C21 C22 1.392 . S
C21 H50 0.947 . S
C22 C21 1.392 . S
C22 C23 1.419 . S
C22 H51 0.948 . S
C23 C22 1.419 . S
C23 C24 1.391 . S
C23 C27 1.397 . S
C24 C19 1.391 . S
C24 C23 1.391 . S
C24 C25 1.399 . S
C25 C24 1.399 . S
C25 C26 1.396 . S
C25 C28 1.453 . S
C25 C29 1.684 . S
C26 C7 1.723 1_554 S
C26 C25 1.396 . S
C26 C27 1.394 . S
C27 C23 1.397 . S
C27 C26 1.394 . S
C27 C37 1.723 . S
C28 C25 1.453 . S
C28 H52 0.982 . S
C28 H53 0.979 . S
C28 H54 0.977 1_554 S
C29 C25 1.684 . S
C29 H55 0.979 . S
C29 H56 0.980 1_554 S
C29 H57 0.983 . S
C30 H6 0.948 . S
C30 C31 1.391 . S
C30 C35 1.391 . S
C31 C30 1.391 . S
C31 C32 1.391 1_554 S
C32 H9 0.947 . S
C32 C31 1.391 1_556 S
C32 C33 1.392 . S
C33 H10 0.948 . S
C33 C32 1.392 . S
C33 C34 1.419 1_556 S
C34 C33 1.419 1_554 S
C34 C35 1.391 . S
C34 C38 1.397 . S
C35 C30 1.391 . S
C35 C34 1.391 . S
C35 C36 1.399 . S
C36 C35 1.399 . S
C36 C37 1.396 . S
C36 C39 1.453 . S
C36 C40 1.684 . S
C37 C27 1.723 . S
C37 C36 1.396 . S
C37 C38 1.394 . S
C38 C8 1.723 1_554 S
C38 C34 1.397 . S
C38 C37 1.394 . S
C39 H11 0.982 . S
C39 H15 0.979 . S
C39 H16 0.977 . S
C39 C36 1.453 . S
C40 H12 0.979 . S
C40 H13 0.980 . S
C40 H14 0.983 . S
C40 C36 1.684 . S
H41 C59 0.948 . S
H42 C0 0.948 . S
H43 C18 0.979 . S
H44 C18 0.980 . S
H45 C18 0.983 . S
H46 C17 0.982 . S
H47 C17 0.979 . S
H48 C17 0.977 . S
H49 C19 0.948 . S
H50 C21 0.947 . S
H51 C22 0.948 . S
H52 C28 0.982 . S
H53 C28 0.979 . S
H54 C28 0.977 1_556 S
H55 C29 0.979 . S
H56 C29 0.980 1_556 S
H57 C29 0.983 . S
H58 C2 0.947 . S
C59 C2 1.392 . S
C59 C3 1.419 . S
C59 H41 0.948 . S
C60 C61 1.391 . S
C60 C64 1.391 . S
C60 H102 0.948 . S
C61 C60 1.391 . S
C61 C62 1.391 . S
C62 C61 1.391 . S
C62 H118 0.947 . S
C62 C119 1.392 . S
C63 C64 1.391 . S
C63 C67 1.397 . S
C63 C119 1.419 . S
C64 C60 1.391 . S
C64 C63 1.391 . S
C64 C65 1.399 . S
C65 C64 1.399 . S
C65 C68 1.396 . S
C65 C77 1.453 . S
C65 C78 1.684 . S
H66 C90 0.948 . S
C67 C63 1.397 . S
C67 C68 1.394 . S
C67 C86 1.723 . S
C68 C65 1.396 . S
C68 C67 1.394 . S
C68 C98 1.723 . S
H69 C92 0.947 . S
H70 C93 0.948 . S
H71 C99 0.982 . S
H72 C100 0.979 . S
H73 C100 0.980 . S
H74 C100 0.983 . S
H75 C99 0.979 . S
H76 C99 0.977 . S
C77 C65 1.453 . S
C77 H106 0.982 . S
C77 H107 0.979 . S
C77 H108 0.977 . S
C78 C65 1.684 . S
C78 H103 0.979 . S
C78 H104 0.980 . S
C78 H105 0.983 . S
C79 C80 1.391 . S
C79 C84 1.391 . S
C79 H109 0.948 . S
C80 C79 1.391 . S
C80 C81 1.391 . S
C81 C80 1.391 . S
C81 C82 1.392 . S
C81 H110 0.947 . S
C82 C81 1.392 . S
C82 C83 1.419 . S
C82 H111 0.948 . S
C83 C82 1.419 . S
C83 C84 1.391 . S
C83 C87 1.397 . S
C84 C79 1.391 . S
C84 C83 1.391 . S
C84 C85 1.399 . S
C85 C84 1.399 . S
C85 C86 1.396 . S
C85 C88 1.453 . S
C85 C89 1.684 . S
C86 C67 1.723 . S
C86 C85 1.396 . S
C86 C87 1.394 . S
C87 C83 1.397 . S
C87 C86 1.394 . S
C87 C97 1.723 . S
C88 C85 1.453 . S
C88 H112 0.982 . S
C88 H113 0.979 . S
C88 H114 0.977 . S
C89 C85 1.684 . S
C89 H115 0.979 . S
C89 H116 0.980 . S
C89 H117 0.983 . S
C90 H66 0.948 . S
C90 C91 1.391 . S
C90 C95 1.391 . S
C91 C90 1.391 . S
C91 C92 1.391 . S
C92 H69 0.947 . S
C92 C91 1.391 . S
C92 C93 1.392 . S
C93 H70 0.948 . S
C93 C92 1.392 . S
C93 C94 1.419 . S
C94 C93 1.419 . S
C94 C95 1.391 . S
C94 C98 1.397 . S
C95 C90 1.391 . S
C95 C94 1.391 . S
C95 C96 1.399 . S
C96 C95 1.399 . S
C96 C97 1.396 . S
C96 C99 1.453 . S
C96 C100 1.684 . S
C97 C87 1.723 . S
C97 C96 1.396 . S
C97 C98 1.394 . S
C98 C68 1.723 . S
C98 C94 1.397 . S
C98 C97 1.394 . S
C99 H71 0.982 . S
C99 H75 0.979 . S
C99 H76 0.977 . S
C99 C96 1.453 . S
C100 H72 0.979 . S
C100 H73 0.980 . S
C100 H74 0.983 . S
C100 C96 1.684 . S
H101 C119 0.948 . S
H102 C60 0.948 . S
H103 C78 0.979 . S
H104 C78 0.980 . S
H105 C78 0.983 . S
H106 C77 0.982 . S
H107 C77 0.979 . S
H108 C77 0.977 . S
H109 C79 0.948 . S
H110 C81 0.947 . S
H111 C82 0.948 . S
H112 C88 0.982 . S
H113 C88 0.979 . S
H114 C88 0.977 . S
H115 C89 0.979 . S
H116 C89 0.980 . S
H117 C89 0.983 . S
H118 C62 0.947 . S
C119 C62 1.392 . S
C119 C63 1.419 . S
C119 H101 0.948 . S
C120 C121 1.391 . S
C120 C124 1.391 . S
C120 H162 0.948 . S
C121 C120 1.391 . S
C121 C122 1.391 . S
C122 C121 1.391 . S
C122 H178 0.947 . S
C122 C179 1.392 . S
C123 C124 1.391 . S
C123 C127 1.397 . S
C123 C179 1.419 . S
C124 C120 1.391 . S
C124 C123 1.391 . S
C124 C125 1.399 . S
C125 C124 1.399 . S
C125 C128 1.396 . S
C125 C137 1.453 . S
C125 C138 1.684 . S
H126 C150 0.948 1_556 S
C127 C123 1.397 . S
C127 C128 1.394 . S
C127 C146 1.723 . S
C128 C125 1.396 . S
C128 C127 1.394 . S
C128 C158 1.723 . S
H129 C152 0.947 . S
H130 C153 0.948 . S
H131 C159 0.982 . S
H132 C160 0.979 . S
H133 C160 0.980 . S
H134 C160 0.983 . S
H135 C159 0.979 . S
H136 C159 0.977 . S
C137 C125 1.453 . S
C137 H166 0.982 . S
C137 H167 0.979 . S
C137 H168 0.977 . S
C138 C125 1.684 . S
C138 H163 0.979 . S
C138 H164 0.980 . S
C138 H165 0.983 . S
C139 C140 1.391 . S
C139 C144 1.391 . S
C139 H169 0.948 . S
C140 C139 1.391 . S
C140 C141 1.391 . S
C141 C140 1.391 . S
C141 C142 1.392 . S
C141 H170 0.947 . S
C142 C141 1.392 . S
C142 C143 1.419 . S
C142 H171 0.948 . S
C143 C142 1.419 . S
C143 C144 1.391 . S
C143 C147 1.397 1_556 S
C144 C139 1.391 . S
C144 C143 1.391 . S
C144 C145 1.399 1_556 S
C145 C144 1.399 1_554 S
C145 C146 1.396 . S
C145 C148 1.453 . S
C145 C149 1.684 . S
C146 C127 1.723 . S
C146 C145 1.396 . S
C146 C147 1.394 . S
C147 C143 1.397 1_554 S
C147 C146 1.394 . S
C147 C157 1.723 . S
C148 C145 1.453 . S
C148 H172 0.982 . S
C148 H173 0.979 . S
C148 H174 0.977 . S
C149 C145 1.684 . S
C149 H175 0.979 . S
C149 H176 0.980 . S
C149 H177 0.983 . S
C150 H126 0.948 1_554 S
C150 C151 1.391 . S
C150 C155 1.391 . S
C151 C150 1.391 . S
C151 C152 1.391 . S
C152 H129 0.947 . S
C152 C151 1.391 . S
C152 C153 1.392 . S
C153 H130 0.948 . S
C153 C152 1.392 . S
C153 C154 1.419 . S
C154 C153 1.419 . S
C154 C155 1.391 . S
C154 C158 1.397 . S
C155 C150 1.391 . S
C155 C154 1.391 . S
C155 C156 1.399 1_554 S
C156 C155 1.399 1_556 S
C156 C157 1.396 1_556 S
C156 C159 1.453 . S
C156 C160 1.684 . S
C157 C147 1.723 . S
C157 C156 1.396 1_554 S
C157 C158 1.394 . S
C158 C128 1.723 . S
C158 C154 1.397 . S
C158 C157 1.394 . S
C159 H131 0.982 . S
C159 H135 0.979 . S
C159 H136 0.977 . S
C159 C156 1.453 . S
C160 H132 0.979 . S
C160 H133 0.980 . S
C160 H134 0.983 . S
C160 C156 1.684 . S
H161 C179 0.948 . S
H162 C120 0.948 . S
H163 C138 0.979 . S
H164 C138 0.980 . S
H165 C138 0.983 . S
H166 C137 0.982 . S
H167 C137 0.979 . S
H168 C137 0.977 . S
H169 C139 0.948 . S
H170 C141 0.947 . S
H171 C142 0.948 . S
H172 C148 0.982 . S
H173 C148 0.979 . S
H174 C148 0.977 . S
H175 C149 0.979 . S
H176 C149 0.980 . S
H177 C149 0.983 . S
H178 C122 0.947 . S
C179 C122 1.392 . S
C179 C123 1.419 . S
C179 H161 0.948 . S
C180 C181 1.391 . S
C180 C184 1.391 . S
C180 H222 0.948 . S
C181 C180 1.391 . S
C181 C182 1.391 . S
C182 C181 1.391 . S
C182 H238 0.947 . S
C182 C239 1.392 . S
C183 C184 1.391 . S
C183 C187 1.397 . S
C183 C239 1.419 . S
C184 C180 1.391 . S
C184 C183 1.391 . S
C184 C185 1.399 . S
C185 C184 1.399 . S
C185 C188 1.396 . S
C185 C197 1.453 . S
C185 C198 1.684 . S
H186 C210 0.948 . S
C187 C183 1.397 . S
C187 C188 1.394 . S
C187 C206 1.723 . S
C188 C185 1.396 . S
C188 C187 1.394 . S
C188 C218 1.723 . S
H189 C212 0.947 . S
H190 C213 0.948 . S
H191 C219 0.982 . S
H192 C220 0.979 . S
H193 C220 0.980 . S
H194 C220 0.983 . S
H195 C219 0.979 . S
H196 C219 0.977 . S
C197 C185 1.453 . S
C197 H226 0.982 . S
C197 H227 0.979 . S
C197 H228 0.977 . S
C198 C185 1.684 . S
C198 H223 0.979 . S
C198 H224 0.980 . S
C198 H225 0.983 . S
C199 C200 1.391 . S
C199 C204 1.391 . S
C199 H229 0.948 . S
C200 C199 1.391 . S
C200 C201 1.391 . S
C201 C200 1.391 . S
C201 C202 1.392 . S
C201 H230 0.947 . S
C202 C201 1.392 . S
C202 C203 1.419 . S
C202 H231 0.948 . S
C203 C202 1.419 . S
C203 C204 1.391 . S
C203 C207 1.397 . S
C204 C199 1.391 . S
C204 C203 1.391 . S
C204 C205 1.399 . S
C205 C204 1.399 . S
C205 C206 1.396 . S
C205 C208 1.453 . S
C205 C209 1.684 . S
C206 C187 1.723 . S
C206 C205 1.396 . S
C206 C207 1.394 . S
C207 C203 1.397 . S
C207 C206 1.394 . S
C207 C217 1.723 . S
C208 C205 1.453 . S
C208 H232 0.982 . S
C208 H233 0.979 . S
C208 H234 0.977 . S
C209 C205 1.684 . S
C209 H235 0.979 . S
C209 H236 0.980 . S
C209 H237 0.983 . S
C210 H186 0.948 . S
C210 C211 1.391 . S
C210 C215 1.391 . S
C211 C210 1.391 . S
C211 C212 1.391 . S
C212 H189 0.947 . S
C212 C211 1.391 . S
C212 C213 1.392 . S
C213 H190 0.948 . S
C213 C212 1.392 . S
C213 C214 1.419 . S
C214 C213 1.419 . S
C214 C215 1.391 . S
C214 C218 1.397 . S
C215 C210 1.391 . S
C215 C214 1.391 . S
C215 C216 1.399 . S
C216 C215 1.399 . S
C216 C217 1.396 . S
C216 C219 1.453 . S
C216 C220 1.684 . S
C217 C207 1.723 . S
C217 C216 1.396 . S
C217 C218 1.394 . S
C218 C188 1.723 . S
C218 C214 1.397 . S
C218 C217 1.394 . S
C219 H191 0.982 . S
C219 H195 0.979 . S
C219 H196 0.977 . S
C219 C216 1.453 . S
C220 H192 0.979 . S
C220 H193 0.980 . S
C220 H194 0.983 . S
C220 C216 1.684 . S
H221 C239 0.948 . S
H222 C180 0.948 . S
H223 C198 0.979 . S
H224 C198 0.980 . S
H225 C198 0.983 . S
H226 C197 0.982 . S
H227 C197 0.979 . S
H228 C197 0.977 . S
H229 C199 0.948 . S
H230 C201 0.947 . S
H231 C202 0.948 . S
H232 C208 0.982 . S
H233 C208 0.979 . S
H234 C208 0.977 . S
H235 C209 0.979 . S
H236 C209 0.980 . S
H237 C209 0.983 . S
H238 C182 0.947 . S
C239 C182 1.392 . S
C239 C183 1.419 . S
C239 H221 0.948 . S
Eu240 N269 2.600 . S
Eu240 N275 2.562 . S
Eu240 O284 2.462 . S
Eu240 O285 2.373 . S
Eu240 O287 2.432 . S
Eu240 O288 2.291 1_565 S
Eu240 O292 2.336 1_455 S
Eu240 O295 2.372 1_455 S
Eu240 C304 2.787 . S
C241 N242 1.365 . S
C241 C244 1.405 . S
C241 C248 1.448 . S
N242 C241 1.365 . S
N242 C245 1.319 . S
N242 Eu251 2.600 . S
C243 C245 1.397 . S
C243 C246 1.367 . S
C243 H263 0.931 1_655 S
C244 C241 1.405 . S
C244 C246 1.403 . S
C244 C250 1.439 . S
C245 N242 1.319 . S
C245 C243 1.397 . S
C245 H256 0.930 1_655 S
C246 C243 1.367 . S
C246 C244 1.403 . S
C246 H267 0.929 . S
C247 C248 1.430 . S
C247 C249 1.387 . S
C247 C253 1.404 . S
C248 C241 1.448 . S
C248 C247 1.430 . S
C248 N252 1.351 . S
C249 C247 1.387 . S
C249 C250 1.374 . S
C249 H264 0.931 . S
C250 C244 1.439 . S
C250 C249 1.374 . S
C250 H265 0.931 . S
Eu251 N242 2.600 . S
Eu251 N252 2.562 . S
Eu251 O286 2.335 1_655 S
Eu251 O289 2.372 1_655 S
Eu251 O290 2.462 . S
Eu251 O291 2.373 . S
Eu251 O293 2.432 . S
Eu251 O294 2.291 1_545 S
Eu251 C315 2.787 . S
N252 C248 1.351 . S
N252 Eu251 2.562 . S
N252 C254 1.325 . S
C253 C247 1.404 . S
C253 C255 1.366 . S
C253 H261 0.930 . S
C254 N252 1.325 . S
C254 C255 1.416 . S
C254 H260 0.929 . S
C255 C253 1.366 . S
C255 C254 1.416 . S
C255 H257 0.930 . S
H256 C245 0.930 1_455 S
H257 C255 0.930 . S
H258 C273 0.930 1_655 S
H259 C280 0.930 . S
H260 C254 0.929 . S
H261 C253 0.930 . S
H262 C276 0.929 . S
H263 C243 0.931 1_455 S
H264 C249 0.931 . S
H265 C250 0.931 . S
H266 C271 0.931 1_655 S
H267 C246 0.929 . S
H268 C279 0.930 . S
N269 Eu240 2.600 . S
N269 C270 1.365 . S
N269 C273 1.319 . S
C270 N269 1.365 . S
C270 C272 1.405 . S
C270 C278 1.448 . S
C271 H266 0.931 1_455 S
C271 C273 1.397 . S
C271 C274 1.367 . S
C272 C270 1.405 . S
C272 C274 1.403 . S
C272 C305 1.439 . S
C273 H258 0.930 1_455 S
C273 N269 1.319 . S
C273 C271 1.397 . S
C274 C271 1.367 . S
C274 C272 1.403 . S
C274 H281 0.929 . S
N275 Eu240 2.562 . S
N275 C276 1.325 . S
N275 C278 1.351 . S
C276 H262 0.929 . S
C276 N275 1.325 . S
C276 C280 1.416 . S
C277 C278 1.430 . S
C277 C279 1.404 . S
C277 C306 1.387 . S
C278 C270 1.448 . S
C278 N275 1.351 . S
C278 C277 1.430 . S
C279 H268 0.930 . S
C279 C277 1.404 . S
C279 C280 1.366 . S
C280 H259 0.930 . S
C280 C276 1.416 . S
C280 C279 1.366 . S
H281 C274 0.929 . S
H282 C305 0.931 . S
H283 C306 0.931 . S
O284 Eu240 2.462 . S
O284 C304 1.252 . S
O285 Eu240 2.373 . S
O285 C296 1.249 . S
O286 Eu251 2.335 1_455 S
O286 C296 1.264 1_545 S
O287 Eu240 2.432 . S
O287 C304 1.268 . S
O288 Eu240 2.291 1_545 S
O288 C303 1.255 . S
O289 Eu251 2.372 1_455 S
O289 C303 1.257 . S
O290 Eu251 2.462 . S
O290 C315 1.252 . S
O291 Eu251 2.373 . S
O291 C307 1.249 . S
O292 Eu240 2.336 1_655 S
O292 C307 1.262 1_565 S
O293 Eu251 2.432 . S
O293 C315 1.268 . S
O294 Eu251 2.291 1_565 S
O294 C314 1.255 . S
O295 Eu240 2.372 1_655 S
O295 C314 1.257 . S
C296 O285 1.249 . S
C296 O286 1.264 1_565 S
C297 C300 1.382 . S
C297 C302 1.390 . S
C297 C304 1.506 . S
C298 C299 1.398 . S
C298 C302 1.392 . S
C299 C298 1.398 . S
C299 C301 1.372 . S
C299 H316 0.931 . S
C300 C297 1.382 . S
C300 C301 1.390 . S
C300 H317 0.931 . S
C301 C299 1.372 . S
C301 C300 1.390 . S
C301 H318 0.929 . S
C302 C297 1.390 . S
C302 C298 1.392 . S
C302 H319 0.930 . S
C303 O288 1.255 . S
C303 O289 1.257 . S
C304 Eu240 2.787 . S
C304 O284 1.252 . S
C304 O287 1.268 . S
C304 C297 1.506 . S
C305 C272 1.439 . S
C305 H282 0.931 . S
C305 C306 1.374 . S
C306 C277 1.387 . S
C306 H283 0.931 . S
C306 C305 1.374 . S
C307 O291 1.249 . S
C307 O292 1.262 1_545 S
C308 C311 1.382 . S
C308 C312 1.390 . S
C308 C315 1.506 . S
C309 C310 1.398 . S
C309 C312 1.392 . S
C310 C309 1.398 . S
C310 C313 1.372 . S
C310 H320 0.931 . S
C311 C308 1.382 . S
C311 C313 1.390 . S
C311 H321 0.931 . S
C312 C308 1.390 . S
C312 C309 1.392 . S
C312 H322 0.930 . S
C313 C310 1.372 . S
C313 C311 1.390 . S
C313 H323 0.929 . S
C314 O294 1.255 . S
C314 O295 1.257 . S
C315 Eu251 2.787 . S
C315 O290 1.252 . S
C315 O293 1.268 . S
C315 C308 1.506 . S
H316 C299 0.931 . S
H317 C300 0.931 . S
H318 C301 0.929 . S
H319 C302 0.930 . S
H320 C310 0.931 . S
H321 C311 0.931 . S
H322 C312 0.930 . S
H323 C313 0.929 . S
Eu324 N353 2.601 . S
Eu324 N359 2.562 1_556 S
Eu324 O368 2.462 . S
Eu324 O369 2.373 1_556 S
Eu324 O371 2.432 . S
Eu324 O372 2.291 1_556 S
Eu324 O376 2.335 . S
Eu324 O379 2.372 1_556 S
Eu324 C388 2.787 . S
C325 N326 1.365 . S
C325 C328 1.405 . S
C325 C332 1.448 . S
N326 C325 1.365 . S
N326 C329 1.319 . S
N326 Eu335 2.600 . S
C327 C329 1.397 . S
C327 C330 1.367 . S
C327 H347 0.931 . S
C328 C325 1.405 . S
C328 C330 1.403 . S
C328 C334 1.439 . S
C329 N326 1.319 . S
C329 C327 1.397 . S
C329 H340 0.930 . S
C330 C327 1.367 . S
C330 C328 1.403 . S
C330 H351 0.929 . S
C331 C332 1.430 . S
C331 C333 1.387 . S
C331 C337 1.404 . S
C332 C325 1.448 . S
C332 C331 1.430 . S
C332 N336 1.351 . S
C333 C331 1.387 . S
C333 C334 1.374 . S
C333 H348 0.931 . S
C334 C328 1.439 . S
C334 C333 1.374 . S
C334 H349 0.931 . S
Eu335 N326 2.600 . S
Eu335 N336 2.562 . S
Eu335 O370 2.335 . S
Eu335 O373 2.372 . S
Eu335 O374 2.462 . S
Eu335 O375 2.373 . S
Eu335 O377 2.432 . S
Eu335 O378 2.291 . S
Eu335 C399 2.787 . S
N336 C332 1.351 . S
N336 Eu335 2.562 . S
N336 C338 1.325 . S
C337 C331 1.404 . S
C337 C339 1.366 . S
C337 H345 0.930 . S
C338 N336 1.325 . S
C338 C339 1.416 . S
C338 H344 0.929 . S
C339 C337 1.366 . S
C339 C338 1.416 . S
C339 H341 0.930 . S
H340 C329 0.930 . S
H341 C339 0.930 . S
H342 C357 0.930 . S
H343 C364 0.930 . S
H344 C338 0.929 . S
H345 C337 0.930 . S
H346 C360 0.929 . S
H347 C327 0.931 . S
H348 C333 0.931 . S
H349 C334 0.931 . S
H350 C355 0.931 . S
H351 C330 0.929 . S
H352 C363 0.930 . S
N353 Eu324 2.601 . S
N353 C354 1.364 1_556 S
N353 C357 1.319 . S
C354 N353 1.364 1_554 S
C354 C356 1.405 . S
C354 C362 1.448 . S
C355 H350 0.931 . S
C355 C357 1.397 . S
C355 C358 1.367 1_556 S
C356 C354 1.405 . S
C356 C358 1.403 . S
C356 C389 1.439 . S
C357 H342 0.930 . S
C357 N353 1.319 . S
C357 C355 1.397 . S
C358 C355 1.367 1_554 S
C358 C356 1.403 . S
C358 H365 0.929 . S
N359 Eu324 2.562 1_554 S
N359 C360 1.325 . S
N359 C362 1.351 . S
C360 H346 0.929 . S
C360 N359 1.325 . S
C360 C364 1.416 . S
C361 C362 1.430 . S
C361 C363 1.404 . S
C361 C390 1.387 . S
C362 C354 1.448 . S
C362 N359 1.351 . S
C362 C361 1.430 . S
C363 H352 0.930 . S
C363 C361 1.404 . S
C363 C364 1.366 . S
C364 H343 0.930 . S
C364 C360 1.416 . S
C364 C363 1.366 . S
H365 C358 0.929 . S
H366 C389 0.931 . S
H367 C390 0.931 . S
O368 Eu324 2.462 . S
O368 C388 1.252 . S
O369 Eu324 2.373 1_554 S
O369 C380 1.249 . S
O370 Eu335 2.335 . S
O370 C380 1.264 . S
O371 Eu324 2.432 . S
O371 C388 1.268 . S
O372 Eu324 2.291 1_554 S
O372 C387 1.255 . S
O373 Eu335 2.372 . S
O373 C387 1.257 . S
O374 Eu335 2.462 . S
O374 C399 1.252 . S
O375 Eu335 2.373 . S
O375 C391 1.249 1_554 S
O376 Eu324 2.335 . S
O376 C391 1.264 . S
O377 Eu335 2.432 . S
O377 C399 1.268 . S
O378 Eu335 2.291 . S
O378 C398 1.255 . S
O379 Eu324 2.372 1_554 S
O379 C398 1.257 . S
C380 O369 1.249 . S
C380 O370 1.264 . S
C381 C384 1.382 . S
C381 C386 1.390 . S
C381 C388 1.506 . S
C382 C383 1.398 . S
C382 C386 1.392 . S
C383 C382 1.398 . S
C383 C385 1.372 . S
C383 H400 0.931 . S
C384 C381 1.382 . S
C384 C385 1.390 . S
C384 H401 0.931 . S
C385 C383 1.372 . S
C385 C384 1.390 . S
C385 H402 0.929 . S
C386 C381 1.390 . S
C386 C382 1.392 . S
C386 H403 0.930 . S
C387 O372 1.255 . S
C387 O373 1.257 . S
C388 Eu324 2.787 . S
C388 O368 1.252 . S
C388 O371 1.268 . S
C388 C381 1.506 . S
C389 C356 1.439 . S
C389 H366 0.931 . S
C389 C390 1.374 . S
C390 C361 1.387 . S
C390 H367 0.931 . S
C390 C389 1.374 . S
C391 O375 1.249 1_556 S
C391 O376 1.264 . S
C392 C395 1.382 . S
C392 C396 1.390 . S
C392 C399 1.506 . S
C393 C394 1.398 . S
C393 C396 1.392 . S
C394 C393 1.398 . S
C394 C397 1.372 . S
C394 H404 0.931 . S
C395 C392 1.382 . S
C395 C397 1.390 . S
C395 H405 0.931 . S
C396 C392 1.390 . S
C396 C393 1.392 . S
C396 H406 0.930 . S
C397 C394 1.372 . S
C397 C395 1.390 . S
C397 H407 0.929 . S
C398 O378 1.255 . S
C398 O379 1.257 . S
C399 Eu335 2.787 . S
C399 O374 1.252 . S
C399 O377 1.268 . S
C399 C392 1.506 . S
H400 C383 0.931 . S
H401 C384 0.931 . S
H402 C385 0.929 . S
H403 C386 0.930 . S
H404 C394 0.931 . S
H405 C395 0.931 . S
H406 C396 0.930 . S
H407 C397 0.929 . S
C408 C409 1.369 . S
C408 C410 1.419 . S
C408 H412 0.930 . S
C409 C408 1.369 . S
C409 C418 1.429 . S
C410 C408 1.419 . S
C410 C411 1.363 . S
C410 H413 0.929 . S
C411 C410 1.363 . S
C411 C417 1.428 . S
H412 C408 0.930 . S
H413 C410 0.929 . S
S414 N415 1.613 . S
S414 N416 1.610 . S
N415 S414 1.613 . S
N415 C418 1.350 . S
N416 S414 1.610 . S
N416 C417 1.351 . S
C417 C411 1.428 . S
C417 N416 1.351 . S
C417 C418 1.434 . S
C418 C409 1.429 . S
C418 N415 1.350 . S
C418 C417 1.434 . S
C419 C420 1.369 . S
C419 C421 1.419 . S
C419 H423 0.930 . S
C420 C419 1.369 . S
C420 C429 1.429 . S
C421 C419 1.419 . S
C421 C422 1.363 . S
C421 H424 0.929 . S
C422 C421 1.363 . S
C422 C428 1.428 . S
H423 C419 0.930 . S
H424 C421 0.929 . S
S425 N426 1.613 . S
S425 N427 1.610 . S
N426 S425 1.613 . S
N426 C429 1.350 . S
N427 S425 1.610 . S
N427 C428 1.351 . S
C428 C422 1.428 . S
C428 N427 1.351 . S
C428 C429 1.434 . S
C429 C420 1.429 . S
C429 N426 1.350 . S
C429 C428 1.434 . S
C430 C431 1.369 . S
C430 C432 1.419 . S
C430 H434 0.930 . S
C431 C430 1.369 . S
C431 C440 1.429 . S
C432 C430 1.419 . S
C432 C433 1.363 . S
C432 H435 0.929 . S
C433 C432 1.363 . S
C433 C439 1.428 . S
H434 C430 0.930 . S
H435 C432 0.929 . S
S436 N437 1.602 1_545 S
S436 N438 1.607 1_545 S
N437 S436 1.602 1_565 S
N437 C440 1.350 . S
N438 S436 1.607 1_565 S
N438 C439 1.351 . S
C439 C433 1.428 . S
C439 N438 1.351 . S
C439 C440 1.434 . S
C440 C431 1.429 . S
C440 N437 1.350 . S
C440 C439 1.434 . S
C441 C442 1.369 . S
C441 C443 1.419 . S
C441 H445 0.930 . S
C442 C441 1.369 . S
C442 C451 1.429 1_554 S
C443 C441 1.419 . S
C443 C444 1.363 . S
C443 H446 0.929 . S
C444 C443 1.363 . S
C444 C450 1.428 1_554 S
H445 C441 0.930 . S
H446 C443 0.929 . S
S447 N448 1.613 . S
S447 N449 1.610 . S
N448 S447 1.613 . S
N448 C451 1.350 . S
N449 S447 1.610 . S
N449 C450 1.351 . S
C450 C444 1.428 1_556 S
C450 N449 1.351 . S
C450 C451 1.434 . S
C451 C442 1.429 1_556 S
C451 N448 1.350 . S
C451 C450 1.434 . S
C452 C453 1.369 . S
C452 C454 1.419 . S
C452 H456 0.930 . S
C453 C452 1.369 . S
C453 C462 1.429 . S
C454 C452 1.419 . S
C454 C455 1.363 . S
C454 H457 0.929 . S
C455 C454 1.363 . S
C455 C461 1.428 . S
H456 C452 0.930 . S
H457 C454 0.929 . S
S458 N459 1.613 . S
S458 N460 1.610 . S
N459 S458 1.613 . S
N459 C462 1.350 1_545 S
N460 S458 1.610 . S
N460 C461 1.351 1_545 S
C461 C455 1.428 . S
C461 N460 1.351 1_565 S
C461 C462 1.434 . S
C462 C453 1.429 . S
C462 N459 1.350 1_565 S
C462 C461 1.434 . S
C463 C464 1.369 . S
C463 C465 1.419 . S
C463 H467 0.930 . S
C464 C463 1.369 . S
C464 C473 1.429 . S
C465 C463 1.419 . S
C465 C466 1.363 . S
C465 H468 0.929 . S
C466 C465 1.363 . S
C466 C472 1.428 . S
H467 C463 0.930 . S
H468 C465 0.929 . S
S469 N470 1.613 . S
S469 N471 1.610 . S
N470 S469 1.613 . S
N470 C473 1.350 . S
N471 S469 1.610 . S
N471 C472 1.351 . S
C472 C466 1.428 . S
C472 N471 1.351 . S
C472 C473 1.434 . S
C473 C464 1.429 . S
C473 N470 1.350 . S
C473 C472 1.434 . S
C474 C475 1.369 . S
C474 C476 1.419 . S
C474 H478 0.930 1_545 S
C475 C474 1.369 . S
C475 C484 1.429 . S
C476 C474 1.419 . S
C476 C477 1.363 . S
C476 H479 0.929 1_545 S
C477 C476 1.363 . S
C477 C483 1.428 . S
H478 C474 0.930 1_565 S
H479 C476 0.929 1_565 S
S480 N481 1.613 . S
S480 N482 1.610 . S
N481 S480 1.613 . S
N481 C484 1.350 . S
N482 S480 1.610 . S
N482 C483 1.351 . S
C483 C477 1.428 . S
C483 N482 1.351 . S
C483 C484 1.434 . S
C484 C475 1.429 . S
C484 N481 1.350 . S
C484 C483 1.434 . S
C485 C486 1.369 . S
C485 C487 1.419 . S
C485 H489 0.930 . S
C486 C485 1.369 . S
C486 C495 1.429 . S
C487 C485 1.419 . S
C487 C488 1.363 . S
C487 H490 0.929 . S
C488 C487 1.363 . S
C488 C494 1.428 . S
H489 C485 0.930 . S
H490 C487 0.929 . S
S491 N492 1.613 . S
S491 N493 1.610 . S
N492 S491 1.613 . S
N492 C495 1.350 . S
N493 S491 1.610 . S
N493 C494 1.351 . S
C494 C488 1.428 . S
C494 N493 1.351 . S
C494 C495 1.434 . S
C495 C486 1.429 . S
C495 N492 1.350 . S
C495 C494 1.434 . S
C496 C497 1.369 . S
C496 C498 1.419 . S
C496 H500 0.930 . S
C497 C496 1.369 . S
C497 C506 1.429 . S
C498 C496 1.419 . S
C498 C499 1.363 . S
C498 H501 0.929 . S
C499 C498 1.363 . S
C499 C505 1.428 . S
H500 C496 0.930 . S
H501 C498 0.929 . S
S502 N503 1.613 . S
S502 N504 1.610 . S
N503 S502 1.613 . S
N503 C506 1.350 . S
N504 S502 1.610 . S
N504 C505 1.351 . S
C505 C499 1.428 . S
C505 N504 1.351 . S
C505 C506 1.434 . S
C506 C497 1.429 . S
C506 N503 1.350 . S
C506 C505 1.434 . S
C507 C508 1.369 . S
C507 C509 1.419 . S
C507 H511 0.930 . S
C508 C507 1.369 . S
C508 C517 1.429 . S
C509 C507 1.419 . S
C509 C510 1.363 . S
C509 H512 0.929 . S
C510 C509 1.363 . S
C510 C516 1.428 . S
H511 C507 0.930 . S
H512 C509 0.929 . S
S513 N514 1.613 . S
S513 N515 1.610 . S
N514 S513 1.613 . S
N514 C517 1.350 . S
N515 S513 1.610 . S
N515 C516 1.351 . S
C516 C510 1.428 . S
C516 N515 1.351 . S
C516 C517 1.434 . S
C517 C508 1.429 . S
C517 N514 1.350 . S
C517 C516 1.434 . S
C518 C519 1.369 . S
C518 C520 1.419 . S
C518 H522 0.930 . S
C519 C518 1.369 . S
C519 C528 1.429 . S
C520 C518 1.419 . S
C520 C521 1.363 . S
C520 H523 0.929 . S
C521 C520 1.363 . S
C521 C527 1.428 . S
H522 C518 0.930 . S
H523 C520 0.929 . S
S524 N525 1.613 . S
S524 N526 1.610 . S
N525 S524 1.613 . S
N525 C528 1.350 . S
N526 S524 1.610 . S
N526 C527 1.351 . S
C527 C521 1.428 . S
C527 N526 1.351 . S
C527 C528 1.434 . S
C528 C519 1.429 . S
C528 N525 1.350 . S
C528 C527 1.434 . S
C529 C530 1.369 . S
C529 C531 1.419 . S
C529 H533 0.930 . S
C530 C529 1.369 . S
C530 C539 1.429 . S
C531 C529 1.419 . S
C531 C532 1.363 . S
C531 H534 0.929 . S
C532 C531 1.363 . S
C532 C538 1.428 . S
H533 C529 0.930 . S
H534 C531 0.929 . S
S535 N536 1.613 . S
S535 N537 1.610 . S
N536 S535 1.613 . S
N536 C539 1.350 1_545 S
N537 S535 1.610 . S
N537 C538 1.351 1_545 S
C538 C532 1.428 . S
C538 N537 1.351 1_565 S
C538 C539 1.434 . S
C539 C530 1.429 . S
C539 N536 1.350 1_565 S
C539 C538 1.434 . S
C411 C303 1.669 . S
C409 C211 1.646 . S
C420 C31 1.559 . S
C422 C398 1.663 . S
C431 C91 1.682 . S
C433 C314 1.670 . S
C442 C151 1.625 . S
C444 C387 1.666 . S
C455 C298 1.437 . S
C453 C20 1.522 . S
C466 C391 1.631 . S
C464 C61 1.576 . S
C475 C121 1.649 . S
C477 C307 1.671 . S
C486 C200 1.483 . S
C488 C382 1.408 . S
C499 C393 1.410 . S
C497 C80 1.499 . S
C510 C309 1.430 . S
C508 C140 1.551 . S
C521 C380 1.631 . S
C519 C181 1.535 . S
C530 C1 1.585 . S
C532 C296 1.668 . S
