# Generated by pormake.
# Topology anh, (6,3)-cn, num edge types: 1
# Building blocks:
#     Node 0, Type 0, BuildingBlock: CUWYAW_clean_sbu_0, # of connection points: 6
#     Node 1, Type 0, BuildingBlock: CUWYAW_clean_sbu_0, # of connection points: 6
#     Node 2, Type 0, BuildingBlock: CUWYAW_clean_sbu_0, # of connection points: 6
#     Node 3, Type 1, BuildingBlock: MIDCAF_clean_linker_0, # of connection points: 3
#     Node 4, Type 1, BuildingBlock: MIDCAF_clean_linker_0, # of connection points: 3
#     Node 5, Type 1, BuildingBlock: MIDCAF_clean_linker_0, # of connection points: 3
#     Node 6, Type 1, BuildingBlock: MIDCAF_clean_linker_0, # of connection points: 3
#     Node 7, Type 1, BuildingBlock: MIDCAF_clean_linker_0, # of connection points: 3
#     Node 8, Type 1, BuildingBlock: MIDCAF_clean_linker_0, # of connection points: 3
#     Edge 9, Type (0, 1), BuildingBlock: MIFKUJ_clean_linker_0, # of connection points: 2
#     Edge 10, Type (0, 1), BuildingBlock: MIFKUJ_clean_linker_0, # of connection points: 2
#     Edge 11, Type (0, 1), BuildingBlock: MIFKUJ_clean_linker_0, # of connection points: 2
#     Edge 12, Type (0, 1), BuildingBlock: MIFKUJ_clean_linker_0, # of connection points: 2
#     Edge 13, Type (0, 1), BuildingBlock: MIFKUJ_clean_linker_0, # of connection points: 2
#     Edge 14, Type (0, 1), BuildingBlock: MIFKUJ_clean_linker_0, # of connection points: 2
#     Edge 15, Type (0, 1), BuildingBlock: MIFKUJ_clean_linker_0, # of connection points: 2
#     Edge 16, Type (0, 1), BuildingBlock: MIFKUJ_clean_linker_0, # of connection points: 2
#     Edge 17, Type (0, 1), BuildingBlock: MIFKUJ_clean_linker_0, # of connection points: 2
#     Edge 18, Type (0, 1), BuildingBlock: MIFKUJ_clean_linker_0, # of connection points: 2
#     Edge 19, Type (0, 1), BuildingBlock: MIFKUJ_clean_linker_0, # of connection points: 2
#     Edge 20, Type (0, 1), BuildingBlock: MIFKUJ_clean_linker_0, # of connection points: 2
#     Edge 21, Type (0, 1), BuildingBlock: MIFKUJ_clean_linker_0, # of connection points: 2
#     Edge 22, Type (0, 1), BuildingBlock: MIFKUJ_clean_linker_0, # of connection points: 2
#     Edge 23, Type (0, 1), BuildingBlock: MIFKUJ_clean_linker_0, # of connection points: 2
#     Edge 24, Type (0, 1), BuildingBlock: MIFKUJ_clean_linker_0, # of connection points: 2
#     Edge 25, Type (0, 1), BuildingBlock: MIFKUJ_clean_linker_0, # of connection points: 2
#     Edge 26, Type (0, 1), BuildingBlock: MIFKUJ_clean_linker_0, # of connection points: 2
# Relax obj value: 0.206
# Max RMSD: 0.180
# Mean RMSD: 0.150
data_MOF--net-anh--node1-CUWYAW_clean_sbu_0--node2-MIDCAF_clean_linker_0--edge1-MIFKUJ_clean_linker_0
_symmetry_space_group_name_H-M    P1
_symmetry_Int_Tables_number       1
_symmetry_cell_setting            triclinic
loop_
_symmetry_equiv_pos_as_xyz
'x, y, z'
_cell_length_a     47.318157
_cell_length_b     47.032879
_cell_length_c     82.3576
_cell_angle_alpha  89.897372
_cell_angle_beta   89.88977
_cell_angle_gamma 119.70171
loop_
_atom_site_label
_atom_site_type_symbol
_atom_site_fract_x
_atom_site_fract_y
_atom_site_fract_z
_atom_type_partial_charge
C0 C 1.01646 0.46673 0.15321 0.0
Eu1 Eu 0.04669 0.52515 0.16497 0.0
C2 C 0.98189 0.44458 0.15119 0.0
C3 C 0.96091 0.43683 0.16454 0.0
C4 C 0.92778 0.42258 0.16209 0.0
C5 C 0.91528 0.41616 0.14628 0.0
C6 C 0.93599 0.42245 0.13296 0.0
C7 C 0.96927 0.43658 0.13542 0.0
C8 C 0.05557 0.53972 0.19747 0.0
C9 C 0.99546 0.55576 0.16468 0.0
C10 C 0.10933 0.64969 0.18144 0.0
Eu11 Eu 0.07341 0.59185 0.1706 0.0
C12 C 0.14286 0.66856 0.17607 0.0
C13 C 0.15057 0.66383 0.16015 0.0
C14 C 0.1827 0.67674 0.1554 0.0
C15 C 0.20759 0.69444 0.16649 0.0
C16 C 0.19982 0.6981 0.1826 0.0
C17 C 0.16755 0.68532 0.18735 0.0
C18 C 0.06637 0.57797 0.13874 0.0
C19 C 0.12517 0.56221 0.1638 0.0
O20 O 1.0275 0.49308 0.14425 0.0
O21 O 1.02724 0.47286 0.16813 0.0
O22 O 0.06247 0.51946 0.19023 0.0
O23 O 0.04368 0.5512 0.18735 0.0
O24 O 0.9997 0.53024 0.1614 0.0
O25 O 1.02082 0.58283 0.17025 0.0
O26 O 0.10346 0.62384 0.18996 0.0
O27 O 0.08778 0.6435 0.17009 0.0
O28 O 0.05992 0.5992 0.14516 0.0
O29 O 0.07742 0.56652 0.14913 0.0
O30 O 0.12165 0.58728 0.16912 0.0
O31 O 0.09841 0.53495 0.16004 0.0
H32 H 0.97005 0.44299 0.17683 0.0
H33 H 0.91193 0.41674 0.17257 0.0
H34 H 0.9265 0.41713 0.1207 0.0
H35 H 0.98529 0.44289 0.12498 0.0
H36 H 0.13175 0.64952 0.15141 0.0
H37 H 0.18813 0.67349 0.14298 0.0
H38 H 0.21868 0.71188 0.19138 0.0
H39 H 0.16188 0.68799 0.19981 0.0
C40 C 0.54165 0.09912 0.49327 0.0
Eu41 Eu 0.56905 0.06516 0.50007 0.0
C42 C 0.55761 0.13273 0.48742 0.0
C43 C 0.56282 0.15761 0.49835 0.0
C44 C 0.58205 0.19 0.49382 0.0
C45 C 0.59584 0.19778 0.47826 0.0
C46 C 0.59114 0.17327 0.46737 0.0
C47 C 0.57205 0.14072 0.47188 0.0
C48 C 0.57559 0.05147 0.53169 0.0
C49 C 0.64985 0.11696 0.49783 0.0
C50 C 0.63246 1.00347 0.5115 0.0
Eu51 Eu 0.60853 0.03947 0.50283 0.0
C52 C 0.62006 0.97024 0.50576 0.0
C53 C 0.61212 0.96323 0.48924 0.0
C54 C 0.59478 0.93109 0.48405 0.0
C55 C 0.58473 0.9057 0.49532 0.0
C56 C 0.59221 0.91256 0.51185 0.0
C57 C 0.60991 0.94479 0.51705 0.0
C58 C 0.60049 0.04983 0.47135 0.0
C59 C 0.52723 0.98707 0.49732 0.0
O60 O 0.54178 0.07774 0.48324 0.0
O61 O 0.54928 0.09563 0.50809 0.0
O62 O 0.54798 0.04125 0.52447 0.0
O63 O 0.59862 0.06675 0.52173 0.0
O64 O 0.62034 0.11122 0.49323 0.0
O65 O 0.65112 0.09227 0.50477 0.0
O66 O 0.61181 1.0071 0.52061 0.0
O67 O 0.64629 0.02627 0.50043 0.0
O68 O 0.62835 0.05651 0.47735 0.0
O69 O 0.5785 0.03714 0.48187 0.0
O70 O 0.55647 0.99058 0.50101 0.0
O71 O 0.52575 1.01408 0.49534 0.0
H72 H 0.55236 0.15198 0.51045 0.0
H73 H 0.58502 0.20904 0.5022 0.0
H74 H 0.60184 0.1795 0.45541 0.0
H75 H 0.56898 0.12201 0.46328 0.0
H76 H 0.61862 0.98251 0.48034 0.0
H77 H 0.58946 0.92598 0.47124 0.0
H78 H 0.58516 0.89298 0.52063 0.0
H79 H 0.61496 0.94988 0.52987 0.0
C80 C 0.64257 0.57719 0.81844 0.0
Eu81 Eu 0.58695 0.54334 0.83247 0.0
C82 C 0.66829 0.56952 0.81574 0.0
C83 C 0.68129 0.56089 0.82889 0.0
C84 C 0.69813 0.54431 0.82608 0.0
C85 C 0.7018 0.53605 0.81017 0.0
C86 C 0.69023 0.54598 0.79703 0.0
C87 C 0.67374 0.56296 0.7998 0.0
C88 C 0.5741 0.53118 0.8649 0.0
C89 C 0.55705 0.46191 0.8308 0.0
C90 C 0.45658 0.47517 0.84199 0.0
Eu91 Eu 0.51689 0.50155 0.83414 0.0
C92 C 0.43736 0.4915 0.84169 0.0
C93 C 0.4125 0.48126 0.83021 0.0
C94 C 0.39997 0.50144 0.82629 0.0
C95 C 0.41153 0.53168 0.83408 0.0
C96 C 0.43536 0.5414 0.84607 0.0
C97 C 0.44848 0.52152 0.84978 0.0
C98 C 0.54099 0.51206 0.80402 0.0
C99 C 0.54684 0.58329 0.83135 0.0
O100 O 0.61593 0.55734 0.81069 0.0
O101 O 0.63731 0.5826 0.83345 0.0
O102 O 0.60304 0.54764 0.8587 0.0
O103 O 0.55312 0.52031 0.85365 0.0
O104 O 0.58295 0.49171 0.82849 0.0
O105 O 0.52898 0.45979 0.83506 0.0
O106 O 0.47967 0.48557 0.85288 0.0
O107 O 0.46622 0.47183 0.8276 0.0
O108 O 0.51969 0.48314 0.80916 0.0
O109 O 0.54823 0.53321 0.81495 0.0
O110 O 0.52039 0.55337 0.83068 0.0
O111 O 0.57555 0.58545 0.83345 0.0
H112 H 0.67703 0.56529 0.84132 0.0
H113 H 0.70789 0.53757 0.83635 0.0
H114 H 0.6931 0.53961 0.78476 0.0
H115 H 0.66298 0.5687 0.78963 0.0
H116 H 0.40409 0.45853 0.82364 0.0
H117 H 0.38105 0.49329 0.81722 0.0
H118 H 0.44399 0.56441 0.8524 0.0
H119 H 0.46819 0.53034 0.85846 0.0
C120 C 0.44103 1.00324 0.21506 0.0
C121 C 0.44262 0.99617 0.19864 0.0
C122 C 0.47244 1.01155 0.19042 0.0
C123 C 0.50084 0.03014 0.19904 0.0
H124 H 0.59575 0.0761 0.19261 0.0
H125 H 0.63116 0.12349 0.17628 0.0
H126 H 0.67978 0.17658 0.21969 0.0
H127 H 0.64328 0.12963 0.23625 0.0
H128 H 0.59966 0.11411 0.2683 0.0
H129 H 0.60034 0.11763 0.29774 0.0
H130 H 0.51933 1.01857 0.3004 0.0
H131 H 0.51762 1.01595 0.2708 0.0
H132 H 0.46797 0.02474 0.23669 0.0
H133 H 0.41801 0.99166 0.22151 0.0
H134 H 0.47425 1.00621 0.17779 0.0
H135 H 0.52372 0.03966 0.19256 0.0
N136 N 0.55837 0.06314 0.21712 0.0
N137 N 0.58702 0.07864 0.24147 0.0
N138 N 0.5299 0.04784 0.24168 0.0
C139 C 0.58695 0.0782 0.22505 0.0
C140 C 0.55855 0.06296 0.2498 0.0
C141 C 0.5299 0.04822 0.22523 0.0
C142 C 0.61608 0.09977 0.21571 0.0
C143 C 0.6147 0.09748 0.19867 0.0
C144 C 0.63493 0.12452 0.18929 0.0
C145 C 0.65711 0.15367 0.1969 0.0
C146 C 0.6619 0.15437 0.21373 0.0
C147 C 0.6414 0.12741 0.22315 0.0
C148 C 0.55874 0.06468 0.26746 0.0
C149 C 0.58203 0.09316 0.27523 0.0
C150 C 0.58245 0.0951 0.29206 0.0
C151 C 0.56005 0.0683 0.30139 0.0
C152 C 0.53656 0.03983 0.29353 0.0
C153 C 0.5357 0.03818 0.27665 0.0
C154 C 0.49966 0.03354 0.21595 0.0
C155 C 0.46954 1.0216 0.22376 0.0
C156 C 0.62841 0.47804 0.54821 0.0
C157 C 0.63937 0.4837 0.53212 0.0
C158 C 0.66092 0.51534 0.52663 0.0
C159 C 0.6704 0.54158 0.53705 0.0
H160 H 0.6785 0.62652 0.53055 0.0
H161 H 0.66093 0.65745 0.51388 0.0
H162 H 0.64059 0.69629 0.55698 0.0
H163 H 0.65772 0.66513 0.57394 0.0
H164 H 0.65471 0.62775 0.609 0.0
H165 H 0.63463 0.61657 0.63687 0.0
H166 H 0.59642 0.51301 0.62902 0.0
H167 H 0.61718 0.52411 0.60146 0.0
H168 H 0.62831 0.49942 0.57092 0.0
H169 H 0.61227 0.45343 0.5526 0.0
H170 H 0.66972 0.51975 0.51421 0.0
H171 H 0.68614 0.56605 0.5324 0.0
N172 N 0.67044 0.59234 0.5553 0.0
N173 N 0.65862 0.61176 0.57897 0.0
N174 N 0.65322 0.55952 0.57848 0.0
C175 C 0.66843 0.61637 0.56322 0.0
C176 C 0.65135 0.58342 0.58668 0.0
C177 C 0.66297 0.56398 0.56282 0.0
C178 C 0.66868 0.64276 0.55361 0.0
C179 C 0.67136 0.64246 0.53657 0.0
C180 C 0.66136 0.66009 0.52696 0.0
C181 C 0.64897 0.67833 0.53432 0.0
C182 C 0.64969 0.68168 0.55123 0.0
C183 C 0.65965 0.66405 0.56087 0.0
C184 C 0.63811 0.57692 0.60321 0.0
C185 C 0.64194 0.60263 0.61325 0.0
C186 C 0.63022 0.59621 0.62912 0.0
C187 C 0.61425 0.56396 0.63509 0.0
C188 C 0.60926 0.53816 0.62481 0.0
C189 C 0.6212 0.54458 0.60904 0.0
C190 C 0.65847 0.53627 0.55304 0.0
C191 C 0.63806 0.50424 0.55869 0.0
C192 C 0.92776 0.47073 0.88523 0.0
C193 C 0.92681 0.46491 0.86851 0.0
C194 C 0.94515 0.4522 0.86168 0.0
C195 C 0.96532 0.44624 0.87148 0.0
H196 H 0.04424 0.44665 0.86429 0.0
H197 H 0.08989 0.45968 0.84652 0.0
H198 H 0.15529 0.4971 0.8874 0.0
H199 H 0.10961 0.48418 0.90544 0.0
H200 H 0.08251 0.49815 0.93784 0.0
H201 H 0.08965 0.51528 0.96609 0.0
H202 H 0.98546 0.47265 0.97134 0.0
H203 H 0.97833 0.45639 0.94302 0.0
H204 H 0.94995 0.47131 0.90781 0.0
H205 H 0.9135 0.48064 0.89054 0.0
H206 H 0.94413 0.44726 0.84878 0.0
H207 H 0.97998 0.43719 0.8658 0.0
N208 N 1.01859 0.45396 0.8891 0.0
N209 N 0.05008 0.46708 0.91252 0.0
N210 N 0.99779 0.46103 0.91345 0.0
C211 C 0.0464 0.46025 0.89645 0.0
C212 C 1.02553 0.46697 0.92112 0.0
C213 C 0.99429 0.4543 0.89739 0.0
C214 C 0.07344 0.46432 0.88631 0.0
C215 C 0.06827 0.45735 0.86961 0.0
C216 C 0.09426 0.46499 0.85937 0.0
C217 C 0.12564 0.47931 0.86572 0.0
C218 C 0.13095 0.4857 0.8824 0.0
C219 C 0.10492 0.47821 0.89268 0.0
C220 C 1.02986 0.47593 0.93829 0.0
C221 C 0.06114 0.49229 0.94506 0.0
C222 C 0.06524 0.50206 0.96121 0.0
C223 C 0.03811 0.49537 0.97083 0.0
C224 C 1.00683 0.47865 0.96409 0.0
C225 C 1.00275 0.46915 0.94792 0.0
C226 C 0.96777 0.4536 0.88815 0.0
C227 C 0.94826 0.46512 0.89506 0.0
C228 C 0.19344 0.66523 0.45154 0.0
C229 C 0.20582 0.67244 0.46754 0.0
C230 C 0.1851 0.64845 0.47929 0.0
C231 C 0.15474 0.61928 0.47507 0.0
H232 H 0.04455 0.49239 0.48289 0.0
H233 H 0.99412 0.44132 0.49024 0.0
H234 H 0.95121 0.44617 0.44495 0.0
H235 H 0.99908 0.49616 0.43834 0.0
H236 H 0.03629 0.51174 0.40702 0.0
H237 H 1.03317 0.51334 0.37754 0.0
H238 H 0.12325 0.60541 0.37657 0.0
H239 H 0.1261 0.6041 0.40613 0.0
H240 H 0.1574 0.6342 0.43469 0.0
H241 H 0.20628 0.68195 0.44172 0.0
H242 H 0.19236 0.65185 0.4919 0.0
H243 H 0.1406 0.60222 0.48461 0.0
N244 N 0.08594 0.55541 0.4609 0.0
N245 N 0.0591 0.53212 0.43607 0.0
N246 N 0.10874 0.58068 0.43562 0.0
C247 C 0.05905 0.53023 0.45261 0.0
C248 C 0.08326 0.55673 0.42745 0.0
C249 C 0.11143 0.58137 0.45214 0.0
C250 C 1.02745 0.50008 0.45982 0.0
C251 C 1.02414 0.48302 0.47463 0.0
C252 C 0.99466 0.45284 0.47879 0.0
C253 C 0.96663 0.43775 0.46842 0.0
C254 C 0.97038 0.45542 0.45386 0.0
C255 C 0.99915 0.48509 0.44986 0.0
C256 C 0.08152 0.55772 0.40919 0.0
C257 C 0.05553 0.53239 0.40059 0.0
C258 C 0.05383 0.53322 0.38354 0.0
C259 C 0.078 0.55945 0.3744 0.0
C260 C 0.1039 0.58491 0.38302 0.0
C261 C 0.10566 0.58404 0.40009 0.0
C262 C 0.14315 0.61224 0.4588 0.0
C263 C 0.16387 0.63667 0.4474 0.0
C264 C 0.53692 0.12044 0.79122 0.0
C265 C 0.55865 0.14337 0.80263 0.0
C266 C 0.57973 0.13381 0.81032 0.0
C267 C 0.57938 0.10371 0.80654 0.0
H268 H 0.56427 0.97714 0.81846 0.0
H269 H 0.56171 0.92473 0.82573 0.0
H270 H 0.55193 0.89898 0.77503 0.0
H271 H 0.55278 0.94842 0.76816 0.0
H272 H 0.56026 0.98368 0.74033 0.0
H273 H 0.56441 0.98634 0.71084 0.0
H274 H 0.58206 0.08556 0.71188 0.0
H275 H 0.57811 0.08302 0.74151 0.0
H276 H 0.52032 0.07545 0.77802 0.0
H277 H 0.52047 0.1258 0.78452 0.0
H278 H 0.597 0.14979 0.81926 0.0
H279 H 0.59703 0.09874 0.8123 0.0
N280 N 0.56 0.02597 0.79504 0.0
N281 N 0.5645 1.00515 0.76967 0.0
N282 N 0.56445 0.05472 0.77053 0.0
C283 C 0.56141 1.00128 0.78609 0.0
C284 C 0.56612 0.03119 0.76174 0.0
C285 C 0.56152 0.05318 0.78704 0.0
C286 C 0.55873 0.96858 0.79254 0.0
C287 C 0.5611 0.96012 0.80887 0.0
C288 C 0.55986 0.92957 0.81304 0.0
C289 C 0.55608 0.90571 0.80115 0.0
C290 C 0.55386 0.9147 0.78502 0.0
C291 C 0.55488 0.94447 0.78095 0.0
C292 C 0.56883 0.03315 0.74351 0.0
C293 C 0.56509 1.00618 0.73436 0.0
C294 C 0.56727 1.00761 0.71732 0.0
C295 C 0.57354 0.03615 0.70878 0.0
C296 C 0.57754 0.06323 0.71793 0.0
C297 C 0.57506 0.06171 0.735 0.0
C298 C 0.55791 0.08135 0.79484 0.0
C299 C 0.53674 0.0908 0.78743 0.0
C300 C 0.67332 0.57165 0.1219 0.0
C301 C 0.67613 0.55495 0.13561 0.0
C302 C 0.64712 0.53885 0.14528 0.0
C303 C 0.61749 0.53916 0.14125 0.0
H304 H 0.51439 0.56915 0.15062 0.0
H305 H 0.46463 0.57102 0.15795 0.0
H306 H 0.42681 0.53678 0.10995 0.0
H307 H 0.47386 0.53374 0.10327 0.0
H308 H 0.51761 0.55836 0.07311 0.0
H309 H 0.51666 0.55488 0.04364 0.0
H310 H 0.5904 0.52615 0.04534 0.0
H311 H 0.59245 0.53146 0.07473 0.0
H312 H 0.64434 0.58474 0.10697 0.0
H313 H 0.69353 0.58406 0.11358 0.0
H314 H 0.64698 0.5256 0.15605 0.0
H315 H 0.59619 0.52543 0.1488 0.0
N316 N 0.55723 0.55293 0.12811 0.0
N317 N 0.53167 0.54902 0.10287 0.0
N318 N 0.58127 0.54964 0.10335 0.0
C319 C 0.53088 0.55124 0.11937 0.0
C320 C 0.5561 0.54804 0.09474 0.0
C321 C 0.58303 0.5522 0.11987 0.0
C322 C 0.49972 0.55125 0.12613 0.0
C323 C 0.49523 0.56154 0.1417 0.0
C324 C 0.46609 0.56285 0.14588 0.0
C325 C 0.43963 0.55402 0.13479 0.0
C326 C 0.44464 0.54363 0.11944 0.0
C327 C 0.47304 0.54212 0.1154 0.0
C328 C 0.55523 0.54536 0.0765 0.0
C329 C 0.53373 0.55138 0.06721 0.0
C330 C 0.53302 0.54909 0.05014 0.0
C331 C 0.55344 0.54019 0.04166 0.0
C332 C 0.57469 0.53382 0.05106 0.0
C333 C 0.57574 0.53662 0.0681 0.0
C334 C 0.61505 0.55558 0.12727 0.0
C335 C 0.64417 0.57194 0.11795 0.0
H336 H 0.14234 0.53276 0.13957 0.0
H337 H 0.19315 0.53352 0.13413 0.0
H338 H 0.23566 0.59359 0.17642 0.0
H339 H 0.18538 0.59594 0.18058 0.0
H340 H 0.28358 0.60848 0.1623 0.0
H341 H 0.20394 0.49187 0.16539 0.0
H342 H 0.15432 0.44092 0.15761 0.0
H343 H 0.18719 0.45454 0.10809 0.0
H344 H 0.23691 0.50557 0.11558 0.0
H345 H 0.42155 0.57957 0.16206 0.0
H346 H 0.37156 0.58111 0.16748 0.0
H347 H 0.33268 0.53473 0.12163 0.0
H348 H 0.3808 0.53097 0.11662 0.0
H349 H 0.28358 0.51248 0.1379 0.0
H350 H 0.36488 0.62774 0.13583 0.0
H351 H 0.41505 0.67734 0.14436 0.0
H352 H 0.37883 0.66408 0.19325 0.0
H353 H 0.32861 0.61428 0.18502 0.0
C354 C 0.16246 0.54637 0.14778 0.0
C355 C 0.1586 0.56415 0.16067 0.0
C356 C 0.19214 0.54615 0.14485 0.0
C357 C 0.21974 0.56208 0.15519 0.0
C358 C 0.21592 0.58042 0.16798 0.0
C359 C 0.18651 0.58178 0.17051 0.0
C360 C 0.25207 0.5604 0.1526 0.0
C361 C 0.28282 0.5869 0.15722 0.0
C362 C 0.25365 0.53326 0.14552 0.0
C363 C 0.22389 0.50264 0.14103 0.0
C364 C 0.20048 0.484 0.15285 0.0
C365 C 0.17238 0.45512 0.14848 0.0
C366 C 0.16756 0.44456 0.13236 0.0
C367 C 0.19092 0.46277 0.12057 0.0
C368 C 0.21908 0.49162 0.12487 0.0
C369 C 0.40267 0.56946 0.15297 0.0
C370 C 0.4075 0.55549 0.13861 0.0
C371 C 0.37341 0.57084 0.15606 0.0
C372 C 0.34698 0.55889 0.1449 0.0
C373 C 0.35159 0.54458 0.13075 0.0
C374 C 0.38046 0.54282 0.12775 0.0
C375 C 0.31472 0.56033 0.14778 0.0
C376 C 0.28409 0.53388 0.14311 0.0
C377 C 0.31322 0.58726 0.15497 0.0
C378 C 0.34322 0.6172 0.15985 0.0
C379 C 0.36773 0.63537 0.1484 0.0
C380 C 0.39614 0.6635 0.15318 0.0
C381 C 0.40016 0.6738 0.16934 0.0
C382 C 0.37572 0.65606 0.18075 0.0
C383 C 0.34727 0.62791 0.17603 0.0
H384 H 0.42219 0.69557 0.17302 0.0
H385 H 0.14576 0.42224 0.129 0.0
H386 H 0.6618 0.17214 0.47865 0.0
H387 H 0.71293 0.22364 0.47372 0.0
H388 H 0.76375 0.19045 0.5048 0.0
H389 H 0.71285 0.13911 0.50966 0.0
H390 H 0.79017 0.25247 0.51084 0.0
H391 H 0.77061 0.19888 0.45911 0.0
H392 H 0.74026 0.17253 0.43414 0.0
H393 H 0.73518 0.25881 0.42227 0.0
H394 H 0.76526 0.28559 0.44726 0.0
H395 H 0.95243 0.38663 0.49149 0.0
H396 H 0.90241 0.33475 0.49624 0.0
H397 H 0.85418 0.35898 0.45902 0.0
H398 H 0.90362 0.41011 0.45409 0.0
H399 H 0.82613 0.30038 0.45604 0.0
H400 H 0.84177 0.35353 0.5075 0.0
H401 H 0.8697 0.38077 0.53285 0.0
H402 H 0.87922 0.29738 0.54569 0.0
H403 H 0.85156 0.26977 0.52034 0.0
C404 C 0.68372 0.17554 0.48452 0.0
C405 C 0.68193 0.15028 0.49473 0.0
C406 C 0.71367 0.20551 0.48153 0.0
C407 C 0.74388 0.21237 0.48862 0.0
C408 C 0.74187 0.18719 0.49895 0.0
C409 C 0.7121 0.15716 0.50176 0.0
C410 C 0.77694 0.24518 0.48562 0.0
C411 C 0.7979 0.26243 0.49873 0.0
C412 C 0.7883 0.26025 0.47005 0.0
C413 C 0.7699 0.2441 0.45514 0.0
C414 C 0.76279 0.21213 0.45124 0.0
C415 C 0.7457 0.19715 0.43707 0.0
C416 C 0.73577 0.21397 0.42664 0.0
C417 C 0.74288 0.24581 0.43036 0.0
C418 C 0.75998 0.26091 0.44452 0.0
C419 C 0.93138 0.38151 0.48426 0.0
C420 C 0.9341 0.40447 0.47218 0.0
C421 C 0.90181 0.35104 0.48715 0.0
C422 C 0.87244 0.34132 0.47835 0.0
C423 C 0.87525 0.36416 0.46627 0.0
C424 C 0.90467 0.39442 0.46336 0.0
C425 C 0.83947 0.30812 0.48132 0.0
C426 C 0.81851 0.29066 0.46818 0.0
C427 C 0.82782 0.29309 0.49691 0.0
C428 C 0.84498 0.30979 0.51195 0.0
C429 C 0.85007 0.34114 0.51568 0.0
C430 C 0.86579 0.35661 0.53005 0.0
C431 C 0.87633 0.34086 0.54085 0.0
C432 C 0.87112 0.30958 0.5373 0.0
C433 C 0.85541 0.294 0.52294 0.0
H434 H 0.88846 0.35286 0.55198 0.0
H435 H 0.72267 0.20235 0.41564 0.0
H436 H 0.58751 0.64543 0.84377 0.0
H437 H 0.58853 0.6975 0.83891 0.0
H438 H 0.50694 0.64887 0.80671 0.0
H439 H 0.50492 0.59616 0.81216 0.0
H440 H 0.56108 0.71439 0.79413 0.0
H441 H 0.49297 0.67021 0.84123 0.0
H442 H 0.47974 0.64714 0.86889 0.0
H443 H 0.56091 0.73441 0.88778 0.0
H444 H 0.57504 0.75775 0.86015 0.0
H445 H 0.53041 0.84771 0.78246 0.0
H446 H 0.52941 0.7966 0.78725 0.0
H447 H 0.57575 0.8318 0.83346 0.0
H448 H 0.57681 0.8839 0.82874 0.0
H449 H 0.54096 0.77259 0.83882 0.0
H450 H 0.61251 0.81691 0.79365 0.0
H451 H 0.63215 0.84089 0.76649 0.0
H452 H 0.55284 0.75651 0.7444 0.0
H453 H 0.53255 0.73214 0.77145 0.0
C454 C 0.56934 0.6454 0.83579 0.0
C455 C 0.5457 0.61547 0.82872 0.0
C456 C 0.57007 0.67573 0.83291 0.0
C457 C 0.54787 0.67832 0.82234 0.0
C458 C 0.52459 0.64857 0.81495 0.0
C459 C 0.52323 0.61792 0.81823 0.0
C460 C 0.54872 0.71154 0.81939 0.0
C461 C 0.55612 0.7267 0.80392 0.0
C462 C 0.54376 0.72942 0.83199 0.0
C463 C 0.53525 0.71559 0.8486 0.0
C464 C 0.5082 0.68436 0.85126 0.0
C465 C 0.5005 0.67125 0.86694 0.0
C466 C 0.51952 0.68927 0.88009 0.0
C467 C 0.54624 0.72046 0.87758 0.0
C468 C 0.5541 0.73365 0.86191 0.0
C469 C 0.54126 0.84568 0.79361 0.0
C470 C 0.55453 0.87208 0.8049 0.0
C471 C 0.54067 0.81543 0.79638 0.0
C472 C 0.55347 0.80907 0.81059 0.0
C473 C 0.56584 0.83487 0.82219 0.0
C474 C 0.56641 0.86535 0.81943 0.0
C475 C 0.55309 0.77579 0.8134 0.0
C476 C 0.54589 0.76053 0.82891 0.0
C477 C 0.55903 0.75817 0.80087 0.0
C478 C 0.57079 0.77289 0.78459 0.0
C479 C 0.5991 0.8036 0.78301 0.0
C480 C 0.61039 0.81723 0.76763 0.0
C481 C 0.59369 0.80029 0.75373 0.0
C482 C 0.56571 0.76964 0.75518 0.0
C483 C 0.55432 0.75589 0.77053 0.0
H484 H 0.60248 0.81087 0.74184 0.0
H485 H 0.5135 0.6791 0.89222 0.0
H486 H 0.98413 0.60475 0.15275 0.0
H487 H 0.93367 0.60424 0.14671 0.0
H488 H 0.8792 0.50531 0.16483 0.0
H489 H 0.9303 0.50476 0.16871 0.0
H490 H 0.83835 0.50336 0.14933 0.0
H491 H 0.89647 0.60186 0.18232 0.0
H492 H 0.94189 0.65638 0.18959 0.0
H493 H 0.93627 0.69363 0.14277 0.0
H494 H 0.89088 0.63933 0.13524 0.0
H495 H 0.68832 0.51168 0.15498 0.0
H496 H 0.73909 0.51117 0.16002 0.0
H497 H 0.79084 0.59585 0.12944 0.0
H498 H 0.74094 0.59753 0.125 0.0
H499 H 0.83144 0.60482 0.15126 0.0
H500 H 0.76764 0.50505 0.12072 0.0
H501 H 0.72014 0.45062 0.11554 0.0
H502 H 0.73478 0.41576 0.16123 0.0
H503 H 0.78212 0.47007 0.16675 0.0
C504 C 0.96147 0.58273 0.15552 0.0
C505 C 0.96248 0.55496 0.16153 0.0
C506 C 0.93163 0.58261 0.15236 0.0
C507 C 0.90034 0.55536 0.15594 0.0
C508 C 0.90158 0.52738 0.16183 0.0
C509 C 0.93152 0.52701 0.16425 0.0
C510 C 0.86707 0.55545 0.1533 0.0
C511 C 0.83751 0.52589 0.15018 0.0
C512 C 0.86338 0.58406 0.15371 0.0
C513 C 0.89063 0.61653 0.15818 0.0
C514 C 0.90505 0.62169 0.17358 0.0
C515 C 0.93073 0.65253 0.17774 0.0
C516 C 0.94203 0.67841 0.16663 0.0
C517 C 0.92755 0.67355 0.15135 0.0
C518 C 0.90182 0.64279 0.14714 0.0
C519 C 0.71028 0.53051 0.14928 0.0
C520 C 0.70869 0.55442 0.13926 0.0
C521 C 0.74001 0.52991 0.15205 0.0
C522 C 0.77032 0.55304 0.14494 0.0
C523 C 0.76883 0.57719 0.13522 0.0
C524 C 0.73927 0.57786 0.13248 0.0
C525 C 0.80325 0.55287 0.1477 0.0
C526 C 0.83262 0.5824 0.15067 0.0
C527 C 0.80656 0.52421 0.14756 0.0
C528 C 0.77819 0.49166 0.14421 0.0
C529 C 0.76059 0.48581 0.12969 0.0
C530 C 0.73372 0.45498 0.1267 0.0
C531 C 0.7244 0.42978 0.13807 0.0
C532 C 0.74199 0.43531 0.15245 0.0
C533 C 0.76884 0.46609 0.15551 0.0
H534 H 0.70359 0.40594 0.13573 0.0
H535 H 0.96195 0.70225 0.16986 0.0
H536 H 0.48398 0.94177 0.51997 0.0
H537 H 0.43138 0.89244 0.51584 0.0
H538 H 0.4446 0.90505 0.46404 0.0
H539 H 0.49606 0.95617 0.46841 0.0
H540 H 0.38652 0.87717 0.46518 0.0
H541 H 0.44683 0.83664 0.49553 0.0
H542 H 0.47944 0.83575 0.5187 0.0
H543 H 0.4029 0.82087 0.55163 0.0
H544 H 0.36982 0.82171 0.5287 0.0
H545 H 0.25738 0.71481 0.44634 0.0
H546 H 0.30792 0.76435 0.45139 0.0
H547 H 0.28631 0.7558 0.50245 0.0
H548 H 0.23467 0.70525 0.49748 0.0
H549 H 0.34764 0.78142 0.50185 0.0
H550 H 0.2866 0.81941 0.47074 0.0
H551 H 0.25473 0.82098 0.44741 0.0
H552 H 0.33386 0.84048 0.41522 0.0
H553 H 0.36609 0.83878 0.43834 0.0
C554 C 0.47616 0.93386 0.50764 0.0
C555 C 0.49591 0.95333 0.49462 0.0
C556 C 0.44545 0.9047 0.50516 0.0
C557 C 0.43269 0.89221 0.48944 0.0
C558 C 0.45247 0.91226 0.47642 0.0
C559 C 0.48278 0.94194 0.47894 0.0
C560 C 0.39924 0.85951 0.48654 0.0
C561 C 0.37879 0.85633 0.47321 0.0
C562 C 0.38663 0.83099 0.49677 0.0
C563 C 0.406 0.82945 0.51044 0.0
C564 C 0.43698 0.83315 0.50772 0.0
C565 C 0.45555 0.83271 0.5208 0.0
C566 C 0.44332 0.8284 0.53661 0.0
C567 C 0.41236 0.82425 0.53938 0.0
C568 C 0.39364 0.8246 0.52635 0.0
C569 C 0.26213 0.72306 0.45876 0.0
C570 C 0.23945 0.70447 0.47129 0.0
C571 C 0.29216 0.75253 0.46169 0.0
C572 C 0.30223 0.76622 0.47738 0.0
C573 C 0.28031 0.74733 0.49006 0.0
C574 C 0.25001 0.71763 0.48713 0.0
C575 C 0.33525 0.79909 0.48046 0.0
C576 C 0.35555 0.80227 0.4938 0.0
C577 C 0.34784 0.82747 0.47014 0.0
C578 C 0.32861 0.82867 0.45625 0.0
C579 C 0.29712 0.82388 0.45867 0.0
C580 C 0.27901 0.82482 0.44549 0.0
C581 C 0.29223 0.83074 0.42984 0.0
C582 C 0.32364 0.83586 0.42735 0.0
C583 C 0.34185 0.83496 0.44049 0.0
H584 H 0.27816 0.83143 0.41965 0.0
H585 H 0.45782 0.8282 0.54671 0.0
H586 H 0.50615 0.39858 0.82558 0.0
H587 H 0.5065 0.34794 0.82014 0.0
H588 H 0.61091 0.39897 0.82453 0.0
H589 H 0.61056 0.45061 0.82857 0.0
H590 H 0.60396 0.35634 0.80655 0.0
H591 H 0.53851 0.33187 0.85492 0.0
H592 H 0.49342 0.32626 0.87228 0.0
H593 H 0.42403 0.26096 0.8376 0.0
H594 H 0.46872 0.26635 0.82001 0.0
H595 H 0.60938 0.20443 0.81407 0.0
H596 H 0.61002 0.25624 0.8187 0.0
H597 H 0.51034 0.21201 0.80334 0.0
H598 H 0.50919 0.1601 0.79914 0.0
H599 H 0.51529 0.25039 0.82702 0.0
H600 H 0.58398 0.27362 0.77986 0.0
H601 H 0.63074 0.27822 0.76435 0.0
H602 H 0.69649 0.34554 0.79961 0.0
H603 H 0.6501 0.34106 0.81541 0.0
C604 C 0.52941 0.39936 0.82551 0.0
C605 C 0.55828 0.42975 0.82789 0.0
C606 C 0.5296 0.3695 0.82259 0.0
C607 C 0.55862 0.36747 0.8225 0.0
C608 C 0.58765 0.39814 0.8246 0.0
C609 C 0.58751 0.42831 0.82707 0.0
C610 C 0.55881 0.33431 0.81994 0.0
C611 C 0.58457 0.33354 0.81141 0.0
C612 C 0.53378 0.30292 0.82563 0.0
C613 C 0.50693 0.2998 0.8361 0.0
C614 C 0.51363 0.31646 0.85098 0.0
C615 C 0.48815 0.31329 0.86086 0.0
C616 C 0.45589 0.29335 0.85602 0.0
C617 C 0.44903 0.27644 0.84132 0.0
C618 C 0.47441 0.27951 0.8314 0.0
C619 C 0.5873 0.20521 0.8117 0.0
C620 C 0.55929 0.17661 0.80599 0.0
C621 C 0.58783 0.23567 0.81422 0.0
C622 C 0.56038 0.23964 0.81122 0.0
C623 C 0.53228 0.21098 0.80581 0.0
C624 C 0.53178 0.18066 0.80321 0.0
C625 C 0.56048 0.27274 0.81387 0.0
C626 C 0.53469 0.27337 0.82231 0.0
C627 C 0.58576 0.304 0.8084 0.0
C628 C 0.61358 0.30675 0.79889 0.0
C629 C 0.60841 0.28924 0.78435 0.0
C630 C 0.63484 0.29185 0.7755 0.0
C631 C 0.66656 0.31208 0.78101 0.0
C632 C 0.67192 0.32983 0.79536 0.0
C633 C 0.64557 0.32729 0.80426 0.0
H634 H 0.68699 0.31406 0.77415 0.0
H635 H 0.43621 0.29093 0.86369 0.0
H636 H 0.61356 0.8849 0.47437 0.0
H637 H 0.60516 0.82997 0.4737 0.0
H638 H 0.51843 0.79604 0.50307 0.0
H639 H 0.52849 0.85229 0.50463 0.0
H640 H 0.56409 0.79207 0.51845 0.0
H641 H 0.51965 0.76009 0.46474 0.0
H642 H 0.51813 0.77123 0.43559 0.0
H643 H 0.61436 0.78527 0.4294 0.0
H644 H 0.61669 0.77473 0.45855 0.0
H645 H 0.58651 0.6625 0.53814 0.0
H646 H 0.55829 0.68704 0.52417 0.0
H647 H 0.64388 0.74516 0.49488 0.0
H648 H 0.67199 0.71995 0.50864 0.0
H649 H 0.58625 0.72675 0.47842 0.0
H650 H 0.63872 0.77477 0.52889 0.0
H651 H 0.651 0.77479 0.55797 0.0
H652 H 0.55133 0.74262 0.57006 0.0
H653 H 0.53827 0.74169 0.54099 0.0
C654 C 0.59172 0.86538 0.4799 0.0
C655 C 0.57173 0.8723 0.48969 0.0
C656 C 0.5867 0.83383 0.4794 0.0
C657 C 0.56103 0.80888 0.48828 0.0
C658 C 0.53826 0.81506 0.49611 0.0
C659 C 0.5439 0.84694 0.497 0.0
C660 C 0.56378 0.78034 0.49305 0.0
C661 C 0.56749 0.77677 0.50971 0.0
C662 C 0.57031 0.76204 0.48156 0.0
C663 C 0.5682 0.76635 0.46383 0.0
C664 C 0.54043 0.76542 0.45715 0.0
C665 C 0.53948 0.77174 0.44063 0.0
C666 C 0.5661 0.77888 0.43064 0.0
C667 C 0.5937 0.77959 0.43714 0.0
C668 C 0.59479 0.77331 0.45365 0.0
C669 C 0.59898 0.68015 0.52852 0.0
C670 C 0.63147 0.69036 0.52463 0.0
C671 C 0.58283 0.69375 0.5205 0.0
C672 C 0.59936 0.71803 0.50878 0.0
C673 C 0.63095 0.72632 0.50394 0.0
C674 C 0.64702 0.71234 0.51185 0.0
C675 C 0.58587 0.73846 0.50365 0.0
C676 C 0.58097 0.74087 0.48708 0.0
C677 C 0.57942 0.75676 0.51516 0.0
C678 C 0.58736 0.75759 0.53271 0.0
C679 C 0.61932 0.76732 0.53772 0.0
C680 C 0.62644 0.76756 0.55421 0.0
C681 C 0.60193 0.75857 0.56585 0.0
C682 C 0.57027 0.74945 0.56102 0.0
C683 C 0.56298 0.74902 0.54454 0.0
H684 H 0.60748 0.75879 0.57861 0.0
H685 H 0.56536 0.7839 0.41787 0.0
H686 H 0.69287 0.48054 0.82462 0.0
H687 H 0.73616 0.46714 0.82823 0.0
H688 H 0.79603 0.54232 0.79365 0.0
H689 H 0.75299 0.55593 0.79004 0.0
H690 H 0.80638 0.48709 0.79556 0.0
H691 H 0.79881 0.56775 0.82898 0.0
H692 H 0.77357 0.58978 0.84762 0.0
H693 H 0.75705 0.51544 0.88269 0.0
H694 H 0.78152 0.49251 0.86414 0.0
H695 H 0.9456 0.50378 0.84182 0.0
H696 H 0.91096 0.51771 0.82527 0.0
H697 H 0.82848 0.45498 0.85556 0.0
H698 H 0.86291 0.44165 0.87216 0.0
H699 H 0.84022 0.51786 0.85281 0.0
H700 H 0.83895 0.43181 0.81879 0.0
H701 H 0.86313 0.40791 0.80065 0.0
H702 H 0.8943 0.48925 0.76789 0.0
H703 H 0.87087 0.51395 0.78602 0.0
C704 C 0.71471 0.49304 0.81726 0.0
C705 C 0.72045 0.51971 0.80743 0.0
C706 C 0.7392 0.48543 0.81931 0.0
C707 C 0.7691 0.50465 0.81153 0.0
C708 C 0.77291 0.5277 0.79977 0.0
C709 C 0.74841 0.53533 0.79771 0.0
C710 C 0.7977 0.50516 0.81793 0.0
C711 C 0.81417 0.49409 0.80801 0.0
C712 C 0.8076 0.51501 0.8341 0.0
C713 C 0.79166 0.52813 0.84502 0.0
C714 C 0.78934 0.55576 0.84054 0.0
C715 C 0.77529 0.56851 0.85114 0.0
C716 C 0.76363 0.55396 0.86631 0.0
C717 C 0.76598 0.52662 0.87092 0.0
C718 C 0.77992 0.51374 0.86036 0.0
C719 C 0.91996 0.49291 0.84472 0.0
C720 C 0.90648 0.47201 0.85815 0.0
C721 C 0.90045 0.50074 0.83533 0.0
C722 C 0.86759 0.48728 0.83938 0.0
C723 C 0.85402 0.46557 0.85247 0.0
C724 C 0.87349 0.45809 0.8619 0.0
C725 C 0.84708 0.49709 0.83088 0.0
C726 C 0.8327 0.51118 0.84029 0.0
C727 C 0.83878 0.48947 0.81442 0.0
C728 C 0.85374 0.47502 0.8039 0.0
C729 C 0.85144 0.44486 0.80786 0.0
C730 C 0.8649 0.43111 0.79755 0.0
C731 C 0.88039 0.44713 0.78317 0.0
C732 C 0.88245 0.47694 0.77907 0.0
C733 C 0.86914 0.49085 0.78937 0.0
H734 H 0.89067 0.43637 0.77516 0.0
H735 H 0.75286 0.56394 0.8745 0.0
H736 H 0.2633 0.70399 0.18111 0.0
H737 H 0.31395 0.75608 0.17931 0.0
H738 H 0.27772 0.78266 0.13733 0.0
H739 H 0.22703 0.7314 0.1392 0.0
H740 H 0.35238 0.81708 0.14307 0.0
H741 H 0.24516 0.7954 0.16751 0.0
H742 H 0.1977 0.76817 0.1859 0.0
H743 H 0.26053 0.77621 0.22531 0.0
H744 H 0.30827 0.8037 0.20716 0.0
H745 H 0.41609 0.98635 0.16819 0.0
H746 H 0.38061 0.93265 0.1557 0.0
H747 H 0.3798 0.88524 0.20082 0.0
H748 H 0.41383 0.93778 0.21325 0.0
H749 H 0.32119 0.86344 0.18935 0.0
H750 H 0.42799 0.88996 0.16885 0.0
H751 H 0.47865 0.92101 0.15305 0.0
H752 H 0.42317 0.90428 0.10938 0.0
H753 H 0.37217 0.87347 0.12497 0.0
C754 C 0.26696 0.72014 0.17095 0.0
C755 C 0.24106 0.71451 0.16071 0.0
C756 C 0.2959 0.74966 0.16986 0.0
C757 C 0.29867 0.77303 0.15847 0.0
C758 C 0.27557 0.76463 0.14621 0.0
C759 C 0.24658 0.73524 0.14733 0.0
C760 C 0.31833 0.80743 0.16251 0.0
C761 C 0.34579 0.82748 0.15315 0.0
C762 C 0.30905 0.82051 0.17556 0.0
C763 C 0.28009 0.80091 0.18591 0.0
C764 C 0.24872 0.79084 0.18002 0.0
C765 C 0.22184 0.77574 0.19045 0.0
C766 C 0.22609 0.77042 0.20676 0.0
C767 C 0.25723 0.7802 0.21267 0.0
C768 C 0.28418 0.79556 0.20233 0.0
C769 C 0.40739 0.96432 0.17544 0.0
C770 C 0.41662 0.96599 0.19176 0.0
C771 C 0.38781 0.93393 0.16827 0.0
C772 C 0.37798 0.90539 0.1774 0.0
C773 C 0.38704 0.90721 0.19368 0.0
C774 C 0.40598 0.93723 0.20085 0.0
C775 C 0.35679 0.87305 0.17067 0.0
C776 C 0.32813 0.85333 0.17925 0.0
C777 C 0.36573 0.86036 0.15731 0.0
C778 C 0.39631 0.87992 0.14811 0.0
C779 C 0.4266 0.89333 0.15592 0.0
C780 C 0.45537 0.91076 0.14699 0.0
C781 C 0.45413 0.91474 0.13024 0.0
C782 C 0.42411 0.90129 0.12237 0.0
C783 C 0.39527 0.88386 0.13124 0.0
H784 H 0.47644 0.92815 0.12334 0.0
H785 H 0.20525 0.75869 0.21479 0.0
H786 H 0.56395 0.2179 0.45939 0.0
H787 H 0.56752 0.27066 0.46318 0.0
H788 H 0.65815 0.30502 0.48896 0.0
H789 H 0.65297 0.25087 0.48626 0.0
H790 H 0.61247 0.30339 0.50778 0.0
H791 H 0.65009 0.34083 0.45279 0.0
H792 H 0.6457 0.3327 0.42314 0.0
H793 H 0.55114 0.3244 0.42394 0.0
H794 H 0.55477 0.33194 0.45365 0.0
H795 H 0.67898 0.46803 0.51607 0.0
H796 H 0.6628 0.41777 0.5009 0.0
H797 H 0.56156 0.38773 0.50878 0.0
H798 H 0.57773 0.43809 0.52433 0.0
H799 H 0.59847 0.3821 0.47323 0.0
H800 H 0.56255 0.34652 0.52888 0.0
H801 H 0.56812 0.35392 0.55856 0.0
H802 H 0.66099 0.3586 0.5565 0.0
H803 H 0.65633 0.35202 0.52673 0.0
C804 C 0.58566 0.23745 0.46492 0.0
C805 C 0.60819 0.23094 0.47262 0.0
C806 C 0.5876 0.2675 0.46717 0.0
C807 C 0.61293 0.29139 0.47647 0.0
C808 C 0.63833 0.28652 0.48185 0.0
C809 C 0.63576 0.25601 0.48009 0.0
C810 C 0.60954 0.31818 0.48324 0.0
C811 C 0.60965 0.32074 0.50021 0.0
C812 C 0.60393 0.33939 0.47335 0.0
C813 C 0.60265 0.33681 0.45542 0.0
C814 C 0.62837 0.33727 0.44663 0.0
C815 C 0.62599 0.3327 0.42983 0.0
C816 C 0.59814 0.328 0.42166 0.0
C817 C 0.5727 0.32806 0.43028 0.0
C818 C 0.57493 0.33254 0.44709 0.0
C819 C 0.65334 0.45102 0.5142 0.0
C820 C 0.62943 0.45624 0.52127 0.0
C821 C 0.64419 0.42262 0.5056 0.0
C822 C 0.61117 0.39963 0.50397 0.0
C823 C 0.58711 0.40563 0.51008 0.0
C824 C 0.59629 0.43398 0.51892 0.0
C825 C 0.60298 0.36795 0.49754 0.0
C826 C 0.60053 0.36418 0.4807 0.0
C827 C 0.60648 0.34558 0.50755 0.0
C828 C 0.60924 0.34918 0.52552 0.0
C829 C 0.58435 0.34955 0.53472 0.0
C830 C 0.58731 0.35352 0.55157 0.0
C831 C 0.61494 0.35684 0.55941 0.0
C832 C 0.63963 0.3561 0.55041 0.0
C833 C 0.63683 0.35225 0.53354 0.0
H834 H 0.61717 0.35987 0.57245 0.0
H835 H 0.59629 0.32433 0.40866 0.0
H836 H 0.38317 0.55009 0.85677 0.0
H837 H 0.33491 0.55447 0.85159 0.0
H838 H 0.3513 0.55565 0.79999 0.0
H839 H 0.40014 0.55164 0.80511 0.0
H840 H 0.31223 0.59163 0.82617 0.0
H841 H 0.31142 0.48973 0.79919 0.0
H842 H 0.32603 0.44621 0.8018 0.0
H843 H 0.29202 0.42892 0.85114 0.0
H844 H 0.27713 0.47215 0.84878 0.0
H845 H 0.14011 0.51334 0.83734 0.0
H846 H 0.1891 0.5305 0.82069 0.0
H847 H 0.22087 0.48093 0.85403 0.0
H848 H 0.17196 0.46306 0.87018 0.0
H849 H 0.23316 0.47254 0.82413 0.0
H850 H 0.24254 0.55835 0.85945 0.0
H851 H 0.23025 0.59991 0.87024 0.0
H852 H 0.25217 0.64787 0.82377 0.0
H853 H 0.26398 0.60613 0.81263 0.0
C854 C 0.37781 0.55363 0.84438 0.0
C855 C 0.39461 0.54996 0.83128 0.0
C856 C 0.35022 0.55595 0.84143 0.0
C857 C 0.33979 0.55478 0.82543 0.0
C858 C 0.35939 0.55649 0.81236 0.0
C859 C 0.38712 0.55429 0.8153 0.0
C860 C 0.30553 0.54339 0.82285 0.0
C861 C 0.29462 0.56577 0.82506 0.0
C862 C 0.28327 0.50939 0.82239 0.0
C863 C 0.2936 0.48442 0.82384 0.0
C864 C 0.30735 0.47682 0.81061 0.0
C865 C 0.31545 0.45204 0.81203 0.0
C866 C 0.3101 0.43492 0.82665 0.0
C867 C 0.29635 0.44231 0.83986 0.0
C868 C 0.28802 0.46686 0.83847 0.0
C869 C 0.15738 0.50562 0.84077 0.0
C870 C 0.15295 0.48733 0.85499 0.0
C871 C 0.18508 0.51538 0.83134 0.0
C872 C 0.20821 0.50685 0.8362 0.0
C873 C 0.20294 0.48738 0.85003 0.0
C874 C 0.17538 0.47758 0.85935 0.0
C875 C 0.23977 0.52065 0.82822 0.0
C876 C 0.25029 0.49868 0.82393 0.0
C877 C 0.26197 0.55467 0.8286 0.0
C878 C 0.25328 0.57869 0.83508 0.0
C879 C 0.24412 0.57739 0.85145 0.0
C880 C 0.23738 0.60106 0.85765 0.0
C881 C 0.2402 0.62639 0.84766 0.0
C882 C 0.24976 0.62809 0.83145 0.0
C883 C 0.25637 0.6044 0.82518 0.0
H884 H 0.23516 0.6448 0.8525 0.0
H885 H 0.31654 0.41589 0.82772 0.0
H886 H 0.8784 0.36211 0.12864 0.0
H887 H 0.82037 0.32584 0.13239 0.0
H888 H 0.81553 0.39714 0.16351 0.0
H889 H 0.87392 0.43385 0.15969 0.0
H890 H 0.80425 0.33858 0.17841 0.0
H891 H 0.76817 0.37197 0.13097 0.0
H892 H 0.77329 0.3864 0.10191 0.0
H893 H 0.75314 0.28958 0.08927 0.0
H894 H 0.74847 0.27474 0.11827 0.0
H895 H 0.65951 0.21038 0.20514 0.0
H896 H 0.69009 0.26303 0.19131 0.0
H897 H 0.71741 0.21732 0.15371 0.0
H898 H 0.68712 0.16457 0.16757 0.0
H899 H 0.71075 0.26987 0.14255 0.0
H900 H 0.76135 0.23949 0.184 0.0
H901 H 0.76591 0.21981 0.21108 0.0
H902 H 0.77053 0.3048 0.23294 0.0
H903 H 0.76494 0.32451 0.20597 0.0
C904 C 0.86462 0.37075 0.13554 0.0
C905 C 0.88023 0.40026 0.14409 0.0
C906 C 0.83154 0.3501 0.13766 0.0
C907 C 0.81407 0.35911 0.14821 0.0
C908 C 0.82893 0.39017 0.15527 0.0
C909 C 0.86205 0.41088 0.15314 0.0
C910 C 0.78318 0.33351 0.15462 0.0
C911 C 0.78314 0.32428 0.17082 0.0
C912 C 0.75703 0.31404 0.14425 0.0
C913 C 0.75776 0.3222 0.12679 0.0
C914 C 0.76473 0.35373 0.12199 0.0
C915 C 0.76766 0.36201 0.10553 0.0
C916 C 0.76348 0.3389 0.09375 0.0
C917 C 0.75625 0.30742 0.09841 0.0
C918 C 0.75336 0.29903 0.11486 0.0
C919 C 0.67184 0.21162 0.19384 0.0
C920 C 0.6723 0.18408 0.18763 0.0
C921 C 0.6886 0.24138 0.18585 0.0
C922 C 0.706 0.24365 0.17172 0.0
C923 C 0.70384 0.21561 0.16463 0.0
C924 C 0.68704 0.18578 0.17262 0.0
C925 C 0.73162 0.27551 0.16636 0.0
C926 C 0.73102 0.28531 0.15038 0.0
C927 C 0.75814 0.29474 0.17669 0.0
C928 C 0.76195 0.28314 0.19296 0.0
C929 C 0.76282 0.25377 0.19458 0.0
C930 C 0.76565 0.24261 0.20991 0.0
C931 C 0.76831 0.26094 0.22373 0.0
C932 C 0.76827 0.29053 0.22222 0.0
C933 C 0.76517 0.30166 0.20692 0.0
H934 H 0.77056 0.25231 0.23559 0.0
H935 H 0.76586 0.34541 0.08101 0.0
H936 H 0.09238 0.54607 0.1226 0.0
H937 H 0.08596 0.53124 0.0938 0.0
H938 H 1.02363 0.57312 0.08755 0.0
H939 H 1.0305 0.5887 0.11633 0.0
H940 H 1.00212 0.5068 0.07255 0.0
H941 H 0.09154 0.61801 0.07541 0.0
H942 H 0.14346 0.66168 0.08633 0.0
H943 H 0.19125 0.60861 0.07144 0.0
H944 H 0.13942 0.56432 0.06067 0.0
H945 H 1.00707 0.52238 0.98708 0.0
H946 H 1.01152 0.53605 0.0159 0.0
H947 H 0.08349 0.50592 0.02178 0.0
H948 H 0.07856 0.4913 0.99304 0.0
H949 H 0.09929 0.5656 0.03698 0.0
H950 H 1.01168 0.45544 0.0332 0.0
H951 H 0.96059 0.41144 0.02175 0.0
H952 H 0.90985 0.46074 0.03795 0.0
H953 H 0.96085 0.50542 0.04923 0.0
C954 C 0.07729 0.55207 0.11507 0.0
C955 C 0.06219 0.56881 0.12154 0.0
C956 C 0.07357 0.5435 0.09871 0.0
C957 C 0.05435 0.55116 0.0887 0.0
C958 C 0.03846 0.56701 0.09521 0.0
C959 C 0.04263 0.5761 0.11153 0.0
C960 C 0.05254 0.54434 0.07122 0.0
C961 C 1.02316 0.51986 0.0647 0.0
C962 C 0.08031 0.56097 0.06119 0.0
C963 C 0.11155 0.58768 0.06745 0.0
C964 C 0.11306 0.61551 0.07462 0.0
C965 C 0.14247 0.64039 0.08075 0.0
C966 C 0.17061 0.63786 0.07964 0.0
C967 C 0.16942 0.6105 0.07233 0.0
C968 C 0.14003 0.5855 0.0662 0.0
C969 C 1.02369 0.5185 0.99454 0.0
C970 C 0.04227 0.50553 0.98793 0.0
C971 C 1.02631 0.52646 0.01092 0.0
C972 C 0.04759 0.52164 0.02083 0.0
C973 C 0.06698 0.50976 0.01419 0.0
C974 C 0.06421 0.50156 -0.00217 0.0
C975 C 0.04889 0.52815 0.03829 0.0
C976 C 0.0782 0.55252 0.04482 0.0
C977 C 1.0211 0.51122 0.0483 0.0
C978 C 0.99016 0.48393 0.04196 0.0
C979 C 0.98968 0.45702 0.03424 0.0
C980 C 0.96074 0.43194 0.02778 0.0
C981 C 0.93201 0.43332 0.02909 0.0
C982 C 0.93215 0.45973 0.03693 0.0
C983 C 0.96106 0.48493 0.04337 0.0
H984 H 0.90962 0.4139 0.02407 0.0
H985 H 0.19337 0.65715 0.08441 0.0
H986 H 0.64539 0.08343 0.44778 0.0
H987 H 0.63479 0.09037 0.41931 0.0
H988 H 0.53147 0.03358 0.4282 0.0
H989 H 0.54186 0.02681 0.45666 0.0
H990 H 0.55306 1.01238 0.40131 0.0
H991 H 0.55369 0.11269 0.41711 0.0
H992 H 0.57368 0.16592 0.43061 0.0
H993 H 0.66884 0.19976 0.41033 0.0
H994 H 0.64881 0.14701 0.39607 0.0
H995 H 0.50977 0.04365 0.32326 0.0
H996 H 0.51372 0.04315 0.35286 0.0
H997 H 0.61846 0.09645 0.34936 0.0
H998 H 0.61492 0.0959 0.31987 0.0
H999 H 0.59186 0.11949 0.37381 0.0
H1000 H 0.58569 1.02011 0.35396 0.0
H1001 H 0.56065 0.9693 0.3379 0.0
H1002 H 0.47301 0.93243 0.36616 0.0
H1003 H 0.49737 0.98337 0.3822 0.0
C1004 C 0.62046 0.07255 0.44364 0.0
C1005 C 0.59445 0.05438 0.4543 0.0
C1006 C 0.61444 0.07675 0.42747 0.0
C1007 C 0.58236 0.06262 0.42177 0.0
C1008 C 0.55636 0.0447 0.43244 0.0
C1009 C 0.56235 0.04081 0.44864 0.0
C1010 C 0.57617 0.0647 0.40441 0.0
C1011 C 0.56104 0.03573 0.39533 0.0
C1012 C 0.58709 0.09512 0.39661 0.0
C1013 C 0.59994 0.12594 0.40579 0.0
C1014 C 0.57896 0.13141 0.41568 0.0
C1015 C 0.59024 0.16154 0.42336 0.0
C1016 C 0.62272 0.18606 0.42157 0.0
C1017 C 0.64381 0.18064 0.41183 0.0
C1018 C 0.63242 0.15076 0.40381 0.0
C1019 C 0.53363 0.05511 0.3288 0.0
C1020 C 0.56203 0.06969 0.31925 0.0
C1021 C 0.5358 0.05505 0.34565 0.0
C1022 C 0.56637 0.06972 0.35312 0.0
C1023 C 0.5947 0.08523 0.3437 0.0
C1024 C 0.59258 0.08497 0.32688 0.0
C1025 C 0.56905 0.06727 0.37074 0.0
C1026 C 0.58366 0.09613 0.37982 0.0
C1027 C 0.5576 0.03667 0.37849 0.0
C1028 C 0.54323 1.00566 0.36918 0.0
C1029 C 0.561 1.00126 0.35669 0.0
C1030 C 0.54694 0.97244 0.34758 0.0
C1031 C 0.51523 0.94768 0.35098 0.0
C1032 C 0.49756 0.95166 0.36353 0.0
C1033 C 0.51149 0.98049 0.37263 0.0
H1034 H 0.50437 0.92539 0.34392 0.0
H1035 H 0.63146 0.20933 0.42763 0.0
H1036 H 0.54269 0.47049 0.78174 0.0
H1037 H 0.55894 0.48229 0.75311 0.0
H1038 H 0.58052 0.58198 0.75965 0.0
H1039 H 0.56536 0.57069 0.78845 0.0
H1040 H 0.5269 0.52471 0.73235 0.0
H1041 H 0.63927 0.59769 0.75118 0.0
H1042 H 0.69039 0.61271 0.76562 0.0
H1043 H 0.6924 0.53006 0.74484 0.0
H1044 H 0.64133 0.51469 0.7302 0.0
H1045 H 0.58558 0.59079 0.65361 0.0
H1046 H 0.57381 0.58267 0.68271 0.0
H1047 H 0.60884 0.51362 0.68415 0.0
H1048 H 0.62205 0.52275 0.65533 0.0
H1049 H 0.63452 0.55711 0.70775 0.0
H1050 H 0.52827 0.48762 0.68625 0.0
H1051 H 0.48072 0.47405 0.66902 0.0
H1052 H 0.46608 0.54611 0.69367 0.0
H1053 H 0.51388 0.56046 0.71092 0.0
C1054 C 0.55128 0.495 0.77709 0.0
C1055 C 0.55264 0.51966 0.78717 0.0
C1056 C 0.56065 0.5017 0.76083 0.0
C1057 C 0.57103 0.53298 0.75445 0.0
C1058 C 0.57291 0.55782 0.76452 0.0
C1059 C 0.56418 0.55132 0.78088 0.0
C1060 C 0.57692 0.5386 0.73693 0.0
C1061 C 0.5505 0.53225 0.72692 0.0
C1062 C 0.60741 0.54737 0.72998 0.0
C1063 C 0.63626 0.55474 0.73987 0.0
C1064 C 0.65031 0.5824 0.74994 0.0
C1065 C 0.67947 0.59121 0.75798 0.0
C1066 C 0.69469 0.57243 0.75609 0.0
C1067 C 0.68062 0.54462 0.74627 0.0
C1068 C 0.65161 0.53588 0.73808 0.0
C1069 C 0.59078 0.57394 0.66017 0.0
C1070 C 0.60468 0.55738 0.65227 0.0
C1071 C 0.58378 0.5691 0.67671 0.0
C1072 C 0.59028 0.54738 0.68546 0.0
C1073 C 0.60364 0.53043 0.67754 0.0
C1074 C 0.61084 0.53542 0.66107 0.0
C1075 C 0.58455 0.54335 0.70308 0.0
C1076 C 0.61088 0.54971 0.71312 0.0
C1077 C 0.55385 0.53419 0.70999 0.0
C1078 C 0.52479 0.52527 0.69981 0.0
C1079 C 0.51503 0.50071 0.68794 0.0
C1080 C 0.48803 0.49286 0.67817 0.0
C1081 C 0.47042 0.50924 0.68023 0.0
C1082 C 0.47975 0.53345 0.69209 0.0
C1083 C 0.50677 0.54143 0.70188 0.0
H1084 H 0.44952 0.50314 0.67265 0.0
H1085 H 0.71738 0.57944 0.76225 0.0
H1086 H 0.53419 1.00248 0.55175 0.0
H1087 H 0.53695 0.99832 0.58119 0.0
H1088 H 0.6259 0.09139 0.58194 0.0
H1089 H 0.62445 0.09404 0.55214 0.0
H1090 H 0.63081 0.05766 0.60455 0.0
H1091 H 0.54295 0.07783 0.59195 0.0
H1092 H 0.49268 0.06674 0.57771 0.0
H1093 H 0.44193 0.97101 0.59932 0.0
H1094 H 0.492 0.98143 0.61355 0.0
H1095 H 0.61583 0.08725 0.689 0.0
H1096 H 0.61843 0.08943 0.65927 0.0
H1097 H 0.53888 0.99023 0.65709 0.0
H1098 H 0.53581 0.98807 0.68677 0.0
H1099 H 0.52987 0.02795 0.63552 0.0
H1100 H 0.61818 1.00961 0.64904 0.0
H1101 H 0.66907 1.02095 0.66264 0.0
H1102 H 0.71954 0.11505 0.63939 0.0
H1103 H 0.6688 0.10447 0.62582 0.0
C1104 C 0.5545 1.02194 0.55818 0.0
C1105 C 0.5789 0.04873 0.54959 0.0
C1106 C 0.55592 1.01977 0.57514 0.0
C1107 C 0.58094 0.04516 0.58419 0.0
C1108 C 0.60604 0.0715 0.57549 0.0
C1109 C 0.6052 0.0731 0.5584 0.0
C1110 C 0.58036 0.04447 0.60259 0.0
C1111 C 0.60879 0.05166 0.61125 0.0
C1112 C 0.55167 0.03609 0.61169 0.0
C1113 C 0.52123 0.03034 0.60373 0.0
C1114 C 0.52104 0.05443 0.59367 0.0
C1115 C 0.49261 0.04824 0.58558 0.0
C1116 C 0.46415 1.01817 0.58759 0.0
C1117 C 0.46399 0.9943 0.59778 0.0
C1118 C 0.49237 1.00035 0.60588 0.0
C1119 C 0.59873 0.0659 0.68223 0.0
C1120 C 0.57558 0.03747 0.69047 0.0
C1121 C 0.60046 0.06707 0.66515 0.0
C1122 C 0.57904 0.0399 0.65573 0.0
C1123 C 0.55581 1.01157 0.66393 0.0
C1124 C 0.55423 1.01029 0.68099 0.0
C1125 C 0.58025 0.04116 0.63742 0.0
C1126 C 0.55191 0.0341 0.62879 0.0
C1127 C 0.60908 0.04999 0.62842 0.0
C1128 C 0.63961 0.05638 0.63655 0.0
C1129 C 0.64006 0.03284 0.64693 0.0
C1130 C 0.66889 0.03911 0.65462 0.0
C1131 C 0.6975 0.06874 0.65192 0.0
C1132 C 0.69735 0.09213 0.64149 0.0
C1133 C 0.66857 0.086 0.63379 0.0
H1134 H 0.7198 0.07354 0.65787 0.0
H1135 H 0.44219 1.01338 0.58127 0.0
H1136 H 0.61697 0.54143 0.88924 0.0
H1137 H 0.60849 0.5397 0.9186 0.0
H1138 H 0.5084 0.51346 0.91102 0.0
H1139 H 0.51675 0.51469 0.88139 0.0
H1140 H 0.53878 0.56241 0.93504 0.0
H1141 H 0.5227 0.45672 0.92462 0.0
H1142 H 0.53441 0.41543 0.91296 0.0
H1143 H 0.62349 0.45561 0.93996 0.0
H1144 H 0.61256 0.49754 0.95159 0.0
H1145 H 0.50201 0.52452 0.02037 0.0
H1146 H 0.50153 0.5212 0.99078 0.0
H1147 H 0.60193 0.54517 0.99095 0.0
H1148 H 0.6033 0.55013 0.02042 0.0
H1149 H 0.5654 0.49351 0.97043 0.0
H1150 H 0.58019 0.6012 0.97995 0.0
H1151 H 0.56598 0.6411 0.99117 0.0
H1152 H 0.47502 0.59408 0.96569 0.0
H1153 H 0.48846 0.55355 0.95452 0.0
C1154 C 0.59301 0.53498 0.89377 0.0
C1155 C 0.56749 0.52791 0.88285 0.0
C1156 C 0.58818 0.53402 0.91065 0.0
C1157 C 0.55775 0.52635 0.91724 0.0
C1158 C 0.53215 0.51946 0.90637 0.0
C1159 C 0.53686 0.5199 0.88939 0.0
C1160 C 0.55319 0.52562 0.93543 0.0
C1161 C 0.54406 0.5469 0.94274 0.0
C1162 C 0.56029 0.50572 0.94569 0.0
C1163 C 0.56697 0.48048 0.93885 0.0
C1164 C 0.54493 0.45694 0.92797 0.0
C1165 C 0.5514 0.43338 0.92138 0.0
C1166 C 0.57973 0.43295 0.92568 0.0
C1167 C 0.60159 0.45601 0.93662 0.0
C1168 C 0.59525 0.47967 0.94323 0.0
C1169 C 0.52431 0.52968 0.01425 0.0
C1170 C 0.55274 0.53767 0.02323 0.0
C1171 C 0.52386 0.52752 -0.00284 0.0
C1172 C 0.55172 0.53299 0.98841 0.0
C1173 C 0.57997 0.54061 -0.00273 0.0
C1174 C 0.58059 0.54321 0.01431 0.0
C1175 C 0.55162 0.53078 0.9701 0.0
C1176 C 0.55991 0.50889 0.96275 0.0
C1177 C 0.54329 0.54981 0.95983 0.0
C1178 C 0.53516 0.57411 0.96656 0.0
C1179 C 0.55701 0.59917 0.97687 0.0
C1180 C 0.54913 0.62193 0.98319 0.0
C1181 C 0.51957 0.62006 0.97919 0.0
C1182 C 0.49787 0.59546 0.96881 0.0
C1183 C 0.50561 0.57259 0.96248 0.0
H1184 H 0.51352 0.63773 0.98408 0.0
H1185 H 0.5847 0.41469 0.92057 0.0
H1186 H 0.05931 0.50072 0.22096 0.0
H1187 H 0.063 0.5084 0.25045 0.0
H1188 H 0.06174 0.59878 0.24468 0.0
H1189 H 0.05665 0.59049 0.21501 0.0
H1190 H 0.11414 0.59676 0.26805 0.0
H1191 H 0.99998 0.55045 0.25822 0.0
H1192 H 0.94767 0.51107 0.24581 0.0
H1193 H 0.95096 0.43176 0.26995 0.0
H1194 H 1.00367 0.4707 0.28229 0.0
H1195 H 0.09557 0.61245 0.35384 0.0
H1196 H 0.0921 0.61297 0.32422 0.0
H1197 H 0.05298 0.50846 0.32336 0.0
H1198 H 0.05622 0.50775 0.35292 0.0
H1199 H 1.02051 0.52206 0.3027 0.0
H1200 H 0.13551 0.56862 0.31224 0.0
H1201 H 0.1889 0.60788 0.32374 0.0
H1202 H 0.1851 0.68716 0.29987 0.0
H1203 H 0.13145 0.6484 0.2884 0.0
C1204 C 0.05972 0.52224 0.22591 0.0
C1205 C 0.05757 0.5449 0.21552 0.0
C1206 C 0.06193 0.52664 0.24284 0.0
C1207 C 0.06286 0.55426 0.24993 0.0
C1208 C 0.06125 0.57732 0.23959 0.0
C1209 C 0.05816 0.57247 0.2226 0.0
C1210 C 0.06435 0.55798 0.26813 0.0
C1211 C 0.0935 0.58084 0.27564 0.0
C1212 C 0.03778 0.53688 0.27817 0.0
C1213 C 1.00591 0.51342 0.27102 0.0
C1214 C 0.9897 0.52457 0.26076 0.0
C1215 C 0.95995 0.50235 0.25376 0.0
C1216 C 0.94604 0.46891 0.25705 0.0
C1217 C 0.9618 0.45766 0.2674 0.0
C1218 C 0.9916 0.4798 0.27441 0.0
C1219 C 0.08651 0.58954 0.34739 0.0
C1220 C 0.07622 0.56004 0.35604 0.0
C1221 C 0.08453 0.58987 0.33031 0.0
C1222 C 0.07261 0.56079 0.32122 0.0
C1223 C 0.0622 0.53134 0.32985 0.0
C1224 C 0.06399 0.53096 0.34691 0.0
C1225 C 0.07056 0.56072 0.30285 0.0
C1226 C 0.04122 0.53831 0.29524 0.0
C1227 C 0.09705 0.58235 0.29275 0.0
C1228 C 0.12931 0.60565 0.29961 0.0
C1229 C 0.14595 0.59445 0.30954 0.0
C1230 C 0.17627 0.61661 0.31604 0.0
C1231 C 0.19034 0.65 0.31258 0.0
C1232 C 0.17415 0.66129 0.30257 0.0
C1233 C 0.14379 0.63924 0.29606 0.0
H1234 H 0.21382 0.66712 0.31762 0.0
H1235 H 0.92302 0.45173 0.25162 0.0
loop_
_geom_bond_atom_site_label_1
_geom_bond_atom_site_label_2
_geom_bond_distance
_geom_bond_site_symmetry_2
_ccdc_geom_bond_type
C0 Eu1 2.835 1_655 S
C0 C2 1.500 . S
C0 O20 1.257 . S
C0 O21 1.260 . S
Eu1 C0 2.835 1_455 S
Eu1 O20 2.473 1_455 S
Eu1 O21 2.480 1_455 S
Eu1 O22 2.430 . S
Eu1 O23 2.670 . S
Eu1 O24 2.394 1_455 S
Eu1 O29 2.355 . S
Eu1 O31 2.374 . S
C2 C0 1.500 . S
C2 C3 1.377 . S
C2 C7 1.377 . S
C3 C2 1.377 . S
C3 C4 1.395 . S
C3 H32 0.931 . S
C4 C3 1.395 . S
C4 C5 1.383 . S
C4 H33 0.931 . S
C5 C4 1.383 . S
C5 C6 1.394 . S
C6 C5 1.394 . S
C6 C7 1.378 . S
C6 H34 0.931 . S
C7 C2 1.377 . S
C7 C6 1.378 . S
C7 H35 0.931 . S
C8 O22 1.259 . S
C8 O23 1.270 . S
C9 O24 1.251 . S
C9 O25 1.251 . S
C10 Eu11 2.835 . S
C10 C12 1.500 . S
C10 O26 1.257 . S
C10 O27 1.260 . S
Eu11 C10 2.835 . S
Eu11 O23 2.355 . S
Eu11 O25 2.374 1_455 S
Eu11 O26 2.473 . S
Eu11 O27 2.480 . S
Eu11 O28 2.430 . S
Eu11 O29 2.670 . S
Eu11 O30 2.394 . S
C12 C10 1.500 . S
C12 C13 1.377 . S
C12 C17 1.377 . S
C13 C12 1.377 . S
C13 C14 1.395 . S
C13 H36 0.931 . S
C14 C13 1.395 . S
C14 C15 1.383 . S
C14 H37 0.931 . S
C15 C14 1.383 . S
C15 C16 1.394 . S
C16 C15 1.394 . S
C16 C17 1.378 . S
C16 H38 0.931 . S
C17 C12 1.377 . S
C17 C16 1.378 . S
C17 H39 0.931 . S
C18 O28 1.259 . S
C18 O29 1.270 . S
C19 O30 1.251 . S
C19 O31 1.251 . S
O20 C0 1.257 . S
O20 Eu1 2.473 1_655 S
O21 C0 1.260 . S
O21 Eu1 2.480 1_655 S
O22 Eu1 2.430 . S
O22 C8 1.259 . S
O23 Eu1 2.670 . S
O23 C8 1.270 . S
O23 Eu11 2.355 . S
O24 Eu1 2.394 1_655 S
O24 C9 1.251 . S
O25 C9 1.251 . S
O25 Eu11 2.374 1_655 S
O26 C10 1.257 . S
O26 Eu11 2.473 . S
O27 C10 1.260 . S
O27 Eu11 2.480 . S
O28 Eu11 2.430 . S
O28 C18 1.259 . S
O29 Eu1 2.355 . S
O29 Eu11 2.670 . S
O29 C18 1.270 . S
O30 Eu11 2.394 . S
O30 C19 1.251 . S
O31 Eu1 2.374 . S
O31 C19 1.251 . S
H32 C3 0.931 . S
H33 C4 0.931 . S
H34 C6 0.931 . S
H35 C7 0.931 . S
H36 C13 0.931 . S
H37 C14 0.931 . S
H38 C16 0.931 . S
H39 C17 0.931 . S
C40 Eu41 2.835 . S
C40 C42 1.500 . S
C40 O60 1.257 . S
C40 O61 1.260 . S
Eu41 C40 2.835 . S
Eu41 O60 2.473 . S
Eu41 O61 2.480 . S
Eu41 O62 2.430 . S
Eu41 O63 2.670 . S
Eu41 O64 2.394 . S
Eu41 O69 2.355 . S
Eu41 O71 2.374 1_545 S
C42 C40 1.500 . S
C42 C43 1.377 . S
C42 C47 1.377 . S
C43 C42 1.377 . S
C43 C44 1.395 . S
C43 H72 0.931 . S
C44 C43 1.395 . S
C44 C45 1.383 . S
C44 H73 0.931 . S
C45 C44 1.383 . S
C45 C46 1.394 . S
C46 C45 1.394 . S
C46 C47 1.378 . S
C46 H74 0.931 . S
C47 C42 1.377 . S
C47 C46 1.378 . S
C47 H75 0.931 . S
C48 O62 1.259 . S
C48 O63 1.270 . S
C49 O64 1.251 . S
C49 O65 1.251 . S
C50 Eu51 2.835 1_565 S
C50 C52 1.500 . S
C50 O66 1.257 . S
C50 O67 1.260 . S
Eu51 C50 2.835 1_545 S
Eu51 O63 2.355 . S
Eu51 O65 2.374 . S
Eu51 O66 2.473 1_545 S
Eu51 O67 2.480 1_545 S
Eu51 O68 2.430 . S
Eu51 O69 2.670 . S
Eu51 O70 2.394 1_545 S
C52 C50 1.500 . S
C52 C53 1.377 . S
C52 C57 1.377 . S
C53 C52 1.377 . S
C53 C54 1.395 . S
C53 H76 0.931 . S
C54 C53 1.395 . S
C54 C55 1.383 . S
C54 H77 0.931 . S
C55 C54 1.383 . S
C55 C56 1.394 . S
C56 C55 1.394 . S
C56 C57 1.378 . S
C56 H78 0.931 . S
C57 C52 1.377 . S
C57 C56 1.378 . S
C57 H79 0.931 . S
C58 O68 1.259 . S
C58 O69 1.270 . S
C59 O70 1.251 . S
C59 O71 1.251 . S
O60 C40 1.257 . S
O60 Eu41 2.473 . S
O61 C40 1.260 . S
O61 Eu41 2.480 . S
O62 Eu41 2.430 . S
O62 C48 1.259 . S
O63 Eu41 2.670 . S
O63 C48 1.270 . S
O63 Eu51 2.355 . S
O64 Eu41 2.394 . S
O64 C49 1.251 . S
O65 C49 1.251 . S
O65 Eu51 2.374 . S
O66 C50 1.257 . S
O66 Eu51 2.473 1_565 S
O67 C50 1.260 . S
O67 Eu51 2.480 1_565 S
O68 Eu51 2.430 . S
O68 C58 1.259 . S
O69 Eu41 2.355 . S
O69 Eu51 2.670 . S
O69 C58 1.270 . S
O70 Eu51 2.394 1_565 S
O70 C59 1.251 . S
O71 Eu41 2.374 1_565 S
O71 C59 1.251 . S
H72 C43 0.931 . S
H73 C44 0.931 . S
H74 C46 0.931 . S
H75 C47 0.931 . S
H76 C53 0.931 . S
H77 C54 0.931 . S
H78 C56 0.931 . S
H79 C57 0.931 . S
C80 Eu81 2.835 . S
C80 C82 1.500 . S
C80 O100 1.257 . S
C80 O101 1.260 . S
Eu81 C80 2.835 . S
Eu81 O100 2.473 . S
Eu81 O101 2.480 . S
Eu81 O102 2.430 . S
Eu81 O103 2.670 . S
Eu81 O104 2.394 . S
Eu81 O109 2.355 . S
Eu81 O111 2.374 . S
C82 C80 1.500 . S
C82 C83 1.377 . S
C82 C87 1.377 . S
C83 C82 1.377 . S
C83 C84 1.395 . S
C83 H112 0.931 . S
C84 C83 1.395 . S
C84 C85 1.383 . S
C84 H113 0.931 . S
C85 C84 1.383 . S
C85 C86 1.394 . S
C86 C85 1.394 . S
C86 C87 1.378 . S
C86 H114 0.931 . S
C87 C82 1.377 . S
C87 C86 1.378 . S
C87 H115 0.931 . S
C88 O102 1.259 . S
C88 O103 1.270 . S
C89 O104 1.251 . S
C89 O105 1.251 . S
C90 Eu91 2.835 . S
C90 C92 1.500 . S
C90 O106 1.257 . S
C90 O107 1.260 . S
Eu91 C90 2.835 . S
Eu91 O103 2.355 . S
Eu91 O105 2.374 . S
Eu91 O106 2.473 . S
Eu91 O107 2.480 . S
Eu91 O108 2.430 . S
Eu91 O109 2.670 . S
Eu91 O110 2.394 . S
C92 C90 1.500 . S
C92 C93 1.377 . S
C92 C97 1.377 . S
C93 C92 1.377 . S
C93 C94 1.395 . S
C93 H116 0.931 . S
C94 C93 1.395 . S
C94 C95 1.383 . S
C94 H117 0.931 . S
C95 C94 1.383 . S
C95 C96 1.394 . S
C96 C95 1.394 . S
C96 C97 1.378 . S
C96 H118 0.931 . S
C97 C92 1.377 . S
C97 C96 1.378 . S
C97 H119 0.931 . S
C98 O108 1.259 . S
C98 O109 1.270 . S
C99 O110 1.251 . S
C99 O111 1.251 . S
O100 C80 1.257 . S
O100 Eu81 2.473 . S
O101 C80 1.260 . S
O101 Eu81 2.480 . S
O102 Eu81 2.430 . S
O102 C88 1.259 . S
O103 Eu81 2.670 . S
O103 C88 1.270 . S
O103 Eu91 2.355 . S
O104 Eu81 2.394 . S
O104 C89 1.251 . S
O105 C89 1.251 . S
O105 Eu91 2.374 . S
O106 C90 1.257 . S
O106 Eu91 2.473 . S
O107 C90 1.260 . S
O107 Eu91 2.480 . S
O108 Eu91 2.430 . S
O108 C98 1.259 . S
O109 Eu81 2.355 . S
O109 Eu91 2.670 . S
O109 C98 1.270 . S
O110 Eu91 2.394 . S
O110 C99 1.251 . S
O111 Eu81 2.374 . S
O111 C99 1.251 . S
H112 C83 0.931 . S
H113 C84 0.931 . S
H114 C86 0.931 . S
H115 C87 0.931 . S
H116 C93 0.931 . S
H117 C94 0.931 . S
H118 C96 0.931 . S
H119 C97 0.931 . S
C120 C121 1.384 . S
C120 H133 0.947 . S
C120 C155 1.382 . S
C121 C120 1.384 . S
C121 C122 1.378 . S
C122 C121 1.378 . S
C122 C123 1.378 . S
C122 H134 0.952 . S
C123 C122 1.378 . S
C123 H135 0.950 1_565 S
C123 C154 1.381 1_565 S
H124 C143 0.947 . S
H125 C144 0.946 . S
H126 C146 0.953 . S
H127 C147 0.945 . S
H128 C149 0.952 . S
H129 C150 0.949 . S
H130 C152 0.950 . S
H131 C153 0.948 . S
H132 C155 0.951 . S
H133 C120 0.947 . S
H134 C122 0.952 . S
H135 C123 0.950 1_545 S
N136 C139 1.382 . S
N136 C141 1.363 . S
N137 C139 1.371 . S
N137 C140 1.372 . S
N138 C140 1.361 . S
N138 C141 1.377 . S
C139 N136 1.382 . S
C139 N137 1.371 . S
C139 C142 1.480 . S
C140 N137 1.372 . S
C140 N138 1.361 . S
C140 C148 1.457 . S
C141 N136 1.363 . S
C141 N138 1.377 . S
C141 C154 1.490 . S
C142 C139 1.480 . S
C142 C143 1.383 . S
C142 C147 1.385 . S
C143 H124 0.947 . S
C143 C142 1.383 . S
C143 C144 1.388 . S
C144 H125 0.946 . S
C144 C143 1.388 . S
C144 C145 1.384 . S
C145 C144 1.384 . S
C145 C146 1.377 . S
C146 H126 0.953 . S
C146 C145 1.377 . S
C146 C147 1.369 . S
C147 H127 0.945 . S
C147 C142 1.385 . S
C147 C146 1.369 . S
C148 C140 1.457 . S
C148 C149 1.372 . S
C148 C153 1.364 . S
C149 H128 0.952 . S
C149 C148 1.372 . S
C149 C150 1.389 . S
C150 H129 0.949 . S
C150 C149 1.389 . S
C150 C151 1.387 . S
C151 C150 1.387 . S
C151 C152 1.372 . S
C152 H130 0.950 . S
C152 C151 1.372 . S
C152 C153 1.379 . S
C153 H131 0.948 . S
C153 C148 1.364 . S
C153 C152 1.379 . S
C154 C123 1.381 1_545 S
C154 C141 1.490 . S
C154 C155 1.386 1_545 S
C155 C120 1.382 . S
C155 H132 0.951 . S
C155 C154 1.386 1_565 S
C156 C157 1.384 . S
C156 H169 0.947 . S
C156 C191 1.382 . S
C157 C156 1.384 . S
C157 C158 1.378 . S
C158 C157 1.378 . S
C158 C159 1.378 . S
C158 H170 0.952 . S
C159 C158 1.378 . S
C159 H171 0.950 . S
C159 C190 1.383 . S
H160 C179 0.947 . S
H161 C180 0.946 . S
H162 C182 0.953 . S
H163 C183 0.945 . S
H164 C185 0.952 . S
H165 C186 0.949 . S
H166 C188 0.950 . S
H167 C189 0.948 . S
H168 C191 0.951 . S
H169 C156 0.947 . S
H170 C158 0.952 . S
H171 C159 0.950 . S
N172 C175 1.382 . S
N172 C177 1.363 . S
N173 C175 1.371 . S
N173 C176 1.372 . S
N174 C176 1.361 . S
N174 C177 1.377 . S
C175 N172 1.382 . S
C175 N173 1.371 . S
C175 C178 1.480 . S
C176 N173 1.372 . S
C176 N174 1.361 . S
C176 C184 1.457 . S
C177 N172 1.363 . S
C177 N174 1.377 . S
C177 C190 1.479 . S
C178 C175 1.480 . S
C178 C179 1.383 . S
C178 C183 1.385 . S
C179 H160 0.947 . S
C179 C178 1.383 . S
C179 C180 1.388 . S
C180 H161 0.946 . S
C180 C179 1.388 . S
C180 C181 1.384 . S
C181 C180 1.384 . S
C181 C182 1.377 . S
C182 H162 0.953 . S
C182 C181 1.377 . S
C182 C183 1.369 . S
C183 H163 0.945 . S
C183 C178 1.385 . S
C183 C182 1.369 . S
C184 C176 1.457 . S
C184 C185 1.372 . S
C184 C189 1.364 . S
C185 H164 0.952 . S
C185 C184 1.372 . S
C185 C186 1.389 . S
C186 H165 0.949 . S
C186 C185 1.389 . S
C186 C187 1.387 . S
C187 C186 1.387 . S
C187 C188 1.372 . S
C188 H166 0.950 . S
C188 C187 1.372 . S
C188 C189 1.379 . S
C189 H167 0.948 . S
C189 C184 1.364 . S
C189 C188 1.379 . S
C190 C159 1.383 . S
C190 C177 1.479 . S
C190 C191 1.398 . S
C191 C156 1.382 . S
C191 H168 0.951 . S
C191 C190 1.398 . S
C192 C193 1.384 . S
C192 H205 0.947 . S
C192 C227 1.382 . S
C193 C192 1.384 . S
C193 C194 1.378 . S
C194 C193 1.378 . S
C194 C195 1.378 . S
C194 H206 0.952 . S
C195 C194 1.378 . S
C195 H207 0.950 . S
C195 C226 1.383 . S
H196 C215 0.947 . S
H197 C216 0.946 . S
H198 C218 0.953 . S
H199 C219 0.945 . S
H200 C221 0.952 . S
H201 C222 0.949 . S
H202 C224 0.950 . S
H203 C225 0.948 . S
H204 C227 0.951 . S
H205 C192 0.947 . S
H206 C194 0.952 . S
H207 C195 0.950 . S
N208 C211 1.382 . S
N208 C213 1.363 1_455 S
N209 C211 1.371 . S
N209 C212 1.372 . S
N210 C212 1.361 1_655 S
N210 C213 1.377 . S
C211 N208 1.382 . S
C211 N209 1.371 . S
C211 C214 1.480 . S
C212 N209 1.372 . S
C212 N210 1.361 1_455 S
C212 C220 1.457 . S
C213 N208 1.363 1_655 S
C213 N210 1.377 . S
C213 C226 1.479 . S
C214 C211 1.480 . S
C214 C215 1.383 . S
C214 C219 1.385 . S
C215 H196 0.947 . S
C215 C214 1.383 . S
C215 C216 1.388 . S
C216 H197 0.946 . S
C216 C215 1.388 . S
C216 C217 1.384 . S
C217 C216 1.384 . S
C217 C218 1.377 . S
C218 H198 0.953 . S
C218 C217 1.377 . S
C218 C219 1.369 . S
C219 H199 0.945 . S
C219 C214 1.385 . S
C219 C218 1.369 . S
C220 C212 1.457 . S
C220 C221 1.372 . S
C220 C225 1.364 1_455 S
C221 H200 0.952 . S
C221 C220 1.372 . S
C221 C222 1.389 . S
C222 H201 0.949 . S
C222 C221 1.389 . S
C222 C223 1.387 . S
C223 C222 1.387 . S
C223 C224 1.372 1_455 S
C224 H202 0.950 . S
C224 C223 1.372 1_655 S
C224 C225 1.379 . S
C225 H203 0.948 . S
C225 C220 1.364 1_655 S
C225 C224 1.379 . S
C226 C195 1.383 . S
C226 C213 1.479 . S
C226 C227 1.398 . S
C227 C192 1.382 . S
C227 H204 0.951 . S
C227 C226 1.398 . S
C228 C229 1.384 . S
C228 H241 0.947 . S
C228 C263 1.382 . S
C229 C228 1.384 . S
C229 C230 1.378 . S
C230 C229 1.378 . S
C230 C231 1.378 . S
C230 H242 0.952 . S
C231 C230 1.378 . S
C231 H243 0.950 . S
C231 C262 1.383 . S
H232 C251 0.947 . S
H233 C252 0.946 . S
H234 C254 0.953 . S
H235 C255 0.945 . S
H236 C257 0.952 . S
H237 C258 0.949 . S
H238 C260 0.950 . S
H239 C261 0.948 . S
H240 C263 0.951 . S
H241 C228 0.947 . S
H242 C230 0.952 . S
H243 C231 0.950 . S
N244 C247 1.382 . S
N244 C249 1.363 . S
N245 C247 1.371 . S
N245 C248 1.372 . S
N246 C248 1.361 . S
N246 C249 1.377 . S
C247 N244 1.382 . S
C247 N245 1.371 . S
C247 C250 1.480 . S
C248 N245 1.372 . S
C248 N246 1.361 . S
C248 C256 1.457 . S
C249 N244 1.363 . S
C249 N246 1.377 . S
C249 C262 1.479 . S
C250 C247 1.480 . S
C250 C251 1.383 . S
C250 C255 1.385 1_455 S
C251 H232 0.947 . S
C251 C250 1.383 . S
C251 C252 1.388 1_455 S
C252 H233 0.946 . S
C252 C251 1.388 1_655 S
C252 C253 1.384 . S
C253 C252 1.384 . S
C253 C254 1.377 . S
C254 H234 0.953 . S
C254 C253 1.377 . S
C254 C255 1.369 . S
C255 H235 0.945 . S
C255 C250 1.385 1_655 S
C255 C254 1.369 . S
C256 C248 1.457 . S
C256 C257 1.372 . S
C256 C261 1.364 . S
C257 H236 0.952 . S
C257 C256 1.372 . S
C257 C258 1.389 . S
C258 H237 0.949 . S
C258 C257 1.389 . S
C258 C259 1.387 . S
C259 C258 1.387 . S
C259 C260 1.372 . S
C260 H238 0.950 . S
C260 C259 1.372 . S
C260 C261 1.379 . S
C261 H239 0.948 . S
C261 C256 1.364 . S
C261 C260 1.379 . S
C262 C231 1.383 . S
C262 C249 1.479 . S
C262 C263 1.398 . S
C263 C228 1.382 . S
C263 H240 0.951 . S
C263 C262 1.398 . S
C264 C265 1.384 . S
C264 H277 0.947 . S
C264 C299 1.382 . S
C265 C264 1.384 . S
C265 C266 1.378 . S
C266 C265 1.378 . S
C266 C267 1.378 . S
C266 H278 0.952 . S
C267 C266 1.378 . S
C267 H279 0.950 . S
C267 C298 1.383 . S
H268 C287 0.947 . S
H269 C288 0.946 . S
H270 C290 0.953 . S
H271 C291 0.945 . S
H272 C293 0.952 . S
H273 C294 0.949 . S
H274 C296 0.950 . S
H275 C297 0.948 . S
H276 C299 0.951 . S
H277 C264 0.947 . S
H278 C266 0.952 . S
H279 C267 0.950 . S
N280 C283 1.382 1_545 S
N280 C285 1.363 . S
N281 C283 1.371 . S
N281 C284 1.372 1_565 S
N282 C284 1.361 . S
N282 C285 1.377 . S
C283 N280 1.382 1_565 S
C283 N281 1.371 . S
C283 C286 1.480 . S
C284 N281 1.372 1_545 S
C284 N282 1.361 . S
C284 C292 1.457 . S
C285 N280 1.363 . S
C285 N282 1.377 . S
C285 C298 1.479 . S
C286 C283 1.480 . S
C286 C287 1.383 . S
C286 C291 1.385 . S
C287 H268 0.947 . S
C287 C286 1.383 . S
C287 C288 1.388 . S
C288 H269 0.946 . S
C288 C287 1.388 . S
C288 C289 1.384 . S
C289 C288 1.384 . S
C289 C290 1.377 . S
C290 H270 0.953 . S
C290 C289 1.377 . S
C290 C291 1.369 . S
C291 H271 0.945 . S
C291 C286 1.385 . S
C291 C290 1.369 . S
C292 C284 1.457 . S
C292 C293 1.372 1_545 S
C292 C297 1.364 . S
C293 H272 0.952 . S
C293 C292 1.372 1_565 S
C293 C294 1.389 . S
C294 H273 0.949 . S
C294 C293 1.389 . S
C294 C295 1.387 1_565 S
C295 C294 1.387 1_545 S
C295 C296 1.372 . S
C296 H274 0.950 . S
C296 C295 1.372 . S
C296 C297 1.379 . S
C297 H275 0.948 . S
C297 C292 1.364 . S
C297 C296 1.379 . S
C298 C267 1.383 . S
C298 C285 1.479 . S
C298 C299 1.398 . S
C299 C264 1.382 . S
C299 H276 0.951 . S
C299 C298 1.398 . S
C300 C301 1.384 . S
C300 H313 0.947 . S
C300 C335 1.382 . S
C301 C300 1.384 . S
C301 C302 1.378 . S
C302 C301 1.378 . S
C302 C303 1.378 . S
C302 H314 0.952 . S
C303 C302 1.378 . S
C303 H315 0.950 . S
C303 C334 1.383 . S
H304 C323 0.947 . S
H305 C324 0.946 . S
H306 C326 0.953 . S
H307 C327 0.945 . S
H308 C329 0.952 . S
H309 C330 0.949 . S
H310 C332 0.950 . S
H311 C333 0.948 . S
H312 C335 0.951 . S
H313 C300 0.947 . S
H314 C302 0.952 . S
H315 C303 0.950 . S
N316 C319 1.382 . S
N316 C321 1.363 . S
N317 C319 1.371 . S
N317 C320 1.372 . S
N318 C320 1.361 . S
N318 C321 1.377 . S
C319 N316 1.382 . S
C319 N317 1.371 . S
C319 C322 1.480 . S
C320 N317 1.372 . S
C320 N318 1.361 . S
C320 C328 1.457 . S
C321 N316 1.363 . S
C321 N318 1.377 . S
C321 C334 1.479 . S
C322 C319 1.480 . S
C322 C323 1.383 . S
C322 C327 1.385 . S
C323 H304 0.947 . S
C323 C322 1.383 . S
C323 C324 1.388 . S
C324 H305 0.946 . S
C324 C323 1.388 . S
C324 C325 1.384 . S
C325 C324 1.384 . S
C325 C326 1.377 . S
C326 H306 0.953 . S
C326 C325 1.377 . S
C326 C327 1.369 . S
C327 H307 0.945 . S
C327 C322 1.385 . S
C327 C326 1.369 . S
C328 C320 1.457 . S
C328 C329 1.372 . S
C328 C333 1.364 . S
C329 H308 0.952 . S
C329 C328 1.372 . S
C329 C330 1.389 . S
C330 H309 0.949 . S
C330 C329 1.389 . S
C330 C331 1.387 . S
C331 C330 1.387 . S
C331 C332 1.372 . S
C332 H310 0.950 . S
C332 C331 1.372 . S
C332 C333 1.379 . S
C333 H311 0.948 . S
C333 C328 1.364 . S
C333 C332 1.379 . S
C334 C303 1.383 . S
C334 C321 1.479 . S
C334 C335 1.398 . S
C335 C300 1.382 . S
C335 H312 0.951 . S
C335 C334 1.398 . S
H336 C354 0.951 . S
H337 C356 0.951 . S
H338 C358 0.950 . S
H339 C359 0.950 . S
H340 C361 0.950 . S
H341 C364 0.950 . S
H342 C365 0.950 . S
H343 C367 0.950 . S
H344 C368 0.950 . S
H345 C369 0.951 . S
H346 C371 0.951 . S
H347 C373 0.950 . S
H348 C374 0.950 . S
H349 C376 0.950 . S
H350 C379 0.950 . S
H351 C380 0.950 . S
H352 C382 0.950 . S
H353 C383 0.950 . S
C354 H336 0.951 . S
C354 C355 1.366 . S
C354 C356 1.388 . S
C355 C354 1.366 . S
C355 C359 1.385 . S
C356 H337 0.951 . S
C356 C354 1.388 . S
C356 C357 1.366 . S
C357 C356 1.366 . S
C357 C358 1.414 . S
C357 C360 1.499 . S
C358 H338 0.950 . S
C358 C357 1.414 . S
C358 C359 1.374 . S
C359 H339 0.950 . S
C359 C355 1.385 . S
C359 C358 1.374 . S
C360 C357 1.499 . S
C360 C361 1.373 . S
C360 C362 1.389 . S
C361 H340 0.950 . S
C361 C360 1.373 . S
C361 C377 1.377 . S
C362 C360 1.389 . S
C362 C363 1.524 . S
C362 C376 1.377 . S
C363 C362 1.524 . S
C363 C364 1.397 . S
C363 C368 1.363 . S
C364 H341 0.950 . S
C364 C363 1.397 . S
C364 C365 1.334 . S
C365 H342 0.950 . S
C365 C364 1.334 . S
C365 C366 1.287 . S
C366 C365 1.287 . S
C366 C367 1.524 . S
C366 H385 0.913 . S
C367 H343 0.950 . S
C367 C366 1.524 . S
C367 C368 1.415 . S
C368 H344 0.950 . S
C368 C363 1.363 . S
C368 C367 1.415 . S
C369 H345 0.951 . S
C369 C370 1.366 . S
C369 C371 1.388 . S
C370 C369 1.366 . S
C370 C374 1.385 . S
C371 H346 0.951 . S
C371 C369 1.388 . S
C371 C372 1.366 . S
C372 C371 1.366 . S
C372 C373 1.414 . S
C372 C375 1.499 . S
C373 H347 0.950 . S
C373 C372 1.414 . S
C373 C374 1.374 . S
C374 H348 0.950 . S
C374 C370 1.385 . S
C374 C373 1.374 . S
C375 C372 1.499 . S
C375 C376 1.373 . S
C375 C377 1.389 . S
C376 H349 0.950 . S
C376 C362 1.377 . S
C376 C375 1.373 . S
C377 C361 1.377 . S
C377 C375 1.389 . S
C377 C378 1.524 . S
C378 C377 1.524 . S
C378 C379 1.397 . S
C378 C383 1.363 . S
C379 H350 0.950 . S
C379 C378 1.397 . S
C379 C380 1.334 . S
C380 H351 0.950 . S
C380 C379 1.334 . S
C380 C381 1.287 . S
C381 C380 1.287 . S
C381 C382 1.524 . S
C381 H384 0.999 . S
C382 H352 0.950 . S
C382 C381 1.524 . S
C382 C383 1.415 . S
C383 H353 0.950 . S
C383 C378 1.363 . S
C383 C382 1.415 . S
H384 C381 0.999 . S
H385 C366 0.913 . S
H386 C404 0.951 . S
H387 C406 0.951 . S
H388 C408 0.950 . S
H389 C409 0.950 . S
H390 C411 0.950 . S
H391 C414 0.950 . S
H392 C415 0.950 . S
H393 C417 0.950 . S
H394 C418 0.950 . S
H395 C419 0.951 . S
H396 C421 0.951 . S
H397 C423 0.950 . S
H398 C424 0.950 . S
H399 C426 0.950 . S
H400 C429 0.950 . S
H401 C430 0.950 . S
H402 C432 0.950 . S
H403 C433 0.950 . S
C404 H386 0.951 . S
C404 C405 1.366 . S
C404 C406 1.388 . S
C405 C404 1.366 . S
C405 C409 1.385 . S
C406 H387 0.951 . S
C406 C404 1.388 . S
C406 C407 1.366 . S
C407 C406 1.366 . S
C407 C408 1.414 . S
C407 C410 1.499 . S
C408 H388 0.950 . S
C408 C407 1.414 . S
C408 C409 1.374 . S
C409 H389 0.950 . S
C409 C405 1.385 . S
C409 C408 1.374 . S
C410 C407 1.499 . S
C410 C411 1.373 . S
C410 C412 1.389 . S
C411 H390 0.950 . S
C411 C410 1.373 . S
C411 C427 1.377 . S
C412 C410 1.389 . S
C412 C413 1.524 . S
C412 C426 1.377 . S
C413 C412 1.524 . S
C413 C414 1.397 . S
C413 C418 1.363 . S
C414 H391 0.950 . S
C414 C413 1.397 . S
C414 C415 1.334 . S
C415 H392 0.950 . S
C415 C414 1.334 . S
C415 C416 1.287 . S
C416 C415 1.287 . S
C416 C417 1.524 . S
C416 H435 0.913 . S
C417 H393 0.950 . S
C417 C416 1.524 . S
C417 C418 1.415 . S
C418 H394 0.950 . S
C418 C413 1.363 . S
C418 C417 1.415 . S
C419 H395 0.951 . S
C419 C420 1.366 . S
C419 C421 1.388 . S
C420 C419 1.366 . S
C420 C424 1.385 . S
C421 H396 0.951 . S
C421 C419 1.388 . S
C421 C422 1.366 . S
C422 C421 1.366 . S
C422 C423 1.414 . S
C422 C425 1.499 . S
C423 H397 0.950 . S
C423 C422 1.414 . S
C423 C424 1.374 . S
C424 H398 0.950 . S
C424 C420 1.385 . S
C424 C423 1.374 . S
C425 C422 1.499 . S
C425 C426 1.373 . S
C425 C427 1.389 . S
C426 H399 0.950 . S
C426 C412 1.377 . S
C426 C425 1.373 . S
C427 C411 1.377 . S
C427 C425 1.389 . S
C427 C428 1.524 . S
C428 C427 1.524 . S
C428 C429 1.397 . S
C428 C433 1.363 . S
C429 H400 0.950 . S
C429 C428 1.397 . S
C429 C430 1.334 . S
C430 H401 0.950 . S
C430 C429 1.334 . S
C430 C431 1.287 . S
C431 C430 1.287 . S
C431 C432 1.524 . S
C431 H434 0.999 . S
C432 H402 0.950 . S
C432 C431 1.524 . S
C432 C433 1.415 . S
C433 H403 0.950 . S
C433 C428 1.363 . S
C433 C432 1.415 . S
H434 C431 0.999 . S
H435 C416 0.913 . S
H436 C454 0.951 . S
H437 C456 0.951 . S
H438 C458 0.950 . S
H439 C459 0.950 . S
H440 C461 0.950 . S
H441 C464 0.950 . S
H442 C465 0.950 . S
H443 C467 0.950 . S
H444 C468 0.950 . S
H445 C469 0.951 . S
H446 C471 0.951 . S
H447 C473 0.950 . S
H448 C474 0.950 . S
H449 C476 0.950 . S
H450 C479 0.950 . S
H451 C480 0.950 . S
H452 C482 0.950 . S
H453 C483 0.950 . S
C454 H436 0.951 . S
C454 C455 1.366 . S
C454 C456 1.388 . S
C455 C454 1.366 . S
C455 C459 1.385 . S
C456 H437 0.951 . S
C456 C454 1.388 . S
C456 C457 1.366 . S
C457 C456 1.366 . S
C457 C458 1.414 . S
C457 C460 1.499 . S
C458 H438 0.950 . S
C458 C457 1.414 . S
C458 C459 1.374 . S
C459 H439 0.950 . S
C459 C455 1.385 . S
C459 C458 1.374 . S
C460 C457 1.499 . S
C460 C461 1.373 . S
C460 C462 1.389 . S
C461 H440 0.950 . S
C461 C460 1.373 . S
C461 C477 1.377 . S
C462 C460 1.389 . S
C462 C463 1.524 . S
C462 C476 1.377 . S
C463 C462 1.524 . S
C463 C464 1.397 . S
C463 C468 1.363 . S
C464 H441 0.950 . S
C464 C463 1.397 . S
C464 C465 1.334 . S
C465 H442 0.950 . S
C465 C464 1.334 . S
C465 C466 1.287 . S
C466 C465 1.287 . S
C466 C467 1.524 . S
C466 H485 0.913 . S
C467 H443 0.950 . S
C467 C466 1.524 . S
C467 C468 1.415 . S
C468 H444 0.950 . S
C468 C463 1.363 . S
C468 C467 1.415 . S
C469 H445 0.951 . S
C469 C470 1.366 . S
C469 C471 1.388 . S
C470 C469 1.366 . S
C470 C474 1.385 . S
C471 H446 0.951 . S
C471 C469 1.388 . S
C471 C472 1.366 . S
C472 C471 1.366 . S
C472 C473 1.414 . S
C472 C475 1.499 . S
C473 H447 0.950 . S
C473 C472 1.414 . S
C473 C474 1.374 . S
C474 H448 0.950 . S
C474 C470 1.385 . S
C474 C473 1.374 . S
C475 C472 1.499 . S
C475 C476 1.373 . S
C475 C477 1.389 . S
C476 H449 0.950 . S
C476 C462 1.377 . S
C476 C475 1.373 . S
C477 C461 1.377 . S
C477 C475 1.389 . S
C477 C478 1.524 . S
C478 C477 1.524 . S
C478 C479 1.397 . S
C478 C483 1.363 . S
C479 H450 0.950 . S
C479 C478 1.397 . S
C479 C480 1.334 . S
C480 H451 0.950 . S
C480 C479 1.334 . S
C480 C481 1.287 . S
C481 C480 1.287 . S
C481 C482 1.524 . S
C481 H484 0.999 . S
C482 H452 0.950 . S
C482 C481 1.524 . S
C482 C483 1.415 . S
C483 H453 0.950 . S
C483 C478 1.363 . S
C483 C482 1.415 . S
H484 C481 0.999 . S
H485 C466 0.913 . S
H486 C504 0.951 . S
H487 C506 0.951 . S
H488 C508 0.950 . S
H489 C509 0.950 . S
H490 C511 0.950 . S
H491 C514 0.950 . S
H492 C515 0.950 . S
H493 C517 0.950 . S
H494 C518 0.950 . S
H495 C519 0.951 . S
H496 C521 0.951 . S
H497 C523 0.950 . S
H498 C524 0.950 . S
H499 C526 0.950 . S
H500 C529 0.950 . S
H501 C530 0.950 . S
H502 C532 0.950 . S
H503 C533 0.950 . S
C504 H486 0.951 . S
C504 C505 1.366 . S
C504 C506 1.388 . S
C505 C504 1.366 . S
C505 C509 1.385 . S
C506 H487 0.951 . S
C506 C504 1.388 . S
C506 C507 1.366 . S
C507 C506 1.366 . S
C507 C508 1.414 . S
C507 C510 1.499 . S
C508 H488 0.950 . S
C508 C507 1.414 . S
C508 C509 1.374 . S
C509 H489 0.950 . S
C509 C505 1.385 . S
C509 C508 1.374 . S
C510 C507 1.499 . S
C510 C511 1.373 . S
C510 C512 1.389 . S
C511 H490 0.950 . S
C511 C510 1.373 . S
C511 C527 1.377 . S
C512 C510 1.389 . S
C512 C513 1.524 . S
C512 C526 1.377 . S
C513 C512 1.524 . S
C513 C514 1.397 . S
C513 C518 1.363 . S
C514 H491 0.950 . S
C514 C513 1.397 . S
C514 C515 1.334 . S
C515 H492 0.950 . S
C515 C514 1.334 . S
C515 C516 1.287 . S
C516 C515 1.287 . S
C516 C517 1.524 . S
C516 H535 0.913 . S
C517 H493 0.950 . S
C517 C516 1.524 . S
C517 C518 1.415 . S
C518 H494 0.950 . S
C518 C513 1.363 . S
C518 C517 1.415 . S
C519 H495 0.951 . S
C519 C520 1.366 . S
C519 C521 1.388 . S
C520 C519 1.366 . S
C520 C524 1.385 . S
C521 H496 0.951 . S
C521 C519 1.388 . S
C521 C522 1.366 . S
C522 C521 1.366 . S
C522 C523 1.414 . S
C522 C525 1.499 . S
C523 H497 0.950 . S
C523 C522 1.414 . S
C523 C524 1.374 . S
C524 H498 0.950 . S
C524 C520 1.385 . S
C524 C523 1.374 . S
C525 C522 1.499 . S
C525 C526 1.373 . S
C525 C527 1.389 . S
C526 H499 0.950 . S
C526 C512 1.377 . S
C526 C525 1.373 . S
C527 C511 1.377 . S
C527 C525 1.389 . S
C527 C528 1.524 . S
C528 C527 1.524 . S
C528 C529 1.397 . S
C528 C533 1.363 . S
C529 H500 0.950 . S
C529 C528 1.397 . S
C529 C530 1.334 . S
C530 H501 0.950 . S
C530 C529 1.334 . S
C530 C531 1.287 . S
C531 C530 1.287 . S
C531 C532 1.524 . S
C531 H534 0.999 . S
C532 H502 0.950 . S
C532 C531 1.524 . S
C532 C533 1.415 . S
C533 H503 0.950 . S
C533 C528 1.363 . S
C533 C532 1.415 . S
H534 C531 0.999 . S
H535 C516 0.913 . S
H536 C554 0.951 . S
H537 C556 0.951 . S
H538 C558 0.950 . S
H539 C559 0.950 . S
H540 C561 0.950 . S
H541 C564 0.950 . S
H542 C565 0.950 . S
H543 C567 0.950 . S
H544 C568 0.950 . S
H545 C569 0.951 . S
H546 C571 0.951 . S
H547 C573 0.950 . S
H548 C574 0.950 . S
H549 C576 0.950 . S
H550 C579 0.950 . S
H551 C580 0.950 . S
H552 C582 0.950 . S
H553 C583 0.950 . S
C554 H536 0.951 . S
C554 C555 1.366 . S
C554 C556 1.388 . S
C555 C554 1.366 . S
C555 C559 1.385 . S
C556 H537 0.951 . S
C556 C554 1.388 . S
C556 C557 1.366 . S
C557 C556 1.366 . S
C557 C558 1.414 . S
C557 C560 1.499 . S
C558 H538 0.950 . S
C558 C557 1.414 . S
C558 C559 1.374 . S
C559 H539 0.950 . S
C559 C555 1.385 . S
C559 C558 1.374 . S
C560 C557 1.499 . S
C560 C561 1.373 . S
C560 C562 1.389 . S
C561 H540 0.950 . S
C561 C560 1.373 . S
C561 C577 1.377 . S
C562 C560 1.389 . S
C562 C563 1.524 . S
C562 C576 1.377 . S
C563 C562 1.524 . S
C563 C564 1.397 . S
C563 C568 1.363 . S
C564 H541 0.950 . S
C564 C563 1.397 . S
C564 C565 1.334 . S
C565 H542 0.950 . S
C565 C564 1.334 . S
C565 C566 1.287 . S
C566 C565 1.287 . S
C566 C567 1.524 . S
C566 H585 0.913 . S
C567 H543 0.950 . S
C567 C566 1.524 . S
C567 C568 1.415 . S
C568 H544 0.950 . S
C568 C563 1.363 . S
C568 C567 1.415 . S
C569 H545 0.951 . S
C569 C570 1.366 . S
C569 C571 1.388 . S
C570 C569 1.366 . S
C570 C574 1.385 . S
C571 H546 0.951 . S
C571 C569 1.388 . S
C571 C572 1.366 . S
C572 C571 1.366 . S
C572 C573 1.414 . S
C572 C575 1.499 . S
C573 H547 0.950 . S
C573 C572 1.414 . S
C573 C574 1.374 . S
C574 H548 0.950 . S
C574 C570 1.385 . S
C574 C573 1.374 . S
C575 C572 1.499 . S
C575 C576 1.373 . S
C575 C577 1.389 . S
C576 H549 0.950 . S
C576 C562 1.377 . S
C576 C575 1.373 . S
C577 C561 1.377 . S
C577 C575 1.389 . S
C577 C578 1.524 . S
C578 C577 1.524 . S
C578 C579 1.397 . S
C578 C583 1.363 . S
C579 H550 0.950 . S
C579 C578 1.397 . S
C579 C580 1.334 . S
C580 H551 0.950 . S
C580 C579 1.334 . S
C580 C581 1.287 . S
C581 C580 1.287 . S
C581 C582 1.524 . S
C581 H584 0.999 . S
C582 H552 0.950 . S
C582 C581 1.524 . S
C582 C583 1.415 . S
C583 H553 0.950 . S
C583 C578 1.363 . S
C583 C582 1.415 . S
H584 C581 0.999 . S
H585 C566 0.913 . S
H586 C604 0.951 . S
H587 C606 0.951 . S
H588 C608 0.950 . S
H589 C609 0.950 . S
H590 C611 0.950 . S
H591 C614 0.950 . S
H592 C615 0.950 . S
H593 C617 0.950 . S
H594 C618 0.950 . S
H595 C619 0.951 . S
H596 C621 0.951 . S
H597 C623 0.950 . S
H598 C624 0.950 . S
H599 C626 0.950 . S
H600 C629 0.950 . S
H601 C630 0.950 . S
H602 C632 0.950 . S
H603 C633 0.950 . S
C604 H586 0.951 . S
C604 C605 1.366 . S
C604 C606 1.388 . S
C605 C604 1.366 . S
C605 C609 1.385 . S
C606 H587 0.951 . S
C606 C604 1.388 . S
C606 C607 1.366 . S
C607 C606 1.366 . S
C607 C608 1.414 . S
C607 C610 1.499 . S
C608 H588 0.950 . S
C608 C607 1.414 . S
C608 C609 1.374 . S
C609 H589 0.950 . S
C609 C605 1.385 . S
C609 C608 1.374 . S
C610 C607 1.499 . S
C610 C611 1.373 . S
C610 C612 1.389 . S
C611 H590 0.950 . S
C611 C610 1.373 . S
C611 C627 1.377 . S
C612 C610 1.389 . S
C612 C613 1.524 . S
C612 C626 1.377 . S
C613 C612 1.524 . S
C613 C614 1.397 . S
C613 C618 1.363 . S
C614 H591 0.950 . S
C614 C613 1.397 . S
C614 C615 1.334 . S
C615 H592 0.950 . S
C615 C614 1.334 . S
C615 C616 1.287 . S
C616 C615 1.287 . S
C616 C617 1.524 . S
C616 H635 0.913 . S
C617 H593 0.950 . S
C617 C616 1.524 . S
C617 C618 1.415 . S
C618 H594 0.950 . S
C618 C613 1.363 . S
C618 C617 1.415 . S
C619 H595 0.951 . S
C619 C620 1.366 . S
C619 C621 1.388 . S
C620 C619 1.366 . S
C620 C624 1.385 . S
C621 H596 0.951 . S
C621 C619 1.388 . S
C621 C622 1.366 . S
C622 C621 1.366 . S
C622 C623 1.414 . S
C622 C625 1.499 . S
C623 H597 0.950 . S
C623 C622 1.414 . S
C623 C624 1.374 . S
C624 H598 0.950 . S
C624 C620 1.385 . S
C624 C623 1.374 . S
C625 C622 1.499 . S
C625 C626 1.373 . S
C625 C627 1.389 . S
C626 H599 0.950 . S
C626 C612 1.377 . S
C626 C625 1.373 . S
C627 C611 1.377 . S
C627 C625 1.389 . S
C627 C628 1.524 . S
C628 C627 1.524 . S
C628 C629 1.397 . S
C628 C633 1.363 . S
C629 H600 0.950 . S
C629 C628 1.397 . S
C629 C630 1.334 . S
C630 H601 0.950 . S
C630 C629 1.334 . S
C630 C631 1.287 . S
C631 C630 1.287 . S
C631 C632 1.524 . S
C631 H634 0.999 . S
C632 H602 0.950 . S
C632 C631 1.524 . S
C632 C633 1.415 . S
C633 H603 0.950 . S
C633 C628 1.363 . S
C633 C632 1.415 . S
H634 C631 0.999 . S
H635 C616 0.913 . S
H636 C654 0.951 . S
H637 C656 0.951 . S
H638 C658 0.950 . S
H639 C659 0.950 . S
H640 C661 0.950 . S
H641 C664 0.950 . S
H642 C665 0.950 . S
H643 C667 0.950 . S
H644 C668 0.950 . S
H645 C669 0.951 . S
H646 C671 0.951 . S
H647 C673 0.950 . S
H648 C674 0.950 . S
H649 C676 0.950 . S
H650 C679 0.950 . S
H651 C680 0.950 . S
H652 C682 0.950 . S
H653 C683 0.950 . S
C654 H636 0.951 . S
C654 C655 1.366 . S
C654 C656 1.388 . S
C655 C654 1.366 . S
C655 C659 1.385 . S
C656 H637 0.951 . S
C656 C654 1.388 . S
C656 C657 1.366 . S
C657 C656 1.366 . S
C657 C658 1.414 . S
C657 C660 1.499 . S
C658 H638 0.950 . S
C658 C657 1.414 . S
C658 C659 1.374 . S
C659 H639 0.950 . S
C659 C655 1.385 . S
C659 C658 1.374 . S
C660 C657 1.499 . S
C660 C661 1.373 . S
C660 C662 1.389 . S
C661 H640 0.950 . S
C661 C660 1.373 . S
C661 C677 1.377 . S
C662 C660 1.389 . S
C662 C663 1.524 . S
C662 C676 1.377 . S
C663 C662 1.524 . S
C663 C664 1.397 . S
C663 C668 1.363 . S
C664 H641 0.950 . S
C664 C663 1.397 . S
C664 C665 1.334 . S
C665 H642 0.950 . S
C665 C664 1.334 . S
C665 C666 1.287 . S
C666 C665 1.287 . S
C666 C667 1.524 . S
C666 H685 0.913 . S
C667 H643 0.950 . S
C667 C666 1.524 . S
C667 C668 1.415 . S
C668 H644 0.950 . S
C668 C663 1.363 . S
C668 C667 1.415 . S
C669 H645 0.951 . S
C669 C670 1.366 . S
C669 C671 1.388 . S
C670 C669 1.366 . S
C670 C674 1.385 . S
C671 H646 0.951 . S
C671 C669 1.388 . S
C671 C672 1.366 . S
C672 C671 1.366 . S
C672 C673 1.414 . S
C672 C675 1.499 . S
C673 H647 0.950 . S
C673 C672 1.414 . S
C673 C674 1.374 . S
C674 H648 0.950 . S
C674 C670 1.385 . S
C674 C673 1.374 . S
C675 C672 1.499 . S
C675 C676 1.373 . S
C675 C677 1.389 . S
C676 H649 0.950 . S
C676 C662 1.377 . S
C676 C675 1.373 . S
C677 C661 1.377 . S
C677 C675 1.389 . S
C677 C678 1.524 . S
C678 C677 1.524 . S
C678 C679 1.397 . S
C678 C683 1.363 . S
C679 H650 0.950 . S
C679 C678 1.397 . S
C679 C680 1.334 . S
C680 H651 0.950 . S
C680 C679 1.334 . S
C680 C681 1.287 . S
C681 C680 1.287 . S
C681 C682 1.524 . S
C681 H684 0.999 . S
C682 H652 0.950 . S
C682 C681 1.524 . S
C682 C683 1.415 . S
C683 H653 0.950 . S
C683 C678 1.363 . S
C683 C682 1.415 . S
H684 C681 0.999 . S
H685 C666 0.913 . S
H686 C704 0.951 . S
H687 C706 0.951 . S
H688 C708 0.950 . S
H689 C709 0.950 . S
H690 C711 0.950 . S
H691 C714 0.950 . S
H692 C715 0.950 . S
H693 C717 0.950 . S
H694 C718 0.950 . S
H695 C719 0.951 . S
H696 C721 0.951 . S
H697 C723 0.950 . S
H698 C724 0.950 . S
H699 C726 0.950 . S
H700 C729 0.950 . S
H701 C730 0.950 . S
H702 C732 0.950 . S
H703 C733 0.950 . S
C704 H686 0.951 . S
C704 C705 1.366 . S
C704 C706 1.388 . S
C705 C704 1.366 . S
C705 C709 1.385 . S
C706 H687 0.951 . S
C706 C704 1.388 . S
C706 C707 1.366 . S
C707 C706 1.366 . S
C707 C708 1.414 . S
C707 C710 1.499 . S
C708 H688 0.950 . S
C708 C707 1.414 . S
C708 C709 1.374 . S
C709 H689 0.950 . S
C709 C705 1.385 . S
C709 C708 1.374 . S
C710 C707 1.499 . S
C710 C711 1.373 . S
C710 C712 1.389 . S
C711 H690 0.950 . S
C711 C710 1.373 . S
C711 C727 1.377 . S
C712 C710 1.389 . S
C712 C713 1.524 . S
C712 C726 1.377 . S
C713 C712 1.524 . S
C713 C714 1.397 . S
C713 C718 1.363 . S
C714 H691 0.950 . S
C714 C713 1.397 . S
C714 C715 1.334 . S
C715 H692 0.950 . S
C715 C714 1.334 . S
C715 C716 1.287 . S
C716 C715 1.287 . S
C716 C717 1.524 . S
C716 H735 0.913 . S
C717 H693 0.950 . S
C717 C716 1.524 . S
C717 C718 1.415 . S
C718 H694 0.950 . S
C718 C713 1.363 . S
C718 C717 1.415 . S
C719 H695 0.951 . S
C719 C720 1.366 . S
C719 C721 1.388 . S
C720 C719 1.366 . S
C720 C724 1.385 . S
C721 H696 0.951 . S
C721 C719 1.388 . S
C721 C722 1.366 . S
C722 C721 1.366 . S
C722 C723 1.414 . S
C722 C725 1.499 . S
C723 H697 0.950 . S
C723 C722 1.414 . S
C723 C724 1.374 . S
C724 H698 0.950 . S
C724 C720 1.385 . S
C724 C723 1.374 . S
C725 C722 1.499 . S
C725 C726 1.373 . S
C725 C727 1.389 . S
C726 H699 0.950 . S
C726 C712 1.377 . S
C726 C725 1.373 . S
C727 C711 1.377 . S
C727 C725 1.389 . S
C727 C728 1.524 . S
C728 C727 1.524 . S
C728 C729 1.397 . S
C728 C733 1.363 . S
C729 H700 0.950 . S
C729 C728 1.397 . S
C729 C730 1.334 . S
C730 H701 0.950 . S
C730 C729 1.334 . S
C730 C731 1.287 . S
C731 C730 1.287 . S
C731 C732 1.524 . S
C731 H734 0.999 . S
C732 H702 0.950 . S
C732 C731 1.524 . S
C732 C733 1.415 . S
C733 H703 0.950 . S
C733 C728 1.363 . S
C733 C732 1.415 . S
H734 C731 0.999 . S
H735 C716 0.913 . S
H736 C754 0.951 . S
H737 C756 0.951 . S
H738 C758 0.950 . S
H739 C759 0.950 . S
H740 C761 0.950 . S
H741 C764 0.950 . S
H742 C765 0.950 . S
H743 C767 0.950 . S
H744 C768 0.950 . S
H745 C769 0.951 . S
H746 C771 0.951 . S
H747 C773 0.950 . S
H748 C774 0.950 . S
H749 C776 0.950 . S
H750 C779 0.950 . S
H751 C780 0.950 . S
H752 C782 0.950 . S
H753 C783 0.950 . S
C754 H736 0.951 . S
C754 C755 1.366 . S
C754 C756 1.388 . S
C755 C754 1.366 . S
C755 C759 1.385 . S
C756 H737 0.951 . S
C756 C754 1.388 . S
C756 C757 1.366 . S
C757 C756 1.366 . S
C757 C758 1.414 . S
C757 C760 1.499 . S
C758 H738 0.950 . S
C758 C757 1.414 . S
C758 C759 1.374 . S
C759 H739 0.950 . S
C759 C755 1.385 . S
C759 C758 1.374 . S
C760 C757 1.499 . S
C760 C761 1.373 . S
C760 C762 1.389 . S
C761 H740 0.950 . S
C761 C760 1.373 . S
C761 C777 1.377 . S
C762 C760 1.389 . S
C762 C763 1.524 . S
C762 C776 1.377 . S
C763 C762 1.524 . S
C763 C764 1.397 . S
C763 C768 1.363 . S
C764 H741 0.950 . S
C764 C763 1.397 . S
C764 C765 1.334 . S
C765 H742 0.950 . S
C765 C764 1.334 . S
C765 C766 1.287 . S
C766 C765 1.287 . S
C766 C767 1.524 . S
C766 H785 0.913 . S
C767 H743 0.950 . S
C767 C766 1.524 . S
C767 C768 1.415 . S
C768 H744 0.950 . S
C768 C763 1.363 . S
C768 C767 1.415 . S
C769 H745 0.951 . S
C769 C770 1.366 . S
C769 C771 1.388 . S
C770 C769 1.366 . S
C770 C774 1.385 . S
C771 H746 0.951 . S
C771 C769 1.388 . S
C771 C772 1.366 . S
C772 C771 1.366 . S
C772 C773 1.414 . S
C772 C775 1.499 . S
C773 H747 0.950 . S
C773 C772 1.414 . S
C773 C774 1.374 . S
C774 H748 0.950 . S
C774 C770 1.385 . S
C774 C773 1.374 . S
C775 C772 1.499 . S
C775 C776 1.373 . S
C775 C777 1.389 . S
C776 H749 0.950 . S
C776 C762 1.377 . S
C776 C775 1.373 . S
C777 C761 1.377 . S
C777 C775 1.389 . S
C777 C778 1.524 . S
C778 C777 1.524 . S
C778 C779 1.397 . S
C778 C783 1.363 . S
C779 H750 0.950 . S
C779 C778 1.397 . S
C779 C780 1.334 . S
C780 H751 0.950 . S
C780 C779 1.334 . S
C780 C781 1.287 . S
C781 C780 1.287 . S
C781 C782 1.524 . S
C781 H784 0.999 . S
C782 H752 0.950 . S
C782 C781 1.524 . S
C782 C783 1.415 . S
C783 H753 0.950 . S
C783 C778 1.363 . S
C783 C782 1.415 . S
H784 C781 0.999 . S
H785 C766 0.913 . S
H786 C804 0.951 . S
H787 C806 0.951 . S
H788 C808 0.950 . S
H789 C809 0.950 . S
H790 C811 0.950 . S
H791 C814 0.950 . S
H792 C815 0.950 . S
H793 C817 0.950 . S
H794 C818 0.950 . S
H795 C819 0.951 . S
H796 C821 0.951 . S
H797 C823 0.950 . S
H798 C824 0.950 . S
H799 C826 0.950 . S
H800 C829 0.950 . S
H801 C830 0.950 . S
H802 C832 0.950 . S
H803 C833 0.950 . S
C804 H786 0.951 . S
C804 C805 1.366 . S
C804 C806 1.388 . S
C805 C804 1.366 . S
C805 C809 1.385 . S
C806 H787 0.951 . S
C806 C804 1.388 . S
C806 C807 1.366 . S
C807 C806 1.366 . S
C807 C808 1.414 . S
C807 C810 1.499 . S
C808 H788 0.950 . S
C808 C807 1.414 . S
C808 C809 1.374 . S
C809 H789 0.950 . S
C809 C805 1.385 . S
C809 C808 1.374 . S
C810 C807 1.499 . S
C810 C811 1.373 . S
C810 C812 1.389 . S
C811 H790 0.950 . S
C811 C810 1.373 . S
C811 C827 1.377 . S
C812 C810 1.389 . S
C812 C813 1.524 . S
C812 C826 1.377 . S
C813 C812 1.524 . S
C813 C814 1.397 . S
C813 C818 1.363 . S
C814 H791 0.950 . S
C814 C813 1.397 . S
C814 C815 1.334 . S
C815 H792 0.950 . S
C815 C814 1.334 . S
C815 C816 1.287 . S
C816 C815 1.287 . S
C816 C817 1.524 . S
C816 H835 0.913 . S
C817 H793 0.950 . S
C817 C816 1.524 . S
C817 C818 1.415 . S
C818 H794 0.950 . S
C818 C813 1.363 . S
C818 C817 1.415 . S
C819 H795 0.951 . S
C819 C820 1.366 . S
C819 C821 1.388 . S
C820 C819 1.366 . S
C820 C824 1.385 . S
C821 H796 0.951 . S
C821 C819 1.388 . S
C821 C822 1.366 . S
C822 C821 1.366 . S
C822 C823 1.414 . S
C822 C825 1.499 . S
C823 H797 0.950 . S
C823 C822 1.414 . S
C823 C824 1.374 . S
C824 H798 0.950 . S
C824 C820 1.385 . S
C824 C823 1.374 . S
C825 C822 1.499 . S
C825 C826 1.373 . S
C825 C827 1.389 . S
C826 H799 0.950 . S
C826 C812 1.377 . S
C826 C825 1.373 . S
C827 C811 1.377 . S
C827 C825 1.389 . S
C827 C828 1.524 . S
C828 C827 1.524 . S
C828 C829 1.397 . S
C828 C833 1.363 . S
C829 H800 0.950 . S
C829 C828 1.397 . S
C829 C830 1.334 . S
C830 H801 0.950 . S
C830 C829 1.334 . S
C830 C831 1.287 . S
C831 C830 1.287 . S
C831 C832 1.524 . S
C831 H834 0.999 . S
C832 H802 0.950 . S
C832 C831 1.524 . S
C832 C833 1.415 . S
C833 H803 0.950 . S
C833 C828 1.363 . S
C833 C832 1.415 . S
H834 C831 0.999 . S
H835 C816 0.913 . S
H836 C854 0.951 . S
H837 C856 0.951 . S
H838 C858 0.950 . S
H839 C859 0.950 . S
H840 C861 0.950 . S
H841 C864 0.950 . S
H842 C865 0.950 . S
H843 C867 0.950 . S
H844 C868 0.950 . S
H845 C869 0.951 . S
H846 C871 0.951 . S
H847 C873 0.950 . S
H848 C874 0.950 . S
H849 C876 0.950 . S
H850 C879 0.950 . S
H851 C880 0.950 . S
H852 C882 0.950 . S
H853 C883 0.950 . S
C854 H836 0.951 . S
C854 C855 1.366 . S
C854 C856 1.388 . S
C855 C854 1.366 . S
C855 C859 1.385 . S
C856 H837 0.951 . S
C856 C854 1.388 . S
C856 C857 1.366 . S
C857 C856 1.366 . S
C857 C858 1.414 . S
C857 C860 1.499 . S
C858 H838 0.950 . S
C858 C857 1.414 . S
C858 C859 1.374 . S
C859 H839 0.950 . S
C859 C855 1.385 . S
C859 C858 1.374 . S
C860 C857 1.499 . S
C860 C861 1.373 . S
C860 C862 1.389 . S
C861 H840 0.950 . S
C861 C860 1.373 . S
C861 C877 1.377 . S
C862 C860 1.389 . S
C862 C863 1.524 . S
C862 C876 1.377 . S
C863 C862 1.524 . S
C863 C864 1.397 . S
C863 C868 1.363 . S
C864 H841 0.950 . S
C864 C863 1.397 . S
C864 C865 1.334 . S
C865 H842 0.950 . S
C865 C864 1.334 . S
C865 C866 1.287 . S
C866 C865 1.287 . S
C866 C867 1.524 . S
C866 H885 0.913 . S
C867 H843 0.950 . S
C867 C866 1.524 . S
C867 C868 1.415 . S
C868 H844 0.950 . S
C868 C863 1.363 . S
C868 C867 1.415 . S
C869 H845 0.951 . S
C869 C870 1.366 . S
C869 C871 1.388 . S
C870 C869 1.366 . S
C870 C874 1.385 . S
C871 H846 0.951 . S
C871 C869 1.388 . S
C871 C872 1.366 . S
C872 C871 1.366 . S
C872 C873 1.414 . S
C872 C875 1.499 . S
C873 H847 0.950 . S
C873 C872 1.414 . S
C873 C874 1.374 . S
C874 H848 0.950 . S
C874 C870 1.385 . S
C874 C873 1.374 . S
C875 C872 1.499 . S
C875 C876 1.373 . S
C875 C877 1.389 . S
C876 H849 0.950 . S
C876 C862 1.377 . S
C876 C875 1.373 . S
C877 C861 1.377 . S
C877 C875 1.389 . S
C877 C878 1.524 . S
C878 C877 1.524 . S
C878 C879 1.397 . S
C878 C883 1.363 . S
C879 H850 0.950 . S
C879 C878 1.397 . S
C879 C880 1.334 . S
C880 H851 0.950 . S
C880 C879 1.334 . S
C880 C881 1.287 . S
C881 C880 1.287 . S
C881 C882 1.524 . S
C881 H884 0.999 . S
C882 H852 0.950 . S
C882 C881 1.524 . S
C882 C883 1.415 . S
C883 H853 0.950 . S
C883 C878 1.363 . S
C883 C882 1.415 . S
H884 C881 0.999 . S
H885 C866 0.913 . S
H886 C904 0.951 . S
H887 C906 0.951 . S
H888 C908 0.950 . S
H889 C909 0.950 . S
H890 C911 0.950 . S
H891 C914 0.950 . S
H892 C915 0.950 . S
H893 C917 0.950 . S
H894 C918 0.950 . S
H895 C919 0.951 . S
H896 C921 0.951 . S
H897 C923 0.950 . S
H898 C924 0.950 . S
H899 C926 0.950 . S
H900 C929 0.950 . S
H901 C930 0.950 . S
H902 C932 0.950 . S
H903 C933 0.950 . S
C904 H886 0.951 . S
C904 C905 1.366 . S
C904 C906 1.388 . S
C905 C904 1.366 . S
C905 C909 1.385 . S
C906 H887 0.951 . S
C906 C904 1.388 . S
C906 C907 1.366 . S
C907 C906 1.366 . S
C907 C908 1.414 . S
C907 C910 1.499 . S
C908 H888 0.950 . S
C908 C907 1.414 . S
C908 C909 1.374 . S
C909 H889 0.950 . S
C909 C905 1.385 . S
C909 C908 1.374 . S
C910 C907 1.499 . S
C910 C911 1.373 . S
C910 C912 1.389 . S
C911 H890 0.950 . S
C911 C910 1.373 . S
C911 C927 1.377 . S
C912 C910 1.389 . S
C912 C913 1.524 . S
C912 C926 1.377 . S
C913 C912 1.524 . S
C913 C914 1.397 . S
C913 C918 1.363 . S
C914 H891 0.950 . S
C914 C913 1.397 . S
C914 C915 1.334 . S
C915 H892 0.950 . S
C915 C914 1.334 . S
C915 C916 1.287 . S
C916 C915 1.287 . S
C916 C917 1.524 . S
C916 H935 0.913 . S
C917 H893 0.950 . S
C917 C916 1.524 . S
C917 C918 1.415 . S
C918 H894 0.950 . S
C918 C913 1.363 . S
C918 C917 1.415 . S
C919 H895 0.951 . S
C919 C920 1.366 . S
C919 C921 1.388 . S
C920 C919 1.366 . S
C920 C924 1.385 . S
C921 H896 0.951 . S
C921 C919 1.388 . S
C921 C922 1.366 . S
C922 C921 1.366 . S
C922 C923 1.414 . S
C922 C925 1.499 . S
C923 H897 0.950 . S
C923 C922 1.414 . S
C923 C924 1.374 . S
C924 H898 0.950 . S
C924 C920 1.385 . S
C924 C923 1.374 . S
C925 C922 1.499 . S
C925 C926 1.373 . S
C925 C927 1.389 . S
C926 H899 0.950 . S
C926 C912 1.377 . S
C926 C925 1.373 . S
C927 C911 1.377 . S
C927 C925 1.389 . S
C927 C928 1.524 . S
C928 C927 1.524 . S
C928 C929 1.397 . S
C928 C933 1.363 . S
C929 H900 0.950 . S
C929 C928 1.397 . S
C929 C930 1.334 . S
C930 H901 0.950 . S
C930 C929 1.334 . S
C930 C931 1.287 . S
C931 C930 1.287 . S
C931 C932 1.524 . S
C931 H934 0.999 . S
C932 H902 0.950 . S
C932 C931 1.524 . S
C932 C933 1.415 . S
C933 H903 0.950 . S
C933 C928 1.363 . S
C933 C932 1.415 . S
H934 C931 0.999 . S
H935 C916 0.913 . S
H936 C954 0.951 . S
H937 C956 0.951 . S
H938 C958 0.950 . S
H939 C959 0.950 . S
H940 C961 0.950 . S
H941 C964 0.950 . S
H942 C965 0.950 . S
H943 C967 0.950 . S
H944 C968 0.950 . S
H945 C969 0.951 . S
H946 C971 0.951 . S
H947 C973 0.950 . S
H948 C974 0.950 . S
H949 C976 0.950 . S
H950 C979 0.950 . S
H951 C980 0.950 . S
H952 C982 0.950 . S
H953 C983 0.950 . S
C954 H936 0.951 . S
C954 C955 1.366 . S
C954 C956 1.388 . S
C955 C954 1.366 . S
C955 C959 1.385 1_455 S
C956 H937 0.951 . S
C956 C954 1.388 . S
C956 C957 1.366 . S
C957 C956 1.366 . S
C957 C958 1.414 1_455 S
C957 C960 1.499 . S
C958 H938 0.950 . S
C958 C957 1.414 1_655 S
C958 C959 1.374 . S
C959 H939 0.950 . S
C959 C955 1.385 1_655 S
C959 C958 1.374 . S
C960 C957 1.499 . S
C960 C961 1.373 1_455 S
C960 C962 1.389 . S
C961 H940 0.950 . S
C961 C960 1.373 1_655 S
C961 C977 1.377 . S
C962 C960 1.389 . S
C962 C963 1.524 . S
C962 C976 1.377 . S
C963 C962 1.524 . S
C963 C964 1.397 . S
C963 C968 1.363 . S
C964 H941 0.950 . S
C964 C963 1.397 . S
C964 C965 1.334 . S
C965 H942 0.950 . S
C965 C964 1.334 . S
C965 C966 1.287 . S
C966 C965 1.287 . S
C966 C967 1.524 . S
C966 H985 0.913 . S
C967 H943 0.950 . S
C967 C966 1.524 . S
C967 C968 1.415 . S
C968 H944 0.950 . S
C968 C963 1.363 . S
C968 C967 1.415 . S
C969 H945 0.951 . S
C969 C970 1.366 1_655 S
C969 C971 1.388 1_556 S
C970 C969 1.366 1_455 S
C970 C974 1.385 . S
C971 H946 0.951 . S
C971 C969 1.388 1_554 S
C971 C972 1.366 1_655 S
C972 C971 1.366 1_455 S
C972 C973 1.414 . S
C972 C975 1.499 . S
C973 H947 0.950 . S
C973 C972 1.414 . S
C973 C974 1.374 1_554 S
C974 H948 0.950 . S
C974 C970 1.385 . S
C974 C973 1.374 1_556 S
C975 C972 1.499 . S
C975 C976 1.373 . S
C975 C977 1.389 1_455 S
C976 H949 0.950 . S
C976 C962 1.377 . S
C976 C975 1.373 . S
C977 C961 1.377 . S
C977 C975 1.389 1_655 S
C977 C978 1.524 . S
C978 C977 1.524 . S
C978 C979 1.397 . S
C978 C983 1.363 . S
C979 H950 0.950 . S
C979 C978 1.397 . S
C979 C980 1.334 . S
C980 H951 0.950 . S
C980 C979 1.334 . S
C980 C981 1.287 . S
C981 C980 1.287 . S
C981 C982 1.524 . S
C981 H984 0.999 . S
C982 H952 0.950 . S
C982 C981 1.524 . S
C982 C983 1.415 . S
C983 H953 0.950 . S
C983 C978 1.363 . S
C983 C982 1.415 . S
H984 C981 0.999 . S
H985 C966 0.913 . S
H986 C1004 0.951 . S
H987 C1006 0.951 . S
H988 C1008 0.950 . S
H989 C1009 0.950 . S
H990 C1011 0.950 1_565 S
H991 C1014 0.950 . S
H992 C1015 0.950 . S
H993 C1017 0.950 . S
H994 C1018 0.950 . S
H995 C1019 0.951 . S
H996 C1021 0.951 . S
H997 C1023 0.950 . S
H998 C1024 0.950 . S
H999 C1026 0.950 . S
H1000 C1029 0.950 . S
H1001 C1030 0.950 . S
H1002 C1032 0.950 . S
H1003 C1033 0.950 . S
C1004 H986 0.951 . S
C1004 C1005 1.366 . S
C1004 C1006 1.388 . S
C1005 C1004 1.366 . S
C1005 C1009 1.385 . S
C1006 H987 0.951 . S
C1006 C1004 1.388 . S
C1006 C1007 1.366 . S
C1007 C1006 1.366 . S
C1007 C1008 1.414 . S
C1007 C1010 1.499 . S
C1008 H988 0.950 . S
C1008 C1007 1.414 . S
C1008 C1009 1.374 . S
C1009 H989 0.950 . S
C1009 C1005 1.385 . S
C1009 C1008 1.374 . S
C1010 C1007 1.499 . S
C1010 C1011 1.373 . S
C1010 C1012 1.389 . S
C1011 H990 0.950 1_545 S
C1011 C1010 1.373 . S
C1011 C1027 1.377 . S
C1012 C1010 1.389 . S
C1012 C1013 1.524 . S
C1012 C1026 1.377 . S
C1013 C1012 1.524 . S
C1013 C1014 1.397 . S
C1013 C1018 1.363 . S
C1014 H991 0.950 . S
C1014 C1013 1.397 . S
C1014 C1015 1.334 . S
C1015 H992 0.950 . S
C1015 C1014 1.334 . S
C1015 C1016 1.287 . S
C1016 C1015 1.287 . S
C1016 C1017 1.524 . S
C1016 H1035 0.913 . S
C1017 H993 0.950 . S
C1017 C1016 1.524 . S
C1017 C1018 1.415 . S
C1018 H994 0.950 . S
C1018 C1013 1.363 . S
C1018 C1017 1.415 . S
C1019 H995 0.951 . S
C1019 C1020 1.366 . S
C1019 C1021 1.388 . S
C1020 C1019 1.366 . S
C1020 C1024 1.385 . S
C1021 H996 0.951 . S
C1021 C1019 1.388 . S
C1021 C1022 1.366 . S
C1022 C1021 1.366 . S
C1022 C1023 1.414 . S
C1022 C1025 1.499 . S
C1023 H997 0.950 . S
C1023 C1022 1.414 . S
C1023 C1024 1.374 . S
C1024 H998 0.950 . S
C1024 C1020 1.385 . S
C1024 C1023 1.374 . S
C1025 C1022 1.499 . S
C1025 C1026 1.373 . S
C1025 C1027 1.389 . S
C1026 H999 0.950 . S
C1026 C1012 1.377 . S
C1026 C1025 1.373 . S
C1027 C1011 1.377 . S
C1027 C1025 1.389 . S
C1027 C1028 1.524 1_545 S
C1028 C1027 1.524 1_565 S
C1028 C1029 1.397 . S
C1028 C1033 1.363 . S
C1029 H1000 0.950 . S
C1029 C1028 1.397 . S
C1029 C1030 1.334 . S
C1030 H1001 0.950 . S
C1030 C1029 1.334 . S
C1030 C1031 1.287 . S
C1031 C1030 1.287 . S
C1031 C1032 1.524 . S
C1031 H1034 0.999 . S
C1032 H1002 0.950 . S
C1032 C1031 1.524 . S
C1032 C1033 1.415 . S
C1033 H1003 0.950 . S
C1033 C1028 1.363 . S
C1033 C1032 1.415 . S
H1034 C1031 0.999 . S
H1035 C1016 0.913 . S
H1036 C1054 0.951 . S
H1037 C1056 0.951 . S
H1038 C1058 0.950 . S
H1039 C1059 0.950 . S
H1040 C1061 0.950 . S
H1041 C1064 0.950 . S
H1042 C1065 0.950 . S
H1043 C1067 0.950 . S
H1044 C1068 0.950 . S
H1045 C1069 0.951 . S
H1046 C1071 0.951 . S
H1047 C1073 0.950 . S
H1048 C1074 0.950 . S
H1049 C1076 0.950 . S
H1050 C1079 0.950 . S
H1051 C1080 0.950 . S
H1052 C1082 0.950 . S
H1053 C1083 0.950 . S
C1054 H1036 0.951 . S
C1054 C1055 1.366 . S
C1054 C1056 1.388 . S
C1055 C1054 1.366 . S
C1055 C1059 1.385 . S
C1056 H1037 0.951 . S
C1056 C1054 1.388 . S
C1056 C1057 1.366 . S
C1057 C1056 1.366 . S
C1057 C1058 1.414 . S
C1057 C1060 1.499 . S
C1058 H1038 0.950 . S
C1058 C1057 1.414 . S
C1058 C1059 1.374 . S
C1059 H1039 0.950 . S
C1059 C1055 1.385 . S
C1059 C1058 1.374 . S
C1060 C1057 1.499 . S
C1060 C1061 1.373 . S
C1060 C1062 1.389 . S
C1061 H1040 0.950 . S
C1061 C1060 1.373 . S
C1061 C1077 1.377 . S
C1062 C1060 1.389 . S
C1062 C1063 1.524 . S
C1062 C1076 1.377 . S
C1063 C1062 1.524 . S
C1063 C1064 1.397 . S
C1063 C1068 1.363 . S
C1064 H1041 0.950 . S
C1064 C1063 1.397 . S
C1064 C1065 1.334 . S
C1065 H1042 0.950 . S
C1065 C1064 1.334 . S
C1065 C1066 1.287 . S
C1066 C1065 1.287 . S
C1066 C1067 1.524 . S
C1066 H1085 0.913 . S
C1067 H1043 0.950 . S
C1067 C1066 1.524 . S
C1067 C1068 1.415 . S
C1068 H1044 0.950 . S
C1068 C1063 1.363 . S
C1068 C1067 1.415 . S
C1069 H1045 0.951 . S
C1069 C1070 1.366 . S
C1069 C1071 1.388 . S
C1070 C1069 1.366 . S
C1070 C1074 1.385 . S
C1071 H1046 0.951 . S
C1071 C1069 1.388 . S
C1071 C1072 1.366 . S
C1072 C1071 1.366 . S
C1072 C1073 1.414 . S
C1072 C1075 1.499 . S
C1073 H1047 0.950 . S
C1073 C1072 1.414 . S
C1073 C1074 1.374 . S
C1074 H1048 0.950 . S
C1074 C1070 1.385 . S
C1074 C1073 1.374 . S
C1075 C1072 1.499 . S
C1075 C1076 1.373 . S
C1075 C1077 1.389 . S
C1076 H1049 0.950 . S
C1076 C1062 1.377 . S
C1076 C1075 1.373 . S
C1077 C1061 1.377 . S
C1077 C1075 1.389 . S
C1077 C1078 1.524 . S
C1078 C1077 1.524 . S
C1078 C1079 1.397 . S
C1078 C1083 1.363 . S
C1079 H1050 0.950 . S
C1079 C1078 1.397 . S
C1079 C1080 1.334 . S
C1080 H1051 0.950 . S
C1080 C1079 1.334 . S
C1080 C1081 1.287 . S
C1081 C1080 1.287 . S
C1081 C1082 1.524 . S
C1081 H1084 0.999 . S
C1082 H1052 0.950 . S
C1082 C1081 1.524 . S
C1082 C1083 1.415 . S
C1083 H1053 0.950 . S
C1083 C1078 1.363 . S
C1083 C1082 1.415 . S
H1084 C1081 0.999 . S
H1085 C1066 0.913 . S
H1086 C1104 0.951 . S
H1087 C1106 0.951 . S
H1088 C1108 0.950 . S
H1089 C1109 0.950 . S
H1090 C1111 0.950 . S
H1091 C1114 0.950 . S
H1092 C1115 0.950 . S
H1093 C1117 0.950 . S
H1094 C1118 0.950 . S
H1095 C1119 0.951 . S
H1096 C1121 0.951 . S
H1097 C1123 0.950 . S
H1098 C1124 0.950 . S
H1099 C1126 0.950 1_565 S
H1100 C1129 0.950 1_565 S
H1101 C1130 0.918 1_565 S
H1102 C1132 0.950 . S
H1103 C1133 0.950 . S
C1104 H1086 0.951 . S
C1104 C1105 1.366 1_565 S
C1104 C1106 1.388 . S
C1105 C1104 1.366 1_545 S
C1105 C1109 1.385 . S
C1106 H1087 0.951 . S
C1106 C1104 1.388 . S
C1106 C1107 1.366 1_565 S
C1107 C1106 1.366 1_545 S
C1107 C1108 1.414 . S
C1107 C1110 1.499 . S
C1108 H1088 0.950 . S
C1108 C1107 1.414 . S
C1108 C1109 1.374 . S
C1109 H1089 0.950 . S
C1109 C1105 1.385 . S
C1109 C1108 1.374 . S
C1110 C1107 1.499 . S
C1110 C1111 1.373 . S
C1110 C1112 1.389 . S
C1111 H1090 0.950 . S
C1111 C1110 1.373 . S
C1111 C1127 1.377 . S
C1112 C1110 1.389 . S
C1112 C1113 1.524 . S
C1112 C1126 1.377 . S
C1113 C1112 1.524 . S
C1113 C1114 1.397 . S
C1113 C1118 1.363 1_545 S
C1114 H1091 0.950 . S
C1114 C1113 1.397 . S
C1114 C1115 1.334 . S
C1115 H1092 0.950 . S
C1115 C1114 1.334 . S
C1115 C1116 1.287 1_545 S
C1116 C1115 1.287 1_565 S
C1116 C1117 1.524 . S
C1116 H1135 0.913 . S
C1117 H1093 0.950 . S
C1117 C1116 1.524 . S
C1117 C1118 1.415 . S
C1118 H1094 0.950 . S
C1118 C1113 1.363 1_565 S
C1118 C1117 1.415 . S
C1119 H1095 0.951 . S
C1119 C1120 1.366 . S
C1119 C1121 1.388 . S
C1120 C1119 1.366 . S
C1120 C1124 1.385 1_545 S
C1121 H1096 0.951 . S
C1121 C1119 1.388 . S
C1121 C1122 1.366 . S
C1122 C1121 1.366 . S
C1122 C1123 1.414 1_545 S
C1122 C1125 1.499 . S
C1123 H1097 0.950 . S
C1123 C1122 1.414 1_565 S
C1123 C1124 1.374 . S
C1124 H1098 0.950 . S
C1124 C1120 1.385 1_565 S
C1124 C1123 1.374 . S
C1125 C1122 1.499 . S
C1125 C1126 1.373 . S
C1125 C1127 1.389 . S
C1126 H1099 0.950 1_545 S
C1126 C1112 1.377 . S
C1126 C1125 1.373 . S
C1127 C1111 1.377 . S
C1127 C1125 1.389 . S
C1127 C1128 1.524 . S
C1128 C1127 1.524 . S
C1128 C1129 1.397 . S
C1128 C1133 1.363 . S
C1129 H1100 0.950 1_545 S
C1129 C1128 1.397 . S
C1129 C1130 1.334 . S
C1130 H1101 0.918 1_545 S
C1130 C1129 1.334 . S
C1130 C1131 1.287 . S
C1131 C1130 1.287 . S
C1131 C1132 1.524 . S
C1131 H1134 0.999 . S
C1132 H1102 0.950 . S
C1132 C1131 1.524 . S
C1132 C1133 1.415 . S
C1133 H1103 0.950 . S
C1133 C1128 1.363 . S
C1133 C1132 1.415 . S
H1134 C1131 0.999 . S
H1135 C1116 0.913 . S
H1136 C1154 0.951 . S
H1137 C1156 0.951 . S
H1138 C1158 0.950 . S
H1139 C1159 0.950 . S
H1140 C1161 0.950 . S
H1141 C1164 0.950 . S
H1142 C1165 0.950 . S
H1143 C1167 0.950 . S
H1144 C1168 0.950 . S
H1145 C1169 0.951 . S
H1146 C1171 0.951 . S
H1147 C1173 0.950 . S
H1148 C1174 0.950 . S
H1149 C1176 0.950 . S
H1150 C1179 0.950 . S
H1151 C1180 0.950 . S
H1152 C1182 0.950 . S
H1153 C1183 0.950 . S
C1154 H1136 0.951 . S
C1154 C1155 1.366 . S
C1154 C1156 1.388 . S
C1155 C1154 1.366 . S
C1155 C1159 1.385 . S
C1156 H1137 0.951 . S
C1156 C1154 1.388 . S
C1156 C1157 1.366 . S
C1157 C1156 1.366 . S
C1157 C1158 1.414 . S
C1157 C1160 1.499 . S
C1158 H1138 0.950 . S
C1158 C1157 1.414 . S
C1158 C1159 1.374 . S
C1159 H1139 0.950 . S
C1159 C1155 1.385 . S
C1159 C1158 1.374 . S
C1160 C1157 1.499 . S
C1160 C1161 1.373 . S
C1160 C1162 1.389 . S
C1161 H1140 0.950 . S
C1161 C1160 1.373 . S
C1161 C1177 1.377 . S
C1162 C1160 1.389 . S
C1162 C1163 1.524 . S
C1162 C1176 1.377 . S
C1163 C1162 1.524 . S
C1163 C1164 1.397 . S
C1163 C1168 1.363 . S
C1164 H1141 0.950 . S
C1164 C1163 1.397 . S
C1164 C1165 1.334 . S
C1165 H1142 0.950 . S
C1165 C1164 1.334 . S
C1165 C1166 1.287 . S
C1166 C1165 1.287 . S
C1166 C1167 1.524 . S
C1166 H1185 0.913 . S
C1167 H1143 0.950 . S
C1167 C1166 1.524 . S
C1167 C1168 1.415 . S
C1168 H1144 0.950 . S
C1168 C1163 1.363 . S
C1168 C1167 1.415 . S
C1169 H1145 0.951 . S
C1169 C1170 1.366 . S
C1169 C1171 1.388 1_554 S
C1170 C1169 1.366 . S
C1170 C1174 1.385 . S
C1171 H1146 0.951 . S
C1171 C1169 1.388 1_556 S
C1171 C1172 1.366 . S
C1172 C1171 1.366 . S
C1172 C1173 1.414 . S
C1172 C1175 1.499 . S
C1173 H1147 0.950 . S
C1173 C1172 1.414 . S
C1173 C1174 1.374 1_556 S
C1174 H1148 0.950 . S
C1174 C1170 1.385 . S
C1174 C1173 1.374 1_554 S
C1175 C1172 1.499 . S
C1175 C1176 1.373 . S
C1175 C1177 1.389 . S
C1176 H1149 0.950 . S
C1176 C1162 1.377 . S
C1176 C1175 1.373 . S
C1177 C1161 1.377 . S
C1177 C1175 1.389 . S
C1177 C1178 1.524 . S
C1178 C1177 1.524 . S
C1178 C1179 1.397 . S
C1178 C1183 1.363 . S
C1179 H1150 0.950 . S
C1179 C1178 1.397 . S
C1179 C1180 1.334 . S
C1180 H1151 0.950 . S
C1180 C1179 1.334 . S
C1180 C1181 1.287 . S
C1181 C1180 1.287 . S
C1181 C1182 1.524 . S
C1181 H1184 0.999 . S
C1182 H1152 0.950 . S
C1182 C1181 1.524 . S
C1182 C1183 1.415 . S
C1183 H1153 0.950 . S
C1183 C1178 1.363 . S
C1183 C1182 1.415 . S
H1184 C1181 0.999 . S
H1185 C1166 0.913 . S
H1186 C1204 0.951 . S
H1187 C1206 0.951 . S
H1188 C1208 0.950 . S
H1189 C1209 0.950 . S
H1190 C1211 0.950 . S
H1191 C1214 0.950 . S
H1192 C1215 0.950 . S
H1193 C1217 0.950 . S
H1194 C1218 0.950 . S
H1195 C1219 0.951 . S
H1196 C1221 0.951 . S
H1197 C1223 0.950 . S
H1198 C1224 0.950 . S
H1199 C1226 0.950 1_655 S
H1200 C1229 0.950 . S
H1201 C1230 0.950 . S
H1202 C1232 0.950 . S
H1203 C1233 0.950 . S
C1204 H1186 0.951 . S
C1204 C1205 1.366 . S
C1204 C1206 1.388 . S
C1205 C1204 1.366 . S
C1205 C1209 1.385 . S
C1206 H1187 0.951 . S
C1206 C1204 1.388 . S
C1206 C1207 1.366 . S
C1207 C1206 1.366 . S
C1207 C1208 1.414 . S
C1207 C1210 1.499 . S
C1208 H1188 0.950 . S
C1208 C1207 1.414 . S
C1208 C1209 1.374 . S
C1209 H1189 0.950 . S
C1209 C1205 1.385 . S
C1209 C1208 1.374 . S
C1210 C1207 1.499 . S
C1210 C1211 1.373 . S
C1210 C1212 1.389 . S
C1211 H1190 0.950 . S
C1211 C1210 1.373 . S
C1211 C1227 1.377 . S
C1212 C1210 1.389 . S
C1212 C1213 1.524 1_455 S
C1212 C1226 1.377 . S
C1213 C1212 1.524 1_655 S
C1213 C1214 1.397 . S
C1213 C1218 1.363 . S
C1214 H1191 0.950 . S
C1214 C1213 1.397 . S
C1214 C1215 1.334 . S
C1215 H1192 0.950 . S
C1215 C1214 1.334 . S
C1215 C1216 1.287 . S
C1216 C1215 1.287 . S
C1216 C1217 1.524 . S
C1216 H1235 0.913 . S
C1217 H1193 0.950 . S
C1217 C1216 1.524 . S
C1217 C1218 1.415 . S
C1218 H1194 0.950 . S
C1218 C1213 1.363 . S
C1218 C1217 1.415 . S
C1219 H1195 0.951 . S
C1219 C1220 1.366 . S
C1219 C1221 1.388 . S
C1220 C1219 1.366 . S
C1220 C1224 1.385 . S
C1221 H1196 0.951 . S
C1221 C1219 1.388 . S
C1221 C1222 1.366 . S
C1222 C1221 1.366 . S
C1222 C1223 1.414 . S
C1222 C1225 1.499 . S
C1223 H1197 0.950 . S
C1223 C1222 1.414 . S
C1223 C1224 1.374 . S
C1224 H1198 0.950 . S
C1224 C1220 1.385 . S
C1224 C1223 1.374 . S
C1225 C1222 1.499 . S
C1225 C1226 1.373 . S
C1225 C1227 1.389 . S
C1226 H1199 0.950 1_455 S
C1226 C1212 1.377 . S
C1226 C1225 1.373 . S
C1227 C1211 1.377 . S
C1227 C1225 1.389 . S
C1227 C1228 1.524 . S
C1228 C1227 1.524 . S
C1228 C1229 1.397 . S
C1228 C1233 1.363 . S
C1229 H1200 0.950 . S
C1229 C1228 1.397 . S
C1229 C1230 1.334 . S
C1230 H1201 0.950 . S
C1230 C1229 1.334 . S
C1230 C1231 1.287 . S
C1231 C1230 1.287 . S
C1231 C1232 1.524 . S
C1231 H1234 0.999 . S
C1232 H1202 0.950 . S
C1232 C1231 1.524 . S
C1232 C1233 1.415 . S
C1233 H1203 0.950 . S
C1233 C1228 1.363 . S
C1233 C1232 1.415 . S
H1234 C1231 0.999 . S
H1235 C1216 0.913 . S
C355 C19 2.908 . S
C370 C325 2.864 . S
C405 C49 3.013 . S
C420 C253 2.941 . S
C455 C99 2.908 . S
C470 C289 2.864 . S
C505 C9 3.010 . S
C520 C301 2.977 . S
C570 C229 2.894 . S
C555 C59 2.905 . S
C620 C265 2.977 . S
C605 C89 3.010 . S
C655 C55 0.290 . S
C670 C181 0.335 . S
C705 C85 0.323 . S
C720 C193 0.191 . S
C755 C15 0.286 . S
C770 C121 0.320 . S
C820 C157 0.193 . S
C805 C45 0.319 . S
C870 C217 0.332 . S
C855 C95 0.290 . S
C905 C5 0.321 . S
C920 C145 0.296 . S
C970 C223 1.101 . S
C955 C18 1.079 . S
C1005 C58 1.077 . S
C1020 C151 1.095 . S
C1055 C98 1.077 . S
C1070 C187 1.101 . S
C1120 C295 1.778 . S
C1105 C48 1.700 . S
C1170 C331 1.779 . S
C1155 C88 1.700 . S
C1205 C8 1.700 . S
C1220 C259 1.780 . S
