# Generated by pormake.
# Topology eea, (3,6)-cn, num edge types: 1
# Building blocks:
#     Node 0, Type 0, BuildingBlock: ESEHIV_clean_linker_0, # of connection points: 3
#     Node 1, Type 0, BuildingBlock: ESEHIV_clean_linker_0, # of connection points: 3
#     Node 2, Type 0, BuildingBlock: ESEHIV_clean_linker_0, # of connection points: 3
#     Node 3, Type 0, BuildingBlock: ESEHIV_clean_linker_0, # of connection points: 3
#     Node 4, Type 0, BuildingBlock: ESEHIV_clean_linker_0, # of connection points: 3
#     Node 5, Type 0, BuildingBlock: ESEHIV_clean_linker_0, # of connection points: 3
#     Node 6, Type 0, BuildingBlock: ESEHIV_clean_linker_0, # of connection points: 3
#     Node 7, Type 0, BuildingBlock: ESEHIV_clean_linker_0, # of connection points: 3
#     Node 8, Type 0, BuildingBlock: ESEHIV_clean_linker_0, # of connection points: 3
#     Node 9, Type 0, BuildingBlock: ESEHIV_clean_linker_0, # of connection points: 3
#     Node 10, Type 0, BuildingBlock: ESEHIV_clean_linker_0, # of connection points: 3
#     Node 11, Type 0, BuildingBlock: ESEHIV_clean_linker_0, # of connection points: 3
#     Node 12, Type 0, BuildingBlock: ESEHIV_clean_linker_0, # of connection points: 3
#     Node 13, Type 0, BuildingBlock: ESEHIV_clean_linker_0, # of connection points: 3
#     Node 14, Type 0, BuildingBlock: ESEHIV_clean_linker_0, # of connection points: 3
#     Node 15, Type 0, BuildingBlock: ESEHIV_clean_linker_0, # of connection points: 3
#     Node 16, Type 0, BuildingBlock: ESEHIV_clean_linker_0, # of connection points: 3
#     Node 17, Type 0, BuildingBlock: ESEHIV_clean_linker_0, # of connection points: 3
#     Node 18, Type 1, BuildingBlock: CUWYAW_clean_sbu_0, # of connection points: 6
#     Node 19, Type 1, BuildingBlock: CUWYAW_clean_sbu_0, # of connection points: 6
#     Node 20, Type 1, BuildingBlock: CUWYAW_clean_sbu_0, # of connection points: 6
#     Node 21, Type 1, BuildingBlock: CUWYAW_clean_sbu_0, # of connection points: 6
#     Node 22, Type 1, BuildingBlock: CUWYAW_clean_sbu_0, # of connection points: 6
#     Node 23, Type 1, BuildingBlock: CUWYAW_clean_sbu_0, # of connection points: 6
#     Node 24, Type 1, BuildingBlock: CUWYAW_clean_sbu_0, # of connection points: 6
#     Node 25, Type 1, BuildingBlock: CUWYAW_clean_sbu_0, # of connection points: 6
#     Node 26, Type 1, BuildingBlock: CUWYAW_clean_sbu_0, # of connection points: 6
#     Edge 27, Type (0, 1), BuildingBlock: KIFKEQ_clean_linker_1, # of connection points: 2
#     Edge 28, Type (0, 1), BuildingBlock: KIFKEQ_clean_linker_1, # of connection points: 2
#     Edge 29, Type (0, 1), BuildingBlock: KIFKEQ_clean_linker_1, # of connection points: 2
#     Edge 30, Type (0, 1), BuildingBlock: KIFKEQ_clean_linker_1, # of connection points: 2
#     Edge 31, Type (0, 1), BuildingBlock: KIFKEQ_clean_linker_1, # of connection points: 2
#     Edge 32, Type (0, 1), BuildingBlock: KIFKEQ_clean_linker_1, # of connection points: 2
#     Edge 33, Type (0, 1), BuildingBlock: KIFKEQ_clean_linker_1, # of connection points: 2
#     Edge 34, Type (0, 1), BuildingBlock: KIFKEQ_clean_linker_1, # of connection points: 2
#     Edge 35, Type (0, 1), BuildingBlock: KIFKEQ_clean_linker_1, # of connection points: 2
#     Edge 36, Type (0, 1), BuildingBlock: KIFKEQ_clean_linker_1, # of connection points: 2
#     Edge 37, Type (0, 1), BuildingBlock: KIFKEQ_clean_linker_1, # of connection points: 2
#     Edge 38, Type (0, 1), BuildingBlock: KIFKEQ_clean_linker_1, # of connection points: 2
#     Edge 39, Type (0, 1), BuildingBlock: KIFKEQ_clean_linker_1, # of connection points: 2
#     Edge 40, Type (0, 1), BuildingBlock: KIFKEQ_clean_linker_1, # of connection points: 2
#     Edge 41, Type (0, 1), BuildingBlock: KIFKEQ_clean_linker_1, # of connection points: 2
#     Edge 42, Type (0, 1), BuildingBlock: KIFKEQ_clean_linker_1, # of connection points: 2
#     Edge 43, Type (0, 1), BuildingBlock: KIFKEQ_clean_linker_1, # of connection points: 2
#     Edge 44, Type (0, 1), BuildingBlock: KIFKEQ_clean_linker_1, # of connection points: 2
#     Edge 45, Type (0, 1), BuildingBlock: KIFKEQ_clean_linker_1, # of connection points: 2
#     Edge 46, Type (0, 1), BuildingBlock: KIFKEQ_clean_linker_1, # of connection points: 2
#     Edge 47, Type (0, 1), BuildingBlock: KIFKEQ_clean_linker_1, # of connection points: 2
#     Edge 48, Type (0, 1), BuildingBlock: KIFKEQ_clean_linker_1, # of connection points: 2
#     Edge 49, Type (0, 1), BuildingBlock: KIFKEQ_clean_linker_1, # of connection points: 2
#     Edge 50, Type (0, 1), BuildingBlock: KIFKEQ_clean_linker_1, # of connection points: 2
#     Edge 51, Type (0, 1), BuildingBlock: KIFKEQ_clean_linker_1, # of connection points: 2
#     Edge 52, Type (0, 1), BuildingBlock: KIFKEQ_clean_linker_1, # of connection points: 2
#     Edge 53, Type (0, 1), BuildingBlock: KIFKEQ_clean_linker_1, # of connection points: 2
#     Edge 54, Type (0, 1), BuildingBlock: KIFKEQ_clean_linker_1, # of connection points: 2
#     Edge 55, Type (0, 1), BuildingBlock: KIFKEQ_clean_linker_1, # of connection points: 2
#     Edge 56, Type (0, 1), BuildingBlock: KIFKEQ_clean_linker_1, # of connection points: 2
#     Edge 57, Type (0, 1), BuildingBlock: KIFKEQ_clean_linker_1, # of connection points: 2
#     Edge 58, Type (0, 1), BuildingBlock: KIFKEQ_clean_linker_1, # of connection points: 2
#     Edge 59, Type (0, 1), BuildingBlock: KIFKEQ_clean_linker_1, # of connection points: 2
#     Edge 60, Type (0, 1), BuildingBlock: KIFKEQ_clean_linker_1, # of connection points: 2
#     Edge 61, Type (0, 1), BuildingBlock: KIFKEQ_clean_linker_1, # of connection points: 2
#     Edge 62, Type (0, 1), BuildingBlock: KIFKEQ_clean_linker_1, # of connection points: 2
#     Edge 63, Type (0, 1), BuildingBlock: KIFKEQ_clean_linker_1, # of connection points: 2
#     Edge 64, Type (0, 1), BuildingBlock: KIFKEQ_clean_linker_1, # of connection points: 2
#     Edge 65, Type (0, 1), BuildingBlock: KIFKEQ_clean_linker_1, # of connection points: 2
#     Edge 66, Type (0, 1), BuildingBlock: KIFKEQ_clean_linker_1, # of connection points: 2
#     Edge 67, Type (0, 1), BuildingBlock: KIFKEQ_clean_linker_1, # of connection points: 2
#     Edge 68, Type (0, 1), BuildingBlock: KIFKEQ_clean_linker_1, # of connection points: 2
#     Edge 69, Type (0, 1), BuildingBlock: KIFKEQ_clean_linker_1, # of connection points: 2
#     Edge 70, Type (0, 1), BuildingBlock: KIFKEQ_clean_linker_1, # of connection points: 2
#     Edge 71, Type (0, 1), BuildingBlock: KIFKEQ_clean_linker_1, # of connection points: 2
#     Edge 72, Type (0, 1), BuildingBlock: KIFKEQ_clean_linker_1, # of connection points: 2
#     Edge 73, Type (0, 1), BuildingBlock: KIFKEQ_clean_linker_1, # of connection points: 2
#     Edge 74, Type (0, 1), BuildingBlock: KIFKEQ_clean_linker_1, # of connection points: 2
#     Edge 75, Type (0, 1), BuildingBlock: KIFKEQ_clean_linker_1, # of connection points: 2
#     Edge 76, Type (0, 1), BuildingBlock: KIFKEQ_clean_linker_1, # of connection points: 2
#     Edge 77, Type (0, 1), BuildingBlock: KIFKEQ_clean_linker_1, # of connection points: 2
#     Edge 78, Type (0, 1), BuildingBlock: KIFKEQ_clean_linker_1, # of connection points: 2
#     Edge 79, Type (0, 1), BuildingBlock: KIFKEQ_clean_linker_1, # of connection points: 2
#     Edge 80, Type (0, 1), BuildingBlock: KIFKEQ_clean_linker_1, # of connection points: 2
# Relax obj value: 0.035
# Max RMSD: 0.131
# Mean RMSD: 0.088
data_MOF--net-eea--node1-CUWYAW_clean_sbu_0--node2-ESEHIV_clean_linker_0--edge1-KIFKEQ_clean_linker_1
_symmetry_space_group_name_H-M    P1
_symmetry_Int_Tables_number       1
_symmetry_cell_setting            triclinic
loop_
_symmetry_equiv_pos_as_xyz
'x, y, z'
_cell_length_a     48.596142
_cell_length_b     48.295454
_cell_length_c     74.492723
_cell_angle_alpha  93.414875
_cell_angle_beta   93.126362
_cell_angle_gamma 119.90683
loop_
_atom_site_label
_atom_site_type_symbol
_atom_site_fract_x
_atom_site_fract_y
_atom_site_fract_z
_atom_type_partial_charge
H0 H 0.23256 0.16835 0.43456 0.0
H1 H 0.23639 0.08119 0.4341 0.0
H2 H 0.21484 0.11 0.38446 0.0
C3 C 0.23126 0.1477 0.42712 0.0
C4 C 0.22316 0.14207 0.40829 0.0
C5 C 0.23618 0.12592 0.43656 0.0
C6 C 0.23265 0.09819 0.42701 0.0
C7 C 0.22483 0.09236 0.40828 0.0
C8 C 0.22075 0.11462 0.39897 0.0
H9 H 0.84761 0.08304 0.43797 0.0
H10 H 0.93475 0.17418 0.44157 0.0
H11 H 0.89564 0.1157 0.39053 0.0
C12 C 0.86755 0.10116 0.4317 0.0
C13 C 0.86944 0.09607 0.41323 0.0
C14 C 0.89064 0.12956 0.442 0.0
C15 C 0.91622 0.15287 0.43353 0.0
C16 C 0.91863 0.14805 0.41494 0.0
C17 C 0.89458 0.11976 0.40487 0.0
H18 H 0.84728 0.7592 0.44425 0.0
H19 H 0.93418 0.75565 0.44544 0.0
H20 H 0.89825 0.77635 0.39704 0.0
C21 C 0.8676 0.76154 0.43769 0.0
C22 C 0.87021 0.76857 0.41964 0.0
C23 C 0.8903 0.75646 0.4471 0.0
C24 C 0.91625 0.75906 0.43826 0.0
C25 C 0.91919 0.76608 0.42016 0.0
C26 C 0.89584 0.77039 0.41089 0.0
H27 H 0.07708 0.25119 0.56605 0.0
H28 H 0.16652 0.2529 0.56878 0.0
H29 H 0.11123 0.22744 0.61416 0.0
C30 C 0.09493 0.24811 0.57355 0.0
C31 C 0.09028 0.23826 0.59113 0.0
C32 C 0.12274 0.25412 0.56556 0.0
C33 C 0.14539 0.24908 0.57501 0.0
C34 C 0.14114 0.23917 0.59242 0.0
C35 C 0.11397 0.23446 0.60053 0.0
H36 H 0.76762 0.91888 0.57931 0.0
H37 H 0.76333 0.82758 0.57616 0.0
H38 H 0.79066 0.88551 0.62703 0.0
C39 C 0.76967 0.90053 0.58594 0.0
C40 C 0.77978 0.90581 0.6045 0.0
C41 C 0.76326 0.87226 0.57563 0.0
C42 C 0.76803 0.84943 0.58395 0.0
C43 C 0.77794 0.85422 0.60248 0.0
C44 C 0.78327 0.88212 0.6127 0.0
H45 H 0.07343 0.8272 0.56656 0.0
H46 H 0.15888 0.91989 0.57223 0.0
H47 H 0.10795 0.8821 0.6185 0.0
C48 C 0.09106 0.84864 0.57492 0.0
C49 C 0.08771 0.85191 0.59342 0.0
C50 C 0.11697 0.87293 0.5672 0.0
C51 C 0.1392 0.90092 0.57819 0.0
C52 C 0.13618 0.90472 0.59671 0.0
C53 C 0.11054 0.87976 0.60422 0.0
H54 H 0.90829 0.50437 0.76708 0.0
H55 H 0.90299 0.41242 0.76452 0.0
H56 H 0.87944 0.44464 0.71665 0.0
C57 C 0.90318 0.48221 0.75948 0.0
C58 C 0.89325 0.47713 0.74092 0.0
C59 C 0.90747 0.4593 0.76808 0.0
C60 C 0.90061 0.43069 0.75798 0.0
C61 C 0.8907 0.42536 0.73945 0.0
C62 C 0.88757 0.44889 0.73092 0.0
H63 H 0.5097 0.42049 0.7681 0.0
H64 H 0.59901 0.50969 0.7753 0.0
H65 H 0.57203 0.44859 0.7256 0.0
C66 C 0.53191 0.43722 0.76302 0.0
C67 C 0.53804 0.43071 0.74552 0.0
C68 C 0.55398 0.46513 0.7741 0.0
C69 C 0.58173 0.48799 0.76699 0.0
C70 C 0.58804 0.4821 0.7494 0.0
C71 C 0.56644 0.45331 0.73891 0.0
H72 H 0.50932 0.08371 0.77471 0.0
H73 H 0.59303 0.07454 0.7758 0.0
H74 H 0.56593 0.10929 0.72991 0.0
C75 C 0.52979 0.08595 0.76836 0.0
C76 C 0.53502 0.09679 0.75118 0.0
C77 C 0.55056 0.07784 0.77736 0.0
C78 C 0.57726 0.08126 0.76902 0.0
C79 C 0.58301 0.09231 0.75173 0.0
C80 C 0.56158 0.09996 0.74297 0.0
H81 H 0.74028 0.58095 0.89729 0.0
H82 H 0.82613 0.57555 0.89906 0.0
H83 H 0.77585 0.56175 0.94642 0.0
C84 C 0.75797 0.57748 0.9047 0.0
C85 C 0.75504 0.57128 0.92293 0.0
C86 C 0.78359 0.57903 0.89599 0.0
C87 C 0.8061 0.57401 0.90563 0.0
C88 C 0.80365 0.56806 0.92384 0.0
C89 C 0.77824 0.56706 0.93246 0.0
H90 H 0.43932 0.25486 0.91169 0.0
H91 H 0.4376 0.16471 0.91021 0.0
H92 H 0.46006 0.22327 0.96065 0.0
C93 C 0.44217 0.23711 0.91852 0.0
C94 C 0.45031 0.24233 0.93725 0.0
C95 C 0.43709 0.20898 0.90863 0.0
C96 C 0.44075 0.18617 0.91773 0.0
C97 C 0.44885 0.19109 0.93651 0.0
C98 C 0.45309 0.21899 0.94623 0.0
H99 H 0.7411 0.16054 0.90081 0.0
H100 H 0.82479 0.25445 0.9051 0.0
H101 H 0.77222 0.22011 0.95128 0.0
C102 C 0.75821 0.18267 0.90884 0.0
C103 C 0.75369 0.18783 0.92693 0.0
C104 C 0.78377 0.20685 0.90085 0.0
C105 C 0.80527 0.23576 0.91133 0.0
C106 C 0.80161 0.24093 0.92958 0.0
C107 C 0.77556 0.21673 0.93722 0.0
H108 H 0.57697 0.8406 0.10094 0.0
H109 H 0.57366 0.74981 0.09726 0.0
H110 H 0.55119 0.78389 0.04969 0.0
C111 C 0.57264 0.81903 0.09299 0.0
C112 C 0.56323 0.81465 0.07439 0.0
C113 C 0.57749 0.79614 0.10116 0.0
C114 C 0.57151 0.76817 0.09071 0.0
C115 C 0.56172 0.76321 0.07213 0.0
C116 C 0.55826 0.787 0.06405 0.0
H117 H 0.17492 0.76096 0.10164 0.0
H118 H 0.26322 0.85106 0.10684 0.0
H119 H 0.23864 0.78437 0.05983 0.0
C120 C 0.19689 0.77737 0.09623 0.0
C121 C 0.20374 0.76893 0.07934 0.0
C122 C 0.2184 0.80664 0.10641 0.0
C123 C 0.24663 0.82824 0.09923 0.0
C124 C 0.25378 0.82032 0.08235 0.0
C125 C 0.23255 0.79055 0.07265 0.0
H126 H 0.17661 0.42024 0.10858 0.0
H127 H 0.26451 0.41884 0.11015 0.0
H128 H 0.23087 0.44478 0.06279 0.0
C129 C 0.19738 0.4235 0.10216 0.0
C130 C 0.20147 0.4335 0.08476 0.0
C131 C 0.2196 0.41742 0.11128 0.0
C132 C 0.24697 0.42277 0.10298 0.0
C133 C 0.25162 0.43299 0.08547 0.0
C134 C 0.22824 0.43763 0.07639 0.0
H135 H 0.40925 0.91696 0.2317 0.0
H136 H 0.49695 0.91504 0.23389 0.0
H137 H 0.44206 0.89102 0.2794 0.0
C138 C 0.42663 0.91294 0.239 0.0
C139 C 0.42165 0.90272 0.25651 0.0
C140 C 0.45413 0.91817 0.23088 0.0
C141 C 0.4761 0.91194 0.24017 0.0
C142 C 0.47173 0.90206 0.25758 0.0
C143 C 0.44487 0.89806 0.26578 0.0
H144 H 0.10449 0.58846 0.24438 0.0
H145 H 0.10424 0.49909 0.24123 0.0
H146 H 0.12402 0.55382 0.2926 0.0
C147 C 0.10708 0.5704 0.25099 0.0
C148 C 0.11512 0.57485 0.26977 0.0
C149 C 0.10263 0.54295 0.24058 0.0
C150 C 0.10684 0.51999 0.24913 0.0
C151 C 0.11456 0.52391 0.26787 0.0
C152 C 0.11817 0.55104 0.27812 0.0
H153 H 0.40768 0.49344 0.23415 0.0
H154 H 0.49269 0.58645 0.24046 0.0
H155 H 0.44172 0.54721 0.28647 0.0
C156 C 0.42518 0.51473 0.24268 0.0
C157 C 0.4217 0.51751 0.26121 0.0
C158 C 0.451 0.53942 0.23512 0.0
C159 C 0.47308 0.56719 0.2463 0.0
C160 C 0.47001 0.57046 0.26484 0.0
C161 C 0.4444 0.54519 0.27219 0.0
C162 C 0.5503 0.02508 0.05648 0.0
Eu163 Eu 0.52587 0.01646 0.02324 0.0
C164 C 0.53764 0.01379 0.07394 0.0
C165 C 0.53282 0.03383 0.08624 0.0
C166 C 0.5209 0.02355 0.10272 0.0
C167 C 0.51381 0.99306 0.10746 0.0
C168 C 0.5186 0.97297 0.09513 0.0
C169 C 0.53038 0.9832 0.07857 0.0
C170 C 0.50649 0.05352 0.00746 0.0
C171 C 0.44859 0.9659 0.02175 0.0
C172 C 0.45998 0.97856 0.95382 0.0
Eu173 Eu 0.4849 0.9874 0.98697 0.0
C174 C 0.4719 0.98998 0.93624 0.0
C175 C 0.48615 0.976 0.926 0.0
C176 C 0.49677 0.98653 0.9093 0.0
C177 C 0.49327 0.01117 0.90237 0.0
C178 C 0.47922 0.02529 0.91269 0.0
C179 C 0.46859 0.01476 0.92939 0.0
C180 C 0.50451 0.95058 0.00294 0.0
C181 C 0.56215 0.03798 0.98841 0.0
O182 O 0.54933 0.00379 0.04432 0.0
O183 O 0.54274 0.04487 0.04943 0.0
O184 O 0.53445 0.06492 0.01619 0.0
O185 O 0.48977 0.02368 0.00817 0.0
O186 O 0.47727 0.97824 0.03058 0.0
O187 O 0.4447 0.97011 0.00464 0.0
O188 O 0.46101 0.99984 0.966 0.0
O189 O 0.46802 0.95904 0.96079 0.0
O190 O 0.47645 0.93898 0.99428 0.0
O191 O 0.521 0.98034 1.00202 0.0
O192 O 0.53343 0.0256 0.97962 0.0
O193 O 0.56612 0.03383 0.00553 0.0
H194 H 0.53825 0.05756 0.08312 0.0
H195 H 0.51711 0.03952 0.11173 0.0
H196 H 0.5139 0.94955 0.0984 0.0
H197 H 0.53395 0.96716 0.06947 0.0
H198 H 0.4889 0.9567 0.93079 0.0
H199 H 0.50705 0.9748 0.90161 0.0
H200 H 0.47648 0.04459 0.90787 0.0
H201 H 0.45765 0.02599 0.93691 0.0
C202 C 0.98549 0.52192 0.05646 0.0
Eu203 Eu 0.99231 0.50805 0.02323 0.0
C204 C 0.99883 0.52242 0.07469 0.0
C205 C 0.98308 0.52398 0.08955 0.0
C206 C 0.99519 0.52414 0.10701 0.0
C207 C 0.02323 0.52259 0.10989 0.0
C208 C 0.03895 0.52101 0.09488 0.0
C209 C 0.02686 0.52099 0.07741 0.0
C210 C 0.95315 0.45261 1.0026 0.0
C211 C 0.04386 0.48301 0.02159 0.0
C212 C 0.02113 0.48533 0.95403 0.0
Eu213 Eu 0.01592 0.49998 0.9874 0.0
C214 C 0.00826 0.48579 0.93566 0.0
C215 C 0.02709 0.51031 0.92505 0.0
C216 C 0.01589 0.51034 0.9074 0.0
C217 C 0.98569 0.48565 0.89985 0.0
C218 C 0.96668 0.46129 0.91053 0.0
C219 C 0.97785 0.46133 0.92824 0.0
C220 C 0.05506 0.55595 0.00778 0.0
C221 C 0.96448 0.52509 0.98893 0.0
O222 O 0.00492 0.54322 0.0464 0.0
O223 O 0.96781 0.49357 0.04757 0.0
O224 O 0.94309 0.46861 0.01204 0.0
O225 O 0.98309 0.46571 0.00498 0.0
O226 O 0.03143 0.49701 0.0314 0.0
O227 O 0.03808 0.4776 0.00385 0.0
O228 O 1.00149 0.46438 0.96421 0.0
O229 O 0.04053 0.5132 0.96307 0.0
O230 O 0.06515 0.54031 0.99801 0.0
O231 O 0.02506 0.54237 0.00562 0.0
O232 O 0.97703 0.51118 0.97916 0.0
O233 O 0.97018 0.53046 0.00669 0.0
H234 H 0.96144 0.52517 0.08765 0.0
H235 H 0.98279 0.52594 0.11828 0.0
H236 H 0.0604 0.51946 0.09659 0.0
H237 H 0.03936 0.51986 0.06607 0.0
H238 H 0.0507 0.52938 0.93035 0.0
H239 H 0.03098 0.52969 0.89964 0.0
H240 H 0.94351 0.44165 0.90506 0.0
H241 H 0.96281 0.4419 0.93598 0.0
C242 C 0.45941 0.47021 0.95363 0.0
Eu243 Eu 0.4838 0.49244 0.98684 0.0
C244 C 0.47138 0.47233 0.93565 0.0
C245 C 0.49025 0.50204 0.92888 0.0
C246 C 0.5007 0.50329 0.91164 0.0
C247 C 0.49265 0.47487 0.90085 0.0
C248 C 0.4743 0.44525 0.90787 0.0
C249 C 0.46369 0.44402 0.92502 0.0
C250 C 0.5009 0.55058 0.00345 0.0
C251 C 0.56197 0.52442 0.98846 0.0
C252 C 0.54811 0.53224 0.05648 0.0
Eu253 Eu 0.52397 0.51015 0.02321 0.0
C254 C 0.53555 0.53165 0.07422 0.0
C255 C 0.52022 0.50321 0.08273 0.0
C256 C 0.50883 0.50323 0.09958 0.0
C257 C 0.51243 0.53167 0.1083 0.0
C258 C 0.52752 0.56001 0.09966 0.0
C259 C 0.53905 0.56002 0.08287 0.0
C260 C 0.50705 0.45213 0.00645 0.0
C261 C 0.44592 0.4786 0.02153 0.0
O262 O 0.46634 0.45413 0.96479 0.0
O263 O 0.46171 0.49627 0.96162 0.0
O264 O 0.47342 0.53218 0.99425 0.0
O265 O 0.51848 0.53836 1.00265 0.0
O266 O 0.53373 0.50787 0.97897 0.0
O267 O 0.56494 0.53181 0.0061 0.0
O268 O 0.54361 0.54928 0.04487 0.0
O269 O 0.54392 0.50509 0.04886 0.0
O270 O 0.53459 0.47064 0.01558 0.0
O271 O 0.48937 0.46422 0.0074 0.0
O272 O 0.47415 0.49566 0.03098 0.0
O273 O 0.44299 0.47047 0.00399 0.0
H274 H 0.49677 0.52434 0.93681 0.0
H275 H 0.51455 0.5265 0.90665 0.0
H276 H 0.46822 0.4229 0.90016 0.0
H277 H 0.44939 0.42085 0.93 0.0
H278 H 0.51716 0.4809 0.07648 0.0
H279 H 0.49775 0.48106 0.10592 0.0
H280 H 0.53028 0.58225 0.10581 0.0
H281 H 0.55072 0.58228 0.07663 0.0
C282 C 0.21174 0.35811 0.38984 0.0
Eu283 Eu 0.1885 0.34902 0.35631 0.0
C284 C 0.19948 0.34556 0.40712 0.0
C285 C 0.18019 0.35475 0.41618 0.0
C286 C 0.16963 0.34342 0.43276 0.0
C287 C 0.17811 0.32266 0.44067 0.0
C288 C 0.19696 0.31309 0.43143 0.0
C289 C 0.20762 0.32451 0.4149 0.0
C290 C 0.171 0.38557 0.33849 0.0
C291 C 0.11085 0.29864 0.35339 0.0
C292 C 0.12725 0.30904 0.28567 0.0
Eu293 Eu 0.15015 0.31859 0.3193 0.0
C294 C 0.1401 0.32074 0.26834 0.0
C295 C 0.14564 0.30119 0.25609 0.0
C296 C 0.1574 0.31169 0.23961 0.0
C297 C 0.16361 0.34189 0.23485 0.0
C298 C 0.1582 0.36154 0.24716 0.0
C299 C 0.14658 0.3511 0.2637 0.0
C300 C 0.16718 0.28184 0.33728 0.0
C301 C 0.22774 0.36911 0.32218 0.0
O302 O 0.21283 0.33796 0.37772 0.0
O303 O 0.20228 0.37648 0.38273 0.0
O304 O 0.19815 0.3973 0.34824 0.0
O305 O 0.15398 0.35584 0.33941 0.0
O306 O 0.13883 0.31258 0.36321 0.0
O307 O 0.10839 0.30062 0.33582 0.0
O308 O 0.1264 0.32964 0.29758 0.0
O309 O 0.13609 0.29043 0.29307 0.0
O310 O 0.14014 0.27033 0.32747 0.0
O311 O 0.18445 0.31154 0.33627 0.0
O312 O 0.19975 0.35501 0.31238 0.0
O313 O 0.23027 0.36736 0.33977 0.0
H314 H 0.1735 0.371 0.41061 0.0
H315 H 0.15549 0.35162 0.43959 0.0
H316 H 0.20355 0.29673 0.43696 0.0
H317 H 0.22241 0.31697 0.40823 0.0
H318 H 0.14081 0.27765 0.25923 0.0
H319 H 0.16168 0.29608 0.2306 0.0
H320 H 0.16223 0.38473 0.24385 0.0
H321 H 0.14243 0.36675 0.27276 0.0
C322 C 0.65699 0.85819 0.38979 0.0
Eu323 Eu 0.65956 0.84028 0.35655 0.0
C324 C 0.66864 0.85619 0.40818 0.0
C325 C 0.65034 0.82957 0.41765 0.0
C326 C 0.66076 0.8283 0.43527 0.0
C327 C 0.68961 0.8537 0.44389 0.0
C328 C 0.70804 0.88021 0.43438 0.0
C329 C 0.69762 0.88149 0.41674 0.0
C330 C 0.62004 0.78268 0.33794 0.0
C331 C 0.71056 0.81428 0.35525 0.0
C332 C 0.68355 0.81071 0.28742 0.0
Eu333 Eu 0.68098 0.82875 0.32062 0.0
C334 C 0.67028 0.81067 0.26906 0.0
C335 C 0.68039 0.83929 0.26089 0.0
C336 C 0.66874 0.83851 0.24317 0.0
C337 C 0.64672 0.80913 0.23325 0.0
C338 C 0.63614 0.78063 0.24163 0.0
C339 C 0.6479 0.7814 0.25929 0.0
C340 C 0.72035 0.88629 0.33939 0.0
C341 C 0.63007 0.85472 0.32193 0.0
O342 O 0.67839 0.87691 0.37951 0.0
O343 O 0.6347 0.83138 0.38086 0.0
O344 O 0.61011 0.79907 0.34717 0.0
O345 O 0.65005 0.79653 0.33963 0.0
O346 O 0.69817 0.82856 0.36488 0.0
O347 O 0.70426 0.8079 0.33755 0.0
O348 O 0.66338 0.79144 0.29804 0.0
O349 O 0.70477 0.8385 0.29593 0.0
O350 O 0.73045 0.86993 0.33028 0.0
O351 O 0.69036 0.87239 0.3375 0.0
O352 O 0.64195 0.83988 0.31234 0.0
O353 O 0.63688 0.86165 0.33959 0.0
H354 H 0.62779 0.80975 0.41151 0.0
H355 H 0.64615 0.8074 0.44217 0.0
H356 H 0.73013 0.9004 0.44072 0.0
H357 H 0.7121 0.90253 0.40992 0.0
H358 H 0.69769 0.86228 0.26803 0.0
H359 H 0.6777 0.86087 0.23708 0.0
H360 H 0.61881 0.75763 0.2345 0.0
H361 H 0.6397 0.75899 0.26526 0.0
C362 C 0.12497 0.80567 0.28603 0.0
Eu363 Eu 0.14962 0.82704 0.31929 0.0
C364 C 0.13692 0.80928 0.26794 0.0
C365 C 0.14591 0.83742 0.25943 0.0
C366 C 0.15691 0.84037 0.2423 0.0
C367 C 0.15921 0.8153 0.23328 0.0
C368 C 0.15022 0.78719 0.2418 0.0
C369 C 0.13909 0.78417 0.25889 0.0
C370 C 0.16766 0.8853 0.33613 0.0
C371 C 0.22775 0.85823 0.32071 0.0
C372 C 0.21414 0.86598 0.38884 0.0
Eu373 Eu 0.19001 0.84418 0.35556 0.0
C374 C 0.20121 0.86432 0.40654 0.0
C375 C 0.18557 0.83525 0.41446 0.0
C376 C 0.17344 0.83418 0.43117 0.0
C377 C 0.17652 0.86207 0.44027 0.0
C378 C 0.19201 0.89107 0.4323 0.0
C379 C 0.20434 0.8922 0.41566 0.0
C380 C 0.17253 0.78616 0.33864 0.0
C381 C 0.11198 0.81269 0.35413 0.0
O382 O 0.13279 0.78967 0.29679 0.0
O383 O 0.12628 0.83087 0.29455 0.0
O384 O 0.14 0.86722 0.32708 0.0
O385 O 0.18484 0.87267 0.33511 0.0
O386 O 0.19945 0.84212 0.31122 0.0
O387 O 0.23084 0.86556 0.33836 0.0
O388 O 0.20897 0.88289 0.37744 0.0
O389 O 0.21084 0.83937 0.38097 0.0
O390 O 0.20004 0.80435 0.34786 0.0
O391 O 0.15502 0.79845 0.33967 0.0
O392 O 0.1403 0.82967 0.36349 0.0
O393 O 0.10892 0.80472 0.33656 0.0
H394 H 0.14448 0.85723 0.26598 0.0
H395 H 0.1639 0.86244 0.23617 0.0
H396 H 0.15125 0.76723 0.2351 0.0
H397 H 0.13205 0.76208 0.26501 0.0
H398 H 0.1826 0.81327 0.40778 0.0
H399 H 0.16136 0.81142 0.43688 0.0
H400 H 0.19512 0.91305 0.43909 0.0
H401 H 0.21637 0.91493 0.40991 0.0
C402 C 0.88129 0.69249 0.72345 0.0
Eu403 Eu 0.8576 0.68243 0.68997 0.0
C404 C 0.86915 0.67845 0.74046 0.0
C405 C 0.86276 0.69593 0.75367 0.0
C406 C 0.85069 0.68291 0.76965 0.0
C407 C 0.84511 0.65225 0.77288 0.0
C408 C 0.85174 0.63481 0.75974 0.0
C409 C 0.86354 0.64771 0.74367 0.0
C410 C 0.83819 0.71832 0.67286 0.0
C411 C 0.7809 0.63002 0.68806 0.0
C412 C 0.79369 0.64308 0.62008 0.0
Eu413 Eu 0.8178 0.65185 0.65341 0.0
C414 C 0.80631 0.65566 0.60282 0.0
C415 C 0.81855 0.64057 0.59176 0.0
C416 C 0.83053 0.65251 0.57554 0.0
C417 C 0.83042 0.67975 0.56991 0.0
C418 C 0.81808 0.69478 0.58096 0.0
C419 C 0.8061 0.68284 0.59718 0.0
C420 C 0.83684 0.61566 0.67045 0.0
C421 C 0.89535 0.70316 0.65547 0.0
O422 O 0.88508 0.67453 0.71107 0.0
O423 O 0.86912 0.70883 0.7166 0.0
O424 O 0.86591 0.73037 0.68198 0.0
O425 O 0.82175 0.68858 0.67391 0.0
O426 O 0.80951 0.64302 0.69703 0.0
O427 O 0.7771 0.63384 0.67085 0.0
O428 O 0.79328 0.6634 0.63238 0.0
O429 O 0.80247 0.62406 0.62702 0.0
O430 O 0.80929 0.60371 0.66111 0.0
O431 O 0.85342 0.64545 0.66949 0.0
O432 O 0.86699 0.68881 0.64603 0.0
O433 O 0.89868 0.70133 0.673 0.0
H434 H 0.86705 0.71974 0.75164 0.0
H435 H 0.84623 0.6971 0.77962 0.0
H436 H 0.84748 0.61103 0.76182 0.0
H437 H 0.86814 0.63352 0.73377 0.0
H438 H 0.81897 0.6195 0.59563 0.0
H439 H 0.84014 0.64053 0.56747 0.0
H440 H 0.81713 0.71549 0.57691 0.0
H441 H 0.79658 0.69489 0.60528 0.0
C442 C 0.32295 0.18786 0.72383 0.0
Eu443 Eu 0.32657 0.1724 0.69029 0.0
C444 C 0.3364 0.18714 0.742 0.0
C445 C 0.3227 0.15897 0.75083 0.0
C446 C 0.33488 0.15885 0.76824 0.0
C447 C 0.36097 0.18688 0.77722 0.0
C448 C 0.37477 0.21498 0.76834 0.0
C449 C 0.36255 0.21513 0.75096 0.0
C450 C 0.28709 0.11552 0.67096 0.0
C451 C 0.37836 0.14773 0.68821 0.0
C452 C 0.34927 0.14446 0.62058 0.0
Eu453 Eu 0.34791 0.16223 0.65403 0.0
C454 C 0.33613 0.1461 0.60256 0.0
C455 C 0.34803 0.17531 0.59479 0.0
C456 C 0.33569 0.17619 0.57758 0.0
C457 C 0.31116 0.14796 0.56783 0.0
C458 C 0.29913 0.11885 0.57568 0.0
C459 C 0.31158 0.11792 0.59282 0.0
C460 C 0.38757 0.21961 0.67289 0.0
C461 C 0.29738 0.18865 0.65623 0.0
O462 O 0.34274 0.20825 0.71351 0.0
O463 O 0.30248 0.16027 0.71486 0.0
O464 O 0.27714 0.13175 0.68031 0.0
O465 O 0.3171 0.12925 0.67277 0.0
O466 O 0.36621 0.16198 0.69806 0.0
O467 O 0.37153 0.14125 0.67054 0.0
O468 O 0.32866 0.1255 0.63112 0.0
O469 O 0.37165 0.17144 0.62932 0.0
O470 O 0.39735 0.20383 0.66296 0.0
O471 O 0.35751 0.20546 0.67153 0.0
O472 O 0.3096 0.17457 0.64628 0.0
O473 O 0.30355 0.19422 0.67396 0.0
H474 H 0.3024 0.13701 0.74438 0.0
H475 H 0.32389 0.13676 0.77467 0.0
H476 H 0.39457 0.2371 0.775 0.0
H477 H 0.37338 0.23732 0.7446 0.0
H478 H 0.36695 0.1975 0.60193 0.0
H479 H 0.34527 0.199 0.57191 0.0
H480 H 0.28055 0.09662 0.56838 0.0
H481 H 0.30214 0.09506 0.59843 0.0
C482 C 0.79308 0.13492 0.61992 0.0
Eu483 Eu 0.81691 0.15788 0.65312 0.0
C484 C 0.80626 0.13764 0.60223 0.0
C485 C 0.82277 0.16735 0.59503 0.0
C486 C 0.83554 0.16937 0.57844 0.0
C487 C 0.83234 0.14183 0.56881 0.0
C488 C 0.81589 0.11219 0.57606 0.0
C489 C 0.80288 0.11012 0.59254 0.0
C490 C 0.8334 0.21623 0.66919 0.0
C491 C 0.89523 0.19065 0.65468 0.0
C492 C 0.8816 0.19862 0.72267 0.0
Eu493 Eu 0.85746 0.17697 0.68935 0.0
C494 C 0.86893 0.19802 0.74039 0.0
C495 C 0.85987 0.17166 0.75056 0.0
C496 C 0.84816 0.1713 0.76733 0.0
C497 C 0.84544 0.19737 0.7744 0.0
C498 C 0.85447 0.22371 0.76423 0.0
C499 C 0.86615 0.22407 0.74745 0.0
C500 C 0.84065 0.11855 0.67308 0.0
C501 C 0.77962 0.14501 0.68788 0.0
O502 O 0.80019 0.11931 0.63132 0.0
O503 O 0.79424 0.16054 0.62775 0.0
O504 O 0.80582 0.19723 0.66022 0.0
O505 O 0.85134 0.2044 0.6685 0.0
O506 O 0.86696 0.17341 0.64528 0.0
O507 O 0.89824 0.19878 0.67222 0.0
O508 O 0.87786 0.21608 0.71105 0.0
O509 O 0.87677 0.17125 0.71501 0.0
O510 O 0.86839 0.13754 0.68184 0.0
O511 O 0.82291 0.13053 0.67402 0.0
O512 O 0.80793 0.1642 0.69687 0.0
O513 O 0.77666 0.13478 0.67065 0.0
H514 H 0.82601 0.18909 0.60222 0.0
H515 H 0.84831 0.19257 0.57327 0.0
H516 H 0.81268 0.09048 0.56884 0.0
H517 H 0.79024 0.08694 0.59777 0.0
H518 H 0.86198 0.15131 0.74563 0.0
H519 H 0.84186 0.15086 0.77493 0.0
H520 H 0.85237 0.24405 0.7692 0.0
H521 H 0.87305 0.24481 0.74002 0.0
H522 H 0.27395 0.88233 0.0762 0.0
H523 H 0.29996 0.80907 0.07108 0.0
H524 H 0.32152 0.91881 0.0618 0.0
H525 H 0.34776 0.84564 0.05703 0.0
H526 H 0.44656 0.93557 0.05177 0.0
H527 H 0.39989 0.90128 0.06718 0.0
H528 H 0.34021 0.91695 0.029 0.0
H529 H 0.38685 0.95094 0.0133 0.0
C530 C 0.29006 0.87424 0.07216 0.0
C531 C 0.28343 0.843 0.07471 0.0
C532 C 0.31707 0.89495 0.06385 0.0
C533 C 0.3382 0.88495 0.05832 0.0
C534 C 0.3319 0.85395 0.06126 0.0
C535 C 0.3046 0.83305 0.06922 0.0
C536 C 0.42352 0.93184 0.04668 0.0
C537 C 0.42035 0.94593 0.0313 0.0
C538 C 0.39684 0.91211 0.05547 0.0
C539 C 0.36655 0.90655 0.04926 0.0
C540 C 0.36339 0.92107 0.0341 0.0
C541 C 0.39001 0.94034 0.02508 0.0
H542 H 0.17131 0.41051 0.05071 0.0
H543 H 0.17839 0.47095 0.09783 0.0
H544 H 0.13182 0.42056 0.03552 0.0
H545 H 0.14 0.48226 0.08252 0.0
H546 H 0.04924 0.474 0.05721 0.0
H547 H 0.08608 0.46054 0.07235 0.0
H548 H 0.12568 0.45983 0.02183 0.0
H549 H 0.08789 0.47189 0.00663 0.0
C550 C 0.16459 0.42622 0.05772 0.0
C551 C 0.1778 0.43992 0.07542 0.0
C552 C 0.14206 0.43213 0.04902 0.0
C553 C 0.1326 0.45228 0.05775 0.0
C554 C 0.1461 0.4661 0.07547 0.0
C555 C 0.16826 0.4598 0.08423 0.0
C556 C 0.06577 0.47088 0.04935 0.0
C557 C 0.06566 0.47403 0.03073 0.0
C558 C 0.08707 0.46333 0.05804 0.0
C559 C 0.10909 0.4592 0.04837 0.0
C560 C 0.10878 0.46224 0.0297 0.0
C561 C 0.08718 0.46934 0.02097 0.0
H562 H 0.51437 0.72925 0.04452 0.0
H563 H 0.59161 0.72786 0.07535 0.0
H564 H 0.5013 0.67931 0.02735 0.0
H565 H 0.57667 0.67637 0.05928 0.0
H566 H 0.56089 0.59802 0.01608 0.0
H567 H 0.5766 0.65019 0.0319 0.0
H568 H 0.4774 0.62447 0.02981 0.0
H569 H 0.46217 0.57319 0.01316 0.0
C570 C 0.52868 0.7184 0.04764 0.0
C571 C 0.55412 0.73278 0.06138 0.0
C572 C 0.52076 0.68932 0.03798 0.0
C573 C 0.53767 0.67345 0.04199 0.0
C574 C 0.56327 0.68794 0.05563 0.0
C575 C 0.57154 0.71733 0.06509 0.0
C576 C 0.54256 0.60371 0.01899 0.0
C577 C 0.51038 0.58179 0.01334 0.0
C578 C 0.55148 0.63351 0.02817 0.0
C579 C 0.52832 0.64177 0.03214 0.0
C580 C 0.49603 0.61941 0.02665 0.0
C581 C 0.48721 0.58988 0.01722 0.0
H582 H 0.78892 0.2744 0.95576 0.0
H583 H 0.86636 0.27791 0.92806 0.0
H584 H 0.82608 0.3246 0.97344 0.0
H585 H 0.90305 0.32967 0.94457 0.0
H586 H 0.96714 0.40739 0.98978 0.0
H587 H 0.93088 0.35587 0.97247 0.0
H588 H 0.85583 0.37946 0.97168 0.0
H589 H 0.89166 0.42989 0.98985 0.0
C590 C 0.81386 0.2858 0.95341 0.0
C591 C 0.82449 0.27188 0.94043 0.0
C592 C 0.83518 0.31506 0.96335 0.0
C593 C 0.86768 0.33157 0.96038 0.0
C594 C 0.87833 0.31762 0.94743 0.0
C595 C 0.8571 0.28806 0.9377 0.0
C596 C 0.94285 0.4014 0.98587 0.0
C597 C 0.93202 0.42234 0.99126 0.0
C598 C 0.92207 0.37197 0.97584 0.0
C599 C 0.89019 0.36319 0.97073 0.0
C600 C 0.87985 0.38484 0.97575 0.0
C601 C 0.90044 0.41391 0.98604 0.0
H602 H 0.75498 0.60007 0.9556 0.0
H603 H 0.69219 0.53412 0.91063 0.0
H604 H 0.70898 0.59185 0.97117 0.0
H605 H 0.64609 0.52455 0.92639 0.0
H606 H 0.56735 0.52997 0.9524 0.0
H607 H 0.61425 0.54454 0.93636 0.0
H608 H 0.66852 0.55438 0.98672 0.0
H609 H 0.62193 0.54141 1.00281 0.0
C610 C 0.73125 0.58375 0.94909 0.0
C611 C 0.72711 0.56777 0.93191 0.0
C612 C 0.70483 0.57881 0.95804 0.0
C613 C 0.67359 0.55734 0.95016 0.0
C614 C 0.66962 0.54171 0.93282 0.0
C615 C 0.69605 0.54707 0.92376 0.0
C616 C 0.58939 0.53548 0.96005 0.0
C617 C 0.59092 0.53452 0.97888 0.0
C618 C 0.6163 0.54363 0.95083 0.0
C619 C 0.64535 0.5505 0.96015 0.0
C620 C 0.64686 0.54984 0.97905 0.0
C621 C 0.62005 0.5422 0.98831 0.0
H622 H 0.42359 0.16275 0.96675 0.0
H623 H 0.48779 0.16814 0.92749 0.0
H624 H 0.43617 0.12739 0.9833 0.0
H625 H 0.50068 0.13319 0.94415 0.0
H626 H 0.54515 0.11116 0.99529 0.0
H627 H 0.52942 0.14237 0.97701 0.0
H628 H 0.43044 0.06959 0.977 0.0
H629 H 0.44623 0.03797 0.99503 0.0
C630 C 0.44023 0.15619 0.96165 0.0
C631 C 0.45473 0.16808 0.94588 0.0
C632 C 0.44729 0.13591 0.97103 0.0
C633 C 0.46944 0.12774 0.96499 0.0
C634 C 0.48364 0.13931 0.9491 0.0
C635 C 0.47613 0.15908 0.93954 0.0
C636 C 0.52005 0.10187 0.99138 0.0
C637 C 0.49686 0.07231 0.9966 0.0
C638 C 0.5111 0.11958 0.98085 0.0
C639 C 0.47875 0.10831 0.97564 0.0
C640 C 0.45552 0.0788 0.98093 0.0
C641 C 0.46453 0.06077 0.99119 0.0
H642 H 0.73543 0.12547 0.93181 0.0
H643 H 0.70804 0.19722 0.94031 0.0
H644 H 0.68894 0.08741 0.94661 0.0
H645 H 0.66139 0.15918 0.95461 0.0
H646 H 0.56352 0.06805 0.95844 0.0
H647 H 0.60976 0.1028 0.94294 0.0
H648 H 0.67057 0.08788 0.98068 0.0
H649 H 0.62424 0.05337 0.99655 0.0
C650 C 0.71928 0.1329 0.93672 0.0
C651 C 0.72512 0.16412 0.93498 0.0
C652 C 0.69292 0.11131 0.94523 0.0
C653 C 0.67169 0.12046 0.95171 0.0
C654 C 0.67733 0.15153 0.94965 0.0
C655 C 0.70396 0.17324 0.94153 0.0
C656 C 0.58669 0.07198 0.96342 0.0
C657 C 0.59026 0.05803 0.97877 0.0
C658 C 0.61312 0.09194 0.95456 0.0
C659 C 0.64362 0.09792 0.96063 0.0
C660 C 0.64721 0.08342 0.97569 0.0
C661 C 0.62078 0.06389 0.98481 0.0
H662 H 0.83593 0.59538 0.95712 0.0
H663 H 0.82491 0.52791 0.91274 0.0
H664 H 0.87616 0.58699 0.97291 0.0
H665 H 0.86412 0.51849 0.92866 0.0
H666 H 0.95667 0.53017 0.95293 0.0
H667 H 0.91894 0.54207 0.93749 0.0
H668 H 0.88349 0.54963 0.98847 0.0
H669 H 0.92222 0.53909 0.00398 0.0
C670 C 0.84193 0.5785 0.95086 0.0
C671 C 0.82745 0.56239 0.9337 0.0
C672 C 0.86489 0.57358 0.9599 0.0
C673 C 0.87358 0.55212 0.95207 0.0
C674 C 0.85867 0.53574 0.93497 0.0
C675 C 0.83604 0.54097 0.92586 0.0
C676 C 0.94096 0.53458 0.96086 0.0
C677 C 0.94246 0.53369 0.97968 0.0
C678 C 0.91911 0.54118 0.95198 0.0
C679 C 0.89788 0.54659 0.96167 0.0
C680 C 0.8997 0.54606 0.98056 0.0
C681 C 0.92185 0.53986 0.98947 0.0
H682 H 0.49136 0.3027 0.92924 0.0
H683 H 0.42544 0.25074 0.96775 0.0
H684 H 0.50441 0.35358 0.94599 0.0
H685 H 0.43818 0.30181 0.9844 0.0
H686 H 0.44718 0.4041 0.99379 0.0
H687 H 0.43238 0.35257 0.97698 0.0
H688 H 0.5317 0.37964 0.97906 0.0
H689 H 0.54645 0.43075 0.99614 0.0
C690 C 0.47951 0.30225 0.94121 0.0
C691 C 0.45742 0.27292 0.94724 0.0
C692 C 0.48707 0.33126 0.95082 0.0
C693 C 0.47227 0.33148 0.96644 0.0
C694 C 0.44976 0.30218 0.97233 0.0
C695 C 0.44263 0.27309 0.9629 0.0
C696 C 0.46577 0.39892 0.99067 0.0
C697 C 0.49792 0.42123 0.99627 0.0
C698 C 0.45731 0.3695 0.98115 0.0
C699 C 0.48094 0.36229 0.97677 0.0
C700 C 0.51309 0.38477 0.98222 0.0
C701 C 0.52148 0.41387 0.99203 0.0
H702 H 0.19011 0.75566 0.04244 0.0
H703 H 0.16562 0.7106 0.09219 0.0
H704 H 0.15419 0.70389 0.02525 0.0
H705 H 0.12819 0.65952 0.0748 0.0
H706 H 0.03806 0.59244 0.0287 0.0
H707 H 0.07375 0.64389 0.04664 0.0
H708 H 0.15522 0.64253 0.02743 0.0
H709 H 0.11981 0.59041 0.01021 0.0
C710 C 0.17725 0.73489 0.04976 0.0
C711 C 0.18103 0.73753 0.06879 0.0
C712 C 0.15649 0.70536 0.03987 0.0
C713 C 0.13854 0.67805 0.04879 0.0
C714 C 0.1417 0.68049 0.06771 0.0
C715 C 0.16298 0.70984 0.07762 0.0
C716 C 0.06357 0.60286 0.02856 0.0
C717 C 0.0762 0.58723 0.0183 0.0
C718 C 0.08389 0.63228 0.03871 0.0
C719 C 0.11703 0.64686 0.03833 0.0
C720 C 0.12967 0.63159 0.02786 0.0
C721 C 0.10943 0.60185 0.01806 0.0
H722 H 0.28494 0.40056 0.08773 0.0
H723 H 0.28485 0.47941 0.06306 0.0
H724 H 0.33207 0.41046 0.0727 0.0
H725 H 0.33059 0.48773 0.04736 0.0
H726 H 0.38678 0.46325 0.00676 0.0
H727 H 0.33987 0.45138 0.02259 0.0
H728 H 0.3924 0.46061 0.07333 0.0
H729 H 0.43965 0.4732 0.05761 0.0
C730 C 0.2949 0.42005 0.07923 0.0
C731 C 0.28071 0.439 0.07658 0.0
C732 C 0.32177 0.42552 0.07054 0.0
C733 C 0.33467 0.44962 0.05876 0.0
C734 C 0.32075 0.46865 0.05616 0.0
C735 C 0.29436 0.46366 0.0651 0.0
C736 C 0.38827 0.46249 0.02126 0.0
C737 C 0.41691 0.4692 0.03093 0.0
C738 C 0.36149 0.45586 0.03031 0.0
C739 C 0.36262 0.45514 0.04915 0.0
C740 C 0.39092 0.46089 0.05879 0.0
C741 C 0.41793 0.4682 0.04979 0.0
H742 H 0.52449 0.83754 0.08412 0.0
H743 H 0.5891 0.84457 0.04478 0.0
H744 H 0.51117 0.87258 0.06774 0.0
H745 H 0.57615 0.87989 0.02855 0.0
H746 H 0.56481 0.96682 0.01548 0.0
H747 H 0.58103 0.93647 0.0343 0.0
H748 H 0.48225 0.86373 0.03519 0.0
H749 H 0.46606 0.89378 0.01615 0.0
C750 C 0.53619 0.84704 0.07215 0.0
C751 C 0.55773 0.8384 0.06564 0.0
C752 C 0.52844 0.86684 0.06274 0.0
C753 C 0.54259 0.87877 0.04689 0.0
C754 C 0.56506 0.87112 0.04079 0.0
C755 C 0.57235 0.85087 0.05 0.0
C756 C 0.54663 0.94433 0.01971 0.0
C757 C 0.51424 0.93242 0.01429 0.0
C758 C 0.55589 0.92703 0.03044 0.0
C759 C 0.53286 0.89786 0.03619 0.0
C760 C 0.50043 0.88629 0.03103 0.0
C761 C 0.49121 0.9033 0.02004 0.0
H762 H 0.95197 0.21417 0.4212 0.0
H763 H 0.94954 0.13558 0.38869 0.0
H764 H 0.99804 0.25224 0.40652 0.0
H765 H 0.99435 0.17366 0.37362 0.0
H766 H 0.05192 0.25299 0.33759 0.0
H767 H 0.00499 0.21798 0.35262 0.0
H768 H 0.05672 0.26493 0.40453 0.0
H769 H 0.10387 0.29981 0.38958 0.0
C770 C 0.96117 0.20493 0.411 0.0
C771 C 0.94668 0.17167 0.40608 0.0
C772 C 0.98745 0.22678 0.40254 0.0
C773 C 0.99951 0.21588 0.38882 0.0
C774 C 0.98516 0.18276 0.38392 0.0
C775 C 0.95931 0.16095 0.39253 0.0
C776 C 0.05323 0.25609 0.35219 0.0
C777 C 0.08166 0.27911 0.36238 0.0
C778 C 0.02641 0.23593 0.36078 0.0
C779 C 0.02729 0.23871 0.37972 0.0
C780 C 0.05535 0.26242 0.3899 0.0
C781 C 0.08235 0.28225 0.38133 0.0
H782 H 0.84886 0.80827 0.4315 0.0
H783 H 0.83788 0.74234 0.38627 0.0
H784 H 0.81008 0.81868 0.4159 0.0
H785 H 0.79798 0.75154 0.37083 0.0
H786 H 0.75277 0.80022 0.34029 0.0
H787 H 0.79111 0.78915 0.35573 0.0
H788 H 0.75587 0.79699 0.40675 0.0
H789 H 0.71858 0.80957 0.39134 0.0
C790 C 0.8378 0.79573 0.41827 0.0
C791 C 0.84635 0.77452 0.41008 0.0
C792 C 0.8154 0.80152 0.40934 0.0
C793 C 0.80064 0.78588 0.39207 0.0
C794 C 0.80916 0.76448 0.38395 0.0
C795 C 0.83193 0.75906 0.39281 0.0
C796 C 0.75312 0.79944 0.3548 0.0
C797 C 0.73266 0.80583 0.36458 0.0
C798 C 0.77504 0.79291 0.36367 0.0
C799 C 0.77676 0.79216 0.38255 0.0
C800 C 0.75579 0.79798 0.39227 0.0
C801 C 0.73418 0.80497 0.38341 0.0
H802 H 0.18518 0.03174 0.41646 0.0
H803 H 0.25079 0.08484 0.37807 0.0
H804 H 0.17226 0.98124 0.39926 0.0
H805 H 0.23816 0.03422 0.36098 0.0
H806 H 0.22775 0.9322 0.349 0.0
H807 H 0.24332 0.98281 0.36711 0.0
H808 H 0.14439 0.95688 0.36603 0.0
H809 H 0.12885 0.90664 0.34767 0.0
C810 C 0.19712 0.03252 0.40447 0.0
C811 C 0.21895 0.06205 0.39854 0.0
C812 C 0.1896 0.00373 0.39461 0.0
C813 C 0.20419 0.00399 0.37882 0.0
C814 C 0.22673 0.03348 0.37317 0.0
C815 C 0.23382 0.06232 0.38286 0.0
C816 C 0.20941 0.93744 0.35262 0.0
C817 C 0.17715 0.91572 0.34694 0.0
C818 C 0.21831 0.96631 0.3629 0.0
C819 C 0.19501 0.97355 0.36794 0.0
C820 C 0.16273 0.95167 0.36239 0.0
C821 C 0.1539 0.9231 0.35183 0.0
H822 H 0.45733 0.60114 0.2926 0.0
H823 H 0.53463 0.60872 0.26311 0.0
H824 H 0.49405 0.65096 0.31077 0.0
H825 H 0.5708 0.66009 0.2802 0.0
H826 H 0.63513 0.73844 0.32486 0.0
H827 H 0.59936 0.6863 0.30801 0.0
H828 H 0.52184 0.70608 0.30926 0.0
H829 H 0.5573 0.7572 0.32691 0.0
C830 C 0.48217 0.61331 0.28999 0.0
C831 C 0.49286 0.60071 0.27631 0.0
C832 C 0.50321 0.64235 0.30023 0.0
C833 C 0.53547 0.65996 0.29688 0.0
C834 C 0.54626 0.64719 0.28334 0.0
C835 C 0.52531 0.61786 0.2733 0.0
C836 C 0.61038 0.73145 0.32153 0.0
C837 C 0.59885 0.75164 0.32726 0.0
C838 C 0.58988 0.70167 0.31177 0.0
C839 C 0.55751 0.69169 0.30729 0.0
C840 C 0.54632 0.7124 0.31281 0.0
C841 C 0.56669 0.74188 0.32281 0.0
H842 H 0.38796 0.85619 0.27875 0.0
H843 H 0.38845 0.93528 0.25407 0.0
H844 H 0.34229 0.84813 0.29442 0.0
H845 H 0.34139 0.9257 0.26911 0.0
H846 H 0.23405 0.86447 0.28465 0.0
H847 H 0.28106 0.8767 0.26877 0.0
H848 H 0.33335 0.88403 0.31922 0.0
H849 H 0.2867 0.87247 0.33521 0.0
C850 C 0.37858 0.87204 0.2767 0.0
C851 C 0.39242 0.89674 0.26525 0.0
C852 C 0.35223 0.86721 0.28563 0.0
C853 C 0.33851 0.88643 0.28306 0.0
C854 C 0.35153 0.91049 0.27127 0.0
C855 C 0.37837 0.91579 0.26257 0.0
C856 C 0.25567 0.86898 0.29238 0.0
C857 C 0.25667 0.8675 0.3112 0.0
C858 C 0.28255 0.8761 0.28329 0.0
C859 C 0.31072 0.88119 0.29278 0.0
C860 C 0.31184 0.88004 0.31159 0.0
C861 C 0.2852 0.87358 0.32074 0.0
H862 H 0.08713 0.49246 0.29682 0.0
H863 H 0.15535 0.50318 0.25911 0.0
H864 H 0.09969 0.45673 0.31295 0.0
H865 H 0.16825 0.46782 0.27539 0.0
H866 H 0.20999 0.44408 0.32731 0.0
H867 H 0.19469 0.47528 0.30871 0.0
H868 H 0.09601 0.40035 0.30592 0.0
H869 H 0.11136 0.36884 0.32427 0.0
C870 C 0.10463 0.48694 0.29195 0.0
C871 C 0.1203 0.50046 0.27677 0.0
C872 C 0.11169 0.46647 0.30109 0.0
C873 C 0.13498 0.45971 0.2954 0.0
C874 C 0.15032 0.47285 0.28006 0.0
C875 C 0.14282 0.49285 0.27072 0.0
C876 C 0.18507 0.4343 0.32268 0.0
C877 C 0.1618 0.40422 0.32725 0.0
C878 C 0.17637 0.452 0.31196 0.0
C879 C 0.14421 0.44013 0.30593 0.0
C880 C 0.12094 0.41001 0.31049 0.0
C881 C 0.12971 0.39204 0.32093 0.0
H882 H 0.42125 0.48866 0.29172 0.0
H883 H 0.35896 0.49006 0.24871 0.0
H884 H 0.37503 0.4503 0.30599 0.0
H885 H 0.31263 0.45275 0.26322 0.0
H886 H 0.23398 0.36752 0.28596 0.0
H887 H 0.2811 0.40022 0.27074 0.0
H888 H 0.33414 0.44783 0.32241 0.0
H889 H 0.28733 0.41404 0.33764 0.0
C890 C 0.39759 0.4807 0.28534 0.0
C891 C 0.39366 0.49231 0.26912 0.0
C892 C 0.37106 0.45889 0.29356 0.0
C893 C 0.33991 0.44848 0.28589 0.0
C894 C 0.33612 0.4597 0.26943 0.0
C895 C 0.36268 0.48119 0.26109 0.0
C896 C 0.25578 0.38482 0.29409 0.0
C897 C 0.25688 0.38818 0.31304 0.0
C898 C 0.28281 0.40378 0.28533 0.0
C899 C 0.31157 0.42692 0.29527 0.0
C900 C 0.31268 0.42995 0.31427 0.0
C901 C 0.28574 0.41068 0.32304 0.0
H902 H 0.49386 0.86338 0.24523 0.0
H903 H 0.50252 0.92648 0.29137 0.0
H904 H 0.5322 0.85234 0.26084 0.0
H905 H 0.54213 0.91688 0.30682 0.0
H906 H 0.58719 0.86775 0.33683 0.0
H907 H 0.54901 0.87902 0.32138 0.0
H908 H 0.58593 0.87355 0.27057 0.0
H909 H 0.62296 0.86062 0.28597 0.0
C910 C 0.50433 0.87515 0.25868 0.0
C911 C 0.49526 0.89571 0.26713 0.0
C912 C 0.52649 0.86904 0.26762 0.0
C913 C 0.54053 0.88378 0.28514 0.0
C914 C 0.53149 0.90458 0.2935 0.0
C915 C 0.50891 0.91026 0.28465 0.0
C916 C 0.58721 0.86908 0.32236 0.0
C917 C 0.60805 0.86324 0.31262 0.0
C918 C 0.56539 0.87573 0.31348 0.0
C919 C 0.5642 0.87723 0.29466 0.0
C920 C 0.58557 0.87196 0.28499 0.0
C921 C 0.60702 0.86477 0.29384 0.0
H922 H 0.16066 0.60852 0.29816 0.0
H923 H 0.08481 0.60971 0.26569 0.0
H924 H 0.17253 0.65809 0.31523 0.0
H925 H 0.09857 0.66092 0.28179 0.0
H926 H 0.11269 0.73901 0.32523 0.0
H927 H 0.09743 0.68702 0.3092 0.0
H928 H 0.1967 0.71289 0.3123 0.0
H929 H 0.21145 0.76387 0.32906 0.0
C930 C 0.14637 0.61923 0.29467 0.0
C931 C 0.12172 0.60493 0.2805 0.0
C932 C 0.15361 0.64811 0.30428 0.0
C933 C 0.13682 0.66388 0.29979 0.0
C934 C 0.11188 0.64942 0.28576 0.0
C935 C 0.10429 0.62021 0.27632 0.0
C936 C 0.13111 0.73337 0.32248 0.0
C937 C 0.16317 0.7552 0.32848 0.0
C938 C 0.12245 0.7037 0.3132 0.0
C939 C 0.14578 0.69552 0.30952 0.0
C940 C 0.17795 0.71788 0.31526 0.0
C941 C 0.18649 0.74724 0.32477 0.0
H942 H 0.8331 0.08682 0.38171 0.0
H943 H 0.85321 0.03604 0.42135 0.0
H944 H 0.79543 0.03548 0.36416 0.0
H945 H 0.81609 0.98488 0.40368 0.0
H946 H 0.70532 0.93088 0.3519 0.0
H947 H 0.74065 0.98218 0.37009 0.0
H948 H 0.81726 0.96126 0.3705 0.0
H949 H 0.78229 0.91044 0.352 0.0
C950 C 0.82938 0.06466 0.38663 0.0
C951 C 0.84593 0.06525 0.40284 0.0
C952 C 0.80781 0.03541 0.37669 0.0
C953 C 0.80301 0.00638 0.38261 0.0
C954 C 0.81952 0.00699 0.39883 0.0
C955 C 0.84057 0.03615 0.40894 0.0
C956 C 0.72974 0.93735 0.35587 0.0
C957 C 0.74122 0.9169 0.35052 0.0
C958 C 0.74988 0.96663 0.36619 0.0
C959 C 0.78157 0.97552 0.37164 0.0
C960 C 0.79286 0.95482 0.36651 0.0
C961 C 0.77294 0.92589 0.35589 0.0
H962 H 0.91919 0.73787 0.3873 0.0
H963 H 0.98211 0.80358 0.43229 0.0
H964 H 0.96511 0.74622 0.37161 0.0
H965 H 0.02816 0.8134 0.41639 0.0
H966 H 0.10688 0.80799 0.39028 0.0
H967 H 0.06013 0.79381 0.40638 0.0
H968 H 0.00552 0.78305 0.35597 0.0
H969 H 0.05195 0.79553 0.33984 0.0
C970 C 0.94295 0.75422 0.39378 0.0
C971 C 0.94714 0.77003 0.411 0.0
C972 C 0.96933 0.75924 0.38475 0.0
C973 C 1.00061 0.78068 0.3926 0.0
C974 C 0.00463 0.79625 0.40997 0.0
C975 C 0.97822 0.79077 0.41911 0.0
C976 C 0.08479 0.80235 0.38263 0.0
C977 C 0.08311 0.80286 0.36377 0.0
C978 C 0.05795 0.79444 0.3919 0.0
C979 C 0.02884 0.78742 0.38259 0.0
C980 C 0.02721 0.7877 0.36365 0.0
C981 C 0.05393 0.79505 0.35436 0.0
H982 H 0.25185 0.20794 0.41374 0.0
H983 H 0.17666 0.12519 0.38061 0.0
H984 H 0.23791 0.24267 0.39789 0.0
H985 H 0.16454 0.15986 0.36394 0.0
H986 H 0.12713 0.22359 0.34806 0.0
H987 H 0.14064 0.19131 0.36645 0.0
H988 H 0.24033 0.26461 0.36996 0.0
H989 H 0.2263 0.29753 0.35221 0.0
C990 C 0.23244 0.19714 0.40306 0.0
C991 C 0.2155 0.16371 0.39844 0.0
C992 C 0.22472 0.21712 0.3938 0.0
C993 C 0.20004 0.20415 0.37961 0.0
C994 C 0.18331 0.17076 0.37497 0.0
C995 C 0.19071 0.15083 0.38435 0.0
C996 C 0.1519 0.23277 0.35282 0.0
C997 C 0.17572 0.26284 0.34863 0.0
C998 C 0.15973 0.21422 0.36328 0.0
C999 C 0.19168 0.22508 0.36953 0.0
C1000 C 0.21546 0.25556 0.36556 0.0
C1001 C 0.20751 0.27435 0.35529 0.0
H1002 H 0.60723 0.54416 0.74373 0.0
H1003 H 0.63469 0.47209 0.73786 0.0
H1004 H 0.65415 0.58126 0.72898 0.0
H1005 H 0.68186 0.50925 0.72355 0.0
H1006 H 0.77967 0.60006 0.71807 0.0
H1007 H 0.73353 0.56551 0.73372 0.0
H1008 H 0.67243 0.57945 0.69565 0.0
H1009 H 0.71864 0.61374 0.67965 0.0
C1010 C 0.62357 0.53651 0.73949 0.0
C1011 C 0.61756 0.50544 0.74192 0.0
C1012 C 0.65017 0.55754 0.73096 0.0
C1013 C 0.67151 0.54802 0.72513 0.0
C1014 C 0.66584 0.5172 0.728 0.0
C1015 C 0.63894 0.49599 0.73615 0.0
C1016 C 0.75644 0.59589 0.71303 0.0
C1017 C 0.75277 0.6096 0.69759 0.0
C1018 C 0.73005 0.57602 0.72197 0.0
C1019 C 0.69951 0.56991 0.71589 0.0
C1020 C 0.69581 0.58401 0.70066 0.0
C1021 C 0.72217 0.60342 0.69146 0.0
H1022 H 0.514 0.13619 0.76414 0.0
H1023 H 0.50529 0.07481 0.71708 0.0
H1024 H 0.47654 0.14874 0.74879 0.0
H1025 H 0.4666 0.08592 0.70191 0.0
H1026 H 0.42182 0.13604 0.67295 0.0
H1027 H 0.46024 0.12467 0.68804 0.0
H1028 H 0.42281 0.12788 0.73901 0.0
H1029 H 0.38556 0.14089 0.72399 0.0
C1030 C 0.50377 0.12519 0.75053 0.0
C1031 C 0.5125 0.10461 0.74176 0.0
C1032 C 0.48212 0.13216 0.74175 0.0
C1033 C 0.46828 0.11827 0.72408 0.0
C1034 C 0.4771 0.09758 0.71536 0.0
C1035 C 0.49916 0.09105 0.72406 0.0
C1036 C 0.42177 0.13422 0.68737 0.0
C1037 C 0.40069 0.13938 0.69728 0.0
C1038 C 0.44372 0.12752 0.69605 0.0
C1039 C 0.44478 0.12531 0.71481 0.0
C1040 C 0.42326 0.13003 0.72463 0.0
C1041 C 0.40167 0.13725 0.716 0.0
H1042 H 0.91393 0.4171 0.70831 0.0
H1043 H 0.84961 0.36489 0.74743 0.0
H1044 H 0.90062 0.36616 0.6913 0.0
H1045 H 0.83591 0.31406 0.73028 0.0
H1046 H 0.79345 0.23676 0.67988 0.0
H1047 H 0.80782 0.28764 0.69717 0.0
H1048 H 0.90742 0.31599 0.69857 0.0
H1049 H 0.89302 0.26477 0.68158 0.0
C1050 C 0.8969 0.39471 0.71319 0.0
C1051 C 0.88278 0.39477 0.72913 0.0
C1052 C 0.88944 0.36569 0.70356 0.0
C1053 C 0.86725 0.33634 0.70952 0.0
C1054 C 0.85298 0.33643 0.72539 0.0
C1055 C 0.86091 0.3654 0.73521 0.0
C1056 C 0.81839 0.2539 0.68387 0.0
C1057 C 0.84216 0.24701 0.67939 0.0
C1058 C 0.82657 0.28285 0.69381 0.0
C1059 C 0.85869 0.30562 0.69912 0.0
C1060 C 0.8825 0.29885 0.69451 0.0
C1061 C 0.87427 0.2696 0.68487 0.0
H1062 H 0.20086 0.9427 0.5949 0.0
H1063 H 0.12373 0.93606 0.6242 0.0
H1064 H 0.23734 0.99397 0.61203 0.0
H1065 H 0.16069 0.98571 0.6424 0.0
H1066 H 0.22478 0.09127 0.65935 0.0
H1067 H 0.18919 0.04083 0.64114 0.0
H1068 H 0.26579 0.01966 0.63999 0.0
H1069 H 0.30174 0.07118 0.65742 0.0
C1070 C 0.19163 0.95203 0.60504 0.0
C1071 C 0.15916 0.93513 0.60802 0.0
C1072 C 0.21276 0.9813 0.6151 0.0
C1073 C 0.2021 0.99426 0.62863 0.0
C1074 C 0.16978 0.97697 0.63188 0.0
C1075 C 0.14858 0.94801 0.62163 0.0
C1076 C 0.23395 0.0758 0.65515 0.0
C1077 C 0.2659 0.08497 0.65983 0.0
C1078 C 0.2135 0.04671 0.64482 0.0
C1079 C 0.22437 0.02577 0.63919 0.0
C1080 C 0.25656 0.03521 0.64384 0.0
C1081 C 0.27716 0.06463 0.65394 0.0
H1082 H 0.05736 0.19179 0.61355 0.0
H1083 H 0.05587 0.26945 0.58825 0.0
H1084 H 0.01125 0.18287 0.62905 0.0
H1085 H 0.0084 0.25897 0.6031 0.0
H1086 H 0.90113 0.19553 0.61853 0.0
H1087 H 0.9484 0.20843 0.60275 0.0
H1088 H 1.00158 0.21918 0.65352 0.0
H1089 H 0.95467 0.20697 0.6694 0.0
C1090 C 0.04744 0.20714 0.61133 0.0
C1091 C 0.06083 0.23169 0.59976 0.0
C1092 C 0.02085 0.20181 0.62015 0.0
C1093 C 0.00648 0.22037 0.61734 0.0
C1094 C 0.01906 0.24428 0.60543 0.0
C1095 C 0.04613 0.25009 0.59685 0.0
C1096 C 0.92299 0.20093 0.62634 0.0
C1097 C 0.9242 0.20024 0.64522 0.0
C1098 C 0.95001 0.20842 0.61731 0.0
C1099 C 0.97849 0.21467 0.62694 0.0
C1100 C 0.97981 0.21429 0.6458 0.0
C1101 C 0.95302 0.20746 0.65488 0.0
H1102 H 0.81656 0.83145 0.59245 0.0
H1103 H 0.7529 0.82464 0.63237 0.0
H1104 H 0.83022 0.79645 0.60861 0.0
H1105 H 0.76612 0.78923 0.64835 0.0
H1106 H 0.87618 0.77582 0.66028 0.0
H1107 H 0.85963 0.80601 0.6416 0.0
H1108 H 0.76117 0.73189 0.64162 0.0
H1109 H 0.77776 0.70132 0.66002 0.0
C1110 C 0.80515 0.82201 0.60451 0.0
C1111 C 0.78376 0.83068 0.61123 0.0
C1112 C 0.81307 0.80222 0.61378 0.0
C1113 C 0.79924 0.7903 0.6297 0.0
C1114 C 0.77695 0.79801 0.63604 0.0
C1115 C 0.76951 0.8183 0.62698 0.0
C1116 C 0.85103 0.766 0.65625 0.0
C1117 C 0.8282 0.73641 0.66162 0.0
C1118 C 0.84161 0.78311 0.64549 0.0
C1119 C 0.80916 0.77118 0.64021 0.0
C1120 C 0.78632 0.74157 0.64558 0.0
C1121 C 0.7958 0.72415 0.65606 0.0
H1122 H 0.02486 0.82471 0.58125 0.0
H1123 H 0.08767 0.82325 0.62391 0.0
H1124 H 0.97872 0.78745 0.59595 0.0
H1125 H 0.04169 0.7849 0.63833 0.0
H1126 H 0.95501 0.74842 0.67051 0.0
H1127 H 1.00126 0.78245 0.65501 0.0
H1128 H 0.94715 0.735 0.60355 0.0
H1129 H 0.90049 0.70203 0.6191 0.0
C1130 C 0.02872 0.81586 0.59361 0.0
C1131 C 0.05978 0.82693 0.60149 0.0
C1132 C 1.00228 0.79439 0.60204 0.0
C1133 C 0.00631 0.78314 0.61845 0.0
C1134 C 0.03754 0.79352 0.62596 0.0
C1135 C 0.06393 0.81533 0.61766 0.0
C1136 C 0.95304 0.74515 0.65589 0.0
C1137 C 0.92403 0.72257 0.64606 0.0
C1138 C 0.97968 0.76456 0.64696 0.0
C1139 C 0.97814 0.7616 0.62795 0.0
C1140 C 0.9492 0.73847 0.61816 0.0
C1141 C 0.92244 0.71937 0.62709 0.0
H1142 H 0.17111 0.26253 0.62652 0.0
H1143 H 0.16418 0.20159 0.57969 0.0
H1144 H 0.21039 0.25242 0.64197 0.0
H1145 H 0.20219 0.19013 0.59526 0.0
H1146 H 0.29201 0.19735 0.62062 0.0
H1147 H 0.25579 0.21148 0.60544 0.0
H1148 H 0.21665 0.21349 0.65596 0.0
H1149 H 0.25407 0.20095 0.67125 0.0
C1150 C 0.17786 0.24674 0.61963 0.0
C1151 C 0.16479 0.23293 0.60192 0.0
C1152 C 0.20023 0.24077 0.62848 0.0
C1153 C 0.20963 0.22044 0.61991 0.0
C1154 C 0.1962 0.20648 0.60219 0.0
C1155 C 0.17425 0.21286 0.59327 0.0
C1156 C 0.27577 0.20099 0.62849 0.0
C1157 C 0.2759 0.19805 0.64713 0.0
C1158 C 0.25479 0.20887 0.61976 0.0
C1159 C 0.233 0.21346 0.6294 0.0
C1160 C 0.23336 0.21069 0.64811 0.0
C1161 C 0.25472 0.20332 0.65689 0.0
H1162 H 0.74988 0.94114 0.60131 0.0
H1163 H 0.82771 0.94021 0.63175 0.0
H1164 H 0.7649 0.99269 0.61735 0.0
H1165 H 0.84094 0.99026 0.64886 0.0
H1166 H 0.8796 0.09638 0.66303 0.0
H1167 H 0.86448 0.04516 0.64632 0.0
H1168 H 0.76512 0.01862 0.64493 0.0
H1169 H 0.78068 0.07069 0.66082 0.0
C1170 C 0.77011 0.9518 0.61148 0.0
C1171 C 0.78764 0.93643 0.61511 0.0
C1172 C 0.77843 0.98122 0.62091 0.0
C1173 C 0.80422 0.99585 0.63444 0.0
C1174 C 0.82131 0.98013 0.63833 0.0
C1175 C 0.81331 0.95099 0.6287 0.0
C1176 C 0.85455 0.07952 0.65912 0.0
C1177 C 0.83128 0.08735 0.66321 0.0
C1178 C 0.8458 0.05004 0.64965 0.0
C1179 C 0.8135 0.02748 0.64433 0.0
C1180 C 0.79024 0.03547 0.64853 0.0
C1181 C 0.79908 0.0652 0.65775 0.0
H1182 H 0.52273 0.42026 0.70862 0.0
H1183 H 0.5013 0.37109 0.75713 0.0
H1184 H 0.4862 0.36943 0.69061 0.0
H1185 H 0.46337 0.32109 0.73905 0.0
H1186 H 0.37116 0.25626 0.69411 0.0
H1187 H 0.40732 0.3078 0.71185 0.0
H1188 H 0.48802 0.30697 0.69108 0.0
H1189 H 0.45218 0.25474 0.67403 0.0
C1190 C 0.51039 0.39881 0.71549 0.0
C1191 C 0.51512 0.40001 0.73442 0.0
C1192 C 0.48929 0.36984 0.70515 0.0
C1193 C 0.47204 0.34171 0.71356 0.0
C1194 C 0.47628 0.34272 0.73237 0.0
C1195 C 0.49785 0.37147 0.74269 0.0
C1196 C 0.39662 0.26687 0.69353 0.0
C1197 C 0.40893 0.25128 0.68296 0.0
C1198 C 0.41718 0.29635 0.70355 0.0
C1199 C 0.45024 0.31104 0.70271 0.0
C1200 C 0.46254 0.29595 0.69182 0.0
C1201 C 0.44206 0.26615 0.68214 0.0
H1202 H 0.5871 0.08101 0.71567 0.0
H1203 H 0.64355 0.11289 0.76742 0.0
H1204 H 0.63425 0.09292 0.7007 0.0
H1205 H 0.69035 0.12228 0.75253 0.0
H1206 H 0.77483 0.17334 0.7194 0.0
H1207 H 0.72748 0.1586 0.73494 0.0
H1208 H 0.67197 0.07857 0.69427 0.0
H1209 H 0.71924 0.09449 0.67824 0.0
C1210 C 0.60954 0.09038 0.72391 0.0
C1211 C 0.61144 0.09643 0.74279 0.0
C1212 C 0.63663 0.09672 0.7153 0.0
C1213 C 0.6664 0.10878 0.72531 0.0
C1214 C 0.66806 0.11365 0.74427 0.0
C1215 C 0.64101 0.10774 0.75288 0.0
C1216 C 0.75251 0.15256 0.71378 0.0
C1217 C 0.75077 0.13517 0.69752 0.0
C1218 C 0.7253 0.14389 0.7228 0.0
C1219 C 0.69566 0.11728 0.71596 0.0
C1220 C 0.69413 0.09956 0.69982 0.0
C1221 C 0.72129 0.10857 0.69064 0.0
H1222 H 0.85597 0.50147 0.75107 0.0
H1223 H 0.91774 0.5054 0.71059 0.0
H1224 H 0.84337 0.53724 0.73496 0.0
H1225 H 0.90561 0.54164 0.69467 0.0
H1226 H 0.89695 0.63179 0.68354 0.0
H1227 H 0.9126 0.60041 0.70189 0.0
H1228 H 0.81359 0.52768 0.70179 0.0
H1229 H 0.79799 0.5586 0.68314 0.0
C1230 C 0.86717 0.5104 0.73888 0.0
C1231 C 0.88774 0.50073 0.732 0.0
C1232 C 0.85988 0.53066 0.72966 0.0
C1233 C 0.87354 0.54207 0.71362 0.0
C1234 C 0.89495 0.53327 0.70708 0.0
C1235 C 0.90174 0.51249 0.7161 0.0
C1236 C 0.87861 0.60909 0.68747 0.0
C1237 C 0.84633 0.59736 0.68183 0.0
C1238 C 0.88754 0.59121 0.69791 0.0
C1239 C 0.86425 0.56173 0.70321 0.0
C1240 C 0.83193 0.55044 0.69794 0.0
C1241 C 0.82306 0.56797 0.68719 0.0
H1242 H 0.41237 0.90031 0.20023 0.0
H1243 H 0.51079 0.96423 0.2207 0.0
H1244 H 0.42453 0.9194 0.17036 0.0
H1245 H 0.5232 0.98212 0.19093 0.0
H1246 H 0.53302 0.02967 0.14011 0.0
H1247 H 0.51575 0.01292 0.16953 0.0
H1248 H 0.45287 0.91588 0.14531 0.0
H1249 H 0.46887 0.93307 0.1156 0.0
C1250 C 0.43652 0.91854 0.19839 0.0
C1251 C 0.46064 0.93058 0.21283 0.0
C1252 C 0.44358 0.92922 0.18123 0.0
C1253 C 0.47488 0.95227 0.17818 0.0
C1254 C 0.49876 0.96467 0.19276 0.0
C1255 C 0.49172 0.95408 0.20983 0.0
C1256 C 0.51506 0.00487 0.14094 0.0
C1257 C 0.50244 0.98274 0.12541 0.0
C1258 C 0.50544 0.99515 0.1579 0.0
C1259 C 0.4831 0.96296 0.15987 0.0
C1260 C 0.46993 0.94091 0.14431 0.0
C1261 C 0.47947 0.95069 0.12729 0.0
H1262 H 0.05871 0.48754 0.22022 0.0
H1263 H 0.12549 0.58779 0.21625 0.0
H1264 H 0.04145 0.48047 0.1881 0.0
H1265 H 0.10712 0.58112 0.1844 0.0
H1266 H 0.0857 0.55459 0.12415 0.0
H1267 H 0.10661 0.55711 0.15507 0.0
H1268 H 0.01075 0.49557 0.1689 0.0
H1269 H 0.99003 0.49175 0.13781 0.0
C1270 C 0.06987 0.50802 0.21247 0.0
C1271 C 0.09334 0.53828 0.22082 0.0
C1272 C 0.05971 0.50405 0.19411 0.0
C1273 C 0.07273 0.53027 0.18369 0.0
C1274 C 0.09678 0.56034 0.19196 0.0
C1275 C 0.10701 0.56427 0.21029 0.0
C1276 C 0.06915 0.54114 0.13371 0.0
C1277 C 0.03617 0.5231 0.12852 0.0
C1278 C 0.0811 0.54289 0.15149 0.0
C1279 C 0.06036 0.5267 0.1645 0.0
C1280 C 0.02745 0.50809 0.1592 0.0
C1281 C 0.01552 0.50626 0.14142 0.0
H1282 H 0.4679 0.58538 0.21156 0.0
H1283 H 0.44413 0.48694 0.21452 0.0
H1284 H 0.48067 0.58266 0.18057 0.0
H1285 H 0.45664 0.48414 0.18334 0.0
H1286 H 0.45778 0.48562 0.12122 0.0
H1287 H 0.44011 0.48618 0.15127 0.0
H1288 H 0.5238 0.57904 0.1665 0.0
H1289 H 0.54176 0.57831 0.13673 0.0
C1290 C 0.46537 0.56313 0.20559 0.0
C1291 C 0.4554 0.53651 0.21561 0.0
C1292 C 0.47268 0.56158 0.18782 0.0
C1293 C 0.47004 0.53331 0.17957 0.0
C1294 C 0.45874 0.50621 0.18929 0.0
C1295 C 0.45153 0.5078 0.20714 0.0
C1296 C 0.47255 0.50604 0.13103 0.0
C1297 C 0.50118 0.53198 0.12649 0.0
C1298 C 0.46236 0.50637 0.14822 0.0
C1299 C 0.48044 0.53273 0.16122 0.0
C1300 C 0.509 0.55863 0.15668 0.0
C1301 C 0.51928 0.55823 0.13957 0.0
H1302 H 0.89072 0.48532 0.79625 0.0
H1303 H 0.95158 0.44674 0.7838 0.0
H1304 H 0.91049 0.49441 0.82816 0.0
H1305 H 0.97021 0.45448 0.81563 0.0
H1306 H 0.02082 0.49984 0.87082 0.0
H1307 H 1.00268 0.49639 0.83926 0.0
H1308 H 0.90707 0.46389 0.85365 0.0
H1309 H 0.92559 0.46884 0.88542 0.0
C1310 C 0.90836 0.47886 0.80031 0.0
C1311 C 0.91949 0.4652 0.78749 0.0
C1312 C 0.91943 0.48375 0.81861 0.0
C1313 C 0.94193 0.47516 0.82446 0.0
C1314 C 0.95319 0.46175 0.81159 0.0
C1315 C 0.94218 0.4569 0.79335 0.0
C1316 C 0.99605 0.49251 0.86732 0.0
C1317 C 0.97466 0.48458 0.88067 0.0
C1318 C 0.98555 0.49014 0.84918 0.0
C1319 C 0.95336 0.47961 0.8439 0.0
C1320 C 0.93207 0.4723 0.85727 0.0
C1321 C 0.9426 0.47475 0.87545 0.0
H1322 H 0.56434 0.51997 0.79421 0.0
H1323 H 0.53095 0.41924 0.79755 0.0
H1324 H 0.5511 0.52448 0.82519 0.0
H1325 H 0.51722 0.42367 0.82804 0.0
H1326 H 0.45846 0.43398 0.87075 0.0
H1327 H 0.47543 0.43372 0.84067 0.0
H1328 H 0.5662 0.51837 0.85814 0.0
H1329 H 0.54962 0.51826 0.8886 0.0
C1330 C 0.55445 0.49891 0.80156 0.0
C1331 C 0.54814 0.46911 0.79326 0.0
C1332 C 0.54685 0.50149 0.81926 0.0
C1333 C 0.53266 0.47429 0.82889 0.0
C1334 C 0.52745 0.44488 0.82081 0.0
C1335 C 0.53524 0.44236 0.80329 0.0
C1336 C 0.4822 0.45237 0.86833 0.0
C1337 C 0.50279 0.47587 0.88224 0.0
C1338 C 0.49185 0.45229 0.85104 0.0
C1339 C 0.52223 0.47587 0.84711 0.0
C1340 C 0.54258 0.50001 0.86078 0.0
C1341 C 0.53302 0.49993 0.87821 0.0
H1342 H 0.4935 0.03294 0.78774 0.0
H1343 H 0.59233 0.09545 0.80782 0.0
H1344 H 0.48087 0.01659 0.81789 0.0
H1345 H 0.57965 0.07921 0.8382 0.0
H1346 H 0.54709 0.01985 0.88732 0.0
H1347 H 0.56191 0.03432 0.85699 0.0
H1348 H 0.47719 0.0409 0.84629 0.0
H1349 H 0.46182 0.0253 0.87621 0.0
C1350 C 0.51255 0.04322 0.79863 0.0
C1351 C 0.54385 0.06578 0.79544 0.0
C1352 C 0.50529 0.03392 0.81594 0.0
C1353 C 0.52914 0.04695 0.83054 0.0
C1354 C 0.56074 0.0686 0.82724 0.0
C1355 C 0.56803 0.0779 0.80985 0.0
C1356 C 0.53153 0.02417 0.87843 0.0
C1357 C 0.5032 0.02132 0.88421 0.0
C1358 C 0.54019 0.03277 0.86111 0.0
C1359 C 0.52065 0.03858 0.84915 0.0
C1360 C 0.49256 0.03611 0.85504 0.0
C1361 C 0.48395 0.02757 0.87231 0.0
H1362 H 0.08175 0.23091 0.5345 0.0
H1363 H 0.17721 0.30364 0.55562 0.0
H1364 H 0.09387 0.24734 0.5041 0.0
H1365 H 0.18919 0.32044 0.5255 0.0
H1366 H 0.21356 0.31637 0.46819 0.0
H1367 H 0.19842 0.29977 0.49793 0.0
H1368 H 0.10608 0.28985 0.48454 0.0
H1369 H 0.12074 0.30501 0.45431 0.0
C1370 C 0.10513 0.25072 0.53267 0.0
C1371 C 0.12866 0.26575 0.54737 0.0
C1372 C 0.1121 0.26016 0.51528 0.0
C1373 C 0.14268 0.28492 0.5123 0.0
C1374 C 0.16568 0.30073 0.52719 0.0
C1375 C 0.15879 0.2912 0.54448 0.0
C1376 C 0.18984 0.3102 0.47144 0.0
C1377 C 0.16838 0.312 0.45879 0.0
C1378 C 0.1813 0.30112 0.48864 0.0
C1379 C 0.15112 0.29377 0.49374 0.0
C1380 C 0.12946 0.29519 0.48104 0.0
C1381 C 0.138 0.30422 0.46377 0.0
H1382 H 0.7819 0.84886 0.54719 0.0
H1383 H 0.71797 0.88334 0.56018 0.0
H1384 H 0.76312 0.84131 0.51517 0.0
H1385 H 0.70005 0.87686 0.52827 0.0
H1386 H 0.65257 0.83413 0.472 0.0
H1387 H 0.66946 0.8354 0.50357 0.0
H1388 H 0.76685 0.87469 0.49075 0.0
H1389 H 0.74974 0.87228 0.45898 0.0
C1390 C 0.76375 0.85467 0.54321 0.0
C1391 C 0.7515 0.86681 0.5562 0.0
C1392 C 0.75322 0.85065 0.52488 0.0
C1393 C 0.73012 0.85851 0.51917 0.0
C1394 C 0.7176 0.87022 0.53221 0.0
C1395 C 0.72815 0.8743 0.55049 0.0
C1396 C 0.6775 0.84253 0.47585 0.0
C1397 C 0.69982 0.85318 0.46298 0.0
C1398 C 0.68724 0.8436 0.49398 0.0
C1399 C 0.71953 0.85535 0.4997 0.0
C1400 C 0.74176 0.86529 0.48677 0.0
C1401 C 0.73202 0.86425 0.46861 0.0
H1402 H 0.13503 0.91815 0.54307 0.0
H1403 H 0.10876 0.8193 0.54728 0.0
H1404 H 0.14705 0.91372 0.51213 0.0
H1405 H 0.11928 0.81435 0.51594 0.0
H1406 H 0.18237 0.83195 0.46894 0.0
H1407 H 0.16469 0.83265 0.49886 0.0
H1408 H 0.12472 0.89038 0.48197 0.0
H1409 H 0.14294 0.89007 0.45211 0.0
C1410 C 0.13161 0.89537 0.53734 0.0
C1411 C 0.12127 0.86919 0.54774 0.0
C1412 C 0.13811 0.8927 0.51949 0.0
C1413 C 0.13427 0.8637 0.51151 0.0
C1414 C 0.12295 0.83718 0.52173 0.0
C1415 C 0.11653 0.8399 0.53963 0.0
C1416 C 0.16947 0.84447 0.47156 0.0
C1417 C 0.16421 0.86111 0.4582 0.0
C1418 C 0.15924 0.8448 0.48871 0.0
C1419 C 0.14333 0.86166 0.49289 0.0
C1420 C 0.1374 0.87765 0.47935 0.0
C1421 C 0.14781 0.87746 0.46223 0.0
H1422 H 0.62474 0.78782 0.11624 0.0
H1423 H 0.5561 0.81563 0.12988 0.0
H1424 H 0.64171 0.79246 0.14816 0.0
H1425 H 0.57267 0.81975 0.16201 0.0
H1426 H 0.63151 0.85055 0.21763 0.0
H1427 H 0.61605 0.84969 0.18576 0.0
H1428 H 0.62073 0.76358 0.17373 0.0
H1429 H 0.63767 0.76535 0.20525 0.0
C1430 C 0.6132 0.79481 0.12612 0.0
C1431 C 0.58889 0.80106 0.1206 0.0
C1432 C 0.62283 0.79737 0.14441 0.0
C1433 C 0.60825 0.80604 0.15768 0.0
C1434 C 0.58454 0.81322 0.15215 0.0
C1435 C 0.57501 0.81083 0.13377 0.0
C1436 C 0.62949 0.8316 0.20814 0.0
C1437 C 0.63588 0.80804 0.21402 0.0
C1438 C 0.6203 0.83092 0.18991 0.0
C1439 C 0.61731 0.80667 0.17716 0.0
C1440 C 0.62329 0.78291 0.18312 0.0
C1441 C 0.63256 0.78365 0.20128 0.0
H1442 H 0.16215 0.79819 0.11747 0.0
H1443 H 0.25966 0.83031 0.13714 0.0
H1444 H 0.14976 0.80347 0.14833 0.0
H1445 H 0.2475 0.83649 0.16801 0.0
H1446 H 0.20039 0.79761 0.22031 0.0
H1447 H 0.2163 0.79944 0.18971 0.0
H1448 H 0.15982 0.84204 0.17425 0.0
H1449 H 0.14315 0.83933 0.20474 0.0
C1450 C 0.18102 0.80672 0.12838 0.0
C1451 C 0.21182 0.81361 0.12488 0.0
C1452 C 0.174 0.81003 0.14605 0.0
C1453 C 0.1976 0.82022 0.16065 0.0
C1454 C 0.2287 0.8282 0.15708 0.0
C1455 C 0.23575 0.82501 0.13938 0.0
C1456 C 0.19131 0.8073 0.21037 0.0
C1457 C 0.17035 0.81814 0.21493 0.0
C1458 C 0.20073 0.80871 0.19289 0.0
C1459 C 0.18932 0.82088 0.17953 0.0
C1460 C 0.16881 0.83227 0.18418 0.0
C1461 C 0.1595 0.83098 0.20169 0.0
H1462 H 0.26201 0.43571 0.14162 0.0
H1463 H 0.1634 0.37107 0.12177 0.0
H1464 H 0.25078 0.41648 0.17151 0.0
H1465 H 0.15192 0.35298 0.1516 0.0
H1466 H 0.14444 0.30526 0.20223 0.0
H1467 H 0.16077 0.3223 0.1727 0.0
H1468 H 0.22262 0.41959 0.19684 0.0
H1469 H 0.20751 0.40218 0.22662 0.0
C1470 C 0.23801 0.4173 0.1436 0.0
C1471 C 0.21357 0.40507 0.12934 0.0
C1472 C 0.23149 0.40654 0.16077 0.0
C1473 C 0.20042 0.38321 0.164 0.0
C1474 C 0.1762 0.37065 0.14961 0.0
C1475 C 0.1827 0.38135 0.13252 0.0
C1476 C 0.16198 0.33019 0.20134 0.0
C1477 C 0.17456 0.35233 0.21686 0.0
C1478 C 0.17105 0.34006 0.18433 0.0
C1479 C 0.19281 0.3724 0.18233 0.0
C1480 C 0.20598 0.39446 0.19788 0.0
C1481 C 0.19698 0.38454 0.21494 0.0
H1482 H 0.79569 0.54764 0.86867 0.0
H1483 H 0.781 0.62762 0.88045 0.0
H1484 H 0.80734 0.5628 0.83818 0.0
H1485 H 0.79363 0.64357 0.85013 0.0
H1486 H 0.79638 0.65194 0.78979 0.0
H1487 H 0.77784 0.63161 0.81859 0.0
H1488 H 0.84904 0.60308 0.82386 0.0
H1489 H 0.86682 0.62261 0.7949 0.0
C1490 C 0.79494 0.56848 0.86469 0.0
C1491 C 0.78761 0.58656 0.87694 0.0
C1492 C 0.8018 0.57731 0.84725 0.0
C1493 C 0.80185 0.60468 0.84169 0.0
C1494 C 0.79349 0.62216 0.85381 0.0
C1495 C 0.78629 0.61309 0.87122 0.0
C1496 C 0.80798 0.64126 0.79713 0.0
C1497 C 0.83306 0.63888 0.79009 0.0
C1498 C 0.79743 0.62968 0.81367 0.0
C1499 C 0.81191 0.61568 0.82364 0.0
C1500 C 0.83684 0.6131 0.81646 0.0
C1501 C 0.84716 0.6244 0.79986 0.0
H1502 H 0.39174 0.15355 0.88882 0.0
H1503 H 0.4617 0.2524 0.88375 0.0
H1504 H 0.37473 0.14575 0.85656 0.0
H1505 H 0.44394 0.24497 0.85173 0.0
H1506 H 0.42309 0.21497 0.79158 0.0
H1507 H 0.44288 0.21814 0.82289 0.0
H1508 H 0.34595 0.16296 0.83663 0.0
H1509 H 0.32622 0.1597 0.80535 0.0
C1510 C 0.40366 0.17352 0.88079 0.0
C1511 C 0.42794 0.20364 0.88885 0.0
C1512 C 0.39369 0.16915 0.86236 0.0
C1513 C 0.40787 0.19478 0.85159 0.0
C1514 C 0.43271 0.22465 0.85958 0.0
C1515 C 0.44264 0.22902 0.87799 0.0
C1516 C 0.40603 0.20353 0.8013 0.0
C1517 C 0.37309 0.18721 0.79601 0.0
C1518 C 0.41736 0.20534 0.81923 0.0
C1519 C 0.39599 0.1909 0.83228 0.0
C1520 C 0.36306 0.17394 0.82688 0.0
C1521 C 0.35175 0.1721 0.80895 0.0
H1522 H 0.79483 0.24926 0.8759 0.0
H1523 H 0.78224 0.15544 0.88207 0.0
H1524 H 0.80718 0.24561 0.84493 0.0
H1525 H 0.79507 0.15184 0.85098 0.0
H1526 H 0.79602 0.14773 0.78896 0.0
H1527 H 0.77802 0.1482 0.81893 0.0
H1528 H 0.85155 0.2477 0.83077 0.0
H1529 H 0.86939 0.24724 0.80095 0.0
C1530 C 0.79472 0.22782 0.8706 0.0
C1531 C 0.788 0.20281 0.88147 0.0
C1532 C 0.80189 0.22576 0.85286 0.0
C1533 C 0.80264 0.19866 0.84555 0.0
C1534 C 0.79456 0.17299 0.85617 0.0
C1535 C 0.78724 0.17502 0.87396 0.0
C1536 C 0.8084 0.16965 0.79801 0.0
C1537 C 0.83406 0.19751 0.79252 0.0
C1538 C 0.79808 0.1699 0.81518 0.0
C1539 C 0.81319 0.19803 0.82722 0.0
C1540 C 0.83891 0.2258 0.82171 0.0
C1541 C 0.84917 0.22555 0.80459 0.0
H1542 H 0.27895 0.1824 0.45654 0.0
H1543 H 0.21252 0.08244 0.46145 0.0
H1544 H 0.29527 0.19085 0.48893 0.0
H1545 H 0.22971 0.09048 0.49353 0.0
H1546 H 0.24905 0.11805 0.55341 0.0
H1547 H 0.22904 0.11557 0.52225 0.0
H1548 H 0.3256 0.17617 0.50916 0.0
H1549 H 0.34547 0.17896 0.54036 0.0
C1550 C 0.26765 0.16232 0.46456 0.0
C1551 C 0.24464 0.1317 0.45641 0.0
C1552 C 0.27723 0.16707 0.48307 0.0
C1553 C 0.26393 0.14131 0.49382 0.0
C1554 C 0.24023 0.11094 0.48572 0.0
C1555 C 0.23066 0.10621 0.46727 0.0
C1556 C 0.26594 0.13092 0.54387 0.0
C1557 C 0.29883 0.14851 0.54928 0.0
C1558 C 0.25451 0.12949 0.52602 0.0
C1559 C 0.27573 0.14548 0.51317 0.0
C1560 C 0.30856 0.16392 0.51875 0.0
C1561 C 0.31997 0.16547 0.53663 0.0
H1562 H 0.87374 0.08559 0.46672 0.0
H1563 H 0.90075 0.18436 0.46158 0.0
H1564 H 0.86291 0.09122 0.49774 0.0
H1565 H 0.89137 0.19055 0.49309 0.0
H1566 H 0.82827 0.17359 0.5405 0.0
H1567 H 0.84664 0.17339 0.51069 0.0
H1568 H 0.88556 0.11476 0.52759 0.0
H1569 H 0.8665 0.11444 0.55723 0.0
C1570 C 0.87764 0.10864 0.47228 0.0
C1571 C 0.88771 0.1344 0.46157 0.0
C1572 C 0.87182 0.11201 0.49019 0.0
C1573 C 0.87613 0.14133 0.49797 0.0
C1574 C 0.88735 0.16749 0.48747 0.0
C1575 C 0.8931 0.16407 0.46947 0.0
C1576 C 0.84109 0.161 0.53789 0.0
C1577 C 0.84566 0.14376 0.55114 0.0
C1578 C 0.85175 0.16097 0.52081 0.0
C1579 C 0.86742 0.14386 0.51664 0.0
C1580 C 0.87299 0.12762 0.53017 0.0
C1581 C 0.86212 0.12745 0.54717 0.0
H1582 H 0.87286 0.78273 0.47462 0.0
H1583 H 0.89812 0.71021 0.46226 0.0
H1584 H 0.86088 0.76496 0.5046 0.0
H1585 H 0.8871 0.69303 0.49253 0.0
H1586 H 0.82175 0.64497 0.53756 0.0
H1587 H 0.8398 0.66499 0.50871 0.0
H1588 H 0.8844 0.76244 0.5337 0.0
H1589 H 0.86641 0.7424 0.56263 0.0
C1590 C 0.8761 0.76314 0.47837 0.0
C1591 C 0.8862 0.74772 0.46599 0.0
C1592 C 0.86954 0.75316 0.49564 0.0
C1593 C 0.87288 0.72746 0.50097 0.0
C1594 C 0.88389 0.71264 0.48878 0.0
C1595 C 0.89056 0.72271 0.47151 0.0
C1596 C 0.83581 0.67067 0.53699 0.0
C1597 C 0.84251 0.69206 0.55244 0.0
C1598 C 0.8462 0.68216 0.52043 0.0
C1599 C 0.86354 0.71534 0.51886 0.0
C1600 C 0.8707 0.73674 0.53437 0.0
C1601 C 0.86033 0.72525 0.55095 0.0
loop_
_geom_bond_atom_site_label_1
_geom_bond_atom_site_label_2
_geom_bond_distance
_geom_bond_site_symmetry_2
_ccdc_geom_bond_type
H0 C3 0.931 . S
H1 C6 0.928 . S
H2 C8 0.930 . S
C3 H0 0.931 . S
C3 C4 1.413 . S
C3 C5 1.360 . S
C4 C3 1.413 . S
C4 C8 1.429 . S
C5 C3 1.360 . S
C5 C6 1.372 . S
C6 H1 0.928 . S
C6 C5 1.372 . S
C6 C7 1.404 . S
C7 C6 1.404 . S
C7 C8 1.391 . S
C8 H2 0.930 . S
C8 C4 1.429 . S
C8 C7 1.391 . S
H9 C12 0.931 . S
H10 C15 0.928 . S
H11 C17 0.930 . S
C12 H9 0.931 . S
C12 C13 1.413 . S
C12 C14 1.360 . S
C13 C12 1.413 . S
C13 C17 1.429 . S
C14 C12 1.360 . S
C14 C15 1.372 . S
C15 H10 0.928 . S
C15 C14 1.372 . S
C15 C16 1.404 . S
C16 C15 1.404 . S
C16 C17 1.391 . S
C17 H11 0.930 . S
C17 C13 1.429 . S
C17 C16 1.391 . S
H18 C21 0.931 . S
H19 C24 0.928 . S
H20 C26 0.930 . S
C21 H18 0.931 . S
C21 C22 1.413 . S
C21 C23 1.360 . S
C22 C21 1.413 . S
C22 C26 1.429 . S
C23 C21 1.360 . S
C23 C24 1.372 . S
C24 H19 0.928 . S
C24 C23 1.372 . S
C24 C25 1.404 . S
C25 C24 1.404 . S
C25 C26 1.391 . S
C26 H20 0.930 . S
C26 C22 1.429 . S
C26 C25 1.391 . S
H27 C30 0.931 . S
H28 C33 0.928 . S
H29 C35 0.930 . S
C30 H27 0.931 . S
C30 C31 1.413 . S
C30 C32 1.360 . S
C31 C30 1.413 . S
C31 C35 1.429 . S
C32 C30 1.360 . S
C32 C33 1.372 . S
C33 H28 0.928 . S
C33 C32 1.372 . S
C33 C34 1.404 . S
C34 C33 1.404 . S
C34 C35 1.391 . S
C35 H29 0.930 . S
C35 C31 1.429 . S
C35 C34 1.391 . S
H36 C39 0.931 . S
H37 C42 0.928 . S
H38 C44 0.930 . S
C39 H36 0.931 . S
C39 C40 1.413 . S
C39 C41 1.360 . S
C40 C39 1.413 . S
C40 C44 1.429 . S
C41 C39 1.360 . S
C41 C42 1.372 . S
C42 H37 0.928 . S
C42 C41 1.372 . S
C42 C43 1.404 . S
C43 C42 1.404 . S
C43 C44 1.391 . S
C44 H38 0.930 . S
C44 C40 1.429 . S
C44 C43 1.391 . S
H45 C48 0.931 . S
H46 C51 0.928 . S
H47 C53 0.930 . S
C48 H45 0.931 . S
C48 C49 1.413 . S
C48 C50 1.360 . S
C49 C48 1.413 . S
C49 C53 1.429 . S
C50 C48 1.360 . S
C50 C51 1.372 . S
C51 H46 0.928 . S
C51 C50 1.372 . S
C51 C52 1.404 . S
C52 C51 1.404 . S
C52 C53 1.391 . S
C53 H47 0.930 . S
C53 C49 1.429 . S
C53 C52 1.391 . S
H54 C57 0.931 . S
H55 C60 0.928 . S
H56 C62 0.930 . S
C57 H54 0.931 . S
C57 C58 1.413 . S
C57 C59 1.360 . S
C58 C57 1.413 . S
C58 C62 1.429 . S
C59 C57 1.360 . S
C59 C60 1.372 . S
C60 H55 0.928 . S
C60 C59 1.372 . S
C60 C61 1.404 . S
C61 C60 1.404 . S
C61 C62 1.391 . S
C62 H56 0.930 . S
C62 C58 1.429 . S
C62 C61 1.391 . S
H63 C66 0.931 . S
H64 C69 0.928 . S
H65 C71 0.930 . S
C66 H63 0.931 . S
C66 C67 1.413 . S
C66 C68 1.360 . S
C67 C66 1.413 . S
C67 C71 1.429 . S
C68 C66 1.360 . S
C68 C69 1.372 . S
C69 H64 0.928 . S
C69 C68 1.372 . S
C69 C70 1.404 . S
C70 C69 1.404 . S
C70 C71 1.391 . S
C71 H65 0.930 . S
C71 C67 1.429 . S
C71 C70 1.391 . S
H72 C75 0.931 . S
H73 C78 0.928 . S
H74 C80 0.930 . S
C75 H72 0.931 . S
C75 C76 1.413 . S
C75 C77 1.360 . S
C76 C75 1.413 . S
C76 C80 1.429 . S
C77 C75 1.360 . S
C77 C78 1.372 . S
C78 H73 0.928 . S
C78 C77 1.372 . S
C78 C79 1.404 . S
C79 C78 1.404 . S
C79 C80 1.391 . S
C80 H74 0.930 . S
C80 C76 1.429 . S
C80 C79 1.391 . S
H81 C84 0.931 . S
H82 C87 0.928 . S
H83 C89 0.930 . S
C84 H81 0.931 . S
C84 C85 1.413 . S
C84 C86 1.360 . S
C85 C84 1.413 . S
C85 C89 1.429 . S
C86 C84 1.360 . S
C86 C87 1.372 . S
C87 H82 0.928 . S
C87 C86 1.372 . S
C87 C88 1.404 . S
C88 C87 1.404 . S
C88 C89 1.391 . S
C89 H83 0.930 . S
C89 C85 1.429 . S
C89 C88 1.391 . S
H90 C93 0.931 . S
H91 C96 0.928 . S
H92 C98 0.930 . S
C93 H90 0.931 . S
C93 C94 1.413 . S
C93 C95 1.360 . S
C94 C93 1.413 . S
C94 C98 1.429 . S
C95 C93 1.360 . S
C95 C96 1.372 . S
C96 H91 0.928 . S
C96 C95 1.372 . S
C96 C97 1.404 . S
C97 C96 1.404 . S
C97 C98 1.391 . S
C98 H92 0.930 . S
C98 C94 1.429 . S
C98 C97 1.391 . S
H99 C102 0.931 . S
H100 C105 0.928 . S
H101 C107 0.930 . S
C102 H99 0.931 . S
C102 C103 1.413 . S
C102 C104 1.360 . S
C103 C102 1.413 . S
C103 C107 1.429 . S
C104 C102 1.360 . S
C104 C105 1.372 . S
C105 H100 0.928 . S
C105 C104 1.372 . S
C105 C106 1.404 . S
C106 C105 1.404 . S
C106 C107 1.391 . S
C107 H101 0.930 . S
C107 C103 1.429 . S
C107 C106 1.391 . S
H108 C111 0.931 . S
H109 C114 0.928 . S
H110 C116 0.930 . S
C111 H108 0.931 . S
C111 C112 1.413 . S
C111 C113 1.360 . S
C112 C111 1.413 . S
C112 C116 1.429 . S
C113 C111 1.360 . S
C113 C114 1.372 . S
C114 H109 0.928 . S
C114 C113 1.372 . S
C114 C115 1.404 . S
C115 C114 1.404 . S
C115 C116 1.391 . S
C116 H110 0.930 . S
C116 C112 1.429 . S
C116 C115 1.391 . S
H117 C120 0.931 . S
H118 C123 0.928 . S
H119 C125 0.930 . S
C120 H117 0.931 . S
C120 C121 1.413 . S
C120 C122 1.360 . S
C121 C120 1.413 . S
C121 C125 1.429 . S
C122 C120 1.360 . S
C122 C123 1.372 . S
C123 H118 0.928 . S
C123 C122 1.372 . S
C123 C124 1.404 . S
C124 C123 1.404 . S
C124 C125 1.391 . S
C125 H119 0.930 . S
C125 C121 1.429 . S
C125 C124 1.391 . S
H126 C129 0.931 . S
H127 C132 0.928 . S
H128 C134 0.930 . S
C129 H126 0.931 . S
C129 C130 1.413 . S
C129 C131 1.360 . S
C130 C129 1.413 . S
C130 C134 1.429 . S
C131 C129 1.360 . S
C131 C132 1.372 . S
C132 H127 0.928 . S
C132 C131 1.372 . S
C132 C133 1.404 . S
C133 C132 1.404 . S
C133 C134 1.391 . S
C134 H128 0.930 . S
C134 C130 1.429 . S
C134 C133 1.391 . S
H135 C138 0.931 . S
H136 C141 0.928 . S
H137 C143 0.930 . S
C138 H135 0.931 . S
C138 C139 1.413 . S
C138 C140 1.360 . S
C139 C138 1.413 . S
C139 C143 1.429 . S
C140 C138 1.360 . S
C140 C141 1.372 . S
C141 H136 0.928 . S
C141 C140 1.372 . S
C141 C142 1.404 . S
C142 C141 1.404 . S
C142 C143 1.391 . S
C143 H137 0.930 . S
C143 C139 1.429 . S
C143 C142 1.391 . S
H144 C147 0.931 . S
H145 C150 0.928 . S
H146 C152 0.930 . S
C147 H144 0.931 . S
C147 C148 1.413 . S
C147 C149 1.360 . S
C148 C147 1.413 . S
C148 C152 1.429 . S
C149 C147 1.360 . S
C149 C150 1.372 . S
C150 H145 0.928 . S
C150 C149 1.372 . S
C150 C151 1.404 . S
C151 C150 1.404 . S
C151 C152 1.391 . S
C152 H146 0.930 . S
C152 C148 1.429 . S
C152 C151 1.391 . S
H153 C156 0.931 . S
H154 C159 0.928 . S
H155 C161 0.930 . S
C156 H153 0.931 . S
C156 C157 1.413 . S
C156 C158 1.360 . S
C157 C156 1.413 . S
C157 C161 1.429 . S
C158 C156 1.360 . S
C158 C159 1.372 . S
C159 H154 0.928 . S
C159 C158 1.372 . S
C159 C160 1.404 . S
C160 C159 1.404 . S
C160 C161 1.391 . S
C161 H155 0.930 . S
C161 C157 1.429 . S
C161 C160 1.391 . S
C162 Eu163 2.835 . S
C162 C164 1.500 . S
C162 O182 1.257 1_545 S
C162 O183 1.260 . S
Eu163 C162 2.835 . S
Eu163 O182 2.473 1_545 S
Eu163 O183 2.480 . S
Eu163 O184 2.430 . S
Eu163 O185 2.670 1_554 S
Eu163 O186 2.394 1_545 S
Eu163 O191 2.355 1_545 S
Eu163 O193 2.374 . S
C164 C162 1.500 . S
C164 C165 1.377 . S
C164 C169 1.377 1_545 S
C165 C164 1.377 . S
C165 C166 1.395 . S
C165 H194 0.931 . S
C166 C165 1.395 . S
C166 C167 1.383 1_545 S
C166 H195 0.931 . S
C167 C166 1.383 1_565 S
C167 C168 1.394 . S
C168 C167 1.394 . S
C168 C169 1.378 . S
C168 H196 0.931 . S
C169 C164 1.377 1_565 S
C169 C168 1.378 . S
C169 H197 0.931 . S
C170 O184 1.259 1_556 S
C170 O185 1.270 . S
C171 O186 1.251 . S
C171 O187 1.251 1_554 S
C172 Eu173 2.835 . S
C172 C174 1.500 . S
C172 O188 1.257 1_565 S
C172 O189 1.260 . S
Eu173 C172 2.835 . S
Eu173 O185 2.355 1_565 S
Eu173 O187 2.374 . S
Eu173 O188 2.473 1_565 S
Eu173 O189 2.480 . S
Eu173 O190 2.430 . S
Eu173 O191 2.670 1_556 S
Eu173 O192 2.394 1_565 S
C174 C172 1.500 . S
C174 C175 1.377 . S
C174 C179 1.377 1_565 S
C175 C174 1.377 . S
C175 C176 1.395 . S
C175 H198 0.931 . S
C176 C175 1.395 . S
C176 C177 1.383 1_565 S
C176 H199 0.931 . S
C177 C176 1.383 1_545 S
C177 C178 1.394 . S
C178 C177 1.394 . S
C178 C179 1.378 . S
C178 H200 0.931 . S
C179 C174 1.377 1_545 S
C179 C178 1.378 . S
C179 H201 0.931 . S
C180 O190 1.259 1_554 S
C180 O191 1.270 . S
C181 O192 1.251 . S
C181 O193 1.251 1_556 S
O182 C162 1.257 1_565 S
O182 Eu163 2.473 1_565 S
O183 C162 1.260 . S
O183 Eu163 2.480 . S
O184 Eu163 2.430 . S
O184 C170 1.259 1_554 S
O185 Eu163 2.670 1_556 S
O185 C170 1.270 . S
O185 Eu173 2.355 1_545 S
O186 Eu163 2.394 1_565 S
O186 C171 1.251 . S
O187 C171 1.251 1_556 S
O187 Eu173 2.374 . S
O188 C172 1.257 1_545 S
O188 Eu173 2.473 1_545 S
O189 C172 1.260 . S
O189 Eu173 2.480 . S
O190 Eu173 2.430 . S
O190 C180 1.259 1_556 S
O191 Eu163 2.355 1_565 S
O191 Eu173 2.670 1_554 S
O191 C180 1.270 . S
O192 Eu173 2.394 1_545 S
O192 C181 1.251 . S
O193 Eu163 2.374 . S
O193 C181 1.251 1_554 S
H194 C165 0.931 . S
H195 C166 0.931 . S
H196 C168 0.931 . S
H197 C169 0.931 . S
H198 C175 0.931 . S
H199 C176 0.931 . S
H200 C178 0.931 . S
H201 C179 0.931 . S
C202 Eu203 2.835 . S
C202 C204 1.500 1_655 S
C202 O222 1.257 1_655 S
C202 O223 1.260 . S
Eu203 C202 2.835 . S
Eu203 O222 2.473 1_655 S
Eu203 O223 2.480 . S
Eu203 O224 2.430 . S
Eu203 O225 2.670 1_554 S
Eu203 O226 2.394 1_655 S
Eu203 O231 2.355 1_655 S
Eu203 O233 2.374 . S
C204 C202 1.500 1_455 S
C204 C205 1.377 1_455 S
C204 C209 1.377 . S
C205 C204 1.377 1_655 S
C205 C206 1.395 . S
C205 H234 0.931 . S
C206 C205 1.395 . S
C206 C207 1.383 1_655 S
C206 H235 0.931 . S
C207 C206 1.383 1_455 S
C207 C208 1.394 . S
C208 C207 1.394 . S
C208 C209 1.378 . S
C208 H236 0.931 . S
C209 C204 1.377 . S
C209 C208 1.378 . S
C209 H237 0.931 . S
C210 O224 1.259 1_556 S
C210 O225 1.270 . S
C211 O226 1.251 . S
C211 O227 1.251 . S
C212 Eu213 2.835 . S
C212 C214 1.500 1_455 S
C212 O228 1.257 1_455 S
C212 O229 1.260 . S
Eu213 C212 2.835 . S
Eu213 O225 2.355 1_455 S
Eu213 O227 2.374 1_556 S
Eu213 O228 2.473 1_455 S
Eu213 O229 2.480 . S
Eu213 O230 2.430 . S
Eu213 O231 2.670 1_556 S
Eu213 O232 2.394 1_455 S
C214 C212 1.500 1_655 S
C214 C215 1.377 1_655 S
C214 C219 1.377 . S
C215 C214 1.377 1_455 S
C215 C216 1.395 . S
C215 H238 0.931 . S
C216 C215 1.395 . S
C216 C217 1.383 1_455 S
C216 H239 0.931 . S
C217 C216 1.383 1_655 S
C217 C218 1.394 . S
C218 C217 1.394 . S
C218 C219 1.378 . S
C218 H240 0.931 . S
C219 C214 1.377 . S
C219 C218 1.378 . S
C219 H241 0.931 . S
C220 O230 1.259 1_554 S
C220 O231 1.270 . S
C221 O232 1.251 . S
C221 O233 1.251 1_556 S
O222 C202 1.257 1_455 S
O222 Eu203 2.473 1_455 S
O223 C202 1.260 . S
O223 Eu203 2.480 . S
O224 Eu203 2.430 . S
O224 C210 1.259 1_554 S
O225 Eu203 2.670 1_556 S
O225 C210 1.270 . S
O225 Eu213 2.355 1_655 S
O226 Eu203 2.394 1_455 S
O226 C211 1.251 . S
O227 C211 1.251 . S
O227 Eu213 2.374 1_554 S
O228 C212 1.257 1_655 S
O228 Eu213 2.473 1_655 S
O229 C212 1.260 . S
O229 Eu213 2.480 . S
O230 Eu213 2.430 . S
O230 C220 1.259 1_556 S
O231 Eu203 2.355 1_455 S
O231 Eu213 2.670 1_554 S
O231 C220 1.270 . S
O232 Eu213 2.394 1_655 S
O232 C221 1.251 . S
O233 Eu203 2.374 . S
O233 C221 1.251 1_554 S
H234 C205 0.931 . S
H235 C206 0.931 . S
H236 C208 0.931 . S
H237 C209 0.931 . S
H238 C215 0.931 . S
H239 C216 0.931 . S
H240 C218 0.931 . S
H241 C219 0.931 . S
C242 Eu243 2.835 . S
C242 C244 1.500 . S
C242 O262 1.257 . S
C242 O263 1.260 . S
Eu243 C242 2.835 . S
Eu243 O262 2.473 . S
Eu243 O263 2.480 . S
Eu243 O264 2.430 . S
Eu243 O265 2.670 1_556 S
Eu243 O266 2.394 . S
Eu243 O271 2.355 . S
Eu243 O273 2.386 . S
C244 C242 1.500 . S
C244 C245 1.377 . S
C244 C249 1.377 . S
C245 C244 1.377 . S
C245 C246 1.395 . S
C245 H274 0.931 . S
C246 C245 1.395 . S
C246 C247 1.383 . S
C246 H275 0.931 . S
C247 C246 1.383 . S
C247 C248 1.394 . S
C248 C247 1.394 . S
C248 C249 1.378 . S
C248 H276 0.931 . S
C249 C244 1.377 . S
C249 C248 1.378 . S
C249 H277 0.931 . S
C250 O264 1.259 1_554 S
C250 O265 1.270 . S
C251 O266 1.251 . S
C251 O267 1.251 1_556 S
C252 Eu253 2.835 . S
C252 C254 1.500 . S
C252 O268 1.257 . S
C252 O269 1.260 . S
Eu253 C252 2.835 . S
Eu253 O265 2.355 . S
Eu253 O267 2.374 . S
Eu253 O268 2.473 . S
Eu253 O269 2.480 . S
Eu253 O270 2.430 . S
Eu253 O271 2.670 1_554 S
Eu253 O272 2.394 . S
C254 C252 1.500 . S
C254 C255 1.377 . S
C254 C259 1.377 . S
C255 C254 1.377 . S
C255 C256 1.395 . S
C255 H278 0.931 . S
C256 C255 1.395 . S
C256 C257 1.383 . S
C256 H279 0.931 . S
C257 C256 1.383 . S
C257 C258 1.394 . S
C258 C257 1.394 . S
C258 C259 1.378 . S
C258 H280 0.931 . S
C259 C254 1.377 . S
C259 C258 1.378 . S
C259 H281 0.931 . S
C260 O270 1.259 1_556 S
C260 O271 1.270 . S
C261 O272 1.251 . S
C261 O273 1.235 1_554 S
O262 C242 1.257 . S
O262 Eu243 2.473 . S
O263 C242 1.260 . S
O263 Eu243 2.480 . S
O264 Eu243 2.430 . S
O264 C250 1.259 1_556 S
O265 Eu243 2.670 1_554 S
O265 C250 1.270 . S
O265 Eu253 2.355 . S
O266 Eu243 2.394 . S
O266 C251 1.251 . S
O267 C251 1.251 1_554 S
O267 Eu253 2.374 . S
O268 C252 1.257 . S
O268 Eu253 2.473 . S
O269 C252 1.260 . S
O269 Eu253 2.480 . S
O270 Eu253 2.430 . S
O270 C260 1.259 1_554 S
O271 Eu243 2.355 . S
O271 Eu253 2.670 1_556 S
O271 C260 1.270 . S
O272 Eu253 2.394 . S
O272 C261 1.251 . S
O273 Eu243 2.386 . S
O273 C261 1.235 1_556 S
H274 C245 0.931 . S
H275 C246 0.931 . S
H276 C248 0.931 . S
H277 C249 0.931 . S
H278 C255 0.931 . S
H279 C256 0.931 . S
H280 C258 0.931 . S
H281 C259 0.931 . S
C282 Eu283 2.835 . S
C282 C284 1.500 . S
C282 O302 1.257 . S
C282 O303 1.260 . S
Eu283 C282 2.835 . S
Eu283 O302 2.473 . S
Eu283 O303 2.480 . S
Eu283 O304 2.430 . S
Eu283 O305 2.670 . S
Eu283 O306 2.394 . S
Eu283 O311 2.355 . S
Eu283 O313 2.374 . S
C284 C282 1.500 . S
C284 C285 1.377 . S
C284 C289 1.377 . S
C285 C284 1.377 . S
C285 C286 1.395 . S
C285 H314 0.931 . S
C286 C285 1.395 . S
C286 C287 1.383 . S
C286 H315 0.931 . S
C287 C286 1.383 . S
C287 C288 1.394 . S
C288 C287 1.394 . S
C288 C289 1.378 . S
C288 H316 0.931 . S
C289 C284 1.377 . S
C289 C288 1.378 . S
C289 H317 0.931 . S
C290 O304 1.259 . S
C290 O305 1.270 . S
C291 O306 1.251 . S
C291 O307 1.251 . S
C292 Eu293 2.835 . S
C292 C294 1.500 . S
C292 O308 1.257 . S
C292 O309 1.260 . S
Eu293 C292 2.835 . S
Eu293 O305 2.355 . S
Eu293 O307 2.374 . S
Eu293 O308 2.473 . S
Eu293 O309 2.480 . S
Eu293 O310 2.430 . S
Eu293 O311 2.670 . S
Eu293 O312 2.394 . S
C294 C292 1.500 . S
C294 C295 1.377 . S
C294 C299 1.377 . S
C295 C294 1.377 . S
C295 C296 1.395 . S
C295 H318 0.931 . S
C296 C295 1.395 . S
C296 C297 1.383 . S
C296 H319 0.931 . S
C297 C296 1.383 . S
C297 C298 1.394 . S
C298 C297 1.394 . S
C298 C299 1.378 . S
C298 H320 0.931 . S
C299 C294 1.377 . S
C299 C298 1.378 . S
C299 H321 0.931 . S
C300 O310 1.259 . S
C300 O311 1.270 . S
C301 O312 1.251 . S
C301 O313 1.251 . S
O302 C282 1.257 . S
O302 Eu283 2.473 . S
O303 C282 1.260 . S
O303 Eu283 2.480 . S
O304 Eu283 2.430 . S
O304 C290 1.259 . S
O305 Eu283 2.670 . S
O305 C290 1.270 . S
O305 Eu293 2.355 . S
O306 Eu283 2.394 . S
O306 C291 1.251 . S
O307 C291 1.251 . S
O307 Eu293 2.374 . S
O308 C292 1.257 . S
O308 Eu293 2.473 . S
O309 C292 1.260 . S
O309 Eu293 2.480 . S
O310 Eu293 2.430 . S
O310 C300 1.259 . S
O311 Eu283 2.355 . S
O311 Eu293 2.670 . S
O311 C300 1.270 . S
O312 Eu293 2.394 . S
O312 C301 1.251 . S
O313 Eu283 2.374 . S
O313 C301 1.251 . S
H314 C285 0.931 . S
H315 C286 0.931 . S
H316 C288 0.931 . S
H317 C289 0.931 . S
H318 C295 0.931 . S
H319 C296 0.931 . S
H320 C298 0.931 . S
H321 C299 0.931 . S
C322 Eu323 2.835 . S
C322 C324 1.500 . S
C322 O342 1.257 . S
C322 O343 1.260 . S
Eu323 C322 2.835 . S
Eu323 O342 2.473 . S
Eu323 O343 2.480 . S
Eu323 O344 2.430 . S
Eu323 O345 2.670 . S
Eu323 O346 2.394 . S
Eu323 O351 2.355 . S
Eu323 O353 2.374 . S
C324 C322 1.500 . S
C324 C325 1.377 . S
C324 C329 1.377 . S
C325 C324 1.377 . S
C325 C326 1.395 . S
C325 H354 0.931 . S
C326 C325 1.395 . S
C326 C327 1.383 . S
C326 H355 0.931 . S
C327 C326 1.383 . S
C327 C328 1.394 . S
C328 C327 1.394 . S
C328 C329 1.378 . S
C328 H356 0.931 . S
C329 C324 1.377 . S
C329 C328 1.378 . S
C329 H357 0.931 . S
C330 O344 1.259 . S
C330 O345 1.270 . S
C331 O346 1.251 . S
C331 O347 1.251 . S
C332 Eu333 2.835 . S
C332 C334 1.500 . S
C332 O348 1.257 . S
C332 O349 1.260 . S
Eu333 C332 2.835 . S
Eu333 O345 2.355 . S
Eu333 O347 2.374 . S
Eu333 O348 2.473 . S
Eu333 O349 2.480 . S
Eu333 O350 2.430 . S
Eu333 O351 2.670 . S
Eu333 O352 2.394 . S
C334 C332 1.500 . S
C334 C335 1.377 . S
C334 C339 1.377 . S
C335 C334 1.377 . S
C335 C336 1.395 . S
C335 H358 0.931 . S
C336 C335 1.395 . S
C336 C337 1.383 . S
C336 H359 0.931 . S
C337 C336 1.383 . S
C337 C338 1.394 . S
C338 C337 1.394 . S
C338 C339 1.378 . S
C338 H360 0.931 . S
C339 C334 1.377 . S
C339 C338 1.378 . S
C339 H361 0.931 . S
C340 O350 1.259 . S
C340 O351 1.270 . S
C341 O352 1.251 . S
C341 O353 1.251 . S
O342 C322 1.257 . S
O342 Eu323 2.473 . S
O343 C322 1.260 . S
O343 Eu323 2.480 . S
O344 Eu323 2.430 . S
O344 C330 1.259 . S
O345 Eu323 2.670 . S
O345 C330 1.270 . S
O345 Eu333 2.355 . S
O346 Eu323 2.394 . S
O346 C331 1.251 . S
O347 C331 1.251 . S
O347 Eu333 2.374 . S
O348 C332 1.257 . S
O348 Eu333 2.473 . S
O349 C332 1.260 . S
O349 Eu333 2.480 . S
O350 Eu333 2.430 . S
O350 C340 1.259 . S
O351 Eu323 2.355 . S
O351 Eu333 2.670 . S
O351 C340 1.270 . S
O352 Eu333 2.394 . S
O352 C341 1.251 . S
O353 Eu323 2.374 . S
O353 C341 1.251 . S
H354 C325 0.931 . S
H355 C326 0.931 . S
H356 C328 0.931 . S
H357 C329 0.931 . S
H358 C335 0.931 . S
H359 C336 0.931 . S
H360 C338 0.931 . S
H361 C339 0.931 . S
C362 Eu363 2.835 . S
C362 C364 1.500 . S
C362 O382 1.257 . S
C362 O383 1.260 . S
Eu363 C362 2.835 . S
Eu363 O382 2.473 . S
Eu363 O383 2.480 . S
Eu363 O384 2.430 . S
Eu363 O385 2.670 . S
Eu363 O386 2.394 . S
Eu363 O391 2.355 . S
Eu363 O393 2.374 . S
C364 C362 1.500 . S
C364 C365 1.377 . S
C364 C369 1.377 . S
C365 C364 1.377 . S
C365 C366 1.395 . S
C365 H394 0.931 . S
C366 C365 1.395 . S
C366 C367 1.383 . S
C366 H395 0.931 . S
C367 C366 1.383 . S
C367 C368 1.394 . S
C368 C367 1.394 . S
C368 C369 1.378 . S
C368 H396 0.931 . S
C369 C364 1.377 . S
C369 C368 1.378 . S
C369 H397 0.931 . S
C370 O384 1.259 . S
C370 O385 1.270 . S
C371 O386 1.251 . S
C371 O387 1.251 . S
C372 Eu373 2.835 . S
C372 C374 1.500 . S
C372 O388 1.257 . S
C372 O389 1.260 . S
Eu373 C372 2.835 . S
Eu373 O385 2.355 . S
Eu373 O387 2.374 . S
Eu373 O388 2.473 . S
Eu373 O389 2.480 . S
Eu373 O390 2.430 . S
Eu373 O391 2.670 . S
Eu373 O392 2.394 . S
C374 C372 1.500 . S
C374 C375 1.377 . S
C374 C379 1.377 . S
C375 C374 1.377 . S
C375 C376 1.395 . S
C375 H398 0.931 . S
C376 C375 1.395 . S
C376 C377 1.383 . S
C376 H399 0.931 . S
C377 C376 1.383 . S
C377 C378 1.394 . S
C378 C377 1.394 . S
C378 C379 1.378 . S
C378 H400 0.931 . S
C379 C374 1.377 . S
C379 C378 1.378 . S
C379 H401 0.931 . S
C380 O390 1.259 . S
C380 O391 1.270 . S
C381 O392 1.251 . S
C381 O393 1.251 . S
O382 C362 1.257 . S
O382 Eu363 2.473 . S
O383 C362 1.260 . S
O383 Eu363 2.480 . S
O384 Eu363 2.430 . S
O384 C370 1.259 . S
O385 Eu363 2.670 . S
O385 C370 1.270 . S
O385 Eu373 2.355 . S
O386 Eu363 2.394 . S
O386 C371 1.251 . S
O387 C371 1.251 . S
O387 Eu373 2.374 . S
O388 C372 1.257 . S
O388 Eu373 2.473 . S
O389 C372 1.260 . S
O389 Eu373 2.480 . S
O390 Eu373 2.430 . S
O390 C380 1.259 . S
O391 Eu363 2.355 . S
O391 Eu373 2.670 . S
O391 C380 1.270 . S
O392 Eu373 2.394 . S
O392 C381 1.251 . S
O393 Eu363 2.374 . S
O393 C381 1.251 . S
H394 C365 0.931 . S
H395 C366 0.931 . S
H396 C368 0.931 . S
H397 C369 0.931 . S
H398 C375 0.931 . S
H399 C376 0.931 . S
H400 C378 0.931 . S
H401 C379 0.931 . S
C402 Eu403 2.835 . S
C402 C404 1.500 . S
C402 O422 1.257 . S
C402 O423 1.260 . S
Eu403 C402 2.835 . S
Eu403 O422 2.473 . S
Eu403 O423 2.480 . S
Eu403 O424 2.430 . S
Eu403 O425 2.670 . S
Eu403 O426 2.394 . S
Eu403 O431 2.355 . S
Eu403 O433 2.374 . S
C404 C402 1.500 . S
C404 C405 1.377 . S
C404 C409 1.377 . S
C405 C404 1.377 . S
C405 C406 1.395 . S
C405 H434 0.931 . S
C406 C405 1.395 . S
C406 C407 1.383 . S
C406 H435 0.931 . S
C407 C406 1.383 . S
C407 C408 1.394 . S
C408 C407 1.394 . S
C408 C409 1.378 . S
C408 H436 0.931 . S
C409 C404 1.377 . S
C409 C408 1.378 . S
C409 H437 0.931 . S
C410 O424 1.259 . S
C410 O425 1.270 . S
C411 O426 1.251 . S
C411 O427 1.251 . S
C412 Eu413 2.835 . S
C412 C414 1.500 . S
C412 O428 1.257 . S
C412 O429 1.260 . S
Eu413 C412 2.835 . S
Eu413 O425 2.355 . S
Eu413 O427 2.374 . S
Eu413 O428 2.473 . S
Eu413 O429 2.480 . S
Eu413 O430 2.430 . S
Eu413 O431 2.670 . S
Eu413 O432 2.394 . S
C414 C412 1.500 . S
C414 C415 1.377 . S
C414 C419 1.377 . S
C415 C414 1.377 . S
C415 C416 1.395 . S
C415 H438 0.931 . S
C416 C415 1.395 . S
C416 C417 1.383 . S
C416 H439 0.931 . S
C417 C416 1.383 . S
C417 C418 1.394 . S
C418 C417 1.394 . S
C418 C419 1.378 . S
C418 H440 0.931 . S
C419 C414 1.377 . S
C419 C418 1.378 . S
C419 H441 0.931 . S
C420 O430 1.259 . S
C420 O431 1.270 . S
C421 O432 1.251 . S
C421 O433 1.251 . S
O422 C402 1.257 . S
O422 Eu403 2.473 . S
O423 C402 1.260 . S
O423 Eu403 2.480 . S
O424 Eu403 2.430 . S
O424 C410 1.259 . S
O425 Eu403 2.670 . S
O425 C410 1.270 . S
O425 Eu413 2.355 . S
O426 Eu403 2.394 . S
O426 C411 1.251 . S
O427 C411 1.251 . S
O427 Eu413 2.374 . S
O428 C412 1.257 . S
O428 Eu413 2.473 . S
O429 C412 1.260 . S
O429 Eu413 2.480 . S
O430 Eu413 2.430 . S
O430 C420 1.259 . S
O431 Eu403 2.355 . S
O431 Eu413 2.670 . S
O431 C420 1.270 . S
O432 Eu413 2.394 . S
O432 C421 1.251 . S
O433 Eu403 2.374 . S
O433 C421 1.251 . S
H434 C405 0.931 . S
H435 C406 0.931 . S
H436 C408 0.931 . S
H437 C409 0.931 . S
H438 C415 0.931 . S
H439 C416 0.931 . S
H440 C418 0.931 . S
H441 C419 0.931 . S
C442 Eu443 2.835 . S
C442 C444 1.500 . S
C442 O462 1.257 . S
C442 O463 1.260 . S
Eu443 C442 2.835 . S
Eu443 O462 2.473 . S
Eu443 O463 2.480 . S
Eu443 O464 2.430 . S
Eu443 O465 2.670 . S
Eu443 O466 2.394 . S
Eu443 O471 2.355 . S
Eu443 O473 2.374 . S
C444 C442 1.500 . S
C444 C445 1.377 . S
C444 C449 1.377 . S
C445 C444 1.377 . S
C445 C446 1.395 . S
C445 H474 0.931 . S
C446 C445 1.395 . S
C446 C447 1.383 . S
C446 H475 0.931 . S
C447 C446 1.383 . S
C447 C448 1.394 . S
C448 C447 1.394 . S
C448 C449 1.378 . S
C448 H476 0.931 . S
C449 C444 1.377 . S
C449 C448 1.378 . S
C449 H477 0.931 . S
C450 O464 1.259 . S
C450 O465 1.270 . S
C451 O466 1.251 . S
C451 O467 1.251 . S
C452 Eu453 2.835 . S
C452 C454 1.500 . S
C452 O468 1.257 . S
C452 O469 1.260 . S
Eu453 C452 2.835 . S
Eu453 O465 2.355 . S
Eu453 O467 2.374 . S
Eu453 O468 2.473 . S
Eu453 O469 2.480 . S
Eu453 O470 2.430 . S
Eu453 O471 2.670 . S
Eu453 O472 2.394 . S
C454 C452 1.500 . S
C454 C455 1.377 . S
C454 C459 1.377 . S
C455 C454 1.377 . S
C455 C456 1.395 . S
C455 H478 0.931 . S
C456 C455 1.395 . S
C456 C457 1.383 . S
C456 H479 0.931 . S
C457 C456 1.383 . S
C457 C458 1.394 . S
C458 C457 1.394 . S
C458 C459 1.378 . S
C458 H480 0.931 . S
C459 C454 1.377 . S
C459 C458 1.378 . S
C459 H481 0.931 . S
C460 O470 1.259 . S
C460 O471 1.270 . S
C461 O472 1.251 . S
C461 O473 1.251 . S
O462 C442 1.257 . S
O462 Eu443 2.473 . S
O463 C442 1.260 . S
O463 Eu443 2.480 . S
O464 Eu443 2.430 . S
O464 C450 1.259 . S
O465 Eu443 2.670 . S
O465 C450 1.270 . S
O465 Eu453 2.355 . S
O466 Eu443 2.394 . S
O466 C451 1.251 . S
O467 C451 1.251 . S
O467 Eu453 2.374 . S
O468 C452 1.257 . S
O468 Eu453 2.473 . S
O469 C452 1.260 . S
O469 Eu453 2.480 . S
O470 Eu453 2.430 . S
O470 C460 1.259 . S
O471 Eu443 2.355 . S
O471 Eu453 2.670 . S
O471 C460 1.270 . S
O472 Eu453 2.394 . S
O472 C461 1.251 . S
O473 Eu443 2.374 . S
O473 C461 1.251 . S
H474 C445 0.931 . S
H475 C446 0.931 . S
H476 C448 0.931 . S
H477 C449 0.931 . S
H478 C455 0.931 . S
H479 C456 0.931 . S
H480 C458 0.931 . S
H481 C459 0.931 . S
C482 Eu483 2.835 . S
C482 C484 1.500 . S
C482 O502 1.257 . S
C482 O503 1.260 . S
Eu483 C482 2.835 . S
Eu483 O502 2.473 . S
Eu483 O503 2.480 . S
Eu483 O504 2.430 . S
Eu483 O505 2.670 . S
Eu483 O506 2.394 . S
Eu483 O511 2.355 . S
Eu483 O513 2.374 . S
C484 C482 1.500 . S
C484 C485 1.377 . S
C484 C489 1.377 . S
C485 C484 1.377 . S
C485 C486 1.395 . S
C485 H514 0.931 . S
C486 C485 1.395 . S
C486 C487 1.383 . S
C486 H515 0.931 . S
C487 C486 1.383 . S
C487 C488 1.394 . S
C488 C487 1.394 . S
C488 C489 1.378 . S
C488 H516 0.931 . S
C489 C484 1.377 . S
C489 C488 1.378 . S
C489 H517 0.931 . S
C490 O504 1.259 . S
C490 O505 1.270 . S
C491 O506 1.251 . S
C491 O507 1.251 . S
C492 Eu493 2.835 . S
C492 C494 1.500 . S
C492 O508 1.257 . S
C492 O509 1.260 . S
Eu493 C492 2.835 . S
Eu493 O505 2.355 . S
Eu493 O507 2.374 . S
Eu493 O508 2.473 . S
Eu493 O509 2.480 . S
Eu493 O510 2.430 . S
Eu493 O511 2.670 . S
Eu493 O512 2.394 . S
C494 C492 1.500 . S
C494 C495 1.377 . S
C494 C499 1.377 . S
C495 C494 1.377 . S
C495 C496 1.395 . S
C495 H518 0.931 . S
C496 C495 1.395 . S
C496 C497 1.383 . S
C496 H519 0.931 . S
C497 C496 1.383 . S
C497 C498 1.394 . S
C498 C497 1.394 . S
C498 C499 1.378 . S
C498 H520 0.931 . S
C499 C494 1.377 . S
C499 C498 1.378 . S
C499 H521 0.931 . S
C500 O510 1.259 . S
C500 O511 1.270 . S
C501 O512 1.251 . S
C501 O513 1.251 . S
O502 C482 1.257 . S
O502 Eu483 2.473 . S
O503 C482 1.260 . S
O503 Eu483 2.480 . S
O504 Eu483 2.430 . S
O504 C490 1.259 . S
O505 Eu483 2.670 . S
O505 C490 1.270 . S
O505 Eu493 2.355 . S
O506 Eu483 2.394 . S
O506 C491 1.251 . S
O507 C491 1.251 . S
O507 Eu493 2.374 . S
O508 C492 1.257 . S
O508 Eu493 2.473 . S
O509 C492 1.260 . S
O509 Eu493 2.480 . S
O510 Eu493 2.430 . S
O510 C500 1.259 . S
O511 Eu483 2.355 . S
O511 Eu493 2.670 . S
O511 C500 1.270 . S
O512 Eu493 2.394 . S
O512 C501 1.251 . S
O513 Eu483 2.374 . S
O513 C501 1.251 . S
H514 C485 0.931 . S
H515 C486 0.931 . S
H516 C488 0.931 . S
H517 C489 0.931 . S
H518 C495 0.931 . S
H519 C496 0.931 . S
H520 C498 0.931 . S
H521 C499 0.931 . S
H522 C530 0.950 . S
H523 C535 0.950 . S
H524 C532 0.950 . S
H525 C534 0.950 . S
H526 C536 0.950 . S
H527 C538 0.950 . S
H528 C540 0.950 . S
H529 C541 0.950 . S
C530 H522 0.950 . S
C530 C531 1.386 . S
C530 C532 1.391 . S
C531 C530 1.386 . S
C531 C535 1.393 . S
C532 H524 0.950 . S
C532 C530 1.391 . S
C532 C533 1.400 . S
C533 C532 1.400 . S
C533 C534 1.398 . S
C533 C539 1.491 . S
C534 H525 0.950 . S
C534 C533 1.398 . S
C534 C535 1.391 . S
C535 H523 0.950 . S
C535 C531 1.393 . S
C535 C534 1.391 . S
C536 H526 0.950 . S
C536 C537 1.386 . S
C536 C538 1.391 . S
C537 C536 1.386 . S
C537 C541 1.393 . S
C538 H527 0.950 . S
C538 C536 1.391 . S
C538 C539 1.400 . S
C539 C533 1.491 . S
C539 C538 1.400 . S
C539 C540 1.398 . S
C540 H528 0.950 . S
C540 C539 1.398 . S
C540 C541 1.391 . S
C541 H529 0.950 . S
C541 C537 1.393 . S
C541 C540 1.391 . S
H542 C550 0.950 . S
H543 C555 0.950 . S
H544 C552 0.950 . S
H545 C554 0.950 . S
H546 C556 0.950 . S
H547 C558 0.950 . S
H548 C560 0.950 . S
H549 C561 0.950 . S
C550 H542 0.950 . S
C550 C551 1.386 . S
C550 C552 1.391 . S
C551 C550 1.386 . S
C551 C555 1.393 . S
C552 H544 0.950 . S
C552 C550 1.391 . S
C552 C553 1.400 . S
C553 C552 1.400 . S
C553 C554 1.398 . S
C553 C559 1.491 . S
C554 H545 0.950 . S
C554 C553 1.398 . S
C554 C555 1.391 . S
C555 H543 0.950 . S
C555 C551 1.393 . S
C555 C554 1.391 . S
C556 H546 0.950 . S
C556 C557 1.386 . S
C556 C558 1.391 . S
C557 C556 1.386 . S
C557 C561 1.393 . S
C558 H547 0.950 . S
C558 C556 1.391 . S
C558 C559 1.400 . S
C559 C553 1.491 . S
C559 C558 1.400 . S
C559 C560 1.398 . S
C560 H548 0.950 . S
C560 C559 1.398 . S
C560 C561 1.391 . S
C561 H549 0.950 . S
C561 C557 1.393 . S
C561 C560 1.391 . S
H562 C570 0.950 . S
H563 C575 0.950 . S
H564 C572 0.950 . S
H565 C574 0.950 . S
H566 C576 0.950 . S
H567 C578 0.950 . S
H568 C580 0.950 . S
H569 C581 0.950 1_556 S
C570 H562 0.950 . S
C570 C571 1.386 . S
C570 C572 1.391 . S
C571 C570 1.386 . S
C571 C575 1.393 . S
C572 H564 0.950 . S
C572 C570 1.391 . S
C572 C573 1.400 . S
C573 C572 1.400 . S
C573 C574 1.398 . S
C573 C579 1.491 . S
C574 H565 0.950 . S
C574 C573 1.398 . S
C574 C575 1.391 . S
C575 H563 0.950 . S
C575 C571 1.393 . S
C575 C574 1.391 . S
C576 H566 0.950 . S
C576 C577 1.386 . S
C576 C578 1.391 . S
C577 C576 1.386 . S
C577 C581 1.393 . S
C578 H567 0.950 . S
C578 C576 1.391 . S
C578 C579 1.400 . S
C579 C573 1.491 . S
C579 C578 1.400 . S
C579 C580 1.398 . S
C580 H568 0.950 . S
C580 C579 1.398 . S
C580 C581 1.391 . S
C581 H569 0.950 1_554 S
C581 C577 1.393 . S
C581 C580 1.391 . S
H582 C590 0.950 . S
H583 C595 0.950 . S
H584 C592 0.950 . S
H585 C594 0.950 . S
H586 C596 0.950 . S
H587 C598 0.950 . S
H588 C600 0.950 . S
H589 C601 0.950 . S
C590 H582 0.950 . S
C590 C591 1.386 . S
C590 C592 1.391 . S
C591 C590 1.386 . S
C591 C595 1.393 . S
C592 H584 0.950 . S
C592 C590 1.391 . S
C592 C593 1.400 . S
C593 C592 1.400 . S
C593 C594 1.398 . S
C593 C599 1.491 . S
C594 H585 0.950 . S
C594 C593 1.398 . S
C594 C595 1.391 . S
C595 H583 0.950 . S
C595 C591 1.393 . S
C595 C594 1.391 . S
C596 H586 0.950 . S
C596 C597 1.386 . S
C596 C598 1.391 . S
C597 C596 1.386 . S
C597 C601 1.393 . S
C598 H587 0.950 . S
C598 C596 1.391 . S
C598 C599 1.400 . S
C599 C593 1.491 . S
C599 C598 1.400 . S
C599 C600 1.398 . S
C600 H588 0.950 . S
C600 C599 1.398 . S
C600 C601 1.391 . S
C601 H589 0.950 . S
C601 C597 1.393 . S
C601 C600 1.391 . S
H602 C610 0.950 . S
H603 C615 0.950 . S
H604 C612 0.950 . S
H605 C614 0.950 . S
H606 C616 0.950 . S
H607 C618 0.950 . S
H608 C620 0.950 . S
H609 C621 0.943 . S
C610 H602 0.950 . S
C610 C611 1.386 . S
C610 C612 1.391 . S
C611 C610 1.386 . S
C611 C615 1.393 . S
C612 H604 0.950 . S
C612 C610 1.391 . S
C612 C613 1.400 . S
C613 C612 1.400 . S
C613 C614 1.398 . S
C613 C619 1.491 . S
C614 H605 0.950 . S
C614 C613 1.398 . S
C614 C615 1.391 . S
C615 H603 0.950 . S
C615 C611 1.393 . S
C615 C614 1.391 . S
C616 H606 0.950 . S
C616 C617 1.386 . S
C616 C618 1.391 . S
C617 C616 1.386 . S
C617 C621 1.393 . S
C618 H607 0.950 . S
C618 C616 1.391 . S
C618 C619 1.400 . S
C619 C613 1.491 . S
C619 C618 1.400 . S
C619 C620 1.398 . S
C620 H608 0.950 . S
C620 C619 1.398 . S
C620 C621 1.391 . S
C621 H609 0.943 . S
C621 C617 1.393 . S
C621 C620 1.391 . S
H622 C630 0.950 . S
H623 C635 0.950 . S
H624 C632 0.950 . S
H625 C634 0.950 . S
H626 C636 0.950 . S
H627 C638 0.950 . S
H628 C640 0.950 1_554 S
H629 C641 0.950 . S
C630 H622 0.950 . S
C630 C631 1.386 . S
C630 C632 1.391 . S
C631 C630 1.386 . S
C631 C635 1.393 . S
C632 H624 0.950 . S
C632 C630 1.391 . S
C632 C633 1.400 . S
C633 C632 1.400 . S
C633 C634 1.398 . S
C633 C639 1.491 . S
C634 H625 0.950 . S
C634 C633 1.398 . S
C634 C635 1.391 . S
C635 H623 0.950 . S
C635 C631 1.393 . S
C635 C634 1.391 . S
C636 H626 0.950 . S
C636 C637 1.386 . S
C636 C638 1.391 . S
C637 C636 1.386 . S
C637 C641 1.393 1_556 S
C638 H627 0.950 . S
C638 C636 1.391 . S
C638 C639 1.400 . S
C639 C633 1.491 . S
C639 C638 1.400 . S
C639 C640 1.398 . S
C640 H628 0.950 1_556 S
C640 C639 1.398 . S
C640 C641 1.391 1_556 S
C641 H629 0.950 . S
C641 C637 1.393 1_554 S
C641 C640 1.391 1_554 S
H642 C650 0.950 . S
H643 C655 0.950 . S
H644 C652 0.950 . S
H645 C654 0.950 . S
H646 C656 0.950 . S
H647 C658 0.950 . S
H648 C660 0.950 . S
H649 C661 0.950 . S
C650 H642 0.950 . S
C650 C651 1.386 . S
C650 C652 1.391 . S
C651 C650 1.386 . S
C651 C655 1.393 . S
C652 H644 0.950 . S
C652 C650 1.391 . S
C652 C653 1.400 . S
C653 C652 1.400 . S
C653 C654 1.398 . S
C653 C659 1.491 . S
C654 H645 0.950 . S
C654 C653 1.398 . S
C654 C655 1.391 . S
C655 H643 0.950 . S
C655 C651 1.393 . S
C655 C654 1.391 . S
C656 H646 0.950 . S
C656 C657 1.386 . S
C656 C658 1.391 . S
C657 C656 1.386 . S
C657 C661 1.393 . S
C658 H647 0.950 . S
C658 C656 1.391 . S
C658 C659 1.400 . S
C659 C653 1.491 . S
C659 C658 1.400 . S
C659 C660 1.398 . S
C660 H648 0.950 . S
C660 C659 1.398 . S
C660 C661 1.391 . S
C661 H649 0.950 . S
C661 C657 1.393 . S
C661 C660 1.391 . S
H662 C670 0.950 . S
H663 C675 0.950 . S
H664 C672 0.950 . S
H665 C674 0.950 . S
H666 C676 0.950 . S
H667 C678 0.950 . S
H668 C680 0.950 . S
H669 C681 0.893 1_554 S
C670 H662 0.950 . S
C670 C671 1.386 . S
C670 C672 1.391 . S
C671 C670 1.386 . S
C671 C675 1.393 . S
C672 H664 0.950 . S
C672 C670 1.391 . S
C672 C673 1.400 . S
C673 C672 1.400 . S
C673 C674 1.398 . S
C673 C679 1.491 . S
C674 H665 0.950 . S
C674 C673 1.398 . S
C674 C675 1.391 . S
C675 H663 0.950 . S
C675 C671 1.393 . S
C675 C674 1.391 . S
C676 H666 0.950 . S
C676 C677 1.386 . S
C676 C678 1.391 . S
C677 C676 1.386 . S
C677 C681 1.393 . S
C678 H667 0.950 . S
C678 C676 1.391 . S
C678 C679 1.400 . S
C679 C673 1.491 . S
C679 C678 1.400 . S
C679 C680 1.398 . S
C680 H668 0.950 . S
C680 C679 1.398 . S
C680 C681 1.391 . S
C681 H669 0.893 1_556 S
C681 C677 1.393 . S
C681 C680 1.391 . S
H682 C690 0.950 . S
H683 C695 0.950 . S
H684 C692 0.950 . S
H685 C694 0.950 . S
H686 C696 0.950 . S
H687 C698 0.950 . S
H688 C700 0.950 . S
H689 C701 0.950 1_554 S
C690 H682 0.950 . S
C690 C691 1.386 . S
C690 C692 1.391 . S
C691 C690 1.386 . S
C691 C695 1.393 . S
C692 H684 0.950 . S
C692 C690 1.391 . S
C692 C693 1.400 . S
C693 C692 1.400 . S
C693 C694 1.398 . S
C693 C699 1.491 . S
C694 H685 0.950 . S
C694 C693 1.398 . S
C694 C695 1.391 . S
C695 H683 0.950 . S
C695 C691 1.393 . S
C695 C694 1.391 . S
C696 H686 0.950 . S
C696 C697 1.386 . S
C696 C698 1.391 . S
C697 C696 1.386 . S
C697 C701 1.393 . S
C698 H687 0.950 . S
C698 C696 1.391 . S
C698 C699 1.400 . S
C699 C693 1.491 . S
C699 C698 1.400 . S
C699 C700 1.398 . S
C700 H688 0.950 . S
C700 C699 1.398 . S
C700 C701 1.391 . S
C701 H689 0.950 1_556 S
C701 C697 1.393 . S
C701 C700 1.391 . S
H702 C710 0.950 . S
H703 C715 0.950 . S
H704 C712 0.950 . S
H705 C714 0.950 . S
H706 C716 0.950 . S
H707 C718 0.950 . S
H708 C720 0.950 . S
H709 C721 0.950 1_556 S
C710 H702 0.950 . S
C710 C711 1.386 . S
C710 C712 1.391 . S
C711 C710 1.386 . S
C711 C715 1.393 . S
C712 H704 0.950 . S
C712 C710 1.391 . S
C712 C713 1.400 . S
C713 C712 1.400 . S
C713 C714 1.398 . S
C713 C719 1.491 . S
C714 H705 0.950 . S
C714 C713 1.398 . S
C714 C715 1.391 . S
C715 H703 0.950 . S
C715 C711 1.393 . S
C715 C714 1.391 . S
C716 H706 0.950 . S
C716 C717 1.386 . S
C716 C718 1.391 . S
C717 C716 1.386 . S
C717 C721 1.393 . S
C718 H707 0.950 . S
C718 C716 1.391 . S
C718 C719 1.400 . S
C719 C713 1.491 . S
C719 C718 1.400 . S
C719 C720 1.398 . S
C720 H708 0.950 . S
C720 C719 1.398 . S
C720 C721 1.391 . S
C721 H709 0.950 1_554 S
C721 C717 1.393 . S
C721 C720 1.391 . S
H722 C730 0.950 . S
H723 C735 0.950 . S
H724 C732 0.950 . S
H725 C734 0.950 . S
H726 C736 0.950 . S
H727 C738 0.950 . S
H728 C740 0.950 . S
H729 C741 0.950 . S
C730 H722 0.950 . S
C730 C731 1.386 . S
C730 C732 1.391 . S
C731 C730 1.386 . S
C731 C735 1.393 . S
C732 H724 0.950 . S
C732 C730 1.391 . S
C732 C733 1.400 . S
C733 C732 1.400 . S
C733 C734 1.398 . S
C733 C739 1.491 . S
C734 H725 0.950 . S
C734 C733 1.398 . S
C734 C735 1.391 . S
C735 H723 0.950 . S
C735 C731 1.393 . S
C735 C734 1.391 . S
C736 H726 0.950 . S
C736 C737 1.386 . S
C736 C738 1.391 . S
C737 C736 1.386 . S
C737 C741 1.393 . S
C738 H727 0.950 . S
C738 C736 1.391 . S
C738 C739 1.400 . S
C739 C733 1.491 . S
C739 C738 1.400 . S
C739 C740 1.398 . S
C740 H728 0.950 . S
C740 C739 1.398 . S
C740 C741 1.391 . S
C741 H729 0.950 . S
C741 C737 1.393 . S
C741 C740 1.391 . S
H742 C750 0.950 . S
H743 C755 0.950 . S
H744 C752 0.950 . S
H745 C754 0.950 . S
H746 C756 0.950 . S
H747 C758 0.950 . S
H748 C760 0.950 . S
H749 C761 0.950 . S
C750 H742 0.950 . S
C750 C751 1.386 . S
C750 C752 1.391 . S
C751 C750 1.386 . S
C751 C755 1.393 . S
C752 H744 0.950 . S
C752 C750 1.391 . S
C752 C753 1.400 . S
C753 C752 1.400 . S
C753 C754 1.398 . S
C753 C759 1.491 . S
C754 H745 0.950 . S
C754 C753 1.398 . S
C754 C755 1.391 . S
C755 H743 0.950 . S
C755 C751 1.393 . S
C755 C754 1.391 . S
C756 H746 0.950 . S
C756 C757 1.386 . S
C756 C758 1.391 . S
C757 C756 1.386 . S
C757 C761 1.393 . S
C758 H747 0.950 . S
C758 C756 1.391 . S
C758 C759 1.400 . S
C759 C753 1.491 . S
C759 C758 1.400 . S
C759 C760 1.398 . S
C760 H748 0.950 . S
C760 C759 1.398 . S
C760 C761 1.391 . S
C761 H749 0.950 . S
C761 C757 1.393 . S
C761 C760 1.391 . S
H762 C770 0.950 . S
H763 C775 0.950 . S
H764 C772 0.950 . S
H765 C774 0.950 . S
H766 C776 0.950 . S
H767 C778 0.950 . S
H768 C780 0.950 . S
H769 C781 0.950 . S
C770 H762 0.950 . S
C770 C771 1.386 . S
C770 C772 1.391 . S
C771 C770 1.386 . S
C771 C775 1.393 . S
C772 H764 0.950 . S
C772 C770 1.391 . S
C772 C773 1.400 . S
C773 C772 1.400 . S
C773 C774 1.398 . S
C773 C779 1.491 1_655 S
C774 H765 0.950 . S
C774 C773 1.398 . S
C774 C775 1.391 . S
C775 H763 0.950 . S
C775 C771 1.393 . S
C775 C774 1.391 . S
C776 H766 0.950 . S
C776 C777 1.386 . S
C776 C778 1.391 . S
C777 C776 1.386 . S
C777 C781 1.393 . S
C778 H767 0.950 . S
C778 C776 1.391 . S
C778 C779 1.400 . S
C779 C773 1.491 1_455 S
C779 C778 1.400 . S
C779 C780 1.398 . S
C780 H768 0.950 . S
C780 C779 1.398 . S
C780 C781 1.391 . S
C781 H769 0.950 . S
C781 C777 1.393 . S
C781 C780 1.391 . S
H782 C790 0.950 . S
H783 C795 0.950 . S
H784 C792 0.950 . S
H785 C794 0.950 . S
H786 C796 0.950 . S
H787 C798 0.950 . S
H788 C800 0.950 . S
H789 C801 0.950 . S
C790 H782 0.950 . S
C790 C791 1.386 . S
C790 C792 1.391 . S
C791 C790 1.386 . S
C791 C795 1.393 . S
C792 H784 0.950 . S
C792 C790 1.391 . S
C792 C793 1.400 . S
C793 C792 1.400 . S
C793 C794 1.398 . S
C793 C799 1.491 . S
C794 H785 0.950 . S
C794 C793 1.398 . S
C794 C795 1.391 . S
C795 H783 0.950 . S
C795 C791 1.393 . S
C795 C794 1.391 . S
C796 H786 0.950 . S
C796 C797 1.386 . S
C796 C798 1.391 . S
C797 C796 1.386 . S
C797 C801 1.393 . S
C798 H787 0.950 . S
C798 C796 1.391 . S
C798 C799 1.400 . S
C799 C793 1.491 . S
C799 C798 1.400 . S
C799 C800 1.398 . S
C800 H788 0.950 . S
C800 C799 1.398 . S
C800 C801 1.391 . S
C801 H789 0.950 . S
C801 C797 1.393 . S
C801 C800 1.391 . S
H802 C810 0.950 . S
H803 C815 0.950 . S
H804 C812 0.950 . S
H805 C814 0.950 . S
H806 C816 0.950 . S
H807 C818 0.950 . S
H808 C820 0.950 . S
H809 C821 0.950 . S
C810 H802 0.950 . S
C810 C811 1.386 . S
C810 C812 1.391 . S
C811 C810 1.386 . S
C811 C815 1.393 . S
C812 H804 0.950 . S
C812 C810 1.391 . S
C812 C813 1.400 . S
C813 C812 1.400 . S
C813 C814 1.398 . S
C813 C819 1.491 1_545 S
C814 H805 0.950 . S
C814 C813 1.398 . S
C814 C815 1.391 . S
C815 H803 0.950 . S
C815 C811 1.393 . S
C815 C814 1.391 . S
C816 H806 0.950 . S
C816 C817 1.386 . S
C816 C818 1.391 . S
C817 C816 1.386 . S
C817 C821 1.393 . S
C818 H807 0.950 . S
C818 C816 1.391 . S
C818 C819 1.400 . S
C819 C813 1.491 1_565 S
C819 C818 1.400 . S
C819 C820 1.398 . S
C820 H808 0.950 . S
C820 C819 1.398 . S
C820 C821 1.391 . S
C821 H809 0.950 . S
C821 C817 1.393 . S
C821 C820 1.391 . S
H822 C830 0.950 . S
H823 C835 0.950 . S
H824 C832 0.950 . S
H825 C834 0.950 . S
H826 C836 0.950 . S
H827 C838 0.950 . S
H828 C840 0.950 . S
H829 C841 0.950 . S
C830 H822 0.950 . S
C830 C831 1.386 . S
C830 C832 1.391 . S
C831 C830 1.386 . S
C831 C835 1.393 . S
C832 H824 0.950 . S
C832 C830 1.391 . S
C832 C833 1.400 . S
C833 C832 1.400 . S
C833 C834 1.398 . S
C833 C839 1.491 . S
C834 H825 0.950 . S
C834 C833 1.398 . S
C834 C835 1.391 . S
C835 H823 0.950 . S
C835 C831 1.393 . S
C835 C834 1.391 . S
C836 H826 0.950 . S
C836 C837 1.386 . S
C836 C838 1.391 . S
C837 C836 1.386 . S
C837 C841 1.393 . S
C838 H827 0.950 . S
C838 C836 1.391 . S
C838 C839 1.400 . S
C839 C833 1.491 . S
C839 C838 1.400 . S
C839 C840 1.398 . S
C840 H828 0.950 . S
C840 C839 1.398 . S
C840 C841 1.391 . S
C841 H829 0.950 . S
C841 C837 1.393 . S
C841 C840 1.391 . S
H842 C850 0.950 . S
H843 C855 0.950 . S
H844 C852 0.950 . S
H845 C854 0.950 . S
H846 C856 0.950 . S
H847 C858 0.950 . S
H848 C860 0.950 . S
H849 C861 0.950 . S
C850 H842 0.950 . S
C850 C851 1.386 . S
C850 C852 1.391 . S
C851 C850 1.386 . S
C851 C855 1.393 . S
C852 H844 0.950 . S
C852 C850 1.391 . S
C852 C853 1.400 . S
C853 C852 1.400 . S
C853 C854 1.398 . S
C853 C859 1.491 . S
C854 H845 0.950 . S
C854 C853 1.398 . S
C854 C855 1.391 . S
C855 H843 0.950 . S
C855 C851 1.393 . S
C855 C854 1.391 . S
C856 H846 0.950 . S
C856 C857 1.386 . S
C856 C858 1.391 . S
C857 C856 1.386 . S
C857 C861 1.393 . S
C858 H847 0.950 . S
C858 C856 1.391 . S
C858 C859 1.400 . S
C859 C853 1.491 . S
C859 C858 1.400 . S
C859 C860 1.398 . S
C860 H848 0.950 . S
C860 C859 1.398 . S
C860 C861 1.391 . S
C861 H849 0.950 . S
C861 C857 1.393 . S
C861 C860 1.391 . S
H862 C870 0.950 . S
H863 C875 0.950 . S
H864 C872 0.950 . S
H865 C874 0.950 . S
H866 C876 0.950 . S
H867 C878 0.950 . S
H868 C880 0.950 . S
H869 C881 0.950 . S
C870 H862 0.950 . S
C870 C871 1.386 . S
C870 C872 1.391 . S
C871 C870 1.386 . S
C871 C875 1.393 . S
C872 H864 0.950 . S
C872 C870 1.391 . S
C872 C873 1.400 . S
C873 C872 1.400 . S
C873 C874 1.398 . S
C873 C879 1.491 . S
C874 H865 0.950 . S
C874 C873 1.398 . S
C874 C875 1.391 . S
C875 H863 0.950 . S
C875 C871 1.393 . S
C875 C874 1.391 . S
C876 H866 0.950 . S
C876 C877 1.386 . S
C876 C878 1.391 . S
C877 C876 1.386 . S
C877 C881 1.393 . S
C878 H867 0.950 . S
C878 C876 1.391 . S
C878 C879 1.400 . S
C879 C873 1.491 . S
C879 C878 1.400 . S
C879 C880 1.398 . S
C880 H868 0.950 . S
C880 C879 1.398 . S
C880 C881 1.391 . S
C881 H869 0.950 . S
C881 C877 1.393 . S
C881 C880 1.391 . S
H882 C890 0.950 . S
H883 C895 0.950 . S
H884 C892 0.950 . S
H885 C894 0.950 . S
H886 C896 0.950 . S
H887 C898 0.950 . S
H888 C900 0.950 . S
H889 C901 0.950 . S
C890 H882 0.950 . S
C890 C891 1.386 . S
C890 C892 1.391 . S
C891 C890 1.386 . S
C891 C895 1.393 . S
C892 H884 0.950 . S
C892 C890 1.391 . S
C892 C893 1.400 . S
C893 C892 1.400 . S
C893 C894 1.398 . S
C893 C899 1.491 . S
C894 H885 0.950 . S
C894 C893 1.398 . S
C894 C895 1.391 . S
C895 H883 0.950 . S
C895 C891 1.393 . S
C895 C894 1.391 . S
C896 H886 0.950 . S
C896 C897 1.386 . S
C896 C898 1.391 . S
C897 C896 1.386 . S
C897 C901 1.393 . S
C898 H887 0.950 . S
C898 C896 1.391 . S
C898 C899 1.400 . S
C899 C893 1.491 . S
C899 C898 1.400 . S
C899 C900 1.398 . S
C900 H888 0.950 . S
C900 C899 1.398 . S
C900 C901 1.391 . S
C901 H889 0.950 . S
C901 C897 1.393 . S
C901 C900 1.391 . S
H902 C910 0.950 . S
H903 C915 0.950 . S
H904 C912 0.950 . S
H905 C914 0.950 . S
H906 C916 0.950 . S
H907 C918 0.950 . S
H908 C920 0.950 . S
H909 C921 0.950 . S
C910 H902 0.950 . S
C910 C911 1.386 . S
C910 C912 1.391 . S
C911 C910 1.386 . S
C911 C915 1.393 . S
C912 H904 0.950 . S
C912 C910 1.391 . S
C912 C913 1.400 . S
C913 C912 1.400 . S
C913 C914 1.398 . S
C913 C919 1.491 . S
C914 H905 0.950 . S
C914 C913 1.398 . S
C914 C915 1.391 . S
C915 H903 0.950 . S
C915 C911 1.393 . S
C915 C914 1.391 . S
C916 H906 0.950 . S
C916 C917 1.386 . S
C916 C918 1.391 . S
C917 C916 1.386 . S
C917 C921 1.393 . S
C918 H907 0.950 . S
C918 C916 1.391 . S
C918 C919 1.400 . S
C919 C913 1.491 . S
C919 C918 1.400 . S
C919 C920 1.398 . S
C920 H908 0.950 . S
C920 C919 1.398 . S
C920 C921 1.391 . S
C921 H909 0.950 . S
C921 C917 1.393 . S
C921 C920 1.391 . S
H922 C930 0.950 . S
H923 C935 0.950 . S
H924 C932 0.950 . S
H925 C934 0.950 . S
H926 C936 0.950 . S
H927 C938 0.950 . S
H928 C940 0.950 . S
H929 C941 0.950 . S
C930 H922 0.950 . S
C930 C931 1.386 . S
C930 C932 1.391 . S
C931 C930 1.386 . S
C931 C935 1.393 . S
C932 H924 0.950 . S
C932 C930 1.391 . S
C932 C933 1.400 . S
C933 C932 1.400 . S
C933 C934 1.398 . S
C933 C939 1.491 . S
C934 H925 0.950 . S
C934 C933 1.398 . S
C934 C935 1.391 . S
C935 H923 0.950 . S
C935 C931 1.393 . S
C935 C934 1.391 . S
C936 H926 0.950 . S
C936 C937 1.386 . S
C936 C938 1.391 . S
C937 C936 1.386 . S
C937 C941 1.393 . S
C938 H927 0.950 . S
C938 C936 1.391 . S
C938 C939 1.400 . S
C939 C933 1.491 . S
C939 C938 1.400 . S
C939 C940 1.398 . S
C940 H928 0.950 . S
C940 C939 1.398 . S
C940 C941 1.391 . S
C941 H929 0.950 . S
C941 C937 1.393 . S
C941 C940 1.391 . S
H942 C950 0.950 . S
H943 C955 0.950 . S
H944 C952 0.950 . S
H945 C954 0.950 . S
H946 C956 0.950 . S
H947 C958 0.950 . S
H948 C960 0.950 . S
H949 C961 0.950 . S
C950 H942 0.950 . S
C950 C951 1.386 . S
C950 C952 1.391 . S
C951 C950 1.386 . S
C951 C955 1.393 . S
C952 H944 0.950 . S
C952 C950 1.391 . S
C952 C953 1.400 . S
C953 C952 1.400 . S
C953 C954 1.398 . S
C953 C959 1.491 1_545 S
C954 H945 0.950 . S
C954 C953 1.398 . S
C954 C955 1.391 . S
C955 H943 0.950 . S
C955 C951 1.393 . S
C955 C954 1.391 . S
C956 H946 0.950 . S
C956 C957 1.386 . S
C956 C958 1.391 . S
C957 C956 1.386 . S
C957 C961 1.393 . S
C958 H947 0.950 . S
C958 C956 1.391 . S
C958 C959 1.400 . S
C959 C953 1.491 1_565 S
C959 C958 1.400 . S
C959 C960 1.398 . S
C960 H948 0.950 . S
C960 C959 1.398 . S
C960 C961 1.391 . S
C961 H949 0.950 . S
C961 C957 1.393 . S
C961 C960 1.391 . S
H962 C970 0.950 . S
H963 C975 0.950 . S
H964 C972 0.950 . S
H965 C974 0.950 1_455 S
H966 C976 0.950 . S
H967 C978 0.950 . S
H968 C980 0.950 . S
H969 C981 0.950 . S
C970 H962 0.950 . S
C970 C971 1.386 . S
C970 C972 1.391 . S
C971 C970 1.386 . S
C971 C975 1.393 . S
C972 H964 0.950 . S
C972 C970 1.391 . S
C972 C973 1.400 . S
C973 C972 1.400 . S
C973 C974 1.398 . S
C973 C979 1.491 1_655 S
C974 H965 0.950 1_655 S
C974 C973 1.398 . S
C974 C975 1.391 . S
C975 H963 0.950 . S
C975 C971 1.393 . S
C975 C974 1.391 . S
C976 H966 0.950 . S
C976 C977 1.386 . S
C976 C978 1.391 . S
C977 C976 1.386 . S
C977 C981 1.393 . S
C978 H967 0.950 . S
C978 C976 1.391 . S
C978 C979 1.400 . S
C979 C973 1.491 1_455 S
C979 C978 1.400 . S
C979 C980 1.398 . S
C980 H968 0.950 . S
C980 C979 1.398 . S
C980 C981 1.391 . S
C981 H969 0.950 . S
C981 C977 1.393 . S
C981 C980 1.391 . S
H982 C990 0.950 . S
H983 C995 0.950 . S
H984 C992 0.950 . S
H985 C994 0.950 . S
H986 C996 0.950 . S
H987 C998 0.950 . S
H988 C1000 0.950 . S
H989 C1001 0.950 . S
C990 H982 0.950 . S
C990 C991 1.386 . S
C990 C992 1.391 . S
C991 C990 1.386 . S
C991 C995 1.393 . S
C992 H984 0.950 . S
C992 C990 1.391 . S
C992 C993 1.400 . S
C993 C992 1.400 . S
C993 C994 1.398 . S
C993 C999 1.491 . S
C994 H985 0.950 . S
C994 C993 1.398 . S
C994 C995 1.391 . S
C995 H983 0.950 . S
C995 C991 1.393 . S
C995 C994 1.391 . S
C996 H986 0.950 . S
C996 C997 1.386 . S
C996 C998 1.391 . S
C997 C996 1.386 . S
C997 C1001 1.393 . S
C998 H987 0.950 . S
C998 C996 1.391 . S
C998 C999 1.400 . S
C999 C993 1.491 . S
C999 C998 1.400 . S
C999 C1000 1.398 . S
C1000 H988 0.950 . S
C1000 C999 1.398 . S
C1000 C1001 1.391 . S
C1001 H989 0.950 . S
C1001 C997 1.393 . S
C1001 C1000 1.391 . S
H1002 C1010 0.950 . S
H1003 C1015 0.950 . S
H1004 C1012 0.950 . S
H1005 C1014 0.950 . S
H1006 C1016 0.950 . S
H1007 C1018 0.950 . S
H1008 C1020 0.950 . S
H1009 C1021 0.950 . S
C1010 H1002 0.950 . S
C1010 C1011 1.386 . S
C1010 C1012 1.391 . S
C1011 C1010 1.386 . S
C1011 C1015 1.393 . S
C1012 H1004 0.950 . S
C1012 C1010 1.391 . S
C1012 C1013 1.400 . S
C1013 C1012 1.400 . S
C1013 C1014 1.398 . S
C1013 C1019 1.491 . S
C1014 H1005 0.950 . S
C1014 C1013 1.398 . S
C1014 C1015 1.391 . S
C1015 H1003 0.950 . S
C1015 C1011 1.393 . S
C1015 C1014 1.391 . S
C1016 H1006 0.950 . S
C1016 C1017 1.386 . S
C1016 C1018 1.391 . S
C1017 C1016 1.386 . S
C1017 C1021 1.393 . S
C1018 H1007 0.950 . S
C1018 C1016 1.391 . S
C1018 C1019 1.400 . S
C1019 C1013 1.491 . S
C1019 C1018 1.400 . S
C1019 C1020 1.398 . S
C1020 H1008 0.950 . S
C1020 C1019 1.398 . S
C1020 C1021 1.391 . S
C1021 H1009 0.950 . S
C1021 C1017 1.393 . S
C1021 C1020 1.391 . S
H1022 C1030 0.950 . S
H1023 C1035 0.950 . S
H1024 C1032 0.950 . S
H1025 C1034 0.950 . S
H1026 C1036 0.950 . S
H1027 C1038 0.950 . S
H1028 C1040 0.950 . S
H1029 C1041 0.950 . S
C1030 H1022 0.950 . S
C1030 C1031 1.386 . S
C1030 C1032 1.391 . S
C1031 C1030 1.386 . S
C1031 C1035 1.393 . S
C1032 H1024 0.950 . S
C1032 C1030 1.391 . S
C1032 C1033 1.400 . S
C1033 C1032 1.400 . S
C1033 C1034 1.398 . S
C1033 C1039 1.491 . S
C1034 H1025 0.950 . S
C1034 C1033 1.398 . S
C1034 C1035 1.391 . S
C1035 H1023 0.950 . S
C1035 C1031 1.393 . S
C1035 C1034 1.391 . S
C1036 H1026 0.950 . S
C1036 C1037 1.386 . S
C1036 C1038 1.391 . S
C1037 C1036 1.386 . S
C1037 C1041 1.393 . S
C1038 H1027 0.950 . S
C1038 C1036 1.391 . S
C1038 C1039 1.400 . S
C1039 C1033 1.491 . S
C1039 C1038 1.400 . S
C1039 C1040 1.398 . S
C1040 H1028 0.950 . S
C1040 C1039 1.398 . S
C1040 C1041 1.391 . S
C1041 H1029 0.950 . S
C1041 C1037 1.393 . S
C1041 C1040 1.391 . S
H1042 C1050 0.950 . S
H1043 C1055 0.950 . S
H1044 C1052 0.950 . S
H1045 C1054 0.950 . S
H1046 C1056 0.950 . S
H1047 C1058 0.950 . S
H1048 C1060 0.950 . S
H1049 C1061 0.950 . S
C1050 H1042 0.950 . S
C1050 C1051 1.386 . S
C1050 C1052 1.391 . S
C1051 C1050 1.386 . S
C1051 C1055 1.393 . S
C1052 H1044 0.950 . S
C1052 C1050 1.391 . S
C1052 C1053 1.400 . S
C1053 C1052 1.400 . S
C1053 C1054 1.398 . S
C1053 C1059 1.491 . S
C1054 H1045 0.950 . S
C1054 C1053 1.398 . S
C1054 C1055 1.391 . S
C1055 H1043 0.950 . S
C1055 C1051 1.393 . S
C1055 C1054 1.391 . S
C1056 H1046 0.950 . S
C1056 C1057 1.386 . S
C1056 C1058 1.391 . S
C1057 C1056 1.386 . S
C1057 C1061 1.393 . S
C1058 H1047 0.950 . S
C1058 C1056 1.391 . S
C1058 C1059 1.400 . S
C1059 C1053 1.491 . S
C1059 C1058 1.400 . S
C1059 C1060 1.398 . S
C1060 H1048 0.950 . S
C1060 C1059 1.398 . S
C1060 C1061 1.391 . S
C1061 H1049 0.950 . S
C1061 C1057 1.393 . S
C1061 C1060 1.391 . S
H1062 C1070 0.950 . S
H1063 C1075 0.950 . S
H1064 C1072 0.950 . S
H1065 C1074 0.950 . S
H1066 C1076 0.950 . S
H1067 C1078 0.950 . S
H1068 C1080 0.950 . S
H1069 C1081 0.950 . S
C1070 H1062 0.950 . S
C1070 C1071 1.386 . S
C1070 C1072 1.391 . S
C1071 C1070 1.386 . S
C1071 C1075 1.393 . S
C1072 H1064 0.950 . S
C1072 C1070 1.391 . S
C1072 C1073 1.400 . S
C1073 C1072 1.400 . S
C1073 C1074 1.398 . S
C1073 C1079 1.491 1_565 S
C1074 H1065 0.950 . S
C1074 C1073 1.398 . S
C1074 C1075 1.391 . S
C1075 H1063 0.950 . S
C1075 C1071 1.393 . S
C1075 C1074 1.391 . S
C1076 H1066 0.950 . S
C1076 C1077 1.386 . S
C1076 C1078 1.391 . S
C1077 C1076 1.386 . S
C1077 C1081 1.393 . S
C1078 H1067 0.950 . S
C1078 C1076 1.391 . S
C1078 C1079 1.400 . S
C1079 C1073 1.491 1_545 S
C1079 C1078 1.400 . S
C1079 C1080 1.398 . S
C1080 H1068 0.950 . S
C1080 C1079 1.398 . S
C1080 C1081 1.391 . S
C1081 H1069 0.950 . S
C1081 C1077 1.393 . S
C1081 C1080 1.391 . S
H1082 C1090 0.950 . S
H1083 C1095 0.950 . S
H1084 C1092 0.950 . S
H1085 C1094 0.950 1_655 S
H1086 C1096 0.950 . S
H1087 C1098 0.950 . S
H1088 C1100 0.950 . S
H1089 C1101 0.950 . S
C1090 H1082 0.950 . S
C1090 C1091 1.386 . S
C1090 C1092 1.391 . S
C1091 C1090 1.386 . S
C1091 C1095 1.393 . S
C1092 H1084 0.950 . S
C1092 C1090 1.391 . S
C1092 C1093 1.400 . S
C1093 C1092 1.400 . S
C1093 C1094 1.398 . S
C1093 C1099 1.491 1_455 S
C1094 H1085 0.950 1_455 S
C1094 C1093 1.398 . S
C1094 C1095 1.391 . S
C1095 H1083 0.950 . S
C1095 C1091 1.393 . S
C1095 C1094 1.391 . S
C1096 H1086 0.950 . S
C1096 C1097 1.386 . S
C1096 C1098 1.391 . S
C1097 C1096 1.386 . S
C1097 C1101 1.393 . S
C1098 H1087 0.950 . S
C1098 C1096 1.391 . S
C1098 C1099 1.400 . S
C1099 C1093 1.491 1_655 S
C1099 C1098 1.400 . S
C1099 C1100 1.398 . S
C1100 H1088 0.950 . S
C1100 C1099 1.398 . S
C1100 C1101 1.391 . S
C1101 H1089 0.950 . S
C1101 C1097 1.393 . S
C1101 C1100 1.391 . S
H1102 C1110 0.950 . S
H1103 C1115 0.950 . S
H1104 C1112 0.950 . S
H1105 C1114 0.950 . S
H1106 C1116 0.950 . S
H1107 C1118 0.950 . S
H1108 C1120 0.950 . S
H1109 C1121 0.950 . S
C1110 H1102 0.950 . S
C1110 C1111 1.386 . S
C1110 C1112 1.391 . S
C1111 C1110 1.386 . S
C1111 C1115 1.393 . S
C1112 H1104 0.950 . S
C1112 C1110 1.391 . S
C1112 C1113 1.400 . S
C1113 C1112 1.400 . S
C1113 C1114 1.398 . S
C1113 C1119 1.491 . S
C1114 H1105 0.950 . S
C1114 C1113 1.398 . S
C1114 C1115 1.391 . S
C1115 H1103 0.950 . S
C1115 C1111 1.393 . S
C1115 C1114 1.391 . S
C1116 H1106 0.950 . S
C1116 C1117 1.386 . S
C1116 C1118 1.391 . S
C1117 C1116 1.386 . S
C1117 C1121 1.393 . S
C1118 H1107 0.950 . S
C1118 C1116 1.391 . S
C1118 C1119 1.400 . S
C1119 C1113 1.491 . S
C1119 C1118 1.400 . S
C1119 C1120 1.398 . S
C1120 H1108 0.950 . S
C1120 C1119 1.398 . S
C1120 C1121 1.391 . S
C1121 H1109 0.950 . S
C1121 C1117 1.393 . S
C1121 C1120 1.391 . S
H1122 C1130 0.950 . S
H1123 C1135 0.950 . S
H1124 C1132 0.970 . S
H1125 C1134 0.950 . S
H1126 C1136 0.950 . S
H1127 C1138 0.950 . S
H1128 C1140 0.950 . S
H1129 C1141 0.950 . S
C1130 H1122 0.950 . S
C1130 C1131 1.386 . S
C1130 C1132 1.391 . S
C1131 C1130 1.386 . S
C1131 C1135 1.393 . S
C1132 H1124 0.970 . S
C1132 C1130 1.391 . S
C1132 C1133 1.400 . S
C1133 C1132 1.400 . S
C1133 C1134 1.398 . S
C1133 C1139 1.491 1_455 S
C1134 H1125 0.950 . S
C1134 C1133 1.398 . S
C1134 C1135 1.391 . S
C1135 H1123 0.950 . S
C1135 C1131 1.393 . S
C1135 C1134 1.391 . S
C1136 H1126 0.950 . S
C1136 C1137 1.386 . S
C1136 C1138 1.391 . S
C1137 C1136 1.386 . S
C1137 C1141 1.393 . S
C1138 H1127 0.950 . S
C1138 C1136 1.391 . S
C1138 C1139 1.400 . S
C1139 C1133 1.491 1_655 S
C1139 C1138 1.400 . S
C1139 C1140 1.398 . S
C1140 H1128 0.950 . S
C1140 C1139 1.398 . S
C1140 C1141 1.391 . S
C1141 H1129 0.950 . S
C1141 C1137 1.393 . S
C1141 C1140 1.391 . S
H1142 C1150 0.950 . S
H1143 C1155 0.950 . S
H1144 C1152 0.950 . S
H1145 C1154 0.950 . S
H1146 C1156 0.950 . S
H1147 C1158 0.950 . S
H1148 C1160 0.950 . S
H1149 C1161 0.950 . S
C1150 H1142 0.950 . S
C1150 C1151 1.386 . S
C1150 C1152 1.391 . S
C1151 C1150 1.386 . S
C1151 C1155 1.393 . S
C1152 H1144 0.950 . S
C1152 C1150 1.391 . S
C1152 C1153 1.400 . S
C1153 C1152 1.400 . S
C1153 C1154 1.398 . S
C1153 C1159 1.491 . S
C1154 H1145 0.950 . S
C1154 C1153 1.398 . S
C1154 C1155 1.391 . S
C1155 H1143 0.950 . S
C1155 C1151 1.393 . S
C1155 C1154 1.391 . S
C1156 H1146 0.950 . S
C1156 C1157 1.386 . S
C1156 C1158 1.391 . S
C1157 C1156 1.386 . S
C1157 C1161 1.393 . S
C1158 H1147 0.950 . S
C1158 C1156 1.391 . S
C1158 C1159 1.400 . S
C1159 C1153 1.491 . S
C1159 C1158 1.400 . S
C1159 C1160 1.398 . S
C1160 H1148 0.950 . S
C1160 C1159 1.398 . S
C1160 C1161 1.391 . S
C1161 H1149 0.950 . S
C1161 C1157 1.393 . S
C1161 C1160 1.391 . S
H1162 C1170 0.950 . S
H1163 C1175 0.950 . S
H1164 C1172 0.950 . S
H1165 C1174 0.950 . S
H1166 C1176 0.950 . S
H1167 C1178 0.950 . S
H1168 C1180 0.950 . S
H1169 C1181 0.950 . S
C1170 H1162 0.950 . S
C1170 C1171 1.386 . S
C1170 C1172 1.391 . S
C1171 C1170 1.386 . S
C1171 C1175 1.393 . S
C1172 H1164 0.950 . S
C1172 C1170 1.391 . S
C1172 C1173 1.400 . S
C1173 C1172 1.400 . S
C1173 C1174 1.398 . S
C1173 C1179 1.491 1_565 S
C1174 H1165 0.950 . S
C1174 C1173 1.398 . S
C1174 C1175 1.391 . S
C1175 H1163 0.950 . S
C1175 C1171 1.393 . S
C1175 C1174 1.391 . S
C1176 H1166 0.950 . S
C1176 C1177 1.386 . S
C1176 C1178 1.391 . S
C1177 C1176 1.386 . S
C1177 C1181 1.393 . S
C1178 H1167 0.950 . S
C1178 C1176 1.391 . S
C1178 C1179 1.400 . S
C1179 C1173 1.491 1_545 S
C1179 C1178 1.400 . S
C1179 C1180 1.398 . S
C1180 H1168 0.950 . S
C1180 C1179 1.398 . S
C1180 C1181 1.391 . S
C1181 H1169 0.950 . S
C1181 C1177 1.393 . S
C1181 C1180 1.391 . S
H1182 C1190 0.950 . S
H1183 C1195 0.950 . S
H1184 C1192 0.950 . S
H1185 C1194 0.950 . S
H1186 C1196 0.950 . S
H1187 C1198 0.950 . S
H1188 C1200 0.950 . S
H1189 C1201 0.950 . S
C1190 H1182 0.950 . S
C1190 C1191 1.386 . S
C1190 C1192 1.391 . S
C1191 C1190 1.386 . S
C1191 C1195 1.393 . S
C1192 H1184 0.950 . S
C1192 C1190 1.391 . S
C1192 C1193 1.400 . S
C1193 C1192 1.400 . S
C1193 C1194 1.398 . S
C1193 C1199 1.491 . S
C1194 H1185 0.950 . S
C1194 C1193 1.398 . S
C1194 C1195 1.391 . S
C1195 H1183 0.950 . S
C1195 C1191 1.393 . S
C1195 C1194 1.391 . S
C1196 H1186 0.950 . S
C1196 C1197 1.386 . S
C1196 C1198 1.391 . S
C1197 C1196 1.386 . S
C1197 C1201 1.393 . S
C1198 H1187 0.950 . S
C1198 C1196 1.391 . S
C1198 C1199 1.400 . S
C1199 C1193 1.491 . S
C1199 C1198 1.400 . S
C1199 C1200 1.398 . S
C1200 H1188 0.950 . S
C1200 C1199 1.398 . S
C1200 C1201 1.391 . S
C1201 H1189 0.950 . S
C1201 C1197 1.393 . S
C1201 C1200 1.391 . S
H1202 C1210 0.950 . S
H1203 C1215 0.950 . S
H1204 C1212 0.950 . S
H1205 C1214 0.950 . S
H1206 C1216 0.950 . S
H1207 C1218 0.950 . S
H1208 C1220 0.950 . S
H1209 C1221 0.950 . S
C1210 H1202 0.950 . S
C1210 C1211 1.386 . S
C1210 C1212 1.391 . S
C1211 C1210 1.386 . S
C1211 C1215 1.393 . S
C1212 H1204 0.950 . S
C1212 C1210 1.391 . S
C1212 C1213 1.400 . S
C1213 C1212 1.400 . S
C1213 C1214 1.398 . S
C1213 C1219 1.491 . S
C1214 H1205 0.950 . S
C1214 C1213 1.398 . S
C1214 C1215 1.391 . S
C1215 H1203 0.950 . S
C1215 C1211 1.393 . S
C1215 C1214 1.391 . S
C1216 H1206 0.950 . S
C1216 C1217 1.386 . S
C1216 C1218 1.391 . S
C1217 C1216 1.386 . S
C1217 C1221 1.393 . S
C1218 H1207 0.950 . S
C1218 C1216 1.391 . S
C1218 C1219 1.400 . S
C1219 C1213 1.491 . S
C1219 C1218 1.400 . S
C1219 C1220 1.398 . S
C1220 H1208 0.950 . S
C1220 C1219 1.398 . S
C1220 C1221 1.391 . S
C1221 H1209 0.950 . S
C1221 C1217 1.393 . S
C1221 C1220 1.391 . S
H1222 C1230 0.950 . S
H1223 C1235 0.950 . S
H1224 C1232 0.950 . S
H1225 C1234 0.950 . S
H1226 C1236 0.950 . S
H1227 C1238 0.950 . S
H1228 C1240 0.950 . S
H1229 C1241 0.950 . S
C1230 H1222 0.950 . S
C1230 C1231 1.386 . S
C1230 C1232 1.391 . S
C1231 C1230 1.386 . S
C1231 C1235 1.393 . S
C1232 H1224 0.950 . S
C1232 C1230 1.391 . S
C1232 C1233 1.400 . S
C1233 C1232 1.400 . S
C1233 C1234 1.398 . S
C1233 C1239 1.491 . S
C1234 H1225 0.950 . S
C1234 C1233 1.398 . S
C1234 C1235 1.391 . S
C1235 H1223 0.950 . S
C1235 C1231 1.393 . S
C1235 C1234 1.391 . S
C1236 H1226 0.950 . S
C1236 C1237 1.386 . S
C1236 C1238 1.391 . S
C1237 C1236 1.386 . S
C1237 C1241 1.393 . S
C1238 H1227 0.950 . S
C1238 C1236 1.391 . S
C1238 C1239 1.400 . S
C1239 C1233 1.491 . S
C1239 C1238 1.400 . S
C1239 C1240 1.398 . S
C1240 H1228 0.950 . S
C1240 C1239 1.398 . S
C1240 C1241 1.391 . S
C1241 H1229 0.950 . S
C1241 C1237 1.393 . S
C1241 C1240 1.391 . S
H1242 C1250 0.950 . S
H1243 C1255 0.950 . S
H1244 C1252 0.950 . S
H1245 C1254 0.950 1_545 S
H1246 C1256 0.950 . S
H1247 C1258 0.950 . S
H1248 C1260 0.950 . S
H1249 C1261 0.950 . S
C1250 H1242 0.950 . S
C1250 C1251 1.386 . S
C1250 C1252 1.391 . S
C1251 C1250 1.386 . S
C1251 C1255 1.393 . S
C1252 H1244 0.950 . S
C1252 C1250 1.391 . S
C1252 C1253 1.400 . S
C1253 C1252 1.400 . S
C1253 C1254 1.398 . S
C1253 C1259 1.491 . S
C1254 H1245 0.950 1_565 S
C1254 C1253 1.398 . S
C1254 C1255 1.391 . S
C1255 H1243 0.950 . S
C1255 C1251 1.393 . S
C1255 C1254 1.391 . S
C1256 H1246 0.950 . S
C1256 C1257 1.386 1_545 S
C1256 C1258 1.391 . S
C1257 C1256 1.386 1_565 S
C1257 C1261 1.393 . S
C1258 H1247 0.950 . S
C1258 C1256 1.391 . S
C1258 C1259 1.400 1_545 S
C1259 C1253 1.491 . S
C1259 C1258 1.400 1_565 S
C1259 C1260 1.398 . S
C1260 H1248 0.950 . S
C1260 C1259 1.398 . S
C1260 C1261 1.391 . S
C1261 H1249 0.950 . S
C1261 C1257 1.393 . S
C1261 C1260 1.391 . S
H1262 C1270 0.950 1_655 S
H1263 C1275 0.950 . S
H1264 C1272 0.950 1_655 S
H1265 C1274 0.950 . S
H1266 C1276 0.950 . S
H1267 C1278 0.950 . S
H1268 C1280 0.951 . S
H1269 C1281 0.950 . S
C1270 H1262 0.950 1_455 S
C1270 C1271 1.386 . S
C1270 C1272 1.391 . S
C1271 C1270 1.386 . S
C1271 C1275 1.393 . S
C1272 H1264 0.950 1_455 S
C1272 C1270 1.391 . S
C1272 C1273 1.400 . S
C1273 C1272 1.400 . S
C1273 C1274 1.398 . S
C1273 C1279 1.491 . S
C1274 H1265 0.950 . S
C1274 C1273 1.398 . S
C1274 C1275 1.391 . S
C1275 H1263 0.950 . S
C1275 C1271 1.393 . S
C1275 C1274 1.391 . S
C1276 H1266 0.950 . S
C1276 C1277 1.386 . S
C1276 C1278 1.391 . S
C1277 C1276 1.386 . S
C1277 C1281 1.393 1_455 S
C1278 H1267 0.950 . S
C1278 C1276 1.391 . S
C1278 C1279 1.400 . S
C1279 C1273 1.491 . S
C1279 C1278 1.400 . S
C1279 C1280 1.397 1_455 S
C1280 H1268 0.951 . S
C1280 C1279 1.397 1_655 S
C1280 C1281 1.390 . S
C1281 H1269 0.950 . S
C1281 C1277 1.393 1_655 S
C1281 C1280 1.390 . S
H1282 C1290 0.950 . S
H1283 C1295 0.950 . S
H1284 C1292 0.950 . S
H1285 C1294 0.950 . S
H1286 C1296 0.950 . S
H1287 C1298 0.950 . S
H1288 C1300 0.950 . S
H1289 C1301 0.950 . S
C1290 H1282 0.950 . S
C1290 C1291 1.386 . S
C1290 C1292 1.391 . S
C1291 C1290 1.386 . S
C1291 C1295 1.393 . S
C1292 H1284 0.950 . S
C1292 C1290 1.391 . S
C1292 C1293 1.400 . S
C1293 C1292 1.400 . S
C1293 C1294 1.398 . S
C1293 C1299 1.491 . S
C1294 H1285 0.950 . S
C1294 C1293 1.398 . S
C1294 C1295 1.391 . S
C1295 H1283 0.950 . S
C1295 C1291 1.393 . S
C1295 C1294 1.391 . S
C1296 H1286 0.950 . S
C1296 C1297 1.386 . S
C1296 C1298 1.391 . S
C1297 C1296 1.386 . S
C1297 C1301 1.393 . S
C1298 H1287 0.950 . S
C1298 C1296 1.391 . S
C1298 C1299 1.400 . S
C1299 C1293 1.491 . S
C1299 C1298 1.400 . S
C1299 C1300 1.398 . S
C1300 H1288 0.950 . S
C1300 C1299 1.398 . S
C1300 C1301 1.391 . S
C1301 H1289 0.950 . S
C1301 C1297 1.393 . S
C1301 C1300 1.391 . S
H1302 C1310 0.950 . S
H1303 C1315 0.950 1_455 S
H1304 C1312 0.950 . S
H1305 C1314 0.950 1_455 S
H1306 C1316 0.950 . S
H1307 C1318 0.950 . S
H1308 C1320 0.950 . S
H1309 C1321 0.950 . S
C1310 H1302 0.950 . S
C1310 C1311 1.386 . S
C1310 C1312 1.391 . S
C1311 C1310 1.386 . S
C1311 C1315 1.393 . S
C1312 H1304 0.950 . S
C1312 C1310 1.391 . S
C1312 C1313 1.400 . S
C1313 C1312 1.400 . S
C1313 C1314 1.398 . S
C1313 C1319 1.491 . S
C1314 H1305 0.950 1_655 S
C1314 C1313 1.398 . S
C1314 C1315 1.391 . S
C1315 H1303 0.950 1_655 S
C1315 C1311 1.393 . S
C1315 C1314 1.391 . S
C1316 H1306 0.950 . S
C1316 C1317 1.386 1_455 S
C1316 C1318 1.391 . S
C1317 C1316 1.386 1_655 S
C1317 C1321 1.393 . S
C1318 H1307 0.950 . S
C1318 C1316 1.391 . S
C1318 C1319 1.400 1_455 S
C1319 C1313 1.491 . S
C1319 C1318 1.400 1_655 S
C1319 C1320 1.398 . S
C1320 H1308 0.950 . S
C1320 C1319 1.398 . S
C1320 C1321 1.391 . S
C1321 H1309 0.950 . S
C1321 C1317 1.393 . S
C1321 C1320 1.391 . S
H1322 C1330 0.950 . S
H1323 C1335 0.950 . S
H1324 C1332 0.950 . S
H1325 C1334 0.950 . S
H1326 C1336 0.950 . S
H1327 C1338 0.950 . S
H1328 C1340 0.950 . S
H1329 C1341 0.950 . S
C1330 H1322 0.950 . S
C1330 C1331 1.386 . S
C1330 C1332 1.391 . S
C1331 C1330 1.386 . S
C1331 C1335 1.393 . S
C1332 H1324 0.950 . S
C1332 C1330 1.391 . S
C1332 C1333 1.400 . S
C1333 C1332 1.400 . S
C1333 C1334 1.398 . S
C1333 C1339 1.491 . S
C1334 H1325 0.950 . S
C1334 C1333 1.398 . S
C1334 C1335 1.391 . S
C1335 H1323 0.950 . S
C1335 C1331 1.393 . S
C1335 C1334 1.391 . S
C1336 H1326 0.950 . S
C1336 C1337 1.386 . S
C1336 C1338 1.391 . S
C1337 C1336 1.386 . S
C1337 C1341 1.393 . S
C1338 H1327 0.950 . S
C1338 C1336 1.391 . S
C1338 C1339 1.400 . S
C1339 C1333 1.491 . S
C1339 C1338 1.400 . S
C1339 C1340 1.398 . S
C1340 H1328 0.950 . S
C1340 C1339 1.398 . S
C1340 C1341 1.391 . S
C1341 H1329 0.950 . S
C1341 C1337 1.393 . S
C1341 C1340 1.391 . S
H1342 C1350 0.950 . S
H1343 C1355 0.950 . S
H1344 C1352 0.950 . S
H1345 C1354 0.950 . S
H1346 C1356 0.950 . S
H1347 C1358 0.950 . S
H1348 C1360 0.950 . S
H1349 C1361 0.950 1_565 S
C1350 H1342 0.950 . S
C1350 C1351 1.386 . S
C1350 C1352 1.391 . S
C1351 C1350 1.386 . S
C1351 C1355 1.393 . S
C1352 H1344 0.950 . S
C1352 C1350 1.391 . S
C1352 C1353 1.400 . S
C1353 C1352 1.400 . S
C1353 C1354 1.398 . S
C1353 C1359 1.491 . S
C1354 H1345 0.950 . S
C1354 C1353 1.398 . S
C1354 C1355 1.391 . S
C1355 H1343 0.950 . S
C1355 C1351 1.393 . S
C1355 C1354 1.391 . S
C1356 H1346 0.950 . S
C1356 C1357 1.386 . S
C1356 C1358 1.391 . S
C1357 C1356 1.386 . S
C1357 C1361 1.393 . S
C1358 H1347 0.950 . S
C1358 C1356 1.391 . S
C1358 C1359 1.400 . S
C1359 C1353 1.491 . S
C1359 C1358 1.400 . S
C1359 C1360 1.398 . S
C1360 H1348 0.950 . S
C1360 C1359 1.398 . S
C1360 C1361 1.391 . S
C1361 H1349 0.950 1_545 S
C1361 C1357 1.393 . S
C1361 C1360 1.391 . S
H1362 C1370 0.950 . S
H1363 C1375 0.950 . S
H1364 C1372 0.950 . S
H1365 C1374 0.950 . S
H1366 C1376 0.950 . S
H1367 C1378 0.950 . S
H1368 C1380 0.950 . S
H1369 C1381 0.950 . S
C1370 H1362 0.950 . S
C1370 C1371 1.386 . S
C1370 C1372 1.391 . S
C1371 C1370 1.386 . S
C1371 C1375 1.393 . S
C1372 H1364 0.950 . S
C1372 C1370 1.391 . S
C1372 C1373 1.400 . S
C1373 C1372 1.400 . S
C1373 C1374 1.398 . S
C1373 C1379 1.491 . S
C1374 H1365 0.950 . S
C1374 C1373 1.398 . S
C1374 C1375 1.391 . S
C1375 H1363 0.950 . S
C1375 C1371 1.393 . S
C1375 C1374 1.391 . S
C1376 H1366 0.950 . S
C1376 C1377 1.386 . S
C1376 C1378 1.391 . S
C1377 C1376 1.386 . S
C1377 C1381 1.393 . S
C1378 H1367 0.950 . S
C1378 C1376 1.391 . S
C1378 C1379 1.400 . S
C1379 C1373 1.491 . S
C1379 C1378 1.400 . S
C1379 C1380 1.398 . S
C1380 H1368 0.950 . S
C1380 C1379 1.398 . S
C1380 C1381 1.391 . S
C1381 H1369 0.950 . S
C1381 C1377 1.393 . S
C1381 C1380 1.391 . S
H1382 C1390 0.950 . S
H1383 C1395 0.950 . S
H1384 C1392 0.950 . S
H1385 C1394 0.950 . S
H1386 C1396 0.950 . S
H1387 C1398 0.950 . S
H1388 C1400 0.950 . S
H1389 C1401 0.950 . S
C1390 H1382 0.950 . S
C1390 C1391 1.386 . S
C1390 C1392 1.391 . S
C1391 C1390 1.386 . S
C1391 C1395 1.393 . S
C1392 H1384 0.950 . S
C1392 C1390 1.391 . S
C1392 C1393 1.400 . S
C1393 C1392 1.400 . S
C1393 C1394 1.398 . S
C1393 C1399 1.491 . S
C1394 H1385 0.950 . S
C1394 C1393 1.398 . S
C1394 C1395 1.391 . S
C1395 H1383 0.950 . S
C1395 C1391 1.393 . S
C1395 C1394 1.391 . S
C1396 H1386 0.950 . S
C1396 C1397 1.386 . S
C1396 C1398 1.391 . S
C1397 C1396 1.386 . S
C1397 C1401 1.393 . S
C1398 H1387 0.950 . S
C1398 C1396 1.391 . S
C1398 C1399 1.400 . S
C1399 C1393 1.491 . S
C1399 C1398 1.400 . S
C1399 C1400 1.398 . S
C1400 H1388 0.950 . S
C1400 C1399 1.398 . S
C1400 C1401 1.391 . S
C1401 H1389 0.950 . S
C1401 C1397 1.393 . S
C1401 C1400 1.391 . S
H1402 C1410 0.950 . S
H1403 C1415 0.950 . S
H1404 C1412 0.950 . S
H1405 C1414 0.950 . S
H1406 C1416 0.950 . S
H1407 C1418 0.950 . S
H1408 C1420 0.950 . S
H1409 C1421 0.950 . S
C1410 H1402 0.950 . S
C1410 C1411 1.386 . S
C1410 C1412 1.391 . S
C1411 C1410 1.386 . S
C1411 C1415 1.393 . S
C1412 H1404 0.950 . S
C1412 C1410 1.391 . S
C1412 C1413 1.400 . S
C1413 C1412 1.400 . S
C1413 C1414 1.398 . S
C1413 C1419 1.491 . S
C1414 H1405 0.950 . S
C1414 C1413 1.398 . S
C1414 C1415 1.391 . S
C1415 H1403 0.950 . S
C1415 C1411 1.393 . S
C1415 C1414 1.391 . S
C1416 H1406 0.950 . S
C1416 C1417 1.386 . S
C1416 C1418 1.391 . S
C1417 C1416 1.386 . S
C1417 C1421 1.393 . S
C1418 H1407 0.950 . S
C1418 C1416 1.391 . S
C1418 C1419 1.400 . S
C1419 C1413 1.491 . S
C1419 C1418 1.400 . S
C1419 C1420 1.398 . S
C1420 H1408 0.950 . S
C1420 C1419 1.398 . S
C1420 C1421 1.391 . S
C1421 H1409 0.950 . S
C1421 C1417 1.393 . S
C1421 C1420 1.391 . S
H1422 C1430 0.950 . S
H1423 C1435 0.950 . S
H1424 C1432 0.950 . S
H1425 C1434 0.950 . S
H1426 C1436 0.950 . S
H1427 C1438 0.950 . S
H1428 C1440 0.950 . S
H1429 C1441 0.950 . S
C1430 H1422 0.950 . S
C1430 C1431 1.386 . S
C1430 C1432 1.391 . S
C1431 C1430 1.386 . S
C1431 C1435 1.393 . S
C1432 H1424 0.950 . S
C1432 C1430 1.391 . S
C1432 C1433 1.400 . S
C1433 C1432 1.400 . S
C1433 C1434 1.398 . S
C1433 C1439 1.491 . S
C1434 H1425 0.950 . S
C1434 C1433 1.398 . S
C1434 C1435 1.391 . S
C1435 H1423 0.950 . S
C1435 C1431 1.393 . S
C1435 C1434 1.391 . S
C1436 H1426 0.950 . S
C1436 C1437 1.386 . S
C1436 C1438 1.391 . S
C1437 C1436 1.386 . S
C1437 C1441 1.393 . S
C1438 H1427 0.950 . S
C1438 C1436 1.391 . S
C1438 C1439 1.400 . S
C1439 C1433 1.491 . S
C1439 C1438 1.400 . S
C1439 C1440 1.398 . S
C1440 H1428 0.950 . S
C1440 C1439 1.398 . S
C1440 C1441 1.391 . S
C1441 H1429 0.950 . S
C1441 C1437 1.393 . S
C1441 C1440 1.391 . S
H1442 C1450 0.950 . S
H1443 C1455 0.950 . S
H1444 C1452 0.950 . S
H1445 C1454 0.950 . S
H1446 C1456 0.950 . S
H1447 C1458 0.950 . S
H1448 C1460 0.950 . S
H1449 C1461 0.950 . S
C1450 H1442 0.950 . S
C1450 C1451 1.386 . S
C1450 C1452 1.391 . S
C1451 C1450 1.386 . S
C1451 C1455 1.393 . S
C1452 H1444 0.950 . S
C1452 C1450 1.391 . S
C1452 C1453 1.400 . S
C1453 C1452 1.400 . S
C1453 C1454 1.398 . S
C1453 C1459 1.491 . S
C1454 H1445 0.950 . S
C1454 C1453 1.398 . S
C1454 C1455 1.391 . S
C1455 H1443 0.950 . S
C1455 C1451 1.393 . S
C1455 C1454 1.391 . S
C1456 H1446 0.950 . S
C1456 C1457 1.386 . S
C1456 C1458 1.391 . S
C1457 C1456 1.386 . S
C1457 C1461 1.393 . S
C1458 H1447 0.950 . S
C1458 C1456 1.391 . S
C1458 C1459 1.400 . S
C1459 C1453 1.491 . S
C1459 C1458 1.400 . S
C1459 C1460 1.398 . S
C1460 H1448 0.950 . S
C1460 C1459 1.398 . S
C1460 C1461 1.391 . S
C1461 H1449 0.950 . S
C1461 C1457 1.393 . S
C1461 C1460 1.391 . S
H1462 C1470 0.950 . S
H1463 C1475 0.950 . S
H1464 C1472 0.950 . S
H1465 C1474 0.950 . S
H1466 C1476 0.950 . S
H1467 C1478 0.950 . S
H1468 C1480 0.950 . S
H1469 C1481 0.950 . S
C1470 H1462 0.950 . S
C1470 C1471 1.386 . S
C1470 C1472 1.391 . S
C1471 C1470 1.386 . S
C1471 C1475 1.393 . S
C1472 H1464 0.950 . S
C1472 C1470 1.391 . S
C1472 C1473 1.400 . S
C1473 C1472 1.400 . S
C1473 C1474 1.398 . S
C1473 C1479 1.491 . S
C1474 H1465 0.950 . S
C1474 C1473 1.398 . S
C1474 C1475 1.391 . S
C1475 H1463 0.950 . S
C1475 C1471 1.393 . S
C1475 C1474 1.391 . S
C1476 H1466 0.950 . S
C1476 C1477 1.386 . S
C1476 C1478 1.391 . S
C1477 C1476 1.386 . S
C1477 C1481 1.393 . S
C1478 H1467 0.950 . S
C1478 C1476 1.391 . S
C1478 C1479 1.400 . S
C1479 C1473 1.491 . S
C1479 C1478 1.400 . S
C1479 C1480 1.398 . S
C1480 H1468 0.950 . S
C1480 C1479 1.398 . S
C1480 C1481 1.391 . S
C1481 H1469 0.950 . S
C1481 C1477 1.393 . S
C1481 C1480 1.391 . S
H1482 C1490 0.950 . S
H1483 C1495 0.950 . S
H1484 C1492 0.950 . S
H1485 C1494 0.950 . S
H1486 C1496 0.950 . S
H1487 C1498 0.950 . S
H1488 C1500 0.950 . S
H1489 C1501 0.950 . S
C1490 H1482 0.950 . S
C1490 C1491 1.386 . S
C1490 C1492 1.391 . S
C1491 C1490 1.386 . S
C1491 C1495 1.393 . S
C1492 H1484 0.950 . S
C1492 C1490 1.391 . S
C1492 C1493 1.400 . S
C1493 C1492 1.400 . S
C1493 C1494 1.398 . S
C1493 C1499 1.491 . S
C1494 H1485 0.950 . S
C1494 C1493 1.398 . S
C1494 C1495 1.391 . S
C1495 H1483 0.950 . S
C1495 C1491 1.393 . S
C1495 C1494 1.391 . S
C1496 H1486 0.950 . S
C1496 C1497 1.386 . S
C1496 C1498 1.391 . S
C1497 C1496 1.386 . S
C1497 C1501 1.393 . S
C1498 H1487 0.950 . S
C1498 C1496 1.391 . S
C1498 C1499 1.400 . S
C1499 C1493 1.491 . S
C1499 C1498 1.400 . S
C1499 C1500 1.398 . S
C1500 H1488 0.950 . S
C1500 C1499 1.398 . S
C1500 C1501 1.391 . S
C1501 H1489 0.950 . S
C1501 C1497 1.393 . S
C1501 C1500 1.391 . S
H1502 C1510 0.950 . S
H1503 C1515 0.950 . S
H1504 C1512 0.950 . S
H1505 C1514 0.950 . S
H1506 C1516 0.950 . S
H1507 C1518 0.950 . S
H1508 C1520 0.950 . S
H1509 C1521 0.950 . S
C1510 H1502 0.950 . S
C1510 C1511 1.386 . S
C1510 C1512 1.391 . S
C1511 C1510 1.386 . S
C1511 C1515 1.393 . S
C1512 H1504 0.950 . S
C1512 C1510 1.391 . S
C1512 C1513 1.400 . S
C1513 C1512 1.400 . S
C1513 C1514 1.398 . S
C1513 C1519 1.491 . S
C1514 H1505 0.950 . S
C1514 C1513 1.398 . S
C1514 C1515 1.391 . S
C1515 H1503 0.950 . S
C1515 C1511 1.393 . S
C1515 C1514 1.391 . S
C1516 H1506 0.950 . S
C1516 C1517 1.386 . S
C1516 C1518 1.391 . S
C1517 C1516 1.386 . S
C1517 C1521 1.393 . S
C1518 H1507 0.950 . S
C1518 C1516 1.391 . S
C1518 C1519 1.400 . S
C1519 C1513 1.491 . S
C1519 C1518 1.400 . S
C1519 C1520 1.398 . S
C1520 H1508 0.950 . S
C1520 C1519 1.398 . S
C1520 C1521 1.391 . S
C1521 H1509 0.950 . S
C1521 C1517 1.393 . S
C1521 C1520 1.391 . S
H1522 C1530 0.950 . S
H1523 C1535 0.950 . S
H1524 C1532 0.950 . S
H1525 C1534 0.950 . S
H1526 C1536 0.950 . S
H1527 C1538 0.950 . S
H1528 C1540 0.950 . S
H1529 C1541 0.950 . S
C1530 H1522 0.950 . S
C1530 C1531 1.386 . S
C1530 C1532 1.391 . S
C1531 C1530 1.386 . S
C1531 C1535 1.393 . S
C1532 H1524 0.950 . S
C1532 C1530 1.391 . S
C1532 C1533 1.400 . S
C1533 C1532 1.400 . S
C1533 C1534 1.398 . S
C1533 C1539 1.491 . S
C1534 H1525 0.950 . S
C1534 C1533 1.398 . S
C1534 C1535 1.391 . S
C1535 H1523 0.950 . S
C1535 C1531 1.393 . S
C1535 C1534 1.391 . S
C1536 H1526 0.950 . S
C1536 C1537 1.386 . S
C1536 C1538 1.391 . S
C1537 C1536 1.386 . S
C1537 C1541 1.393 . S
C1538 H1527 0.950 . S
C1538 C1536 1.391 . S
C1538 C1539 1.400 . S
C1539 C1533 1.491 . S
C1539 C1538 1.400 . S
C1539 C1540 1.398 . S
C1540 H1528 0.950 . S
C1540 C1539 1.398 . S
C1540 C1541 1.391 . S
C1541 H1529 0.950 . S
C1541 C1537 1.393 . S
C1541 C1540 1.391 . S
H1542 C1550 0.950 . S
H1543 C1555 0.950 . S
H1544 C1552 0.950 . S
H1545 C1554 0.950 . S
H1546 C1556 0.950 . S
H1547 C1558 0.950 . S
H1548 C1560 0.950 . S
H1549 C1561 0.950 . S
C1550 H1542 0.950 . S
C1550 C1551 1.386 . S
C1550 C1552 1.391 . S
C1551 C1550 1.386 . S
C1551 C1555 1.393 . S
C1552 H1544 0.950 . S
C1552 C1550 1.391 . S
C1552 C1553 1.400 . S
C1553 C1552 1.400 . S
C1553 C1554 1.398 . S
C1553 C1559 1.491 . S
C1554 H1545 0.950 . S
C1554 C1553 1.398 . S
C1554 C1555 1.391 . S
C1555 H1543 0.950 . S
C1555 C1551 1.393 . S
C1555 C1554 1.391 . S
C1556 H1546 0.950 . S
C1556 C1557 1.386 . S
C1556 C1558 1.391 . S
C1557 C1556 1.386 . S
C1557 C1561 1.393 . S
C1558 H1547 0.950 . S
C1558 C1556 1.391 . S
C1558 C1559 1.400 . S
C1559 C1553 1.491 . S
C1559 C1558 1.400 . S
C1559 C1560 1.398 . S
C1560 H1548 0.950 . S
C1560 C1559 1.398 . S
C1560 C1561 1.391 . S
C1561 H1549 0.950 . S
C1561 C1557 1.393 . S
C1561 C1560 1.391 . S
H1562 C1570 0.950 . S
H1563 C1575 0.950 . S
H1564 C1572 0.950 . S
H1565 C1574 0.950 . S
H1566 C1576 0.950 . S
H1567 C1578 0.950 . S
H1568 C1580 0.950 . S
H1569 C1581 0.950 . S
C1570 H1562 0.950 . S
C1570 C1571 1.386 . S
C1570 C1572 1.391 . S
C1571 C1570 1.386 . S
C1571 C1575 1.393 . S
C1572 H1564 0.950 . S
C1572 C1570 1.391 . S
C1572 C1573 1.400 . S
C1573 C1572 1.400 . S
C1573 C1574 1.398 . S
C1573 C1579 1.491 . S
C1574 H1565 0.950 . S
C1574 C1573 1.398 . S
C1574 C1575 1.391 . S
C1575 H1563 0.950 . S
C1575 C1571 1.393 . S
C1575 C1574 1.391 . S
C1576 H1566 0.950 . S
C1576 C1577 1.386 . S
C1576 C1578 1.391 . S
C1577 C1576 1.386 . S
C1577 C1581 1.393 . S
C1578 H1567 0.950 . S
C1578 C1576 1.391 . S
C1578 C1579 1.400 . S
C1579 C1573 1.491 . S
C1579 C1578 1.400 . S
C1579 C1580 1.398 . S
C1580 H1568 0.950 . S
C1580 C1579 1.398 . S
C1580 C1581 1.391 . S
C1581 H1569 0.950 . S
C1581 C1577 1.393 . S
C1581 C1580 1.391 . S
H1582 C1590 0.950 . S
H1583 C1595 0.950 . S
H1584 C1592 0.950 . S
H1585 C1594 0.950 . S
H1586 C1596 0.950 . S
H1587 C1598 0.950 . S
H1588 C1600 0.950 . S
H1589 C1601 0.950 . S
C1590 H1582 0.950 . S
C1590 C1591 1.386 . S
C1590 C1592 1.391 . S
C1591 C1590 1.386 . S
C1591 C1595 1.393 . S
C1592 H1584 0.950 . S
C1592 C1590 1.391 . S
C1592 C1593 1.400 . S
C1593 C1592 1.400 . S
C1593 C1594 1.398 . S
C1593 C1599 1.491 . S
C1594 H1585 0.950 . S
C1594 C1593 1.398 . S
C1594 C1595 1.391 . S
C1595 H1583 0.950 . S
C1595 C1591 1.393 . S
C1595 C1594 1.391 . S
C1596 H1586 0.950 . S
C1596 C1597 1.386 . S
C1596 C1598 1.391 . S
C1597 C1596 1.386 . S
C1597 C1601 1.393 . S
C1598 H1587 0.950 . S
C1598 C1596 1.391 . S
C1598 C1599 1.400 . S
C1599 C1593 1.491 . S
C1599 C1598 1.400 . S
C1599 C1600 1.398 . S
C1600 H1588 0.950 . S
C1600 C1599 1.398 . S
C1600 C1601 1.391 . S
C1601 H1589 0.950 . S
C1601 C1597 1.393 . S
C1601 C1600 1.391 . S
C531 C124 1.547 . S
C537 C171 1.530 . S
C551 C130 1.709 . S
C557 C211 1.693 . S
C571 C115 1.572 . S
C577 C250 1.558 . S
C591 C106 1.480 . S
C597 C210 1.469 . S
C617 C251 1.442 . S
C611 C85 1.451 . S
C631 C97 1.316 . S
C637 C170 1.309 . S
C657 C181 1.558 . S
C651 C103 1.571 . S
C677 C221 1.662 . S
C671 C88 1.679 . S
C691 C94 1.555 . S
C697 C260 1.552 . S
C711 C121 1.469 . S
C717 C220 1.464 . S
C731 C133 1.425 . S
C737 C261 1.417 . S
C757 C180 1.329 . S
C751 C112 1.334 . S
C777 C291 1.525 . S
C771 C16 1.543 . S
C791 C22 1.703 . S
C797 C331 1.686 . S
C811 C7 1.567 . S
C817 C370 1.567 . S
C831 C160 1.482 . S
C837 C330 1.465 . S
C851 C139 1.448 . S
C857 C371 1.441 . S
C871 C151 1.301 . S
C877 C290 1.315 . S
C891 C157 1.564 . S
C897 C301 1.548 . S
C911 C142 1.682 . S
C917 C341 1.668 . S
C937 C380 1.550 . S
C931 C148 1.556 . S
C951 C13 1.467 . S
C957 C340 1.459 . S
C977 C381 1.401 . S
C971 C25 1.414 . S
C991 C4 1.342 . S
C997 C300 1.342 . S
C1017 C411 1.530 . S
C1011 C70 1.547 . S
C1031 C76 1.702 . S
C1037 C451 1.683 . S
C1057 C490 1.549 . S
C1051 C61 1.562 . S
C1077 C450 1.455 . S
C1071 C52 1.467 . S
C1097 C491 1.442 . S
C1091 C31 1.449 . S
C1111 C43 1.304 . S
C1117 C410 1.322 . S
C1131 C49 1.579 . S
C1137 C421 1.566 . S
C1151 C34 1.678 . S
C1157 C461 1.662 . S
C1177 C500 1.565 . S
C1171 C40 1.567 . S
C1191 C67 1.467 . S
C1197 C460 1.459 . S
C1211 C79 1.417 . S
C1217 C501 1.407 . S
C1231 C58 1.324 . S
C1237 C420 1.335 . S
C1251 C140 1.403 . S
C1257 C167 1.386 . S
C1277 C207 1.733 . S
C1271 C149 1.729 . S
C1291 C158 1.549 . S
C1297 C257 1.548 . S
C1311 C59 1.743 . S
C1317 C217 1.750 . S
C1331 C68 1.528 . S
C1337 C247 1.529 . S
C1357 C177 1.385 . S
C1351 C77 1.402 . S
C1371 C32 1.403 . S
C1377 C287 1.386 . S
C1391 C41 1.726 . S
C1397 C327 1.727 . S
C1411 C50 1.546 . S
C1417 C377 1.550 . S
C1431 C113 1.748 . S
C1437 C337 1.747 . S
C1457 C367 1.530 . S
C1451 C122 1.526 . S
C1471 C131 1.403 . S
C1477 C297 1.397 . S
C1491 C86 1.401 . S
C1497 C407 1.391 . S
C1511 C95 1.727 . S
C1517 C447 1.733 . S
C1537 C497 1.548 . S
C1531 C104 1.550 . S
C1551 C5 1.743 . S
C1557 C457 1.745 . S
C1571 C14 1.527 . S
C1577 C487 1.528 . S
C1591 C23 1.403 . S
C1597 C417 1.392 . S
