# Generated by pormake.
# Topology hwx, (6,3)-cn, num edge types: 1
# Building blocks:
#     Node 0, Type 0, BuildingBlock: OJICUG_clean_sbu_0, # of connection points: 6
#     Node 1, Type 0, BuildingBlock: OJICUG_clean_sbu_0, # of connection points: 6
#     Node 2, Type 0, BuildingBlock: OJICUG_clean_sbu_0, # of connection points: 6
#     Node 3, Type 0, BuildingBlock: OJICUG_clean_sbu_0, # of connection points: 6
#     Node 4, Type 1, BuildingBlock: KAKCAD_clean_linker_0, # of connection points: 3
#     Node 5, Type 1, BuildingBlock: KAKCAD_clean_linker_0, # of connection points: 3
#     Node 6, Type 1, BuildingBlock: KAKCAD_clean_linker_0, # of connection points: 3
#     Node 7, Type 1, BuildingBlock: KAKCAD_clean_linker_0, # of connection points: 3
#     Node 8, Type 1, BuildingBlock: KAKCAD_clean_linker_0, # of connection points: 3
#     Node 9, Type 1, BuildingBlock: KAKCAD_clean_linker_0, # of connection points: 3
#     Node 10, Type 1, BuildingBlock: KAKCAD_clean_linker_0, # of connection points: 3
#     Node 11, Type 1, BuildingBlock: KAKCAD_clean_linker_0, # of connection points: 3
#     Edge 12, Type (0, 1), BuildingBlock: EZIPEK_clean_linker_0, # of connection points: 2
#     Edge 13, Type (0, 1), BuildingBlock: EZIPEK_clean_linker_0, # of connection points: 2
#     Edge 14, Type (0, 1), BuildingBlock: EZIPEK_clean_linker_0, # of connection points: 2
#     Edge 15, Type (0, 1), BuildingBlock: EZIPEK_clean_linker_0, # of connection points: 2
#     Edge 16, Type (0, 1), BuildingBlock: EZIPEK_clean_linker_0, # of connection points: 2
#     Edge 17, Type (0, 1), BuildingBlock: EZIPEK_clean_linker_0, # of connection points: 2
#     Edge 18, Type (0, 1), BuildingBlock: EZIPEK_clean_linker_0, # of connection points: 2
#     Edge 19, Type (0, 1), BuildingBlock: EZIPEK_clean_linker_0, # of connection points: 2
#     Edge 20, Type (0, 1), BuildingBlock: EZIPEK_clean_linker_0, # of connection points: 2
#     Edge 21, Type (0, 1), BuildingBlock: EZIPEK_clean_linker_0, # of connection points: 2
#     Edge 22, Type (0, 1), BuildingBlock: EZIPEK_clean_linker_0, # of connection points: 2
#     Edge 23, Type (0, 1), BuildingBlock: EZIPEK_clean_linker_0, # of connection points: 2
#     Edge 24, Type (0, 1), BuildingBlock: EZIPEK_clean_linker_0, # of connection points: 2
#     Edge 25, Type (0, 1), BuildingBlock: EZIPEK_clean_linker_0, # of connection points: 2
#     Edge 26, Type (0, 1), BuildingBlock: EZIPEK_clean_linker_0, # of connection points: 2
#     Edge 27, Type (0, 1), BuildingBlock: EZIPEK_clean_linker_0, # of connection points: 2
#     Edge 28, Type (0, 1), BuildingBlock: EZIPEK_clean_linker_0, # of connection points: 2
#     Edge 29, Type (0, 1), BuildingBlock: EZIPEK_clean_linker_0, # of connection points: 2
#     Edge 30, Type (0, 1), BuildingBlock: EZIPEK_clean_linker_0, # of connection points: 2
#     Edge 31, Type (0, 1), BuildingBlock: EZIPEK_clean_linker_0, # of connection points: 2
#     Edge 32, Type (0, 1), BuildingBlock: EZIPEK_clean_linker_0, # of connection points: 2
#     Edge 33, Type (0, 1), BuildingBlock: EZIPEK_clean_linker_0, # of connection points: 2
#     Edge 34, Type (0, 1), BuildingBlock: EZIPEK_clean_linker_0, # of connection points: 2
#     Edge 35, Type (0, 1), BuildingBlock: EZIPEK_clean_linker_0, # of connection points: 2
# Relax obj value: 0.076
# Max RMSD: 0.101
# Mean RMSD: 0.093
data_MOF--net-hwx--node1-OJICUG_clean_sbu_0--node2-KAKCAD_clean_linker_0--edge1-EZIPEK_clean_linker_0
_symmetry_space_group_name_H-M    P1
_symmetry_Int_Tables_number       1
_symmetry_cell_setting            triclinic
loop_
_symmetry_equiv_pos_as_xyz
'x, y, z'
_cell_length_a     48.14156
_cell_length_b     48.141073
_cell_length_c     21.790052
_cell_angle_alpha  89.940893
_cell_angle_beta   90.080465
_cell_angle_gamma 90.027564
loop_
_atom_site_label
_atom_site_type_symbol
_atom_site_fract_x
_atom_site_fract_y
_atom_site_fract_z
_atom_type_partial_charge
Sc0 Sc 0.21522 0.21939 0.08297 0.0
Sc1 Sc 0.17515 0.17351 0.99227 0.0
Sc2 Sc 0.22125 0.22086 0.92209 0.0
O3 O 0.20385 0.20458 -0.0009 0.0
C4 C 0.21384 0.27507 0.00392 0.0
C5 C 0.15024 0.21017 0.10114 0.0
C6 C 0.1577 0.214 0.88355 0.0
C7 C 0.21135 0.15402 0.10677 0.0
C8 C 0.27307 0.21736 0.01256 0.0
C9 C 0.21724 0.15712 0.88512 0.0
O10 O 0.21315 0.26224 0.05485 0.0
O11 O 0.14812 0.19157 0.06016 0.0
O12 O 0.18173 0.22448 0.8769 0.0
O13 O 0.219 0.17842 0.12103 0.0
O14 O 0.26248 0.21873 0.95926 0.0
O15 O 0.19765 0.15141 0.92204 0.0
O16 O 0.25886 0.21728 0.06166 0.0
O17 O 0.19611 0.14847 0.0606 0.0
O18 O 0.22848 0.18091 0.88182 0.0
O19 O 0.17276 0.22283 0.11319 0.0
O20 O 0.2163 0.26297 0.95251 0.0
O21 O 0.15175 0.19576 0.9237 0.0
Sc22 Sc 0.27728 0.7238 0.42143 0.0
Sc23 Sc 0.32174 0.67432 0.48956 0.0
Sc24 Sc 0.2769 0.71497 0.58147 0.0
O25 O 0.29199 0.70434 0.49753 0.0
C26 C 0.28161 0.774 0.51527 0.0
C27 C 0.34193 0.71766 0.38973 0.0
C28 C 0.34129 0.70724 0.60935 0.0
C29 C 0.28182 0.66147 0.37548 0.0
C30 C 0.22193 0.7177 0.50123 0.0
C31 C 0.28298 0.64885 0.59294 0.0
O32 O 0.28283 0.76432 0.46109 0.0
O33 O 0.34708 0.69896 0.42923 0.0
O34 O 0.31786 0.71838 0.61959 0.0
O35 O 0.27004 0.68508 0.37538 0.0
O36 O 0.23419 0.71331 0.55201 0.0
O37 O 0.29988 0.64599 0.54873 0.0
O38 O 0.23474 0.72228 0.45134 0.0
O39 O 0.30144 0.65506 0.41206 0.0
O40 O 0.27351 0.67219 0.61042 0.0
O41 O 0.3179 0.72778 0.38076 0.0
O42 O 0.2788 0.75894 0.56279 0.0
O43 O 0.34566 0.69018 0.56589 0.0
Sc44 Sc 0.77455 0.77218 0.91948 0.0
Sc45 Sc 0.81933 0.82191 0.98566 0.0
Sc46 Sc 0.77912 0.77808 0.08016 0.0
O47 O 0.79107 0.79064 0.99506 0.0
C48 C 0.72194 0.77868 0.00717 0.0
C49 C 0.77752 0.83498 0.8758 0.0
C50 C 0.78266 0.84427 0.09515 0.0
C51 C 0.83861 0.7786 0.88437 0.0
C52 C 0.78009 0.72025 0.00849 0.0
C53 C 0.84366 0.78785 0.10002 0.0
O54 O 0.73294 0.77501 0.95478 0.0
O55 O 0.79688 0.84185 0.91232 0.0
O56 O 0.77614 0.82007 0.11364 0.0
O57 O 0.81474 0.76772 0.87736 0.0
O58 O 0.77989 0.73438 0.05771 0.0
O59 O 0.84564 0.80625 0.05834 0.0
O60 O 0.77929 0.73105 0.95545 0.0
O61 O 0.84381 0.79801 0.92222 0.0
O62 O 0.82142 0.77453 0.11117 0.0
O63 O 0.76713 0.81082 0.87364 0.0
O64 O 0.73576 0.7807 0.05673 0.0
O65 O 0.79704 0.84868 0.04732 0.0
Sc66 Sc 0.7209 0.27503 0.58359 0.0
Sc67 Sc 0.67584 0.31734 0.4967 0.0
Sc68 Sc 0.72139 0.27155 0.4215 0.0
O69 O 0.70613 0.28804 0.50064 0.0
C70 C 0.77607 0.27666 0.50366 0.0
C71 C 0.71393 0.34003 0.60561 0.0
C72 C 0.71606 0.3352 0.38668 0.0
C73 C 0.65594 0.28041 0.60984 0.0
C74 C 0.71688 0.21838 0.50823 0.0
C75 C 0.65694 0.27698 0.38895 0.0
O76 O 0.76356 0.27789 0.55487 0.0
O77 O 0.69619 0.3438 0.5631 0.0
O78 O 0.72738 0.31157 0.38059 0.0
O79 O 0.67995 0.27095 0.62229 0.0
O80 O 0.71676 0.2297 0.45545 0.0
O81 O 0.65169 0.29391 0.43195 0.0
O82 O 0.71879 0.23187 0.55815 0.0
O83 O 0.65137 0.29712 0.5659 0.0
O84 O 0.68126 0.26799 0.37833 0.0
O85 O 0.72447 0.31657 0.61838 0.0
O86 O 0.76365 0.27381 0.45267 0.0
O87 O 0.69688 0.34035 0.42517 0.0
C88 C 0.22558 0.57845 0.80422 0.0
C89 C 0.24467 0.56676 0.76328 0.0
C90 C 0.21767 0.56392 0.85675 0.0
C91 C 0.22876 0.53749 0.86906 0.0
C92 C 0.24648 0.52508 0.82578 0.0
C93 C 0.25444 0.53968 0.77317 0.0
C94 C 0.22461 0.52457 0.93004 0.0
C95 C 0.21873 0.49615 0.93612 0.0
C96 C 0.21703 0.48379 0.9946 0.0
C97 C 0.22098 0.50033 0.04712 0.0
C98 C 0.22751 0.52854 0.04127 0.0
C99 C 0.22902 0.54055 0.98288 0.0
C100 C 0.23511 0.54524 0.09537 0.0
C101 C 0.21623 0.54935 0.14352 0.0
C102 C 0.26121 0.55822 0.09742 0.0
C103 C 0.26813 0.57561 0.14614 0.0
C104 C 0.2489 0.58062 0.19309 0.0
C105 C 0.21356 0.45329 0.00047 0.0
C106 C 0.19499 0.4388 0.96221 0.0
C107 C 0.23008 0.43825 0.04217 0.0
C108 C 0.2286 0.40934 0.04445 0.0
C109 C 0.21063 0.39499 0.00505 0.0
C110 C 0.19356 0.40982 0.96447 0.0
C111 C 0.22299 0.56719 0.19195 0.0
H112 H 0.21787 0.59934 0.79699 0.0
H113 H 0.20377 0.57381 0.8891 0.0
H114 H 0.2555 0.50484 0.83441 0.0
H115 H 0.26927 0.53048 0.74187 0.0
H116 H 0.21634 0.48355 0.89526 0.0
H117 H 0.23463 0.5623 0.97865 0.0
H118 H 0.22002 0.49109 0.09246 0.0
H119 H 0.19598 0.53952 0.14255 0.0
H120 H 0.27612 0.55513 0.06087 0.0
H121 H 0.2882 0.5858 0.14643 0.0
H122 H 0.18182 0.44983 0.93007 0.0
H123 H 0.24491 0.44873 0.07155 0.0
H124 H 0.20791 0.57095 0.22784 0.0
H125 H 0.17959 0.39893 0.93377 0.0
H126 H 0.24199 0.39808 0.07578 0.0
C127 C 0.94939 0.74277 0.27646 0.0
C128 C 0.92469 0.75805 0.28202 0.0
C129 C 0.96397 0.73437 0.32895 0.0
C130 C 0.95465 0.74198 0.3879 0.0
C131 C 0.9306 0.75852 0.39257 0.0
C132 C 0.91557 0.76596 0.34047 0.0
C133 C 0.96966 0.73283 0.44447 0.0
C134 C -0.0013 0.72976 0.445 0.0
C135 C 0.01282 0.72273 0.49934 0.0
C136 C -0.00227 0.71898 0.55381 0.0
C137 C 0.96879 0.72233 0.55459 0.0
C138 C 0.95497 0.72844 0.49939 0.0
C139 C 0.95318 0.72287 0.61349 0.0
C140 C 0.96458 0.73618 0.66528 0.0
C141 C 0.92546 0.71358 0.61606 0.0
C142 C 0.90877 0.72006 0.66634 0.0
C143 C 0.9197 0.73529 0.71549 0.0
C144 C 0.04354 0.72094 0.49999 0.0
C145 C 0.05776 0.70682 0.45314 0.0
C146 C 0.05886 0.73386 0.547 0.0
C147 C 0.08782 0.73283 0.54693 0.0
C148 C 0.10187 0.7188 0.50004 0.0
C149 C 0.08676 0.70569 0.45328 0.0
C150 C 0.94801 0.7421 0.71616 0.0
H151 H 0.95694 0.73672 0.23161 0.0
H152 H 0.98222 0.72153 0.32315 0.0
H153 H 0.92324 0.76595 0.43647 0.0
H154 H 0.89677 0.7781 0.34576 0.0
H155 H 0.01059 0.73405 0.4039 0.0
H156 H 0.93264 0.73082 0.49977 0.0
H157 H 0.00859 0.7137 0.59582 0.0
H158 H 0.98574 0.74382 0.66498 0.0
H159 H 0.91622 0.70255 0.57785 0.0
H160 H 0.88699 0.71438 0.66561 0.0
H161 H 0.04645 0.69654 0.41663 0.0
H162 H 0.04847 0.74521 0.58319 0.0
H163 H 0.95671 0.75382 0.75401 0.0
H164 H 0.09743 0.69478 0.41681 0.0
H165 H 0.09931 0.74312 0.58315 0.0
C166 C 0.74062 0.44267 0.20382 0.0
C167 C 0.75258 0.41627 0.20953 0.0
C168 C 0.74743 0.45959 0.15398 0.0
C169 C 0.76618 0.45025 0.10904 0.0
C170 C 0.77898 0.42421 0.11649 0.0
C171 C 0.77224 0.40736 0.16648 0.0
C172 C 0.77046 0.4666 0.05217 0.0
C173 C 0.77353 0.49553 0.05467 0.0
C174 C 0.77464 0.5114 0.00059 0.0
C175 C 0.77287 0.49797 0.94345 0.0
C176 C 0.77002 0.46899 0.94027 0.0
C177 C 0.76908 0.45346 0.99479 0.0
C178 C 0.76538 0.45484 0.8808 0.0
C179 C 0.74477 0.46446 0.84022 0.0
C180 C 0.77937 0.42997 0.86739 0.0
C181 C 0.77187 0.41424 0.81619 0.0
C182 C 0.75016 0.42308 0.77795 0.0
C183 C 0.77624 0.54209 0.00409 0.0
C184 C 0.75966 0.55666 0.04632 0.0
C185 C 0.794 0.55704 0.96494 0.0
C186 C 0.79506 0.58601 0.96787 0.0
C187 C 0.77833 0.60036 0.00979 0.0
C188 C 0.7607 0.58558 0.0491 0.0
C189 C 0.73709 0.44858 0.78926 0.0
H190 H 0.72525 0.44967 0.2366 0.0
H191 H 0.737 0.4794 0.14908 0.0
H192 H 0.79367 0.41662 0.08284 0.0
H193 H 0.78154 0.38694 0.17037 0.0
H194 H 0.77493 0.50572 0.0989 0.0
H195 H 0.76559 0.43123 0.99255 0.0
H196 H 0.77299 0.51008 0.90149 0.0
H197 H 0.73348 0.48342 0.84985 0.0
H198 H 0.79542 0.4222 0.89778 0.0
H199 H 0.78202 0.39451 0.80811 0.0
H200 H 0.74549 0.54572 0.07643 0.0
H201 H 0.80715 0.54634 0.93235 0.0
H202 H 0.72014 0.45551 0.76032 0.0
H203 H 0.74756 0.59648 0.08142 0.0
H204 H 0.80874 0.59726 0.93719 0.0
C205 C 0.05167 0.24396 0.70013 0.0
C206 C 0.07897 0.25382 0.70485 0.0
C207 C 0.0351 0.25175 0.65038 0.0
C208 C 0.04566 0.26948 0.60463 0.0
C209 C 0.07268 0.28022 0.61108 0.0
C210 C 0.08921 0.27244 0.66089 0.0
C211 C 0.02943 0.27474 0.54794 0.0
C212 C 0.00076 0.27964 0.55074 0.0
C213 C 0.98482 0.28149 0.49685 0.0
C214 C -0.00198 0.27908 0.43957 0.0
C215 C 0.02675 0.27426 0.43596 0.0
C216 C 0.04225 0.27228 0.49044 0.0
C217 C 0.04039 0.2685 0.37621 0.0
C218 C 0.02764 0.25093 0.33289 0.0
C219 C 0.06742 0.27831 0.36464 0.0
C220 C 0.08199 0.26941 0.31295 0.0
C221 C 0.0697 0.25076 0.27172 0.0
C222 C 0.95414 0.28358 0.50058 0.0
C223 C 0.93945 0.26712 0.54293 0.0
C224 C 0.93924 0.30093 0.46032 0.0
C225 C 0.91021 0.30139 0.46171 0.0
C226 C 0.89576 0.28449 0.50326 0.0
C227 C 0.9105 0.26758 0.54423 0.0
C228 C 0.04218 0.2422 0.2809 0.0
H229 H 0.04359 0.22946 0.73373 0.0
H230 H 0.01451 0.24286 0.64629 0.0
H231 H 0.08123 0.29411 0.57684 0.0
H232 H 0.1103 0.28019 0.66411 0.0
H233 H 0.99076 0.28162 0.59506 0.0
H234 H 0.06413 0.26708 0.48823 0.0
H235 H 0.98578 0.27998 0.39784 0.0
H236 H 0.00699 0.24275 0.34071 0.0
H237 H 0.07764 0.29218 0.39662 0.0
H238 H 0.1032 0.27627 0.30623 0.0
H239 H 0.95029 0.2532 0.57383 0.0
H240 H 0.95001 0.31398 0.42756 0.0
H241 H 0.03248 0.22774 0.2494 0.0
H242 H 0.89954 0.2543 0.57625 0.0
H243 H 0.89901 0.3145 0.42971 0.0
C244 C 0.71168 0.90976 0.66834 0.0
C245 C 0.73508 0.91593 0.70429 0.0
C246 C 0.70457 0.9269 0.61903 0.0
C247 C 0.72042 0.95068 0.60611 0.0
C248 C 0.74265 0.9578 0.64483 0.0
C249 C 0.75009 0.94039 0.69336 0.0
C250 C 0.71643 0.96592 0.54803 0.0
C251 C 0.71385 0.99486 0.54769 0.0
C252 C 0.71368 0.00966 0.49205 0.0
C253 C 0.71683 0.99507 0.43651 0.0
C254 C 0.72004 0.96604 0.43642 0.0
C255 C 0.71883 0.95163 0.49241 0.0
C256 C 0.72731 0.95094 0.37917 0.0
C257 C 0.71505 0.95782 0.32244 0.0
C258 C 0.74739 0.92971 0.38104 0.0
C259 C 0.75462 0.91535 0.32804 0.0
C260 C 0.74225 0.92207 0.27179 0.0
C261 C 0.71215 0.04044 0.49276 0.0
C262 C 0.69445 0.05414 0.53419 0.0
C263 C 0.72931 0.05637 0.45411 0.0
C264 C 0.72906 0.08532 0.45752 0.0
C265 C 0.7118 0.09879 0.49983 0.0
C266 C 0.69437 0.08308 0.53789 0.0
C267 C 0.72259 0.94356 0.26899 0.0
H268 H 0.69998 0.89087 0.67628 0.0
H269 H 0.68739 0.92106 0.58956 0.0
H270 H 0.75533 0.97589 0.63522 0.0
H271 H 0.76825 0.94532 0.72069 0.0
H272 H 0.71289 0.00587 0.59101 0.0
H273 H 0.72123 0.92924 0.49316 0.0
H274 H 0.71769 0.0064 0.39359 0.0
H275 H 0.6995 0.974 0.31944 0.0
H276 H 0.75789 0.92438 0.42341 0.0
H277 H 0.77006 0.89902 0.33081 0.0
H278 H 0.68074 0.04248 0.56402 0.0
H279 H 0.74352 0.0465 0.42245 0.0
H280 H 0.71299 0.94907 0.22568 0.0
H281 H 0.6809 0.09324 0.5707 0.0
H282 H 0.74268 0.09724 0.42798 0.0
C283 C 0.55274 0.22286 0.21725 0.0
C284 C 0.57321 0.24363 0.21452 0.0
C285 C 0.53672 0.21677 0.16523 0.0
C286 C 0.54093 0.23158 0.11034 0.0
C287 C 0.56068 0.25312 0.10916 0.0
C288 C 0.57679 0.25888 0.16045 0.0
C289 C 0.52528 0.225 0.05356 0.0
C290 C 0.49651 0.2206 0.05432 0.0
C291 C 0.48147 0.21878 -0.001 0.0
C292 C 0.49553 0.22189 0.9427 0.0
C293 C 0.52434 0.22628 0.9417 0.0
C294 C 0.53905 0.22623 -0.00286 0.0
C295 C 0.53921 0.23387 0.8845 0.0
C296 C 0.53424 0.22012 0.82862 0.0
C297 C 0.55932 0.25507 0.88653 0.0
C298 C 0.57522 0.26129 0.83526 0.0
C299 C 0.57103 0.24695 0.78024 0.0
C300 C 0.45081 0.21613 0.00065 0.0
C301 C 0.43799 0.19767 0.04196 0.0
C302 C 0.43411 0.23299 0.96295 0.0
C303 C 0.40522 0.2317 0.96709 0.0
C304 C 0.3926 0.21354 0.00888 0.0
C305 C 0.40907 0.19638 0.04602 0.0
C306 C 0.55 0.22675 0.77655 0.0
H307 H 0.54964 0.21107 0.25906 0.0
H308 H 0.52156 0.20017 0.1675 0.0
H309 H 0.56382 0.26556 0.06829 0.0
H310 H 0.59226 0.2752 0.15785 0.0
H311 H 0.48561 0.22023 0.09781 0.0
H312 H 0.56145 0.22858 -0.00352 0.0
H313 H 0.48398 0.22179 0.89999 0.0
H314 H 0.51879 0.20382 0.82563 0.0
H315 H 0.56303 0.26678 0.92818 0.0
H316 H 0.59109 0.2772 0.83868 0.0
H317 H 0.45035 0.18431 0.07125 0.0
H318 H 0.44336 0.24774 0.93145 0.0
H319 H 0.54635 0.21572 0.734 0.0
H320 H 0.39951 0.18225 0.07846 0.0
H321 H 0.39269 0.24514 0.93832 0.0
C322 C 0.24202 0.04331 0.28045 0.0
C323 C 0.25186 0.0706 0.27425 0.0
C324 C 0.24979 0.02735 0.33134 0.0
C325 C 0.26734 0.03861 0.37661 0.0
C326 C 0.27855 0.06529 0.36783 0.0
C327 C 0.27083 0.08116 0.31706 0.0
C328 C 0.27121 0.02421 0.4361 0.0
C329 C 0.27704 0.99567 0.43897 0.0
C330 C 0.27881 0.98198 0.49602 0.0
C331 C 0.27497 0.99729 0.55033 0.0
C332 C 0.26865 0.02561 0.54766 0.0
C333 C 0.26694 0.03895 0.49074 0.0
C334 C 0.26148 0.0411 0.60364 0.0
C335 C 0.23474 0.05231 0.60967 0.0
C336 C 0.2815 0.04625 0.6491 0.0
C337 C 0.27516 0.06357 0.69869 0.0
C338 C 0.2486 0.07541 0.70364 0.0
C339 C 0.28246 0.95143 0.49905 0.0
C340 C 0.26764 0.93407 0.45872 0.0
C341 C 0.29941 0.93932 0.54442 0.0
C342 C 0.301 0.91046 0.55017 0.0
C343 C 0.28573 0.89334 0.51055 0.0
C344 C 0.26927 0.90526 0.46447 0.0
C345 C 0.22827 0.06915 0.6596 0.0
H346 H 0.22721 0.035 0.24781 0.0
H347 H 0.24071 0.00693 0.33723 0.0
H348 H 0.29235 0.07432 0.40168 0.0
H349 H 0.27855 0.10222 0.31279 0.0
H350 H 0.28009 0.98414 0.39683 0.0
H351 H 0.26139 0.06078 0.48908 0.0
H352 H 0.27532 0.98693 0.59454 0.0
H353 H 0.21903 0.04845 0.57504 0.0
H354 H 0.30226 0.0378 0.6449 0.0
H355 H 0.2911 0.06834 0.7322 0.0
H356 H 0.25406 0.94274 0.42398 0.0
H357 H 0.31125 0.95216 0.57577 0.0
H358 H 0.20771 0.07817 0.66275 0.0
H359 H 0.25729 0.89223 0.43375 0.0
H360 H 0.31381 0.90146 0.58595 0.0
C361 C 0.45006 0.73446 0.79184 0.0
C362 C 0.42328 0.74511 0.78267 0.0
C363 C 0.46612 0.7437 0.84127 0.0
C364 C 0.45549 0.76362 0.8822 0.0
C365 C 0.42917 0.77517 0.87084 0.0
C366 C 0.41318 0.76595 0.82149 0.0
C367 C 0.47043 0.77022 0.93985 0.0
C368 C 0.49921 0.7747 0.94032 0.0
C369 C 0.51345 0.7788 0.99596 0.0
C370 C 0.49853 0.77862 0.05138 0.0
C371 C 0.46975 0.77391 0.05163 0.0
C372 C 0.45592 0.76992 0.9956 0.0
C373 C 0.45428 0.7704 0.11001 0.0
C374 C 0.46562 0.75457 0.15826 0.0
C375 C 0.42694 0.7804 0.11543 0.0
C376 C 0.41069 0.77317 0.16593 0.0
C377 C 0.42163 0.75612 0.21211 0.0
C378 C 0.54412 0.78136 -0.00327 0.0
C379 C 0.56046 0.76341 0.96093 0.0
C380 C 0.55732 0.80081 0.03512 0.0
C381 C 0.58629 0.802 0.03822 0.0
C382 C 0.60239 0.78373 0.00309 0.0
C383 C 0.58937 0.76458 0.96417 0.0
C384 C 0.44941 0.74756 0.2091 0.0
H385 H 0.45802 0.71824 0.76226 0.0
H386 H 0.48622 0.73425 0.84928 0.0
H387 H 0.4206 0.79074 0.90128 0.0
H388 H 0.39251 0.77435 0.81482 0.0
H389 H 0.51054 0.77488 0.89735 0.0
H390 H 0.43396 0.76495 0.99552 0.0
H391 H 0.50945 0.78123 0.0945 0.0
H392 H 0.48649 0.74628 0.15526 0.0
H393 H 0.41778 0.79303 0.07955 0.0
H394 H 0.38928 0.78003 0.16796 0.0
H395 H 0.5509 0.74794 0.93166 0.0
H396 H 0.54524 0.81502 0.06283 0.0
H397 H 0.45804 0.73432 0.24453 0.0
H398 H 0.60163 0.75029 0.937 0.0
H399 H 0.59616 0.8169 0.06844 0.0
C400 C 0.11659 0.20061 0.18589 0.0
C401 C 0.12529 0.2178 0.13684 0.0
C402 C 0.0926 0.25407 0.16851 0.0
C403 C 0.08668 0.23836 0.22212 0.0
N404 N 0.09402 0.19761 0.28489 0.0
N405 N 0.11642 0.25645 0.07009 0.0
C406 C 0.09858 0.21166 0.2312 0.0
C407 C 0.11175 0.24334 0.12479 0.0
N408 N 0.12494 0.1735 0.18805 0.0
N409 N 0.08056 0.27957 0.16079 0.0
H410 H 0.12936 0.24807 0.03649 0.0
H411 H 0.10611 0.27426 0.05554 0.0
H412 H 0.06549 0.28731 0.19059 0.0
H413 H 0.08589 0.29353 0.12633 0.0
H414 H 0.11732 0.15905 0.21935 0.0
H415 H 0.13739 0.1646 0.15428 0.0
H416 H 0.10486 0.17981 0.29765 0.0
H417 H 0.08077 0.20476 0.31921 0.0
C418 C 0.25033 0.60978 0.61775 0.0
C419 C 0.27554 0.62408 0.6294 0.0
C420 C 0.28216 0.59824 0.72488 0.0
C421 C 0.25663 0.58429 0.71412 0.0
N422 N 0.21902 0.57224 0.64632 0.0
N423 N 0.31922 0.62658 0.6831 0.0
C424 C 0.24153 0.5886 0.65903 0.0
C425 C 0.2927 0.61653 0.67949 0.0
N426 N 0.23474 0.61685 0.56773 0.0
N427 N 0.29563 0.59509 0.77978 0.0
H428 H 0.32765 0.63986 0.65015 0.0
H429 H 0.33372 0.61981 0.71529 0.0
H430 H 0.28893 0.58151 0.81402 0.0
H431 H 0.31238 0.60733 0.79333 0.0
H432 H 0.21477 0.60951 0.55938 0.0
H433 H 0.2417 0.63099 0.53493 0.0
H434 H 0.20826 0.5726 0.60491 0.0
H435 H 0.21217 0.55667 0.67604 0.0
C436 C 0.87979 0.80205 0.17769 0.0
C437 C 0.86832 0.7816 0.13829 0.0
C438 C 0.89567 0.74559 0.18921 0.0
C439 C 0.90796 0.76612 0.22738 0.0
N440 N 0.91812 0.81462 0.24415 0.0
N441 N 0.87314 0.73656 0.09198 0.0
C442 C 0.90214 0.79465 0.21696 0.0
C443 C 0.87879 0.75417 0.13937 0.0
N444 N 0.86847 0.82803 0.18026 0.0
N445 N 0.8985 0.71799 0.20238 0.0
H446 H 0.86194 0.74295 0.05342 0.0
H447 H 0.88228 0.71703 0.08784 0.0
H448 H 0.90959 0.71058 0.24006 0.0
H449 H 0.88754 0.70257 0.17909 0.0
H450 H 0.87416 0.84272 0.21305 0.0
H451 H 0.85177 0.83412 0.15301 0.0
H452 H 0.91628 0.83569 0.23398 0.0
H453 H 0.93516 0.80982 0.27186 0.0
C454 C 0.74098 0.38342 0.62818 0.0
C455 C 0.72092 0.36347 0.64643 0.0
C456 C 0.71889 0.3837 0.74941 0.0
C457 C 0.73884 0.40381 0.73118 0.0
N458 N 0.76582 0.42605 0.65223 0.0
N459 N 0.68699 0.34714 0.71924 0.0
C460 C 0.7489 0.40471 0.67006 0.0
C461 C 0.70871 0.36442 0.70556 0.0
N462 N 0.75311 0.38131 0.57168 0.0
N463 N 0.71036 0.38252 0.80926 0.0
H464 H 0.67947 0.33226 0.68871 0.0
H465 H 0.67501 0.34879 0.75876 0.0
H466 H 0.71626 0.39705 0.84226 0.0
H467 H 0.69867 0.3663 0.82746 0.0
H468 H 0.77009 0.39309 0.55769 0.0
H469 H 0.74699 0.36655 0.53939 0.0
H470 H 0.77185 0.42957 0.60705 0.0
H471 H 0.77244 0.44156 0.68231 0.0
C472 C 0.63211 0.23907 0.33045 0.0
C473 C 0.63368 0.26741 0.34904 0.0
C474 C 0.59007 0.27648 0.29443 0.0
C475 C 0.59156 0.24986 0.26729 0.0
N476 N 0.61642 0.20681 0.25286 0.0
N477 N 0.61626 0.31449 0.33685 0.0
C478 C 0.61313 0.2313 0.28371 0.0
C479 C 0.61307 0.28653 0.32841 0.0
N480 N 0.64806 0.21932 0.35847 0.0
N481 N 0.56671 0.29227 0.28721 0.0
H482 H 0.63357 0.32345 0.35746 0.0
H483 H 0.60312 0.32915 0.31691 0.0
H484 H 0.54941 0.28531 0.26272 0.0
H485 H 0.56348 0.31082 0.31077 0.0
H486 H 0.64554 0.1981 0.35086 0.0
H487 H 0.66171 0.2238 0.39407 0.0
H488 H 0.6338 0.19414 0.25823 0.0
H489 H 0.60301 0.2002 0.21823 0.0
C490 C 0.22571 0.14287 0.77636 0.0
C491 C 0.22583 0.1359 0.83972 0.0
C492 C 0.23982 0.08832 0.81405 0.0
C493 C 0.24242 0.09631 0.75165 0.0
N494 N 0.24447 0.13293 0.67603 0.0
N495 N 0.23778 0.10338 0.91996 0.0
C496 C 0.23744 0.12415 0.73365 0.0
C497 C 0.23423 0.10897 0.85899 0.0
N498 N 0.21301 0.16662 0.75631 0.0
N499 N 0.24169 0.06093 0.83013 0.0
H500 H 0.23407 0.11802 0.95409 0.0
H501 H 0.24672 0.0851 0.93629 0.0
H502 H 0.24576 0.04522 0.79848 0.0
H503 H 0.23698 0.05357 0.87386 0.0
H504 H 0.20991 0.17108 0.71 0.0
H505 H 0.20278 0.18039 0.78544 0.0
H506 H 0.24381 0.15373 0.66273 0.0
H507 H 0.2537 0.11996 0.6436 0.0
C508 C 0.37981 0.75062 0.3597 0.0
C509 C 0.36439 0.72614 0.34765 0.0
C510 C 0.3897 0.71924 0.2514 0.0
C511 C 0.40308 0.74521 0.26056 0.0
N512 N 0.41022 0.78669 0.3203 0.0
N513 N 0.35321 0.68737 0.28217 0.0
C514 C 0.39806 0.76117 0.31404 0.0
C515 C 0.3691 0.71036 0.29372 0.0
N516 N 0.37743 0.7633 0.41547 0.0
N517 N 0.39693 0.70298 0.20247 0.0
H518 H 0.33901 0.67934 0.31365 0.0
H519 H 0.3529 0.67695 0.24036 0.0
H520 H 0.41107 0.70924 0.16896 0.0
H521 H 0.39039 0.68255 0.19678 0.0
H522 H 0.39002 0.77959 0.43002 0.0
H523 H 0.36416 0.7559 0.44944 0.0
H524 H 0.40504 0.8008 0.35456 0.0
H525 H 0.42455 0.79454 0.28886 0.0
C526 C 0.77289 0.85309 0.769 0.0
C527 C 0.76687 0.85593 0.83238 0.0
C528 C 0.74104 0.89891 0.81246 0.0
C529 C 0.74581 0.89526 0.74874 0.0
N530 N 0.76439 0.86844 0.66466 0.0
N531 N 0.74297 0.87909 0.91493 0.0
C532 C 0.76119 0.87219 0.72653 0.0
C533 C 0.75044 0.87827 0.85438 0.0
N534 N 0.79065 0.83268 0.74981 0.0
N535 N 0.72781 0.9223 0.83273 0.0
H536 H 0.74987 0.8646 0.94716 0.0
H537 H 0.7285 0.89291 0.93288 0.0
H538 H 0.71945 0.93715 0.80312 0.0
H539 H 0.72642 0.92793 0.87871 0.0
H540 H 0.79876 0.83143 0.70567 0.0
H541 H 0.79889 0.8177 0.77919 0.0
H542 H 0.77212 0.85034 0.645 0.0
H543 H 0.75797 0.88292 0.632 0.0
C544 C 0.87128 0.78552 0.7967 0.0
C545 C 0.86136 0.76845 0.84505 0.0
C546 C 0.89051 0.72981 0.81018 0.0
C547 C 0.9007 0.74697 0.76225 0.0
N548 N 0.90364 0.79181 0.71272 0.0
N549 N 0.86429 0.72653 0.90516 0.0
C550 C 0.89203 0.77509 0.75661 0.0
C551 C 0.87177 0.74117 0.85389 0.0
N552 N 0.85983 0.8112 0.78738 0.0
N553 N 0.89839 0.70255 0.81301 0.0
H554 H 0.8506 0.73431 0.93802 0.0
H555 H 0.87307 0.70764 0.91788 0.0
H556 H 0.91317 0.69397 0.78364 0.0
H557 H 0.88939 0.68799 0.84217 0.0
H558 H 0.86322 0.82325 0.74844 0.0
H559 H 0.84548 0.82012 0.81721 0.0
H560 H 0.90105 0.81325 0.71113 0.0
H561 H 0.91726 0.78461 0.67921 0.0
C562 C 0.70868 0.36158 0.28955 0.0
C563 C 0.72455 0.35724 0.34361 0.0
C564 C 0.75703 0.39394 0.31311 0.0
C565 C 0.74241 0.39673 0.25692 0.0
N566 N 0.70624 0.38174 0.18767 0.0
N567 N 0.76533 0.36633 0.40465 0.0
C568 C 0.71863 0.38027 0.24417 0.0
C569 C 0.74915 0.37265 0.35492 0.0
N570 N 0.6841 0.34775 0.28171 0.0
N571 N 0.7781 0.41197 0.32675 0.0
H572 H 0.75991 0.35115 0.43664 0.0
H573 H 0.78498 0.37469 0.41221 0.0
H574 H 0.78466 0.42747 0.29655 0.0
H575 H 0.78775 0.41298 0.36946 0.0
H576 H 0.66983 0.35234 0.24725 0.0
H577 H 0.67707 0.33257 0.31206 0.0
H578 H 0.69096 0.36804 0.17267 0.0
H579 H 0.71247 0.39564 0.1536 0.0
C580 C 0.12841 0.20604 0.79076 0.0
C581 C 0.13575 0.22323 0.84102 0.0
C582 C 0.10298 0.25891 0.80637 0.0
C583 C 0.0977 0.24289 0.75306 0.0
N584 N 0.10738 0.20291 0.68988 0.0
N585 N 0.13222 0.26665 0.89561 0.0
C586 C 0.11082 0.2168 0.74413 0.0
C587 C 0.12361 0.24987 0.84863 0.0
N588 N 0.13825 0.17941 0.7877 0.0
N589 N 0.0878 0.28242 0.81705 0.0
H590 H 0.14641 0.26024 0.92896 0.0
H591 H 0.1266 0.28743 0.89982 0.0
H592 H 0.07275 0.28974 0.78656 0.0
H593 H 0.08854 0.29356 0.85792 0.0
H594 H 0.13126 0.16482 0.75602 0.0
H595 H 0.15205 0.1711 0.81973 0.0
H596 H 0.1189 0.18552 0.67747 0.0
H597 H 0.09438 0.2099 0.65479 0.0
C598 C 0.27064 0.64844 0.26668 0.0
C599 C 0.27268 0.6407 0.32948 0.0
C600 C 0.26025 0.59281 0.30263 0.0
C601 C 0.25559 0.60133 0.24119 0.0
N602 N 0.24976 0.6386 0.16813 0.0
N603 N 0.26337 0.60684 0.40894 0.0
C604 C 0.25873 0.62959 0.22428 0.0
C605 C 0.26578 0.61322 0.34805 0.0
N606 N 0.28136 0.67314 0.24665 0.0
N607 N 0.26037 0.5652 0.31731 0.0
H608 H 0.26648 0.62134 0.4437 0.0
H609 H 0.2556 0.58795 0.42474 0.0
H610 H 0.25652 0.54958 0.28526 0.0
H611 H 0.26666 0.55771 0.36 0.0
H612 H 0.28298 0.67829 0.20033 0.0
H613 H 0.29135 0.68727 0.27536 0.0
H614 H 0.24902 0.65953 0.15597 0.0
H615 H 0.24039 0.6255 0.1361 0.0
C616 C 0.38684 0.73075 0.63069 0.0
C617 C 0.36432 0.71417 0.65164 0.0
C618 C 0.38419 0.71343 0.75523 0.0
C619 C 0.40458 0.73283 0.73604 0.0
N620 N 0.42485 0.76164 0.6576 0.0
N621 N 0.34014 0.69106 0.73429 0.0
C622 C 0.40598 0.74176 0.67413 0.0
C623 C 0.36265 0.70579 0.71404 0.0
N624 N 0.38979 0.73611 0.56942 0.0
N625 N 0.38579 0.70194 0.81258 0.0
H626 H 0.3245 0.6839 0.70524 0.0
H627 H 0.33598 0.68734 0.78044 0.0
H628 H 0.40121 0.7072 0.84419 0.0
H629 H 0.37339 0.68549 0.82716 0.0
H630 H 0.40723 0.74557 0.55043 0.0
H631 H 0.37564 0.72931 0.53654 0.0
H632 H 0.42491 0.77152 0.6151 0.0
H633 H 0.43958 0.76965 0.68797 0.0
C634 C 0.78945 0.88863 0.15532 0.0
C635 C 0.77147 0.8682 0.12998 0.0
C636 C 0.73267 0.88611 0.19076 0.0
C637 C 0.75064 0.90639 0.2163 0.0
N638 N 0.79334 0.93227 0.21022 0.0
N639 N 0.72457 0.85374 0.10762 0.0
C640 C 0.77814 0.90942 0.19413 0.0
C641 C 0.74257 0.86899 0.14258 0.0
N642 N 0.81745 0.88731 0.14555 0.0
N643 N 0.70672 0.88213 0.21457 0.0
H644 H 0.73113 0.84171 0.07057 0.0
H645 H 0.70305 0.85538 0.11105 0.0
H646 H 0.69858 0.89428 0.24979 0.0
H647 H 0.69405 0.86547 0.20243 0.0
H648 H 0.83177 0.89947 0.16931 0.0
H649 H 0.82674 0.87282 0.11678 0.0
H650 H 0.81256 0.93705 0.19099 0.0
H651 H 0.78545 0.94792 0.23835 0.0
C652 C 0.62909 0.24241 0.66235 0.0
C653 C 0.63207 0.27106 0.64775 0.0
C654 C 0.58905 0.28083 0.7035 0.0
C655 C 0.58937 0.25351 0.72759 0.0
N656 N 0.61214 0.20892 0.73597 0.0
N657 N 0.6167 0.3185 0.66375 0.0
C658 C 0.60991 0.23433 0.70836 0.0
C659 C 0.61237 0.29058 0.6702 0.0
N660 N 0.64391 0.22279 0.63113 0.0
N661 N 0.56647 0.29747 0.71281 0.0
H662 H 0.63417 0.32699 0.64277 0.0
H663 H 0.60434 0.33339 0.6851 0.0
H664 H 0.54892 0.29069 0.73661 0.0
H665 H 0.56403 0.31671 0.69153 0.0
H666 H 0.64048 0.20153 0.63609 0.0
H667 H 0.65739 0.22771 0.59541 0.0
H668 H 0.62879 0.19555 0.72833 0.0
H669 H 0.5987 0.2021 0.77027 0.0
C670 C 0.24301 0.11396 0.12942 0.0
C671 C 0.22042 0.13111 0.1473 0.0
C672 C 0.21666 0.1063 0.24525 0.0
C673 C 0.23969 0.08966 0.2281 0.0
N674 N 0.27234 0.07407 0.15216 0.0
N675 N 0.1885 0.14699 0.22491 0.0
C676 C 0.25213 0.09241 0.1695 0.0
C677 C 0.20784 0.12807 0.2058 0.0
N678 N 0.2569 0.11967 0.07613 0.0
N679 N 0.20289 0.10081 0.29884 0.0
H680 H 0.18161 0.16333 0.19749 0.0
H681 H 0.18073 0.14803 0.26936 0.0
H682 H 0.2091 0.08545 0.32971 0.0
H683 H 0.18407 0.10988 0.31091 0.0
H684 H 0.2751 0.10985 0.0625 0.0
H685 H 0.25127 0.13589 0.04694 0.0
H686 H 0.28061 0.07299 0.10817 0.0
H687 H 0.27969 0.05842 0.18108 0.0
C688 C 0.18909 0.31963 0.02791 0.0
C689 C 0.21281 0.30575 0.00443 0.0
C690 C 0.23341 0.35035 0.97529 0.0
C691 C 0.21096 0.36425 0.00399 0.0
N692 N 0.16938 0.36272 0.06541 0.0
N693 N 0.25984 0.30782 0.96623 0.0
C694 C 0.1893 0.34906 0.03254 0.0
C695 C 0.23562 0.32108 0.98085 0.0
N696 N 0.16597 0.30475 0.04352 0.0
N697 N 0.25224 0.36505 0.94131 0.0
H698 H 0.2625 0.2864 0.9703 0.0
H699 H 0.27815 0.31826 0.95548 0.0
H700 H 0.25138 0.38658 0.93619 0.0
H701 H 0.26724 0.35571 0.91379 0.0
H702 H 0.147 0.31382 0.05459 0.0
H703 H 0.16507 0.28318 0.0403 0.0
H704 H 0.15482 0.35265 0.09287 0.0
H705 H 0.16871 0.38432 0.06916 0.0
C706 C 0.17626 0.69391 0.51931 0.0
C707 C 0.19115 0.71782 0.50001 0.0
C708 C 0.14734 0.74114 0.47451 0.0
C709 C 0.13258 0.7183 0.49944 0.0
N710 N 0.13241 0.67456 0.55338 0.0
N711 N 0.191 0.76588 0.46765 0.0
C712 C 0.14688 0.69513 0.52418 0.0
C713 C 0.17674 0.7419 0.47963 0.0
N714 N 0.19008 0.66961 0.53006 0.0
N715 N 0.13326 0.76184 0.44475 0.0
H716 H 0.21255 0.7674 0.47035 0.0
H717 H 0.18139 0.78493 0.45992 0.0
H718 H 0.11165 0.76229 0.44114 0.0
H719 H 0.14301 0.77739 0.41944 0.0
H720 H 0.18016 0.65072 0.53792 0.0
H721 H 0.21151 0.66779 0.52518 0.0
H722 H 0.14189 0.65876 0.57847 0.0
H723 H 0.11079 0.67443 0.5566 0.0
C724 C 0.75615 0.6753 0.98668 0.0
C725 C 0.77917 0.68959 0.01249 0.0
C726 C 0.8 0.64523 0.04314 0.0
C727 C 0.77856 0.63107 0.01127 0.0
N728 N 0.7382 0.63215 0.9456 0.0
N729 N 0.82457 0.68853 0.05917 0.0
C730 C 0.75714 0.64597 0.98108 0.0
C731 C 0.80148 0.67466 0.03947 0.0
N732 N 0.73286 0.68968 0.96971 0.0
N733 N 0.81857 0.63054 0.07789 0.0
H734 H 0.82618 0.71007 0.05755 0.0
H735 H 0.84284 0.67871 0.07274 0.0
H736 H 0.81835 0.60891 0.08082 0.0
H737 H 0.83279 0.6398 0.10755 0.0
H738 H 0.71432 0.68013 0.95696 0.0
H739 H 0.73109 0.71118 0.9739 0.0
H740 H 0.72408 0.64214 0.91683 0.0
H741 H 0.738 0.61059 0.94093 0.0
C742 C 0.8228 0.25698 0.478 0.0
C743 C 0.80669 0.27892 0.503 0.0
C744 C 0.84914 0.30413 0.53067 0.0
C745 C 0.86506 0.28315 0.50175 0.0
N746 N 0.86735 0.24225 0.43813 0.0
N747 N 0.80403 0.32583 0.54176 0.0
C748 C 0.85196 0.26034 0.4725 0.0
C749 C 0.81971 0.30321 0.52634 0.0
N750 N 0.81039 0.2325 0.46176 0.0
N751 N 0.86213 0.32455 0.56353 0.0
H752 H 0.78244 0.32618 0.53813 0.0
H753 H 0.81249 0.34511 0.55276 0.0
H754 H 0.88369 0.32616 0.56678 0.0
H755 H 0.85158 0.3386 0.59134 0.0
H756 H 0.82144 0.21466 0.45028 0.0
H757 H 0.78905 0.22916 0.46459 0.0
H758 H 0.85861 0.22706 0.41011 0.0
H759 H 0.88885 0.24389 0.43333 0.0
C760 C 0.73828 0.17191 0.53 0.0
C761 C 0.7149 0.18781 0.51158 0.0
C762 C 0.68968 0.14544 0.48457 0.0
C763 C 0.71254 0.12943 0.50538 0.0
N764 N 0.75605 0.12681 0.56021 0.0
N765 N 0.66601 0.18968 0.48849 0.0
C766 C 0.73614 0.14249 0.53177 0.0
C767 C 0.68987 0.17456 0.49389 0.0
N768 N 0.76275 0.18486 0.54411 0.0
N769 N 0.66825 0.133 0.45385 0.0
H770 H 0.66539 0.21104 0.49626 0.0
H771 H 0.64651 0.18075 0.48203 0.0
H772 H 0.66739 0.11167 0.44571 0.0
H773 H 0.65257 0.14412 0.43186 0.0
H774 H 0.78143 0.17432 0.55029 0.0
H775 H 0.76484 0.20639 0.54589 0.0
H776 H 0.77223 0.13526 0.58585 0.0
H777 H 0.75506 0.10519 0.56285 0.0
C778 C 0.31707 0.19177 0.99118 0.0
C779 C 0.30357 0.21518 0.01706 0.0
C780 C 0.34851 0.23472 0.04726 0.0
C781 C 0.36198 0.21314 0.01456 0.0
N782 N 0.35965 0.17252 0.95005 0.0
N783 N 0.30602 0.26056 0.06381 0.0
C784 C 0.34643 0.19192 0.98528 0.0
C785 C 0.31914 0.23703 0.04403 0.0
N786 N 0.30184 0.16908 0.97388 0.0
N787 N 0.36379 0.2527 0.08221 0.0
H788 H 0.28451 0.26304 0.06267 0.0
H789 H 0.31651 0.27851 0.07702 0.0
H790 H 0.3854 0.25173 0.08528 0.0
H791 H 0.355 0.26701 0.11224 0.0
H792 H 0.31067 0.15028 0.96069 0.0
H793 H 0.28027 0.16816 0.97798 0.0
H794 H 0.34924 0.1585 0.92184 0.0
H795 H 0.3812 0.17169 0.94542 0.0
C796 C 0.26076 0.82007 0.54355 0.0
C797 C 0.28391 0.80442 0.52298 0.0
C798 C 0.30892 0.84711 0.49714 0.0
C799 C 0.286 0.86281 0.51848 0.0
N800 N 0.24293 0.86503 0.57461 0.0
N801 N 0.33249 0.80268 0.4978 0.0
C802 C 0.26276 0.8495 0.5457 0.0
C803 C 0.30878 0.81787 0.50503 0.0
N804 N 0.23652 0.80695 0.55867 0.0
N805 N 0.33035 0.86 0.46743 0.0
H806 H 0.33311 0.78137 0.50631 0.0
H807 H 0.35195 0.81151 0.49025 0.0
H808 H 0.33136 0.88147 0.46136 0.0
H809 H 0.34608 0.84927 0.44482 0.0
H810 H 0.21788 0.81734 0.56621 0.0
H811 H 0.23453 0.78541 0.56021 0.0
H812 H 0.227 0.85648 0.60081 0.0
H813 H 0.24374 0.88666 0.57692 0.0
C814 C 0.67812 0.80349 0.97942 0.0
C815 C 0.69143 0.78114 0.01015 0.0
C816 C 0.64637 0.76359 0.0449 0.0
C817 C 0.63303 0.78393 0.00813 0.0
N818 N 0.63555 0.82162 0.93539 0.0
N819 N 0.68858 0.73796 0.06626 0.0
C820 C 0.64872 0.80355 0.97416 0.0
C821 C 0.67568 0.76074 0.04177 0.0
N822 N 0.69356 0.82507 0.95696 0.0
N823 N 0.631 0.74731 0.08356 0.0
H824 H 0.71004 0.73511 0.06527 0.0
H825 H 0.67792 0.7208 0.08335 0.0
H826 H 0.60941 0.74865 0.08658 0.0
H827 H 0.63973 0.7342 0.11634 0.0
H828 H 0.68495 0.84335 0.93986 0.0
H829 H 0.71516 0.82581 0.96039 0.0
H830 H 0.64597 0.83421 0.90408 0.0
H831 H 0.61398 0.82266 0.93129 0.0
loop_
_geom_bond_atom_site_label_1
_geom_bond_atom_site_label_2
_geom_bond_distance
_geom_bond_site_symmetry_2
_ccdc_geom_bond_type
Sc0 O3 2.029 . S
Sc0 O10 2.105 . S
Sc0 O13 2.105 . S
Sc0 O16 2.105 . S
Sc0 O19 2.105 . S
Sc1 O3 2.025 . S
Sc1 O11 2.108 . S
Sc1 O15 2.102 1_554 S
Sc1 O17 2.108 . S
Sc1 O21 2.102 1_554 S
Sc2 O3 2.022 1_556 S
Sc2 O12 2.105 . S
Sc2 O14 2.105 . S
Sc2 O18 2.105 . S
Sc2 O20 2.105 . S
O3 Sc0 2.029 . S
O3 Sc1 2.025 . S
O3 Sc2 2.022 1_554 S
C4 O10 1.269 . S
C4 O20 1.267 1_554 S
C5 O11 1.268 . S
C5 O19 1.268 . S
C6 O12 1.268 . S
C6 O21 1.268 . S
C7 O13 1.268 . S
C7 O17 1.268 . S
C8 O14 1.262 1_554 S
C8 O16 1.274 . S
C9 O15 1.268 . S
C9 O18 1.268 . S
O10 Sc0 2.105 . S
O10 C4 1.269 . S
O11 Sc1 2.108 . S
O11 C5 1.268 . S
O12 Sc2 2.105 . S
O12 C6 1.268 . S
O13 Sc0 2.105 . S
O13 C7 1.268 . S
O14 Sc2 2.105 . S
O14 C8 1.262 1_556 S
O15 Sc1 2.102 1_556 S
O15 C9 1.268 . S
O16 Sc0 2.105 . S
O16 C8 1.274 . S
O17 Sc1 2.108 . S
O17 C7 1.268 . S
O18 Sc2 2.105 . S
O18 C9 1.268 . S
O19 Sc0 2.105 . S
O19 C5 1.268 . S
O20 Sc2 2.105 . S
O20 C4 1.267 1_556 S
O21 Sc1 2.102 1_556 S
O21 C6 1.268 . S
Sc22 O25 2.025 . S
Sc22 O32 2.105 . S
Sc22 O35 2.105 . S
Sc22 O38 2.105 . S
Sc22 O41 2.105 . S
Sc23 O25 2.025 . S
Sc23 O33 2.105 . S
Sc23 O37 2.105 . S
Sc23 O39 2.105 . S
Sc23 O43 2.105 . S
Sc24 O25 2.025 . S
Sc24 O34 2.105 . S
Sc24 O36 2.105 . S
Sc24 O40 2.105 . S
Sc24 O42 2.105 . S
O25 Sc22 2.025 . S
O25 Sc23 2.025 . S
O25 Sc24 2.025 . S
C26 O32 1.268 . S
C26 O42 1.268 . S
C27 O33 1.268 . S
C27 O41 1.268 . S
C28 O34 1.268 . S
C28 O43 1.268 . S
C29 O35 1.268 . S
C29 O39 1.268 . S
C30 O36 1.268 . S
C30 O38 1.268 . S
C31 O37 1.268 . S
C31 O40 1.268 . S
O32 Sc22 2.105 . S
O32 C26 1.268 . S
O33 Sc23 2.105 . S
O33 C27 1.268 . S
O34 Sc24 2.105 . S
O34 C28 1.268 . S
O35 Sc22 2.105 . S
O35 C29 1.268 . S
O36 Sc24 2.105 . S
O36 C30 1.268 . S
O37 Sc23 2.105 . S
O37 C31 1.268 . S
O38 Sc22 2.105 . S
O38 C30 1.268 . S
O39 Sc23 2.105 . S
O39 C29 1.268 . S
O40 Sc24 2.105 . S
O40 C31 1.268 . S
O41 Sc22 2.105 . S
O41 C27 1.268 . S
O42 Sc24 2.105 . S
O42 C26 1.268 . S
O43 Sc23 2.105 . S
O43 C28 1.268 . S
Sc44 O47 2.022 1_556 S
Sc44 O54 2.105 . S
Sc44 O57 2.105 . S
Sc44 O60 2.105 . S
Sc44 O63 2.105 . S
Sc45 O47 2.025 . S
Sc45 O55 2.102 1_554 S
Sc45 O59 2.108 . S
Sc45 O61 2.102 1_554 S
Sc45 O65 2.108 . S
Sc46 O47 2.029 . S
Sc46 O56 2.105 . S
Sc46 O58 2.105 . S
Sc46 O62 2.105 . S
Sc46 O64 2.105 . S
O47 Sc44 2.022 1_554 S
O47 Sc45 2.025 . S
O47 Sc46 2.029 . S
C48 O54 1.267 1_554 S
C48 O64 1.269 . S
C49 O55 1.268 . S
C49 O63 1.268 . S
C50 O56 1.268 . S
C50 O65 1.268 . S
C51 O57 1.268 . S
C51 O61 1.268 . S
C52 O58 1.274 . S
C52 O60 1.262 1_554 S
C53 O59 1.268 . S
C53 O62 1.268 . S
O54 Sc44 2.105 . S
O54 C48 1.267 1_556 S
O55 Sc45 2.102 1_556 S
O55 C49 1.268 . S
O56 Sc46 2.105 . S
O56 C50 1.268 . S
O57 Sc44 2.105 . S
O57 C51 1.268 . S
O58 Sc46 2.105 . S
O58 C52 1.274 . S
O59 Sc45 2.108 . S
O59 C53 1.268 . S
O60 Sc44 2.105 . S
O60 C52 1.262 1_556 S
O61 Sc45 2.102 1_556 S
O61 C51 1.268 . S
O62 Sc46 2.105 . S
O62 C53 1.268 . S
O63 Sc44 2.105 . S
O63 C49 1.268 . S
O64 Sc46 2.105 . S
O64 C48 1.269 . S
O65 Sc45 2.108 . S
O65 C50 1.268 . S
Sc66 O69 2.025 . S
Sc66 O76 2.105 . S
Sc66 O79 2.105 . S
Sc66 O82 2.105 . S
Sc66 O85 2.105 . S
Sc67 O69 2.025 . S
Sc67 O77 2.105 . S
Sc67 O81 2.105 . S
Sc67 O83 2.105 . S
Sc67 O87 2.105 . S
Sc68 O69 2.025 . S
Sc68 O78 2.105 . S
Sc68 O80 2.105 . S
Sc68 O84 2.105 . S
Sc68 O86 2.105 . S
O69 Sc66 2.025 . S
O69 Sc67 2.025 . S
O69 Sc68 2.025 . S
C70 O76 1.268 . S
C70 O86 1.268 . S
C71 O77 1.268 . S
C71 O85 1.268 . S
C72 O78 1.268 . S
C72 O87 1.268 . S
C73 O79 1.268 . S
C73 O83 1.268 . S
C74 O80 1.268 . S
C74 O82 1.268 . S
C75 O81 1.268 . S
C75 O84 1.268 . S
O76 Sc66 2.105 . S
O76 C70 1.268 . S
O77 Sc67 2.105 . S
O77 C71 1.268 . S
O78 Sc68 2.105 . S
O78 C72 1.268 . S
O79 Sc66 2.105 . S
O79 C73 1.268 . S
O80 Sc68 2.105 . S
O80 C74 1.268 . S
O81 Sc67 2.105 . S
O81 C75 1.268 . S
O82 Sc66 2.105 . S
O82 C74 1.268 . S
O83 Sc67 2.105 . S
O83 C73 1.268 . S
O84 Sc68 2.105 . S
O84 C75 1.268 . S
O85 Sc66 2.105 . S
O85 C71 1.268 . S
O86 Sc68 2.105 . S
O86 C70 1.268 . S
O87 Sc67 2.105 . S
O87 C72 1.268 . S
C88 C89 1.386 . S
C88 C90 1.397 . S
C88 H112 0.931 . S
C89 C88 1.386 . S
C89 C93 1.397 . S
C90 C88 1.397 . S
C90 C91 1.384 . S
C90 H113 0.930 . S
C91 C90 1.384 . S
C91 C92 1.377 . S
C91 C94 1.481 . S
C92 C91 1.377 . S
C92 C93 1.389 . S
C92 H114 0.929 . S
C93 C89 1.397 . S
C93 C92 1.389 . S
C93 H115 0.931 . S
C94 C91 1.481 . S
C94 C95 1.387 . S
C94 C99 1.390 1_556 S
C95 C94 1.387 . S
C95 C96 1.401 1_556 S
C95 H116 0.930 . S
C96 C95 1.401 1_554 S
C96 C97 1.376 . S
C96 C105 1.511 . S
C97 C96 1.376 . S
C97 C98 1.392 . S
C97 H118 0.931 . S
C98 C97 1.392 . S
C98 C99 1.361 . S
C98 C100 1.500 . S
C99 C94 1.390 1_554 S
C99 C98 1.361 . S
C99 H117 0.931 . S
C100 C98 1.500 . S
C100 C101 1.371 . S
C100 C102 1.365 . S
C101 C100 1.371 . S
C101 C111 1.386 . S
C101 H119 0.931 . S
C102 C100 1.365 . S
C102 C103 1.409 . S
C102 H120 0.929 . S
C103 C102 1.409 . S
C103 C104 1.380 . S
C103 H121 0.930 . S
C104 C103 1.380 . S
C104 C111 1.357 . S
C105 C96 1.511 . S
C105 C106 1.341 1_554 S
C105 C107 1.371 . S
C106 C105 1.341 1_556 S
C106 C110 1.394 . S
C106 H122 0.930 . S
C107 C105 1.371 . S
C107 C108 1.392 . S
C107 H123 0.931 . S
C108 C107 1.392 . S
C108 C109 1.343 . S
C108 H126 0.932 . S
C109 C108 1.343 . S
C109 C110 1.324 1_554 S
C110 C106 1.394 . S
C110 C109 1.324 1_556 S
C110 H125 0.929 . S
C111 C101 1.386 . S
C111 C104 1.357 . S
C111 H124 0.928 . S
H112 C88 0.931 . S
H113 C90 0.930 . S
H114 C92 0.929 . S
H115 C93 0.931 . S
H116 C95 0.930 . S
H117 C99 0.931 . S
H118 C97 0.931 . S
H119 C101 0.931 . S
H120 C102 0.929 . S
H121 C103 0.930 . S
H122 C106 0.930 . S
H123 C107 0.931 . S
H124 C111 0.928 . S
H125 C110 0.929 . S
H126 C108 0.932 . S
C127 C128 1.386 . S
C127 C129 1.397 . S
C127 H151 0.931 . S
C128 C127 1.386 . S
C128 C132 1.397 . S
C129 C127 1.397 . S
C129 C130 1.384 . S
C129 H152 0.930 . S
C130 C129 1.384 . S
C130 C131 1.377 . S
C130 C133 1.481 . S
C131 C130 1.377 . S
C131 C132 1.389 . S
C131 H153 0.929 . S
C132 C128 1.397 . S
C132 C131 1.389 . S
C132 H154 0.931 . S
C133 C130 1.481 . S
C133 C134 1.387 . S
C133 C138 1.390 . S
C134 C133 1.387 . S
C134 C135 1.401 1_655 S
C134 H155 0.930 1_655 S
C135 C134 1.401 1_455 S
C135 C136 1.376 1_455 S
C135 C144 1.511 . S
C136 C135 1.376 1_655 S
C136 C137 1.392 . S
C136 H157 0.931 1_655 S
C137 C136 1.392 . S
C137 C138 1.361 . S
C137 C139 1.500 . S
C138 C133 1.390 . S
C138 C137 1.361 . S
C138 H156 0.931 . S
C139 C137 1.500 . S
C139 C140 1.371 . S
C139 C141 1.365 . S
C140 C139 1.371 . S
C140 C150 1.386 . S
C140 H158 0.931 . S
C141 C139 1.365 . S
C141 C142 1.409 . S
C141 H159 0.929 . S
C142 C141 1.409 . S
C142 C143 1.380 . S
C142 H160 0.930 . S
C143 C142 1.380 . S
C143 C150 1.357 . S
C144 C135 1.511 . S
C144 C145 1.341 . S
C144 C146 1.371 . S
C145 C144 1.341 . S
C145 C149 1.394 . S
C145 H161 0.930 . S
C146 C144 1.371 . S
C146 C147 1.392 . S
C146 H162 0.931 . S
C147 C146 1.392 . S
C147 C148 1.331 . S
C147 H165 0.932 . S
C148 C147 1.331 . S
C148 C149 1.336 . S
C149 C145 1.394 . S
C149 C148 1.336 . S
C149 H164 0.929 . S
C150 C140 1.386 . S
C150 C143 1.357 . S
C150 H163 0.928 . S
H151 C127 0.931 . S
H152 C129 0.930 . S
H153 C131 0.929 . S
H154 C132 0.931 . S
H155 C134 0.930 1_455 S
H156 C138 0.931 . S
H157 C136 0.931 1_455 S
H158 C140 0.931 . S
H159 C141 0.929 . S
H160 C142 0.930 . S
H161 C145 0.930 . S
H162 C146 0.931 . S
H163 C150 0.928 . S
H164 C149 0.929 . S
H165 C147 0.932 . S
C166 C167 1.386 . S
C166 C168 1.397 . S
C166 H190 0.931 . S
C167 C166 1.386 . S
C167 C171 1.397 . S
C168 C166 1.397 . S
C168 C169 1.384 . S
C168 H191 0.930 . S
C169 C168 1.384 . S
C169 C170 1.377 . S
C169 C172 1.481 . S
C170 C169 1.377 . S
C170 C171 1.389 . S
C170 H192 0.929 . S
C171 C167 1.397 . S
C171 C170 1.389 . S
C171 H193 0.931 . S
C172 C169 1.481 . S
C172 C173 1.387 . S
C172 C177 1.380 1_554 S
C173 C172 1.387 . S
C173 C174 1.401 1_554 S
C173 H194 0.930 . S
C174 C173 1.401 1_556 S
C174 C175 1.376 . S
C174 C183 1.511 . S
C175 C174 1.376 . S
C175 C176 1.392 . S
C175 H196 0.931 . S
C176 C175 1.392 . S
C176 C177 1.371 . S
C176 C178 1.500 . S
C177 C172 1.380 1_556 S
C177 C176 1.371 . S
C177 H195 0.931 . S
C178 C176 1.500 . S
C178 C179 1.371 . S
C178 C180 1.365 . S
C179 C178 1.371 . S
C179 C189 1.386 . S
C179 H197 0.931 . S
C180 C178 1.365 . S
C180 C181 1.409 . S
C180 H198 0.929 . S
C181 C180 1.409 . S
C181 C182 1.380 . S
C181 H199 0.930 . S
C182 C181 1.380 . S
C182 C189 1.357 . S
C183 C174 1.511 . S
C183 C184 1.341 1_556 S
C183 C185 1.371 . S
C184 C183 1.341 1_554 S
C184 C188 1.394 . S
C184 H200 0.930 . S
C185 C183 1.371 . S
C185 C186 1.392 . S
C185 H201 0.931 . S
C186 C185 1.392 . S
C186 C187 1.334 . S
C186 H204 0.932 . S
C187 C186 1.334 . S
C187 C188 1.333 1_556 S
C188 C184 1.394 . S
C188 C187 1.333 1_554 S
C188 H203 0.929 . S
C189 C179 1.386 . S
C189 C182 1.357 . S
C189 H202 0.928 . S
H190 C166 0.931 . S
H191 C168 0.930 . S
H192 C170 0.929 . S
H193 C171 0.931 . S
H194 C173 0.930 . S
H195 C177 0.931 . S
H196 C175 0.931 . S
H197 C179 0.931 . S
H198 C180 0.929 . S
H199 C181 0.930 . S
H200 C184 0.930 . S
H201 C185 0.931 . S
H202 C189 0.928 . S
H203 C188 0.929 . S
H204 C186 0.932 . S
C205 C206 1.386 . S
C205 C207 1.397 . S
C205 H229 0.931 . S
C206 C205 1.386 . S
C206 C210 1.397 . S
C207 C205 1.397 . S
C207 C208 1.384 . S
C207 H230 0.930 . S
C208 C207 1.384 . S
C208 C209 1.377 . S
C208 C211 1.481 . S
C209 C208 1.377 . S
C209 C210 1.389 . S
C209 H231 0.929 . S
C210 C206 1.397 . S
C210 C209 1.389 . S
C210 H232 0.931 . S
C211 C208 1.481 . S
C211 C212 1.387 . S
C211 C216 1.390 . S
C212 C211 1.387 . S
C212 C213 1.401 1_455 S
C212 H233 0.930 1_455 S
C213 C212 1.401 1_655 S
C213 C214 1.376 1_655 S
C213 C222 1.511 . S
C214 C213 1.376 1_455 S
C214 C215 1.392 . S
C214 H235 0.931 1_455 S
C215 C214 1.392 . S
C215 C216 1.361 . S
C215 C217 1.500 . S
C216 C211 1.390 . S
C216 C215 1.361 . S
C216 H234 0.931 . S
C217 C215 1.500 . S
C217 C218 1.371 . S
C217 C219 1.365 . S
C218 C217 1.371 . S
C218 C228 1.386 . S
C218 H236 0.931 . S
C219 C217 1.365 . S
C219 C220 1.409 . S
C219 H237 0.929 . S
C220 C219 1.409 . S
C220 C221 1.380 . S
C220 H238 0.930 . S
C221 C220 1.380 . S
C221 C228 1.357 . S
C222 C213 1.511 . S
C222 C223 1.341 . S
C222 C224 1.371 . S
C223 C222 1.341 . S
C223 C227 1.394 . S
C223 H239 0.930 . S
C224 C222 1.371 . S
C224 C225 1.392 . S
C224 H240 0.931 . S
C225 C224 1.392 . S
C225 C226 1.331 . S
C225 H243 0.932 . S
C226 C225 1.331 . S
C226 C227 1.336 . S
C227 C223 1.394 . S
C227 C226 1.336 . S
C227 H242 0.929 . S
C228 C218 1.386 . S
C228 C221 1.357 . S
C228 H241 0.928 . S
H229 C205 0.931 . S
H230 C207 0.930 . S
H231 C209 0.929 . S
H232 C210 0.931 . S
H233 C212 0.930 1_655 S
H234 C216 0.931 . S
H235 C214 0.931 1_655 S
H236 C218 0.931 . S
H237 C219 0.929 . S
H238 C220 0.930 . S
H239 C223 0.930 . S
H240 C224 0.931 . S
H241 C228 0.928 . S
H242 C227 0.929 . S
H243 C225 0.932 . S
C244 C245 1.386 . S
C244 C246 1.397 . S
C244 H268 0.931 . S
C245 C244 1.386 . S
C245 C249 1.397 . S
C246 C244 1.397 . S
C246 C247 1.384 . S
C246 H269 0.930 . S
C247 C246 1.384 . S
C247 C248 1.377 . S
C247 C250 1.481 . S
C248 C247 1.377 . S
C248 C249 1.389 . S
C248 H270 0.929 . S
C249 C245 1.397 . S
C249 C248 1.389 . S
C249 H271 0.931 . S
C250 C247 1.481 . S
C250 C251 1.387 . S
C250 C255 1.390 . S
C251 C250 1.387 . S
C251 C252 1.401 1_565 S
C251 H272 0.930 1_565 S
C252 C251 1.401 1_545 S
C252 C253 1.376 1_545 S
C252 C261 1.511 . S
C253 C252 1.376 1_565 S
C253 C254 1.392 . S
C253 H274 0.931 1_565 S
C254 C253 1.392 . S
C254 C255 1.361 . S
C254 C256 1.500 . S
C255 C250 1.390 . S
C255 C254 1.361 . S
C255 H273 0.931 . S
C256 C254 1.500 . S
C256 C257 1.371 . S
C256 C258 1.365 . S
C257 C256 1.371 . S
C257 C267 1.386 . S
C257 H275 0.931 . S
C258 C256 1.365 . S
C258 C259 1.409 . S
C258 H276 0.929 . S
C259 C258 1.409 . S
C259 C260 1.380 . S
C259 H277 0.930 . S
C260 C259 1.380 . S
C260 C267 1.357 . S
C261 C252 1.511 . S
C261 C262 1.341 . S
C261 C263 1.371 . S
C262 C261 1.341 . S
C262 C266 1.394 . S
C262 H278 0.930 . S
C263 C261 1.371 . S
C263 C264 1.392 . S
C263 H279 0.931 . S
C264 C263 1.392 . S
C264 C265 1.331 . S
C264 H282 0.932 . S
C265 C264 1.331 . S
C265 C266 1.336 . S
C266 C262 1.394 . S
C266 C265 1.336 . S
C266 H281 0.929 . S
C267 C257 1.386 . S
C267 C260 1.357 . S
C267 H280 0.928 . S
H268 C244 0.931 . S
H269 C246 0.930 . S
H270 C248 0.929 . S
H271 C249 0.931 . S
H272 C251 0.930 1_545 S
H273 C255 0.931 . S
H274 C253 0.931 1_545 S
H275 C257 0.931 . S
H276 C258 0.929 . S
H277 C259 0.930 . S
H278 C262 0.930 . S
H279 C263 0.931 . S
H280 C267 0.928 . S
H281 C266 0.929 . S
H282 C264 0.932 . S
C283 C284 1.386 . S
C283 C285 1.397 . S
C283 H307 0.931 . S
C284 C283 1.386 . S
C284 C288 1.397 . S
C285 C283 1.397 . S
C285 C286 1.384 . S
C285 H308 0.930 . S
C286 C285 1.384 . S
C286 C287 1.377 . S
C286 C289 1.481 . S
C287 C286 1.377 . S
C287 C288 1.389 . S
C287 H309 0.929 . S
C288 C284 1.397 . S
C288 C287 1.389 . S
C288 H310 0.931 . S
C289 C286 1.481 . S
C289 C290 1.387 . S
C289 C294 1.380 1_554 S
C290 C289 1.387 . S
C290 C291 1.401 1_554 S
C290 H311 0.930 . S
C291 C290 1.401 1_556 S
C291 C292 1.376 . S
C291 C300 1.511 . S
C292 C291 1.376 . S
C292 C293 1.392 . S
C292 H313 0.931 . S
C293 C292 1.392 . S
C293 C294 1.371 . S
C293 C295 1.500 . S
C294 C289 1.380 1_556 S
C294 C293 1.371 . S
C294 H312 0.931 . S
C295 C293 1.500 . S
C295 C296 1.371 . S
C295 C297 1.365 . S
C296 C295 1.371 . S
C296 C306 1.386 . S
C296 H314 0.931 . S
C297 C295 1.365 . S
C297 C298 1.409 . S
C297 H315 0.929 . S
C298 C297 1.409 . S
C298 C299 1.380 . S
C298 H316 0.930 . S
C299 C298 1.380 . S
C299 C306 1.357 . S
C300 C291 1.511 . S
C300 C301 1.341 1_556 S
C300 C302 1.371 . S
C301 C300 1.341 1_554 S
C301 C305 1.394 . S
C301 H317 0.930 . S
C302 C300 1.371 . S
C302 C303 1.392 . S
C302 H318 0.931 . S
C303 C302 1.392 . S
C303 C304 1.334 . S
C303 H321 0.932 . S
C304 C303 1.334 . S
C304 C305 1.333 1_556 S
C305 C301 1.394 . S
C305 C304 1.333 1_554 S
C305 H320 0.929 . S
C306 C296 1.386 . S
C306 C299 1.357 . S
C306 H319 0.928 . S
H307 C283 0.931 . S
H308 C285 0.930 . S
H309 C287 0.929 . S
H310 C288 0.931 . S
H311 C290 0.930 . S
H312 C294 0.931 . S
H313 C292 0.931 . S
H314 C296 0.931 . S
H315 C297 0.929 . S
H316 C298 0.930 . S
H317 C301 0.930 . S
H318 C302 0.931 . S
H319 C306 0.928 . S
H320 C305 0.929 . S
H321 C303 0.932 . S
C322 C323 1.386 . S
C322 C324 1.397 . S
C322 H346 0.931 . S
C323 C322 1.386 . S
C323 C327 1.397 . S
C324 C322 1.397 . S
C324 C325 1.384 . S
C324 H347 0.930 . S
C325 C324 1.384 . S
C325 C326 1.377 . S
C325 C328 1.481 . S
C326 C325 1.377 . S
C326 C327 1.389 . S
C326 H348 0.929 . S
C327 C323 1.397 . S
C327 C326 1.389 . S
C327 H349 0.931 . S
C328 C325 1.481 . S
C328 C329 1.387 . S
C328 C333 1.390 . S
C329 C328 1.387 . S
C329 C330 1.401 1_545 S
C329 H350 0.930 1_545 S
C330 C329 1.401 1_565 S
C330 C331 1.376 1_565 S
C330 C339 1.511 . S
C331 C330 1.376 1_545 S
C331 C332 1.392 . S
C331 H352 0.931 1_545 S
C332 C331 1.392 . S
C332 C333 1.361 . S
C332 C334 1.500 . S
C333 C328 1.390 . S
C333 C332 1.361 . S
C333 H351 0.931 . S
C334 C332 1.500 . S
C334 C335 1.371 . S
C334 C336 1.365 . S
C335 C334 1.371 . S
C335 C345 1.386 . S
C335 H353 0.931 . S
C336 C334 1.365 . S
C336 C337 1.409 . S
C336 H354 0.929 . S
C337 C336 1.409 . S
C337 C338 1.380 . S
C337 H355 0.930 . S
C338 C337 1.380 . S
C338 C345 1.357 . S
C339 C330 1.511 . S
C339 C340 1.341 . S
C339 C341 1.371 . S
C340 C339 1.341 . S
C340 C344 1.394 . S
C340 H356 0.930 . S
C341 C339 1.371 . S
C341 C342 1.392 . S
C341 H357 0.931 . S
C342 C341 1.392 . S
C342 C343 1.331 . S
C342 H360 0.932 . S
C343 C342 1.331 . S
C343 C344 1.336 . S
C344 C340 1.394 . S
C344 C343 1.336 . S
C344 H359 0.929 . S
C345 C335 1.386 . S
C345 C338 1.357 . S
C345 H358 0.928 . S
H346 C322 0.931 . S
H347 C324 0.930 . S
H348 C326 0.929 . S
H349 C327 0.931 . S
H350 C329 0.930 1_565 S
H351 C333 0.931 . S
H352 C331 0.931 1_565 S
H353 C335 0.931 . S
H354 C336 0.929 . S
H355 C337 0.930 . S
H356 C340 0.930 . S
H357 C341 0.931 . S
H358 C345 0.928 . S
H359 C344 0.929 . S
H360 C342 0.932 . S
C361 C362 1.386 . S
C361 C363 1.397 . S
C361 H385 0.931 . S
C362 C361 1.386 . S
C362 C366 1.397 . S
C363 C361 1.397 . S
C363 C364 1.384 . S
C363 H386 0.930 . S
C364 C363 1.384 . S
C364 C365 1.377 . S
C364 C367 1.481 . S
C365 C364 1.377 . S
C365 C366 1.389 . S
C365 H387 0.929 . S
C366 C362 1.397 . S
C366 C365 1.389 . S
C366 H388 0.931 . S
C367 C364 1.481 . S
C367 C368 1.387 . S
C367 C372 1.390 1_556 S
C368 C367 1.387 . S
C368 C369 1.401 1_556 S
C368 H389 0.930 . S
C369 C368 1.401 1_554 S
C369 C370 1.376 . S
C369 C378 1.511 . S
C370 C369 1.376 . S
C370 C371 1.392 . S
C370 H391 0.931 . S
C371 C370 1.392 . S
C371 C372 1.361 . S
C371 C373 1.500 . S
C372 C367 1.390 1_554 S
C372 C371 1.361 . S
C372 H390 0.931 . S
C373 C371 1.500 . S
C373 C374 1.371 . S
C373 C375 1.365 . S
C374 C373 1.371 . S
C374 C384 1.386 . S
C374 H392 0.931 . S
C375 C373 1.365 . S
C375 C376 1.409 . S
C375 H393 0.929 . S
C376 C375 1.409 . S
C376 C377 1.380 . S
C376 H394 0.930 . S
C377 C376 1.380 . S
C377 C384 1.357 . S
C378 C369 1.511 . S
C378 C379 1.341 1_554 S
C378 C380 1.371 . S
C379 C378 1.341 1_556 S
C379 C383 1.394 . S
C379 H395 0.930 . S
C380 C378 1.371 . S
C380 C381 1.392 . S
C380 H396 0.931 . S
C381 C380 1.392 . S
C381 C382 1.343 . S
C381 H399 0.932 . S
C382 C381 1.343 . S
C382 C383 1.324 1_554 S
C383 C379 1.394 . S
C383 C382 1.324 1_556 S
C383 H398 0.929 . S
C384 C374 1.386 . S
C384 C377 1.357 . S
C384 H397 0.928 . S
H385 C361 0.931 . S
H386 C363 0.930 . S
H387 C365 0.929 . S
H388 C366 0.931 . S
H389 C368 0.930 . S
H390 C372 0.931 . S
H391 C370 0.931 . S
H392 C374 0.931 . S
H393 C375 0.929 . S
H394 C376 0.930 . S
H395 C379 0.930 . S
H396 C380 0.931 . S
H397 C384 0.928 . S
H398 C383 0.929 . S
H399 C381 0.932 . S
C400 C401 1.363 . S
C400 C406 1.379 . S
C400 N408 1.356 . S
C401 C400 1.363 . S
C401 C407 1.363 . S
C402 C403 1.363 . S
C402 C407 1.379 . S
C402 N409 1.356 . S
C403 C402 1.363 . S
C403 C406 1.363 . S
N404 C406 1.356 . S
N404 H416 0.984 . S
N404 H417 0.985 . S
N405 C407 1.356 . S
N405 H410 0.984 . S
N405 H411 0.985 . S
C406 C400 1.379 . S
C406 C403 1.363 . S
C406 N404 1.356 . S
C407 C401 1.363 . S
C407 C402 1.379 . S
C407 N405 1.356 . S
N408 C400 1.356 . S
N408 H414 0.984 . S
N408 H415 0.984 . S
N409 C402 1.356 . S
N409 H412 0.984 . S
N409 H413 0.985 . S
H410 N405 0.984 . S
H411 N405 0.985 . S
H412 N409 0.984 . S
H413 N409 0.985 . S
H414 N408 0.984 . S
H415 N408 0.984 . S
H416 N404 0.984 . S
H417 N404 0.985 . S
C418 C419 1.363 . S
C418 C424 1.379 . S
C418 N426 1.356 . S
C419 C418 1.363 . S
C419 C425 1.363 . S
C420 C421 1.363 . S
C420 C425 1.379 . S
C420 N427 1.356 . S
C421 C420 1.363 . S
C421 C424 1.363 . S
N422 C424 1.356 . S
N422 H434 0.984 . S
N422 H435 0.985 . S
N423 C425 1.356 . S
N423 H428 0.984 . S
N423 H429 0.985 . S
C424 C418 1.379 . S
C424 C421 1.363 . S
C424 N422 1.356 . S
C425 C419 1.363 . S
C425 C420 1.379 . S
C425 N423 1.356 . S
N426 C418 1.356 . S
N426 H432 0.984 . S
N426 H433 0.984 . S
N427 C420 1.356 . S
N427 H430 0.984 . S
N427 H431 0.985 . S
H428 N423 0.984 . S
H429 N423 0.985 . S
H430 N427 0.984 . S
H431 N427 0.985 . S
H432 N426 0.984 . S
H433 N426 0.984 . S
H434 N422 0.984 . S
H435 N422 0.985 . S
C436 C437 1.363 . S
C436 C442 1.379 . S
C436 N444 1.356 . S
C437 C436 1.363 . S
C437 C443 1.363 . S
C438 C439 1.363 . S
C438 C443 1.379 . S
C438 N445 1.356 . S
C439 C438 1.363 . S
C439 C442 1.363 . S
N440 C442 1.356 . S
N440 H452 0.984 . S
N440 H453 0.985 . S
N441 C443 1.356 . S
N441 H446 0.984 . S
N441 H447 0.985 . S
C442 C436 1.379 . S
C442 C439 1.363 . S
C442 N440 1.356 . S
C443 C437 1.363 . S
C443 C438 1.379 . S
C443 N441 1.356 . S
N444 C436 1.356 . S
N444 H450 0.984 . S
N444 H451 0.984 . S
N445 C438 1.356 . S
N445 H448 0.984 . S
N445 H449 0.985 . S
H446 N441 0.984 . S
H447 N441 0.985 . S
H448 N445 0.984 . S
H449 N445 0.985 . S
H450 N444 0.984 . S
H451 N444 0.984 . S
H452 N440 0.984 . S
H453 N440 0.985 . S
C454 C455 1.363 . S
C454 C460 1.379 . S
C454 N462 1.356 . S
C455 C454 1.363 . S
C455 C461 1.363 . S
C456 C457 1.363 . S
C456 C461 1.379 . S
C456 N463 1.356 . S
C457 C456 1.363 . S
C457 C460 1.363 . S
N458 C460 1.356 . S
N458 H470 0.984 . S
N458 H471 0.985 . S
N459 C461 1.356 . S
N459 H464 0.984 . S
N459 H465 0.985 . S
C460 C454 1.379 . S
C460 C457 1.363 . S
C460 N458 1.356 . S
C461 C455 1.363 . S
C461 C456 1.379 . S
C461 N459 1.356 . S
N462 C454 1.356 . S
N462 H468 0.984 . S
N462 H469 0.984 . S
N463 C456 1.356 . S
N463 H466 0.984 . S
N463 H467 0.985 . S
H464 N459 0.984 . S
H465 N459 0.985 . S
H466 N463 0.984 . S
H467 N463 0.985 . S
H468 N462 0.984 . S
H469 N462 0.984 . S
H470 N458 0.984 . S
H471 N458 0.985 . S
C472 C473 1.363 . S
C472 C478 1.379 . S
C472 N480 1.356 . S
C473 C472 1.363 . S
C473 C479 1.363 . S
C474 C475 1.363 . S
C474 C479 1.379 . S
C474 N481 1.356 . S
C475 C474 1.363 . S
C475 C478 1.363 . S
N476 C478 1.356 . S
N476 H488 0.984 . S
N476 H489 0.985 . S
N477 C479 1.356 . S
N477 H482 0.984 . S
N477 H483 0.985 . S
C478 C472 1.379 . S
C478 C475 1.363 . S
C478 N476 1.356 . S
C479 C473 1.363 . S
C479 C474 1.379 . S
C479 N477 1.356 . S
N480 C472 1.356 . S
N480 H486 0.984 . S
N480 H487 0.984 . S
N481 C474 1.356 . S
N481 H484 0.984 . S
N481 H485 0.985 . S
H482 N477 0.984 . S
H483 N477 0.985 . S
H484 N481 0.984 . S
H485 N481 0.985 . S
H486 N480 0.984 . S
H487 N480 0.984 . S
H488 N476 0.984 . S
H489 N476 0.985 . S
C490 C491 1.363 . S
C490 C496 1.379 . S
C490 N498 1.356 . S
C491 C490 1.363 . S
C491 C497 1.363 . S
C492 C493 1.363 . S
C492 C497 1.379 . S
C492 N499 1.356 . S
C493 C492 1.363 . S
C493 C496 1.363 . S
N494 C496 1.356 . S
N494 H506 0.984 . S
N494 H507 0.985 . S
N495 C497 1.356 . S
N495 H500 0.984 . S
N495 H501 0.985 . S
C496 C490 1.379 . S
C496 C493 1.363 . S
C496 N494 1.356 . S
C497 C491 1.363 . S
C497 C492 1.379 . S
C497 N495 1.356 . S
N498 C490 1.356 . S
N498 H504 0.984 . S
N498 H505 0.984 . S
N499 C492 1.356 . S
N499 H502 0.984 . S
N499 H503 0.985 . S
H500 N495 0.984 . S
H501 N495 0.985 . S
H502 N499 0.984 . S
H503 N499 0.985 . S
H504 N498 0.984 . S
H505 N498 0.984 . S
H506 N494 0.984 . S
H507 N494 0.985 . S
C508 C509 1.363 . S
C508 C514 1.379 . S
C508 N516 1.356 . S
C509 C508 1.363 . S
C509 C515 1.363 . S
C510 C511 1.363 . S
C510 C515 1.379 . S
C510 N517 1.356 . S
C511 C510 1.363 . S
C511 C514 1.363 . S
N512 C514 1.356 . S
N512 H524 0.984 . S
N512 H525 0.985 . S
N513 C515 1.356 . S
N513 H518 0.984 . S
N513 H519 0.985 . S
C514 C508 1.379 . S
C514 C511 1.363 . S
C514 N512 1.356 . S
C515 C509 1.363 . S
C515 C510 1.379 . S
C515 N513 1.356 . S
N516 C508 1.356 . S
N516 H522 0.984 . S
N516 H523 0.984 . S
N517 C510 1.356 . S
N517 H520 0.984 . S
N517 H521 0.985 . S
H518 N513 0.984 . S
H519 N513 0.985 . S
H520 N517 0.984 . S
H521 N517 0.985 . S
H522 N516 0.984 . S
H523 N516 0.984 . S
H524 N512 0.984 . S
H525 N512 0.985 . S
C526 C527 1.363 . S
C526 C532 1.379 . S
C526 N534 1.356 . S
C527 C526 1.363 . S
C527 C533 1.363 . S
C528 C529 1.363 . S
C528 C533 1.379 . S
C528 N535 1.356 . S
C529 C528 1.363 . S
C529 C532 1.363 . S
N530 C532 1.356 . S
N530 H542 0.984 . S
N530 H543 0.985 . S
N531 C533 1.356 . S
N531 H536 0.984 . S
N531 H537 0.985 . S
C532 C526 1.379 . S
C532 C529 1.363 . S
C532 N530 1.356 . S
C533 C527 1.363 . S
C533 C528 1.379 . S
C533 N531 1.356 . S
N534 C526 1.356 . S
N534 H540 0.984 . S
N534 H541 0.984 . S
N535 C528 1.356 . S
N535 H538 0.984 . S
N535 H539 0.985 . S
H536 N531 0.984 . S
H537 N531 0.985 . S
H538 N535 0.984 . S
H539 N535 0.985 . S
H540 N534 0.984 . S
H541 N534 0.984 . S
H542 N530 0.984 . S
H543 N530 0.985 . S
C544 C545 1.363 . S
C544 C550 1.379 . S
C544 N552 1.356 . S
C545 C544 1.363 . S
C545 C551 1.363 . S
C546 C547 1.363 . S
C546 C551 1.379 . S
C546 N553 1.356 . S
C547 C546 1.363 . S
C547 C550 1.363 . S
N548 C550 1.356 . S
N548 H560 0.984 . S
N548 H561 0.985 . S
N549 C551 1.356 . S
N549 H554 0.984 . S
N549 H555 0.985 . S
C550 C544 1.379 . S
C550 C547 1.363 . S
C550 N548 1.356 . S
C551 C545 1.363 . S
C551 C546 1.379 . S
C551 N549 1.356 . S
N552 C544 1.356 . S
N552 H558 0.984 . S
N552 H559 0.984 . S
N553 C546 1.356 . S
N553 H556 0.984 . S
N553 H557 0.985 . S
H554 N549 0.984 . S
H555 N549 0.985 . S
H556 N553 0.984 . S
H557 N553 0.985 . S
H558 N552 0.984 . S
H559 N552 0.984 . S
H560 N548 0.984 . S
H561 N548 0.985 . S
C562 C563 1.363 . S
C562 C568 1.379 . S
C562 N570 1.356 . S
C563 C562 1.363 . S
C563 C569 1.363 . S
C564 C565 1.363 . S
C564 C569 1.379 . S
C564 N571 1.356 . S
C565 C564 1.363 . S
C565 C568 1.363 . S
N566 C568 1.356 . S
N566 H578 0.984 . S
N566 H579 0.985 . S
N567 C569 1.356 . S
N567 H572 0.984 . S
N567 H573 0.985 . S
C568 C562 1.379 . S
C568 C565 1.363 . S
C568 N566 1.356 . S
C569 C563 1.363 . S
C569 C564 1.379 . S
C569 N567 1.356 . S
N570 C562 1.356 . S
N570 H576 0.984 . S
N570 H577 0.984 . S
N571 C564 1.356 . S
N571 H574 0.984 . S
N571 H575 0.985 . S
H572 N567 0.984 . S
H573 N567 0.985 . S
H574 N571 0.984 . S
H575 N571 0.985 . S
H576 N570 0.984 . S
H577 N570 0.984 . S
H578 N566 0.984 . S
H579 N566 0.985 . S
C580 C581 1.363 . S
C580 C586 1.379 . S
C580 N588 1.356 . S
C581 C580 1.363 . S
C581 C587 1.363 . S
C582 C583 1.363 . S
C582 C587 1.379 . S
C582 N589 1.356 . S
C583 C582 1.363 . S
C583 C586 1.363 . S
N584 C586 1.356 . S
N584 H596 0.984 . S
N584 H597 0.985 . S
N585 C587 1.356 . S
N585 H590 0.984 . S
N585 H591 0.985 . S
C586 C580 1.379 . S
C586 C583 1.363 . S
C586 N584 1.356 . S
C587 C581 1.363 . S
C587 C582 1.379 . S
C587 N585 1.356 . S
N588 C580 1.356 . S
N588 H594 0.984 . S
N588 H595 0.984 . S
N589 C582 1.356 . S
N589 H592 0.984 . S
N589 H593 0.985 . S
H590 N585 0.984 . S
H591 N585 0.985 . S
H592 N589 0.984 . S
H593 N589 0.985 . S
H594 N588 0.984 . S
H595 N588 0.984 . S
H596 N584 0.984 . S
H597 N584 0.985 . S
C598 C599 1.363 . S
C598 C604 1.379 . S
C598 N606 1.356 . S
C599 C598 1.363 . S
C599 C605 1.363 . S
C600 C601 1.363 . S
C600 C605 1.379 . S
C600 N607 1.356 . S
C601 C600 1.363 . S
C601 C604 1.363 . S
N602 C604 1.356 . S
N602 H614 0.984 . S
N602 H615 0.985 . S
N603 C605 1.356 . S
N603 H608 0.984 . S
N603 H609 0.985 . S
C604 C598 1.379 . S
C604 C601 1.363 . S
C604 N602 1.356 . S
C605 C599 1.363 . S
C605 C600 1.379 . S
C605 N603 1.356 . S
N606 C598 1.356 . S
N606 H612 0.984 . S
N606 H613 0.984 . S
N607 C600 1.356 . S
N607 H610 0.984 . S
N607 H611 0.985 . S
H608 N603 0.984 . S
H609 N603 0.985 . S
H610 N607 0.984 . S
H611 N607 0.985 . S
H612 N606 0.984 . S
H613 N606 0.984 . S
H614 N602 0.984 . S
H615 N602 0.985 . S
C616 C617 1.363 . S
C616 C622 1.379 . S
C616 N624 1.356 . S
C617 C616 1.363 . S
C617 C623 1.363 . S
C618 C619 1.363 . S
C618 C623 1.379 . S
C618 N625 1.356 . S
C619 C618 1.363 . S
C619 C622 1.363 . S
N620 C622 1.356 . S
N620 H632 0.984 . S
N620 H633 0.985 . S
N621 C623 1.356 . S
N621 H626 0.984 . S
N621 H627 0.985 . S
C622 C616 1.379 . S
C622 C619 1.363 . S
C622 N620 1.356 . S
C623 C617 1.363 . S
C623 C618 1.379 . S
C623 N621 1.356 . S
N624 C616 1.356 . S
N624 H630 0.984 . S
N624 H631 0.984 . S
N625 C618 1.356 . S
N625 H628 0.984 . S
N625 H629 0.985 . S
H626 N621 0.984 . S
H627 N621 0.985 . S
H628 N625 0.984 . S
H629 N625 0.985 . S
H630 N624 0.984 . S
H631 N624 0.984 . S
H632 N620 0.984 . S
H633 N620 0.985 . S
C634 C635 1.363 . S
C634 C640 1.379 . S
C634 N642 1.356 . S
C635 C634 1.363 . S
C635 C641 1.363 . S
C636 C637 1.363 . S
C636 C641 1.379 . S
C636 N643 1.356 . S
C637 C636 1.363 . S
C637 C640 1.363 . S
N638 C640 1.356 . S
N638 H650 0.984 . S
N638 H651 0.985 . S
N639 C641 1.356 . S
N639 H644 0.984 . S
N639 H645 0.985 . S
C640 C634 1.379 . S
C640 C637 1.363 . S
C640 N638 1.356 . S
C641 C635 1.363 . S
C641 C636 1.379 . S
C641 N639 1.356 . S
N642 C634 1.356 . S
N642 H648 0.984 . S
N642 H649 0.984 . S
N643 C636 1.356 . S
N643 H646 0.984 . S
N643 H647 0.985 . S
H644 N639 0.984 . S
H645 N639 0.985 . S
H646 N643 0.984 . S
H647 N643 0.985 . S
H648 N642 0.984 . S
H649 N642 0.984 . S
H650 N638 0.984 . S
H651 N638 0.985 . S
C652 C653 1.363 . S
C652 C658 1.379 . S
C652 N660 1.356 . S
C653 C652 1.363 . S
C653 C659 1.363 . S
C654 C655 1.363 . S
C654 C659 1.379 . S
C654 N661 1.356 . S
C655 C654 1.363 . S
C655 C658 1.363 . S
N656 C658 1.356 . S
N656 H668 0.984 . S
N656 H669 0.985 . S
N657 C659 1.356 . S
N657 H662 0.984 . S
N657 H663 0.985 . S
C658 C652 1.379 . S
C658 C655 1.363 . S
C658 N656 1.356 . S
C659 C653 1.363 . S
C659 C654 1.379 . S
C659 N657 1.356 . S
N660 C652 1.356 . S
N660 H666 0.984 . S
N660 H667 0.984 . S
N661 C654 1.356 . S
N661 H664 0.984 . S
N661 H665 0.985 . S
H662 N657 0.984 . S
H663 N657 0.985 . S
H664 N661 0.984 . S
H665 N661 0.985 . S
H666 N660 0.984 . S
H667 N660 0.984 . S
H668 N656 0.984 . S
H669 N656 0.985 . S
C670 C671 1.363 . S
C670 C676 1.379 . S
C670 N678 1.356 . S
C671 C670 1.363 . S
C671 C677 1.363 . S
C672 C673 1.363 . S
C672 C677 1.379 . S
C672 N679 1.356 . S
C673 C672 1.363 . S
C673 C676 1.363 . S
N674 C676 1.356 . S
N674 H686 0.984 . S
N674 H687 0.985 . S
N675 C677 1.356 . S
N675 H680 0.984 . S
N675 H681 0.985 . S
C676 C670 1.379 . S
C676 C673 1.363 . S
C676 N674 1.356 . S
C677 C671 1.363 . S
C677 C672 1.379 . S
C677 N675 1.356 . S
N678 C670 1.356 . S
N678 H684 0.984 . S
N678 H685 0.984 . S
N679 C672 1.356 . S
N679 H682 0.984 . S
N679 H683 0.985 . S
H680 N675 0.984 . S
H681 N675 0.985 . S
H682 N679 0.984 . S
H683 N679 0.985 . S
H684 N678 0.984 . S
H685 N678 0.984 . S
H686 N674 0.984 . S
H687 N674 0.985 . S
C688 C689 1.362 . S
C688 C694 1.379 . S
C688 N696 1.356 . S
C689 C688 1.362 . S
C689 C695 1.364 1_554 S
C690 C691 1.364 . S
C690 C695 1.379 . S
C690 N697 1.356 . S
C691 C690 1.364 . S
C691 C694 1.362 1_556 S
N692 C694 1.356 . S
N692 H704 0.984 . S
N692 H705 0.985 . S
N693 C695 1.356 . S
N693 H698 0.984 . S
N693 H699 0.985 . S
C694 C688 1.379 . S
C694 C691 1.362 1_554 S
C694 N692 1.356 . S
C695 C689 1.364 1_556 S
C695 C690 1.379 . S
C695 N693 1.356 . S
N696 C688 1.356 . S
N696 H702 0.984 . S
N696 H703 0.984 . S
N697 C690 1.356 . S
N697 H700 0.984 . S
N697 H701 0.985 . S
H698 N693 0.984 . S
H699 N693 0.985 . S
H700 N697 0.984 . S
H701 N697 0.985 . S
H702 N696 0.984 . S
H703 N696 0.984 . S
H704 N692 0.984 . S
H705 N692 0.985 . S
C706 C707 1.363 . S
C706 C712 1.379 . S
C706 N714 1.356 . S
C707 C706 1.363 . S
C707 C713 1.363 . S
C708 C709 1.363 . S
C708 C713 1.379 . S
C708 N715 1.356 . S
C709 C708 1.363 . S
C709 C712 1.363 . S
N710 C712 1.356 . S
N710 H722 0.984 . S
N710 H723 0.985 . S
N711 C713 1.356 . S
N711 H716 0.984 . S
N711 H717 0.985 . S
C712 C706 1.379 . S
C712 C709 1.363 . S
C712 N710 1.356 . S
C713 C707 1.363 . S
C713 C708 1.379 . S
C713 N711 1.356 . S
N714 C706 1.356 . S
N714 H720 0.984 . S
N714 H721 0.984 . S
N715 C708 1.356 . S
N715 H718 0.984 . S
N715 H719 0.985 . S
H716 N711 0.984 . S
H717 N711 0.985 . S
H718 N715 0.984 . S
H719 N715 0.985 . S
H720 N714 0.984 . S
H721 N714 0.984 . S
H722 N710 0.984 . S
H723 N710 0.985 . S
C724 C725 1.357 1_556 S
C724 C730 1.379 . S
C724 N732 1.356 . S
C725 C724 1.357 1_554 S
C725 C731 1.369 . S
C726 C727 1.372 . S
C726 C731 1.379 . S
C726 N733 1.356 . S
C727 C726 1.372 . S
C727 C730 1.354 1_554 S
N728 C730 1.356 . S
N728 H740 0.984 . S
N728 H741 0.985 . S
N729 C731 1.356 . S
N729 H734 0.984 . S
N729 H735 0.985 . S
C730 C724 1.379 . S
C730 C727 1.354 1_556 S
C730 N728 1.356 . S
C731 C725 1.369 . S
C731 C726 1.379 . S
C731 N729 1.356 . S
N732 C724 1.356 . S
N732 H738 0.984 . S
N732 H739 0.984 . S
N733 C726 1.356 . S
N733 H736 0.984 . S
N733 H737 0.985 . S
H734 N729 0.984 . S
H735 N729 0.985 . S
H736 N733 0.984 . S
H737 N733 0.985 . S
H738 N732 0.984 . S
H739 N732 0.984 . S
H740 N728 0.984 . S
H741 N728 0.985 . S
C742 C743 1.363 . S
C742 C748 1.379 . S
C742 N750 1.356 . S
C743 C742 1.363 . S
C743 C749 1.363 . S
C744 C745 1.363 . S
C744 C749 1.379 . S
C744 N751 1.356 . S
C745 C744 1.363 . S
C745 C748 1.363 . S
N746 C748 1.356 . S
N746 H758 0.984 . S
N746 H759 0.985 . S
N747 C749 1.356 . S
N747 H752 0.984 . S
N747 H753 0.985 . S
C748 C742 1.379 . S
C748 C745 1.363 . S
C748 N746 1.356 . S
C749 C743 1.363 . S
C749 C744 1.379 . S
C749 N747 1.356 . S
N750 C742 1.356 . S
N750 H756 0.984 . S
N750 H757 0.984 . S
N751 C744 1.356 . S
N751 H754 0.984 . S
N751 H755 0.985 . S
H752 N747 0.984 . S
H753 N747 0.985 . S
H754 N751 0.984 . S
H755 N751 0.985 . S
H756 N750 0.984 . S
H757 N750 0.984 . S
H758 N746 0.984 . S
H759 N746 0.985 . S
C760 C761 1.363 . S
C760 C766 1.379 . S
C760 N768 1.356 . S
C761 C760 1.363 . S
C761 C767 1.363 . S
C762 C763 1.363 . S
C762 C767 1.379 . S
C762 N769 1.356 . S
C763 C762 1.363 . S
C763 C766 1.363 . S
N764 C766 1.356 . S
N764 H776 0.984 . S
N764 H777 0.985 . S
N765 C767 1.356 . S
N765 H770 0.984 . S
N765 H771 0.985 . S
C766 C760 1.379 . S
C766 C763 1.363 . S
C766 N764 1.356 . S
C767 C761 1.363 . S
C767 C762 1.379 . S
C767 N765 1.356 . S
N768 C760 1.356 . S
N768 H774 0.984 . S
N768 H775 0.984 . S
N769 C762 1.356 . S
N769 H772 0.984 . S
N769 H773 0.985 . S
H770 N765 0.984 . S
H771 N765 0.985 . S
H772 N769 0.984 . S
H773 N769 0.985 . S
H774 N768 0.984 . S
H775 N768 0.984 . S
H776 N764 0.984 . S
H777 N764 0.985 . S
C778 C779 1.357 1_556 S
C778 C784 1.379 . S
C778 N786 1.356 . S
C779 C778 1.357 1_554 S
C779 C785 1.369 . S
C780 C781 1.372 . S
C780 C785 1.379 . S
C780 N787 1.356 . S
C781 C780 1.372 . S
C781 C784 1.354 1_554 S
N782 C784 1.356 . S
N782 H794 0.984 . S
N782 H795 0.985 . S
N783 C785 1.356 . S
N783 H788 0.984 . S
N783 H789 0.985 . S
C784 C778 1.379 . S
C784 C781 1.354 1_556 S
C784 N782 1.356 . S
C785 C779 1.369 . S
C785 C780 1.379 . S
C785 N783 1.356 . S
N786 C778 1.356 . S
N786 H792 0.984 . S
N786 H793 0.984 . S
N787 C780 1.356 . S
N787 H790 0.984 . S
N787 H791 0.985 . S
H788 N783 0.984 . S
H789 N783 0.985 . S
H790 N787 0.984 . S
H791 N787 0.985 . S
H792 N786 0.984 . S
H793 N786 0.984 . S
H794 N782 0.984 . S
H795 N782 0.985 . S
C796 C797 1.363 . S
C796 C802 1.379 . S
C796 N804 1.356 . S
C797 C796 1.363 . S
C797 C803 1.363 . S
C798 C799 1.363 . S
C798 C803 1.379 . S
C798 N805 1.356 . S
C799 C798 1.363 . S
C799 C802 1.363 . S
N800 C802 1.356 . S
N800 H812 0.984 . S
N800 H813 0.985 . S
N801 C803 1.356 . S
N801 H806 0.984 . S
N801 H807 0.985 . S
C802 C796 1.379 . S
C802 C799 1.363 . S
C802 N800 1.356 . S
C803 C797 1.363 . S
C803 C798 1.379 . S
C803 N801 1.356 . S
N804 C796 1.356 . S
N804 H810 0.984 . S
N804 H811 0.984 . S
N805 C798 1.356 . S
N805 H808 0.984 . S
N805 H809 0.985 . S
H806 N801 0.984 . S
H807 N801 0.985 . S
H808 N805 0.984 . S
H809 N805 0.985 . S
H810 N804 0.984 . S
H811 N804 0.984 . S
H812 N800 0.984 . S
H813 N800 0.985 . S
C814 C815 1.364 1_556 S
C814 C820 1.379 . S
C814 N822 1.356 . S
C815 C814 1.364 1_554 S
C815 C821 1.362 . S
C816 C817 1.362 1_554 S
C816 C821 1.379 . S
C816 N823 1.356 . S
C817 C816 1.362 1_556 S
C817 C820 1.364 . S
N818 C820 1.356 . S
N818 H830 0.984 . S
N818 H831 0.985 . S
N819 C821 1.356 . S
N819 H824 0.984 . S
N819 H825 0.985 . S
C820 C814 1.379 . S
C820 C817 1.364 . S
C820 N818 1.356 . S
C821 C815 1.362 . S
C821 C816 1.379 . S
C821 N819 1.356 . S
N822 C814 1.356 . S
N822 H828 0.984 . S
N822 H829 0.984 . S
N823 C816 1.356 . S
N823 H826 0.984 . S
N823 H827 0.985 . S
H824 N819 0.984 . S
H825 N819 0.985 . S
H826 N823 0.984 . S
H827 N823 0.985 . S
H828 N822 0.984 . S
H829 N822 0.984 . S
H830 N818 0.984 . S
H831 N818 0.985 . S
C401 C5 1.551 . S
C403 C221 1.520 . S
C419 C31 1.554 . S
C421 C89 1.525 . S
C439 C128 1.524 . S
C437 C53 1.552 . S
C455 C71 1.550 . S
C457 C182 1.519 . S
C475 C284 1.525 . S
C473 C75 1.554 . S
C493 C338 1.520 . S
C491 C9 1.551 . S
C511 C377 1.519 . S
C509 C27 1.550 . S
C529 C245 1.524 . S
C527 C49 1.552 . S
C545 C51 1.551 . S
C547 C143 1.517 . S
C563 C72 1.554 . S
C565 C167 1.520 . S
C581 C6 1.552 . S
C583 C206 1.519 . S
C601 C104 1.516 . S
C599 C29 1.550 . S
C617 C28 1.554 . S
C619 C362 1.520 . S
C637 C260 1.517 . S
C635 C50 1.551 . S
C655 C299 1.516 . S
C653 C73 1.550 . S
C671 C7 1.552 . S
C673 C323 1.519 . S
C691 C109 1.524 1_556 S
C689 C4 1.537 . S
C709 C148 1.524 . S
C707 C30 1.537 . S
C725 C52 1.537 . S
C727 C187 1.515 1_554 S
C743 C70 1.537 . S
C745 C226 1.515 . S
C763 C265 1.524 . S
C761 C74 1.537 . S
C779 C8 1.537 . S
C781 C304 1.524 1_554 S
C797 C26 1.537 . S
C799 C343 1.515 . S
C815 C48 1.537 . S
C817 C382 1.515 1_556 S
