# Generated by pormake.
# Topology csq, (4,8)-cn, num edge types: 1
# Building blocks:
#     Node 0, Type 0, BuildingBlock: MIFKUJ_clean_linker_1, # of connection points: 4
#     Node 1, Type 0, BuildingBlock: MIFKUJ_clean_linker_1, # of connection points: 4
#     Node 2, Type 0, BuildingBlock: MIFKUJ_clean_linker_1, # of connection points: 4
#     Node 3, Type 0, BuildingBlock: MIFKUJ_clean_linker_1, # of connection points: 4
#     Node 4, Type 0, BuildingBlock: MIFKUJ_clean_linker_1, # of connection points: 4
#     Node 5, Type 0, BuildingBlock: MIFKUJ_clean_linker_1, # of connection points: 4
#     Node 6, Type 1, BuildingBlock: TAGTUT_clean_sbu_1, # of connection points: 8
#     Node 7, Type 1, BuildingBlock: TAGTUT_clean_sbu_1, # of connection points: 8
#     Node 8, Type 1, BuildingBlock: TAGTUT_clean_sbu_1, # of connection points: 8
#     Edge 9, Type (0, 1), BuildingBlock: XUDNAN_clean_linker_2, # of connection points: 2
#     Edge 10, Type (0, 1), BuildingBlock: XUDNAN_clean_linker_2, # of connection points: 2
#     Edge 11, Type (0, 1), BuildingBlock: XUDNAN_clean_linker_2, # of connection points: 2
#     Edge 12, Type (0, 1), BuildingBlock: XUDNAN_clean_linker_2, # of connection points: 2
#     Edge 13, Type (0, 1), BuildingBlock: XUDNAN_clean_linker_2, # of connection points: 2
#     Edge 14, Type (0, 1), BuildingBlock: XUDNAN_clean_linker_2, # of connection points: 2
#     Edge 15, Type (0, 1), BuildingBlock: XUDNAN_clean_linker_2, # of connection points: 2
#     Edge 16, Type (0, 1), BuildingBlock: XUDNAN_clean_linker_2, # of connection points: 2
#     Edge 17, Type (0, 1), BuildingBlock: XUDNAN_clean_linker_2, # of connection points: 2
#     Edge 18, Type (0, 1), BuildingBlock: XUDNAN_clean_linker_2, # of connection points: 2
#     Edge 19, Type (0, 1), BuildingBlock: XUDNAN_clean_linker_2, # of connection points: 2
#     Edge 20, Type (0, 1), BuildingBlock: XUDNAN_clean_linker_2, # of connection points: 2
#     Edge 21, Type (0, 1), BuildingBlock: XUDNAN_clean_linker_2, # of connection points: 2
#     Edge 22, Type (0, 1), BuildingBlock: XUDNAN_clean_linker_2, # of connection points: 2
#     Edge 23, Type (0, 1), BuildingBlock: XUDNAN_clean_linker_2, # of connection points: 2
#     Edge 24, Type (0, 1), BuildingBlock: XUDNAN_clean_linker_2, # of connection points: 2
#     Edge 25, Type (0, 1), BuildingBlock: XUDNAN_clean_linker_2, # of connection points: 2
#     Edge 26, Type (0, 1), BuildingBlock: XUDNAN_clean_linker_2, # of connection points: 2
#     Edge 27, Type (0, 1), BuildingBlock: XUDNAN_clean_linker_2, # of connection points: 2
#     Edge 28, Type (0, 1), BuildingBlock: XUDNAN_clean_linker_2, # of connection points: 2
#     Edge 29, Type (0, 1), BuildingBlock: XUDNAN_clean_linker_2, # of connection points: 2
#     Edge 30, Type (0, 1), BuildingBlock: XUDNAN_clean_linker_2, # of connection points: 2
#     Edge 31, Type (0, 1), BuildingBlock: XUDNAN_clean_linker_2, # of connection points: 2
#     Edge 32, Type (0, 1), BuildingBlock: XUDNAN_clean_linker_2, # of connection points: 2
# Relax obj value: 0.033
# Max RMSD: 0.127
# Mean RMSD: 0.058
data_MOF--net-csq--node1-TAGTUT_clean_sbu_1--node2-MIFKUJ_clean_linker_1--edge1-XUDNAN_clean_linker_2
_symmetry_space_group_name_H-M    P1
_symmetry_Int_Tables_number       1
_symmetry_cell_setting            triclinic
loop_
_symmetry_equiv_pos_as_xyz
'x, y, z'
_cell_length_a     62.391842
_cell_length_b     61.736146
_cell_length_c     21.960754
_cell_angle_alpha  92.777227
_cell_angle_beta   91.793707
_cell_angle_gamma 119.95537
loop_
_atom_site_label
_atom_site_type_symbol
_atom_site_fract_x
_atom_site_fract_y
_atom_site_fract_z
_atom_type_partial_charge
H0 H 0.31226 0.48936 0.19483 0.0
H1 H 0.3451 0.49655 0.26997 0.0
H2 H 0.33675 0.55481 0.36478 0.0
H3 H 0.30616 0.54941 0.286 0.0
H4 H 0.26379 0.511 0.27152 0.0
H5 H 0.28063 0.47394 0.0503 0.0
H6 H 0.3106 0.476 0.97885 0.0
H7 H 0.3637 0.55034 0.05618 0.0
H8 H 0.33329 0.54823 0.12818 0.0
H9 H 0.25061 0.54313 0.05268 0.0
H10 H 0.2226 0.54334 0.97423 0.0
H11 H 0.16439 0.47173 0.02593 0.0
H12 H 0.19348 0.47104 0.10281 0.0
H13 H 0.26343 0.50683 0.04616 0.0
H14 H 0.21267 0.528 0.17914 0.0
H15 H 0.17779 0.52041 0.23917 0.0
H16 H 0.19031 0.46944 0.34314 0.0
H17 H 0.22249 0.47448 0.27781 0.0
C18 C 0.30679 0.51893 0.23441 0.0
C19 C 0.31817 0.50429 0.23053 0.0
C20 C 0.3366 0.50806 0.27461 0.0
C21 C 0.34342 0.526 0.32451 0.0
C22 C 0.33241 0.54106 0.32699 0.0
C23 C 0.31461 0.53779 0.28208 0.0
C24 C 0.28489 0.51316 0.19393 0.0
C25 C 0.26364 0.5101 0.22203 0.0
C26 C 0.28434 0.51062 0.1295 0.0
C27 C 0.3046 0.51094 0.0946 0.0
C28 C 0.29884 0.49058 0.05271 0.0
C29 C 0.31597 0.49183 0.0116 0.0
C30 C 0.33938 0.51351 0.01114 0.0
C31 C 0.3458 0.5334 0.05546 0.0
C32 C 0.32847 0.53218 0.09671 0.0
C33 C 0.22408 0.50711 0.08357 0.0
C34 C 0.23173 0.52755 0.04754 0.0
C35 C 0.21558 0.52771 0.00288 0.0
C36 C 0.19116 0.50758 0.99368 0.0
C37 C 0.18319 0.48738 0.03125 0.0
C38 C 0.19962 0.48708 0.07573 0.0
C39 C 0.24299 0.5063 0.12386 0.0
C40 C 0.26349 0.50761 0.09568 0.0
C41 C 0.24232 0.50614 0.18821 0.0
C42 C 0.22019 0.50148 0.22257 0.0
C43 C 0.20728 0.51443 0.21324 0.0
C44 C 0.18754 0.51049 0.24912 0.0
C45 C 0.18072 0.49418 0.29692 0.0
C46 C 0.194 0.48155 0.3062 0.0
C47 C 0.21299 0.48479 0.26909 0.0
H48 H 0.78896 0.28837 0.00869 0.0
H49 H 0.82637 0.31462 0.95498 0.0
H50 H 0.86405 0.28127 0.04569 0.0
H51 H 0.82671 0.25499 0.09802 0.0
H52 H 0.75972 0.23485 0.01199 0.0
H53 H 0.80276 0.30691 0.15127 0.0
H54 H 0.84219 0.34146 0.19681 0.0
H55 H 0.85671 0.28821 0.28279 0.0
H56 H 0.8173 0.25371 0.23681 0.0
H57 H 0.74771 0.19101 0.24025 0.0
H58 H 0.71806 0.16651 0.31396 0.0
H59 H 0.6655 0.18525 0.23574 0.0
H60 H 0.69556 0.21024 0.16274 0.0
H61 H 0.76722 0.24119 0.23854 0.0
H62 H 0.71908 0.16807 0.08946 0.0
H63 H 0.68657 0.1377 0.01471 0.0
H64 H 0.68045 0.19781 0.93881 0.0
H65 H 0.71292 0.22792 0.01296 0.0
C66 C 0.80513 0.26983 0.05736 0.0
C67 C 0.80525 0.28664 0.01646 0.0
C68 C 0.82667 0.30176 0.98637 0.0
C69 C 0.84815 0.30002 0.99622 0.0
C70 C 0.84776 0.28289 0.03666 0.0
C71 C 0.82647 0.26794 0.0668 0.0
C72 C 0.7832 0.25471 0.09246 0.0
C73 C 0.76102 0.23641 0.06157 0.0
C74 C 0.78501 0.25699 0.15684 0.0
C75 C 0.80723 0.27781 0.1906 0.0
C76 C 0.81434 0.30275 0.18055 0.0
C77 C 0.8368 0.32243 0.20654 0.0
C78 C 0.85258 0.31746 0.24266 0.0
C79 C 0.84503 0.29251 0.2543 0.0
C80 C 0.82245 0.27284 0.22873 0.0
C81 C 0.72386 0.20243 0.1958 0.0
C82 C 0.72964 0.18954 0.23836 0.0
C83 C 0.71263 0.17545 0.2804 0.0
C84 C 0.68947 0.17408 0.28117 0.0
C85 C 0.68333 0.18623 0.23697 0.0
C86 C 0.70037 0.20027 0.19466 0.0
C87 C 0.74353 0.22033 0.1582 0.0
C88 C 0.76547 0.23953 0.18899 0.0
C89 C 0.74097 0.21929 0.09355 0.0
C90 C 0.7184 0.20026 0.05682 0.0
C91 C 0.71028 0.17458 0.05768 0.0
C92 C 0.69178 0.15727 0.01475 0.0
C93 C 0.68125 0.16543 0.97012 0.0
C94 C 0.68858 0.19099 0.97159 0.0
C95 C 0.70697 0.20819 0.01436 0.0
H96 H 0.56152 0.75631 0.94968 0.0
H97 H 0.57178 0.72513 0.91129 0.0
H98 H 0.50599 0.6669 0.98615 0.0
H99 H 0.49657 0.69861 0.02687 0.0
H100 H 0.51648 0.76079 0.93808 0.0
H101 H 0.56956 0.74872 0.08437 0.0
H102 H 0.57741 0.71942 0.13739 0.0
H103 H 0.50962 0.69466 0.22959 0.0
H104 H 0.50123 0.72325 0.17314 0.0
H105 H 0.50264 0.79932 0.17429 0.0
H106 H 0.50916 0.83969 0.2172 0.0
H107 H 0.56492 0.87781 0.0886 0.0
H108 H 0.55908 0.83764 0.04802 0.0
H109 H 0.53294 0.77905 0.16295 0.0
H110 H 0.48616 0.80096 0.03476 0.0
H111 H 0.47986 0.83074 0.97992 0.0
H112 H 0.53195 0.83429 0.8497 0.0
H113 H 0.53972 0.806 0.90825 0.0
C114 C 0.52826 0.72965 0.99067 0.0
C115 C 0.5491 0.73675 0.95675 0.0
C116 C 0.55496 0.71888 0.93504 0.0
C117 C 0.53981 0.69349 0.94597 0.0
C118 C 0.51836 0.68635 0.97808 0.0
C119 C 0.5127 0.70432 1.0005 0.0
C120 C 0.52493 0.74927 0.02217 0.0
C121 C 0.51994 0.76483 0.98717 0.0
C122 C 0.52874 0.75382 0.08641 0.0
C123 C 0.5347 0.73801 0.12436 0.0
C124 C 0.55637 0.73697 0.11595 0.0
C125 C 0.56091 0.72027 0.14679 0.0
C126 C 0.54416 0.70457 0.188 0.0
C127 C 0.52273 0.70613 0.19754 0.0
C128 C 0.51806 0.72272 0.166 0.0
C129 C 0.53018 0.81552 0.10765 0.0
C130 C 0.51645 0.81643 0.15599 0.0
C131 C 0.51997 0.83946 0.17981 0.0
C132 C 0.53736 0.86192 0.15574 0.0
C133 C 0.55149 0.8609 0.10835 0.0
C134 C 0.54807 0.83795 0.08489 0.0
C135 C 0.52529 0.79124 0.07861 0.0
C136 C 0.52871 0.77473 0.11408 0.0
C137 C 0.51966 0.78563 0.01474 0.0
C138 C 0.51377 0.80152 0.97648 0.0
C139 C 0.49639 0.80829 0.99466 0.0
C140 C 0.49255 0.82516 0.96255 0.0
C141 C 0.50543 0.83516 0.91014 0.0
C142 C 0.52207 0.8275 0.89049 0.0
C143 C 0.52626 0.81095 0.92343 0.0
H144 H 0.76489 0.4574 0.16237 0.0
H145 H 0.78946 0.45132 0.2408 0.0
H146 H 0.8534 0.52195 0.20487 0.0
H147 H 0.82819 0.52854 0.12896 0.0
H148 H 0.75631 0.49563 0.17883 0.0
H149 H 0.77482 0.46286 0.97563 0.0
H150 H 0.80254 0.45947 0.90381 0.0
H151 H 0.85719 0.5371 0.95057 0.0
H152 H 0.82906 0.54053 0.02115 0.0
H153 H 0.75215 0.55054 0.98124 0.0
H154 H 0.72469 0.55215 0.90143 0.0
H155 H 0.67082 0.47465 0.92242 0.0
H156 H 0.69822 0.47326 0.00277 0.0
H157 H 0.76751 0.51342 0.96102 0.0
H158 H 0.72747 0.53956 0.11367 0.0
H159 H 0.69498 0.53795 0.17692 0.0
H160 H 0.67694 0.46395 0.22515 0.0
H161 H 0.70872 0.46542 0.16114 0.0
C162 C 0.79477 0.4933 0.13933 0.0
C163 C 0.78435 0.47135 0.17061 0.0
C164 C 0.79846 0.46788 0.21542 0.0
C165 C 0.82337 0.48626 0.22969 0.0
C166 C 0.83414 0.50763 0.19588 0.0
C167 C 0.8199 0.5112 0.15141 0.0
C168 C 0.77836 0.49916 0.10234 0.0
C169 C 0.7586 0.49934 0.13097 0.0
C170 C 0.78174 0.5045 0.04043 0.0
C171 C 0.80014 0.50177 0.00472 0.0
C172 C 0.79295 0.47901 0.97115 0.0
C173 C 0.80867 0.47717 0.92971 0.0
C174 C 0.83199 0.49804 0.92146 0.0
C175 C 0.83941 0.52067 0.95634 0.0
C176 C 0.82346 0.52261 0.99697 0.0
C177 C 0.727 0.51189 0.99822 0.0
C178 C 0.73416 0.53412 0.96958 0.0
C179 C 0.71858 0.53496 0.9239 0.0
C180 C 0.69587 0.51341 0.90541 0.0
C181 C 0.68842 0.49139 0.9354 0.0
C182 C 0.70384 0.49068 0.98175 0.0
C183 C 0.74524 0.50955 0.03737 0.0
C184 C 0.76536 0.51002 0.0091 0.0
C185 C 0.74166 0.50404 0.09919 0.0
C186 C 0.72048 0.50253 0.13217 0.0
C187 C 0.71617 0.52282 0.13697 0.0
C188 C 0.69782 0.52201 0.17383 0.0
C189 C 0.68332 0.50083 0.20631 0.0
C190 C 0.68745 0.48044 0.20032 0.0
C191 C 0.70576 0.48129 0.16383 0.0
H192 H 0.23522 0.79856 0.97401 0.0
H193 H 0.25971 0.82649 0.89891 0.0
H194 H 0.32684 0.84233 0.00219 0.0
H195 H 0.30188 0.81185 0.07363 0.0
H196 H 0.23231 0.75629 0.99535 0.0
H197 H 0.24928 0.8304 0.16975 0.0
H198 H 0.27919 0.86604 0.23798 0.0
H199 H 0.32626 0.83317 0.24707 0.0
H200 H 0.2954 0.79699 0.18196 0.0
H201 H 0.21105 0.72596 0.2442 0.0
H202 H 0.17412 0.69402 0.29034 0.0
H203 H 0.12742 0.70309 0.15687 0.0
H204 H 0.16423 0.73517 0.11169 0.0
H205 H 0.23134 0.77507 0.21705 0.0
H206 H 0.19686 0.69539 0.11202 0.0
H207 H 0.16299 0.65616 0.06491 0.0
H208 H 0.15426 0.69613 0.91845 0.0
H209 H 0.18652 0.73555 0.96923 0.0
C210 C 0.26655 0.80325 0.03052 0.0
C211 C 0.25525 0.80801 0.98066 0.0
C212 C 0.26941 0.82439 0.93782 0.0
C213 C 0.29548 0.83718 0.94423 0.0
C214 C 0.30686 0.83275 0.99494 0.0
C215 C 0.29255 0.81571 0.03711 0.0
C216 C 0.25047 0.78377 0.07151 0.0
C217 C 0.2321 0.76047 0.04382 0.0
C218 C 0.25093 0.78843 0.1355 0.0
C219 C 0.2705 0.81147 0.16963 0.0
C220 C 0.26623 0.83114 0.18594 0.0
C221 C 0.28342 0.85151 0.22496 0.0
C222 C 0.30532 0.85266 0.24826 0.0
C223 C 0.30952 0.83287 0.23111 0.0
C224 C 0.29211 0.81234 0.19296 0.0
C225 C 0.19036 0.73256 0.17385 0.0
C226 C 0.19286 0.72148 0.22588 0.0
C227 C 0.17178 0.70324 0.25208 0.0
C228 C 0.14796 0.69585 0.22648 0.0
C229 C 0.14556 0.70813 0.1768 0.0
C230 C 0.16656 0.72648 0.15113 0.0
C231 C 0.21222 0.7487 0.13956 0.0
C232 C 0.23167 0.77091 0.16863 0.0
C233 C 0.2131 0.7428 0.07693 0.0
C234 C 0.19401 0.71857 0.04491 0.0
C235 C 0.18741 0.69575 0.07021 0.0
C236 C 0.16818 0.6732 0.04262 0.0
C237 C 0.15561 0.67279 0.98781 0.0
C238 C 0.16294 0.69562 0.96139 0.0
C239 C 0.18177 0.71824 0.98985 0.0
H240 H 0.51007 0.22907 0.09741 0.0
H241 H 0.51504 0.194 0.0577 0.0
H242 H 0.44224 0.14152 0.11304 0.0
H243 H 0.43685 0.17636 0.14981 0.0
H244 H 0.47895 0.24621 0.07403 0.0
H245 H 0.50739 0.22729 0.25213 0.0
H246 H 0.5119 0.19539 0.30274 0.0
H247 H 0.43269 0.15352 0.32015 0.0
H248 H 0.42857 0.18626 0.27125 0.0
H249 H 0.43114 0.27889 0.15491 0.0
H250 H 0.42786 0.31533 0.19092 0.0
H251 H 0.4732 0.32485 0.35348 0.0
H252 H 0.47786 0.28955 0.3161 0.0
H253 H 0.4543 0.24334 0.28793 0.0
H254 H 0.45455 0.2666 0.02855 0.0
H255 H 0.46454 0.30391 0.97453 0.0
H256 H 0.50937 0.35068 0.13381 0.0
H257 H 0.5012 0.31356 0.18456 0.0
C258 C 0.47321 0.20528 0.12713 0.0
C259 C 0.49511 0.21002 0.10031 0.0
C260 C 0.49804 0.19007 0.07838 0.0
C261 C 0.47922 0.1652 0.0838 0.0
C262 C 0.45724 0.16055 0.1099 0.0
C263 C 0.45413 0.18041 0.13054 0.0
C264 C 0.47053 0.226 0.15529 0.0
C265 C 0.47334 0.24558 0.12046 0.0
C266 C 0.46503 0.2261 0.21717 0.0
C267 C 0.46766 0.20905 0.25795 0.0
C268 C 0.49109 0.21151 0.2682 0.0
C269 C 0.49356 0.19304 0.29629 0.0
C270 C 0.47259 0.17157 0.31431 0.0
C271 C 0.44924 0.16984 0.30702 0.0
C272 C 0.44682 0.18855 0.27933 0.0
C273 C 0.45517 0.28177 0.23224 0.0
C274 C 0.44028 0.28873 0.19847 0.0
C275 C 0.43834 0.30942 0.21891 0.0
C276 C 0.4504 0.3227 0.27452 0.0
C277 C 0.46374 0.31469 0.31042 0.0
C278 C 0.46624 0.29445 0.28928 0.0
C279 C 0.46116 0.26304 0.20548 0.0
C280 C 0.45941 0.24395 0.24103 0.0
C281 C 0.46974 0.26474 0.14573 0.0
C282 C 0.47673 0.28723 0.11108 0.0
C283 C 0.46687 0.28494 0.05124 0.0
C284 C 0.47234 0.30636 0.02076 0.0
C285 C 0.48762 0.33051 0.04974 0.0
C286 C 0.49787 0.33258 0.10924 0.0
C287 C 0.49289 0.31125 0.13892 0.0
C288 C 0.98399 0.42396 0.77339 0.0
C289 C 0.05693 0.47583 0.70999 0.0
C290 C 0.02852 0.54218 0.70496 0.0
Mg291 Mg 0.00618 0.44051 0.64763 0.0
O292 O 0.99569 0.46392 0.66612 0.0
Mg293 Mg 0.00968 0.48522 0.74507 0.0
Mg294 Mg 0.00426 0.4913 0.61064 0.0
O295 O 0.01299 0.51885 0.55562 0.0
Mg296 Mg 0.00416 0.54339 0.5752 0.0
Mg297 Mg 0.99876 0.49761 0.47696 0.0
C298 C 0.98346 0.44181 0.51602 0.0
C299 C 0.04703 0.49458 0.52117 0.0
O300 O 0.99103 0.44693 0.79043 0.0
O301 O 0.98781 0.41727 0.72048 0.0
O302 O 0.04593 0.4852 0.73971 0.0
O303 O 0.04568 0.45826 0.668 0.0
O304 O 0.99117 0.43102 0.55233 0.0
O305 O 0.98393 0.46235 0.53197 0.0
C306 C 0.96221 0.48959 0.70045 0.0
O307 O 0.96893 0.49134 0.64518 0.0
O308 O 0.97442 0.48672 0.74409 0.0
O309 O 0.01569 0.53536 0.43043 0.0
O310 O 0.02248 0.56619 0.50119 0.0
O311 O 0.96231 0.49696 0.48469 0.0
C312 C 0.02408 0.55863 0.44696 0.0
O313 O 0.96425 0.52527 0.55548 0.0
O314 O 0.0216 0.55384 0.66928 0.0
C315 C 0.95209 0.50704 0.51517 0.0
O316 O 0.02506 0.52029 0.68915 0.0
O317 O 0.0393 0.49112 0.57552 0.0
O318 O 0.03521 0.49793 0.47737 0.0
C319 C 0.46571 0.03015 0.81039 0.0
C320 C 0.42184 0.95987 0.7011 0.0
C321 C 0.51041 0.96712 0.6656 0.0
Mg322 Mg 0.45151 0.01522 0.67174 0.0
O323 O 0.48089 0.01434 0.67981 0.0
Mg324 Mg 0.48357 0.99252 0.74097 0.0
Mg325 Mg 0.49415 0.00543 0.60816 0.0
O326 O 0.50802 0.99651 0.53749 0.0
Mg327 Mg 0.53903 0.9987 0.55328 0.0
Mg328 Mg 0.50635 0.01967 0.47879 0.0
C329 C 0.47685 0.04318 0.55277 0.0
C330 C 0.45001 0.97682 0.50026 0.0
O331 O 0.47431 0.01512 0.81348 0.0
O332 O 0.45674 0.03334 0.76055 0.0
O333 O 0.44196 0.9629 0.72665 0.0
O334 O 0.42134 0.97718 0.67254 0.0
O335 O 0.4599 0.03701 0.5911 0.0
O336 O 0.49284 0.03583 0.55618 0.0
C337 C 0.53928 0.0356 0.71392 0.0
O338 O 0.5327 0.03298 0.6568 0.0
O339 O 0.52413 0.02224 0.75258 0.0
O340 O 0.51963 6e-05 0.40816 0.0
O341 O 0.54059 0.98551 0.46257 0.0
O342 O 0.54678 0.05008 0.50077 0.0
C343 C 0.53208 0.98864 0.41192 0.0
O344 O 0.56822 0.03782 0.55886 0.0
O345 O 0.52871 0.97421 0.63082 0.0
C346 C 0.56674 0.05454 0.52993 0.0
O347 O 0.49492 0.975 0.66079 0.0
O348 O 0.45553 0.97854 0.55791 0.0
O349 O 0.46602 0.98987 0.4627 0.0
C350 C 0.54875 0.57638 0.42771 0.0
C351 C 0.57346 0.52525 0.47761 0.0
C352 C 0.48219 0.46411 0.54097 0.0
Mg353 Mg 0.56572 0.56435 0.55055 0.0
O354 O 0.53129 0.54214 0.5488 0.0
Mg355 Mg 0.51548 0.51763 0.47579 0.0
Mg356 Mg 0.51853 0.51877 0.61529 0.0
O357 O 0.50626 0.49557 0.68232 0.0
Mg358 Mg 0.47307 0.47025 0.68288 0.0
Mg359 Mg 0.52061 0.52088 0.75428 0.0
C360 C 0.55509 0.57242 0.68989 0.0
C361 C 0.56555 0.52006 0.68493 0.0
O362 O 0.53073 0.55354 0.41871 0.0
O363 O 0.56381 0.58419 0.47526 0.0
O364 O 0.55061 0.51535 0.45954 0.0
O365 O 0.58372 0.54391 0.51756 0.0
O366 O 0.56943 0.58027 0.64526 0.0
O367 O 0.53437 0.55165 0.68544 0.0
C368 C 0.47227 0.52002 0.54886 0.0
O369 O 0.48265 0.51997 0.60004 0.0
O370 O 0.48122 0.51945 0.49756 0.0
O371 O 0.50808 0.4868 0.81309 0.0
O372 O 0.47797 0.45219 0.76001 0.0
O373 O 0.48327 0.52029 0.76922 0.0
C374 C 0.49303 0.46299 0.80719 0.0
O375 O 0.45287 0.48857 0.71027 0.0
O376 O 0.46942 0.45541 0.58786 0.0
C377 C 0.46056 0.50759 0.74855 0.0
O378 O 0.50181 0.48591 0.5437 0.0
O379 O 0.55491 0.51814 0.63235 0.0
O380 O 0.5561 0.52129 0.73501 0.0
H381 H 0.16303 0.5268 0.32577 0.0
H382 H 0.15077 0.45274 0.36048 0.0
H383 H 0.11973 0.44788 0.43234 0.0
H384 H 0.15214 0.54487 0.47468 0.0
H385 H 0.13492 0.55888 0.44554 0.0
H386 H 0.15856 0.55824 0.40167 0.0
H387 H 0.12672 0.53557 0.30926 0.0
H388 H 0.10316 0.53656 0.35251 0.0
H389 H 0.09826 0.507 0.31954 0.0
H390 H 0.08949 0.45071 0.50176 0.0
H391 H 0.05741 0.45787 0.54689 0.0
H392 H 0.08528 0.52697 0.45679 0.0
C393 C 0.15386 0.50939 0.34772 0.0
C394 C 0.16039 0.49058 0.33785 0.0
C395 C 0.14741 0.46817 0.36849 0.0
C396 C 0.12941 0.46504 0.40944 0.0
C397 C 0.12388 0.48411 0.41865 0.0
C398 C 0.13526 0.50557 0.38743 0.0
C399 C 0.12413 0.5221 0.4008 0.0
C400 C 0.1436 0.54753 0.43256 0.0
C401 C 0.11236 0.52549 0.34204 0.0
C402 C 0.10462 0.50646 0.44398 0.0
C403 C 0.10521 0.48492 0.45503 0.0
C404 C 0.08886 0.46753 0.49343 0.0
C405 C 0.07088 0.47184 0.51943 0.0
C406 C 0.06913 0.49306 0.5058 0.0
C407 C 0.08646 0.51073 0.46839 0.0
H408 H 0.67804 0.12895 0.3267 0.0
H409 H 0.6622 0.18978 0.34572 0.0
H410 H 0.63371 0.16835 0.42595 0.0
H411 H 0.61759 0.08034 0.34152 0.0
H412 H 0.62645 0.0614 0.38372 0.0
H413 H 0.64734 0.08282 0.33243 0.0
H414 H 0.68135 0.10377 0.4211 0.0
H415 H 0.66033 0.08258 0.47291 0.0
H416 H 0.67502 0.11597 0.49021 0.0
H417 H 0.60385 0.13856 0.49573 0.0
H418 H 0.57277 0.1012 0.54413 0.0
H419 H 0.60916 0.0605 0.48473 0.0
C420 C 0.66894 0.13799 0.34854 0.0
C421 C 0.67238 0.16107 0.32978 0.0
C422 C 0.65966 0.17197 0.35865 0.0
C423 C 0.64367 0.1601 0.40489 0.0
C424 C 0.64071 0.13739 0.42226 0.0
C425 C 0.65292 0.12639 0.39487 0.0
C426 C 0.64491 0.10091 0.41839 0.0
C427 C 0.63338 0.08015 0.36591 0.0
C428 C 0.66671 0.10081 0.4527 0.0
C429 C 0.62569 0.09894 0.46182 0.0
C430 C 0.62382 0.12037 0.46403 0.0
C431 C 0.60555 0.12195 0.49563 0.0
C432 C 0.58808 0.10074 0.52336 0.0
C433 C 0.58915 0.07837 0.51976 0.0
C434 C 0.6087 0.07778 0.49053 0.0
H435 H 0.51103 0.65643 0.21883 0.0
H436 H 0.58922 0.71309 0.23407 0.0
H437 H 0.59863 0.68437 0.28693 0.0
H438 H 0.51005 0.6352 0.368 0.0
H439 H 0.48841 0.60272 0.34536 0.0
H440 H 0.48779 0.62695 0.30424 0.0
H441 H 0.49295 0.60699 0.20333 0.0
H442 H 0.49382 0.58281 0.24431 0.0
H443 H 0.51887 0.60186 0.19779 0.0
H444 H 0.59989 0.65109 0.34176 0.0
H445 H 0.59266 0.6158 0.40215 0.0
H446 H 0.5136 0.58006 0.35551 0.0
C447 C 0.53013 0.66284 0.23336 0.0
C448 C 0.54942 0.68703 0.22124 0.0
C449 C 0.57415 0.69452 0.24112 0.0
C450 C 0.57971 0.67835 0.27151 0.0
C451 C 0.56037 0.65468 0.28216 0.0
C452 C 0.53604 0.64692 0.26423 0.0
C453 C 0.51872 0.6209 0.28456 0.0
C454 C 0.50015 0.62149 0.32814 0.0
C455 C 0.5053 0.60202 0.22919 0.0
C456 C 0.53713 0.61553 0.31763 0.0
C457 C 0.56105 0.63526 0.31489 0.0
C458 C 0.58128 0.63546 0.34395 0.0
C459 C 0.57696 0.61531 0.37819 0.0
C460 C 0.5526 0.59513 0.38332 0.0
C461 C 0.53245 0.59499 0.35145 0.0
H462 H 0.85713 0.52335 0.31294 0.0
H463 H 0.82217 0.44343 0.26359 0.0
H464 H 0.84586 0.43927 0.34959 0.0
H465 H 0.91609 0.53256 0.34196 0.0
H466 H 0.92472 0.55607 0.40429 0.0
H467 H 0.90187 0.5518 0.34585 0.0
H468 H 0.87088 0.54498 0.42898 0.0
H469 H 0.89362 0.54875 0.48763 0.0
H470 H 0.86352 0.52079 0.48083 0.0
H471 H 0.87667 0.44431 0.43065 0.0
H472 H 0.91551 0.45891 0.49338 0.0
H473 H 0.93135 0.53559 0.4903 0.0
C474 C 0.85432 0.50492 0.3203 0.0
C475 C 0.83761 0.48368 0.28158 0.0
C476 C 0.83446 0.45991 0.29321 0.0
C477 C 0.84779 0.45734 0.34211 0.0
C478 C 0.86412 0.47868 0.37923 0.0
C479 C 0.86758 0.50205 0.36868 0.0
C480 C 0.88839 0.52241 0.41055 0.0
C481 C 0.90898 0.54183 0.37345 0.0
C482 C 0.8785 0.53497 0.45462 0.0
C483 C 0.89694 0.50696 0.44427 0.0
C484 C 0.88221 0.48168 0.4266 0.0
C485 C 0.88797 0.46394 0.446 0.0
C486 C 0.91 0.47237 0.48173 0.0
C487 C 0.92602 0.49827 0.49734 0.0
C488 C 0.91888 0.51564 0.48081 0.0
H489 H 0.33495 0.85281 0.34519 0.0
H490 H 0.31805 0.90209 0.24519 0.0
H491 H 0.34904 0.93817 0.31163 0.0
H492 H 0.34937 0.88731 0.49683 0.0
H493 H 0.37477 0.88217 0.51509 0.0
H494 H 0.34871 0.8594 0.4658 0.0
H495 H 0.37829 0.8628 0.38174 0.0
H496 H 0.40437 0.88534 0.43096 0.0
H497 H 0.39934 0.89313 0.3558 0.0
H498 H 0.38432 0.96933 0.3802 0.0
H499 H 0.42372 0.99404 0.44248 0.0
H500 H 0.41949 0.9256 0.49734 0.0
C501 C 0.33763 0.87114 0.33724 0.0
C502 C 0.32368 0.87438 0.28998 0.0
C503 C 0.32788 0.89882 0.28178 0.0
C504 C 0.34556 0.91953 0.31928 0.0
C505 C 0.35902 0.91564 0.36492 0.0
C506 C 0.35541 0.89211 0.37394 0.0
C507 C 0.37402 0.89347 0.42249 0.0
C508 C 0.36093 0.87977 0.47837 0.0
C509 C 0.38994 0.88308 0.39615 0.0
C510 C 0.3892 0.92157 0.43776 0.0
C511 C 0.37983 0.93388 0.40471 0.0
C512 C 0.39157 0.95992 0.4071 0.0
C513 C 0.41388 0.97377 0.4426 0.0
C514 C 0.42421 0.96163 0.4753 0.0
C515 C 0.41147 0.93522 0.47416 0.0
H516 H 0.42971 0.33085 0.37315 0.0
H517 H 0.47344 0.36688 0.22142 0.0
H518 H 0.48148 0.40813 0.26597 0.0
H519 H 0.40379 0.37477 0.39622 0.0
H520 H 0.4054 0.3732 0.47786 0.0
H521 H 0.39927 0.34645 0.42772 0.0
H522 H 0.4366 0.34579 0.48095 0.0
H523 H 0.44297 0.37254 0.53066 0.0
H524 H 0.46682 0.37357 0.48456 0.0
H525 H 0.49182 0.44546 0.338 0.0
H526 H 0.50077 0.47539 0.42689 0.0
H527 H 0.44777 0.41449 0.52791 0.0
C528 C 0.44012 0.34738 0.34837 0.0
C529 C 0.45076 0.34598 0.29391 0.0
C530 C 0.46485 0.36781 0.26285 0.0
C531 C 0.46949 0.39121 0.28782 0.0
C532 C 0.45942 0.39219 0.343 0.0
C533 C 0.44454 0.37073 0.37214 0.0
C534 C 0.43789 0.37692 0.43355 0.0
C535 C 0.40992 0.36726 0.43382 0.0
C536 C 0.44661 0.36661 0.48544 0.0
C537 C 0.45257 0.40521 0.43616 0.0
C538 C 0.46468 0.41376 0.38339 0.0
C539 C 0.48179 0.43906 0.37875 0.0
C540 C 0.48683 0.45595 0.42963 0.0
C541 C 0.47475 0.44743 0.48426 0.0
C542 C 0.45696 0.42181 0.48652 0.0
H543 H 0.53976 0.87539 0.85014 0.0
H544 H 0.46239 0.83693 0.89345 0.0
H545 H 0.45648 0.86836 0.84263 0.0
H546 H 0.55078 0.93845 0.86567 0.0
H547 H 0.5697 0.94848 0.80109 0.0
H548 H 0.56852 0.92385 0.84421 0.0
H549 H 0.55505 0.89424 0.74548 0.0
H550 H 0.55642 0.91884 0.70201 0.0
H551 H 0.52827 0.88887 0.69903 0.0
H552 H 0.45872 0.90384 0.78723 0.0
H553 H 0.46782 0.93838 0.72206 0.0
H554 H 0.54287 0.95227 0.70792 0.0
C555 C 0.52147 0.87332 0.84859 0.0
C556 C 0.50165 0.85368 0.87688 0.0
C557 C 0.47813 0.85206 0.87387 0.0
C558 C 0.4745 0.86979 0.84471 0.0
C559 C 0.49447 0.88894 0.81795 0.0
C560 C 0.5174 0.89064 0.81883 0.0
C561 C 0.53542 0.91237 0.78385 0.0
C562 C 0.5574 0.93194 0.82625 0.0
C563 C 0.5443 0.90302 0.72936 0.0
C564 C 0.51895 0.92248 0.76279 0.0
C565 C 0.49551 0.90889 0.78381 0.0
C566 C 0.47701 0.9146 0.77048 0.0
C567 C 0.48243 0.93441 0.73366 0.0
C568 C 0.50609 0.94815 0.70988 0.0
C569 C 0.52462 0.94217 0.72533 0.0
H570 H 0.68068 0.54734 0.8927 0.0
H571 H 0.67485 0.48001 0.80533 0.0
H572 H 0.64613 0.47944 0.72399 0.0
H573 H 0.61912 0.52803 0.87484 0.0
H574 H 0.62301 0.5584 0.86238 0.0
H575 H 0.64663 0.55614 0.90551 0.0
H576 H 0.67914 0.58437 0.83158 0.0
H577 H 0.65539 0.58644 0.78774 0.0
H578 H 0.67395 0.57548 0.75073 0.0
H579 H 0.61425 0.4834 0.65967 0.0
H580 H 0.57873 0.48857 0.62682 0.0
H581 H 0.60494 0.55238 0.75866 0.0
C582 C 0.67391 0.53294 0.85538 0.0
C583 C 0.68004 0.51387 0.85466 0.0
C584 C 0.67027 0.49479 0.80639 0.0
C585 C 0.65421 0.49449 0.75975 0.0
C586 C 0.64818 0.51342 0.76218 0.0
C587 C 0.65767 0.53222 0.80907 0.0
C588 C 0.6457 0.54823 0.80654 0.0
C589 C 0.63285 0.54763 0.86579 0.0
C590 C 0.66468 0.57523 0.79334 0.0
C591 C 0.62716 0.53482 0.75275 0.0
C592 C 0.62933 0.51527 0.72635 0.0
C593 C 0.61266 0.49893 0.67921 0.0
C594 C 0.59265 0.50203 0.66059 0.0
C595 C 0.58943 0.52092 0.69025 0.0
C596 C 0.60736 0.53801 0.73496 0.0
H597 H 0.1136 0.66461 0.92122 0.0
H598 H 0.15158 0.62621 0.98466 0.0
H599 H 0.11882 0.58683 0.932 0.0
H600 H 0.04955 0.61189 0.92189 0.0
H601 H 0.04006 0.61971 0.85186 0.0
H602 H 0.06417 0.64407 0.90284 0.0
H603 H 0.09393 0.65845 0.81474 0.0
H604 H 0.06989 0.63432 0.76357 0.0
H605 H 0.09948 0.63597 0.7733 0.0
H606 H 0.08428 0.55254 0.86528 0.0
H607 H 0.05301 0.5271 0.78237 0.0
H608 H 0.03899 0.58826 0.75612 0.0
C609 C 0.1151 0.64797 0.92442 0.0
C610 C 0.13524 0.64868 0.95791 0.0
C611 C 0.13614 0.62624 0.96088 0.0
C612 C 0.1176 0.6037 0.93087 0.0
C613 C 0.09827 0.60382 0.89777 0.0
C614 C 0.09698 0.6254 0.89397 0.0
C615 C 0.07579 0.62112 0.85004 0.0
C616 C 0.05623 0.62439 0.88369 0.0
C617 C 0.08535 0.63849 0.7973 0.0
C618 C 0.06591 0.59397 0.82807 0.0
C619 C 0.07875 0.58419 0.85735 0.0
C620 C 0.07391 0.55992 0.84254 0.0
C621 C 0.05601 0.54554 0.79525 0.0
C622 C 0.04346 0.55556 0.76243 0.0
C623 C 0.04806 0.5799 0.78048 0.0
H624 H 0.48935 0.15845 0.968 0.0
H625 H 0.4724 0.12379 0.14013 0.0
H626 H 0.47052 0.08576 0.09107 0.0
H627 H 0.44719 0.10592 0.87917 0.0
H628 H 0.46586 0.11179 0.81431 0.0
H629 H 0.47012 0.13755 0.86509 0.0
H630 H 0.51677 0.15206 0.88381 0.0
H631 H 0.51273 0.12649 0.8323 0.0
H632 H 0.52573 0.13019 0.90913 0.0
H633 H 0.4677 0.05033 0.01976 0.0
H634 H 0.46217 0.02048 0.93218 0.0
H635 H 0.47808 0.0785 0.80817 0.0
C636 C 0.48606 0.14316 0.99571 0.0
C637 C 0.4814 0.14401 0.05774 0.0
C638 C 0.47622 0.12338 0.09243 0.0
C639 C 0.4752 0.10182 0.06505 0.0
C640 C 0.47924 0.10129 0.00305 0.0
C641 C 0.48457 0.12148 0.96894 0.0
C642 C 0.48557 0.11547 0.90208 0.0
C643 C 0.46601 0.11781 0.86291 0.0
C644 C 0.51176 0.13203 0.88059 0.0
C645 C 0.47929 0.08854 0.90345 0.0
C646 C 0.47623 0.08072 0.96203 0.0
C647 C 0.47011 0.0563 0.97371 0.0
C648 C 0.46694 0.03949 0.92397 0.0
C649 C 0.46928 0.04718 0.86375 0.0
C650 C 0.47572 0.07202 0.85378 0.0
H651 H 0.38953 0.52906 0.02027 0.0
H652 H 0.32644 0.5024 0.88946 0.0
H653 H 0.35216 0.50261 0.80635 0.0
H654 H 0.43754 0.56948 0.91686 0.0
H655 H 0.4598 0.56149 0.94624 0.0
H656 H 0.43726 0.56182 0.99512 0.0
H657 H 0.42251 0.51592 0.01867 0.0
H658 H 0.44502 0.5155 0.97012 0.0
H659 H 0.4127 0.49218 0.95639 0.0
H660 H 0.38306 0.50169 0.7389 0.0
H661 H 0.41723 0.4991 0.69191 0.0
H662 H 0.46117 0.5271 0.8643 0.0
C663 C 0.38133 0.52377 0.97392 0.0
C664 C 0.35593 0.51564 0.96142 0.0
C665 C 0.34577 0.50845 0.90027 0.0
C666 C 0.36028 0.50869 0.85262 0.0
C667 C 0.38508 0.51631 0.86647 0.0
C668 C 0.39562 0.5238 0.92552 0.0
C669 C 0.4223 0.52942 0.92822 0.0
C670 C 0.44029 0.55721 0.94777 0.0
C671 C 0.42583 0.51223 0.97086 0.0
C672 C 0.42482 0.52328 0.86187 0.0
C673 C 0.40316 0.516 0.82701 0.0
C674 C 0.40025 0.50772 0.76549 0.0
C675 C 0.41975 0.50628 0.73917 0.0
C676 C 0.44196 0.51316 0.77416 0.0
C677 C 0.44467 0.52232 0.83598 0.0
H678 H 0.86991 0.35035 0.97876 0.0
H679 H 0.87766 0.28503 0.94083 0.0
H680 H 0.91567 0.31081 0.888 0.0
H681 H 0.88914 0.37654 0.83609 0.0
H682 H 0.90556 0.4086 0.86786 0.0
H683 H 0.87972 0.38525 0.90551 0.0
H684 H 0.90766 0.39684 0.00531 0.0
H685 H 0.93366 0.42007 0.96764 0.0
H686 H 0.936 0.39576 0.00429 0.0
H687 H 0.95092 0.34262 0.83341 0.0
H688 H 0.98097 0.37852 0.7791 0.0
H689 H 0.95142 0.42376 0.85451 0.0
C690 C 0.87962 0.3415 0.95929 0.0
C691 C 0.87089 0.31569 0.96412 0.0
C692 C 0.8842 0.30482 0.93839 0.0
C693 C 0.90578 0.3193 0.90824 0.0
C694 C 0.91396 0.34468 0.90455 0.0
C695 C 0.90134 0.35574 0.92935 0.0
C696 C 0.9137 0.38324 0.91716 0.0
C697 C 0.89598 0.38872 0.8794 0.0
C698 C 0.92333 0.39996 0.97719 0.0
C699 C 0.93492 0.38575 0.88049 0.0
C700 C 0.93476 0.36328 0.87405 0.0
C701 C 0.95147 0.36041 0.83879 0.0
C702 C 0.96846 0.38089 0.80816 0.0
C703 C 0.96873 0.40397 0.81331 0.0
C704 C 0.95206 0.40653 0.85103 0.0
H705 H 0.88117 0.51274 0.93841 0.0
H706 H 0.81956 0.4791 0.80193 0.0
H707 H 0.84674 0.47587 0.72642 0.0
H708 H 0.92984 0.54842 0.83712 0.0
H709 H 0.95198 0.54246 0.87632 0.0
H710 H 0.92803 0.54365 0.91756 0.0
H711 H 0.91363 0.49922 0.95311 0.0
H712 H 0.93759 0.49799 0.91226 0.0
H713 H 0.90572 0.47368 0.89686 0.0
H714 H 0.88158 0.47612 0.6656 0.0
H715 H 0.91908 0.4761 0.6302 0.0
H716 H 0.9563 0.50797 0.80903 0.0
C717 C 0.87349 0.50499 0.8924 0.0
C718 C 0.84833 0.49632 0.87586 0.0
C719 C 0.83881 0.48579 0.81555 0.0
C720 C 0.85415 0.48404 0.77228 0.0
C721 C 0.87893 0.49272 0.79013 0.0
C722 C 0.88842 0.50279 0.84905 0.0
C723 C 0.91514 0.5093 0.85829 0.0
C724 C 0.93225 0.53764 0.87319 0.0
C725 C 0.91818 0.49414 0.90805 0.0
C726 C 0.9192 0.50115 0.79571 0.0
C727 C 0.89834 0.49198 0.75642 0.0
C728 C 0.898 0.48324 0.69616 0.0
C729 C 0.91936 0.48338 0.67627 0.0
C730 C 0.94048 0.4918 0.71698 0.0
C731 C 0.94035 0.50115 0.77693 0.0
H732 H 0.3419 0.84856 0.90675 0.0
H733 H 0.28354 0.86665 0.8767 0.0
H734 H 0.3069 0.89408 0.79738 0.0
H735 H 0.39062 0.91099 0.89951 0.0
H736 H 0.41118 0.90237 0.86372 0.0
H737 H 0.3882 0.8812 0.91174 0.0
H738 H 0.37111 0.84652 0.82274 0.0
H739 H 0.39386 0.86787 0.77422 0.0
H740 H 0.36136 0.85241 0.75028 0.0
H741 H 0.3371 0.92127 0.7248 0.0
H742 H 0.37483 0.9516 0.67758 0.0
H743 H 0.41525 0.91893 0.76029 0.0
C744 C 0.33391 0.85822 0.88378 0.0
C745 C 0.31037 0.85468 0.89762 0.0
C746 C 0.30095 0.86801 0.8659 0.0
C747 C 0.31416 0.88381 0.82064 0.0
C748 C 0.33704 0.88657 0.80783 0.0
C749 C 0.34709 0.87454 0.83925 0.0
C750 C 0.37328 0.88301 0.82155 0.0
C751 C 0.39191 0.89512 0.87744 0.0
C752 C 0.37499 0.86114 0.79033 0.0
C753 C 0.37655 0.90216 0.77657 0.0
C754 C 0.35516 0.90339 0.76808 0.0
C755 C 0.35395 0.92043 0.73084 0.0
C756 C 0.3755 0.93754 0.70391 0.0
C757 C 0.39812 0.9378 0.71533 0.0
C758 C 0.39828 0.91918 0.75028 0.0
H759 H 0.45663 0.33678 0.96838 0.0
H760 H 0.53044 0.37658 0.05976 0.0
H761 H 0.5381 0.41514 0.01398 0.0
H762 H 0.47584 0.36648 0.82709 0.0
H763 H 0.44761 0.36714 0.81198 0.0
H764 H 0.44721 0.34291 0.85524 0.0
H765 H 0.42791 0.35522 0.94364 0.0
H766 H 0.42852 0.37969 0.90092 0.0
H767 H 0.44354 0.38711 0.97659 0.0
H768 H 0.53784 0.4496 0.95986 0.0
H769 H 0.53169 0.47657 0.89088 0.0
H770 H 0.45959 0.41385 0.82709 0.0
C771 C 0.47454 0.35345 0.97844 0.0
C772 C 0.49272 0.3535 0.01888 0.0
C773 C 0.51581 0.37601 0.03069 0.0
C774 C 0.52046 0.39807 0.00455 0.0
C775 C 0.50203 0.39737 0.96575 0.0
C776 C 0.47971 0.37558 0.95181 0.0
C777 C 0.46361 0.37967 0.90597 0.0
C778 C 0.45826 0.36307 0.84655 0.0
C779 C 0.43947 0.37516 0.93345 0.0
C780 C 0.48046 0.40715 0.89624 0.0
C781 C 0.50236 0.41705 0.93199 0.0
C782 C 0.52081 0.44206 0.93146 0.0
C783 C 0.51705 0.45727 0.8923 0.0
C784 C 0.49515 0.44735 0.85344 0.0
C785 C 0.47653 0.42199 0.85612 0.0
H786 H 0.15616 0.46753 0.91811 0.0
H787 H 0.1882 0.54783 0.9569 0.0
H788 H 0.16268 0.5488 0.87089 0.0
H789 H 0.14715 0.46568 0.75049 0.0
H790 H 0.11751 0.4372 0.74724 0.0
H791 H 0.14103 0.44296 0.80584 0.0
H792 H 0.11063 0.43722 0.88977 0.0
H793 H 0.08699 0.43089 0.83139 0.0
H794 H 0.09547 0.45558 0.89054 0.0
H795 H 0.13161 0.54117 0.78929 0.0
H796 H 0.09237 0.52436 0.72687 0.0
H797 H 0.07875 0.44882 0.74114 0.0
C798 C 0.15788 0.48534 0.9085 0.0
C799 C 0.17463 0.50769 0.94372 0.0
C800 C 0.17612 0.53056 0.9296 0.0
C801 C 0.16172 0.53133 0.88068 0.0
C802 C 0.14574 0.50908 0.84638 0.0
C803 C 0.14339 0.48642 0.86013 0.0
C804 C 0.12259 0.46486 0.82076 0.0
C805 C 0.13268 0.45192 0.77858 0.0
C806 C 0.10275 0.44605 0.86048 0.0
C807 C 0.11298 0.4789 0.78457 0.0
C808 C 0.12714 0.50448 0.79901 0.0
C809 C 0.12067 0.52127 0.77654 0.0
C810 C 0.09845 0.51159 0.74097 0.0
C811 C 0.08302 0.48543 0.72853 0.0
C812 C 0.0908 0.46893 0.74829 0.0
H813 H 0.64207 0.11782 0.97943 0.0
H814 H 0.68026 0.17302 0.84849 0.0
H815 H 0.64995 0.14445 0.76628 0.0
H816 H 0.6254 0.06231 0.87626 0.0
H817 H 0.59563 0.04406 0.90734 0.0
H818 H 0.62133 0.06821 0.95505 0.0
H819 H 0.59527 0.08916 0.98094 0.0
H820 H 0.56953 0.06507 0.93351 0.0
H821 H 0.58153 0.09755 0.91972 0.0
H822 H 0.61377 0.11077 0.69925 0.0
H823 H 0.57415 0.07523 0.65448 0.0
H824 H 0.56062 0.04183 0.82876 0.0
C825 C 0.6443 0.12372 0.9333 0.0
C826 C 0.66348 0.14769 0.9205 0.0
C827 C 0.6655 0.15487 0.8596 0.0
C828 C 0.6485 0.1387 0.81245 0.0
C829 C 0.62965 0.11531 0.82674 0.0
C830 C 0.62749 0.10782 0.88568 0.0
C831 C 0.60483 0.08225 0.88955 0.0
C832 C 0.61225 0.06308 0.90814 0.0
C833 C 0.58673 0.08361 0.93351 0.0
C834 C 0.59435 0.07677 0.82392 0.0
C835 C 0.60901 0.09591 0.78815 0.0
C836 C 0.60232 0.09549 0.72666 0.0
C837 C 0.57985 0.07515 0.70144 0.0
C838 C 0.56434 0.05557 0.73772 0.0
C839 C 0.57206 0.05636 0.79947 0.0
H840 H 0.55965 0.69166 0.83782 0.0
H841 H 0.53428 0.65231 0.00251 0.0
H842 H 0.54225 0.61937 0.96058 0.0
H843 H 0.53309 0.64087 0.73583 0.0
H844 H 0.55808 0.65218 0.68524 0.0
H845 H 0.55357 0.67408 0.73191 0.0
H846 H 0.59885 0.69453 0.77789 0.0
H847 H 0.60346 0.6725 0.73133 0.0
H848 H 0.60931 0.67537 0.81306 0.0
H849 H 0.54686 0.58798 0.89447 0.0
H850 H 0.54755 0.56079 0.80922 0.0
H851 H 0.57291 0.62222 0.69164 0.0
C852 C 0.55653 0.6766 0.86613 0.0
C853 C 0.5463 0.67459 0.92341 0.0
C854 C 0.54176 0.65408 0.95802 0.0
C855 C 0.54657 0.63546 0.935 0.0
C856 C 0.55638 0.6379 0.87796 0.0
C857 C 0.56156 0.65812 0.8443 0.0
C858 C 0.56992 0.65533 0.78204 0.0
C859 C 0.55263 0.65562 0.73079 0.0
C860 C 0.597 0.67564 0.77574 0.0
C861 C 0.56742 0.62977 0.78462 0.0
C862 C 0.55992 0.62013 0.84062 0.0
C863 C 0.55334 0.59554 0.85101 0.0
C864 C 0.55363 0.58018 0.80229 0.0
C865 C 0.56049 0.58956 0.74427 0.0
C866 C 0.56839 0.61489 0.73618 0.0
H867 H 0.44805 0.14214 0.40729 0.0
H868 H 0.50283 0.15383 0.27606 0.0
H869 H 0.50881 0.12102 0.31959 0.0
H870 H 0.47739 0.1317 0.53242 0.0
H871 H 0.44918 0.1075 0.56075 0.0
H872 H 0.4486 0.13131 0.5178 0.0
H873 H 0.4149 0.09701 0.44116 0.0
H874 H 0.41536 0.07307 0.48402 0.0
H875 H 0.42061 0.0739 0.4037 0.0
H876 H 0.51097 0.08893 0.3826 0.0
H877 H 0.50771 0.05896 0.45721 0.0
H878 H 0.4495 0.06639 0.54191 0.0
C879 C 0.46101 0.13756 0.38697 0.0
C880 C 0.47517 0.15086 0.33871 0.0
C881 C 0.49217 0.14438 0.31404 0.0
C882 C 0.49554 0.12558 0.33804 0.0
C883 C 0.48154 0.11313 0.38616 0.0
C884 C 0.46443 0.11868 0.40992 0.0
C885 C 0.45204 0.10283 0.4623 0.0
C886 C 0.45712 0.11933 0.52182 0.0
C887 C 0.42407 0.08568 0.44684 0.0
C888 C 0.46519 0.08786 0.46502 0.0
C889 C 0.48213 0.09402 0.42078 0.0
C890 C 0.49745 0.08362 0.4168 0.0
C891 C 0.49543 0.06654 0.45938 0.0
C892 C 0.47809 0.0599 0.50503 0.0
C893 C 0.46269 0.07065 0.50713 0.0
H894 H 0.35087 0.48899 0.3679 0.0
H895 H 0.37704 0.56877 0.39479 0.0
H896 H 0.40641 0.57263 0.47747 0.0
H897 H 0.3621 0.47765 0.52781 0.0
H898 H 0.3734 0.45719 0.50247 0.0
H899 H 0.35006 0.45903 0.45615 0.0
H900 H 0.37787 0.47043 0.36398 0.0
H901 H 0.40086 0.46807 0.40966 0.0
H902 H 0.40914 0.49657 0.37341 0.0
H903 H 0.43651 0.56941 0.54744 0.0
H904 H 0.46939 0.561 0.58393 0.0
H905 H 0.42669 0.48479 0.50396 0.0
C906 C 0.36261 0.50732 0.39114 0.0
C907 C 0.36121 0.52847 0.37489 0.0
C908 C 0.37703 0.55202 0.4072 0.0
C909 C 0.39384 0.55444 0.45451 0.0
C910 C 0.39482 0.53323 0.46885 0.0
C911 C 0.37989 0.51019 0.43736 0.0
C912 C 0.38744 0.49134 0.45384 0.0
C913 C 0.36703 0.47005 0.48705 0.0
C914 C 0.39425 0.48103 0.39687 0.0
C915 C 0.40987 0.50779 0.49682 0.0
C916 C 0.41317 0.53159 0.5071 0.0
C917 C 0.43389 0.55073 0.54083 0.0
C918 C 0.45237 0.54581 0.5617 0.0
C919 C 0.45005 0.52218 0.54738 0.0
C920 C 0.42827 0.50273 0.51673 0.0
H921 H 0.8633 0.36218 0.30191 0.0
H922 H 0.89693 0.31894 0.23986 0.0
H923 H 0.93727 0.35157 0.28824 0.0
H924 H 0.9196 0.42638 0.29035 0.0
H925 H 0.91322 0.43874 0.3591 0.0
H926 H 0.88803 0.41454 0.31015 0.0
H927 H 0.87178 0.3868 0.40133 0.0
H928 H 0.89669 0.4109 0.45043 0.0
H929 H 0.89233 0.37971 0.44435 0.0
H930 H 0.97135 0.38422 0.35636 0.0
H931 H 0.99674 0.41432 0.44272 0.0
H932 H 0.94224 0.43791 0.45884 0.0
C933 C 0.87937 0.36003 0.297 0.0
C934 C 0.87709 0.33811 0.26723 0.0
C935 C 0.8983 0.33553 0.26296 0.0
C936 C 0.92132 0.35409 0.28963 0.0
C937 C 0.92288 0.37524 0.31991 0.0
C938 C 0.90252 0.37842 0.32354 0.0
C939 C 0.90852 0.40134 0.36511 0.0
C940 C 0.90727 0.42144 0.32899 0.0
C941 C 0.89132 0.39425 0.41846 0.0
C942 C 0.93497 0.40967 0.38686 0.0
C943 C 0.94304 0.39464 0.35915 0.0
C944 C 0.96558 0.39657 0.3772 0.0
C945 C 0.97984 0.41364 0.42629 0.0
C946 C 0.97154 0.42858 0.45648 0.0
C947 C 0.94932 0.42724 0.43505 0.0
H948 H 0.50176 0.87302 0.18947 0.0
H949 H 0.58129 0.90586 0.17948 0.0
H950 H 0.58765 0.94578 0.22689 0.0
H951 H 0.49918 0.93162 0.16761 0.0
H952 H 0.4758 0.92368 0.22205 0.0
H953 H 0.47702 0.8992 0.17678 0.0
H954 H 0.47991 0.87911 0.27544 0.0
H955 H 0.47849 0.90333 0.3207 0.0
H956 H 0.50405 0.89792 0.33387 0.0
H957 H 0.58615 0.97899 0.29039 0.0
H958 H 0.57671 0.00285 0.36803 0.0
H959 H 0.49833 0.94943 0.3365 0.0
C960 C 0.52049 0.88874 0.19648 0.0
C961 C 0.54102 0.88637 0.18049 0.0
C962 C 0.56524 0.90735 0.19034 0.0
C963 C 0.56905 0.93013 0.21719 0.0
C964 C 0.54844 0.9317 0.23338 0.0
C965 C 0.52461 0.9116 0.22324 0.0
C966 C 0.5059 0.91726 0.25118 0.0
C967 C 0.48845 0.91799 0.20142 0.0
C968 C 0.49125 0.89829 0.29809 0.0
C969 C 0.52309 0.94314 0.28163 0.0
C970 C 0.54752 0.95133 0.26964 0.0
C971 C 0.56708 0.97321 0.29867 0.0
C972 C 0.56161 0.98662 0.34254 0.0
C973 C 0.53683 0.97816 0.35638 0.0
C974 C 0.5173 0.95665 0.32446 0.0
H975 H 0.68574 0.53838 0.28577 0.0
H976 H 0.63704 0.46084 0.21818 0.0
H977 H 0.60562 0.45787 0.28774 0.0
H978 H 0.66925 0.53083 0.44372 0.0
H979 H 0.67024 0.56047 0.45384 0.0
H980 H 0.68962 0.55657 0.40041 0.0
H981 H 0.67101 0.57034 0.31358 0.0
H982 H 0.65184 0.57459 0.3669 0.0
H983 H 0.63785 0.55428 0.29825 0.0
H984 H 0.57879 0.46338 0.36106 0.0
H985 H 0.55714 0.47785 0.42941 0.0
H986 H 0.62267 0.55183 0.45139 0.0
C987 C 0.66841 0.52082 0.28537 0.0
C988 C 0.66403 0.49975 0.24668 0.0
C989 C 0.64111 0.4771 0.24801 0.0
C990 C 0.62308 0.47522 0.28735 0.0
C991 C 0.62814 0.49615 0.3254 0.0
C992 C 0.65015 0.51858 0.3246 0.0
C993 C 0.65043 0.53844 0.36886 0.0
C994 C 0.67112 0.54708 0.41972 0.0
C995 C 0.65292 0.56072 0.33486 0.0
C996 C 0.62499 0.52374 0.39389 0.0
C997 C 0.61258 0.49933 0.36839 0.0
C998 C 0.58839 0.48238 0.38174 0.0
C999 C 0.57626 0.49077 0.42076 0.0
C1000 C 0.58829 0.51587 0.44633 0.0
C1001 C 0.61321 0.53239 0.43374 0.0
H1002 H 0.13533 0.68637 0.345 0.0
H1003 H 0.11085 0.65623 0.15724 0.0
H1004 H 0.07475 0.61888 0.19284 0.0
H1005 H 0.11939 0.62893 0.40788 0.0
H1006 H 0.10905 0.63609 0.47778 0.0
H1007 H 0.13215 0.66106 0.43729 0.0
H1008 H 0.10478 0.68168 0.43272 0.0
H1009 H 0.08155 0.65671 0.47315 0.0
H1010 H 0.07335 0.66368 0.4002 0.0
H1011 H 0.04351 0.58326 0.24904 0.0
H1012 H 0.01815 0.55267 0.32217 0.0
H1013 H 0.06175 0.6068 0.47304 0.0
C1014 C 0.12224 0.67196 0.31149 0.0
C1015 C 0.12574 0.67419 0.24842 0.0
C1016 C 0.10826 0.65501 0.20577 0.0
C1017 C 0.08777 0.63371 0.22553 0.0
C1018 C 0.08489 0.63201 0.28805 0.0
C1019 C 0.10151 0.6507 0.33041 0.0
C1020 C 0.09441 0.64398 0.39499 0.0
C1021 C 0.11497 0.64242 0.43161 0.0
C1022 C 0.08814 0.66262 0.42714 0.0
C1023 C 0.07151 0.61838 0.38234 0.0
C1024 C 0.06636 0.61179 0.32037 0.0
C1025 C 0.0471 0.58835 0.29766 0.0
C1026 C 0.03285 0.5711 0.33946 0.0
C1027 C 0.03778 0.57751 0.40312 0.0
C1028 C 0.05718 0.60159 0.42459 0.0
loop_
_geom_bond_atom_site_label_1
_geom_bond_atom_site_label_2
_geom_bond_distance
_geom_bond_site_symmetry_2
_ccdc_geom_bond_type
H0 C19 0.949 . S
H1 C20 0.950 . S
H2 C22 0.950 . S
H3 C23 0.950 . S
H4 C25 0.950 . S
H5 C28 0.950 . S
H6 C29 0.950 . S
H7 C31 0.951 1_556 S
H8 C32 0.949 . S
H9 C34 0.949 . S
H10 C35 0.953 . S
H11 C37 0.950 . S
H12 C38 0.950 . S
H13 C40 0.950 . S
H14 C43 0.950 . S
H15 C44 0.950 . S
H16 C46 0.951 . S
H17 C47 0.949 . S
C18 C19 1.376 . S
C18 C23 1.386 . S
C18 C24 1.483 . S
C19 H0 0.949 . S
C19 C18 1.376 . S
C19 C20 1.397 . S
C20 H1 0.950 . S
C20 C19 1.397 . S
C20 C21 1.391 . S
C21 C20 1.391 . S
C21 C22 1.405 . S
C22 H2 0.950 . S
C22 C21 1.405 . S
C22 C23 1.367 . S
C23 H3 0.950 . S
C23 C18 1.386 . S
C23 C22 1.367 . S
C24 C18 1.483 . S
C24 C25 1.382 . S
C24 C26 1.403 . S
C25 H4 0.950 . S
C25 C24 1.382 . S
C25 C41 1.411 . S
C26 C24 1.403 . S
C26 C27 1.489 . S
C26 C40 1.411 . S
C27 C26 1.489 . S
C27 C28 1.383 . S
C27 C32 1.382 . S
C28 H5 0.950 . S
C28 C27 1.383 . S
C28 C29 1.395 . S
C29 H6 0.950 . S
C29 C28 1.395 . S
C29 C30 1.288 . S
C30 C29 1.288 . S
C30 C31 1.392 . S
C31 H7 0.951 1_554 S
C31 C30 1.392 . S
C31 C32 1.392 . S
C32 H8 0.949 . S
C32 C27 1.382 . S
C32 C31 1.392 . S
C33 C34 1.376 . S
C33 C38 1.386 . S
C33 C39 1.483 . S
C34 H9 0.949 . S
C34 C33 1.376 . S
C34 C35 1.397 . S
C35 H10 0.953 . S
C35 C34 1.397 . S
C35 C36 1.391 . S
C36 C35 1.391 . S
C36 C37 1.405 . S
C37 H11 0.950 . S
C37 C36 1.405 . S
C37 C38 1.367 . S
C38 H12 0.950 . S
C38 C33 1.386 . S
C38 C37 1.367 . S
C39 C33 1.483 . S
C39 C40 1.382 . S
C39 C41 1.403 . S
C40 H13 0.950 . S
C40 C26 1.411 . S
C40 C39 1.382 . S
C41 C25 1.411 . S
C41 C39 1.403 . S
C41 C42 1.489 . S
C42 C41 1.489 . S
C42 C43 1.383 . S
C42 C47 1.382 . S
C43 H14 0.950 . S
C43 C42 1.383 . S
C43 C44 1.395 . S
C44 H15 0.950 . S
C44 C43 1.395 . S
C44 C45 1.288 . S
C45 C44 1.288 . S
C45 C46 1.392 . S
C46 H16 0.951 . S
C46 C45 1.392 . S
C46 C47 1.392 . S
C47 H17 0.949 . S
C47 C42 1.382 . S
C47 C46 1.392 . S
H48 C67 0.949 . S
H49 C68 0.950 . S
H50 C70 0.950 . S
H51 C71 0.950 . S
H52 C73 0.950 . S
H53 C76 0.950 . S
H54 C77 0.950 . S
H55 C79 0.951 . S
H56 C80 0.949 . S
H57 C82 0.949 . S
H58 C83 0.950 . S
H59 C85 0.950 . S
H60 C86 0.950 . S
H61 C88 0.950 . S
H62 C91 0.950 . S
H63 C92 0.950 . S
H64 C94 0.951 . S
H65 C95 0.949 . S
C66 C67 1.376 . S
C66 C71 1.386 . S
C66 C72 1.483 . S
C67 H48 0.949 . S
C67 C66 1.376 . S
C67 C68 1.397 1_554 S
C68 H49 0.950 . S
C68 C67 1.397 1_556 S
C68 C69 1.391 . S
C69 C68 1.391 . S
C69 C70 1.399 1_556 S
C70 H50 0.950 . S
C70 C69 1.399 1_554 S
C70 C71 1.367 . S
C71 H51 0.950 . S
C71 C66 1.386 . S
C71 C70 1.367 . S
C72 C66 1.483 . S
C72 C73 1.382 . S
C72 C74 1.403 . S
C73 H52 0.950 . S
C73 C72 1.382 . S
C73 C89 1.411 . S
C74 C72 1.403 . S
C74 C75 1.489 . S
C74 C88 1.411 . S
C75 C74 1.489 . S
C75 C76 1.383 . S
C75 C80 1.382 . S
C76 H53 0.950 . S
C76 C75 1.383 . S
C76 C77 1.395 . S
C77 H54 0.950 . S
C77 C76 1.395 . S
C77 C78 1.288 . S
C78 C77 1.288 . S
C78 C79 1.392 . S
C79 H55 0.951 . S
C79 C78 1.392 . S
C79 C80 1.392 . S
C80 H56 0.949 . S
C80 C75 1.382 . S
C80 C79 1.392 . S
C81 C82 1.376 . S
C81 C86 1.386 . S
C81 C87 1.483 . S
C82 H57 0.949 . S
C82 C81 1.376 . S
C82 C83 1.397 . S
C83 H58 0.950 . S
C83 C82 1.397 . S
C83 C84 1.391 . S
C84 C83 1.391 . S
C84 C85 1.405 . S
C85 H59 0.950 . S
C85 C84 1.405 . S
C85 C86 1.367 . S
C86 H60 0.950 . S
C86 C81 1.386 . S
C86 C85 1.367 . S
C87 C81 1.483 . S
C87 C88 1.382 . S
C87 C89 1.403 . S
C88 H61 0.950 . S
C88 C74 1.411 . S
C88 C87 1.382 . S
C89 C73 1.411 . S
C89 C87 1.403 . S
C89 C90 1.489 . S
C90 C89 1.489 . S
C90 C91 1.383 . S
C90 C95 1.382 . S
C91 H62 0.950 . S
C91 C90 1.383 . S
C91 C92 1.395 . S
C92 H63 0.950 . S
C92 C91 1.395 . S
C92 C93 1.288 1_554 S
C93 C92 1.288 1_556 S
C93 C94 1.392 . S
C94 H64 0.951 . S
C94 C93 1.392 . S
C94 C95 1.392 1_556 S
C95 H65 0.949 . S
C95 C90 1.382 . S
C95 C94 1.392 1_554 S
H96 C115 0.949 . S
H97 C116 0.950 . S
H98 C118 0.950 . S
H99 C119 0.950 . S
H100 C121 0.950 . S
H101 C124 0.950 . S
H102 C125 0.950 . S
H103 C127 0.951 . S
H104 C128 0.949 . S
H105 C130 0.949 . S
H106 C131 0.950 . S
H107 C133 0.950 . S
H108 C134 0.950 . S
H109 C136 0.950 . S
H110 C139 0.950 . S
H111 C140 0.950 . S
H112 C142 0.951 . S
H113 C143 0.949 . S
C114 C115 1.376 . S
C114 C119 1.386 . S
C114 C120 1.483 . S
C115 H96 0.949 . S
C115 C114 1.376 . S
C115 C116 1.397 . S
C116 H97 0.950 . S
C116 C115 1.397 . S
C116 C117 1.391 . S
C117 C116 1.391 . S
C117 C118 1.405 . S
C118 H98 0.950 . S
C118 C117 1.405 . S
C118 C119 1.367 . S
C119 H99 0.950 . S
C119 C114 1.386 . S
C119 C118 1.367 . S
C120 C114 1.483 . S
C120 C121 1.382 . S
C120 C122 1.403 1_556 S
C121 H100 0.950 . S
C121 C120 1.382 . S
C121 C137 1.411 . S
C122 C120 1.403 1_554 S
C122 C123 1.489 . S
C122 C136 1.411 . S
C123 C122 1.489 . S
C123 C124 1.383 . S
C123 C128 1.382 . S
C124 H101 0.950 . S
C124 C123 1.383 . S
C124 C125 1.395 . S
C125 H102 0.950 . S
C125 C124 1.395 . S
C125 C126 1.288 . S
C126 C125 1.288 . S
C126 C127 1.392 . S
C127 H103 0.951 . S
C127 C126 1.392 . S
C127 C128 1.392 . S
C128 H104 0.949 . S
C128 C123 1.382 . S
C128 C127 1.392 . S
C129 C130 1.376 . S
C129 C134 1.386 . S
C129 C135 1.483 . S
C130 H105 0.949 . S
C130 C129 1.376 . S
C130 C131 1.397 . S
C131 H106 0.950 . S
C131 C130 1.397 . S
C131 C132 1.391 . S
C132 C131 1.391 . S
C132 C133 1.405 . S
C133 H107 0.950 . S
C133 C132 1.405 . S
C133 C134 1.367 . S
C134 H108 0.950 . S
C134 C129 1.386 . S
C134 C133 1.367 . S
C135 C129 1.483 . S
C135 C136 1.382 . S
C135 C137 1.403 1_554 S
C136 H109 0.950 . S
C136 C122 1.411 . S
C136 C135 1.382 . S
C137 C121 1.411 . S
C137 C135 1.403 1_556 S
C137 C138 1.489 . S
C138 C137 1.489 . S
C138 C139 1.383 . S
C138 C143 1.382 . S
C139 H110 0.950 . S
C139 C138 1.383 . S
C139 C140 1.395 . S
C140 H111 0.950 . S
C140 C139 1.395 . S
C140 C141 1.288 . S
C141 C140 1.288 . S
C141 C142 1.392 . S
C142 H112 0.951 . S
C142 C141 1.392 . S
C142 C143 1.392 . S
C143 H113 0.949 . S
C143 C138 1.382 . S
C143 C142 1.392 . S
H144 C163 0.949 . S
H145 C164 0.950 . S
H146 C166 0.950 . S
H147 C167 0.950 . S
H148 C169 0.950 . S
H149 C172 0.950 1_554 S
H150 C173 0.950 . S
H151 C175 0.951 . S
H152 C176 0.949 . S
H153 C178 0.949 . S
H154 C179 0.950 . S
H155 C181 0.950 . S
H156 C182 0.950 1_554 S
H157 C184 0.951 . S
H158 C187 0.950 . S
H159 C188 0.950 . S
H160 C190 0.951 . S
H161 C191 0.949 . S
C162 C163 1.376 . S
C162 C167 1.386 . S
C162 C168 1.483 . S
C163 H144 0.949 . S
C163 C162 1.376 . S
C163 C164 1.397 . S
C164 H145 0.950 . S
C164 C163 1.397 . S
C164 C165 1.391 . S
C165 C164 1.391 . S
C165 C166 1.405 . S
C166 H146 0.950 . S
C166 C165 1.405 . S
C166 C167 1.367 . S
C167 H147 0.950 . S
C167 C162 1.386 . S
C167 C166 1.367 . S
C168 C162 1.483 . S
C168 C169 1.382 . S
C168 C170 1.403 . S
C169 H148 0.950 . S
C169 C168 1.382 . S
C169 C185 1.411 . S
C170 C168 1.403 . S
C170 C171 1.489 1_554 S
C170 C184 1.411 1_554 S
C171 C170 1.489 1_556 S
C171 C172 1.383 . S
C171 C176 1.382 . S
C172 H149 0.950 1_556 S
C172 C171 1.383 . S
C172 C173 1.395 . S
C173 H150 0.950 . S
C173 C172 1.395 . S
C173 C174 1.288 . S
C174 C173 1.288 . S
C174 C175 1.392 . S
C175 H151 0.951 . S
C175 C174 1.392 . S
C175 C176 1.392 . S
C176 H152 0.949 . S
C176 C171 1.382 . S
C176 C175 1.392 . S
C177 C178 1.376 . S
C177 C182 1.386 . S
C177 C183 1.483 1_556 S
C178 H153 0.949 . S
C178 C177 1.376 . S
C178 C179 1.397 . S
C179 H154 0.950 . S
C179 C178 1.397 . S
C179 C180 1.391 . S
C180 C179 1.391 . S
C180 C181 1.405 . S
C181 H155 0.950 . S
C181 C180 1.405 . S
C181 C182 1.367 . S
C182 H156 0.950 1_556 S
C182 C177 1.386 . S
C182 C181 1.367 . S
C183 C177 1.483 1_554 S
C183 C184 1.381 1_554 S
C183 C185 1.403 . S
C184 H157 0.951 . S
C184 C170 1.411 1_556 S
C184 C183 1.381 1_556 S
C185 C169 1.411 . S
C185 C183 1.403 . S
C185 C186 1.489 . S
C186 C185 1.489 . S
C186 C187 1.383 . S
C186 C191 1.382 . S
C187 H158 0.950 . S
C187 C186 1.383 . S
C187 C188 1.395 . S
C188 H159 0.950 . S
C188 C187 1.395 . S
C188 C189 1.288 . S
C189 C188 1.288 . S
C189 C190 1.392 . S
C190 H160 0.951 . S
C190 C189 1.392 . S
C190 C191 1.392 . S
C191 H161 0.949 . S
C191 C186 1.382 . S
C191 C190 1.392 . S
H192 C211 0.949 . S
H193 C212 0.950 . S
H194 C214 0.950 . S
H195 C215 0.950 . S
H196 C217 0.950 1_556 S
H197 C220 0.950 . S
H198 C221 0.950 . S
H199 C223 0.951 . S
H200 C224 0.949 . S
H201 C226 0.949 . S
H202 C227 0.950 . S
H203 C229 0.950 . S
H204 C230 0.950 . S
H205 C232 0.950 . S
H206 C235 0.950 . S
H207 C236 0.950 . S
H208 C238 0.951 . S
H209 C239 0.949 . S
C210 C211 1.376 1_554 S
C210 C215 1.386 . S
C210 C216 1.483 . S
C211 H192 0.949 . S
C211 C210 1.376 1_556 S
C211 C212 1.397 . S
C212 H193 0.950 . S
C212 C211 1.397 . S
C212 C213 1.391 . S
C213 C212 1.391 . S
C213 C214 1.405 . S
C214 H194 0.950 . S
C214 C213 1.405 . S
C214 C215 1.367 1_556 S
C215 H195 0.950 . S
C215 C210 1.386 . S
C215 C214 1.367 1_554 S
C216 C210 1.483 . S
C216 C217 1.382 . S
C216 C218 1.403 . S
C217 H196 0.950 1_554 S
C217 C216 1.382 . S
C217 C233 1.411 . S
C218 C216 1.403 . S
C218 C219 1.489 . S
C218 C232 1.411 . S
C219 C218 1.489 . S
C219 C220 1.383 . S
C219 C224 1.382 . S
C220 H197 0.950 . S
C220 C219 1.383 . S
C220 C221 1.395 . S
C221 H198 0.950 . S
C221 C220 1.395 . S
C221 C222 1.288 . S
C222 C221 1.288 . S
C222 C223 1.392 . S
C223 H199 0.951 . S
C223 C222 1.392 . S
C223 C224 1.392 . S
C224 H200 0.949 . S
C224 C219 1.382 . S
C224 C223 1.392 . S
C225 C226 1.376 . S
C225 C230 1.386 . S
C225 C231 1.483 . S
C226 H201 0.949 . S
C226 C225 1.376 . S
C226 C227 1.397 . S
C227 H202 0.950 . S
C227 C226 1.397 . S
C227 C228 1.391 . S
C228 C227 1.391 . S
C228 C229 1.405 . S
C229 H203 0.950 . S
C229 C228 1.405 . S
C229 C230 1.367 . S
C230 H204 0.950 . S
C230 C225 1.386 . S
C230 C229 1.367 . S
C231 C225 1.483 . S
C231 C232 1.382 . S
C231 C233 1.403 . S
C232 H205 0.950 . S
C232 C218 1.411 . S
C232 C231 1.382 . S
C233 C217 1.411 . S
C233 C231 1.403 . S
C233 C234 1.489 . S
C234 C233 1.489 . S
C234 C235 1.383 . S
C234 C239 1.382 1_554 S
C235 H206 0.950 . S
C235 C234 1.383 . S
C235 C236 1.395 1_554 S
C236 H207 0.950 . S
C236 C235 1.395 1_556 S
C236 C237 1.288 . S
C237 C236 1.288 . S
C237 C238 1.392 . S
C238 H208 0.951 . S
C238 C237 1.392 . S
C238 C239 1.392 . S
C239 H209 0.949 . S
C239 C234 1.382 1_556 S
C239 C238 1.392 . S
H240 C259 0.949 . S
H241 C260 0.950 . S
H242 C262 0.950 . S
H243 C263 0.950 . S
H244 C265 0.950 . S
H245 C268 0.950 . S
H246 C269 0.950 . S
H247 C271 0.951 . S
H248 C272 0.949 . S
H249 C274 0.949 . S
H250 C275 0.950 . S
H251 C277 0.950 . S
H252 C278 0.950 . S
H253 C280 0.950 . S
H254 C283 0.950 . S
H255 C284 0.950 . S
H256 C286 0.951 . S
H257 C287 0.949 . S
C258 C259 1.376 . S
C258 C263 1.386 . S
C258 C264 1.483 . S
C259 H240 0.949 . S
C259 C258 1.376 . S
C259 C260 1.397 . S
C260 H241 0.950 . S
C260 C259 1.397 . S
C260 C261 1.391 . S
C261 C260 1.391 . S
C261 C262 1.405 . S
C262 H242 0.950 . S
C262 C261 1.405 . S
C262 C263 1.367 . S
C263 H243 0.950 . S
C263 C258 1.386 . S
C263 C262 1.367 . S
C264 C258 1.483 . S
C264 C265 1.382 . S
C264 C266 1.403 . S
C265 H244 0.950 . S
C265 C264 1.382 . S
C265 C281 1.411 . S
C266 C264 1.403 . S
C266 C267 1.489 . S
C266 C280 1.411 . S
C267 C266 1.489 . S
C267 C268 1.383 . S
C267 C272 1.382 . S
C268 H245 0.950 . S
C268 C267 1.383 . S
C268 C269 1.395 . S
C269 H246 0.950 . S
C269 C268 1.395 . S
C269 C270 1.288 . S
C270 C269 1.288 . S
C270 C271 1.392 . S
C271 H247 0.951 . S
C271 C270 1.392 . S
C271 C272 1.392 . S
C272 H248 0.949 . S
C272 C267 1.382 . S
C272 C271 1.392 . S
C273 C274 1.376 . S
C273 C278 1.386 . S
C273 C279 1.483 . S
C274 H249 0.949 . S
C274 C273 1.376 . S
C274 C275 1.397 . S
C275 H250 0.950 . S
C275 C274 1.397 . S
C275 C276 1.391 . S
C276 C275 1.391 . S
C276 C277 1.405 . S
C277 H251 0.950 . S
C277 C276 1.405 . S
C277 C278 1.367 . S
C278 H252 0.950 . S
C278 C273 1.386 . S
C278 C277 1.367 . S
C279 C273 1.483 . S
C279 C280 1.382 . S
C279 C281 1.403 . S
C280 H253 0.950 . S
C280 C266 1.411 . S
C280 C279 1.382 . S
C281 C265 1.411 . S
C281 C279 1.403 . S
C281 C282 1.489 . S
C282 C281 1.489 . S
C282 C283 1.383 . S
C282 C287 1.382 . S
C283 H254 0.950 . S
C283 C282 1.383 . S
C283 C284 1.395 . S
C284 H255 0.950 . S
C284 C283 1.395 . S
C284 C285 1.288 . S
C285 C284 1.288 . S
C285 C286 1.392 . S
C286 H256 0.951 . S
C286 C285 1.392 . S
C286 C287 1.392 . S
C287 H257 0.949 . S
C287 C282 1.382 . S
C287 C286 1.392 . S
C288 O300 1.241 . S
C288 O301 1.280 . S
C289 O302 1.277 . S
C289 O303 1.245 . S
C290 O314 1.247 . S
C290 O316 1.289 . S
Mg291 O292 1.926 . S
Mg291 O301 1.984 . S
Mg291 O303 1.988 1_655 S
Mg291 O304 2.061 . S
O292 Mg291 1.926 . S
O292 Mg293 1.986 1_655 S
O292 Mg294 1.917 1_655 S
Mg293 O292 1.986 1_455 S
Mg293 O300 2.042 1_455 S
Mg293 O302 2.041 . S
Mg293 O308 2.038 1_455 S
Mg293 O316 2.238 . S
Mg294 O292 1.917 1_455 S
Mg294 O295 1.917 . S
Mg294 O305 2.106 1_455 S
Mg294 O307 2.079 1_455 S
Mg294 O316 2.106 . S
Mg294 O317 2.079 . S
O295 Mg294 1.917 . S
O295 Mg296 1.926 . S
O295 Mg297 1.986 . S
Mg296 O295 1.926 . S
Mg296 O310 1.984 . S
Mg296 O313 1.988 1_455 S
Mg296 O314 2.061 . S
Mg297 O295 1.986 . S
Mg297 O305 2.238 1_455 S
Mg297 O309 2.042 . S
Mg297 O311 2.041 1_455 S
Mg297 O318 2.038 . S
C298 O304 1.247 . S
C298 O305 1.289 . S
C299 O317 1.245 . S
C299 O318 1.274 . S
O300 C288 1.241 . S
O300 Mg293 2.042 1_655 S
O301 C288 1.280 . S
O301 Mg291 1.984 . S
O302 C289 1.277 . S
O302 Mg293 2.041 . S
O303 C289 1.245 . S
O303 Mg291 1.988 1_455 S
O304 Mg291 2.061 . S
O304 C298 1.247 . S
O305 Mg294 2.106 1_655 S
O305 Mg297 2.238 1_655 S
O305 C298 1.289 . S
C306 O307 1.245 . S
C306 O308 1.274 . S
O307 Mg294 2.079 1_655 S
O307 C306 1.245 . S
O308 Mg293 2.038 1_655 S
O308 C306 1.274 . S
O309 Mg297 2.042 . S
O309 C312 1.241 . S
O310 Mg296 1.984 . S
O310 C312 1.280 . S
O311 Mg297 2.041 1_655 S
O311 C315 1.277 . S
C312 O309 1.241 . S
C312 O310 1.280 . S
O313 Mg296 1.988 1_655 S
O313 C315 1.245 . S
O314 C290 1.247 . S
O314 Mg296 2.061 . S
C315 O311 1.277 . S
C315 O313 1.245 . S
O316 C290 1.289 . S
O316 Mg293 2.238 . S
O316 Mg294 2.106 . S
O317 Mg294 2.079 . S
O317 C299 1.245 . S
O318 Mg297 2.038 . S
O318 C299 1.274 . S
C319 O331 1.241 . S
C319 O332 1.280 . S
C320 O333 1.277 . S
C320 O334 1.245 . S
C321 O345 1.247 . S
C321 O347 1.289 . S
Mg322 O323 1.926 . S
Mg322 O332 1.984 . S
Mg322 O334 1.988 1_545 S
Mg322 O335 2.061 . S
O323 Mg322 1.926 . S
O323 Mg324 1.986 . S
O323 Mg325 1.917 . S
Mg324 O323 1.986 . S
Mg324 O331 2.042 . S
Mg324 O333 2.041 1_545 S
Mg324 O339 2.038 . S
Mg324 O347 2.238 1_545 S
Mg325 O323 1.917 . S
Mg325 O326 1.917 1_545 S
Mg325 O336 2.106 . S
Mg325 O338 2.079 . S
Mg325 O347 2.106 1_545 S
Mg325 O348 2.079 1_545 S
O326 Mg325 1.917 1_565 S
O326 Mg327 1.926 . S
O326 Mg328 1.986 1_565 S
Mg327 O326 1.926 . S
Mg327 O341 1.984 . S
Mg327 O344 1.988 1_565 S
Mg327 O345 2.061 . S
Mg328 O326 1.986 1_545 S
Mg328 O336 2.238 . S
Mg328 O340 2.042 1_545 S
Mg328 O342 2.041 . S
Mg328 O349 2.038 1_545 S
C329 O335 1.247 . S
C329 O336 1.289 . S
C330 O348 1.245 . S
C330 O349 1.274 . S
O331 C319 1.241 . S
O331 Mg324 2.042 . S
O332 C319 1.280 . S
O332 Mg322 1.984 . S
O333 C320 1.277 . S
O333 Mg324 2.041 1_565 S
O334 C320 1.245 . S
O334 Mg322 1.988 1_565 S
O335 Mg322 2.061 . S
O335 C329 1.247 . S
O336 Mg325 2.106 . S
O336 Mg328 2.238 . S
O336 C329 1.289 . S
C337 O338 1.245 . S
C337 O339 1.274 . S
O338 Mg325 2.079 . S
O338 C337 1.245 . S
O339 Mg324 2.038 . S
O339 C337 1.274 . S
O340 Mg328 2.042 1_565 S
O340 C343 1.241 . S
O341 Mg327 1.984 . S
O341 C343 1.280 . S
O342 Mg328 2.041 . S
O342 C346 1.277 . S
C343 O340 1.241 . S
C343 O341 1.280 . S
O344 Mg327 1.988 1_545 S
O344 C346 1.245 . S
O345 C321 1.247 . S
O345 Mg327 2.061 . S
C346 O342 1.277 . S
C346 O344 1.245 . S
O347 C321 1.289 . S
O347 Mg324 2.238 1_565 S
O347 Mg325 2.106 1_565 S
O348 Mg325 2.079 1_565 S
O348 C330 1.245 . S
O349 Mg328 2.038 1_565 S
O349 C330 1.274 . S
C350 O362 1.241 . S
C350 O363 1.280 . S
C351 O364 1.277 . S
C351 O365 1.245 . S
C352 O376 1.247 . S
C352 O378 1.289 . S
Mg353 O354 1.926 . S
Mg353 O363 1.984 . S
Mg353 O365 1.988 . S
Mg353 O366 2.061 . S
O354 Mg353 1.926 . S
O354 Mg355 1.986 . S
O354 Mg356 1.917 . S
Mg355 O354 1.986 . S
Mg355 O362 2.042 . S
Mg355 O364 2.041 . S
Mg355 O370 2.038 . S
Mg355 O378 2.238 . S
Mg356 O354 1.917 . S
Mg356 O357 1.917 . S
Mg356 O367 2.106 . S
Mg356 O369 2.079 . S
Mg356 O378 2.106 . S
Mg356 O379 2.079 . S
O357 Mg356 1.917 . S
O357 Mg358 1.926 . S
O357 Mg359 1.986 . S
Mg358 O357 1.926 . S
Mg358 O372 1.984 . S
Mg358 O375 1.988 . S
Mg358 O376 2.061 . S
Mg359 O357 1.986 . S
Mg359 O367 2.238 . S
Mg359 O371 2.042 . S
Mg359 O373 2.041 . S
Mg359 O380 2.038 . S
C360 O366 1.247 . S
C360 O367 1.289 . S
C361 O379 1.245 . S
C361 O380 1.274 . S
O362 C350 1.241 . S
O362 Mg355 2.042 . S
O363 C350 1.280 . S
O363 Mg353 1.984 . S
O364 C351 1.277 . S
O364 Mg355 2.041 . S
O365 C351 1.245 . S
O365 Mg353 1.988 . S
O366 Mg353 2.061 . S
O366 C360 1.247 . S
O367 Mg356 2.106 . S
O367 Mg359 2.238 . S
O367 C360 1.289 . S
C368 O369 1.245 . S
C368 O370 1.274 . S
O369 Mg356 2.079 . S
O369 C368 1.245 . S
O370 Mg355 2.038 . S
O370 C368 1.274 . S
O371 Mg359 2.042 . S
O371 C374 1.241 . S
O372 Mg358 1.984 . S
O372 C374 1.280 . S
O373 Mg359 2.041 . S
O373 C377 1.277 . S
C374 O371 1.241 . S
C374 O372 1.280 . S
O375 Mg358 1.988 . S
O375 C377 1.245 . S
O376 C352 1.247 . S
O376 Mg358 2.061 . S
C377 O373 1.277 . S
C377 O375 1.245 . S
O378 C352 1.289 . S
O378 Mg355 2.238 . S
O378 Mg356 2.106 . S
O379 Mg356 2.079 . S
O379 C361 1.245 . S
O380 Mg359 2.038 . S
O380 C361 1.274 . S
H381 C393 0.930 . S
H382 C395 0.930 . S
H383 C396 0.930 . S
H384 C400 0.959 . S
H385 C400 0.959 . S
H386 C400 0.961 . S
H387 C401 0.960 . S
H388 C401 0.961 . S
H389 C401 0.959 . S
H390 C404 0.929 . S
H391 C405 0.931 . S
H392 C407 0.930 . S
C393 H381 0.930 . S
C393 C394 1.399 . S
C393 C398 1.399 . S
C394 C393 1.399 . S
C394 C395 1.376 . S
C395 H382 0.930 . S
C395 C394 1.376 . S
C395 C396 1.388 . S
C396 H383 0.930 . S
C396 C395 1.388 . S
C396 C397 1.390 . S
C397 C396 1.390 . S
C397 C398 1.394 . S
C397 C403 1.465 . S
C398 C393 1.399 . S
C398 C397 1.394 . S
C398 C399 1.516 . S
C399 C398 1.516 . S
C399 C400 1.502 . S
C399 C401 1.561 . S
C399 C402 1.526 . S
C400 H384 0.959 . S
C400 H385 0.959 . S
C400 H386 0.961 . S
C400 C399 1.502 . S
C401 H387 0.960 . S
C401 H388 0.961 . S
C401 H389 0.959 . S
C401 C399 1.561 . S
C402 C399 1.526 . S
C402 C403 1.396 . S
C402 C407 1.390 . S
C403 C397 1.465 . S
C403 C402 1.396 . S
C403 C404 1.399 . S
C404 H390 0.929 . S
C404 C403 1.399 . S
C404 C405 1.385 . S
C405 H391 0.931 . S
C405 C404 1.385 . S
C405 C406 1.389 . S
C406 C405 1.389 . S
C406 C407 1.387 . S
C407 H392 0.930 . S
C407 C402 1.390 . S
C407 C406 1.387 . S
H408 C420 0.930 . S
H409 C422 0.930 . S
H410 C423 0.930 . S
H411 C427 0.959 . S
H412 C427 0.959 . S
H413 C427 0.961 . S
H414 C428 0.960 . S
H415 C428 0.961 . S
H416 C428 0.959 . S
H417 C431 0.929 . S
H418 C432 0.931 . S
H419 C434 0.930 . S
C420 H408 0.930 . S
C420 C421 1.399 . S
C420 C425 1.399 . S
C421 C420 1.399 . S
C421 C422 1.376 . S
C422 H409 0.930 . S
C422 C421 1.376 . S
C422 C423 1.388 . S
C423 H410 0.930 . S
C423 C422 1.388 . S
C423 C424 1.390 . S
C424 C423 1.390 . S
C424 C425 1.394 . S
C424 C430 1.465 . S
C425 C420 1.399 . S
C425 C424 1.394 . S
C425 C426 1.516 . S
C426 C425 1.516 . S
C426 C427 1.502 . S
C426 C428 1.561 . S
C426 C429 1.526 . S
C427 H411 0.959 . S
C427 H412 0.959 . S
C427 H413 0.961 . S
C427 C426 1.502 . S
C428 H414 0.960 . S
C428 H415 0.961 . S
C428 H416 0.959 . S
C428 C426 1.561 . S
C429 C426 1.526 . S
C429 C430 1.396 . S
C429 C434 1.390 . S
C430 C424 1.465 . S
C430 C429 1.396 . S
C430 C431 1.399 . S
C431 H417 0.929 . S
C431 C430 1.399 . S
C431 C432 1.385 . S
C432 H418 0.931 . S
C432 C431 1.385 . S
C432 C433 1.389 . S
C433 C432 1.389 . S
C433 C434 1.387 . S
C434 H419 0.930 . S
C434 C429 1.390 . S
C434 C433 1.387 . S
H435 C447 0.930 . S
H436 C449 0.930 . S
H437 C450 0.930 . S
H438 C454 0.959 . S
H439 C454 0.959 . S
H440 C454 0.961 . S
H441 C455 0.960 . S
H442 C455 0.961 . S
H443 C455 0.959 . S
H444 C458 0.929 . S
H445 C459 0.931 . S
H446 C461 0.930 . S
C447 H435 0.930 . S
C447 C448 1.399 . S
C447 C452 1.399 . S
C448 C447 1.399 . S
C448 C449 1.376 . S
C449 H436 0.930 . S
C449 C448 1.376 . S
C449 C450 1.388 . S
C450 H437 0.930 . S
C450 C449 1.388 . S
C450 C451 1.390 . S
C451 C450 1.390 . S
C451 C452 1.394 . S
C451 C457 1.465 . S
C452 C447 1.399 . S
C452 C451 1.394 . S
C452 C453 1.516 . S
C453 C452 1.516 . S
C453 C454 1.502 . S
C453 C455 1.561 . S
C453 C456 1.526 . S
C454 H438 0.959 . S
C454 H439 0.959 . S
C454 H440 0.961 . S
C454 C453 1.502 . S
C455 H441 0.960 . S
C455 H442 0.961 . S
C455 H443 0.959 . S
C455 C453 1.561 . S
C456 C453 1.526 . S
C456 C457 1.396 . S
C456 C461 1.390 . S
C457 C451 1.465 . S
C457 C456 1.396 . S
C457 C458 1.399 . S
C458 H444 0.929 . S
C458 C457 1.399 . S
C458 C459 1.385 . S
C459 H445 0.931 . S
C459 C458 1.385 . S
C459 C460 1.389 . S
C460 C459 1.389 . S
C460 C461 1.387 . S
C461 H446 0.930 . S
C461 C456 1.390 . S
C461 C460 1.387 . S
H462 C474 0.930 . S
H463 C476 0.930 . S
H464 C477 0.930 . S
H465 C481 0.959 . S
H466 C481 0.959 . S
H467 C481 0.961 . S
H468 C482 0.960 . S
H469 C482 0.961 . S
H470 C482 0.959 . S
H471 C485 0.929 . S
H472 C486 0.931 . S
H473 C488 0.930 . S
C474 H462 0.930 . S
C474 C475 1.399 . S
C474 C479 1.399 . S
C475 C474 1.399 . S
C475 C476 1.376 . S
C476 H463 0.930 . S
C476 C475 1.376 . S
C476 C477 1.388 . S
C477 H464 0.930 . S
C477 C476 1.388 . S
C477 C478 1.390 . S
C478 C477 1.390 . S
C478 C479 1.394 . S
C478 C484 1.465 . S
C479 C474 1.399 . S
C479 C478 1.394 . S
C479 C480 1.516 . S
C480 C479 1.516 . S
C480 C481 1.502 . S
C480 C482 1.561 . S
C480 C483 1.526 . S
C481 H465 0.959 . S
C481 H466 0.959 . S
C481 H467 0.961 . S
C481 C480 1.502 . S
C482 H468 0.960 . S
C482 H469 0.961 . S
C482 H470 0.959 . S
C482 C480 1.561 . S
C483 C480 1.526 . S
C483 C484 1.396 . S
C483 C488 1.390 . S
C484 C478 1.465 . S
C484 C483 1.396 . S
C484 C485 1.399 . S
C485 H471 0.929 . S
C485 C484 1.399 . S
C485 C486 1.385 . S
C486 H472 0.931 . S
C486 C485 1.385 . S
C486 C487 1.389 . S
C487 C486 1.389 . S
C487 C488 1.387 . S
C488 H473 0.930 . S
C488 C483 1.390 . S
C488 C487 1.387 . S
H489 C501 0.930 . S
H490 C503 0.930 . S
H491 C504 0.930 . S
H492 C508 0.959 . S
H493 C508 0.959 . S
H494 C508 0.961 . S
H495 C509 0.960 . S
H496 C509 0.961 . S
H497 C509 0.959 . S
H498 C512 0.929 . S
H499 C513 0.931 . S
H500 C515 0.930 . S
C501 H489 0.930 . S
C501 C502 1.399 . S
C501 C506 1.399 . S
C502 C501 1.399 . S
C502 C503 1.376 . S
C503 H490 0.930 . S
C503 C502 1.376 . S
C503 C504 1.388 . S
C504 H491 0.930 . S
C504 C503 1.388 . S
C504 C505 1.390 . S
C505 C504 1.390 . S
C505 C506 1.394 . S
C505 C511 1.465 . S
C506 C501 1.399 . S
C506 C505 1.394 . S
C506 C507 1.516 . S
C507 C506 1.516 . S
C507 C508 1.502 . S
C507 C509 1.561 . S
C507 C510 1.526 . S
C508 H492 0.959 . S
C508 H493 0.959 . S
C508 H494 0.961 . S
C508 C507 1.502 . S
C509 H495 0.960 . S
C509 H496 0.961 . S
C509 H497 0.959 . S
C509 C507 1.561 . S
C510 C507 1.526 . S
C510 C511 1.396 . S
C510 C515 1.390 . S
C511 C505 1.465 . S
C511 C510 1.396 . S
C511 C512 1.399 . S
C512 H498 0.929 . S
C512 C511 1.399 . S
C512 C513 1.385 . S
C513 H499 0.931 . S
C513 C512 1.385 . S
C513 C514 1.389 . S
C514 C513 1.389 . S
C514 C515 1.387 . S
C515 H500 0.930 . S
C515 C510 1.390 . S
C515 C514 1.387 . S
H516 C528 0.930 . S
H517 C530 0.930 . S
H518 C531 0.930 . S
H519 C535 0.959 . S
H520 C535 0.959 . S
H521 C535 0.961 . S
H522 C536 0.960 . S
H523 C536 0.961 . S
H524 C536 0.959 . S
H525 C539 0.929 . S
H526 C540 0.931 . S
H527 C542 0.930 . S
C528 H516 0.930 . S
C528 C529 1.399 . S
C528 C533 1.399 . S
C529 C528 1.399 . S
C529 C530 1.376 . S
C530 H517 0.930 . S
C530 C529 1.376 . S
C530 C531 1.388 . S
C531 H518 0.930 . S
C531 C530 1.388 . S
C531 C532 1.390 . S
C532 C531 1.390 . S
C532 C533 1.394 . S
C532 C538 1.465 . S
C533 C528 1.399 . S
C533 C532 1.394 . S
C533 C534 1.516 . S
C534 C533 1.516 . S
C534 C535 1.502 . S
C534 C536 1.561 . S
C534 C537 1.526 . S
C535 H519 0.959 . S
C535 H520 0.959 . S
C535 H521 0.961 . S
C535 C534 1.502 . S
C536 H522 0.960 . S
C536 H523 0.961 . S
C536 H524 0.959 . S
C536 C534 1.561 . S
C537 C534 1.526 . S
C537 C538 1.396 . S
C537 C542 1.390 . S
C538 C532 1.465 . S
C538 C537 1.396 . S
C538 C539 1.399 . S
C539 H525 0.929 . S
C539 C538 1.399 . S
C539 C540 1.385 . S
C540 H526 0.931 . S
C540 C539 1.385 . S
C540 C541 1.389 . S
C541 C540 1.389 . S
C541 C542 1.387 . S
C542 H527 0.930 . S
C542 C537 1.390 . S
C542 C541 1.387 . S
H543 C555 0.930 . S
H544 C557 0.930 . S
H545 C558 0.930 . S
H546 C562 0.959 . S
H547 C562 0.959 . S
H548 C562 0.961 . S
H549 C563 0.960 . S
H550 C563 0.961 . S
H551 C563 0.959 . S
H552 C566 0.929 . S
H553 C567 0.931 . S
H554 C569 0.930 . S
C555 H543 0.930 . S
C555 C556 1.399 . S
C555 C560 1.399 . S
C556 C555 1.399 . S
C556 C557 1.376 . S
C557 H544 0.930 . S
C557 C556 1.376 . S
C557 C558 1.388 . S
C558 H545 0.930 . S
C558 C557 1.388 . S
C558 C559 1.390 . S
C559 C558 1.390 . S
C559 C560 1.394 . S
C559 C565 1.465 . S
C560 C555 1.399 . S
C560 C559 1.394 . S
C560 C561 1.516 . S
C561 C560 1.516 . S
C561 C562 1.502 . S
C561 C563 1.561 . S
C561 C564 1.526 . S
C562 H546 0.959 . S
C562 H547 0.959 . S
C562 H548 0.961 . S
C562 C561 1.502 . S
C563 H549 0.960 . S
C563 H550 0.961 . S
C563 H551 0.959 . S
C563 C561 1.561 . S
C564 C561 1.526 . S
C564 C565 1.396 . S
C564 C569 1.390 . S
C565 C559 1.465 . S
C565 C564 1.396 . S
C565 C566 1.399 . S
C566 H552 0.929 . S
C566 C565 1.399 . S
C566 C567 1.385 . S
C567 H553 0.931 . S
C567 C566 1.385 . S
C567 C568 1.389 . S
C568 C567 1.389 . S
C568 C569 1.387 . S
C569 H554 0.930 . S
C569 C564 1.390 . S
C569 C568 1.387 . S
H570 C582 0.930 . S
H571 C584 0.930 . S
H572 C585 0.930 . S
H573 C589 0.959 . S
H574 C589 0.959 . S
H575 C589 0.961 . S
H576 C590 0.960 . S
H577 C590 0.961 . S
H578 C590 0.959 . S
H579 C593 0.929 . S
H580 C594 0.931 . S
H581 C596 0.930 . S
C582 H570 0.930 . S
C582 C583 1.399 . S
C582 C587 1.399 . S
C583 C582 1.399 . S
C583 C584 1.376 . S
C584 H571 0.930 . S
C584 C583 1.376 . S
C584 C585 1.388 . S
C585 H572 0.930 . S
C585 C584 1.388 . S
C585 C586 1.390 . S
C586 C585 1.390 . S
C586 C587 1.394 . S
C586 C592 1.465 . S
C587 C582 1.399 . S
C587 C586 1.394 . S
C587 C588 1.516 . S
C588 C587 1.516 . S
C588 C589 1.502 . S
C588 C590 1.561 . S
C588 C591 1.526 . S
C589 H573 0.959 . S
C589 H574 0.959 . S
C589 H575 0.961 . S
C589 C588 1.502 . S
C590 H576 0.960 . S
C590 H577 0.961 . S
C590 H578 0.959 . S
C590 C588 1.561 . S
C591 C588 1.526 . S
C591 C592 1.396 . S
C591 C596 1.390 . S
C592 C586 1.465 . S
C592 C591 1.396 . S
C592 C593 1.399 . S
C593 H579 0.929 . S
C593 C592 1.399 . S
C593 C594 1.385 . S
C594 H580 0.931 . S
C594 C593 1.385 . S
C594 C595 1.389 . S
C595 C594 1.389 . S
C595 C596 1.387 . S
C596 H581 0.930 . S
C596 C591 1.390 . S
C596 C595 1.387 . S
H597 C609 0.930 . S
H598 C611 0.930 . S
H599 C612 0.930 . S
H600 C616 0.959 . S
H601 C616 0.959 . S
H602 C616 0.961 . S
H603 C617 0.960 . S
H604 C617 0.961 . S
H605 C617 0.959 . S
H606 C620 0.929 . S
H607 C621 0.931 . S
H608 C623 0.930 . S
C609 H597 0.930 . S
C609 C610 1.399 . S
C609 C614 1.399 . S
C610 C609 1.399 . S
C610 C611 1.376 . S
C611 H598 0.930 . S
C611 C610 1.376 . S
C611 C612 1.388 . S
C612 H599 0.930 . S
C612 C611 1.388 . S
C612 C613 1.390 . S
C613 C612 1.390 . S
C613 C614 1.394 . S
C613 C619 1.465 . S
C614 C609 1.399 . S
C614 C613 1.394 . S
C614 C615 1.516 . S
C615 C614 1.516 . S
C615 C616 1.502 . S
C615 C617 1.561 . S
C615 C618 1.526 . S
C616 H600 0.959 . S
C616 H601 0.959 . S
C616 H602 0.961 . S
C616 C615 1.502 . S
C617 H603 0.960 . S
C617 H604 0.961 . S
C617 H605 0.959 . S
C617 C615 1.561 . S
C618 C615 1.526 . S
C618 C619 1.396 . S
C618 C623 1.390 . S
C619 C613 1.465 . S
C619 C618 1.396 . S
C619 C620 1.399 . S
C620 H606 0.929 . S
C620 C619 1.399 . S
C620 C621 1.385 . S
C621 H607 0.931 . S
C621 C620 1.385 . S
C621 C622 1.389 . S
C622 C621 1.389 . S
C622 C623 1.387 . S
C623 H608 0.930 . S
C623 C618 1.390 . S
C623 C622 1.387 . S
H624 C636 0.930 . S
H625 C638 0.930 . S
H626 C639 0.930 . S
H627 C643 0.959 . S
H628 C643 0.959 . S
H629 C643 0.961 . S
H630 C644 0.960 . S
H631 C644 0.961 . S
H632 C644 0.959 . S
H633 C647 0.929 . S
H634 C648 0.931 . S
H635 C650 0.930 . S
C636 H624 0.930 . S
C636 C637 1.399 1_556 S
C636 C641 1.399 . S
C637 C636 1.399 1_554 S
C637 C638 1.376 . S
C638 H625 0.930 . S
C638 C637 1.376 . S
C638 C639 1.388 . S
C639 H626 0.930 . S
C639 C638 1.388 . S
C639 C640 1.390 1_554 S
C640 C639 1.390 1_556 S
C640 C641 1.394 . S
C640 C646 1.465 . S
C641 C636 1.399 . S
C641 C640 1.394 . S
C641 C642 1.516 . S
C642 C641 1.516 . S
C642 C643 1.502 . S
C642 C644 1.561 . S
C642 C645 1.526 . S
C643 H627 0.959 . S
C643 H628 0.959 . S
C643 H629 0.961 . S
C643 C642 1.502 . S
C644 H630 0.960 . S
C644 H631 0.961 . S
C644 H632 0.959 . S
C644 C642 1.561 . S
C645 C642 1.526 . S
C645 C646 1.396 . S
C645 C650 1.390 . S
C646 C640 1.465 . S
C646 C645 1.396 . S
C646 C647 1.399 . S
C647 H633 0.929 . S
C647 C646 1.399 . S
C647 C648 1.385 . S
C648 H634 0.931 . S
C648 C647 1.385 . S
C648 C649 1.389 . S
C649 C648 1.389 . S
C649 C650 1.387 . S
C650 H635 0.930 . S
C650 C645 1.390 . S
C650 C649 1.387 . S
H651 C663 0.930 . S
H652 C665 0.925 1_554 S
H653 C666 0.930 . S
H654 C670 0.959 . S
H655 C670 0.959 . S
H656 C670 0.961 . S
H657 C671 0.960 . S
H658 C671 0.961 . S
H659 C671 0.959 . S
H660 C674 0.929 . S
H661 C675 0.931 . S
H662 C677 0.930 . S
C663 H651 0.930 . S
C663 C664 1.399 . S
C663 C668 1.399 . S
C664 C663 1.399 . S
C664 C665 1.376 . S
C665 H652 0.925 1_556 S
C665 C664 1.376 . S
C665 C666 1.388 . S
C666 H653 0.930 . S
C666 C665 1.388 . S
C666 C667 1.390 . S
C667 C666 1.390 . S
C667 C668 1.394 . S
C667 C673 1.465 . S
C668 C663 1.399 . S
C668 C667 1.394 . S
C668 C669 1.516 . S
C669 C668 1.516 . S
C669 C670 1.502 . S
C669 C671 1.561 . S
C669 C672 1.526 . S
C670 H654 0.959 . S
C670 H655 0.959 . S
C670 H656 0.961 . S
C670 C669 1.502 . S
C671 H657 0.960 . S
C671 H658 0.961 . S
C671 H659 0.959 . S
C671 C669 1.561 . S
C672 C669 1.526 . S
C672 C673 1.396 . S
C672 C677 1.390 . S
C673 C667 1.465 . S
C673 C672 1.396 . S
C673 C674 1.399 . S
C674 H660 0.929 . S
C674 C673 1.399 . S
C674 C675 1.385 . S
C675 H661 0.931 . S
C675 C674 1.385 . S
C675 C676 1.389 . S
C676 C675 1.389 . S
C676 C677 1.387 . S
C677 H662 0.930 . S
C677 C672 1.390 . S
C677 C676 1.387 . S
H678 C690 0.930 1_554 S
H679 C692 0.930 . S
H680 C693 0.930 . S
H681 C697 0.959 . S
H682 C697 0.959 . S
H683 C697 0.961 1_554 S
H684 C698 0.960 1_554 S
H685 C698 0.961 . S
H686 C698 0.959 . S
H687 C701 0.929 . S
H688 C702 0.931 . S
H689 C704 0.930 . S
C690 H678 0.930 1_556 S
C690 C691 1.399 . S
C690 C695 1.399 . S
C691 C690 1.399 . S
C691 C692 1.376 . S
C692 H679 0.930 . S
C692 C691 1.376 . S
C692 C693 1.388 . S
C693 H680 0.930 . S
C693 C692 1.388 . S
C693 C694 1.390 . S
C694 C693 1.390 . S
C694 C695 1.394 . S
C694 C700 1.465 . S
C695 C690 1.399 . S
C695 C694 1.394 . S
C695 C696 1.516 . S
C696 C695 1.516 . S
C696 C697 1.502 . S
C696 C698 1.561 . S
C696 C699 1.526 . S
C697 H681 0.959 . S
C697 H682 0.959 . S
C697 H683 0.961 1_556 S
C697 C696 1.502 . S
C698 H684 0.960 1_556 S
C698 H685 0.961 . S
C698 H686 0.959 . S
C698 C696 1.561 . S
C699 C696 1.526 . S
C699 C700 1.396 . S
C699 C704 1.390 . S
C700 C694 1.465 . S
C700 C699 1.396 . S
C700 C701 1.399 . S
C701 H687 0.929 . S
C701 C700 1.399 . S
C701 C702 1.385 . S
C702 H688 0.931 . S
C702 C701 1.385 . S
C702 C703 1.389 . S
C703 C702 1.389 . S
C703 C704 1.387 . S
C704 H689 0.930 . S
C704 C699 1.390 . S
C704 C703 1.387 . S
H705 C717 0.930 . S
H706 C719 0.930 . S
H707 C720 0.930 . S
H708 C724 0.959 . S
H709 C724 0.959 . S
H710 C724 0.961 . S
H711 C725 0.960 . S
H712 C725 0.961 . S
H713 C725 0.959 . S
H714 C728 0.929 . S
H715 C729 0.931 . S
H716 C731 0.930 . S
C717 H705 0.930 . S
C717 C718 1.399 . S
C717 C722 1.399 . S
C718 C717 1.399 . S
C718 C719 1.376 . S
C719 H706 0.930 . S
C719 C718 1.376 . S
C719 C720 1.388 . S
C720 H707 0.930 . S
C720 C719 1.388 . S
C720 C721 1.390 . S
C721 C720 1.390 . S
C721 C722 1.394 . S
C721 C727 1.465 . S
C722 C717 1.399 . S
C722 C721 1.394 . S
C722 C723 1.516 . S
C723 C722 1.516 . S
C723 C724 1.502 . S
C723 C725 1.561 . S
C723 C726 1.526 . S
C724 H708 0.959 . S
C724 H709 0.959 . S
C724 H710 0.961 . S
C724 C723 1.502 . S
C725 H711 0.960 . S
C725 H712 0.961 . S
C725 H713 0.959 . S
C725 C723 1.561 . S
C726 C723 1.526 . S
C726 C727 1.396 . S
C726 C731 1.390 . S
C727 C721 1.465 . S
C727 C726 1.396 . S
C727 C728 1.399 . S
C728 H714 0.929 . S
C728 C727 1.399 . S
C728 C729 1.385 . S
C729 H715 0.931 . S
C729 C728 1.385 . S
C729 C730 1.389 . S
C730 C729 1.389 . S
C730 C731 1.387 . S
C731 H716 0.930 . S
C731 C726 1.390 . S
C731 C730 1.387 . S
H732 C744 0.930 . S
H733 C746 0.930 . S
H734 C747 0.930 . S
H735 C751 0.959 . S
H736 C751 0.959 . S
H737 C751 0.961 . S
H738 C752 0.960 . S
H739 C752 0.961 . S
H740 C752 0.959 . S
H741 C755 0.929 . S
H742 C756 0.931 . S
H743 C758 0.930 . S
C744 H732 0.930 . S
C744 C745 1.399 . S
C744 C749 1.399 . S
C745 C744 1.399 . S
C745 C746 1.376 . S
C746 H733 0.930 . S
C746 C745 1.376 . S
C746 C747 1.388 . S
C747 H734 0.930 . S
C747 C746 1.388 . S
C747 C748 1.390 . S
C748 C747 1.390 . S
C748 C749 1.394 . S
C748 C754 1.465 . S
C749 C744 1.399 . S
C749 C748 1.394 . S
C749 C750 1.516 . S
C750 C749 1.516 . S
C750 C751 1.502 . S
C750 C752 1.561 . S
C750 C753 1.526 . S
C751 H735 0.959 . S
C751 H736 0.959 . S
C751 H737 0.961 . S
C751 C750 1.502 . S
C752 H738 0.960 . S
C752 H739 0.961 . S
C752 H740 0.959 . S
C752 C750 1.561 . S
C753 C750 1.526 . S
C753 C754 1.396 . S
C753 C758 1.390 . S
C754 C748 1.465 . S
C754 C753 1.396 . S
C754 C755 1.399 . S
C755 H741 0.929 . S
C755 C754 1.399 . S
C755 C756 1.385 . S
C756 H742 0.931 . S
C756 C755 1.385 . S
C756 C757 1.389 . S
C757 C756 1.389 . S
C757 C758 1.387 . S
C758 H743 0.930 . S
C758 C753 1.390 . S
C758 C757 1.387 . S
H759 C771 0.930 . S
H760 C773 0.930 . S
H761 C774 0.930 . S
H762 C778 0.959 . S
H763 C778 0.959 . S
H764 C778 0.961 . S
H765 C779 0.960 . S
H766 C779 0.961 1_556 S
H767 C779 0.959 . S
H768 C782 0.929 . S
H769 C783 0.931 . S
H770 C785 0.930 . S
C771 H759 0.930 . S
C771 C772 1.399 . S
C771 C776 1.399 1_554 S
C772 C771 1.399 . S
C772 C773 1.376 1_554 S
C773 H760 0.930 . S
C773 C772 1.376 1_556 S
C773 C774 1.388 . S
C774 H761 0.930 . S
C774 C773 1.388 . S
C774 C775 1.390 . S
C775 C774 1.390 . S
C775 C776 1.394 . S
C775 C781 1.465 . S
C776 C771 1.399 1_556 S
C776 C775 1.394 . S
C776 C777 1.516 . S
C777 C776 1.516 . S
C777 C778 1.502 . S
C777 C779 1.561 1_556 S
C777 C780 1.526 . S
C778 H762 0.959 . S
C778 H763 0.959 . S
C778 H764 0.961 . S
C778 C777 1.502 . S
C779 H765 0.960 . S
C779 H766 0.961 1_554 S
C779 H767 0.959 . S
C779 C777 1.561 1_554 S
C780 C777 1.526 . S
C780 C781 1.396 . S
C780 C785 1.390 . S
C781 C775 1.465 . S
C781 C780 1.396 . S
C781 C782 1.399 . S
C782 H768 0.929 . S
C782 C781 1.399 . S
C782 C783 1.385 . S
C783 H769 0.931 . S
C783 C782 1.385 . S
C783 C784 1.389 . S
C784 C783 1.389 . S
C784 C785 1.387 . S
C785 H770 0.930 . S
C785 C780 1.390 . S
C785 C784 1.387 . S
H786 C798 0.930 . S
H787 C800 0.930 1_554 S
H788 C801 0.930 . S
H789 C805 0.959 . S
H790 C805 0.959 . S
H791 C805 0.961 . S
H792 C806 0.960 . S
H793 C806 0.961 . S
H794 C806 0.959 . S
H795 C809 0.929 . S
H796 C810 0.931 . S
H797 C812 0.930 . S
C798 H786 0.930 . S
C798 C799 1.399 . S
C798 C803 1.399 . S
C799 C798 1.399 . S
C799 C800 1.376 . S
C800 H787 0.930 1_556 S
C800 C799 1.376 . S
C800 C801 1.388 . S
C801 H788 0.930 . S
C801 C800 1.388 . S
C801 C802 1.390 . S
C802 C801 1.390 . S
C802 C803 1.394 . S
C802 C808 1.465 . S
C803 C798 1.399 . S
C803 C802 1.394 . S
C803 C804 1.516 . S
C804 C803 1.516 . S
C804 C805 1.502 . S
C804 C806 1.561 . S
C804 C807 1.526 . S
C805 H789 0.959 . S
C805 H790 0.959 . S
C805 H791 0.961 . S
C805 C804 1.502 . S
C806 H792 0.960 . S
C806 H793 0.961 . S
C806 H794 0.959 . S
C806 C804 1.561 . S
C807 C804 1.526 . S
C807 C808 1.396 . S
C807 C812 1.390 . S
C808 C802 1.465 . S
C808 C807 1.396 . S
C808 C809 1.399 . S
C809 H795 0.929 . S
C809 C808 1.399 . S
C809 C810 1.385 . S
C810 H796 0.931 . S
C810 C809 1.385 . S
C810 C811 1.389 . S
C811 C810 1.389 . S
C811 C812 1.387 . S
C812 H797 0.930 . S
C812 C807 1.390 . S
C812 C811 1.387 . S
H813 C825 0.930 . S
H814 C827 0.930 . S
H815 C828 0.930 . S
H816 C832 0.959 . S
H817 C832 0.959 . S
H818 C832 0.961 . S
H819 C833 0.960 . S
H820 C833 0.961 . S
H821 C833 0.959 . S
H822 C836 0.929 . S
H823 C837 0.931 . S
H824 C839 0.930 . S
C825 H813 0.930 . S
C825 C826 1.399 . S
C825 C830 1.399 . S
C826 C825 1.399 . S
C826 C827 1.376 . S
C827 H814 0.930 . S
C827 C826 1.376 . S
C827 C828 1.388 . S
C828 H815 0.930 . S
C828 C827 1.388 . S
C828 C829 1.390 . S
C829 C828 1.390 . S
C829 C830 1.394 . S
C829 C835 1.465 . S
C830 C825 1.399 . S
C830 C829 1.394 . S
C830 C831 1.516 . S
C831 C830 1.516 . S
C831 C832 1.502 . S
C831 C833 1.561 . S
C831 C834 1.526 . S
C832 H816 0.959 . S
C832 H817 0.959 . S
C832 H818 0.961 . S
C832 C831 1.502 . S
C833 H819 0.960 . S
C833 H820 0.961 . S
C833 H821 0.959 . S
C833 C831 1.561 . S
C834 C831 1.526 . S
C834 C835 1.396 . S
C834 C839 1.390 . S
C835 C829 1.465 . S
C835 C834 1.396 . S
C835 C836 1.399 . S
C836 H822 0.929 . S
C836 C835 1.399 . S
C836 C837 1.385 . S
C837 H823 0.931 . S
C837 C836 1.385 . S
C837 C838 1.389 . S
C838 C837 1.389 . S
C838 C839 1.387 . S
C839 H824 0.930 . S
C839 C834 1.390 . S
C839 C838 1.387 . S
H840 C852 0.930 . S
H841 C854 0.930 . S
H842 C855 0.930 . S
H843 C859 0.959 . S
H844 C859 0.959 . S
H845 C859 0.961 . S
H846 C860 0.960 . S
H847 C860 0.961 . S
H848 C860 0.959 . S
H849 C863 0.929 . S
H850 C864 0.931 . S
H851 C866 0.930 . S
C852 H840 0.930 . S
C852 C853 1.399 . S
C852 C857 1.399 . S
C853 C852 1.399 . S
C853 C854 1.376 . S
C854 H841 0.930 . S
C854 C853 1.376 . S
C854 C855 1.388 . S
C855 H842 0.930 . S
C855 C854 1.388 . S
C855 C856 1.390 . S
C856 C855 1.390 . S
C856 C857 1.394 . S
C856 C862 1.465 . S
C857 C852 1.399 . S
C857 C856 1.394 . S
C857 C858 1.516 . S
C858 C857 1.516 . S
C858 C859 1.502 . S
C858 C860 1.561 . S
C858 C861 1.526 . S
C859 H843 0.959 . S
C859 H844 0.959 . S
C859 H845 0.961 . S
C859 C858 1.502 . S
C860 H846 0.960 . S
C860 H847 0.961 . S
C860 H848 0.959 . S
C860 C858 1.561 . S
C861 C858 1.526 . S
C861 C862 1.396 . S
C861 C866 1.390 . S
C862 C856 1.465 . S
C862 C861 1.396 . S
C862 C863 1.399 . S
C863 H849 0.929 . S
C863 C862 1.399 . S
C863 C864 1.385 . S
C864 H850 0.931 . S
C864 C863 1.385 . S
C864 C865 1.389 . S
C865 C864 1.389 . S
C865 C866 1.387 . S
C866 H851 0.930 . S
C866 C861 1.390 . S
C866 C865 1.387 . S
H867 C879 0.930 . S
H868 C881 0.930 . S
H869 C882 0.930 . S
H870 C886 0.959 . S
H871 C886 0.959 . S
H872 C886 0.961 . S
H873 C887 0.960 . S
H874 C887 0.961 . S
H875 C887 0.959 . S
H876 C890 0.929 . S
H877 C891 0.931 . S
H878 C893 0.930 . S
C879 H867 0.930 . S
C879 C880 1.399 . S
C879 C884 1.399 . S
C880 C879 1.399 . S
C880 C881 1.376 . S
C881 H868 0.930 . S
C881 C880 1.376 . S
C881 C882 1.388 . S
C882 H869 0.930 . S
C882 C881 1.388 . S
C882 C883 1.390 . S
C883 C882 1.390 . S
C883 C884 1.394 . S
C883 C889 1.465 . S
C884 C879 1.399 . S
C884 C883 1.394 . S
C884 C885 1.516 . S
C885 C884 1.516 . S
C885 C886 1.502 . S
C885 C887 1.561 . S
C885 C888 1.526 . S
C886 H870 0.959 . S
C886 H871 0.959 . S
C886 H872 0.961 . S
C886 C885 1.502 . S
C887 H873 0.960 . S
C887 H874 0.961 . S
C887 H875 0.959 . S
C887 C885 1.561 . S
C888 C885 1.526 . S
C888 C889 1.396 . S
C888 C893 1.390 . S
C889 C883 1.465 . S
C889 C888 1.396 . S
C889 C890 1.399 . S
C890 H876 0.929 . S
C890 C889 1.399 . S
C890 C891 1.385 . S
C891 H877 0.931 . S
C891 C890 1.385 . S
C891 C892 1.389 . S
C892 C891 1.389 . S
C892 C893 1.387 . S
C893 H878 0.930 . S
C893 C888 1.390 . S
C893 C892 1.387 . S
H894 C906 0.930 . S
H895 C908 0.930 . S
H896 C909 0.930 . S
H897 C913 0.959 . S
H898 C913 0.959 . S
H899 C913 0.961 . S
H900 C914 0.960 . S
H901 C914 0.961 . S
H902 C914 0.959 . S
H903 C917 0.929 . S
H904 C918 0.931 . S
H905 C920 0.930 . S
C906 H894 0.930 . S
C906 C907 1.399 . S
C906 C911 1.399 . S
C907 C906 1.399 . S
C907 C908 1.376 . S
C908 H895 0.930 . S
C908 C907 1.376 . S
C908 C909 1.388 . S
C909 H896 0.930 . S
C909 C908 1.388 . S
C909 C910 1.390 . S
C910 C909 1.390 . S
C910 C911 1.394 . S
C910 C916 1.465 . S
C911 C906 1.399 . S
C911 C910 1.394 . S
C911 C912 1.516 . S
C912 C911 1.516 . S
C912 C913 1.502 . S
C912 C914 1.561 . S
C912 C915 1.526 . S
C913 H897 0.959 . S
C913 H898 0.959 . S
C913 H899 0.961 . S
C913 C912 1.502 . S
C914 H900 0.960 . S
C914 H901 0.961 . S
C914 H902 0.959 . S
C914 C912 1.561 . S
C915 C912 1.526 . S
C915 C916 1.396 . S
C915 C920 1.390 . S
C916 C910 1.465 . S
C916 C915 1.396 . S
C916 C917 1.399 . S
C917 H903 0.929 . S
C917 C916 1.399 . S
C917 C918 1.385 . S
C918 H904 0.931 . S
C918 C917 1.385 . S
C918 C919 1.389 . S
C919 C918 1.389 . S
C919 C920 1.387 . S
C920 H905 0.930 . S
C920 C915 1.390 . S
C920 C919 1.387 . S
H921 C933 0.930 . S
H922 C935 0.930 . S
H923 C936 0.930 . S
H924 C940 0.959 . S
H925 C940 0.959 . S
H926 C940 0.961 . S
H927 C941 0.960 . S
H928 C941 0.961 . S
H929 C941 0.959 . S
H930 C944 0.929 . S
H931 C945 0.931 . S
H932 C947 0.930 . S
C933 H921 0.930 . S
C933 C934 1.399 . S
C933 C938 1.399 . S
C934 C933 1.399 . S
C934 C935 1.376 . S
C935 H922 0.930 . S
C935 C934 1.376 . S
C935 C936 1.388 . S
C936 H923 0.930 . S
C936 C935 1.388 . S
C936 C937 1.390 . S
C937 C936 1.390 . S
C937 C938 1.394 . S
C937 C943 1.465 . S
C938 C933 1.399 . S
C938 C937 1.394 . S
C938 C939 1.516 . S
C939 C938 1.516 . S
C939 C940 1.502 . S
C939 C941 1.561 . S
C939 C942 1.526 . S
C940 H924 0.959 . S
C940 H925 0.959 . S
C940 H926 0.961 . S
C940 C939 1.502 . S
C941 H927 0.960 . S
C941 H928 0.961 . S
C941 H929 0.959 . S
C941 C939 1.561 . S
C942 C939 1.526 . S
C942 C943 1.396 . S
C942 C947 1.390 . S
C943 C937 1.465 . S
C943 C942 1.396 . S
C943 C944 1.399 . S
C944 H930 0.929 . S
C944 C943 1.399 . S
C944 C945 1.385 . S
C945 H931 0.931 . S
C945 C944 1.385 . S
C945 C946 1.389 . S
C946 C945 1.389 . S
C946 C947 1.387 . S
C947 H932 0.930 . S
C947 C942 1.390 . S
C947 C946 1.387 . S
H948 C960 0.930 . S
H949 C962 0.930 . S
H950 C963 0.930 . S
H951 C967 0.959 . S
H952 C967 0.959 . S
H953 C967 0.961 . S
H954 C968 0.960 . S
H955 C968 0.961 . S
H956 C968 0.959 . S
H957 C971 0.929 . S
H958 C972 0.931 . S
H959 C974 0.930 . S
C960 H948 0.930 . S
C960 C961 1.399 . S
C960 C965 1.399 . S
C961 C960 1.399 . S
C961 C962 1.376 . S
C962 H949 0.930 . S
C962 C961 1.376 . S
C962 C963 1.388 . S
C963 H950 0.930 . S
C963 C962 1.388 . S
C963 C964 1.390 . S
C964 C963 1.390 . S
C964 C965 1.394 . S
C964 C970 1.465 . S
C965 C960 1.399 . S
C965 C964 1.394 . S
C965 C966 1.516 . S
C966 C965 1.516 . S
C966 C967 1.502 . S
C966 C968 1.561 . S
C966 C969 1.526 . S
C967 H951 0.959 . S
C967 H952 0.959 . S
C967 H953 0.961 . S
C967 C966 1.502 . S
C968 H954 0.960 . S
C968 H955 0.961 . S
C968 H956 0.959 . S
C968 C966 1.561 . S
C969 C966 1.526 . S
C969 C970 1.396 . S
C969 C974 1.390 . S
C970 C964 1.465 . S
C970 C969 1.396 . S
C970 C971 1.399 . S
C971 H957 0.929 . S
C971 C970 1.399 . S
C971 C972 1.385 . S
C972 H958 0.931 . S
C972 C971 1.385 . S
C972 C973 1.389 . S
C973 C972 1.389 . S
C973 C974 1.387 . S
C974 H959 0.930 . S
C974 C969 1.390 . S
C974 C973 1.387 . S
H975 C987 0.930 . S
H976 C989 0.930 . S
H977 C990 0.930 . S
H978 C994 0.959 . S
H979 C994 0.959 . S
H980 C994 0.961 . S
H981 C995 0.960 . S
H982 C995 0.961 . S
H983 C995 0.959 . S
H984 C998 0.929 . S
H985 C999 0.931 . S
H986 C1001 0.930 . S
C987 H975 0.930 . S
C987 C988 1.399 . S
C987 C992 1.399 . S
C988 C987 1.399 . S
C988 C989 1.376 . S
C989 H976 0.930 . S
C989 C988 1.376 . S
C989 C990 1.388 . S
C990 H977 0.930 . S
C990 C989 1.388 . S
C990 C991 1.390 . S
C991 C990 1.390 . S
C991 C992 1.394 . S
C991 C997 1.465 . S
C992 C987 1.399 . S
C992 C991 1.394 . S
C992 C993 1.516 . S
C993 C992 1.516 . S
C993 C994 1.502 . S
C993 C995 1.561 . S
C993 C996 1.526 . S
C994 H978 0.959 . S
C994 H979 0.959 . S
C994 H980 0.961 . S
C994 C993 1.502 . S
C995 H981 0.960 . S
C995 H982 0.961 . S
C995 H983 0.959 . S
C995 C993 1.561 . S
C996 C993 1.526 . S
C996 C997 1.396 . S
C996 C1001 1.390 . S
C997 C991 1.465 . S
C997 C996 1.396 . S
C997 C998 1.399 . S
C998 H984 0.929 . S
C998 C997 1.399 . S
C998 C999 1.385 . S
C999 H985 0.931 . S
C999 C998 1.385 . S
C999 C1000 1.389 . S
C1000 C999 1.389 . S
C1000 C1001 1.387 . S
C1001 H986 0.930 . S
C1001 C996 1.390 . S
C1001 C1000 1.387 . S
H1002 C1014 0.930 . S
H1003 C1016 0.930 . S
H1004 C1017 0.930 . S
H1005 C1021 0.959 . S
H1006 C1021 0.959 . S
H1007 C1021 0.961 . S
H1008 C1022 0.960 . S
H1009 C1022 0.961 . S
H1010 C1022 0.959 . S
H1011 C1025 0.929 . S
H1012 C1026 0.931 . S
H1013 C1028 0.930 . S
C1014 H1002 0.930 . S
C1014 C1015 1.399 . S
C1014 C1019 1.399 . S
C1015 C1014 1.399 . S
C1015 C1016 1.376 . S
C1016 H1003 0.930 . S
C1016 C1015 1.376 . S
C1016 C1017 1.388 . S
C1017 H1004 0.930 . S
C1017 C1016 1.388 . S
C1017 C1018 1.390 . S
C1018 C1017 1.390 . S
C1018 C1019 1.394 . S
C1018 C1024 1.465 . S
C1019 C1014 1.399 . S
C1019 C1018 1.394 . S
C1019 C1020 1.516 . S
C1020 C1019 1.516 . S
C1020 C1021 1.502 . S
C1020 C1022 1.561 . S
C1020 C1023 1.526 . S
C1021 H1005 0.959 . S
C1021 H1006 0.959 . S
C1021 H1007 0.961 . S
C1021 C1020 1.502 . S
C1022 H1008 0.960 . S
C1022 H1009 0.961 . S
C1022 H1010 0.959 . S
C1022 C1020 1.561 . S
C1023 C1020 1.526 . S
C1023 C1024 1.396 . S
C1023 C1028 1.390 . S
C1024 C1018 1.465 . S
C1024 C1023 1.396 . S
C1024 C1025 1.399 . S
C1025 H1011 0.929 . S
C1025 C1024 1.399 . S
C1025 C1026 1.385 . S
C1026 H1012 0.931 . S
C1026 C1025 1.385 . S
C1026 C1027 1.389 . S
C1027 C1026 1.389 . S
C1027 C1028 1.387 . S
C1028 H1013 0.930 . S
C1028 C1023 1.390 . S
C1028 C1027 1.387 . S
C394 C45 1.915 . S
C406 C299 1.808 . S
C421 C84 1.662 . S
C433 C346 1.655 . S
C460 C350 1.799 . S
C448 C126 1.880 . S
C487 C315 1.560 . S
C475 C165 1.557 . S
C502 C222 1.791 . S
C514 C330 1.696 . S
C541 C352 1.067 . S
C529 C276 1.047 . S
C568 C321 1.439 . S
C556 C141 1.520 . S
C583 C180 1.449 . S
C595 C361 1.446 . S
C622 C290 1.310 . S
C610 C237 1.413 . S
C637 C261 1.496 . S
C649 C319 1.451 . S
C664 C30 1.958 1_556 S
C676 C377 1.884 . S
C703 C288 1.527 . S
C691 C69 1.607 . S
C730 C306 1.819 . S
C718 C174 1.901 . S
C757 C320 1.598 . S
C745 C213 1.669 . S
C784 C374 1.853 . S
C772 C285 1.838 . S
C811 C289 1.554 . S
C799 C36 1.562 1_556 S
C838 C337 1.772 . S
C826 C93 1.745 . S
C853 C117 1.064 . S
C865 C360 1.054 . S
C892 C329 1.465 . S
C880 C270 1.504 . S
C919 C368 1.402 . S
C907 C21 1.448 . S
C946 C298 1.303 . S
C934 C78 1.421 . S
C973 C343 1.419 . S
C961 C132 1.518 . S
C988 C189 1.950 . S
C1000 C351 1.893 . S
C1015 C228 1.558 . S
C1027 C312 1.575 . S
