# Generated by pormake.
# Topology pyr, (3,6)-cn, num edge types: 1
# Building blocks:
#     Node 0, Type 0, BuildingBlock: BETDIP_clean_linker_0, # of connection points: 3
#     Node 1, Type 0, BuildingBlock: BETDIP_clean_linker_0, # of connection points: 3
#     Node 2, Type 0, BuildingBlock: BETDIP_clean_linker_0, # of connection points: 3
#     Node 3, Type 0, BuildingBlock: BETDIP_clean_linker_0, # of connection points: 3
#     Node 4, Type 0, BuildingBlock: BETDIP_clean_linker_0, # of connection points: 3
#     Node 5, Type 0, BuildingBlock: BETDIP_clean_linker_0, # of connection points: 3
#     Node 6, Type 0, BuildingBlock: BETDIP_clean_linker_0, # of connection points: 3
#     Node 7, Type 0, BuildingBlock: BETDIP_clean_linker_0, # of connection points: 3
#     Node 8, Type 1, BuildingBlock: BETDEL_clean_sbu_0, # of connection points: 6
#     Node 9, Type 1, BuildingBlock: BETDEL_clean_sbu_0, # of connection points: 6
#     Node 10, Type 1, BuildingBlock: BETDEL_clean_sbu_0, # of connection points: 6
#     Node 11, Type 1, BuildingBlock: BETDEL_clean_sbu_0, # of connection points: 6
#     Edge 12, Type (0, 1), BuildingBlock: KIFKEQ_clean_linker_1, # of connection points: 2
#     Edge 13, Type (0, 1), BuildingBlock: KIFKEQ_clean_linker_1, # of connection points: 2
#     Edge 14, Type (0, 1), BuildingBlock: KIFKEQ_clean_linker_1, # of connection points: 2
#     Edge 15, Type (0, 1), BuildingBlock: KIFKEQ_clean_linker_1, # of connection points: 2
#     Edge 16, Type (0, 1), BuildingBlock: KIFKEQ_clean_linker_1, # of connection points: 2
#     Edge 17, Type (0, 1), BuildingBlock: KIFKEQ_clean_linker_1, # of connection points: 2
#     Edge 18, Type (0, 1), BuildingBlock: KIFKEQ_clean_linker_1, # of connection points: 2
#     Edge 19, Type (0, 1), BuildingBlock: KIFKEQ_clean_linker_1, # of connection points: 2
#     Edge 20, Type (0, 1), BuildingBlock: KIFKEQ_clean_linker_1, # of connection points: 2
#     Edge 21, Type (0, 1), BuildingBlock: KIFKEQ_clean_linker_1, # of connection points: 2
#     Edge 22, Type (0, 1), BuildingBlock: KIFKEQ_clean_linker_1, # of connection points: 2
#     Edge 23, Type (0, 1), BuildingBlock: KIFKEQ_clean_linker_1, # of connection points: 2
#     Edge 24, Type (0, 1), BuildingBlock: KIFKEQ_clean_linker_1, # of connection points: 2
#     Edge 25, Type (0, 1), BuildingBlock: KIFKEQ_clean_linker_1, # of connection points: 2
#     Edge 26, Type (0, 1), BuildingBlock: KIFKEQ_clean_linker_1, # of connection points: 2
#     Edge 27, Type (0, 1), BuildingBlock: KIFKEQ_clean_linker_1, # of connection points: 2
#     Edge 28, Type (0, 1), BuildingBlock: KIFKEQ_clean_linker_1, # of connection points: 2
#     Edge 29, Type (0, 1), BuildingBlock: KIFKEQ_clean_linker_1, # of connection points: 2
#     Edge 30, Type (0, 1), BuildingBlock: KIFKEQ_clean_linker_1, # of connection points: 2
#     Edge 31, Type (0, 1), BuildingBlock: KIFKEQ_clean_linker_1, # of connection points: 2
#     Edge 32, Type (0, 1), BuildingBlock: KIFKEQ_clean_linker_1, # of connection points: 2
#     Edge 33, Type (0, 1), BuildingBlock: KIFKEQ_clean_linker_1, # of connection points: 2
#     Edge 34, Type (0, 1), BuildingBlock: KIFKEQ_clean_linker_1, # of connection points: 2
#     Edge 35, Type (0, 1), BuildingBlock: KIFKEQ_clean_linker_1, # of connection points: 2
# Relax obj value: 0.065
# Max RMSD: 0.180
# Mean RMSD: 0.131
data_MOF--net-pyr--node1-BETDEL_clean_sbu_0--node2-BETDIP_clean_linker_0--edge1-KIFKEQ_clean_linker_1
_symmetry_space_group_name_H-M    P1
_symmetry_Int_Tables_number       1
_symmetry_cell_setting            triclinic
loop_
_symmetry_equiv_pos_as_xyz
'x, y, z'
_cell_length_a     37.448621
_cell_length_b     37.21207
_cell_length_c     36.799091
_cell_angle_alpha  91.74312
_cell_angle_beta   86.459593
_cell_angle_gamma 99.713534
loop_
_atom_site_label
_atom_site_type_symbol
_atom_site_fract_x
_atom_site_fract_y
_atom_site_fract_z
_atom_type_partial_charge
H0 H 0.178 0.23213 0.21704 0.0
H1 H 0.27066 0.23421 0.14182 0.0
H2 H 0.23572 0.14156 0.21004 0.0
H3 H 0.18815 0.29345 0.20749 0.0
C4 C 0.19425 0.29268 0.17825 0.0
C5 C 0.20035 0.21968 0.20553 0.0
C6 C 0.2045 0.18523 0.21746 0.0
C7 C 0.2244 0.23746 0.17833 0.0
C8 C 0.25254 0.22056 0.16312 0.0
C9 C 0.25706 0.18613 0.17469 0.0
C10 C 0.23309 0.16874 0.20201 0.0
N11 N 0.21909 0.27065 0.16327 0.0
H12 H 0.25281 0.85836 0.72075 0.0
H13 H 0.26726 0.78478 0.63103 0.0
H14 H 0.34336 0.79999 0.71478 0.0
H15 H 0.24046 0.82456 0.60083 0.0
C16 C 0.2218 0.83545 0.62022 0.0
C17 C 0.26856 0.83953 0.70712 0.0
C18 C 0.29969 0.83138 0.72255 0.0
C19 C 0.25755 0.82424 0.67353 0.0
C20 C 0.27629 0.79806 0.65621 0.0
C21 C 0.30701 0.78893 0.67147 0.0
C22 C 0.31894 0.80631 0.704 0.0
N23 N 0.22783 0.83636 0.65805 0.0
H24 H 0.70558 0.40489 0.83706 0.0
H25 H 0.6165 0.31536 0.83593 0.0
H26 H 0.6979 0.31862 0.91394 0.0
H27 H 0.6161 0.33082 0.77723 0.0
C28 C 0.62221 0.36041 0.77769 0.0
C29 C 0.69157 0.37928 0.84805 0.0
C30 C 0.7054 0.36394 0.87751 0.0
C31 C 0.65979 0.36188 0.83251 0.0
C32 C 0.64163 0.32864 0.84688 0.0
C33 C 0.65518 0.31273 0.87625 0.0
C34 C 0.68687 0.33087 0.89171 0.0
N35 N 0.64653 0.37887 0.80306 0.0
H36 H 0.82011 0.59735 0.36839 0.0
H37 H 0.89559 0.69631 0.35043 0.0
H38 H 0.80998 0.69413 0.43341 0.0
H39 H 0.88559 0.67639 0.29064 0.0
C40 C 0.88695 0.64754 0.29222 0.0
C41 C 0.82929 0.62567 0.37566 0.0
C42 C 0.81108 0.64293 0.40395 0.0
C43 C 0.85858 0.64517 0.35529 0.0
C44 C 0.87201 0.68143 0.36513 0.0
C45 C 0.8547 0.69881 0.39365 0.0
C46 C 0.82391 0.67982 0.41238 0.0
N47 N 0.873 0.62816 0.32406 0.0
H48 H 0.72831 0.81045 0.8974 0.0
H49 H 0.81797 0.80284 0.82048 0.0
H50 H 0.76192 0.89434 0.81871 0.0
H51 H 0.7988 0.74058 0.83209 0.0
C52 C 0.79782 0.7444 0.86152 0.0
C53 C 0.74591 0.82144 0.87446 0.0
C54 C 0.74132 0.85424 0.85902 0.0
C55 C 0.773 0.80246 0.86037 0.0
C56 C 0.79632 0.81685 0.83099 0.0
C57 C 0.79237 0.8499 0.81561 0.0
C58 C 0.76457 0.86825 0.82964 0.0
N59 N 0.77801 0.77046 0.87796 0.0
H60 H 0.72452 0.15714 0.31453 0.0
H61 H 0.72581 0.23917 0.39968 0.0
H62 H 0.65273 0.23607 0.3139 0.0
H63 H 0.78071 0.22443 0.4095 0.0
C64 C 0.78005 0.19622 0.40075 0.0
C65 C 0.71456 0.1809 0.32624 0.0
C66 C 0.68689 0.19467 0.30987 0.0
C67 C 0.72937 0.19696 0.35809 0.0
C68 C 0.71575 0.22713 0.37439 0.0
C69 C 0.68747 0.24074 0.35876 0.0
C70 C 0.6737 0.2247 0.32639 0.0
N71 N 0.75655 0.1806 0.37348 0.0
H72 H 0.30683 0.6351 0.18594 0.0
H73 H 0.39346 0.72677 0.18866 0.0
H74 H 0.31285 0.7206 0.10906 0.0
H75 H 0.39457 0.71066 0.24676 0.0
C76 C 0.3889 0.68107 0.24615 0.0
C77 C 0.32038 0.66091 0.17504 0.0
C78 C 0.30569 0.67644 0.1463 0.0
C79 C 0.35172 0.67906 0.19084 0.0
C80 C 0.36918 0.71277 0.17675 0.0
C81 C 0.35554 0.72835 0.14709 0.0
C82 C 0.32359 0.70978 0.13228 0.0
N83 N 0.3652 0.66235 0.22036 0.0
H84 H 0.11661 0.32443 0.67975 0.0
H85 H 0.19733 0.42007 0.66803 0.0
H86 H 0.20419 0.3266 0.59803 0.0
H87 H 0.19051 0.41964 0.73022 0.0
C88 C 0.16124 0.41257 0.73471 0.0
C89 C 0.14129 0.33829 0.666 0.0
C90 C 0.15783 0.3216 0.63622 0.0
C91 C 0.15666 0.37285 0.67873 0.0
C92 C 0.18729 0.39222 0.65987 0.0
C93 C 0.20459 0.37602 0.63029 0.0
C94 C 0.19004 0.3403 0.61934 0.0
N95 N 0.14103 0.38737 0.71082 0.0
Dy96 Dy 0.01251 0.02024 0.47564 0.0
C97 C 0.95526 0.97722 0.616 0.0
C98 C 0.03912 0.04884 0.4101 0.0
Dy99 Dy 0.9817 1.00562 0.55037 0.0
O100 O 0.04681 0.01952 0.42358 0.0
O101 O 0.01635 0.06248 0.43223 0.0
O102 O 0.04076 0.97201 0.47742 0.0
O103 O 0.03543 1.00357 0.52506 0.0
C104 C 0.04622 0.97531 0.51185 0.0
C105 C 0.94788 0.05052 0.51415 0.0
O106 O 0.02699 0.04971 0.56423 0.0
O107 O 0.03433 0.0719 0.50588 0.0
O108 O 0.94812 1.0069 0.60279 0.0
O109 O 0.97737 0.96307 0.59353 0.0
O110 O 0.95307 0.05359 0.54865 0.0
O111 O 0.95878 0.0223 0.50097 0.0
O112 O 0.96758 0.97576 0.46174 0.0
O113 O 0.96005 0.9539 0.52024 0.0
C114 C 0.03985 0.07583 0.54106 0.0
C115 C 0.95478 0.9497 0.48502 0.0
Dy116 Dy 0.52623 0.03578 0.03873 0.0
C117 C 0.42047 0.96658 0.93659 0.0
C118 C 0.57061 0.07472 0.08736 0.0
Dy119 Dy 0.46995 1.0073 0.9789 0.0
O120 O 0.56864 0.04013 0.08008 0.0
O121 O 0.54867 0.08823 0.06768 0.0
O122 O 0.52293 0.97806 0.05623 0.0
O123 O 0.47736 0.99403 0.03531 0.0
C124 C 0.49028 0.96725 0.04593 0.0
C125 C 0.51228 0.07083 0.95879 0.0
O126 O 0.43428 0.03276 0.01927 0.0
O127 O 0.4776 0.05973 0.05944 0.0
O128 O 0.4248 1.00179 0.94089 0.0
O129 O 0.44275 0.95324 0.95615 0.0
O130 O 0.48677 0.05358 0.93939 0.0
O131 O 0.51297 0.05263 0.9868 0.0
O132 O 0.5623 0.02107 0.99227 0.0
O133 O 0.51804 0.98031 0.96364 0.0
C134 C 0.44417 0.05405 0.0478 0.0
C135 C 0.55252 0.99369 0.96907 0.0
Dy136 Dy 0.51735 0.4919 0.48616 0.0
C137 C 0.44936 0.5947 0.57488 0.0
C138 C 0.55896 0.44642 0.45077 0.0
Dy139 Dy 0.49159 0.54989 0.53943 0.0
O140 O 0.52424 0.44459 0.44814 0.0
O141 O 0.57108 0.47366 0.47206 0.0
O142 O 0.45919 0.46634 0.47951 0.0
O143 O 0.47475 0.49208 0.52898 0.0
C144 C 0.44822 0.47745 0.51143 0.0
C145 C 0.56084 0.56363 0.51492 0.0
O146 O 0.50492 0.51209 0.58093 0.0
O147 O 0.53731 0.47874 0.54026 0.0
O148 O 0.48434 0.59782 0.57653 0.0
O149 O 0.43743 0.5666 0.55457 0.0
O150 O 0.54981 0.57474 0.54685 0.0
O151 O 0.53437 0.54953 0.49702 0.0
O152 O 0.50452 0.52992 0.44466 0.0
O153 O 0.47206 0.56332 0.48518 0.0
C154 C 0.5272 0.48812 0.57406 0.0
C155 C 0.48233 0.55397 0.45141 0.0
Dy156 Dy 0.01289 0.48381 0.02043 0.0
C157 C 0.96779 0.617 0.98656 0.0
C158 C 0.04305 0.42406 0.03282 0.0
Dy159 Dy -0.00115 0.55752 0.99789 0.0
O160 O 0.01214 0.43038 0.04721 0.0
O161 O 0.05707 0.45001 0.01085 0.0
O162 O 0.96905 0.48239 0.06523 0.0
O163 O 0.0003 0.5322 0.04973 0.0
C164 C 0.97352 0.51758 0.06939 0.0
C165 C 0.03962 0.52494 0.9496 0.0
O166 O 0.04703 0.57754 0.03041 0.0
O167 O 0.06493 0.52098 0.03367 0.0
O168 O 0.99562 0.60823 0.96778 0.0
O169 O 0.9574 0.59366 0.01218 0.0
O170 O 0.04338 0.56007 0.95418 0.0
O171 O 0.01242 0.50945 0.96834 0.0
O172 O 0.96651 0.46434 0.98551 0.0
O173 O 0.94638 0.51993 0.98664 0.0
C174 C 0.0712 0.55702 0.03815 0.0
C175 C 0.94119 0.4842 0.98002 0.0
H176 H 0.21913 0.14595 0.27451 0.0
H177 H 0.13048 0.18017 0.22238 0.0
H178 H 0.176 0.11169 0.31823 0.0
H179 H 0.08733 0.14627 0.26668 0.0
H180 H 0.03208 0.11453 0.38278 0.0
H181 H 0.07056 0.14772 0.33428 0.0
H182 H 0.12778 0.05658 0.3166 0.0
H183 H 0.08966 0.02369 0.36502 0.0
C184 C 0.19043 0.14602 0.27229 0.0
C185 C 0.17823 0.16568 0.24493 0.0
C186 C 0.16575 0.1264 0.29729 0.0
C187 C 0.12833 0.12611 0.2956 0.0
C188 C 0.11606 0.14624 0.26869 0.0
C189 C 0.14078 0.16573 0.24348 0.0
C190 C 0.0525 0.10147 0.36804 0.0
C191 C 0.05818 0.06676 0.3777 0.0
C192 C 0.07445 0.12039 0.34034 0.0
C193 C 0.10245 0.10487 0.32211 0.0
C194 C 0.10684 0.06942 0.33069 0.0
C195 C 0.08488 0.05053 0.3582 0.0
H196 H 0.29293 0.90033 0.74885 0.0
H197 H 0.33627 0.80444 0.77585 0.0
H198 H 0.31528 0.93044 0.80382 0.0
H199 H 0.36301 0.83646 0.82817 0.0
H200 H 0.39376 0.89346 0.93375 0.0
H201 H 0.35939 0.85981 0.88562 0.0
H202 H 0.36607 0.96035 0.8273 0.0
H203 H 0.39723 0.99362 0.87677 0.0
C204 C 0.30717 0.88545 0.76636 0.0
C205 C 0.3128 0.84974 0.75722 0.0
C206 C 0.32088 0.90324 0.7978 0.0
C207 C 0.34184 0.88648 0.82057 0.0
C208 C 0.34685 0.8505 0.81185 0.0
C209 C 0.33209 0.83225 0.78103 0.0
C210 C 0.38717 0.90817 0.9108 0.0
C211 C 0.3979 0.94605 0.90897 0.0
C212 C 0.36781 0.88892 0.8829 0.0
C213 C 0.3598 0.90705 0.85201 0.0
C214 C 0.37057 0.94517 0.85072 0.0
C215 C 0.38884 0.96442 0.87906 0.0
H216 H 0.58421 0.33079 0.72092 0.0
H217 H 0.62729 0.43468 0.7699 0.0
H218 H 0.56048 0.36198 0.67262 0.0
H219 H 0.60355 0.46603 0.72143 0.0
H220 H 0.52149 0.5051 0.64725 0.0
H221 H 0.54409 0.47505 0.69731 0.0
H222 H 0.58594 0.40043 0.62031 0.0
H223 H 0.56346 0.43013 0.57051 0.0
C224 C 0.5886 0.36033 0.72131 0.0
C225 C 0.60777 0.38025 0.74902 0.0
C226 C 0.57514 0.3782 0.69359 0.0
C227 C 0.58026 0.4165 0.69307 0.0
C228 C 0.59895 0.4365 0.72119 0.0
C229 C 0.61274 0.41855 0.74882 0.0
C230 C 0.53545 0.48224 0.64102 0.0
C231 C 0.54052 0.47002 0.6048 0.0
C232 C 0.54859 0.46518 0.66969 0.0
C233 C 0.56672 0.43528 0.66281 0.0
C234 C 0.57172 0.4231 0.62662 0.0
C235 C 0.55894 0.44031 0.59801 0.0
H236 H 0.89821 0.5767 0.2851 0.0
H237 H 0.8997 0.67459 0.22457 0.0
H238 H 0.91635 0.5454 0.2296 0.0
H239 H 0.91657 0.64302 0.16868 0.0
H240 H 0.99047 0.58915 0.08817 0.0
H241 H 0.9678 0.62025 0.14154 0.0
H242 H 0.89577 0.52091 0.17192 0.0
H243 H 0.91963 0.48942 0.11889 0.0
C244 C 0.90213 0.5914 0.25982 0.0
C245 C 0.89772 0.62807 0.25898 0.0
C246 C 0.91222 0.5734 0.22796 0.0
C247 C 0.91784 0.59167 0.19466 0.0
C248 C 0.91298 0.6283 0.19394 0.0
C249 C 0.90322 0.64635 0.22585 0.0
C250 C 0.96961 0.57404 0.10613 0.0
C251 C 0.95696 0.53685 0.09969 0.0
C252 C 0.95643 0.59191 0.13661 0.0
C253 C 0.93007 0.57304 0.16112 0.0
C254 C 0.91654 0.53605 0.15391 0.0
C255 C 0.92996 0.51808 0.12347 0.0
H256 H 0.27449 0.18043 0.10202 0.0
H257 H 0.30326 0.14919 0.20708 0.0
H258 H 0.32012 0.14818 0.07225 0.0
H259 H 0.34833 0.11601 0.17717 0.0
H260 H 0.45199 0.09697 0.10947 0.0
H261 H 0.40704 0.12903 0.14072 0.0
H262 H 0.32882 0.08406 0.06297 0.0
H263 H 0.37371 0.05233 0.03134 0.0
C264 C 0.29076 0.16686 0.11873 0.0
C265 C 0.28546 0.16738 0.15685 0.0
C266 C 0.31655 0.14805 0.10169 0.0
C267 C 0.33759 0.12945 0.12242 0.0
C268 C 0.33261 0.13031 0.16057 0.0
C269 C 0.30668 0.14902 0.17763 0.0
C270 C 0.42519 0.09378 0.09907 0.0
C271 C 0.41651 0.07217 0.0678 0.0
C272 C 0.39942 0.11202 0.1171 0.0
C273 C 0.36455 0.10914 0.10415 0.0
C274 C 0.35569 0.08716 0.07323 0.0
C275 C 0.38138 0.06881 0.05527 0.0
H276 H 0.21244 0.848 0.54974 0.0
H277 H 0.16847 0.86611 0.65864 0.0
H278 H 0.16889 0.88118 0.52517 0.0
H279 H 0.1239 0.89839 0.63409 0.0
H280 H 0.07633 0.98845 0.57814 0.0
H281 H 0.11754 0.95383 0.60552 0.0
H282 H 0.10678 0.87697 0.51477 0.0
H283 H 0.06691 0.91224 0.48711 0.0
C284 C 0.19314 0.85879 0.56838 0.0
C285 C 0.19391 0.85445 0.60603 0.0
C286 C 0.16797 0.87766 0.55433 0.0
C287 C 0.1426 0.89244 0.57757 0.0
C288 C 0.14325 0.88783 0.61536 0.0
C289 C 0.16866 0.8691 0.62945 0.0
C290 C 0.08274 0.96405 0.56424 0.0
C291 C 0.06877 0.95324 0.53033 0.0
C292 C 0.10621 0.94407 0.57998 0.0
C293 C 0.11593 0.91272 0.56221 0.0
C294 C 0.10074 0.90139 0.52887 0.0
C295 C 0.07763 0.92148 0.51309 0.0
H296 H 0.71754 0.38365 0.94832 0.0
H297 H 0.77083 0.38439 0.84092 0.0
H298 H 0.77474 0.41315 0.97336 0.0
H299 H 0.82817 0.41307 0.86606 0.0
H300 H 0.92849 0.42096 0.93953 0.0
H301 H 0.87123 0.3921 0.91452 0.0
H302 H 0.8183 0.47788 0.96263 0.0
H303 H 0.87566 0.50731 0.98695 0.0
C304 C 0.74154 0.39005 0.93017 0.0
C305 C 0.73985 0.38191 0.89272 0.0
C306 C 0.77412 0.40699 0.94442 0.0
C307 C 0.80578 0.41528 0.9216 0.0
C308 C 0.80416 0.40679 0.88422 0.0
C309 C 0.77141 0.39061 0.86985 0.0
C310 C 0.90464 0.43365 0.94477 0.0
C311 C 0.90657 0.46642 0.96516 0.0
C312 C 0.87198 0.41722 0.93034 0.0
C313 C 0.84044 0.43279 0.93672 0.0
C314 C 0.84222 0.46527 0.95748 0.0
C315 C 0.87506 0.48215 0.97122 0.0
H316 H 0.75857 0.59032 0.37617 0.0
H317 H 0.78676 0.65126 0.47528 0.0
H318 H 0.70108 0.5636 0.4053 0.0
H319 H 0.7274 0.62822 0.50277 0.0
H320 H 0.62188 0.57265 0.55283 0.0
H321 H 0.68464 0.58352 0.52806 0.0
H322 H 0.64639 0.58097 0.41911 0.0
H323 H 0.58432 0.56721 0.44401 0.0
C324 C 0.75279 0.59793 0.40426 0.0
C325 C 0.77737 0.6236 0.42303 0.0
C326 C 0.71926 0.58311 0.42081 0.0
C327 C 0.70885 0.5944 0.45615 0.0
C328 C 0.73418 0.6186 0.47558 0.0
C329 C 0.76817 0.63254 0.45943 0.0
C330 C 0.62723 0.57412 0.52359 0.0
C331 C 0.59858 0.56944 0.50024 0.0
C332 C 0.66312 0.58055 0.50932 0.0
C333 C 0.67094 0.58344 0.47146 0.0
C334 C 0.64185 0.57815 0.44828 0.0
C335 C 0.60611 0.57071 0.46252 0.0
H336 H 0.20002 0.295 0.10361 0.0
H337 H 0.14008 0.32992 0.19852 0.0
H338 H 0.16158 0.32136 0.06427 0.0
H339 H 0.10199 0.35687 0.15919 0.0
H340 H 0.01845 0.37209 0.08268 0.0
H341 H 0.05507 0.33699 0.11551 0.0
H342 H 0.14996 0.38206 0.04849 0.0
H343 H 0.11311 0.41664 0.01525 0.0
C344 C 0.17877 0.30852 0.11607 0.0
C345 C 0.17291 0.31051 0.15412 0.0
C346 C 0.15681 0.32361 0.09352 0.0
C347 C 0.12857 0.34081 0.10864 0.0
C348 C 0.12308 0.34311 0.14674 0.0
C349 C 0.14508 0.3281 0.16925 0.0
C350 C 0.04695 0.37376 0.07442 0.0
C351 C 0.06311 0.39723 0.04673 0.0
C352 C 0.06796 0.35399 0.09342 0.0
C353 C 0.10548 0.35739 0.08503 0.0
C354 C 0.1211 0.37887 0.05553 0.0
C355 C 0.10004 0.39864 0.0365 0.0
H356 H 0.62995 0.25207 0.83611 0.0
H357 H 0.63917 0.2916 0.9472 0.0
H358 H 0.59801 0.19349 0.85752 0.0
H359 H 0.60636 0.23288 0.96887 0.0
H360 H 0.57059 0.10939 0.99338 0.0
H361 H 0.60749 0.16765 0.97456 0.0
H362 H 0.53967 0.17013 0.88409 0.0
H363 H 0.50405 0.11224 0.9022 0.0
C364 C 0.62486 0.24831 0.86517 0.0
C365 C 0.63668 0.27666 0.88992 0.0
C366 C 0.6065 0.21469 0.8775 0.0
C367 C 0.59909 0.20851 0.91497 0.0
C368 C 0.61179 0.23655 0.93986 0.0
C369 C 0.63047 0.27024 0.92745 0.0
C370 C 0.56378 0.12258 0.96952 0.0
C371 C 0.53463 0.10626 0.94913 0.0
C372 C 0.58475 0.15595 0.95879 0.0
C373 C 0.57685 0.17347 0.92751 0.0
C374 C 0.54721 0.15714 0.90775 0.0
C375 C 0.52655 0.12399 0.91831 0.0
H376 H 0.81829 0.75643 0.39796 0.0
H377 H 0.92264 0.72628 0.41327 0.0
H378 H 0.84116 0.81894 0.41888 0.0
H379 H 0.94522 0.78845 0.43481 0.0
H380 H 0.94657 0.8848 0.51884 0.0
H381 H 0.92177 0.82474 0.49447 0.0
H382 H 0.8972 0.87355 0.39614 0.0
H383 H 0.9228 0.93407 0.42015 0.0
C384 C 0.84611 0.76334 0.40568 0.0
C385 C 0.86882 0.73684 0.40416 0.0
C386 C 0.85915 0.79892 0.41743 0.0
C387 C 0.89477 0.80814 0.42848 0.0
C388 C 0.91757 0.78174 0.42652 0.0
C389 C 0.90478 0.74641 0.41412 0.0
C390 C 0.93556 0.88288 0.49218 0.0
C391 C 0.93661 0.9141 0.47134 0.0
C392 C 0.92164 0.84851 0.47821 0.0
C393 C 0.90792 0.84478 0.44347 0.0
C394 C 0.9077 0.87597 0.42304 0.0
C395 C 0.92234 0.91043 0.43674 0.0
H396 H 0.37942 0.79552 0.65319 0.0
H397 H 0.27925 0.71907 0.65135 0.0
H398 H 0.41291 0.74834 0.62939 0.0
H399 H 0.31268 0.67108 0.62911 0.0
H400 H 0.38026 0.60034 0.55966 0.0
H401 H 0.34552 0.6476 0.58061 0.0
H402 H 0.43348 0.69604 0.6466 0.0
H403 H 0.46871 0.64976 0.62399 0.0
C404 C 0.36462 0.76848 0.64769 0.0
C405 C 0.32678 0.76091 0.65409 0.0
C406 C 0.38381 0.74125 0.63438 0.0
C407 C 0.36573 0.70551 0.62769 0.0
C408 C 0.32764 0.69825 0.63345 0.0
C409 C 0.30839 0.72571 0.64626 0.0
C410 C 0.39201 0.62104 0.5788 0.0
C411 C 0.42718 0.62146 0.59018 0.0
C412 C 0.37204 0.64812 0.59097 0.0
C413 C 0.38661 0.67603 0.61522 0.0
C414 C 0.42156 0.67566 0.62728 0.0
C415 C 0.44169 0.64889 0.61467 0.0
H416 H 0.77663 0.88345 0.75512 0.0
H417 H 0.86622 0.85347 0.80924 0.0
H418 H 0.81909 0.91463 0.70889 0.0
H419 H 0.90867 0.88411 0.7623 0.0
H420 H 0.96224 0.91173 0.64396 0.0
H421 H 0.9242 0.87943 0.69339 0.0
H422 H 0.86742 0.97095 0.7101 0.0
H423 H 0.90515 1.00302 0.66097 0.0
C424 C 0.80537 0.88352 0.75715 0.0
C425 C 0.81807 0.86625 0.78599 0.0
C426 C 0.82965 0.90134 0.7307 0.0
C427 C 0.86712 0.90207 0.73235 0.0
C428 C 0.87987 0.8838 0.76041 0.0
C429 C 0.85555 0.86617 0.78712 0.0
C430 C 0.94199 0.92505 0.65866 0.0
C431 C 0.93634 0.95966 0.64862 0.0
C432 C 0.92031 0.90664 0.68686 0.0
C433 C 0.8926 0.92256 0.70507 0.0
C434 C 0.88817 0.95784 0.696 0.0
C435 C 0.9099 0.97626 0.66809 0.0
H436 H 0.61588 0.18401 0.29164 0.0
H437 H 0.72248 0.16622 0.25103 0.0
H438 H 0.59061 0.15749 0.2356 0.0
H439 H 0.69665 0.13841 0.19544 0.0
H440 H 0.62155 0.05113 0.126 0.0
H441 H 0.65162 0.08134 0.1786 0.0
H442 H 0.5957 0.17258 0.16804 0.0
H443 H 0.56585 0.14248 0.11525 0.0
C444 C 0.63404 0.17478 0.2707 0.0
C445 C 0.67135 0.17755 0.2759 0.0
C446 C 0.61948 0.15949 0.23862 0.0
C447 C 0.64171 0.14611 0.21111 0.0
C448 C 0.67887 0.14836 0.21632 0.0
C449 C 0.69358 0.16411 0.24826 0.0
C450 C 0.61609 0.07785 0.13467 0.0
C451 C 0.59137 0.09449 0.11669 0.0
C452 C 0.63335 0.09515 0.16466 0.0
C453 C 0.62581 0.12918 0.1775 0.0
C454 C 0.60173 0.14619 0.15892 0.0
C455 C 0.58484 0.1291 0.12863 0.0
H456 H 0.42573 0.71098 0.3036 0.0
H457 H 0.38444 0.60687 0.25401 0.0
H458 H 0.44902 0.68004 0.35238 0.0
H459 H 0.40769 0.57578 0.30296 0.0
H460 H 0.48879 0.53716 0.37825 0.0
H461 H 0.46659 0.56711 0.32793 0.0
H462 H 0.4237 0.64147 0.40447 0.0
H463 H 0.44583 0.61186 0.45457 0.0
C464 C 0.42163 0.68144 0.30318 0.0
C465 C 0.4031 0.66139 0.27513 0.0
C466 C 0.43483 0.66371 0.33119 0.0
C467 C 0.43009 0.62542 0.33168 0.0
C468 C 0.41201 0.6053 0.30325 0.0
C469 C 0.3985 0.6231 0.27533 0.0
C470 C 0.4747 0.55995 0.38434 0.0
C471 C 0.46923 0.5721 0.42053 0.0
C472 C 0.46177 0.57695 0.3555 0.0
C473 C 0.44345 0.60675 0.36216 0.0
C474 C 0.43807 0.61889 0.39832 0.0
C475 C 0.45065 0.60172 0.4271 0.0
H476 H 0.08915 0.39984 0.7578 0.0
H477 H 0.19401 0.45811 0.78563 0.0
H478 H 0.06107 0.42563 0.81188 0.0
H479 H 0.16604 0.48348 0.8401 0.0
H480 H 0.09502 0.55633 0.9041 0.0
H481 H 0.12506 0.52757 0.85325 0.0
H482 H 0.05869 0.42382 0.87908 0.0
H483 H 0.02818 0.45288 0.92979 0.0
C484 C 0.10621 0.41798 0.7756 0.0
C485 C 0.14374 0.42718 0.76757 0.0
C486 C 0.09018 0.43253 0.8067 0.0
C487 C 0.11137 0.45656 0.8302 0.0
C488 C 0.14897 0.46537 0.82227 0.0
C489 C 0.16498 0.45079 0.79123 0.0
C490 C 0.08702 0.52734 0.89901 0.0
C491 C 0.05919 0.50682 0.9206 0.0
C492 C 0.10434 0.51084 0.87005 0.0
C493 C 0.09414 0.47347 0.86214 0.0
C494 C 0.06677 0.45277 0.88428 0.0
C495 C 0.04948 0.46931 0.91336 0.0
H496 H 0.69351 0.88451 0.82185 0.0
H497 H 0.72603 0.87039 0.9304 0.0
H498 H 0.64847 0.92048 0.84684 0.0
H499 H 0.68063 0.90585 0.95543 0.0
H500 H 0.6247 1.00415 0.98171 0.0
H501 H 0.67057 0.97099 0.9539 0.0
H502 H 0.59056 0.90957 0.88632 0.0
H503 H 0.5446 0.94277 0.91385 0.0
C504 C 0.69094 0.88911 0.85104 0.0
C505 C 0.71314 0.87472 0.87425 0.0
C506 C 0.6651 0.90946 0.86531 0.0
C507 C 0.66125 0.91601 0.903 0.0
C508 C 0.68337 0.90151 0.92622 0.0
C509 C 0.709 0.88092 0.91197 0.0
C510 C 0.61692 0.98385 0.96066 0.0
C511 C 0.58097 0.97597 0.95009 0.0
C512 C 0.64314 0.96472 0.94497 0.0
C513 C 0.63397 0.93758 0.91822 0.0
C514 C 0.59835 0.9305 0.90679 0.0
C515 C 0.57204 0.94942 0.92267 0.0
H516 H 0.83328 0.22078 0.44658 0.0
H517 H 0.78538 0.12394 0.38829 0.0
H518 H 0.87605 0.18676 0.47171 0.0
H519 H 0.82732 0.08957 0.41416 0.0
H520 H 0.91621 0.10586 0.54355 0.0
H521 H 0.8768 0.14094 0.51507 0.0
H522 H 0.88963 0.08098 0.41397 0.0
H523 H 0.9285 0.04496 0.44316 0.0
C524 C 0.83186 0.19217 0.43925 0.0
C525 C 0.80598 0.1751 0.41554 0.0
C526 C 0.85624 0.17257 0.45377 0.0
C527 C 0.85516 0.13527 0.44513 0.0
C528 C 0.82936 0.11831 0.42106 0.0
C529 C 0.80509 0.138 0.40641 0.0
C530 C 0.9107 0.1002 0.5152 0.0
C531 C 0.9253 0.07255 0.49563 0.0
C532 C 0.88827 0.12054 0.49874 0.0
C533 C 0.87997 0.11397 0.46212 0.0
C534 C 0.89502 0.08651 0.44235 0.0
C535 C 0.91745 0.06601 0.45895 0.0
H536 H 0.28832 0.60607 0.12127 0.0
H537 H 0.24545 0.70625 0.13715 0.0
H538 H 0.23236 0.57735 0.09425 0.0
H539 H 0.18872 0.67737 0.1121 0.0
H540 H 0.1042 0.62829 0.034 0.0
H541 H 0.16103 0.65653 0.05924 0.0
H542 H 0.17154 0.55341 0.10512 0.0
H543 H 0.11583 0.52497 0.07808 0.0
C544 C 0.26664 0.62175 0.11936 0.0
C545 C 0.27121 0.65838 0.13112 0.0
C546 C 0.23441 0.60529 0.10406 0.0
C547 C 0.2057 0.62491 0.10078 0.0
C548 C 0.21031 0.66148 0.11324 0.0
C549 C 0.24275 0.67806 0.12789 0.0
C550 C 0.11873 0.6117 0.04944 0.0
C551 C 0.10552 0.5744 0.05396 0.0
C552 C 0.15129 0.62793 0.0642 0.0
C553 C 0.17117 0.60743 0.08449 0.0
C554 C 0.15763 0.57009 0.08914 0.0
C555 C 0.12543 0.55374 0.07381 0.0
H556 H 0.25838 0.42617 0.65962 0.0
H557 H 0.22772 0.37116 0.55811 0.0
H558 H 0.31387 0.45663 0.62967 0.0
H559 H 0.28549 0.39777 0.52946 0.0
H560 H 0.3848 0.46479 0.47728 0.0
H561 H 0.32387 0.44622 0.50514 0.0
H562 H 0.36949 0.44543 0.61045 0.0
H563 H 0.42932 0.46696 0.58281 0.0
C564 C 0.26328 0.42049 0.6309 0.0
C565 C 0.23835 0.39574 0.61155 0.0
C566 C 0.29574 0.43748 0.61379 0.0
C567 C 0.30489 0.42927 0.57716 0.0
C568 C 0.27957 0.40522 0.55756 0.0
C569 C 0.24655 0.38917 0.57435 0.0
C570 C 0.3814 0.46096 0.50643 0.0
C571 C 0.41145 0.46714 0.52797 0.0
C572 C 0.34658 0.45003 0.52246 0.0
C573 C 0.3414 0.444 0.56021 0.0
C574 C 0.37188 0.45056 0.58155 0.0
C575 C 0.40639 0.46256 0.56568 0.0
H576 H 0.80506 0.74888 0.93544 0.0
H577 H 0.8453 0.70152 0.83574 0.0
H578 H 0.84864 0.72335 0.96936 0.0
H579 H 0.88851 0.6756 0.86964 0.0
H580 H 0.98462 0.66376 0.93062 0.0
H581 H 0.94366 0.69788 0.90275 0.0
H582 H 0.86055 0.66259 0.98687 0.0
H583 H 0.90183 0.62887 0.01507 0.0
C584 C 0.82306 0.73282 0.92083 0.0
C585 C 0.82197 0.72712 0.88295 0.0
C586 C 0.84795 0.71822 0.94025 0.0
C587 C 0.87224 0.69792 0.92206 0.0
C588 C 0.87063 0.6918 0.88427 0.0
C589 C 0.84569 0.70625 0.86492 0.0
C590 C 0.9579 0.66402 0.9436 0.0
C591 C 0.94617 0.64349 0.97473 0.0
C592 C 0.93437 0.68325 0.92749 0.0
C593 C 0.89872 0.68223 0.94225 0.0
C594 C 0.88789 0.66384 0.97492 0.0
C595 C 0.91148 0.64458 0.99106 0.0
H596 H 0.32594 0.78197 0.11517 0.0
H597 H 0.42898 0.75544 0.14257 0.0
H598 H 0.35706 0.83683 0.08627 0.0
H599 H 0.45965 0.81252 0.11791 0.0
H600 H 0.51398 0.90254 0.04646 0.0
H601 H 0.48081 0.8444 0.06773 0.0
H602 H 0.38588 0.89491 0.09285 0.0
H603 H 0.41861 0.95201 0.06838 0.0
C604 C 0.35524 0.78771 0.11524 0.0
C605 C 0.37469 0.76359 0.13121 0.0
C606 C 0.3732 0.81989 0.09916 0.0
C607 C 0.41119 0.82969 0.09942 0.0
C608 C 0.43054 0.80594 0.11612 0.0
C609 C 0.41268 0.77325 0.13124 0.0
C610 C 0.4858 0.90082 0.056 0.0
C611 C 0.46879 0.93158 0.05578 0.0
C612 C 0.46678 0.86758 0.06877 0.0
C613 C 0.43053 0.86455 0.08289 0.0
C614 C 0.41342 0.89552 0.08184 0.0
C615 C 0.43221 0.92849 0.06795 0.0
H616 H 0.12291 0.26305 0.6758 0.0
H617 H 0.15628 0.29646 0.5656 0.0
H618 H 0.09497 0.2037 0.6528 0.0
H619 H 0.13151 0.23624 0.54305 0.0
H620 H 0.04775 0.14151 0.50897 0.0
H621 H 0.07626 0.20019 0.53255 0.0
H622 H 0.10587 0.14784 0.62703 0.0
H623 H 0.07529 0.08915 0.60409 0.0
C624 C 0.12443 0.25777 0.6467 0.0
C625 C 0.14177 0.28474 0.6226 0.0
C626 C 0.10895 0.22342 0.63353 0.0
C627 C 0.11091 0.21503 0.59601 0.0
C628 C 0.12883 0.24181 0.57204 0.0
C629 C 0.14366 0.27629 0.5851 0.0
C630 C 0.06056 0.14251 0.53467 0.0
C631 C 0.0594 0.11081 0.55469 0.0
C632 C 0.07713 0.17619 0.54816 0.0
C633 C 0.09361 0.1789 0.58169 0.0
C634 C 0.09294 0.14694 0.60143 0.0
C635 C 0.07569 0.11326 0.5882 0.0
H636 H 0.6164 0.23988 0.37819 0.0
H637 H 0.72084 0.3095 0.37788 0.0
H638 H 0.58707 0.29039 0.40074 0.0
H639 H 0.69146 0.36102 0.39912 0.0
H640 H 0.62708 0.43776 0.46722 0.0
H641 H 0.65949 0.3882 0.44731 0.0
H642 H 0.5715 0.34403 0.37961 0.0
H643 H 0.5387 0.39257 0.4009 0.0
C644 C 0.63305 0.26616 0.38305 0.0
C645 C 0.67083 0.27089 0.37619 0.0
C646 C 0.61625 0.29529 0.3956 0.0
C647 C 0.6367 0.33018 0.40111 0.0
C648 C 0.67477 0.33459 0.39539 0.0
C649 C 0.69168 0.30514 0.38323 0.0
C650 C 0.61489 0.41752 0.44788 0.0
C651 C 0.58031 0.41886 0.43572 0.0
C652 C 0.6335 0.38914 0.43635 0.0
C653 C 0.61803 0.36165 0.41215 0.0
C654 C 0.58394 0.36402 0.39902 0.0
C655 C 0.56522 0.39209 0.41089 0.0
loop_
_geom_bond_atom_site_label_1
_geom_bond_atom_site_label_2
_geom_bond_distance
_geom_bond_site_symmetry_2
_ccdc_geom_bond_type
H0 C5 0.930 . S
H1 C8 0.930 . S
H2 C10 0.930 . S
H3 C4 1.016 . S
C4 H3 1.016 . S
C4 N11 1.286 . S
C5 H0 0.930 . S
C5 C6 1.397 . S
C5 C7 1.361 . S
C6 C5 1.397 . S
C6 C10 1.390 . S
C7 C5 1.361 . S
C7 C8 1.393 . S
C7 N11 1.413 . S
C8 H1 0.930 . S
C8 C7 1.393 . S
C8 C9 1.399 . S
C9 C8 1.399 . S
C9 C10 1.381 . S
C10 H2 0.930 . S
C10 C6 1.390 . S
C10 C9 1.381 . S
N11 C4 1.286 . S
N11 C7 1.413 . S
H12 C17 0.930 . S
H13 C20 0.930 . S
H14 C22 0.930 . S
H15 C16 1.016 . S
C16 H15 1.016 . S
C16 N23 1.286 . S
C17 H12 0.930 . S
C17 C18 1.397 . S
C17 C19 1.361 . S
C18 C17 1.397 . S
C18 C22 1.390 . S
C19 C17 1.361 . S
C19 C20 1.393 . S
C19 N23 1.413 . S
C20 H13 0.930 . S
C20 C19 1.393 . S
C20 C21 1.399 . S
C21 C20 1.399 . S
C21 C22 1.381 . S
C22 H14 0.930 . S
C22 C18 1.390 . S
C22 C21 1.381 . S
N23 C16 1.286 . S
N23 C19 1.413 . S
H24 C29 0.930 . S
H25 C32 0.930 . S
H26 C34 0.930 . S
H27 C28 1.016 . S
C28 H27 1.016 . S
C28 N35 1.286 . S
C29 H24 0.930 . S
C29 C30 1.397 . S
C29 C31 1.361 . S
C30 C29 1.397 . S
C30 C34 1.390 . S
C31 C29 1.361 . S
C31 C32 1.393 . S
C31 N35 1.413 . S
C32 H25 0.930 . S
C32 C31 1.393 . S
C32 C33 1.399 . S
C33 C32 1.399 . S
C33 C34 1.381 . S
C34 H26 0.930 . S
C34 C30 1.390 . S
C34 C33 1.381 . S
N35 C28 1.286 . S
N35 C31 1.413 . S
H36 C41 0.930 . S
H37 C44 0.930 . S
H38 C46 0.930 . S
H39 C40 1.016 . S
C40 H39 1.016 . S
C40 N47 1.286 . S
C41 H36 0.930 . S
C41 C42 1.397 . S
C41 C43 1.361 . S
C42 C41 1.397 . S
C42 C46 1.390 . S
C43 C41 1.361 . S
C43 C44 1.393 . S
C43 N47 1.413 . S
C44 H37 0.930 . S
C44 C43 1.393 . S
C44 C45 1.399 . S
C45 C44 1.399 . S
C45 C46 1.381 . S
C46 H38 0.930 . S
C46 C42 1.390 . S
C46 C45 1.381 . S
N47 C40 1.286 . S
N47 C43 1.413 . S
H48 C53 0.930 . S
H49 C56 0.930 . S
H50 C58 0.930 . S
H51 C52 1.016 . S
C52 H51 1.016 . S
C52 N59 1.286 . S
C53 H48 0.930 . S
C53 C54 1.397 . S
C53 C55 1.361 . S
C54 C53 1.397 . S
C54 C58 1.390 . S
C55 C53 1.361 . S
C55 C56 1.393 . S
C55 N59 1.413 . S
C56 H49 0.930 . S
C56 C55 1.393 . S
C56 C57 1.399 . S
C57 C56 1.399 . S
C57 C58 1.381 . S
C58 H50 0.930 . S
C58 C54 1.390 . S
C58 C57 1.381 . S
N59 C52 1.286 . S
N59 C55 1.413 . S
H60 C65 0.930 . S
H61 C68 0.930 . S
H62 C70 0.930 . S
H63 C64 1.016 . S
C64 H63 1.016 . S
C64 N71 1.286 . S
C65 H60 0.930 . S
C65 C66 1.397 . S
C65 C67 1.361 . S
C66 C65 1.397 . S
C66 C70 1.390 . S
C67 C65 1.361 . S
C67 C68 1.393 . S
C67 N71 1.413 . S
C68 H61 0.930 . S
C68 C67 1.393 . S
C68 C69 1.399 . S
C69 C68 1.399 . S
C69 C70 1.381 . S
C70 H62 0.930 . S
C70 C66 1.390 . S
C70 C69 1.381 . S
N71 C64 1.286 . S
N71 C67 1.413 . S
H72 C77 0.930 . S
H73 C80 0.930 . S
H74 C82 0.930 . S
H75 C76 1.016 . S
C76 H75 1.016 . S
C76 N83 1.286 . S
C77 H72 0.930 . S
C77 C78 1.397 . S
C77 C79 1.361 . S
C78 C77 1.397 . S
C78 C82 1.390 . S
C79 C77 1.361 . S
C79 C80 1.393 . S
C79 N83 1.413 . S
C80 H73 0.930 . S
C80 C79 1.393 . S
C80 C81 1.399 . S
C81 C80 1.399 . S
C81 C82 1.381 . S
C82 H74 0.930 . S
C82 C78 1.390 . S
C82 C81 1.381 . S
N83 C76 1.286 . S
N83 C79 1.413 . S
H84 C89 0.930 . S
H85 C92 0.930 . S
H86 C94 0.930 . S
H87 C88 1.016 . S
C88 H87 1.016 . S
C88 N95 1.286 . S
C89 H84 0.930 . S
C89 C90 1.397 . S
C89 C91 1.361 . S
C90 C89 1.397 . S
C90 C94 1.390 . S
C91 C89 1.361 . S
C91 C92 1.393 . S
C91 N95 1.413 . S
C92 H85 0.930 . S
C92 C91 1.393 . S
C92 C93 1.399 . S
C93 C92 1.399 . S
C93 C94 1.381 . S
C94 H86 0.930 . S
C94 C90 1.390 . S
C94 C93 1.381 . S
N95 C88 1.286 . S
N95 C91 1.413 . S
Dy96 O100 2.398 . S
Dy96 O101 2.491 . S
Dy96 O102 2.403 1_545 S
Dy96 O103 2.664 1_545 S
Dy96 O107 2.326 . S
Dy96 O111 2.310 1_455 S
Dy96 O112 2.351 1_445 S
C97 O108 1.185 . S
C97 O109 1.355 . S
C98 O100 1.185 . S
C98 O101 1.355 . S
Dy99 O103 2.310 1_655 S
Dy99 O106 2.351 1_665 S
Dy99 O108 2.398 . S
Dy99 O109 2.491 . S
Dy99 O110 2.403 1_565 S
Dy99 O111 2.664 1_565 S
Dy99 O113 2.326 . S
O100 Dy96 2.398 . S
O100 C98 1.185 . S
O101 Dy96 2.491 . S
O101 C98 1.355 . S
O102 Dy96 2.403 1_565 S
O102 C104 1.254 . S
O103 Dy96 2.664 1_565 S
O103 Dy99 2.310 1_455 S
O103 C104 1.268 . S
C104 O102 1.254 . S
C104 O103 1.268 . S
C105 O110 1.254 . S
C105 O111 1.268 . S
O106 Dy99 2.351 1_445 S
O106 C114 1.249 . S
O107 Dy96 2.326 . S
O107 C114 1.267 . S
O108 C97 1.185 . S
O108 Dy99 2.398 . S
O109 C97 1.355 . S
O109 Dy99 2.491 . S
O110 Dy99 2.403 1_545 S
O110 C105 1.254 . S
O111 Dy96 2.310 1_655 S
O111 Dy99 2.664 1_545 S
O111 C105 1.268 . S
O112 Dy96 2.351 1_665 S
O112 C115 1.249 . S
O113 Dy99 2.326 . S
O113 C115 1.267 . S
C114 O106 1.249 . S
C114 O107 1.267 . S
C115 O112 1.249 . S
C115 O113 1.267 . S
Dy116 O120 2.398 . S
Dy116 O121 2.491 . S
Dy116 O122 2.403 1_545 S
Dy116 O123 2.664 1_545 S
Dy116 O127 2.326 . S
Dy116 O131 2.310 . S
Dy116 O132 2.351 1_544 S
C117 O128 1.185 . S
C117 O129 1.355 . S
C118 O120 1.185 . S
C118 O121 1.355 . S
Dy119 O123 2.310 1_546 S
Dy119 O126 2.351 1_556 S
Dy119 O128 2.398 1_545 S
Dy119 O129 2.491 1_545 S
Dy119 O130 2.403 . S
Dy119 O131 2.664 1_556 S
Dy119 O133 2.326 1_545 S
O120 Dy116 2.398 . S
O120 C118 1.185 . S
O121 Dy116 2.491 . S
O121 C118 1.355 . S
O122 Dy116 2.403 1_565 S
O122 C124 1.254 . S
O123 Dy116 2.664 1_565 S
O123 Dy119 2.310 1_564 S
O123 C124 1.268 . S
C124 O122 1.254 . S
C124 O123 1.268 . S
C125 O130 1.254 . S
C125 O131 1.268 1_556 S
O126 Dy119 2.351 1_554 S
O126 C134 1.249 . S
O127 Dy116 2.326 . S
O127 C134 1.267 . S
O128 C117 1.185 . S
O128 Dy119 2.398 1_565 S
O129 C117 1.355 . S
O129 Dy119 2.491 1_565 S
O130 Dy119 2.403 . S
O130 C125 1.254 . S
O131 Dy116 2.310 . S
O131 Dy119 2.664 1_554 S
O131 C125 1.268 1_554 S
O132 Dy116 2.351 1_566 S
O132 C135 1.249 . S
O133 Dy119 2.326 1_565 S
O133 C135 1.267 . S
C134 O126 1.249 . S
C134 O127 1.267 . S
C135 O132 1.249 . S
C135 O133 1.267 . S
Dy136 O140 2.398 . S
Dy136 O141 2.491 . S
Dy136 O142 2.403 . S
Dy136 O143 2.664 . S
Dy136 O147 2.326 . S
Dy136 O151 2.310 . S
Dy136 O152 2.351 . S
C137 O148 1.185 . S
C137 O149 1.355 . S
C138 O140 1.185 . S
C138 O141 1.355 . S
Dy139 O143 2.310 . S
Dy139 O146 2.351 . S
Dy139 O148 2.398 . S
Dy139 O149 2.491 . S
Dy139 O150 2.403 . S
Dy139 O151 2.664 . S
Dy139 O153 2.326 . S
O140 Dy136 2.398 . S
O140 C138 1.185 . S
O141 Dy136 2.491 . S
O141 C138 1.355 . S
O142 Dy136 2.403 . S
O142 C144 1.254 . S
O143 Dy136 2.664 . S
O143 Dy139 2.310 . S
O143 C144 1.268 . S
C144 O142 1.254 . S
C144 O143 1.268 . S
C145 O150 1.254 . S
C145 O151 1.268 . S
O146 Dy139 2.351 . S
O146 C154 1.249 . S
O147 Dy136 2.326 . S
O147 C154 1.267 . S
O148 C137 1.185 . S
O148 Dy139 2.398 . S
O149 C137 1.355 . S
O149 Dy139 2.491 . S
O150 Dy139 2.403 . S
O150 C145 1.254 . S
O151 Dy136 2.310 . S
O151 Dy139 2.664 . S
O151 C145 1.268 . S
O152 Dy136 2.351 . S
O152 C155 1.249 . S
O153 Dy139 2.326 . S
O153 C155 1.267 . S
C154 O146 1.249 . S
C154 O147 1.267 . S
C155 O152 1.249 . S
C155 O153 1.267 . S
Dy156 O160 2.398 . S
Dy156 O161 2.491 . S
Dy156 O162 2.403 1_455 S
Dy156 O163 2.664 1_455 S
Dy156 O167 2.326 . S
Dy156 O171 2.310 1_554 S
Dy156 O172 2.337 1_454 S
C157 O168 1.185 . S
C157 O169 1.355 . S
C158 O160 1.185 . S
C158 O161 1.355 . S
Dy159 O163 2.310 1_456 S
Dy159 O166 2.351 1_556 S
Dy159 O168 2.398 1_455 S
Dy159 O169 2.491 1_455 S
Dy159 O170 2.403 . S
Dy159 O171 2.664 . S
Dy159 O173 2.326 1_455 S
O160 Dy156 2.398 . S
O160 C158 1.185 . S
O161 Dy156 2.491 . S
O161 C158 1.355 . S
O162 Dy156 2.403 1_655 S
O162 C164 1.254 . S
O163 Dy156 2.664 1_655 S
O163 Dy159 2.310 1_654 S
O163 C164 1.268 . S
C164 O162 1.254 . S
C164 O163 1.268 . S
C165 O170 1.254 . S
C165 O171 1.268 . S
O166 Dy159 2.351 1_554 S
O166 C174 1.249 . S
O167 Dy156 2.326 . S
O167 C174 1.267 . S
O168 C157 1.185 . S
O168 Dy159 2.398 1_655 S
O169 C157 1.355 . S
O169 Dy159 2.491 1_655 S
O170 Dy159 2.403 . S
O170 C165 1.254 . S
O171 Dy156 2.310 1_556 S
O171 Dy159 2.664 . S
O171 C165 1.268 . S
O172 Dy156 2.337 1_656 S
O172 C175 1.267 . S
O173 Dy159 2.326 1_655 S
O173 C175 1.267 . S
C174 O166 1.249 . S
C174 O167 1.267 . S
C175 O172 1.267 . S
C175 O173 1.267 . S
H176 C184 0.950 . S
H177 C189 0.950 . S
H178 C186 0.950 . S
H179 C188 0.950 . S
H180 C190 0.950 . S
H181 C192 0.950 . S
H182 C194 0.950 . S
H183 C195 0.950 . S
C184 H176 0.950 . S
C184 C185 1.386 . S
C184 C186 1.391 . S
C185 C184 1.386 . S
C185 C189 1.393 . S
C186 H178 0.950 . S
C186 C184 1.391 . S
C186 C187 1.400 . S
C187 C186 1.400 . S
C187 C188 1.398 . S
C187 C193 1.491 . S
C188 H179 0.950 . S
C188 C187 1.398 . S
C188 C189 1.391 . S
C189 H177 0.950 . S
C189 C185 1.393 . S
C189 C188 1.391 . S
C190 H180 0.950 . S
C190 C191 1.386 . S
C190 C192 1.391 . S
C191 C190 1.386 . S
C191 C195 1.393 . S
C192 H181 0.950 . S
C192 C190 1.391 . S
C192 C193 1.400 . S
C193 C187 1.491 . S
C193 C192 1.400 . S
C193 C194 1.398 . S
C194 H182 0.950 . S
C194 C193 1.398 . S
C194 C195 1.391 . S
C195 H183 0.950 . S
C195 C191 1.393 . S
C195 C194 1.391 . S
H196 C204 0.950 . S
H197 C209 0.950 . S
H198 C206 0.950 . S
H199 C208 0.950 . S
H200 C210 0.950 . S
H201 C212 0.950 . S
H202 C214 0.950 . S
H203 C215 0.950 . S
C204 H196 0.950 . S
C204 C205 1.386 . S
C204 C206 1.391 . S
C205 C204 1.386 . S
C205 C209 1.393 . S
C206 H198 0.950 . S
C206 C204 1.391 . S
C206 C207 1.400 . S
C207 C206 1.400 . S
C207 C208 1.398 . S
C207 C213 1.491 . S
C208 H199 0.950 . S
C208 C207 1.398 . S
C208 C209 1.391 . S
C209 H197 0.950 . S
C209 C205 1.393 . S
C209 C208 1.391 . S
C210 H200 0.950 . S
C210 C211 1.386 . S
C210 C212 1.391 . S
C211 C210 1.386 . S
C211 C215 1.393 . S
C212 H201 0.950 . S
C212 C210 1.391 . S
C212 C213 1.400 . S
C213 C207 1.491 . S
C213 C212 1.400 . S
C213 C214 1.398 . S
C214 H202 0.950 . S
C214 C213 1.398 . S
C214 C215 1.391 . S
C215 H203 0.950 . S
C215 C211 1.393 . S
C215 C214 1.391 . S
H216 C224 0.950 . S
H217 C229 0.950 . S
H218 C226 0.950 . S
H219 C228 0.950 . S
H220 C230 0.950 . S
H221 C232 0.950 . S
H222 C234 0.950 . S
H223 C235 0.950 . S
C224 H216 0.950 . S
C224 C225 1.386 . S
C224 C226 1.391 . S
C225 C224 1.386 . S
C225 C229 1.393 . S
C226 H218 0.950 . S
C226 C224 1.391 . S
C226 C227 1.400 . S
C227 C226 1.400 . S
C227 C228 1.398 . S
C227 C233 1.491 . S
C228 H219 0.950 . S
C228 C227 1.398 . S
C228 C229 1.391 . S
C229 H217 0.950 . S
C229 C225 1.393 . S
C229 C228 1.391 . S
C230 H220 0.950 . S
C230 C231 1.386 . S
C230 C232 1.391 . S
C231 C230 1.386 . S
C231 C235 1.393 . S
C232 H221 0.950 . S
C232 C230 1.391 . S
C232 C233 1.400 . S
C233 C227 1.491 . S
C233 C232 1.400 . S
C233 C234 1.398 . S
C234 H222 0.950 . S
C234 C233 1.398 . S
C234 C235 1.391 . S
C235 H223 0.950 . S
C235 C231 1.393 . S
C235 C234 1.391 . S
H236 C244 0.950 . S
H237 C249 0.950 . S
H238 C246 0.950 . S
H239 C248 0.950 . S
H240 C250 0.950 1_455 S
H241 C252 0.950 . S
H242 C254 0.950 . S
H243 C255 0.950 . S
C244 H236 0.950 . S
C244 C245 1.386 . S
C244 C246 1.391 . S
C245 C244 1.386 . S
C245 C249 1.393 . S
C246 H238 0.950 . S
C246 C244 1.391 . S
C246 C247 1.400 . S
C247 C246 1.400 . S
C247 C248 1.398 . S
C247 C253 1.491 . S
C248 H239 0.950 . S
C248 C247 1.398 . S
C248 C249 1.391 . S
C249 H237 0.950 . S
C249 C245 1.393 . S
C249 C248 1.391 . S
C250 H240 0.950 1_655 S
C250 C251 1.386 . S
C250 C252 1.391 . S
C251 C250 1.386 . S
C251 C255 1.393 . S
C252 H241 0.950 . S
C252 C250 1.391 . S
C252 C253 1.400 . S
C253 C247 1.491 . S
C253 C252 1.400 . S
C253 C254 1.398 . S
C254 H242 0.950 . S
C254 C253 1.398 . S
C254 C255 1.391 . S
C255 H243 0.950 . S
C255 C251 1.393 . S
C255 C254 1.391 . S
H256 C264 0.950 . S
H257 C269 0.950 . S
H258 C266 0.950 . S
H259 C268 0.950 . S
H260 C270 0.950 . S
H261 C272 0.950 . S
H262 C274 0.950 . S
H263 C275 0.950 . S
C264 H256 0.950 . S
C264 C265 1.386 . S
C264 C266 1.391 . S
C265 C264 1.386 . S
C265 C269 1.393 . S
C266 H258 0.950 . S
C266 C264 1.391 . S
C266 C267 1.400 . S
C267 C266 1.400 . S
C267 C268 1.398 . S
C267 C273 1.491 . S
C268 H259 0.950 . S
C268 C267 1.398 . S
C268 C269 1.391 . S
C269 H257 0.950 . S
C269 C265 1.393 . S
C269 C268 1.391 . S
C270 H260 0.950 . S
C270 C271 1.386 . S
C270 C272 1.391 . S
C271 C270 1.386 . S
C271 C275 1.393 . S
C272 H261 0.950 . S
C272 C270 1.391 . S
C272 C273 1.400 . S
C273 C267 1.491 . S
C273 C272 1.400 . S
C273 C274 1.398 . S
C274 H262 0.950 . S
C274 C273 1.398 . S
C274 C275 1.391 . S
C275 H263 0.950 . S
C275 C271 1.393 . S
C275 C274 1.391 . S
H276 C284 0.950 . S
H277 C289 0.950 . S
H278 C286 0.950 . S
H279 C288 0.950 . S
H280 C290 0.950 . S
H281 C292 0.950 . S
H282 C294 0.950 . S
H283 C295 0.950 . S
C284 H276 0.950 . S
C284 C285 1.386 . S
C284 C286 1.391 . S
C285 C284 1.386 . S
C285 C289 1.393 . S
C286 H278 0.950 . S
C286 C284 1.391 . S
C286 C287 1.400 . S
C287 C286 1.400 . S
C287 C288 1.398 . S
C287 C293 1.491 . S
C288 H279 0.950 . S
C288 C287 1.398 . S
C288 C289 1.391 . S
C289 H277 0.950 . S
C289 C285 1.393 . S
C289 C288 1.391 . S
C290 H280 0.950 . S
C290 C291 1.386 . S
C290 C292 1.391 . S
C291 C290 1.386 . S
C291 C295 1.393 . S
C292 H281 0.950 . S
C292 C290 1.391 . S
C292 C293 1.400 . S
C293 C287 1.491 . S
C293 C292 1.400 . S
C293 C294 1.398 . S
C294 H282 0.950 . S
C294 C293 1.398 . S
C294 C295 1.391 . S
C295 H283 0.950 . S
C295 C291 1.393 . S
C295 C294 1.391 . S
H296 C304 0.950 . S
H297 C309 0.950 . S
H298 C306 0.950 . S
H299 C308 0.950 . S
H300 C310 0.950 . S
H301 C312 0.950 . S
H302 C314 0.950 . S
H303 C315 0.950 1_554 S
C304 H296 0.950 . S
C304 C305 1.386 . S
C304 C306 1.391 . S
C305 C304 1.386 . S
C305 C309 1.393 . S
C306 H298 0.950 . S
C306 C304 1.391 . S
C306 C307 1.400 . S
C307 C306 1.400 . S
C307 C308 1.398 . S
C307 C313 1.491 . S
C308 H299 0.950 . S
C308 C307 1.398 . S
C308 C309 1.391 . S
C309 H297 0.950 . S
C309 C305 1.393 . S
C309 C308 1.391 . S
C310 H300 0.950 . S
C310 C311 1.386 . S
C310 C312 1.391 . S
C311 C310 1.386 . S
C311 C315 1.393 . S
C312 H301 0.950 . S
C312 C310 1.391 . S
C312 C313 1.400 . S
C313 C307 1.491 . S
C313 C312 1.400 . S
C313 C314 1.398 . S
C314 H302 0.950 . S
C314 C313 1.398 . S
C314 C315 1.391 . S
C315 H303 0.950 1_556 S
C315 C311 1.393 . S
C315 C314 1.391 . S
H316 C324 0.950 . S
H317 C329 0.950 . S
H318 C326 0.950 . S
H319 C328 0.950 . S
H320 C330 0.950 . S
H321 C332 0.950 . S
H322 C334 0.950 . S
H323 C335 0.950 . S
C324 H316 0.950 . S
C324 C325 1.386 . S
C324 C326 1.391 . S
C325 C324 1.386 . S
C325 C329 1.393 . S
C326 H318 0.950 . S
C326 C324 1.391 . S
C326 C327 1.400 . S
C327 C326 1.400 . S
C327 C328 1.398 . S
C327 C333 1.491 . S
C328 H319 0.950 . S
C328 C327 1.398 . S
C328 C329 1.391 . S
C329 H317 0.950 . S
C329 C325 1.393 . S
C329 C328 1.391 . S
C330 H320 0.950 . S
C330 C331 1.386 . S
C330 C332 1.391 . S
C331 C330 1.386 . S
C331 C335 1.393 . S
C332 H321 0.950 . S
C332 C330 1.391 . S
C332 C333 1.400 . S
C333 C327 1.491 . S
C333 C332 1.400 . S
C333 C334 1.398 . S
C334 H322 0.950 . S
C334 C333 1.398 . S
C334 C335 1.391 . S
C335 H323 0.950 . S
C335 C331 1.393 . S
C335 C334 1.391 . S
H336 C344 0.950 . S
H337 C349 0.950 . S
H338 C346 0.950 . S
H339 C348 0.950 . S
H340 C350 0.950 . S
H341 C352 0.950 . S
H342 C354 0.950 . S
H343 C355 0.950 . S
C344 H336 0.950 . S
C344 C345 1.386 . S
C344 C346 1.391 . S
C345 C344 1.386 . S
C345 C349 1.393 . S
C346 H338 0.950 . S
C346 C344 1.391 . S
C346 C347 1.400 . S
C347 C346 1.400 . S
C347 C348 1.398 . S
C347 C353 1.491 . S
C348 H339 0.950 . S
C348 C347 1.398 . S
C348 C349 1.391 . S
C349 H337 0.950 . S
C349 C345 1.393 . S
C349 C348 1.391 . S
C350 H340 0.950 . S
C350 C351 1.386 . S
C350 C352 1.391 . S
C351 C350 1.386 . S
C351 C355 1.393 . S
C352 H341 0.950 . S
C352 C350 1.391 . S
C352 C353 1.400 . S
C353 C347 1.491 . S
C353 C352 1.400 . S
C353 C354 1.398 . S
C354 H342 0.950 . S
C354 C353 1.398 . S
C354 C355 1.391 . S
C355 H343 0.950 . S
C355 C351 1.393 . S
C355 C354 1.391 . S
H356 C364 0.950 . S
H357 C369 0.950 . S
H358 C366 0.950 . S
H359 C368 0.950 . S
H360 C370 0.965 . S
H361 C372 0.950 . S
H362 C374 0.950 . S
H363 C375 0.950 . S
C364 H356 0.950 . S
C364 C365 1.386 . S
C364 C366 1.391 . S
C365 C364 1.386 . S
C365 C369 1.393 . S
C366 H358 0.950 . S
C366 C364 1.391 . S
C366 C367 1.400 . S
C367 C366 1.400 . S
C367 C368 1.398 . S
C367 C373 1.491 . S
C368 H359 0.950 . S
C368 C367 1.398 . S
C368 C369 1.391 . S
C369 H357 0.950 . S
C369 C365 1.393 . S
C369 C368 1.391 . S
C370 H360 0.965 . S
C370 C371 1.386 . S
C370 C372 1.391 . S
C371 C370 1.386 . S
C371 C375 1.393 . S
C372 H361 0.950 . S
C372 C370 1.391 . S
C372 C373 1.400 . S
C373 C367 1.491 . S
C373 C372 1.400 . S
C373 C374 1.398 . S
C374 H362 0.950 . S
C374 C373 1.398 . S
C374 C375 1.391 . S
C375 H363 0.950 . S
C375 C371 1.393 . S
C375 C374 1.391 . S
H376 C384 0.950 . S
H377 C389 0.950 . S
H378 C386 0.950 . S
H379 C388 0.950 . S
H380 C390 0.950 . S
H381 C392 0.950 . S
H382 C394 0.950 . S
H383 C395 0.950 . S
C384 H376 0.950 . S
C384 C385 1.386 . S
C384 C386 1.391 . S
C385 C384 1.386 . S
C385 C389 1.393 . S
C386 H378 0.950 . S
C386 C384 1.391 . S
C386 C387 1.400 . S
C387 C386 1.400 . S
C387 C388 1.398 . S
C387 C393 1.491 . S
C388 H379 0.950 . S
C388 C387 1.398 . S
C388 C389 1.391 . S
C389 H377 0.950 . S
C389 C385 1.393 . S
C389 C388 1.391 . S
C390 H380 0.950 . S
C390 C391 1.386 . S
C390 C392 1.391 . S
C391 C390 1.386 . S
C391 C395 1.393 . S
C392 H381 0.950 . S
C392 C390 1.391 . S
C392 C393 1.400 . S
C393 C387 1.491 . S
C393 C392 1.400 . S
C393 C394 1.398 . S
C394 H382 0.950 . S
C394 C393 1.398 . S
C394 C395 1.391 . S
C395 H383 0.950 . S
C395 C391 1.393 . S
C395 C394 1.391 . S
H396 C404 0.950 . S
H397 C409 0.950 . S
H398 C406 0.950 . S
H399 C408 0.950 . S
H400 C410 0.950 . S
H401 C412 0.950 . S
H402 C414 0.950 . S
H403 C415 0.950 . S
C404 H396 0.950 . S
C404 C405 1.386 . S
C404 C406 1.391 . S
C405 C404 1.386 . S
C405 C409 1.393 . S
C406 H398 0.950 . S
C406 C404 1.391 . S
C406 C407 1.400 . S
C407 C406 1.400 . S
C407 C408 1.398 . S
C407 C413 1.491 . S
C408 H399 0.950 . S
C408 C407 1.398 . S
C408 C409 1.391 . S
C409 H397 0.950 . S
C409 C405 1.393 . S
C409 C408 1.391 . S
C410 H400 0.950 . S
C410 C411 1.386 . S
C410 C412 1.391 . S
C411 C410 1.386 . S
C411 C415 1.393 . S
C412 H401 0.950 . S
C412 C410 1.391 . S
C412 C413 1.400 . S
C413 C407 1.491 . S
C413 C412 1.400 . S
C413 C414 1.398 . S
C414 H402 0.950 . S
C414 C413 1.398 . S
C414 C415 1.391 . S
C415 H403 0.950 . S
C415 C411 1.393 . S
C415 C414 1.391 . S
H416 C424 0.950 . S
H417 C429 0.950 . S
H418 C426 0.950 . S
H419 C428 0.950 . S
H420 C430 0.950 . S
H421 C432 0.950 . S
H422 C434 0.950 . S
H423 C435 0.950 . S
C424 H416 0.950 . S
C424 C425 1.386 . S
C424 C426 1.391 . S
C425 C424 1.386 . S
C425 C429 1.393 . S
C426 H418 0.950 . S
C426 C424 1.391 . S
C426 C427 1.400 . S
C427 C426 1.400 . S
C427 C428 1.398 . S
C427 C433 1.491 . S
C428 H419 0.950 . S
C428 C427 1.398 . S
C428 C429 1.391 . S
C429 H417 0.950 . S
C429 C425 1.393 . S
C429 C428 1.391 . S
C430 H420 0.950 . S
C430 C431 1.386 . S
C430 C432 1.391 . S
C431 C430 1.386 . S
C431 C435 1.393 . S
C432 H421 0.950 . S
C432 C430 1.391 . S
C432 C433 1.400 . S
C433 C427 1.491 . S
C433 C432 1.400 . S
C433 C434 1.398 . S
C434 H422 0.950 . S
C434 C433 1.398 . S
C434 C435 1.391 . S
C435 H423 0.950 . S
C435 C431 1.393 . S
C435 C434 1.391 . S
H436 C444 0.950 . S
H437 C449 0.950 . S
H438 C446 0.950 . S
H439 C448 0.950 . S
H440 C450 0.950 . S
H441 C452 0.950 . S
H442 C454 0.950 . S
H443 C455 0.950 . S
C444 H436 0.950 . S
C444 C445 1.386 . S
C444 C446 1.391 . S
C445 C444 1.386 . S
C445 C449 1.393 . S
C446 H438 0.950 . S
C446 C444 1.391 . S
C446 C447 1.400 . S
C447 C446 1.400 . S
C447 C448 1.398 . S
C447 C453 1.491 . S
C448 H439 0.950 . S
C448 C447 1.398 . S
C448 C449 1.391 . S
C449 H437 0.950 . S
C449 C445 1.393 . S
C449 C448 1.391 . S
C450 H440 0.950 . S
C450 C451 1.386 . S
C450 C452 1.391 . S
C451 C450 1.386 . S
C451 C455 1.393 . S
C452 H441 0.950 . S
C452 C450 1.391 . S
C452 C453 1.400 . S
C453 C447 1.491 . S
C453 C452 1.400 . S
C453 C454 1.398 . S
C454 H442 0.950 . S
C454 C453 1.398 . S
C454 C455 1.391 . S
C455 H443 0.950 . S
C455 C451 1.393 . S
C455 C454 1.391 . S
H456 C464 0.950 . S
H457 C469 0.950 . S
H458 C466 0.950 . S
H459 C468 0.950 . S
H460 C470 0.950 . S
H461 C472 0.950 . S
H462 C474 0.950 . S
H463 C475 0.950 . S
C464 H456 0.950 . S
C464 C465 1.386 . S
C464 C466 1.391 . S
C465 C464 1.386 . S
C465 C469 1.393 . S
C466 H458 0.950 . S
C466 C464 1.391 . S
C466 C467 1.400 . S
C467 C466 1.400 . S
C467 C468 1.398 . S
C467 C473 1.491 . S
C468 H459 0.950 . S
C468 C467 1.398 . S
C468 C469 1.391 . S
C469 H457 0.950 . S
C469 C465 1.393 . S
C469 C468 1.391 . S
C470 H460 0.950 . S
C470 C471 1.386 . S
C470 C472 1.391 . S
C471 C470 1.386 . S
C471 C475 1.393 . S
C472 H461 0.950 . S
C472 C470 1.391 . S
C472 C473 1.400 . S
C473 C467 1.491 . S
C473 C472 1.400 . S
C473 C474 1.398 . S
C474 H462 0.950 . S
C474 C473 1.398 . S
C474 C475 1.391 . S
C475 H463 0.950 . S
C475 C471 1.393 . S
C475 C474 1.391 . S
H476 C484 0.950 . S
H477 C489 0.950 . S
H478 C486 0.950 . S
H479 C488 0.950 . S
H480 C490 0.950 . S
H481 C492 0.950 . S
H482 C494 0.950 . S
H483 C495 0.950 . S
C484 H476 0.950 . S
C484 C485 1.386 . S
C484 C486 1.391 . S
C485 C484 1.386 . S
C485 C489 1.393 . S
C486 H478 0.950 . S
C486 C484 1.391 . S
C486 C487 1.400 . S
C487 C486 1.400 . S
C487 C488 1.398 . S
C487 C493 1.491 . S
C488 H479 0.950 . S
C488 C487 1.398 . S
C488 C489 1.391 . S
C489 H477 0.950 . S
C489 C485 1.393 . S
C489 C488 1.391 . S
C490 H480 0.950 . S
C490 C491 1.386 . S
C490 C492 1.391 . S
C491 C490 1.386 . S
C491 C495 1.393 . S
C492 H481 0.950 . S
C492 C490 1.391 . S
C492 C493 1.400 . S
C493 C487 1.491 . S
C493 C492 1.400 . S
C493 C494 1.398 . S
C494 H482 0.950 . S
C494 C493 1.398 . S
C494 C495 1.391 . S
C495 H483 0.950 . S
C495 C491 1.393 . S
C495 C494 1.391 . S
H496 C504 0.950 . S
H497 C509 0.950 . S
H498 C506 0.950 . S
H499 C508 0.950 . S
H500 C510 0.950 . S
H501 C512 0.950 . S
H502 C514 0.950 . S
H503 C515 0.950 . S
C504 H496 0.950 . S
C504 C505 1.386 . S
C504 C506 1.391 . S
C505 C504 1.386 . S
C505 C509 1.393 . S
C506 H498 0.950 . S
C506 C504 1.391 . S
C506 C507 1.400 . S
C507 C506 1.400 . S
C507 C508 1.398 . S
C507 C513 1.491 . S
C508 H499 0.950 . S
C508 C507 1.398 . S
C508 C509 1.391 . S
C509 H497 0.950 . S
C509 C505 1.393 . S
C509 C508 1.391 . S
C510 H500 0.950 . S
C510 C511 1.386 . S
C510 C512 1.391 . S
C511 C510 1.386 . S
C511 C515 1.393 . S
C512 H501 0.950 . S
C512 C510 1.391 . S
C512 C513 1.400 . S
C513 C507 1.491 . S
C513 C512 1.400 . S
C513 C514 1.398 . S
C514 H502 0.950 . S
C514 C513 1.398 . S
C514 C515 1.391 . S
C515 H503 0.950 . S
C515 C511 1.393 . S
C515 C514 1.391 . S
H516 C524 0.950 . S
H517 C529 0.950 . S
H518 C526 0.950 . S
H519 C528 0.950 . S
H520 C530 0.950 . S
H521 C532 0.950 . S
H522 C534 0.950 . S
H523 C535 0.950 . S
C524 H516 0.950 . S
C524 C525 1.386 . S
C524 C526 1.391 . S
C525 C524 1.386 . S
C525 C529 1.393 . S
C526 H518 0.950 . S
C526 C524 1.391 . S
C526 C527 1.400 . S
C527 C526 1.400 . S
C527 C528 1.398 . S
C527 C533 1.491 . S
C528 H519 0.950 . S
C528 C527 1.398 . S
C528 C529 1.391 . S
C529 H517 0.950 . S
C529 C525 1.393 . S
C529 C528 1.391 . S
C530 H520 0.950 . S
C530 C531 1.386 . S
C530 C532 1.391 . S
C531 C530 1.386 . S
C531 C535 1.393 . S
C532 H521 0.950 . S
C532 C530 1.391 . S
C532 C533 1.400 . S
C533 C527 1.491 . S
C533 C532 1.400 . S
C533 C534 1.398 . S
C534 H522 0.950 . S
C534 C533 1.398 . S
C534 C535 1.391 . S
C535 H523 0.950 . S
C535 C531 1.393 . S
C535 C534 1.391 . S
H536 C544 0.950 . S
H537 C549 0.950 . S
H538 C546 0.950 . S
H539 C548 0.950 . S
H540 C550 0.950 . S
H541 C552 0.950 . S
H542 C554 0.950 . S
H543 C555 0.950 . S
C544 H536 0.950 . S
C544 C545 1.386 . S
C544 C546 1.391 . S
C545 C544 1.386 . S
C545 C549 1.393 . S
C546 H538 0.950 . S
C546 C544 1.391 . S
C546 C547 1.400 . S
C547 C546 1.400 . S
C547 C548 1.398 . S
C547 C553 1.491 . S
C548 H539 0.950 . S
C548 C547 1.398 . S
C548 C549 1.391 . S
C549 H537 0.950 . S
C549 C545 1.393 . S
C549 C548 1.391 . S
C550 H540 0.950 . S
C550 C551 1.386 . S
C550 C552 1.391 . S
C551 C550 1.386 . S
C551 C555 1.393 . S
C552 H541 0.950 . S
C552 C550 1.391 . S
C552 C553 1.400 . S
C553 C547 1.491 . S
C553 C552 1.400 . S
C553 C554 1.398 . S
C554 H542 0.950 . S
C554 C553 1.398 . S
C554 C555 1.391 . S
C555 H543 0.950 . S
C555 C551 1.393 . S
C555 C554 1.391 . S
H556 C564 0.950 . S
H557 C569 0.950 . S
H558 C566 0.950 . S
H559 C568 0.950 . S
H560 C570 0.950 . S
H561 C572 0.950 . S
H562 C574 0.950 . S
H563 C575 0.950 . S
C564 H556 0.950 . S
C564 C565 1.386 . S
C564 C566 1.391 . S
C565 C564 1.386 . S
C565 C569 1.393 . S
C566 H558 0.950 . S
C566 C564 1.391 . S
C566 C567 1.400 . S
C567 C566 1.400 . S
C567 C568 1.398 . S
C567 C573 1.491 . S
C568 H559 0.950 . S
C568 C567 1.398 . S
C568 C569 1.391 . S
C569 H557 0.950 . S
C569 C565 1.393 . S
C569 C568 1.391 . S
C570 H560 0.950 . S
C570 C571 1.386 . S
C570 C572 1.391 . S
C571 C570 1.386 . S
C571 C575 1.393 . S
C572 H561 0.950 . S
C572 C570 1.391 . S
C572 C573 1.400 . S
C573 C567 1.491 . S
C573 C572 1.400 . S
C573 C574 1.398 . S
C574 H562 0.950 . S
C574 C573 1.398 . S
C574 C575 1.391 . S
C575 H563 0.950 . S
C575 C571 1.393 . S
C575 C574 1.391 . S
H576 C584 0.950 . S
H577 C589 0.950 . S
H578 C586 0.950 . S
H579 C588 0.950 . S
H580 C590 0.950 . S
H581 C592 0.950 . S
H582 C594 0.950 . S
H583 C595 0.950 . S
C584 H576 0.950 . S
C584 C585 1.386 . S
C584 C586 1.391 . S
C585 C584 1.386 . S
C585 C589 1.393 . S
C586 H578 0.950 . S
C586 C584 1.391 . S
C586 C587 1.400 . S
C587 C586 1.400 . S
C587 C588 1.398 . S
C587 C593 1.491 . S
C588 H579 0.950 . S
C588 C587 1.398 . S
C588 C589 1.391 . S
C589 H577 0.950 . S
C589 C585 1.393 . S
C589 C588 1.391 . S
C590 H580 0.950 . S
C590 C591 1.386 . S
C590 C592 1.391 . S
C591 C590 1.386 . S
C591 C595 1.393 . S
C592 H581 0.950 . S
C592 C590 1.391 . S
C592 C593 1.400 . S
C593 C587 1.491 . S
C593 C592 1.400 . S
C593 C594 1.398 . S
C594 H582 0.950 . S
C594 C593 1.398 . S
C594 C595 1.391 . S
C595 H583 0.950 . S
C595 C591 1.393 . S
C595 C594 1.391 . S
H596 C604 0.950 . S
H597 C609 0.950 . S
H598 C606 0.950 . S
H599 C608 0.950 . S
H600 C610 0.950 . S
H601 C612 0.950 . S
H602 C614 0.950 . S
H603 C615 0.950 . S
C604 H596 0.950 . S
C604 C605 1.386 . S
C604 C606 1.391 . S
C605 C604 1.386 . S
C605 C609 1.393 . S
C606 H598 0.950 . S
C606 C604 1.391 . S
C606 C607 1.400 . S
C607 C606 1.400 . S
C607 C608 1.398 . S
C607 C613 1.491 . S
C608 H599 0.950 . S
C608 C607 1.398 . S
C608 C609 1.391 . S
C609 H597 0.950 . S
C609 C605 1.393 . S
C609 C608 1.391 . S
C610 H600 0.950 . S
C610 C611 1.386 . S
C610 C612 1.391 . S
C611 C610 1.386 . S
C611 C615 1.393 . S
C612 H601 0.950 . S
C612 C610 1.391 . S
C612 C613 1.400 . S
C613 C607 1.491 . S
C613 C612 1.400 . S
C613 C614 1.398 . S
C614 H602 0.950 . S
C614 C613 1.398 . S
C614 C615 1.391 . S
C615 H603 0.950 . S
C615 C611 1.393 . S
C615 C614 1.391 . S
H616 C624 0.950 . S
H617 C629 0.950 . S
H618 C626 0.950 . S
H619 C628 0.950 . S
H620 C630 0.950 . S
H621 C632 0.950 . S
H622 C634 0.950 . S
H623 C635 0.950 . S
C624 H616 0.950 . S
C624 C625 1.386 . S
C624 C626 1.391 . S
C625 C624 1.386 . S
C625 C629 1.393 . S
C626 H618 0.950 . S
C626 C624 1.391 . S
C626 C627 1.400 . S
C627 C626 1.400 . S
C627 C628 1.398 . S
C627 C633 1.491 . S
C628 H619 0.950 . S
C628 C627 1.398 . S
C628 C629 1.391 . S
C629 H617 0.950 . S
C629 C625 1.393 . S
C629 C628 1.391 . S
C630 H620 0.950 . S
C630 C631 1.386 . S
C630 C632 1.391 . S
C631 C630 1.386 . S
C631 C635 1.393 . S
C632 H621 0.950 . S
C632 C630 1.391 . S
C632 C633 1.400 . S
C633 C627 1.491 . S
C633 C632 1.400 . S
C633 C634 1.398 . S
C634 H622 0.950 . S
C634 C633 1.398 . S
C634 C635 1.391 . S
C635 H623 0.950 . S
C635 C631 1.393 . S
C635 C634 1.391 . S
H636 C644 0.950 . S
H637 C649 0.950 . S
H638 C646 0.950 . S
H639 C648 0.950 . S
H640 C650 0.950 . S
H641 C652 0.950 . S
H642 C654 0.950 . S
H643 C655 0.950 . S
C644 H636 0.950 . S
C644 C645 1.386 . S
C644 C646 1.391 . S
C645 C644 1.386 . S
C645 C649 1.393 . S
C646 H638 0.950 . S
C646 C644 1.391 . S
C646 C647 1.400 . S
C647 C646 1.400 . S
C647 C648 1.398 . S
C647 C653 1.491 . S
C648 H639 0.950 . S
C648 C647 1.398 . S
C648 C649 1.391 . S
C649 H637 0.950 . S
C649 C645 1.393 . S
C649 C648 1.391 . S
C650 H640 0.950 . S
C650 C651 1.386 . S
C650 C652 1.391 . S
C651 C650 1.386 . S
C651 C655 1.393 . S
C652 H641 0.950 . S
C652 C650 1.391 . S
C652 C653 1.400 . S
C653 C647 1.491 . S
C653 C652 1.400 . S
C653 C654 1.398 . S
C654 H642 0.950 . S
C654 C653 1.398 . S
C654 C655 1.391 . S
C655 H643 0.950 . S
C655 C651 1.393 . S
C655 C654 1.391 . S
C185 C6 1.483 . S
C191 C98 1.476 . S
C205 C18 1.599 . S
C211 C117 1.575 . S
C231 C154 1.809 . S
C225 C28 1.822 . S
C245 C40 1.179 . S
C251 C164 1.142 . S
C271 C134 2.059 . S
C265 C9 2.030 . S
C291 C104 1.428 . S
C285 C16 1.486 . S
C311 C175 1.509 . S
C305 C30 1.525 . S
C331 C145 1.095 . S
C325 C42 1.125 . S
C345 C4 1.600 . S
C351 C158 1.614 . S
C371 C125 1.810 . S
C365 C33 1.877 . S
C385 C45 1.553 . S
C391 C115 1.543 . S
C405 C21 1.414 . S
C411 C137 1.425 . S
C431 C97 1.508 . S
C425 C57 1.499 . S
C445 C66 1.606 . S
C451 C118 1.560 . S
C465 C76 1.865 . S
C471 C155 1.831 . S
C485 C88 1.131 . S
C491 C165 1.095 . S
C505 C54 2.001 . S
C511 C135 2.031 . S
C531 C105 1.504 . S
C525 C64 1.548 . S
C551 C174 1.416 . S
C545 C78 1.428 . S
C571 C144 1.136 . S
C565 C93 1.141 . S
C585 C52 1.562 . S
C591 C157 1.583 . S
C611 C124 1.814 . S
C605 C81 1.873 . S
C631 C114 1.528 . S
C625 C90 1.539 . S
C645 C69 1.450 . S
C651 C138 1.432 . S
