# Generated by pormake.
# Topology zzz, (3,6)-cn, num edge types: 1
# Building blocks:
#     Node 0, Type 0, BuildingBlock: BETDIP_clean_linker_0, # of connection points: 3
#     Node 1, Type 0, BuildingBlock: BETDIP_clean_linker_0, # of connection points: 3
#     Node 2, Type 0, BuildingBlock: BETDIP_clean_linker_0, # of connection points: 3
#     Node 3, Type 0, BuildingBlock: BETDIP_clean_linker_0, # of connection points: 3
#     Node 4, Type 0, BuildingBlock: BETDIP_clean_linker_0, # of connection points: 3
#     Node 5, Type 0, BuildingBlock: BETDIP_clean_linker_0, # of connection points: 3
#     Node 6, Type 0, BuildingBlock: BETDIP_clean_linker_0, # of connection points: 3
#     Node 7, Type 0, BuildingBlock: BETDIP_clean_linker_0, # of connection points: 3
#     Node 8, Type 1, BuildingBlock: BETDEL_clean_sbu_0, # of connection points: 6
#     Node 9, Type 1, BuildingBlock: BETDEL_clean_sbu_0, # of connection points: 6
#     Node 10, Type 1, BuildingBlock: BETDEL_clean_sbu_0, # of connection points: 6
#     Node 11, Type 1, BuildingBlock: BETDEL_clean_sbu_0, # of connection points: 6
#     Edge 12, Type (0, 1), BuildingBlock: AJUNOK_clean_linker_0, # of connection points: 2
#     Edge 13, Type (0, 1), BuildingBlock: AJUNOK_clean_linker_0, # of connection points: 2
#     Edge 14, Type (0, 1), BuildingBlock: AJUNOK_clean_linker_0, # of connection points: 2
#     Edge 15, Type (0, 1), BuildingBlock: AJUNOK_clean_linker_0, # of connection points: 2
#     Edge 16, Type (0, 1), BuildingBlock: AJUNOK_clean_linker_0, # of connection points: 2
#     Edge 17, Type (0, 1), BuildingBlock: AJUNOK_clean_linker_0, # of connection points: 2
#     Edge 18, Type (0, 1), BuildingBlock: AJUNOK_clean_linker_0, # of connection points: 2
#     Edge 19, Type (0, 1), BuildingBlock: AJUNOK_clean_linker_0, # of connection points: 2
#     Edge 20, Type (0, 1), BuildingBlock: AJUNOK_clean_linker_0, # of connection points: 2
#     Edge 21, Type (0, 1), BuildingBlock: AJUNOK_clean_linker_0, # of connection points: 2
#     Edge 22, Type (0, 1), BuildingBlock: AJUNOK_clean_linker_0, # of connection points: 2
#     Edge 23, Type (0, 1), BuildingBlock: AJUNOK_clean_linker_0, # of connection points: 2
#     Edge 24, Type (0, 1), BuildingBlock: AJUNOK_clean_linker_0, # of connection points: 2
#     Edge 25, Type (0, 1), BuildingBlock: AJUNOK_clean_linker_0, # of connection points: 2
#     Edge 26, Type (0, 1), BuildingBlock: AJUNOK_clean_linker_0, # of connection points: 2
#     Edge 27, Type (0, 1), BuildingBlock: AJUNOK_clean_linker_0, # of connection points: 2
#     Edge 28, Type (0, 1), BuildingBlock: AJUNOK_clean_linker_0, # of connection points: 2
#     Edge 29, Type (0, 1), BuildingBlock: AJUNOK_clean_linker_0, # of connection points: 2
#     Edge 30, Type (0, 1), BuildingBlock: AJUNOK_clean_linker_0, # of connection points: 2
#     Edge 31, Type (0, 1), BuildingBlock: AJUNOK_clean_linker_0, # of connection points: 2
#     Edge 32, Type (0, 1), BuildingBlock: AJUNOK_clean_linker_0, # of connection points: 2
#     Edge 33, Type (0, 1), BuildingBlock: AJUNOK_clean_linker_0, # of connection points: 2
#     Edge 34, Type (0, 1), BuildingBlock: AJUNOK_clean_linker_0, # of connection points: 2
#     Edge 35, Type (0, 1), BuildingBlock: AJUNOK_clean_linker_0, # of connection points: 2
# Relax obj value: 0.169
# Max RMSD: 0.185
# Mean RMSD: 0.120
data_MOF--net-zzz--node1-BETDEL_clean_sbu_0--node2-BETDIP_clean_linker_0--edge1-AJUNOK_clean_linker_0
_symmetry_space_group_name_H-M    P1
_symmetry_Int_Tables_number       1
_symmetry_cell_setting            triclinic
loop_
_symmetry_equiv_pos_as_xyz
'x, y, z'
_cell_length_a     35.077426
_cell_length_b     36.248136
_cell_length_c     11.348836
_cell_angle_alpha  90.938103
_cell_angle_beta   88.49554
_cell_angle_gamma 95.2613
loop_
_atom_site_label
_atom_site_type_symbol
_atom_site_fract_x
_atom_site_fract_y
_atom_site_fract_z
_atom_type_partial_charge
H0 H 0.76701 0.56046 0.23414 0.0
H1 H 0.79321 0.49047 0.93988 0.0
H2 H 0.84237 0.47495 0.2747 0.0
H3 H 0.7702 0.54266 0.85325 0.0
C4 C 0.74223 0.54004 0.89743 0.0
C5 C 0.78029 0.53659 0.1996 0.0
C6 C 0.80808 0.52072 0.26541 0.0
C7 C 0.77158 0.5226 0.08536 0.0
C8 C 0.79552 0.49728 0.0327 0.0
C9 C 0.82388 0.48255 0.09895 0.0
C10 C 0.8233 0.48891 0.22058 0.0
N11 N 0.74079 0.53572 0.02226 0.0
H12 H 0.9994 0.77179 0.26876 0.0
H13 H 0.05922 0.77933 0.93128 0.0
H14 H 0.0644 0.87305 0.16661 0.0
H15 H 0.98605 0.74445 0.92209 0.0
C16 C 0.99954 0.72275 0.96597 0.0
C17 C 1.01888 0.78699 0.2075 0.0
C18 C 1.03069 0.82472 0.22949 0.0
C19 C 1.03064 0.76981 0.10125 0.0
C20 C 0.05286 0.79113 0.01713 0.0
C21 C 0.06549 0.82814 0.04209 0.0
C22 C 0.05603 0.84381 0.1504 0.0
N23 N 1.01788 0.73217 0.0743 0.0
H24 H 0.77792 1.00526 0.28462 0.0
H25 H 0.80123 0.06192 0.9547 0.0
H26 H 0.68873 0.05652 0.11457 0.0
H27 H 0.83464 0.97338 0.03082 0.0
C28 C 0.85006 1.00046 0.04393 0.0
C29 C 0.76837 1.021 0.21251 0.0
C30 C 0.72994 0.02987 0.21051 0.0
C31 C 0.79434 0.03272 0.11946 0.0
C32 C 0.78163 0.05325 0.02648 0.0
C33 C 0.74391 0.06301 0.02698 0.0
C34 C 0.71855 0.05082 0.11798 0.0
N35 N 0.83378 0.02639 0.12161 0.0
H36 H 0.55991 0.76536 0.23117 0.0
H37 H 0.55076 0.78906 0.86634 0.0
H38 H 0.62103 0.7061 0.96817 0.0
H39 H 0.6071 0.84882 0.01742 0.0
C40 C 0.57692 0.85289 0.03003 0.0
C41 C 0.5685 0.76004 0.1407 0.0
C42 C 0.58582 0.72718 0.1078 0.0
C43 C 0.56218 0.78593 0.05186 0.0
C44 C 0.56441 0.77438 0.93346 0.0
C45 C 0.5813 0.74196 0.90444 0.0
C46 C 0.6013 0.72627 -0.00725 0.0
N47 N 0.55284 0.82261 0.0779 0.0
H48 H 0.27887 0.49934 0.8804 0.0
H49 H 0.28008 0.56555 0.19926 0.0
H50 H 0.19085 0.57218 0.95191 0.0
H51 H 0.35513 0.57371 0.07741 0.0
C52 C 0.35332 0.54518 0.10672 0.0
C53 C 0.26738 0.52089 0.934 0.0
C54 C 0.23306 0.53543 0.90216 0.0
C55 C 0.28649 0.53441 0.03694 0.0
C56 C 0.26854 0.55906 0.11294 0.0
C57 C 0.23349 0.57182 0.08326 0.0
C58 C 0.21838 0.56276 -0.02675 0.0
N59 N 0.32142 0.5206 0.07089 0.0
H60 H 0.0565 0.28699 0.89319 0.0
H61 H 0.97785 0.27523 0.19078 0.0
H62 H 0.98909 0.18378 0.95344 0.0
H63 H 0.96486 0.33733 0.10827 0.0
C64 C 0.99477 0.34705 0.1202 0.0
C65 C 1.03376 0.27099 0.94124 0.0
C66 C 1.02411 0.23338 0.91116 0.0
C67 C 1.01406 0.28744 0.03617 0.0
C68 C 0.98845 0.26462 0.10756 0.0
C69 C 0.98082 0.2268 0.08025 0.0
C70 C 0.9949 0.21312 -0.02578 0.0
N71 N 1.02307 0.32548 0.06828 0.0
H72 H 0.29346 0.061 0.88055 0.0
H73 H 0.26562 0.98959 0.17739 0.0
H74 H 0.37468 0.98905 -0.00116 0.0
H75 H 0.20073 0.9913 0.03148 0.0
C76 C 0.20428 1.01856 0.07317 0.0
C77 C 0.30082 0.03941 0.93839 0.0
C78 C 0.33657 1.02446 0.92395 0.0
C79 C 0.27436 0.02573 0.02773 0.0
C80 C 0.2847 0.99841 0.10449 0.0
C81 C 0.32087 0.98502 0.09445 0.0
C82 C 0.34589 0.99775 0.00309 0.0
N83 N 0.23882 0.04137 0.04795 0.0
H84 H 0.48399 0.27153 0.8445 0.0
H85 H 0.56289 0.2648 0.12834 0.0
H86 H 0.56027 0.36604 0.94164 0.0
H87 H 0.56703 0.20491 -0.00613 0.0
C88 C 0.53782 0.19859 0.02715 0.0
C89 C 0.5068 0.28401 0.89861 0.0
C90 C 0.52047 0.3217 0.88383 0.0
C91 C 0.5236 0.26254 -0.01636 0.0
C92 C 0.55238 0.27971 0.0557 0.0
C93 C 0.56571 0.31684 0.03988 0.0
C94 C 0.5506 0.33686 0.95152 0.0
N95 N 0.51083 0.22442 0.00184 0.0
Dy96 Dy 0.06186 1.01498 0.66876 0.0
C97 C 0.99615 0.09309 0.31611 0.0
C98 C 0.08924 0.96562 0.81668 0.0
Dy99 Dy 1.00928 0.04402 0.48403 0.0
O100 O 0.10391 0.97461 0.71412 0.0
O101 O 0.06157 0.98625 0.84161 0.0
O102 O 0.11252 0.04334 0.571 0.0
O103 O 0.06483 1.02094 0.47773 0.0
C104 C 0.09761 0.03861 0.46732 0.0
C105 C 0.96844 0.03372 0.68709 0.0
O106 O 1.00408 0.98461 0.42232 0.0
O107 O 1.03068 0.96343 0.59116 0.0
O108 O 0.97018 0.06813 0.35683 0.0
O109 O 1.02928 0.08793 0.3578 0.0
O110 O 0.95425 0.04499 0.59102 0.0
O111 O 1.00308 0.02818 0.66694 0.0
O112 O 0.06208 0.07267 0.74237 0.0
O113 O 0.03719 0.0951 0.57331 0.0
C114 C 1.0137 0.95712 0.48875 0.0
C115 C 0.05271 0.10059 0.67803 0.0
Dy116 Dy 0.50557 1.00132 0.48337 0.0
C117 C 0.62843 0.07839 0.71962 0.0
C118 C 0.43707 0.97324 0.39811 0.0
Dy119 Dy 0.55874 0.05492 0.63385 0.0
O120 O 0.46964 0.9601 0.37138 0.0
O121 O 0.44265 1.00202 0.46664 0.0
O122 O 0.5563 0.9734 0.40805 0.0
O123 O 0.56247 0.02908 0.46135 0.0
C124 C 0.58063 1.00215 0.42795 0.0
C125 C 0.48376 0.0541 0.68988 0.0
O126 O 0.55316 0.09129 0.47834 0.0
O127 O 0.50375 0.05558 0.38559 0.0
O128 O 0.59778 0.09583 0.73777 0.0
O129 O 0.62015 0.04818 0.65966 0.0
O130 O 0.50809 0.08297 0.7091 0.0
O131 O 0.50195 0.02714 0.65646 0.0
O132 O 0.51441 0.96261 0.63049 0.0
O133 O 0.55958 1.00113 0.73288 0.0
C134 C 0.5269 0.08671 0.39574 0.0
C135 C 0.53924 0.96871 0.71646 0.0
Dy136 Dy 0.52515 0.54288 0.59721 0.0
C137 C 0.5804 0.44964 0.26589 0.0
C138 C 0.51868 0.60244 0.7444 0.0
Dy139 Dy 0.56285 0.50424 0.41882 0.0
O140 O 0.4955 0.59231 0.66052 0.0
O141 O 0.54156 0.57673 0.75694 0.0
O142 O 0.46714 0.51937 0.53868 0.0
O143 O 0.51065 0.53285 0.41158 0.0
C144 C 0.47606 0.51979 0.42641 0.0
C145 C 0.61229 0.53188 0.58153 0.0
O146 O 0.56641 0.55663 0.32128 0.0
O147 O 0.55708 0.58931 0.49143 0.0
O148 O 0.60542 0.47074 0.32368 0.0
O149 O 0.54653 0.46022 0.28599 0.0
O150 O 0.61949 0.53143 0.46894 0.0
O151 O 0.57888 0.51636 0.60302 0.0
O152 O 0.51472 0.4875 0.68805 0.0
O153 O 0.53337 0.45722 0.52018 0.0
C154 C 0.56683 0.58865 0.37831 0.0
C155 C 0.51964 0.45624 0.62915 0.0
Dy156 Dy 1.00524 0.50697 0.65052 0.0
C157 C 0.08871 0.58311 0.30619 0.0
C158 C 0.95857 0.47019 0.81496 0.0
Dy159 Dy 0.03715 0.5553 0.47503 0.0
O160 O 0.98822 0.49317 0.83695 0.0
O161 O 0.95509 0.46674 0.70213 0.0
O162 O 1.03186 0.45943 0.56198 0.0
O163 O 1.01004 0.49886 0.45838 0.0
C164 C 1.02673 0.46939 0.45492 0.0
C165 C 1.01238 0.59476 0.65678 0.0
O166 O 0.97628 0.55523 0.41716 0.0
O167 O 0.9532 0.53393 0.59706 0.0
O168 O 0.08141 0.59898 0.40616 0.0
O169 O 0.06471 0.55385 0.29477 0.0
O170 O 1.0105 0.60385 0.5469 0.0
O171 O 1.02947 0.56535 0.66658 0.0
O172 O 0.0641 0.50793 0.7207 0.0
O173 O 0.08985 0.53411 0.55123 0.0
C174 C 0.94715 0.54743 0.49247 0.0
C175 C 0.09426 0.5189 0.65427 0.0
C176 C 0.18409 0.05391 0.25576 0.0
C177 C 0.17507 0.0281 0.16432 0.0
C178 C 0.1582 0.0584 0.35126 0.0
C179 C 0.1221 0.03776 0.35785 0.0
H180 H 0.21197 0.06945 0.25667 0.0
H181 H 0.167 0.07738 0.42224 0.0
S182 S 0.0838 0.96839 0.13699 0.0
N183 N 0.12682 0.98292 0.08446 0.0
N184 N 0.0782 0.992 0.26064 0.0
C185 C 0.11211 1.01334 0.26382 0.0
C186 C 0.1386 1.00833 0.16815 0.0
C187 C 0.56486 0.16181 0.18217 0.0
C188 C 0.53228 0.17067 0.12277 0.0
C189 C 0.56246 0.13523 0.27101 0.0
C190 C 0.52739 0.11555 0.30321 0.0
H191 H 0.59269 0.17583 0.16027 0.0
H192 H 0.58863 0.12955 0.31313 0.0
S193 S 0.4332 0.12815 0.17568 0.0
N194 N 0.46346 0.15806 0.10406 0.0
N195 N 0.45902 0.10697 0.26884 0.0
C196 C 0.49441 0.12393 0.24441 0.0
C197 C 0.49679 0.15181 0.15509 0.0
C198 C 0.37899 0.51047 0.27527 0.0
C199 C 0.38556 0.53359 0.17694 0.0
C200 C 0.40868 0.50512 0.3535 0.0
C201 C 0.44626 0.52195 0.33491 0.0
H202 H 0.35035 0.49804 0.29545 0.0
H203 H 0.40193 0.4884 0.43083 0.0
S204 S 0.47867 0.58254 0.08366 0.0
N205 N 0.43257 0.57198 0.06221 0.0
N206 N 0.48834 0.56087 0.20468 0.0
C207 C 0.4534 0.5435 0.23297 0.0
C208 C 0.42307 0.54962 0.15546 0.0
C209 C 0.0416 0.39293 0.22724 0.0
C210 C 1.00376 0.38017 0.19822 0.0
C211 C 0.04913 0.42254 0.30835 0.0
C212 C 1.01916 0.4406 0.36189 0.0
H213 H 0.06547 0.37952 0.18921 0.0
H214 H 0.07853 0.43106 0.33041 0.0
S215 S 0.91527 0.41694 0.32026 0.0
N216 N 0.93616 0.38786 0.23168 0.0
N217 N 0.95041 0.4427 0.38384 0.0
C218 C 0.9814 0.42825 0.3331 0.0
C219 C 0.97372 0.39831 0.25119 0.0
C220 C 0.8934 0.04637 0.92695 0.0
C221 C 0.88549 1.01036 -0.0289 0.0
C222 C 0.92224 0.05422 0.83992 0.0
C223 C 0.94524 0.0268 0.79708 0.0
H224 H 0.87562 0.06807 0.95386 0.0
H225 H 0.92558 0.08165 0.8024 0.0
S226 S 0.93914 0.92933 0.89375 0.0
N227 N 0.90477 0.94765 -0.02908 0.0
N228 N 0.96009 0.96305 0.81198 0.0
C229 C 0.93951 0.99147 0.84662 0.0
C230 C 0.90934 0.9831 0.93245 0.0
C231 C 0.54485 0.91085 -0.00744 0.0
C232 C 0.56246 0.87988 0.94886 0.0
C233 C 0.5369 0.93959 0.91694 0.0
C234 C 0.54548 0.93772 0.79509 0.0
H235 H 0.53867 0.91361 0.08616 0.0
H236 H 0.52432 0.96354 0.95401 0.0
S237 S 0.59172 0.86274 0.63765 0.0
N238 N 0.58904 0.84976 0.77669 0.0
N239 N 0.57203 0.90239 0.63468 0.0
C240 C 0.5621 0.9065 0.75041 0.0
C241 C 0.57118 0.87794 0.82736 0.0
C242 C 0.67045 0.52863 0.86316 0.0
C243 C 0.70766 0.54182 0.82388 0.0
C244 C 0.63909 0.52666 0.7864 0.0
C245 C 0.64385 0.53797 0.66805 0.0
H246 H 0.66576 0.5185 0.95206 0.0
H247 H 0.61128 0.51514 0.81892 0.0
S248 S 0.73478 0.57827 0.52671 0.0
N249 N 0.74668 0.56863 0.66171 0.0
N250 N 0.68843 0.56585 0.5198 0.0
C251 C 0.6806 0.55295 0.63049 0.0
C252 C 0.71227 0.55457 0.70768 0.0
C253 C 0.97858 0.68096 0.8007 0.0
C254 C 1.00028 0.6863 0.90291 0.0
C255 C 0.9813 0.64999 0.72683 0.0
C256 C 1.00591 0.6227 0.75116 0.0
H257 H 0.96014 0.70169 0.77491 0.0
H258 H 0.96484 0.64815 0.64709 0.0
S259 S 0.06652 0.62122 0.01354 0.0
N260 N 0.04538 0.66 0.02989 0.0
N261 N 0.05048 0.60148 0.88989 0.0
C262 C 1.02628 0.62633 0.85661 0.0
C263 C 1.02353 0.65823 0.93265 0.0
C264 C 0.94867 0.16742 0.15679 0.0
C265 C 0.97486 0.19888 0.17375 0.0
C266 C 0.95489 0.1331 0.20545 0.0
C267 C 0.98797 0.12919 0.26953 0.0
H268 H 0.92528 0.16861 0.0969 0.0
H269 H 0.93498 0.10917 0.18711 0.0
S270 S 0.06234 0.20426 0.35195 0.0
N271 N 1.0321 0.22478 0.2721 0.0
N272 N 0.04486 0.16053 0.35832 0.0
C273 C 1.01267 0.16106 0.29427 0.0
C274 C 1.00559 0.19596 0.2487 0.0
C275 C 0.33774 0.98397 0.30362 0.0
C276 C 0.33747 0.96601 0.19299 0.0
C277 C 0.36866 0.98235 0.37786 0.0
C278 C 0.40001 0.96274 0.34346 0.0
H279 H 0.31706 1.00357 0.32591 0.0
H280 H 0.36982 0.99987 0.45624 0.0
S281 S 0.40539 0.89984 0.08454 0.0
N282 N 0.36486 0.91906 0.07003 0.0
N283 N 0.4239 0.91697 0.20846 0.0
C284 C 0.39657 0.93921 0.24437 0.0
C285 C 0.36467 0.94036 0.16969 0.0
C286 C 0.5593 0.3473 0.22735 0.0
C287 C 0.58439 0.33927 0.13427 0.0
C288 C 0.55887 0.38344 0.27007 0.0
C289 C 0.58588 0.41165 0.22971 0.0
H290 H 0.53553 0.32746 0.25229 0.0
H291 H 0.53577 0.38969 0.33019 0.0
S292 S 0.66551 0.40159 0.01576 0.0
N293 N 0.64174 0.36004 0.02012 0.0
N294 N 0.64357 0.42767 0.11196 0.0
C295 C 0.61555 0.40248 0.15323 0.0
C296 C 0.6148 0.3659 0.10479 0.0
C297 C 0.18556 0.61302 0.16385 0.0
C298 C 0.20484 0.58078 0.17406 0.0
C299 C 0.14806 0.61448 0.20981 0.0
C300 C 0.12843 0.58314 0.26188 0.0
H301 H 0.19845 0.63603 0.1125 0.0
H302 H 0.13368 0.63935 0.19871 0.0
S303 S 0.1676 0.49375 0.32079 0.0
N304 N 0.20295 0.51873 0.25263 0.0
N305 N 0.13201 0.52047 0.3312 0.0
C306 C 0.14821 0.55173 0.27855 0.0
C307 C 0.18666 0.5509 0.23717 0.0
C308 C 0.04703 0.87004 0.89343 0.0
C309 C 0.07708 0.85478 0.94901 0.0
C310 C 0.05182 0.90598 0.8504 0.0
C311 C 0.08724 0.92724 0.85643 0.0
H312 H 1.0185 0.8557 0.89492 0.0
H313 H 1.02725 0.91758 0.81471 0.0
S314 S 0.17663 0.89755 -0.02586 0.0
N315 N 0.1443 0.8622 -0.00105 0.0
N316 N 0.15434 0.9288 0.90497 0.0
C317 C 0.11869 0.91091 0.89924 0.0
C318 C 0.11337 0.87477 0.94859 0.0
C319 C 0.72575 0.06099 0.81875 0.0
C320 C 0.72761 0.08073 0.92598 0.0
C321 C 0.69525 0.06395 0.7437 0.0
C322 C 0.66587 0.08663 0.77428 0.0
H323 H 0.74485 0.03964 0.80014 0.0
H324 H 0.69267 0.04545 0.66774 0.0
S325 S 0.66506 0.15269 0.02609 0.0
N326 N 0.70363 0.13062 0.04386 0.0
N327 N 0.64561 0.13565 0.9034 0.0
C328 C 0.671 0.11104 0.87064 0.0
C329 C 0.70236 0.10833 0.94631 0.0
C330 C 0.52374 0.70343 0.83799 0.0
C331 C 0.56302 0.715 0.81898 0.0
C332 C 0.50872 0.66726 0.80917 0.0
C333 C 0.53261 0.64166 0.76148 0.0
H334 H 0.50544 0.72094 0.88743 0.0
H335 H 0.47911 0.65858 0.832 0.0
S336 S 0.63488 0.66066 0.6695 0.0
N337 N 0.6232 0.70013 0.72863 0.0
N338 N 0.5956 0.63193 0.67745 0.0
C339 C 0.57063 0.65418 0.72916 0.0
C340 C 0.58559 0.69108 0.75615 0.0
C341 C 0.85746 0.45084 0.93112 0.0
C342 C 0.8593 0.46977 0.04055 0.0
C343 C 0.89069 0.44708 0.86176 0.0
C344 C 0.92688 0.46157 0.90054 0.0
H345 H 0.83004 0.44092 0.8953 0.0
H346 H 0.88763 0.43534 0.77377 0.0
S347 S 0.94928 0.50844 0.18485 0.0
N348 N 0.90228 0.5006 0.18631 0.0
N349 N 0.96381 0.48985 0.06051 0.0
C350 C 0.9298 0.47624 0.0147 0.0
C351 C 0.89623 0.48147 0.08352 0.0
C352 C 1.0326 0.20148 0.71987 0.0
C353 C 0.04705 0.21071 0.83159 0.0
C354 C 0.03706 0.1667 0.66769 0.0
C355 C 0.05609 0.13955 0.7251 0.0
H356 H 1.0139 0.21942 0.67882 0.0
H357 H 1.0224 0.1601 0.58635 0.0
S358 S 0.10425 0.15269 0.01183 0.0
N359 N 0.0853 0.1921 -0.00838 0.0
N360 N 0.09381 0.12675 0.89395 0.0
C361 C 0.07407 0.15 0.83141 0.0
C362 C 0.06983 0.18567 0.88383 0.0
C363 C 0.3849 1.00851 0.77169 0.0
C364 C 0.36711 0.03643 0.83437 0.0
C365 C 0.42205 1.01489 0.72355 0.0
C366 C 0.44269 0.04998 0.73023 0.0
H367 H 0.37136 0.9804 0.76975 0.0
H368 H 0.43538 0.9914 0.68649 0.0
S369 S 0.40648 0.13447 0.86477 0.0
N370 N 0.37146 0.10161 0.88974 0.0
N371 N 0.44041 0.11442 0.79097 0.0
C372 C 0.42388 0.07915 0.7824 0.0
C373 C 0.38622 0.07229 0.83526 0.0
C374 C 0.48578 0.37668 0.83825 0.0
C375 C 0.507 0.34752 0.79681 0.0
C376 C 0.4887 0.41151 0.78255 0.0
C377 C 0.5133 0.41864 0.68393 0.0
H378 H 0.46953 0.37362 0.92053 0.0
H379 H 0.47294 0.43339 0.82008 0.0
S380 S 0.57627 0.35168 0.54561 0.0
N381 N 0.55259 0.32801 0.65124 0.0
N382 N 0.56004 0.39298 0.55023 0.0
C383 C 0.53352 0.38902 0.63969 0.0
C384 C 0.52963 0.35359 0.69449 0.0
C385 C 0.17561 0.4947 0.84774 0.0
C386 C 0.20668 0.51954 0.81019 0.0
C387 C 0.13991 0.49314 0.79305 0.0
C388 C 0.13387 0.5161 0.69762 0.0
H389 H 0.17765 0.47933 0.92811 0.0
H390 H 0.11631 0.47533 0.83032 0.0
S391 S 0.20773 0.5824 0.55599 0.0
N392 N 0.23022 0.56474 0.66483 0.0
N393 N 0.1638 0.56169 0.5604 0.0
C394 C 0.16585 0.53849 0.65234 0.0
C395 C 0.20207 0.54011 0.70867 0.0
C396 C 0.98864 0.8734 0.28821 0.0
C397 C 1.01431 0.84806 0.32296 0.0
C398 C 0.98668 0.90779 0.34648 0.0
C399 C 1.01002 0.91802 0.44276 0.0
H400 H 0.97304 0.86833 0.2075 0.0
H401 H 0.96851 0.92732 0.3112 0.0
S402 S 0.0789 0.85927 0.57571 0.0
N403 N 0.06081 0.83396 0.46493 0.0
N404 N 0.05717 0.89778 0.57637 0.0
C405 C 1.03321 0.89128 0.48472 0.0
C406 C 0.03521 0.85646 0.4247 0.0
C407 C 0.68145 0.04626 0.36051 0.0
C408 C 0.69931 1.01817 0.29925 0.0
C409 C 0.6436 0.04041 0.40404 0.0
C410 C 0.62212 1.00582 0.39209 0.0
H411 H 0.69559 0.0741 0.36459 0.0
H412 H 0.63046 0.06395 0.44152 0.0
S413 S 0.6566 0.92209 0.24741 0.0
N414 N 0.69318 0.95398 0.23313 0.0
N415 N 0.62277 0.94217 0.3215 0.0
C416 C 0.64054 0.97666 0.33856 0.0
C417 C 0.67898 0.98295 0.29143 0.0
C418 C 0.57906 0.69228 0.30337 0.0
C419 C 0.58285 0.69185 0.1792 0.0
C420 C 0.57462 0.65908 0.3683 0.0
C421 C 0.57471 0.62397 0.31221 0.0
H422 H 0.57922 0.71837 0.35128 0.0
H423 H 0.57071 0.66102 0.46293 0.0
S424 S 0.58291 0.6058 -0.00911 0.0
N425 N 0.58287 0.65101 0.00431 0.0
N426 N 0.58027 0.59079 0.12661 0.0
C427 C 0.57944 0.62304 0.18948 0.0
C428 C 0.58193 0.65626 0.12305 0.0
C429 C 0.8625 0.56678 0.30628 0.0
C430 C 0.83274 0.54191 0.35256 0.0
C431 C 0.89892 0.5708 0.357 0.0
C432 C 0.9067 0.55072 0.4574 0.0
H433 H 0.85937 0.57915 0.2212 0.0
H434 H 0.92185 0.58737 0.31158 0.0
S435 S 0.83482 0.49077 0.63143 0.0
N436 N 0.81106 0.50322 0.51713 0.0
N437 N 0.87855 0.51151 0.61576 0.0
C438 C 0.87535 0.53038 0.51453 0.0
C439 C 0.83853 0.52603 0.46176 0.0
loop_
_geom_bond_atom_site_label_1
_geom_bond_atom_site_label_2
_geom_bond_distance
_geom_bond_site_symmetry_2
_ccdc_geom_bond_type
H0 C5 0.930 . S
H1 C8 0.930 1_556 S
H2 C10 0.930 . S
H3 C4 1.016 1_556 S
C4 H3 1.016 1_554 S
C4 N11 1.286 . S
C5 H0 0.930 . S
C5 C6 1.397 . S
C5 C7 1.361 . S
C6 C5 1.397 . S
C6 C10 1.390 . S
C7 C5 1.361 . S
C7 C8 1.393 . S
C7 N11 1.413 . S
C8 H1 0.930 1_554 S
C8 C7 1.393 . S
C8 C9 1.399 . S
C9 C8 1.399 . S
C9 C10 1.381 . S
C10 H2 0.930 . S
C10 C6 1.390 . S
C10 C9 1.381 . S
N11 C4 1.286 . S
N11 C7 1.413 . S
H12 C17 0.930 . S
H13 C20 0.930 . S
H14 C22 0.930 . S
H15 C16 1.016 1_556 S
C16 H15 1.016 1_554 S
C16 N23 1.286 1_655 S
C17 H12 0.930 . S
C17 C18 1.397 . S
C17 C19 1.361 . S
C18 C17 1.397 . S
C18 C22 1.390 1_455 S
C19 C17 1.361 . S
C19 C20 1.393 1_554 S
C19 N23 1.413 . S
C20 H13 0.930 . S
C20 C19 1.393 1_556 S
C20 C21 1.405 1_556 S
C21 C20 1.405 1_554 S
C21 C22 1.379 1_455 S
C22 H14 0.930 . S
C22 C18 1.390 1_655 S
C22 C21 1.379 1_655 S
N23 C16 1.286 1_455 S
N23 C19 1.413 . S
H24 C29 0.930 . S
H25 C32 0.930 . S
H26 C34 0.930 . S
H27 C28 1.016 . S
C28 H27 1.016 . S
C28 N35 1.286 1_556 S
C29 H24 0.930 . S
C29 C30 1.397 . S
C29 C31 1.361 . S
C30 C29 1.397 . S
C30 C34 1.390 . S
C31 C29 1.361 . S
C31 C32 1.393 1_554 S
C31 N35 1.413 . S
C32 H25 0.930 . S
C32 C31 1.393 1_556 S
C32 C33 1.399 . S
C33 C32 1.399 . S
C33 C34 1.381 1_556 S
C34 H26 0.930 . S
C34 C30 1.390 . S
C34 C33 1.381 1_554 S
N35 C28 1.286 1_554 S
N35 C31 1.413 . S
H36 C41 0.930 . S
H37 C44 0.930 1_556 S
H38 C46 0.930 . S
H39 C40 1.016 1_556 S
C40 H39 1.016 1_554 S
C40 N47 1.286 . S
C41 H36 0.930 . S
C41 C42 1.397 . S
C41 C43 1.361 . S
C42 C41 1.397 . S
C42 C46 1.390 . S
C43 C41 1.361 . S
C43 C44 1.393 . S
C43 N47 1.413 . S
C44 H37 0.930 1_554 S
C44 C43 1.393 . S
C44 C45 1.399 . S
C45 C44 1.399 . S
C45 C46 1.381 . S
C46 H38 0.930 . S
C46 C42 1.390 . S
C46 C45 1.381 . S
N47 C40 1.286 . S
N47 C43 1.413 . S
H48 C53 0.930 . S
H49 C56 0.930 . S
H50 C58 0.930 . S
H51 C52 1.016 . S
C52 H51 1.016 . S
C52 N59 1.286 . S
C53 H48 0.930 . S
C53 C54 1.397 . S
C53 C55 1.361 1_556 S
C54 C53 1.397 . S
C54 C58 1.390 1_556 S
C55 C53 1.361 1_554 S
C55 C56 1.393 . S
C55 N59 1.413 . S
C56 H49 0.930 . S
C56 C55 1.393 . S
C56 C57 1.399 . S
C57 C56 1.399 . S
C57 C58 1.381 . S
C58 H50 0.930 . S
C58 C54 1.390 1_554 S
C58 C57 1.381 . S
N59 C52 1.286 . S
N59 C55 1.413 . S
H60 C65 0.930 . S
H61 C68 0.930 . S
H62 C70 0.930 . S
H63 C64 1.025 . S
C64 H63 1.025 . S
C64 N71 1.271 1_655 S
C65 H60 0.930 . S
C65 C66 1.397 . S
C65 C67 1.361 1_556 S
C66 C65 1.397 . S
C66 C70 1.390 1_456 S
C67 C65 1.361 1_554 S
C67 C68 1.393 . S
C67 N71 1.413 . S
C68 H61 0.930 . S
C68 C67 1.393 . S
C68 C69 1.401 . S
C69 C68 1.401 . S
C69 C70 1.378 1_455 S
C70 H62 0.930 . S
C70 C66 1.390 1_654 S
C70 C69 1.378 1_655 S
N71 C64 1.271 1_455 S
N71 C67 1.413 . S
H72 C77 0.930 . S
H73 C80 0.930 . S
H74 C82 0.930 . S
H75 C76 1.016 . S
C76 H75 1.016 . S
C76 N83 1.286 . S
C77 H72 0.930 . S
C77 C78 1.397 . S
C77 C79 1.361 1_556 S
C78 C77 1.397 . S
C78 C82 1.390 1_556 S
C79 C77 1.361 1_554 S
C79 C80 1.393 . S
C79 N83 1.413 . S
C80 H73 0.930 . S
C80 C79 1.393 . S
C80 C81 1.399 . S
C81 C80 1.399 . S
C81 C82 1.381 . S
C82 H74 0.930 . S
C82 C78 1.390 1_554 S
C82 C81 1.381 . S
N83 C76 1.286 . S
N83 C79 1.413 . S
H84 C89 0.930 . S
H85 C92 0.930 . S
H86 C94 0.930 . S
H87 C88 1.016 . S
C88 H87 1.016 . S
C88 N95 1.286 . S
C89 H84 0.930 . S
C89 C90 1.397 . S
C89 C91 1.361 1_556 S
C90 C89 1.397 . S
C90 C94 1.390 . S
C91 C89 1.361 1_554 S
C91 C92 1.393 . S
C91 N95 1.413 . S
C92 H85 0.930 . S
C92 C91 1.393 . S
C92 C93 1.399 . S
C93 C92 1.399 . S
C93 C94 1.381 1_554 S
C94 H86 0.930 . S
C94 C90 1.390 . S
C94 C93 1.381 1_556 S
N95 C88 1.286 . S
N95 C91 1.413 . S
Dy96 O100 2.398 . S
Dy96 O101 2.491 1_455 S
Dy96 O102 2.403 . S
Dy96 O103 2.664 1_565 S
Dy96 O107 2.326 . S
Dy96 O111 2.310 1_455 S
Dy96 O112 2.351 1_565 S
C97 O108 1.185 . S
C97 O109 1.355 1_655 S
C98 O100 1.185 . S
C98 O101 1.355 1_455 S
Dy99 O103 2.310 1_655 S
Dy99 O106 2.351 1_545 S
Dy99 O108 2.398 . S
Dy99 O109 2.491 1_655 S
Dy99 O110 2.403 . S
Dy99 O111 2.664 1_545 S
Dy99 O113 2.326 . S
O100 Dy96 2.398 . S
O100 C98 1.185 . S
O101 Dy96 2.491 1_655 S
O101 C98 1.355 1_655 S
O102 Dy96 2.403 . S
O102 C104 1.254 1_565 S
O103 Dy96 2.664 1_545 S
O103 Dy99 2.310 1_455 S
O103 C104 1.268 . S
C104 O102 1.254 1_545 S
C104 O103 1.268 . S
C105 O110 1.254 1_565 S
C105 O111 1.268 . S
O106 Dy99 2.351 1_565 S
O106 C114 1.249 . S
O107 Dy96 2.326 . S
O107 C114 1.267 1_455 S
O108 C97 1.185 . S
O108 Dy99 2.398 . S
O109 C97 1.355 1_455 S
O109 Dy99 2.491 1_455 S
O110 Dy99 2.403 . S
O110 C105 1.254 1_545 S
O111 Dy96 2.310 1_655 S
O111 Dy99 2.664 1_565 S
O111 C105 1.268 . S
O112 Dy96 2.351 1_545 S
O112 C115 1.249 . S
O113 Dy99 2.326 . S
O113 C115 1.267 1_655 S
C114 O106 1.249 . S
C114 O107 1.267 1_655 S
C115 O112 1.249 . S
C115 O113 1.267 1_455 S
Dy116 O120 2.398 . S
Dy116 O121 2.491 1_565 S
Dy116 O122 2.403 . S
Dy116 O123 2.664 . S
Dy116 O127 2.326 1_565 S
Dy116 O131 2.310 1_565 S
Dy116 O132 2.351 . S
C117 O128 1.185 . S
C117 O129 1.355 1_545 S
C118 O120 1.182 1_545 S
C118 O121 1.356 . S
Dy119 O123 2.310 1_545 S
Dy119 O126 2.351 . S
Dy119 O128 2.398 . S
Dy119 O129 2.491 1_545 S
Dy119 O130 2.403 . S
Dy119 O131 2.664 . S
Dy119 O133 2.326 1_545 S
O120 Dy116 2.398 . S
O120 C118 1.182 1_565 S
O121 Dy116 2.491 1_545 S
O121 C118 1.356 . S
O122 Dy116 2.403 . S
O122 C124 1.254 . S
O123 Dy116 2.664 . S
O123 Dy119 2.310 1_565 S
O123 C124 1.268 . S
C124 O122 1.254 . S
C124 O123 1.268 . S
C125 O130 1.254 . S
C125 O131 1.268 . S
O126 Dy119 2.351 . S
O126 C134 1.249 . S
O127 Dy116 2.326 1_545 S
O127 C134 1.267 . S
O128 C117 1.185 . S
O128 Dy119 2.398 . S
O129 C117 1.355 1_565 S
O129 Dy119 2.491 1_565 S
O130 Dy119 2.403 . S
O130 C125 1.254 . S
O131 Dy116 2.310 1_545 S
O131 Dy119 2.664 . S
O131 C125 1.268 . S
O132 Dy116 2.351 . S
O132 C135 1.249 . S
O133 Dy119 2.326 1_565 S
O133 C135 1.267 . S
C134 O126 1.249 . S
C134 O127 1.267 . S
C135 O132 1.249 . S
C135 O133 1.267 . S
Dy136 O140 2.398 . S
Dy136 O141 2.491 . S
Dy136 O142 2.403 . S
Dy136 O143 2.664 . S
Dy136 O147 2.326 . S
Dy136 O151 2.310 . S
Dy136 O152 2.351 . S
C137 O148 1.185 . S
C137 O149 1.355 . S
C138 O140 1.185 . S
C138 O141 1.355 . S
Dy139 O143 2.310 . S
Dy139 O146 2.351 . S
Dy139 O148 2.398 . S
Dy139 O149 2.491 . S
Dy139 O150 2.403 . S
Dy139 O151 2.664 . S
Dy139 O153 2.326 . S
O140 Dy136 2.398 . S
O140 C138 1.185 . S
O141 Dy136 2.491 . S
O141 C138 1.355 . S
O142 Dy136 2.403 . S
O142 C144 1.254 . S
O143 Dy136 2.664 . S
O143 Dy139 2.310 . S
O143 C144 1.268 . S
C144 O142 1.254 . S
C144 O143 1.268 . S
C145 O150 1.254 . S
C145 O151 1.268 . S
O146 Dy139 2.351 . S
O146 C154 1.249 . S
O147 Dy136 2.326 . S
O147 C154 1.267 . S
O148 C137 1.185 . S
O148 Dy139 2.398 . S
O149 C137 1.355 . S
O149 Dy139 2.491 . S
O150 Dy139 2.403 . S
O150 C145 1.254 . S
O151 Dy136 2.310 . S
O151 Dy139 2.664 . S
O151 C145 1.268 . S
O152 Dy136 2.351 . S
O152 C155 1.249 . S
O153 Dy139 2.326 . S
O153 C155 1.267 . S
C154 O146 1.249 . S
C154 O147 1.267 . S
C155 O152 1.249 . S
C155 O153 1.267 . S
Dy156 O160 2.398 . S
Dy156 O161 2.491 . S
Dy156 O162 2.403 . S
Dy156 O163 2.664 1_655 S
Dy156 O167 2.326 . S
Dy156 O171 2.310 . S
Dy156 O172 2.351 1_655 S
C157 O168 1.185 . S
C157 O169 1.355 . S
C158 O160 1.185 . S
C158 O161 1.355 . S
Dy159 O163 2.310 . S
Dy159 O166 2.351 1_455 S
Dy159 O168 2.398 . S
Dy159 O169 2.491 . S
Dy159 O170 2.403 . S
Dy159 O171 2.664 1_455 S
Dy159 O173 2.326 . S
O160 Dy156 2.398 . S
O160 C158 1.185 . S
O161 Dy156 2.491 . S
O161 C158 1.355 . S
O162 Dy156 2.403 . S
O162 C164 1.254 . S
O163 Dy156 2.664 1_455 S
O163 Dy159 2.310 . S
O163 C164 1.268 1_455 S
C164 O162 1.254 . S
C164 O163 1.268 1_655 S
C165 O170 1.254 . S
C165 O171 1.268 1_455 S
O166 Dy159 2.351 1_655 S
O166 C174 1.249 . S
O167 Dy156 2.326 . S
O167 C174 1.267 . S
O168 C157 1.185 . S
O168 Dy159 2.398 . S
O169 C157 1.355 . S
O169 Dy159 2.491 . S
O170 Dy159 2.403 . S
O170 C165 1.254 . S
O171 Dy156 2.310 . S
O171 Dy159 2.664 1_655 S
O171 C165 1.268 1_655 S
O172 Dy156 2.351 1_455 S
O172 C175 1.249 . S
O173 Dy159 2.326 . S
O173 C175 1.267 . S
C174 O166 1.249 . S
C174 O167 1.267 . S
C175 O172 1.249 . S
C175 O173 1.267 . S
C176 C177 1.369 . S
C176 C178 1.419 . S
C176 H180 0.930 . S
C177 C176 1.369 . S
C177 C186 1.429 . S
C178 C176 1.419 . S
C178 C179 1.363 . S
C178 H181 0.929 . S
C179 C178 1.363 . S
C179 C185 1.428 . S
H180 C176 0.930 . S
H181 C178 0.929 . S
S182 N183 1.613 . S
S182 N184 1.610 . S
N183 S182 1.613 . S
N183 C186 1.350 . S
N184 S182 1.610 . S
N184 C185 1.351 . S
C185 C179 1.428 . S
C185 N184 1.351 . S
C185 C186 1.434 . S
C186 C177 1.429 . S
C186 N183 1.350 . S
C186 C185 1.434 . S
C187 C188 1.369 . S
C187 C189 1.419 . S
C187 H191 0.930 . S
C188 C187 1.369 . S
C188 C197 1.429 . S
C189 C187 1.419 . S
C189 C190 1.363 . S
C189 H192 0.929 . S
C190 C189 1.363 . S
C190 C196 1.428 . S
H191 C187 0.930 . S
H192 C189 0.929 . S
S193 N194 1.613 . S
S193 N195 1.610 . S
N194 S193 1.613 . S
N194 C197 1.350 . S
N195 S193 1.610 . S
N195 C196 1.351 . S
C196 C190 1.428 . S
C196 N195 1.351 . S
C196 C197 1.434 . S
C197 C188 1.429 . S
C197 N194 1.350 . S
C197 C196 1.434 . S
C198 C199 1.369 . S
C198 C200 1.419 . S
C198 H202 0.930 . S
C199 C198 1.369 . S
C199 C208 1.429 . S
C200 C198 1.419 . S
C200 C201 1.363 . S
C200 H203 0.929 . S
C201 C200 1.363 . S
C201 C207 1.428 . S
H202 C198 0.930 . S
H203 C200 0.929 . S
S204 N205 1.613 . S
S204 N206 1.610 . S
N205 S204 1.613 . S
N205 C208 1.350 . S
N206 S204 1.610 . S
N206 C207 1.351 . S
C207 C201 1.428 . S
C207 N206 1.351 . S
C207 C208 1.434 . S
C208 C199 1.429 . S
C208 N205 1.350 . S
C208 C207 1.434 . S
C209 C210 1.362 1_455 S
C209 C211 1.419 . S
C209 H213 0.930 . S
C210 C209 1.362 1_655 S
C210 C219 1.436 . S
C211 C209 1.419 . S
C211 C212 1.363 1_455 S
C211 H214 0.929 . S
C212 C211 1.363 1_655 S
C212 C218 1.428 . S
H213 C209 0.930 . S
H214 C211 0.929 . S
S215 N216 1.613 . S
S215 N217 1.610 . S
N216 S215 1.613 . S
N216 C219 1.350 . S
N217 S215 1.610 . S
N217 C218 1.351 . S
C218 C212 1.428 . S
C218 N217 1.351 . S
C218 C219 1.434 . S
C219 C210 1.436 . S
C219 N216 1.350 . S
C219 C218 1.434 . S
C220 C221 1.369 . S
C220 C222 1.420 . S
C220 H224 0.930 1_565 S
C221 C220 1.369 . S
C221 C230 1.429 . S
C222 C220 1.420 . S
C222 C223 1.368 . S
C222 H225 0.922 1_565 S
C223 C222 1.368 . S
C223 C229 1.428 . S
H224 C220 0.930 1_545 S
H225 C222 0.922 1_545 S
S226 N227 1.613 1_556 S
S226 N228 1.610 . S
N227 S226 1.613 1_554 S
N227 C230 1.350 1_554 S
N228 S226 1.610 . S
N228 C229 1.351 . S
C229 C223 1.428 . S
C229 N228 1.351 . S
C229 C230 1.434 . S
C230 C221 1.429 . S
C230 N227 1.350 1_556 S
C230 C229 1.434 . S
C231 C232 1.369 1_554 S
C231 C233 1.419 1_554 S
C231 H235 0.930 . S
C232 C231 1.369 1_556 S
C232 C241 1.429 . S
C233 C231 1.419 1_556 S
C233 C234 1.363 . S
C233 H236 0.929 . S
C234 C233 1.363 . S
C234 C240 1.428 . S
H235 C231 0.930 . S
H236 C233 0.929 . S
S237 N238 1.613 . S
S237 N239 1.610 . S
N238 S237 1.613 . S
N238 C241 1.350 . S
N239 S237 1.610 . S
N239 C240 1.351 . S
C240 C234 1.428 . S
C240 N239 1.351 . S
C240 C241 1.434 . S
C241 C232 1.429 . S
C241 N238 1.350 . S
C241 C240 1.434 . S
C242 C243 1.369 . S
C242 C244 1.419 . S
C242 H246 0.930 1_556 S
C243 C242 1.369 . S
C243 C252 1.429 . S
C244 C242 1.419 . S
C244 C245 1.363 . S
C244 H247 0.929 . S
C245 C244 1.363 . S
C245 C251 1.428 . S
H246 C242 0.930 1_554 S
H247 C244 0.929 . S
S248 N249 1.613 . S
S248 N250 1.610 . S
N249 S248 1.613 . S
N249 C252 1.350 . S
N250 S248 1.610 . S
N250 C251 1.351 . S
C251 C245 1.428 . S
C251 N250 1.351 . S
C251 C252 1.434 . S
C252 C243 1.429 . S
C252 N249 1.350 . S
C252 C251 1.434 . S
C253 C254 1.371 1_455 S
C253 C255 1.419 . S
C253 H257 0.930 . S
C254 C253 1.371 1_655 S
C254 C263 1.427 . S
C255 C253 1.419 . S
C255 C256 1.376 . S
C255 H258 0.929 . S
C256 C255 1.376 . S
C256 C262 1.414 1_455 S
H257 C253 0.930 . S
H258 C255 0.929 . S
S259 N260 1.613 . S
S259 N261 1.610 1_554 S
N260 S259 1.613 . S
N260 C263 1.350 1_554 S
N261 S259 1.610 1_556 S
N261 C262 1.351 . S
C262 C256 1.414 1_655 S
C262 N261 1.351 . S
C262 C263 1.434 . S
C263 C254 1.427 . S
C263 N260 1.350 1_556 S
C263 C262 1.434 . S
C264 C265 1.369 . S
C264 C266 1.419 . S
C264 H268 0.930 . S
C265 C264 1.369 . S
C265 C274 1.429 1_655 S
C266 C264 1.419 . S
C266 C267 1.363 . S
C266 H269 0.929 . S
C267 C266 1.363 . S
C267 C273 1.418 1_655 S
H268 C264 0.930 . S
H269 C266 0.929 . S
S270 N271 1.613 . S
S270 N272 1.610 . S
N271 S270 1.613 . S
N271 C274 1.350 . S
N272 S270 1.610 . S
N272 C273 1.359 . S
C273 C267 1.418 1_455 S
C273 N272 1.359 . S
C273 C274 1.437 . S
C274 C265 1.429 1_455 S
C274 N271 1.350 . S
C274 C273 1.437 . S
C275 C276 1.369 . S
C275 C277 1.419 . S
C275 H279 0.930 . S
C276 C275 1.369 . S
C276 C285 1.429 . S
C277 C275 1.419 . S
C277 C278 1.363 . S
C277 H280 0.929 . S
C278 C277 1.363 . S
C278 C284 1.428 1_545 S
H279 C275 0.930 . S
H280 C277 0.929 . S
S281 N282 1.613 1_556 S
S281 N283 1.610 1_556 S
N282 S281 1.613 1_554 S
N282 C285 1.350 1_565 S
N283 S281 1.610 1_554 S
N283 C284 1.351 . S
C284 C278 1.428 1_565 S
C284 N283 1.351 . S
C284 C285 1.434 1_565 S
C285 C276 1.429 . S
C285 N282 1.350 1_545 S
C285 C284 1.434 1_545 S
C286 C287 1.369 . S
C286 C288 1.419 . S
C286 H290 0.930 . S
C287 C286 1.369 . S
C287 C296 1.429 . S
C288 C286 1.419 . S
C288 C289 1.363 . S
C288 H291 0.929 . S
C289 C288 1.363 . S
C289 C295 1.428 . S
H290 C286 0.930 . S
H291 C288 0.929 . S
S292 N293 1.613 . S
S292 N294 1.610 1_556 S
N293 S292 1.613 . S
N293 C296 1.350 1_556 S
N294 S292 1.610 1_554 S
N294 C295 1.351 . S
C295 C289 1.428 . S
C295 N294 1.351 . S
C295 C296 1.434 . S
C296 C287 1.429 . S
C296 N293 1.350 1_554 S
C296 C295 1.434 . S
C297 C298 1.369 . S
C297 C299 1.419 . S
C297 H301 0.930 . S
C298 C297 1.369 . S
C298 C307 1.429 . S
C299 C297 1.419 . S
C299 C300 1.363 . S
C299 H302 0.929 . S
C300 C299 1.363 . S
C300 C306 1.428 . S
H301 C297 0.930 . S
H302 C299 0.929 . S
S303 N304 1.613 . S
S303 N305 1.610 . S
N304 S303 1.613 . S
N304 C307 1.350 . S
N305 S303 1.610 . S
N305 C306 1.351 . S
C306 C300 1.428 . S
C306 N305 1.351 . S
C306 C307 1.434 . S
C307 C298 1.429 . S
C307 N304 1.350 . S
C307 C306 1.434 . S
C308 C309 1.369 . S
C308 C310 1.419 . S
C308 H312 0.930 . S
C309 C308 1.369 . S
C309 C318 1.429 1_556 S
C310 C308 1.419 . S
C310 C311 1.363 . S
C310 H313 0.929 . S
C311 C310 1.363 . S
C311 C317 1.428 . S
H312 C308 0.930 . S
H313 C310 0.929 . S
S314 N315 1.613 . S
S314 N316 1.610 1_655 S
N315 S314 1.613 . S
N315 C318 1.350 1_655 S
N316 S314 1.610 1_455 S
N316 C317 1.351 1_554 S
C317 C311 1.428 . S
C317 N316 1.351 1_556 S
C317 C318 1.434 1_556 S
C318 C309 1.429 1_554 S
C318 N315 1.350 1_455 S
C318 C317 1.434 1_554 S
C319 C320 1.369 . S
C319 C321 1.419 . S
C319 H323 0.930 1_556 S
C320 C319 1.369 . S
C320 C329 1.429 . S
C321 C319 1.419 . S
C321 C322 1.363 . S
C321 H324 0.929 1_556 S
C322 C321 1.363 . S
C322 C328 1.428 1_565 S
H323 C319 0.930 1_554 S
H324 C321 0.929 1_554 S
S325 N326 1.613 . S
S325 N327 1.610 . S
N326 S325 1.613 . S
N326 C329 1.350 1_545 S
N327 S325 1.610 . S
N327 C328 1.351 . S
C328 C322 1.428 1_545 S
C328 N327 1.351 . S
C328 C329 1.434 1_545 S
C329 C320 1.429 . S
C329 N326 1.350 1_565 S
C329 C328 1.434 1_565 S
C330 C331 1.369 . S
C330 C332 1.419 . S
C330 H334 0.930 1_556 S
C331 C330 1.369 . S
C331 C340 1.429 . S
C332 C330 1.419 . S
C332 C333 1.363 . S
C332 H335 0.929 . S
C333 C332 1.363 . S
C333 C339 1.428 . S
H334 C330 0.930 1_554 S
H335 C332 0.929 . S
S336 N337 1.613 . S
S336 N338 1.610 . S
N337 S336 1.613 . S
N337 C340 1.350 . S
N338 S336 1.610 . S
N338 C339 1.351 . S
C339 C333 1.428 . S
C339 N338 1.351 . S
C339 C340 1.434 . S
C340 C331 1.429 . S
C340 N337 1.350 . S
C340 C339 1.434 . S
C341 C342 1.369 . S
C341 C343 1.419 . S
C341 H345 0.930 . S
C342 C341 1.369 . S
C342 C351 1.429 1_556 S
C343 C341 1.419 . S
C343 C344 1.363 . S
C343 H346 0.929 . S
C344 C343 1.363 . S
C344 C350 1.428 . S
H345 C341 0.930 . S
H346 C343 0.929 . S
S347 N348 1.613 . S
S347 N349 1.610 . S
N348 S347 1.613 . S
N348 C351 1.350 . S
N349 S347 1.610 . S
N349 C350 1.351 1_554 S
C350 C344 1.428 . S
C350 N349 1.351 1_556 S
C350 C351 1.434 1_556 S
C351 C342 1.429 1_554 S
C351 N348 1.350 . S
C351 C350 1.434 1_554 S
C352 C353 1.369 1_655 S
C352 C354 1.419 . S
C352 H356 0.930 . S
C353 C352 1.369 1_455 S
C353 C362 1.429 . S
C354 C352 1.419 . S
C354 C355 1.363 1_655 S
C354 H357 0.929 . S
C355 C354 1.363 1_455 S
C355 C361 1.428 . S
H356 C352 0.930 . S
H357 C354 0.929 . S
S358 N359 1.613 . S
S358 N360 1.610 . S
N359 S358 1.613 . S
N359 C362 1.350 . S
N360 S358 1.610 . S
N360 C361 1.351 . S
C361 C355 1.428 . S
C361 N360 1.351 . S
C361 C362 1.434 . S
C362 C353 1.429 . S
C362 N359 1.350 . S
C362 C361 1.434 . S
C363 C364 1.369 . S
C363 C365 1.419 . S
C363 H367 0.930 . S
C364 C363 1.369 . S
C364 C373 1.429 . S
C365 C363 1.419 . S
C365 C366 1.363 . S
C365 H368 0.942 . S
C366 C365 1.363 . S
C366 C372 1.428 . S
H367 C363 0.930 . S
H368 C365 0.942 . S
S369 N370 1.613 . S
S369 N371 1.610 1_554 S
N370 S369 1.613 . S
N370 C373 1.350 1_554 S
N371 S369 1.610 1_556 S
N371 C372 1.351 . S
C372 C366 1.428 . S
C372 N371 1.351 . S
C372 C373 1.434 . S
C373 C364 1.429 . S
C373 N370 1.350 1_556 S
C373 C372 1.434 . S
C374 C375 1.369 . S
C374 C376 1.419 . S
C374 H378 0.930 . S
C375 C374 1.369 . S
C375 C384 1.429 . S
C376 C374 1.419 . S
C376 C377 1.363 . S
C376 H379 0.929 . S
C377 C376 1.363 . S
C377 C383 1.428 . S
H378 C374 0.930 . S
H379 C376 0.929 . S
S380 N381 1.613 1_554 S
S380 N382 1.610 1_554 S
N381 S380 1.613 1_556 S
N381 C384 1.350 . S
N382 S380 1.610 1_556 S
N382 C383 1.351 . S
C383 C377 1.428 . S
C383 N382 1.351 . S
C383 C384 1.434 . S
C384 C375 1.429 . S
C384 N381 1.350 . S
C384 C383 1.434 . S
C385 C386 1.369 . S
C385 C387 1.419 . S
C385 H389 0.930 . S
C386 C385 1.369 . S
C386 C395 1.429 . S
C387 C385 1.419 . S
C387 C388 1.363 . S
C387 H390 0.929 . S
C388 C387 1.363 . S
C388 C394 1.428 . S
H389 C385 0.930 . S
H390 C387 0.929 . S
S391 N392 1.613 . S
S391 N393 1.610 . S
N392 S391 1.613 . S
N392 C395 1.350 . S
N393 S391 1.610 . S
N393 C394 1.351 . S
C394 C388 1.428 . S
C394 N393 1.351 . S
C394 C395 1.434 . S
C395 C386 1.429 . S
C395 N392 1.350 . S
C395 C394 1.434 . S
C396 C397 1.369 . S
C396 C398 1.419 . S
C396 H400 0.930 . S
C397 C396 1.369 . S
C397 C406 1.429 1_655 S
C398 C396 1.419 . S
C398 C399 1.363 . S
C398 H401 0.929 . S
C399 C398 1.363 . S
C399 C405 1.428 1_655 S
H400 C396 0.930 . S
H401 C398 0.929 . S
S402 N403 1.613 . S
S402 N404 1.610 . S
N403 S402 1.613 . S
N403 C406 1.350 . S
N404 S402 1.610 . S
N404 C405 1.351 . S
C405 C399 1.428 1_455 S
C405 N404 1.351 . S
C405 C406 1.434 . S
C406 C397 1.429 1_455 S
C406 N403 1.350 . S
C406 C405 1.434 . S
C407 C408 1.369 . S
C407 C409 1.419 1_565 S
C407 H411 0.930 1_565 S
C408 C407 1.369 . S
C408 C417 1.429 . S
C409 C407 1.419 1_545 S
C409 C410 1.363 1_545 S
C409 H412 0.929 . S
C410 C409 1.363 1_565 S
C410 C416 1.428 . S
H411 C407 0.930 1_545 S
H412 C409 0.929 . S
S413 N414 1.613 . S
S413 N415 1.610 . S
N414 S413 1.613 . S
N414 C417 1.350 . S
N415 S413 1.610 . S
N415 C416 1.351 . S
C416 C410 1.428 . S
C416 N415 1.351 . S
C416 C417 1.434 . S
C417 C408 1.429 . S
C417 N414 1.350 . S
C417 C416 1.434 . S
C418 C419 1.369 . S
C418 C420 1.419 . S
C418 H422 0.930 . S
C419 C418 1.369 . S
C419 C428 1.429 . S
C420 C418 1.419 . S
C420 C421 1.363 . S
C420 H423 0.929 . S
C421 C420 1.363 . S
C421 C427 1.428 . S
H422 C418 0.930 . S
H423 C420 0.929 . S
S424 N425 1.613 . S
S424 N426 1.610 . S
N425 S424 1.613 . S
N425 C428 1.350 . S
N426 S424 1.610 . S
N426 C427 1.351 . S
C427 C421 1.428 . S
C427 N426 1.351 . S
C427 C428 1.434 . S
C428 C419 1.429 . S
C428 N425 1.350 . S
C428 C427 1.434 . S
C429 C430 1.369 . S
C429 C431 1.419 . S
C429 H433 0.930 . S
C430 C429 1.369 . S
C430 C439 1.429 . S
C431 C429 1.419 . S
C431 C432 1.363 . S
C431 H434 0.929 . S
C432 C431 1.363 . S
C432 C438 1.428 . S
H433 C429 0.930 . S
H434 C431 0.929 . S
S435 N436 1.613 . S
S435 N437 1.610 . S
N436 S435 1.613 . S
N436 C439 1.350 . S
N437 S435 1.610 . S
N437 C438 1.351 . S
C438 C432 1.428 . S
C438 N437 1.351 . S
C438 C439 1.434 . S
C439 C430 1.429 . S
C439 N436 1.350 . S
C439 C438 1.434 . S
C177 C76 1.638 . S
C179 C104 1.746 . S
C190 C134 1.813 . S
C188 C88 1.715 . S
C201 C144 1.669 . S
C199 C52 1.534 . S
C212 C164 1.544 . S
C210 C64 1.444 . S
C223 C105 1.748 . S
C221 C28 1.652 . S
C232 C40 1.718 1_556 S
C234 C135 1.816 . S
C243 C4 1.528 1_556 S
C245 C145 1.670 . S
C254 C16 1.444 1_556 S
C256 C165 1.551 . S
C267 C97 1.018 . S
C265 C69 1.002 1_655 S
C278 C118 0.900 . S
C276 C81 0.860 . S
C289 C137 1.157 . S
C287 C93 1.136 . S
C298 C57 0.940 . S
C300 C157 0.941 . S
C309 C21 0.998 1_556 S
C311 C98 1.018 . S
C322 C117 0.893 1_565 S
C320 C33 0.862 . S
C333 C138 1.155 . S
C331 C45 1.138 1_556 S
C342 C9 0.928 1_556 S
C344 C158 0.941 . S
C353 C66 1.554 . S
C355 C115 1.677 . S
C364 C78 1.483 . S
C366 C125 1.653 . S
C377 C155 1.854 . S
C375 C90 1.690 . S
C388 C175 1.832 . S
C386 C54 1.694 . S
C397 C18 1.562 1_655 S
C399 C114 1.676 . S
C410 C124 1.652 . S
C408 C30 1.474 . S
C421 C154 1.853 . S
C419 C42 1.684 . S
C430 C6 1.703 . S
C432 C174 1.836 . S
