# Generated by pormake.
# Topology pyr, (3,6)-cn, num edge types: 1
# Building blocks:
#     Node 0, Type 0, BuildingBlock: MIDCAF_clean_linker_0, # of connection points: 3
#     Node 1, Type 0, BuildingBlock: MIDCAF_clean_linker_0, # of connection points: 3
#     Node 2, Type 0, BuildingBlock: MIDCAF_clean_linker_0, # of connection points: 3
#     Node 3, Type 0, BuildingBlock: MIDCAF_clean_linker_0, # of connection points: 3
#     Node 4, Type 0, BuildingBlock: MIDCAF_clean_linker_0, # of connection points: 3
#     Node 5, Type 0, BuildingBlock: MIDCAF_clean_linker_0, # of connection points: 3
#     Node 6, Type 0, BuildingBlock: MIDCAF_clean_linker_0, # of connection points: 3
#     Node 7, Type 0, BuildingBlock: MIDCAF_clean_linker_0, # of connection points: 3
#     Node 8, Type 1, BuildingBlock: CIFDUS_clean_sbu_1, # of connection points: 6
#     Node 9, Type 1, BuildingBlock: CIFDUS_clean_sbu_1, # of connection points: 6
#     Node 10, Type 1, BuildingBlock: CIFDUS_clean_sbu_1, # of connection points: 6
#     Node 11, Type 1, BuildingBlock: CIFDUS_clean_sbu_1, # of connection points: 6
#     Edge 12, Type (0, 1), BuildingBlock: ZUJKAS_clean_linker_0, # of connection points: 2
#     Edge 13, Type (0, 1), BuildingBlock: ZUJKAS_clean_linker_0, # of connection points: 2
#     Edge 14, Type (0, 1), BuildingBlock: ZUJKAS_clean_linker_0, # of connection points: 2
#     Edge 15, Type (0, 1), BuildingBlock: ZUJKAS_clean_linker_0, # of connection points: 2
#     Edge 16, Type (0, 1), BuildingBlock: ZUJKAS_clean_linker_0, # of connection points: 2
#     Edge 17, Type (0, 1), BuildingBlock: ZUJKAS_clean_linker_0, # of connection points: 2
#     Edge 18, Type (0, 1), BuildingBlock: ZUJKAS_clean_linker_0, # of connection points: 2
#     Edge 19, Type (0, 1), BuildingBlock: ZUJKAS_clean_linker_0, # of connection points: 2
#     Edge 20, Type (0, 1), BuildingBlock: ZUJKAS_clean_linker_0, # of connection points: 2
#     Edge 21, Type (0, 1), BuildingBlock: ZUJKAS_clean_linker_0, # of connection points: 2
#     Edge 22, Type (0, 1), BuildingBlock: ZUJKAS_clean_linker_0, # of connection points: 2
#     Edge 23, Type (0, 1), BuildingBlock: ZUJKAS_clean_linker_0, # of connection points: 2
#     Edge 24, Type (0, 1), BuildingBlock: ZUJKAS_clean_linker_0, # of connection points: 2
#     Edge 25, Type (0, 1), BuildingBlock: ZUJKAS_clean_linker_0, # of connection points: 2
#     Edge 26, Type (0, 1), BuildingBlock: ZUJKAS_clean_linker_0, # of connection points: 2
#     Edge 27, Type (0, 1), BuildingBlock: ZUJKAS_clean_linker_0, # of connection points: 2
#     Edge 28, Type (0, 1), BuildingBlock: ZUJKAS_clean_linker_0, # of connection points: 2
#     Edge 29, Type (0, 1), BuildingBlock: ZUJKAS_clean_linker_0, # of connection points: 2
#     Edge 30, Type (0, 1), BuildingBlock: ZUJKAS_clean_linker_0, # of connection points: 2
#     Edge 31, Type (0, 1), BuildingBlock: ZUJKAS_clean_linker_0, # of connection points: 2
#     Edge 32, Type (0, 1), BuildingBlock: ZUJKAS_clean_linker_0, # of connection points: 2
#     Edge 33, Type (0, 1), BuildingBlock: ZUJKAS_clean_linker_0, # of connection points: 2
#     Edge 34, Type (0, 1), BuildingBlock: ZUJKAS_clean_linker_0, # of connection points: 2
#     Edge 35, Type (0, 1), BuildingBlock: ZUJKAS_clean_linker_0, # of connection points: 2
# Relax obj value: 0.036
# Max RMSD: 0.111
# Mean RMSD: 0.047
data_MOF--net-pry--node1-CIFDUS_clean_sbu_1--node2-MIDCAF_clean_linker_0--edge1-ZUJKAS_clean_linker_0
_symmetry_space_group_name_H-M    P1
_symmetry_Int_Tables_number       1
_symmetry_cell_setting            triclinic
loop_
_symmetry_equiv_pos_as_xyz
'x, y, z'
_cell_length_a     56.469211
_cell_length_b     54.691248
_cell_length_c     54.452415
_cell_angle_alpha  92.033431
_cell_angle_beta   91.074053
_cell_angle_gamma 93.470374
loop_
_atom_site_label
_atom_site_type_symbol
_atom_site_fract_x
_atom_site_fract_y
_atom_site_fract_z
_atom_type_partial_charge
C0 C 0.09994 0.128 0.2123 0.0
C1 C 0.10731 0.10579 0.22134 0.0
C2 C 0.1244 0.09344 0.20795 0.0
C3 C 0.13426 0.1033 0.18671 0.0
H4 H 0.18684 0.09353 0.13459 0.0
H5 H 0.22303 0.07738 0.11904 0.0
H6 H 0.23797 0.14424 0.08068 0.0
H7 H 0.20114 0.15991 0.09544 0.0
H8 H 0.15496 0.19439 0.08696 0.0
H9 H 0.13817 0.23065 0.07044 0.0
H10 H 0.08474 0.22814 0.12614 0.0
H11 H 0.10112 0.19176 0.14231 0.0
H12 H 0.10365 0.15502 0.18491 0.0
H13 H 0.08713 0.13837 0.22208 0.0
H14 H 0.13025 0.07605 0.21383 0.0
H15 H 0.14754 0.09332 0.17717 0.0
N16 N 0.15804 0.12757 0.14602 0.0
N17 N 0.15959 0.15836 0.11693 0.0
N18 N 0.12944 0.15693 0.14606 0.0
C19 C 0.16885 0.13819 0.12654 0.0
C20 C 0.13977 0.1678 0.1265 0.0
C21 C 0.13836 0.13684 0.15597 0.0
C22 C 0.19092 0.12814 0.1164 0.0
C23 C 0.19778 0.10482 0.12278 0.0
C24 C 0.21879 0.09558 0.11394 0.0
C25 C 0.23389 0.10944 0.09864 0.0
C26 C 0.22687 0.13272 0.09209 0.0
C27 C 0.20568 0.14184 0.10071 0.0
C28 C 0.12953 0.18997 0.11608 0.0
C29 C 0.13961 0.20151 0.0957 0.0
C30 C 0.13002 0.22247 0.08627 0.0
C31 C 0.11004 0.23252 0.09691 0.0
C32 C 0.0999 0.22086 0.11718 0.0
C33 C 0.10947 0.19996 0.12659 0.0
C34 C 0.12717 0.12571 0.17799 0.0
C35 C 0.10962 0.13772 0.19093 0.0
C36 C 0.29446 0.92687 0.60798 0.0
C37 C 0.28423 0.91699 0.58583 0.0
C38 C 0.29631 0.89954 0.57223 0.0
C39 C 0.31792 0.89162 0.58095 0.0
H40 H 0.37234 0.84212 0.56626 0.0
H41 H 0.38816 0.80459 0.54953 0.0
H42 H 0.42277 0.79387 0.6195 0.0
H43 H 0.40789 0.83168 0.63575 0.0
H44 H 0.42154 0.88144 0.66725 0.0
H45 H 0.43868 0.89827 0.70603 0.0
H46 H 0.3827 0.94849 0.71142 0.0
H47 H 0.36524 0.93148 0.6728 0.0
H48 H 0.32341 0.92709 0.63384 0.0
H49 H 0.2856 0.94052 0.61871 0.0
H50 H 0.28873 0.89152 0.55515 0.0
H51 H 0.32653 0.87778 0.57024 0.0
N52 N 0.35969 0.87184 0.60282 0.0
N53 N 0.38967 0.87361 0.63332 0.0
N54 N 0.36094 0.90271 0.63399 0.0
C55 C 0.37936 0.86257 0.61278 0.0
C56 C 0.38071 0.89373 0.64399 0.0
C57 C 0.35033 0.89194 0.61337 0.0
C58 C 0.38892 0.83994 0.60229 0.0
C59 C 0.38341 0.83175 0.57799 0.0
C60 C 0.39239 0.81017 0.56846 0.0
C61 C 0.40681 0.79616 0.58312 0.0
C62 C 0.41219 0.8044 0.60745 0.0
C63 C 0.40351 0.82608 0.61684 0.0
C64 C 0.39186 0.90497 0.66691 0.0
C65 C 0.41286 0.89613 0.67661 0.0
C66 C 0.42281 0.90586 0.6988 0.0
C67 C 0.41197 0.9246 0.71187 0.0
C68 C 0.39126 0.93378 0.70197 0.0
C69 C 0.38134 0.92412 0.67973 0.0
C70 C 0.32805 0.90121 0.60335 0.0
C71 C 0.31619 0.9192 0.61657 0.0
C72 C 0.60963 0.31258 0.91833 0.0
C73 C 0.59389 0.29759 0.90333 0.0
C74 C 0.58604 0.30612 0.88079 0.0
C75 C 0.59424 0.3291 0.87302 0.0
H76 H 0.57921 0.38549 0.82558 0.0
H77 H 0.56398 0.40145 0.78755 0.0
H78 H 0.62781 0.44859 0.78251 0.0
H79 H 0.64275 0.43325 0.82067 0.0
H80 H 0.67744 0.43999 0.86644 0.0
H81 H 0.71668 0.45535 0.88165 0.0
H82 H 0.71901 0.39433 0.92964 0.0
H83 H 0.68 0.37881 0.91454 0.0
H84 H 0.63084 0.34632 0.92204 0.0
H85 H 0.61594 0.30625 0.93577 0.0
H86 H 0.57379 0.29481 0.86904 0.0
H87 H 0.58818 0.33495 0.85531 0.0
N88 N 0.61167 0.37713 0.85812 0.0
N89 N 0.64262 0.40771 0.85903 0.0
N90 N 0.64182 0.37737 0.88832 0.0
C91 C 0.62216 0.3976 0.84858 0.0
C92 C 0.65254 0.39776 0.87892 0.0
C93 C 0.62137 0.36697 0.87808 0.0
C94 C 0.61224 0.40803 0.82618 0.0
C95 C 0.58992 0.3994 0.81646 0.0
C96 C 0.58121 0.40848 0.79462 0.0
C97 C 0.59469 0.42628 0.782 0.0
C98 C 0.61679 0.43521 0.79198 0.0
C99 C 0.62543 0.42625 0.81384 0.0
C100 C 0.67559 0.40807 0.88917 0.0
C101 C 0.68624 0.42988 0.88032 0.0
C102 C 0.70866 0.43875 0.88904 0.0
C103 C 0.72088 0.42586 0.90659 0.0
C104 C 0.71008 0.40438 0.91579 0.0
C105 C 0.68765 0.39561 0.90724 0.0
C106 C 0.61081 0.34379 0.88748 0.0
C107 C 0.61818 0.33543 0.91039 0.0
C108 C 0.80417 0.59147 0.44654 0.0
C109 C 0.79083 0.57205 0.43429 0.0
C110 C 0.80082 0.56007 0.41404 0.0
C111 C 0.82318 0.56811 0.40559 0.0
H112 H 0.86907 0.5602 0.34716 0.0
H113 H 0.88215 0.54681 0.30668 0.0
H114 H 0.94146 0.60049 0.31261 0.0
H115 H 0.92828 0.61418 0.35277 0.0
H116 H 0.92468 0.66039 0.38901 0.0
H117 H 0.93949 0.70087 0.40469 0.0
H118 H 0.89205 0.69511 0.46576 0.0
H119 H 0.87735 0.65455 0.45031 0.0
H120 H 0.83586 0.61481 0.44791 0.0
H121 H 0.79724 0.60077 0.46251 0.0
H122 H 0.79098 0.54507 0.40417 0.0
H123 H 0.83003 0.55894 0.38951 0.0
N124 N 0.86806 0.58839 0.38659 0.0
N125 N 0.89835 0.61981 0.38721 0.0
N126 N 0.86946 0.61949 0.41749 0.0
C127 C 0.88799 0.59882 0.37657 0.0
C128 C 0.88925 0.63026 0.40771 0.0
C129 C 0.85874 0.59857 0.40716 0.0
C130 C 0.89734 0.58861 0.35318 0.0
C131 C 0.88503 0.56903 0.33998 0.0
C132 C 0.89261 0.56123 0.31676 0.0
C133 C 0.91267 0.57281 0.30617 0.0
C134 C 0.92562 0.59153 0.31993 0.0
C135 C 0.91808 0.59932 0.34308 0.0
C136 C 0.89966 0.65414 0.41825 0.0
C137 C 0.9175 0.66761 0.4059 0.0
C138 C 0.9259 0.69093 0.4148 0.0
C139 C 0.91683 0.70137 0.43639 0.0
C140 C 0.89955 0.6876 0.44917 0.0
C141 C 0.89102 0.66434 0.44019 0.0
C142 C 0.83608 0.58826 0.41727 0.0
C143 C 0.82645 0.59945 0.43818 0.0
C144 C 0.79974 0.92993 0.89822 0.0
C145 C 0.78809 0.91999 0.91857 0.0
C146 C 0.79878 0.90108 0.9308 0.0
C147 C 0.82018 0.89209 0.92263 0.0
H148 H 0.86337 0.83235 0.92883 0.0
H149 H 0.87871 0.79492 0.94483 0.0
H150 H 0.94049 0.80437 0.90015 0.0
H151 H 0.92523 0.84154 0.88368 0.0
H152 H 0.91702 0.871 0.83335 0.0
H153 H 0.93151 0.88506 0.79389 0.0
H154 H 0.89051 0.94874 0.80097 0.0
H155 H 0.87542 0.93462 0.84031 0.0
H156 H 0.82932 0.92915 0.87427 0.0
H157 H 0.79241 0.9448 0.88856 0.0
H158 H 0.79035 0.89277 0.94641 0.0
H159 H 0.82761 0.87732 0.93238 0.0
N160 N 0.86327 0.87196 0.90302 0.0
N161 N 0.8933 0.87215 0.87374 0.0
N162 N 0.86453 0.9013 0.8725 0.0
C163 C 0.88306 0.86215 0.89382 0.0
C164 C 0.88422 0.89172 0.86296 0.0
C165 C 0.85388 0.89161 0.89252 0.0
C166 C 0.89292 0.84007 0.90478 0.0
C167 C 0.88027 0.8266 0.92241 0.0
C168 C 0.889 0.80513 0.93159 0.0
C169 C 0.91073 0.79681 0.92367 0.0
C170 C 0.92369 0.81045 0.90656 0.0
C171 C 0.91486 0.83173 0.89712 0.0
C172 C 0.89479 0.9015 0.84004 0.0
C173 C 0.91115 0.88811 0.82671 0.0
C174 C 0.91948 0.8961 0.80408 0.0
C175 C 0.91204 0.91789 0.79444 0.0
C176 C 0.89651 0.93187 0.80808 0.0
C177 C 0.88784 0.9237 0.83056 0.0
C178 C 0.83161 0.90178 0.90202 0.0
C179 C 0.82113 0.92101 0.8901 0.0
C180 C 0.62337 0.09157 0.31016 0.0
C181 C 0.60532 0.1032 0.29782 0.0
C182 C 0.59647 0.12433 0.30877 0.0
C183 C 0.60582 0.13392 0.33127 0.0
H184 H 0.59179 0.18041 0.38909 0.0
H185 H 0.57474 0.21697 0.40599 0.0
H186 H 0.63869 0.23473 0.44926 0.0
H187 H 0.656 0.19792 0.43234 0.0
H188 H 0.69283 0.15427 0.43642 0.0
H189 H 0.72961 0.13928 0.45232 0.0
H190 H 0.7238 0.07914 0.39849 0.0
H191 H 0.68735 0.09439 0.38218 0.0
H192 H 0.64683 0.09187 0.34146 0.0
H193 H 0.63027 0.07499 0.30242 0.0
H194 H 0.58274 0.13387 0.29965 0.0
H195 H 0.59883 0.15049 0.33891 0.0
N196 N 0.62573 0.15342 0.37744 0.0
N197 N 0.65567 0.15536 0.40798 0.0
N198 N 0.6548 0.12469 0.37662 0.0
C199 C 0.63582 0.16438 0.39814 0.0
C200 C 0.66522 0.13539 0.39737 0.0
C201 C 0.63506 0.13363 0.36653 0.0
C202 C 0.62532 0.18621 0.40933 0.0
C203 C 0.60228 0.19199 0.40226 0.0
C204 C 0.5924 0.21287 0.41205 0.0
C205 C 0.60537 0.22862 0.42896 0.0
C206 C 0.62837 0.22292 0.43614 0.0
C207 C 0.6382 0.20179 0.42656 0.0
C208 C 0.6871 0.12568 0.40788 0.0
C209 C 0.6993 0.1378 0.428 0.0
C210 C 0.72036 0.12909 0.43725 0.0
C211 C 0.72975 0.10801 0.42668 0.0
C212 C 0.71731 0.09564 0.40686 0.0
C213 C 0.6963 0.10436 0.39757 0.0
C214 C 0.6243 0.12263 0.34333 0.0
C215 C 0.63278 0.10119 0.33262 0.0
C216 C 0.29488 0.6013 0.12773 0.0
C217 C 0.28411 0.61215 0.10775 0.0
C218 C 0.29634 0.63167 0.0964 0.0
C219 C 0.3187 0.64054 0.10516 0.0
H220 H 0.37144 0.69315 0.09367 0.0
H221 H 0.38636 0.73288 0.07947 0.0
H222 H 0.43433 0.74154 0.14218 0.0
H223 H 0.41971 0.70169 0.15648 0.0
H224 H 0.42355 0.65625 0.19202 0.0
H225 H 0.43807 0.64065 0.23056 0.0
H226 H 0.37808 0.58769 0.23039 0.0
H227 H 0.36393 0.60268 0.19181 0.0
H228 H 0.32486 0.6017 0.15228 0.0
H229 H 0.28577 0.5863 0.1369 0.0
H230 H 0.28861 0.64009 0.08068 0.0
H231 H 0.32748 0.65577 0.09608 0.0
N232 N 0.36315 0.66074 0.12606 0.0
N233 N 0.39328 0.66135 0.15635 0.0
N234 N 0.36226 0.63084 0.15577 0.0
C235 C 0.38362 0.67125 0.13619 0.0
C236 C 0.38273 0.64103 0.16616 0.0
C237 C 0.35237 0.64052 0.13572 0.0
C238 C 0.39422 0.69427 0.12637 0.0
C239 C 0.38535 0.70333 0.10436 0.0
C240 C 0.39393 0.72603 0.09612 0.0
C241 C 0.41134 0.74024 0.10985 0.0
C242 C 0.42072 0.73096 0.13143 0.0
C243 C 0.41238 0.70811 0.13953 0.0
C244 C 0.3925 0.63083 0.1888 0.0
C245 C 0.41357 0.64114 0.2001 0.0
C246 C 0.42183 0.63228 0.22226 0.0
C247 C 0.40921 0.61296 0.2336 0.0
C248 C 0.38845 0.60235 0.22201 0.0
C249 C 0.38023 0.61111 0.19988 0.0
C250 C 0.32932 0.63009 0.12551 0.0
C251 C 0.31725 0.6102 0.13655 0.0
C252 C 0.09655 0.32173 0.56926 0.0
C253 C 0.07801 0.30877 0.58102 0.0
C254 C 0.06809 0.31974 0.60187 0.0
C255 C 0.07685 0.3428 0.61108 0.0
H256 H 0.07172 0.38952 0.66961 0.0
H257 H 0.05833 0.40332 0.70966 0.0
H258 H 0.10791 0.46648 0.70879 0.0
H259 H 0.12148 0.45275 0.66849 0.0
H260 H 0.17146 0.441 0.6355 0.0
H261 H 0.21037 0.45406 0.62017 0.0
H262 H 0.19183 0.41813 0.54985 0.0
H263 H 0.15351 0.40431 0.56549 0.0
H264 H 0.12002 0.35395 0.56923 0.0
H265 H 0.10471 0.31375 0.55326 0.0
H266 H 0.05352 0.31044 0.61114 0.0
H267 H 0.06892 0.35044 0.62736 0.0
N268 N 0.09728 0.3892 0.63136 0.0
N269 N 0.1276 0.42059 0.63266 0.0
N270 N 0.12616 0.39012 0.60107 0.0
C271 C 0.10761 0.40997 0.64242 0.0
C272 C 0.13689 0.41081 0.61187 0.0
C273 C 0.10637 0.37915 0.61067 0.0
C274 C 0.09801 0.41979 0.66584 0.0
C275 C 0.07973 0.40647 0.67774 0.0
C276 C 0.07205 0.41432 0.7008 0.0
C277 C 0.08225 0.43582 0.71255 0.0
C278 C 0.09967 0.44984 0.7002 0.0
C279 C 0.10755 0.44187 0.67715 0.0
C280 C 0.15944 0.42132 0.60185 0.0
C281 C 0.17564 0.43608 0.6167 0.0
C282 C 0.19797 0.44365 0.60785 0.0
C283 C 0.20454 0.43687 0.58382 0.0
C284 C 0.1878 0.42313 0.56866 0.0
C285 C 0.16567 0.41533 0.57759 0.0
C286 C 0.09586 0.3555 0.59975 0.0
C287 C 0.1054 0.34477 0.57852 0.0
O288 O 0.97243 0.02202 0.49861 0.0
Mn289 Mn 0.00451 0.00465 0.50439 0.0
O290 O 0.95843 0.00583 0.46248 0.0
Mn291 Mn 0.98232 0.98501 0.45782 0.0
O292 O 0.03604 0.98545 0.50854 0.0
O293 O 0.01666 0.03766 0.52308 0.0
Mn294 Mn 0.03562 0.02259 0.54353 0.0
O295 O 0.99029 0.99045 0.53733 0.0
O296 O 0.06152 0.01087 0.52896 0.0
O297 O 0.0196 0.02057 0.47253 0.0
O298 O 0.00734 0.99704 0.44013 0.0
O299 O 0.04049 0.05308 0.55455 0.0
O300 O 0.019 0.00271 0.56453 0.0
C301 C 0.98315 0.95187 0.47424 0.0
C302 C 0.9569 0.02048 0.48089 0.0
C303 C 0.05735 0.99193 0.5156 0.0
C304 C 0.0258 0.05669 0.53663 0.0
C305 C 0.99898 0.99173 0.55948 0.0
C306 C 0.02051 0.01445 0.44954 0.0
O307 O 0.99143 0.97229 0.48594 0.0
O308 O 0.97389 0.95341 0.45241 0.0
O309 O 0.49898 0.01544 0.96599 0.0
Mn310 Mn 0.50866 0.01471 0.00336 0.0
O311 O 0.5117 0.98085 0.94902 0.0
Mn312 Mn 0.51864 0.96546 0.97752 0.0
O313 O 0.51881 0.01482 0.04128 0.0
O314 O 0.51451 0.05211 0.00396 0.0
Mn315 Mn 0.50054 0.06134 0.03176 0.0
O316 O 0.47207 0.01653 0.01119 0.0
O317 O 0.52353 0.05451 0.05387 0.0
O318 O 0.54543 0.01115 0.99458 0.0
O319 O 0.54974 0.97064 0.98757 0.0
O320 O 0.49783 0.08627 0.01106 0.0
O321 O 0.47112 0.0473 0.03882 0.0
C322 C 0.49024 0.95829 0.00309 0.0
C323 C 0.50265 0.00134 0.9473 0.0
C324 C 0.52679 0.032 0.0568 0.0
C325 C 0.50817 0.07262 0.99518 0.0
C326 C 0.46088 0.02952 0.02672 0.0
C327 C 0.5585 0.99251 0.99134 0.0
O328 O 0.5046 0.97765 0.00365 0.0
O329 O 0.49568 0.9424 0.9863 0.0
O330 O 0.53334 0.51847 0.50657 0.0
Mn331 Mn 0.49665 0.50826 0.50637 0.0
O332 O 0.54518 0.51628 0.46737 0.0
Mn333 Mn 0.51841 0.49832 0.45583 0.0
O334 O 0.45981 0.49793 0.50678 0.0
O335 O 0.49945 0.50549 0.54295 0.0
Mn336 Mn 0.47622 0.5197 0.55757 0.0
O337 O 0.48922 0.54539 0.51026 0.0
O338 O 0.4485 0.50354 0.54605 0.0
O339 O 0.50468 0.47124 0.50245 0.0
O340 O 0.51743 0.46589 0.46372 0.0
O341 O 0.49419 0.50808 0.58247 0.0
O342 O 0.48004 0.55216 0.54995 0.0
C343 C 0.48725 0.51611 0.44751 0.0
C344 C 0.54916 0.52153 0.49005 0.0
C345 C 0.4441 0.49682 0.52373 0.0
C346 C 0.50728 0.50098 0.56463 0.0
C347 C 0.48436 0.55966 0.52854 0.0
C348 C 0.5125 0.45788 0.48479 0.0
O349 O 0.49392 0.51125 0.46959 0.0
O350 O 0.50087 0.50882 0.43019 0.0
O351 O 0.96754 0.49757 0.00817 0.0
Mn352 Mn 0.00264 0.51165 0.01043 0.0
O353 O 0.95443 0.51078 0.97224 0.0
Mn354 Mn 0.98351 0.52322 0.96241 0.0
O355 O 0.03796 0.52589 0.01236 0.0
O356 O 0.99792 0.51572 0.04808 0.0
Mn357 Mn 0.02437 0.50414 0.06005 0.0
O358 O 0.01351 0.47506 0.01345 0.0
O359 O 0.05031 0.52331 0.05147 0.0
O360 O 0.99147 0.54863 0.00817 0.0
O361 O 0.98977 0.55583 0.96842 0.0
O362 O 0.00937 0.51281 0.08733 0.0
O363 O 0.02547 0.47127 0.05253 0.0
C364 C 0.00947 0.50318 0.94847 0.0
C365 C 0.95102 0.50007 0.99222 0.0
C366 C 0.05353 0.52991 0.02969 0.0
C367 C 0.99344 0.51885 0.07158 0.0
C368 C 0.02113 0.46222 0.03109 0.0
C369 C 0.98929 0.56349 0.99044 0.0
O370 O 0.00739 0.50613 0.97255 0.0
O371 O 0.99388 0.51201 0.93398 0.0
H372 H 0.06246 0.10894 0.24053 0.0
H373 H 0.04855 0.09606 0.28058 0.0
H374 H 0.116 0.06611 0.2954 0.0
H375 H 0.13062 0.08035 0.25633 0.0
H376 H 0.04184 0.05334 0.30185 0.0
H377 H 0.1111 0.10851 0.35587 0.0
H378 H 0.10661 0.11198 0.32334 0.0
H379 H 0.12378 0.08773 0.33436 0.0
C380 C 0.07455 0.09998 0.25241 0.0
C381 C 0.09792 0.09615 0.24505 0.0
C382 C 0.06643 0.09237 0.27531 0.0
C383 C 0.08139 0.08067 0.29148 0.0
C384 C 0.10429 0.07579 0.28373 0.0
H385 H 0.063 0.00643 0.42881 0.0
H386 H 0.07799 0.02429 0.39083 0.0
C387 C 0.11252 0.08363 0.26101 0.0
C388 C 0.07319 0.07361 0.31642 0.0
H389 H 0.08857 0.07823 0.37768 0.0
C390 C 0.05199 0.05898 0.3184 0.0
C391 C 0.0862 0.08111 0.33824 0.0
C392 C 0.10803 0.09841 0.33791 0.0
C393 C 0.04396 0.05108 0.34134 0.0
C394 C 0.05743 0.05795 0.36296 0.0
C395 C 0.07838 0.0728 0.36108 0.0
C396 C 0.05015 0.04954 0.38761 0.0
C397 C 0.02133 0.03503 0.34233 0.0
C398 C 0.03019 0.05859 0.39902 0.0
C399 C 0.02203 0.04885 0.42103 0.0
C400 C 0.03364 0.02987 0.432 0.0
C401 C 0.05419 0.02157 0.42115 0.0
C402 C 0.06255 0.03154 0.3993 0.0
H403 H 0.01491 0.02824 0.32377 0.0
H404 H 0.024 0.01906 0.3539 0.0
H405 H 0.00731 0.04569 0.35084 0.0
H406 H 0.02039 0.07252 0.3904 0.0
H407 H 0.00569 0.05498 0.42857 0.0
H408 H 0.45861 0.93595 0.72479 0.0
H409 H 0.47466 0.95199 0.76472 0.0
H410 H 0.40384 0.95139 0.79307 0.0
H411 H 0.38774 0.93484 0.75353 0.0
H412 H 0.46415 0.99605 0.78926 0.0
H413 H 0.44065 0.91564 0.84515 0.0
H414 H 0.44118 0.91381 0.812 0.0
H415 H 0.41616 0.92561 0.82738 0.0
C416 C 0.4465 0.93897 0.73964 0.0
C417 C 0.42189 0.93419 0.736 0.0
C418 C 0.45568 0.94824 0.76236 0.0
C419 C 0.44045 0.95263 0.78189 0.0
C420 C 0.41592 0.94779 0.77835 0.0
H421 H 0.45726 0.00759 0.93287 0.0
H422 H 0.44141 0.99896 0.89092 0.0
C423 C 0.40673 0.93861 0.75565 0.0
C424 C 0.44999 0.96321 0.80573 0.0
H425 H 0.45271 0.95284 0.86713 0.0
C426 C 0.46175 0.98659 0.80629 0.0
C427 C 0.44693 0.95073 0.82786 0.0
C428 C 0.43576 0.92496 0.82814 0.0
C429 C 0.47001 0.99812 0.82854 0.0
C430 C 0.46647 0.98589 0.85071 0.0
C431 C 0.45496 0.96238 0.85012 0.0
C432 C 0.47587 0.99637 0.87463 0.0
C433 C 0.48222 0.0234 0.82825 0.0
C434 C 0.50044 0.99878 0.87907 0.0
C435 C 0.50944 0.00382 0.90287 0.0
C436 C 0.494 0.00662 0.92259 0.0
C437 C 0.46948 0.00625 0.91785 0.0
C438 C 0.46045 0.00095 0.894 0.0
H439 H 0.47855 0.03259 0.81083 0.0
H440 H 0.47654 0.03506 0.8439 0.0
H441 H 0.50168 0.0219 0.83009 0.0
H442 H 0.51263 0.99491 0.8645 0.0
H443 H 0.52838 0.00338 0.90624 0.0
H444 H 0.573 0.39843 0.74442 0.0
H445 H 0.56287 0.41134 0.70324 0.0
H446 H 0.58824 0.48543 0.72326 0.0
H447 H 0.59799 0.47284 0.76479 0.0
H448 H 0.53293 0.45108 0.68865 0.0
H449 H 0.62736 0.46455 0.6617 0.0
H450 H 0.61848 0.44675 0.68769 0.0
H451 H 0.61879 0.47958 0.68981 0.0
C452 C 0.57603 0.41757 0.74026 0.0
C453 C 0.5865 0.43457 0.75781 0.0
C454 C 0.5704 0.42485 0.71667 0.0
C455 C 0.5753 0.44917 0.71019 0.0
C456 C 0.58484 0.46645 0.72786 0.0
H457 H 0.54721 0.52583 0.58074 0.0
H458 H 0.5696 0.51076 0.61518 0.0
C459 C 0.5904 0.45921 0.75152 0.0
C460 C 0.5707 0.45621 0.68473 0.0
H461 H 0.59815 0.4727 0.6319 0.0
C462 C 0.54715 0.4557 0.67618 0.0
C463 C 0.58937 0.46253 0.66875 0.0
C464 C 0.61498 0.4633 0.67728 0.0
C465 C 0.54169 0.46141 0.65194 0.0
C466 C 0.56039 0.46685 0.6356 0.0
C467 C 0.58396 0.46785 0.6443 0.0
C468 C 0.55527 0.47332 0.61 0.0
C469 C 0.51591 0.46226 0.64426 0.0
C470 C 0.54198 0.4567 0.59412 0.0
C471 C 0.52919 0.46535 0.57434 0.0
C472 C 0.52979 0.49056 0.57043 0.0
C473 C 0.54663 0.50625 0.58339 0.0
C474 C 0.55921 0.49771 0.60331 0.0
H475 H 0.50413 0.46315 0.66035 0.0
H476 H 0.51317 0.47837 0.63292 0.0
H477 H 0.51038 0.44545 0.63307 0.0
H478 H 0.53917 0.43767 0.59878 0.0
H479 H 0.51619 0.45297 0.56467 0.0
H480 H 0.92706 0.60445 0.2709 0.0
H481 H 0.9361 0.595 0.22809 0.0
H482 H 0.92192 0.51796 0.2396 0.0
H483 H 0.91285 0.52729 0.28271 0.0
H484 H 0.97026 0.56563 0.20827 0.0
H485 H 0.87949 0.52923 0.17974 0.0
H486 H 0.8855 0.54609 0.20853 0.0
H487 H 0.89284 0.51466 0.20513 0.0
C488 C 0.9261 0.58544 0.26448 0.0
C489 C 0.91916 0.56664 0.28032 0.0
C490 C 0.93114 0.58009 0.2399 0.0
C491 C 0.92927 0.55583 0.23044 0.0
C492 C 0.9229 0.53689 0.24629 0.0
H493 H 0.95723 0.49038 0.08817 0.0
H494 H 0.93853 0.50083 0.12683 0.0
C495 C 0.91777 0.54224 0.27095 0.0
C496 C 0.93428 0.55067 0.20405 0.0
H497 H 0.90896 0.52857 0.1495 0.0
C498 C 0.95684 0.55762 0.19538 0.0
C499 C 0.91684 0.53992 0.1873 0.0
C500 C 0.89223 0.53217 0.19551 0.0
C501 C 0.96256 0.55395 0.17055 0.0
C502 C 0.94489 0.54396 0.15352 0.0
C503 C 0.92237 0.53671 0.16231 0.0
C504 C 0.95011 0.53929 0.12698 0.0
C505 C 0.98783 0.56002 0.16317 0.0
C506 C 0.9607 0.55779 0.11275 0.0
C507 C 0.97146 0.55174 0.0905 0.0
C508 C 0.97135 0.52721 0.08193 0.0
C509 C 0.95729 0.50952 0.09409 0.0
C510 C 0.94695 0.51543 0.11654 0.0
H511 H 1.00032 0.56068 0.17923 0.0
H512 H 0.99374 0.54634 0.1494 0.0
H513 H 0.98905 0.57835 0.15501 0.0
H514 H 0.96254 0.57656 0.11987 0.0
H515 H 0.98243 0.56573 0.08176 0.0
H516 H 0.26405 0.07977 0.12269 0.0
H517 H 0.30088 0.06363 0.1082 0.0
H518 H 0.29372 0.10136 0.04063 0.0
H519 H 0.25634 0.11692 0.05446 0.0
H520 H 0.30849 0.03418 0.0639 0.0
H521 H 0.36211 0.12287 0.06689 0.0
H522 H 0.33483 0.11841 0.08338 0.0
H523 H 0.33396 0.12274 0.05087 0.0
C524 C 0.26998 0.08447 0.10458 0.0
C525 C 0.25684 0.09977 0.08984 0.0
C526 C 0.29127 0.07531 0.09639 0.0
C527 C 0.3003 0.08141 0.0734 0.0
C528 C 0.28737 0.09665 0.05861 0.0
H529 H 0.42844 0.04549 0.9948 0.0
H530 H 0.38828 0.05688 0.00508 0.0
C531 C 0.26594 0.10565 0.06667 0.0
C532 C 0.32301 0.07151 0.0648 0.0
H533 H 0.38013 0.08844 0.04964 0.0
C534 C 0.32415 0.04606 0.06082 0.0
C535 C 0.34354 0.08694 0.0608 0.0
C536 C 0.34378 0.11425 0.06586 0.0
C537 C 0.34505 0.03573 0.05267 0.0
C538 C 0.36553 0.05114 0.04861 0.0
C539 C 0.36441 0.07659 0.05256 0.0
C540 C 0.3885 0.04116 0.04095 0.0
C541 C 0.34506 0.00839 0.0481 0.0
C542 C 0.40182 0.02788 0.05735 0.0
C543 C 0.42477 0.02132 0.05144 0.0
C544 C 0.43473 0.02744 0.02881 0.0
C545 C 0.42087 0.03955 0.0119 0.0
C546 C 0.39807 0.04647 0.01796 0.0
H547 H 0.32681 0.99955 0.04745 0.0
H548 H 0.35386 0.00407 0.03053 0.0
H549 H 0.35523 1.00033 0.06312 0.0
H550 H 0.39503 0.02385 0.07533 0.0
H551 H 0.43536 0.01293 0.06524 0.0
H552 H 0.2715 0.93205 0.54037 0.0
H553 H 0.23227 0.94341 0.52637 0.0
H554 H 0.20434 0.92824 0.59785 0.0
H555 H 0.2437 0.9179 0.61211 0.0
H556 H 0.192 0.91734 0.52137 0.0
H557 H 0.17865 0.9933 0.58858 0.0
H558 H 0.20694 0.98008 0.58519 0.0
H559 H 0.18429 0.96552 0.60352 0.0
C560 C 0.25698 0.93136 0.5531 0.0
C561 C 0.26064 0.92429 0.57736 0.0
C562 C 0.23459 0.93785 0.54512 0.0
C563 C 0.21535 0.93715 0.56115 0.0
C564 C 0.21897 0.92975 0.58532 0.0
H565 H 0.06436 0.95498 0.54568 0.0
H566 H 0.10307 0.93923 0.55541 0.0
C567 C 0.24145 0.92368 0.59343 0.0
C568 C 0.19131 0.94305 0.55225 0.0
H569 H 0.14435 0.97759 0.56536 0.0
C570 C 0.18169 0.93066 0.53092 0.0
C571 C 0.1778 0.96052 0.56462 0.0
C572 C 0.18755 0.97579 0.58658 0.0
C573 C 0.15887 0.93491 0.52193 0.0
C574 C 0.14524 0.95184 0.53462 0.0
C575 C 0.15479 0.96435 0.55585 0.0
C576 C 0.1212 0.95742 0.52588 0.0
C577 C 0.14927 0.92112 0.49906 0.0
C578 C 0.11844 0.9721 0.50551 0.0
C579 C 0.09634 0.98106 0.49993 0.0
C580 C 0.07664 0.97514 0.51441 0.0
C581 C 0.07907 0.95901 0.53367 0.0
C582 C 0.10123 0.95034 0.53948 0.0
H583 H 0.16052 0.90601 0.49342 0.0
H584 H 0.13095 0.91338 0.50203 0.0
H585 H 0.14846 0.93397 0.48379 0.0
H586 H 0.13371 0.97799 0.49498 0.0
H587 H 0.09507 0.99418 0.48558 0.0
H588 H 0.7594 0.39875 0.91081 0.0
H589 H 0.79847 0.41197 0.92837 0.0
H590 H 0.77598 0.48551 0.93899 0.0
H591 H 0.73663 0.47232 0.92164 0.0
H592 H 0.83189 0.45185 0.91407 0.0
H593 H 0.79733 0.4632 0.00867 0.0
H594 H 0.78076 0.44599 0.98444 0.0
H595 H 0.7827 0.47887 0.98476 0.0
C596 C 0.7628 0.41774 0.9169 0.0
C597 C 0.74497 0.43447 0.91525 0.0
C598 C 0.7851 0.42526 0.92676 0.0
C599 C 0.78982 0.44956 0.93526 0.0
C600 C 0.77242 0.46659 0.93277 0.0
H601 H 0.91298 0.52569 1.0014 0.0
H602 H 0.87209 0.51163 0.99033 0.0
C603 C 0.75009 0.45909 0.92276 0.0
C604 C 0.81276 0.45667 0.94753 0.0
H605 H 0.83826 0.47256 0.00358 0.0
C606 C 0.83336 0.45635 0.93363 0.0
C607 C 0.8144 0.46251 0.97302 0.0
C608 C 0.79268 0.46255 0.98874 0.0
C609 C 0.85574 0.46199 0.9446 0.0
C610 C 0.85741 0.46742 0.9702 0.0
C611 C 0.83679 0.46798 0.98404 0.0
C612 C 0.88045 0.4741 0.98248 0.0
C613 C 0.87734 0.46263 0.92865 0.0
C614 C 0.89815 0.45719 0.98329 0.0
C615 C 0.92142 0.46514 0.98998 0.0
C616 C 0.92697 0.48998 0.99591 0.0
C617 C 0.90882 0.50633 0.99738 0.0
C618 C 0.8856 0.49839 0.99083 0.0
H619 H 0.87251 0.463 0.90879 0.0
H620 H 0.8894 0.47894 0.93357 0.0
H621 H 0.88725 0.44603 0.93159 0.0
H622 H 0.89432 0.43831 0.97708 0.0
H623 H 0.93535 0.45245 0.98818 0.0
H624 H 0.76905 0.52599 0.43887 0.0
H625 H 0.72831 0.51573 0.45195 0.0
H626 H 0.71653 0.59269 0.46056 0.0
H627 H 0.75672 0.60303 0.4471 0.0
H628 H 0.70626 0.52959 0.4972 0.0
H629 H 0.66073 0.56531 0.41617 0.0
H630 H 0.69175 0.55905 0.41635 0.0
H631 H 0.68234 0.58702 0.43037 0.0
C632 C 0.75768 0.54069 0.44336 0.0
C633 C 0.76618 0.56534 0.44203 0.0
C634 C 0.73448 0.53481 0.45096 0.0
C635 C 0.71933 0.55346 0.45702 0.0
C636 C 0.7278 0.578 0.4557 0.0
H637 H 0.57265 0.56652 0.49412 0.0
H638 H 0.61572 0.57421 0.49057 0.0
C639 C 0.7509 0.58388 0.44823 0.0
C640 C 0.69469 0.54762 0.465 0.0
H641 H 0.63699 0.5574 0.45091 0.0
C642 C 0.69105 0.53551 0.48706 0.0
C643 C 0.6749 0.55528 0.45168 0.0
C644 C 0.67754 0.56717 0.4272 0.0
C645 C 0.66818 0.53169 0.49663 0.0
C646 C 0.64842 0.53996 0.48359 0.0
C647 C 0.65212 0.55153 0.46123 0.0
C648 C 0.62354 0.53597 0.49188 0.0
C649 C 0.66556 0.51944 0.52089 0.0
C650 C 0.6137 0.51212 0.49504 0.0
C651 C 0.58925 0.50789 0.49774 0.0
C652 C 0.57416 0.52734 0.49701 0.0
C653 C 0.58403 0.55135 0.49543 0.0
C654 C 0.60858 0.55565 0.49308 0.0
H655 H 0.68229 0.52148 0.53204 0.0
H656 H 0.6511 0.52705 0.53177 0.0
H657 H 0.66124 0.49954 0.51741 0.0
H658 H 0.6246 0.49654 0.49351 0.0
H659 H 0.58188 0.48914 0.49813 0.0
H660 H 0.06307 0.24314 0.09222 0.0
H661 H 0.04679 0.2804 0.07719 0.0
H662 H 0.11754 0.31074 0.06457 0.0
H663 H 0.134 0.27363 0.07969 0.0
H664 H 0.05344 0.32826 0.09452 0.0
H665 H 0.08508 0.32092 0.99897 0.0
H666 H 0.08534 0.29573 0.01949 0.0
H667 H 0.10826 0.32007 0.02187 0.0
C668 C 0.07524 0.25773 0.08634 0.0
C669 C 0.09994 0.25515 0.08714 0.0
C670 C 0.06585 0.27905 0.07761 0.0
C671 C 0.08084 0.29835 0.06928 0.0
C672 C 0.10549 0.29594 0.07023 0.0
H673 H 0.06458 0.44634 0.02239 0.0
H674 H 0.07788 0.40545 0.03018 0.0
C675 C 0.11491 0.27462 0.07892 0.0
C676 C 0.07072 0.32122 0.06034 0.0
H677 H 0.069 0.35856 0.01122 0.0
C678 C 0.05666 0.33474 0.07622 0.0
C679 C 0.07495 0.32987 0.03648 0.0
C680 C 0.08904 0.3158 0.01811 0.0
C681 C 0.04733 0.35686 0.06921 0.0
C682 C 0.0516 0.36555 0.04535 0.0
C683 C 0.06554 0.35194 0.02943 0.0
C684 C 0.04282 0.38932 0.03711 0.0
C685 C 0.03371 0.37118 0.08784 0.0
C686 C 0.0185 0.39376 0.03711 0.0
C687 C 0.01086 0.41718 0.03241 0.0
C688 C 0.02733 0.43648 0.02713 0.0
C689 C 0.05142 0.43161 0.02559 0.0
C690 C 0.05906 0.40828 0.03036 0.0
H691 H 0.03711 0.36537 0.10687 0.0
H692 H 0.03844 0.39114 0.08706 0.0
H693 H 0.01442 0.36804 0.08376 0.0
H694 H 0.0055 0.37938 0.04176 0.0
H695 H 0.99229 0.42059 0.03447 0.0
H696 H 0.56995 0.28367 0.94409 0.0
H697 H 0.55788 0.24157 0.95531 0.0
H698 H 0.59029 0.2133 0.88996 0.0
H699 H 0.60194 0.25528 0.87849 0.0
H700 H 0.52961 0.2032 0.92043 0.0
H701 H 0.61858 0.17886 0.95394 0.0
H702 H 0.60995 0.21011 0.95367 0.0
H703 H 0.61702 0.19458 0.92546 0.0
C704 C 0.57444 0.2684 0.93221 0.0
C705 C 0.58672 0.2725 0.91043 0.0
C706 C 0.56753 0.24448 0.93856 0.0
C707 C 0.57327 0.22446 0.92343 0.0
C708 C 0.58574 0.22857 0.90181 0.0
H709 H 0.5069 0.07623 0.94466 0.0
H710 H 0.52537 0.11085 0.92251 0.0
C711 C 0.5923 0.25245 0.89527 0.0
C712 C 0.56617 0.19919 0.93016 0.0
H713 H 0.58789 0.14776 0.95331 0.0
C714 C 0.54227 0.19091 0.9275 0.0
C715 C 0.58284 0.18349 0.93945 0.0
C716 C 0.60855 0.19209 0.9435 0.0
C717 C 0.53441 0.16732 0.9344 0.0
C718 C 0.55111 0.15142 0.94368 0.0
C719 C 0.57515 0.15972 0.94582 0.0
C720 C 0.54364 0.12775 0.95475 0.0
C721 C 0.50816 0.16021 0.93287 0.0
C722 C 0.54954 0.12458 0.97949 0.0
C723 C 0.5402 0.10433 0.99157 0.0
C724 C 0.52417 0.08706 0.97946 0.0
C725 C 0.51943 0.08915 0.95428 0.0
C726 C 0.52953 0.1092 0.94184 0.0
H727 H 0.49743 0.17619 0.92955 0.0
H728 H 0.5045 0.14665 0.91743 0.0
H729 H 0.50217 0.15173 0.95009 0.0
H730 H 0.56025 0.13856 0.98995 0.0
H731 H 0.54372 0.10342 0.01116 0.0
H732 H 0.92404 0.74197 0.40884 0.0
H733 H 0.93673 0.78377 0.42301 0.0
H734 H 0.93969 0.76049 0.49774 0.0
H735 H 0.92732 0.71847 0.48367 0.0
H736 H 0.91413 0.81489 0.45843 0.0
H737 H 0.00611 0.79555 0.48669 0.0
H738 H 0.98797 0.77506 0.46635 0.0
H739 H 0.98256 0.77614 0.49873 0.0
C740 C 0.92764 0.74564 0.42827 0.0
C741 C 0.92481 0.72678 0.44509 0.0
C742 C 0.93471 0.76961 0.43636 0.0
C743 C 0.93934 0.77524 0.46141 0.0
C744 C 0.93645 0.75653 0.4783 0.0
H745 H 0.96008 0.93088 0.51295 0.0
H746 H 0.94945 0.88658 0.51491 0.0
C747 C 0.92922 0.73255 0.47024 0.0
C748 C 0.94718 0.80074 0.46969 0.0
H749 H 0.99511 0.83615 0.4926 0.0
C750 C 0.93171 0.81953 0.46623 0.0
C751 C 0.97022 0.80677 0.47963 0.0
C752 C 0.98783 0.78743 0.48297 0.0
C753 C 0.93878 0.84421 0.47206 0.0
C754 C 0.96193 0.85029 0.48178 0.0
C755 C 0.97725 0.83144 0.4856 0.0
C756 C 0.97155 0.87624 0.48466 0.0
C757 C 0.92192 0.86377 0.46651 0.0
C758 C 0.98867 0.88486 0.46825 0.0
C759 C 0.9951 0.90988 0.46755 0.0
C760 C 0.98462 0.9269 0.48326 0.0
C761 C 0.96896 0.91814 0.50114 0.0
C762 C 0.96251 0.8929 0.50188 0.0
H763 H 0.90523 0.8561 0.45731 0.0
H764 H 0.91729 0.87345 0.48385 0.0
H765 H 0.93056 0.87752 0.4545 0.0
H766 H 0.99581 0.87245 0.45472 0.0
H767 H 0.00662 0.91617 0.45307 0.0
H768 H 0.38401 0.76131 0.55204 0.0
H769 H 0.39854 0.72217 0.53757 0.0
H770 H 0.46402 0.73834 0.57841 0.0
H771 H 0.45021 0.77792 0.59223 0.0
H772 H 0.45093 0.71503 0.51396 0.0
H773 H 0.42616 0.66886 0.60026 0.0
H774 H 0.41098 0.69474 0.58954 0.0
H775 H 0.44028 0.69933 0.60276 0.0
C776 C 0.4017 0.75683 0.55758 0.0
C777 C 0.41589 0.77281 0.57339 0.0
C778 C 0.40987 0.7344 0.54939 0.0
C779 C 0.43225 0.72752 0.55701 0.0
C780 C 0.44664 0.74344 0.57243 0.0
H781 H 0.506 0.59634 0.55616 0.0
H782 H 0.4942 0.63853 0.55965 0.0
C783 C 0.43861 0.76594 0.58046 0.0
C784 C 0.44035 0.70327 0.54964 0.0
H785 H 0.44727 0.64638 0.5712 0.0
C786 C 0.45004 0.6999 0.52632 0.0
C787 C 0.43909 0.68377 0.56592 0.0
C788 C 0.42848 0.68662 0.59102 0.0
C789 C 0.45917 0.67747 0.51908 0.0
C790 C 0.45819 0.65804 0.53551 0.0
C791 C 0.44805 0.66137 0.55866 0.0
C792 C 0.46835 0.63427 0.52973 0.0
C793 C 0.47044 0.67493 0.49432 0.0
C794 C 0.45845 0.61824 0.511 0.0
C795 C 0.46554 0.59417 0.50869 0.0
C796 C 0.48232 0.58594 0.52533 0.0
C797 C 0.49322 0.60246 0.54298 0.0
C798 C 0.48636 0.62644 0.5451 0.0
H799 H 0.47399 0.69297 0.48591 0.0
H800 H 0.48738 0.66573 0.49591 0.0
H801 H 0.45834 0.66342 0.48175 0.0
H802 H 0.44423 0.62383 0.49923 0.0
H803 H 0.45655 0.5815 0.49533 0.0
H804 H 0.89735 0.89617 0.75078 0.0
H805 H 0.9094 0.9073 0.7093 0.0
H806 H 0.95536 0.96671 0.74045 0.0
H807 H 0.94296 0.95578 0.78201 0.0
H808 H 0.90665 0.95437 0.68538 0.0
H809 H 0.99874 0.92519 0.69582 0.0
H810 H 0.97539 0.91568 0.71627 0.0
H811 H 0.98941 0.94601 0.71952 0.0
C812 C 0.90999 0.91162 0.7487 0.0
C813 C 0.9193 0.92509 0.7695 0.0
C814 C 0.91682 0.918 0.72504 0.0
C815 C 0.93343 0.9377 0.72171 0.0
C816 C 0.94266 0.9513 0.74254 0.0
H817 H 0.00477 0.0091 0.60629 0.0
H818 H 0.98669 0.99435 0.64322 0.0
C819 C 0.93555 0.94513 0.76623 0.0
C820 C 0.94123 0.94378 0.69649 0.0
H821 H 0.98961 0.94585 0.65967 0.0
C822 C 0.92473 0.9523 0.67963 0.0
C823 C 0.96479 0.94102 0.68898 0.0
C824 C 0.98313 0.9313 0.70597 0.0
C825 C 0.9314 0.95892 0.6558 0.0
C826 C 0.95506 0.95646 0.64843 0.0
C827 C 0.97139 0.94748 0.66517 0.0
C828 C 0.96417 0.96585 0.62474 0.0
C829 C 0.91346 0.96955 0.63903 0.0
C830 C 0.95725 0.95503 0.60158 0.0
C831 C 0.96778 0.96352 0.57985 0.0
C832 C 0.98552 0.98279 0.58113 0.0
C833 C 0.9916 0.99387 0.60439 0.0
C834 C 0.98118 0.98553 0.62573 0.0
H835 H 0.89663 0.97287 0.64848 0.0
H836 H 0.92084 0.98712 0.63186 0.0
H837 H 0.90944 0.9567 0.62306 0.0
H838 H 0.9442 0.93967 0.60037 0.0
H839 H 0.96263 0.95462 0.56232 0.0
H840 H 0.631 0.08577 0.25972 0.0
H841 H 0.61637 0.07009 0.21935 0.0
H842 H 0.54481 0.08383 0.23966 0.0
H843 H 0.55927 0.09936 0.28031 0.0
H844 H 0.58339 0.03044 0.20877 0.0
H845 H 0.55259 0.11756 0.17356 0.0
H846 H 0.57217 0.1167 0.20007 0.0
H847 H 0.54097 0.10907 0.20276 0.0
C848 C 0.61212 0.08528 0.25571 0.0
C849 C 0.59629 0.09373 0.27328 0.0
C850 C 0.60382 0.07645 0.23258 0.0
C851 C 0.57957 0.07603 0.22647 0.0
C852 C 0.56366 0.08442 0.24389 0.0
H853 H 0.49962 0.02378 0.0957 0.0
H854 H 0.51239 0.03217 0.13859 0.0
C855 C 0.57195 0.09326 0.26709 0.0
C856 C 0.57103 0.06614 0.20202 0.0
H857 H 0.54435 0.08163 0.14847 0.0
C858 C 0.57485 0.04162 0.19558 0.0
C859 C 0.55996 0.08084 0.18488 0.0
C860 C 0.55632 0.10757 0.19048 0.0
C861 C 0.5678 0.03136 0.17242 0.0
C862 C 0.55679 0.04602 0.15535 0.0
C863 C 0.55277 0.07048 0.16178 0.0
C864 C 0.54969 0.03646 0.13045 0.0
C865 C 0.57206 0.00494 0.16619 0.0
C866 C 0.56661 0.03521 0.11197 0.0
C867 C 0.55934 0.03038 0.08749 0.0
C868 C 0.53514 0.02639 0.08139 0.0
C869 C 0.51844 0.02586 0.10017 0.0
C870 C 0.52566 0.03103 0.12455 0.0
H871 H 0.57831 0.99519 0.18241 0.0
H872 H 0.5555 0.99525 0.15867 0.0
H873 H 0.58564 0.00411 0.15175 0.0
H874 H 0.58523 0.03959 0.11627 0.0
H875 H 0.57238 0.03177 0.07317 0.0
H876 H 0.4089 0.56586 0.24911 0.0
H877 H 0.41773 0.55245 0.29044 0.0
H878 H 0.43666 0.62724 0.31425 0.0
H879 H 0.42687 0.64097 0.27325 0.0
H880 H 0.45876 0.5572 0.31842 0.0
H881 H 0.3874 0.60617 0.36425 0.0
H882 H 0.38876 0.60213 0.33128 0.0
H883 H 0.40757 0.62542 0.34727 0.0
C884 C 0.41477 0.5795 0.26319 0.0
C885 C 0.41688 0.60453 0.25796 0.0
C886 C 0.41993 0.57178 0.28675 0.0
C887 C 0.42728 0.58893 0.30555 0.0
C888 C 0.43041 0.61379 0.30016 0.0
H889 H 0.48562 0.56529 0.44894 0.0
H890 H 0.4663 0.58597 0.41555 0.0
C891 C 0.42514 0.62156 0.27661 0.0
C892 C 0.43176 0.58065 0.33072 0.0
H893 H 0.41399 0.58644 0.39026 0.0
C894 C 0.44894 0.56355 0.3341 0.0
C895 C 0.41885 0.58895 0.35113 0.0
C896 C 0.39945 0.60651 0.34836 0.0
C897 C 0.45372 0.55468 0.35738 0.0
C898 C 0.4408 0.56295 0.37776 0.0
C899 C 0.42375 0.58016 0.37452 0.0
C900 C 0.44523 0.55364 0.40245 0.0
C901 C 0.47265 0.53655 0.3601 0.0
C902 C 0.43812 0.52933 0.40732 0.0
C903 C 0.44895 0.51762 0.42653 0.0
C904 C 0.46702 0.53012 0.4409 0.0
C905 C 0.4714 0.55543 0.43838 0.0
C906 C 0.46062 0.56717 0.41908 0.0
H907 H 0.48343 0.53488 0.34333 0.0
H908 H 0.48469 0.54204 0.37597 0.0
H909 H 0.46415 0.51822 0.36367 0.0
H910 H 0.42621 0.51866 0.39466 0.0
H911 H 0.44563 0.49799 0.42784 0.0
H912 H 0.07226 0.48107 0.7321 0.0
H913 H 0.06337 0.49173 0.77512 0.0
H914 H 0.06925 0.41642 0.79389 0.0
H915 H 0.07806 0.40566 0.7512 0.0
H916 H 0.02458 0.46653 0.80691 0.0
H917 H 0.1177 0.46155 0.84057 0.0
H918 H 0.1102 0.46702 0.8089 0.0
H919 H 0.10593 0.43677 0.82038 0.0
C920 C 0.07164 0.46682 0.74543 0.0
C921 C 0.07588 0.44252 0.73825 0.0
C922 C 0.06648 0.47291 0.76993 0.0
C923 C 0.06587 0.45488 0.78769 0.0
C924 C 0.06978 0.43061 0.7805 0.0
H925 H 0.00978 0.45519 0.93471 0.0
H926 H 0.02624 0.44188 0.89545 0.0
C927 C 0.07466 0.42448 0.75605 0.0
C928 C 0.06149 0.46124 0.81389 0.0
H929 H 0.08847 0.46609 0.87079 0.0
C930 C 0.03852 0.46648 0.82089 0.0
C931 C 0.07977 0.46135 0.83203 0.0
C932 C 0.10488 0.45655 0.82523 0.0
C933 C 0.03325 0.47131 0.84568 0.0
C934 C 0.05142 0.47073 0.86394 0.0
C935 C 0.07452 0.4661 0.85684 0.0
C936 C 0.04668 0.47596 0.89033 0.0
C937 C 0.00836 0.47732 0.85222 0.0
C938 C 0.05432 0.49869 0.90142 0.0
C939 C 0.04538 0.50604 0.92416 0.0
C940 C 0.02859 0.49086 0.93611 0.0
C941 C 0.02322 0.467 0.92634 0.0
C942 C 0.03218 0.4596 0.9036 0.0
H943 H 0.9972 0.48023 0.83568 0.0
H944 H 0.99985 0.46201 0.86237 0.0
H945 H 0.00876 0.49406 0.86441 0.0
H946 H 0.06549 0.5116 0.89151 0.0
H947 H 0.04921 0.52482 0.93078 0.0
H948 H 0.75071 0.93359 0.88995 0.0
H949 H 0.71319 0.94926 0.90323 0.0
H950 H 0.7344 0.94189 0.97892 0.0
H951 H 0.77233 0.92701 0.96583 0.0
H952 H 0.67718 0.92844 0.92973 0.0
H953 H 0.71513 0.01203 0.98003 0.0
H954 H 0.73244 0.99383 0.95966 0.0
H955 H 0.72686 0.98434 0.99043 0.0
C956 C 0.74762 0.93562 0.90946 0.0
C957 C 0.76485 0.92919 0.92676 0.0
C958 C 0.72598 0.94443 0.91704 0.0
C959 C 0.72098 0.94725 0.94213 0.0
C960 C 0.73793 0.94046 0.95946 0.0
H961 H 0.59484 0.98369 0.02281 0.0
H962 H 0.63509 0.97406 0.01077 0.0
C963 C 0.75958 0.93162 0.9519 0.0
C964 C 0.69792 0.95691 0.95009 0.0
H965 H 0.67394 0.00217 0.98506 0.0
C966 C 0.67652 0.94465 0.9417 0.0
C967 C 0.69688 0.97812 0.96572 0.0
C968 C 0.71903 0.99301 0.97431 0.0
C969 C 0.65431 0.95268 0.94885 0.0
C970 C 0.65332 0.97375 0.96462 0.0
C971 C 0.67466 0.98602 0.97301 0.0
C972 C 0.63026 0.98309 0.97272 0.0
C973 C 0.63202 0.93824 0.93986 0.0
C974 C 0.61453 0.9926 0.95571 0.0
C975 C 0.59181 0.9988 0.96279 0.0
C976 C 0.58429 0.99561 0.987 0.0
C977 C 0.60044 0.98724 0.00429 0.0
C978 C 0.62332 0.98136 0.9973 0.0
H979 H 0.63582 0.91988 0.93203 0.0
H980 H 0.61933 0.93582 0.95504 0.0
H981 H 0.62329 0.94843 0.92531 0.0
H982 H 0.61946 0.99421 0.93668 0.0
H983 H 0.57944 0.00424 0.94884 0.0
H984 H 0.7463 0.10662 0.47438 0.0
H985 H 0.78536 0.09515 0.48872 0.0
H986 H 0.80412 0.07784 0.414 0.0
H987 H 0.76558 0.09003 0.39943 0.0
H988 H 0.80863 0.05053 0.4825 0.0
H989 H 0.85741 0.1277 0.43829 0.0
H990 H 0.82568 0.12658 0.44222 0.0
H991 H 0.83818 0.10908 0.41762 0.0
C992 C 0.7588 0.10055 0.46097 0.0
C993 C 0.75284 0.09951 0.43571 0.0
C994 C 0.78104 0.09382 0.46923 0.0
C995 C 0.79779 0.08608 0.4524 0.0
C996 C 0.79162 0.08421 0.42728 0.0
H997 H 0.93428 0.03564 0.44076 0.0
H998 H 0.89623 0.05359 0.43816 0.0
C999 C 0.76944 0.09094 0.419 0.0
C1000 C 0.82191 0.08036 0.46092 0.0
H1001 H 0.8806 0.09633 0.45338 0.0
C1002 C 0.82442 0.06069 0.47645 0.0
C1003 C 0.84242 0.09378 0.45309 0.0
C1004 C 0.84086 0.11561 0.43707 0.0
C1005 C 0.84697 0.05316 0.48319 0.0
C1006 C 0.86753 0.06611 0.47466 0.0
C1007 C 0.86489 0.08647 0.46004 0.0
C1008 C 0.89167 0.05689 0.47748 0.0
C1009 C 0.84856 0.03061 0.49816 0.0
C1010 C 0.90238 0.05338 0.50059 0.0
C1011 C 0.92446 0.0428 0.50218 0.0
C1012 C 0.936 0.03565 0.48067 0.0
C1013 C 0.92575 0.04059 0.45775 0.0
C1014 C 0.90394 0.05096 0.45619 0.0
H1015 H 0.8311 0.02026 0.49943 0.0
H1016 H 0.86142 0.01819 0.49008 0.0
H1017 H 0.85485 0.03615 0.51708 0.0
H1018 H 0.8935 0.05837 0.51731 0.0
H1019 H 0.93193 0.03923 0.52008 0.0
H1020 H 0.26652 0.56474 0.09987 0.0
H1021 H 0.22735 0.55067 0.08279 0.0
H1022 H 0.20845 0.62568 0.07874 0.0
H1023 H 0.24744 0.63986 0.09579 0.0
H1024 H 0.18091 0.55988 0.09948 0.0
H1025 H 0.19855 0.59744 0.00769 0.0
H1026 H 0.22185 0.59349 0.03012 0.0
H1027 H 0.20364 0.61924 0.03298 0.0
C1028 C 0.25392 0.57819 0.09552 0.0
C1029 C 0.2601 0.6034 0.09879 0.0
C1030 C 0.23165 0.57015 0.08573 0.0
C1031 C 0.21533 0.58721 0.07906 0.0
C1032 C 0.2211 0.61231 0.08322 0.0
H1033 H 0.06879 0.57764 0.03365 0.0
H1034 H 0.11015 0.59213 0.04278 0.0
C1035 C 0.24333 0.62035 0.09292 0.0
C1036 C 0.19234 0.57887 0.06741 0.0
H1037 H 0.15891 0.58272 0.01494 0.0
C1038 C 0.17613 0.56469 0.08095 0.0
C1039 C 0.18631 0.5852 0.04321 0.0
C1040 C 0.20356 0.5995 0.02752 0.0
C1041 C 0.15368 0.55714 0.07106 0.0
C1042 C 0.14758 0.56381 0.04701 0.0
C1043 C 0.16381 0.57776 0.03338 0.0
C1044 C 0.12411 0.5566 0.03604 0.0
C1045 C 0.13644 0.54243 0.08643 0.0
C1046 C 0.11882 0.53227 0.02791 0.0
C1047 C 0.09541 0.52417 0.02225 0.0
C1048 C 0.07719 0.54035 0.02473 0.0
C1049 C 0.08276 0.56514 0.03091 0.0
C1050 C 0.10623 0.5733 0.03641 0.0
H1051 H 0.14284 0.54139 0.10577 0.0
H1052 H 0.11891 0.55061 0.08637 0.0
H1053 H 0.1338 0.52351 0.0784 0.0
H1054 H 0.1325 0.5192 0.02764 0.0
H1055 H 0.09127 0.5048 0.01828 0.0
H1056 H 0.23161 0.40887 0.5539 0.0
H1057 H 0.27143 0.41885 0.53912 0.0
H1058 H 0.27359 0.48829 0.57924 0.0
H1059 H 0.23324 0.47896 0.59349 0.0
H1060 H 0.28796 0.46557 0.51254 0.0
H1061 H 0.33439 0.44973 0.60122 0.0
H1062 H 0.30505 0.43618 0.59373 0.0
H1063 H 0.30903 0.46818 0.60211 0.0
C1064 C 0.24026 0.42649 0.55931 0.0
C1065 C 0.22896 0.44315 0.57483 0.0
C1066 C 0.26315 0.43206 0.55094 0.0
C1067 C 0.27545 0.45424 0.55813 0.0
C1068 C 0.26441 0.47097 0.57361 0.0
H1069 H 0.40887 0.5271 0.52751 0.0
H1070 H 0.3668 0.51537 0.5323 0.0
C1071 C 0.24137 0.46552 0.58185 0.0
C1072 C 0.29992 0.45967 0.54951 0.0
H1073 H 0.35803 0.46385 0.56867 0.0
C1074 C 0.3033 0.46511 0.52475 0.0
C1075 C 0.31986 0.45896 0.5655 0.0
C1076 C 0.31711 0.45283 0.59213 0.0
C1077 C 0.32617 0.47034 0.51571 0.0
C1078 C 0.34605 0.4697 0.53171 0.0
C1079 C 0.3427 0.46401 0.55639 0.0
C1080 C 0.3704 0.47691 0.52384 0.0
C1081 C 0.32911 0.47687 0.48925 0.0
C1082 C 0.3862 0.45922 0.51658 0.0
C1083 C 0.41037 0.46596 0.51358 0.0
C1084 C 0.41886 0.49043 0.51788 0.0
C1085 C 0.40264 0.50821 0.52353 0.0
C1086 C 0.37865 0.50152 0.52649 0.0
H1087 H 0.31194 0.47575 0.47886 0.0
H1088 H 0.33727 0.4958 0.48841 0.0
H1089 H 0.34133 0.46437 0.48019 0.0
H1090 H 0.38009 0.44008 0.51459 0.0
H1091 H 0.42263 0.45186 0.50984 0.0
H1092 H 0.94618 0.79124 0.9575 0.0
H1093 H 0.96067 0.75269 0.97228 0.0
H1094 H 0.90974 0.71162 0.92456 0.0
H1095 H 0.89512 0.75014 0.91004 0.0
H1096 H 0.93439 0.71312 0.99538 0.0
H1097 H 0.9737 0.68224 0.90777 0.0
H1098 H 0.96629 0.71354 0.91374 0.0
H1099 H 0.94343 0.69038 0.9051 0.0
C1100 C 0.93815 0.77394 0.95022 0.0
C1101 C 0.91955 0.77358 0.93267 0.0
C1102 C 0.9464 0.75194 0.95866 0.0
C1103 C 0.9365 0.72917 0.94938 0.0
C1104 C 0.91789 0.72888 0.9318 0.0
H1105 H 0.94767 0.57632 0.97267 0.0
H1106 H 0.93595 0.61755 0.96485 0.0
C1107 C 0.90945 0.75086 0.9236 0.0
C1108 C 0.94532 0.70575 0.95833 0.0
H1109 H 0.97069 0.65323 0.93928 0.0
C1110 C 0.94259 0.70016 0.98318 0.0
C1111 C 0.95599 0.68874 0.94244 0.0
C1112 C 0.96026 0.69402 0.91582 0.0
C1113 C 0.94957 0.6778 0.99231 0.0
C1114 C 0.9599 0.66071 0.97636 0.0
C1115 C 0.96294 0.66642 0.9516 0.0
C1116 C 0.96592 0.63596 0.9844 0.0
C1117 C 0.94512 0.67207 0.01875 0.0
C1118 C 0.9864 0.63245 0.99878 0.0
C1119 C 0.9933 0.60859 0.00327 0.0
C1120 C 0.9796 0.58801 0.99367 0.0
C1121 C 0.95838 0.5918 0.98071 0.0
C1122 C 0.95174 0.61538 0.97598 0.0
H1123 H 0.93502 0.68627 0.02829 0.0
H1124 H 0.93508 0.65404 0.01976 0.0
H1125 H 0.96234 0.67076 0.02862 0.0
H1126 H 0.99766 0.64812 0.00541 0.0
H1127 H 0.01001 0.60629 0.01274 0.0
H1128 H 0.42723 0.75424 0.06513 0.0
H1129 H 0.43882 0.79593 0.05282 0.0
H1130 H 0.42208 0.82416 0.12505 0.0
H1131 H 0.41147 0.78246 0.13762 0.0
H1132 H 0.41407 0.83527 0.0496 0.0
H1133 H 0.48717 0.8556 0.11786 0.0
H1134 H 0.47355 0.8252 0.11235 0.0
H1135 H 0.45951 0.84708 0.13183 0.0
C1136 C 0.42625 0.76939 0.07837 0.0
C1137 C 0.41876 0.76522 0.10238 0.0
C1138 C 0.4328 0.79316 0.07135 0.0
C1139 C 0.43172 0.81318 0.08814 0.0
C1140 C 0.42377 0.809 0.112 0.0
H1141 H 0.44514 0.95818 0.02157 0.0
H1142 H 0.42821 0.926 0.04775 0.0
C1143 C 0.41763 0.78521 0.11914 0.0
C1144 C 0.43848 0.83842 0.0805 0.0
H1145 H 0.47539 0.88884 0.09481 0.0
C1146 C 0.4275 0.84703 0.05944 0.0
C1147 C 0.45612 0.85365 0.09329 0.0
C1148 C 0.46995 0.84485 0.11492 0.0
C1149 C 0.43404 0.87017 0.0504 0.0
C1150 C 0.45138 0.88569 0.06347 0.0
C1151 C 0.46185 0.87724 0.08497 0.0
C1152 C 0.46151 0.90897 0.05332 0.0
C1153 C 0.42322 0.87697 0.0262 0.0
C1154 C 0.48612 0.9119 0.05026 0.0
C1155 C 0.49587 0.93113 0.03691 0.0
C1156 C 0.48119 0.94744 0.02559 0.0
C1157 C 0.45684 0.946 0.03038 0.0
C1158 C 0.44713 0.9272 0.04474 0.0
H1159 H 0.41449 0.86079 0.01601 0.0
H1160 H 0.40948 0.89026 0.02966 0.0
H1161 H 0.43688 0.8855 0.01426 0.0
H1162 H 0.49773 0.89825 0.05659 0.0
H1163 H 0.51464 0.9315 0.03297 0.0
H1164 H 0.06966 0.29169 0.53334 0.0
H1165 H 0.05532 0.25027 0.51902 0.0
H1166 H 0.05315 0.22759 0.59401 0.0
H1167 H 0.06743 0.26877 0.60842 0.0
H1168 H 0.07487 0.20468 0.52622 0.0
H1169 H 0.9863 0.2073 0.5679 0.0
H1170 H 0.00543 0.23458 0.56442 0.0
H1171 H 0.01032 0.21471 0.58942 0.0
C1172 C 0.06619 0.27785 0.54677 0.0
C1173 C 0.06943 0.28364 0.57206 0.0
C1174 C 0.05793 0.25421 0.53855 0.0
C1175 C 0.05269 0.23595 0.55545 0.0
C1176 C 0.05644 0.24155 0.58065 0.0
H1177 H 0.01704 0.08819 0.57335 0.0
H1178 H 0.02099 0.13246 0.57286 0.0
C1179 C 0.0646 0.26513 0.58887 0.0
C1180 C 0.04362 0.21091 0.54694 0.0
H1181 H 0.99834 0.16787 0.55488 0.0
C1182 C 0.05797 0.19666 0.53212 0.0
C1183 C 0.0215 0.20057 0.55453 0.0
C1184 C 0.00488 0.21515 0.56976 0.0
C1185 C 0.05158 0.17182 0.52614 0.0
C1186 C 0.02986 0.16114 0.53464 0.0
C1187 C 0.01494 0.17594 0.54826 0.0
C1188 C 0.02407 0.13411 0.53337 0.0
C1189 C 0.06891 0.15692 0.5122 0.0
C1190 C 0.02329 0.11991 0.51116 0.0
C1191 C 0.02126 0.09409 0.51144 0.0
C1192 C 0.01964 0.08235 0.53392 0.0
C1193 C 0.01819 0.09672 0.5557 0.0
C1194 C 0.02055 0.12216 0.55547 0.0
H1195 H 0.08652 0.16691 0.51075 0.0
H1196 H 0.0714 0.13937 0.52126 0.0
H1197 H 0.06184 0.15262 0.49329 0.0
H1198 H 0.02524 0.1287 0.49376 0.0
H1199 H 0.02268 0.08346 0.49443 0.0
H1200 H 0.56118 0.2329 0.44743 0.0
H1201 H 0.54305 0.27057 0.46103 0.0
H1202 H 0.60764 0.31276 0.44545 0.0
H1203 H 0.62593 0.27516 0.43183 0.0
H1204 H 0.56339 0.30883 0.49971 0.0
H1205 H 0.55032 0.34189 0.40516 0.0
H1206 H 0.55378 0.31001 0.41118 0.0
H1207 H 0.57913 0.33147 0.41266 0.0
C1208 C 0.57151 0.25022 0.44697 0.0
C1209 C 0.59494 0.25116 0.43856 0.0
C1210 C 0.56118 0.27164 0.45481 0.0
C1211 C 0.574 0.29433 0.45407 0.0
C1212 C 0.59749 0.29535 0.44603 0.0
H1213 H 0.55706 0.44471 0.48299 0.0
H1214 H 0.57022 0.40312 0.4785 0.0
C1215 C 0.60793 0.2739 0.43842 0.0
C1216 C 0.5627 0.31706 0.46134 0.0
H1217 H 0.54242 0.36925 0.43828 0.0
C1218 C 0.55854 0.32196 0.48632 0.0
C1219 C 0.55639 0.33399 0.44372 0.0
C1220 C 0.55993 0.32914 0.41663 0.0
C1221 C 0.54893 0.34392 0.49422 0.0
C1222 C 0.54315 0.36106 0.47667 0.0
C1223 C 0.54677 0.35588 0.45164 0.0
C1224 C 0.53547 0.38555 0.48389 0.0
C1225 C 0.54581 0.34925 0.52127 0.0
C1226 C 0.51168 0.3893 0.48928 0.0
C1227 C 0.50408 0.41321 0.49198 0.0
C1228 C 0.52031 0.43333 0.48926 0.0
C1229 C 0.54433 0.42938 0.48544 0.0
C1230 C 0.55184 0.4057 0.48274 0.0
H1231 H 0.55172 0.33426 0.53271 0.0
H1232 H 0.55609 0.36654 0.52698 0.0
H1233 H 0.52684 0.35195 0.52485 0.0
H1234 H 0.49883 0.37384 0.49005 0.0
H1235 H 0.48543 0.41594 0.49446 0.0
loop_
_geom_bond_atom_site_label_1
_geom_bond_atom_site_label_2
_geom_bond_distance
_geom_bond_site_symmetry_2
_ccdc_geom_bond_type
C0 C1 1.384 . S
C0 H13 0.947 . S
C0 C35 1.382 . S
C1 C0 1.384 . S
C1 C2 1.378 . S
C2 C1 1.378 . S
C2 C3 1.378 . S
C2 H14 0.952 . S
C3 C2 1.378 . S
C3 H15 0.950 . S
C3 C34 1.383 . S
H4 C23 0.947 . S
H5 C24 0.946 . S
H6 C26 0.953 . S
H7 C27 0.945 . S
H8 C29 0.952 . S
H9 C30 0.949 . S
H10 C32 0.950 . S
H11 C33 0.948 . S
H12 C35 0.951 . S
H13 C0 0.947 . S
H14 C2 0.952 . S
H15 C3 0.950 . S
N16 C19 1.382 . S
N16 C21 1.363 . S
N17 C19 1.371 . S
N17 C20 1.372 . S
N18 C20 1.361 . S
N18 C21 1.377 . S
C19 N16 1.382 . S
C19 N17 1.371 . S
C19 C22 1.480 . S
C20 N17 1.372 . S
C20 N18 1.361 . S
C20 C28 1.457 . S
C21 N16 1.363 . S
C21 N18 1.377 . S
C21 C34 1.479 . S
C22 C19 1.480 . S
C22 C23 1.383 . S
C22 C27 1.385 . S
C23 H4 0.947 . S
C23 C22 1.383 . S
C23 C24 1.388 . S
C24 H5 0.946 . S
C24 C23 1.388 . S
C24 C25 1.384 . S
C25 C24 1.384 . S
C25 C26 1.377 . S
C26 H6 0.953 . S
C26 C25 1.377 . S
C26 C27 1.369 . S
C27 H7 0.945 . S
C27 C22 1.385 . S
C27 C26 1.369 . S
C28 C20 1.457 . S
C28 C29 1.372 . S
C28 C33 1.364 . S
C29 H8 0.952 . S
C29 C28 1.372 . S
C29 C30 1.389 . S
C30 H9 0.949 . S
C30 C29 1.389 . S
C30 C31 1.387 . S
C31 C30 1.387 . S
C31 C32 1.372 . S
C32 H10 0.950 . S
C32 C31 1.372 . S
C32 C33 1.379 . S
C33 H11 0.948 . S
C33 C28 1.364 . S
C33 C32 1.379 . S
C34 C3 1.383 . S
C34 C21 1.479 . S
C34 C35 1.398 . S
C35 C0 1.382 . S
C35 H12 0.951 . S
C35 C34 1.398 . S
C36 C37 1.384 . S
C36 H49 0.947 . S
C36 C71 1.382 . S
C37 C36 1.384 . S
C37 C38 1.378 . S
C38 C37 1.378 . S
C38 C39 1.378 . S
C38 H50 0.952 . S
C39 C38 1.378 . S
C39 H51 0.950 . S
C39 C70 1.383 . S
H40 C59 0.947 . S
H41 C60 0.946 . S
H42 C62 0.953 . S
H43 C63 0.945 . S
H44 C65 0.952 . S
H45 C66 0.949 . S
H46 C68 0.950 . S
H47 C69 0.948 . S
H48 C71 0.951 . S
H49 C36 0.947 . S
H50 C38 0.952 . S
H51 C39 0.950 . S
N52 C55 1.382 . S
N52 C57 1.363 . S
N53 C55 1.371 . S
N53 C56 1.372 . S
N54 C56 1.361 . S
N54 C57 1.377 . S
C55 N52 1.382 . S
C55 N53 1.371 . S
C55 C58 1.480 . S
C56 N53 1.372 . S
C56 N54 1.361 . S
C56 C64 1.457 . S
C57 N52 1.363 . S
C57 N54 1.377 . S
C57 C70 1.479 . S
C58 C55 1.480 . S
C58 C59 1.383 . S
C58 C63 1.385 . S
C59 H40 0.947 . S
C59 C58 1.383 . S
C59 C60 1.388 . S
C60 H41 0.946 . S
C60 C59 1.388 . S
C60 C61 1.384 . S
C61 C60 1.384 . S
C61 C62 1.377 . S
C62 H42 0.953 . S
C62 C61 1.377 . S
C62 C63 1.369 . S
C63 H43 0.945 . S
C63 C58 1.385 . S
C63 C62 1.369 . S
C64 C56 1.457 . S
C64 C65 1.372 . S
C64 C69 1.364 . S
C65 H44 0.952 . S
C65 C64 1.372 . S
C65 C66 1.389 . S
C66 H45 0.949 . S
C66 C65 1.389 . S
C66 C67 1.387 . S
C67 C66 1.387 . S
C67 C68 1.372 . S
C68 H46 0.950 . S
C68 C67 1.372 . S
C68 C69 1.379 . S
C69 H47 0.948 . S
C69 C64 1.364 . S
C69 C68 1.379 . S
C70 C39 1.383 . S
C70 C57 1.479 . S
C70 C71 1.398 . S
C71 C36 1.382 . S
C71 H48 0.951 . S
C71 C70 1.398 . S
C72 C73 1.384 . S
C72 H85 0.947 . S
C72 C107 1.382 . S
C73 C72 1.384 . S
C73 C74 1.378 . S
C74 C73 1.378 . S
C74 C75 1.378 . S
C74 H86 0.952 . S
C75 C74 1.378 . S
C75 H87 0.950 . S
C75 C106 1.383 . S
H76 C95 0.947 . S
H77 C96 0.946 . S
H78 C98 0.953 . S
H79 C99 0.945 . S
H80 C101 0.952 . S
H81 C102 0.949 . S
H82 C104 0.950 . S
H83 C105 0.948 . S
H84 C107 0.951 . S
H85 C72 0.947 . S
H86 C74 0.952 . S
H87 C75 0.950 . S
N88 C91 1.382 . S
N88 C93 1.363 . S
N89 C91 1.371 . S
N89 C92 1.372 . S
N90 C92 1.361 . S
N90 C93 1.377 . S
C91 N88 1.382 . S
C91 N89 1.371 . S
C91 C94 1.480 . S
C92 N89 1.372 . S
C92 N90 1.361 . S
C92 C100 1.457 . S
C93 N88 1.363 . S
C93 N90 1.377 . S
C93 C106 1.479 . S
C94 C91 1.480 . S
C94 C95 1.383 . S
C94 C99 1.385 . S
C95 H76 0.947 . S
C95 C94 1.383 . S
C95 C96 1.388 . S
C96 H77 0.946 . S
C96 C95 1.388 . S
C96 C97 1.384 . S
C97 C96 1.384 . S
C97 C98 1.377 . S
C98 H78 0.953 . S
C98 C97 1.377 . S
C98 C99 1.369 . S
C99 H79 0.945 . S
C99 C94 1.385 . S
C99 C98 1.369 . S
C100 C92 1.457 . S
C100 C101 1.372 . S
C100 C105 1.364 . S
C101 H80 0.952 . S
C101 C100 1.372 . S
C101 C102 1.389 . S
C102 H81 0.949 . S
C102 C101 1.389 . S
C102 C103 1.387 . S
C103 C102 1.387 . S
C103 C104 1.372 . S
C104 H82 0.950 . S
C104 C103 1.372 . S
C104 C105 1.379 . S
C105 H83 0.948 . S
C105 C100 1.364 . S
C105 C104 1.379 . S
C106 C75 1.383 . S
C106 C93 1.479 . S
C106 C107 1.398 . S
C107 C72 1.382 . S
C107 H84 0.951 . S
C107 C106 1.398 . S
C108 C109 1.384 . S
C108 H121 0.947 . S
C108 C143 1.382 . S
C109 C108 1.384 . S
C109 C110 1.378 . S
C110 C109 1.378 . S
C110 C111 1.378 . S
C110 H122 0.952 . S
C111 C110 1.378 . S
C111 H123 0.950 . S
C111 C142 1.383 . S
H112 C131 0.947 . S
H113 C132 0.946 . S
H114 C134 0.953 . S
H115 C135 0.945 . S
H116 C137 0.952 . S
H117 C138 0.949 . S
H118 C140 0.950 . S
H119 C141 0.948 . S
H120 C143 0.951 . S
H121 C108 0.947 . S
H122 C110 0.952 . S
H123 C111 0.950 . S
N124 C127 1.382 . S
N124 C129 1.363 . S
N125 C127 1.371 . S
N125 C128 1.372 . S
N126 C128 1.361 . S
N126 C129 1.377 . S
C127 N124 1.382 . S
C127 N125 1.371 . S
C127 C130 1.480 . S
C128 N125 1.372 . S
C128 N126 1.361 . S
C128 C136 1.457 . S
C129 N124 1.363 . S
C129 N126 1.377 . S
C129 C142 1.479 . S
C130 C127 1.480 . S
C130 C131 1.383 . S
C130 C135 1.385 . S
C131 H112 0.947 . S
C131 C130 1.383 . S
C131 C132 1.388 . S
C132 H113 0.946 . S
C132 C131 1.388 . S
C132 C133 1.384 . S
C133 C132 1.384 . S
C133 C134 1.377 . S
C134 H114 0.953 . S
C134 C133 1.377 . S
C134 C135 1.369 . S
C135 H115 0.945 . S
C135 C130 1.385 . S
C135 C134 1.369 . S
C136 C128 1.457 . S
C136 C137 1.372 . S
C136 C141 1.364 . S
C137 H116 0.952 . S
C137 C136 1.372 . S
C137 C138 1.389 . S
C138 H117 0.949 . S
C138 C137 1.389 . S
C138 C139 1.387 . S
C139 C138 1.387 . S
C139 C140 1.372 . S
C140 H118 0.950 . S
C140 C139 1.372 . S
C140 C141 1.379 . S
C141 H119 0.948 . S
C141 C136 1.364 . S
C141 C140 1.379 . S
C142 C111 1.383 . S
C142 C129 1.479 . S
C142 C143 1.398 . S
C143 C108 1.382 . S
C143 H120 0.951 . S
C143 C142 1.398 . S
C144 C145 1.384 . S
C144 H157 0.947 . S
C144 C179 1.382 . S
C145 C144 1.384 . S
C145 C146 1.378 . S
C146 C145 1.378 . S
C146 C147 1.378 . S
C146 H158 0.952 . S
C147 C146 1.378 . S
C147 H159 0.950 . S
C147 C178 1.383 . S
H148 C167 0.947 . S
H149 C168 0.946 . S
H150 C170 0.953 . S
H151 C171 0.945 . S
H152 C173 0.952 . S
H153 C174 0.949 . S
H154 C176 0.950 . S
H155 C177 0.948 . S
H156 C179 0.951 . S
H157 C144 0.947 . S
H158 C146 0.952 . S
H159 C147 0.950 . S
N160 C163 1.382 . S
N160 C165 1.363 . S
N161 C163 1.371 . S
N161 C164 1.372 . S
N162 C164 1.361 . S
N162 C165 1.377 . S
C163 N160 1.382 . S
C163 N161 1.371 . S
C163 C166 1.480 . S
C164 N161 1.372 . S
C164 N162 1.361 . S
C164 C172 1.457 . S
C165 N160 1.363 . S
C165 N162 1.377 . S
C165 C178 1.479 . S
C166 C163 1.480 . S
C166 C167 1.383 . S
C166 C171 1.385 . S
C167 H148 0.947 . S
C167 C166 1.383 . S
C167 C168 1.388 . S
C168 H149 0.946 . S
C168 C167 1.388 . S
C168 C169 1.384 . S
C169 C168 1.384 . S
C169 C170 1.377 . S
C170 H150 0.953 . S
C170 C169 1.377 . S
C170 C171 1.369 . S
C171 H151 0.945 . S
C171 C166 1.385 . S
C171 C170 1.369 . S
C172 C164 1.457 . S
C172 C173 1.372 . S
C172 C177 1.364 . S
C173 H152 0.952 . S
C173 C172 1.372 . S
C173 C174 1.389 . S
C174 H153 0.949 . S
C174 C173 1.389 . S
C174 C175 1.387 . S
C175 C174 1.387 . S
C175 C176 1.372 . S
C176 H154 0.950 . S
C176 C175 1.372 . S
C176 C177 1.379 . S
C177 H155 0.948 . S
C177 C172 1.364 . S
C177 C176 1.379 . S
C178 C147 1.383 . S
C178 C165 1.479 . S
C178 C179 1.398 . S
C179 C144 1.382 . S
C179 H156 0.951 . S
C179 C178 1.398 . S
C180 C181 1.384 . S
C180 H193 0.947 . S
C180 C215 1.382 . S
C181 C180 1.384 . S
C181 C182 1.378 . S
C182 C181 1.378 . S
C182 C183 1.378 . S
C182 H194 0.952 . S
C183 C182 1.378 . S
C183 H195 0.950 . S
C183 C214 1.383 . S
H184 C203 0.947 . S
H185 C204 0.946 . S
H186 C206 0.953 . S
H187 C207 0.945 . S
H188 C209 0.952 . S
H189 C210 0.949 . S
H190 C212 0.950 . S
H191 C213 0.948 . S
H192 C215 0.951 . S
H193 C180 0.947 . S
H194 C182 0.952 . S
H195 C183 0.950 . S
N196 C199 1.382 . S
N196 C201 1.363 . S
N197 C199 1.371 . S
N197 C200 1.372 . S
N198 C200 1.361 . S
N198 C201 1.377 . S
C199 N196 1.382 . S
C199 N197 1.371 . S
C199 C202 1.480 . S
C200 N197 1.372 . S
C200 N198 1.361 . S
C200 C208 1.457 . S
C201 N196 1.363 . S
C201 N198 1.377 . S
C201 C214 1.479 . S
C202 C199 1.480 . S
C202 C203 1.383 . S
C202 C207 1.385 . S
C203 H184 0.947 . S
C203 C202 1.383 . S
C203 C204 1.388 . S
C204 H185 0.946 . S
C204 C203 1.388 . S
C204 C205 1.384 . S
C205 C204 1.384 . S
C205 C206 1.377 . S
C206 H186 0.953 . S
C206 C205 1.377 . S
C206 C207 1.369 . S
C207 H187 0.945 . S
C207 C202 1.385 . S
C207 C206 1.369 . S
C208 C200 1.457 . S
C208 C209 1.372 . S
C208 C213 1.364 . S
C209 H188 0.952 . S
C209 C208 1.372 . S
C209 C210 1.389 . S
C210 H189 0.949 . S
C210 C209 1.389 . S
C210 C211 1.387 . S
C211 C210 1.387 . S
C211 C212 1.372 . S
C212 H190 0.950 . S
C212 C211 1.372 . S
C212 C213 1.379 . S
C213 H191 0.948 . S
C213 C208 1.364 . S
C213 C212 1.379 . S
C214 C183 1.383 . S
C214 C201 1.479 . S
C214 C215 1.398 . S
C215 C180 1.382 . S
C215 H192 0.951 . S
C215 C214 1.398 . S
C216 C217 1.384 . S
C216 H229 0.947 . S
C216 C251 1.382 . S
C217 C216 1.384 . S
C217 C218 1.378 . S
C218 C217 1.378 . S
C218 C219 1.378 . S
C218 H230 0.952 . S
C219 C218 1.378 . S
C219 H231 0.950 . S
C219 C250 1.383 . S
H220 C239 0.947 . S
H221 C240 0.946 . S
H222 C242 0.953 . S
H223 C243 0.945 . S
H224 C245 0.952 . S
H225 C246 0.949 . S
H226 C248 0.950 . S
H227 C249 0.948 . S
H228 C251 0.951 . S
H229 C216 0.947 . S
H230 C218 0.952 . S
H231 C219 0.950 . S
N232 C235 1.382 . S
N232 C237 1.363 . S
N233 C235 1.371 . S
N233 C236 1.372 . S
N234 C236 1.361 . S
N234 C237 1.377 . S
C235 N232 1.382 . S
C235 N233 1.371 . S
C235 C238 1.480 . S
C236 N233 1.372 . S
C236 N234 1.361 . S
C236 C244 1.457 . S
C237 N232 1.363 . S
C237 N234 1.377 . S
C237 C250 1.479 . S
C238 C235 1.480 . S
C238 C239 1.383 . S
C238 C243 1.385 . S
C239 H220 0.947 . S
C239 C238 1.383 . S
C239 C240 1.388 . S
C240 H221 0.946 . S
C240 C239 1.388 . S
C240 C241 1.384 . S
C241 C240 1.384 . S
C241 C242 1.377 . S
C242 H222 0.953 . S
C242 C241 1.377 . S
C242 C243 1.369 . S
C243 H223 0.945 . S
C243 C238 1.385 . S
C243 C242 1.369 . S
C244 C236 1.457 . S
C244 C245 1.372 . S
C244 C249 1.364 . S
C245 H224 0.952 . S
C245 C244 1.372 . S
C245 C246 1.389 . S
C246 H225 0.949 . S
C246 C245 1.389 . S
C246 C247 1.387 . S
C247 C246 1.387 . S
C247 C248 1.372 . S
C248 H226 0.950 . S
C248 C247 1.372 . S
C248 C249 1.379 . S
C249 H227 0.948 . S
C249 C244 1.364 . S
C249 C248 1.379 . S
C250 C219 1.383 . S
C250 C237 1.479 . S
C250 C251 1.398 . S
C251 C216 1.382 . S
C251 H228 0.951 . S
C251 C250 1.398 . S
C252 C253 1.384 . S
C252 H265 0.947 . S
C252 C287 1.382 . S
C253 C252 1.384 . S
C253 C254 1.378 . S
C254 C253 1.378 . S
C254 C255 1.378 . S
C254 H266 0.952 . S
C255 C254 1.378 . S
C255 H267 0.950 . S
C255 C286 1.383 . S
H256 C275 0.947 . S
H257 C276 0.946 . S
H258 C278 0.953 . S
H259 C279 0.945 . S
H260 C281 0.952 . S
H261 C282 0.949 . S
H262 C284 0.950 . S
H263 C285 0.948 . S
H264 C287 0.951 . S
H265 C252 0.947 . S
H266 C254 0.952 . S
H267 C255 0.950 . S
N268 C271 1.382 . S
N268 C273 1.363 . S
N269 C271 1.371 . S
N269 C272 1.372 . S
N270 C272 1.361 . S
N270 C273 1.377 . S
C271 N268 1.382 . S
C271 N269 1.371 . S
C271 C274 1.480 . S
C272 N269 1.372 . S
C272 N270 1.361 . S
C272 C280 1.457 . S
C273 N268 1.363 . S
C273 N270 1.377 . S
C273 C286 1.479 . S
C274 C271 1.480 . S
C274 C275 1.383 . S
C274 C279 1.385 . S
C275 H256 0.947 . S
C275 C274 1.383 . S
C275 C276 1.388 . S
C276 H257 0.946 . S
C276 C275 1.388 . S
C276 C277 1.384 . S
C277 C276 1.384 . S
C277 C278 1.377 . S
C278 H258 0.953 . S
C278 C277 1.377 . S
C278 C279 1.369 . S
C279 H259 0.945 . S
C279 C274 1.385 . S
C279 C278 1.369 . S
C280 C272 1.457 . S
C280 C281 1.372 . S
C280 C285 1.364 . S
C281 H260 0.952 . S
C281 C280 1.372 . S
C281 C282 1.389 . S
C282 H261 0.949 . S
C282 C281 1.389 . S
C282 C283 1.387 . S
C283 C282 1.387 . S
C283 C284 1.372 . S
C284 H262 0.950 . S
C284 C283 1.372 . S
C284 C285 1.379 . S
C285 H263 0.948 . S
C285 C280 1.364 . S
C285 C284 1.379 . S
C286 C255 1.383 . S
C286 C273 1.479 . S
C286 C287 1.398 . S
C287 C252 1.382 . S
C287 H264 0.951 . S
C287 C286 1.398 . S
O288 Mn289 2.163 1_655 S
O288 C302 1.244 . S
Mn289 O288 2.163 1_455 S
Mn289 O292 2.160 1_545 S
Mn289 O293 2.221 . S
Mn289 O295 2.163 1_445 S
Mn289 O297 2.160 . S
Mn289 O307 2.221 1_445 S
O290 Mn291 2.087 1_545 S
O290 C302 1.256 . S
Mn291 O290 2.087 1_565 S
Mn291 O298 2.089 1_565 S
Mn291 O307 2.290 . S
Mn291 O308 2.251 . S
O292 Mn289 2.160 1_565 S
O292 C303 1.239 . S
O293 Mn289 2.221 . S
O293 Mn294 2.290 . S
O293 C304 1.278 . S
Mn294 O293 2.290 . S
Mn294 O296 2.089 1_545 S
Mn294 O299 2.251 . S
Mn294 O300 2.087 . S
O295 Mn289 2.163 1_665 S
O295 C305 1.244 . S
O296 Mn294 2.089 1_565 S
O296 C303 1.256 . S
O297 Mn289 2.160 . S
O297 C306 1.239 . S
O298 Mn291 2.089 1_545 S
O298 C306 1.256 1_655 S
O299 Mn294 2.251 . S
O299 C304 1.241 . S
O300 Mn294 2.087 . S
O300 C305 1.256 1_445 S
C301 O307 1.278 . S
C301 O308 1.241 . S
C302 O288 1.244 . S
C302 O290 1.256 . S
C303 O292 1.239 . S
C303 O296 1.256 . S
C304 O293 1.278 . S
C304 O299 1.241 . S
C305 O295 1.244 . S
C305 O300 1.256 1_665 S
C306 O297 1.239 . S
C306 O298 1.256 1_455 S
O307 Mn289 2.221 1_665 S
O307 Mn291 2.290 . S
O307 C301 1.278 . S
O308 Mn291 2.251 . S
O308 C301 1.241 . S
O309 Mn310 2.163 1_556 S
O309 C323 1.244 1_545 S
Mn310 O309 2.163 1_554 S
Mn310 O313 2.160 . S
Mn310 O314 2.215 1_554 S
Mn310 O316 2.163 . S
Mn310 O318 2.160 1_554 S
Mn310 O328 2.221 1_545 S
O311 Mn312 2.087 . S
O311 C323 1.256 . S
Mn312 O311 2.087 . S
Mn312 O319 2.089 . S
Mn312 O328 2.290 1_556 S
Mn312 O329 2.251 1_556 S
O313 Mn310 2.160 . S
O313 C324 1.239 . S
O314 Mn310 2.215 1_556 S
O314 Mn315 2.266 1_556 S
O314 C325 1.301 . S
Mn315 O314 2.266 1_554 S
Mn315 O317 2.089 . S
Mn315 O320 2.251 1_554 S
Mn315 O321 2.087 . S
O316 Mn310 2.163 . S
O316 C326 1.244 . S
O317 Mn315 2.089 . S
O317 C324 1.256 . S
O318 Mn310 2.160 1_556 S
O318 C327 1.239 1_545 S
O319 Mn312 2.089 . S
O319 C327 1.256 . S
O320 Mn315 2.251 1_556 S
O320 C325 1.241 . S
O321 Mn315 2.087 . S
O321 C326 1.256 . S
C322 O328 1.278 . S
C322 O329 1.241 . S
C323 O309 1.244 1_565 S
C323 O311 1.256 . S
C324 O313 1.239 . S
C324 O317 1.256 . S
C325 O314 1.301 . S
C325 O320 1.241 . S
C326 O316 1.244 . S
C326 O321 1.256 . S
C327 O318 1.239 1_565 S
C327 O319 1.256 . S
O328 Mn310 2.221 1_565 S
O328 Mn312 2.290 1_554 S
O328 C322 1.278 . S
O329 Mn312 2.251 1_554 S
O329 C322 1.241 . S
O330 Mn331 2.163 . S
O330 C344 1.244 . S
Mn331 O330 2.163 . S
Mn331 O334 2.160 . S
Mn331 O335 2.221 . S
Mn331 O337 2.163 . S
Mn331 O339 2.160 . S
Mn331 O349 2.221 . S
O332 Mn333 2.087 . S
O332 C344 1.256 . S
Mn333 O332 2.087 . S
Mn333 O340 2.089 . S
Mn333 O349 2.290 . S
Mn333 O350 2.251 . S
O334 Mn331 2.160 . S
O334 C345 1.239 . S
O335 Mn331 2.221 . S
O335 Mn336 2.290 . S
O335 C346 1.278 . S
Mn336 O335 2.290 . S
Mn336 O338 2.089 . S
Mn336 O341 2.251 . S
Mn336 O342 2.087 . S
O337 Mn331 2.163 . S
O337 C347 1.244 . S
O338 Mn336 2.089 . S
O338 C345 1.256 . S
O339 Mn331 2.160 . S
O339 C348 1.239 . S
O340 Mn333 2.089 . S
O340 C348 1.256 . S
O341 Mn336 2.251 . S
O341 C346 1.241 . S
O342 Mn336 2.087 . S
O342 C347 1.256 . S
C343 O349 1.278 . S
C343 O350 1.241 . S
C344 O330 1.244 . S
C344 O332 1.256 . S
C345 O334 1.239 . S
C345 O338 1.256 . S
C346 O335 1.278 . S
C346 O341 1.241 . S
C347 O337 1.244 . S
C347 O342 1.256 . S
C348 O339 1.239 . S
C348 O340 1.256 . S
O349 Mn331 2.221 . S
O349 Mn333 2.290 . S
O349 C343 1.278 . S
O350 Mn333 2.251 . S
O350 C343 1.241 . S
O351 Mn352 2.163 1_655 S
O351 C365 1.244 1_554 S
Mn352 O351 2.163 1_455 S
Mn352 O355 2.160 . S
Mn352 O356 2.221 1_455 S
Mn352 O358 2.163 . S
Mn352 O360 2.151 1_454 S
Mn352 O370 2.221 1_554 S
O353 Mn354 2.087 . S
O353 C365 1.256 . S
Mn354 O353 2.087 . S
Mn354 O361 2.089 . S
Mn354 O370 2.290 1_655 S
Mn354 O371 2.251 . S
O355 Mn352 2.160 . S
O355 C366 1.239 . S
O356 Mn352 2.221 1_655 S
O356 Mn357 2.290 1_655 S
O356 C367 1.278 . S
Mn357 O356 2.290 1_455 S
Mn357 O359 2.089 . S
Mn357 O362 2.251 1_455 S
Mn357 O363 2.087 . S
O358 Mn352 2.163 . S
O358 C368 1.244 . S
O359 Mn357 2.089 . S
O359 C366 1.256 . S
O360 Mn352 2.151 1_656 S
O360 C369 1.268 . S
O361 Mn354 2.089 . S
O361 C369 1.256 . S
O362 Mn357 2.251 1_655 S
O362 C367 1.241 . S
O363 Mn357 2.087 . S
O363 C368 1.256 . S
C364 O370 1.278 . S
C364 O371 1.241 1_455 S
C365 O351 1.244 1_556 S
C365 O353 1.256 . S
C366 O355 1.239 . S
C366 O359 1.256 . S
C367 O356 1.278 . S
C367 O362 1.241 . S
C368 O358 1.244 . S
C368 O363 1.256 . S
C369 O360 1.268 . S
C369 O361 1.256 . S
O370 Mn352 2.221 1_556 S
O370 Mn354 2.290 1_455 S
O370 C364 1.278 . S
O371 Mn354 2.251 . S
O371 C364 1.241 1_655 S
H372 C380 0.929 . S
H373 C382 0.930 . S
H374 C384 0.930 . S
H375 C387 0.929 . S
H376 C390 0.930 . S
H377 C392 0.960 . S
H378 C392 0.960 . S
H379 C392 0.960 . S
C380 H372 0.929 . S
C380 C381 1.377 . S
C380 C382 1.384 . S
C381 C380 1.377 . S
C381 C387 1.390 . S
C382 H373 0.930 . S
C382 C380 1.384 . S
C382 C383 1.372 . S
C383 C382 1.372 . S
C383 C384 1.400 . S
C383 C388 1.490 . S
C384 H374 0.930 . S
C384 C383 1.400 . S
C384 C387 1.386 . S
H385 C401 0.930 . S
H386 C402 0.931 . S
C387 H375 0.929 . S
C387 C381 1.390 . S
C387 C384 1.386 . S
C388 C383 1.490 . S
C388 C390 1.395 . S
C388 C391 1.403 . S
H389 C395 0.930 . S
C390 H376 0.930 . S
C390 C388 1.395 . S
C390 C393 1.403 . S
C391 C388 1.403 . S
C391 C392 1.524 . S
C391 C395 1.400 . S
C392 H377 0.960 . S
C392 H378 0.960 . S
C392 H379 0.960 . S
C392 C391 1.524 . S
C393 C390 1.403 . S
C393 C394 1.392 . S
C393 C397 1.495 . S
C394 C393 1.392 . S
C394 C395 1.385 . S
C394 C396 1.478 . S
C395 H389 0.930 . S
C395 C391 1.400 . S
C395 C394 1.385 . S
C396 C394 1.478 . S
C396 C398 1.381 . S
C396 C402 1.383 . S
C397 C393 1.495 . S
C397 H403 0.959 . S
C397 H404 0.961 . S
C397 H405 0.960 . S
C398 C396 1.381 . S
C398 C399 1.394 . S
C398 H406 0.930 . S
C399 C398 1.394 . S
C399 C400 1.383 . S
C399 H407 0.934 . S
C400 C399 1.383 . S
C400 C401 1.377 . S
C401 H385 0.930 . S
C401 C400 1.377 . S
C401 C402 1.379 . S
C402 H386 0.931 . S
C402 C396 1.383 . S
C402 C401 1.379 . S
H403 C397 0.959 . S
H404 C397 0.961 . S
H405 C397 0.960 . S
H406 C398 0.930 . S
H407 C399 0.934 . S
H408 C416 0.929 . S
H409 C418 0.930 . S
H410 C420 0.930 . S
H411 C423 0.929 . S
H412 C426 0.930 . S
H413 C428 0.960 . S
H414 C428 0.960 . S
H415 C428 0.960 . S
C416 H408 0.929 . S
C416 C417 1.377 . S
C416 C418 1.384 . S
C417 C416 1.377 . S
C417 C423 1.390 . S
C418 H409 0.930 . S
C418 C416 1.384 . S
C418 C419 1.372 . S
C419 C418 1.372 . S
C419 C420 1.400 . S
C419 C424 1.490 . S
C420 H410 0.930 . S
C420 C419 1.400 . S
C420 C423 1.386 . S
H421 C437 0.930 . S
H422 C438 0.931 . S
C423 H411 0.929 . S
C423 C417 1.390 . S
C423 C420 1.386 . S
C424 C419 1.490 . S
C424 C426 1.395 . S
C424 C427 1.403 . S
H425 C431 0.930 . S
C426 H412 0.930 . S
C426 C424 1.395 . S
C426 C429 1.403 . S
C427 C424 1.403 . S
C427 C428 1.524 . S
C427 C431 1.400 . S
C428 H413 0.960 . S
C428 H414 0.960 . S
C428 H415 0.960 . S
C428 C427 1.524 . S
C429 C426 1.403 . S
C429 C430 1.392 . S
C429 C433 1.495 1_565 S
C430 C429 1.392 . S
C430 C431 1.385 . S
C430 C432 1.478 . S
C431 H425 0.930 . S
C431 C427 1.400 . S
C431 C430 1.385 . S
C432 C430 1.478 . S
C432 C434 1.381 . S
C432 C438 1.383 . S
C433 C429 1.495 1_545 S
C433 H439 0.959 . S
C433 H440 0.961 . S
C433 H441 0.960 . S
C434 C432 1.381 . S
C434 C435 1.394 . S
C434 H442 0.930 . S
C435 C434 1.394 . S
C435 C436 1.383 . S
C435 H443 0.929 . S
C436 C435 1.383 . S
C436 C437 1.377 . S
C437 H421 0.930 . S
C437 C436 1.377 . S
C437 C438 1.379 . S
C438 H422 0.931 . S
C438 C432 1.383 . S
C438 C437 1.379 . S
H439 C433 0.959 . S
H440 C433 0.961 . S
H441 C433 0.960 . S
H442 C434 0.930 . S
H443 C435 0.929 . S
H444 C452 0.929 . S
H445 C454 0.930 . S
H446 C456 0.930 . S
H447 C459 0.929 . S
H448 C462 0.930 . S
H449 C464 0.960 . S
H450 C464 0.960 . S
H451 C464 0.960 . S
C452 H444 0.929 . S
C452 C453 1.377 . S
C452 C454 1.384 . S
C453 C452 1.377 . S
C453 C459 1.390 . S
C454 H445 0.930 . S
C454 C452 1.384 . S
C454 C455 1.372 . S
C455 C454 1.372 . S
C455 C456 1.400 . S
C455 C460 1.490 . S
C456 H446 0.930 . S
C456 C455 1.400 . S
C456 C459 1.386 . S
H457 C473 0.930 . S
H458 C474 0.931 . S
C459 H447 0.929 . S
C459 C453 1.390 . S
C459 C456 1.386 . S
C460 C455 1.490 . S
C460 C462 1.395 . S
C460 C463 1.403 . S
H461 C467 0.930 . S
C462 H448 0.930 . S
C462 C460 1.395 . S
C462 C465 1.403 . S
C463 C460 1.403 . S
C463 C464 1.524 . S
C463 C467 1.400 . S
C464 H449 0.960 . S
C464 H450 0.960 . S
C464 H451 0.960 . S
C464 C463 1.524 . S
C465 C462 1.403 . S
C465 C466 1.392 . S
C465 C469 1.495 . S
C466 C465 1.392 . S
C466 C467 1.385 . S
C466 C468 1.478 . S
C467 H461 0.930 . S
C467 C463 1.400 . S
C467 C466 1.385 . S
C468 C466 1.478 . S
C468 C470 1.381 . S
C468 C474 1.383 . S
C469 C465 1.495 . S
C469 H475 0.959 . S
C469 H476 0.961 . S
C469 H477 0.960 . S
C470 C468 1.381 . S
C470 C471 1.394 . S
C470 H478 0.930 . S
C471 C470 1.394 . S
C471 C472 1.383 . S
C471 H479 0.929 . S
C472 C471 1.383 . S
C472 C473 1.377 . S
C473 H457 0.930 . S
C473 C472 1.377 . S
C473 C474 1.379 . S
C474 H458 0.931 . S
C474 C468 1.383 . S
C474 C473 1.379 . S
H475 C469 0.959 . S
H476 C469 0.961 . S
H477 C469 0.960 . S
H478 C470 0.930 . S
H479 C471 0.929 . S
H480 C488 0.929 . S
H481 C490 0.930 . S
H482 C492 0.930 . S
H483 C495 0.929 . S
H484 C498 0.930 . S
H485 C500 0.960 . S
H486 C500 0.960 . S
H487 C500 0.960 . S
C488 H480 0.929 . S
C488 C489 1.377 . S
C488 C490 1.384 . S
C489 C488 1.377 . S
C489 C495 1.390 . S
C490 H481 0.930 . S
C490 C488 1.384 . S
C490 C491 1.372 . S
C491 C490 1.372 . S
C491 C492 1.400 . S
C491 C496 1.490 . S
C492 H482 0.930 . S
C492 C491 1.400 . S
C492 C495 1.386 . S
H493 C509 0.930 . S
H494 C510 0.931 . S
C495 H483 0.929 . S
C495 C489 1.390 . S
C495 C492 1.386 . S
C496 C491 1.490 . S
C496 C498 1.395 . S
C496 C499 1.403 . S
H497 C503 0.930 . S
C498 H484 0.930 . S
C498 C496 1.395 . S
C498 C501 1.403 . S
C499 C496 1.403 . S
C499 C500 1.524 . S
C499 C503 1.400 . S
C500 H485 0.960 . S
C500 H486 0.960 . S
C500 H487 0.960 . S
C500 C499 1.524 . S
C501 C498 1.403 . S
C501 C502 1.392 . S
C501 C505 1.495 . S
C502 C501 1.392 . S
C502 C503 1.385 . S
C502 C504 1.478 . S
C503 H497 0.930 . S
C503 C499 1.400 . S
C503 C502 1.385 . S
C504 C502 1.478 . S
C504 C506 1.381 . S
C504 C510 1.383 . S
C505 C501 1.495 . S
C505 H511 0.957 1_655 S
C505 H512 0.961 1_655 S
C505 H513 0.960 . S
C506 C504 1.381 . S
C506 C507 1.394 . S
C506 H514 0.930 . S
C507 C506 1.394 . S
C507 C508 1.383 . S
C507 H515 0.929 . S
C508 C507 1.383 . S
C508 C509 1.377 . S
C509 H493 0.930 . S
C509 C508 1.377 . S
C509 C510 1.379 . S
C510 H494 0.931 . S
C510 C504 1.383 . S
C510 C509 1.379 . S
H511 C505 0.957 1_455 S
H512 C505 0.961 1_455 S
H513 C505 0.960 . S
H514 C506 0.930 . S
H515 C507 0.929 . S
H516 C524 0.929 . S
H517 C526 0.930 . S
H518 C528 0.930 . S
H519 C531 0.929 . S
H520 C534 0.930 . S
H521 C536 0.960 . S
H522 C536 0.960 . S
H523 C536 0.960 . S
C524 H516 0.929 . S
C524 C525 1.377 . S
C524 C526 1.384 . S
C525 C524 1.377 . S
C525 C531 1.390 . S
C526 H517 0.930 . S
C526 C524 1.384 . S
C526 C527 1.372 . S
C527 C526 1.372 . S
C527 C528 1.400 . S
C527 C532 1.490 . S
C528 H518 0.930 . S
C528 C527 1.400 . S
C528 C531 1.386 . S
H529 C545 0.930 . S
H530 C546 0.931 . S
C531 H519 0.929 . S
C531 C525 1.390 . S
C531 C528 1.386 . S
C532 C527 1.490 . S
C532 C534 1.395 . S
C532 C535 1.403 . S
H533 C539 0.930 . S
C534 H520 0.930 . S
C534 C532 1.395 . S
C534 C537 1.403 . S
C535 C532 1.403 . S
C535 C536 1.524 . S
C535 C539 1.400 . S
C536 H521 0.960 . S
C536 H522 0.960 . S
C536 H523 0.960 . S
C536 C535 1.524 . S
C537 C534 1.403 . S
C537 C538 1.392 . S
C537 C541 1.495 . S
C538 C537 1.392 . S
C538 C539 1.385 . S
C538 C540 1.478 . S
C539 H533 0.930 . S
C539 C535 1.400 . S
C539 C538 1.385 . S
C540 C538 1.478 . S
C540 C542 1.381 . S
C540 C546 1.383 . S
C541 C537 1.495 . S
C541 H547 0.959 . S
C541 H548 0.961 . S
C541 H549 0.960 . S
C542 C540 1.381 . S
C542 C543 1.394 . S
C542 H550 0.930 . S
C543 C542 1.394 . S
C543 C544 1.383 . S
C543 H551 0.929 . S
C544 C543 1.383 . S
C544 C545 1.377 . S
C545 H529 0.930 . S
C545 C544 1.377 . S
C545 C546 1.379 . S
C546 H530 0.931 . S
C546 C540 1.383 . S
C546 C545 1.379 . S
H547 C541 0.959 . S
H548 C541 0.961 . S
H549 C541 0.960 . S
H550 C542 0.930 . S
H551 C543 0.929 . S
H552 C560 0.929 . S
H553 C562 0.930 . S
H554 C564 0.930 . S
H555 C567 0.929 . S
H556 C570 0.930 . S
H557 C572 0.960 . S
H558 C572 0.960 . S
H559 C572 0.960 . S
C560 H552 0.929 . S
C560 C561 1.377 . S
C560 C562 1.384 . S
C561 C560 1.377 . S
C561 C567 1.390 . S
C562 H553 0.930 . S
C562 C560 1.384 . S
C562 C563 1.372 . S
C563 C562 1.372 . S
C563 C564 1.400 . S
C563 C568 1.490 . S
C564 H554 0.930 . S
C564 C563 1.400 . S
C564 C567 1.386 . S
H565 C581 0.930 . S
H566 C582 0.931 . S
C567 H555 0.929 . S
C567 C561 1.390 . S
C567 C564 1.386 . S
C568 C563 1.490 . S
C568 C570 1.395 . S
C568 C571 1.403 . S
H569 C575 0.930 . S
C570 H556 0.930 . S
C570 C568 1.395 . S
C570 C573 1.403 . S
C571 C568 1.403 . S
C571 C572 1.524 . S
C571 C575 1.400 . S
C572 H557 0.960 . S
C572 H558 0.960 . S
C572 H559 0.960 . S
C572 C571 1.524 . S
C573 C570 1.403 . S
C573 C574 1.392 . S
C573 C577 1.495 . S
C574 C573 1.392 . S
C574 C575 1.385 . S
C574 C576 1.478 . S
C575 H569 0.930 . S
C575 C571 1.400 . S
C575 C574 1.385 . S
C576 C574 1.478 . S
C576 C578 1.381 . S
C576 C582 1.383 . S
C577 C573 1.495 . S
C577 H583 0.959 . S
C577 H584 0.961 . S
C577 H585 0.960 . S
C578 C576 1.381 . S
C578 C579 1.394 . S
C578 H586 0.930 . S
C579 C578 1.394 . S
C579 C580 1.383 . S
C579 H587 0.929 . S
C580 C579 1.383 . S
C580 C581 1.377 . S
C581 H565 0.930 . S
C581 C580 1.377 . S
C581 C582 1.379 . S
C582 H566 0.931 . S
C582 C576 1.383 . S
C582 C581 1.379 . S
H583 C577 0.959 . S
H584 C577 0.961 . S
H585 C577 0.960 . S
H586 C578 0.930 . S
H587 C579 0.929 . S
H588 C596 0.929 . S
H589 C598 0.930 . S
H590 C600 0.930 . S
H591 C603 0.929 . S
H592 C606 0.930 . S
H593 C608 0.942 1_554 S
H594 C608 0.960 . S
H595 C608 0.960 . S
C596 H588 0.929 . S
C596 C597 1.377 . S
C596 C598 1.384 . S
C597 C596 1.377 . S
C597 C603 1.390 . S
C598 H589 0.930 . S
C598 C596 1.384 . S
C598 C599 1.372 . S
C599 C598 1.372 . S
C599 C600 1.400 . S
C599 C604 1.490 . S
C600 H590 0.930 . S
C600 C599 1.400 . S
C600 C603 1.386 . S
H601 C617 0.930 . S
H602 C618 0.931 . S
C603 H591 0.929 . S
C603 C597 1.390 . S
C603 C600 1.386 . S
C604 C599 1.490 . S
C604 C606 1.395 . S
C604 C607 1.403 . S
H605 C611 0.930 . S
C606 H592 0.930 . S
C606 C604 1.395 . S
C606 C609 1.403 . S
C607 C604 1.403 . S
C607 C608 1.524 . S
C607 C611 1.400 . S
C608 H593 0.942 1_556 S
C608 H594 0.960 . S
C608 H595 0.960 . S
C608 C607 1.524 . S
C609 C606 1.403 . S
C609 C610 1.392 . S
C609 C613 1.495 . S
C610 C609 1.392 . S
C610 C611 1.385 . S
C610 C612 1.478 . S
C611 H605 0.930 . S
C611 C607 1.400 . S
C611 C610 1.385 . S
C612 C610 1.478 . S
C612 C614 1.381 . S
C612 C618 1.383 . S
C613 C609 1.495 . S
C613 H619 0.959 . S
C613 H620 0.961 . S
C613 H621 0.960 . S
C614 C612 1.381 . S
C614 C615 1.394 . S
C614 H622 0.930 . S
C615 C614 1.394 . S
C615 C616 1.383 . S
C615 H623 0.929 . S
C616 C615 1.383 . S
C616 C617 1.377 . S
C617 H601 0.930 . S
C617 C616 1.377 . S
C617 C618 1.379 . S
C618 H602 0.931 . S
C618 C612 1.383 . S
C618 C617 1.379 . S
H619 C613 0.959 . S
H620 C613 0.961 . S
H621 C613 0.960 . S
H622 C614 0.930 . S
H623 C615 0.929 . S
H624 C632 0.929 . S
H625 C634 0.930 . S
H626 C636 0.930 . S
H627 C639 0.929 . S
H628 C642 0.930 . S
H629 C644 0.960 . S
H630 C644 0.960 . S
H631 C644 0.960 . S
C632 H624 0.929 . S
C632 C633 1.377 . S
C632 C634 1.384 . S
C633 C632 1.377 . S
C633 C639 1.390 . S
C634 H625 0.930 . S
C634 C632 1.384 . S
C634 C635 1.372 . S
C635 C634 1.372 . S
C635 C636 1.400 . S
C635 C640 1.490 . S
C636 H626 0.930 . S
C636 C635 1.400 . S
C636 C639 1.386 . S
H637 C653 0.930 . S
H638 C654 0.931 . S
C639 H627 0.929 . S
C639 C633 1.390 . S
C639 C636 1.386 . S
C640 C635 1.490 . S
C640 C642 1.395 . S
C640 C643 1.403 . S
H641 C647 0.930 . S
C642 H628 0.930 . S
C642 C640 1.395 . S
C642 C645 1.403 . S
C643 C640 1.403 . S
C643 C644 1.524 . S
C643 C647 1.400 . S
C644 H629 0.960 . S
C644 H630 0.960 . S
C644 H631 0.960 . S
C644 C643 1.524 . S
C645 C642 1.403 . S
C645 C646 1.392 . S
C645 C649 1.495 . S
C646 C645 1.392 . S
C646 C647 1.385 . S
C646 C648 1.478 . S
C647 H641 0.930 . S
C647 C643 1.400 . S
C647 C646 1.385 . S
C648 C646 1.478 . S
C648 C650 1.381 . S
C648 C654 1.383 . S
C649 C645 1.495 . S
C649 H655 0.959 . S
C649 H656 0.961 . S
C649 H657 0.960 . S
C650 C648 1.381 . S
C650 C651 1.394 . S
C650 H658 0.930 . S
C651 C650 1.394 . S
C651 C652 1.383 . S
C651 H659 0.929 . S
C652 C651 1.383 . S
C652 C653 1.377 . S
C653 H637 0.930 . S
C653 C652 1.377 . S
C653 C654 1.379 . S
C654 H638 0.931 . S
C654 C648 1.383 . S
C654 C653 1.379 . S
H655 C649 0.959 . S
H656 C649 0.961 . S
H657 C649 0.960 . S
H658 C650 0.930 . S
H659 C651 0.929 . S
H660 C668 0.929 . S
H661 C670 0.930 . S
H662 C672 0.930 . S
H663 C675 0.929 . S
H664 C678 0.930 . S
H665 C680 0.960 . S
H666 C680 0.960 . S
H667 C680 0.960 . S
C668 H660 0.929 . S
C668 C669 1.377 . S
C668 C670 1.384 . S
C669 C668 1.377 . S
C669 C675 1.390 . S
C670 H661 0.930 . S
C670 C668 1.384 . S
C670 C671 1.372 . S
C671 C670 1.372 . S
C671 C672 1.400 . S
C671 C676 1.490 . S
C672 H662 0.930 . S
C672 C671 1.400 . S
C672 C675 1.386 . S
H673 C689 0.930 . S
H674 C690 0.931 . S
C675 H663 0.929 . S
C675 C669 1.390 . S
C675 C672 1.386 . S
C676 C671 1.490 . S
C676 C678 1.395 . S
C676 C679 1.403 . S
H677 C683 0.930 . S
C678 H664 0.930 . S
C678 C676 1.395 . S
C678 C681 1.403 . S
C679 C676 1.403 . S
C679 C680 1.524 . S
C679 C683 1.400 . S
C680 H665 0.960 . S
C680 H666 0.960 . S
C680 H667 0.960 . S
C680 C679 1.524 . S
C681 C678 1.403 . S
C681 C682 1.392 . S
C681 C685 1.495 . S
C682 C681 1.392 . S
C682 C683 1.385 . S
C682 C684 1.478 . S
C683 H677 0.930 . S
C683 C679 1.400 . S
C683 C682 1.385 . S
C684 C682 1.478 . S
C684 C686 1.381 . S
C684 C690 1.383 . S
C685 C681 1.495 . S
C685 H691 0.959 . S
C685 H692 0.961 . S
C685 H693 0.960 . S
C686 C684 1.381 . S
C686 C687 1.394 . S
C686 H694 0.930 . S
C687 C686 1.394 . S
C687 C688 1.383 . S
C687 H695 0.929 1_455 S
C688 C687 1.383 . S
C688 C689 1.377 . S
C689 H673 0.930 . S
C689 C688 1.377 . S
C689 C690 1.379 . S
C690 H674 0.931 . S
C690 C684 1.383 . S
C690 C689 1.379 . S
H691 C685 0.959 . S
H692 C685 0.961 . S
H693 C685 0.960 . S
H694 C686 0.930 . S
H695 C687 0.929 1_655 S
H696 C704 0.929 . S
H697 C706 0.930 . S
H698 C708 0.930 . S
H699 C711 0.929 . S
H700 C714 0.930 . S
H701 C716 0.960 . S
H702 C716 0.960 . S
H703 C716 0.960 . S
C704 H696 0.929 . S
C704 C705 1.377 . S
C704 C706 1.384 . S
C705 C704 1.377 . S
C705 C711 1.390 . S
C706 H697 0.930 . S
C706 C704 1.384 . S
C706 C707 1.372 . S
C707 C706 1.372 . S
C707 C708 1.400 . S
C707 C712 1.490 . S
C708 H698 0.930 . S
C708 C707 1.400 . S
C708 C711 1.386 . S
H709 C725 0.930 . S
H710 C726 0.931 . S
C711 H699 0.929 . S
C711 C705 1.390 . S
C711 C708 1.386 . S
C712 C707 1.490 . S
C712 C714 1.395 . S
C712 C715 1.403 . S
H713 C719 0.930 . S
C714 H700 0.930 . S
C714 C712 1.395 . S
C714 C717 1.403 . S
C715 C712 1.403 . S
C715 C716 1.524 . S
C715 C719 1.400 . S
C716 H701 0.960 . S
C716 H702 0.960 . S
C716 H703 0.960 . S
C716 C715 1.524 . S
C717 C714 1.403 . S
C717 C718 1.392 . S
C717 C721 1.495 . S
C718 C717 1.392 . S
C718 C719 1.385 . S
C718 C720 1.478 . S
C719 H713 0.930 . S
C719 C715 1.400 . S
C719 C718 1.385 . S
C720 C718 1.478 . S
C720 C722 1.381 . S
C720 C726 1.383 . S
C721 C717 1.495 . S
C721 H727 0.959 . S
C721 H728 0.961 . S
C721 H729 0.960 . S
C722 C720 1.381 . S
C722 C723 1.394 . S
C722 H730 0.930 . S
C723 C722 1.394 . S
C723 C724 1.383 . S
C723 H731 0.929 . S
C724 C723 1.383 . S
C724 C725 1.377 . S
C725 H709 0.930 . S
C725 C724 1.377 . S
C725 C726 1.379 . S
C726 H710 0.931 . S
C726 C720 1.383 . S
C726 C725 1.379 . S
H727 C721 0.959 . S
H728 C721 0.961 . S
H729 C721 0.960 . S
H730 C722 0.930 . S
H731 C723 0.929 . S
H732 C740 0.929 . S
H733 C742 0.930 . S
H734 C744 0.930 . S
H735 C747 0.929 . S
H736 C750 0.930 . S
H737 C752 0.984 . S
H738 C752 0.960 . S
H739 C752 0.960 . S
C740 H732 0.929 . S
C740 C741 1.377 . S
C740 C742 1.384 . S
C741 C740 1.377 . S
C741 C747 1.390 . S
C742 H733 0.930 . S
C742 C740 1.384 . S
C742 C743 1.372 . S
C743 C742 1.372 . S
C743 C744 1.400 . S
C743 C748 1.490 . S
C744 H734 0.930 . S
C744 C743 1.400 . S
C744 C747 1.386 . S
H745 C761 0.930 . S
H746 C762 0.931 . S
C747 H735 0.929 . S
C747 C741 1.390 . S
C747 C744 1.386 . S
C748 C743 1.490 . S
C748 C750 1.395 . S
C748 C751 1.403 . S
H749 C755 0.930 . S
C750 H736 0.930 . S
C750 C748 1.395 . S
C750 C753 1.403 . S
C751 C748 1.403 . S
C751 C752 1.524 . S
C751 C755 1.400 . S
C752 H737 0.984 . S
C752 H738 0.960 . S
C752 H739 0.960 . S
C752 C751 1.524 . S
C753 C750 1.403 . S
C753 C754 1.392 . S
C753 C757 1.495 . S
C754 C753 1.392 . S
C754 C755 1.385 . S
C754 C756 1.478 . S
C755 H749 0.930 . S
C755 C751 1.400 . S
C755 C754 1.385 . S
C756 C754 1.478 . S
C756 C758 1.381 . S
C756 C762 1.383 . S
C757 C753 1.495 . S
C757 H763 0.959 . S
C757 H764 0.961 . S
C757 H765 0.960 . S
C758 C756 1.381 . S
C758 C759 1.394 . S
C758 H766 0.930 . S
C759 C758 1.394 . S
C759 C760 1.383 . S
C759 H767 0.929 . S
C760 C759 1.383 . S
C760 C761 1.377 . S
C761 H745 0.930 . S
C761 C760 1.377 . S
C761 C762 1.379 . S
C762 H746 0.931 . S
C762 C756 1.383 . S
C762 C761 1.379 . S
H763 C757 0.959 . S
H764 C757 0.961 . S
H765 C757 0.960 . S
H766 C758 0.930 . S
H767 C759 0.929 . S
H768 C776 0.929 . S
H769 C778 0.930 . S
H770 C780 0.930 . S
H771 C783 0.929 . S
H772 C786 0.930 . S
H773 C788 0.960 . S
H774 C788 0.960 . S
H775 C788 0.960 . S
C776 H768 0.929 . S
C776 C777 1.377 . S
C776 C778 1.384 . S
C777 C776 1.377 . S
C777 C783 1.390 . S
C778 H769 0.930 . S
C778 C776 1.384 . S
C778 C779 1.372 . S
C779 C778 1.372 . S
C779 C780 1.400 . S
C779 C784 1.490 . S
C780 H770 0.930 . S
C780 C779 1.400 . S
C780 C783 1.386 . S
H781 C797 0.930 . S
H782 C798 0.931 . S
C783 H771 0.929 . S
C783 C777 1.390 . S
C783 C780 1.386 . S
C784 C779 1.490 . S
C784 C786 1.395 . S
C784 C787 1.403 . S
H785 C791 0.930 . S
C786 H772 0.930 . S
C786 C784 1.395 . S
C786 C789 1.403 . S
C787 C784 1.403 . S
C787 C788 1.524 . S
C787 C791 1.400 . S
C788 H773 0.960 . S
C788 H774 0.960 . S
C788 H775 0.960 . S
C788 C787 1.524 . S
C789 C786 1.403 . S
C789 C790 1.392 . S
C789 C793 1.495 . S
C790 C789 1.392 . S
C790 C791 1.385 . S
C790 C792 1.478 . S
C791 H785 0.930 . S
C791 C787 1.400 . S
C791 C790 1.385 . S
C792 C790 1.478 . S
C792 C794 1.381 . S
C792 C798 1.383 . S
C793 C789 1.495 . S
C793 H799 0.959 . S
C793 H800 0.961 . S
C793 H801 0.960 . S
C794 C792 1.381 . S
C794 C795 1.394 . S
C794 H802 0.930 . S
C795 C794 1.394 . S
C795 C796 1.383 . S
C795 H803 0.929 . S
C796 C795 1.383 . S
C796 C797 1.377 . S
C797 H781 0.930 . S
C797 C796 1.377 . S
C797 C798 1.379 . S
C798 H782 0.931 . S
C798 C792 1.383 . S
C798 C797 1.379 . S
H799 C793 0.959 . S
H800 C793 0.961 . S
H801 C793 0.960 . S
H802 C794 0.930 . S
H803 C795 0.929 . S
H804 C812 0.929 . S
H805 C814 0.930 . S
H806 C816 0.930 . S
H807 C819 0.929 . S
H808 C822 0.930 . S
H809 C824 0.958 . S
H810 C824 0.960 . S
H811 C824 0.960 . S
C812 H804 0.929 . S
C812 C813 1.377 . S
C812 C814 1.384 . S
C813 C812 1.377 . S
C813 C819 1.390 . S
C814 H805 0.930 . S
C814 C812 1.384 . S
C814 C815 1.372 . S
C815 C814 1.372 . S
C815 C816 1.400 . S
C815 C820 1.490 . S
C816 H806 0.930 . S
C816 C815 1.400 . S
C816 C819 1.386 . S
H817 C833 0.915 1_445 S
H818 C834 0.931 . S
C819 H807 0.929 . S
C819 C813 1.390 . S
C819 C816 1.386 . S
C820 C815 1.490 . S
C820 C822 1.395 . S
C820 C823 1.403 . S
H821 C827 0.930 . S
C822 H808 0.930 . S
C822 C820 1.395 . S
C822 C825 1.403 . S
C823 C820 1.403 . S
C823 C824 1.524 . S
C823 C827 1.400 . S
C824 H809 0.958 . S
C824 H810 0.960 . S
C824 H811 0.960 . S
C824 C823 1.524 . S
C825 C822 1.403 . S
C825 C826 1.392 . S
C825 C829 1.495 . S
C826 C825 1.392 . S
C826 C827 1.385 . S
C826 C828 1.478 . S
C827 H821 0.930 . S
C827 C823 1.400 . S
C827 C826 1.385 . S
C828 C826 1.478 . S
C828 C830 1.381 . S
C828 C834 1.383 . S
C829 C825 1.495 . S
C829 H835 0.959 . S
C829 H836 0.961 . S
C829 H837 0.960 . S
C830 C828 1.381 . S
C830 C831 1.394 . S
C830 H838 0.930 . S
C831 C830 1.394 . S
C831 C832 1.383 . S
C831 H839 0.929 . S
C832 C831 1.383 . S
C832 C833 1.377 . S
C833 H817 0.915 1_665 S
C833 C832 1.377 . S
C833 C834 1.379 . S
C834 H818 0.931 . S
C834 C828 1.383 . S
C834 C833 1.379 . S
H835 C829 0.959 . S
H836 C829 0.961 . S
H837 C829 0.960 . S
H838 C830 0.930 . S
H839 C831 0.929 . S
H840 C848 0.929 . S
H841 C850 0.930 . S
H842 C852 0.930 . S
H843 C855 0.929 . S
H844 C858 0.930 . S
H845 C860 0.960 . S
H846 C860 0.960 . S
H847 C860 0.960 . S
C848 H840 0.929 . S
C848 C849 1.377 . S
C848 C850 1.384 . S
C849 C848 1.377 . S
C849 C855 1.390 . S
C850 H841 0.930 . S
C850 C848 1.384 . S
C850 C851 1.372 . S
C851 C850 1.372 . S
C851 C852 1.400 . S
C851 C856 1.490 . S
C852 H842 0.930 . S
C852 C851 1.400 . S
C852 C855 1.386 . S
H853 C869 0.930 . S
H854 C870 0.931 . S
C855 H843 0.929 . S
C855 C849 1.390 . S
C855 C852 1.386 . S
C856 C851 1.490 . S
C856 C858 1.395 . S
C856 C859 1.403 . S
H857 C863 0.930 . S
C858 H844 0.930 . S
C858 C856 1.395 . S
C858 C861 1.403 . S
C859 C856 1.403 . S
C859 C860 1.524 . S
C859 C863 1.400 . S
C860 H845 0.960 . S
C860 H846 0.960 . S
C860 H847 0.960 . S
C860 C859 1.524 . S
C861 C858 1.403 . S
C861 C862 1.392 . S
C861 C865 1.495 . S
C862 C861 1.392 . S
C862 C863 1.385 . S
C862 C864 1.478 . S
C863 H857 0.930 . S
C863 C859 1.400 . S
C863 C862 1.385 . S
C864 C862 1.478 . S
C864 C866 1.381 . S
C864 C870 1.383 . S
C865 C861 1.495 . S
C865 H871 0.959 . S
C865 H872 0.961 . S
C865 H873 0.960 . S
C866 C864 1.381 . S
C866 C867 1.394 . S
C866 H874 0.930 . S
C867 C866 1.394 . S
C867 C868 1.383 . S
C867 H875 0.929 . S
C868 C867 1.383 . S
C868 C869 1.377 . S
C869 H853 0.930 . S
C869 C868 1.377 . S
C869 C870 1.379 . S
C870 H854 0.931 . S
C870 C864 1.383 . S
C870 C869 1.379 . S
H871 C865 0.959 . S
H872 C865 0.961 . S
H873 C865 0.960 . S
H874 C866 0.930 . S
H875 C867 0.929 . S
H876 C884 0.929 . S
H877 C886 0.930 . S
H878 C888 0.930 . S
H879 C891 0.929 . S
H880 C894 0.930 . S
H881 C896 0.960 . S
H882 C896 0.960 . S
H883 C896 0.960 . S
C884 H876 0.929 . S
C884 C885 1.377 . S
C884 C886 1.384 . S
C885 C884 1.377 . S
C885 C891 1.390 . S
C886 H877 0.930 . S
C886 C884 1.384 . S
C886 C887 1.372 . S
C887 C886 1.372 . S
C887 C888 1.400 . S
C887 C892 1.490 . S
C888 H878 0.930 . S
C888 C887 1.400 . S
C888 C891 1.386 . S
H889 C905 0.930 . S
H890 C906 0.931 . S
C891 H879 0.929 . S
C891 C885 1.390 . S
C891 C888 1.386 . S
C892 C887 1.490 . S
C892 C894 1.395 . S
C892 C895 1.403 . S
H893 C899 0.930 . S
C894 H880 0.930 . S
C894 C892 1.395 . S
C894 C897 1.403 . S
C895 C892 1.403 . S
C895 C896 1.524 . S
C895 C899 1.400 . S
C896 H881 0.960 . S
C896 H882 0.960 . S
C896 H883 0.960 . S
C896 C895 1.524 . S
C897 C894 1.403 . S
C897 C898 1.392 . S
C897 C901 1.495 . S
C898 C897 1.392 . S
C898 C899 1.385 . S
C898 C900 1.478 . S
C899 H893 0.930 . S
C899 C895 1.400 . S
C899 C898 1.385 . S
C900 C898 1.478 . S
C900 C902 1.381 . S
C900 C906 1.383 . S
C901 C897 1.495 . S
C901 H907 0.959 . S
C901 H908 0.961 . S
C901 H909 0.960 . S
C902 C900 1.381 . S
C902 C903 1.394 . S
C902 H910 0.930 . S
C903 C902 1.394 . S
C903 C904 1.383 . S
C903 H911 0.929 . S
C904 C903 1.383 . S
C904 C905 1.377 . S
C905 H889 0.930 . S
C905 C904 1.377 . S
C905 C906 1.379 . S
C906 H890 0.931 . S
C906 C900 1.383 . S
C906 C905 1.379 . S
H907 C901 0.959 . S
H908 C901 0.961 . S
H909 C901 0.960 . S
H910 C902 0.930 . S
H911 C903 0.929 . S
H912 C920 0.929 . S
H913 C922 0.930 . S
H914 C924 0.930 . S
H915 C927 0.929 . S
H916 C930 0.930 . S
H917 C932 0.960 . S
H918 C932 0.960 . S
H919 C932 0.960 . S
C920 H912 0.929 . S
C920 C921 1.377 . S
C920 C922 1.384 . S
C921 C920 1.377 . S
C921 C927 1.390 . S
C922 H913 0.930 . S
C922 C920 1.384 . S
C922 C923 1.372 . S
C923 C922 1.372 . S
C923 C924 1.400 . S
C923 C928 1.490 . S
C924 H914 0.930 . S
C924 C923 1.400 . S
C924 C927 1.386 . S
H925 C941 0.930 . S
H926 C942 0.931 . S
C927 H915 0.929 . S
C927 C921 1.390 . S
C927 C924 1.386 . S
C928 C923 1.490 . S
C928 C930 1.395 . S
C928 C931 1.403 . S
H929 C935 0.930 . S
C930 H916 0.930 . S
C930 C928 1.395 . S
C930 C933 1.403 . S
C931 C928 1.403 . S
C931 C932 1.524 . S
C931 C935 1.400 . S
C932 H917 0.960 . S
C932 H918 0.960 . S
C932 H919 0.960 . S
C932 C931 1.524 . S
C933 C930 1.403 . S
C933 C934 1.392 . S
C933 C937 1.495 1_455 S
C934 C933 1.392 . S
C934 C935 1.385 . S
C934 C936 1.478 . S
C935 H929 0.930 . S
C935 C931 1.400 . S
C935 C934 1.385 . S
C936 C934 1.478 . S
C936 C938 1.381 . S
C936 C942 1.383 . S
C937 C933 1.495 1_655 S
C937 H943 0.959 . S
C937 H944 0.961 . S
C937 H945 0.960 . S
C938 C936 1.381 . S
C938 C939 1.394 . S
C938 H946 0.930 . S
C939 C938 1.394 . S
C939 C940 1.383 . S
C939 H947 0.929 . S
C940 C939 1.383 . S
C940 C941 1.377 . S
C941 H925 0.930 . S
C941 C940 1.377 . S
C941 C942 1.379 . S
C942 H926 0.931 . S
C942 C936 1.383 . S
C942 C941 1.379 . S
H943 C937 0.959 . S
H944 C937 0.961 . S
H945 C937 0.960 . S
H946 C938 0.930 . S
H947 C939 0.929 . S
H948 C956 0.929 . S
H949 C958 0.930 . S
H950 C960 0.930 . S
H951 C963 0.929 . S
H952 C966 0.930 . S
H953 C968 0.960 1_545 S
H954 C968 0.960 . S
H955 C968 0.960 . S
C956 H948 0.929 . S
C956 C957 1.377 . S
C956 C958 1.384 . S
C957 C956 1.377 . S
C957 C963 1.390 . S
C958 H949 0.930 . S
C958 C956 1.384 . S
C958 C959 1.372 . S
C959 C958 1.372 . S
C959 C960 1.400 . S
C959 C964 1.490 . S
C960 H950 0.930 . S
C960 C959 1.400 . S
C960 C963 1.386 . S
H961 C977 0.930 1_554 S
H962 C978 0.931 . S
C963 H951 0.929 . S
C963 C957 1.390 . S
C963 C960 1.386 . S
C964 C959 1.490 . S
C964 C966 1.395 . S
C964 C967 1.403 . S
H965 C971 0.930 . S
C966 H952 0.930 . S
C966 C964 1.395 . S
C966 C969 1.403 . S
C967 C964 1.403 . S
C967 C968 1.524 . S
C967 C971 1.400 . S
C968 H953 0.960 1_565 S
C968 H954 0.960 . S
C968 H955 0.960 . S
C968 C967 1.524 . S
C969 C966 1.403 . S
C969 C970 1.392 . S
C969 C973 1.495 . S
C970 C969 1.392 . S
C970 C971 1.385 . S
C970 C972 1.478 . S
C971 H965 0.930 . S
C971 C967 1.400 . S
C971 C970 1.385 . S
C972 C970 1.478 . S
C972 C974 1.381 . S
C972 C978 1.383 . S
C973 C969 1.495 . S
C973 H979 0.959 . S
C973 H980 0.961 . S
C973 H981 0.960 . S
C974 C972 1.381 . S
C974 C975 1.394 . S
C974 H982 0.930 . S
C975 C974 1.394 . S
C975 C976 1.383 . S
C975 H983 0.929 . S
C976 C975 1.383 . S
C976 C977 1.377 . S
C977 H961 0.930 1_556 S
C977 C976 1.377 . S
C977 C978 1.379 . S
C978 H962 0.931 . S
C978 C972 1.383 . S
C978 C977 1.379 . S
H979 C973 0.959 . S
H980 C973 0.961 . S
H981 C973 0.960 . S
H982 C974 0.930 . S
H983 C975 0.929 . S
H984 C992 0.929 . S
H985 C994 0.930 . S
H986 C996 0.930 . S
H987 C999 0.929 . S
H988 C1002 0.930 . S
H989 C1004 0.960 . S
H990 C1004 0.960 . S
H991 C1004 0.960 . S
C992 H984 0.929 . S
C992 C993 1.377 . S
C992 C994 1.384 . S
C993 C992 1.377 . S
C993 C999 1.390 . S
C994 H985 0.930 . S
C994 C992 1.384 . S
C994 C995 1.372 . S
C995 C994 1.372 . S
C995 C996 1.400 . S
C995 C1000 1.490 . S
C996 H986 0.930 . S
C996 C995 1.400 . S
C996 C999 1.386 . S
H997 C1013 0.930 . S
H998 C1014 0.931 . S
C999 H987 0.929 . S
C999 C993 1.390 . S
C999 C996 1.386 . S
C1000 C995 1.490 . S
C1000 C1002 1.395 . S
C1000 C1003 1.403 . S
H1001 C1007 0.930 . S
C1002 H988 0.930 . S
C1002 C1000 1.395 . S
C1002 C1005 1.403 . S
C1003 C1000 1.403 . S
C1003 C1004 1.524 . S
C1003 C1007 1.400 . S
C1004 H989 0.960 . S
C1004 H990 0.960 . S
C1004 H991 0.960 . S
C1004 C1003 1.524 . S
C1005 C1002 1.403 . S
C1005 C1006 1.392 . S
C1005 C1009 1.495 . S
C1006 C1005 1.392 . S
C1006 C1007 1.385 . S
C1006 C1008 1.478 . S
C1007 H1001 0.930 . S
C1007 C1003 1.400 . S
C1007 C1006 1.385 . S
C1008 C1006 1.478 . S
C1008 C1010 1.381 . S
C1008 C1014 1.383 . S
C1009 C1005 1.495 . S
C1009 H1015 0.959 . S
C1009 H1016 0.961 . S
C1009 H1017 0.960 . S
C1010 C1008 1.381 . S
C1010 C1011 1.394 . S
C1010 H1018 0.930 . S
C1011 C1010 1.394 . S
C1011 C1012 1.383 . S
C1011 H1019 0.929 . S
C1012 C1011 1.383 . S
C1012 C1013 1.377 . S
C1013 H997 0.930 . S
C1013 C1012 1.377 . S
C1013 C1014 1.379 . S
C1014 H998 0.931 . S
C1014 C1008 1.383 . S
C1014 C1013 1.379 . S
H1015 C1009 0.959 . S
H1016 C1009 0.961 . S
H1017 C1009 0.960 . S
H1018 C1010 0.930 . S
H1019 C1011 0.929 . S
H1020 C1028 0.929 . S
H1021 C1030 0.930 . S
H1022 C1032 0.930 . S
H1023 C1035 0.929 . S
H1024 C1038 0.930 . S
H1025 C1040 0.960 . S
H1026 C1040 0.960 . S
H1027 C1040 0.960 . S
C1028 H1020 0.929 . S
C1028 C1029 1.377 . S
C1028 C1030 1.384 . S
C1029 C1028 1.377 . S
C1029 C1035 1.390 . S
C1030 H1021 0.930 . S
C1030 C1028 1.384 . S
C1030 C1031 1.372 . S
C1031 C1030 1.372 . S
C1031 C1032 1.400 . S
C1031 C1036 1.490 . S
C1032 H1022 0.930 . S
C1032 C1031 1.400 . S
C1032 C1035 1.386 . S
H1033 C1049 0.930 . S
H1034 C1050 0.931 . S
C1035 H1023 0.929 . S
C1035 C1029 1.390 . S
C1035 C1032 1.386 . S
C1036 C1031 1.490 . S
C1036 C1038 1.395 . S
C1036 C1039 1.403 . S
H1037 C1043 0.930 . S
C1038 H1024 0.930 . S
C1038 C1036 1.395 . S
C1038 C1041 1.403 . S
C1039 C1036 1.403 . S
C1039 C1040 1.524 . S
C1039 C1043 1.400 . S
C1040 H1025 0.960 . S
C1040 H1026 0.960 . S
C1040 H1027 0.960 . S
C1040 C1039 1.524 . S
C1041 C1038 1.403 . S
C1041 C1042 1.392 . S
C1041 C1045 1.495 . S
C1042 C1041 1.392 . S
C1042 C1043 1.385 . S
C1042 C1044 1.478 . S
C1043 H1037 0.930 . S
C1043 C1039 1.400 . S
C1043 C1042 1.385 . S
C1044 C1042 1.478 . S
C1044 C1046 1.381 . S
C1044 C1050 1.383 . S
C1045 C1041 1.495 . S
C1045 H1051 0.959 . S
C1045 H1052 0.961 . S
C1045 H1053 0.960 . S
C1046 C1044 1.381 . S
C1046 C1047 1.394 . S
C1046 H1054 0.930 . S
C1047 C1046 1.394 . S
C1047 C1048 1.383 . S
C1047 H1055 0.929 . S
C1048 C1047 1.383 . S
C1048 C1049 1.377 . S
C1049 H1033 0.930 . S
C1049 C1048 1.377 . S
C1049 C1050 1.379 . S
C1050 H1034 0.931 . S
C1050 C1044 1.383 . S
C1050 C1049 1.379 . S
H1051 C1045 0.959 . S
H1052 C1045 0.961 . S
H1053 C1045 0.960 . S
H1054 C1046 0.930 . S
H1055 C1047 0.929 . S
H1056 C1064 0.929 . S
H1057 C1066 0.930 . S
H1058 C1068 0.930 . S
H1059 C1071 0.929 . S
H1060 C1074 0.930 . S
H1061 C1076 0.960 . S
H1062 C1076 0.960 . S
H1063 C1076 0.960 . S
C1064 H1056 0.929 . S
C1064 C1065 1.377 . S
C1064 C1066 1.384 . S
C1065 C1064 1.377 . S
C1065 C1071 1.390 . S
C1066 H1057 0.930 . S
C1066 C1064 1.384 . S
C1066 C1067 1.372 . S
C1067 C1066 1.372 . S
C1067 C1068 1.400 . S
C1067 C1072 1.490 . S
C1068 H1058 0.930 . S
C1068 C1067 1.400 . S
C1068 C1071 1.386 . S
H1069 C1085 0.930 . S
H1070 C1086 0.931 . S
C1071 H1059 0.929 . S
C1071 C1065 1.390 . S
C1071 C1068 1.386 . S
C1072 C1067 1.490 . S
C1072 C1074 1.395 . S
C1072 C1075 1.403 . S
H1073 C1079 0.930 . S
C1074 H1060 0.930 . S
C1074 C1072 1.395 . S
C1074 C1077 1.403 . S
C1075 C1072 1.403 . S
C1075 C1076 1.524 . S
C1075 C1079 1.400 . S
C1076 H1061 0.960 . S
C1076 H1062 0.960 . S
C1076 H1063 0.960 . S
C1076 C1075 1.524 . S
C1077 C1074 1.403 . S
C1077 C1078 1.392 . S
C1077 C1081 1.495 . S
C1078 C1077 1.392 . S
C1078 C1079 1.385 . S
C1078 C1080 1.478 . S
C1079 H1073 0.930 . S
C1079 C1075 1.400 . S
C1079 C1078 1.385 . S
C1080 C1078 1.478 . S
C1080 C1082 1.381 . S
C1080 C1086 1.383 . S
C1081 C1077 1.495 . S
C1081 H1087 0.959 . S
C1081 H1088 0.961 . S
C1081 H1089 0.960 . S
C1082 C1080 1.381 . S
C1082 C1083 1.394 . S
C1082 H1090 0.930 . S
C1083 C1082 1.394 . S
C1083 C1084 1.383 . S
C1083 H1091 0.929 . S
C1084 C1083 1.383 . S
C1084 C1085 1.377 . S
C1085 H1069 0.930 . S
C1085 C1084 1.377 . S
C1085 C1086 1.379 . S
C1086 H1070 0.931 . S
C1086 C1080 1.383 . S
C1086 C1085 1.379 . S
H1087 C1081 0.959 . S
H1088 C1081 0.961 . S
H1089 C1081 0.960 . S
H1090 C1082 0.930 . S
H1091 C1083 0.929 . S
H1092 C1100 0.929 . S
H1093 C1102 0.930 . S
H1094 C1104 0.930 . S
H1095 C1107 0.929 . S
H1096 C1110 0.930 . S
H1097 C1112 0.960 . S
H1098 C1112 0.960 . S
H1099 C1112 0.960 . S
C1100 H1092 0.929 . S
C1100 C1101 1.377 . S
C1100 C1102 1.384 . S
C1101 C1100 1.377 . S
C1101 C1107 1.390 . S
C1102 H1093 0.930 . S
C1102 C1100 1.384 . S
C1102 C1103 1.372 . S
C1103 C1102 1.372 . S
C1103 C1104 1.400 . S
C1103 C1108 1.490 . S
C1104 H1094 0.930 . S
C1104 C1103 1.400 . S
C1104 C1107 1.386 . S
H1105 C1121 0.930 . S
H1106 C1122 0.931 . S
C1107 H1095 0.929 . S
C1107 C1101 1.390 . S
C1107 C1104 1.386 . S
C1108 C1103 1.490 . S
C1108 C1110 1.395 . S
C1108 C1111 1.403 . S
H1109 C1115 0.930 . S
C1110 H1096 0.930 . S
C1110 C1108 1.395 . S
C1110 C1113 1.403 . S
C1111 C1108 1.403 . S
C1111 C1112 1.524 . S
C1111 C1115 1.400 . S
C1112 H1097 0.960 . S
C1112 H1098 0.960 . S
C1112 H1099 0.960 . S
C1112 C1111 1.524 . S
C1113 C1110 1.403 . S
C1113 C1114 1.392 . S
C1113 C1117 1.495 1_556 S
C1114 C1113 1.392 . S
C1114 C1115 1.385 . S
C1114 C1116 1.478 . S
C1115 H1109 0.930 . S
C1115 C1111 1.400 . S
C1115 C1114 1.385 . S
C1116 C1114 1.478 . S
C1116 C1118 1.381 . S
C1116 C1122 1.383 . S
C1117 C1113 1.495 1_554 S
C1117 H1123 0.959 . S
C1117 H1124 0.961 . S
C1117 H1125 0.960 . S
C1118 C1116 1.381 . S
C1118 C1119 1.394 . S
C1118 H1126 0.947 . S
C1119 C1118 1.394 . S
C1119 C1120 1.383 . S
C1119 H1127 0.929 1_556 S
C1120 C1119 1.383 . S
C1120 C1121 1.377 . S
C1121 H1105 0.930 . S
C1121 C1120 1.377 . S
C1121 C1122 1.379 . S
C1122 H1106 0.931 . S
C1122 C1116 1.383 . S
C1122 C1121 1.379 . S
H1123 C1117 0.959 . S
H1124 C1117 0.961 . S
H1125 C1117 0.960 . S
H1126 C1118 0.947 . S
H1127 C1119 0.929 1_554 S
H1128 C1136 0.929 . S
H1129 C1138 0.930 . S
H1130 C1140 0.930 . S
H1131 C1143 0.929 . S
H1132 C1146 0.930 . S
H1133 C1148 0.960 . S
H1134 C1148 0.960 . S
H1135 C1148 0.960 . S
C1136 H1128 0.929 . S
C1136 C1137 1.377 . S
C1136 C1138 1.384 . S
C1137 C1136 1.377 . S
C1137 C1143 1.390 . S
C1138 H1129 0.930 . S
C1138 C1136 1.384 . S
C1138 C1139 1.372 . S
C1139 C1138 1.372 . S
C1139 C1140 1.400 . S
C1139 C1144 1.490 . S
C1140 H1130 0.930 . S
C1140 C1139 1.400 . S
C1140 C1143 1.386 . S
H1141 C1157 0.930 . S
H1142 C1158 0.931 . S
C1143 H1131 0.929 . S
C1143 C1137 1.390 . S
C1143 C1140 1.386 . S
C1144 C1139 1.490 . S
C1144 C1146 1.395 . S
C1144 C1147 1.403 . S
H1145 C1151 0.930 . S
C1146 H1132 0.930 . S
C1146 C1144 1.395 . S
C1146 C1149 1.403 . S
C1147 C1144 1.403 . S
C1147 C1148 1.524 . S
C1147 C1151 1.400 . S
C1148 H1133 0.960 . S
C1148 H1134 0.960 . S
C1148 H1135 0.960 . S
C1148 C1147 1.524 . S
C1149 C1146 1.403 . S
C1149 C1150 1.392 . S
C1149 C1153 1.495 . S
C1150 C1149 1.392 . S
C1150 C1151 1.385 . S
C1150 C1152 1.478 . S
C1151 H1145 0.930 . S
C1151 C1147 1.400 . S
C1151 C1150 1.385 . S
C1152 C1150 1.478 . S
C1152 C1154 1.381 . S
C1152 C1158 1.383 . S
C1153 C1149 1.495 . S
C1153 H1159 0.959 . S
C1153 H1160 0.961 . S
C1153 H1161 0.960 . S
C1154 C1152 1.381 . S
C1154 C1155 1.394 . S
C1154 H1162 0.930 . S
C1155 C1154 1.394 . S
C1155 C1156 1.383 . S
C1155 H1163 0.929 . S
C1156 C1155 1.383 . S
C1156 C1157 1.377 . S
C1157 H1141 0.930 . S
C1157 C1156 1.377 . S
C1157 C1158 1.379 . S
C1158 H1142 0.931 . S
C1158 C1152 1.383 . S
C1158 C1157 1.379 . S
H1159 C1153 0.959 . S
H1160 C1153 0.961 . S
H1161 C1153 0.960 . S
H1162 C1154 0.930 . S
H1163 C1155 0.929 . S
H1164 C1172 0.929 . S
H1165 C1174 0.930 . S
H1166 C1176 0.930 . S
H1167 C1179 0.929 . S
H1168 C1182 0.930 . S
H1169 C1184 0.960 1_655 S
H1170 C1184 0.960 . S
H1171 C1184 0.960 . S
C1172 H1164 0.929 . S
C1172 C1173 1.377 . S
C1172 C1174 1.384 . S
C1173 C1172 1.377 . S
C1173 C1179 1.390 . S
C1174 H1165 0.930 . S
C1174 C1172 1.384 . S
C1174 C1175 1.372 . S
C1175 C1174 1.372 . S
C1175 C1176 1.400 . S
C1175 C1180 1.490 . S
C1176 H1166 0.930 . S
C1176 C1175 1.400 . S
C1176 C1179 1.386 . S
H1177 C1193 0.930 . S
H1178 C1194 0.931 . S
C1179 H1167 0.929 . S
C1179 C1173 1.390 . S
C1179 C1176 1.386 . S
C1180 C1175 1.490 . S
C1180 C1182 1.395 . S
C1180 C1183 1.403 . S
H1181 C1187 0.930 . S
C1182 H1168 0.930 . S
C1182 C1180 1.395 . S
C1182 C1185 1.403 . S
C1183 C1180 1.403 . S
C1183 C1184 1.524 . S
C1183 C1187 1.400 . S
C1184 H1169 0.960 1_455 S
C1184 H1170 0.960 . S
C1184 H1171 0.960 . S
C1184 C1183 1.524 . S
C1185 C1182 1.403 . S
C1185 C1186 1.392 . S
C1185 C1189 1.495 . S
C1186 C1185 1.392 . S
C1186 C1187 1.385 . S
C1186 C1188 1.478 . S
C1187 H1181 0.930 . S
C1187 C1183 1.400 . S
C1187 C1186 1.385 . S
C1188 C1186 1.478 . S
C1188 C1190 1.381 . S
C1188 C1194 1.383 . S
C1189 C1185 1.495 . S
C1189 H1195 0.959 . S
C1189 H1196 0.961 . S
C1189 H1197 0.960 . S
C1190 C1188 1.381 . S
C1190 C1191 1.394 . S
C1190 H1198 0.930 . S
C1191 C1190 1.394 . S
C1191 C1192 1.383 . S
C1191 H1199 0.929 . S
C1192 C1191 1.383 . S
C1192 C1193 1.377 . S
C1193 H1177 0.930 . S
C1193 C1192 1.377 . S
C1193 C1194 1.379 . S
C1194 H1178 0.931 . S
C1194 C1188 1.383 . S
C1194 C1193 1.379 . S
H1195 C1189 0.959 . S
H1196 C1189 0.961 . S
H1197 C1189 0.960 . S
H1198 C1190 0.930 . S
H1199 C1191 0.929 . S
H1200 C1208 0.929 . S
H1201 C1210 0.930 . S
H1202 C1212 0.930 . S
H1203 C1215 0.929 . S
H1204 C1218 0.930 . S
H1205 C1220 0.960 . S
H1206 C1220 0.960 . S
H1207 C1220 0.960 . S
C1208 H1200 0.929 . S
C1208 C1209 1.377 . S
C1208 C1210 1.384 . S
C1209 C1208 1.377 . S
C1209 C1215 1.390 . S
C1210 H1201 0.930 . S
C1210 C1208 1.384 . S
C1210 C1211 1.372 . S
C1211 C1210 1.372 . S
C1211 C1212 1.400 . S
C1211 C1216 1.490 . S
C1212 H1202 0.930 . S
C1212 C1211 1.400 . S
C1212 C1215 1.386 . S
H1213 C1229 0.930 . S
H1214 C1230 0.931 . S
C1215 H1203 0.929 . S
C1215 C1209 1.390 . S
C1215 C1212 1.386 . S
C1216 C1211 1.490 . S
C1216 C1218 1.395 . S
C1216 C1219 1.403 . S
H1217 C1223 0.930 . S
C1218 H1204 0.930 . S
C1218 C1216 1.395 . S
C1218 C1221 1.403 . S
C1219 C1216 1.403 . S
C1219 C1220 1.524 . S
C1219 C1223 1.400 . S
C1220 H1205 0.960 . S
C1220 H1206 0.960 . S
C1220 H1207 0.960 . S
C1220 C1219 1.524 . S
C1221 C1218 1.403 . S
C1221 C1222 1.392 . S
C1221 C1225 1.495 . S
C1222 C1221 1.392 . S
C1222 C1223 1.385 . S
C1222 C1224 1.478 . S
C1223 H1217 0.930 . S
C1223 C1219 1.400 . S
C1223 C1222 1.385 . S
C1224 C1222 1.478 . S
C1224 C1226 1.381 . S
C1224 C1230 1.383 . S
C1225 C1221 1.495 . S
C1225 H1231 0.959 . S
C1225 H1232 0.961 . S
C1225 H1233 0.960 . S
C1226 C1224 1.381 . S
C1226 C1227 1.394 . S
C1226 H1234 0.930 . S
C1227 C1226 1.394 . S
C1227 C1228 1.383 . S
C1227 H1235 0.929 . S
C1228 C1227 1.383 . S
C1228 C1229 1.377 . S
C1229 H1213 0.930 . S
C1229 C1228 1.377 . S
C1229 C1230 1.379 . S
C1230 H1214 0.931 . S
C1230 C1224 1.383 . S
C1230 C1229 1.379 . S
H1231 C1225 0.959 . S
H1232 C1225 0.961 . S
H1233 C1225 0.960 . S
H1234 C1226 0.930 . S
H1235 C1227 0.929 . S
C381 C1 1.634 . S
C400 C306 1.577 . S
C417 C67 1.502 . S
C436 C323 1.491 . S
C472 C346 1.107 . S
C453 C97 1.364 . S
C489 C133 1.871 . S
C508 C367 1.504 . S
C544 C326 1.827 . S
C525 C25 1.842 . S
C580 C303 1.717 . S
C561 C37 1.735 . S
C616 C365 1.231 . S
C597 C103 1.306 . S
C652 C344 1.434 . S
C633 C109 1.460 . S
C669 C31 1.809 . S
C688 C368 1.751 . S
C724 C325 1.320 . S
C705 C73 1.602 . S
C741 C139 1.730 . S
C760 C301 1.506 . S
C777 C61 1.488 . S
C796 C347 1.507 . S
C832 C305 1.623 . S
C813 C175 1.693 . S
C849 C181 1.254 . S
C868 C324 1.261 . S
C885 C247 1.512 . S
C904 C343 1.221 . S
C921 C277 1.770 . S
C940 C364 1.388 . S
C957 C145 1.828 . S
C976 C327 1.764 . S
C1012 C302 1.773 . S
C993 C211 1.829 . S
C1048 C366 1.083 . S
C1029 C217 1.168 . S
C1084 C345 1.580 . S
C1065 C283 1.620 . S
C1101 C169 1.595 . S
C1120 C369 1.569 . S
C1156 C322 1.218 . S
C1137 C241 1.481 . S
C1192 C304 1.281 . S
C1173 C253 1.449 . S
C1209 C205 1.453 . S
C1228 C348 1.456 . S
