# Generated by pormake.
# Topology zzz, (3,6)-cn, num edge types: 1
# Building blocks:
#     Node 0, Type 0, BuildingBlock: QEWDON_clean_linker_0, # of connection points: 3
#     Node 1, Type 0, BuildingBlock: QEWDON_clean_linker_0, # of connection points: 3
#     Node 2, Type 0, BuildingBlock: QEWDON_clean_linker_0, # of connection points: 3
#     Node 3, Type 0, BuildingBlock: QEWDON_clean_linker_0, # of connection points: 3
#     Node 4, Type 0, BuildingBlock: QEWDON_clean_linker_0, # of connection points: 3
#     Node 5, Type 0, BuildingBlock: QEWDON_clean_linker_0, # of connection points: 3
#     Node 6, Type 0, BuildingBlock: QEWDON_clean_linker_0, # of connection points: 3
#     Node 7, Type 0, BuildingBlock: QEWDON_clean_linker_0, # of connection points: 3
#     Node 8, Type 1, BuildingBlock: FUNLAD_clean_sbu_0, # of connection points: 6
#     Node 9, Type 1, BuildingBlock: FUNLAD_clean_sbu_0, # of connection points: 6
#     Node 10, Type 1, BuildingBlock: FUNLAD_clean_sbu_0, # of connection points: 6
#     Node 11, Type 1, BuildingBlock: FUNLAD_clean_sbu_0, # of connection points: 6
#     Edge 12, Type (0, 1), BuildingBlock: KIFKEQ_clean_linker_1, # of connection points: 2
#     Edge 13, Type (0, 1), BuildingBlock: KIFKEQ_clean_linker_1, # of connection points: 2
#     Edge 14, Type (0, 1), BuildingBlock: KIFKEQ_clean_linker_1, # of connection points: 2
#     Edge 15, Type (0, 1), BuildingBlock: KIFKEQ_clean_linker_1, # of connection points: 2
#     Edge 16, Type (0, 1), BuildingBlock: KIFKEQ_clean_linker_1, # of connection points: 2
#     Edge 17, Type (0, 1), BuildingBlock: KIFKEQ_clean_linker_1, # of connection points: 2
#     Edge 18, Type (0, 1), BuildingBlock: KIFKEQ_clean_linker_1, # of connection points: 2
#     Edge 19, Type (0, 1), BuildingBlock: KIFKEQ_clean_linker_1, # of connection points: 2
#     Edge 20, Type (0, 1), BuildingBlock: KIFKEQ_clean_linker_1, # of connection points: 2
#     Edge 21, Type (0, 1), BuildingBlock: KIFKEQ_clean_linker_1, # of connection points: 2
#     Edge 22, Type (0, 1), BuildingBlock: KIFKEQ_clean_linker_1, # of connection points: 2
#     Edge 23, Type (0, 1), BuildingBlock: KIFKEQ_clean_linker_1, # of connection points: 2
#     Edge 24, Type (0, 1), BuildingBlock: KIFKEQ_clean_linker_1, # of connection points: 2
#     Edge 25, Type (0, 1), BuildingBlock: KIFKEQ_clean_linker_1, # of connection points: 2
#     Edge 26, Type (0, 1), BuildingBlock: KIFKEQ_clean_linker_1, # of connection points: 2
#     Edge 27, Type (0, 1), BuildingBlock: KIFKEQ_clean_linker_1, # of connection points: 2
#     Edge 28, Type (0, 1), BuildingBlock: KIFKEQ_clean_linker_1, # of connection points: 2
#     Edge 29, Type (0, 1), BuildingBlock: KIFKEQ_clean_linker_1, # of connection points: 2
#     Edge 30, Type (0, 1), BuildingBlock: KIFKEQ_clean_linker_1, # of connection points: 2
#     Edge 31, Type (0, 1), BuildingBlock: KIFKEQ_clean_linker_1, # of connection points: 2
#     Edge 32, Type (0, 1), BuildingBlock: KIFKEQ_clean_linker_1, # of connection points: 2
#     Edge 33, Type (0, 1), BuildingBlock: KIFKEQ_clean_linker_1, # of connection points: 2
#     Edge 34, Type (0, 1), BuildingBlock: KIFKEQ_clean_linker_1, # of connection points: 2
#     Edge 35, Type (0, 1), BuildingBlock: KIFKEQ_clean_linker_1, # of connection points: 2
# Relax obj value: 0.080
# Max RMSD: 0.171
# Mean RMSD: 0.065
data_MOF--net-zzz--node1-FUNLAD_clean_sbu_0--node2-QEWDON_clean_linker_0--edge1-KIFKEQ_clean_linker_1
_symmetry_space_group_name_H-M    P1
_symmetry_Int_Tables_number       1
_symmetry_cell_setting            triclinic
loop_
_symmetry_equiv_pos_as_xyz
'x, y, z'
_cell_length_a     55.222231
_cell_length_b     61.19277
_cell_length_c     17.605404
_cell_angle_alpha  85.000293
_cell_angle_beta   84.54301
_cell_angle_gamma 88.490556
loop_
_atom_site_label
_atom_site_type_symbol
_atom_site_fract_x
_atom_site_fract_y
_atom_site_fract_z
_atom_type_partial_charge
H0 H 0.81448 0.51753 0.14935 0.0
C1 C 0.82145 0.51606 0.20505 0.0
C2 C 0.84342 0.50444 0.21389 0.0
C3 C 0.80948 0.52696 0.2658 0.0
H4 H 0.87091 0.49563 0.29057 0.0
C5 C 0.85325 0.50344 0.28453 0.0
C6 C 0.84218 0.51467 0.34477 0.0
C7 C 0.8202 0.52616 0.33586 0.0
C8 C 0.78709 0.54063 0.25358 0.0
H9 H 0.81183 0.53471 0.38323 0.0
C10 C 0.77036 0.53483 0.20304 0.0
C11 C 0.75016 0.54852 0.18766 0.0
C12 C 0.78287 0.56021 0.28967 0.0
H13 H 0.79553 0.5657 0.32694 0.0
C14 C 0.76251 0.57344 0.27651 0.0
H15 H 0.77322 0.51988 0.17453 0.0
C16 C 0.74629 0.56772 0.22594 0.0
H17 H 0.73066 0.57835 0.21692 0.0
H18 H 0.75946 0.5884 0.30492 0.0
H19 H 0.99961 0.79744 0.00085 0.0
C20 C 0.9989 0.80453 0.05535 0.0
C21 C 1.01194 0.82364 0.06107 0.0
C22 C 0.98403 0.79524 0.11908 0.0
H23 H 0.01936 0.84855 0.13429 0.0
C24 C 1.01026 0.83321 0.13072 0.0
C25 C 0.99502 0.82475 0.1936 0.0
C26 C 0.98195 0.80574 0.18794 0.0
C27 C 0.96965 0.77533 0.11297 0.0
H28 H 0.97018 0.79924 0.23702 0.0
C29 C 0.98001 0.75721 0.0762 0.0
C30 C 0.96654 0.73802 0.07503 0.0
C31 C 0.94541 0.77419 0.14574 0.0
H32 H 0.93673 0.78797 0.17281 0.0
C33 C 0.93198 0.75532 0.14363 0.0
H34 H 0.99871 0.75769 0.05116 0.0
C35 C 0.9425 0.73727 0.10914 0.0
H36 H 0.93179 0.72271 0.1086 0.0
H37 H 0.91337 0.75463 0.16919 0.0
H38 H 0.74486 0.99902 0.03092 0.0
C39 C 0.73548 1.00159 0.08645 0.0
C40 C 0.71189 0.01093 0.09052 0.0
C41 C 0.74615 0.99412 0.15396 0.0
H42 H 0.68052 0.01945 0.16473 0.0
C43 C 0.69914 0.0132 0.16198 0.0
C44 C 0.70876 1.005 0.22947 0.0
C45 C 0.73233 0.99563 0.22557 0.0
C46 C 0.77022 0.98219 0.14939 0.0
H47 H 0.73961 0.98914 0.27813 0.0
C48 C 0.79016 0.98942 0.09706 0.0
C49 C 0.8122 0.97702 0.09181 0.0
C50 C 0.77293 0.96261 0.19628 0.0
H51 H 0.758 0.95628 0.23571 0.0
C52 C 0.79468 0.95054 0.19164 0.0
H53 H 0.78849 1.00442 0.06026 0.0
C54 C 0.8141 0.9576 0.13984 0.0
H55 H 0.83079 0.94787 0.13762 0.0
H56 H 0.79642 0.93549 0.22803 0.0
H57 H 0.53241 0.70381 0.02939 0.0
C58 C 0.53162 0.69525 0.08607 0.0
C59 C 0.5196 0.67507 0.10005 0.0
C60 C 0.54404 0.70356 0.14351 0.0
H61 H 0.51146 0.64754 0.1827 0.0
C62 C 0.51957 0.66361 0.17258 0.0
C63 C 0.53224 0.67126 0.2297 0.0
C64 C 0.54432 0.69128 0.21528 0.0
C65 C 0.55889 0.72374 0.12638 0.0
H66 H 0.55423 0.69704 0.25966 0.0
C67 C 0.55031 0.74262 0.08397 0.0
C68 C 0.56501 0.76133 0.06736 0.0
C69 C 0.58231 0.7239 0.15152 0.0
H70 H 0.58972 0.70959 0.18255 0.0
C71 C 0.59673 0.74236 0.13589 0.0
H72 H 0.53237 0.74272 0.06383 0.0
C73 C 0.5882 0.76092 0.09442 0.0
H74 H 0.59976 0.77511 0.08416 0.0
H75 H 0.61468 0.74226 0.15591 0.0
H76 H 0.23628 0.52785 0.27821 0.0
C77 C 0.22829 0.52014 0.23365 0.0
C78 C 0.20392 0.51414 0.2457 0.0
C79 C 0.24197 0.51681 0.1637 0.0
H80 H 0.17374 0.50106 0.19768 0.0
C81 C 0.19292 0.50492 0.18828 0.0
C82 C 0.20575 0.5021 0.11733 0.0
C83 C 0.23036 0.50801 0.10509 0.0
C84 C 0.26789 0.52359 0.15144 0.0
H85 H 0.2403 0.50572 0.0502 0.0
C86 C 0.28294 0.52133 0.21233 0.0
C87 C 0.30674 0.52943 0.20286 0.0
C88 C 0.27744 0.53339 0.07999 0.0
H89 H 0.26636 0.53577 0.0323 0.0
C90 C 0.30125 0.54095 0.06984 0.0
H91 H 0.27601 0.5137 0.2677 0.0
C92 C 0.31577 0.53915 0.13084 0.0
H93 H 0.33412 0.54531 0.12162 0.0
H94 H 0.30837 0.54855 0.01469 0.0
H95 H 0.02291 0.22399 0.45114 0.0
C96 C 0.03385 0.21436 0.41136 0.0
C97 C 0.04206 0.19346 0.4369 0.0
C98 C 0.0382 0.22213 0.3336 0.0
H99 H 0.06225 0.16476 0.40659 0.0
C100 C 0.0556 0.18077 0.38548 0.0
C101 C 0.05576 0.18608 0.30641 0.0
C102 C 0.04826 0.20743 0.28052 0.0
C103 C 0.02963 0.24467 0.30835 0.0
H104 H 0.04918 0.21219 0.21967 0.0
C105 C 0.03201 0.26218 0.35422 0.0
C106 C 0.02223 0.28314 0.33435 0.0
C107 C 0.0179 0.24867 0.2409 0.0
H108 H 0.01534 0.23559 0.20499 0.0
C109 C 1.00851 0.26954 0.22034 0.0
H110 H 0.04105 0.2594 0.40632 0.0
C111 C 1.01048 0.28663 0.26689 0.0
H112 H 1.00294 0.30264 0.2499 0.0
H113 H 0.99938 0.27241 0.16854 0.0
H114 H 0.30316 0.99828 0.42171 0.0
C115 C 0.31386 1.00433 0.36972 0.0
C116 C 0.33872 0.00821 0.37213 0.0
C117 C 0.30332 1.0071 0.29934 0.0
H118 H 0.3724 0.01727 0.30761 0.0
C119 C 0.35306 0.01507 0.30509 0.0
C120 C 0.34338 0.01758 0.23443 0.0
C121 C 0.31845 0.01379 0.23176 0.0
C122 C 0.27736 1.00099 0.2947 0.0
H123 H 0.31102 0.01588 0.17678 0.0
C124 C 0.25857 1.00449 0.35379 0.0
C125 C 0.23453 0.99757 0.3483 0.0
C126 C 0.27145 0.99062 0.23069 0.0
H127 H 0.28525 0.9869 0.18554 0.0
C128 C 0.24776 0.98433 0.22439 0.0
H129 H 0.26261 0.01228 0.40395 0.0
C130 C 0.22949 0.98777 0.28229 0.0
H131 H 0.21124 0.9827 0.27533 0.0
H132 H 0.24357 0.9765 0.17451 0.0
H133 H 0.54357 0.31319 0.39908 0.0
C134 C 0.53491 0.32275 0.3541 0.0
C135 C 0.52804 0.34468 0.3632 0.0
C136 C 0.53181 0.31365 0.28496 0.0
H137 H 0.5134 0.37453 0.31085 0.0
C138 C 0.51769 0.35736 0.30412 0.0
C139 C 0.51489 0.34882 0.23435 0.0
C140 C 0.52187 0.32687 0.22525 0.0
C141 C 0.54135 0.29124 0.27127 0.0
H142 H 0.52005 0.32021 0.17104 0.0
C143 C 0.53558 0.27286 0.32374 0.0
C144 C 0.54426 0.25168 0.30731 0.0
C145 C 0.55648 0.28827 0.20398 0.0
H146 H 0.56152 0.30211 0.16342 0.0
C147 C 0.56554 0.26751 0.18861 0.0
H148 H 0.52376 0.27492 0.37548 0.0
C149 C 0.55946 0.24937 0.23954 0.0
H150 H 0.56682 0.23343 0.226 0.0
H151 H 0.57729 0.26547 0.1368 0.0
C152 C 0.03673 0.9662 0.79186 0.0
N153 N 1.00973 0.98631 0.58465 0.0
C154 C 0.02767 0.97269 0.55662 0.0
C155 C 0.02278 0.95713 0.50755 0.0
C156 C 0.99906 0.95502 0.48749 0.0
C157 C 0.98089 0.96966 0.51485 0.0
C158 C 0.98669 0.9854 0.56336 0.0
Zn159 Zn 0.01817 1.00253 0.67633 0.0
C160 C 0.97719 1.00266 0.79843 0.0
N161 N 0.03982 0.02908 0.8746 0.0
C162 C 0.06238 0.02968 0.89971 0.0
C163 C 0.02177 0.04311 0.899 0.0
C164 C 0.02599 0.05866 0.9487 0.0
C165 C 0.04907 0.0601 0.9746 0.0
C166 C 0.06744 0.04521 0.95016 0.0
Zn167 Zn 0.03169 0.01256 0.78347 0.0
O168 O 0.0278 0.97127 0.7286 0.0
C169 C 0.07255 0.012 0.66031 0.0
O170 O 0.041 0.9813 0.83391 0.0
H171 H 1.0043 0.04334 0.87625 0.0
H172 H 0.04557 0.97267 0.57639 0.0
H173 H 0.0767 0.0188 0.87833 0.0
O174 O 0.05473 1.00664 0.62561 0.0
O175 O 0.06863 0.01608 0.73019 0.0
H176 H 0.97251 0.99602 0.58715 0.0
O177 O 0.02231 0.04328 0.73197 0.0
O178 O 1.00867 0.03437 0.62611 0.0
O179 O 0.99452 0.00835 0.83484 0.0
O180 O 0.98181 0.99881 0.7287 0.0
C181 C 0.01317 0.04901 0.66981 0.0
H182 H 0.03724 0.94587 0.48948 0.0
H183 H 0.96233 0.96853 0.50065 0.0
H184 H 1.01144 0.07014 0.96398 0.0
H185 H 0.08551 0.04575 0.96891 0.0
C186 C 0.48636 1.00321 0.64505 0.0
N187 N 0.52402 0.06049 0.67376 0.0
C188 C 0.52202 0.06485 0.59746 0.0
C189 C 0.52287 0.08634 0.56383 0.0
C190 C 0.52603 0.1038 0.60853 0.0
C191 C 0.52746 0.09896 0.68765 0.0
C192 C 0.52646 0.07706 0.71923 0.0
Zn193 Zn 0.52465 0.02767 0.71369 0.0
C194 C 0.4901 0.01628 0.84899 0.0
N195 N 0.52649 0.95828 0.78082 0.0
C196 C 0.5247 0.94274 0.73092 0.0
C197 C 0.52908 0.95246 0.85605 0.0
C198 C 0.53025 0.93034 0.8835 0.0
C199 C 0.5286 0.91386 0.83337 0.0
C200 C 0.52566 0.92039 0.75606 0.0
Zn201 Zn 0.52557 0.99124 0.74354 0.0
O202 O 0.49547 0.02194 0.64819 0.0
C203 C 0.56009 1.00274 0.60817 0.0
O204 O 0.49603 0.98639 0.6785 0.0
H205 H 0.53047 0.96502 0.89492 0.0
H206 H 0.52013 0.05155 0.56197 0.0
H207 H 0.52259 0.94767 0.67138 0.0
O208 O 0.55113 0.02157 0.62107 0.0
O209 O 0.55197 0.98594 0.64956 0.0
H210 H 0.52807 0.07329 0.77974 0.0
O211 O 0.55516 0.99676 0.80681 0.0
O212 O 0.5539 0.03258 0.78075 0.0
O213 O 0.49922 0.99739 0.83707 0.0
O214 O 0.49816 0.033 0.80685 0.0
C215 C 0.56395 0.01553 0.81156 0.0
H216 H 0.52115 0.08919 0.50298 0.0
H217 H 0.53002 0.11185 0.72437 0.0
H218 H 0.53294 0.92627 0.94321 0.0
H219 H 0.52397 0.90839 0.71528 0.0
C220 C 0.53693 0.47486 0.64823 0.0
N221 N 0.47096 0.51 0.67342 0.0
C222 C 0.47335 0.50778 0.59677 0.0
C223 C 0.4533 0.50985 0.55456 0.0
C224 C 0.43026 0.5145 0.59068 0.0
C225 C 0.4279 0.51591 0.67042 0.0
C226 C 0.44869 0.5137 0.71101 0.0
Zn227 Zn 0.50366 0.51006 0.72124 0.0
C228 C 0.50955 0.47883 0.85123 0.0
N229 N 0.57575 0.51061 0.78883 0.0
C230 C 0.59773 0.51048 0.74652 0.0
C231 C 0.5742 0.51273 0.86549 0.0
C232 C 0.59497 0.51571 0.90199 0.0
C233 C 0.61778 0.51635 0.85972 0.0
C234 C 0.61919 0.51319 0.78128 0.0
Zn235 Zn 0.54291 0.50975 0.74311 0.0
O236 O 0.51579 0.48345 0.65794 0.0
C237 C 0.53716 0.54073 0.61269 0.0
O238 O 0.55446 0.48304 0.67752 0.0
H239 H 0.55666 0.5127 0.89846 0.0
H240 H 0.49109 0.50513 0.56714 0.0
H241 H 0.59857 0.50883 0.68565 0.0
O242 O 0.51593 0.53322 0.62982 0.0
O243 O 0.55439 0.53338 0.65136 0.0
H244 H 0.44715 0.51559 0.77181 0.0
O245 O 0.53077 0.53626 0.8072 0.0
O246 O 0.49225 0.53692 0.7861 0.0
O247 O 0.53079 0.48632 0.83347 0.0
O248 O 0.49209 0.48657 0.81401 0.0
C249 C 0.50971 0.54508 0.81576 0.0
H250 H 0.45593 0.50823 0.49352 0.0
H251 H 0.4104 0.51952 0.7004 0.0
H252 H 0.59317 0.5178 0.96276 0.0
H253 H 0.63653 0.51363 0.74686 0.0
C254 C 0.05826 0.51896 0.6148 0.0
N255 N 0.02705 0.4579 0.68522 0.0
C256 C 0.02872 0.45664 0.60802 0.0
C257 C 0.03014 0.43636 0.57732 0.0
C258 C 0.02935 0.41701 0.62623 0.0
C259 C 0.02725 0.41862 0.70575 0.0
C260 C 0.02633 0.43937 0.73423 0.0
Zn261 Zn 0.02491 0.48899 0.72258 0.0
C262 C 0.06262 0.49813 0.82168 0.0
N263 N 0.02079 0.55574 0.78046 0.0
C264 C 0.01875 0.57389 0.73071 0.0
C265 C 0.0201 0.55746 0.85721 0.0
C266 C 0.01639 0.5778 0.8869 0.0
C267 C 0.01361 0.59674 0.8373 0.0
C268 C 0.0153 0.59471 0.75807 0.0
Zn269 Zn 0.02333 0.52458 0.74419 0.0
O270 O 0.05085 0.49955 0.63254 0.0
C271 C 0.98592 0.5154 0.64414 0.0
O272 O 0.04915 0.53452 0.6522 0.0
H273 H 0.02195 0.54292 0.89591 0.0
H274 H 0.02876 0.47145 0.56976 0.0
H275 H 0.01929 0.57218 0.66994 0.0
O276 O 0.99618 0.49664 0.65325 0.0
O277 O 0.99384 0.53142 0.67544 0.0
H278 H 0.0249 0.44068 0.79537 0.0
O279 O 0.99774 0.51404 0.83532 0.0
O280 O 0.99859 0.47921 0.81388 0.0
O281 O 0.05264 0.51702 0.81172 0.0
O282 O 0.05404 0.48197 0.79265 0.0
C283 C 0.98983 0.49474 0.8521 0.0
H284 H 0.03132 0.43583 0.51572 0.0
H285 H 0.02656 0.40402 0.74531 0.0
H286 H 0.01551 0.5787 0.94829 0.0
H287 H 0.01314 0.60893 0.71799 0.0
H288 H 0.22032 0.03391 0.42636 0.0
H289 H 0.20233 0.96644 0.40892 0.0
H290 H 0.18223 0.03867 0.50891 0.0
H291 H 0.16457 0.97128 0.48935 0.0
H292 H 0.08649 0.99735 0.52088 0.0
H293 H 0.12716 0.99462 0.45625 0.0
H294 H 0.15675 0.02369 0.64114 0.0
H295 H 0.11555 0.02626 0.70751 0.0
C296 C 0.20857 0.02 0.44143 0.0
C297 C 0.2142 0.9999 0.40991 0.0
C298 C 0.18673 0.02275 0.48845 0.0
C299 C 0.17014 1.00546 0.50438 0.0
C300 C 0.17667 0.98505 0.47692 0.0
C301 C 0.19837 0.98228 0.43081 0.0
C302 C 0.10152 1.00332 0.54809 0.0
C303 C 0.09761 0.01195 0.61986 0.0
C304 C 0.12493 1.00163 0.51098 0.0
C305 C 0.14526 0.00873 0.5438 0.0
C306 C 0.14145 0.01808 0.61438 0.0
C307 C 0.11787 0.01949 0.65241 0.0
H308 H 0.5447 0.24486 0.46423 0.0
H309 H 0.52865 0.21308 0.26585 0.0
H310 H 0.53934 0.20984 0.54322 0.0
H311 H 0.52334 0.17846 0.34387 0.0
H312 H 0.55085 0.11691 0.47133 0.0
H313 H 0.55286 0.15335 0.40486 0.0
H314 H 0.5096 0.1795 0.59455 0.0
H315 H 0.50726 0.14259 0.66154 0.0
C316 C 0.5396 0.23053 0.43785 0.0
C317 C 0.53753 0.23164 0.35855 0.0
C318 C 0.53657 0.21048 0.48298 0.0
C319 C 0.53143 0.19125 0.44947 0.0
C320 C 0.52794 0.1928 0.37114 0.0
C321 C 0.53093 0.21268 0.32641 0.0
C322 C 0.54152 0.13031 0.4989 0.0
C323 C 0.52849 0.12664 0.57133 0.0
C324 C 0.54271 0.15127 0.4607 0.0
C325 C 0.53103 0.16931 0.49373 0.0
C326 C 0.51878 0.16593 0.56752 0.0
C327 C 0.51748 0.1448 0.6059 0.0
H328 H 0.31467 0.49429 0.30595 0.0
H329 H 0.33306 0.5622 0.24794 0.0
H330 H 0.34211 0.4921 0.40769 0.0
H331 H 0.35992 0.56026 0.35037 0.0
H332 H 0.43014 0.53987 0.45635 0.0
H333 H 0.39847 0.54397 0.36967 0.0
H334 H 0.3511 0.50367 0.53086 0.0
H335 H 0.38359 0.49887 0.61719 0.0
C336 C 0.32431 0.50883 0.31576 0.0
C337 C 0.32202 0.52832 0.26824 0.0
C338 C 0.33994 0.50762 0.37429 0.0
C339 C 0.35346 0.52594 0.38686 0.0
C340 C 0.35026 0.54568 0.34128 0.0
C341 C 0.33486 0.54681 0.28252 0.0
C342 C 0.41297 0.53187 0.4735 0.0
C343 C 0.40949 0.5188 0.54321 0.0
C344 C 0.39464 0.53444 0.42407 0.0
C345 C 0.37215 0.52415 0.44304 0.0
C346 C 0.3683 0.51162 0.51405 0.0
C347 C 0.38678 0.50905 0.56386 0.0
H348 H 0.98569 0.31056 0.38565 0.0
H349 H 0.06239 0.29665 0.39607 0.0
H350 H 0.98844 0.3413 0.46417 0.0
H351 H 0.06517 0.32751 0.47457 0.0
H352 H 0.06164 0.40295 0.51307 0.0
H353 H 0.06057 0.36913 0.44913 0.0
H354 H 0.9974 0.34876 0.59959 0.0
H355 H 0.99857 0.38264 0.66394 0.0
C356 C 1.00312 0.31408 0.40488 0.0
C357 C 0.02385 0.30129 0.38444 0.0
C358 C 1.00465 0.33154 0.45039 0.0
C359 C 0.02701 0.33679 0.47558 0.0
C360 C 0.04772 0.32388 0.45572 0.0
C361 C 0.04611 0.30619 0.41116 0.0
C362 C 0.04769 0.39112 0.53297 0.0
C363 C 0.03014 0.39543 0.59329 0.0
C364 C 0.04717 0.37172 0.49669 0.0
C365 C 0.02885 0.35634 0.51916 0.0
C366 C 1.01163 0.36039 0.58076 0.0
C367 C 0.0124 0.37967 0.61792 0.0
H368 H 0.83672 0.95251 0.9869 0.0
H369 H 0.83666 0.01599 0.07564 0.0
H370 H 0.87551 0.96027 0.91239 0.0
H371 H 0.87573 0.02395 0.00043 0.0
H372 H 0.9598 0.01432 0.94104 0.0
H373 H 0.91857 0.01045 0.00419 0.0
H374 H 0.89589 0.98301 0.80518 0.0
H375 H 0.93709 0.98675 0.74221 0.0
C376 C 0.84484 0.96833 0.98929 0.0
C377 C 0.8336 0.98365 0.03709 0.0
C378 C 0.86709 0.97282 0.94639 0.0
C379 C 0.87894 0.9927 0.95055 0.0
C380 C 0.86728 0.00838 -0.00357 0.0
C381 C 0.84477 1.00395 0.03882 0.0
C382 C 0.94602 1.0075 0.91062 0.0
C383 C 0.95191 1.0007 0.83661 0.0
C384 C 0.92228 1.00546 0.94664 0.0
C385 C 0.9038 0.99641 0.90995 0.0
C386 C 0.90966 0.98986 0.83558 0.0
C387 C 0.93333 0.99206 0.79932 0.0
H388 H 0.52018 0.78218 0.08053 0.0
H389 H 0.59101 0.78645 0.95392 0.0
H390 H 0.50857 0.81766 0.01755 0.0
H391 H 0.57996 0.82205 0.8939 0.0
H392 H 0.55097 0.88019 0.75794 0.0
H393 H 0.55628 0.84206 0.80591 0.0
H394 H 0.5175 0.85563 0.02204 0.0
H395 H 0.51093 0.89349 0.97249 0.0
C396 C 0.53316 0.79054 0.03862 0.0
C397 C 0.55661 0.78155 0.02292 0.0
C398 C 0.52663 0.81102 0.00315 0.0
C399 C 0.54337 0.82294 0.95094 0.0
C400 C 0.56644 0.8134 0.93305 0.0
C401 C 0.57291 0.79302 0.96827 0.0
C402 C 0.54309 0.87501 0.81513 0.0
C403 C 0.53066 0.89013 0.86134 0.0
C404 C 0.54643 0.85311 0.84311 0.0
C405 C 0.53756 0.84567 0.91832 0.0
C406 C 0.52445 0.86061 0.96369 0.0
C407 C 0.521 0.88249 0.93556 0.0
H408 H 0.73239 0.50825 0.16416 0.0
H409 H 0.72997 0.57679 0.08141 0.0
H410 H 0.70275 0.50039 0.07574 0.0
H411 H 0.70014 0.56896 0.9946 0.0
H412 H 0.62285 0.55025 0.94568 0.0
H413 H 0.65682 0.55754 0.01793 0.0
H414 H 0.69581 0.50114 0.93343 0.0
H415 H 0.66145 0.49381 0.86058 0.0
C416 C 0.72581 0.52158 0.12655 0.0
C417 C 0.73331 0.54322 0.1308 0.0
C418 C 0.70885 0.51707 0.07587 0.0
C419 C 0.69898 0.5341 0.02876 0.0
C420 C 0.70713 0.55555 0.03111 0.0
C421 C 0.72413 0.56004 0.08122 0.0
C422 C 0.63874 0.53949 0.94214 0.0
C423 C 0.63952 0.52143 0.89786 0.0
C424 C 0.65825 0.54373 0.9831 0.0
C425 C 0.67899 0.52991 0.98136 0.0
C426 C 0.67999 0.51199 0.93614 0.0
C427 C 0.66048 0.50789 0.8941 0.0
H428 H 0.98551 0.7346 0.92706 0.0
H429 H 0.97137 0.69716 0.14504 0.0
H430 H 0.9979 0.70089 0.86708 0.0
H431 H 0.98482 0.66371 0.08703 0.0
H432 H 0.97924 0.60528 0.9522 0.0
H433 H 0.96985 0.63981 0.00768 0.0
H434 H 0.02614 0.67131 0.85148 0.0
H435 H 0.0348 0.63659 0.79386 0.0
C436 C 0.9856 0.71918 0.96228 0.0
C437 C 0.97732 0.71836 0.04036 0.0
C438 C 0.99273 0.69985 0.92814 0.0
C439 C 0.992 0.67939 0.97176 0.0
C440 C 0.98493 0.67896 0.05088 0.0
C441 C 0.97745 0.69815 0.08449 0.0
C442 C 0.98966 0.61957 0.92988 0.0
C443 C 1.00788 0.61819 0.86914 0.0
C444 C 0.98441 0.63941 0.96203 0.0
C445 C 0.99748 0.65843 0.93518 0.0
C446 C 0.01555 0.65711 0.87346 0.0
C447 C 0.02058 0.63722 0.8405 0.0
H448 H 0.99511 0.1823 0.46123 0.0
H449 H 0.06352 0.17507 0.56092 0.0
H450 H 0.98132 0.14802 0.53155 0.0
H451 H 0.04954 0.14112 0.63301 0.0
H452 H 0.01646 0.08171 0.76277 0.0
H453 H 0.01701 0.12096 0.72804 0.0
H454 H 1.00178 0.11002 0.49858 0.0
H455 H 1.00149 0.07028 0.53289 0.0
C456 C 1.00655 0.17414 0.50214 0.0
C457 C 0.03036 0.18128 0.506 0.0
C458 C 0.99882 0.15432 0.54116 0.0
C459 C 0.01456 0.14177 0.58624 0.0
C460 C 0.03704 0.15051 0.5985 0.0
C461 C 0.04496 0.17009 0.5582 0.0
C462 C 0.01287 0.08756 0.70497 0.0
C463 C 1.00937 0.07279 0.64996 0.0
C464 C 0.01311 0.1101 0.68548 0.0
C465 C 1.00953 0.11847 0.61083 0.0
C466 C 1.00435 0.10392 0.55695 0.0
C467 C 1.00432 0.0812 0.57632 0.0
H468 H 0.34676 0.0362 0.47771 0.0
H469 H 0.36166 0.97035 0.4152 0.0
H470 H 0.38102 0.03328 0.55653 0.0
H471 H 0.39641 0.96748 0.49146 0.0
H472 H 0.45622 0.96792 0.6542 0.0
H473 H 0.41577 0.96707 0.60896 0.0
H474 H 0.42357 0.03426 0.51326 0.0
H475 H 0.46348 0.03526 0.55974 0.0
C476 C 0.35671 0.02074 0.48393 0.0
C477 C 0.35149 1.0034 0.44153 0.0
C478 C 0.37664 0.01918 0.52762 0.0
C479 C 0.3919 1.00036 0.52858 0.0
C480 C 0.38509 0.98219 0.49224 0.0
C481 C 0.36505 0.98373 0.44904 0.0
C482 C 0.44934 0.98244 0.62295 0.0
C483 C 0.46311 1.00165 0.61044 0.0
C484 C 0.4261 0.98198 0.59738 0.0
C485 C 0.41618 1.00072 0.55872 0.0
C486 C 0.43026 0.01972 0.54486 0.0
C487 C 0.45336 0.0202 0.57054 0.0
H488 H 0.57127 0.3617 0.38591 0.0
H489 H 0.49705 0.3549 0.48377 0.0
H490 H 0.57648 0.39203 0.46475 0.0
H491 H 0.50225 0.38475 0.564 0.0
H492 H 0.50486 0.45888 0.56117 0.0
H493 H 0.50559 0.42347 0.50983 0.0
H494 H 0.57547 0.40831 0.5946 0.0
H495 H 0.5748 0.44436 0.64704 0.0
C496 C 0.55652 0.36597 0.42742 0.0
C497 C 0.53382 0.356 0.42953 0.0
C498 C 0.55944 0.38338 0.47216 0.0
C499 C 0.53961 0.39106 0.51919 0.0
C500 C 0.51772 0.37943 0.52712 0.0
C501 C 0.51479 0.36217 0.48217 0.0
C502 C 0.5205 0.44813 0.56893 0.0
C503 C 0.53971 0.45441 0.60878 0.0
C504 C 0.52077 0.42767 0.54014 0.0
C505 C 0.54025 0.41283 0.55014 0.0
C506 C 0.56009 0.41936 0.58689 0.0
C507 C 0.55978 0.44001 0.61633 0.0
H508 H 0.19052 0.48487 0.36456 0.0
H509 H 0.18188 0.55259 0.27979 0.0
H510 H 0.15583 0.48884 0.45966 0.0
H511 H 0.1467 0.55661 0.37404 0.0
H512 H 0.09008 0.5532 0.59451 0.0
H513 H 0.1291 0.55442 0.5148 0.0
H514 H 0.11278 0.49314 0.42789 0.0
H515 H 0.07431 0.49182 0.50684 0.0
C516 C 0.18167 0.50081 0.36849 0.0
C517 C 0.18873 0.51847 0.31591 0.0
C518 C 0.1617 0.50305 0.42198 0.0
C519 C 0.1483 0.52291 0.42283 0.0
C520 C 0.15672 0.54115 0.37454 0.0
C521 C 0.17684 0.53891 0.32105 0.0
C522 C 0.0947 0.54026 0.55716 0.0
C523 C 0.0793 0.52231 0.55733 0.0
C524 C 0.11705 0.54088 0.51212 0.0
C525 C 0.12421 0.52354 0.46712 0.0
C526 C 0.10808 0.50636 0.46404 0.0
C527 C 0.08592 0.50574 0.50863 0.0
H528 H 0.992 0.83816 0.93052 0.0
H529 H 0.05796 0.83953 0.04285 0.0
H530 H 1.00433 0.87101 0.84948 0.0
H531 H 0.07048 0.87245 0.96153 0.0
H532 H 0.03103 0.93111 0.71023 0.0
H533 H 0.03203 0.89237 0.75528 0.0
H534 H 0.05163 0.90922 0.97438 0.0
H535 H 0.05088 0.94804 0.92915 0.0
C536 C 1.00975 0.8448 0.93495 0.0
C537 C 0.0239 0.83651 0.99341 0.0
C538 C 0.01679 0.86377 0.88891 0.0
C539 C 0.03809 0.87466 0.90065 0.0
C540 C 0.05371 0.86469 0.95244 0.0
C541 C 0.04671 0.84571 -0.00175 0.0
C542 C 0.03592 0.92657 0.76773 0.0
C543 C 0.04054 0.94271 0.81663 0.0
C544 C 0.03649 0.90434 0.79338 0.0
C545 C 0.04179 0.89771 0.86838 0.0
C546 C 0.04778 0.91376 0.91584 0.0
C547 C 0.04716 0.93604 0.89022 0.0
H548 H 0.69295 0.04908 0.02668 0.0
H549 H 0.6971 0.97928 0.00974 0.0
H550 H 0.65939 0.05216 0.94519 0.0
H551 H 0.66265 0.9817 0.9339 0.0
H552 H 0.60283 0.98905 0.78373 0.0
H553 H 0.64279 0.99054 0.82926 0.0
H554 H 0.61846 0.0458 0.95646 0.0
H555 H 0.57903 0.04527 0.90437 0.0
C556 C 0.68709 0.03451 0.00327 0.0
C557 C 0.69777 0.014 0.02318 0.0
C558 C 0.66748 0.03613 0.95806 0.0
C559 C 0.65767 0.01715 0.93381 0.0
C560 C 0.66962 0.99684 0.94992 0.0
C561 C 0.68956 0.99535 0.99338 0.0
C562 C 0.60613 1.00152 0.82143 0.0
C563 C 0.5878 0.0168 0.84186 0.0
C564 C 0.62907 1.00237 0.84794 0.0
C565 C 0.63409 0.01806 0.89793 0.0
C566 C 0.61567 0.03364 0.91725 0.0
C567 C 0.59288 0.03322 0.88841 0.0
H568 H 0.47719 0.65276 0.09976 0.0
H569 H 0.54366 0.66988 0.96025 0.0
H570 H 0.4712 0.62298 0.01987 0.0
H571 H 0.53731 0.64058 0.87942 0.0
H572 H 0.54471 0.56568 0.87893 0.0
H573 H 0.54255 0.60117 0.92974 0.0
H574 H 0.46674 0.60796 0.88905 0.0
H575 H 0.46886 0.57189 0.83649 0.0
C576 C 0.48996 0.65075 0.0501 0.0
C577 C 0.51116 0.66337 0.03718 0.0
C578 C 0.48649 0.63372 0.0043 0.0
C579 C 0.50414 0.62912 0.94479 0.0
C580 C 0.52367 0.64352 0.92602 0.0
C581 C 0.52715 0.6605 0.97177 0.0
C582 C 0.52747 0.57459 0.88055 0.0
C583 C 0.50694 0.56589 0.85331 0.0
C584 C 0.52635 0.59513 0.90894 0.0
C585 C 0.50465 0.6076 0.9116 0.0
C586 C 0.48379 0.59876 0.88679 0.0
C587 C 0.48497 0.5781 0.85725 0.0
H588 H 0.853 0.52687 0.07447 0.0
H589 H 0.8697 0.46593 0.20368 0.0
H590 H 0.88743 0.52054 0.98169 0.0
H591 H 0.90468 0.45989 0.11092 0.0
H592 H 0.96067 0.45856 0.88353 0.0
H593 H 0.92136 0.45682 0.9622 0.0
H594 H 0.9314 0.52245 0.02421 0.0
H595 H 0.97027 0.52421 0.94774 0.0
C596 C 0.86338 0.51169 0.08148 0.0
C597 C 0.85886 0.49706 0.147 0.0
C598 C 0.88326 0.50819 0.02875 0.0
C599 C 0.89893 0.49 0.04046 0.0
C600 C 0.8929 0.47408 0.10101 0.0
C601 C 0.87297 0.47759 0.15404 0.0
C602 C 0.95463 0.47242 0.91519 0.0
C603 C 0.96846 0.4916 0.90883 0.0
C604 C 0.93213 0.47146 0.95957 0.0
C605 C 0.92317 0.48975 -0.00285 0.0
C606 C 0.93762 0.50837 0.99391 0.0
C607 C 0.96 0.50926 0.9506 0.0
H608 H 0.07572 0.18605 0.15434 0.0
H609 H 0.04063 0.14406 0.34114 0.0
H610 H 0.07655 0.15532 0.07252 0.0
H611 H 0.04395 0.11381 0.26406 0.0
H612 H 0.01874 0.07312 0.09323 0.0
H613 H 0.02225 0.10437 0.16557 0.0
H614 H 0.09314 0.11791 0.04694 0.0
H615 H 0.08873 0.08698 0.96931 0.0
C616 C 0.06867 0.17035 0.17852 0.0
C617 C 0.05859 0.16768 0.25524 0.0
C618 C 0.0694 0.15269 0.13197 0.0
C619 C 0.06008 0.13211 0.16151 0.0
C620 C 0.05085 0.12944 0.23856 0.0
C621 C 0.04955 0.14693 0.28378 0.0
C622 C 0.03508 0.08275 0.08198 0.0
C623 C 0.05338 0.07757 0.02513 0.0
C624 C 0.03725 0.10062 0.12424 0.0
C625 C 0.05813 0.11362 0.1128 0.0
C626 C 0.07676 0.10832 0.05682 0.0
C627 C 0.07442 0.09041 0.01335 0.0
H628 H 0.34965 0.99361 0.10987 0.0
H629 H 0.37698 0.04984 0.20384 0.0
H630 H 0.38444 0.99468 0.0124 0.0
H631 H 0.41187 0.05081 0.10744 0.0
H632 H 0.46498 0.0537 0.88826 0.0
H633 H 0.42712 0.05627 0.97152 0.0
H634 H 0.42795 0.98585 0.01912 0.0
H635 H 0.46554 0.98323 0.93592 0.0
C636 C 0.36269 1.0066 0.1082 0.0
C637 C 0.36058 0.02165 0.16442 0.0
C638 C 0.38284 1.00702 0.05318 0.0
C639 C 0.40122 0.0226 0.05284 0.0
C640 C 0.39811 0.03861 0.10575 0.0
C641 C 0.3781 0.03809 0.161 0.0
C642 C 0.4572 0.03878 0.91703 0.0
C643 C 0.46845 0.01827 0.90546 0.0
C644 C 0.43544 0.04025 0.96465 0.0
C645 C 0.42426 0.02124 0.00135 0.0
C646 C 0.43572 1.00079 0.99057 0.0
C647 C 0.45751 0.99933 0.94351 0.0
H648 H 0.47752 0.37926 0.23258 0.0
H649 H 0.53756 0.35353 0.08959 0.0
H650 H 0.4729 0.41002 0.13585 0.0
H651 H 0.53281 0.3841 0.99306 0.0
H652 H 0.54497 0.45762 0.92725 0.0
H653 H 0.54219 0.42411 0.01114 0.0
H654 H 0.46499 0.42227 0.99171 0.0
H655 H 0.46771 0.45618 0.90522 0.0
C656 C 0.48928 0.37986 0.17958 0.0
C657 C 0.50805 0.36408 0.16896 0.0
C658 C 0.48656 0.39741 0.1242 0.0
C659 C 0.50272 0.3996 0.05756 0.0
C660 C 0.52026 0.38293 0.04439 0.0
C661 C 0.52284 0.3653 0.09933 0.0
C662 C 0.52727 0.45027 0.94066 0.0
C663 C 0.50654 0.45965 0.90902 0.0
C664 C 0.52578 0.43088 0.98836 0.0
C665 C 0.50348 0.42034 0.00677 0.0
C666 C 0.48245 0.43001 0.97785 0.0
C667 C 0.484 0.44943 0.92872 0.0
H668 H 0.20231 0.52377 0.977 0.0
H669 H 0.17661 0.46669 0.12013 0.0
H670 H 0.16963 0.52015 0.89471 0.0
H671 H 0.14372 0.46322 0.03876 0.0
H672 H 0.08983 0.46067 0.85456 0.0
H673 H 0.12886 0.45809 0.91108 0.0
H674 H 0.12588 0.52798 0.93061 0.0
H675 H 0.08732 0.53061 0.87484 0.0
C676 C 0.19027 0.50994 0.98904 0.0
C677 C 0.19183 0.49562 0.05517 0.0
C678 C 0.17136 0.50803 0.94263 0.0
C679 C 0.15377 0.49171 0.96138 0.0
C680 C 0.15692 0.47598 0.02284 0.0
C681 C 0.17576 0.47796 0.0694 0.0
C682 C 0.0975 0.47544 0.87128 0.0
C683 C 0.08537 0.49583 0.86041 0.0
C684 C 0.11988 0.47397 0.90328 0.0
C685 C 0.13067 0.4929 0.92402 0.0
C686 C 0.1184 0.51318 0.9135 0.0
C687 C 0.09607 0.51462 0.88239 0.0
H688 H 0.02911 0.83572 0.28352 0.0
H689 H 0.95313 0.84479 0.24869 0.0
H690 H 0.02682 0.86709 0.36067 0.0
H691 H 0.95078 0.87646 0.32594 0.0
H692 H 0.96111 0.9264 0.51621 0.0
H693 H 0.95706 0.89174 0.45815 0.0
H694 H 0.02127 0.90662 0.30458 0.0
H695 H 0.0251 0.94111 0.36116 0.0
C696 C 1.01169 0.84394 0.29507 0.0
C697 C 0.99131 0.83791 0.26038 0.0
C698 C 1.01043 0.86204 0.33828 0.0
C699 C 0.98877 0.87451 0.3475 0.0
C700 C 0.9677 0.86716 0.31942 0.0
C701 C 0.96899 0.84896 0.27587 0.0
C702 C 0.97397 0.92247 0.46876 0.0
C703 C 0.9936 0.93634 0.44376 0.0
C704 C 0.97175 0.90258 0.43609 0.0
C705 C 0.98925 0.89626 0.37847 0.0
C706 C 1.00793 0.91079 0.35052 0.0
C707 C 1.01004 0.9306 0.38256 0.0
H708 H 0.68909 0.9683 0.30631 0.0
H709 H 0.6892 0.03863 0.30785 0.0
H710 H 0.65314 0.96658 0.39874 0.0
H711 H 0.6541 0.03711 0.40337 0.0
H712 H 0.57482 0.03231 0.4889 0.0
H713 H 0.61252 0.03202 0.40566 0.0
H714 H 0.63329 0.97001 0.52086 0.0
H715 H 0.59484 0.96992 0.60177 0.0
C716 C 0.68198 0.9833 0.32914 0.0
C717 C 0.69205 1.00357 0.30079 0.0
C718 C 0.66125 0.98239 0.3819 0.0
C719 C 0.65021 1.00175 0.40792 0.0
C720 C 0.66149 0.02187 0.38322 0.0
C721 C 0.68194 0.02278 0.32962 0.0
C722 C 0.58729 0.01846 0.49576 0.0
C723 C 0.58173 1.00109 0.55175 0.0
C724 C 0.60918 0.01843 0.44868 0.0
C725 C 0.62643 1.0012 0.45703 0.0
C726 C 0.62054 0.98352 0.51199 0.0
C727 C 0.59841 0.98342 0.55845 0.0
H728 H 0.57424 0.65422 0.2826 0.0
H729 H 0.49624 0.65407 0.33129 0.0
H730 H 0.57788 0.62265 0.37689 0.0
H731 H 0.49973 0.62312 0.42692 0.0
H732 H 0.50866 0.55169 0.49783 0.0
H733 H 0.50915 0.58512 0.41299 0.0
H734 H 0.57259 0.60638 0.51031 0.0
H735 H 0.5724 0.57228 0.59488 0.0
C736 C 0.55797 0.64792 0.3156 0.0
C737 C 0.53495 0.65649 0.2998 0.0
C738 C 0.56002 0.62978 0.3693 0.0
C739 C 0.53905 0.61999 0.40811 0.0
C740 C 0.51621 0.62982 0.39642 0.0
C741 C 0.51418 0.64773 0.34249 0.0
C742 C 0.52293 0.56334 0.50062 0.0
C743 C 0.54042 0.55938 0.55337 0.0
C744 C 0.52304 0.58268 0.45254 0.0
C745 C 0.5405 0.59878 0.45623 0.0
C746 C 0.55882 0.59437 0.50624 0.0
C747 C 0.55879 0.57481 0.55439 0.0
H748 H 0.86119 0.55177 0.38647 0.0
H749 H 0.85631 0.48214 0.44695 0.0
H750 H 0.89501 0.55348 0.46579 0.0
H751 H 0.88938 0.4838 0.52879 0.0
H752 H 0.96998 0.48681 0.55123 0.0
H753 H 0.93188 0.48798 0.49303 0.0
H754 H 0.91262 0.5496 0.58775 0.0
H755 H 0.95144 0.54867 0.64493 0.0
C756 C 0.86666 0.53703 0.4197 0.0
C757 C 0.85624 0.51683 0.41094 0.0
C758 C 0.88611 0.53796 0.46482 0.0
C759 C 0.89534 0.51868 0.50211 0.0
C760 C 0.88321 0.49886 0.49903 0.0
C761 C 0.86402 0.49791 0.45328 0.0
C762 C 0.95772 0.5007 0.55943 0.0
C763 C 0.96373 0.51763 0.60285 0.0
C764 C 0.93567 0.50124 0.5268 0.0
C765 C 0.91885 0.51863 0.53716 0.0
C766 C 0.92512 0.53594 0.5788 0.0
C767 C 0.94738 0.53545 0.61131 0.0
loop_
_geom_bond_atom_site_label_1
_geom_bond_atom_site_label_2
_geom_bond_distance
_geom_bond_site_symmetry_2
_ccdc_geom_bond_type
H0 C1 0.949 . S
C1 H0 0.949 . S
C1 C2 1.395 . S
C1 C3 1.391 . S
C2 C1 1.395 . S
C2 C5 1.390 . S
C3 C1 1.391 . S
C3 C7 1.387 . S
C3 C8 1.491 . S
H4 C5 0.950 . S
C5 C2 1.390 . S
C5 H4 0.950 . S
C5 C6 1.378 . S
C6 C5 1.378 . S
C6 C7 1.409 . S
C7 C3 1.387 . S
C7 C6 1.409 . S
C7 H9 0.951 . S
C8 C3 1.491 . S
C8 C10 1.382 . S
C8 C12 1.404 . S
H9 C7 0.951 . S
C10 C8 1.382 . S
C10 C11 1.390 . S
C10 H15 0.949 . S
C11 C10 1.390 . S
C11 C16 1.399 . S
C12 C8 1.404 . S
C12 H13 0.950 . S
C12 C14 1.375 . S
H13 C12 0.950 . S
C14 C12 1.375 . S
C14 C16 1.382 . S
C14 H18 0.950 . S
H15 C10 0.949 . S
C16 C11 1.399 . S
C16 C14 1.382 . S
C16 H17 0.952 . S
H17 C16 0.952 . S
H18 C14 0.950 . S
H19 C20 0.949 . S
C20 H19 0.949 . S
C20 C21 1.395 . S
C20 C22 1.391 1_556 S
C21 C20 1.395 . S
C21 C24 1.390 1_556 S
C22 C20 1.391 1_554 S
C22 C26 1.387 . S
C22 C27 1.491 . S
H23 C24 0.950 . S
C24 C21 1.390 1_554 S
C24 H23 0.950 . S
C24 C25 1.378 . S
C25 C24 1.378 . S
C25 C26 1.409 . S
C26 C22 1.387 . S
C26 C25 1.409 . S
C26 H28 0.951 . S
C27 C22 1.491 . S
C27 C29 1.382 1_554 S
C27 C31 1.404 . S
H28 C26 0.951 . S
C29 C27 1.382 1_556 S
C29 C30 1.390 . S
C29 H34 0.974 . S
C30 C29 1.390 . S
C30 C35 1.399 1_556 S
C31 C27 1.404 . S
C31 H32 0.950 . S
C31 C33 1.375 . S
H32 C31 0.950 . S
C33 C31 1.375 . S
C33 C35 1.382 . S
C33 H37 0.950 . S
H34 C29 0.974 . S
C35 C30 1.399 1_554 S
C35 C33 1.382 . S
C35 H36 0.952 . S
H36 C35 0.952 . S
H37 C33 0.950 . S
H38 C39 0.949 1_556 S
C39 H38 0.949 1_554 S
C39 C40 1.395 . S
C39 C41 1.391 . S
C40 C39 1.395 . S
C40 C43 1.390 . S
C41 C39 1.391 . S
C41 C45 1.387 . S
C41 C46 1.491 . S
H42 C43 0.950 . S
C43 C40 1.390 . S
C43 H42 0.950 . S
C43 C44 1.378 . S
C44 C43 1.378 . S
C44 C45 1.409 . S
C45 C41 1.387 . S
C45 C44 1.409 . S
C45 H47 0.951 . S
C46 C41 1.491 . S
C46 C48 1.382 . S
C46 C50 1.404 . S
H47 C45 0.951 . S
C48 C46 1.382 . S
C48 C49 1.390 . S
C48 H53 0.949 1_565 S
C49 C48 1.390 . S
C49 C54 1.399 . S
C50 C46 1.404 . S
C50 H51 0.950 . S
C50 C52 1.375 . S
H51 C50 0.950 . S
C52 C50 1.375 . S
C52 C54 1.382 . S
C52 H56 0.950 . S
H53 C48 0.949 1_545 S
C54 C49 1.399 . S
C54 C52 1.382 . S
C54 H55 0.952 . S
H55 C54 0.952 . S
H56 C52 0.950 . S
H57 C58 0.949 . S
C58 H57 0.949 . S
C58 C59 1.395 . S
C58 C60 1.391 . S
C59 C58 1.395 . S
C59 C62 1.390 . S
C60 C58 1.391 . S
C60 C64 1.387 . S
C60 C65 1.491 . S
H61 C62 0.950 . S
C62 C59 1.390 . S
C62 H61 0.950 . S
C62 C63 1.378 . S
C63 C62 1.378 . S
C63 C64 1.409 . S
C64 C60 1.387 . S
C64 C63 1.409 . S
C64 H66 0.951 . S
C65 C60 1.491 . S
C65 C67 1.382 . S
C65 C69 1.404 . S
H66 C64 0.951 . S
C67 C65 1.382 . S
C67 C68 1.390 . S
C67 H72 0.949 . S
C68 C67 1.390 . S
C68 C73 1.399 . S
C69 C65 1.404 . S
C69 H70 0.950 . S
C69 C71 1.375 . S
H70 C69 0.950 . S
C71 C69 1.375 . S
C71 C73 1.382 . S
C71 H75 0.950 . S
H72 C67 0.949 . S
C73 C68 1.399 . S
C73 C71 1.382 . S
C73 H74 0.952 . S
H74 C73 0.952 . S
H75 C71 0.950 . S
H76 C77 0.949 . S
C77 H76 0.949 . S
C77 C78 1.395 . S
C77 C79 1.391 . S
C78 C77 1.395 . S
C78 C81 1.390 . S
C79 C77 1.391 . S
C79 C83 1.387 . S
C79 C84 1.491 . S
H80 C81 0.950 . S
C81 C78 1.390 . S
C81 H80 0.950 . S
C81 C82 1.378 . S
C82 C81 1.378 . S
C82 C83 1.409 . S
C83 C79 1.387 . S
C83 C82 1.409 . S
C83 H85 0.951 . S
C84 C79 1.491 . S
C84 C86 1.382 . S
C84 C88 1.404 . S
H85 C83 0.951 . S
C86 C84 1.382 . S
C86 C87 1.390 . S
C86 H91 0.949 . S
C87 C86 1.390 . S
C87 C92 1.399 . S
C88 C84 1.404 . S
C88 H89 0.950 . S
C88 C90 1.375 . S
H89 C88 0.950 . S
C90 C88 1.375 . S
C90 C92 1.382 . S
C90 H94 0.950 . S
H91 C86 0.949 . S
C92 C87 1.399 . S
C92 C90 1.382 . S
C92 H93 0.952 . S
H93 C92 0.952 . S
H94 C90 0.950 . S
H95 C96 0.949 . S
C96 H95 0.949 . S
C96 C97 1.395 . S
C96 C98 1.391 . S
C97 C96 1.395 . S
C97 C100 1.390 . S
C98 C96 1.391 . S
C98 C102 1.387 . S
C98 C103 1.491 . S
H99 C100 0.950 . S
C100 C97 1.390 . S
C100 H99 0.950 . S
C100 C101 1.378 . S
C101 C100 1.378 . S
C101 C102 1.409 . S
C102 C98 1.387 . S
C102 C101 1.409 . S
C102 H104 0.951 . S
C103 C98 1.491 . S
C103 C105 1.382 . S
C103 C107 1.404 . S
H104 C102 0.951 . S
C105 C103 1.382 . S
C105 C106 1.390 . S
C105 H110 0.949 . S
C106 C105 1.390 . S
C106 C111 1.399 . S
C107 C103 1.404 . S
C107 H108 0.947 . S
C107 C109 1.375 . S
H108 C107 0.947 . S
C109 C107 1.375 . S
C109 C111 1.382 . S
C109 H113 0.950 1_455 S
H110 C105 0.949 . S
C111 C106 1.399 . S
C111 C109 1.382 . S
C111 H112 0.952 . S
H112 C111 0.952 . S
H113 C109 0.950 1_655 S
H114 C115 0.949 . S
C115 H114 0.949 . S
C115 C116 1.395 . S
C115 C117 1.391 . S
C116 C115 1.395 . S
C116 C119 1.390 . S
C117 C115 1.391 . S
C117 C121 1.387 . S
C117 C122 1.491 . S
H118 C119 0.950 . S
C119 C116 1.390 . S
C119 H118 0.950 . S
C119 C120 1.378 . S
C120 C119 1.378 . S
C120 C121 1.409 . S
C121 C117 1.387 . S
C121 C120 1.409 . S
C121 H123 0.951 . S
C122 C117 1.491 . S
C122 C124 1.382 . S
C122 C126 1.404 1_545 S
H123 C121 0.951 . S
C124 C122 1.382 . S
C124 C125 1.390 . S
C124 H129 0.949 . S
C125 C124 1.390 . S
C125 C130 1.399 1_545 S
C126 C122 1.404 1_565 S
C126 H127 0.950 . S
C126 C128 1.375 . S
H127 C126 0.950 . S
C128 C126 1.375 . S
C128 C130 1.382 . S
C128 H132 0.950 . S
H129 C124 0.949 . S
C130 C125 1.399 1_565 S
C130 C128 1.382 . S
C130 H131 0.952 . S
H131 C130 0.952 . S
H132 C128 0.950 . S
H133 C134 0.949 . S
C134 H133 0.949 . S
C134 C135 1.395 . S
C134 C136 1.391 . S
C135 C134 1.395 . S
C135 C138 1.390 . S
C136 C134 1.391 . S
C136 C140 1.387 . S
C136 C141 1.491 . S
H137 C138 0.950 . S
C138 C135 1.390 . S
C138 H137 0.950 . S
C138 C139 1.378 . S
C139 C138 1.378 . S
C139 C140 1.409 . S
C140 C136 1.387 . S
C140 C139 1.409 . S
C140 H142 0.951 . S
C141 C136 1.491 . S
C141 C143 1.382 . S
C141 C145 1.404 . S
H142 C140 0.951 . S
C143 C141 1.382 . S
C143 C144 1.390 . S
C143 H148 0.949 . S
C144 C143 1.390 . S
C144 C149 1.399 . S
C145 C141 1.404 . S
C145 H146 0.950 . S
C145 C147 1.375 . S
H146 C145 0.950 . S
C147 C145 1.375 . S
C147 C149 1.382 . S
C147 H151 0.950 . S
H148 C143 0.949 . S
C149 C144 1.399 . S
C149 C147 1.382 . S
C149 H150 0.952 . S
H150 C149 0.952 . S
H151 C147 0.950 . S
C152 O168 1.251 . S
C152 O170 1.254 . S
N153 C154 1.333 . S
N153 C158 1.307 1_455 S
N153 Zn159 2.020 . S
C154 N153 1.333 . S
C154 C155 1.379 . S
C154 H172 0.952 . S
C155 C154 1.379 . S
C155 C156 1.390 1_455 S
C155 H182 0.949 . S
C156 C155 1.390 1_655 S
C156 C157 1.357 . S
C157 C156 1.357 . S
C157 C158 1.370 . S
C157 H183 0.950 . S
C158 N153 1.307 1_655 S
C158 C157 1.370 . S
C158 H176 0.948 . S
Zn159 N153 2.020 . S
Zn159 O168 2.039 . S
Zn159 O174 2.034 . S
Zn159 O178 2.025 1_565 S
Zn159 O180 2.024 1_455 S
C160 O179 1.246 . S
C160 O180 1.249 1_545 S
N161 C162 1.307 . S
N161 C163 1.333 . S
N161 Zn167 2.020 . S
C162 N161 1.307 . S
C162 C166 1.370 1_556 S
C162 H173 0.948 . S
C163 N161 1.333 . S
C163 C164 1.379 . S
C163 H171 0.952 . S
C164 C163 1.379 . S
C164 C165 1.390 1_556 S
C164 H184 0.949 . S
C165 C164 1.390 1_554 S
C165 C166 1.357 . S
C166 C162 1.370 1_554 S
C166 C165 1.357 . S
C166 H185 0.950 . S
Zn167 N161 2.020 . S
Zn167 O170 2.025 1_545 S
Zn167 O175 2.024 . S
Zn167 O177 2.039 . S
Zn167 O179 2.034 1_455 S
O168 C152 1.251 . S
O168 Zn159 2.039 . S
C169 O174 1.236 1_545 S
C169 O175 1.258 . S
O170 C152 1.254 . S
O170 Zn167 2.025 1_565 S
H171 C163 0.952 . S
H172 C154 0.952 . S
H173 C162 0.948 . S
O174 Zn159 2.034 . S
O174 C169 1.236 1_565 S
O175 Zn167 2.024 . S
O175 C169 1.258 . S
H176 C158 0.948 . S
O177 Zn167 2.039 . S
O177 C181 1.251 . S
O178 Zn159 2.025 1_545 S
O178 C181 1.254 . S
O179 C160 1.246 . S
O179 Zn167 2.034 1_655 S
O180 Zn159 2.024 1_655 S
O180 C160 1.249 1_565 S
C181 O177 1.251 . S
C181 O178 1.254 . S
H182 C155 0.949 . S
H183 C157 0.950 . S
H184 C164 0.949 . S
H185 C166 0.950 . S
C186 O202 1.263 . S
C186 O204 1.243 1_545 S
N187 C188 1.333 . S
N187 C192 1.307 . S
N187 Zn193 2.020 . S
C188 N187 1.333 . S
C188 C189 1.379 . S
C188 H206 0.952 . S
C189 C188 1.379 . S
C189 C190 1.390 . S
C189 H216 0.949 . S
C190 C189 1.390 . S
C190 C191 1.357 . S
C191 C190 1.357 . S
C191 C192 1.370 . S
C191 H217 0.950 . S
C192 N187 1.307 . S
C192 C191 1.370 . S
C192 H210 0.948 . S
Zn193 N187 2.020 . S
Zn193 O202 2.039 . S
Zn193 O208 2.034 . S
Zn193 O212 2.025 . S
Zn193 O214 2.024 . S
C194 O213 1.246 1_545 S
C194 O214 1.249 . S
N195 C196 1.307 . S
N195 C197 1.333 . S
N195 Zn201 2.020 . S
C196 N195 1.307 . S
C196 C200 1.370 . S
C196 H207 0.948 . S
C197 N195 1.333 . S
C197 C198 1.379 . S
C197 H205 0.952 . S
C198 C197 1.379 . S
C198 C199 1.390 . S
C198 H218 0.949 . S
C199 C198 1.390 . S
C199 C200 1.357 . S
C200 C196 1.370 . S
C200 C199 1.357 . S
C200 H219 0.950 . S
Zn201 N195 2.020 . S
Zn201 O204 2.025 . S
Zn201 O209 2.024 . S
Zn201 O211 2.039 . S
Zn201 O213 2.034 . S
O202 C186 1.263 . S
O202 Zn193 2.039 . S
C203 O208 1.246 1_565 S
C203 O209 1.249 . S
O204 C186 1.243 1_565 S
O204 Zn201 2.025 . S
H205 C197 0.952 . S
H206 C188 0.952 . S
H207 C196 0.948 . S
O208 Zn193 2.034 . S
O208 C203 1.246 1_545 S
O209 Zn201 2.024 . S
O209 C203 1.249 . S
H210 C192 0.948 . S
O211 Zn201 2.039 . S
O211 C215 1.251 1_565 S
O212 Zn193 2.025 . S
O212 C215 1.254 . S
O213 C194 1.246 1_565 S
O213 Zn201 2.034 . S
O214 Zn193 2.024 . S
O214 C194 1.249 . S
C215 O211 1.251 1_545 S
C215 O212 1.254 . S
H216 C189 0.949 . S
H217 C191 0.950 . S
H218 C198 0.949 . S
H219 C200 0.950 . S
C220 O236 1.251 . S
C220 O238 1.254 . S
N221 C222 1.333 . S
N221 C226 1.307 . S
N221 Zn227 2.020 . S
C222 N221 1.333 . S
C222 C223 1.379 . S
C222 H240 0.952 . S
C223 C222 1.379 . S
C223 C224 1.390 . S
C223 H250 0.949 . S
C224 C223 1.390 . S
C224 C225 1.357 . S
C225 C224 1.357 . S
C225 C226 1.370 . S
C225 H251 0.950 . S
C226 N221 1.307 . S
C226 C225 1.370 . S
C226 H244 0.948 . S
Zn227 N221 2.020 . S
Zn227 O236 2.039 . S
Zn227 O242 2.034 . S
Zn227 O246 2.025 . S
Zn227 O248 2.024 . S
C228 O247 1.246 . S
C228 O248 1.249 . S
N229 C230 1.307 . S
N229 C231 1.333 . S
N229 Zn235 2.020 . S
C230 N229 1.307 . S
C230 C234 1.370 . S
C230 H241 0.948 . S
C231 N229 1.333 . S
C231 C232 1.379 . S
C231 H239 0.952 . S
C232 C231 1.379 . S
C232 C233 1.390 . S
C232 H252 0.949 . S
C233 C232 1.390 . S
C233 C234 1.357 . S
C234 C230 1.370 . S
C234 C233 1.357 . S
C234 H253 0.950 . S
Zn235 N229 2.020 . S
Zn235 O238 2.025 . S
Zn235 O243 2.024 . S
Zn235 O245 2.039 . S
Zn235 O247 2.034 . S
O236 C220 1.251 . S
O236 Zn227 2.039 . S
C237 O242 1.246 . S
C237 O243 1.249 . S
O238 C220 1.254 . S
O238 Zn235 2.025 . S
H239 C231 0.952 . S
H240 C222 0.952 . S
H241 C230 0.948 . S
O242 Zn227 2.034 . S
O242 C237 1.246 . S
O243 Zn235 2.024 . S
O243 C237 1.249 . S
H244 C226 0.948 . S
O245 Zn235 2.039 . S
O245 C249 1.251 . S
O246 Zn227 2.025 . S
O246 C249 1.254 . S
O247 C228 1.246 . S
O247 Zn235 2.034 . S
O248 Zn227 2.024 . S
O248 C228 1.249 . S
C249 O245 1.251 . S
C249 O246 1.254 . S
H250 C223 0.949 . S
H251 C225 0.950 . S
H252 C232 0.949 . S
H253 C234 0.950 . S
C254 O270 1.251 . S
C254 O272 1.254 . S
N255 C256 1.333 . S
N255 C260 1.307 . S
N255 Zn261 2.020 . S
C256 N255 1.333 . S
C256 C257 1.379 . S
C256 H274 0.952 . S
C257 C256 1.379 . S
C257 C258 1.390 . S
C257 H284 0.949 . S
C258 C257 1.390 . S
C258 C259 1.357 . S
C259 C258 1.357 . S
C259 C260 1.370 . S
C259 H285 0.953 . S
C260 N255 1.307 . S
C260 C259 1.370 . S
C260 H278 0.938 1_455 S
Zn261 N255 2.020 . S
Zn261 O270 2.039 . S
Zn261 O276 2.034 1_455 S
Zn261 O280 2.025 1_455 S
Zn261 O282 2.024 . S
C262 O281 1.246 . S
C262 O282 1.249 . S
N263 C264 1.307 . S
N263 C265 1.333 . S
N263 Zn269 2.020 . S
C264 N263 1.307 . S
C264 C268 1.370 . S
C264 H275 0.948 . S
C265 N263 1.333 . S
C265 C266 1.380 . S
C265 H273 0.952 1_455 S
C266 C265 1.380 . S
C266 C267 1.395 . S
C266 H286 0.943 1_455 S
C267 C266 1.395 . S
C267 C268 1.357 . S
C268 C264 1.370 . S
C268 C267 1.357 . S
C268 H287 0.950 . S
Zn269 N263 2.020 . S
Zn269 O272 2.025 . S
Zn269 O277 2.024 1_455 S
Zn269 O279 2.039 1_455 S
Zn269 O281 2.034 . S
O270 C254 1.251 . S
O270 Zn261 2.039 . S
C271 O276 1.246 . S
C271 O277 1.249 . S
O272 C254 1.254 . S
O272 Zn269 2.025 . S
H273 C265 0.952 1_655 S
H274 C256 0.952 . S
H275 C264 0.948 . S
O276 Zn261 2.034 1_655 S
O276 C271 1.246 . S
O277 Zn269 2.024 1_655 S
O277 C271 1.249 . S
H278 C260 0.938 1_655 S
O279 Zn269 2.039 1_655 S
O279 C283 1.251 . S
O280 Zn261 2.025 1_655 S
O280 C283 1.254 . S
O281 C262 1.246 . S
O281 Zn269 2.034 . S
O282 Zn261 2.024 . S
O282 C262 1.249 . S
C283 O279 1.251 . S
C283 O280 1.254 . S
H284 C257 0.949 . S
H285 C259 0.953 . S
H286 C266 0.943 1_655 S
H287 C268 0.950 . S
H288 C296 0.950 . S
H289 C301 0.950 . S
H290 C298 0.950 . S
H291 C300 0.950 . S
H292 C302 0.950 . S
H293 C304 0.950 . S
H294 C306 0.950 . S
H295 C307 0.950 . S
C296 H288 0.950 . S
C296 C297 1.386 . S
C296 C298 1.391 . S
C297 C296 1.386 . S
C297 C301 1.393 1_545 S
C298 H290 0.950 . S
C298 C296 1.391 . S
C298 C299 1.400 . S
C299 C298 1.400 . S
C299 C300 1.398 1_545 S
C299 C305 1.491 . S
C300 H291 0.950 . S
C300 C299 1.398 1_565 S
C300 C301 1.391 . S
C301 H289 0.950 . S
C301 C297 1.393 1_565 S
C301 C300 1.391 . S
C302 H292 0.950 . S
C302 C303 1.386 1_565 S
C302 C304 1.391 . S
C303 C302 1.386 1_545 S
C303 C307 1.393 . S
C304 H293 0.950 . S
C304 C302 1.391 . S
C304 C305 1.400 1_565 S
C305 C299 1.491 . S
C305 C304 1.400 1_545 S
C305 C306 1.398 . S
C306 H294 0.950 . S
C306 C305 1.398 . S
C306 C307 1.391 . S
C307 H295 0.950 . S
C307 C303 1.393 . S
C307 C306 1.391 . S
H308 C316 0.950 . S
H309 C321 0.950 . S
H310 C318 0.950 . S
H311 C320 0.950 . S
H312 C322 0.950 . S
H313 C324 0.950 . S
H314 C326 0.950 . S
H315 C327 0.950 . S
C316 H308 0.950 . S
C316 C317 1.386 . S
C316 C318 1.391 . S
C317 C316 1.386 . S
C317 C321 1.393 . S
C318 H310 0.950 . S
C318 C316 1.391 . S
C318 C319 1.400 . S
C319 C318 1.400 . S
C319 C320 1.398 . S
C319 C325 1.491 . S
C320 H311 0.950 . S
C320 C319 1.398 . S
C320 C321 1.391 . S
C321 H309 0.950 . S
C321 C317 1.393 . S
C321 C320 1.391 . S
C322 H312 0.950 . S
C322 C323 1.386 . S
C322 C324 1.391 . S
C323 C322 1.386 . S
C323 C327 1.393 . S
C324 H313 0.950 . S
C324 C322 1.391 . S
C324 C325 1.400 . S
C325 C319 1.491 . S
C325 C324 1.400 . S
C325 C326 1.398 . S
C326 H314 0.950 . S
C326 C325 1.398 . S
C326 C327 1.391 . S
C327 H315 0.950 . S
C327 C323 1.393 . S
C327 C326 1.391 . S
H328 C336 0.950 . S
H329 C341 0.950 . S
H330 C338 0.950 . S
H331 C340 0.950 . S
H332 C342 0.950 . S
H333 C344 0.950 . S
H334 C346 0.950 . S
H335 C347 0.950 . S
C336 H328 0.950 . S
C336 C337 1.386 . S
C336 C338 1.391 . S
C337 C336 1.386 . S
C337 C341 1.393 . S
C338 H330 0.950 . S
C338 C336 1.391 . S
C338 C339 1.400 . S
C339 C338 1.400 . S
C339 C340 1.398 . S
C339 C345 1.491 . S
C340 H331 0.950 . S
C340 C339 1.398 . S
C340 C341 1.391 . S
C341 H329 0.950 . S
C341 C337 1.393 . S
C341 C340 1.391 . S
C342 H332 0.950 . S
C342 C343 1.386 . S
C342 C344 1.391 . S
C343 C342 1.386 . S
C343 C347 1.393 . S
C344 H333 0.950 . S
C344 C342 1.391 . S
C344 C345 1.400 . S
C345 C339 1.491 . S
C345 C344 1.400 . S
C345 C346 1.398 . S
C346 H334 0.950 . S
C346 C345 1.398 . S
C346 C347 1.391 . S
C347 H335 0.950 . S
C347 C343 1.393 . S
C347 C346 1.391 . S
H348 C356 0.950 . S
H349 C361 0.950 . S
H350 C358 0.950 . S
H351 C360 0.950 . S
H352 C362 0.950 . S
H353 C364 0.950 . S
H354 C366 0.950 . S
H355 C367 0.939 1_655 S
C356 H348 0.950 . S
C356 C357 1.386 . S
C356 C358 1.391 . S
C357 C356 1.386 . S
C357 C361 1.393 . S
C358 H350 0.950 . S
C358 C356 1.391 . S
C358 C359 1.400 . S
C359 C358 1.400 . S
C359 C360 1.398 . S
C359 C365 1.491 . S
C360 H351 0.950 . S
C360 C359 1.398 . S
C360 C361 1.391 . S
C361 H349 0.950 . S
C361 C357 1.393 . S
C361 C360 1.391 . S
C362 H352 0.950 . S
C362 C363 1.386 . S
C362 C364 1.391 . S
C363 C362 1.386 . S
C363 C367 1.393 . S
C364 H353 0.950 . S
C364 C362 1.391 . S
C364 C365 1.400 . S
C365 C359 1.491 . S
C365 C364 1.400 . S
C365 C366 1.398 . S
C366 H354 0.950 . S
C366 C365 1.398 . S
C366 C367 1.391 . S
C367 H355 0.939 1_455 S
C367 C363 1.393 . S
C367 C366 1.391 . S
H368 C376 0.950 . S
H369 C381 0.950 . S
H370 C378 0.950 . S
H371 C380 0.950 1_554 S
H372 C382 0.950 . S
H373 C384 0.950 . S
H374 C386 0.950 . S
H375 C387 0.950 . S
C376 H368 0.950 . S
C376 C377 1.386 1_545 S
C376 C378 1.391 . S
C377 C376 1.386 1_565 S
C377 C381 1.393 1_556 S
C378 H370 0.950 . S
C378 C376 1.391 . S
C378 C379 1.400 1_545 S
C379 C378 1.400 1_565 S
C379 C380 1.398 . S
C379 C385 1.491 . S
C380 H371 0.950 1_556 S
C380 C379 1.398 . S
C380 C381 1.391 1_556 S
C381 H369 0.950 . S
C381 C377 1.393 1_554 S
C381 C380 1.391 1_554 S
C382 H372 0.950 . S
C382 C383 1.378 1_565 S
C382 C384 1.391 . S
C383 C382 1.378 1_545 S
C383 C387 1.400 . S
C384 H373 0.950 . S
C384 C382 1.391 . S
C384 C385 1.400 . S
C385 C379 1.491 . S
C385 C384 1.400 . S
C385 C386 1.398 1_565 S
C386 H374 0.950 . S
C386 C385 1.398 1_545 S
C386 C387 1.391 . S
C387 H375 0.950 . S
C387 C383 1.400 . S
C387 C386 1.391 . S
H388 C396 0.950 . S
H389 C401 0.950 . S
H390 C398 0.950 1_554 S
H391 C400 0.950 . S
H392 C402 0.950 . S
H393 C404 0.950 . S
H394 C406 0.950 . S
H395 C407 0.950 . S
C396 H388 0.950 . S
C396 C397 1.386 . S
C396 C398 1.391 1_554 S
C397 C396 1.386 . S
C397 C401 1.393 1_554 S
C398 H390 0.950 1_556 S
C398 C396 1.391 1_556 S
C398 C399 1.400 . S
C399 C398 1.400 . S
C399 C400 1.398 . S
C399 C405 1.491 . S
C400 H391 0.950 . S
C400 C399 1.398 . S
C400 C401 1.391 . S
C401 H389 0.950 . S
C401 C397 1.393 1_556 S
C401 C400 1.391 . S
C402 H392 0.950 . S
C402 C403 1.386 . S
C402 C404 1.391 . S
C403 C402 1.386 . S
C403 C407 1.393 . S
C404 H393 0.950 . S
C404 C402 1.391 . S
C404 C405 1.400 . S
C405 C399 1.491 . S
C405 C404 1.400 . S
C405 C406 1.398 . S
C406 H394 0.950 . S
C406 C405 1.398 . S
C406 C407 1.391 . S
C407 H395 0.950 . S
C407 C403 1.393 . S
C407 C406 1.391 . S
H408 C416 0.950 . S
H409 C421 0.950 . S
H410 C418 0.950 . S
H411 C420 0.950 . S
H412 C422 0.950 . S
H413 C424 0.950 . S
H414 C426 0.950 . S
H415 C427 0.950 . S
C416 H408 0.950 . S
C416 C417 1.386 . S
C416 C418 1.391 1_554 S
C417 C416 1.386 . S
C417 C421 1.393 . S
C418 H410 0.950 . S
C418 C416 1.391 1_556 S
C418 C419 1.400 . S
C419 C418 1.400 . S
C419 C420 1.398 1_556 S
C419 C425 1.491 . S
C420 H411 0.950 . S
C420 C419 1.398 1_554 S
C420 C421 1.391 . S
C421 H409 0.950 . S
C421 C417 1.393 . S
C421 C420 1.391 . S
C422 H412 0.950 . S
C422 C423 1.386 . S
C422 C424 1.391 . S
C423 C422 1.386 . S
C423 C427 1.393 . S
C424 H413 0.950 . S
C424 C422 1.391 . S
C424 C425 1.400 . S
C425 C419 1.491 . S
C425 C424 1.400 . S
C425 C426 1.398 . S
C426 H414 0.950 . S
C426 C425 1.398 . S
C426 C427 1.391 . S
C427 H415 0.950 . S
C427 C423 1.393 . S
C427 C426 1.391 . S
H428 C436 0.959 . S
H429 C441 0.950 1_554 S
H430 C438 0.950 . S
H431 C440 0.950 . S
H432 C442 0.950 . S
H433 C444 0.950 . S
H434 C446 0.950 . S
H435 C447 0.950 . S
C436 H428 0.959 . S
C436 C437 1.375 1_455 S
C436 C438 1.394 . S
C437 C436 1.375 1_655 S
C437 C441 1.393 . S
C438 H430 0.950 . S
C438 C436 1.394 . S
C438 C439 1.400 1_455 S
C439 C438 1.400 1_655 S
C439 C440 1.398 . S
C439 C445 1.491 1_655 S
C440 H431 0.950 . S
C440 C439 1.398 . S
C440 C441 1.391 . S
C441 H429 0.950 1_556 S
C441 C437 1.393 . S
C441 C440 1.391 . S
C442 H432 0.950 . S
C442 C443 1.386 1_655 S
C442 C444 1.391 . S
C443 C442 1.386 1_455 S
C443 C447 1.393 . S
C444 H433 0.950 . S
C444 C442 1.391 . S
C444 C445 1.401 1_655 S
C445 C439 1.491 1_455 S
C445 C444 1.401 1_455 S
C445 C446 1.398 . S
C446 H434 0.950 . S
C446 C445 1.398 . S
C446 C447 1.391 . S
C447 H435 0.950 . S
C447 C443 1.393 . S
C447 C446 1.391 . S
H448 C456 0.950 . S
H449 C461 0.950 . S
H450 C458 0.950 . S
H451 C460 0.950 . S
H452 C462 0.950 . S
H453 C464 0.950 . S
H454 C466 0.950 . S
H455 C467 0.950 1_655 S
C456 H448 0.950 . S
C456 C457 1.386 . S
C456 C458 1.391 . S
C457 C456 1.386 . S
C457 C461 1.393 . S
C458 H450 0.950 . S
C458 C456 1.391 . S
C458 C459 1.400 . S
C459 C458 1.400 . S
C459 C460 1.398 . S
C459 C465 1.491 . S
C460 H451 0.950 . S
C460 C459 1.398 . S
C460 C461 1.391 . S
C461 H449 0.950 . S
C461 C457 1.393 . S
C461 C460 1.391 . S
C462 H452 0.950 . S
C462 C463 1.386 . S
C462 C464 1.391 . S
C463 C462 1.386 . S
C463 C467 1.393 . S
C464 H453 0.950 . S
C464 C462 1.391 . S
C464 C465 1.400 . S
C465 C459 1.491 . S
C465 C464 1.400 . S
C465 C466 1.398 . S
C466 H454 0.950 . S
C466 C465 1.398 . S
C466 C467 1.391 . S
C467 H455 0.950 1_455 S
C467 C463 1.393 . S
C467 C466 1.391 . S
H468 C476 0.950 . S
H469 C481 0.950 . S
H470 C478 0.950 . S
H471 C480 0.950 . S
H472 C482 0.950 . S
H473 C484 0.950 . S
H474 C486 0.950 . S
H475 C487 0.950 . S
C476 H468 0.950 . S
C476 C477 1.386 . S
C476 C478 1.391 . S
C477 C476 1.386 . S
C477 C481 1.393 1_545 S
C478 H470 0.950 . S
C478 C476 1.391 . S
C478 C479 1.400 . S
C479 C478 1.400 . S
C479 C480 1.398 1_545 S
C479 C485 1.491 . S
C480 H471 0.950 . S
C480 C479 1.398 1_565 S
C480 C481 1.391 . S
C481 H469 0.950 . S
C481 C477 1.393 1_565 S
C481 C480 1.391 . S
C482 H472 0.950 . S
C482 C483 1.387 1_565 S
C482 C484 1.391 . S
C483 C482 1.387 1_545 S
C483 C487 1.392 . S
C484 H473 0.950 . S
C484 C482 1.391 . S
C484 C485 1.400 1_565 S
C485 C479 1.491 . S
C485 C484 1.400 1_545 S
C485 C486 1.398 . S
C486 H474 0.950 . S
C486 C485 1.398 . S
C486 C487 1.391 . S
C487 H475 0.950 . S
C487 C483 1.392 . S
C487 C486 1.391 . S
H488 C496 0.950 . S
H489 C501 0.950 . S
H490 C498 0.950 . S
H491 C500 0.950 . S
H492 C502 0.950 . S
H493 C504 0.950 . S
H494 C506 0.950 . S
H495 C507 0.950 . S
C496 H488 0.950 . S
C496 C497 1.386 . S
C496 C498 1.391 . S
C497 C496 1.386 . S
C497 C501 1.393 . S
C498 H490 0.950 . S
C498 C496 1.391 . S
C498 C499 1.400 . S
C499 C498 1.400 . S
C499 C500 1.398 . S
C499 C505 1.491 . S
C500 H491 0.950 . S
C500 C499 1.398 . S
C500 C501 1.391 . S
C501 H489 0.950 . S
C501 C497 1.393 . S
C501 C500 1.391 . S
C502 H492 0.950 . S
C502 C503 1.386 . S
C502 C504 1.391 . S
C503 C502 1.386 . S
C503 C507 1.393 . S
C504 H493 0.950 . S
C504 C502 1.391 . S
C504 C505 1.400 . S
C505 C499 1.491 . S
C505 C504 1.400 . S
C505 C506 1.398 . S
C506 H494 0.950 . S
C506 C505 1.398 . S
C506 C507 1.391 . S
C507 H495 0.950 . S
C507 C503 1.393 . S
C507 C506 1.391 . S
H508 C516 0.950 . S
H509 C521 0.950 . S
H510 C518 0.950 . S
H511 C520 0.950 . S
H512 C522 0.950 . S
H513 C524 0.950 . S
H514 C526 0.950 . S
H515 C527 0.950 . S
C516 H508 0.950 . S
C516 C517 1.386 . S
C516 C518 1.391 . S
C517 C516 1.386 . S
C517 C521 1.393 . S
C518 H510 0.950 . S
C518 C516 1.391 . S
C518 C519 1.400 . S
C519 C518 1.400 . S
C519 C520 1.398 . S
C519 C525 1.491 . S
C520 H511 0.950 . S
C520 C519 1.398 . S
C520 C521 1.391 . S
C521 H509 0.950 . S
C521 C517 1.393 . S
C521 C520 1.391 . S
C522 H512 0.950 . S
C522 C523 1.386 . S
C522 C524 1.391 . S
C523 C522 1.386 . S
C523 C527 1.393 . S
C524 H513 0.950 . S
C524 C522 1.391 . S
C524 C525 1.400 . S
C525 C519 1.491 . S
C525 C524 1.400 . S
C525 C526 1.398 . S
C526 H514 0.950 . S
C526 C525 1.398 . S
C526 C527 1.391 . S
C527 H515 0.950 . S
C527 C523 1.393 . S
C527 C526 1.391 . S
H528 C536 0.950 . S
H529 C541 0.950 . S
H530 C538 0.950 . S
H531 C540 0.950 . S
H532 C542 0.950 . S
H533 C544 0.950 . S
H534 C546 0.950 . S
H535 C547 0.950 . S
C536 H528 0.950 . S
C536 C537 1.386 . S
C536 C538 1.391 . S
C537 C536 1.386 . S
C537 C541 1.393 1_655 S
C538 H530 0.950 . S
C538 C536 1.391 . S
C538 C539 1.400 . S
C539 C538 1.400 . S
C539 C540 1.398 1_655 S
C539 C545 1.491 1_655 S
C540 H531 0.950 . S
C540 C539 1.398 1_455 S
C540 C541 1.391 . S
C541 H529 0.950 . S
C541 C537 1.393 1_455 S
C541 C540 1.391 . S
C542 H532 0.950 . S
C542 C543 1.386 . S
C542 C544 1.391 . S
C543 C542 1.386 . S
C543 C547 1.393 1_455 S
C544 H533 0.950 . S
C544 C542 1.391 . S
C544 C545 1.400 . S
C545 C539 1.491 1_455 S
C545 C544 1.400 . S
C545 C546 1.398 1_455 S
C546 H534 0.950 . S
C546 C545 1.398 1_655 S
C546 C547 1.391 . S
C547 H535 0.950 . S
C547 C543 1.393 1_655 S
C547 C546 1.391 . S
H548 C556 0.950 . S
H549 C561 0.950 . S
H550 C558 0.950 1_554 S
H551 C560 0.950 . S
H552 C562 0.950 . S
H553 C564 0.950 . S
H554 C566 0.950 . S
H555 C567 0.950 . S
C556 H548 0.950 . S
C556 C557 1.386 1_545 S
C556 C558 1.391 1_554 S
C557 C556 1.386 1_565 S
C557 C561 1.393 1_554 S
C558 H550 0.950 1_556 S
C558 C556 1.391 1_556 S
C558 C559 1.400 1_545 S
C559 C558 1.400 1_565 S
C559 C560 1.398 . S
C559 C565 1.491 . S
C560 H551 0.950 . S
C560 C559 1.398 . S
C560 C561 1.391 . S
C561 H549 0.950 . S
C561 C557 1.393 1_556 S
C561 C560 1.391 . S
C562 H552 0.950 . S
C562 C563 1.386 1_565 S
C562 C564 1.391 . S
C563 C562 1.386 1_545 S
C563 C567 1.393 . S
C564 H553 0.950 . S
C564 C562 1.391 . S
C564 C565 1.400 . S
C565 C559 1.491 . S
C565 C564 1.400 . S
C565 C566 1.398 1_565 S
C566 H554 0.950 . S
C566 C565 1.398 1_545 S
C566 C567 1.391 . S
C567 H555 0.950 . S
C567 C563 1.393 . S
C567 C566 1.391 . S
H568 C576 0.950 1_554 S
H569 C581 0.950 1_554 S
H570 C578 0.950 . S
H571 C580 0.950 . S
H572 C582 0.950 . S
H573 C584 0.950 . S
H574 C586 0.950 . S
H575 C587 0.950 . S
C576 H568 0.950 1_556 S
C576 C577 1.386 1_556 S
C576 C578 1.391 . S
C577 C576 1.386 1_554 S
C577 C581 1.393 1_554 S
C578 H570 0.950 . S
C578 C576 1.391 . S
C578 C579 1.400 . S
C579 C578 1.400 . S
C579 C580 1.398 . S
C579 C585 1.491 . S
C580 H571 0.950 . S
C580 C579 1.398 . S
C580 C581 1.391 . S
C581 H569 0.950 1_556 S
C581 C577 1.393 1_556 S
C581 C580 1.391 . S
C582 H572 0.950 . S
C582 C583 1.386 . S
C582 C584 1.391 . S
C583 C582 1.386 . S
C583 C587 1.393 . S
C584 H573 0.950 . S
C584 C582 1.391 . S
C584 C585 1.400 . S
C585 C579 1.491 . S
C585 C584 1.400 . S
C585 C586 1.398 . S
C586 H574 0.950 . S
C586 C585 1.398 . S
C586 C587 1.391 . S
C587 H575 0.950 . S
C587 C583 1.393 . S
C587 C586 1.391 . S
H588 C596 0.950 . S
H589 C601 0.950 1_556 S
H590 C598 0.950 . S
H591 C600 0.950 . S
H592 C602 0.950 . S
H593 C604 0.950 . S
H594 C606 0.950 1_554 S
H595 C607 0.950 . S
C596 H588 0.950 . S
C596 C597 1.386 . S
C596 C598 1.391 . S
C597 C596 1.386 . S
C597 C601 1.393 . S
C598 H590 0.950 . S
C598 C596 1.391 . S
C598 C599 1.400 1_554 S
C599 C598 1.400 1_556 S
C599 C600 1.398 . S
C599 C605 1.491 . S
C600 H591 0.950 . S
C600 C599 1.398 . S
C600 C601 1.391 1_556 S
C601 H589 0.950 1_554 S
C601 C597 1.393 . S
C601 C600 1.391 1_554 S
C602 H592 0.950 . S
C602 C603 1.386 . S
C602 C604 1.391 . S
C603 C602 1.386 . S
C603 C607 1.393 . S
C604 H593 0.950 . S
C604 C602 1.391 . S
C604 C605 1.400 . S
C605 C599 1.491 . S
C605 C604 1.400 . S
C605 C606 1.398 . S
C606 H594 0.950 1_556 S
C606 C605 1.398 . S
C606 C607 1.391 . S
C607 H595 0.950 . S
C607 C603 1.393 . S
C607 C606 1.391 . S
H608 C616 0.950 . S
H609 C621 0.919 1_655 S
H610 C618 0.950 . S
H611 C620 0.950 1_655 S
H612 C622 0.950 1_655 S
H613 C624 0.950 1_655 S
H614 C626 0.950 . S
H615 C627 0.950 . S
C616 H608 0.950 . S
C616 C617 1.386 . S
C616 C618 1.391 . S
C617 C616 1.386 . S
C617 C621 1.393 . S
C618 H610 0.950 . S
C618 C616 1.391 . S
C618 C619 1.400 . S
C619 C618 1.400 . S
C619 C620 1.398 . S
C619 C625 1.491 . S
C620 H611 0.950 1_455 S
C620 C619 1.398 . S
C620 C621 1.391 . S
C621 H609 0.919 1_455 S
C621 C617 1.393 . S
C621 C620 1.391 . S
C622 H612 0.950 1_455 S
C622 C623 1.386 . S
C622 C624 1.391 . S
C623 C622 1.386 . S
C623 C627 1.393 . S
C624 H613 0.950 1_455 S
C624 C622 1.391 . S
C624 C625 1.400 . S
C625 C619 1.491 . S
C625 C624 1.400 . S
C625 C626 1.398 . S
C626 H614 0.950 . S
C626 C625 1.398 . S
C626 C627 1.391 . S
C627 H615 0.950 . S
C627 C623 1.393 . S
C627 C626 1.391 . S
H628 C636 0.950 . S
H629 C641 0.950 . S
H630 C638 0.950 . S
H631 C640 0.950 . S
H632 C642 0.950 . S
H633 C644 0.950 . S
H634 C646 0.950 . S
H635 C647 0.950 . S
C636 H628 0.950 . S
C636 C637 1.386 1_565 S
C636 C638 1.391 . S
C637 C636 1.386 1_545 S
C637 C641 1.393 . S
C638 H630 0.950 . S
C638 C636 1.391 . S
C638 C639 1.400 1_565 S
C639 C638 1.400 1_545 S
C639 C640 1.398 . S
C639 C645 1.491 . S
C640 H631 0.950 . S
C640 C639 1.398 . S
C640 C641 1.391 . S
C641 H629 0.950 . S
C641 C637 1.393 . S
C641 C640 1.391 . S
C642 H632 0.950 . S
C642 C643 1.386 . S
C642 C644 1.391 . S
C643 C642 1.386 . S
C643 C647 1.393 1_545 S
C644 H633 0.950 . S
C644 C642 1.391 . S
C644 C645 1.400 1_556 S
C645 C639 1.491 . S
C645 C644 1.400 1_554 S
C645 C646 1.398 1_545 S
C646 H634 0.950 . S
C646 C645 1.398 1_565 S
C646 C647 1.391 1_554 S
C647 H635 0.950 . S
C647 C643 1.393 1_565 S
C647 C646 1.391 1_556 S
H648 C656 0.950 . S
H649 C661 0.950 . S
H650 C658 0.950 . S
H651 C660 0.950 . S
H652 C662 0.950 . S
H653 C664 0.950 1_554 S
H654 C666 0.950 1_554 S
H655 C667 0.950 . S
C656 H648 0.950 . S
C656 C657 1.386 . S
C656 C658 1.391 . S
C657 C656 1.386 . S
C657 C661 1.393 . S
C658 H650 0.950 . S
C658 C656 1.391 . S
C658 C659 1.400 . S
C659 C658 1.400 . S
C659 C660 1.398 . S
C659 C665 1.491 . S
C660 H651 0.950 . S
C660 C659 1.398 . S
C660 C661 1.391 . S
C661 H649 0.950 . S
C661 C657 1.393 . S
C661 C660 1.391 . S
C662 H652 0.950 . S
C662 C663 1.386 . S
C662 C664 1.391 . S
C663 C662 1.386 . S
C663 C667 1.393 . S
C664 H653 0.950 1_556 S
C664 C662 1.391 . S
C664 C665 1.400 1_556 S
C665 C659 1.491 . S
C665 C664 1.400 1_554 S
C665 C666 1.398 1_554 S
C666 H654 0.950 1_556 S
C666 C665 1.398 1_556 S
C666 C667 1.391 . S
C667 H655 0.950 . S
C667 C663 1.393 . S
C667 C666 1.391 . S
H668 C676 0.950 . S
H669 C681 0.950 . S
H670 C678 0.950 . S
H671 C680 0.950 1_556 S
H672 C682 0.950 . S
H673 C684 0.950 . S
H674 C686 0.950 . S
H675 C687 0.950 . S
C676 H668 0.950 . S
C676 C677 1.386 . S
C676 C678 1.391 . S
C677 C676 1.386 . S
C677 C681 1.393 . S
C678 H670 0.950 . S
C678 C676 1.391 . S
C678 C679 1.400 . S
C679 C678 1.400 . S
C679 C680 1.398 . S
C679 C685 1.491 1_554 S
C680 H671 0.950 1_554 S
C680 C679 1.398 . S
C680 C681 1.391 . S
C681 H669 0.950 . S
C681 C677 1.393 . S
C681 C680 1.391 . S
C682 H672 0.950 . S
C682 C683 1.386 . S
C682 C684 1.391 . S
C683 C682 1.386 . S
C683 C687 1.393 . S
C684 H673 0.950 . S
C684 C682 1.391 . S
C684 C685 1.400 . S
C685 C679 1.491 1_556 S
C685 C684 1.400 . S
C685 C686 1.398 1_556 S
C686 H674 0.950 . S
C686 C685 1.398 1_554 S
C686 C687 1.391 1_554 S
C687 H675 0.950 . S
C687 C683 1.393 . S
C687 C686 1.391 1_556 S
H688 C696 0.950 . S
H689 C701 0.950 . S
H690 C698 0.950 . S
H691 C700 0.950 . S
H692 C702 0.950 . S
H693 C704 0.950 . S
H694 C706 0.950 . S
H695 C707 0.950 . S
C696 H688 0.950 . S
C696 C697 1.386 1_455 S
C696 C698 1.391 . S
C697 C696 1.386 1_655 S
C697 C701 1.393 . S
C698 H690 0.950 . S
C698 C696 1.391 . S
C698 C699 1.400 1_455 S
C699 C698 1.400 1_655 S
C699 C700 1.398 . S
C699 C705 1.491 . S
C700 H691 0.950 . S
C700 C699 1.398 . S
C700 C701 1.391 . S
C701 H689 0.950 . S
C701 C697 1.393 . S
C701 C700 1.391 . S
C702 H692 0.950 . S
C702 C703 1.386 . S
C702 C704 1.391 . S
C703 C702 1.386 . S
C703 C707 1.393 1_655 S
C704 H693 0.950 . S
C704 C702 1.391 . S
C704 C705 1.400 . S
C705 C699 1.491 . S
C705 C704 1.400 . S
C705 C706 1.398 1_655 S
C706 H694 0.950 . S
C706 C705 1.398 1_455 S
C706 C707 1.391 . S
C707 H695 0.950 . S
C707 C703 1.393 1_455 S
C707 C706 1.391 . S
H708 C716 0.950 . S
H709 C721 0.950 1_545 S
H710 C718 0.950 . S
H711 C720 0.943 1_545 S
H712 C722 0.950 1_545 S
H713 C724 0.950 1_545 S
H714 C726 0.950 . S
H715 C727 0.950 . S
C716 H708 0.950 . S
C716 C717 1.386 . S
C716 C718 1.391 . S
C717 C716 1.386 . S
C717 C721 1.393 . S
C718 H710 0.950 . S
C718 C716 1.391 . S
C718 C719 1.400 . S
C719 C718 1.400 . S
C719 C720 1.404 . S
C719 C725 1.491 . S
C720 H711 0.943 1_565 S
C720 C719 1.404 . S
C720 C721 1.394 . S
C721 H709 0.950 1_565 S
C721 C717 1.393 . S
C721 C720 1.394 . S
C722 H712 0.950 1_565 S
C722 C723 1.386 . S
C722 C724 1.391 . S
C723 C722 1.386 . S
C723 C727 1.393 . S
C724 H713 0.950 1_565 S
C724 C722 1.391 . S
C724 C725 1.400 . S
C725 C719 1.491 . S
C725 C724 1.400 . S
C725 C726 1.398 . S
C726 H714 0.950 . S
C726 C725 1.398 . S
C726 C727 1.391 . S
C727 H715 0.950 . S
C727 C723 1.393 . S
C727 C726 1.391 . S
H728 C736 0.950 . S
H729 C741 0.950 . S
H730 C738 0.950 . S
H731 C740 0.950 . S
H732 C742 0.950 . S
H733 C744 0.950 . S
H734 C746 0.950 . S
H735 C747 0.950 . S
C736 H728 0.950 . S
C736 C737 1.386 . S
C736 C738 1.391 . S
C737 C736 1.386 . S
C737 C741 1.393 . S
C738 H730 0.950 . S
C738 C736 1.391 . S
C738 C739 1.400 . S
C739 C738 1.400 . S
C739 C740 1.398 . S
C739 C745 1.491 . S
C740 H731 0.950 . S
C740 C739 1.398 . S
C740 C741 1.391 . S
C741 H729 0.950 . S
C741 C737 1.393 . S
C741 C740 1.391 . S
C742 H732 0.950 . S
C742 C743 1.386 . S
C742 C744 1.391 . S
C743 C742 1.386 . S
C743 C747 1.393 . S
C744 H733 0.950 . S
C744 C742 1.391 . S
C744 C745 1.400 . S
C745 C739 1.491 . S
C745 C744 1.400 . S
C745 C746 1.398 . S
C746 H734 0.950 . S
C746 C745 1.398 . S
C746 C747 1.391 . S
C747 H735 0.950 . S
C747 C743 1.393 . S
C747 C746 1.391 . S
H748 C756 0.950 . S
H749 C761 0.950 . S
H750 C758 0.950 . S
H751 C760 0.950 . S
H752 C762 0.950 . S
H753 C764 0.950 . S
H754 C766 0.950 . S
H755 C767 0.950 . S
C756 H748 0.950 . S
C756 C757 1.386 . S
C756 C758 1.391 . S
C757 C756 1.386 . S
C757 C761 1.393 . S
C758 H750 0.950 . S
C758 C756 1.391 . S
C758 C759 1.400 . S
C759 C758 1.400 . S
C759 C760 1.398 . S
C759 C765 1.491 . S
C760 H751 0.950 . S
C760 C759 1.398 . S
C760 C761 1.391 . S
C761 H749 0.950 . S
C761 C757 1.393 . S
C761 C760 1.391 . S
C762 H752 0.950 . S
C762 C763 1.386 . S
C762 C764 1.391 . S
C763 C762 1.386 . S
C763 C767 1.393 . S
C764 H753 0.950 . S
C764 C762 1.391 . S
C764 C765 1.400 . S
C765 C759 1.491 . S
C765 C764 1.400 . S
C765 C766 1.398 . S
C766 H754 0.950 . S
C766 C765 1.398 . S
C766 C767 1.391 . S
C767 H755 0.950 . S
C767 C763 1.393 . S
C767 C766 1.391 . S
C297 C125 1.784 . S
C303 C169 1.909 . S
C323 C190 1.553 . S
C317 C144 1.472 . S
C343 C224 1.388 . S
C337 C87 1.338 . S
C363 C258 1.534 . S
C357 C106 1.438 . S
C383 C160 1.908 . S
C377 C49 1.819 1_556 S
C397 C68 1.460 . S
C403 C199 1.555 . S
C417 C11 1.357 . S
C423 C233 1.390 . S
C437 C30 1.470 . S
C443 C267 1.537 . S
C463 C181 0.610 . S
C457 C97 0.651 . S
C483 C186 1.111 . S
C477 C116 1.088 . S
C503 C220 1.000 . S
C497 C135 0.976 . S
C517 C78 0.535 . S
C523 C254 0.482 . S
C537 C21 0.617 . S
C543 C152 0.585 . S
C563 C215 1.109 . S
C557 C40 1.087 . S
C583 C249 1.014 . S
C577 C59 1.006 . S
C597 C2 0.491 . S
C603 C283 0.461 . S
C617 C101 1.288 . S
C623 C165 1.318 . S
C637 C120 1.731 . S
C643 C194 1.759 . S
C663 C228 1.562 . S
C657 C139 1.532 . S
C683 C262 1.658 . S
C677 C82 1.624 . S
C697 C25 1.288 . S
C703 C156 1.318 . S
C723 C203 1.757 . S
C717 C44 1.725 . S
C743 C237 1.563 . S
C737 C63 1.548 . S
C757 C6 1.629 . S
C763 C271 1.658 . S
