# Generated by pormake.
# Topology anh, (6,3)-cn, num edge types: 1
# Building blocks:
#     Node 0, Type 0, BuildingBlock: CUKXOW_clean_sbu_0, # of connection points: 6
#     Node 1, Type 0, BuildingBlock: CUKXOW_clean_sbu_0, # of connection points: 6
#     Node 2, Type 0, BuildingBlock: CUKXOW_clean_sbu_0, # of connection points: 6
#     Node 3, Type 1, BuildingBlock: BETDAH_clean_linker_0, # of connection points: 3
#     Node 4, Type 1, BuildingBlock: BETDAH_clean_linker_0, # of connection points: 3
#     Node 5, Type 1, BuildingBlock: BETDAH_clean_linker_0, # of connection points: 3
#     Node 6, Type 1, BuildingBlock: BETDAH_clean_linker_0, # of connection points: 3
#     Node 7, Type 1, BuildingBlock: BETDAH_clean_linker_0, # of connection points: 3
#     Node 8, Type 1, BuildingBlock: BETDAH_clean_linker_0, # of connection points: 3
#     Edge 9, Type (0, 1), BuildingBlock: EZIPEK_clean_linker_0, # of connection points: 2
#     Edge 10, Type (0, 1), BuildingBlock: EZIPEK_clean_linker_0, # of connection points: 2
#     Edge 11, Type (0, 1), BuildingBlock: EZIPEK_clean_linker_0, # of connection points: 2
#     Edge 12, Type (0, 1), BuildingBlock: EZIPEK_clean_linker_0, # of connection points: 2
#     Edge 13, Type (0, 1), BuildingBlock: EZIPEK_clean_linker_0, # of connection points: 2
#     Edge 14, Type (0, 1), BuildingBlock: EZIPEK_clean_linker_0, # of connection points: 2
#     Edge 15, Type (0, 1), BuildingBlock: EZIPEK_clean_linker_0, # of connection points: 2
#     Edge 16, Type (0, 1), BuildingBlock: EZIPEK_clean_linker_0, # of connection points: 2
#     Edge 17, Type (0, 1), BuildingBlock: EZIPEK_clean_linker_0, # of connection points: 2
#     Edge 18, Type (0, 1), BuildingBlock: EZIPEK_clean_linker_0, # of connection points: 2
#     Edge 19, Type (0, 1), BuildingBlock: EZIPEK_clean_linker_0, # of connection points: 2
#     Edge 20, Type (0, 1), BuildingBlock: EZIPEK_clean_linker_0, # of connection points: 2
#     Edge 21, Type (0, 1), BuildingBlock: EZIPEK_clean_linker_0, # of connection points: 2
#     Edge 22, Type (0, 1), BuildingBlock: EZIPEK_clean_linker_0, # of connection points: 2
#     Edge 23, Type (0, 1), BuildingBlock: EZIPEK_clean_linker_0, # of connection points: 2
#     Edge 24, Type (0, 1), BuildingBlock: EZIPEK_clean_linker_0, # of connection points: 2
#     Edge 25, Type (0, 1), BuildingBlock: EZIPEK_clean_linker_0, # of connection points: 2
#     Edge 26, Type (0, 1), BuildingBlock: EZIPEK_clean_linker_0, # of connection points: 2
# Relax obj value: 0.077
# Max RMSD: 0.146
# Mean RMSD: 0.087
data_MOF--net-anh--node1-CUKXOW_clean_sbu_0--node2-BETDAH_clean_linker_0--edge1-EZIPEK_clean_linker_0
_symmetry_space_group_name_H-M    P1
_symmetry_Int_Tables_number       1
_symmetry_cell_setting            triclinic
loop_
_symmetry_equiv_pos_as_xyz
'x, y, z'
_cell_length_a     21.34687
_cell_length_b     20.814487
_cell_length_c     34.453774
_cell_angle_alpha  97.765494
_cell_angle_beta   93.464175
_cell_angle_gamma 111.58634
loop_
_atom_site_label
_atom_site_type_symbol
_atom_site_fract_x
_atom_site_fract_y
_atom_site_fract_z
_atom_type_partial_charge
Tb0 Tb 0.07437 0.58855 0.17475 0.0
C1 C 0.03496 0.52144 0.25008 0.0
Tb2 Tb 0.9974 0.43672 0.16267 0.0
O3 O 0.98826 0.61486 0.19205 0.0
O4 O 0.96991 0.52337 0.15298 0.0
O5 O 0.06981 0.57902 0.23651 0.0
C6 C 0.89864 0.31178 0.16056 0.0
O7 O 1.00169 0.46046 0.22681 0.0
C8 C 0.13151 0.47155 0.16223 0.0
C9 C 1.03181 0.50384 0.08903 0.0
O10 O 0.90366 0.36981 0.18183 0.0
O11 O 0.94962 0.32338 0.14013 0.0
O12 O 0.08515 0.41305 0.14397 0.0
O13 O 0.10068 0.50239 0.18321 0.0
O14 O 0.98207 0.45787 0.10366 0.0
O15 O 0.0817 0.55419 0.11288 0.0
C16 C 0.18162 0.70796 0.18101 0.0
O17 O 0.12459 0.69325 0.15924 0.0
O18 O 0.17725 0.65649 0.19925 0.0
C19 C 0.94069 0.55715 0.17356 0.0
Tb20 Tb 0.53857 0.02061 0.49368 0.0
C21 C 0.60875 0.05117 0.41724 0.0
Tb22 Tb 0.69478 0.10262 0.50242 0.0
O23 O 0.52 0.1079 0.4739 0.0
O24 O 0.60719 0.12712 0.51136 0.0
O25 O 0.55434 0.01221 0.43194 0.0
C26 C 0.8102 0.21361 0.50904 0.0
O27 O 0.66602 0.09381 0.43915 0.0
C28 C 0.66463 0.96595 0.4961 0.0
C29 C 0.62178 0.07137 0.5793 0.0
O30 O 0.76918 0.18403 0.47692 0.0
O31 O 0.78748 0.17947 0.53732 0.0
O32 O 0.72673 0.01214 0.5008 0.0
O33 O 0.62693 0.99985 0.49393 0.0
O34 O 0.67772 0.10653 0.56421 0.0
O35 O 0.56336 0.03188 0.55729 0.0
C36 C 0.41829 0.91869 0.4901 0.0
O37 O 0.43333 0.98335 0.50654 0.0
O38 O 0.47084 0.91156 0.47615 0.0
C39 C 0.57739 0.15597 0.49086 0.0
Tb40 Tb 0.51333 0.56135 0.82805 0.0
C41 C 0.57675 0.59194 0.91734 0.0
Tb42 Tb 0.6608 0.62161 0.84674 0.0
O43 O 0.51491 0.46459 0.79637 0.0
O44 O 0.58635 0.51927 0.84498 0.0
O45 O 0.52352 0.58544 0.89285 0.0
C46 C 0.79318 0.64979 0.85097 0.0
O47 O 0.63643 0.60083 0.90514 0.0
C48 C 0.60566 0.71635 0.85403 0.0
C49 C 0.5968 0.5824 0.75704 0.0
O50 O 0.76139 0.67786 0.83006 0.0
O51 O 0.75101 0.60671 0.86982 0.0
O52 O 0.65984 0.72103 0.87534 0.0
O53 O 0.5881 0.66208 0.82821 0.0
O54 O 0.64993 0.5923 0.78248 0.0
O55 O 0.53725 0.57595 0.76881 0.0
C56 C 0.38004 0.52741 0.81954 0.0
O57 O 0.42432 0.58483 0.81168 0.0
O58 O 0.41078 0.49012 0.83263 0.0
C59 C 0.56817 0.46693 0.81754 0.0
H60 H 0.44785 0.92775 0.26333 0.0
H61 H 0.63417 0.05802 0.22564 0.0
H62 H 0.46497 0.92589 0.13963 0.0
C63 C 0.47739 0.9469 0.23983 0.0
C64 C 0.4486 0.92222 0.2005 0.0
C65 C 0.54433 0.99566 0.24896 0.0
C66 C 0.58243 0.02038 0.21839 0.0
C67 C 0.55376 0.9947 0.17869 0.0
C68 C 0.48699 0.94588 0.17011 0.0
N69 N 0.59055 0.01549 0.1466 0.0
C70 C 0.65271 0.07098 0.15048 0.0
H71 H 0.59559 0.43117 0.59392 0.0
H72 H 0.62205 0.63807 0.57284 0.0
H73 H 0.60253 0.47512 0.47568 0.0
C74 C 0.60052 0.46782 0.57361 0.0
C75 C 0.5996 0.44519 0.53335 0.0
C76 C 0.60866 0.53716 0.58813 0.0
C77 C 0.61533 0.58453 0.56161 0.0
C78 C 0.612 0.56209 0.5208 0.0
C79 C 0.60444 0.49245 0.507 0.0
N80 N 0.61611 0.60757 0.49277 0.0
C81 C 0.61987 0.67658 0.50106 0.0
H82 H 0.97732 0.57613 0.92823 0.0
H83 H 0.04367 0.40634 0.90126 0.0
H84 H 0.98191 0.49161 0.80743 0.0
C85 C 0.98986 0.54188 0.9063 0.0
C86 C 0.98546 0.54866 0.86609 0.0
C87 C 1.01131 0.49154 0.91942 0.0
C88 C 1.02453 0.44389 0.89168 0.0
C89 C 1.01207 0.44403 0.85143 0.0
C90 C 0.99126 0.49484 0.83878 0.0
N91 N 1.02833 0.39844 0.82347 0.0
C92 C 0.09313 0.42179 0.81243 0.0
H93 H 0.16534 0.67253 0.40271 0.0
H94 H 1.00006 0.51383 0.44269 0.0
H95 H 0.15073 0.67856 0.52682 0.0
C96 C 0.13884 0.65035 0.42659 0.0
C97 C 0.16431 0.68232 0.46565 0.0
C98 C 0.07955 0.58977 0.41821 0.0
C99 C 0.04595 0.5607 0.4493 0.0
C100 C 0.07225 0.59268 0.48875 0.0
C101 C 0.13049 0.654 0.49653 0.0
N102 N 0.0425 0.5644 0.52139 0.0
C103 C 0.99903 0.49523 0.519 0.0
H104 H 0.599 0.21169 0.73834 0.0
H105 H 0.61957 0.02517 0.76783 0.0
H106 H 0.59636 0.17694 0.85813 0.0
C107 C 0.60145 0.17901 0.75994 0.0
C108 C 0.59824 0.20188 0.79949 0.0
C109 C 0.61022 0.11586 0.74814 0.0
C110 C 0.61257 0.07378 0.77663 0.0
C111 C 0.6056 0.095 0.81632 0.0
C112 C 0.60003 0.15971 0.82752 0.0
N113 N 0.60435 0.05357 0.84602 0.0
C114 C 0.59949 0.98449 0.83935 0.0
H115 H 0.68442 0.55587 0.07439 0.0
H116 H 0.48353 0.54362 0.09347 0.0
H117 H 0.61707 0.53067 0.18885 0.0
C118 C 0.64569 0.54986 0.09413 0.0
C119 C 0.66006 0.54333 0.13347 0.0
C120 C 0.583 0.55101 0.08 0.0
C121 C 0.53159 0.54277 0.10483 0.0
C122 C 0.5425 0.53421 0.14412 0.0
C123 C 0.60747 0.5355 0.15837 0.0
N124 N 0.4903 0.52522 0.17002 0.0
C125 C 0.42298 0.5213 0.16142 0.0
C126 C 0.23331 0.47098 0.12624 0.0
C127 C 0.20836 0.49193 0.16147 0.0
C128 C 0.32838 0.54659 0.19274 0.0
C129 C 0.35073 0.51517 0.15997 0.0
N130 N 0.32161 0.44066 0.09655 0.0
N131 N 0.23575 0.54337 0.23083 0.0
C132 C 0.30227 0.4754 0.12707 0.0
C133 C 0.257 0.52874 0.19531 0.0
N134 N 0.19231 0.45035 0.09116 0.0
N135 N 0.37554 0.59448 0.22156 0.0
H136 H 0.18516 0.53048 0.2351 0.0
H137 H 0.26818 0.56249 0.25717 0.0
H138 H 0.42763 0.60812 0.22098 0.0
H139 H 0.36333 0.62551 0.24379 0.0
H140 H 0.20933 0.44087 0.06409 0.0
H141 H 0.14374 0.4511 0.08837 0.0
H142 H 0.28725 0.40428 0.07384 0.0
H143 H 0.37152 0.44422 0.09559 0.0
C144 C 0.92005 0.29802 0.49403 0.0
C145 C 0.86218 0.28502 0.51449 0.0
C146 C 0.89997 0.40983 0.54184 0.0
C147 C 0.95409 0.42351 0.51837 0.0
N148 N 1.01577 0.38358 0.47077 0.0
N149 N 0.79061 0.32837 0.55314 0.0
C150 C 0.96435 0.36841 0.49411 0.0
C151 C 0.85056 0.34073 0.53745 0.0
N152 N 0.93343 0.24287 0.47554 0.0
N153 N 0.89626 0.4628 0.56864 0.0
H154 H 0.75213 0.27887 0.55014 0.0
H155 H 0.77612 0.36793 0.56631 0.0
H156 H 0.93077 0.51456 0.57201 0.0
H157 H 0.86246 0.45472 0.58974 0.0
H158 H 0.97807 0.24819 0.46326 0.0
H159 H 0.90185 0.1907 0.47506 0.0
H160 H 1.0212 0.34699 0.44889 0.0
H161 H 0.05164 0.43413 0.47193 0.0
C162 C 0.64553 0.82518 0.82383 0.0
C163 C 0.59781 0.78085 0.84532 0.0
C164 C 0.54166 0.86464 0.85383 0.0
C165 C 0.59532 0.91296 0.83768 0.0
N166 N 0.7006 0.94241 0.80922 0.0
N167 N 0.50078 0.75694 0.88127 0.0
C168 C 0.6476 0.89394 0.82287 0.0
C169 C 0.54545 0.79985 0.86015 0.0
N170 N 0.68796 0.80103 0.8037 0.0
N171 N 0.48699 0.88065 0.86276 0.0
H172 H 0.50085 0.7081 0.88512 0.0
H173 H 0.46598 0.7709 0.89667 0.0
H174 H 0.48312 0.92788 0.85863 0.0
H175 H 0.44321 0.84537 0.87122 0.0
H176 H 0.71874 0.82799 0.78417 0.0
H177 H 0.68805 0.75099 0.80358 0.0
H178 H 0.74445 0.93458 0.80253 0.0
H179 H 0.70283 0.99269 0.80702 0.0
C180 C 0.85587 0.60412 0.14471 0.0
C181 C 0.86818 0.55229 0.16347 0.0
C182 C 0.74337 0.49233 0.16237 0.0
C183 C 0.73163 0.54804 0.14733 0.0
N184 N 0.78163 0.66654 0.13465 0.0
N185 N 0.8224 0.45796 0.19991 0.0
C186 C 0.7895 0.60672 0.14163 0.0
C187 C 0.81147 0.49941 0.17503 0.0
N188 N 0.90705 0.64997 0.12852 0.0
N189 N 0.69005 0.43129 0.1633 0.0
H190 H 0.87102 0.46538 0.21192 0.0
H191 H 0.78354 0.42234 0.21205 0.0
H192 H 0.6401 0.42323 0.15365 0.0
H193 H 0.69633 0.3866 0.17015 0.0
H194 H 0.89939 0.68424 0.11109 0.0
H195 H 0.95545 0.64867 0.12892 0.0
H196 H 0.82241 0.71309 0.13393 0.0
H197 H 0.73493 0.67199 0.13412 0.0
C198 C 0.3493 0.79685 0.4984 0.0
C199 C 0.35185 0.86091 0.48738 0.0
C200 C 0.2291 0.8105 0.46821 0.0
C201 C 0.22842 0.74431 0.47431 0.0
N202 N 0.28881 0.67125 0.48964 0.0
N203 N 0.29633 0.9263 0.45604 0.0
C204 C 0.28877 0.73651 0.48795 0.0
C205 C 0.29227 0.86753 0.47105 0.0
N206 N 0.40392 0.79427 0.52007 0.0
N207 N 0.16937 0.81897 0.46018 0.0
H208 H 0.34172 0.96878 0.45647 0.0
H209 H 0.25555 0.93043 0.43988 0.0
H210 H 0.12208 0.77798 0.45745 0.0
H211 H 0.16641 0.86768 0.45962 0.0
H212 H 0.4026 0.75056 0.5321 0.0
H213 H 0.44846 0.83814 0.52964 0.0
H214 H 0.33297 0.66189 0.49505 0.0
H215 H 0.24533 0.6255 0.48232 0.0
C216 C 0.52428 0.34058 0.82514 0.0
C217 C 0.58004 0.4018 0.82084 0.0
C218 C 0.65185 0.33308 0.81391 0.0
C219 C 0.59319 0.27084 0.81112 0.0
N220 N 0.47239 0.21384 0.8115 0.0
N221 N 0.69757 0.45751 0.8114 0.0
C222 C 0.52914 0.27414 0.81643 0.0
C223 C 0.64443 0.39863 0.81593 0.0
N224 N 0.46737 0.34619 0.83874 0.0
N225 N 0.71449 0.32923 0.81483 0.0
H226 H 0.69382 0.50623 0.81335 0.0
H227 H 0.74371 0.45754 0.80322 0.0
H228 H 0.72133 0.28185 0.81315 0.0
H229 H 0.75985 0.37292 0.82055 0.0
H230 H 0.42782 0.30424 0.84617 0.0
H231 H 0.46289 0.39423 0.84676 0.0
H232 H 0.42331 0.21325 0.81015 0.0
H233 H 0.47392 0.16396 0.80588 0.0
C234 C 0.59705 0.836 0.47204 0.0
C235 C 0.64459 0.89071 0.50059 0.0
C236 C 0.67298 0.80332 0.53142 0.0
C237 C 0.62413 0.74884 0.50362 0.0
N238 N 0.52778 0.71182 0.45399 0.0
N239 N 0.71153 0.9241 0.5643 0.0
C240 C 0.58211 0.76477 0.47615 0.0
C241 C 0.67773 0.87364 0.53237 0.0
N242 N 0.56935 0.85159 0.43961 0.0
N243 N 0.71625 0.78839 0.55622 0.0
H244 H 0.71303 0.97518 0.567 0.0
H245 H 0.73127 0.91342 0.58995 0.0
H246 H 0.71362 0.73748 0.55674 0.0
H247 H 0.75781 0.82688 0.57408 0.0
H248 H 0.54057 0.81396 0.4156 0.0
H249 H 0.57964 0.90274 0.43522 0.0
H250 H 0.49115 0.72053 0.43648 0.0
H251 H 0.51588 0.65915 0.45601 0.0
C252 C 0.91158 0.68232 0.88116 0.0
C253 C 0.86226 0.65322 0.84765 0.0
C254 C 0.93498 0.60107 0.81592 0.0
C255 C 0.9685 0.60788 0.85368 0.0
N256 N 1.02365 0.69664 0.91021 0.0
N257 N 0.83181 0.59398 0.77965 0.0
C258 C 0.96861 0.66296 0.88258 0.0
C259 C 0.87607 0.61683 0.81345 0.0
N260 N 0.90176 0.7246 0.91207 0.0
N261 N 0.96425 0.58934 0.78309 0.0
H262 H 0.78877 0.60604 0.77625 0.0
H263 H 0.83684 0.56044 0.75574 0.0
H264 H 1.01352 0.58998 0.78537 0.0
H265 H 0.94406 0.58924 0.75475 0.0
H266 H 0.93249 0.74125 0.93903 0.0
H267 H 0.86126 0.74128 0.91076 0.0
H268 H 1.02905 0.74035 0.93085 0.0
H269 H 0.06635 0.68343 0.9096 0.0
C270 C 0.30209 0.74701 0.16894 0.0
C271 C 0.24674 0.76531 0.17916 0.0
C272 C 0.32246 0.88892 0.19554 0.0
C273 C 0.37875 0.8688 0.19114 0.0
N274 N 0.4235 0.77809 0.17789 0.0
N275 N 0.2028 0.85223 0.20374 0.0
C276 C 0.36899 0.79769 0.17873 0.0
C277 C 0.25623 0.83607 0.19239 0.0
N278 N 0.29037 0.68148 0.14893 0.0
N279 N 0.33245 0.95842 0.20231 0.0
H280 H 0.15346 0.81492 0.20097 0.0
H281 H 0.20788 0.90159 0.21801 0.0
H282 H 0.38046 0.99833 0.20518 0.0
H283 H 0.29309 0.9766 0.20199 0.0
H284 H 0.32825 0.66692 0.1376 0.0
H285 H 0.24161 0.64379 0.13994 0.0
H286 H 0.41894 0.72597 0.17364 0.0
H287 H 0.47361 0.8137 0.18466 0.0
C288 C 0.63858 0.28587 0.49008 0.0
C289 C 0.58461 0.23059 0.50172 0.0
C290 C 0.53475 0.31494 0.52668 0.0
C291 C 0.59295 0.37123 0.51967 0.0
N292 N 0.70689 0.41042 0.50149 0.0
N293 N 0.48965 0.19611 0.53971 0.0
C294 C 0.64682 0.35681 0.5032 0.0
C295 C 0.53499 0.24614 0.52247 0.0
N296 N 0.68073 0.27079 0.46542 0.0
N297 N 0.47837 0.32682 0.5364 0.0
H298 H 0.48986 0.14595 0.53901 0.0
H299 H 0.45681 0.20681 0.55838 0.0
H300 H 0.4755 0.37614 0.53863 0.0
H301 H 0.4323 0.28661 0.53812 0.0
H302 H 0.71706 0.30848 0.45295 0.0
H303 H 0.6747 0.21959 0.45445 0.0
H304 H 0.75009 0.40241 0.49348 0.0
H305 H 0.71567 0.46287 0.51155 0.0
C306 C 0.27271 0.54867 0.82635 0.0
C307 C 0.30583 0.50414 0.81183 0.0
C308 C 0.19654 0.40621 0.79245 0.0
C309 C 0.1638 0.45109 0.80651 0.0
N310 N 0.16795 0.5686 0.82471 0.0
N311 N 0.29927 0.3978 0.77053 0.0
C312 C 0.20103 0.52363 0.81946 0.0
C313 C 0.26773 0.43495 0.79163 0.0
N314 N 0.3089 0.61291 0.84875 0.0
N315 N 0.15995 0.33604 0.78081 0.0
H316 H 0.35098 0.41852 0.76769 0.0
H317 H 0.27321 0.34956 0.75243 0.0
H318 H 0.10715 0.31392 0.77934 0.0
H319 H 0.18219 0.29941 0.77478 0.0
H320 H 0.28618 0.64385 0.86371 0.0
H321 H 0.36147 0.63293 0.85543 0.0
H322 H 0.19281 0.62291 0.83109 0.0
H323 H 0.11565 0.5519 0.81791 0.0
C324 C 0.83929 0.18583 0.16738 0.0
C325 C 0.83708 0.2472 0.15488 0.0
C326 C 0.7132 0.19336 0.14183 0.0
C327 C 0.71555 0.13076 0.15234 0.0
N328 N 0.77916 0.06261 0.17055 0.0
N329 N 0.77494 0.30549 0.12279 0.0
C330 C 0.7782 0.12547 0.1637 0.0
C331 C 0.77482 0.2499 0.14001 0.0
N332 N 0.89917 0.18637 0.18426 0.0
N333 N 0.65203 0.19935 0.13447 0.0
H334 H 0.81928 0.34729 0.12008 0.0
H335 H 0.7319 0.30737 0.10786 0.0
H336 H 0.60562 0.15841 0.1347 0.0
H337 H 0.64712 0.24628 0.13115 0.0
H338 H 0.90306 0.14632 0.19805 0.0
H339 H 0.94497 0.2293 0.18664 0.0
H340 H 0.82346 0.0531 0.17494 0.0
H341 H 0.73508 0.01809 0.16937 0.0
C342 C 0.0553 0.56175 0.02869 0.0
C343 C 1.03064 0.49975 0.04554 0.0
C344 C 0.98955 0.43098 0.97921 0.0
C345 C 1.02216 0.49189 0.9626 0.0
N346 N 0.10621 0.61028 0.97327 0.0
N347 N 0.9951 0.37316 0.03466 0.0
C348 C 0.06184 0.55569 0.98792 0.0
C349 C 1.00403 0.43349 0.02022 0.0
N350 N 0.068 0.62612 0.05042 0.0
N351 N 0.94252 0.37182 0.95669 0.0
H352 H 1.01089 0.37277 0.06382 0.0
H353 H 0.98037 0.32456 0.01641 0.0
H354 H 0.92705 0.36872 0.927 0.0
H355 H 0.91362 0.32858 0.96878 0.0
H356 H 0.08143 0.67156 0.03791 0.0
H357 H 0.05608 0.63313 0.07915 0.0
H358 H 0.13941 0.65601 0.9914 0.0
H359 H 0.11527 0.60631 0.94378 0.0
C360 C 0.57357 0.0868 0.35563 0.0
C361 C 0.60441 0.04686 0.37383 0.0
C362 C 0.61195 0.98696 0.30886 0.0
C363 C 0.57319 0.0203 0.2911 0.0
N364 N 0.51715 0.10206 0.29622 0.0
N365 N 0.65576 0.96119 0.36922 0.0
C366 C 0.55476 0.07098 0.3141 0.0
C367 C 0.62532 0.99824 0.35079 0.0
N368 N 0.56324 0.14052 0.37814 0.0
N369 N 0.63553 0.94436 0.28552 0.0
H370 H 0.66989 0.97139 0.39963 0.0
H371 H 0.66515 0.91892 0.35495 0.0
H372 H 0.62489 0.9334 0.25487 0.0
H373 H 0.66912 0.92318 0.29596 0.0
H374 H 0.54715 0.17636 0.36667 0.0
H375 H 0.576 0.15286 0.4086 0.0
H376 H 0.49448 0.13266 0.31144 0.0
H377 H 0.50594 0.09477 0.26566 0.0
C378 C 0.64391 0.54111 0.69727 0.0
C379 C 0.60383 0.57659 0.71402 0.0
C380 C 0.56529 0.58695 0.64751 0.0
C381 C 0.61144 0.55875 0.63157 0.0
N382 N 0.71105 0.53219 0.64444 0.0
N383 N 0.54448 0.65367 0.70477 0.0
C384 C 0.65646 0.54389 0.65757 0.0
C385 C 0.57 0.60592 0.68911 0.0
N386 N 0.66566 0.50003 0.7178 0.0
N387 N 0.51471 0.59236 0.6236 0.0
H388 H 0.55146 0.67326 0.73489 0.0
H389 H 0.52408 0.68016 0.68738 0.0
H390 H 0.50657 0.57547 0.59319 0.0
H391 H 0.47651 0.6068 0.63466 0.0
H392 H 0.69104 0.46955 0.70534 0.0
H393 H 0.64999 0.48848 0.7449 0.0
H394 H 0.74784 0.52616 0.66332 0.0
H395 H 0.72337 0.53656 0.6158 0.0
C396 C 0.66139 0.14532 0.6473 0.0
C397 C 0.6237 0.07939 0.62312 0.0
C398 C 0.57662 0.03402 0.68163 0.0
C399 C 0.61994 0.09769 0.706 0.0
N400 N 0.721 0.20283 0.71188 0.0
N401 N 0.56333 0.95477 0.62075 0.0
C402 C 0.66846 0.14942 0.68874 0.0
C403 C 0.58681 0.0216 0.6413 0.0
N404 N 0.68603 0.2053 0.63147 0.0
N405 N 0.52361 0.98698 0.69591 0.0
H406 H 0.57407 0.94283 0.59216 0.0
H407 H 0.54067 0.91089 0.63391 0.0
H408 H 0.51186 0.99523 0.7246 0.0
H409 H 0.48731 0.94312 0.67791 0.0
H410 H 0.70937 0.25478 0.64888 0.0
H411 H 0.67511 0.20724 0.60188 0.0
H412 H 0.76013 0.23895 0.70012 0.0
H413 H 0.72927 0.20588 0.74236 0.0
C414 C 0.53444 0.51547 0.9683 0.0
C415 C 0.56874 0.58347 0.95919 0.0
C416 C 0.59981 0.63161 0.02999 0.0
C417 C 0.57252 0.56257 0.0387 0.0
N418 N 0.51737 0.43798 0.01689 0.0
N419 N 0.63521 0.70641 0.9805 0.0
C420 C 0.54001 0.50431 0.00807 0.0
C421 C 0.60147 0.64168 0.98987 0.0
N422 N 0.49688 0.46141 0.93882 0.0
N423 N 0.62307 0.68752 0.06023 0.0
H424 H 0.63342 0.71646 0.9517 0.0
H425 H 0.66722 0.7495 0.0008 0.0
H426 H 0.62294 0.68184 0.08986 0.0
H427 H 0.63768 0.73948 0.05627 0.0
H428 H 0.46473 0.41249 0.94372 0.0
H429 H 0.49387 0.46676 0.90924 0.0
H430 H 0.50076 0.39264 0.99577 0.0
H431 H 0.51898 0.42791 0.0457 0.0
C432 C 1.00094 0.56646 0.31292 0.0
C433 C 0.03414 0.52604 0.29329 0.0
C434 C 0.07766 0.50887 0.35701 0.0
C435 C 0.05374 0.55844 0.37628 0.0
N436 N 0.99231 0.63469 0.37383 0.0
N437 N 0.10375 0.45762 0.2956 0.0
C438 C 1.0144 0.58657 0.3546 0.0
C439 C 0.07139 0.49573 0.31503 0.0
N440 N 0.9556 0.58438 0.2916 0.0
N441 N 0.10668 0.47489 0.37901 0.0
H442 H 0.09838 0.44482 0.26495 0.0
H443 H 0.13864 0.44153 0.30956 0.0
H444 H 0.1129 0.48446 0.40979 0.0
H445 H 0.11957 0.43338 0.36711 0.0
H446 H 0.92473 0.6081 0.30425 0.0
H447 H 0.94432 0.56972 0.26107 0.0
H448 H 0.9709 0.66398 0.35953 0.0
H449 H 0.99835 0.64787 0.40452 0.0
loop_
_geom_bond_atom_site_label_1
_geom_bond_atom_site_label_2
_geom_bond_distance
_geom_bond_site_symmetry_2
_ccdc_geom_bond_type
Tb0 O3 2.453 1_455 S
Tb0 O4 2.596 1_455 S
Tb0 O5 2.374 . S
Tb0 O13 2.343 . S
Tb0 O15 2.353 . S
Tb0 O17 2.427 . S
Tb0 O18 2.513 . S
C1 O5 1.251 . S
C1 O7 1.263 . S
Tb2 O4 2.343 1_455 S
Tb2 O7 2.353 . S
Tb2 O10 2.427 1_455 S
Tb2 O11 2.513 1_455 S
Tb2 O12 2.453 . S
Tb2 O13 2.596 . S
Tb2 O14 2.374 . S
O3 Tb0 2.453 1_655 S
O3 C19 1.245 . S
O4 Tb0 2.596 1_655 S
O4 Tb2 2.343 1_655 S
O4 C19 1.259 . S
O5 Tb0 2.374 . S
O5 C1 1.251 . S
C6 O10 1.275 . S
C6 O11 1.246 . S
O7 C1 1.263 . S
O7 Tb2 2.353 . S
C8 O12 1.245 . S
C8 O13 1.259 . S
C9 O14 1.250 . S
C9 O15 1.263 . S
O10 Tb2 2.427 1_655 S
O10 C6 1.275 . S
O11 Tb2 2.513 1_655 S
O11 C6 1.246 . S
O12 Tb2 2.453 . S
O12 C8 1.245 . S
O13 Tb0 2.343 . S
O13 Tb2 2.596 . S
O13 C8 1.259 . S
O14 Tb2 2.374 . S
O14 C9 1.250 . S
O15 Tb0 2.353 . S
O15 C9 1.263 . S
C16 O17 1.275 . S
C16 O18 1.246 . S
O17 Tb0 2.427 . S
O17 C16 1.275 . S
O18 Tb0 2.513 . S
O18 C16 1.246 . S
C19 O3 1.245 . S
C19 O4 1.259 . S
Tb20 O23 2.453 . S
Tb20 O24 2.596 . S
Tb20 O25 2.374 . S
Tb20 O33 2.343 1_545 S
Tb20 O35 2.353 . S
Tb20 O37 2.427 1_545 S
Tb20 O38 2.513 1_545 S
C21 O25 1.251 . S
C21 O27 1.263 . S
Tb22 O24 2.343 . S
Tb22 O27 2.353 . S
Tb22 O30 2.427 . S
Tb22 O31 2.513 . S
Tb22 O32 2.453 1_545 S
Tb22 O33 2.596 1_545 S
Tb22 O34 2.374 . S
O23 Tb20 2.453 . S
O23 C39 1.245 . S
O24 Tb20 2.596 . S
O24 Tb22 2.343 . S
O24 C39 1.259 . S
O25 Tb20 2.374 . S
O25 C21 1.251 . S
C26 O30 1.275 . S
C26 O31 1.246 . S
O27 C21 1.263 . S
O27 Tb22 2.353 . S
C28 O32 1.245 . S
C28 O33 1.259 . S
C29 O34 1.250 . S
C29 O35 1.263 . S
O30 Tb22 2.427 . S
O30 C26 1.275 . S
O31 Tb22 2.513 . S
O31 C26 1.246 . S
O32 Tb22 2.453 1_565 S
O32 C28 1.245 . S
O33 Tb20 2.343 1_565 S
O33 Tb22 2.596 1_565 S
O33 C28 1.259 . S
O34 Tb22 2.374 . S
O34 C29 1.250 . S
O35 Tb20 2.353 . S
O35 C29 1.263 . S
C36 O37 1.275 . S
C36 O38 1.246 . S
O37 Tb20 2.427 1_565 S
O37 C36 1.275 . S
O38 Tb20 2.513 1_565 S
O38 C36 1.246 . S
C39 O23 1.245 . S
C39 O24 1.259 . S
Tb40 O43 2.453 . S
Tb40 O44 2.596 . S
Tb40 O45 2.374 . S
Tb40 O53 2.343 . S
Tb40 O55 2.353 . S
Tb40 O57 2.427 . S
Tb40 O58 2.513 . S
C41 O45 1.251 . S
C41 O47 1.263 . S
Tb42 O44 2.343 . S
Tb42 O47 2.353 . S
Tb42 O50 2.427 . S
Tb42 O51 2.513 . S
Tb42 O52 2.453 . S
Tb42 O53 2.596 . S
Tb42 O54 2.374 . S
O43 Tb40 2.453 . S
O43 C59 1.245 . S
O44 Tb40 2.596 . S
O44 Tb42 2.343 . S
O44 C59 1.259 . S
O45 Tb40 2.374 . S
O45 C41 1.251 . S
C46 O50 1.275 . S
C46 O51 1.246 . S
O47 C41 1.263 . S
O47 Tb42 2.353 . S
C48 O52 1.245 . S
C48 O53 1.259 . S
C49 O54 1.250 . S
C49 O55 1.263 . S
O50 Tb42 2.427 . S
O50 C46 1.275 . S
O51 Tb42 2.513 . S
O51 C46 1.246 . S
O52 Tb42 2.453 . S
O52 C48 1.245 . S
O53 Tb40 2.343 . S
O53 Tb42 2.596 . S
O53 C48 1.259 . S
O54 Tb42 2.374 . S
O54 C49 1.250 . S
O55 Tb40 2.353 . S
O55 C49 1.263 . S
C56 O57 1.275 . S
C56 O58 1.246 . S
O57 Tb40 2.427 . S
O57 C56 1.275 . S
O58 Tb40 2.513 . S
O58 C56 1.246 . S
C59 O43 1.245 . S
C59 O44 1.259 . S
H60 C63 0.929 1_565 S
H61 C66 0.929 . S
H62 C68 0.930 . S
C63 H60 0.929 1_545 S
C63 C64 1.398 1_545 S
C63 C65 1.396 . S
C64 C63 1.398 1_565 S
C64 C68 1.407 1_565 S
C65 C63 1.396 . S
C65 C66 1.394 . S
C66 H61 0.929 . S
C66 C65 1.394 . S
C66 C67 1.382 . S
C67 C66 1.382 . S
C67 C68 1.392 . S
C67 N69 1.420 . S
C68 H62 0.930 . S
C68 C64 1.407 1_545 S
C68 C67 1.392 . S
N69 C67 1.420 . S
N69 C70 1.244 . S
C70 N69 1.244 . S
H71 C74 0.929 . S
H72 C77 0.929 . S
H73 C79 0.930 . S
C74 H71 0.929 . S
C74 C75 1.398 . S
C74 C76 1.396 . S
C75 C74 1.398 . S
C75 C79 1.407 . S
C76 C74 1.396 . S
C76 C77 1.394 . S
C77 H72 0.929 . S
C77 C76 1.394 . S
C77 C78 1.382 . S
C78 C77 1.382 . S
C78 C79 1.392 . S
C78 N80 1.420 . S
C79 H73 0.930 . S
C79 C75 1.407 . S
C79 C78 1.392 . S
N80 C78 1.420 . S
N80 C81 1.244 . S
C81 N80 1.244 . S
H82 C85 0.929 1_655 S
H83 C88 0.929 . S
H84 C90 0.930 . S
C85 H82 0.929 1_455 S
C85 C86 1.398 1_455 S
C85 C87 1.396 . S
C86 C85 1.398 1_655 S
C86 C90 1.407 1_655 S
C87 C85 1.396 . S
C87 C88 1.394 . S
C88 H83 0.929 . S
C88 C87 1.394 . S
C88 C89 1.382 . S
C89 C88 1.382 . S
C89 C90 1.392 . S
C89 N91 1.420 . S
C90 H84 0.930 . S
C90 C86 1.407 1_455 S
C90 C89 1.392 . S
N91 C89 1.420 . S
N91 C92 1.244 . S
C92 N91 1.244 . S
H93 C96 0.929 . S
H94 C99 0.929 . S
H95 C101 0.930 . S
C96 H93 0.929 . S
C96 C97 1.398 . S
C96 C98 1.396 . S
C97 C96 1.398 . S
C97 C101 1.407 . S
C98 C96 1.396 . S
C98 C99 1.394 1_455 S
C99 H94 0.929 . S
C99 C98 1.394 1_655 S
C99 C100 1.382 . S
C100 C99 1.382 . S
C100 C101 1.392 1_655 S
C100 N102 1.420 . S
C101 H95 0.930 . S
C101 C97 1.407 . S
C101 C100 1.392 1_455 S
N102 C100 1.420 . S
N102 C103 1.244 . S
C103 N102 1.244 . S
H104 C107 0.929 . S
H105 C110 0.929 1_565 S
H106 C112 0.930 . S
C107 H104 0.929 . S
C107 C108 1.398 . S
C107 C109 1.396 . S
C108 C107 1.398 . S
C108 C112 1.407 . S
C109 C107 1.396 . S
C109 C110 1.394 . S
C110 H105 0.929 1_545 S
C110 C109 1.394 . S
C110 C111 1.382 . S
C111 C110 1.382 . S
C111 C112 1.392 . S
C111 N113 1.420 1_545 S
C112 H106 0.930 . S
C112 C108 1.407 . S
C112 C111 1.392 . S
N113 C111 1.420 1_565 S
N113 C114 1.244 . S
C114 N113 1.244 . S
H115 C118 0.929 . S
H116 C121 0.929 . S
H117 C123 0.930 . S
C118 H115 0.929 . S
C118 C119 1.398 . S
C118 C120 1.396 . S
C119 C118 1.398 . S
C119 C123 1.407 . S
C120 C118 1.396 . S
C120 C121 1.394 . S
C121 H116 0.929 . S
C121 C120 1.394 . S
C121 C122 1.382 . S
C122 C121 1.382 . S
C122 C123 1.392 . S
C122 N124 1.420 . S
C123 H117 0.930 . S
C123 C119 1.407 . S
C123 C122 1.392 . S
N124 C122 1.420 . S
N124 C125 1.244 . S
C125 N124 1.244 . S
C126 C127 1.363 . S
C126 C132 1.379 . S
C126 N134 1.356 . S
C127 C126 1.363 . S
C127 C133 1.363 . S
C128 C129 1.363 . S
C128 C133 1.379 . S
C128 N135 1.356 . S
C129 C128 1.363 . S
C129 C132 1.363 . S
N130 C132 1.356 . S
N130 H142 0.984 . S
N130 H143 0.985 . S
N131 C133 1.356 . S
N131 H136 0.984 . S
N131 H137 0.985 . S
C132 C126 1.379 . S
C132 C129 1.363 . S
C132 N130 1.356 . S
C133 C127 1.363 . S
C133 C128 1.379 . S
C133 N131 1.356 . S
N134 C126 1.356 . S
N134 H140 0.984 . S
N134 H141 0.984 . S
N135 C128 1.356 . S
N135 H138 0.984 . S
N135 H139 0.985 . S
H136 N131 0.984 . S
H137 N131 0.985 . S
H138 N135 0.984 . S
H139 N135 0.985 . S
H140 N134 0.984 . S
H141 N134 0.984 . S
H142 N130 0.984 . S
H143 N130 0.985 . S
C144 C145 1.363 . S
C144 C150 1.379 . S
C144 N152 1.356 . S
C145 C144 1.363 . S
C145 C151 1.363 . S
C146 C147 1.363 . S
C146 C151 1.379 . S
C146 N153 1.356 . S
C147 C146 1.363 . S
C147 C150 1.363 . S
N148 C150 1.356 . S
N148 H160 0.984 . S
N148 H161 0.985 . S
N149 C151 1.356 . S
N149 H154 0.984 . S
N149 H155 0.985 . S
C150 C144 1.379 . S
C150 C147 1.363 . S
C150 N148 1.356 . S
C151 C145 1.363 . S
C151 C146 1.379 . S
C151 N149 1.356 . S
N152 C144 1.356 . S
N152 H158 0.984 . S
N152 H159 0.984 . S
N153 C146 1.356 . S
N153 H156 0.984 . S
N153 H157 0.985 . S
H154 N149 0.984 . S
H155 N149 0.985 . S
H156 N153 0.984 . S
H157 N153 0.985 . S
H158 N152 0.984 . S
H159 N152 0.984 . S
H160 N148 0.984 . S
H161 N148 0.985 . S
C162 C163 1.363 . S
C162 C168 1.379 . S
C162 N170 1.356 . S
C163 C162 1.363 . S
C163 C169 1.363 . S
C164 C165 1.363 . S
C164 C169 1.379 . S
C164 N171 1.356 . S
C165 C164 1.363 . S
C165 C168 1.363 . S
N166 C168 1.356 . S
N166 H178 0.984 . S
N166 H179 0.985 . S
N167 C169 1.356 . S
N167 H172 0.984 . S
N167 H173 0.985 . S
C168 C162 1.379 . S
C168 C165 1.363 . S
C168 N166 1.356 . S
C169 C163 1.363 . S
C169 C164 1.379 . S
C169 N167 1.356 . S
N170 C162 1.356 . S
N170 H176 0.984 . S
N170 H177 0.984 . S
N171 C164 1.356 . S
N171 H174 0.984 . S
N171 H175 0.985 . S
H172 N167 0.984 . S
H173 N167 0.985 . S
H174 N171 0.984 . S
H175 N171 0.985 . S
H176 N170 0.984 . S
H177 N170 0.984 . S
H178 N166 0.984 . S
H179 N166 0.985 . S
C180 C181 1.363 . S
C180 C186 1.379 . S
C180 N188 1.356 . S
C181 C180 1.363 . S
C181 C187 1.363 . S
C182 C183 1.363 . S
C182 C187 1.379 . S
C182 N189 1.356 . S
C183 C182 1.363 . S
C183 C186 1.363 . S
N184 C186 1.356 . S
N184 H196 0.984 . S
N184 H197 0.985 . S
N185 C187 1.356 . S
N185 H190 0.984 . S
N185 H191 0.985 . S
C186 C180 1.379 . S
C186 C183 1.363 . S
C186 N184 1.356 . S
C187 C181 1.363 . S
C187 C182 1.379 . S
C187 N185 1.356 . S
N188 C180 1.356 . S
N188 H194 0.984 . S
N188 H195 0.984 . S
N189 C182 1.356 . S
N189 H192 0.984 . S
N189 H193 0.985 . S
H190 N185 0.984 . S
H191 N185 0.985 . S
H192 N189 0.984 . S
H193 N189 0.985 . S
H194 N188 0.984 . S
H195 N188 0.984 . S
H196 N184 0.984 . S
H197 N184 0.985 . S
C198 C199 1.363 . S
C198 C204 1.379 . S
C198 N206 1.356 . S
C199 C198 1.363 . S
C199 C205 1.363 . S
C200 C201 1.363 . S
C200 C205 1.379 . S
C200 N207 1.356 . S
C201 C200 1.363 . S
C201 C204 1.363 . S
N202 C204 1.356 . S
N202 H214 0.984 . S
N202 H215 0.985 . S
N203 C205 1.356 . S
N203 H208 0.984 . S
N203 H209 0.985 . S
C204 C198 1.379 . S
C204 C201 1.363 . S
C204 N202 1.356 . S
C205 C199 1.363 . S
C205 C200 1.379 . S
C205 N203 1.356 . S
N206 C198 1.356 . S
N206 H212 0.984 . S
N206 H213 0.984 . S
N207 C200 1.356 . S
N207 H210 0.984 . S
N207 H211 0.985 . S
H208 N203 0.984 . S
H209 N203 0.985 . S
H210 N207 0.984 . S
H211 N207 0.985 . S
H212 N206 0.984 . S
H213 N206 0.984 . S
H214 N202 0.984 . S
H215 N202 0.985 . S
C216 C217 1.363 . S
C216 C222 1.379 . S
C216 N224 1.356 . S
C217 C216 1.363 . S
C217 C223 1.363 . S
C218 C219 1.363 . S
C218 C223 1.379 . S
C218 N225 1.356 . S
C219 C218 1.363 . S
C219 C222 1.363 . S
N220 C222 1.356 . S
N220 H232 0.984 . S
N220 H233 0.985 . S
N221 C223 1.356 . S
N221 H226 0.984 . S
N221 H227 0.985 . S
C222 C216 1.379 . S
C222 C219 1.363 . S
C222 N220 1.356 . S
C223 C217 1.363 . S
C223 C218 1.379 . S
C223 N221 1.356 . S
N224 C216 1.356 . S
N224 H230 0.984 . S
N224 H231 0.984 . S
N225 C218 1.356 . S
N225 H228 0.984 . S
N225 H229 0.985 . S
H226 N221 0.984 . S
H227 N221 0.985 . S
H228 N225 0.984 . S
H229 N225 0.985 . S
H230 N224 0.984 . S
H231 N224 0.984 . S
H232 N220 0.984 . S
H233 N220 0.985 . S
C234 C235 1.363 . S
C234 C240 1.379 . S
C234 N242 1.356 . S
C235 C234 1.363 . S
C235 C241 1.363 . S
C236 C237 1.363 . S
C236 C241 1.379 . S
C236 N243 1.356 . S
C237 C236 1.363 . S
C237 C240 1.363 . S
N238 C240 1.356 . S
N238 H250 0.984 . S
N238 H251 0.985 . S
N239 C241 1.356 . S
N239 H244 0.984 . S
N239 H245 0.985 . S
C240 C234 1.379 . S
C240 C237 1.363 . S
C240 N238 1.356 . S
C241 C235 1.363 . S
C241 C236 1.379 . S
C241 N239 1.356 . S
N242 C234 1.356 . S
N242 H248 0.984 . S
N242 H249 0.984 . S
N243 C236 1.356 . S
N243 H246 0.984 . S
N243 H247 0.985 . S
H244 N239 0.984 . S
H245 N239 0.985 . S
H246 N243 0.984 . S
H247 N243 0.985 . S
H248 N242 0.984 . S
H249 N242 0.984 . S
H250 N238 0.984 . S
H251 N238 0.985 . S
C252 C253 1.363 . S
C252 C258 1.379 . S
C252 N260 1.356 . S
C253 C252 1.363 . S
C253 C259 1.363 . S
C254 C255 1.363 . S
C254 C259 1.379 . S
C254 N261 1.356 . S
C255 C254 1.363 . S
C255 C258 1.363 . S
N256 C258 1.356 . S
N256 H268 0.984 . S
N256 H269 0.985 1_655 S
N257 C259 1.356 . S
N257 H262 0.984 . S
N257 H263 0.985 . S
C258 C252 1.379 . S
C258 C255 1.363 . S
C258 N256 1.356 . S
C259 C253 1.363 . S
C259 C254 1.379 . S
C259 N257 1.356 . S
N260 C252 1.356 . S
N260 H266 0.984 . S
N260 H267 0.984 . S
N261 C254 1.356 . S
N261 H264 0.995 . S
N261 H265 0.985 . S
H262 N257 0.984 . S
H263 N257 0.985 . S
H264 N261 0.995 . S
H265 N261 0.985 . S
H266 N260 0.984 . S
H267 N260 0.984 . S
H268 N256 0.984 . S
H269 N256 0.985 1_455 S
C270 C271 1.363 . S
C270 C276 1.379 . S
C270 N278 1.356 . S
C271 C270 1.363 . S
C271 C277 1.363 . S
C272 C273 1.363 . S
C272 C277 1.379 . S
C272 N279 1.356 . S
C273 C272 1.363 . S
C273 C276 1.363 . S
N274 C276 1.356 . S
N274 H286 0.984 . S
N274 H287 0.985 . S
N275 C277 1.356 . S
N275 H280 0.984 . S
N275 H281 0.985 . S
C276 C270 1.379 . S
C276 C273 1.363 . S
C276 N274 1.356 . S
C277 C271 1.363 . S
C277 C272 1.379 . S
C277 N275 1.356 . S
N278 C270 1.356 . S
N278 H284 0.984 . S
N278 H285 0.984 . S
N279 C272 1.356 . S
N279 H282 0.984 1_565 S
N279 H283 0.985 . S
H280 N275 0.984 . S
H281 N275 0.985 . S
H282 N279 0.984 1_545 S
H283 N279 0.985 . S
H284 N278 0.984 . S
H285 N278 0.984 . S
H286 N274 0.984 . S
H287 N274 0.985 . S
C288 C289 1.363 . S
C288 C294 1.379 . S
C288 N296 1.356 . S
C289 C288 1.363 . S
C289 C295 1.363 . S
C290 C291 1.363 . S
C290 C295 1.379 . S
C290 N297 1.356 . S
C291 C290 1.363 . S
C291 C294 1.363 . S
N292 C294 1.356 . S
N292 H304 0.984 . S
N292 H305 0.985 . S
N293 C295 1.356 . S
N293 H298 0.984 . S
N293 H299 0.985 . S
C294 C288 1.379 . S
C294 C291 1.363 . S
C294 N292 1.356 . S
C295 C289 1.363 . S
C295 C290 1.379 . S
C295 N293 1.356 . S
N296 C288 1.356 . S
N296 H302 0.984 . S
N296 H303 0.984 . S
N297 C290 1.356 . S
N297 H300 0.984 . S
N297 H301 0.985 . S
H298 N293 0.984 . S
H299 N293 0.985 . S
H300 N297 0.984 . S
H301 N297 0.985 . S
H302 N296 0.984 . S
H303 N296 0.984 . S
H304 N292 0.984 . S
H305 N292 0.985 . S
C306 C307 1.363 . S
C306 C312 1.379 . S
C306 N314 1.356 . S
C307 C306 1.363 . S
C307 C313 1.363 . S
C308 C309 1.363 . S
C308 C313 1.379 . S
C308 N315 1.356 . S
C309 C308 1.363 . S
C309 C312 1.363 . S
N310 C312 1.356 . S
N310 H322 0.984 . S
N310 H323 0.985 . S
N311 C313 1.356 . S
N311 H316 0.984 . S
N311 H317 0.985 . S
C312 C306 1.379 . S
C312 C309 1.363 . S
C312 N310 1.356 . S
C313 C307 1.363 . S
C313 C308 1.379 . S
C313 N311 1.356 . S
N314 C306 1.356 . S
N314 H320 0.984 . S
N314 H321 0.984 . S
N315 C308 1.356 . S
N315 H318 0.984 . S
N315 H319 0.985 . S
H316 N311 0.984 . S
H317 N311 0.985 . S
H318 N315 0.984 . S
H319 N315 0.985 . S
H320 N314 0.984 . S
H321 N314 0.984 . S
H322 N310 0.984 . S
H323 N310 0.985 . S
C324 C325 1.363 . S
C324 C330 1.379 . S
C324 N332 1.356 . S
C325 C324 1.363 . S
C325 C331 1.363 . S
C326 C327 1.363 . S
C326 C331 1.379 . S
C326 N333 1.356 . S
C327 C326 1.363 . S
C327 C330 1.363 . S
N328 C330 1.356 . S
N328 H340 0.984 . S
N328 H341 0.985 . S
N329 C331 1.356 . S
N329 H334 0.984 . S
N329 H335 0.985 . S
C330 C324 1.379 . S
C330 C327 1.363 . S
C330 N328 1.356 . S
C331 C325 1.363 . S
C331 C326 1.379 . S
C331 N329 1.356 . S
N332 C324 1.356 . S
N332 H338 0.984 . S
N332 H339 0.984 . S
N333 C326 1.356 . S
N333 H336 0.984 . S
N333 H337 0.985 . S
H334 N329 0.984 . S
H335 N329 0.985 . S
H336 N333 0.984 . S
H337 N333 0.985 . S
H338 N332 0.984 . S
H339 N332 0.984 . S
H340 N328 0.984 . S
H341 N328 0.985 . S
C342 C343 1.363 . S
C342 C348 1.379 1_554 S
C342 N350 1.356 . S
C343 C342 1.363 . S
C343 C349 1.363 . S
C344 C345 1.363 . S
C344 C349 1.379 1_556 S
C344 N351 1.356 . S
C345 C344 1.363 . S
C345 C348 1.363 . S
N346 C348 1.356 . S
N346 H358 0.984 . S
N346 H359 0.985 . S
N347 C349 1.356 . S
N347 H352 0.984 . S
N347 H353 0.985 . S
C348 C342 1.379 1_556 S
C348 C345 1.363 . S
C348 N346 1.356 . S
C349 C343 1.363 . S
C349 C344 1.379 1_554 S
C349 N347 1.356 . S
N350 C342 1.356 . S
N350 H356 0.984 . S
N350 H357 0.984 . S
N351 C344 1.356 . S
N351 H354 0.984 . S
N351 H355 0.985 . S
H352 N347 0.984 . S
H353 N347 0.985 . S
H354 N351 0.984 . S
H355 N351 0.985 . S
H356 N350 0.984 . S
H357 N350 0.984 . S
H358 N346 0.984 . S
H359 N346 0.985 . S
C360 C361 1.363 . S
C360 C366 1.379 . S
C360 N368 1.356 . S
C361 C360 1.363 . S
C361 C367 1.363 . S
C362 C363 1.363 . S
C362 C367 1.379 . S
C362 N369 1.356 1_545 S
C363 C362 1.363 . S
C363 C366 1.363 . S
N364 C366 1.356 . S
N364 H376 0.984 . S
N364 H377 0.985 . S
N365 C367 1.356 1_565 S
N365 H370 0.984 . S
N365 H371 0.985 . S
C366 C360 1.379 . S
C366 C363 1.363 . S
C366 N364 1.356 . S
C367 C361 1.363 . S
C367 C362 1.379 . S
C367 N365 1.356 1_545 S
N368 C360 1.356 . S
N368 H374 0.984 . S
N368 H375 0.984 . S
N369 C362 1.356 1_565 S
N369 H372 0.984 . S
N369 H373 0.985 . S
H370 N365 0.984 . S
H371 N365 0.985 . S
H372 N369 0.984 . S
H373 N369 0.985 . S
H374 N368 0.984 . S
H375 N368 0.984 . S
H376 N364 0.984 . S
H377 N364 0.985 . S
C378 C379 1.363 . S
C378 C384 1.379 . S
C378 N386 1.356 . S
C379 C378 1.363 . S
C379 C385 1.363 . S
C380 C381 1.363 . S
C380 C385 1.379 . S
C380 N387 1.356 . S
C381 C380 1.363 . S
C381 C384 1.363 . S
N382 C384 1.356 . S
N382 H394 0.984 . S
N382 H395 0.985 . S
N383 C385 1.356 . S
N383 H388 0.984 . S
N383 H389 0.985 . S
C384 C378 1.379 . S
C384 C381 1.363 . S
C384 N382 1.356 . S
C385 C379 1.363 . S
C385 C380 1.379 . S
C385 N383 1.356 . S
N386 C378 1.356 . S
N386 H392 0.984 . S
N386 H393 0.984 . S
N387 C380 1.356 . S
N387 H390 0.984 . S
N387 H391 0.985 . S
H388 N383 0.984 . S
H389 N383 0.985 . S
H390 N387 0.984 . S
H391 N387 0.985 . S
H392 N386 0.984 . S
H393 N386 0.984 . S
H394 N382 0.984 . S
H395 N382 0.985 . S
C396 C397 1.363 . S
C396 C402 1.379 . S
C396 N404 1.356 . S
C397 C396 1.363 . S
C397 C403 1.363 . S
C398 C399 1.363 . S
C398 C403 1.379 . S
C398 N405 1.356 1_545 S
C399 C398 1.363 . S
C399 C402 1.363 . S
N400 C402 1.356 . S
N400 H412 0.984 . S
N400 H413 0.985 . S
N401 C403 1.356 1_565 S
N401 H406 0.984 . S
N401 H407 0.985 . S
C402 C396 1.379 . S
C402 C399 1.363 . S
C402 N400 1.356 . S
C403 C397 1.363 . S
C403 C398 1.379 . S
C403 N401 1.356 1_545 S
N404 C396 1.356 . S
N404 H410 0.984 . S
N404 H411 0.984 . S
N405 C398 1.356 1_565 S
N405 H408 0.984 . S
N405 H409 0.985 . S
H406 N401 0.984 . S
H407 N401 0.985 . S
H408 N405 0.984 . S
H409 N405 0.985 . S
H410 N404 0.984 . S
H411 N404 0.984 . S
H412 N400 0.984 . S
H413 N400 0.985 . S
C414 C415 1.363 . S
C414 C420 1.353 1_556 S
C414 N422 1.356 . S
C415 C414 1.363 . S
C415 C421 1.363 . S
C416 C417 1.363 . S
C416 C421 1.379 1_554 S
C416 N423 1.356 . S
C417 C416 1.363 . S
C417 C420 1.380 . S
N418 C420 1.373 . S
N418 H430 0.984 . S
N418 H431 0.985 . S
N419 C421 1.356 . S
N419 H424 0.984 . S
N419 H425 0.985 . S
C420 C414 1.353 1_554 S
C420 C417 1.380 . S
C420 N418 1.373 . S
C421 C415 1.363 . S
C421 C416 1.379 1_556 S
C421 N419 1.356 . S
N422 C414 1.356 . S
N422 H428 0.984 . S
N422 H429 0.984 . S
N423 C416 1.356 . S
N423 H426 0.984 . S
N423 H427 0.985 . S
H424 N419 0.984 . S
H425 N419 0.985 . S
H426 N423 0.984 . S
H427 N423 0.985 . S
H428 N422 0.984 . S
H429 N422 0.984 . S
H430 N418 0.984 . S
H431 N418 0.985 . S
C432 C433 1.363 1_655 S
C432 C438 1.379 . S
C432 N440 1.356 . S
C433 C432 1.363 1_455 S
C433 C439 1.363 . S
C434 C435 1.363 . S
C434 C439 1.379 . S
C434 N441 1.356 . S
C435 C434 1.363 . S
C435 C438 1.363 1_455 S
N436 C438 1.356 . S
N436 H448 0.984 . S
N436 H449 0.985 . S
N437 C439 1.356 . S
N437 H442 0.984 . S
N437 H443 0.985 . S
C438 C432 1.379 . S
C438 C435 1.363 1_655 S
C438 N436 1.356 . S
C439 C433 1.363 . S
C439 C434 1.379 . S
C439 N437 1.356 . S
N440 C432 1.356 . S
N440 H446 0.984 . S
N440 H447 0.984 . S
N441 C434 1.356 . S
N441 H444 0.984 . S
N441 H445 0.985 . S
H442 N437 0.984 . S
H443 N437 0.985 . S
H444 N441 0.984 . S
H445 N441 0.985 . S
H446 N440 0.984 . S
H447 N440 0.984 . S
H448 N436 0.984 . S
H449 N436 0.985 . S
C127 C8 1.995 . S
C129 C125 2.025 . S
C145 C26 1.413 . S
C147 C103 1.414 . S
C163 C48 1.564 . S
C165 C114 1.599 . S
C181 C19 1.792 . S
C183 C119 1.824 . S
C201 C97 1.366 . S
C199 C36 1.360 . S
C219 C108 1.586 . S
C217 C59 1.525 . S
C235 C28 1.575 . S
C237 C81 1.609 . S
C253 C46 1.100 . S
C255 C86 1.113 . S
C271 C16 1.372 . S
C273 C64 1.362 . S
C291 C75 1.567 . S
C289 C39 1.533 . S
C309 C92 1.118 . S
C307 C56 1.095 . S
C325 C6 1.446 . S
C327 C70 1.438 . S
C345 C87 1.454 . S
C343 C9 1.437 . S
C361 C21 1.519 . S
C363 C65 1.537 . S
C379 C49 1.505 . S
C381 C76 1.501 . S
C399 C109 1.493 . S
C397 C29 1.499 . S
C417 C120 1.605 . S
C415 C41 1.573 . S
C433 C1 1.499 . S
C435 C98 1.511 . S
