# Generated by pormake.
# Topology ant, (3,6)-cn, num edge types: 1
# Building blocks:
#     Node 0, Type 0, BuildingBlock: BELTOD_clean_linker_0, # of connection points: 3
#     Node 1, Type 0, BuildingBlock: BELTOD_clean_linker_0, # of connection points: 3
#     Node 2, Type 0, BuildingBlock: BELTOD_clean_linker_0, # of connection points: 3
#     Node 3, Type 0, BuildingBlock: BELTOD_clean_linker_0, # of connection points: 3
#     Node 4, Type 0, BuildingBlock: BELTOD_clean_linker_0, # of connection points: 3
#     Node 5, Type 0, BuildingBlock: BELTOD_clean_linker_0, # of connection points: 3
#     Node 6, Type 0, BuildingBlock: BELTOD_clean_linker_0, # of connection points: 3
#     Node 7, Type 0, BuildingBlock: BELTOD_clean_linker_0, # of connection points: 3
#     Node 8, Type 1, BuildingBlock: MIDCAF_clean_sbu_0, # of connection points: 6
#     Node 9, Type 1, BuildingBlock: MIDCAF_clean_sbu_0, # of connection points: 6
#     Node 10, Type 1, BuildingBlock: MIDCAF_clean_sbu_0, # of connection points: 6
#     Node 11, Type 1, BuildingBlock: MIDCAF_clean_sbu_0, # of connection points: 6
#     Edge 12, Type (0, 1), BuildingBlock: AJUNOK_clean_linker_0, # of connection points: 2
#     Edge 13, Type (0, 1), BuildingBlock: AJUNOK_clean_linker_0, # of connection points: 2
#     Edge 14, Type (0, 1), BuildingBlock: AJUNOK_clean_linker_0, # of connection points: 2
#     Edge 15, Type (0, 1), BuildingBlock: AJUNOK_clean_linker_0, # of connection points: 2
#     Edge 16, Type (0, 1), BuildingBlock: AJUNOK_clean_linker_0, # of connection points: 2
#     Edge 17, Type (0, 1), BuildingBlock: AJUNOK_clean_linker_0, # of connection points: 2
#     Edge 18, Type (0, 1), BuildingBlock: AJUNOK_clean_linker_0, # of connection points: 2
#     Edge 19, Type (0, 1), BuildingBlock: AJUNOK_clean_linker_0, # of connection points: 2
#     Edge 20, Type (0, 1), BuildingBlock: AJUNOK_clean_linker_0, # of connection points: 2
#     Edge 21, Type (0, 1), BuildingBlock: AJUNOK_clean_linker_0, # of connection points: 2
#     Edge 22, Type (0, 1), BuildingBlock: AJUNOK_clean_linker_0, # of connection points: 2
#     Edge 23, Type (0, 1), BuildingBlock: AJUNOK_clean_linker_0, # of connection points: 2
#     Edge 24, Type (0, 1), BuildingBlock: AJUNOK_clean_linker_0, # of connection points: 2
#     Edge 25, Type (0, 1), BuildingBlock: AJUNOK_clean_linker_0, # of connection points: 2
#     Edge 26, Type (0, 1), BuildingBlock: AJUNOK_clean_linker_0, # of connection points: 2
#     Edge 27, Type (0, 1), BuildingBlock: AJUNOK_clean_linker_0, # of connection points: 2
#     Edge 28, Type (0, 1), BuildingBlock: AJUNOK_clean_linker_0, # of connection points: 2
#     Edge 29, Type (0, 1), BuildingBlock: AJUNOK_clean_linker_0, # of connection points: 2
#     Edge 30, Type (0, 1), BuildingBlock: AJUNOK_clean_linker_0, # of connection points: 2
#     Edge 31, Type (0, 1), BuildingBlock: AJUNOK_clean_linker_0, # of connection points: 2
#     Edge 32, Type (0, 1), BuildingBlock: AJUNOK_clean_linker_0, # of connection points: 2
#     Edge 33, Type (0, 1), BuildingBlock: AJUNOK_clean_linker_0, # of connection points: 2
#     Edge 34, Type (0, 1), BuildingBlock: AJUNOK_clean_linker_0, # of connection points: 2
#     Edge 35, Type (0, 1), BuildingBlock: AJUNOK_clean_linker_0, # of connection points: 2
# Relax obj value: 0.095
# Max RMSD: 0.156
# Mean RMSD: 0.098
data_MOF--net-ant--node1-MIDCAF_clean_sbu_0--node2-BELTOD_clean_linker_0--edge1-AJUNOK_clean_linker_0
_symmetry_space_group_name_H-M    P1
_symmetry_Int_Tables_number       1
_symmetry_cell_setting            triclinic
loop_
_symmetry_equiv_pos_as_xyz
'x, y, z'
_cell_length_a     24.764903
_cell_length_b     24.513619
_cell_length_c     65.45312
_cell_angle_alpha  90.591732
_cell_angle_beta   93.50118
_cell_angle_gamma 89.88537
loop_
_atom_site_label
_atom_site_type_symbol
_atom_site_fract_x
_atom_site_fract_y
_atom_site_fract_z
_atom_type_partial_charge
P0 P 0.28952 0.22999 0.06727 0.0
H1 H 0.33461 0.335 0.08128 0.0
H2 H 0.2951 0.42541 0.08526 0.0
H3 H 0.13645 0.35992 0.06916 0.0
H4 H 0.17649 0.26902 0.06458 0.0
H5 H 0.36094 0.15051 0.08829 0.0
H6 H 0.34359 0.06692 0.10656 0.0
H7 H 0.17208 0.10102 0.10071 0.0
H8 H 0.19022 0.18674 0.0839 0.0
H9 H 0.31937 0.27336 0.02874 0.0
H10 H 0.21003 0.1503 0.04839 0.0
O11 O 0.35637 0.23935 0.06783 0.0
H12 H 0.28603 0.258 0.99336 0.0
H13 H 0.17684 0.13455 0.01291 0.0
C14 C 0.2585 0.29481 0.07292 0.0
C15 C 0.2913 0.33969 0.07864 0.0
C16 C 0.26879 0.39166 0.08063 0.0
C17 C 0.21288 0.39989 0.07707 0.0
C18 C 0.17976 0.35476 0.07177 0.0
C19 C 0.20251 0.30272 0.06946 0.0
C20 C 0.27681 0.17494 0.08452 0.0
C21 C 0.31964 0.14084 0.09139 0.0
C22 C 0.30961 0.09237 0.10159 0.0
C23 C 0.25631 0.07606 0.10456 0.0
C24 C 0.21373 0.11207 0.09874 0.0
C25 C 0.22398 0.16126 0.08902 0.0
C26 C 0.268 0.21252 0.04125 0.0
C27 C 0.28911 0.24213 0.02542 0.0
C28 C 0.27025 0.23304 0.00517 0.0
C29 C 0.2297 0.19411 0.00034 0.0
C30 C 0.20857 0.1643 0.01621 0.0
C31 C 0.22763 0.17339 0.03654 0.0
P32 P 0.07729 0.73059 0.31887 0.0
H33 H 0.15723 0.69721 0.35072 0.0
H34 H 0.24282 0.73666 0.36349 0.0
H35 H 0.20757 0.88212 0.32841 0.0
H36 H 0.12102 0.84182 0.31548 0.0
H37 H 0.00662 0.68546 0.34836 0.0
H38 H 0.91437 0.70804 0.35661 0.0
H39 H 0.91649 0.84864 0.31747 0.0
H40 H 0.00971 0.82626 0.30944 0.0
H41 H 0.15585 0.76512 0.28934 0.0
H42 H 0.99165 0.70572 0.28789 0.0
O43 O 0.08378 0.66404 0.32362 0.0
H44 H 0.15101 0.7669 0.25197 0.0
H45 H 0.98733 0.70637 0.25039 0.0
C46 C 0.13379 0.76582 0.33157 0.0
C47 C 0.16721 0.73801 0.34602 0.0
C48 C 0.21601 0.76093 0.35353 0.0
C49 C 0.2323 0.81219 0.34673 0.0
C50 C 0.19633 0.84221 0.33369 0.0
C51 C 0.14705 0.81925 0.32628 0.0
C52 C 0.01438 0.75366 0.32802 0.0
C53 C 0.98759 0.72147 0.34171 0.0
C54 C 0.93474 0.73407 0.34624 0.0
C55 C 0.90793 0.77898 0.33709 0.0
C56 C 0.93615 0.81336 0.32444 0.0
C57 C 0.98925 0.80073 0.31994 0.0
C58 C 0.07352 0.73691 0.29146 0.0
C59 C 0.11831 0.75385 0.28109 0.0
C60 C 0.11557 0.75478 0.25972 0.0
C61 C 0.06854 0.73741 0.24844 0.0
C62 C 0.02376 0.72043 0.25882 0.0
C63 C 0.02629 0.72015 0.28018 0.0
P64 P 0.77627 0.71892 0.56059 0.0
H65 H 0.82653 0.82668 0.56082 0.0
H66 H 0.79598 0.91713 0.57083 0.0
H67 H 0.64523 0.84817 0.58816 0.0
H68 H 0.67717 0.75718 0.57892 0.0
H69 H 0.84877 0.65899 0.58976 0.0
H70 H 0.83515 0.5764 0.60971 0.0
H71 H 0.6656 0.57778 0.5898 0.0
H72 H 0.67931 0.65984 0.57013 0.0
H73 H 0.68874 0.77153 0.53513 0.0
H74 H 0.7856 0.62519 0.53333 0.0
O75 O 0.84218 0.72144 0.55666 0.0
H76 H 0.64435 0.74743 0.50222 0.0
H77 H 0.7407 0.60073 0.49998 0.0
C78 C 0.75459 0.78493 0.56946 0.0
C79 C 0.7871 0.83082 0.56695 0.0
C80 C 0.7691 0.88281 0.57231 0.0
C81 C 0.71761 0.89014 0.57988 0.0
C82 C 0.68505 0.84395 0.58235 0.0
C83 C 0.70342 0.79183 0.5772 0.0
C84 C 0.76503 0.66533 0.5784 0.0
C85 C 0.8085 0.64201 0.59002 0.0
C86 C 0.80081 0.59471 0.60132 0.0
C87 C 0.74945 0.57039 0.60116 0.0
C88 C 0.70558 0.59581 0.59038 0.0
C89 C 0.71333 0.64278 0.57911 0.0
C90 C 0.74087 0.70031 0.53668 0.0
C91 C 0.69995 0.73369 0.52789 0.0
C92 C 0.67389 0.71944 0.5091 0.0
C93 C 0.68823 0.67154 0.49872 0.0
C94 C 0.72841 0.63749 0.50778 0.0
C95 C 0.75431 0.65166 0.52669 0.0
P96 P 0.56973 0.18528 0.81976 0.0
H97 H 0.63929 0.15592 0.8558 0.0
H98 H 0.7315 0.18363 0.86706 0.0
H99 H 0.72591 0.30936 0.82142 0.0
H100 H 0.63277 0.28292 0.8106 0.0
H101 H 0.49026 0.14602 0.84731 0.0
H102 H 0.39813 0.17454 0.85302 0.0
H103 H 0.41695 0.31403 0.81424 0.0
H104 H 0.511 0.28712 0.80983 0.0
H105 H 0.65921 0.17621 0.7931 0.0
H106 H 0.48611 0.19772 0.78558 0.0
O107 O 0.57111 0.11896 0.82529 0.0
H108 H 0.66598 0.18862 0.7565 0.0
H109 H 0.49309 0.21251 0.74896 0.0
C110 C 0.62955 0.21656 0.83206 0.0
C111 C 0.65708 0.19062 0.84864 0.0
C112 C 0.70976 0.20642 0.85508 0.0
C113 C 0.73573 0.24817 0.84494 0.0
C114 C 0.70663 0.27696 0.82942 0.0
C115 C 0.65349 0.26185 0.82326 0.0
C116 C 0.507 0.21368 0.8277 0.0
C117 C 0.47495 0.1832 0.84026 0.0
C118 C 0.42174 0.19899 0.84316 0.0
C119 C 0.39903 0.24497 0.83317 0.0
C120 C 0.43271 0.27774 0.82182 0.0
C121 C 0.48655 0.26257 0.81935 0.0
C122 C 0.57268 0.18956 0.79236 0.0
C123 C 0.62271 0.1845 0.78367 0.0
C124 C 0.62653 0.19159 0.76274 0.0
C125 C 0.58021 0.20305 0.75 0.0
C126 C 0.52951 0.20436 0.75846 0.0
C127 C 0.5257 0.19683 0.77949 0.0
P128 P 0.11202 0.73954 0.91841 0.0
H129 H 0.11597 0.6692 0.88231 0.0
H130 H 0.06536 0.58791 0.87196 0.0
H131 H 0.9522 0.62128 0.91823 0.0
H132 H 0.0038 0.70305 0.92869 0.0
H133 H 0.15691 0.8398 0.93588 0.0
H134 H 0.13967 0.93605 0.92841 0.0
H135 H 0.0079 0.88991 0.88546 0.0
H136 H 0.02634 0.79353 0.89261 0.0
H137 H 0.19445 0.67781 0.94258 0.0
H138 H 0.04869 0.76769 0.95325 0.0
O139 O 0.17154 0.73159 0.90807 0.0
H140 H 0.20801 0.66038 0.97945 0.0
H141 H 0.06124 0.74859 0.98992 0.0
C142 C 0.06468 0.69118 0.9067 0.0
C143 C 0.07933 0.6602 0.88984 0.0
C144 C 0.04968 0.61391 0.8837 0.0
C145 C 0.00466 0.5979 0.89432 0.0
C146 C 0.98676 0.63248 0.90981 0.0
C147 C 0.01651 0.679 0.9159 0.0
C148 C 0.09269 0.80968 0.9149 0.0
C149 C 0.12381 0.85048 0.92507 0.0
C150 C 0.11389 0.90543 0.92082 0.0
C151 C 0.07283 0.92048 0.90619 0.0
C152 C 0.04048 0.87945 0.89653 0.0
C153 C 0.05063 0.82439 0.90074 0.0
C154 C 0.12095 0.72472 0.94527 0.0
C155 C 0.16515 0.69335 0.95279 0.0
C156 C 0.17267 0.68295 0.97375 0.0
C157 C 0.13526 0.70265 0.9873 0.0
C158 C 0.09009 0.73236 0.97964 0.0
C159 C 0.08313 0.74356 0.95877 0.0
P160 P 0.66085 0.86503 0.18189 0.0
H161 H 0.71159 0.87906 0.14338 0.0
H162 H 0.79467 0.84225 0.13011 0.0
H163 H 0.81729 0.73918 0.18302 0.0
H164 H 0.73383 0.77523 0.19609 0.0
H165 H 0.57313 0.93637 0.16571 0.0
H166 H 0.48324 0.91779 0.14981 0.0
H167 H 0.51643 0.74471 0.15309 0.0
H168 H 0.60784 0.76413 0.16725 0.0
H169 H 0.7322 0.8893 0.2179 0.0
H170 H 0.58562 0.79748 0.20427 0.0
O171 O 0.67326 0.93186 0.1813 0.0
H172 H 0.73453 0.85764 0.25344 0.0
H173 H 0.58773 0.76643 0.23937 0.0
C174 C 0.71667 0.83053 0.1708 0.0
C175 C 0.73382 0.84779 0.15194 0.0
C176 C 0.78123 0.82667 0.14437 0.0
C177 C 0.81238 0.78787 0.15558 0.0
C178 C 0.79418 0.76926 0.17416 0.0
C179 C 0.74639 0.78999 0.18161 0.0
C180 C 0.59718 0.85156 0.16774 0.0
C181 C 0.5614 0.89445 0.16262 0.0
C182 C 0.50945 0.88367 0.15383 0.0
C183 C 0.49155 0.82962 0.1506 0.0
C184 C 0.52851 0.7869 0.15516 0.0
C185 C 0.58091 0.79784 0.16336 0.0
C186 C 0.65862 0.8461 0.20838 0.0
C187 C 0.70022 0.86294 0.22258 0.0
C188 C 0.70168 0.84477 0.24281 0.0
C189 C 0.66151 0.80935 0.24908 0.0
C190 C 0.61972 0.79307 0.23485 0.0
C191 C 0.61829 0.81121 0.21472 0.0
P192 P 0.62718 0.238 0.42164 0.0
H193 H 0.64666 0.15402 0.39106 0.0
H194 H 0.59449 0.07431 0.37966 0.0
H195 H 0.45879 0.1328 0.4121 0.0
H196 H 0.5115 0.21348 0.42341 0.0
H197 H 0.64611 0.33503 0.4474 0.0
H198 H 0.62106 0.43113 0.44277 0.0
H199 H 0.53472 0.38932 0.38543 0.0
H200 H 0.55873 0.29356 0.39038 0.0
H201 H 0.7118 0.17939 0.44598 0.0
H202 H 0.55526 0.24996 0.45503 0.0
O203 O 0.68807 0.23611 0.41204 0.0
H204 H 0.72031 0.1533 0.48216 0.0
H205 H 0.56326 0.22347 0.49093 0.0
C206 C 0.58322 0.18932 0.4083 0.0
C207 C 0.60509 0.1509 0.39517 0.0
C208 C 0.57497 0.10539 0.38851 0.0
C209 C 0.52266 0.09711 0.39513 0.0
C210 C 0.49911 0.13805 0.40687 0.0
C211 C 0.52926 0.18399 0.41339 0.0
C212 C 0.60282 0.30698 0.41953 0.0
C213 C 0.62055 0.34642 0.43411 0.0
C214 C 0.60657 0.40132 0.4314 0.0
C215 C 0.57499 0.41762 0.41397 0.0
C216 C 0.55753 0.37784 0.39938 0.0
C217 C 0.57141 0.32305 0.40213 0.0
C218 C 0.63327 0.2174 0.44796 0.0
C219 C 0.67915 0.18895 0.45569 0.0
C220 C 0.68381 0.17363 0.47626 0.0
C221 C 0.64208 0.18558 0.48921 0.0
C222 C 0.59545 0.21251 0.48118 0.0
C223 C 0.5911 0.22823 0.46072 0.0
P224 P 0.16921 0.35925 0.68503 0.0
H225 H 0.21205 0.35555 0.64446 0.0
H226 H 0.29641 0.31973 0.63193 0.0
H227 H 0.33862 0.25216 0.69144 0.0
H228 H 0.255 0.2886 0.70397 0.0
H229 H 0.08118 0.43387 0.67196 0.0
H230 H 0.99199 0.41945 0.6548 0.0
H231 H 0.02766 0.24737 0.6492 0.0
H232 H 0.1185 0.26337 0.66458 0.0
H233 H 0.21417 0.39847 0.72494 0.0
H234 H 0.10822 0.26931 0.702 0.0
O235 O 0.18377 0.42571 0.6857 0.0
H236 H 0.20897 0.36379 0.75982 0.0
H237 H 0.10163 0.23597 0.73652 0.0
C238 C 0.22648 0.32424 0.67504 0.0
C239 C 0.23885 0.33201 0.65468 0.0
C240 C 0.28708 0.31136 0.64754 0.0
C241 C 0.32397 0.2825 0.66066 0.0
C242 C 0.31105 0.27412 0.68097 0.0
C243 C 0.26283 0.29478 0.68809 0.0
C244 C 0.10661 0.34965 0.66961 0.0
C245 C 0.07022 0.39324 0.66661 0.0
C246 C 0.01861 0.38469 0.65709 0.0
C247 C 0.00148 0.33191 0.65103 0.0
C248 C 0.03906 0.28871 0.65347 0.0
C249 C 0.09115 0.29766 0.66242 0.0
C250 C 0.16072 0.33722 0.71084 0.0
C251 C 0.18918 0.36323 0.7274 0.0
C252 C 0.18648 0.34326 0.74728 0.0
C253 C 0.15574 0.29656 0.75084 0.0
C254 C 0.12692 0.2711 0.73421 0.0
C255 C 0.1299 0.29083 0.71442 0.0
Zn256 Zn 0.19976 0.67111 0.14163 0.0
Zn257 Zn 0.09696 0.79884 0.10151 0.0
Zn258 Zn 0.14914 0.73649 0.12041 0.0
C259 C 0.14044 0.73193 0.07341 0.0
C260 C 0.17151 0.86327 0.11953 0.0
O261 O 0.10449 0.72738 0.14834 0.0
O262 O 0.16805 0.68678 0.16795 0.0
C263 C 0.16347 0.60944 0.10922 0.0
O264 O 0.14201 0.70133 0.08928 0.0
O265 O 0.12899 0.78185 0.07514 0.0
O266 O 0.1211 0.86734 0.1158 0.0
O267 O 0.19359 0.81554 0.11963 0.0
O268 O 0.17636 0.60268 0.12793 0.0
O269 O 0.15701 0.65828 0.10224 0.0
O270 O 0.22894 0.77496 0.128 0.0
O271 O 0.27333 0.69995 0.1369 0.0
C272 C 0.27381 0.75002 0.13259 0.0
O273 O 0.06738 0.74621 0.13346 0.0
O274 O 0.02277 0.77278 0.10522 0.0
C275 C 0.12244 0.70966 0.16593 0.0
C276 C 0.02203 0.75562 0.12329 0.0
Zn277 Zn 0.52257 0.69678 0.34816 0.0
Zn278 Zn 0.63576 0.82297 0.39913 0.0
Zn279 Zn 0.57571 0.7607 0.37477 0.0
C280 C 0.5377 0.87641 0.39335 0.0
C281 C 0.69502 0.80909 0.36591 0.0
O282 O 0.56682 0.67893 0.38871 0.0
O283 O 0.5197 0.63073 0.36509 0.0
C284 C 0.45569 0.78648 0.35648 0.0
O285 O 0.52796 0.835 0.38143 0.0
O286 O 0.58228 0.88026 0.40365 0.0
O287 O 0.69681 0.83793 0.38201 0.0
O288 O 0.65297 0.77966 0.36107 0.0
O289 O 0.45777 0.74389 0.34555 0.0
O290 O 0.49574 0.79981 0.36899 0.0
O291 O 0.61513 0.75953 0.34529 0.0
O292 O 0.57064 0.6997 0.32521 0.0
C293 C 0.60755 0.73492 0.32785 0.0
O294 O 0.59666 0.71234 0.40263 0.0
O295 O 0.65021 0.76939 0.42076 0.0
C296 C 0.54341 0.63414 0.38267 0.0
C297 C 0.62751 0.72354 0.41868 0.0
Zn298 Zn 0.60089 0.28604 0.60151 0.0
Zn299 Zn 0.71682 0.17663 0.64255 0.0
Zn300 Zn 0.65951 0.23042 0.6219 0.0
C301 C 0.78582 0.25102 0.63084 0.0
C302 C 0.6795 0.10382 0.61471 0.0
O303 O 0.57806 0.23833 0.63589 0.0
O304 O 0.52857 0.26086 0.60817 0.0
C305 C 0.67567 0.35679 0.61791 0.0
O306 O 0.7389 0.27389 0.62829 0.0
O307 O 0.78859 0.20045 0.63402 0.0
O308 O 0.69178 0.1032 0.63369 0.0
O309 O 0.67152 0.15015 0.6058 0.0
O310 O 0.62573 0.35779 0.61281 0.0
O311 O 0.70008 0.31051 0.61992 0.0
O312 O 0.65277 0.18961 0.59169 0.0
O313 O 0.6264 0.26334 0.57474 0.0
C314 C 0.64347 0.21489 0.5747 0.0
O315 O 0.61759 0.22033 0.65022 0.0
O316 O 0.69306 0.20555 0.66894 0.0
C317 C 0.53116 0.24611 0.62658 0.0
C318 C 0.6432 0.21649 0.66784 0.0
Zn319 Zn -0.00153 0.14401 0.84023 0.0
Zn320 Zn 0.14013 0.32883 0.89377 0.0
Zn321 Zn 0.0775 0.25992 0.87786 0.0
C322 C 0.14582 0.24092 0.92028 0.0
C323 C 0.03925 0.37893 0.89082 0.0
O324 O 0.09563 0.23817 0.8448 0.0
O325 O 0.0563 0.17485 0.82285 0.0
C326 C 0.0537 0.14983 0.88466 0.0
O327 O 0.11001 0.22235 0.90693 0.0
O328 O 0.16637 0.28738 0.91815 0.0
O329 O 0.08739 0.38768 0.89745 0.0
O330 O 0.02605 0.33285 0.88241 0.0
O331 O 0.03242 0.16651 0.86783 0.0
O332 O 0.07652 0.18642 0.89609 0.0
O333 O 0.99399 0.28931 0.87439 0.0
O334 O 0.99521 0.21323 0.85783 0.0
C335 C 0.9678 0.25376 0.86345 0.0
O336 O 0.14386 0.267 0.85728 0.0
O337 O 0.19184 0.33364 0.87205 0.0
C338 C 0.09081 0.21295 0.82713 0.0
C339 C 0.18598 0.2978 0.85812 0.0
C340 C 0.15136 0.46084 0.09574 0.0
C341 C 0.18941 0.45473 0.08082 0.0
C342 C 0.13831 0.5126 0.10331 0.0
C343 C 0.16209 0.56018 0.09601 0.0
H344 H 0.13493 0.42523 0.10281 0.0
H345 H 0.11252 0.51513 0.11607 0.0
S346 S 0.25626 0.56684 0.05431 0.0
N347 N 0.24504 0.50092 0.057 0.0
N348 N 0.21984 0.59838 0.07117 0.0
C349 C 0.19577 0.55506 0.07963 0.0
C350 C 0.20976 0.50221 0.07209 0.0
C351 C 0.8344 0.83988 0.3486 0.0
C352 C 0.85049 0.7892 0.34082 0.0
C353 C 0.78226 0.84723 0.35538 0.0
C354 C 0.74447 0.80428 0.35447 0.0
H355 H 0.86314 0.87304 0.35052 0.0
H356 H 0.77232 0.88608 0.36227 0.0
S357 S 0.76546 0.6656 0.333 0.0
N358 N 0.82327 0.69741 0.3304 0.0
N359 N 0.72606 0.71035 0.34384 0.0
C360 C 0.75914 0.75451 0.34545 0.0
C361 C 0.81206 0.74719 0.33848 0.0
C362 C 0.69558 0.50821 0.6219 0.0
C363 C 0.74113 0.51632 0.61049 0.0
C364 C 0.67767 0.45566 0.62606 0.0
C365 C 0.70483 0.40925 0.61911 0.0
H366 H 0.67146 0.54273 0.62642 0.0
H367 H 0.64013 0.45134 0.63357 0.0
S368 S 0.83062 0.40812 0.59126 0.0
N369 N 0.81665 0.47351 0.59436 0.0
N370 N 0.78282 0.37452 0.60234 0.0
C371 C 0.75341 0.41662 0.60952 0.0
C372 C 0.77165 0.47032 0.60517 0.0
C373 C 0.81696 0.27719 0.86738 0.0
C374 C 0.79491 0.25598 0.84864 0.0
C375 C 0.87335 0.27929 0.87166 0.0
C376 C 0.90928 0.2587 0.85759 0.0
H377 H 0.79044 0.29125 0.8789 0.0
H378 H 0.88879 0.29475 0.88644 0.0
S379 S 0.8716 0.20133 0.80604 0.0
N380 N 0.81316 0.21662 0.81559 0.0
N381 N 0.91869 0.21903 0.82382 0.0
C382 C 0.88758 0.23867 0.83864 0.0
C383 C 0.83048 0.23766 0.83413 0.0
C384 C 0.98951 0.50898 0.91077 0.0
C385 C 0.98675 0.54008 0.89277 0.0
C386 C -0.00272 0.45248 0.90995 0.0
C387 C 0.00184 0.42533 0.89114 0.0
H388 H 0.99298 0.52881 0.92565 0.0
H389 H 0.00675 0.43115 0.92415 0.0
S390 S 0.98066 0.48542 0.83967 0.0
N391 N 0.97613 0.53779 0.85559 0.0
N392 N 0.99106 0.43115 0.85416 0.0
C393 C 0.99003 0.45434 0.87307 0.0
C394 C 0.98245 0.51205 0.87386 0.0
C395 C 0.91299 0.7756 0.16099 0.0
C396 C 0.86522 0.76963 0.14832 0.0
C397 C 0.96416 0.76713 0.15326 0.0
C398 C 0.9691 0.75235 0.13264 0.0
H399 H 0.91094 0.78997 0.17664 0.0
H400 H -0.00012 0.7757 0.16311 0.0
S401 S 0.85607 0.72175 0.09435 0.0
N402 N 0.82596 0.74096 0.11507 0.0
N403 N 0.92165 0.725 0.10053 0.0
C404 C 0.92145 0.7422 0.12034 0.0
C405 C 0.86963 0.75088 0.12817 0.0
C406 C 0.60603 0.51462 0.41135 0.0
C407 C 0.5636 0.47624 0.41001 0.0
C408 C 0.59821 0.56791 0.40403 0.0
C409 C 0.54781 0.58428 0.39509 0.0
H410 H 0.64636 0.50245 0.41685 0.0
H411 H 0.63275 0.59494 0.40396 0.0
S412 S 0.42146 0.50303 0.39171 0.0
N413 N 0.4676 0.46125 0.40205 0.0
N414 N 0.45332 0.56079 0.38786 0.0
C415 C 0.5042 0.5478 0.39521 0.0
C416 C 0.51198 0.49391 0.40278 0.0
C417 C 0.93431 0.28045 0.62775 0.0
C418 C 0.94436 0.3205 0.64311 0.0
C419 C 0.88188 0.26123 0.62264 0.0
C420 C 0.83695 0.28229 0.63223 0.0
H421 H 0.96755 0.26186 0.62018 0.0
H422 H 0.87672 0.22779 0.61176 0.0
S423 S 0.83891 0.39159 0.67167 0.0
N424 N 0.90313 0.38312 0.66689 0.0
N425 N 0.80454 0.34845 0.65636 0.0
C426 C 0.84535 0.3254 0.64629 0.0
C427 C 0.89901 0.34427 0.65193 0.0
C428 C 0.42573 0.27683 0.66478 0.0
C429 C 0.37704 0.26412 0.6534 0.0
C430 C 0.47638 0.2669 0.65677 0.0
C431 C 0.47995 0.24382 0.63714 0.0
H432 H 0.42469 0.29739 0.67949 0.0
H433 H 0.5126 0.28064 0.66541 0.0
S434 S 0.36521 0.19418 0.60283 0.0
N435 N 0.33627 0.22043 0.62277 0.0
N436 N 0.43093 0.20235 0.60767 0.0
C437 C 0.43177 0.22731 0.62633 0.0
C438 C 0.38047 0.23732 0.63446 0.0
C439 C 0.42383 0.77207 0.12997 0.0
C440 C 0.43436 0.81678 0.14332 0.0
C441 C 0.37112 0.75291 0.12555 0.0
C442 C 0.32644 0.7785 0.1338 0.0
H443 H 0.45683 0.75023 0.12343 0.0
H444 H 0.36543 0.71652 0.11615 0.0
S445 S 0.32989 0.89988 0.16793 0.0
N446 N 0.39405 0.88796 0.16387 0.0
N447 N 0.2949 0.85299 0.1546 0.0
C448 C 0.33544 0.82553 0.14588 0.0
C449 C 0.38938 0.84451 0.15083 0.0
C450 C 0.32585 0.31338 0.83921 0.0
C451 C 0.34092 0.25918 0.83517 0.0
C452 C 0.27327 0.32634 0.84448 0.0
C453 C 0.23364 0.28564 0.84611 0.0
H454 H 0.35569 0.3457 0.83959 0.0
H455 H 0.26471 0.36819 0.8487 0.0
S456 S 0.25013 0.13862 0.83379 0.0
N457 N 0.30952 0.16578 0.8299 0.0
N458 N 0.21204 0.18946 0.84128 0.0
C459 C 0.24696 0.23195 0.84051 0.0
C460 C 0.30028 0.21889 0.83476 0.0
C461 C 0.31606 0.82211 0.37 0.0
C462 C 0.29 0.82802 0.35038 0.0
C463 C 0.37256 0.81679 0.37255 0.0
C464 C 0.40434 0.81676 0.35551 0.0
H465 H 0.29228 0.81643 0.38318 0.0
H466 H 0.39055 0.80644 0.3875 0.0
S467 S 0.35749 0.84163 0.30162 0.0
N468 N 0.30164 0.84216 0.31417 0.0
N469 N 0.40748 0.83186 0.31906 0.0
C470 C 0.37959 0.8294 0.33629 0.0
C471 C 0.32235 0.83518 0.33368 0.0
C472 C 0.67801 0.95133 0.60589 0.0
C473 C 0.69979 0.94519 0.58667 0.0
C474 C 0.66809 0.00307 0.6141 0.0
C475 C 0.67945 0.05098 0.60347 0.0
H476 H 0.6712 0.91602 0.6152 0.0
H477 H 0.65356 0.00555 0.62937 0.0
S478 S 0.73076 0.05729 0.55151 0.0
N479 N 0.72683 0.99138 0.55618 0.0
N480 N 0.71017 0.08877 0.57207 0.0
C481 C 0.69816 0.04551 0.58372 0.0
C482 C 0.70802 0.99261 0.57525 0.0
C483 C 0.20176 0.01318 0.12526 0.0
C484 C 0.24405 0.0203 0.1121 0.0
C485 C 0.18163 0.96119 0.12918 0.0
C486 C 0.20358 0.91411 0.12043 0.0
H487 H 0.18212 0.04826 0.13176 0.0
H488 H 0.14655 0.95806 0.13821 0.0
S489 S 0.31862 0.9089 0.0869 0.0
N490 N 0.30997 0.97455 0.0916 0.0
N491 N 0.27303 0.87697 0.09971 0.0
C492 C 0.24891 0.91991 0.1088 0.0
C493 C 0.26895 0.97299 0.10446 0.0
C494 C 0.50015 0.01267 0.37458 0.0
C495 C 0.49942 0.04137 0.39333 0.0
C496 C 0.50184 0.95542 0.37407 0.0
C497 C 0.50381 0.92565 0.39233 0.0
H498 H 0.50569 0.03457 0.36056 0.0
H499 H 0.50957 0.93518 0.35975 0.0
S500 S 0.48866 0.98042 0.44454 0.0
N501 N 0.48916 0.03496 0.42996 0.0
N502 N 0.49328 0.9276 0.42888 0.0
C503 C 0.49437 0.95335 0.41061 0.0
C504 C 0.49209 0.01142 0.41116 0.0
C505 C 0.06478 0.01969 0.91559 0.0
C506 C 0.06584 0.97865 0.90039 0.0
C507 C 0.06065 0.07502 0.91038 0.0
C508 C 0.05699 0.09126 0.8898 0.0
H509 H 0.06713 0.00894 0.93163 0.0
H510 H 0.06006 0.10528 0.92256 0.0
S511 S 0.06432 0.00038 0.84434 0.0
N512 N 0.06716 0.95855 0.86398 0.0
N513 N 0.05892 0.06221 0.85423 0.0
C514 C 0.05883 0.05074 0.87449 0.0
C515 C 0.06332 0.99453 0.87978 0.0
C516 C 0.15035 0.19602 0.97477 0.0
C517 C 0.20644 0.18927 0.97898 0.0
C518 C 0.12913 0.20635 0.95479 0.0
C519 C 0.16346 0.21015 0.93858 0.0
H520 H 0.12337 0.19804 0.98716 0.0
H521 H 0.08658 0.21642 0.95238 0.0
S522 S 0.31103 0.18442 0.94084 0.0
N523 N 0.29418 0.17786 0.96472 0.0
N524 N 0.25434 0.19877 0.92734 0.0
C525 C 0.2185 0.19801 0.94225 0.0
C526 C 0.24002 0.18712 0.96245 0.0
C527 C 0.08184 0.77713 0.21412 0.0
C528 C 0.06893 0.73196 0.22596 0.0
C529 C 0.09332 0.77048 0.19352 0.0
C530 C 0.09285 0.71845 0.18436 0.0
H531 H 0.08589 0.81725 0.22112 0.0
H532 H 0.10679 0.8055 0.18523 0.0
S533 S 0.05758 0.58814 0.20825 0.0
N534 N 0.05231 0.63432 0.22659 0.0
N535 N 0.07514 0.6219 0.18798 0.0
C536 C 0.0768 0.67365 0.19563 0.0
C537 C 0.06441 0.68042 0.21646 0.0
C538 C 0.70493 0.65895 0.46191 0.0
C539 C 0.66753 0.66292 0.47719 0.0
C540 C 0.68931 0.67053 0.4415 0.0
C541 C 0.63585 0.68567 0.43574 0.0
H542 H 0.74754 0.65304 0.46602 0.0
H543 H 0.72046 0.67367 0.43062 0.0
S544 S 0.52029 0.68846 0.46894 0.0
N545 N 0.57288 0.67256 0.48451 0.0
N546 N 0.54378 0.69438 0.44597 0.0
C547 C 0.59677 0.6822 0.45026 0.0
C548 C 0.61264 0.67088 0.4711 0.0
C549 C 0.62762 0.25034 0.72293 0.0
C550 C 0.5864 0.21461 0.7281 0.0
C551 C 0.64256 0.25422 0.70279 0.0
C552 C 0.61627 0.22318 0.68705 0.0
H553 H 0.65055 0.27333 0.73474 0.0
H554 H 0.67699 0.27938 0.6997 0.0
S555 S 0.50091 0.12941 0.69189 0.0
N556 N 0.51573 0.15175 0.71548 0.0
N557 N 0.54366 0.15996 0.67733 0.0
C558 C 0.57183 0.19108 0.69157 0.0
C559 C 0.5568 0.18663 0.71222 0.0
C560 C 0.11067 0.66907 0.02149 0.0
C561 C 0.14598 0.69842 0.00964 0.0
C562 C 0.11314 0.67484 0.04292 0.0
C563 C 0.15021 0.711 0.05288 0.0
H564 H 0.07908 0.64405 0.01406 0.0
H565 H 0.08298 0.65472 0.05148 0.0
S566 S 0.25375 0.79358 0.02889 0.0
N567 N 0.22166 0.76113 0.00952 0.0
N568 N 0.22532 0.77313 0.04966 0.0
C569 C 0.18786 0.73763 0.0413 0.0
C570 C 0.18595 0.7311 0.01965 0.0
C571 C 0.65291 0.73411 0.27402 0.0
C572 C 0.66133 0.78981 0.27043 0.0
C573 C 0.64046 0.7158 0.29335 0.0
C574 C 0.63599 0.75251 0.30981 0.0
H575 H 0.65302 0.70481 0.26149 0.0
H576 H 0.63104 0.67301 0.29509 0.0
S577 S 0.66062 0.90175 0.30892 0.0
N578 N 0.66973 0.88082 0.28532 0.0
N579 N 0.64594 0.84656 0.32169 0.0
C580 C 0.6489 0.80766 0.30686 0.0
C581 C 0.66166 0.82631 0.28713 0.0
C582 C 0.69401 0.20157 0.52246 0.0
C583 C 0.64953 0.17713 0.51157 0.0
C584 C 0.69481 0.20817 0.54375 0.0
C585 C 0.65176 0.18959 0.55479 0.0
H586 H 0.72597 0.22013 0.51435 0.0
H587 H 0.72714 0.23184 0.5514 0.0
S588 S 0.53093 0.11436 0.53399 0.0
N589 N 0.56506 0.12772 0.51371 0.0
N590 N 0.567 0.14003 0.55388 0.0
C591 C 0.60983 0.16033 0.54441 0.0
C592 C 0.60866 0.15404 0.52271 0.0
C593 C 0.13746 0.31088 0.78778 0.0
C594 C 0.15116 0.27541 0.77185 0.0
C595 C 0.12239 0.29044 0.80655 0.0
C596 C 0.12022 0.23392 0.8099 0.0
H597 H 0.13485 0.35444 0.78527 0.0
H598 H 0.10849 0.31888 0.81788 0.0
S599 S 0.16356 0.12483 0.77486 0.0
N600 N 0.17077 0.18179 0.76206 0.0
N601 N 0.14054 0.14341 0.79704 0.0
C602 C 0.13827 0.19844 0.7948 0.0
C603 C 0.15428 0.21918 0.77584 0.0
loop_
_geom_bond_atom_site_label_1
_geom_bond_atom_site_label_2
_geom_bond_distance
_geom_bond_site_symmetry_2
_ccdc_geom_bond_type
P0 O11 1.490 . S
P0 C14 1.812 . S
P0 C20 1.803 . S
P0 C26 1.819 . S
H1 C15 0.941 . S
H2 C16 0.939 . S
H3 C18 0.940 . S
H4 C19 0.940 . S
H5 C21 0.939 . S
H6 C22 0.942 . S
H7 C24 0.940 . S
H8 C25 0.939 . S
H9 C27 0.941 . S
H10 C31 0.939 . S
O11 P0 1.490 . S
H12 C28 0.939 . S
H13 C30 0.940 . S
C14 P0 1.812 . S
C14 C15 1.389 . S
C14 C19 1.391 . S
C15 H1 0.941 . S
C15 C14 1.389 . S
C15 C16 1.397 . S
C16 H2 0.939 . S
C16 C15 1.397 . S
C16 C17 1.378 . S
C17 C16 1.378 . S
C17 C18 1.378 . S
C18 H3 0.940 . S
C18 C17 1.378 . S
C18 C19 1.396 . S
C19 H4 0.940 . S
C19 C14 1.391 . S
C19 C18 1.396 . S
C20 P0 1.803 . S
C20 C21 1.378 . S
C20 C25 1.400 . S
C21 H5 0.939 . S
C21 C20 1.378 . S
C21 C22 1.361 . S
C22 H6 0.942 . S
C22 C21 1.361 . S
C22 C23 1.369 . S
C23 C22 1.369 . S
C23 C24 1.404 . S
C24 H7 0.940 . S
C24 C23 1.404 . S
C24 C25 1.389 . S
C25 H8 0.939 . S
C25 C20 1.400 . S
C25 C24 1.389 . S
C26 P0 1.819 . S
C26 C27 1.391 . S
C26 C31 1.391 . S
C27 H9 0.941 . S
C27 C26 1.391 . S
C27 C28 1.396 . S
C28 H12 0.939 . S
C28 C27 1.396 . S
C28 C29 1.397 . S
C29 C28 1.397 . S
C29 C30 1.385 . S
C30 H13 0.940 . S
C30 C29 1.385 . S
C30 C31 1.388 . S
C31 H10 0.939 . S
C31 C26 1.391 . S
C31 C30 1.388 . S
P32 O43 1.490 . S
P32 C46 1.812 . S
P32 C52 1.803 . S
P32 C58 1.819 . S
H33 C47 0.941 . S
H34 C48 0.939 . S
H35 C50 0.940 . S
H36 C51 0.940 . S
H37 C53 0.939 . S
H38 C54 0.942 . S
H39 C56 0.940 . S
H40 C57 0.939 . S
H41 C59 0.941 . S
H42 C63 0.939 . S
O43 P32 1.490 . S
H44 C60 0.939 . S
H45 C62 0.940 . S
C46 P32 1.812 . S
C46 C47 1.389 . S
C46 C51 1.391 . S
C47 H33 0.941 . S
C47 C46 1.389 . S
C47 C48 1.397 . S
C48 H34 0.939 . S
C48 C47 1.397 . S
C48 C49 1.378 . S
C49 C48 1.378 . S
C49 C50 1.378 . S
C50 H35 0.940 . S
C50 C49 1.378 . S
C50 C51 1.396 . S
C51 H36 0.940 . S
C51 C46 1.391 . S
C51 C50 1.396 . S
C52 P32 1.803 . S
C52 C53 1.378 . S
C52 C57 1.400 . S
C53 H37 0.939 . S
C53 C52 1.378 . S
C53 C54 1.361 1_455 S
C54 H38 0.942 . S
C54 C53 1.361 1_655 S
C54 C55 1.369 . S
C55 C54 1.369 . S
C55 C56 1.404 1_655 S
C56 H39 0.940 . S
C56 C55 1.404 1_455 S
C56 C57 1.389 . S
C57 H40 0.939 . S
C57 C52 1.400 . S
C57 C56 1.389 . S
C58 P32 1.819 . S
C58 C59 1.391 . S
C58 C63 1.391 . S
C59 H41 0.941 . S
C59 C58 1.391 . S
C59 C60 1.396 . S
C60 H44 0.939 . S
C60 C59 1.396 . S
C60 C61 1.397 . S
C61 C60 1.397 . S
C61 C62 1.385 . S
C62 H45 0.940 . S
C62 C61 1.385 . S
C62 C63 1.388 . S
C63 H42 0.939 . S
C63 C58 1.391 . S
C63 C62 1.388 . S
P64 O75 1.490 . S
P64 C78 1.812 . S
P64 C84 1.803 . S
P64 C90 1.819 . S
H65 C79 0.941 . S
H66 C80 0.939 . S
H67 C82 0.940 . S
H68 C83 0.940 . S
H69 C85 0.939 . S
H70 C86 0.942 . S
H71 C88 0.940 . S
H72 C89 0.939 . S
H73 C91 0.941 . S
H74 C95 0.939 . S
O75 P64 1.490 . S
H76 C92 0.939 . S
H77 C94 0.940 . S
C78 P64 1.812 . S
C78 C79 1.389 . S
C78 C83 1.391 . S
C79 H65 0.941 . S
C79 C78 1.389 . S
C79 C80 1.397 . S
C80 H66 0.939 . S
C80 C79 1.397 . S
C80 C81 1.378 . S
C81 C80 1.378 . S
C81 C82 1.378 . S
C82 H67 0.940 . S
C82 C81 1.378 . S
C82 C83 1.396 . S
C83 H68 0.940 . S
C83 C78 1.391 . S
C83 C82 1.396 . S
C84 P64 1.803 . S
C84 C85 1.378 . S
C84 C89 1.400 . S
C85 H69 0.939 . S
C85 C84 1.378 . S
C85 C86 1.361 . S
C86 H70 0.942 . S
C86 C85 1.361 . S
C86 C87 1.369 . S
C87 C86 1.369 . S
C87 C88 1.404 . S
C88 H71 0.940 . S
C88 C87 1.404 . S
C88 C89 1.389 . S
C89 H72 0.939 . S
C89 C84 1.400 . S
C89 C88 1.389 . S
C90 P64 1.819 . S
C90 C91 1.391 . S
C90 C95 1.391 . S
C91 H73 0.941 . S
C91 C90 1.391 . S
C91 C92 1.396 . S
C92 H76 0.939 . S
C92 C91 1.396 . S
C92 C93 1.397 . S
C93 C92 1.397 . S
C93 C94 1.385 . S
C94 H77 0.940 . S
C94 C93 1.385 . S
C94 C95 1.388 . S
C95 H74 0.939 . S
C95 C90 1.391 . S
C95 C94 1.388 . S
P96 O107 1.490 . S
P96 C110 1.812 . S
P96 C116 1.803 . S
P96 C122 1.819 . S
H97 C111 0.941 . S
H98 C112 0.939 . S
H99 C114 0.940 . S
H100 C115 0.940 . S
H101 C117 0.939 . S
H102 C118 0.942 . S
H103 C120 0.940 . S
H104 C121 0.939 . S
H105 C123 0.941 . S
H106 C127 0.939 . S
O107 P96 1.490 . S
H108 C124 0.939 . S
H109 C126 0.940 . S
C110 P96 1.812 . S
C110 C111 1.389 . S
C110 C115 1.391 . S
C111 H97 0.941 . S
C111 C110 1.389 . S
C111 C112 1.397 . S
C112 H98 0.939 . S
C112 C111 1.397 . S
C112 C113 1.378 . S
C113 C112 1.378 . S
C113 C114 1.378 . S
C114 H99 0.940 . S
C114 C113 1.378 . S
C114 C115 1.396 . S
C115 H100 0.940 . S
C115 C110 1.391 . S
C115 C114 1.396 . S
C116 P96 1.803 . S
C116 C117 1.378 . S
C116 C121 1.400 . S
C117 H101 0.939 . S
C117 C116 1.378 . S
C117 C118 1.361 . S
C118 H102 0.942 . S
C118 C117 1.361 . S
C118 C119 1.369 . S
C119 C118 1.369 . S
C119 C120 1.404 . S
C120 H103 0.940 . S
C120 C119 1.404 . S
C120 C121 1.389 . S
C121 H104 0.939 . S
C121 C116 1.400 . S
C121 C120 1.389 . S
C122 P96 1.819 . S
C122 C123 1.391 . S
C122 C127 1.391 . S
C123 H105 0.941 . S
C123 C122 1.391 . S
C123 C124 1.396 . S
C124 H108 0.939 . S
C124 C123 1.396 . S
C124 C125 1.397 . S
C125 C124 1.397 . S
C125 C126 1.385 . S
C126 H109 0.940 . S
C126 C125 1.385 . S
C126 C127 1.388 . S
C127 H106 0.939 . S
C127 C122 1.391 . S
C127 C126 1.388 . S
P128 O139 1.490 . S
P128 C142 1.812 . S
P128 C148 1.803 . S
P128 C154 1.819 . S
H129 C143 0.941 . S
H130 C144 0.939 . S
H131 C146 0.940 1_655 S
H132 C147 0.940 . S
H133 C149 0.939 . S
H134 C150 0.942 . S
H135 C152 0.940 1_655 S
H136 C153 0.939 . S
H137 C155 0.941 . S
H138 C159 0.939 . S
O139 P128 1.490 . S
H140 C156 0.939 . S
H141 C158 0.940 . S
C142 P128 1.812 . S
C142 C143 1.389 . S
C142 C147 1.391 . S
C143 H129 0.941 . S
C143 C142 1.389 . S
C143 C144 1.397 . S
C144 H130 0.939 . S
C144 C143 1.397 . S
C144 C145 1.378 . S
C145 C144 1.378 . S
C145 C146 1.378 . S
C146 H131 0.940 1_455 S
C146 C145 1.378 . S
C146 C147 1.396 . S
C147 H132 0.940 . S
C147 C142 1.391 . S
C147 C146 1.396 . S
C148 P128 1.803 . S
C148 C149 1.378 . S
C148 C153 1.400 . S
C149 H133 0.939 . S
C149 C148 1.378 . S
C149 C150 1.361 . S
C150 H134 0.942 . S
C150 C149 1.361 . S
C150 C151 1.369 . S
C151 C150 1.369 . S
C151 C152 1.404 . S
C152 H135 0.940 1_455 S
C152 C151 1.404 . S
C152 C153 1.389 . S
C153 H136 0.939 . S
C153 C148 1.400 . S
C153 C152 1.389 . S
C154 P128 1.819 . S
C154 C155 1.391 . S
C154 C159 1.391 . S
C155 H137 0.941 . S
C155 C154 1.391 . S
C155 C156 1.396 . S
C156 H140 0.939 . S
C156 C155 1.396 . S
C156 C157 1.397 . S
C157 C156 1.397 . S
C157 C158 1.385 . S
C158 H141 0.940 . S
C158 C157 1.385 . S
C158 C159 1.388 . S
C159 H138 0.939 . S
C159 C154 1.391 . S
C159 C158 1.388 . S
P160 O171 1.490 . S
P160 C174 1.812 . S
P160 C180 1.803 . S
P160 C186 1.819 . S
H161 C175 0.941 . S
H162 C176 0.939 . S
H163 C178 0.940 . S
H164 C179 0.940 . S
H165 C181 0.939 . S
H166 C182 0.942 . S
H167 C184 0.940 . S
H168 C185 0.939 . S
H169 C187 0.941 . S
H170 C191 0.939 . S
O171 P160 1.490 . S
H172 C188 0.939 . S
H173 C190 0.940 . S
C174 P160 1.812 . S
C174 C175 1.389 . S
C174 C179 1.391 . S
C175 H161 0.941 . S
C175 C174 1.389 . S
C175 C176 1.397 . S
C176 H162 0.939 . S
C176 C175 1.397 . S
C176 C177 1.378 . S
C177 C176 1.378 . S
C177 C178 1.378 . S
C178 H163 0.940 . S
C178 C177 1.378 . S
C178 C179 1.396 . S
C179 H164 0.940 . S
C179 C174 1.391 . S
C179 C178 1.396 . S
C180 P160 1.803 . S
C180 C181 1.378 . S
C180 C185 1.400 . S
C181 H165 0.939 . S
C181 C180 1.378 . S
C181 C182 1.361 . S
C182 H166 0.942 . S
C182 C181 1.361 . S
C182 C183 1.369 . S
C183 C182 1.369 . S
C183 C184 1.404 . S
C184 H167 0.940 . S
C184 C183 1.404 . S
C184 C185 1.389 . S
C185 H168 0.939 . S
C185 C180 1.400 . S
C185 C184 1.389 . S
C186 P160 1.819 . S
C186 C187 1.391 . S
C186 C191 1.391 . S
C187 H169 0.941 . S
C187 C186 1.391 . S
C187 C188 1.396 . S
C188 H172 0.939 . S
C188 C187 1.396 . S
C188 C189 1.397 . S
C189 C188 1.397 . S
C189 C190 1.385 . S
C190 H173 0.940 . S
C190 C189 1.385 . S
C190 C191 1.388 . S
C191 H170 0.939 . S
C191 C186 1.391 . S
C191 C190 1.388 . S
P192 O203 1.490 . S
P192 C206 1.812 . S
P192 C212 1.803 . S
P192 C218 1.819 . S
H193 C207 0.941 . S
H194 C208 0.939 . S
H195 C210 0.940 . S
H196 C211 0.940 . S
H197 C213 0.939 . S
H198 C214 0.942 . S
H199 C216 0.940 . S
H200 C217 0.939 . S
H201 C219 0.941 . S
H202 C223 0.939 . S
O203 P192 1.490 . S
H204 C220 0.939 . S
H205 C222 0.940 . S
C206 P192 1.812 . S
C206 C207 1.389 . S
C206 C211 1.391 . S
C207 H193 0.941 . S
C207 C206 1.389 . S
C207 C208 1.397 . S
C208 H194 0.939 . S
C208 C207 1.397 . S
C208 C209 1.378 . S
C209 C208 1.378 . S
C209 C210 1.378 . S
C210 H195 0.940 . S
C210 C209 1.378 . S
C210 C211 1.396 . S
C211 H196 0.940 . S
C211 C206 1.391 . S
C211 C210 1.396 . S
C212 P192 1.803 . S
C212 C213 1.378 . S
C212 C217 1.400 . S
C213 H197 0.939 . S
C213 C212 1.378 . S
C213 C214 1.361 . S
C214 H198 0.942 . S
C214 C213 1.361 . S
C214 C215 1.369 . S
C215 C214 1.369 . S
C215 C216 1.404 . S
C216 H199 0.940 . S
C216 C215 1.404 . S
C216 C217 1.389 . S
C217 H200 0.939 . S
C217 C212 1.400 . S
C217 C216 1.389 . S
C218 P192 1.819 . S
C218 C219 1.391 . S
C218 C223 1.391 . S
C219 H201 0.941 . S
C219 C218 1.391 . S
C219 C220 1.396 . S
C220 H204 0.939 . S
C220 C219 1.396 . S
C220 C221 1.397 . S
C221 C220 1.397 . S
C221 C222 1.385 . S
C222 H205 0.940 . S
C222 C221 1.385 . S
C222 C223 1.388 . S
C223 H202 0.939 . S
C223 C218 1.391 . S
C223 C222 1.388 . S
P224 O235 1.490 . S
P224 C238 1.812 . S
P224 C244 1.803 . S
P224 C250 1.819 . S
H225 C239 0.941 . S
H226 C240 0.939 . S
H227 C242 0.940 . S
H228 C243 0.940 . S
H229 C245 0.939 . S
H230 C246 0.942 . S
H231 C248 0.940 . S
H232 C249 0.939 . S
H233 C251 0.941 . S
H234 C255 0.939 . S
O235 P224 1.490 . S
H236 C252 0.939 . S
H237 C254 0.940 . S
C238 P224 1.812 . S
C238 C239 1.389 . S
C238 C243 1.391 . S
C239 H225 0.941 . S
C239 C238 1.389 . S
C239 C240 1.397 . S
C240 H226 0.939 . S
C240 C239 1.397 . S
C240 C241 1.378 . S
C241 C240 1.378 . S
C241 C242 1.378 . S
C242 H227 0.940 . S
C242 C241 1.378 . S
C242 C243 1.396 . S
C243 H228 0.940 . S
C243 C238 1.391 . S
C243 C242 1.396 . S
C244 P224 1.803 . S
C244 C245 1.378 . S
C244 C249 1.400 . S
C245 H229 0.939 . S
C245 C244 1.378 . S
C245 C246 1.361 1_455 S
C246 H230 0.942 . S
C246 C245 1.361 1_655 S
C246 C247 1.369 . S
C247 C246 1.369 . S
C247 C248 1.404 1_655 S
C248 H231 0.940 . S
C248 C247 1.404 1_455 S
C248 C249 1.389 . S
C249 H232 0.939 . S
C249 C244 1.400 . S
C249 C248 1.389 . S
C250 P224 1.819 . S
C250 C251 1.391 . S
C250 C255 1.391 . S
C251 H233 0.941 . S
C251 C250 1.391 . S
C251 C252 1.396 . S
C252 H236 0.939 . S
C252 C251 1.396 . S
C252 C253 1.397 . S
C253 C252 1.397 . S
C253 C254 1.385 . S
C254 H237 0.940 . S
C254 C253 1.385 . S
C254 C255 1.388 . S
C255 H234 0.939 . S
C255 C250 1.391 . S
C255 C254 1.388 . S
Zn256 O262 1.920 . S
Zn256 O268 1.898 . S
Zn256 O271 1.905 . S
Zn257 O265 1.905 . S
Zn257 O266 1.898 . S
Zn257 O274 1.920 1_455 S
Zn258 O261 2.080 . S
Zn258 O264 2.114 . S
Zn258 O267 2.120 . S
Zn258 O269 2.120 . S
Zn258 O270 2.114 . S
Zn258 O273 2.080 . S
C259 O264 1.166 . S
C259 O265 1.182 . S
C260 O266 1.167 . S
C260 O267 1.299 . S
O261 Zn258 2.080 . S
O261 C275 1.305 . S
O262 Zn256 1.920 . S
O262 C275 1.234 . S
C263 O268 1.167 . S
C263 O269 1.299 . S
O264 Zn258 2.114 . S
O264 C259 1.166 . S
O265 Zn257 1.905 . S
O265 C259 1.182 . S
O266 Zn257 1.898 . S
O266 C260 1.167 . S
O267 Zn258 2.120 . S
O267 C260 1.299 . S
O268 Zn256 1.898 . S
O268 C263 1.167 . S
O269 Zn258 2.120 . S
O269 C263 1.299 . S
O270 Zn258 2.114 . S
O270 C272 1.166 . S
O271 Zn256 1.905 . S
O271 C272 1.182 . S
C272 O270 1.166 . S
C272 O271 1.182 . S
O273 Zn258 2.080 . S
O273 C276 1.300 1_455 S
O274 Zn257 1.920 1_655 S
O274 C276 1.236 . S
C275 O261 1.305 . S
C275 O262 1.234 . S
C276 O273 1.300 1_655 S
C276 O274 1.236 . S
Zn277 O283 1.920 . S
Zn277 O289 1.898 . S
Zn277 O292 1.905 . S
Zn278 O286 1.905 . S
Zn278 O287 1.898 . S
Zn278 O295 1.920 . S
Zn279 O282 2.080 . S
Zn279 O285 2.114 . S
Zn279 O288 2.120 . S
Zn279 O290 2.120 . S
Zn279 O291 2.114 . S
Zn279 O294 2.080 . S
C280 O285 1.166 . S
C280 O286 1.182 . S
C281 O287 1.167 . S
C281 O288 1.299 . S
O282 Zn279 2.080 . S
O282 C296 1.305 . S
O283 Zn277 1.920 . S
O283 C296 1.234 . S
C284 O289 1.167 . S
C284 O290 1.299 . S
O285 Zn279 2.114 . S
O285 C280 1.166 . S
O286 Zn278 1.905 . S
O286 C280 1.182 . S
O287 Zn278 1.898 . S
O287 C281 1.167 . S
O288 Zn279 2.120 . S
O288 C281 1.299 . S
O289 Zn277 1.898 . S
O289 C284 1.167 . S
O290 Zn279 2.120 . S
O290 C284 1.299 . S
O291 Zn279 2.114 . S
O291 C293 1.166 . S
O292 Zn277 1.905 . S
O292 C293 1.182 . S
C293 O291 1.166 . S
C293 O292 1.182 . S
O294 Zn279 2.080 . S
O294 C297 1.305 . S
O295 Zn278 1.920 . S
O295 C297 1.234 . S
C296 O282 1.305 . S
C296 O283 1.234 . S
C297 O294 1.305 . S
C297 O295 1.234 . S
Zn298 O304 1.920 . S
Zn298 O310 1.898 . S
Zn298 O313 1.905 . S
Zn299 O307 1.905 . S
Zn299 O308 1.898 . S
Zn299 O316 1.920 . S
Zn300 O303 2.080 . S
Zn300 O306 2.114 . S
Zn300 O309 2.120 . S
Zn300 O311 2.120 . S
Zn300 O312 2.114 . S
Zn300 O315 2.080 . S
C301 O306 1.166 . S
C301 O307 1.182 . S
C302 O308 1.167 . S
C302 O309 1.299 . S
O303 Zn300 2.080 . S
O303 C317 1.305 . S
O304 Zn298 1.920 . S
O304 C317 1.234 . S
C305 O310 1.167 . S
C305 O311 1.299 . S
O306 Zn300 2.114 . S
O306 C301 1.166 . S
O307 Zn299 1.905 . S
O307 C301 1.182 . S
O308 Zn299 1.898 . S
O308 C302 1.167 . S
O309 Zn300 2.120 . S
O309 C302 1.299 . S
O310 Zn298 1.898 . S
O310 C305 1.167 . S
O311 Zn300 2.120 . S
O311 C305 1.299 . S
O312 Zn300 2.114 . S
O312 C314 1.166 . S
O313 Zn298 1.905 . S
O313 C314 1.182 . S
C314 O312 1.166 . S
C314 O313 1.182 . S
O315 Zn300 2.080 . S
O315 C318 1.305 . S
O316 Zn299 1.920 . S
O316 C318 1.234 . S
C317 O303 1.305 . S
C317 O304 1.234 . S
C318 O315 1.305 . S
C318 O316 1.234 . S
Zn319 O325 1.920 . S
Zn319 O331 1.898 . S
Zn319 O334 1.905 1_455 S
Zn320 O328 1.905 . S
Zn320 O329 1.898 . S
Zn320 O337 1.920 . S
Zn321 O324 2.080 . S
Zn321 O327 2.114 . S
Zn321 O330 2.120 . S
Zn321 O332 2.120 . S
Zn321 O333 2.114 . S
Zn321 O336 2.080 . S
C322 O327 1.166 . S
C322 O328 1.182 . S
C323 O329 1.167 . S
C323 O330 1.299 . S
O324 Zn321 2.080 . S
O324 C338 1.305 . S
O325 Zn319 1.920 . S
O325 C338 1.234 . S
C326 O331 1.167 . S
C326 O332 1.299 . S
O327 Zn321 2.114 . S
O327 C322 1.166 . S
O328 Zn320 1.905 . S
O328 C322 1.182 . S
O329 Zn320 1.898 . S
O329 C323 1.167 . S
O330 Zn321 2.120 . S
O330 C323 1.299 . S
O331 Zn319 1.898 . S
O331 C326 1.167 . S
O332 Zn321 2.120 . S
O332 C326 1.299 . S
O333 Zn321 2.114 . S
O333 C335 1.166 1_455 S
O334 Zn319 1.905 1_655 S
O334 C335 1.182 . S
C335 O333 1.166 1_655 S
C335 O334 1.182 . S
O336 Zn321 2.080 . S
O336 C339 1.305 . S
O337 Zn320 1.920 . S
O337 C339 1.234 . S
C338 O324 1.305 . S
C338 O325 1.234 . S
C339 O336 1.305 . S
C339 O337 1.234 . S
C340 C341 1.369 . S
C340 C342 1.419 . S
C340 H344 0.930 . S
C341 C340 1.369 . S
C341 C350 1.429 . S
C342 C340 1.419 . S
C342 C343 1.363 . S
C342 H345 0.929 . S
C343 C342 1.363 . S
C343 C349 1.428 . S
H344 C340 0.930 . S
H345 C342 0.929 . S
S346 N347 1.613 . S
S346 N348 1.610 . S
N347 S346 1.613 . S
N347 C350 1.350 . S
N348 S346 1.610 . S
N348 C349 1.351 . S
C349 C343 1.428 . S
C349 N348 1.351 . S
C349 C350 1.434 . S
C350 C341 1.429 . S
C350 N347 1.350 . S
C350 C349 1.434 . S
C351 C352 1.369 . S
C351 C353 1.419 . S
C351 H355 0.930 . S
C352 C351 1.369 . S
C352 C361 1.429 . S
C353 C351 1.419 . S
C353 C354 1.363 . S
C353 H356 0.929 . S
C354 C353 1.363 . S
C354 C360 1.428 . S
H355 C351 0.930 . S
H356 C353 0.929 . S
S357 N358 1.613 . S
S357 N359 1.610 . S
N358 S357 1.613 . S
N358 C361 1.350 . S
N359 S357 1.610 . S
N359 C360 1.351 . S
C360 C354 1.428 . S
C360 N359 1.351 . S
C360 C361 1.434 . S
C361 C352 1.429 . S
C361 N358 1.350 . S
C361 C360 1.434 . S
C362 C363 1.369 . S
C362 C364 1.419 . S
C362 H366 0.930 . S
C363 C362 1.369 . S
C363 C372 1.429 . S
C364 C362 1.419 . S
C364 C365 1.363 . S
C364 H367 0.929 . S
C365 C364 1.363 . S
C365 C371 1.428 . S
H366 C362 0.930 . S
H367 C364 0.929 . S
S368 N369 1.613 . S
S368 N370 1.610 . S
N369 S368 1.613 . S
N369 C372 1.350 . S
N370 S368 1.610 . S
N370 C371 1.351 . S
C371 C365 1.428 . S
C371 N370 1.351 . S
C371 C372 1.434 . S
C372 C363 1.429 . S
C372 N369 1.350 . S
C372 C371 1.434 . S
C373 C374 1.369 . S
C373 C375 1.419 . S
C373 H377 0.930 . S
C374 C373 1.369 . S
C374 C383 1.429 . S
C375 C373 1.419 . S
C375 C376 1.363 . S
C375 H378 0.929 . S
C376 C375 1.363 . S
C376 C382 1.428 . S
H377 C373 0.930 . S
H378 C375 0.929 . S
S379 N380 1.613 . S
S379 N381 1.610 . S
N380 S379 1.613 . S
N380 C383 1.350 . S
N381 S379 1.610 . S
N381 C382 1.351 . S
C382 C376 1.428 . S
C382 N381 1.351 . S
C382 C383 1.434 . S
C383 C374 1.429 . S
C383 N380 1.350 . S
C383 C382 1.434 . S
C384 C385 1.369 . S
C384 C386 1.419 . S
C384 H388 0.930 . S
C385 C384 1.369 . S
C385 C394 1.429 . S
C386 C384 1.419 . S
C386 C387 1.363 . S
C386 H389 0.929 . S
C387 C386 1.363 . S
C387 C393 1.428 . S
H388 C384 0.930 . S
H389 C386 0.929 . S
S390 N391 1.613 . S
S390 N392 1.610 . S
N391 S390 1.613 . S
N391 C394 1.350 . S
N392 S390 1.610 . S
N392 C393 1.351 . S
C393 C387 1.428 . S
C393 N392 1.351 . S
C393 C394 1.434 . S
C394 C385 1.429 . S
C394 N391 1.350 . S
C394 C393 1.434 . S
C395 C396 1.369 . S
C395 C397 1.419 . S
C395 H399 0.930 . S
C396 C395 1.369 . S
C396 C405 1.429 . S
C397 C395 1.419 . S
C397 C398 1.363 . S
C397 H400 0.929 . S
C398 C397 1.363 . S
C398 C404 1.428 . S
H399 C395 0.930 . S
H400 C397 0.929 . S
S401 N402 1.613 . S
S401 N403 1.610 . S
N402 S401 1.613 . S
N402 C405 1.350 . S
N403 S401 1.610 . S
N403 C404 1.351 . S
C404 C398 1.428 . S
C404 N403 1.351 . S
C404 C405 1.434 . S
C405 C396 1.429 . S
C405 N402 1.350 . S
C405 C404 1.434 . S
C406 C407 1.369 . S
C406 C408 1.419 . S
C406 H410 0.930 . S
C407 C406 1.369 . S
C407 C416 1.429 . S
C408 C406 1.419 . S
C408 C409 1.363 . S
C408 H411 0.929 . S
C409 C408 1.363 . S
C409 C415 1.428 . S
H410 C406 0.930 . S
H411 C408 0.929 . S
S412 N413 1.613 . S
S412 N414 1.610 . S
N413 S412 1.613 . S
N413 C416 1.350 . S
N414 S412 1.610 . S
N414 C415 1.351 . S
C415 C409 1.428 . S
C415 N414 1.351 . S
C415 C416 1.434 . S
C416 C407 1.429 . S
C416 N413 1.350 . S
C416 C415 1.434 . S
C417 C418 1.369 . S
C417 C419 1.419 . S
C417 H421 0.930 . S
C418 C417 1.369 . S
C418 C427 1.429 . S
C419 C417 1.419 . S
C419 C420 1.363 . S
C419 H422 0.929 . S
C420 C419 1.363 . S
C420 C426 1.428 . S
H421 C417 0.930 . S
H422 C419 0.929 . S
S423 N424 1.613 . S
S423 N425 1.610 . S
N424 S423 1.613 . S
N424 C427 1.350 . S
N425 S423 1.610 . S
N425 C426 1.351 . S
C426 C420 1.428 . S
C426 N425 1.351 . S
C426 C427 1.434 . S
C427 C418 1.429 . S
C427 N424 1.350 . S
C427 C426 1.434 . S
C428 C429 1.369 . S
C428 C430 1.419 . S
C428 H432 0.930 . S
C429 C428 1.369 . S
C429 C438 1.429 . S
C430 C428 1.419 . S
C430 C431 1.363 . S
C430 H433 0.929 . S
C431 C430 1.363 . S
C431 C437 1.428 . S
H432 C428 0.930 . S
H433 C430 0.929 . S
S434 N435 1.613 . S
S434 N436 1.610 . S
N435 S434 1.613 . S
N435 C438 1.350 . S
N436 S434 1.610 . S
N436 C437 1.351 . S
C437 C431 1.428 . S
C437 N436 1.351 . S
C437 C438 1.434 . S
C438 C429 1.429 . S
C438 N435 1.350 . S
C438 C437 1.434 . S
C439 C440 1.369 . S
C439 C441 1.419 . S
C439 H443 0.930 . S
C440 C439 1.369 . S
C440 C449 1.429 . S
C441 C439 1.419 . S
C441 C442 1.363 . S
C441 H444 0.929 . S
C442 C441 1.363 . S
C442 C448 1.428 . S
H443 C439 0.930 . S
H444 C441 0.929 . S
S445 N446 1.613 . S
S445 N447 1.610 . S
N446 S445 1.613 . S
N446 C449 1.350 . S
N447 S445 1.610 . S
N447 C448 1.351 . S
C448 C442 1.428 . S
C448 N447 1.351 . S
C448 C449 1.434 . S
C449 C440 1.429 . S
C449 N446 1.350 . S
C449 C448 1.434 . S
C450 C451 1.369 . S
C450 C452 1.419 . S
C450 H454 0.930 . S
C451 C450 1.369 . S
C451 C460 1.429 . S
C452 C450 1.419 . S
C452 C453 1.363 . S
C452 H455 0.929 . S
C453 C452 1.363 . S
C453 C459 1.428 . S
H454 C450 0.930 . S
H455 C452 0.929 . S
S456 N457 1.613 . S
S456 N458 1.610 . S
N457 S456 1.613 . S
N457 C460 1.350 . S
N458 S456 1.610 . S
N458 C459 1.351 . S
C459 C453 1.428 . S
C459 N458 1.351 . S
C459 C460 1.434 . S
C460 C451 1.429 . S
C460 N457 1.350 . S
C460 C459 1.434 . S
C461 C462 1.369 . S
C461 C463 1.419 . S
C461 H465 0.930 . S
C462 C461 1.369 . S
C462 C471 1.429 . S
C463 C461 1.419 . S
C463 C464 1.363 . S
C463 H466 0.929 . S
C464 C463 1.363 . S
C464 C470 1.428 . S
H465 C461 0.930 . S
H466 C463 0.929 . S
S467 N468 1.613 . S
S467 N469 1.610 . S
N468 S467 1.613 . S
N468 C471 1.350 . S
N469 S467 1.610 . S
N469 C470 1.351 . S
C470 C464 1.428 . S
C470 N469 1.351 . S
C470 C471 1.434 . S
C471 C462 1.429 . S
C471 N468 1.350 . S
C471 C470 1.434 . S
C472 C473 1.369 . S
C472 C474 1.419 1_565 S
C472 H476 0.930 . S
C473 C472 1.369 . S
C473 C482 1.429 . S
C474 C472 1.419 1_545 S
C474 C475 1.363 . S
C474 H477 0.929 . S
C475 C474 1.363 . S
C475 C481 1.428 . S
H476 C472 0.930 . S
H477 C474 0.929 . S
S478 N479 1.613 1_545 S
S478 N480 1.610 . S
N479 S478 1.613 1_565 S
N479 C482 1.350 . S
N480 S478 1.610 . S
N480 C481 1.351 . S
C481 C475 1.428 . S
C481 N480 1.351 . S
C481 C482 1.434 1_545 S
C482 C473 1.429 . S
C482 N479 1.350 . S
C482 C481 1.434 1_565 S
C483 C484 1.369 . S
C483 C485 1.419 1_545 S
C483 H487 0.930 . S
C484 C483 1.369 . S
C484 C493 1.429 1_545 S
C485 C483 1.419 1_565 S
C485 C486 1.363 . S
C485 H488 0.929 . S
C486 C485 1.363 . S
C486 C492 1.428 . S
H487 C483 0.930 . S
H488 C485 0.929 . S
S489 N490 1.613 . S
S489 N491 1.610 . S
N490 S489 1.613 . S
N490 C493 1.350 . S
N491 S489 1.610 . S
N491 C492 1.351 . S
C492 C486 1.428 . S
C492 N491 1.351 . S
C492 C493 1.434 . S
C493 C484 1.429 1_565 S
C493 N490 1.350 . S
C493 C492 1.434 . S
C494 C495 1.369 . S
C494 C496 1.419 1_545 S
C494 H498 0.930 . S
C495 C494 1.369 . S
C495 C504 1.429 1_545 S
C496 C494 1.419 1_565 S
C496 C497 1.363 . S
C496 H499 0.929 . S
C497 C496 1.363 . S
C497 C503 1.428 . S
H498 C494 0.930 . S
H499 C496 0.929 . S
S500 N501 1.613 1_565 S
S500 N502 1.610 . S
N501 S500 1.613 1_545 S
N501 C504 1.350 1_545 S
N502 S500 1.610 . S
N502 C503 1.351 . S
C503 C497 1.428 . S
C503 N502 1.351 . S
C503 C504 1.434 . S
C504 C495 1.429 1_565 S
C504 N501 1.350 1_565 S
C504 C503 1.434 . S
C505 C506 1.369 . S
C505 C507 1.419 1_565 S
C505 H509 0.930 . S
C506 C505 1.369 . S
C506 C515 1.429 . S
C507 C505 1.419 1_545 S
C507 C508 1.363 . S
C507 H510 0.929 . S
C508 C507 1.363 . S
C508 C514 1.428 . S
H509 C505 0.930 . S
H510 C507 0.929 . S
S511 N512 1.613 . S
S511 N513 1.610 1_565 S
N512 S511 1.613 . S
N512 C515 1.350 . S
N513 S511 1.610 1_545 S
N513 C514 1.351 . S
C514 C508 1.428 . S
C514 N513 1.351 . S
C514 C515 1.434 1_545 S
C515 C506 1.429 . S
C515 N512 1.350 . S
C515 C514 1.434 1_565 S
C516 C517 1.369 . S
C516 C518 1.419 . S
C516 H520 0.930 . S
C517 C516 1.369 . S
C517 C526 1.429 . S
C518 C516 1.419 . S
C518 C519 1.363 . S
C518 H521 0.929 . S
C519 C518 1.363 . S
C519 C525 1.428 . S
H520 C516 0.930 . S
H521 C518 0.929 . S
S522 N523 1.613 . S
S522 N524 1.610 . S
N523 S522 1.613 . S
N523 C526 1.350 . S
N524 S522 1.610 . S
N524 C525 1.351 . S
C525 C519 1.428 . S
C525 N524 1.351 . S
C525 C526 1.434 . S
C526 C517 1.429 . S
C526 N523 1.350 . S
C526 C525 1.434 . S
C527 C528 1.369 . S
C527 C529 1.419 . S
C527 H531 0.930 . S
C528 C527 1.369 . S
C528 C537 1.429 . S
C529 C527 1.419 . S
C529 C530 1.363 . S
C529 H532 0.929 . S
C530 C529 1.363 . S
C530 C536 1.428 . S
H531 C527 0.930 . S
H532 C529 0.929 . S
S533 N534 1.613 . S
S533 N535 1.610 . S
N534 S533 1.613 . S
N534 C537 1.350 . S
N535 S533 1.610 . S
N535 C536 1.351 . S
C536 C530 1.428 . S
C536 N535 1.351 . S
C536 C537 1.434 . S
C537 C528 1.429 . S
C537 N534 1.350 . S
C537 C536 1.434 . S
C538 C539 1.369 . S
C538 C540 1.419 . S
C538 H542 0.930 . S
C539 C538 1.369 . S
C539 C548 1.429 . S
C540 C538 1.419 . S
C540 C541 1.363 . S
C540 H543 0.929 . S
C541 C540 1.363 . S
C541 C547 1.428 . S
H542 C538 0.930 . S
H543 C540 0.929 . S
S544 N545 1.613 . S
S544 N546 1.610 . S
N545 S544 1.613 . S
N545 C548 1.350 . S
N546 S544 1.610 . S
N546 C547 1.351 . S
C547 C541 1.428 . S
C547 N546 1.351 . S
C547 C548 1.434 . S
C548 C539 1.429 . S
C548 N545 1.350 . S
C548 C547 1.434 . S
C549 C550 1.369 . S
C549 C551 1.419 . S
C549 H553 0.930 . S
C550 C549 1.369 . S
C550 C559 1.429 . S
C551 C549 1.419 . S
C551 C552 1.363 . S
C551 H554 0.929 . S
C552 C551 1.363 . S
C552 C558 1.428 . S
H553 C549 0.930 . S
H554 C551 0.929 . S
S555 N556 1.613 . S
S555 N557 1.610 . S
N556 S555 1.613 . S
N556 C559 1.350 . S
N557 S555 1.610 . S
N557 C558 1.351 . S
C558 C552 1.428 . S
C558 N557 1.351 . S
C558 C559 1.434 . S
C559 C550 1.429 . S
C559 N556 1.350 . S
C559 C558 1.434 . S
C560 C561 1.369 . S
C560 C562 1.419 . S
C560 H564 0.930 . S
C561 C560 1.369 . S
C561 C570 1.429 . S
C562 C560 1.419 . S
C562 C563 1.363 . S
C562 H565 0.929 . S
C563 C562 1.363 . S
C563 C569 1.428 . S
H564 C560 0.930 . S
H565 C562 0.929 . S
S566 N567 1.613 . S
S566 N568 1.610 . S
N567 S566 1.613 . S
N567 C570 1.350 . S
N568 S566 1.610 . S
N568 C569 1.351 . S
C569 C563 1.428 . S
C569 N568 1.351 . S
C569 C570 1.434 . S
C570 C561 1.429 . S
C570 N567 1.350 . S
C570 C569 1.434 . S
C571 C572 1.369 . S
C571 C573 1.419 . S
C571 H575 0.930 . S
C572 C571 1.369 . S
C572 C581 1.429 . S
C573 C571 1.419 . S
C573 C574 1.363 . S
C573 H576 0.929 . S
C574 C573 1.363 . S
C574 C580 1.428 . S
H575 C571 0.930 . S
H576 C573 0.929 . S
S577 N578 1.613 . S
S577 N579 1.610 . S
N578 S577 1.613 . S
N578 C581 1.350 . S
N579 S577 1.610 . S
N579 C580 1.351 . S
C580 C574 1.428 . S
C580 N579 1.351 . S
C580 C581 1.434 . S
C581 C572 1.429 . S
C581 N578 1.350 . S
C581 C580 1.434 . S
C582 C583 1.369 . S
C582 C584 1.419 . S
C582 H586 0.930 . S
C583 C582 1.369 . S
C583 C592 1.429 . S
C584 C582 1.419 . S
C584 C585 1.363 . S
C584 H587 0.929 . S
C585 C584 1.363 . S
C585 C591 1.428 . S
H586 C582 0.930 . S
H587 C584 0.929 . S
S588 N589 1.613 . S
S588 N590 1.610 . S
N589 S588 1.613 . S
N589 C592 1.350 . S
N590 S588 1.610 . S
N590 C591 1.351 . S
C591 C585 1.428 . S
C591 N590 1.351 . S
C591 C592 1.434 . S
C592 C583 1.429 . S
C592 N589 1.350 . S
C592 C591 1.434 . S
C593 C594 1.369 . S
C593 C595 1.419 . S
C593 H597 0.930 . S
C594 C593 1.369 . S
C594 C603 1.429 . S
C595 C593 1.419 . S
C595 C596 1.363 . S
C595 H598 0.929 . S
C596 C595 1.363 . S
C596 C602 1.428 . S
H597 C593 0.930 . S
H598 C595 0.929 . S
S599 N600 1.613 . S
S599 N601 1.610 . S
N600 S599 1.613 . S
N600 C603 1.350 . S
N601 S599 1.610 . S
N601 C602 1.351 . S
C602 C596 1.428 . S
C602 N601 1.351 . S
C602 C603 1.434 . S
C603 C594 1.429 . S
C603 N600 1.350 . S
C603 C602 1.434 . S
C343 C263 1.454 . S
C341 C17 1.650 . S
C354 C281 1.322 . S
C352 C55 1.390 . S
C363 C87 1.470 . S
C365 C305 1.388 . S
C376 C335 1.353 . S
C374 C113 1.479 . S
C387 C323 1.384 . S
C385 C145 1.391 . S
C396 C177 1.456 . S
C398 C276 1.376 . S
C407 C215 1.559 . S
C409 C296 1.468 . S
C418 C247 1.455 . S
C420 C301 1.345 . S
C429 C241 1.447 . S
C431 C317 1.359 . S
C440 C183 1.455 . S
C442 C272 1.344 . S
C453 C339 1.338 . S
C451 C119 1.401 . S
C464 C284 1.342 . S
C462 C49 1.469 . S
C473 C81 1.643 . S
C475 C302 1.455 . S
C484 C23 1.477 . S
C486 C260 1.392 . S
C497 C280 1.376 . S
C495 C209 1.384 . S
C508 C326 1.467 . S
C506 C151 1.557 . S
C519 C322 1.316 . S
C517 C29 1.526 1_556 S
C530 C275 1.396 . S
C528 C61 1.413 . S
C539 C93 1.513 . S
C541 C297 1.296 . S
C550 C125 1.430 . S
C552 C318 1.409 . S
C563 C259 1.316 . S
C561 C157 1.443 1_554 S
C572 C189 1.524 . S
C574 C293 1.446 . S
C585 C314 1.331 . S
C583 C221 1.468 . S
C596 C338 1.423 . S
C594 C253 1.508 . S
