# Generated by pormake.
# Topology ctn, (3,4)-cn, num edge types: 1
# Building blocks:
#     Node 0, Type 0, BuildingBlock: CUQRIR_clean_linker_1, # of connection points: 3
#     Node 1, Type 0, BuildingBlock: CUQRIR_clean_linker_1, # of connection points: 3
#     Node 2, Type 0, BuildingBlock: CUQRIR_clean_linker_1, # of connection points: 3
#     Node 3, Type 0, BuildingBlock: CUQRIR_clean_linker_1, # of connection points: 3
#     Node 4, Type 0, BuildingBlock: CUQRIR_clean_linker_1, # of connection points: 3
#     Node 5, Type 0, BuildingBlock: CUQRIR_clean_linker_1, # of connection points: 3
#     Node 6, Type 0, BuildingBlock: CUQRIR_clean_linker_1, # of connection points: 3
#     Node 7, Type 0, BuildingBlock: CUQRIR_clean_linker_1, # of connection points: 3
#     Node 8, Type 0, BuildingBlock: CUQRIR_clean_linker_1, # of connection points: 3
#     Node 9, Type 0, BuildingBlock: CUQRIR_clean_linker_1, # of connection points: 3
#     Node 10, Type 0, BuildingBlock: CUQRIR_clean_linker_1, # of connection points: 3
#     Node 11, Type 0, BuildingBlock: CUQRIR_clean_linker_1, # of connection points: 3
#     Node 12, Type 0, BuildingBlock: CUQRIR_clean_linker_1, # of connection points: 3
#     Node 13, Type 0, BuildingBlock: CUQRIR_clean_linker_1, # of connection points: 3
#     Node 14, Type 0, BuildingBlock: CUQRIR_clean_linker_1, # of connection points: 3
#     Node 15, Type 0, BuildingBlock: CUQRIR_clean_linker_1, # of connection points: 3
#     Node 16, Type 1, BuildingBlock: NAHDIM_clean_sbu_0, # of connection points: 4
#     Node 17, Type 1, BuildingBlock: NAHDIM_clean_sbu_0, # of connection points: 4
#     Node 18, Type 1, BuildingBlock: NAHDIM_clean_sbu_0, # of connection points: 4
#     Node 19, Type 1, BuildingBlock: NAHDIM_clean_sbu_0, # of connection points: 4
#     Node 20, Type 1, BuildingBlock: NAHDIM_clean_sbu_0, # of connection points: 4
#     Node 21, Type 1, BuildingBlock: NAHDIM_clean_sbu_0, # of connection points: 4
#     Node 22, Type 1, BuildingBlock: NAHDIM_clean_sbu_0, # of connection points: 4
#     Node 23, Type 1, BuildingBlock: NAHDIM_clean_sbu_0, # of connection points: 4
#     Node 24, Type 1, BuildingBlock: NAHDIM_clean_sbu_0, # of connection points: 4
#     Node 25, Type 1, BuildingBlock: NAHDIM_clean_sbu_0, # of connection points: 4
#     Node 26, Type 1, BuildingBlock: NAHDIM_clean_sbu_0, # of connection points: 4
#     Node 27, Type 1, BuildingBlock: NAHDIM_clean_sbu_0, # of connection points: 4
#     Edge 28, Type (0, 1), BuildingBlock: MIFKUJ_clean_linker_0, # of connection points: 2
#     Edge 29, Type (0, 1), BuildingBlock: MIFKUJ_clean_linker_0, # of connection points: 2
#     Edge 30, Type (0, 1), BuildingBlock: MIFKUJ_clean_linker_0, # of connection points: 2
#     Edge 31, Type (0, 1), BuildingBlock: MIFKUJ_clean_linker_0, # of connection points: 2
#     Edge 32, Type (0, 1), BuildingBlock: MIFKUJ_clean_linker_0, # of connection points: 2
#     Edge 33, Type (0, 1), BuildingBlock: MIFKUJ_clean_linker_0, # of connection points: 2
#     Edge 34, Type (0, 1), BuildingBlock: MIFKUJ_clean_linker_0, # of connection points: 2
#     Edge 35, Type (0, 1), BuildingBlock: MIFKUJ_clean_linker_0, # of connection points: 2
#     Edge 36, Type (0, 1), BuildingBlock: MIFKUJ_clean_linker_0, # of connection points: 2
#     Edge 37, Type (0, 1), BuildingBlock: MIFKUJ_clean_linker_0, # of connection points: 2
#     Edge 38, Type (0, 1), BuildingBlock: MIFKUJ_clean_linker_0, # of connection points: 2
#     Edge 39, Type (0, 1), BuildingBlock: MIFKUJ_clean_linker_0, # of connection points: 2
#     Edge 40, Type (0, 1), BuildingBlock: MIFKUJ_clean_linker_0, # of connection points: 2
#     Edge 41, Type (0, 1), BuildingBlock: MIFKUJ_clean_linker_0, # of connection points: 2
#     Edge 42, Type (0, 1), BuildingBlock: MIFKUJ_clean_linker_0, # of connection points: 2
#     Edge 43, Type (0, 1), BuildingBlock: MIFKUJ_clean_linker_0, # of connection points: 2
#     Edge 44, Type (0, 1), BuildingBlock: MIFKUJ_clean_linker_0, # of connection points: 2
#     Edge 45, Type (0, 1), BuildingBlock: MIFKUJ_clean_linker_0, # of connection points: 2
#     Edge 46, Type (0, 1), BuildingBlock: MIFKUJ_clean_linker_0, # of connection points: 2
#     Edge 47, Type (0, 1), BuildingBlock: MIFKUJ_clean_linker_0, # of connection points: 2
#     Edge 48, Type (0, 1), BuildingBlock: MIFKUJ_clean_linker_0, # of connection points: 2
#     Edge 49, Type (0, 1), BuildingBlock: MIFKUJ_clean_linker_0, # of connection points: 2
#     Edge 50, Type (0, 1), BuildingBlock: MIFKUJ_clean_linker_0, # of connection points: 2
#     Edge 51, Type (0, 1), BuildingBlock: MIFKUJ_clean_linker_0, # of connection points: 2
#     Edge 52, Type (0, 1), BuildingBlock: MIFKUJ_clean_linker_0, # of connection points: 2
#     Edge 53, Type (0, 1), BuildingBlock: MIFKUJ_clean_linker_0, # of connection points: 2
#     Edge 54, Type (0, 1), BuildingBlock: MIFKUJ_clean_linker_0, # of connection points: 2
#     Edge 55, Type (0, 1), BuildingBlock: MIFKUJ_clean_linker_0, # of connection points: 2
#     Edge 56, Type (0, 1), BuildingBlock: MIFKUJ_clean_linker_0, # of connection points: 2
#     Edge 57, Type (0, 1), BuildingBlock: MIFKUJ_clean_linker_0, # of connection points: 2
#     Edge 58, Type (0, 1), BuildingBlock: MIFKUJ_clean_linker_0, # of connection points: 2
#     Edge 59, Type (0, 1), BuildingBlock: MIFKUJ_clean_linker_0, # of connection points: 2
#     Edge 60, Type (0, 1), BuildingBlock: MIFKUJ_clean_linker_0, # of connection points: 2
#     Edge 61, Type (0, 1), BuildingBlock: MIFKUJ_clean_linker_0, # of connection points: 2
#     Edge 62, Type (0, 1), BuildingBlock: MIFKUJ_clean_linker_0, # of connection points: 2
#     Edge 63, Type (0, 1), BuildingBlock: MIFKUJ_clean_linker_0, # of connection points: 2
#     Edge 64, Type (0, 1), BuildingBlock: MIFKUJ_clean_linker_0, # of connection points: 2
#     Edge 65, Type (0, 1), BuildingBlock: MIFKUJ_clean_linker_0, # of connection points: 2
#     Edge 66, Type (0, 1), BuildingBlock: MIFKUJ_clean_linker_0, # of connection points: 2
#     Edge 67, Type (0, 1), BuildingBlock: MIFKUJ_clean_linker_0, # of connection points: 2
#     Edge 68, Type (0, 1), BuildingBlock: MIFKUJ_clean_linker_0, # of connection points: 2
#     Edge 69, Type (0, 1), BuildingBlock: MIFKUJ_clean_linker_0, # of connection points: 2
#     Edge 70, Type (0, 1), BuildingBlock: MIFKUJ_clean_linker_0, # of connection points: 2
#     Edge 71, Type (0, 1), BuildingBlock: MIFKUJ_clean_linker_0, # of connection points: 2
#     Edge 72, Type (0, 1), BuildingBlock: MIFKUJ_clean_linker_0, # of connection points: 2
#     Edge 73, Type (0, 1), BuildingBlock: MIFKUJ_clean_linker_0, # of connection points: 2
#     Edge 74, Type (0, 1), BuildingBlock: MIFKUJ_clean_linker_0, # of connection points: 2
#     Edge 75, Type (0, 1), BuildingBlock: MIFKUJ_clean_linker_0, # of connection points: 2
# Relax obj value: 0.076
# Max RMSD: 0.205
# Mean RMSD: 0.129
data_MOF--net-ctn--node1-NAHDIM_clean_sbu_0--node2-CUQRIR_clean_linker_1--edge1-MIFKUJ_clean_linker_0
_symmetry_space_group_name_H-M    P1
_symmetry_Int_Tables_number       1
_symmetry_cell_setting            triclinic
loop_
_symmetry_equiv_pos_as_xyz
'x, y, z'
_cell_length_a     69.034426
_cell_length_b     64.829482
_cell_length_c     65.761175
_cell_angle_alpha  97.625175
_cell_angle_beta   88.879445
_cell_angle_gamma 94.654161
loop_
_atom_site_label
_atom_site_type_symbol
_atom_site_fract_x
_atom_site_fract_y
_atom_site_fract_z
_atom_type_partial_charge
C0 C 0.03752 0.02203 0.07523 0.0
N1 N 0.04692 0.02898 0.05885 0.0
N2 N 0.02406 0.03517 0.08277 0.0
C3 C 0.04261 0.00345 0.08496 0.0
C4 C 0.02569 0.05043 0.07052 0.0
N5 N 0.03971 0.04679 0.05614 0.0
C6 C 0.01314 0.06851 0.07212 0.0
H7 H 0.03442 0.98924 0.07718 0.0
H8 H 0.03868 0.00519 0.1015 0.0
H9 H 0.05835 1.00127 0.08323 0.0
H10 H 0.02065 0.08205 0.08174 0.0
H11 H 0.99889 0.0646 0.07934 0.0
H12 H 0.01073 0.07316 0.05679 0.0
C13 C 0.28432 0.71527 0.21715 0.0
N14 N 0.29123 0.70598 0.23247 0.0
N15 N 0.29419 0.73402 0.21606 0.0
C16 C 0.26691 0.70682 0.20433 0.0
C17 C 0.30725 0.7359 0.23145 0.0
N18 N 0.30532 0.71892 0.24155 0.0
C19 C 0.32274 0.75357 0.23572 0.0
H20 H 0.27166 0.69587 0.1911 0.0
H21 H 0.25978 0.71953 0.19843 0.0
H22 H 0.25618 0.69813 0.21344 0.0
H23 H 0.31752 0.76522 0.24809 0.0
H24 H 0.32604 0.76137 0.22189 0.0
H25 H 0.33626 0.74788 0.24104 0.0
C26 C 0.96072 0.48931 0.06863 0.0
N27 N 0.97118 0.47249 0.06859 0.0
N28 N 0.94661 0.4854 0.05431 0.0
C29 C 0.9643 0.50958 0.08254 0.0
C30 C 0.94877 0.46559 0.04562 0.0
N31 N 0.96356 0.45763 0.05446 0.0
C32 C 0.93676 0.4542 0.02815 0.0
H33 H 0.95103 0.51823 0.08451 0.0
H34 H 0.97583 0.51947 0.07564 0.0
H35 H 0.96933 0.50676 0.09778 0.0
H36 H 0.92879 0.46497 0.02028 0.0
H37 H 0.92597 0.44289 0.03424 0.0
H38 H 0.94615 0.4453 0.01686 0.0
C39 C 0.69063 0.7662 0.22619 0.0
N40 N 0.70673 0.77617 0.21882 0.0
N41 N 0.68296 0.77836 0.24217 0.0
C42 C 0.68172 0.74519 0.21693 0.0
C43 C 0.69494 0.79611 0.24422 0.0
N44 N 0.70929 0.79488 0.22985 0.0
C45 C 0.69352 0.81384 0.26131 0.0
H46 H 0.68449 0.74259 0.20014 0.0
H47 H 0.66582 0.7437 0.21987 0.0
H48 H 0.68843 0.73289 0.22395 0.0
H49 H 0.68598 0.80842 0.27491 0.0
H50 H 0.6851 0.82591 0.25591 0.0
H51 H 0.70816 0.8211 0.26589 0.0
C52 C 0.03085 0.97456 0.47946 0.0
N53 N 0.04752 0.97529 0.4902 0.0
N54 N 0.0333 0.98633 0.46393 0.0
C55 C 0.01266 0.96104 0.48309 0.0
C56 C 0.05209 0.99411 0.46548 0.0
N57 N 0.06085 0.98718 0.48128 0.0
C58 C 0.06135 0.00988 0.45266 0.0
H59 H 0.0162 0.9466 0.4891 0.0
H60 H 0.00422 0.95669 0.46877 0.0
H61 H 0.00345 0.96984 0.49463 0.0
H62 H 0.05023 0.0186 0.44628 0.0
H63 H 0.06944 1.00163 0.43972 0.0
H64 H 0.07176 0.02116 0.46187 0.0
C65 C 0.189 0.72155 0.80475 0.0
N66 N 0.20463 0.71487 0.81322 0.0
N67 N 0.18585 0.71123 0.78569 0.0
C68 C 0.1776 0.7391 0.81464 0.0
C69 C 0.20029 0.69814 0.78281 0.0
N70 N 0.21187 0.7005 0.79954 0.0
C71 C 0.20209 0.68196 0.76438 0.0
H72 H 0.16637 0.73276 0.82494 0.0
H73 H 0.17033 0.74665 0.80301 0.0
H74 H 0.18724 0.75105 0.82404 0.0
H75 H 0.21236 0.68841 0.7532 0.0
H76 H 0.18784 0.67773 0.75679 0.0
H77 H 0.20781 0.66769 0.7688 0.0
C78 C 0.95265 0.52891 0.44618 0.0
N79 N 0.96609 0.5454 0.44911 0.0
N80 N 0.93956 0.5297 0.46182 0.0
C81 C 0.95225 0.51218 0.428 0.0
C82 C 0.94565 0.54715 0.47443 0.0
N83 N 0.96172 0.55672 0.46666 0.0
C84 C 0.93648 0.55441 0.4948 0.0
H85 H 0.95827 0.51856 0.41414 0.0
H86 H 0.93724 0.50515 0.42491 0.0
H87 H 0.96141 0.49976 0.43132 0.0
H88 H 0.9478 0.5608 0.50614 0.0
H89 H 0.92757 0.54156 0.50092 0.0
H90 H 0.92705 0.56708 0.49287 0.0
C91 C 0.78889 0.80186 0.8122 0.0
N92 N 0.80474 0.79071 0.80941 0.0
N93 N 0.79084 0.81849 0.80166 0.0
C94 C 0.77214 0.79735 0.82636 0.0
C95 C 0.80849 0.81716 0.79248 0.0
N96 N 0.81709 0.80043 0.79739 0.0
C97 C 0.81659 0.83112 0.7773 0.0
H98 H 0.76145 0.78576 0.81794 0.0
H99 H 0.76479 0.81169 0.83179 0.0
H100 H 0.77713 0.79063 0.83982 0.0
H101 H 0.82697 0.8434 0.78523 0.0
H102 H 0.80493 0.83874 0.77049 0.0
H103 H 0.82453 0.82201 0.76484 0.0
C104 C 0.28514 0.29607 0.31361 0.0
N105 N 0.30105 0.28503 0.31101 0.0
N106 N 0.28745 0.31316 0.30375 0.0
C107 C 0.26798 0.29091 0.32697 0.0
C108 C 0.30538 0.31219 0.29515 0.0
N109 N 0.31378 0.29524 0.29978 0.0
C110 C 0.314 0.32676 0.28078 0.0
H111 H 0.25853 0.27801 0.3186 0.0
H112 H 0.25935 0.30456 0.33122 0.0
H113 H 0.273 0.28551 0.34114 0.0
H114 H 0.30269 0.33518 0.27434 0.0
H115 H 0.32178 0.3179 0.26801 0.0
H116 H 0.32465 0.33836 0.28924 0.0
C117 C 0.467 0.98532 0.56798 0.0
N118 N 0.47866 0.96941 0.56737 0.0
N119 N 0.45626 0.98338 0.55069 0.0
C120 C 0.46712 0.00353 0.58476 0.0
C121 C 0.46188 0.96574 0.53953 0.0
N122 N 0.47559 0.95738 0.54958 0.0
C123 C 0.45357 0.95631 0.51909 0.0
H124 H 0.4567 0.99956 0.59697 0.0
H125 H 0.46268 0.01768 0.57884 0.0
H126 H 0.48176 0.00699 0.59165 0.0
H127 H 0.4624 0.96271 0.50674 0.0
H128 H 0.43834 0.96023 0.5177 0.0
H129 H 0.45403 0.9391 0.51679 0.0
C130 C 0.18464 0.26869 0.72517 0.0
N131 N 0.20203 0.27645 0.71835 0.0
N132 N 0.18171 0.27633 0.74508 0.0
C133 C 0.17113 0.25253 0.71291 0.0
C134 C 0.19798 0.2889 0.75018 0.0
N135 N 0.21043 0.28879 0.734 0.0
C136 C 0.20102 0.30266 0.77033 0.0
H137 H 0.16132 0.26051 0.70392 0.0
H138 H 0.16212 0.24321 0.72311 0.0
H139 H 0.17941 0.24187 0.70205 0.0
H140 H 0.21023 0.29497 0.78024 0.0
H141 H 0.18703 0.30551 0.77838 0.0
H142 H 0.20866 0.31786 0.76789 0.0
C143 C 0.77932 0.22761 0.72733 0.0
N144 N 0.78632 0.2177 0.74217 0.0
N145 N 0.79245 0.24283 0.7224 0.0
C146 C 0.76021 0.22143 0.71671 0.0
C147 C 0.80777 0.24177 0.73465 0.0
N148 N 0.80415 0.22627 0.7465 0.0
C149 C 0.82625 0.25577 0.73493 0.0
H150 H 0.76047 0.20525 0.70878 0.0
H151 H 0.75719 0.23199 0.70541 0.0
H152 H 0.74821 0.22157 0.72816 0.0
H153 H 0.83212 0.2592 0.75072 0.0
H154 H 0.82389 0.27061 0.72904 0.0
H155 H 0.83722 0.24769 0.72496 0.0
C156 C 0.53168 0.51363 0.56779 0.0
N157 N 0.54156 0.52117 0.55196 0.0
N158 N 0.51693 0.52555 0.57415 0.0
C159 C 0.53752 0.49589 0.57836 0.0
C160 C 0.51829 0.54072 0.56181 0.0
N161 N 0.53339 0.53823 0.5485 0.0
C162 C 0.50412 0.5572 0.56186 0.0
H163 H 0.53036 0.48102 0.5707 0.0
H164 H 0.533 0.49783 0.59475 0.0
H165 H 0.55346 0.49484 0.57742 0.0
H166 H 0.48976 0.55197 0.56807 0.0
H167 H 0.5022 0.56111 0.54613 0.0
H168 H 0.5099 0.57157 0.57164 0.0
C169 C 0.52457 0.46999 0.97906 0.0
N170 N 0.54169 0.4725 0.98919 0.0
N171 N 0.52506 0.48212 0.96376 0.0
C172 C 0.50797 0.45445 0.983 0.0
C173 C 0.54317 0.49194 0.96484 0.0
N174 N 0.55335 0.48589 0.98011 0.0
C175 C 0.55052 0.50844 0.9519 0.0
H176 H 0.51338 0.44054 0.98852 0.0
H177 H 0.49934 0.44935 0.96892 0.0
H178 H 0.49832 0.46185 0.99503 0.0
H179 H 0.56092 0.52009 0.96061 0.0
H180 H 0.53838 0.51654 0.9466 0.0
H181 H 0.55824 0.50095 0.93827 0.0
C182 C 0.70473 0.23572 0.29601 0.0
N183 N 0.71823 0.22688 0.30597 0.0
N184 N 0.69682 0.22193 0.28058 0.0
C185 C 0.69786 0.25708 0.30259 0.0
C186 C 0.70575 0.20428 0.28165 0.0
N187 N 0.71867 0.20722 0.29723 0.0
C188 C 0.70259 0.18464 0.26673 0.0
H189 H 0.68282 0.2581 0.29742 0.0
H190 H 0.7076 0.26881 0.29571 0.0
H191 H 0.69836 0.26102 0.31952 0.0
H192 H 0.71631 0.17687 0.26393 0.0
H193 H 0.69698 0.18803 0.25193 0.0
H194 H 0.69174 0.17373 0.27331 0.0
C195 C 0.45896 0.02657 0.96177 0.0
N196 N 0.4726 0.043 0.96352 0.0
N197 N 0.44666 0.02791 0.97812 0.0
C198 C 0.45881 0.0081 0.94524 0.0
C199 C 0.45336 0.04564 0.98995 0.0
N200 N 0.46926 0.05465 0.98126 0.0
C201 C 0.44352 0.05501 0.00924 0.0
H202 H 0.44999 0.01118 0.93221 0.0
H203 H 0.4523 0.99374 0.95099 0.0
H204 H 0.47375 0.00542 0.93955 0.0
H205 H 0.44995 0.04944 0.02265 0.0
H206 H 0.4277 0.0503 0.00902 0.0
H207 H 0.44568 0.0723 0.01116 0.0
C208 C 0.21389 0.91376 0.02382 0.0
O209 O 0.22697 0.91613 0.00937 0.0
O210 O 0.23467 0.86059 0.00743 0.0
Zn211 Zn 0.23923 0.88279 0.03204 0.0
O212 O 0.26342 0.90142 0.02746 0.0
C213 C 0.24999 0.85077 0.05513 0.0
O214 O 0.25327 0.84151 0.03652 0.0
O215 O 0.216 0.90026 0.03585 0.0
C216 C 0.27907 0.89374 0.02082 0.0
O217 O 0.27946 0.87337 0.01697 0.0
C218 C 0.24033 0.86314 0.98934 0.0
O219 O 0.24896 0.8812 0.98598 0.0
O220 O 0.24347 0.86876 0.05731 0.0
C221 C 0.16363 0.4754 0.2795 0.0
O222 O 0.16893 0.49439 0.28821 0.0
O223 O 0.11706 0.50547 0.28806 0.0
Zn224 Zn 0.13389 0.49717 0.26322 0.0
O225 O 0.15347 0.52127 0.25845 0.0
C226 C 0.11622 0.49916 0.22342 0.0
O227 O 0.12837 0.51584 0.22332 0.0
O228 O 0.14871 0.47251 0.26811 0.0
C229 C 0.15835 0.53606 0.27259 0.0
O230 O 0.15018 0.53608 0.2908 0.0
C231 C 0.10483 0.519 0.28736 0.0
O232 O 0.10346 0.52747 0.27041 0.0
O233 O 0.11623 0.48882 0.23857 0.0
C234 C 0.80487 0.61339 0.99052 0.0
O235 O 0.8059 0.61909 0.97206 0.0
O236 O 0.77434 0.64834 0.96933 0.0
Zn237 Zn 0.76857 0.63514 0.99548 0.0
O238 O 0.74395 0.61532 0.99233 0.0
C239 C 0.76958 0.65554 0.03741 0.0
O240 O 0.77702 0.63819 0.04042 0.0
O241 O 0.79071 0.61849 0.00228 0.0
C242 C 0.72819 0.61973 1.00169 0.0
O243 O 0.72756 0.63789 0.01313 0.0
C244 C 0.78767 0.66308 0.96901 0.0
O245 O 0.79775 0.66941 0.98574 0.0
O246 O 0.76497 0.658 0.01929 0.0
C247 C 0.84178 0.0409 0.30191 0.0
O248 O 0.84281 0.03069 0.31778 0.0
O249 O 0.88213 0.00722 0.30624 0.0
Zn250 Zn 0.86551 0.00871 0.28134 0.0
O251 O 0.84677 0.98302 0.27554 0.0
C252 C 0.89488 0.02611 0.25541 0.0
O253 O 0.89574 0.04146 0.27064 0.0
O254 O 0.85036 0.03441 0.28528 0.0
C255 C 0.85289 0.96511 0.27014 0.0
O256 O 0.8717 0.96327 0.26907 0.0
C257 C 0.89861 0.9997 0.30378 0.0
O258 O 0.90434 0.9927 0.28515 0.0
O259 O 0.88285 0.01037 0.25649 0.0
C260 C 0.31049 0.1114 0.49499 0.0
O261 O 0.31093 0.11777 0.47683 0.0
O262 O 0.28208 0.14921 0.47673 0.0
Zn263 Zn 0.2752 0.13399 0.50143 0.0
O264 O 0.25017 0.11498 0.49729 0.0
C265 C 0.25938 0.16889 0.52645 0.0
O266 O 0.24877 0.16884 0.51007 0.0
O267 O 0.29686 0.11645 0.50751 0.0
C268 C 0.24 0.11106 0.5129 0.0
O269 O 0.24584 0.11962 0.53121 0.0
C270 C 0.27478 0.14391 0.459 0.0
O271 O 0.26212 0.12756 0.45606 0.0
O272 O 0.27191 0.15553 0.52625 0.0
C273 C 0.34944 0.54655 0.79625 0.0
O274 O 0.36594 0.54907 0.80624 0.0
O275 O 0.38132 0.50464 0.80138 0.0
Zn276 Zn 0.36299 0.50608 0.77806 0.0
O277 O 0.34612 0.47898 0.77154 0.0
C278 C 0.38452 0.49577 0.74037 0.0
O279 O 0.37843 0.47662 0.74316 0.0
O280 O 0.34548 0.52982 0.78411 0.0
C281 C 0.34981 0.46188 0.77758 0.0
O282 O 0.36509 0.46148 0.78906 0.0
C283 C 0.37648 0.50445 0.82012 0.0
O284 O 0.35812 0.50545 0.82552 0.0
O285 O 0.37959 0.51093 0.75322 0.0
C286 C 0.7162 0.41827 0.52804 0.0
O287 O 0.73266 0.42691 0.52161 0.0
O288 O 0.73767 0.36187 0.50635 0.0
Zn289 Zn 0.73999 0.38384 0.53124 0.0
O290 O 0.7638 0.40312 0.5272 0.0
C291 C 0.74945 0.35167 0.55502 0.0
O292 O 0.75232 0.3418 0.53657 0.0
O293 O 0.71581 0.40003 0.53333 0.0
C294 C 0.78016 0.39579 0.52308 0.0
O295 O 0.78149 0.3756 0.52232 0.0
C296 C 0.74257 0.36632 0.48861 0.0
O297 O 0.74842 0.3857 0.48642 0.0
O298 O 0.74369 0.37 0.5568 0.0
C299 C 0.66686 0.98207 0.78229 0.0
O300 O 0.67366 1.00136 0.78843 0.0
O301 O 0.61529 0.00837 0.79205 0.0
Zn302 Zn 0.63473 0.00292 0.76893 0.0
O303 O 0.65291 0.02895 0.76816 0.0
C304 C 0.60744 0.00734 0.73744 0.0
O305 O 0.6047 0.02453 0.74981 0.0
O306 O 0.65036 0.97882 0.77366 0.0
C307 C 0.66176 0.03324 0.75193 0.0
O308 O 0.65869 0.02066 0.73473 0.0
C309 C 0.62041 0.01739 0.80971 0.0
O310 O 0.63889 0.02297 0.81317 0.0
O311 O 0.61996 0.99549 0.74222 0.0
C312 C 0.01232 0.20515 0.93332 0.0
O313 O 0.02364 0.22258 0.93517 0.0
O314 O 0.9686 0.22221 0.88945 0.0
Zn315 Zn 0.99254 0.22841 0.90743 0.0
O316 O 0.98967 0.25419 0.9283 0.0
C317 C 0.01457 0.24261 0.87328 0.0
O318 O 0.99776 0.24892 0.86873 0.0
O319 O 0.99733 0.2037 0.92211 0.0
C320 C 0.00374 0.268 0.93234 0.0
O321 O 0.02043 0.26554 0.92276 0.0
C322 C 0.95159 0.22644 0.89555 0.0
O323 O 0.94899 0.23462 0.91469 0.0
O324 O 0.01579 0.23348 0.88911 0.0
C325 C 0.50223 0.68379 0.41212 0.0
O326 O 0.50012 0.67865 0.39224 0.0
O327 O 0.46886 0.72048 0.38891 0.0
Zn328 Zn 0.49475 0.7258 0.40371 0.0
O329 O 0.49414 0.75258 0.42361 0.0
C330 C 0.51673 0.74243 0.37084 0.0
O331 O 0.50244 0.75473 0.37168 0.0
O332 O 0.50009 0.70248 0.42003 0.0
C333 C 0.50873 0.76588 0.42677 0.0
O334 O 0.52506 0.76239 0.4168 0.0
C335 C 0.46709 0.71021 0.37106 0.0
O336 O 0.48234 0.70195 0.3621 0.0
O337 O 0.5165 0.72875 0.38304 0.0
C338 C 0.0112 0.8205 0.62246 0.0
O339 O 0.99772 0.82359 0.63667 0.0
O340 O 0.98622 0.78222 0.65234 0.0
Zn341 Zn 0.0096 0.77736 0.63321 0.0
O342 O 0.00373 0.75264 0.61109 0.0
C343 C 0.03011 0.76477 0.66725 0.0
O344 O 0.01247 0.76219 0.67481 0.0
O345 O 0.01786 0.80263 0.61882 0.0
C346 C 0.00867 0.73451 0.61304 0.0
O347 O 0.01714 0.7316 0.63002 0.0
C348 C 0.97296 0.76777 0.65439 0.0
O349 O 0.97381 0.74957 0.64308 0.0
O350 O 0.03244 0.77134 0.64991 0.0
C351 C 0.52829 0.30893 0.11296 0.0
O352 O 0.53865 0.29272 0.10883 0.0
O353 O 0.48614 0.28376 0.15899 0.0
Zn354 Zn 0.50928 0.28154 0.13916 0.0
O355 O 0.50491 0.25711 0.11642 0.0
C356 C 0.53184 0.26809 0.17102 0.0
O357 O 0.51455 0.26175 0.17757 0.0
O358 O 0.51443 0.30809 0.12595 0.0
C359 C 0.50771 0.23862 0.11952 0.0
O360 O 0.51283 0.23534 0.13786 0.0
C361 C 0.47187 0.26999 0.15877 0.0
O362 O 0.47125 0.25372 0.14452 0.0
O363 O 0.5332 0.27726 0.15505 0.0
H364 H 0.19111 0.7081 0.85039 0.0
H365 H 0.20007 0.72939 0.88305 0.0
H366 H 0.24434 0.76442 0.8516 0.0
H367 H 0.23579 0.74233 0.81919 0.0
H368 H 0.25613 0.76204 0.88895 0.0
H369 H 0.19743 0.78131 0.86024 0.0
H370 H 0.16412 0.77561 0.84655 0.0
H371 H 0.14325 0.75497 0.90298 0.0
H372 H 0.17645 0.7606 0.91702 0.0
H373 H 0.25643 0.86099 0.9509 0.0
H374 H 0.25281 0.83199 0.92306 0.0
H375 H 0.21542 0.79674 0.9615 0.0
H376 H 0.21903 0.82565 0.98952 0.0
H377 H 0.2005 0.79735 0.92261 0.0
H378 H 0.26009 0.78321 0.95234 0.0
H379 H 0.29345 0.79163 0.96529 0.0
H380 H 0.31303 0.80491 0.90567 0.0
H381 H 0.2797 0.79686 0.89243 0.0
C382 C 0.20322 0.71985 0.85078 0.0
C383 C 0.21294 0.72363 0.83258 0.0
C384 C 0.20818 0.73218 0.86928 0.0
C385 C 0.22253 0.7489 0.8697 0.0
C386 C 0.23317 0.75168 0.85168 0.0
C387 C 0.2284 0.73908 0.83323 0.0
C388 C 0.22523 0.76456 0.88831 0.0
C389 C 0.24399 0.76985 0.89622 0.0
C390 C 0.20937 0.77463 0.89802 0.0
C391 C 0.18943 0.77117 0.88959 0.0
C392 C 0.18575 0.77545 0.86968 0.0
C393 C 0.16689 0.77227 0.86187 0.0
C394 C 0.15161 0.76482 0.87384 0.0
C395 C 0.15512 0.76068 0.8937 0.0
C396 C 0.17393 0.76392 0.90162 0.0
C397 C 0.24744 0.84707 0.95346 0.0
C398 C 0.23799 0.84565 0.97242 0.0
C399 C 0.2455 0.83046 0.93757 0.0
C400 C 0.23401 0.81215 0.94029 0.0
C401 C 0.22443 0.81072 0.95913 0.0
C402 C 0.22651 0.82725 0.97511 0.0
C403 C 0.23138 0.79485 0.92317 0.0
C404 C 0.21261 0.78934 0.91549 0.0
C405 C 0.24727 0.78486 0.91355 0.0
C406 C 0.26735 0.7896 0.92144 0.0
C407 C 0.27147 0.78809 0.94203 0.0
C408 C 0.29038 0.79277 0.94942 0.0
C409 C 0.30534 0.79885 0.93632 0.0
C410 C 0.30142 0.80021 0.9158 0.0
C411 C 0.28253 0.79557 0.90834 0.0
H412 H 0.31998 0.80247 0.94207 0.0
H413 H 0.13703 0.76232 0.86775 0.0
H414 H 1.00034 0.52901 0.45002 0.0
H415 H 0.02613 0.5296 0.42377 0.0
H416 H 0.9939 0.5698 0.39211 0.0
H417 H 0.96814 0.56899 0.41851 0.0
H418 H 0.00388 0.53611 0.36684 0.0
H419 H 0.03659 0.58803 0.41502 0.0
H420 H 0.04975 0.60352 0.44867 0.0
H421 H 0.08787 0.5542 0.44725 0.0
H422 H 0.07471 0.5382 0.41371 0.0
H423 H 0.07618 0.54601 0.29004 0.0
H424 H 0.05432 0.55485 0.319 0.0
H425 H 0.08248 0.51432 0.35402 0.0
H426 H 0.10457 0.50551 0.32516 0.0
H427 H 0.07485 0.55112 0.37745 0.0
H428 H 0.04011 0.49785 0.33093 0.0
H429 H 0.02669 0.48194 0.29748 0.0
H430 H 0.99213 0.53391 0.29618 0.0
H431 H 0.00557 0.55028 0.32951 0.0
C432 C 0.99921 0.53844 0.43775 0.0
C433 C 0.98262 0.5492 0.43621 0.0
C434 C 0.01384 0.53878 0.42277 0.0
C435 C 0.01201 0.54984 0.406 0.0
C436 C 0.99565 0.56122 0.40493 0.0
C437 C 0.98107 0.56093 0.41999 0.0
C438 C 0.02624 0.5479 0.38873 0.0
C439 C 0.01937 0.53981 0.3691 0.0
C440 C 0.04649 0.55219 0.39177 0.0
C441 C 0.05453 0.56181 0.4119 0.0
C442 C 0.04766 0.58038 0.42195 0.0
C443 C 0.05515 0.58927 0.441 0.0
C444 C 0.06961 0.57983 0.45012 0.0
C445 C 0.07665 0.56149 0.44017 0.0
C446 C 0.0692 0.55251 0.42113 0.0
C447 C 0.07781 0.53903 0.30392 0.0
C448 C 0.09204 0.52492 0.30522 0.0
C449 C 0.06527 0.54409 0.32046 0.0
C450 C 0.06663 0.53508 0.3386 0.0
C451 C 0.08116 0.52144 0.34017 0.0
C452 C 0.09371 0.51635 0.32361 0.0
C453 C 0.05245 0.53928 0.35565 0.0
C454 C 0.05934 0.54768 0.3752 0.0
C455 C 0.03218 0.53526 0.35259 0.0
C456 C 0.02401 0.52539 0.3326 0.0
C457 C 0.02977 0.50597 0.32343 0.0
C458 C 0.02214 0.49685 0.30451 0.0
C459 C 0.00861 0.50694 0.29469 0.0
C460 C 0.00264 0.52613 0.30379 0.0
C461 C 0.01025 0.53533 0.3227 0.0
H462 H 0.0027 0.49985 0.28005 0.0
H463 H 0.07539 0.58674 0.46486 0.0
H464 H 0.83174 0.78973 0.83808 0.0
H465 H 0.83187 0.76389 0.86221 0.0
H466 H 0.78507 0.72693 0.82876 0.0
H467 H 0.78475 0.75317 0.80511 0.0
H468 H 0.77555 0.7339 0.86723 0.0
H469 H 0.83207 0.70998 0.83139 0.0
H470 H 0.86482 0.71328 0.81594 0.0
H471 H 0.88882 0.7371 0.87495 0.0
H472 H 0.85617 0.73425 0.89072 0.0
H473 H 0.76957 0.65417 0.93169 0.0
H474 H 0.77527 0.67219 0.90144 0.0
H475 H 0.82009 0.71339 0.93363 0.0
H476 H 0.81469 0.69528 0.96379 0.0
H477 H 0.83097 0.70209 0.89432 0.0
H478 H 0.77443 0.72885 0.92925 0.0
H479 H 0.74169 0.72638 0.94488 0.0
H480 H 0.71791 0.69762 0.88718 0.0
H481 H 0.75057 0.69968 0.87127 0.0
C482 C 0.82204 0.77566 0.83555 0.0
C483 C 0.80834 0.77322 0.81979 0.0
C484 C 0.82203 0.76092 0.84934 0.0
C485 C 0.80846 0.74337 0.84737 0.0
C486 C 0.79564 0.74032 0.8307 0.0
C487 C 0.79555 0.75515 0.81708 0.0
C488 C 0.80612 0.72952 0.86381 0.0
C489 C 0.78763 0.7266 0.87281 0.0
C490 C 0.82194 0.72046 0.87163 0.0
C491 C 0.84163 0.72206 0.86221 0.0
C492 C 0.84431 0.71607 0.84105 0.0
C493 C 0.86286 0.71784 0.83224 0.0
C494 C 0.87888 0.72543 0.84444 0.0
C495 C 0.87639 0.73123 0.86551 0.0
C496 C 0.85787 0.72952 0.8744 0.0
C497 C 0.78071 0.66699 0.93231 0.0
C498 C 0.79155 0.67336 0.95027 0.0
C499 C 0.78394 0.67732 0.915 0.0
C500 C 0.79797 0.69434 0.9153 0.0
C501 C 0.80919 0.70033 0.93299 0.0
C502 C 0.806 0.68999 0.95029 0.0
C503 C 0.80042 0.70647 0.89755 0.0
C504 C 0.8189 0.70918 0.88847 0.0
C505 C 0.78461 0.7154 0.88961 0.0
C506 C 0.76497 0.71421 0.89914 0.0
C507 C 0.76224 0.72186 0.91994 0.0
C508 C 0.7437 0.72055 0.92884 0.0
C509 C 0.72774 0.71179 0.91704 0.0
C510 C 0.73029 0.70437 0.8963 0.0
C511 C 0.74881 0.70561 0.88734 0.0
H512 H 0.7134 0.7108 0.92396 0.0
H513 H 0.89324 0.72679 0.83759 0.0
H514 H 0.99762 1.00008 0.47075 0.0
H515 H 0.97362 0.0042 0.44477 0.0
H516 H 0.01378 0.98286 0.3969 0.0
H517 H 0.03772 0.97893 0.42295 0.0
H518 H 0.99673 0.0158 0.38744 0.0
H519 H 0.9756 0.95082 0.41186 0.0
H520 H 0.96557 0.92821 0.43816 0.0
H521 H 0.9171 0.96463 0.45502 0.0
H522 H 0.92704 0.98768 0.42904 0.0
H523 H 0.93523 0.98668 0.30275 0.0
H524 H 0.95696 0.98632 0.33144 0.0
H525 H 0.91336 0.01119 0.37353 0.0
H526 H 0.89132 0.01149 0.34476 0.0
H527 H 0.93084 0.97898 0.38753 0.0
H528 H 0.95117 0.04276 0.36142 0.0
H529 H 0.96139 0.06501 0.33488 0.0
H530 H 0.01149 0.03039 0.32088 0.0
H531 H 1.00143 0.00772 0.34714 0.0
C532 C 1.00119 0.99627 0.45466 0.0
C533 C 0.01938 0.98916 0.44873 0.0
C534 C 0.98753 0.99858 0.43985 0.0
C535 C 0.99181 0.99362 0.41887 0.0
C536 C 0.01015 0.98682 0.41298 0.0
C537 C 0.0238 0.98457 0.42779 0.0
C538 C 0.9772 0.99534 0.40299 0.0
C539 C 0.9824 0.00758 0.38736 0.0
C540 C 0.95829 0.98508 0.40317 0.0
C541 C 0.95218 0.97111 0.41866 0.0
C542 C 0.96289 0.95411 0.42128 0.0
C543 C 0.95721 0.9412 0.43612 0.0
C544 C 0.94074 0.94501 0.44829 0.0
C545 C 0.92988 0.96171 0.44561 0.0
C546 C 0.93552 0.9747 0.43082 0.0
C547 C 0.93018 0.99207 0.31808 0.0
C548 C 0.91153 0.9992 0.32143 0.0
C549 C 0.94269 0.99193 0.33448 0.0
C550 C 0.93689 0.99898 0.3546 0.0
C551 C 0.91815 0.00575 0.3581 0.0
C552 C 0.9056 0.00596 0.34165 0.0
C553 C 0.95051 0.99919 0.37185 0.0
C554 C 0.94512 0.98733 0.38772 0.0
C555 C 0.96928 0.00975 0.37188 0.0
C556 C 0.97545 0.02343 0.35615 0.0
C557 C 0.96429 0.03979 0.35258 0.0
C558 C 0.97007 0.05249 0.3376 0.0
C559 C 0.98705 0.04909 0.32617 0.0
C560 C 0.99833 0.033 0.32973 0.0
C561 C 0.9926 0.02023 0.34468 0.0
H562 H 0.9915 0.05894 0.31458 0.0
H563 H 0.93636 0.935 0.45977 0.0
H564 H 0.23636 0.26004 0.7103 0.0
H565 H 0.2486 0.24565 0.67648 0.0
H566 H 0.19893 0.26587 0.64792 0.0
H567 H 0.18673 0.28003 0.6818 0.0
H568 H 0.20308 0.22606 0.63526 0.0
H569 H 0.24519 0.28884 0.64246 0.0
H570 H 0.26903 0.31535 0.65995 0.0
H571 H 0.31044 0.2693 0.65933 0.0
H572 H 0.28672 0.2424 0.64215 0.0
H573 H 0.23198 0.19733 0.53279 0.0
H574 H 0.22466 0.21937 0.56465 0.0
H575 H 0.27127 0.19537 0.59482 0.0
H576 H 0.27881 0.1733 0.56294 0.0
H577 H 0.26922 0.23818 0.60609 0.0
H578 H 0.22653 0.17534 0.60105 0.0
H579 H 0.20258 0.14851 0.58418 0.0
H580 H 0.16219 0.19502 0.5813 0.0
H581 H 0.18604 0.2222 0.59787 0.0
C582 C 0.22839 0.26179 0.69668 0.0
C583 C 0.21063 0.27098 0.69847 0.0
C584 C 0.23534 0.25358 0.67741 0.0
C585 C 0.22469 0.25469 0.65961 0.0
C586 C 0.20735 0.26474 0.66141 0.0
C587 C 0.2004 0.27285 0.68067 0.0
C588 C 0.23076 0.24394 0.63938 0.0
C589 C 0.21744 0.22903 0.62874 0.0
C590 C 0.24968 0.24734 0.63111 0.0
C591 C 0.26409 0.26355 0.64117 0.0
C592 C 0.25933 0.28432 0.64618 0.0
C593 C 0.27283 0.29943 0.65603 0.0
C594 C 0.29123 0.29401 0.66079 0.0
C595 C 0.29618 0.27348 0.65565 0.0
C596 C 0.28271 0.25829 0.64584 0.0
C597 C 0.24081 0.19684 0.54613 0.0
C598 C 0.25588 0.18339 0.54535 0.0
C599 C 0.23659 0.20946 0.56434 0.0
C600 C 0.24729 0.20885 0.58216 0.0
C601 C 0.26284 0.19608 0.58124 0.0
C602 C 0.26705 0.1834 0.56303 0.0
C603 C 0.24145 0.22053 0.60202 0.0
C604 C 0.25483 0.23544 0.6126 0.0
C605 C 0.22257 0.21718 0.61031 0.0
C606 C 0.20814 0.20083 0.6005 0.0
C607 C 0.2126 0.17987 0.59667 0.0
C608 C 0.19904 0.1646 0.58718 0.0
C609 C 0.1809 0.17007 0.58162 0.0
C610 C 0.17626 0.19081 0.58559 0.0
C611 C 0.18979 0.20616 0.59503 0.0
H612 H 0.17042 0.15822 0.57428 0.0
H613 H 0.30166 0.30572 0.66842 0.0
H614 H 0.50887 0.55444 0.60587 0.0
H615 H 0.48552 0.55007 0.63386 0.0
H616 H 0.47138 0.48607 0.60772 0.0
H617 H 0.49423 0.49082 0.57931 0.0
H618 H 0.43928 0.50415 0.62004 0.0
H619 H 0.50127 0.49861 0.64937 0.0
H620 H 0.53533 0.50965 0.6586 0.0
H621 H 0.51727 0.56482 0.69512 0.0
H622 H 0.48309 0.55425 0.68585 0.0
H623 H 0.39457 0.46739 0.7082 0.0
H624 H 0.41647 0.47339 0.67956 0.0
H625 H 0.42562 0.53849 0.70398 0.0
H626 H 0.40372 0.53265 0.73276 0.0
H627 H 0.45991 0.52046 0.69265 0.0
H628 H 0.3974 0.52483 0.66335 0.0
H629 H 0.36353 0.5127 0.65418 0.0
H630 H 0.383 0.45817 0.61778 0.0
H631 H 0.41699 0.46983 0.62697 0.0
C632 C 0.5006 0.53955 0.6061 0.0
C633 C 0.50326 0.52294 0.59058 0.0
C634 C 0.48742 0.53698 0.62213 0.0
C635 C 0.47688 0.51765 0.62303 0.0
C636 C 0.47939 0.5011 0.60736 0.0
C637 C 0.49249 0.50373 0.59127 0.0
C638 C 0.46324 0.51468 0.64033 0.0
C639 C 0.44386 0.50747 0.63591 0.0
C640 C 0.46911 0.51939 0.66105 0.0
C641 C 0.48964 0.52573 0.66675 0.0
C642 C 0.50457 0.51317 0.65925 0.0
C643 C 0.5239 0.51934 0.6645 0.0
C644 C 0.52847 0.53795 0.6774 0.0
C645 C 0.51371 0.55041 0.68511 0.0
C646 C 0.49435 0.54434 0.67987 0.0
C647 C 0.40118 0.48301 0.70747 0.0
C648 C 0.39739 0.49956 0.72275 0.0
C649 C 0.41364 0.48642 0.69105 0.0
C650 C 0.42255 0.50641 0.68959 0.0
C651 C 0.41886 0.52295 0.70483 0.0
C652 C 0.40629 0.51959 0.72121 0.0
C653 C 0.43601 0.50993 0.67233 0.0
C654 C 0.45535 0.51721 0.67677 0.0
C655 C 0.43014 0.50511 0.65163 0.0
C656 C 0.40972 0.49811 0.64601 0.0
C657 C 0.39445 0.51017 0.65353 0.0
C658 C 0.37523 0.50339 0.6483 0.0
C659 C 0.37111 0.48465 0.63545 0.0
C660 C 0.38621 0.47267 0.62775 0.0
C661 C 0.40546 0.47937 0.63295 0.0
H662 H 0.35622 0.47943 0.63142 0.0
H663 H 0.54344 0.5427 0.68145 0.0
H664 H 0.78637 0.28362 0.72713 0.0
H665 H 0.7806 0.30474 0.69966 0.0
H666 H 0.78875 0.25146 0.65438 0.0
H667 H 0.79467 0.23061 0.68193 0.0
H668 H 0.8062 0.28714 0.64258 0.0
H669 H 0.74387 0.26406 0.66913 0.0
H670 H 0.71923 0.25999 0.69626 0.0
H671 H 0.71876 0.32661 0.7096 0.0
H672 H 0.74367 0.33108 0.68276 0.0
H673 H 0.76008 0.31219 0.55583 0.0
H674 H 0.76852 0.29603 0.58552 0.0
H675 H 0.75746 0.3523 0.62541 0.0
H676 H 0.74863 0.36858 0.59563 0.0
H677 H 0.74277 0.31794 0.64145 0.0
H678 H 0.80393 0.34078 0.61308 0.0
H679 H 0.82851 0.34436 0.58579 0.0
H680 H 0.8311 0.27783 0.57564 0.0
H681 H 0.80632 0.27382 0.60267 0.0
C682 C 0.78719 0.27669 0.71125 0.0
C683 C 0.79099 0.25569 0.70642 0.0
C684 C 0.7838 0.28862 0.69562 0.0
C685 C 0.78404 0.27961 0.67496 0.0
C686 C 0.78851 0.25874 0.67018 0.0
C687 C 0.79187 0.24686 0.68581 0.0
C688 C 0.77892 0.29156 0.65832 0.0
C689 C 0.79228 0.29374 0.64225 0.0
C690 C 0.76092 0.30057 0.65811 0.0
C691 C 0.74579 0.29791 0.67409 0.0
C692 C 0.73862 0.27784 0.67796 0.0
C693 C 0.7246 0.27546 0.69326 0.0
C694 C 0.71747 0.29303 0.70468 0.0
C695 C 0.72432 0.31302 0.70077 0.0
C696 C 0.73839 0.31549 0.68551 0.0
C697 C 0.75938 0.32118 0.57089 0.0
C698 C 0.75378 0.34175 0.57332 0.0
C699 C 0.76432 0.31192 0.58788 0.0
C700 C 0.76398 0.32307 0.60768 0.0
C701 C 0.75793 0.34344 0.61026 0.0
C702 C 0.75291 0.35272 0.59323 0.0
C703 C 0.76999 0.31334 0.62557 0.0
C704 C 0.75678 0.31155 0.64187 0.0
C705 C 0.78813 0.30463 0.62597 0.0
C706 C 0.80315 0.307 0.6098 0.0
C707 C 0.80964 0.3269 0.60493 0.0
C708 C 0.82362 0.32901 0.58952 0.0
C709 C 0.83133 0.31133 0.57896 0.0
C710 C 0.82511 0.29151 0.58382 0.0
C711 C 0.81111 0.28931 0.59921 0.0
H712 H 0.84215 0.31299 0.56703 0.0
H713 H 0.7066 0.29116 0.71652 0.0
H714 H 0.47094 0.9641 0.6066 0.0
H715 H 0.49469 0.96641 0.63429 0.0
H716 H 0.5414 0.97175 0.59026 0.0
H717 H 0.5175 0.96968 0.56268 0.0
H718 H 0.52597 0.94574 0.64376 0.0
H719 H 0.57427 0.01107 0.61197 0.0
H720 H 0.5717 0.03767 0.58876 0.0
H721 H 0.5108 0.03943 0.60283 0.0
H722 H 0.51309 0.01313 0.62636 0.0
H723 H 0.60859 0.97248 0.70882 0.0
H724 H 0.58823 0.96281 0.67842 0.0
H725 H 0.55896 0.01926 0.69329 0.0
H726 H 0.57937 0.02916 0.72345 0.0
H727 H 0.5666 0.01301 0.65346 0.0
H728 H 0.53819 0.97181 0.70373 0.0
H729 H 0.53798 0.9466 0.72874 0.0
H730 H 0.55459 0.89912 0.6812 0.0
H731 H 0.55514 0.92415 0.65596 0.0
C732 C 0.48631 0.96525 0.6029 0.0
C733 C 0.49252 0.96668 0.58266 0.0
C734 C 0.49985 0.96652 0.61863 0.0
C735 C 0.51982 0.96946 0.61438 0.0
C736 C 0.52606 0.96961 0.59391 0.0
C737 C 0.51248 0.96825 0.57816 0.0
C738 C 0.53382 0.97452 0.63156 0.0
C739 C 0.53501 0.96034 0.64578 0.0
C740 C 0.54529 0.99378 0.63447 0.0
C741 C 0.54383 0.00996 0.62072 0.0
C742 C 0.56036 0.01721 0.61016 0.0
C743 C 0.55895 0.03223 0.59695 0.0
C744 C 0.54109 0.04018 0.59426 0.0
C745 C 0.52462 0.03321 0.60487 0.0
C746 C 0.52596 0.01824 0.61813 0.0
C747 C 0.59787 0.98288 0.70558 0.0
C748 C 0.59559 1.00158 0.71864 0.0
C749 C 0.58618 0.97728 0.68823 0.0
C750 C 0.57191 0.9902 0.68365 0.0
C751 C 0.56987 0.00903 0.69647 0.0
C752 C 0.58153 0.01464 0.71378 0.0
C753 C 0.55893 0.98415 0.66566 0.0
C754 C 0.55785 0.99822 0.65129 0.0
C755 C 0.54728 0.96498 0.66288 0.0
C756 C 0.54692 0.94991 0.67802 0.0
C757 C 0.54195 0.95604 0.69865 0.0
C758 C 0.54174 0.94178 0.71286 0.0
C759 C 0.54632 0.92129 0.70657 0.0
C760 C 0.55107 0.91501 0.68605 0.0
C761 C 0.55133 0.92922 0.67179 0.0
H762 H 0.54615 0.91027 0.71759 0.0
H763 H 0.54002 0.05178 0.584 0.0
H764 H 0.79662 0.22699 0.78685 0.0
H765 H 0.81997 0.22286 0.81355 0.0
H766 H 0.86362 0.20941 0.76688 0.0
H767 H 0.8402 0.21349 0.74032 0.0
H768 H 0.86479 0.18476 0.79882 0.0
H769 H 0.86292 0.25706 0.78969 0.0
H770 H 0.8468 0.28933 0.78789 0.0
H771 H 0.82732 0.28961 0.85034 0.0
H772 H 0.84305 0.25709 0.85238 0.0
H773 H 0.95242 0.21234 0.85438 0.0
H774 H 0.92557 0.20865 0.83018 0.0
H775 H 0.88655 0.22927 0.87938 0.0
H776 H 0.91342 0.23334 0.90365 0.0
H777 H 0.8814 0.24885 0.84739 0.0
H778 H 0.88515 0.1776 0.85738 0.0
H779 H 0.90097 0.14509 0.85895 0.0
H780 H 0.91682 0.14255 0.79525 0.0
H781 H 0.90133 0.17521 0.79337 0.0
C782 C 0.81109 0.22271 0.78241 0.0
C783 C 0.8168 0.22073 0.76171 0.0
C784 C 0.82442 0.22045 0.79758 0.0
C785 C 0.84362 0.21608 0.79221 0.0
C786 C 0.84892 0.21282 0.77138 0.0
C787 C 0.83563 0.21524 0.75626 0.0
C788 C 0.85859 0.21663 0.80824 0.0
C789 C 0.86854 0.19879 0.80937 0.0
C790 C 0.86323 0.23484 0.82223 0.0
C791 C 0.85397 0.25452 0.82111 0.0
C792 C 0.85506 0.26391 0.80298 0.0
C793 C 0.84602 0.28225 0.80193 0.0
C794 C 0.836 0.29149 0.81898 0.0
C795 C 0.83506 0.28241 0.83714 0.0
C796 C 0.84403 0.26403 0.83825 0.0
C797 C 0.9381 0.21595 0.86011 0.0
C798 C 0.9351 0.22313 0.88099 0.0
C799 C 0.92272 0.21373 0.84624 0.0
C800 C 0.90394 0.21846 0.85296 0.0
C801 C 0.90088 0.22549 0.87382 0.0
C802 C 0.91627 0.22777 0.88769 0.0
C803 C 0.88771 0.21694 0.83808 0.0
C804 C 0.87756 0.23469 0.83706 0.0
C805 C 0.88291 0.19863 0.82423 0.0
C806 C 0.89222 0.17896 0.82529 0.0
C807 C 0.89214 0.1702 0.84375 0.0
C808 C 0.90103 0.15173 0.84469 0.0
C809 C 0.90993 0.14179 0.82723 0.0
C810 C 0.90993 0.15027 0.80877 0.0
C811 C 0.90108 0.16876 0.80776 0.0
H812 H 0.9168 0.12749 0.82798 0.0
H813 H 0.82901 0.3057 0.81813 0.0
H814 H 0.50736 0.95187 0.52601 0.0
H815 H 0.51699 0.91845 0.50821 0.0
H816 H 0.47018 0.88598 0.53866 0.0
H817 H 0.4613 0.91946 0.55705 0.0
H818 H 0.49948 0.86235 0.53327 0.0
H819 H 0.46478 0.90076 0.49046 0.0
H820 H 0.45815 0.9312 0.4736 0.0
H821 H 0.51306 0.9284 0.44195 0.0
H822 H 0.52011 0.89804 0.4588 0.0
H823 H 0.48038 0.77463 0.45565 0.0
H824 H 0.47805 0.80682 0.47943 0.0
H825 H 0.53128 0.83313 0.45451 0.0
H826 H 0.53386 0.80095 0.43084 0.0
H827 H 0.50042 0.85961 0.45748 0.0
H828 H 0.53284 0.81802 0.49968 0.0
H829 H 0.53688 0.78667 0.51621 0.0
H830 H 0.48274 0.79438 0.5485 0.0
H831 H 0.47824 0.82562 0.53193 0.0
C832 C 0.49972 0.93745 0.52938 0.0
C833 C 0.48382 0.93796 0.54295 0.0
C834 C 0.50499 0.91843 0.51908 0.0
C835 C 0.49401 0.89969 0.52171 0.0
C836 C 0.47886 0.90017 0.53632 0.0
C837 C 0.47382 0.9192 0.54686 0.0
C838 C 0.49713 0.88001 0.50801 0.0
C839 C 0.49955 0.86174 0.51671 0.0
C840 C 0.49732 0.87914 0.48634 0.0
C841 C 0.49306 0.89727 0.47605 0.0
C842 C 0.47549 0.90671 0.48 0.0
C843 C 0.47165 0.92394 0.47044 0.0
C844 C 0.4852 0.93178 0.45677 0.0
C845 C 0.50259 0.92234 0.45257 0.0
C846 C 0.50651 0.9051 0.4621 0.0
C847 C 0.49163 0.78724 0.45527 0.0
C848 C 0.50731 0.78523 0.44135 0.0
C849 C 0.49032 0.80558 0.46893 0.0
C850 C 0.50457 0.8223 0.46881 0.0
C851 C 0.52017 0.82038 0.45488 0.0
C852 C 0.52163 0.80196 0.4414 0.0
C853 C 0.50285 0.84205 0.48275 0.0
C854 C 0.50056 0.8603 0.47405 0.0
C855 C 0.50239 0.84277 0.50436 0.0
C856 C 0.50512 0.82405 0.51441 0.0
C857 C 0.52171 0.81293 0.51017 0.0
C858 C 0.5241 0.7952 0.51957 0.0
C859 C 0.51005 0.7885 0.53336 0.0
C860 C 0.4936 0.79956 0.5378 0.0
C861 C 0.49114 0.8173 0.52843 0.0
H862 H 0.51193 0.77477 0.54062 0.0
H863 H 0.48221 0.94513 0.4494 0.0
H864 H 0.18111 0.26205 0.7817 0.0
H865 H 0.15252 0.25612 0.80366 0.0
H866 H 0.11598 0.27613 0.7587 0.0
H867 H 0.14468 0.28228 0.73695 0.0
H868 H 0.10778 0.29383 0.79781 0.0
H869 H 0.11654 0.22527 0.76278 0.0
H870 H 0.13487 0.19472 0.75113 0.0
H871 H 0.14465 0.18639 0.81371 0.0
H872 H 0.12662 0.21711 0.82574 0.0
H873 H 0.01635 0.25874 0.83685 0.0
H874 H 0.0449 0.26432 0.81514 0.0
H875 H 0.08057 0.24027 0.85828 0.0
H876 H 0.052 0.23425 0.8799 0.0
H877 H 0.08943 0.22468 0.82018 0.0
H878 H 0.08112 0.29293 0.85552 0.0
H879 H 0.06336 0.32378 0.8677 0.0
H880 H 0.0534 0.33312 0.80544 0.0
H881 H 0.07088 0.30213 0.79287 0.0
C882 C 0.16693 0.26515 0.77663 0.0
C883 C 0.16492 0.27251 0.75773 0.0
C884 C 0.15064 0.26169 0.78906 0.0
C885 C 0.1321 0.26552 0.78272 0.0
C886 C 0.13014 0.27304 0.76385 0.0
C887 C 0.14643 0.27642 0.75142 0.0
C888 C 0.11476 0.26185 0.79583 0.0
C889 C 0.1036 0.27865 0.80249 0.0
C890 C 0.10964 0.24217 0.80236 0.0
C891 C 0.12039 0.22362 0.79516 0.0
C892 C 0.12273 0.21703 0.77406 0.0
C893 C 0.13305 0.19966 0.76739 0.0
C894 C 0.14096 0.18865 0.78167 0.0
C895 C 0.13853 0.19495 0.80266 0.0
C896 C 0.12825 0.21233 0.80941 0.0
C897 C 0.03027 0.25466 0.84175 0.0
C898 C 0.0319 0.2461 0.86015 0.0
C899 C 0.0466 0.25794 0.82935 0.0
C900 C 0.06494 0.25296 0.8352 0.0
C901 C 0.06658 0.24425 0.85347 0.0
C902 C 0.05023 0.24087 0.86584 0.0
C903 C 0.08238 0.25667 0.82218 0.0
C904 C 0.09359 0.23988 0.81553 0.0
C905 C 0.08761 0.2764 0.81575 0.0
C906 C 0.07715 0.29509 0.82326 0.0
C907 C 0.07502 0.30147 0.84442 0.0
C908 C 0.06502 0.319 0.8514 0.0
C909 C 0.05722 0.33037 0.83735 0.0
C910 C 0.05944 0.32427 0.8163 0.0
C911 C 0.0694 0.30674 0.80924 0.0
H912 H 0.04948 0.34394 0.84278 0.0
H913 H 0.14894 0.1752 0.77648 0.0
H914 H 0.53019 0.52716 0.50774 0.0
H915 H 0.52955 0.55152 0.48212 0.0
H916 H 0.54628 0.60288 0.52875 0.0
H917 H 0.54665 0.57847 0.55418 0.0
H918 H 0.51273 0.60821 0.51091 0.0
H919 H 0.57613 0.58902 0.48801 0.0
H920 H 0.60053 0.56451 0.47544 0.0
H921 H 0.56628 0.54298 0.42187 0.0
H922 H 0.5415 0.56714 0.43427 0.0
H923 H 0.51488 0.69092 0.45173 0.0
H924 H 0.52423 0.66539 0.47309 0.0
H925 H 0.51115 0.6158 0.42358 0.0
H926 H 0.50238 0.64143 0.40183 0.0
H927 H 0.54317 0.6088 0.44203 0.0
H928 H 0.47941 0.62579 0.46472 0.0
H929 H 0.45371 0.64882 0.47702 0.0
H930 H 0.48711 0.67258 0.53068 0.0
H931 H 0.51313 0.64988 0.51856 0.0
C932 C 0.5345 0.54355 0.51216 0.0
C933 C 0.53855 0.55109 0.53274 0.0
C934 C 0.53404 0.55748 0.49762 0.0
C935 C 0.53776 0.57908 0.50354 0.0
C936 C 0.54328 0.58632 0.52384 0.0
C937 C 0.54367 0.57244 0.5383 0.0
C938 C 0.53349 0.5943 0.48952 0.0
C939 C 0.51966 0.60857 0.49599 0.0
C940 C 0.54191 0.5942 0.46972 0.0
C941 C 0.55686 0.57976 0.46217 0.0
C942 C 0.57371 0.57894 0.47363 0.0
C943 C 0.58763 0.56513 0.46652 0.0
C944 C 0.58493 0.55216 0.44789 0.0
C945 C 0.56834 0.55302 0.43631 0.0
C946 C 0.55436 0.56679 0.44336 0.0
C947 C 0.51396 0.67458 0.44537 0.0
C948 C 0.50771 0.6682 0.42512 0.0
C949 C 0.51928 0.65997 0.45762 0.0
C950 C 0.5181 0.63859 0.45009 0.0
C951 C 0.51217 0.63219 0.42976 0.0
C952 C 0.50706 0.64686 0.41738 0.0
C953 C 0.52265 0.62295 0.46361 0.0
C954 C 0.53635 0.60851 0.457 0.0
C955 C 0.51396 0.62267 0.48326 0.0
C956 C 0.4983 0.63628 0.49063 0.0
C957 C 0.48133 0.63603 0.47907 0.0
C958 C 0.4667 0.64901 0.48602 0.0
C959 C 0.4688 0.66219 0.50459 0.0
C960 C 0.48552 0.66238 0.51628 0.0
C961 C 0.5002 0.64945 0.50939 0.0
H962 H 0.45746 0.67223 0.50995 0.0
H963 H 0.59573 0.54148 0.44242 0.0
H964 H 0.85226 0.82138 0.80135 0.0
H965 H 0.88085 0.81409 0.77965 0.0
H966 H 0.85078 0.7568 0.75148 0.0
H967 H 0.82219 0.76419 0.77341 0.0
H968 H 0.89024 0.75296 0.75578 0.0
H969 H 0.85016 0.79988 0.7272 0.0
H970 H 0.83224 0.83136 0.72758 0.0
H971 H 0.88432 0.87026 0.74425 0.0
H972 H 0.90258 0.83899 0.74376 0.0
H973 H 0.94153 0.74091 0.66096 0.0
H974 H 0.9168 0.74508 0.68791 0.0
H975 H 0.94494 0.80512 0.71144 0.0
H976 H 0.96954 0.80126 0.68416 0.0
H977 H 0.90732 0.80752 0.71076 0.0
H978 H 0.94838 0.76063 0.73557 0.0
H979 H 0.96652 0.72922 0.7341 0.0
H980 H 0.91327 0.6902 0.72522 0.0
H981 H 0.89483 0.72138 0.72634 0.0
C982 C 0.85208 0.80694 0.79095 0.0
C983 C 0.83515 0.79333 0.78893 0.0
C984 C 0.86829 0.80286 0.77844 0.0
C985 C 0.8678 0.78514 0.76358 0.0
C986 C 0.85145 0.77063 0.76275 0.0
C987 C 0.83521 0.77473 0.77534 0.0
C988 C 0.88359 0.78274 0.74788 0.0
C989 C 0.89388 0.76477 0.74579 0.0
C990 C 0.88864 0.79835 0.73512 0.0
C991 C 0.87767 0.81713 0.73563 0.0
C992 C 0.85775 0.81515 0.73103 0.0
C993 C 0.84756 0.83295 0.73118 0.0
C994 C 0.85711 0.85279 0.73604 0.0
C995 C 0.87692 0.85488 0.74055 0.0
C996 C 0.88722 0.83714 0.74024 0.0
C997 C 0.94247 0.75504 0.67183 0.0
C998 C 0.95756 0.77074 0.67038 0.0
C999 C 0.92838 0.75732 0.68737 0.0
C1000 C 0.92916 0.77524 0.70201 0.0
C1001 C 0.94405 0.7911 0.70041 0.0
C1002 C 0.95811 0.78888 0.68478 0.0
C1003 C 0.91412 0.77771 0.71858 0.0
C1004 C 0.90388 0.79572 0.72081 0.0
C1005 C 0.90921 0.76214 0.73147 0.0
C1006 C 0.92025 0.74335 0.73085 0.0
C1007 C 0.94055 0.74535 0.73314 0.0
C1008 C 0.95089 0.72759 0.7324 0.0
C1009 C 0.94106 0.70773 0.72952 0.0
C1010 C 0.92087 0.70559 0.72743 0.0
C1011 C 0.91046 0.72331 0.72813 0.0
H1012 H 0.94909 0.694 0.72895 0.0
H1013 H 0.84916 0.86654 0.73624 0.0
H1014 H 0.0286 0.9782 0.52635 0.0
H1015 H 0.02803 0.95323 0.55129 0.0
H1016 H 0.07204 0.92034 0.51598 0.0
H1017 H 0.07231 0.94539 0.49089 0.0
H1018 H 0.04117 0.8944 0.5232 0.0
H1019 H 0.08171 0.94595 0.56411 0.0
H1020 H 0.09209 0.98107 0.58146 0.0
H1021 H 0.04022 0.98079 0.61857 0.0
H1022 H 0.02936 0.94579 0.60121 0.0
H1023 H 0.04021 0.81996 0.59337 0.0
H1024 H 0.05133 0.84764 0.57303 0.0
H1025 H 0.00946 0.88717 0.60374 0.0
H1026 H 0.9985 0.8597 0.62445 0.0
H1027 H 0.04335 0.90936 0.59911 0.0
H1028 H 1.00118 0.86025 0.55546 0.0
H1029 H 0.98994 0.82557 0.53764 0.0
H1030 H 0.04448 0.82186 0.50536 0.0
H1031 H 0.05614 0.85642 0.52321 0.0
C1032 C 0.03852 0.96596 0.52434 0.0
C1033 C 0.05053 0.96363 0.50688 0.0
C1034 C 0.03823 0.95172 0.53855 0.0
C1035 C 0.05004 0.93488 0.53558 0.0
C1036 C 0.06282 0.9332 0.51862 0.0
C1037 C 0.06314 0.94755 0.50443 0.0
C1038 C 0.04745 0.91803 0.54898 0.0
C1039 C 0.0421 0.89761 0.53978 0.0
C1040 C 0.04812 0.92226 0.57065 0.0
C1041 C 0.05465 0.94328 0.58124 0.0
C1042 C 0.07244 0.95343 0.57586 0.0
C1043 C 0.07842 0.97331 0.58572 0.0
C1044 C 0.06681 0.98316 0.60108 0.0
C1045 C 0.0492 0.97313 0.60666 0.0
C1046 C 0.04314 0.95326 0.59683 0.0
C1047 C 0.03339 0.83456 0.59587 0.0
C1048 C 0.01834 0.83752 0.61047 0.0
C1049 C 0.03974 0.85038 0.58417 0.0
C1050 C 0.03108 0.86944 0.58664 0.0
C1051 C 0.01638 0.87262 0.60154 0.0
C1052 C 0.01007 0.85684 0.61331 0.0
C1053 C 0.03688 0.88583 0.57331 0.0
C1054 C 0.04274 0.90614 0.58251 0.0
C1055 C 0.03661 0.88154 0.55162 0.0
C1056 C 0.02961 0.8608 0.54084 0.0
C1057 C 0.01083 0.85196 0.54468 0.0
C1058 C 0.00437 0.83234 0.53456 0.0
C1059 C 0.01651 0.82149 0.52043 0.0
C1060 C 0.03511 0.83026 0.51634 0.0
C1061 C 0.04164 0.84987 0.52645 0.0
H1062 H 0.01148 0.8063 0.5126 0.0
H1063 H 0.07147 0.99856 0.60869 0.0
H1064 H 0.14737 0.70832 0.79307 0.0
H1065 H 0.12173 0.71582 0.77046 0.0
H1066 H 0.16489 0.7279 0.72422 0.0
H1067 H 0.19056 0.72074 0.74717 0.0
H1068 H 0.13995 0.75824 0.73025 0.0
H1069 H 0.13465 0.68378 0.71784 0.0
H1070 H 0.13162 0.64798 0.727 0.0
H1071 H 0.07675 0.65923 0.75653 0.0
H1072 H 0.07958 0.69522 0.74781 0.0
H1073 H 0.06836 0.76572 0.65505 0.0
H1074 H 0.0958 0.75522 0.6732 0.0
H1075 H 0.0574 0.74048 0.72269 0.0
H1076 H 0.02989 0.75062 0.70456 0.0
H1077 H 0.08134 0.71024 0.71238 0.0
H1078 H 0.08782 0.78529 0.72705 0.0
H1079 H 0.09092 0.8213 0.71845 0.0
H1080 H 0.14363 0.80893 0.68491 0.0
H1081 H 0.1407 0.77274 0.69309 0.0
C1082 C 0.15125 0.71244 0.77801 0.0
C1083 C 0.17079 0.71398 0.77173 0.0
C1084 C 0.13666 0.71661 0.76507 0.0
C1085 C 0.14138 0.72225 0.74557 0.0
C1086 C 0.16093 0.72352 0.73918 0.0
C1087 C 0.17553 0.71932 0.75215 0.0
C1088 C 0.12592 0.72766 0.73228 0.0
C1089 C 0.1273 0.7476 0.72601 0.0
C1090 C 0.10923 0.71394 0.72712 0.0
C1091 C 0.10741 0.69226 0.73231 0.0
C1092 C 0.12201 0.67868 0.72642 0.0
C1093 C 0.12031 0.65834 0.73151 0.0
C1094 C 0.10402 0.65135 0.74237 0.0
C1095 C 0.08937 0.66467 0.74813 0.0
C1096 C 0.091 0.68503 0.7431 0.0
C1097 C 0.06577 0.76031 0.66983 0.0
C1098 C 0.04693 0.75906 0.67838 0.0
C1099 C 0.08148 0.75436 0.68021 0.0
C1100 C 0.07868 0.74721 0.69938 0.0
C1101 C 0.0599 0.74591 0.7079 0.0
C1102 C 0.04419 0.75181 0.69754 0.0
C1103 C 0.09525 0.74092 0.71059 0.0
C1104 C 0.09407 0.7208 0.71646 0.0
C1105 C 0.11212 0.75449 0.7154 0.0
C1106 C 0.11392 0.77624 0.71049 0.0
C1107 C 0.09998 0.7902 0.7177 0.0
C1108 C 0.10173 0.81065 0.71293 0.0
C1109 C 0.11743 0.81738 0.70109 0.0
C1110 C 0.13146 0.80369 0.69405 0.0
C1111 C 0.12976 0.78321 0.69876 0.0
H1112 H 0.11876 0.83323 0.69741 0.0
H1113 H 0.10273 0.6356 0.7463 0.0
H1114 H 0.98871 0.55946 0.49576 0.0
H1115 H 0.99971 0.59134 0.51844 0.0
H1116 H 0.96797 0.62785 0.48224 0.0
H1117 H 0.95693 0.59579 0.45971 0.0
H1118 H 0.00453 0.64827 0.49748 0.0
H1119 H 0.94505 0.61549 0.52246 0.0
H1120 H 0.92345 0.5863 0.53263 0.0
H1121 H 0.96514 0.57583 0.57703 0.0
H1122 H 0.9869 0.60512 0.56724 0.0
H1123 H 0.9925 0.73492 0.57527 0.0
H1124 H 0.98717 0.70559 0.54788 0.0
H1125 H 0.01204 0.66505 0.58552 0.0
H1126 H 0.0172 0.69412 0.61298 0.0
H1127 H 0.97906 0.64711 0.56847 0.0
H1128 H 0.03736 0.68285 0.54511 0.0
H1129 H 0.05775 0.71302 0.53526 0.0
H1130 H 0.01793 0.71842 0.48724 0.0
H1131 H 0.99715 0.68844 0.49699 0.0
C1132 C 0.98477 0.57445 0.49231 0.0
C1133 C 0.97221 0.57545 0.47606 0.0
C1134 C 0.99086 0.59256 0.5053 0.0
C1135 C 0.98445 0.6119 0.50214 0.0
C1136 C 0.97309 0.61309 0.48491 0.0
C1137 C 0.9669 0.5949 0.47202 0.0
C1138 C 0.98789 0.63032 0.51797 0.0
C1139 C 0.99883 0.64816 0.51296 0.0
C1140 C 0.98058 0.63005 0.53819 0.0
C1141 C 0.96766 0.61233 0.544 0.0
C1142 C 0.94964 0.60688 0.53432 0.0
C1143 C 0.93733 0.5904 0.54009 0.0
C1144 C 0.94296 0.57915 0.55539 0.0
C1145 C 0.96082 0.58452 0.56513 0.0
C1146 C 0.9731 0.60112 0.55956 0.0
C1147 C 0.99685 0.71977 0.57771 0.0
C1148 C 0.00527 0.71688 0.59633 0.0
C1149 C 0.9939 0.70304 0.56198 0.0
C1150 C 0.9994 0.68315 0.56455 0.0
C1151 C 0.00771 0.68025 0.58317 0.0
C1152 C 0.01066 0.69692 0.59886 0.0
C1153 C 0.99598 0.66514 0.54817 0.0
C1154 C 0.9849 0.64732 0.55305 0.0
C1155 C 0.00311 0.66555 0.52785 0.0
C1156 C 0.0156 0.68354 0.52192 0.0
C1157 C 0.03287 0.69058 0.53256 0.0
C1158 C 0.04451 0.70763 0.52697 0.0
C1159 C 0.03911 0.71767 0.51067 0.0
C1160 C 0.02208 0.71064 0.49988 0.0
C1161 C 0.01038 0.69361 0.50542 0.0
H1162 H 0.04814 0.73086 0.50636 0.0
H1163 H 0.93346 0.56631 0.55973 0.0
H1164 H 0.70692 0.83526 0.22559 0.0
H1165 H 0.73361 0.86271 0.22848 0.0
H1166 H 0.77447 0.81647 0.23265 0.0
H1167 H 0.74748 0.78913 0.23053 0.0
H1168 H 0.78046 0.84736 0.26237 0.0
H1169 H 0.77317 0.84309 0.19028 0.0
H1170 H 0.75589 0.84171 0.15762 0.0
H1171 H 0.73744 0.90308 0.17642 0.0
H1172 H 0.75435 0.90472 0.20935 0.0
H1173 H 0.86089 0.92417 0.26224 0.0
H1174 H 0.83815 0.89379 0.25199 0.0
H1175 H 0.79098 0.93379 0.25428 0.0
H1176 H 0.81361 0.96428 0.26459 0.0
H1177 H 0.79079 0.90434 0.21893 0.0
H1178 H 0.796 0.90637 0.29238 0.0
H1179 H 0.81359 0.9072 0.32479 0.0
H1180 H 0.83686 0.84897 0.30221 0.0
H1181 H 0.8196 0.84794 0.26952 0.0
C1182 C 0.72166 0.83104 0.22682 0.0
C1183 C 0.72525 0.81024 0.22795 0.0
C1184 C 0.73692 0.84665 0.22833 0.0
C1185 C 0.75612 0.84168 0.23068 0.0
C1186 C 0.7598 0.82069 0.23085 0.0
C1187 C 0.74446 0.80507 0.22944 0.0
C1188 C 0.77198 0.85862 0.23471 0.0
C1189 C 0.78298 0.85956 0.2526 0.0
C1190 C 0.77506 0.87481 0.22222 0.0
C1191 C 0.76493 0.87396 0.20237 0.0
C1192 C 0.76531 0.85624 0.18753 0.0
C1193 C 0.7556 0.85542 0.16895 0.0
C1194 C 0.74555 0.87228 0.16496 0.0
C1195 C 0.74523 0.89003 0.17953 0.0
C1196 C 0.7549 0.89092 0.19815 0.0
C1197 C 0.84567 0.92652 0.2606 0.0
C1198 C 0.83905 0.94665 0.26431 0.0
C1199 C 0.8327 0.90913 0.25475 0.0
C1200 C 0.81288 0.91154 0.25244 0.0
C1201 C 0.80624 0.93161 0.25594 0.0
C1202 C 0.81917 0.949 0.26195 0.0
C1203 C 0.79898 0.8931 0.24664 0.0
C1204 C 0.78837 0.89194 0.22848 0.0
C1205 C 0.79635 0.87661 0.25877 0.0
C1206 C 0.80669 0.8772 0.27842 0.0
C1207 C 0.805 0.89383 0.29425 0.0
C1208 C 0.81488 0.89433 0.31269 0.0
C1209 C 0.82638 0.87819 0.31553 0.0
C1210 C 0.82798 0.86149 0.29997 0.0
C1211 C 0.81814 0.86093 0.28149 0.0
H1212 H 0.83402 0.87859 0.32982 0.0
H1213 H 0.73804 0.87162 0.15057 0.0
H1214 H 0.75768 0.21259 0.29972 0.0
H1215 H 0.77989 0.18557 0.30357 0.0
H1216 H 0.73065 0.14146 0.31024 0.0
H1217 H 0.70859 0.16849 0.30638 0.0
H1218 H 0.78672 0.1594 0.33195 0.0
H1219 H 0.73941 0.0956 0.28161 0.0
H1220 H 0.71465 0.09299 0.25463 0.0
H1221 H 0.73888 0.15078 0.23606 0.0
H1222 H 0.76394 0.15356 0.26271 0.0
H1223 H 0.82116 0.05871 0.3348 0.0
H1224 H 0.80137 0.08853 0.33623 0.0
H1225 H 0.81667 0.09489 0.27333 0.0
H1226 H 0.83627 0.06499 0.27169 0.0
H1227 H 0.77876 0.09702 0.27931 0.0
H1228 H 0.83666 0.12896 0.31289 0.0
H1229 H 0.86289 0.13326 0.33839 0.0
H1230 H 0.82093 0.14172 0.38724 0.0
H1231 H 0.79441 0.13718 0.36202 0.0
C1232 C 0.75173 0.19721 0.30245 0.0
C1233 C 0.73155 0.19239 0.30246 0.0
C1234 C 0.76435 0.18182 0.30463 0.0
C1235 C 0.75692 0.1614 0.30683 0.0
C1236 C 0.7367 0.157 0.30821 0.0
C1237 C 0.72413 0.17237 0.30598 0.0
C1238 C 0.77013 0.14433 0.30598 0.0
C1239 C 0.78496 0.14571 0.32051 0.0
C1240 C 0.76809 0.12669 0.29076 0.0
C1241 C 0.75342 0.12487 0.27429 0.0
C1242 C 0.73951 0.10768 0.27169 0.0
C1243 C 0.72541 0.10619 0.25647 0.0
C1244 C 0.72515 0.12174 0.24368 0.0
C1245 C 0.73906 0.13877 0.24601 0.0
C1246 C 0.7532 0.14032 0.26118 0.0
C1247 C 0.82039 0.0665 0.32129 0.0
C1248 C 0.8303 0.05942 0.30312 0.0
C1249 C 0.80913 0.08361 0.32216 0.0
C1250 C 0.80763 0.09406 0.30492 0.0
C1251 C 0.81758 0.08707 0.28682 0.0
C1252 C 0.82884 0.06999 0.28593 0.0
C1253 C 0.79523 0.11185 0.3055 0.0
C1254 C 0.78051 0.11062 0.29085 0.0
C1255 C 0.79763 0.12976 0.32038 0.0
C1256 C 0.81354 0.13252 0.33557 0.0
C1257 C 0.83301 0.13157 0.32908 0.0
C1258 C 0.84794 0.13408 0.34348 0.0
C1259 C 0.84358 0.13771 0.36442 0.0
C1260 C 0.82428 0.13888 0.37101 0.0
C1261 C 0.8093 0.13636 0.35667 0.0
H1262 H 0.85515 0.13966 0.37555 0.0
H1263 H 0.7142 0.12059 0.23195 0.0
H1264 H 0.41713 0.01306 0.95262 0.0
H1265 H 0.38898 0.98955 0.96 0.0
H1266 H 0.41097 0.98813 0.02078 0.0
H1267 H 0.43962 0.0106 0.01285 0.0
H1268 H 0.39696 0.95125 0.00678 0.0
H1269 H 0.37367 0.01904 0.01123 0.0
H1270 H 0.36789 0.0526 0.99954 0.0
H1271 H 0.33419 0.02023 0.9492 0.0
H1272 H 0.33999 0.98645 0.96044 0.0
H1273 H 0.28592 0.93549 0.03385 0.0
H1274 H 0.31487 0.95815 0.02747 0.0
H1275 H 0.34 0.90611 0.99162 0.0
H1276 H 0.31146 0.88325 0.9986 0.0
H1277 H 0.33042 0.97071 0.9951 0.0
H1278 H 0.38866 0.91074 0.99455 0.0
H1279 H 0.39441 0.87966 0.01086 0.0
H1280 H 0.358 0.90079 0.06183 0.0
H1281 H 0.35225 0.93212 0.04596 0.0
C1282 C 0.416 0.00744 0.96741 0.0
C1283 C 0.43038 0.01368 0.98224 0.0
C1284 C 0.39985 0.99422 0.97173 0.0
C1285 C 0.39764 0.98735 0.99111 0.0
C1286 C 0.41227 0.99326 0.00576 0.0
C1287 C 0.42852 0.00624 1.00133 0.0
C1288 C 0.38004 0.97417 0.99621 0.0
C1289 C 0.38241 0.95551 0.0042 0.0
C1290 C 0.36102 0.97992 0.99334 0.0
C1291 C 0.35742 1.00021 0.98657 0.0
C1292 C 0.36514 0.01907 0.99759 0.0
C1293 C 0.36184 0.03813 0.99105 0.0
C1294 C 0.35072 0.03854 0.97361 0.0
C1295 C 0.34282 0.01989 0.96269 0.0
C1296 C 0.3461 1.00078 0.96915 0.0
C1297 C 0.29767 0.92887 0.02468 0.0
C1298 C 0.29648 0.90755 0.01686 0.0
C1299 C 0.31418 0.94185 0.02099 0.0
C1300 C 0.32977 0.93382 0.00928 0.0
C1301 C 0.3284 0.9126 1.00111 0.0
C1302 C 0.31202 0.89956 0.00504 0.0
C1303 C 0.34734 0.94766 0.00546 0.0
C1304 C 0.34496 0.96643 0.99767 0.0
C1305 C 0.36634 0.94236 0.00918 0.0
C1306 C 0.36987 0.92367 0.01895 0.0
C1307 C 0.38194 0.90879 0.00927 0.0
C1308 C 0.38519 0.89112 0.01843 0.0
C1309 C 0.37653 0.88822 0.03733 0.0
C1310 C 0.36465 0.90302 0.04715 0.0
C1311 C 0.36137 0.92072 0.03807 0.0
H1312 H 0.37905 0.87452 0.04439 0.0
H1313 H 0.34818 0.05332 0.96857 0.0
H1314 H 0.25101 0.30674 0.28911 0.0
H1315 H 0.22838 0.3335 0.28573 0.0
H1316 H 0.27117 0.38131 0.31207 0.0
H1317 H 0.29369 0.35447 0.31543 0.0
H1318 H 0.23397 0.38657 0.32805 0.0
H1319 H 0.26529 0.37398 0.26204 0.0
H1320 H 0.2757 0.35217 0.23078 0.0
H1321 H 0.21612 0.33275 0.21596 0.0
H1322 H 0.20536 0.3542 0.24735 0.0
H1323 H 0.19804 0.47737 0.29968 0.0
H1324 H 0.21755 0.44871 0.30444 0.0
H1325 H 0.17511 0.40488 0.27151 0.0
H1326 H 0.15564 0.43365 0.26624 0.0
H1327 H 0.2106 0.39614 0.25929 0.0
H1328 H 0.17894 0.40955 0.32443 0.0
H1329 H 0.16829 0.43084 0.35591 0.0
H1330 H 0.22778 0.4481 0.37269 0.0
H1331 H 0.2388 0.42713 0.34115 0.0
C1332 C 0.2554 0.32298 0.29427 0.0
C1333 C 0.27396 0.32871 0.30247 0.0
C1334 C 0.24259 0.33822 0.29228 0.0
C1335 C 0.24816 0.35941 0.29852 0.0
C1336 C 0.26659 0.36506 0.30716 0.0
C1337 C 0.27943 0.34983 0.309 0.0
C1338 C 0.23497 0.37575 0.29569 0.0
C1339 C 0.22899 0.38883 0.31301 0.0
C1340 C 0.2281 0.3783 0.27611 0.0
C1341 C 0.23453 0.36552 0.25716 0.0
C1342 C 0.25441 0.36492 0.25221 0.0
C1343 C 0.26038 0.35265 0.23446 0.0
C1344 C 0.24658 0.34104 0.22142 0.0
C1345 C 0.22679 0.34173 0.22609 0.0
C1346 C 0.22075 0.35395 0.24386 0.0
C1347 C 0.19277 0.46164 0.2935 0.0
C1348 C 0.17521 0.45781 0.28264 0.0
C1349 C 0.20393 0.44522 0.29632 0.0
C1350 C 0.19768 0.42456 0.28862 0.0
C1351 C 0.18021 0.42068 0.27766 0.0
C1352 C 0.16907 0.43714 0.2747 0.0
C1353 C 0.20963 0.40713 0.29166 0.0
C1354 C 0.21541 0.39384 0.27437 0.0
C1355 C 0.21626 0.40433 0.3113 0.0
C1356 C 0.20969 0.41691 0.33032 0.0
C1357 C 0.18975 0.41801 0.33475 0.0
C1358 C 0.18365 0.43 0.35262 0.0
C1359 C 0.19735 0.44085 0.36627 0.0
C1360 C 0.21718 0.4397 0.36209 0.0
C1361 C 0.22336 0.42774 0.34423 0.0
H1362 H 0.19259 0.45013 0.3801 0.0
H1363 H 0.25123 0.33155 0.20768 0.0
H1364 H 0.07202 0.0061 0.51871 0.0
H1365 H 0.10422 0.0238 0.52744 0.0
H1366 H 0.12555 1.00074 0.46725 0.0
H1367 H 0.09359 0.98259 0.45894 0.0
H1368 H 0.15397 0.00305 0.49442 0.0
H1369 H 0.10699 0.04827 0.47677 0.0
H1370 H 0.07586 0.06461 0.47985 0.0
H1371 H 0.08967 0.09147 0.54161 0.0
H1372 H 0.12078 0.07497 0.53901 0.0
H1373 H 0.22715 0.0844 0.47901 0.0
H1374 H 0.19772 0.06036 0.47617 0.0
H1375 H 0.18271 0.08153 0.53901 0.0
H1376 H 0.21206 0.10544 0.54202 0.0
H1377 H 0.15159 0.07961 0.51251 0.0
H1378 H 0.20061 0.0356 0.52803 0.0
H1379 H 0.23183 0.01954 0.52305 0.0
H1380 H 0.21437 0.99109 0.46281 0.0
H1381 H 0.18315 0.00724 0.46731 0.0
C1382 C 0.08384 0.00427 0.50771 0.0
C1383 C 0.08043 0.99325 0.48812 0.0
C1384 C 0.10214 0.01453 0.51257 0.0
C1385 C 0.1172 0.01406 0.4978 0.0
C1386 C 0.11419 1.00149 0.47886 0.0
C1387 C 0.09596 0.99117 0.47409 0.0
C1388 C 0.1353 0.0282 0.50111 0.0
C1389 C 0.15344 0.0198 0.49828 0.0
C1390 C 0.13469 0.05008 0.50624 0.0
C1391 C 0.11611 0.06021 0.50777 0.0
C1392 C 0.10333 0.05755 0.49105 0.0
C1393 C 0.08569 0.06684 0.49271 0.0
C1394 C 0.08077 0.07903 0.51093 0.0
C1395 C 0.0935 0.08199 0.52752 0.0
C1396 C 0.11113 0.07267 0.52597 0.0
C1397 C 0.21757 0.08395 0.49221 0.0
C1398 C 0.222 0.09681 0.51075 0.0
C1399 C 0.20081 0.07013 0.4906 0.0
C1400 C 0.1881 0.06901 0.50745 0.0
C1401 C 0.19233 0.08208 0.52585 0.0
C1402 C 0.20916 0.09571 0.52753 0.0
C1403 C 0.17023 0.05446 0.50585 0.0
C1404 C 0.15212 0.06284 0.50889 0.0
C1405 C 0.1709 0.03263 0.50064 0.0
C1406 C 0.18961 0.02279 0.49794 0.0
C1407 C 0.20349 0.02606 0.51366 0.0
C1408 C 0.22117 0.01692 0.51093 0.0
C1409 C 0.2251 0.00435 0.4926 0.0
C1410 C 0.21132 1.00085 0.47698 0.0
C1411 C 0.19362 0.00998 0.47962 0.0
H1412 H 0.2388 0.99729 0.49052 0.0
H1413 H 0.06711 0.08622 0.51218 0.0
H1414 H 0.79841 0.17898 0.73533 0.0
H1415 H 0.77888 0.14651 0.74035 0.0
H1416 H 0.73382 0.18274 0.76948 0.0
H1417 H 0.75341 0.21502 0.76439 0.0
H1418 H 0.7603 0.12813 0.7727 0.0
H1419 H 0.69165 0.16273 0.74924 0.0
H1420 H 0.68212 0.1899 0.72926 0.0
H1421 H 0.73279 0.18223 0.69096 0.0
H1422 H 0.7427 0.15517 0.71083 0.0
H1423 H 0.67562 0.05917 0.78572 0.0
H1424 H 0.69879 0.08992 0.78655 0.0
H1425 H 0.70264 0.08041 0.72048 0.0
H1426 H 0.67952 0.04965 0.71949 0.0
H1427 H 0.69776 0.12099 0.73543 0.0
H1428 H 0.73882 0.06781 0.74801 0.0
H1429 H 0.74912 0.03945 0.76586 0.0
H1430 H 0.75517 0.08153 0.82197 0.0
H1431 H 0.74463 0.11009 0.80452 0.0
C1432 C 0.78461 0.17985 0.74338 0.0
C1433 C 0.77722 0.19927 0.74939 0.0
C1434 C 0.77345 0.16139 0.74619 0.0
C1435 C 0.75476 0.16223 0.75496 0.0
C1436 C 0.74809 0.18173 0.76242 0.0
C1437 C 0.75924 0.20011 0.75961 0.0
C1438 C 0.74147 0.14297 0.7544 0.0
C1439 C 0.74659 0.12658 0.76465 0.0
C1440 C 0.72373 0.14079 0.74359 0.0
C1441 C 0.71796 0.15707 0.7316 0.0
C1442 C 0.70075 0.16687 0.73655 0.0
C1443 C 0.69532 0.18229 0.7253 0.0
C1444 C 0.70691 0.18788 0.70893 0.0
C1445 C 0.72392 0.17801 0.70375 0.0
C1446 C 0.72949 0.1627 0.71505 0.0
C1447 C 0.68139 0.06361 0.77135 0.0
C1448 C 0.6757 0.05195 0.75252 0.0
C1449 C 0.69471 0.08114 0.77187 0.0
C1450 C 0.70254 0.08737 0.75358 0.0
C1451 C 0.69679 0.07586 0.73478 0.0
C1452 C 0.68359 0.05825 0.73425 0.0
C1453 C 0.71641 0.10617 0.75396 0.0
C1454 C 0.7114 0.12253 0.74364 0.0
C1455 C 0.73431 0.10814 0.7645 0.0
C1456 C 0.74075 0.09103 0.775 0.0
C1457 C 0.74219 0.07098 0.7642 0.0
C1458 C 0.7481 0.05487 0.77424 0.0
C1459 C 0.75274 0.05867 0.79505 0.0
C1460 C 0.75154 0.0786 0.80586 0.0
C1461 C 0.74561 0.09476 0.79589 0.0
H1462 H 0.75732 0.04619 0.8028 0.0
H1463 H 0.70268 0.19979 0.70021 0.0
H1464 H 0.45513 1.00159 0.51623 0.0
H1465 H 0.43031 0.02361 0.5069 0.0
H1466 H 0.40058 0.01772 0.56444 0.0
H1467 H 0.42514 0.99513 0.57338 0.0
H1468 H 0.37527 0.01286 0.53366 0.0
H1469 H 0.428 0.06253 0.55671 0.0
H1470 H 0.46185 0.07802 0.55777 0.0
H1471 H 0.45865 0.08722 0.49449 0.0
H1472 H 0.42485 0.0715 0.49296 0.0
H1473 H 0.31321 0.09461 0.53082 0.0
H1474 H 0.33817 0.07312 0.54037 0.0
H1475 H 0.36709 0.07715 0.48213 0.0
H1476 H 0.34226 0.09885 0.47251 0.0
H1477 H 0.39276 0.08312 0.51346 0.0
H1478 H 0.33993 0.03312 0.49058 0.0
H1479 H 0.30603 0.01779 0.48983 0.0
H1480 H 0.30941 0.00947 0.55332 0.0
H1481 H 0.34326 0.02503 0.55454 0.0
C1482 C 0.44322 0.00498 0.52677 0.0
C1483 C 0.44196 0.99676 0.54549 0.0
C1484 C 0.42915 0.01766 0.52155 0.0
C1485 C 0.41367 0.02253 0.53508 0.0
C1486 C 0.41239 0.01423 0.55378 0.0
C1487 C 0.42645 1.00149 0.55896 0.0
C1488 C 0.39869 0.03605 0.5296 0.0
C1489 C 0.37908 0.02834 0.52953 0.0
C1490 C 0.40367 0.05608 0.52377 0.0
C1491 C 0.42395 0.06565 0.52467 0.0
C1492 C 0.43456 0.06771 0.54297 0.0
C1493 C 0.45373 0.07655 0.54366 0.0
C1494 C 0.46241 0.08355 0.52619 0.0
C1495 C 0.45191 0.08177 0.508 0.0
C1496 C 0.43275 0.07291 0.50722 0.0
C1497 C 0.32486 0.09094 0.52001 0.0
C1498 C 0.32568 0.09841 0.50085 0.0
C1499 C 0.3391 0.07858 0.52548 0.0
C1500 C 0.3544 0.07333 0.51188 0.0
C1501 C 0.3554 0.08098 0.49285 0.0
C1502 C 0.34115 0.09333 0.48736 0.0
C1503 C 0.36938 0.05991 0.51751 0.0
C1504 C 0.38897 0.06764 0.51761 0.0
C1505 C 0.36439 0.03992 0.52343 0.0
C1506 C 0.34407 0.03043 0.5227 0.0
C1507 C 0.3334 0.02817 0.50443 0.0
C1508 C 0.3142 0.01941 0.50391 0.0
C1509 C 0.30555 0.01271 0.52153 0.0
C1510 C 0.31611 0.0147 0.53969 0.0
C1511 C 0.33531 0.02346 0.5403 0.0
H1512 H 0.29068 0.00595 0.5211 0.0
H1513 H 0.47725 0.0904 0.52676 0.0
H1514 H 0.54533 0.48207 0.53388 0.0
H1515 H 0.57605 0.46608 0.52593 0.0
H1516 H 0.60757 0.52626 0.54053 0.0
H1517 H 0.57672 0.54216 0.54909 0.0
H1518 H 0.62152 0.49449 0.50333 0.0
H1519 H 0.60814 0.50438 0.57703 0.0
H1520 H 0.58672 0.50223 0.60728 0.0
H1521 H 0.57563 0.43616 0.58994 0.0
H1522 H 0.59696 0.43797 0.55952 0.0
H1523 H 0.71327 0.45915 0.52333 0.0
H1524 H 0.68388 0.4778 0.52402 0.0
H1525 H 0.64915 0.42158 0.53403 0.0
H1526 H 0.6786 0.40299 0.53401 0.0
H1527 H 0.6368 0.45262 0.55808 0.0
H1528 H 0.65198 0.44126 0.48637 0.0
H1529 H 0.67233 0.44231 0.45523 0.0
H1530 H 0.67871 0.50926 0.46663 0.0
H1531 H 0.6586 0.50861 0.49801 0.0
C1532 C 0.55882 0.49191 0.53482 0.0
C1533 C 0.5588 0.51323 0.54223 0.0
C1534 C 0.5763 0.48281 0.53031 0.0
C1535 C 0.59404 0.49498 0.53283 0.0
C1536 C 0.59399 0.51665 0.53845 0.0
C1537 C 0.57644 0.52573 0.54322 0.0
C1538 C 0.6124 0.48457 0.53217 0.0
C1539 C 0.6251 0.48557 0.51539 0.0
C1540 C 0.61669 0.4725 0.54765 0.0
C1541 C 0.60398 0.47134 0.56595 0.0
C1542 C 0.60104 0.48942 0.57962 0.0
C1543 C 0.58899 0.48826 0.59683 0.0
C1544 C 0.5798 0.46908 0.60051 0.0
C1545 C 0.58274 0.45101 0.58705 0.0
C1546 C 0.59485 0.45208 0.56987 0.0
C1547 C 0.69938 0.45073 0.52567 0.0
C1548 C 0.69829 0.42955 0.5286 0.0
C1549 C 0.68254 0.4614 0.52591 0.0
C1550 C 0.6642 0.45105 0.52873 0.0
C1551 C 0.6631 0.42993 0.53178 0.0
C1552 C 0.67996 0.4193 0.53176 0.0
C1553 C 0.64622 0.46238 0.52913 0.0
C1554 C 0.63345 0.46154 0.54593 0.0
C1555 C 0.64186 0.47443 0.51352 0.0
C1556 C 0.65395 0.47487 0.49466 0.0
C1557 C 0.65785 0.4562 0.48233 0.0
C1558 C 0.66932 0.45672 0.46462 0.0
C1559 C 0.67685 0.47584 0.45899 0.0
C1560 C 0.67289 0.49447 0.47103 0.0
C1561 C 0.66144 0.49403 0.48877 0.0
H1562 H 0.68572 0.47621 0.44527 0.0
H1563 H 0.5704 0.46822 0.61379 0.0
H1564 H 0.7161 0.21209 0.34237 0.0
H1565 H 0.72554 0.23187 0.37564 0.0
H1566 H 0.75009 0.2828 0.34479 0.0
H1567 H 0.74114 0.26268 0.3116 0.0
H1568 H 0.7703 0.28028 0.37922 0.0
H1569 H 0.70324 0.28116 0.36013 0.0
H1570 H 0.67076 0.26508 0.34962 0.0
H1571 H 0.66541 0.23652 0.40497 0.0
H1572 H 0.69802 0.2522 0.41567 0.0
H1573 H 0.75436 0.37024 0.44929 0.0
H1574 H 0.75436 0.34289 0.41993 0.0
H1575 H 0.73081 0.29754 0.45809 0.0
H1576 H 0.73059 0.32487 0.48757 0.0
H1577 H 0.71168 0.29426 0.42216 0.0
H1578 H 0.77809 0.29816 0.44297 0.0
H1579 H 0.81008 0.31599 0.45287 0.0
H1580 H 0.8163 0.3375 0.39391 0.0
H1581 H 0.78421 0.32 0.38373 0.0
C1582 C 0.72418 0.22716 0.34277 0.0
C1583 C 0.72777 0.23607 0.32463 0.0
C1584 C 0.72942 0.23852 0.36172 0.0
C1585 C 0.73812 0.25901 0.36271 0.0
C1586 C 0.74331 0.26709 0.34441 0.0
C1587 C 0.73817 0.25567 0.32551 0.0
C1588 C 0.7395 0.27298 0.38252 0.0
C1589 C 0.7575 0.28337 0.38861 0.0
C1590 C 0.72282 0.27689 0.39488 0.0
C1591 C 0.70314 0.26765 0.38859 0.0
C1592 C 0.69519 0.27134 0.36999 0.0
C1593 C 0.67676 0.26231 0.364 0.0
C1594 C 0.66606 0.24973 0.37659 0.0
C1595 C 0.67374 0.24622 0.39522 0.0
C1596 C 0.69219 0.25518 0.40126 0.0
C1597 C 0.74919 0.35445 0.45148 0.0
C1598 C 0.74245 0.34975 0.47078 0.0
C1599 C 0.74933 0.3388 0.43469 0.0
C1600 C 0.74283 0.31812 0.43688 0.0
C1601 C 0.73597 0.31338 0.45609 0.0
C1602 C 0.73586 0.32903 0.47291 0.0
C1603 C 0.74247 0.30163 0.41889 0.0
C1604 C 0.72458 0.29088 0.41304 0.0
C1605 C 0.75923 0.2976 0.40671 0.0
C1606 C 0.77868 0.30787 0.41264 0.0
C1607 C 0.78622 0.30678 0.43215 0.0
C1608 C 0.80438 0.31682 0.43781 0.0
C1609 C 0.8152 0.32788 0.42404 0.0
C1610 C 0.8079 0.3289 0.40456 0.0
C1611 C 0.78974 0.3189 0.39882 0.0
H1612 H 0.82925 0.33565 0.42845 0.0
H1613 H 0.65179 0.24275 0.37193 0.0
H1614 H 0.51114 0.04985 0.97138 0.0
H1615 H 0.53754 0.04985 0.94563 0.0
H1616 H 0.49517 0.04288 0.8974 0.0
H1617 H 0.46894 0.04391 0.92309 0.0
H1618 H 0.5237 0.01015 0.89692 0.0
H1619 H 0.51777 0.08372 0.90121 0.0
H1620 H 0.51754 0.12013 0.91762 0.0
H1621 H 0.57673 0.11929 0.93616 0.0
H1622 H 0.57712 0.08264 0.92042 0.0
H1623 H 0.58085 0.01053 0.80685 0.0
H1624 H 0.55663 0.01786 0.83385 0.0
H1625 H 0.60223 0.04131 0.87674 0.0
H1626 H 0.62658 0.0344 0.84968 0.0
H1627 H 0.57287 0.0661 0.88121 0.0
H1628 H 0.57898 0.99264 0.87746 0.0
H1629 H 0.57965 0.95638 0.86062 0.0
H1630 H 0.52066 0.95689 0.8413 0.0
H1631 H 0.51972 0.99328 0.85779 0.0
C1632 C 0.50757 0.04906 0.95533 0.0
C1633 C 0.48808 0.04669 0.94911 0.0
C1634 C 0.52259 0.04891 0.94066 0.0
C1635 C 0.51824 0.04618 0.91965 0.0
C1636 C 0.49879 0.04489 0.91354 0.0
C1637 C 0.48387 0.04544 0.92816 0.0
C1638 C 0.5337 0.04259 0.90395 0.0
C1639 C 0.53436 0.02242 0.89332 0.0
C1640 C 0.54783 0.0585 0.89972 0.0
C1641 C 0.54737 0.08029 0.9099 0.0
C1642 C 0.53062 0.09114 0.90914 0.0
C1643 C 0.53047 0.11186 0.91827 0.0
C1644 C 0.54707 0.122 0.928 0.0
C1645 C 0.56383 0.1114 0.92872 0.0
C1646 C 0.56402 0.09063 0.91973 0.0
C1647 C 0.58576 0.01723 0.82202 0.0
C1648 C 0.60568 0.02176 0.82612 0.0
C1649 C 0.57188 0.02136 0.83748 0.0
C1650 C 0.5776 0.02989 0.85742 0.0
C1651 C 0.59746 0.03471 0.86149 0.0
C1652 C 0.61136 0.03066 0.846 0.0
C1653 C 0.56285 0.03364 0.87401 0.0
C1654 C 0.56232 0.05378 0.88487 0.0
C1655 C 0.54885 0.01766 0.87858 0.0
C1656 C 0.54934 0.99575 0.8687 0.0
C1657 C 0.5662 0.98508 0.86949 0.0
C1658 C 0.56662 0.96449 0.86003 0.0
C1659 C 0.55023 0.95435 0.84986 0.0
C1660 C 0.53336 0.96477 0.84916 0.0
C1661 C 0.53286 0.98537 0.85858 0.0
H1662 H 0.55058 0.93841 0.84254 0.0
H1663 H 0.54698 0.13812 0.93485 0.0
H1664 H 0.28246 0.24689 0.30351 0.0
H1665 H 0.2814 0.21962 0.32616 0.0
H1666 H 0.32436 0.25679 0.365 0.0
H1667 H 0.32576 0.28368 0.34179 0.0
H1668 H 0.32915 0.21628 0.36486 0.0
H1669 H 0.27485 0.25895 0.37628 0.0
H1670 H 0.24609 0.27573 0.36681 0.0
H1671 H 0.21811 0.21575 0.34412 0.0
H1672 H 0.24666 0.19861 0.3536 0.0
H1673 H 0.30148 0.17772 0.45929 0.0
H1674 H 0.30914 0.1989 0.43161 0.0
H1675 H 0.26789 0.15952 0.39254 0.0
H1676 H 0.26004 0.13835 0.42015 0.0
H1677 H 0.26289 0.20006 0.39204 0.0
H1678 H 0.3168 0.15738 0.38456 0.0
H1679 H 0.34525 0.14152 0.39607 0.0
H1680 H 0.37424 0.20241 0.41263 0.0
H1681 H 0.34585 0.21866 0.40148 0.0
C1682 C 0.29215 0.24875 0.3165 0.0
C1683 C 0.30427 0.26716 0.32096 0.0
C1684 C 0.29138 0.23337 0.32958 0.0
C1685 C 0.30241 0.23638 0.34764 0.0
C1686 C 0.31564 0.25412 0.35125 0.0
C1687 C 0.31655 0.26941 0.33798 0.0
C1688 C 0.29894 0.22199 0.36349 0.0
C1689 C 0.3147 0.21287 0.37094 0.0
C1690 C 0.28005 0.21727 0.3713 0.0
C1691 C 0.26294 0.22753 0.36546 0.0
C1692 C 0.2626 0.24936 0.36918 0.0
C1693 C 0.24632 0.25892 0.36386 0.0
C1694 C 0.23034 0.24682 0.35476 0.0
C1695 C 0.23052 0.22511 0.35112 0.0
C1696 C 0.24671 0.21545 0.35653 0.0
C1697 C 0.29411 0.17347 0.44477 0.0
C1698 C 0.2801 0.15633 0.44199 0.0
C1699 C 0.2986 0.18554 0.4289 0.0
C1700 C 0.28922 0.18072 0.40989 0.0
C1701 C 0.27535 0.16353 0.40704 0.0
C1702 C 0.27089 0.15142 0.42286 0.0
C1703 C 0.29306 0.19421 0.39336 0.0
C1704 C 0.27735 0.20329 0.38586 0.0
C1705 C 0.312 0.19898 0.38569 0.0
C1706 C 0.32911 0.18925 0.39236 0.0
C1707 C 0.32918 0.1674 0.39081 0.0
C1708 C 0.3453 0.15834 0.39724 0.0
C1709 C 0.36152 0.17095 0.40513 0.0
C1710 C 0.36166 0.19266 0.40655 0.0
C1711 C 0.34556 0.2018 0.40015 0.0
H1712 H 0.37399 0.1639 0.4101 0.0
H1713 H 0.21778 0.25427 0.3506 0.0
H1714 H 0.52746 0.4784 0.92248 0.0
H1715 H 0.50161 0.4829 0.89871 0.0
H1716 H 0.4622 0.49488 0.94988 0.0
H1717 H 0.48822 0.49073 0.97363 0.0
H1718 H 0.4455 0.46758 0.91773 0.0
H1719 H 0.4816 0.53446 0.92766 0.0
H1720 H 0.51127 0.55844 0.92863 0.0
H1721 H 0.52121 0.53947 0.86446 0.0
H1722 H 0.49177 0.51507 0.86319 0.0
H1723 H 0.37187 0.50565 0.86176 0.0
H1724 H 0.39673 0.50248 0.88695 0.0
H1725 H 0.43975 0.49592 0.83854 0.0
H1726 H 0.41513 0.49948 0.81337 0.0
H1727 H 0.45421 0.52128 0.87041 0.0
H1728 H 0.41945 0.45354 0.86036 0.0
H1729 H 0.39057 0.42841 0.85903 0.0
H1730 H 0.37871 0.44798 0.92271 0.0
H1731 H 0.40739 0.47345 0.92434 0.0
C1732 C 0.5133 0.48214 0.92857 0.0
C1733 C 0.50977 0.48433 0.9498 0.0
C1734 C 0.49856 0.48465 0.91504 0.0
C1735 C 0.48002 0.48939 0.92255 0.0
C1736 C 0.47638 0.49121 0.94377 0.0
C1737 C 0.49118 0.48881 0.95729 0.0
C1738 C 0.46451 0.49261 0.90825 0.0
C1739 C 0.44726 0.47951 0.90758 0.0
C1740 C 0.46701 0.5079 0.89473 0.0
C1741 C 0.48456 0.52279 0.89538 0.0
C1742 C 0.49018 0.53529 0.91379 0.0
C1743 C 0.50695 0.54896 0.91439 0.0
C1744 C 0.51814 0.55044 0.89663 0.0
C1745 C 0.51254 0.53829 0.87822 0.0
C1746 C 0.49581 0.52454 0.87754 0.0
C1747 C 0.38662 0.50355 0.85648 0.0
C1748 C 0.39148 0.50275 0.83553 0.0
C1749 C 0.40081 0.50166 0.87089 0.0
C1750 C 0.42009 0.49871 0.86462 0.0
C1751 C 0.42499 0.49818 0.84376 0.0
C1752 C 0.41086 0.50016 0.82937 0.0
C1753 C 0.43518 0.49613 0.87973 0.0
C1754 C 0.45237 0.50937 0.88058 0.0
C1755 C 0.43267 0.48089 0.89334 0.0
C1756 C 0.41544 0.46556 0.89241 0.0
C1757 C 0.41059 0.45261 0.87404 0.0
C1758 C 0.39427 0.43828 0.87324 0.0
C1759 C 0.38278 0.43664 0.89076 0.0
C1760 C 0.38761 0.44929 0.90914 0.0
C1761 C 0.4039 0.46367 0.91001 0.0
H1762 H 0.37015 0.42553 0.89011 0.0
H1763 H 0.53112 0.56104 0.89713 0.0
H1764 H 0.70838 0.79161 0.18286 0.0
H1765 H 0.72245 0.77532 0.15051 0.0
H1766 H 0.74346 0.72766 0.18239 0.0
H1767 H 0.72894 0.74374 0.21452 0.0
H1768 H 0.77031 0.744 0.15136 0.0
H1769 H 0.70424 0.71501 0.16088 0.0
H1770 H 0.66915 0.71746 0.16731 0.0
H1771 H 0.66488 0.74776 0.11351 0.0
H1772 H 0.70005 0.74574 0.10693 0.0
H1773 H 0.77998 0.65595 0.0773 0.0
H1774 H 0.77239 0.68105 0.10681 0.0
H1775 H 0.74307 0.71635 0.06734 0.0
H1776 H 0.75049 0.69111 0.03763 0.0
H1777 H 0.72138 0.71028 0.10058 0.0
H1778 H 0.7865 0.7354 0.08827 0.0
H1779 H 0.82165 0.73367 0.08175 0.0
H1780 H 0.82824 0.71199 0.13997 0.0
H1781 H 0.79306 0.7133 0.14672 0.0
C1782 C 0.71641 0.77794 0.18289 0.0
C1783 C 0.71772 0.76881 0.20092 0.0
C1784 C 0.72436 0.76864 0.16452 0.0
C1785 C 0.73393 0.75027 0.1641 0.0
C1786 C 0.73621 0.74188 0.18244 0.0
C1787 C 0.72796 0.75098 0.20069 0.0
C1788 C 0.73988 0.73864 0.14434 0.0
C1789 C 0.75967 0.73651 0.14026 0.0
C1790 C 0.72596 0.72936 0.12971 0.0
C1791 C 0.70481 0.73047 0.13357 0.0
C1792 C 0.69586 0.72238 0.15054 0.0
C1793 C 0.67595 0.72365 0.15418 0.0
C1794 C 0.6648 0.73284 0.14087 0.0
C1795 C 0.67354 0.7407 0.12384 0.0
C1796 C 0.69346 0.73948 0.12014 0.0
C1797 C 0.77204 0.66912 0.07482 0.0
C1798 C 0.76583 0.67149 0.05508 0.0
C1799 C 0.76781 0.68355 0.09173 0.0
C1800 C 0.75733 0.70073 0.08929 0.0
C1801 C 0.75123 0.70326 0.06958 0.0
C1802 C 0.75552 0.68884 0.05261 0.0
C1803 C 0.75193 0.71533 0.10753 0.0
C1804 C 0.73215 0.71798 0.11143 0.0
C1805 C 0.76591 0.72516 0.12191 0.0
C1806 C 0.78709 0.72428 0.11792 0.0
C1807 C 0.7954 0.73009 0.09961 0.0
C1808 C 0.81535 0.72921 0.09589 0.0
C1809 C 0.82716 0.72268 0.11041 0.0
C1810 C 0.81906 0.71703 0.12872 0.0
C1811 C 0.79912 0.71786 0.13251 0.0
H1812 H 0.8426 0.72202 0.10751 0.0
H1813 H 0.64939 0.7338 0.14372 0.0
H1814 H 0.02109 0.06407 0.11581 0.0
H1815 H 0.99901 0.06184 0.14528 0.0
H1816 H 0.97658 1.00037 0.11843 0.0
H1817 H 0.99848 0.0029 0.08876 0.0
H1818 H 0.9476 0.02448 0.13301 0.0
H1819 H 0.0077 0.00589 0.15777 0.0
H1820 H 0.0428 0.01029 0.16502 0.0
H1821 H 0.03495 0.06724 0.20467 0.0
H1822 H 0.99982 0.06335 0.19739 0.0
H1823 H 0.89759 0.99642 0.222 0.0
H1824 H 0.91967 0.99753 0.1926 0.0
H1825 H 0.94404 0.05847 0.21864 0.0
H1826 H 0.92219 0.05738 0.24826 0.0
H1827 H 0.97211 0.03381 0.20434 0.0
H1828 H 0.91218 0.05284 0.17895 0.0
H1829 H 0.87712 0.04867 0.17143 0.0
H1830 H 0.88469 0.99096 0.1329 0.0
H1831 H 0.91977 0.99465 0.14042 0.0
C1832 C 0.01136 0.05017 0.11627 0.0
C1833 C 0.01135 0.03365 0.10018 0.0
C1834 C 0.99888 0.04882 0.1331 0.0
C1835 C 0.98628 0.03085 0.13413 0.0
C1836 C 0.98621 0.01436 0.11795 0.0
C1837 C 0.99873 0.01572 0.10113 0.0
C1838 C 0.97304 0.02939 0.15201 0.0
C1839 C 0.95296 0.02621 0.14859 0.0
C1840 C 0.98004 0.03212 0.17235 0.0
C1841 C 1.00115 0.03442 0.17688 0.0
C1842 C 0.01348 0.01944 0.16791 0.0
C1843 C 0.03338 0.02182 0.17204 0.0
C1844 C 0.04111 0.03905 0.18526 0.0
C1845 C 0.02894 0.05391 0.19441 0.0
C1846 C 0.00903 0.05161 0.1903 0.0
C1847 C 0.90761 0.01009 0.22147 0.0
C1848 C 0.90807 0.02685 0.23745 0.0
C1849 C 0.92018 0.01072 0.20461 0.0
C1850 C 0.93336 0.02818 0.20332 0.0
C1851 C 0.93397 0.04486 0.21932 0.0
C1852 C 0.92142 0.04423 0.2362 0.0
C1853 C 0.94664 0.02899 0.18536 0.0
C1854 C 0.96674 0.03204 0.18876 0.0
C1855 C 0.93965 0.02615 0.165 0.0
C1856 C 0.91857 0.02392 0.16042 0.0
C1857 C 0.90634 0.03918 0.169 0.0
C1858 C 0.88647 0.03692 0.16472 0.0
C1859 C 0.87867 0.01953 0.15174 0.0
C1860 C 0.89074 0.0044 0.14298 0.0
C1861 C 0.91063 0.00658 0.14723 0.0
H1862 H 0.86328 0.01781 0.14844 0.0
H1863 H 0.05652 0.04088 0.18845 0.0
H1864 H 0.29522 0.7247 0.17505 0.0
H1865 H 0.28904 0.74772 0.14961 0.0
H1866 H 0.2816 0.79815 0.19828 0.0
H1867 H 0.28741 0.77477 0.22379 0.0
H1868 H 0.25306 0.79511 0.17002 0.0
H1869 H 0.32232 0.79834 0.1687 0.0
H1870 H 0.35459 0.78442 0.16662 0.0
H1871 H 0.34181 0.75272 0.10626 0.0
H1872 H 0.30934 0.7662 0.10809 0.0
H1873 H 0.24909 0.86684 0.09597 0.0
H1874 H 0.25787 0.84991 0.1253 0.0
H1875 H 0.26971 0.7946 0.08431 0.0
H1876 H 0.26137 0.81148 0.05504 0.0
H1877 H 0.29783 0.80412 0.11138 0.0
H1878 H 0.22759 0.79789 0.11421 0.0
H1879 H 0.195 0.81112 0.11636 0.0
H1880 H 0.20963 0.84817 0.17388 0.0
H1881 H 0.2424 0.83534 0.17193 0.0
C1882 C 0.29232 0.74073 0.18022 0.0
C1883 C 0.29177 0.74807 0.20125 0.0
C1884 C 0.28891 0.7539 0.16574 0.0
C1885 C 0.28505 0.77475 0.17202 0.0
C1886 C 0.28461 0.78215 0.19309 0.0
C1887 C 0.28804 0.76892 0.2076 0.0
C1888 C 0.2809 0.78846 0.15648 0.0
C1889 C 0.26301 0.79743 0.1574 0.0
C1890 C 0.29374 0.79121 0.13983 0.0
C1891 C 0.31333 0.78318 0.1386 0.0
C1892 C 0.32633 0.78829 0.15504 0.0
C1893 C 0.34467 0.78049 0.15389 0.0
C1894 C 0.35023 0.76766 0.13633 0.0
C1895 C 0.33748 0.76265 0.11986 0.0
C1896 C 0.31911 0.77039 0.12093 0.0
C1897 C 0.25349 0.85104 0.09323 0.0
C1898 C 0.25451 0.84051 0.07315 0.0
C1899 C 0.25846 0.84136 0.11002 0.0
C1900 C 0.26435 0.82091 0.10705 0.0
C1901 C 0.26529 0.8104 0.08702 0.0
C1902 C 0.26043 0.82007 0.07027 0.0
C1903 C 0.26978 0.81035 0.12463 0.0
C1904 C 0.28796 0.80201 0.12411 0.0
C1905 C 0.2572 0.80816 0.14162 0.0
C1906 C 0.23751 0.81585 0.1428 0.0
C1907 C 0.2239 0.80899 0.12723 0.0
C1908 C 0.20539 0.81639 0.12843 0.0
C1909 C 0.20027 0.83053 0.14522 0.0
C1910 C 0.21363 0.83725 0.16087 0.0
C1911 C 0.23217 0.82991 0.15973 0.0
H1912 H 0.18594 0.83624 0.14612 0.0
H1913 H 0.36444 0.76164 0.13548 0.0
H1914 H 0.00472 0.4968 0.07226 0.0
H1915 H 0.03028 0.49638 0.09753 0.0
H1916 H 0.999 0.44364 0.12028 0.0
H1917 H 0.97328 0.44432 0.09497 0.0
H1918 H 0.01031 0.47451 0.15132 0.0
H1919 H 0.04009 0.43685 0.09383 0.0
H1920 H 0.05125 0.42975 0.05795 0.0
H1921 H 0.09008 0.48534 0.06613 0.0
H1922 H 0.07889 0.49301 0.10198 0.0
H1923 H 0.08776 0.4668 0.21957 0.0
H1924 H 0.06397 0.45768 0.19207 0.0
H1925 H 0.08903 0.50846 0.16141 0.0
H1926 H 0.11296 0.51753 0.18866 0.0
H1927 H 0.08061 0.47376 0.13428 0.0
H1928 H 0.04774 0.51321 0.19029 0.0
H1929 H 0.0361 0.52073 0.226 0.0
H1930 H 0.00284 0.46138 0.2203 0.0
H1931 H 0.0145 0.45338 0.18462 0.0
C1932 C 0.00347 0.48506 0.08258 0.0
C1933 C 0.98712 0.47067 0.08187 0.0
C1934 C 0.01807 0.48473 0.09692 0.0
C1935 C 0.0166 0.46993 0.11078 0.0
C1936 C 1.00043 0.45519 0.10975 0.0
C1937 C 0.98586 0.45547 0.09527 0.0
C1938 C 0.03152 0.47068 0.12694 0.0
C1939 C 0.02565 0.4739 0.1476 0.0
C1940 C 0.05157 0.47026 0.12209 0.0
C1941 C 0.05854 0.46559 0.10059 0.0
C1942 C 0.05091 0.44766 0.08795 0.0
C1943 C 0.05725 0.44352 0.06761 0.0
C1944 C 0.07135 0.4571 0.05975 0.0
C1945 C 0.07916 0.47484 0.07224 0.0
C1946 C 0.07283 0.47908 0.09258 0.0
C1947 C 0.08828 0.47597 0.20692 0.0
C1948 C 0.10222 0.49298 0.2064 0.0
C1949 C 0.07463 0.47076 0.19123 0.0
C1950 C 0.07457 0.48251 0.17475 0.0
C1951 C 0.08878 0.49916 0.17395 0.0
C1952 C 0.10241 0.50438 0.18961 0.0
C1953 C 0.05941 0.47797 0.15863 0.0
C1954 C 0.06524 0.47407 0.13799 0.0
C1955 C 0.03931 0.47775 0.16349 0.0
C1956 C 0.03217 0.4826 0.18487 0.0
C1957 C 0.03806 0.5017 0.1967 0.0
C1958 C 0.03144 0.50606 0.21693 0.0
C1959 C 0.01879 0.49151 0.22543 0.0
C1960 C 0.01267 0.47261 0.2137 0.0
C1961 C 0.01927 0.46816 0.19348 0.0
H1962 H 0.01368 0.49491 0.24109 0.0
H1963 H 0.07624 0.45387 0.044 0.0
H1964 H 0.30864 0.73897 0.27994 0.0
H1965 H 0.33341 0.73477 0.30507 0.0
H1966 H 0.35604 0.68559 0.2627 0.0
H1967 H 0.33056 0.68926 0.23813 0.0
H1968 H 0.35952 0.67661 0.29965 0.0
H1969 H 0.37543 0.73801 0.26731 0.0
H1970 H 0.3696 0.77195 0.25648 0.0
H1971 H 0.36385 0.79853 0.31947 0.0
H1972 H 0.36935 0.76464 0.33068 0.0
H1973 H 0.45773 0.68716 0.33414 0.0
H1974 H 0.42778 0.68637 0.31474 0.0
H1975 H 0.4043 0.72921 0.36297 0.0
H1976 H 0.43426 0.73014 0.38251 0.0
H1977 H 0.40034 0.74116 0.32481 0.0
H1978 H 0.38723 0.67858 0.35634 0.0
H1979 H 0.39428 0.64429 0.36547 0.0
H1980 H 0.39688 0.61971 0.30163 0.0
H1981 H 0.3901 0.65394 0.29211 0.0
C1982 C 0.3187 0.727 0.27635 0.0
C1983 C 0.3179 0.71443 0.25728 0.0
C1984 C 0.33293 0.72469 0.29055 0.0
C1985 C 0.34698 0.71023 0.28561 0.0
C1986 C 0.34547 0.69692 0.26689 0.0
C1987 C 0.33097 0.69897 0.25287 0.0
C1988 C 0.3639 0.70985 0.29928 0.0
C1989 C 0.36852 0.69071 0.30499 0.0
C1990 C 0.37562 0.72826 0.30651 0.0
C1991 C 0.37262 0.74874 0.29982 0.0
C1992 C 0.37282 0.75106 0.27885 0.0
C1993 C 0.36958 0.77029 0.27264 0.0
C1994 C 0.36631 0.78737 0.28728 0.0
C1995 C 0.36635 0.78528 0.30815 0.0
C1996 C 0.36954 0.76607 0.31444 0.0
C1997 C 0.44615 0.6963 0.34073 0.0
C1998 C 0.44842 0.70872 0.3599 0.0
C1999 C 0.42898 0.69575 0.32964 0.0
C2000 C 0.41372 0.70762 0.33745 0.0
C2001 C 0.41587 0.7199 0.35666 0.0
C2002 C 0.43299 0.72035 0.36783 0.0
C2003 C 0.39592 0.70796 0.32515 0.0
C2004 C 0.39121 0.7271 0.31961 0.0
C2005 C 0.38436 0.68952 0.31781 0.0
C2006 C 0.38831 0.66888 0.32351 0.0
C2007 C 0.38945 0.66591 0.34424 0.0
C2008 C 0.39337 0.64647 0.34949 0.0
C2009 C 0.39607 0.62984 0.33414 0.0
C2010 C 0.3948 0.6326 0.31351 0.0
C2011 C 0.39089 0.65201 0.30818 0.0
H2012 H 0.39911 0.61481 0.33823 0.0
H2013 H 0.36378 0.80224 0.28244 0.0
H2014 H 0.94407 0.41991 0.05352 0.0
H2015 H 0.95451 0.3867 0.03642 0.0
H2016 H 0.01048 0.41726 0.02358 0.0
H2017 H 0.99964 0.45066 0.04027 0.0
H2018 H 0.99537 0.39579 0.9897 0.0
H2019 H 0.00558 0.38077 0.0572 0.0
H2020 H 0.9977 0.37794 0.09348 0.0
H2021 H 0.95031 0.33258 0.07535 0.0
H2022 H 0.95769 0.33538 0.03893 0.0
H2023 H 0.03057 0.30083 0.94301 0.0
H2024 H 0.02666 0.33222 0.9672 0.0
H2025 H 0.96792 0.30937 0.98021 0.0
H2026 H 0.97174 0.27773 0.95606 0.0
H2027 H 0.98766 0.32698 0.01539 0.0
H2028 H 0.97602 0.34515 0.94805 0.0
H2029 H 0.98411 0.34833 0.91185 0.0
H2030 H 0.03515 0.38822 0.9304 0.0
H2031 H 0.02749 0.38504 0.96672 0.0
C2032 C 0.95869 0.41935 0.04733 0.0
C2033 C 0.97105 0.43769 0.04802 0.0
C2034 C 0.96472 0.4004 0.03768 0.0
C2035 C 0.98332 0.39942 0.02872 0.0
C2036 C 0.99606 0.41762 0.03035 0.0
C2037 C 0.98997 0.43661 0.04 0.0
C2038 C 0.98866 0.3799 0.01605 0.0
C2039 C 0.9941 0.38082 0.99548 0.0
C2040 C 0.98656 0.36026 0.0234 0.0
C2041 C 0.98211 0.35841 0.0453 0.0
C2042 C 0.99338 0.37031 0.06093 0.0
C2043 C 0.98902 0.36869 0.08154 0.0
C2044 C 0.97349 0.35511 0.08672 0.0
C2045 C 0.96232 0.34309 0.07131 0.0
C2046 C 0.9666 0.34467 0.05068 0.0
C2047 C 0.01682 0.30239 0.95104 0.0
C2048 C 1.00142 0.28679 0.94747 0.0
C2049 C 0.01461 0.32039 0.96487 0.0
C2050 C 0.99694 0.32324 0.97538 0.0
C2051 C 0.98168 0.30749 0.97226 0.0
C2052 C 0.98386 0.28947 0.95837 0.0
C2053 C 0.99417 0.34296 0.98909 0.0
C2054 C 0.98916 0.34203 0.00977 0.0
C2055 C 0.99674 0.36264 0.9819 0.0
C2056 C 1.00129 0.36467 0.96008 0.0
C2057 C 0.98905 0.35447 0.9444 0.0
C2058 C 0.99354 0.35629 0.92386 0.0
C2059 C 0.01016 0.36842 0.91882 0.0
C2060 C 0.02229 0.3788 0.93432 0.0
C2061 C 0.01788 0.377 0.95488 0.0
H2062 H 0.01362 0.36981 0.90291 0.0
H2063 H 0.97014 0.35388 0.10268 0.0
H2064 H 0.67535 0.74526 0.2627 0.0
H2065 H 0.64651 0.7381 0.2839 0.0
H2066 H 0.62321 0.79421 0.26949 0.0
H2067 H 0.65216 0.80132 0.24847 0.0
H2068 H 0.61969 0.79162 0.30938 0.0
H2069 H 0.60552 0.74553 0.2473 0.0
H2070 H 0.61193 0.71781 0.21909 0.0
H2071 H 0.61521 0.67406 0.2623 0.0
H2072 H 0.60912 0.70162 0.29082 0.0
H2073 H 0.52347 0.77251 0.34551 0.0
H2074 H 0.55147 0.77759 0.32287 0.0
H2075 H 0.57554 0.72356 0.34109 0.0
H2076 H 0.54752 0.71827 0.36373 0.0
H2077 H 0.57866 0.72465 0.29941 0.0
H2078 H 0.593 0.77096 0.36141 0.0
H2079 H 0.5866 0.79876 0.38954 0.0
H2080 H 0.58287 0.84221 0.34612 0.0
H2081 H 0.58896 0.81456 0.31768 0.0
C2082 C 0.66393 0.75587 0.26399 0.0
C2083 C 0.66581 0.77379 0.25405 0.0
C2084 C 0.64749 0.75182 0.27604 0.0
C2085 C 0.6326 0.76553 0.27815 0.0
C2086 C 0.63451 0.78343 0.26813 0.0
C2087 C 0.65097 0.7875 0.25616 0.0
C2088 C 0.6152 0.76151 0.29113 0.0
C2089 C 0.61057 0.77708 0.307 0.0
C2090 C 0.60355 0.74235 0.28836 0.0
C2091 C 0.60705 0.7257 0.27122 0.0
C2092 C 0.60776 0.73004 0.2508 0.0
C2093 C 0.61131 0.71435 0.23475 0.0
C2094 C 0.61402 0.6942 0.2389 0.0
C2095 C 0.61313 0.68969 0.25911 0.0
C2096 C 0.60962 0.70533 0.27523 0.0
C2097 C 0.53467 0.76164 0.34466 0.0
C2098 C 0.53331 0.74505 0.35652 0.0
C2099 C 0.55069 0.76461 0.33175 0.0
C2100 C 0.56568 0.75108 0.33047 0.0
C2101 C 0.56414 0.7342 0.34188 0.0
C2102 C 0.54815 0.73126 0.35486 0.0
C2103 C 0.58314 0.75481 0.31753 0.0
C2104 C 0.58779 0.73918 0.30173 0.0
C2105 C 0.5948 0.77394 0.32032 0.0
C2106 C 0.59124 0.79063 0.3374 0.0
C2107 C 0.59066 0.7864 0.35785 0.0
C2108 C 0.58712 0.80214 0.37385 0.0
C2109 C 0.58428 0.82223 0.36962 0.0
C2110 C 0.58504 0.82664 0.34937 0.0
C2111 C 0.58855 0.81094 0.3333 0.0
H2112 H 0.58154 0.8344 0.38203 0.0
H2113 H 0.61677 0.68207 0.22646 0.0
H2114 H 0.02672 0.03893 0.0176 0.0
H2115 H 0.02615 0.06467 0.99347 0.0
H2116 H 0.06177 0.10876 0.03477 0.0
H2117 H 0.06152 0.0831 0.05908 0.0
H2118 H 0.03121 0.12575 0.02622 0.0
H2119 H 0.07743 0.08755 0.98518 0.0
H2120 H 0.09111 0.05654 0.96627 0.0
H2121 H 0.04195 0.04686 0.92616 0.0
H2122 H 0.02782 0.07764 0.94502 0.0
H2123 H 0.04015 0.20563 0.9623 0.0
H2124 H 0.04811 0.17701 0.98052 0.0
H2125 H 0.00384 0.13619 0.94707 0.0
H2126 H 0.99566 0.16488 0.92873 0.0
H2127 H 0.03985 0.11764 0.9506 0.0
H2128 H 0.99339 0.15515 0.99338 0.0
H2129 H 0.98031 0.18647 0.0124 0.0
H2130 H 0.0316 0.19763 0.04942 0.0
H2131 H 0.04511 0.16652 0.03041 0.0
C2132 C 0.03505 0.05384 0.02097 0.0
C2133 C 0.04442 0.0591 0.03987 0.0
C2134 C 0.0347 0.06859 0.00727 0.0
C2135 C 0.04396 0.08874 0.01222 0.0
C2136 C 0.05448 0.09338 0.03058 0.0
C2137 C 0.05458 0.07872 0.04435 0.0
C2138 C 0.04064 0.10565 0.99969 0.0
C2139 C 0.03352 0.12406 0.00973 0.0
C2140 C 0.043 0.10331 0.97807 0.0
C2141 C 0.05148 0.08481 0.96664 0.0
C2142 C 0.06946 0.07872 0.97243 0.0
C2143 C 0.07731 0.06119 0.9617 0.0
C2144 C 0.06739 0.04971 0.94505 0.0
C2145 C 0.04961 0.05576 0.93907 0.0
C2146 C 0.04168 0.07326 0.94976 0.0
C2147 C 0.03211 0.19057 0.95873 0.0
C2148 C 0.01718 0.18759 0.94413 0.0
C2149 C 0.03669 0.17423 0.96918 0.0
C2150 C 0.02652 0.15451 0.9652 0.0
C2151 C 0.01189 0.15129 0.95032 0.0
C2152 C 0.00715 0.16773 0.93997 0.0
C2153 C 0.03069 0.13759 0.97724 0.0
C2154 C 0.03779 0.11924 0.96711 0.0
C2155 C 0.02848 0.13998 0.99882 0.0
C2156 C 0.02034 0.15864 0.01033 0.0
C2157 C 1.00195 0.16439 0.00546 0.0
C2158 C 0.99445 0.18208 0.01626 0.0
C2159 C 0.00514 0.19407 0.03207 0.0
C2160 C 0.02334 0.18835 0.03715 0.0
C2161 C 0.03092 0.17068 0.02638 0.0
H2162 H 0.99931 0.20776 0.04041 0.0
H2163 H 0.07349 0.03615 0.93676 0.0
H2164 H 0.34915 0.31521 0.30623 0.0
H2165 H 0.37828 0.30878 0.28512 0.0
H2166 H 0.34786 0.2541 0.25208 0.0
H2167 H 0.31885 0.26049 0.27361 0.0
H2168 H 0.38605 0.24821 0.25603 0.0
H2169 H 0.34973 0.3011 0.23224 0.0
H2170 H 0.3335 0.33395 0.23537 0.0
H2171 H 0.38664 0.36854 0.25636 0.0
H2172 H 0.40322 0.33591 0.25315 0.0
H2173 H 0.43905 0.2439 0.16199 0.0
H2174 H 0.41405 0.24638 0.18879 0.0
H2175 H 0.445 0.30205 0.21928 0.0
H2176 H 0.46993 0.29989 0.19228 0.0
H2177 H 0.40756 0.30727 0.21791 0.0
H2178 H 0.44485 0.25424 0.23774 0.0
H2179 H 0.46102 0.22137 0.23296 0.0
H2180 H 0.40616 0.18664 0.21928 0.0
H2181 H 0.38968 0.21933 0.22369 0.0
C2182 C 0.34902 0.30145 0.29491 0.0
C2183 C 0.33193 0.28829 0.29147 0.0
C2184 C 0.36552 0.2979 0.2827 0.0
C2185 C 0.36512 0.28126 0.26663 0.0
C2186 C 0.34851 0.26711 0.26429 0.0
C2187 C 0.33201 0.27063 0.27664 0.0
C2188 C 0.38133 0.27964 0.25134 0.0
C2189 C 0.39065 0.26104 0.24756 0.0
C2190 C 0.38762 0.2965 0.24051 0.0
C2191 C 0.37764 0.31608 0.24265 0.0
C2192 C 0.35791 0.31571 0.23761 0.0
C2193 C 0.34868 0.33429 0.23932 0.0
C2194 C 0.359 0.3533 0.24617 0.0
C2195 C 0.37864 0.3538 0.25112 0.0
C2196 C 0.38799 0.33529 0.24927 0.0
C2197 C 0.44057 0.25669 0.17439 0.0
C2198 C 0.45653 0.27171 0.17495 0.0
C2199 C 0.42631 0.25799 0.18981 0.0
C2200 C 0.42775 0.27421 0.20628 0.0
C2201 C 0.44358 0.28933 0.20679 0.0
C2202 C 0.45783 0.28808 0.19132 0.0
C2203 C 0.4124 0.27583 0.22256 0.0
C2204 C 0.40314 0.29445 0.22648 0.0
C2205 C 0.4062 0.25896 0.23344 0.0
C2206 C 0.41606 0.23926 0.23087 0.0
C2207 C 0.43625 0.23961 0.23356 0.0
C2208 C 0.44547 0.221 0.23094 0.0
C2209 C 0.43463 0.20193 0.22577 0.0
C2210 C 0.41454 0.20142 0.22326 0.0
C2211 C 0.40525 0.21998 0.22584 0.0
H2212 H 0.4418 0.18755 0.22375 0.0
H2213 H 0.3518 0.36765 0.24757 0.0
H2214 H 0.56999 0.44624 0.98891 0.0
H2215 H 0.57282 0.42073 0.01304 0.0
H2216 H 0.52631 0.44732 0.04983 0.0
H2217 H 0.52381 0.4729 0.02584 0.0
H2218 H 0.55316 0.43361 0.07385 0.0
H2219 H 0.51626 0.40721 0.01309 0.0
H2220 H 0.51107 0.3992 0.97579 0.0
H2221 H 0.55831 0.35957 0.97059 0.0
H2222 H 0.56396 0.36758 0.00785 0.0
H2223 H 0.51058 0.34575 0.11832 0.0
H2224 H 0.51725 0.3759 0.09971 0.0
H2225 H 0.56233 0.34453 0.0648 0.0
H2226 H 0.55567 0.31433 0.08316 0.0
H2227 H 0.53898 0.36092 0.04024 0.0
H2228 H 0.57364 0.38507 0.1023 0.0
H2229 H 0.578 0.39317 0.13971 0.0
H2230 H 0.53417 0.43687 0.14282 0.0
H2231 H 0.52935 0.42882 0.10544 0.0
C2232 C 0.56095 0.44703 0.00259 0.0
C2233 C 0.54666 0.46135 0.00562 0.0
C2234 C 0.5624 0.43239 0.01624 0.0
C2235 C 0.5495 0.43186 0.03304 0.0
C2236 C 0.53636 0.44737 0.03697 0.0
C2237 C 0.53493 0.46195 0.02333 0.0
C2238 C 0.5481 0.41393 0.04512 0.0
C2239 C 0.54998 0.41772 0.06654 0.0
C2240 C 0.54415 0.39315 0.03557 0.0
C2241 C 0.54067 0.38818 0.01321 0.0
C2242 C 0.52563 0.3969 0.00397 0.0
C2243 C 0.52259 0.39235 0.98284 0.0
C2244 C 0.53439 0.37894 0.97082 0.0
C2245 C 0.54921 0.36999 0.97991 0.0
C2246 C 0.55233 0.37452 1.00104 0.0
C2247 C 0.52198 0.3453 0.10676 0.0
C2248 C 0.53257 0.32759 0.10224 0.0
C2249 C 0.52585 0.36261 0.0962 0.0
C2250 C 0.54042 0.36258 0.08096 0.0
C2251 C 0.55104 0.34494 0.07649 0.0
C2252 C 0.54722 0.32768 0.08706 0.0
C2253 C 0.54405 0.38053 0.06904 0.0
C2254 C 0.54244 0.37675 0.0476 0.0
C2255 C 0.54814 0.40129 0.07862 0.0
C2256 C 0.55101 0.40619 0.10109 0.0
C2257 C 0.56482 0.39628 0.11098 0.0
C2258 C 0.56739 0.40089 0.13218 0.0
C2259 C 0.55633 0.41549 0.14364 0.0
C2260 C 0.54271 0.42555 0.13392 0.0
C2261 C 0.54006 0.42098 0.11273 0.0
H2262 H 0.55835 0.41903 0.16005 0.0
H2263 H 0.53202 0.37543 0.95446 0.0
H2264 H 0.66158 0.20098 0.27729 0.0
H2265 H 0.63435 0.20833 0.25663 0.0
H2266 H 0.67057 0.25741 0.233 0.0
H2267 H 0.6975 0.25037 0.25431 0.0
H2268 H 0.63725 0.27098 0.24325 0.0
H2269 H 0.65697 0.20913 0.20347 0.0
H2270 H 0.66583 0.17275 0.19687 0.0
H2271 H 0.60888 0.15097 0.21613 0.0
H2272 H 0.59976 0.18726 0.22315 0.0
H2273 H 0.56945 0.28346 0.16542 0.0
H2274 H 0.59855 0.27519 0.18248 0.0
H2275 H 0.56331 0.23373 0.21687 0.0
H2276 H 0.53417 0.24201 0.20007 0.0
H2277 H 0.59701 0.21648 0.19916 0.0
H2278 H 0.57859 0.27949 0.24021 0.0
H2279 H 0.57039 0.31614 0.24584 0.0
H2280 H 0.62627 0.3358 0.2221 0.0
H2281 H 0.63471 0.2992 0.21606 0.0
C2282 C 0.66366 0.21311 0.26742 0.0
C2283 C 0.68148 0.22507 0.26715 0.0
C2284 C 0.64819 0.21729 0.2556 0.0
C2285 C 0.65044 0.23326 0.243 0.0
C2286 C 0.66845 0.24501 0.24256 0.0
C2287 C 0.68381 0.24098 0.2546 0.0
C2288 C 0.63379 0.23834 0.23104 0.0
C2289 C 0.6287 0.25908 0.23333 0.0
C2290 C 0.62235 0.22282 0.21833 0.0
C2291 C 0.62774 0.20095 0.214 0.0
C2292 C 0.64638 0.1966 0.20644 0.0
C2293 C 0.65144 0.17599 0.2026 0.0
C2294 C 0.63794 0.15956 0.20612 0.0
C2295 C 0.61933 0.16371 0.21343 0.0
C2296 C 0.61419 0.1843 0.21733 0.0
C2297 C 0.56789 0.27262 0.17664 0.0
C2298 C 0.54949 0.26345 0.18145 0.0
C2299 C 0.58452 0.26793 0.18638 0.0
C2300 C 0.58305 0.25389 0.20096 0.0
C2301 C 0.56475 0.24458 0.20563 0.0
C2302 C 0.5481 0.24942 0.19609 0.0
C2303 C 0.60056 0.24899 0.21152 0.0
C2304 C 0.60574 0.22832 0.20897 0.0
C2305 C 0.61222 0.26459 0.22378 0.0
C2306 C 0.60719 0.28659 0.22747 0.0
C2307 C 0.58906 0.29161 0.23602 0.0
C2308 C 0.58438 0.31237 0.23932 0.0
C2309 C 0.59778 0.32828 0.23427 0.0
C2310 C 0.6159 0.32346 0.22597 0.0
C2311 C 0.62064 0.30271 0.22262 0.0
H2312 H 0.59413 0.34435 0.23684 0.0
H2313 H 0.64189 0.14361 0.20314 0.0
H2314 H 0.47422 0.09155 0.96617 0.0
H2315 H 0.48511 0.12531 0.98618 0.0
H2316 H 0.49877 0.09321 0.03684 0.0
H2317 H 0.48825 0.05974 0.01677 0.0
H2318 H 0.46925 0.12267 0.04433 0.0
H2319 H 0.53382 0.11611 0.01767 0.0
H2320 H 0.56037 0.11288 0.99214 0.0
H2321 H 0.54715 0.17009 0.97124 0.0
H2322 H 0.52023 0.17348 0.99641 0.0
H2323 H 0.5083 0.19721 0.12273 0.0
H2324 H 0.50418 0.1678 0.09554 0.0
H2325 H 0.49752 0.21009 0.05123 0.0
H2326 H 0.50165 0.23984 0.07851 0.0
H2327 H 0.52225 0.17785 0.03767 0.0
H2328 H 0.45844 0.18495 0.06601 0.0
H2329 H 0.4338 0.18896 0.0936 0.0
H2330 H 0.44637 0.13039 0.11203 0.0
H2331 H 0.47131 0.12618 0.08473 0.0
C2332 C 0.48034 0.0918 0.98125 0.0
C2333 C 0.48039 0.07327 0.99011 0.0
C2334 C 0.48645 0.11099 0.99268 0.0
C2335 C 0.49256 0.11171 0.01304 0.0
C2336 C 0.49406 0.09298 0.02118 0.0
C2337 C 0.48815 0.07393 0.00975 0.0
C2338 C 0.49458 0.13169 0.02695 0.0
C2339 C 0.48093 0.13468 0.04294 0.0
C2340 C 0.50945 0.14756 0.02472 0.0
C2341 C 0.52483 0.14491 0.00876 0.0
C2342 C 0.53631 0.12781 0.00738 0.0
C2343 C 0.5515 0.12601 0.99305 0.0
C2344 C 0.55547 0.14131 0.98014 0.0
C2345 C 0.54407 0.15828 0.9813 0.0
C2346 C 0.52883 0.16014 0.99558 0.0
C2347 C 0.50598 0.20034 0.10723 0.0
C2348 C 0.5052 0.22089 0.10282 0.0
C2349 C 0.5036 0.18348 0.09169 0.0
C2350 C 0.5004 0.18675 0.0714 0.0
C2351 C 0.49996 0.20724 0.06681 0.0
C2352 C 0.50221 0.22419 0.08242 0.0
C2353 C 0.49715 0.16858 0.05525 0.0
C2354 C 0.51044 0.16595 0.03884 0.0
C2355 C 0.48195 0.15293 0.05705 0.0
C2356 C 0.46686 0.15534 0.07341 0.0
C2357 C 0.45606 0.173 0.07604 0.0
C2358 C 0.44202 0.1753 0.09161 0.0
C2359 C 0.43855 0.15996 0.10458 0.0
C2360 C 0.44909 0.14227 0.10197 0.0
C2361 C 0.46316 0.13991 0.08644 0.0
H2362 H 0.42767 0.16177 0.11663 0.0
H2363 H 0.56744 0.14008 0.96931 0.0
H2364 H 0.2426 0.28772 0.75595 0.0
H2365 H 0.2699 0.3146 0.76016 0.0
H2366 H 0.24446 0.34724 0.7155 0.0
H2367 H 0.21754 0.31983 0.71092 0.0
H2368 H 0.283 0.35197 0.71273 0.0
H2369 H 0.23599 0.36044 0.7678 0.0
H2370 H 0.2154 0.34965 0.79623 0.0
H2371 H 0.2661 0.33705 0.82784 0.0
H2372 H 0.287 0.3478 0.79959 0.0
H2373 H 0.32035 0.45593 0.7496 0.0
H2374 H 0.2997 0.42392 0.7393 0.0
H2375 H 0.33029 0.39195 0.78069 0.0
H2376 H 0.35102 0.42389 0.7911 0.0
H2377 H 0.29078 0.38583 0.78466 0.0
H2378 H 0.33791 0.38176 0.73006 0.0
H2379 H 0.35749 0.3945 0.70186 0.0
H2380 H 0.30545 0.4004 0.66911 0.0
H2381 H 0.28553 0.38799 0.69727 0.0
C2382 C 0.24326 0.30038 0.74668 0.0
C2383 C 0.22813 0.30194 0.7332 0.0
C2384 C 0.25869 0.31579 0.74918 0.0
C2385 C 0.25896 0.33326 0.73857 0.0
C2386 C 0.24452 0.33399 0.72395 0.0
C2387 C 0.22921 0.31838 0.72127 0.0
C2388 C 0.27325 0.35151 0.74399 0.0
C2389 C 0.2846 0.35948 0.72843 0.0
C2390 C 0.27555 0.3612 0.76452 0.0
C2391 C 0.26302 0.35472 0.78151 0.0
C2392 C 0.24273 0.35526 0.78077 0.0
C2393 C 0.23102 0.3492 0.79687 0.0
C2394 C 0.23943 0.34257 0.81378 0.0
C2395 C 0.2596 0.34214 0.81471 0.0
C2396 C 0.27139 0.34827 0.79869 0.0
C2397 C 0.32273 0.44209 0.75649 0.0
C2398 C 0.33732 0.44248 0.77121 0.0
C2399 C 0.31099 0.42376 0.75047 0.0
C2400 C 0.31358 0.40549 0.75908 0.0
C2401 C 0.32809 0.40585 0.7738 0.0
C2402 C 0.33993 0.42412 0.77972 0.0
C2403 C 0.30056 0.3863 0.75343 0.0
C2404 C 0.28935 0.37821 0.76898 0.0
C2405 C 0.29827 0.37673 0.73288 0.0
C2406 C 0.31022 0.38413 0.71588 0.0
C2407 C 0.33063 0.38594 0.71693 0.0
C2408 C 0.34179 0.39307 0.70093 0.0
C2409 C 0.33272 0.39831 0.68372 0.0
C2410 C 0.31246 0.39636 0.68246 0.0
C2411 C 0.30122 0.38926 0.69843 0.0
H2412 H 0.34139 0.40382 0.67135 0.0
H2413 H 0.23033 0.33783 0.8262 0.0
H2414 H 0.24328 0.69556 0.77496 0.0
H2415 H 0.26825 0.67113 0.77724 0.0
H2416 H 0.24215 0.65466 0.83366 0.0
H2417 H 0.21679 0.67856 0.83086 0.0
H2418 H 0.29583 0.66531 0.80315 0.0
H2419 H 0.24327 0.60211 0.83353 0.0
H2420 H 0.20816 0.59128 0.83359 0.0
H2421 H 0.20143 0.61765 0.77783 0.0
H2422 H 0.23652 0.62832 0.77727 0.0
H2423 H 0.35113 0.58235 0.82374 0.0
H2424 H 0.3288 0.61007 0.82699 0.0
H2425 H 0.2949 0.57657 0.77691 0.0
H2426 H 0.31679 0.54859 0.77397 0.0
H2427 H 0.27149 0.59148 0.8053 0.0
H2428 H 0.32764 0.61952 0.77099 0.0
H2429 H 0.36243 0.63 0.76632 0.0
H2430 H 0.36164 0.67294 0.82193 0.0
H2431 H 0.32689 0.66251 0.82706 0.0
C2432 C 0.24306 0.68681 0.7879 0.0
C2433 C 0.2281 0.68868 0.80262 0.0
C2434 C 0.25736 0.673 0.78929 0.0
C2435 C 0.25691 0.66081 0.80545 0.0
C2436 C 0.24263 0.66367 0.82089 0.0
C2437 C 0.22828 0.67743 0.81942 0.0
C2438 C 0.27045 0.64406 0.80521 0.0
C2439 C 0.29053 0.64919 0.80379 0.0
C2440 C 0.26353 0.62293 0.80554 0.0
C2441 C 0.24247 0.61622 0.80551 0.0
C2442 C 0.2343 0.60551 0.82125 0.0
C2443 C 0.21441 0.59941 0.82137 0.0
C2444 C 0.20256 0.60384 0.80576 0.0
C2445 C 0.2106 0.61429 0.78995 0.0
C2446 C 0.23049 0.62037 0.78973 0.0
C2447 C 0.33889 0.58086 0.81345 0.0
C2448 C 0.33579 0.56326 0.79855 0.0
C2449 C 0.32617 0.59678 0.81527 0.0
C2450 C 0.31026 0.59558 0.80203 0.0
C2451 C 0.30703 0.57788 0.78733 0.0
C2452 C 0.31962 0.5619 0.78563 0.0
C2453 C 0.29696 0.61269 0.80334 0.0
C2454 C 0.27687 0.60762 0.80495 0.0
C2455 C 0.30385 0.63377 0.80257 0.0
C2456 C 0.32473 0.64007 0.79952 0.0
C2457 C 0.33493 0.63108 0.7823 0.0
C2458 C 0.35463 0.63703 0.77956 0.0
C2459 C 0.36425 0.65208 0.79385 0.0
C2460 C 0.35417 0.66125 0.81089 0.0
C2461 C 0.33447 0.65534 0.81371 0.0
H2462 H 0.3795 0.65667 0.7917 0.0
H2463 H 0.18716 0.59913 0.80591 0.0
H2464 H 0.90233 0.53841 0.46752 0.0
H2465 H 0.87505 0.51456 0.47666 0.0
H2466 H 0.91299 0.46441 0.47228 0.0
H2467 H 0.94029 0.48842 0.46324 0.0
H2468 H 0.87586 0.45189 0.4559 0.0
H2469 H 0.90446 0.48942 0.51742 0.0
H2470 H 0.91664 0.5214 0.53951 0.0
H2471 H 0.85954 0.54347 0.54233 0.0
H2472 H 0.84709 0.5118 0.51989 0.0
H2473 H 0.81683 0.38493 0.51257 0.0
H2474 H 0.8442 0.40726 0.50156 0.0
H2475 H 0.80916 0.45995 0.50975 0.0
H2476 H 0.78177 0.43779 0.52105 0.0
H2477 H 0.84536 0.47077 0.52413 0.0
H2478 H 0.81668 0.43426 0.46242 0.0
H2479 H 0.80425 0.4033 0.43905 0.0
H2480 H 0.86081 0.37993 0.43592 0.0
H2481 H 0.87354 0.41063 0.45954 0.0
C2482 C 0.90468 0.52222 0.46833 0.0
C2483 C 0.92327 0.51515 0.46487 0.0
C2484 C 0.88918 0.50865 0.47352 0.0
C2485 C 0.89209 0.4878 0.47539 0.0
C2486 C 0.91048 0.48044 0.47091 0.0
C2487 C 0.926 0.49407 0.46576 0.0
C2488 C 0.87626 0.47413 0.4833 0.0
C2489 C 0.86934 0.45583 0.47092 0.0
C2490 C 0.86757 0.47956 0.50275 0.0
C2491 C 0.87488 0.4983 0.51682 0.0
C2492 C 0.89452 0.50114 0.52266 0.0
C2493 C 0.90147 0.51921 0.53524 0.0
C2494 C 0.88888 0.53447 0.54228 0.0
C2495 C 0.86928 0.53164 0.53684 0.0
C2496 C 0.86227 0.51363 0.5242 0.0
C2497 C 0.81496 0.40129 0.51216 0.0
C2498 C 0.79708 0.40956 0.51759 0.0
C2499 C 0.8306 0.41402 0.50577 0.0
C2500 C 0.82863 0.4352 0.50455 0.0
C2501 C 0.81098 0.44363 0.51053 0.0
C2502 C 0.79533 0.43093 0.51695 0.0
C2503 C 0.84484 0.4485 0.4967 0.0
C2504 C 0.85188 0.46675 0.50913 0.0
C2505 C 0.85358 0.44305 0.47725 0.0
C2506 C 0.84602 0.42465 0.46291 0.0
C2507 C 0.82644 0.42245 0.45687 0.0
C2508 C 0.81934 0.40496 0.44356 0.0
C2509 C 0.83172 0.38964 0.43604 0.0
C2510 C 0.85124 0.39181 0.44178 0.0
C2511 C 0.85841 0.40925 0.45512 0.0
H2512 H 0.8262 0.37615 0.4257 0.0
H2513 H 0.8943 0.54848 0.55198 0.0
H2514 H 0.79821 0.86007 0.81052 0.0
H2515 H 0.77561 0.88694 0.80799 0.0
H2516 H 0.73047 0.83892 0.78799 0.0
H2517 H 0.75332 0.8121 0.79021 0.0
H2518 H 0.732 0.87054 0.76456 0.0
H2519 H 0.72982 0.86419 0.83625 0.0
H2520 H 0.74343 0.86313 0.87045 0.0
H2521 H 0.76869 0.92599 0.87137 0.0
H2522 H 0.75547 0.92733 0.83703 0.0
H2523 H 0.65656 0.94008 0.77354 0.0
H2524 H 0.67626 0.91122 0.77771 0.0
H2525 H 0.72339 0.95527 0.80099 0.0
H2526 H 0.70369 0.98413 0.79729 0.0
H2527 H 0.71921 0.92416 0.82337 0.0
H2528 H 0.72321 0.92992 0.75114 0.0
H2529 H 0.71026 0.93109 0.71666 0.0
H2530 H 0.68212 0.86952 0.71658 0.0
H2531 H 0.69471 0.8681 0.75119 0.0
C2532 C 0.78346 0.85537 0.80558 0.0
C2533 C 0.77739 0.83415 0.8006 0.0
C2534 C 0.77053 0.87065 0.80425 0.0
C2535 C 0.75127 0.86493 0.79801 0.0
C2536 C 0.74524 0.84368 0.79291 0.0
C2537 C 0.75818 0.82841 0.79428 0.0
C2538 C 0.73758 0.8812 0.79649 0.0
C2539 C 0.72894 0.88206 0.77751 0.0
C2540 C 0.73391 0.89649 0.81326 0.0
C2541 C 0.74179 0.89579 0.83398 0.0
C2542 C 0.7384 0.87774 0.84368 0.0
C2543 C 0.74602 0.8771 0.8631 0.0
C2544 C 0.75695 0.89447 0.87306 0.0
C2545 C 0.76023 0.91254 0.86363 0.0
C2546 C 0.75266 0.91325 0.84419 0.0
C2547 C 0.67111 0.94363 0.77958 0.0
C2548 C 0.67856 0.96444 0.78502 0.0
C2549 C 0.68239 0.9271 0.78188 0.0
C2550 C 0.70142 0.93106 0.78943 0.0
C2551 C 0.70876 0.95181 0.79513 0.0
C2552 C 0.69748 0.96831 0.79294 0.0
C2553 C 0.71377 0.91366 0.79137 0.0
C2554 C 0.72216 0.91257 0.81045 0.0
C2555 C 0.71726 0.89819 0.77466 0.0
C2556 C 0.70972 0.899 0.75384 0.0
C2557 C 0.71413 0.9167 0.74383 0.0
C2558 C 0.70688 0.91739 0.72426 0.0
C2559 C 0.69533 0.90041 0.71446 0.0
C2560 C 0.69105 0.88268 0.7242 0.0
C2561 C 0.69824 0.88191 0.74379 0.0
H2562 H 0.68973 0.90098 0.6993 0.0
H2563 H 0.76284 0.89394 0.8881 0.0
H2564 H 0.56194 0.51538 0.01189 0.0
H2565 H 0.59326 0.53621 0.01758 0.0
H2566 H 0.61868 0.49716 0.96753 0.0
H2567 H 0.58717 0.47671 0.9617 0.0
H2568 H 0.64399 0.51016 0.00343 0.0
H2569 H 0.60537 0.53859 0.95484 0.0
H2570 H 0.57588 0.5519 0.94245 0.0
H2571 H 0.57645 0.5991 0.99487 0.0
H2572 H 0.606 0.5861 0.00753 0.0
H2573 H 0.72415 0.58039 0.97991 0.0
H2574 H 0.69545 0.55542 0.97814 0.0
H2575 H 0.66446 0.59937 0.01886 0.0
H2576 H 0.69288 0.62446 0.02044 0.0
H2577 H 0.64215 0.58284 0.98791 0.0
H2578 H 0.6824 0.55621 0.03532 0.0
H2579 H 0.71226 0.54341 0.04734 0.0
H2580 H 0.70876 0.49271 0.99806 0.0
H2581 H 0.679 0.50539 0.98556 0.0
C2582 C 0.57446 0.51091 0.00266 0.0
C2583 C 0.57244 0.49439 0.9866 0.0
C2584 C 0.59223 0.52285 0.00575 0.0
C2585 C 0.60825 0.51828 0.99289 0.0
C2586 C 0.60654 0.50088 0.97767 0.0
C2587 C 0.58867 0.48916 0.97441 0.0
C2588 C 0.62609 0.5328 0.99404 0.0
C2589 C 0.64369 0.526 0.99986 0.0
C2590 C 0.6256 0.55353 0.98966 0.0
C2591 C 0.60774 0.56124 0.98223 0.0
C2592 C 0.59912 0.55171 0.96379 0.0
C2593 C 0.58245 0.55926 0.95668 0.0
C2594 C 0.57424 0.57627 0.96792 0.0
C2595 C 0.58279 0.58589 0.98621 0.0
C2596 C 0.59953 0.57849 0.99333 0.0
C2597 C 0.71123 0.58474 0.98849 0.0
C2598 C 0.71085 0.60446 1.00032 0.0
C2599 C 0.69485 0.57038 0.98756 0.0
C2600 C 0.67782 0.57538 0.99856 0.0
C2601 C 0.6774 0.5951 0.01026 0.0
C2602 C 0.69372 0.60945 0.01116 0.0
C2603 C 0.66021 0.56038 0.99753 0.0
C2604 C 0.64257 0.56706 0.99161 0.0
C2605 C 0.66073 0.53958 1.00188 0.0
C2606 C 0.67859 0.53188 0.00938 0.0
C2607 C 0.68809 0.54243 0.02694 0.0
C2608 C 0.70498 0.53518 0.03386 0.0
C2609 C 0.71244 0.51729 0.02343 0.0
C2610 C 0.70298 0.50658 0.0061 0.0
C2611 C 0.68609 0.51379 0.9991 0.0
H2612 H 0.72552 0.5117 0.02881 0.0
H2613 H 0.5613 0.58203 0.96241 0.0
H2614 H 0.28849 0.6683 0.2097 0.0
H2615 H 0.26883 0.63715 0.21786 0.0
H2616 H 0.25589 0.66936 0.27769 0.0
H2617 H 0.27578 0.70046 0.26943 0.0
H2618 H 0.26002 0.62756 0.2789 0.0
H2619 H 0.22399 0.66899 0.23946 0.0
H2620 H 0.21815 0.6878 0.2102 0.0
H2621 H 0.22214 0.63132 0.16863 0.0
H2622 H 0.228 0.61216 0.19767 0.0
H2623 H 0.17111 0.57036 0.29911 0.0
H2624 H 0.19651 0.59745 0.29324 0.0
H2625 H 0.20595 0.5662 0.23216 0.0
H2626 H 0.18026 0.53922 0.23778 0.0
H2627 H 0.20467 0.60672 0.23154 0.0
H2628 H 0.23806 0.56453 0.27168 0.0
H2629 H 0.24319 0.54588 0.30122 0.0
H2630 H 0.24422 0.60362 0.34173 0.0
H2631 H 0.23881 0.6226 0.31247 0.0
C2632 C 0.2818 0.66842 0.22474 0.0
C2633 C 0.28342 0.68663 0.23893 0.0
C2634 C 0.27052 0.65075 0.22937 0.0
C2635 C 0.26054 0.6511 0.24822 0.0
C2636 C 0.26338 0.66879 0.26302 0.0
C2637 C 0.27476 0.68647 0.25838 0.0
C2638 C 0.24591 0.6338 0.25171 0.0
C2639 C 0.24781 0.6231 0.26868 0.0
C2640 C 0.23016 0.62774 0.23817 0.0
C2641 C 0.22661 0.6392 0.2207 0.0
C2642 C 0.22372 0.66061 0.22407 0.0
C2643 C 0.22035 0.67132 0.20753 0.0
C2644 C 0.21986 0.66078 0.18757 0.0
C2645 C 0.22257 0.63947 0.1841 0.0
C2646 C 0.22585 0.62867 0.2006 0.0
C2647 C 0.17859 0.56921 0.28442 0.0
C2648 C 0.17365 0.55259 0.26891 0.0
C2649 C 0.19322 0.58466 0.28114 0.0
C2650 C 0.20338 0.58372 0.26237 0.0
C2651 C 0.19837 0.56723 0.2468 0.0
C2652 C 0.18368 0.55181 0.25004 0.0
C2653 C 0.21875 0.60031 0.25871 0.0
C2654 C 0.21694 0.61099 0.24172 0.0
C2655 C 0.23453 0.60631 0.27227 0.0
C2656 C 0.23785 0.59496 0.28989 0.0
C2657 C 0.23923 0.57323 0.28691 0.0
C2658 C 0.24221 0.5626 0.3036 0.0
C2659 C 0.24398 0.57355 0.32334 0.0
C2660 C 0.24282 0.59516 0.32643 0.0
C2661 C 0.23982 0.60586 0.30979 0.0
H2662 H 0.24629 0.56529 0.33625 0.0
H2663 H 0.21732 0.66912 0.17478 0.0
H2664 H 0.9478 0.50464 0.02056 0.0
H2665 H 0.92393 0.52743 0.0104 0.0
H2666 H 0.89108 0.52023 0.06592 0.0
H2667 H 0.91491 0.49711 0.07571 0.0
H2668 H 0.86755 0.51593 0.03368 0.0
H2669 H 0.91883 0.56547 0.0605 0.0
H2670 H 0.95252 0.58122 0.06402 0.0
H2671 H 0.95314 0.59173 1.00089 0.0
H2672 H 0.91953 0.57574 0.9969 0.0
H2673 H 0.8059 0.59724 0.02686 0.0
H2674 H 0.83042 0.57625 0.03824 0.0
H2675 H 0.8624 0.58019 0.98171 0.0
H2676 H 0.83799 0.60134 0.97022 0.0
H2677 H 0.88631 0.58659 0.01508 0.0
H2678 H 0.83502 0.53625 0.98842 0.0
H2679 H 0.80125 0.52065 0.98531 0.0
H2680 H 0.80064 0.51203 0.04895 0.0
H2681 H 0.83434 0.52785 0.0525 0.0
C2682 C 0.93549 0.50812 0.03052 0.0
C2683 C 0.93304 0.49936 0.04887 0.0
C2684 C 0.92193 0.52114 0.02482 0.0
C2685 C 0.90579 0.52575 0.03751 0.0
C2686 C 0.90341 0.51694 0.0559 0.0
C2687 C 0.91697 0.50387 0.06155 0.0
C2688 C 0.89119 0.53935 0.03134 0.0
C2689 C 0.87163 0.5315 0.02992 0.0
C2690 C 0.89653 0.55951 0.02599 0.0
C2691 C 0.91672 0.56922 0.02835 0.0
C2692 C 0.9262 0.57099 0.04732 0.0
C2693 C 0.94527 0.57998 0.04941 0.0
C2694 C 0.95498 0.58743 0.03267 0.0
C2695 C 0.94561 0.58593 0.01383 0.0
C2696 C 0.92654 0.57692 0.01165 0.0
C2697 C 0.81815 0.59368 0.01682 0.0
C2698 C 0.81992 0.6009 0.99756 0.0
C2699 C 0.83213 0.58161 0.02334 0.0
C2700 C 0.84814 0.57646 0.01074 0.0
C2701 C 0.85015 0.58395 0.99167 0.0
C2702 C 0.83613 0.59598 0.9851 0.0
C2703 C 0.86273 0.56314 0.01741 0.0
C2704 C 0.88227 0.57104 0.0189 0.0
C2705 C 0.85737 0.54305 0.0229 0.0
C2706 C 0.83714 0.53343 0.02077 0.0
C2707 C 0.82764 0.53118 1.00179 0.0
C2708 C 0.80852 0.52227 0.99994 0.0
C2709 C 0.79879 0.51541 0.01694 0.0
C2710 C 0.80819 0.51738 0.0358 0.0
C2711 C 0.8273 0.5263 0.03774 0.0
H2712 H 0.78398 0.50852 0.01548 0.0
H2713 H 0.96975 0.59439 0.03432 0.0
H2714 H 0.04776 0.99055 0.03796 0.0
H2715 H 0.07703 0.97244 0.02798 0.0
H2716 H 0.11261 0.02929 0.04708 0.0
H2717 H 0.08321 0.04724 0.05724 0.0
H2718 H 0.10921 0.97608 0.0032 0.0
H2719 H 0.14977 0.01609 0.07539 0.0
H2720 H 0.14241 0.03429 0.10972 0.0
H2721 H 0.08675 0.99951 0.10958 0.0
H2722 H 0.09388 0.98095 0.07538 0.0
H2723 H 0.2056 0.94398 1.00072 0.0
H2724 H 0.17752 0.96485 0.00373 0.0
H2725 H 0.15541 0.93327 0.05414 0.0
H2726 H 0.18364 0.91251 0.05143 0.0
H2727 H 0.15201 0.97405 0.06258 0.0
H2728 H 0.13619 0.92111 0.00596 0.0
H2729 H 0.14142 0.90013 0.97248 0.0
H2730 H 0.14421 0.95552 0.94292 0.0
H2731 H 0.13926 0.97688 0.97629 0.0
C2732 C 0.06185 0.99924 0.03936 0.0
C2733 C 0.06339 0.02018 0.04832 0.0
C2734 C 0.07853 0.98894 0.0337 0.0
C2735 C 0.09702 0.99942 0.03709 0.0
C2736 C 0.09849 0.02085 0.04453 0.0
C2737 C 0.08176 0.03115 0.05013 0.0
C2738 C 0.11454 0.98738 0.03503 0.0
C2739 C 0.11869 0.97578 0.01611 0.0
C2740 C 0.1266 0.98653 0.05203 0.0
C2741 C 0.12229 0.99732 0.07274 0.0
C2742 C 0.136 0.0123 0.08273 0.0
C2743 C 0.13186 0.02268 0.10215 0.0
C2744 C 0.11409 0.01812 0.11179 0.0
C2745 C 0.10047 0.00309 0.10206 0.0
C2746 C 0.10455 0.99265 0.08265 0.0
C2747 C 0.19478 0.94145 0.01247 0.0
C2748 C 0.19686 0.92651 0.02581 0.0
C2749 C 0.17867 0.95336 0.01411 0.0
C2750 C 0.16422 0.9505 0.02902 0.0
C2751 C 0.16637 0.93576 0.04251 0.0
C2752 C 0.18249 0.92386 0.04091 0.0
C2753 C 0.14691 0.96292 0.03063 0.0
C2754 C 0.14273 0.97454 0.04954 0.0
C2755 C 0.13461 0.96342 0.01372 0.0
C2756 C 0.13756 0.95062 0.99365 0.0
C2757 C 0.13808 0.92884 0.99234 0.0
C2758 C 0.14096 0.91687 0.97338 0.0
C2759 C 0.1432 0.92649 0.95559 0.0
C2760 C 0.14251 0.9481 0.95672 0.0
C2761 C 0.13964 0.96014 0.97565 0.0
H2762 H 0.14543 0.9172 0.94093 0.0
H2763 H 0.11091 0.02619 0.12681 0.0
loop_
_geom_bond_atom_site_label_1
_geom_bond_atom_site_label_2
_geom_bond_distance
_geom_bond_site_symmetry_2
_ccdc_geom_bond_type
C0 N1 1.317 . S
C0 N2 1.348 . S
C0 C3 1.485 1_545 S
N1 C0 1.317 . S
N1 N5 1.370 . S
N2 C0 1.348 . S
N2 C4 1.346 . S
C3 C0 1.485 1_565 S
C3 H7 0.960 . S
C3 H8 0.961 . S
C3 H9 0.960 . S
C4 N2 1.346 . S
C4 N5 1.307 . S
C4 C6 1.486 1_455 S
N5 N1 1.370 . S
N5 C4 1.307 . S
C6 C4 1.486 1_655 S
C6 H10 0.960 . S
C6 H11 0.960 . S
C6 H12 0.959 . S
H7 C3 0.960 . S
H8 C3 0.961 . S
H9 C3 0.960 . S
H10 C6 0.960 . S
H11 C6 0.960 . S
H12 C6 0.959 . S
C13 N14 1.317 . S
C13 N15 1.348 . S
C13 C16 1.485 . S
N14 C13 1.317 . S
N14 N18 1.370 . S
N15 C13 1.348 . S
N15 C17 1.346 . S
C16 C13 1.485 . S
C16 H20 0.960 . S
C16 H21 0.961 . S
C16 H22 0.960 . S
C17 N15 1.346 . S
C17 N18 1.307 . S
C17 C19 1.486 . S
N18 N14 1.370 . S
N18 C17 1.307 . S
C19 C17 1.486 . S
C19 H23 0.960 . S
C19 H24 0.960 . S
C19 H25 0.959 . S
H20 C16 0.960 . S
H21 C16 0.961 . S
H22 C16 0.960 . S
H23 C19 0.960 . S
H24 C19 0.960 . S
H25 C19 0.959 . S
C26 N27 1.317 . S
C26 N28 1.348 . S
C26 C29 1.485 . S
N27 C26 1.317 . S
N27 N31 1.370 . S
N28 C26 1.348 . S
N28 C30 1.346 . S
C29 C26 1.485 . S
C29 H33 0.960 . S
C29 H34 0.961 . S
C29 H35 0.960 . S
C30 N28 1.346 . S
C30 N31 1.307 . S
C30 C32 1.486 . S
N31 N27 1.370 . S
N31 C30 1.307 . S
C32 C30 1.486 . S
C32 H36 0.960 . S
C32 H37 0.960 . S
C32 H38 0.959 . S
H33 C29 0.960 . S
H34 C29 0.961 . S
H35 C29 0.960 . S
H36 C32 0.960 . S
H37 C32 0.960 . S
H38 C32 0.959 . S
C39 N40 1.317 . S
C39 N41 1.348 . S
C39 C42 1.485 . S
N40 C39 1.317 . S
N40 N44 1.370 . S
N41 C39 1.348 . S
N41 C43 1.346 . S
C42 C39 1.485 . S
C42 H46 0.960 . S
C42 H47 0.961 . S
C42 H48 0.960 . S
C43 N41 1.346 . S
C43 N44 1.307 . S
C43 C45 1.486 . S
N44 N40 1.370 . S
N44 C43 1.307 . S
C45 C43 1.486 . S
C45 H49 0.960 . S
C45 H50 0.960 . S
C45 H51 0.959 . S
H46 C42 0.960 . S
H47 C42 0.961 . S
H48 C42 0.960 . S
H49 C45 0.960 . S
H50 C45 0.960 . S
H51 C45 0.959 . S
C52 N53 1.317 . S
C52 N54 1.348 . S
C52 C55 1.485 . S
N53 C52 1.317 . S
N53 N57 1.370 . S
N54 C52 1.348 . S
N54 C56 1.346 . S
C55 C52 1.485 . S
C55 H59 0.960 . S
C55 H60 0.907 1_455 S
C55 H61 0.960 . S
C56 N54 1.346 . S
C56 N57 1.307 . S
C56 C58 1.486 1_565 S
N57 N53 1.370 . S
N57 C56 1.307 . S
C58 C56 1.486 1_545 S
C58 H62 0.960 . S
C58 H63 0.960 . S
C58 H64 0.959 . S
H59 C55 0.960 . S
H60 C55 0.907 1_655 S
H61 C55 0.960 . S
H62 C58 0.960 . S
H63 C58 0.960 . S
H64 C58 0.959 . S
C65 N66 1.317 . S
C65 N67 1.348 . S
C65 C68 1.485 . S
N66 C65 1.317 . S
N66 N70 1.370 . S
N67 C65 1.348 . S
N67 C69 1.346 . S
C68 C65 1.485 . S
C68 H72 0.960 . S
C68 H73 0.961 . S
C68 H74 0.960 . S
C69 N67 1.346 . S
C69 N70 1.307 . S
C69 C71 1.486 . S
N70 N66 1.370 . S
N70 C69 1.307 . S
C71 C69 1.486 . S
C71 H75 0.960 . S
C71 H76 0.960 . S
C71 H77 0.959 . S
H72 C68 0.960 . S
H73 C68 0.961 . S
H74 C68 0.960 . S
H75 C71 0.960 . S
H76 C71 0.960 . S
H77 C71 0.959 . S
C78 N79 1.317 . S
C78 N80 1.348 . S
C78 C81 1.485 . S
N79 C78 1.317 . S
N79 N83 1.370 . S
N80 C78 1.348 . S
N80 C82 1.346 . S
C81 C78 1.485 . S
C81 H85 0.960 . S
C81 H86 0.961 . S
C81 H87 0.960 . S
C82 N80 1.346 . S
C82 N83 1.307 . S
C82 C84 1.486 . S
N83 N79 1.370 . S
N83 C82 1.307 . S
C84 C82 1.486 . S
C84 H88 0.960 . S
C84 H89 0.960 . S
C84 H90 0.959 . S
H85 C81 0.960 . S
H86 C81 0.961 . S
H87 C81 0.960 . S
H88 C84 0.960 . S
H89 C84 0.960 . S
H90 C84 0.959 . S
C91 N92 1.317 . S
C91 N93 1.348 . S
C91 C94 1.485 . S
N92 C91 1.317 . S
N92 N96 1.370 . S
N93 C91 1.348 . S
N93 C95 1.346 . S
C94 C91 1.485 . S
C94 H98 0.960 . S
C94 H99 0.961 . S
C94 H100 0.960 . S
C95 N93 1.346 . S
C95 N96 1.307 . S
C95 C97 1.486 . S
N96 N92 1.370 . S
N96 C95 1.307 . S
C97 C95 1.486 . S
C97 H101 0.960 . S
C97 H102 0.960 . S
C97 H103 0.959 . S
H98 C94 0.960 . S
H99 C94 0.961 . S
H100 C94 0.960 . S
H101 C97 0.960 . S
H102 C97 0.960 . S
H103 C97 0.959 . S
C104 N105 1.317 . S
C104 N106 1.348 . S
C104 C107 1.485 . S
N105 C104 1.317 . S
N105 N109 1.370 . S
N106 C104 1.348 . S
N106 C108 1.346 . S
C107 C104 1.485 . S
C107 H111 0.960 . S
C107 H112 0.961 . S
C107 H113 0.960 . S
C108 N106 1.346 . S
C108 N109 1.307 . S
C108 C110 1.486 . S
N109 N105 1.370 . S
N109 C108 1.307 . S
C110 C108 1.486 . S
C110 H114 0.960 . S
C110 H115 0.960 . S
C110 H116 0.959 . S
H111 C107 0.960 . S
H112 C107 0.961 . S
H113 C107 0.960 . S
H114 C110 0.960 . S
H115 C110 0.960 . S
H116 C110 0.959 . S
C117 N118 1.317 . S
C117 N119 1.348 . S
C117 C120 1.525 . S
N118 C117 1.317 . S
N118 N122 1.370 . S
N119 C117 1.348 . S
N119 C121 1.346 . S
C120 C117 1.525 . S
C120 H124 0.971 . S
C120 H125 0.909 1_565 S
C120 H126 0.965 . S
C121 N119 1.346 . S
C121 N122 1.307 . S
C121 C123 1.486 . S
N122 N118 1.370 . S
N122 C121 1.307 . S
C123 C121 1.486 . S
C123 H127 0.960 . S
C123 H128 0.960 . S
C123 H129 0.959 . S
H124 C120 0.971 . S
H125 C120 0.909 1_545 S
H126 C120 0.965 . S
H127 C123 0.960 . S
H128 C123 0.960 . S
H129 C123 0.959 . S
C130 N131 1.317 . S
C130 N132 1.348 . S
C130 C133 1.485 . S
N131 C130 1.317 . S
N131 N135 1.370 . S
N132 C130 1.348 . S
N132 C134 1.346 . S
C133 C130 1.485 . S
C133 H137 0.960 . S
C133 H138 0.961 . S
C133 H139 0.960 . S
C134 N132 1.346 . S
C134 N135 1.307 . S
C134 C136 1.486 . S
N135 N131 1.370 . S
N135 C134 1.307 . S
C136 C134 1.486 . S
C136 H140 0.960 . S
C136 H141 0.960 . S
C136 H142 0.959 . S
H137 C133 0.960 . S
H138 C133 0.961 . S
H139 C133 0.960 . S
H140 C136 0.960 . S
H141 C136 0.960 . S
H142 C136 0.959 . S
C143 N144 1.317 . S
C143 N145 1.348 . S
C143 C146 1.485 . S
N144 C143 1.317 . S
N144 N148 1.370 . S
N145 C143 1.348 . S
N145 C147 1.346 . S
C146 C143 1.485 . S
C146 H150 0.960 . S
C146 H151 0.961 . S
C146 H152 0.960 . S
C147 N145 1.346 . S
C147 N148 1.307 . S
C147 C149 1.486 . S
N148 N144 1.370 . S
N148 C147 1.307 . S
C149 C147 1.486 . S
C149 H153 0.960 . S
C149 H154 0.960 . S
C149 H155 0.959 . S
H150 C146 0.960 . S
H151 C146 0.961 . S
H152 C146 0.960 . S
H153 C149 0.960 . S
H154 C149 0.960 . S
H155 C149 0.959 . S
C156 N157 1.317 . S
C156 N158 1.348 . S
C156 C159 1.485 . S
N157 C156 1.317 . S
N157 N161 1.370 . S
N158 C156 1.348 . S
N158 C160 1.346 . S
C159 C156 1.485 . S
C159 H163 0.960 . S
C159 H164 0.961 . S
C159 H165 0.960 . S
C160 N158 1.346 . S
C160 N161 1.307 . S
C160 C162 1.486 . S
N161 N157 1.370 . S
N161 C160 1.307 . S
C162 C160 1.486 . S
C162 H166 0.960 . S
C162 H167 0.960 . S
C162 H168 0.959 . S
H163 C159 0.960 . S
H164 C159 0.961 . S
H165 C159 0.960 . S
H166 C162 0.960 . S
H167 C162 0.960 . S
H168 C162 0.959 . S
C169 N170 1.317 . S
C169 N171 1.348 . S
C169 C172 1.485 . S
N170 C169 1.317 . S
N170 N174 1.370 . S
N171 C169 1.348 . S
N171 C173 1.346 . S
C172 C169 1.485 . S
C172 H176 0.960 . S
C172 H177 0.961 . S
C172 H178 0.960 . S
C173 N171 1.346 . S
C173 N174 1.307 . S
C173 C175 1.486 . S
N174 N170 1.370 . S
N174 C173 1.307 . S
C175 C173 1.486 . S
C175 H179 0.960 . S
C175 H180 0.960 . S
C175 H181 0.959 . S
H176 C172 0.960 . S
H177 C172 0.961 . S
H178 C172 0.960 . S
H179 C175 0.960 . S
H180 C175 0.960 . S
H181 C175 0.959 . S
C182 N183 1.317 . S
C182 N184 1.348 . S
C182 C185 1.485 . S
N183 C182 1.317 . S
N183 N187 1.370 . S
N184 C182 1.348 . S
N184 C186 1.346 . S
C185 C182 1.485 . S
C185 H189 0.960 . S
C185 H190 0.961 . S
C185 H191 0.960 . S
C186 N184 1.346 . S
C186 N187 1.307 . S
C186 C188 1.486 . S
N187 N183 1.370 . S
N187 C186 1.307 . S
C188 C186 1.486 . S
C188 H192 0.960 . S
C188 H193 0.960 . S
C188 H194 0.959 . S
H189 C185 0.960 . S
H190 C185 0.961 . S
H191 C185 0.960 . S
H192 C188 0.960 . S
H193 C188 0.960 . S
H194 C188 0.959 . S
C195 N196 1.317 . S
C195 N197 1.348 . S
C195 C198 1.485 . S
N196 C195 1.317 . S
N196 N200 1.370 . S
N197 C195 1.348 . S
N197 C199 1.346 . S
C198 C195 1.485 . S
C198 H202 0.960 . S
C198 H203 0.961 1_545 S
C198 H204 0.960 . S
C199 N197 1.346 . S
C199 N200 1.307 . S
C199 C201 1.486 1_556 S
N200 N196 1.370 . S
N200 C199 1.307 . S
C201 C199 1.486 1_554 S
C201 H205 0.960 . S
C201 H206 0.967 . S
C201 H207 0.959 . S
H202 C198 0.960 . S
H203 C198 0.961 1_565 S
H204 C198 0.960 . S
H205 C201 0.960 . S
H206 C201 0.967 . S
H207 C201 0.959 . S
C208 O209 1.160 . S
C208 O215 1.185 . S
O209 C208 1.160 . S
O210 Zn211 1.899 1_556 S
O210 C218 1.284 . S
Zn211 O210 1.899 1_554 S
Zn211 O212 2.032 . S
Zn211 O215 2.086 . S
Zn211 O220 1.977 . S
O212 Zn211 2.032 . S
O212 C216 1.278 . S
C213 O214 1.203 . S
C213 O220 1.267 . S
O214 C213 1.203 . S
O215 C208 1.185 . S
O215 Zn211 2.086 . S
C216 O212 1.278 . S
C216 O217 1.211 . S
O217 C216 1.211 . S
C218 O210 1.284 . S
C218 O219 1.273 . S
O219 C218 1.273 . S
O220 Zn211 1.977 . S
O220 C213 1.267 . S
C221 O222 1.160 . S
C221 O228 1.185 . S
O222 C221 1.160 . S
O223 Zn224 1.899 . S
O223 C231 1.284 . S
Zn224 O223 1.899 . S
Zn224 O225 2.032 . S
Zn224 O228 2.086 . S
Zn224 O233 1.977 . S
O225 Zn224 2.032 . S
O225 C229 1.278 . S
C226 O227 1.203 . S
C226 O233 1.267 . S
O227 C226 1.203 . S
O228 C221 1.185 . S
O228 Zn224 2.086 . S
C229 O225 1.278 . S
C229 O230 1.211 . S
O230 C229 1.211 . S
C231 O223 1.284 . S
C231 O232 1.273 . S
O232 C231 1.273 . S
O233 Zn224 1.977 . S
O233 C226 1.267 . S
C234 O235 1.160 1_554 S
C234 O241 1.185 . S
O235 C234 1.160 1_556 S
O236 Zn237 1.899 1_556 S
O236 C244 1.284 . S
Zn237 O236 1.899 1_554 S
Zn237 O238 2.032 1_554 S
Zn237 O241 2.086 . S
Zn237 O246 1.977 . S
O238 Zn237 2.032 1_556 S
O238 C242 1.278 . S
C239 O240 1.203 . S
C239 O246 1.267 . S
O240 C239 1.203 . S
O241 C234 1.185 . S
O241 Zn237 2.086 . S
C242 O238 1.278 . S
C242 O243 1.211 1_556 S
O243 C242 1.211 1_554 S
C244 O236 1.284 . S
C244 O245 1.273 . S
O245 C244 1.273 . S
O246 Zn237 1.977 . S
O246 C239 1.267 . S
C247 O248 1.160 . S
C247 O254 1.185 . S
O248 C247 1.160 . S
O249 Zn250 1.899 . S
O249 C257 1.284 . S
Zn250 O249 1.899 . S
Zn250 O251 2.032 1_545 S
Zn250 O254 2.086 . S
Zn250 O259 1.977 . S
O251 Zn250 2.032 1_565 S
O251 C255 1.278 . S
C252 O253 1.203 1_545 S
C252 O259 1.267 . S
O253 C252 1.203 1_565 S
O254 C247 1.185 . S
O254 Zn250 2.086 . S
C255 O251 1.278 . S
C255 O256 1.211 . S
O256 C255 1.211 . S
C257 O249 1.284 . S
C257 O258 1.273 1_545 S
O258 C257 1.273 1_565 S
O259 Zn250 1.977 . S
O259 C252 1.267 . S
C260 O261 1.160 . S
C260 O267 1.185 . S
O261 C260 1.160 . S
O262 Zn263 1.899 . S
O262 C270 1.284 . S
Zn263 O262 1.899 . S
Zn263 O264 2.032 . S
Zn263 O267 2.086 . S
Zn263 O272 1.977 . S
O264 Zn263 2.032 . S
O264 C268 1.278 . S
C265 O266 1.203 . S
C265 O272 1.267 . S
O266 C265 1.203 . S
O267 C260 1.185 . S
O267 Zn263 2.086 . S
C268 O264 1.278 . S
C268 O269 1.211 . S
O269 C268 1.211 . S
C270 O262 1.284 . S
C270 O271 1.273 . S
O271 C270 1.273 . S
O272 Zn263 1.977 . S
O272 C265 1.267 . S
C273 O274 1.160 . S
C273 O280 1.185 . S
O274 C273 1.160 . S
O275 Zn276 1.899 . S
O275 C283 1.284 . S
Zn276 O275 1.899 . S
Zn276 O277 2.032 . S
Zn276 O280 2.086 . S
Zn276 O285 1.977 . S
O277 Zn276 2.032 . S
O277 C281 1.278 . S
C278 O279 1.203 . S
C278 O285 1.267 . S
O279 C278 1.203 . S
O280 C273 1.185 . S
O280 Zn276 2.086 . S
C281 O277 1.278 . S
C281 O282 1.211 . S
O282 C281 1.211 . S
C283 O275 1.284 . S
C283 O284 1.273 . S
O284 C283 1.273 . S
O285 Zn276 1.977 . S
O285 C278 1.267 . S
C286 O287 1.160 . S
C286 O293 1.185 . S
O287 C286 1.160 . S
O288 Zn289 1.899 . S
O288 C296 1.284 . S
Zn289 O288 1.899 . S
Zn289 O290 2.032 . S
Zn289 O293 2.086 . S
Zn289 O298 1.977 . S
O290 Zn289 2.032 . S
O290 C294 1.278 . S
C291 O292 1.203 . S
C291 O298 1.267 . S
O292 C291 1.203 . S
O293 C286 1.185 . S
O293 Zn289 2.086 . S
C294 O290 1.278 . S
C294 O295 1.211 . S
O295 C294 1.211 . S
C296 O288 1.284 . S
C296 O297 1.273 . S
O297 C296 1.273 . S
O298 Zn289 1.977 . S
O298 C291 1.267 . S
C299 O300 1.160 . S
C299 O306 1.185 . S
O300 C299 1.160 . S
O301 Zn302 1.905 . S
O301 C309 1.284 1_565 S
Zn302 O301 1.905 . S
Zn302 O303 2.000 1_565 S
Zn302 O306 2.126 . S
Zn302 O311 1.982 . S
O303 Zn302 2.000 1_545 S
O303 C307 1.278 . S
C304 O305 1.180 1_565 S
C304 O311 1.286 . S
O305 C304 1.180 1_545 S
O306 C299 1.185 . S
O306 Zn302 2.126 . S
C307 O303 1.278 . S
C307 O308 1.211 . S
O308 C307 1.211 . S
C309 O301 1.284 1_545 S
C309 O310 1.273 . S
O310 C309 1.273 . S
O311 Zn302 1.982 . S
O311 C304 1.286 . S
C312 O313 1.160 1_455 S
C312 O319 1.185 . S
O313 C312 1.160 1_655 S
O314 Zn315 1.899 1_655 S
O314 C322 1.284 . S
Zn315 O314 1.899 1_455 S
Zn315 O316 2.032 1_455 S
Zn315 O319 2.086 . S
Zn315 O324 1.977 . S
O316 Zn315 2.032 1_655 S
O316 C320 1.278 1_655 S
C317 O318 1.203 . S
C317 O324 1.267 . S
O318 C317 1.203 . S
O319 C312 1.185 . S
O319 Zn315 2.086 . S
C320 O316 1.278 1_455 S
C320 O321 1.211 . S
O321 C320 1.211 . S
C322 O314 1.284 . S
C322 O323 1.273 . S
O323 C322 1.273 . S
O324 Zn315 1.977 . S
O324 C317 1.267 . S
C325 O326 1.160 . S
C325 O332 1.185 . S
O326 C325 1.160 . S
O327 Zn328 1.899 . S
O327 C335 1.284 . S
Zn328 O327 1.899 . S
Zn328 O329 2.032 . S
Zn328 O332 2.086 . S
Zn328 O337 1.977 . S
O329 Zn328 2.032 . S
O329 C333 1.278 . S
C330 O331 1.203 . S
C330 O337 1.267 . S
O331 C330 1.203 . S
O332 C325 1.185 . S
O332 Zn328 2.086 . S
C333 O329 1.278 . S
C333 O334 1.211 . S
O334 C333 1.211 . S
C335 O327 1.284 . S
C335 O336 1.273 . S
O336 C335 1.273 . S
O337 Zn328 1.977 . S
O337 C330 1.267 . S
C338 O339 1.160 . S
C338 O345 1.185 . S
O339 C338 1.160 . S
O340 Zn341 1.899 . S
O340 C348 1.284 1_455 S
Zn341 O340 1.899 . S
Zn341 O342 2.032 . S
Zn341 O345 2.086 . S
Zn341 O350 1.977 . S
O342 Zn341 2.032 . S
O342 C346 1.278 . S
C343 O344 1.203 . S
C343 O350 1.267 . S
O344 C343 1.203 . S
O345 C338 1.185 . S
O345 Zn341 2.086 . S
C346 O342 1.278 . S
C346 O347 1.211 . S
O347 C346 1.211 . S
C348 O340 1.284 1_655 S
C348 O349 1.273 . S
O349 C348 1.273 . S
O350 Zn341 1.977 . S
O350 C343 1.267 . S
C351 O352 1.160 . S
C351 O358 1.185 . S
O352 C351 1.160 . S
O353 Zn354 1.899 . S
O353 C361 1.284 . S
Zn354 O353 1.899 . S
Zn354 O355 2.032 . S
Zn354 O358 2.086 . S
Zn354 O363 1.977 . S
O355 Zn354 2.032 . S
O355 C359 1.278 . S
C356 O357 1.203 . S
C356 O363 1.267 . S
O357 C356 1.203 . S
O358 C351 1.185 . S
O358 Zn354 2.086 . S
C359 O355 1.278 . S
C359 O360 1.211 . S
O360 C359 1.211 . S
C361 O353 1.284 . S
C361 O362 1.273 . S
O362 C361 1.273 . S
O363 Zn354 1.977 . S
O363 C356 1.267 . S
H364 C382 0.951 . S
H365 C384 0.951 . S
H366 C386 0.950 . S
H367 C387 0.950 . S
H368 C389 0.950 . S
H369 C392 0.950 . S
H370 C393 0.950 . S
H371 C395 0.950 . S
H372 C396 0.950 . S
H373 C397 0.951 . S
H374 C399 0.951 . S
H375 C401 0.950 . S
H376 C402 0.950 . S
H377 C404 0.950 . S
H378 C407 0.950 . S
H379 C408 0.950 . S
H380 C410 0.950 . S
H381 C411 0.950 . S
C382 H364 0.951 . S
C382 C383 1.366 . S
C382 C384 1.388 . S
C383 C382 1.366 . S
C383 C387 1.385 . S
C384 H365 0.951 . S
C384 C382 1.388 . S
C384 C385 1.366 . S
C385 C384 1.366 . S
C385 C386 1.414 . S
C385 C388 1.499 . S
C386 H366 0.950 . S
C386 C385 1.414 . S
C386 C387 1.374 . S
C387 H367 0.950 . S
C387 C383 1.385 . S
C387 C386 1.374 . S
C388 C385 1.499 . S
C388 C389 1.373 . S
C388 C390 1.389 . S
C389 H368 0.950 . S
C389 C388 1.373 . S
C389 C405 1.377 . S
C390 C388 1.389 . S
C390 C391 1.524 . S
C390 C404 1.377 . S
C391 C390 1.524 . S
C391 C392 1.397 . S
C391 C396 1.363 . S
C392 H369 0.950 . S
C392 C391 1.397 . S
C392 C393 1.334 . S
C393 H370 0.950 . S
C393 C392 1.334 . S
C393 C394 1.287 . S
C394 C393 1.287 . S
C394 C395 1.524 . S
C394 H413 0.913 . S
C395 H371 0.950 . S
C395 C394 1.524 . S
C395 C396 1.415 . S
C396 H372 0.950 . S
C396 C391 1.363 . S
C396 C395 1.415 . S
C397 H373 0.951 . S
C397 C398 1.366 . S
C397 C399 1.388 . S
C398 C397 1.366 . S
C398 C402 1.385 . S
C399 H374 0.951 . S
C399 C397 1.388 . S
C399 C400 1.366 . S
C400 C399 1.366 . S
C400 C401 1.414 . S
C400 C403 1.499 . S
C401 H375 0.950 . S
C401 C400 1.414 . S
C401 C402 1.374 . S
C402 H376 0.950 . S
C402 C398 1.385 . S
C402 C401 1.374 . S
C403 C400 1.499 . S
C403 C404 1.373 . S
C403 C405 1.389 . S
C404 H377 0.950 . S
C404 C390 1.377 . S
C404 C403 1.373 . S
C405 C389 1.377 . S
C405 C403 1.389 . S
C405 C406 1.524 . S
C406 C405 1.524 . S
C406 C407 1.397 . S
C406 C411 1.363 . S
C407 H378 0.950 . S
C407 C406 1.397 . S
C407 C408 1.334 . S
C408 H379 0.950 . S
C408 C407 1.334 . S
C408 C409 1.287 . S
C409 C408 1.287 . S
C409 C410 1.524 . S
C409 H412 0.999 . S
C410 H380 0.950 . S
C410 C409 1.524 . S
C410 C411 1.415 . S
C411 H381 0.950 . S
C411 C406 1.363 . S
C411 C410 1.415 . S
H412 C409 0.999 . S
H413 C394 0.913 . S
H414 C432 0.952 . S
H415 C434 0.951 . S
H416 C436 0.950 . S
H417 C437 0.950 . S
H418 C439 0.950 . S
H419 C442 0.950 . S
H420 C443 0.950 . S
H421 C445 0.950 . S
H422 C446 0.950 . S
H423 C447 0.951 . S
H424 C449 0.951 . S
H425 C451 0.950 . S
H426 C452 0.950 . S
H427 C454 0.950 . S
H428 C457 0.950 . S
H429 C458 0.950 . S
H430 C460 0.950 1_655 S
H431 C461 0.950 . S
C432 H414 0.952 . S
C432 C433 1.366 . S
C432 C434 1.388 1_655 S
C433 C432 1.366 . S
C433 C437 1.385 . S
C434 H415 0.951 . S
C434 C432 1.388 1_455 S
C434 C435 1.366 . S
C435 C434 1.366 . S
C435 C436 1.414 1_455 S
C435 C438 1.499 . S
C436 H416 0.950 . S
C436 C435 1.414 1_655 S
C436 C437 1.374 . S
C437 H417 0.950 . S
C437 C433 1.385 . S
C437 C436 1.374 . S
C438 C435 1.499 . S
C438 C439 1.373 . S
C438 C440 1.389 . S
C439 H418 0.950 . S
C439 C438 1.373 . S
C439 C455 1.377 . S
C440 C438 1.389 . S
C440 C441 1.524 . S
C440 C454 1.377 . S
C441 C440 1.524 . S
C441 C442 1.397 . S
C441 C446 1.363 . S
C442 H419 0.950 . S
C442 C441 1.397 . S
C442 C443 1.334 . S
C443 H420 0.950 . S
C443 C442 1.334 . S
C443 C444 1.287 . S
C444 C443 1.287 . S
C444 C445 1.524 . S
C444 H463 0.913 . S
C445 H421 0.950 . S
C445 C444 1.524 . S
C445 C446 1.415 . S
C446 H422 0.950 . S
C446 C441 1.363 . S
C446 C445 1.415 . S
C447 H423 0.951 . S
C447 C448 1.366 . S
C447 C449 1.388 . S
C448 C447 1.366 . S
C448 C452 1.385 . S
C449 H424 0.951 . S
C449 C447 1.388 . S
C449 C450 1.366 . S
C450 C449 1.366 . S
C450 C451 1.414 . S
C450 C453 1.499 . S
C451 H425 0.950 . S
C451 C450 1.414 . S
C451 C452 1.374 . S
C452 H426 0.950 . S
C452 C448 1.385 . S
C452 C451 1.374 . S
C453 C450 1.499 . S
C453 C454 1.373 . S
C453 C455 1.389 . S
C454 H427 0.950 . S
C454 C440 1.377 . S
C454 C453 1.373 . S
C455 C439 1.377 . S
C455 C453 1.389 . S
C455 C456 1.524 . S
C456 C455 1.524 . S
C456 C457 1.397 . S
C456 C461 1.363 . S
C457 H428 0.950 . S
C457 C456 1.397 . S
C457 C458 1.334 . S
C458 H429 0.950 . S
C458 C457 1.334 . S
C458 C459 1.287 . S
C459 C458 1.287 . S
C459 C460 1.524 . S
C459 H462 0.999 . S
C460 H430 0.950 1_455 S
C460 C459 1.524 . S
C460 C461 1.415 . S
C461 H431 0.950 . S
C461 C456 1.363 . S
C461 C460 1.415 . S
H462 C459 0.999 . S
H463 C444 0.913 . S
H464 C482 0.951 . S
H465 C484 0.951 . S
H466 C486 0.950 . S
H467 C487 0.950 . S
H468 C489 0.950 . S
H469 C492 0.950 . S
H470 C493 0.950 . S
H471 C495 0.950 . S
H472 C496 0.950 . S
H473 C497 0.951 . S
H474 C499 0.951 . S
H475 C501 0.950 . S
H476 C502 0.950 . S
H477 C504 0.950 . S
H478 C507 0.950 . S
H479 C508 0.950 . S
H480 C510 0.950 . S
H481 C511 0.950 . S
C482 H464 0.951 . S
C482 C483 1.366 . S
C482 C484 1.388 . S
C483 C482 1.366 . S
C483 C487 1.385 . S
C484 H465 0.951 . S
C484 C482 1.388 . S
C484 C485 1.366 . S
C485 C484 1.366 . S
C485 C486 1.414 . S
C485 C488 1.499 . S
C486 H466 0.950 . S
C486 C485 1.414 . S
C486 C487 1.374 . S
C487 H467 0.950 . S
C487 C483 1.385 . S
C487 C486 1.374 . S
C488 C485 1.499 . S
C488 C489 1.373 . S
C488 C490 1.389 . S
C489 H468 0.950 . S
C489 C488 1.373 . S
C489 C505 1.377 . S
C490 C488 1.389 . S
C490 C491 1.524 . S
C490 C504 1.377 . S
C491 C490 1.524 . S
C491 C492 1.397 . S
C491 C496 1.363 . S
C492 H469 0.950 . S
C492 C491 1.397 . S
C492 C493 1.334 . S
C493 H470 0.950 . S
C493 C492 1.334 . S
C493 C494 1.287 . S
C494 C493 1.287 . S
C494 C495 1.524 . S
C494 H513 0.913 . S
C495 H471 0.950 . S
C495 C494 1.524 . S
C495 C496 1.415 . S
C496 H472 0.950 . S
C496 C491 1.363 . S
C496 C495 1.415 . S
C497 H473 0.951 . S
C497 C498 1.366 . S
C497 C499 1.388 . S
C498 C497 1.366 . S
C498 C502 1.385 . S
C499 H474 0.951 . S
C499 C497 1.388 . S
C499 C500 1.366 . S
C500 C499 1.366 . S
C500 C501 1.414 . S
C500 C503 1.499 . S
C501 H475 0.950 . S
C501 C500 1.414 . S
C501 C502 1.374 . S
C502 H476 0.950 . S
C502 C498 1.385 . S
C502 C501 1.374 . S
C503 C500 1.499 . S
C503 C504 1.373 . S
C503 C505 1.389 . S
C504 H477 0.950 . S
C504 C490 1.377 . S
C504 C503 1.373 . S
C505 C489 1.377 . S
C505 C503 1.389 . S
C505 C506 1.524 . S
C506 C505 1.524 . S
C506 C507 1.397 . S
C506 C511 1.363 . S
C507 H478 0.950 . S
C507 C506 1.397 . S
C507 C508 1.334 . S
C508 H479 0.950 . S
C508 C507 1.334 . S
C508 C509 1.287 . S
C509 C508 1.287 . S
C509 C510 1.524 . S
C509 H512 0.999 . S
C510 H480 0.950 . S
C510 C509 1.524 . S
C510 C511 1.415 . S
C511 H481 0.950 . S
C511 C506 1.363 . S
C511 C510 1.415 . S
H512 C509 0.999 . S
H513 C494 0.913 . S
H514 C532 0.951 . S
H515 C534 0.951 1_545 S
H516 C536 0.950 . S
H517 C537 0.950 . S
H518 C539 0.961 . S
H519 C542 0.950 . S
H520 C543 0.950 . S
H521 C545 0.950 . S
H522 C546 0.950 . S
H523 C547 0.951 . S
H524 C549 0.951 . S
H525 C551 0.950 . S
H526 C552 0.950 . S
H527 C554 0.950 . S
H528 C557 0.950 . S
H529 C558 0.950 . S
H530 C560 0.954 . S
H531 C561 0.950 1_565 S
C532 H514 0.951 . S
C532 C533 1.366 1_655 S
C532 C534 1.388 . S
C533 C532 1.366 1_455 S
C533 C537 1.385 . S
C534 H515 0.951 1_565 S
C534 C532 1.388 . S
C534 C535 1.366 . S
C535 C534 1.366 . S
C535 C536 1.414 1_655 S
C535 C538 1.499 . S
C536 H516 0.950 . S
C536 C535 1.414 1_455 S
C536 C537 1.374 . S
C537 H517 0.950 . S
C537 C533 1.385 . S
C537 C536 1.374 . S
C538 C535 1.499 . S
C538 C539 1.350 1_565 S
C538 C540 1.389 . S
C539 H518 0.961 . S
C539 C538 1.350 1_545 S
C539 C555 1.392 . S
C540 C538 1.389 . S
C540 C541 1.524 . S
C540 C554 1.377 . S
C541 C540 1.524 . S
C541 C542 1.397 . S
C541 C546 1.363 . S
C542 H519 0.950 . S
C542 C541 1.397 . S
C542 C543 1.334 . S
C543 H520 0.950 . S
C543 C542 1.334 . S
C543 C544 1.287 . S
C544 C543 1.287 . S
C544 C545 1.524 . S
C544 H563 0.913 . S
C545 H521 0.950 . S
C545 C544 1.524 . S
C545 C546 1.415 . S
C546 H522 0.950 . S
C546 C541 1.363 . S
C546 C545 1.415 . S
C547 H523 0.951 . S
C547 C548 1.366 1_565 S
C547 C549 1.388 . S
C548 C547 1.366 1_545 S
C548 C552 1.385 . S
C549 H524 0.951 . S
C549 C547 1.388 . S
C549 C550 1.366 1_565 S
C550 C549 1.366 1_545 S
C550 C551 1.414 . S
C550 C553 1.489 1_545 S
C551 H525 0.950 . S
C551 C550 1.414 . S
C551 C552 1.374 . S
C552 H526 0.950 . S
C552 C548 1.385 . S
C552 C551 1.374 . S
C553 C550 1.489 1_565 S
C553 C554 1.395 . S
C553 C555 1.382 1_565 S
C554 H527 0.950 . S
C554 C540 1.377 . S
C554 C553 1.395 . S
C555 C539 1.392 . S
C555 C553 1.382 1_545 S
C555 C556 1.524 . S
C556 C555 1.524 . S
C556 C557 1.397 . S
C556 C561 1.363 . S
C557 H528 0.950 . S
C557 C556 1.397 . S
C557 C558 1.334 . S
C558 H529 0.950 . S
C558 C557 1.334 . S
C558 C559 1.287 . S
C559 C558 1.287 . S
C559 C560 1.524 . S
C559 H562 0.999 . S
C560 H530 0.954 . S
C560 C559 1.524 . S
C560 C561 1.415 . S
C561 H531 0.950 1_545 S
C561 C556 1.363 . S
C561 C560 1.415 . S
H562 C559 0.999 . S
H563 C544 0.913 . S
H564 C582 0.951 . S
H565 C584 0.951 . S
H566 C586 0.950 . S
H567 C587 0.950 . S
H568 C589 0.950 . S
H569 C592 0.950 . S
H570 C593 0.950 . S
H571 C595 0.950 . S
H572 C596 0.950 . S
H573 C597 0.951 . S
H574 C599 0.951 . S
H575 C601 0.950 . S
H576 C602 0.950 . S
H577 C604 0.950 . S
H578 C607 0.950 . S
H579 C608 0.950 . S
H580 C610 0.950 . S
H581 C611 0.950 . S
C582 H564 0.951 . S
C582 C583 1.366 . S
C582 C584 1.388 . S
C583 C582 1.366 . S
C583 C587 1.385 . S
C584 H565 0.951 . S
C584 C582 1.388 . S
C584 C585 1.366 . S
C585 C584 1.366 . S
C585 C586 1.414 . S
C585 C588 1.499 . S
C586 H566 0.950 . S
C586 C585 1.414 . S
C586 C587 1.374 . S
C587 H567 0.950 . S
C587 C583 1.385 . S
C587 C586 1.374 . S
C588 C585 1.499 . S
C588 C589 1.373 . S
C588 C590 1.389 . S
C589 H568 0.950 . S
C589 C588 1.373 . S
C589 C605 1.377 . S
C590 C588 1.389 . S
C590 C591 1.524 . S
C590 C604 1.377 . S
C591 C590 1.524 . S
C591 C592 1.397 . S
C591 C596 1.363 . S
C592 H569 0.950 . S
C592 C591 1.397 . S
C592 C593 1.334 . S
C593 H570 0.950 . S
C593 C592 1.334 . S
C593 C594 1.287 . S
C594 C593 1.287 . S
C594 C595 1.524 . S
C594 H613 0.913 . S
C595 H571 0.950 . S
C595 C594 1.524 . S
C595 C596 1.415 . S
C596 H572 0.950 . S
C596 C591 1.363 . S
C596 C595 1.415 . S
C597 H573 0.951 . S
C597 C598 1.366 . S
C597 C599 1.388 . S
C598 C597 1.366 . S
C598 C602 1.385 . S
C599 H574 0.951 . S
C599 C597 1.388 . S
C599 C600 1.366 . S
C600 C599 1.366 . S
C600 C601 1.414 . S
C600 C603 1.499 . S
C601 H575 0.950 . S
C601 C600 1.414 . S
C601 C602 1.374 . S
C602 H576 0.950 . S
C602 C598 1.385 . S
C602 C601 1.374 . S
C603 C600 1.499 . S
C603 C604 1.373 . S
C603 C605 1.389 . S
C604 H577 0.950 . S
C604 C590 1.377 . S
C604 C603 1.373 . S
C605 C589 1.377 . S
C605 C603 1.389 . S
C605 C606 1.524 . S
C606 C605 1.524 . S
C606 C607 1.397 . S
C606 C611 1.363 . S
C607 H578 0.950 . S
C607 C606 1.397 . S
C607 C608 1.334 . S
C608 H579 0.950 . S
C608 C607 1.334 . S
C608 C609 1.287 . S
C609 C608 1.287 . S
C609 C610 1.524 . S
C609 H612 0.999 . S
C610 H580 0.950 . S
C610 C609 1.524 . S
C610 C611 1.415 . S
C611 H581 0.950 . S
C611 C606 1.363 . S
C611 C610 1.415 . S
H612 C609 0.999 . S
H613 C594 0.913 . S
H614 C632 0.951 . S
H615 C634 0.951 . S
H616 C636 0.950 . S
H617 C637 0.950 . S
H618 C639 0.950 . S
H619 C642 0.950 . S
H620 C643 0.950 . S
H621 C645 0.950 . S
H622 C646 0.950 . S
H623 C647 0.951 . S
H624 C649 0.951 . S
H625 C651 0.950 . S
H626 C652 0.950 . S
H627 C654 0.950 . S
H628 C657 0.950 . S
H629 C658 0.950 . S
H630 C660 0.950 . S
H631 C661 0.950 . S
C632 H614 0.951 . S
C632 C633 1.366 . S
C632 C634 1.388 . S
C633 C632 1.366 . S
C633 C637 1.385 . S
C634 H615 0.951 . S
C634 C632 1.388 . S
C634 C635 1.366 . S
C635 C634 1.366 . S
C635 C636 1.414 . S
C635 C638 1.499 . S
C636 H616 0.950 . S
C636 C635 1.414 . S
C636 C637 1.374 . S
C637 H617 0.950 . S
C637 C633 1.385 . S
C637 C636 1.374 . S
C638 C635 1.499 . S
C638 C639 1.373 . S
C638 C640 1.389 . S
C639 H618 0.950 . S
C639 C638 1.373 . S
C639 C655 1.377 . S
C640 C638 1.389 . S
C640 C641 1.524 . S
C640 C654 1.377 . S
C641 C640 1.524 . S
C641 C642 1.397 . S
C641 C646 1.363 . S
C642 H619 0.950 . S
C642 C641 1.397 . S
C642 C643 1.334 . S
C643 H620 0.950 . S
C643 C642 1.334 . S
C643 C644 1.287 . S
C644 C643 1.287 . S
C644 C645 1.524 . S
C644 H663 0.913 . S
C645 H621 0.950 . S
C645 C644 1.524 . S
C645 C646 1.415 . S
C646 H622 0.950 . S
C646 C641 1.363 . S
C646 C645 1.415 . S
C647 H623 0.951 . S
C647 C648 1.366 . S
C647 C649 1.388 . S
C648 C647 1.366 . S
C648 C652 1.385 . S
C649 H624 0.951 . S
C649 C647 1.388 . S
C649 C650 1.366 . S
C650 C649 1.366 . S
C650 C651 1.414 . S
C650 C653 1.499 . S
C651 H625 0.950 . S
C651 C650 1.414 . S
C651 C652 1.374 . S
C652 H626 0.950 . S
C652 C648 1.385 . S
C652 C651 1.374 . S
C653 C650 1.499 . S
C653 C654 1.373 . S
C653 C655 1.389 . S
C654 H627 0.950 . S
C654 C640 1.377 . S
C654 C653 1.373 . S
C655 C639 1.377 . S
C655 C653 1.389 . S
C655 C656 1.524 . S
C656 C655 1.524 . S
C656 C657 1.397 . S
C656 C661 1.363 . S
C657 H628 0.950 . S
C657 C656 1.397 . S
C657 C658 1.334 . S
C658 H629 0.950 . S
C658 C657 1.334 . S
C658 C659 1.287 . S
C659 C658 1.287 . S
C659 C660 1.524 . S
C659 H662 0.999 . S
C660 H630 0.950 . S
C660 C659 1.524 . S
C660 C661 1.415 . S
C661 H631 0.950 . S
C661 C656 1.363 . S
C661 C660 1.415 . S
H662 C659 0.999 . S
H663 C644 0.913 . S
H664 C682 0.951 . S
H665 C684 0.951 . S
H666 C686 0.950 . S
H667 C687 0.950 . S
H668 C689 0.950 . S
H669 C692 0.950 . S
H670 C693 0.950 . S
H671 C695 0.950 . S
H672 C696 0.950 . S
H673 C697 0.951 . S
H674 C699 0.951 . S
H675 C701 0.950 . S
H676 C702 0.950 . S
H677 C704 0.950 . S
H678 C707 0.950 . S
H679 C708 0.950 . S
H680 C710 0.950 . S
H681 C711 0.950 . S
C682 H664 0.951 . S
C682 C683 1.366 . S
C682 C684 1.388 . S
C683 C682 1.366 . S
C683 C687 1.385 . S
C684 H665 0.951 . S
C684 C682 1.388 . S
C684 C685 1.366 . S
C685 C684 1.366 . S
C685 C686 1.414 . S
C685 C688 1.499 . S
C686 H666 0.950 . S
C686 C685 1.414 . S
C686 C687 1.374 . S
C687 H667 0.950 . S
C687 C683 1.385 . S
C687 C686 1.374 . S
C688 C685 1.499 . S
C688 C689 1.373 . S
C688 C690 1.389 . S
C689 H668 0.950 . S
C689 C688 1.373 . S
C689 C705 1.377 . S
C690 C688 1.389 . S
C690 C691 1.524 . S
C690 C704 1.377 . S
C691 C690 1.524 . S
C691 C692 1.397 . S
C691 C696 1.363 . S
C692 H669 0.950 . S
C692 C691 1.397 . S
C692 C693 1.334 . S
C693 H670 0.950 . S
C693 C692 1.334 . S
C693 C694 1.287 . S
C694 C693 1.287 . S
C694 C695 1.524 . S
C694 H713 0.913 . S
C695 H671 0.950 . S
C695 C694 1.524 . S
C695 C696 1.415 . S
C696 H672 0.950 . S
C696 C691 1.363 . S
C696 C695 1.415 . S
C697 H673 0.951 . S
C697 C698 1.366 . S
C697 C699 1.388 . S
C698 C697 1.366 . S
C698 C702 1.385 . S
C699 H674 0.951 . S
C699 C697 1.388 . S
C699 C700 1.366 . S
C700 C699 1.366 . S
C700 C701 1.414 . S
C700 C703 1.499 . S
C701 H675 0.950 . S
C701 C700 1.414 . S
C701 C702 1.374 . S
C702 H676 0.950 . S
C702 C698 1.385 . S
C702 C701 1.374 . S
C703 C700 1.499 . S
C703 C704 1.373 . S
C703 C705 1.389 . S
C704 H677 0.950 . S
C704 C690 1.377 . S
C704 C703 1.373 . S
C705 C689 1.377 . S
C705 C703 1.389 . S
C705 C706 1.524 . S
C706 C705 1.524 . S
C706 C707 1.397 . S
C706 C711 1.363 . S
C707 H678 0.950 . S
C707 C706 1.397 . S
C707 C708 1.334 . S
C708 H679 0.950 . S
C708 C707 1.334 . S
C708 C709 1.287 . S
C709 C708 1.287 . S
C709 C710 1.524 . S
C709 H712 0.999 . S
C710 H680 0.950 . S
C710 C709 1.524 . S
C710 C711 1.415 . S
C711 H681 0.950 . S
C711 C706 1.363 . S
C711 C710 1.415 . S
H712 C709 0.999 . S
H713 C694 0.913 . S
H714 C732 0.951 . S
H715 C734 0.927 1_545 S
H716 C736 0.950 . S
H717 C737 0.950 . S
H718 C739 0.950 . S
H719 C742 0.950 1_565 S
H720 C743 0.950 . S
H721 C745 0.950 . S
H722 C746 0.950 . S
H723 C747 0.951 . S
H724 C749 0.951 . S
H725 C751 0.950 . S
H726 C752 0.950 . S
H727 C754 0.950 1_545 S
H728 C757 0.950 . S
H729 C758 0.950 . S
H730 C760 0.950 . S
H731 C761 0.950 . S
C732 H714 0.951 . S
C732 C733 1.366 . S
C732 C734 1.388 . S
C733 C732 1.366 . S
C733 C737 1.385 . S
C734 H715 0.927 1_565 S
C734 C732 1.388 . S
C734 C735 1.366 . S
C735 C734 1.366 . S
C735 C736 1.414 . S
C735 C738 1.499 . S
C736 H716 0.950 . S
C736 C735 1.414 . S
C736 C737 1.374 . S
C737 H717 0.950 . S
C737 C733 1.385 . S
C737 C736 1.374 . S
C738 C735 1.499 . S
C738 C739 1.373 . S
C738 C740 1.389 . S
C739 H718 0.950 . S
C739 C738 1.373 . S
C739 C755 1.377 . S
C740 C738 1.389 . S
C740 C741 1.524 1_565 S
C740 C754 1.377 . S
C741 C740 1.524 1_545 S
C741 C742 1.397 . S
C741 C746 1.363 . S
C742 H719 0.950 1_545 S
C742 C741 1.397 . S
C742 C743 1.334 . S
C743 H720 0.950 . S
C743 C742 1.334 . S
C743 C744 1.287 . S
C744 C743 1.287 . S
C744 C745 1.524 . S
C744 H763 0.913 . S
C745 H721 0.950 . S
C745 C744 1.524 . S
C745 C746 1.415 . S
C746 H722 0.950 . S
C746 C741 1.363 . S
C746 C745 1.415 . S
C747 H723 0.951 . S
C747 C748 1.366 . S
C747 C749 1.388 . S
C748 C747 1.366 . S
C748 C752 1.385 1_565 S
C749 H724 0.951 . S
C749 C747 1.388 . S
C749 C750 1.366 . S
C750 C749 1.366 . S
C750 C751 1.414 1_565 S
C750 C753 1.499 . S
C751 H725 0.950 . S
C751 C750 1.414 1_545 S
C751 C752 1.374 . S
C752 H726 0.950 . S
C752 C748 1.385 1_545 S
C752 C751 1.374 . S
C753 C750 1.499 . S
C753 C754 1.373 . S
C753 C755 1.389 . S
C754 H727 0.950 1_565 S
C754 C740 1.377 . S
C754 C753 1.373 . S
C755 C739 1.377 . S
C755 C753 1.389 . S
C755 C756 1.524 . S
C756 C755 1.524 . S
C756 C757 1.397 . S
C756 C761 1.363 . S
C757 H728 0.950 . S
C757 C756 1.397 . S
C757 C758 1.334 . S
C758 H729 0.950 . S
C758 C757 1.334 . S
C758 C759 1.287 . S
C759 C758 1.287 . S
C759 C760 1.524 . S
C759 H762 0.999 . S
C760 H730 0.950 . S
C760 C759 1.524 . S
C760 C761 1.415 . S
C761 H731 0.950 . S
C761 C756 1.363 . S
C761 C760 1.415 . S
H762 C759 0.999 . S
H763 C744 0.913 . S
H764 C782 0.951 . S
H765 C784 0.951 . S
H766 C786 0.950 . S
H767 C787 0.950 . S
H768 C789 0.950 . S
H769 C792 0.950 . S
H770 C793 0.950 . S
H771 C795 0.950 . S
H772 C796 0.950 . S
H773 C797 0.951 . S
H774 C799 0.951 . S
H775 C801 0.950 . S
H776 C802 0.950 . S
H777 C804 0.950 . S
H778 C807 0.950 . S
H779 C808 0.950 . S
H780 C810 0.950 . S
H781 C811 0.950 . S
C782 H764 0.951 . S
C782 C783 1.366 . S
C782 C784 1.388 . S
C783 C782 1.366 . S
C783 C787 1.385 . S
C784 H765 0.951 . S
C784 C782 1.388 . S
C784 C785 1.366 . S
C785 C784 1.366 . S
C785 C786 1.414 . S
C785 C788 1.499 . S
C786 H766 0.950 . S
C786 C785 1.414 . S
C786 C787 1.374 . S
C787 H767 0.950 . S
C787 C783 1.385 . S
C787 C786 1.374 . S
C788 C785 1.499 . S
C788 C789 1.373 . S
C788 C790 1.389 . S
C789 H768 0.950 . S
C789 C788 1.373 . S
C789 C805 1.377 . S
C790 C788 1.389 . S
C790 C791 1.524 . S
C790 C804 1.377 . S
C791 C790 1.524 . S
C791 C792 1.397 . S
C791 C796 1.363 . S
C792 H769 0.950 . S
C792 C791 1.397 . S
C792 C793 1.334 . S
C793 H770 0.950 . S
C793 C792 1.334 . S
C793 C794 1.287 . S
C794 C793 1.287 . S
C794 C795 1.524 . S
C794 H813 0.913 . S
C795 H771 0.950 . S
C795 C794 1.524 . S
C795 C796 1.415 . S
C796 H772 0.950 . S
C796 C791 1.363 . S
C796 C795 1.415 . S
C797 H773 0.951 . S
C797 C798 1.366 . S
C797 C799 1.388 . S
C798 C797 1.366 . S
C798 C802 1.385 . S
C799 H774 0.951 . S
C799 C797 1.388 . S
C799 C800 1.366 . S
C800 C799 1.366 . S
C800 C801 1.414 . S
C800 C803 1.499 . S
C801 H775 0.950 . S
C801 C800 1.414 . S
C801 C802 1.374 . S
C802 H776 0.950 . S
C802 C798 1.385 . S
C802 C801 1.374 . S
C803 C800 1.499 . S
C803 C804 1.373 . S
C803 C805 1.389 . S
C804 H777 0.950 . S
C804 C790 1.377 . S
C804 C803 1.373 . S
C805 C789 1.377 . S
C805 C803 1.389 . S
C805 C806 1.524 . S
C806 C805 1.524 . S
C806 C807 1.397 . S
C806 C811 1.363 . S
C807 H778 0.950 . S
C807 C806 1.397 . S
C807 C808 1.334 . S
C808 H779 0.950 . S
C808 C807 1.334 . S
C808 C809 1.287 . S
C809 C808 1.287 . S
C809 C810 1.524 . S
C809 H812 0.999 . S
C810 H780 0.950 . S
C810 C809 1.524 . S
C810 C811 1.415 . S
C811 H781 0.950 . S
C811 C806 1.363 . S
C811 C810 1.415 . S
H812 C809 0.999 . S
H813 C794 0.913 . S
H814 C832 0.951 . S
H815 C834 0.951 . S
H816 C836 0.950 . S
H817 C837 0.950 . S
H818 C839 0.950 . S
H819 C842 0.950 . S
H820 C843 0.950 . S
H821 C845 0.950 . S
H822 C846 0.950 . S
H823 C847 0.951 . S
H824 C849 0.951 . S
H825 C851 0.950 . S
H826 C852 0.950 . S
H827 C854 0.950 . S
H828 C857 0.950 . S
H829 C858 0.950 . S
H830 C860 0.950 . S
H831 C861 0.950 . S
C832 H814 0.951 . S
C832 C833 1.366 . S
C832 C834 1.388 . S
C833 C832 1.366 . S
C833 C837 1.385 . S
C834 H815 0.951 . S
C834 C832 1.388 . S
C834 C835 1.366 . S
C835 C834 1.366 . S
C835 C836 1.414 . S
C835 C838 1.499 . S
C836 H816 0.950 . S
C836 C835 1.414 . S
C836 C837 1.374 . S
C837 H817 0.950 . S
C837 C833 1.385 . S
C837 C836 1.374 . S
C838 C835 1.499 . S
C838 C839 1.373 . S
C838 C840 1.389 . S
C839 H818 0.950 . S
C839 C838 1.373 . S
C839 C855 1.377 . S
C840 C838 1.389 . S
C840 C841 1.524 . S
C840 C854 1.377 . S
C841 C840 1.524 . S
C841 C842 1.397 . S
C841 C846 1.363 . S
C842 H819 0.950 . S
C842 C841 1.397 . S
C842 C843 1.334 . S
C843 H820 0.950 . S
C843 C842 1.334 . S
C843 C844 1.287 . S
C844 C843 1.287 . S
C844 C845 1.524 . S
C844 H863 0.913 . S
C845 H821 0.950 . S
C845 C844 1.524 . S
C845 C846 1.415 . S
C846 H822 0.950 . S
C846 C841 1.363 . S
C846 C845 1.415 . S
C847 H823 0.951 . S
C847 C848 1.366 . S
C847 C849 1.388 . S
C848 C847 1.366 . S
C848 C852 1.385 . S
C849 H824 0.951 . S
C849 C847 1.388 . S
C849 C850 1.366 . S
C850 C849 1.366 . S
C850 C851 1.414 . S
C850 C853 1.499 . S
C851 H825 0.950 . S
C851 C850 1.414 . S
C851 C852 1.374 . S
C852 H826 0.950 . S
C852 C848 1.385 . S
C852 C851 1.374 . S
C853 C850 1.499 . S
C853 C854 1.373 . S
C853 C855 1.389 . S
C854 H827 0.950 . S
C854 C840 1.377 . S
C854 C853 1.373 . S
C855 C839 1.377 . S
C855 C853 1.389 . S
C855 C856 1.524 . S
C856 C855 1.524 . S
C856 C857 1.397 . S
C856 C861 1.363 . S
C857 H828 0.950 . S
C857 C856 1.397 . S
C857 C858 1.334 . S
C858 H829 0.950 . S
C858 C857 1.334 . S
C858 C859 1.287 . S
C859 C858 1.287 . S
C859 C860 1.524 . S
C859 H862 0.999 . S
C860 H830 0.950 . S
C860 C859 1.524 . S
C860 C861 1.415 . S
C861 H831 0.950 . S
C861 C856 1.363 . S
C861 C860 1.415 . S
H862 C859 0.999 . S
H863 C844 0.913 . S
H864 C882 0.951 . S
H865 C884 0.951 . S
H866 C886 0.950 . S
H867 C887 0.950 . S
H868 C889 0.950 . S
H869 C892 0.950 . S
H870 C893 0.950 . S
H871 C895 0.950 . S
H872 C896 0.950 . S
H873 C897 0.951 . S
H874 C899 0.951 . S
H875 C901 0.950 . S
H876 C902 0.950 . S
H877 C904 0.950 . S
H878 C907 0.950 . S
H879 C908 0.950 . S
H880 C910 0.950 . S
H881 C911 0.950 . S
C882 H864 0.951 . S
C882 C883 1.366 . S
C882 C884 1.388 . S
C883 C882 1.366 . S
C883 C887 1.385 . S
C884 H865 0.951 . S
C884 C882 1.388 . S
C884 C885 1.366 . S
C885 C884 1.366 . S
C885 C886 1.414 . S
C885 C888 1.499 . S
C886 H866 0.950 . S
C886 C885 1.414 . S
C886 C887 1.374 . S
C887 H867 0.950 . S
C887 C883 1.385 . S
C887 C886 1.374 . S
C888 C885 1.499 . S
C888 C889 1.373 . S
C888 C890 1.389 . S
C889 H868 0.950 . S
C889 C888 1.373 . S
C889 C905 1.377 . S
C890 C888 1.389 . S
C890 C891 1.524 . S
C890 C904 1.377 . S
C891 C890 1.524 . S
C891 C892 1.397 . S
C891 C896 1.363 . S
C892 H869 0.950 . S
C892 C891 1.397 . S
C892 C893 1.334 . S
C893 H870 0.950 . S
C893 C892 1.334 . S
C893 C894 1.287 . S
C894 C893 1.287 . S
C894 C895 1.524 . S
C894 H913 0.913 . S
C895 H871 0.950 . S
C895 C894 1.524 . S
C895 C896 1.415 . S
C896 H872 0.950 . S
C896 C891 1.363 . S
C896 C895 1.415 . S
C897 H873 0.951 . S
C897 C898 1.366 . S
C897 C899 1.388 . S
C898 C897 1.366 . S
C898 C902 1.385 . S
C899 H874 0.951 . S
C899 C897 1.388 . S
C899 C900 1.366 . S
C900 C899 1.366 . S
C900 C901 1.414 . S
C900 C903 1.499 . S
C901 H875 0.950 . S
C901 C900 1.414 . S
C901 C902 1.374 . S
C902 H876 0.950 . S
C902 C898 1.385 . S
C902 C901 1.374 . S
C903 C900 1.499 . S
C903 C904 1.373 . S
C903 C905 1.389 . S
C904 H877 0.950 . S
C904 C890 1.377 . S
C904 C903 1.373 . S
C905 C889 1.377 . S
C905 C903 1.389 . S
C905 C906 1.524 . S
C906 C905 1.524 . S
C906 C907 1.397 . S
C906 C911 1.363 . S
C907 H878 0.950 . S
C907 C906 1.397 . S
C907 C908 1.334 . S
C908 H879 0.950 . S
C908 C907 1.334 . S
C908 C909 1.287 . S
C909 C908 1.287 . S
C909 C910 1.524 . S
C909 H912 0.999 . S
C910 H880 0.950 . S
C910 C909 1.524 . S
C910 C911 1.415 . S
C911 H881 0.950 . S
C911 C906 1.363 . S
C911 C910 1.415 . S
H912 C909 0.999 . S
H913 C894 0.913 . S
H914 C932 0.951 . S
H915 C934 0.951 . S
H916 C936 0.950 . S
H917 C937 0.950 . S
H918 C939 0.950 . S
H919 C942 0.950 . S
H920 C943 0.950 . S
H921 C945 0.950 . S
H922 C946 0.950 . S
H923 C947 0.951 . S
H924 C949 0.951 . S
H925 C951 0.950 . S
H926 C952 0.950 . S
H927 C954 0.950 . S
H928 C957 0.950 . S
H929 C958 0.950 . S
H930 C960 0.950 . S
H931 C961 0.950 . S
C932 H914 0.951 . S
C932 C933 1.366 . S
C932 C934 1.388 . S
C933 C932 1.366 . S
C933 C937 1.385 . S
C934 H915 0.951 . S
C934 C932 1.388 . S
C934 C935 1.366 . S
C935 C934 1.366 . S
C935 C936 1.414 . S
C935 C938 1.499 . S
C936 H916 0.950 . S
C936 C935 1.414 . S
C936 C937 1.374 . S
C937 H917 0.950 . S
C937 C933 1.385 . S
C937 C936 1.374 . S
C938 C935 1.499 . S
C938 C939 1.373 . S
C938 C940 1.389 . S
C939 H918 0.950 . S
C939 C938 1.373 . S
C939 C955 1.377 . S
C940 C938 1.389 . S
C940 C941 1.524 . S
C940 C954 1.377 . S
C941 C940 1.524 . S
C941 C942 1.397 . S
C941 C946 1.363 . S
C942 H919 0.950 . S
C942 C941 1.397 . S
C942 C943 1.334 . S
C943 H920 0.950 . S
C943 C942 1.334 . S
C943 C944 1.287 . S
C944 C943 1.287 . S
C944 C945 1.524 . S
C944 H963 0.913 . S
C945 H921 0.950 . S
C945 C944 1.524 . S
C945 C946 1.415 . S
C946 H922 0.950 . S
C946 C941 1.363 . S
C946 C945 1.415 . S
C947 H923 0.951 . S
C947 C948 1.366 . S
C947 C949 1.388 . S
C948 C947 1.366 . S
C948 C952 1.385 . S
C949 H924 0.951 . S
C949 C947 1.388 . S
C949 C950 1.366 . S
C950 C949 1.366 . S
C950 C951 1.414 . S
C950 C953 1.499 . S
C951 H925 0.950 . S
C951 C950 1.414 . S
C951 C952 1.374 . S
C952 H926 0.950 . S
C952 C948 1.385 . S
C952 C951 1.374 . S
C953 C950 1.499 . S
C953 C954 1.373 . S
C953 C955 1.389 . S
C954 H927 0.950 . S
C954 C940 1.377 . S
C954 C953 1.373 . S
C955 C939 1.377 . S
C955 C953 1.389 . S
C955 C956 1.524 . S
C956 C955 1.524 . S
C956 C957 1.397 . S
C956 C961 1.363 . S
C957 H928 0.950 . S
C957 C956 1.397 . S
C957 C958 1.334 . S
C958 H929 0.950 . S
C958 C957 1.334 . S
C958 C959 1.287 . S
C959 C958 1.287 . S
C959 C960 1.524 . S
C959 H962 0.999 . S
C960 H930 0.950 . S
C960 C959 1.524 . S
C960 C961 1.415 . S
C961 H931 0.950 . S
C961 C956 1.363 . S
C961 C960 1.415 . S
H962 C959 0.999 . S
H963 C944 0.913 . S
H964 C982 0.951 . S
H965 C984 0.951 . S
H966 C986 0.950 . S
H967 C987 0.950 . S
H968 C989 0.950 . S
H969 C992 0.950 . S
H970 C993 0.950 . S
H971 C995 0.950 . S
H972 C996 0.950 . S
H973 C997 0.951 . S
H974 C999 0.951 . S
H975 C1001 0.950 . S
H976 C1002 0.950 . S
H977 C1004 0.950 . S
H978 C1007 0.950 . S
H979 C1008 0.950 . S
H980 C1010 0.950 . S
H981 C1011 0.950 . S
C982 H964 0.951 . S
C982 C983 1.366 . S
C982 C984 1.388 . S
C983 C982 1.366 . S
C983 C987 1.385 . S
C984 H965 0.951 . S
C984 C982 1.388 . S
C984 C985 1.366 . S
C985 C984 1.366 . S
C985 C986 1.414 . S
C985 C988 1.499 . S
C986 H966 0.950 . S
C986 C985 1.414 . S
C986 C987 1.374 . S
C987 H967 0.950 . S
C987 C983 1.385 . S
C987 C986 1.374 . S
C988 C985 1.499 . S
C988 C989 1.373 . S
C988 C990 1.389 . S
C989 H968 0.950 . S
C989 C988 1.373 . S
C989 C1005 1.377 . S
C990 C988 1.389 . S
C990 C991 1.524 . S
C990 C1004 1.377 . S
C991 C990 1.524 . S
C991 C992 1.397 . S
C991 C996 1.363 . S
C992 H969 0.950 . S
C992 C991 1.397 . S
C992 C993 1.334 . S
C993 H970 0.950 . S
C993 C992 1.334 . S
C993 C994 1.287 . S
C994 C993 1.287 . S
C994 C995 1.524 . S
C994 H1013 0.913 . S
C995 H971 0.950 . S
C995 C994 1.524 . S
C995 C996 1.415 . S
C996 H972 0.950 . S
C996 C991 1.363 . S
C996 C995 1.415 . S
C997 H973 0.951 . S
C997 C998 1.366 . S
C997 C999 1.388 . S
C998 C997 1.366 . S
C998 C1002 1.385 . S
C999 H974 0.951 . S
C999 C997 1.388 . S
C999 C1000 1.366 . S
C1000 C999 1.366 . S
C1000 C1001 1.414 . S
C1000 C1003 1.499 . S
C1001 H975 0.950 . S
C1001 C1000 1.414 . S
C1001 C1002 1.374 . S
C1002 H976 0.950 . S
C1002 C998 1.385 . S
C1002 C1001 1.374 . S
C1003 C1000 1.499 . S
C1003 C1004 1.373 . S
C1003 C1005 1.389 . S
C1004 H977 0.950 . S
C1004 C990 1.377 . S
C1004 C1003 1.373 . S
C1005 C989 1.377 . S
C1005 C1003 1.389 . S
C1005 C1006 1.524 . S
C1006 C1005 1.524 . S
C1006 C1007 1.397 . S
C1006 C1011 1.363 . S
C1007 H978 0.950 . S
C1007 C1006 1.397 . S
C1007 C1008 1.334 . S
C1008 H979 0.950 . S
C1008 C1007 1.334 . S
C1008 C1009 1.287 . S
C1009 C1008 1.287 . S
C1009 C1010 1.524 . S
C1009 H1012 0.999 . S
C1010 H980 0.950 . S
C1010 C1009 1.524 . S
C1010 C1011 1.415 . S
C1011 H981 0.950 . S
C1011 C1006 1.363 . S
C1011 C1010 1.415 . S
H1012 C1009 0.999 . S
H1013 C994 0.913 . S
H1014 C1032 0.951 . S
H1015 C1034 0.951 . S
H1016 C1036 0.950 . S
H1017 C1037 0.950 . S
H1018 C1039 0.950 . S
H1019 C1042 0.950 . S
H1020 C1043 0.950 . S
H1021 C1045 0.950 . S
H1022 C1046 0.950 . S
H1023 C1047 0.951 . S
H1024 C1049 0.951 . S
H1025 C1051 0.950 . S
H1026 C1052 0.950 . S
H1027 C1054 0.950 . S
H1028 C1057 0.950 . S
H1029 C1058 0.950 . S
H1030 C1060 0.950 . S
H1031 C1061 0.950 . S
C1032 H1014 0.951 . S
C1032 C1033 1.366 . S
C1032 C1034 1.388 . S
C1033 C1032 1.366 . S
C1033 C1037 1.385 . S
C1034 H1015 0.951 . S
C1034 C1032 1.388 . S
C1034 C1035 1.366 . S
C1035 C1034 1.366 . S
C1035 C1036 1.414 . S
C1035 C1038 1.499 . S
C1036 H1016 0.950 . S
C1036 C1035 1.414 . S
C1036 C1037 1.374 . S
C1037 H1017 0.950 . S
C1037 C1033 1.385 . S
C1037 C1036 1.374 . S
C1038 C1035 1.499 . S
C1038 C1039 1.373 . S
C1038 C1040 1.389 . S
C1039 H1018 0.950 . S
C1039 C1038 1.373 . S
C1039 C1055 1.377 . S
C1040 C1038 1.389 . S
C1040 C1041 1.524 . S
C1040 C1054 1.377 . S
C1041 C1040 1.524 . S
C1041 C1042 1.397 . S
C1041 C1046 1.363 1_455 S
C1042 H1019 0.950 . S
C1042 C1041 1.397 . S
C1042 C1043 1.334 . S
C1043 H1020 0.950 . S
C1043 C1042 1.334 . S
C1043 C1044 1.287 1_455 S
C1044 C1043 1.287 1_655 S
C1044 C1045 1.524 . S
C1044 H1063 0.913 . S
C1045 H1021 0.950 . S
C1045 C1044 1.524 . S
C1045 C1046 1.415 . S
C1046 H1022 0.950 . S
C1046 C1041 1.363 1_655 S
C1046 C1045 1.415 . S
C1047 H1023 0.951 . S
C1047 C1048 1.366 . S
C1047 C1049 1.388 . S
C1048 C1047 1.366 . S
C1048 C1052 1.385 . S
C1049 H1024 0.951 . S
C1049 C1047 1.388 . S
C1049 C1050 1.366 . S
C1050 C1049 1.366 . S
C1050 C1051 1.414 . S
C1050 C1053 1.499 . S
C1051 H1025 0.950 . S
C1051 C1050 1.414 . S
C1051 C1052 1.374 . S
C1052 H1026 0.950 . S
C1052 C1048 1.385 . S
C1052 C1051 1.374 . S
C1053 C1050 1.499 . S
C1053 C1054 1.373 . S
C1053 C1055 1.389 . S
C1054 H1027 0.950 . S
C1054 C1040 1.377 . S
C1054 C1053 1.373 . S
C1055 C1039 1.377 . S
C1055 C1053 1.389 . S
C1055 C1056 1.524 . S
C1056 C1055 1.524 . S
C1056 C1057 1.397 . S
C1056 C1061 1.363 . S
C1057 H1028 0.950 . S
C1057 C1056 1.397 . S
C1057 C1058 1.334 . S
C1058 H1029 0.950 . S
C1058 C1057 1.334 . S
C1058 C1059 1.287 . S
C1059 C1058 1.287 . S
C1059 C1060 1.524 . S
C1059 H1062 0.999 . S
C1060 H1030 0.950 . S
C1060 C1059 1.524 . S
C1060 C1061 1.415 . S
C1061 H1031 0.950 . S
C1061 C1056 1.363 . S
C1061 C1060 1.415 . S
H1062 C1059 0.999 . S
H1063 C1044 0.913 . S
H1064 C1082 0.951 . S
H1065 C1084 0.951 . S
H1066 C1086 0.950 . S
H1067 C1087 0.950 . S
H1068 C1089 0.950 . S
H1069 C1092 0.950 . S
H1070 C1093 0.950 . S
H1071 C1095 0.950 . S
H1072 C1096 0.950 . S
H1073 C1097 0.951 . S
H1074 C1099 0.951 . S
H1075 C1101 0.950 . S
H1076 C1102 0.950 . S
H1077 C1104 0.950 . S
H1078 C1107 0.950 . S
H1079 C1108 0.950 . S
H1080 C1110 0.950 . S
H1081 C1111 0.950 . S
C1082 H1064 0.951 . S
C1082 C1083 1.366 . S
C1082 C1084 1.388 . S
C1083 C1082 1.366 . S
C1083 C1087 1.385 . S
C1084 H1065 0.951 . S
C1084 C1082 1.388 . S
C1084 C1085 1.366 . S
C1085 C1084 1.366 . S
C1085 C1086 1.414 . S
C1085 C1088 1.499 . S
C1086 H1066 0.950 . S
C1086 C1085 1.414 . S
C1086 C1087 1.374 . S
C1087 H1067 0.950 . S
C1087 C1083 1.385 . S
C1087 C1086 1.374 . S
C1088 C1085 1.499 . S
C1088 C1089 1.373 . S
C1088 C1090 1.389 . S
C1089 H1068 0.950 . S
C1089 C1088 1.373 . S
C1089 C1105 1.377 . S
C1090 C1088 1.389 . S
C1090 C1091 1.524 . S
C1090 C1104 1.377 . S
C1091 C1090 1.524 . S
C1091 C1092 1.397 . S
C1091 C1096 1.363 . S
C1092 H1069 0.950 . S
C1092 C1091 1.397 . S
C1092 C1093 1.334 . S
C1093 H1070 0.950 . S
C1093 C1092 1.334 . S
C1093 C1094 1.287 . S
C1094 C1093 1.287 . S
C1094 C1095 1.524 . S
C1094 H1113 0.913 . S
C1095 H1071 0.950 . S
C1095 C1094 1.524 . S
C1095 C1096 1.415 . S
C1096 H1072 0.950 . S
C1096 C1091 1.363 . S
C1096 C1095 1.415 . S
C1097 H1073 0.951 . S
C1097 C1098 1.366 . S
C1097 C1099 1.388 . S
C1098 C1097 1.366 . S
C1098 C1102 1.385 . S
C1099 H1074 0.951 . S
C1099 C1097 1.388 . S
C1099 C1100 1.366 . S
C1100 C1099 1.366 . S
C1100 C1101 1.414 . S
C1100 C1103 1.499 . S
C1101 H1075 0.950 . S
C1101 C1100 1.414 . S
C1101 C1102 1.374 . S
C1102 H1076 0.950 . S
C1102 C1098 1.385 . S
C1102 C1101 1.374 . S
C1103 C1100 1.499 . S
C1103 C1104 1.373 . S
C1103 C1105 1.389 . S
C1104 H1077 0.950 . S
C1104 C1090 1.377 . S
C1104 C1103 1.373 . S
C1105 C1089 1.377 . S
C1105 C1103 1.389 . S
C1105 C1106 1.524 . S
C1106 C1105 1.524 . S
C1106 C1107 1.397 . S
C1106 C1111 1.363 . S
C1107 H1078 0.950 . S
C1107 C1106 1.397 . S
C1107 C1108 1.334 . S
C1108 H1079 0.950 . S
C1108 C1107 1.334 . S
C1108 C1109 1.287 . S
C1109 C1108 1.287 . S
C1109 C1110 1.524 . S
C1109 H1112 0.999 . S
C1110 H1080 0.950 . S
C1110 C1109 1.524 . S
C1110 C1111 1.415 . S
C1111 H1081 0.950 . S
C1111 C1106 1.363 . S
C1111 C1110 1.415 . S
H1112 C1109 0.999 . S
H1113 C1094 0.913 . S
H1114 C1132 0.951 . S
H1115 C1134 0.951 . S
H1116 C1136 0.950 . S
H1117 C1137 0.950 . S
H1118 C1139 0.950 1_455 S
H1119 C1142 0.950 . S
H1120 C1143 0.950 . S
H1121 C1145 0.950 . S
H1122 C1146 0.950 . S
H1123 C1147 0.951 . S
H1124 C1149 0.945 1_655 S
H1125 C1151 0.951 . S
H1126 C1152 0.950 . S
H1127 C1154 0.950 . S
H1128 C1157 0.950 . S
H1129 C1158 0.950 . S
H1130 C1160 0.950 . S
H1131 C1161 0.950 . S
C1132 H1114 0.951 . S
C1132 C1133 1.366 . S
C1132 C1134 1.388 . S
C1133 C1132 1.366 . S
C1133 C1137 1.385 . S
C1134 H1115 0.951 . S
C1134 C1132 1.388 . S
C1134 C1135 1.366 . S
C1135 C1134 1.366 . S
C1135 C1136 1.414 . S
C1135 C1138 1.499 . S
C1136 H1116 0.950 . S
C1136 C1135 1.414 . S
C1136 C1137 1.374 . S
C1137 H1117 0.950 . S
C1137 C1133 1.385 . S
C1137 C1136 1.374 . S
C1138 C1135 1.499 . S
C1138 C1139 1.373 . S
C1138 C1140 1.389 . S
C1139 H1118 0.950 1_655 S
C1139 C1138 1.373 . S
C1139 C1155 1.377 1_655 S
C1140 C1138 1.389 . S
C1140 C1141 1.524 . S
C1140 C1154 1.377 . S
C1141 C1140 1.524 . S
C1141 C1142 1.397 . S
C1141 C1146 1.363 . S
C1142 H1119 0.950 . S
C1142 C1141 1.397 . S
C1142 C1143 1.334 . S
C1143 H1120 0.950 . S
C1143 C1142 1.334 . S
C1143 C1144 1.287 . S
C1144 C1143 1.287 . S
C1144 C1145 1.524 . S
C1144 H1163 0.913 . S
C1145 H1121 0.950 . S
C1145 C1144 1.524 . S
C1145 C1146 1.415 . S
C1146 H1122 0.950 . S
C1146 C1141 1.363 . S
C1146 C1145 1.415 . S
C1147 H1123 0.951 . S
C1147 C1148 1.366 . S
C1147 C1149 1.395 . S
C1148 C1147 1.366 . S
C1148 C1152 1.385 . S
C1149 H1124 0.945 1_455 S
C1149 C1147 1.395 . S
C1149 C1150 1.366 1_455 S
C1150 C1149 1.366 1_655 S
C1150 C1151 1.414 1_655 S
C1150 C1153 1.499 . S
C1151 H1125 0.951 . S
C1151 C1150 1.414 1_455 S
C1151 C1152 1.374 . S
C1152 H1126 0.950 . S
C1152 C1148 1.385 . S
C1152 C1151 1.374 . S
C1153 C1150 1.499 . S
C1153 C1154 1.373 . S
C1153 C1155 1.389 1_655 S
C1154 H1127 0.950 . S
C1154 C1140 1.377 . S
C1154 C1153 1.373 . S
C1155 C1139 1.377 1_455 S
C1155 C1153 1.389 1_455 S
C1155 C1156 1.524 . S
C1156 C1155 1.524 . S
C1156 C1157 1.397 . S
C1156 C1161 1.363 . S
C1157 H1128 0.950 . S
C1157 C1156 1.397 . S
C1157 C1158 1.334 . S
C1158 H1129 0.950 . S
C1158 C1157 1.334 . S
C1158 C1159 1.287 . S
C1159 C1158 1.287 . S
C1159 C1160 1.524 . S
C1159 H1162 0.999 . S
C1160 H1130 0.950 . S
C1160 C1159 1.524 . S
C1160 C1161 1.415 . S
C1161 H1131 0.950 . S
C1161 C1156 1.363 . S
C1161 C1160 1.415 . S
H1162 C1159 0.999 . S
H1163 C1144 0.913 . S
H1164 C1182 0.951 . S
H1165 C1184 0.951 . S
H1166 C1186 0.950 . S
H1167 C1187 0.950 . S
H1168 C1189 0.950 . S
H1169 C1192 0.950 . S
H1170 C1193 0.950 . S
H1171 C1195 0.950 . S
H1172 C1196 0.950 . S
H1173 C1197 0.951 . S
H1174 C1199 0.951 . S
H1175 C1201 0.950 . S
H1176 C1202 0.950 . S
H1177 C1204 0.950 . S
H1178 C1207 0.950 . S
H1179 C1208 0.950 . S
H1180 C1210 0.950 . S
H1181 C1211 0.950 . S
C1182 H1164 0.951 . S
C1182 C1183 1.366 . S
C1182 C1184 1.388 . S
C1183 C1182 1.366 . S
C1183 C1187 1.385 . S
C1184 H1165 0.951 . S
C1184 C1182 1.388 . S
C1184 C1185 1.366 . S
C1185 C1184 1.366 . S
C1185 C1186 1.414 . S
C1185 C1188 1.499 . S
C1186 H1166 0.950 . S
C1186 C1185 1.414 . S
C1186 C1187 1.374 . S
C1187 H1167 0.950 . S
C1187 C1183 1.385 . S
C1187 C1186 1.374 . S
C1188 C1185 1.499 . S
C1188 C1189 1.373 . S
C1188 C1190 1.389 . S
C1189 H1168 0.950 . S
C1189 C1188 1.373 . S
C1189 C1205 1.377 . S
C1190 C1188 1.389 . S
C1190 C1191 1.524 . S
C1190 C1204 1.377 . S
C1191 C1190 1.524 . S
C1191 C1192 1.397 . S
C1191 C1196 1.363 . S
C1192 H1169 0.950 . S
C1192 C1191 1.397 . S
C1192 C1193 1.334 . S
C1193 H1170 0.950 . S
C1193 C1192 1.334 . S
C1193 C1194 1.287 . S
C1194 C1193 1.287 . S
C1194 C1195 1.524 . S
C1194 H1213 0.913 . S
C1195 H1171 0.950 . S
C1195 C1194 1.524 . S
C1195 C1196 1.415 . S
C1196 H1172 0.950 . S
C1196 C1191 1.363 . S
C1196 C1195 1.415 . S
C1197 H1173 0.951 . S
C1197 C1198 1.366 . S
C1197 C1199 1.388 . S
C1198 C1197 1.366 . S
C1198 C1202 1.385 . S
C1199 H1174 0.951 . S
C1199 C1197 1.388 . S
C1199 C1200 1.366 . S
C1200 C1199 1.366 . S
C1200 C1201 1.414 . S
C1200 C1203 1.499 . S
C1201 H1175 0.950 . S
C1201 C1200 1.414 . S
C1201 C1202 1.374 . S
C1202 H1176 0.950 . S
C1202 C1198 1.385 . S
C1202 C1201 1.374 . S
C1203 C1200 1.499 . S
C1203 C1204 1.373 . S
C1203 C1205 1.389 . S
C1204 H1177 0.950 . S
C1204 C1190 1.377 . S
C1204 C1203 1.373 . S
C1205 C1189 1.377 . S
C1205 C1203 1.389 . S
C1205 C1206 1.524 . S
C1206 C1205 1.524 . S
C1206 C1207 1.397 . S
C1206 C1211 1.363 . S
C1207 H1178 0.950 . S
C1207 C1206 1.397 . S
C1207 C1208 1.334 . S
C1208 H1179 0.950 . S
C1208 C1207 1.334 . S
C1208 C1209 1.287 . S
C1209 C1208 1.287 . S
C1209 C1210 1.524 . S
C1209 H1212 0.999 . S
C1210 H1180 0.950 . S
C1210 C1209 1.524 . S
C1210 C1211 1.415 . S
C1211 H1181 0.950 . S
C1211 C1206 1.363 . S
C1211 C1210 1.415 . S
H1212 C1209 0.999 . S
H1213 C1194 0.913 . S
H1214 C1232 0.951 . S
H1215 C1234 0.951 . S
H1216 C1236 0.950 . S
H1217 C1237 0.950 . S
H1218 C1239 0.950 . S
H1219 C1242 0.950 . S
H1220 C1243 0.950 . S
H1221 C1245 0.950 . S
H1222 C1246 0.950 . S
H1223 C1247 0.951 . S
H1224 C1249 0.951 . S
H1225 C1251 0.950 . S
H1226 C1252 0.950 . S
H1227 C1254 0.950 . S
H1228 C1257 0.950 . S
H1229 C1258 0.950 . S
H1230 C1260 0.950 . S
H1231 C1261 0.950 . S
C1232 H1214 0.951 . S
C1232 C1233 1.366 . S
C1232 C1234 1.388 . S
C1233 C1232 1.366 . S
C1233 C1237 1.385 . S
C1234 H1215 0.951 . S
C1234 C1232 1.388 . S
C1234 C1235 1.366 . S
C1235 C1234 1.366 . S
C1235 C1236 1.414 . S
C1235 C1238 1.499 . S
C1236 H1216 0.950 . S
C1236 C1235 1.414 . S
C1236 C1237 1.374 . S
C1237 H1217 0.950 . S
C1237 C1233 1.385 . S
C1237 C1236 1.374 . S
C1238 C1235 1.499 . S
C1238 C1239 1.373 . S
C1238 C1240 1.389 . S
C1239 H1218 0.950 . S
C1239 C1238 1.373 . S
C1239 C1255 1.377 . S
C1240 C1238 1.389 . S
C1240 C1241 1.524 . S
C1240 C1254 1.377 . S
C1241 C1240 1.524 . S
C1241 C1242 1.397 . S
C1241 C1246 1.363 . S
C1242 H1219 0.950 . S
C1242 C1241 1.397 . S
C1242 C1243 1.334 . S
C1243 H1220 0.950 . S
C1243 C1242 1.334 . S
C1243 C1244 1.287 . S
C1244 C1243 1.287 . S
C1244 C1245 1.524 . S
C1244 H1263 0.913 . S
C1245 H1221 0.950 . S
C1245 C1244 1.524 . S
C1245 C1246 1.415 . S
C1246 H1222 0.950 . S
C1246 C1241 1.363 . S
C1246 C1245 1.415 . S
C1247 H1223 0.951 . S
C1247 C1248 1.366 . S
C1247 C1249 1.388 . S
C1248 C1247 1.366 . S
C1248 C1252 1.385 . S
C1249 H1224 0.951 . S
C1249 C1247 1.388 . S
C1249 C1250 1.366 . S
C1250 C1249 1.366 . S
C1250 C1251 1.414 . S
C1250 C1253 1.499 . S
C1251 H1225 0.950 . S
C1251 C1250 1.414 . S
C1251 C1252 1.374 . S
C1252 H1226 0.950 . S
C1252 C1248 1.385 . S
C1252 C1251 1.374 . S
C1253 C1250 1.499 . S
C1253 C1254 1.373 . S
C1253 C1255 1.389 . S
C1254 H1227 0.950 . S
C1254 C1240 1.377 . S
C1254 C1253 1.373 . S
C1255 C1239 1.377 . S
C1255 C1253 1.389 . S
C1255 C1256 1.524 . S
C1256 C1255 1.524 . S
C1256 C1257 1.397 . S
C1256 C1261 1.363 . S
C1257 H1228 0.950 . S
C1257 C1256 1.397 . S
C1257 C1258 1.334 . S
C1258 H1229 0.950 . S
C1258 C1257 1.334 . S
C1258 C1259 1.287 . S
C1259 C1258 1.287 . S
C1259 C1260 1.524 . S
C1259 H1262 0.999 . S
C1260 H1230 0.950 . S
C1260 C1259 1.524 . S
C1260 C1261 1.415 . S
C1261 H1231 0.950 . S
C1261 C1256 1.363 . S
C1261 C1260 1.415 . S
H1262 C1259 0.999 . S
H1263 C1244 0.913 . S
H1264 C1282 0.946 1_565 S
H1265 C1284 0.951 . S
H1266 C1286 0.922 1_554 S
H1267 C1287 0.950 1_554 S
H1268 C1289 0.950 . S
H1269 C1292 0.950 . S
H1270 C1293 0.950 . S
H1271 C1295 0.950 . S
H1272 C1296 0.950 . S
H1273 C1297 0.951 . S
H1274 C1299 0.951 . S
H1275 C1301 0.950 . S
H1276 C1302 0.950 . S
H1277 C1304 0.950 . S
H1278 C1307 0.950 . S
H1279 C1308 0.950 . S
H1280 C1310 0.950 . S
H1281 C1311 0.950 . S
C1282 H1264 0.946 1_545 S
C1282 C1283 1.390 . S
C1282 C1284 1.369 1_545 S
C1283 C1282 1.390 . S
C1283 C1287 1.385 . S
C1284 H1265 0.951 . S
C1284 C1282 1.369 1_565 S
C1284 C1285 1.366 . S
C1285 C1284 1.366 . S
C1285 C1286 1.434 1_565 S
C1285 C1288 1.499 . S
C1286 H1266 0.922 1_556 S
C1286 C1285 1.434 1_545 S
C1286 C1287 1.383 . S
C1287 H1267 0.950 1_556 S
C1287 C1283 1.385 . S
C1287 C1286 1.383 . S
C1288 C1285 1.499 . S
C1288 C1289 1.373 1_556 S
C1288 C1290 1.389 . S
C1289 H1268 0.950 . S
C1289 C1288 1.373 1_554 S
C1289 C1305 1.377 . S
C1290 C1288 1.389 . S
C1290 C1291 1.524 . S
C1290 C1304 1.377 . S
C1291 C1290 1.524 . S
C1291 C1292 1.397 1_565 S
C1291 C1296 1.363 . S
C1292 H1269 0.950 . S
C1292 C1291 1.397 1_545 S
C1292 C1293 1.334 . S
C1293 H1270 0.950 . S
C1293 C1292 1.334 . S
C1293 C1294 1.287 . S
C1294 C1293 1.287 . S
C1294 C1295 1.524 1_545 S
C1294 H1313 0.913 . S
C1295 H1271 0.950 . S
C1295 C1294 1.524 1_565 S
C1295 C1296 1.415 . S
C1296 H1272 0.950 . S
C1296 C1291 1.363 . S
C1296 C1295 1.415 . S
C1297 H1273 0.951 . S
C1297 C1298 1.366 . S
C1297 C1299 1.388 . S
C1298 C1297 1.366 . S
C1298 C1302 1.385 1_554 S
C1299 H1274 0.951 . S
C1299 C1297 1.388 . S
C1299 C1300 1.366 . S
C1300 C1299 1.366 . S
C1300 C1301 1.414 1_554 S
C1300 C1303 1.499 1_554 S
C1301 H1275 0.950 . S
C1301 C1300 1.414 1_556 S
C1301 C1302 1.374 . S
C1302 H1276 0.950 . S
C1302 C1298 1.385 1_556 S
C1302 C1301 1.374 . S
C1303 C1300 1.499 1_556 S
C1303 C1304 1.373 . S
C1303 C1305 1.389 1_556 S
C1304 H1277 0.950 . S
C1304 C1290 1.377 . S
C1304 C1303 1.373 . S
C1305 C1289 1.377 . S
C1305 C1303 1.389 1_554 S
C1305 C1306 1.524 . S
C1306 C1305 1.524 . S
C1306 C1307 1.397 . S
C1306 C1311 1.363 . S
C1307 H1278 0.950 . S
C1307 C1306 1.397 . S
C1307 C1308 1.334 . S
C1308 H1279 0.950 . S
C1308 C1307 1.334 . S
C1308 C1309 1.287 . S
C1309 C1308 1.287 . S
C1309 C1310 1.524 . S
C1309 H1312 0.999 . S
C1310 H1280 0.950 . S
C1310 C1309 1.524 . S
C1310 C1311 1.415 . S
C1311 H1281 0.950 . S
C1311 C1306 1.363 . S
C1311 C1310 1.415 . S
H1312 C1309 0.999 . S
H1313 C1294 0.913 . S
H1314 C1332 0.951 . S
H1315 C1334 0.951 . S
H1316 C1336 0.950 . S
H1317 C1337 0.950 . S
H1318 C1339 0.950 . S
H1319 C1342 0.950 . S
H1320 C1343 0.950 . S
H1321 C1345 0.950 . S
H1322 C1346 0.950 . S
H1323 C1347 0.951 . S
H1324 C1349 0.951 . S
H1325 C1351 0.950 . S
H1326 C1352 0.950 . S
H1327 C1354 0.950 . S
H1328 C1357 0.950 . S
H1329 C1358 0.950 . S
H1330 C1360 0.950 . S
H1331 C1361 0.950 . S
C1332 H1314 0.951 . S
C1332 C1333 1.366 . S
C1332 C1334 1.388 . S
C1333 C1332 1.366 . S
C1333 C1337 1.385 . S
C1334 H1315 0.951 . S
C1334 C1332 1.388 . S
C1334 C1335 1.366 . S
C1335 C1334 1.366 . S
C1335 C1336 1.414 . S
C1335 C1338 1.499 . S
C1336 H1316 0.950 . S
C1336 C1335 1.414 . S
C1336 C1337 1.374 . S
C1337 H1317 0.950 . S
C1337 C1333 1.385 . S
C1337 C1336 1.374 . S
C1338 C1335 1.499 . S
C1338 C1339 1.373 . S
C1338 C1340 1.389 . S
C1339 H1318 0.950 . S
C1339 C1338 1.373 . S
C1339 C1355 1.377 . S
C1340 C1338 1.389 . S
C1340 C1341 1.524 . S
C1340 C1354 1.377 . S
C1341 C1340 1.524 . S
C1341 C1342 1.397 . S
C1341 C1346 1.363 . S
C1342 H1319 0.950 . S
C1342 C1341 1.397 . S
C1342 C1343 1.334 . S
C1343 H1320 0.950 . S
C1343 C1342 1.334 . S
C1343 C1344 1.287 . S
C1344 C1343 1.287 . S
C1344 C1345 1.524 . S
C1344 H1363 0.913 . S
C1345 H1321 0.950 . S
C1345 C1344 1.524 . S
C1345 C1346 1.415 . S
C1346 H1322 0.950 . S
C1346 C1341 1.363 . S
C1346 C1345 1.415 . S
C1347 H1323 0.951 . S
C1347 C1348 1.366 . S
C1347 C1349 1.388 . S
C1348 C1347 1.366 . S
C1348 C1352 1.385 . S
C1349 H1324 0.951 . S
C1349 C1347 1.388 . S
C1349 C1350 1.366 . S
C1350 C1349 1.366 . S
C1350 C1351 1.414 . S
C1350 C1353 1.499 . S
C1351 H1325 0.950 . S
C1351 C1350 1.414 . S
C1351 C1352 1.374 . S
C1352 H1326 0.950 . S
C1352 C1348 1.385 . S
C1352 C1351 1.374 . S
C1353 C1350 1.499 . S
C1353 C1354 1.373 . S
C1353 C1355 1.389 . S
C1354 H1327 0.950 . S
C1354 C1340 1.377 . S
C1354 C1353 1.373 . S
C1355 C1339 1.377 . S
C1355 C1353 1.389 . S
C1355 C1356 1.524 . S
C1356 C1355 1.524 . S
C1356 C1357 1.397 . S
C1356 C1361 1.363 . S
C1357 H1328 0.950 . S
C1357 C1356 1.397 . S
C1357 C1358 1.334 . S
C1358 H1329 0.950 . S
C1358 C1357 1.334 . S
C1358 C1359 1.287 . S
C1359 C1358 1.287 . S
C1359 C1360 1.524 . S
C1359 H1362 0.999 . S
C1360 H1330 0.950 . S
C1360 C1359 1.524 . S
C1360 C1361 1.415 . S
C1361 H1331 0.950 . S
C1361 C1356 1.363 . S
C1361 C1360 1.415 . S
H1362 C1359 0.999 . S
H1363 C1344 0.913 . S
H1364 C1382 0.951 . S
H1365 C1384 0.951 . S
H1366 C1386 0.950 . S
H1367 C1387 0.950 . S
H1368 C1389 0.950 . S
H1369 C1392 0.950 . S
H1370 C1393 0.950 . S
H1371 C1395 0.950 . S
H1372 C1396 0.950 . S
H1373 C1397 0.951 . S
H1374 C1399 0.951 . S
H1375 C1401 0.950 . S
H1376 C1402 0.950 . S
H1377 C1404 0.950 . S
H1378 C1407 0.950 . S
H1379 C1408 0.950 . S
H1380 C1410 0.950 . S
H1381 C1411 0.950 . S
C1382 H1364 0.951 . S
C1382 C1383 1.366 . S
C1382 C1384 1.388 1_565 S
C1383 C1382 1.366 . S
C1383 C1387 1.385 1_565 S
C1384 H1365 0.951 . S
C1384 C1382 1.388 1_545 S
C1384 C1385 1.366 . S
C1385 C1384 1.366 . S
C1385 C1386 1.414 . S
C1385 C1388 1.499 . S
C1386 H1366 0.950 . S
C1386 C1385 1.414 . S
C1386 C1387 1.374 . S
C1387 H1367 0.950 . S
C1387 C1383 1.385 1_545 S
C1387 C1386 1.374 . S
C1388 C1385 1.499 . S
C1388 C1389 1.373 . S
C1388 C1390 1.389 . S
C1389 H1368 0.950 . S
C1389 C1388 1.373 . S
C1389 C1405 1.377 . S
C1390 C1388 1.389 . S
C1390 C1391 1.524 . S
C1390 C1404 1.377 . S
C1391 C1390 1.524 . S
C1391 C1392 1.397 . S
C1391 C1396 1.363 . S
C1392 H1369 0.950 . S
C1392 C1391 1.397 . S
C1392 C1393 1.334 . S
C1393 H1370 0.950 . S
C1393 C1392 1.334 . S
C1393 C1394 1.287 . S
C1394 C1393 1.287 . S
C1394 C1395 1.524 . S
C1394 H1413 0.913 . S
C1395 H1371 0.950 . S
C1395 C1394 1.524 . S
C1395 C1396 1.415 . S
C1396 H1372 0.950 . S
C1396 C1391 1.363 . S
C1396 C1395 1.415 . S
C1397 H1373 0.951 . S
C1397 C1398 1.366 . S
C1397 C1399 1.388 . S
C1398 C1397 1.366 . S
C1398 C1402 1.385 . S
C1399 H1374 0.951 . S
C1399 C1397 1.388 . S
C1399 C1400 1.366 . S
C1400 C1399 1.366 . S
C1400 C1401 1.414 . S
C1400 C1403 1.499 . S
C1401 H1375 0.950 . S
C1401 C1400 1.414 . S
C1401 C1402 1.374 . S
C1402 H1376 0.950 . S
C1402 C1398 1.385 . S
C1402 C1401 1.374 . S
C1403 C1400 1.499 . S
C1403 C1404 1.373 . S
C1403 C1405 1.389 . S
C1404 H1377 0.950 . S
C1404 C1390 1.377 . S
C1404 C1403 1.373 . S
C1405 C1389 1.377 . S
C1405 C1403 1.389 . S
C1405 C1406 1.524 . S
C1406 C1405 1.524 . S
C1406 C1407 1.397 . S
C1406 C1411 1.363 . S
C1407 H1378 0.950 . S
C1407 C1406 1.397 . S
C1407 C1408 1.334 . S
C1408 H1379 0.950 . S
C1408 C1407 1.334 . S
C1408 C1409 1.287 . S
C1409 C1408 1.287 . S
C1409 C1410 1.524 . S
C1409 H1412 0.999 . S
C1410 H1380 0.950 . S
C1410 C1409 1.524 . S
C1410 C1411 1.415 . S
C1411 H1381 0.950 . S
C1411 C1406 1.363 . S
C1411 C1410 1.415 . S
H1412 C1409 0.999 . S
H1413 C1394 0.913 . S
H1414 C1432 0.951 . S
H1415 C1434 0.951 . S
H1416 C1436 0.950 . S
H1417 C1437 0.950 . S
H1418 C1439 0.950 . S
H1419 C1442 0.950 . S
H1420 C1443 0.950 . S
H1421 C1445 0.950 . S
H1422 C1446 0.950 . S
H1423 C1447 0.951 . S
H1424 C1449 0.951 . S
H1425 C1451 0.950 . S
H1426 C1452 0.950 . S
H1427 C1454 0.950 . S
H1428 C1457 0.950 . S
H1429 C1458 0.950 . S
H1430 C1460 0.950 . S
H1431 C1461 0.950 . S
C1432 H1414 0.951 . S
C1432 C1433 1.366 . S
C1432 C1434 1.388 . S
C1433 C1432 1.366 . S
C1433 C1437 1.385 . S
C1434 H1415 0.951 . S
C1434 C1432 1.388 . S
C1434 C1435 1.366 . S
C1435 C1434 1.366 . S
C1435 C1436 1.414 . S
C1435 C1438 1.499 . S
C1436 H1416 0.950 . S
C1436 C1435 1.414 . S
C1436 C1437 1.374 . S
C1437 H1417 0.950 . S
C1437 C1433 1.385 . S
C1437 C1436 1.374 . S
C1438 C1435 1.499 . S
C1438 C1439 1.373 . S
C1438 C1440 1.389 . S
C1439 H1418 0.950 . S
C1439 C1438 1.373 . S
C1439 C1455 1.377 . S
C1440 C1438 1.389 . S
C1440 C1441 1.524 . S
C1440 C1454 1.377 . S
C1441 C1440 1.524 . S
C1441 C1442 1.397 . S
C1441 C1446 1.363 . S
C1442 H1419 0.950 . S
C1442 C1441 1.397 . S
C1442 C1443 1.334 . S
C1443 H1420 0.950 . S
C1443 C1442 1.334 . S
C1443 C1444 1.287 . S
C1444 C1443 1.287 . S
C1444 C1445 1.524 . S
C1444 H1463 0.913 . S
C1445 H1421 0.950 . S
C1445 C1444 1.524 . S
C1445 C1446 1.415 . S
C1446 H1422 0.950 . S
C1446 C1441 1.363 . S
C1446 C1445 1.415 . S
C1447 H1423 0.951 . S
C1447 C1448 1.366 . S
C1447 C1449 1.388 . S
C1448 C1447 1.366 . S
C1448 C1452 1.385 . S
C1449 H1424 0.951 . S
C1449 C1447 1.388 . S
C1449 C1450 1.366 . S
C1450 C1449 1.366 . S
C1450 C1451 1.414 . S
C1450 C1453 1.499 . S
C1451 H1425 0.950 . S
C1451 C1450 1.414 . S
C1451 C1452 1.374 . S
C1452 H1426 0.950 . S
C1452 C1448 1.385 . S
C1452 C1451 1.374 . S
C1453 C1450 1.499 . S
C1453 C1454 1.373 . S
C1453 C1455 1.389 . S
C1454 H1427 0.950 . S
C1454 C1440 1.377 . S
C1454 C1453 1.373 . S
C1455 C1439 1.377 . S
C1455 C1453 1.389 . S
C1455 C1456 1.524 . S
C1456 C1455 1.524 . S
C1456 C1457 1.397 . S
C1456 C1461 1.363 . S
C1457 H1428 0.950 . S
C1457 C1456 1.397 . S
C1457 C1458 1.334 . S
C1458 H1429 0.950 . S
C1458 C1457 1.334 . S
C1458 C1459 1.287 . S
C1459 C1458 1.287 . S
C1459 C1460 1.524 . S
C1459 H1462 0.999 . S
C1460 H1430 0.950 . S
C1460 C1459 1.524 . S
C1460 C1461 1.415 . S
C1461 H1431 0.950 . S
C1461 C1456 1.363 . S
C1461 C1460 1.415 . S
H1462 C1459 0.999 . S
H1463 C1444 0.913 . S
H1464 C1482 0.951 . S
H1465 C1484 0.950 . S
H1466 C1486 0.950 . S
H1467 C1487 0.950 . S
H1468 C1489 0.950 . S
H1469 C1492 0.950 . S
H1470 C1493 0.950 . S
H1471 C1495 0.950 . S
H1472 C1496 0.950 . S
H1473 C1497 0.951 . S
H1474 C1499 0.951 . S
H1475 C1501 0.950 . S
H1476 C1502 0.950 . S
H1477 C1504 0.950 . S
H1478 C1507 0.950 . S
H1479 C1508 0.950 . S
H1480 C1510 0.950 . S
H1481 C1511 0.950 . S
C1482 H1464 0.951 . S
C1482 C1483 1.366 . S
C1482 C1484 1.388 1_565 S
C1483 C1482 1.366 . S
C1483 C1487 1.385 1_565 S
C1484 H1465 0.950 . S
C1484 C1482 1.388 1_545 S
C1484 C1485 1.366 . S
C1485 C1484 1.366 . S
C1485 C1486 1.414 . S
C1485 C1488 1.499 . S
C1486 H1466 0.950 . S
C1486 C1485 1.414 . S
C1486 C1487 1.374 . S
C1487 H1467 0.950 . S
C1487 C1483 1.385 1_545 S
C1487 C1486 1.374 . S
C1488 C1485 1.499 . S
C1488 C1489 1.373 . S
C1488 C1490 1.389 . S
C1489 H1468 0.950 . S
C1489 C1488 1.373 . S
C1489 C1505 1.377 . S
C1490 C1488 1.389 . S
C1490 C1491 1.524 . S
C1490 C1504 1.377 . S
C1491 C1490 1.524 . S
C1491 C1492 1.397 . S
C1491 C1496 1.363 . S
C1492 H1469 0.950 . S
C1492 C1491 1.397 . S
C1492 C1493 1.334 . S
C1493 H1470 0.950 . S
C1493 C1492 1.334 . S
C1493 C1494 1.287 . S
C1494 C1493 1.287 . S
C1494 C1495 1.524 . S
C1494 H1513 0.913 . S
C1495 H1471 0.950 . S
C1495 C1494 1.524 . S
C1495 C1496 1.415 . S
C1496 H1472 0.950 . S
C1496 C1491 1.363 . S
C1496 C1495 1.415 . S
C1497 H1473 0.951 . S
C1497 C1498 1.366 . S
C1497 C1499 1.388 . S
C1498 C1497 1.366 . S
C1498 C1502 1.385 . S
C1499 H1474 0.951 . S
C1499 C1497 1.388 . S
C1499 C1500 1.366 . S
C1500 C1499 1.366 . S
C1500 C1501 1.414 . S
C1500 C1503 1.499 . S
C1501 H1475 0.950 . S
C1501 C1500 1.414 . S
C1501 C1502 1.374 . S
C1502 H1476 0.950 . S
C1502 C1498 1.385 . S
C1502 C1501 1.374 . S
C1503 C1500 1.499 . S
C1503 C1504 1.373 . S
C1503 C1505 1.389 . S
C1504 H1477 0.950 . S
C1504 C1490 1.377 . S
C1504 C1503 1.373 . S
C1505 C1489 1.377 . S
C1505 C1503 1.389 . S
C1505 C1506 1.524 . S
C1506 C1505 1.524 . S
C1506 C1507 1.397 . S
C1506 C1511 1.363 . S
C1507 H1478 0.950 . S
C1507 C1506 1.397 . S
C1507 C1508 1.334 . S
C1508 H1479 0.950 . S
C1508 C1507 1.334 . S
C1508 C1509 1.287 . S
C1509 C1508 1.287 . S
C1509 C1510 1.524 . S
C1509 H1512 0.999 . S
C1510 H1480 0.950 . S
C1510 C1509 1.524 . S
C1510 C1511 1.415 . S
C1511 H1481 0.950 . S
C1511 C1506 1.363 . S
C1511 C1510 1.415 . S
H1512 C1509 0.999 . S
H1513 C1494 0.913 . S
H1514 C1532 0.951 . S
H1515 C1534 0.951 . S
H1516 C1536 0.950 . S
H1517 C1537 0.950 . S
H1518 C1539 0.950 . S
H1519 C1542 0.950 . S
H1520 C1543 0.950 . S
H1521 C1545 0.950 . S
H1522 C1546 0.950 . S
H1523 C1547 0.951 . S
H1524 C1549 0.951 . S
H1525 C1551 0.950 . S
H1526 C1552 0.950 . S
H1527 C1554 0.950 . S
H1528 C1557 0.950 . S
H1529 C1558 0.950 . S
H1530 C1560 0.950 . S
H1531 C1561 0.950 . S
C1532 H1514 0.951 . S
C1532 C1533 1.366 . S
C1532 C1534 1.388 . S
C1533 C1532 1.366 . S
C1533 C1537 1.385 . S
C1534 H1515 0.951 . S
C1534 C1532 1.388 . S
C1534 C1535 1.366 . S
C1535 C1534 1.366 . S
C1535 C1536 1.414 . S
C1535 C1538 1.499 . S
C1536 H1516 0.950 . S
C1536 C1535 1.414 . S
C1536 C1537 1.374 . S
C1537 H1517 0.950 . S
C1537 C1533 1.385 . S
C1537 C1536 1.374 . S
C1538 C1535 1.499 . S
C1538 C1539 1.373 . S
C1538 C1540 1.389 . S
C1539 H1518 0.950 . S
C1539 C1538 1.373 . S
C1539 C1555 1.377 . S
C1540 C1538 1.389 . S
C1540 C1541 1.524 . S
C1540 C1554 1.377 . S
C1541 C1540 1.524 . S
C1541 C1542 1.397 . S
C1541 C1546 1.363 . S
C1542 H1519 0.950 . S
C1542 C1541 1.397 . S
C1542 C1543 1.334 . S
C1543 H1520 0.950 . S
C1543 C1542 1.334 . S
C1543 C1544 1.287 . S
C1544 C1543 1.287 . S
C1544 C1545 1.524 . S
C1544 H1563 0.913 . S
C1545 H1521 0.950 . S
C1545 C1544 1.524 . S
C1545 C1546 1.415 . S
C1546 H1522 0.950 . S
C1546 C1541 1.363 . S
C1546 C1545 1.415 . S
C1547 H1523 0.951 . S
C1547 C1548 1.366 . S
C1547 C1549 1.388 . S
C1548 C1547 1.366 . S
C1548 C1552 1.385 . S
C1549 H1524 0.951 . S
C1549 C1547 1.388 . S
C1549 C1550 1.366 . S
C1550 C1549 1.366 . S
C1550 C1551 1.414 . S
C1550 C1553 1.499 . S
C1551 H1525 0.950 . S
C1551 C1550 1.414 . S
C1551 C1552 1.374 . S
C1552 H1526 0.950 . S
C1552 C1548 1.385 . S
C1552 C1551 1.374 . S
C1553 C1550 1.499 . S
C1553 C1554 1.373 . S
C1553 C1555 1.389 . S
C1554 H1527 0.950 . S
C1554 C1540 1.377 . S
C1554 C1553 1.373 . S
C1555 C1539 1.377 . S
C1555 C1553 1.389 . S
C1555 C1556 1.524 . S
C1556 C1555 1.524 . S
C1556 C1557 1.397 . S
C1556 C1561 1.363 . S
C1557 H1528 0.950 . S
C1557 C1556 1.397 . S
C1557 C1558 1.334 . S
C1558 H1529 0.950 . S
C1558 C1557 1.334 . S
C1558 C1559 1.287 . S
C1559 C1558 1.287 . S
C1559 C1560 1.524 . S
C1559 H1562 0.999 . S
C1560 H1530 0.950 . S
C1560 C1559 1.524 . S
C1560 C1561 1.415 . S
C1561 H1531 0.950 . S
C1561 C1556 1.363 . S
C1561 C1560 1.415 . S
H1562 C1559 0.999 . S
H1563 C1544 0.913 . S
H1564 C1582 0.951 . S
H1565 C1584 0.951 . S
H1566 C1586 0.950 . S
H1567 C1587 0.950 . S
H1568 C1589 0.950 . S
H1569 C1592 0.950 . S
H1570 C1593 0.950 . S
H1571 C1595 0.950 . S
H1572 C1596 0.950 . S
H1573 C1597 0.951 . S
H1574 C1599 0.951 . S
H1575 C1601 0.950 . S
H1576 C1602 0.950 . S
H1577 C1604 0.950 . S
H1578 C1607 0.950 . S
H1579 C1608 0.950 . S
H1580 C1610 0.950 . S
H1581 C1611 0.950 . S
C1582 H1564 0.951 . S
C1582 C1583 1.366 . S
C1582 C1584 1.388 . S
C1583 C1582 1.366 . S
C1583 C1587 1.385 . S
C1584 H1565 0.951 . S
C1584 C1582 1.388 . S
C1584 C1585 1.366 . S
C1585 C1584 1.366 . S
C1585 C1586 1.414 . S
C1585 C1588 1.499 . S
C1586 H1566 0.950 . S
C1586 C1585 1.414 . S
C1586 C1587 1.374 . S
C1587 H1567 0.950 . S
C1587 C1583 1.385 . S
C1587 C1586 1.374 . S
C1588 C1585 1.499 . S
C1588 C1589 1.373 . S
C1588 C1590 1.389 . S
C1589 H1568 0.950 . S
C1589 C1588 1.373 . S
C1589 C1605 1.377 . S
C1590 C1588 1.389 . S
C1590 C1591 1.524 . S
C1590 C1604 1.377 . S
C1591 C1590 1.524 . S
C1591 C1592 1.397 . S
C1591 C1596 1.363 . S
C1592 H1569 0.950 . S
C1592 C1591 1.397 . S
C1592 C1593 1.334 . S
C1593 H1570 0.950 . S
C1593 C1592 1.334 . S
C1593 C1594 1.287 . S
C1594 C1593 1.287 . S
C1594 C1595 1.524 . S
C1594 H1613 0.913 . S
C1595 H1571 0.950 . S
C1595 C1594 1.524 . S
C1595 C1596 1.415 . S
C1596 H1572 0.950 . S
C1596 C1591 1.363 . S
C1596 C1595 1.415 . S
C1597 H1573 0.951 . S
C1597 C1598 1.366 . S
C1597 C1599 1.388 . S
C1598 C1597 1.366 . S
C1598 C1602 1.385 . S
C1599 H1574 0.951 . S
C1599 C1597 1.388 . S
C1599 C1600 1.366 . S
C1600 C1599 1.366 . S
C1600 C1601 1.414 . S
C1600 C1603 1.499 . S
C1601 H1575 0.950 . S
C1601 C1600 1.414 . S
C1601 C1602 1.374 . S
C1602 H1576 0.950 . S
C1602 C1598 1.385 . S
C1602 C1601 1.374 . S
C1603 C1600 1.499 . S
C1603 C1604 1.373 . S
C1603 C1605 1.389 . S
C1604 H1577 0.950 . S
C1604 C1590 1.377 . S
C1604 C1603 1.373 . S
C1605 C1589 1.377 . S
C1605 C1603 1.389 . S
C1605 C1606 1.524 . S
C1606 C1605 1.524 . S
C1606 C1607 1.397 . S
C1606 C1611 1.363 . S
C1607 H1578 0.950 . S
C1607 C1606 1.397 . S
C1607 C1608 1.334 . S
C1608 H1579 0.950 . S
C1608 C1607 1.334 . S
C1608 C1609 1.287 . S
C1609 C1608 1.287 . S
C1609 C1610 1.524 . S
C1609 H1612 0.999 . S
C1610 H1580 0.950 . S
C1610 C1609 1.524 . S
C1610 C1611 1.415 . S
C1611 H1581 0.950 . S
C1611 C1606 1.363 . S
C1611 C1610 1.415 . S
H1612 C1609 0.999 . S
H1613 C1594 0.913 . S
H1614 C1632 0.951 . S
H1615 C1634 0.951 . S
H1616 C1636 0.950 . S
H1617 C1637 0.950 . S
H1618 C1639 0.950 . S
H1619 C1642 0.950 . S
H1620 C1643 0.950 . S
H1621 C1645 0.950 . S
H1622 C1646 0.950 . S
H1623 C1647 0.953 1_565 S
H1624 C1649 0.951 . S
H1625 C1651 0.950 . S
H1626 C1652 0.950 . S
H1627 C1654 0.950 . S
H1628 C1657 0.950 . S
H1629 C1658 0.950 . S
H1630 C1660 0.950 . S
H1631 C1661 0.950 . S
C1632 H1614 0.951 . S
C1632 C1633 1.366 . S
C1632 C1634 1.388 . S
C1633 C1632 1.366 . S
C1633 C1637 1.385 . S
C1634 H1615 0.951 . S
C1634 C1632 1.388 . S
C1634 C1635 1.366 . S
C1635 C1634 1.366 . S
C1635 C1636 1.414 . S
C1635 C1638 1.499 . S
C1636 H1616 0.950 . S
C1636 C1635 1.414 . S
C1636 C1637 1.374 . S
C1637 H1617 0.950 . S
C1637 C1633 1.385 . S
C1637 C1636 1.374 . S
C1638 C1635 1.499 . S
C1638 C1639 1.373 . S
C1638 C1640 1.389 . S
C1639 H1618 0.950 . S
C1639 C1638 1.373 . S
C1639 C1655 1.377 . S
C1640 C1638 1.389 . S
C1640 C1641 1.524 . S
C1640 C1654 1.377 . S
C1641 C1640 1.524 . S
C1641 C1642 1.397 . S
C1641 C1646 1.363 . S
C1642 H1619 0.950 . S
C1642 C1641 1.397 . S
C1642 C1643 1.334 . S
C1643 H1620 0.950 . S
C1643 C1642 1.334 . S
C1643 C1644 1.287 . S
C1644 C1643 1.287 . S
C1644 C1645 1.524 . S
C1644 H1663 0.913 . S
C1645 H1621 0.950 . S
C1645 C1644 1.524 . S
C1645 C1646 1.415 . S
C1646 H1622 0.950 . S
C1646 C1641 1.363 . S
C1646 C1645 1.415 . S
C1647 H1623 0.953 1_545 S
C1647 C1648 1.366 . S
C1647 C1649 1.388 . S
C1648 C1647 1.366 . S
C1648 C1652 1.385 . S
C1649 H1624 0.951 . S
C1649 C1647 1.388 . S
C1649 C1650 1.366 . S
C1650 C1649 1.366 . S
C1650 C1651 1.414 . S
C1650 C1653 1.499 . S
C1651 H1625 0.950 . S
C1651 C1650 1.414 . S
C1651 C1652 1.374 . S
C1652 H1626 0.950 . S
C1652 C1648 1.385 . S
C1652 C1651 1.374 . S
C1653 C1650 1.499 . S
C1653 C1654 1.373 . S
C1653 C1655 1.389 . S
C1654 H1627 0.950 . S
C1654 C1640 1.377 . S
C1654 C1653 1.373 . S
C1655 C1639 1.377 . S
C1655 C1653 1.389 . S
C1655 C1656 1.524 1_545 S
C1656 C1655 1.524 1_565 S
C1656 C1657 1.397 . S
C1656 C1661 1.363 . S
C1657 H1628 0.950 . S
C1657 C1656 1.397 . S
C1657 C1658 1.334 . S
C1658 H1629 0.950 . S
C1658 C1657 1.334 . S
C1658 C1659 1.287 . S
C1659 C1658 1.287 . S
C1659 C1660 1.524 . S
C1659 H1662 0.999 . S
C1660 H1630 0.950 . S
C1660 C1659 1.524 . S
C1660 C1661 1.415 . S
C1661 H1631 0.950 . S
C1661 C1656 1.363 . S
C1661 C1660 1.415 . S
H1662 C1659 0.999 . S
H1663 C1644 0.913 . S
H1664 C1682 0.951 . S
H1665 C1684 0.951 . S
H1666 C1686 0.950 . S
H1667 C1687 0.950 . S
H1668 C1689 0.950 . S
H1669 C1692 0.950 . S
H1670 C1693 0.950 . S
H1671 C1695 0.950 . S
H1672 C1696 0.950 . S
H1673 C1697 0.951 . S
H1674 C1699 0.951 . S
H1675 C1701 0.950 . S
H1676 C1702 0.950 . S
H1677 C1704 0.950 . S
H1678 C1707 0.950 . S
H1679 C1708 0.950 . S
H1680 C1710 0.950 . S
H1681 C1711 0.950 . S
C1682 H1664 0.951 . S
C1682 C1683 1.366 . S
C1682 C1684 1.388 . S
C1683 C1682 1.366 . S
C1683 C1687 1.385 . S
C1684 H1665 0.951 . S
C1684 C1682 1.388 . S
C1684 C1685 1.366 . S
C1685 C1684 1.366 . S
C1685 C1686 1.414 . S
C1685 C1688 1.499 . S
C1686 H1666 0.950 . S
C1686 C1685 1.414 . S
C1686 C1687 1.374 . S
C1687 H1667 0.950 . S
C1687 C1683 1.385 . S
C1687 C1686 1.374 . S
C1688 C1685 1.499 . S
C1688 C1689 1.373 . S
C1688 C1690 1.389 . S
C1689 H1668 0.950 . S
C1689 C1688 1.373 . S
C1689 C1705 1.377 . S
C1690 C1688 1.389 . S
C1690 C1691 1.524 . S
C1690 C1704 1.377 . S
C1691 C1690 1.524 . S
C1691 C1692 1.397 . S
C1691 C1696 1.363 . S
C1692 H1669 0.950 . S
C1692 C1691 1.397 . S
C1692 C1693 1.334 . S
C1693 H1670 0.950 . S
C1693 C1692 1.334 . S
C1693 C1694 1.287 . S
C1694 C1693 1.287 . S
C1694 C1695 1.524 . S
C1694 H1713 0.913 . S
C1695 H1671 0.950 . S
C1695 C1694 1.524 . S
C1695 C1696 1.415 . S
C1696 H1672 0.950 . S
C1696 C1691 1.363 . S
C1696 C1695 1.415 . S
C1697 H1673 0.951 . S
C1697 C1698 1.366 . S
C1697 C1699 1.388 . S
C1698 C1697 1.366 . S
C1698 C1702 1.385 . S
C1699 H1674 0.951 . S
C1699 C1697 1.388 . S
C1699 C1700 1.366 . S
C1700 C1699 1.366 . S
C1700 C1701 1.414 . S
C1700 C1703 1.499 . S
C1701 H1675 0.950 . S
C1701 C1700 1.414 . S
C1701 C1702 1.374 . S
C1702 H1676 0.950 . S
C1702 C1698 1.385 . S
C1702 C1701 1.374 . S
C1703 C1700 1.499 . S
C1703 C1704 1.373 . S
C1703 C1705 1.389 . S
C1704 H1677 0.950 . S
C1704 C1690 1.377 . S
C1704 C1703 1.373 . S
C1705 C1689 1.377 . S
C1705 C1703 1.389 . S
C1705 C1706 1.524 . S
C1706 C1705 1.524 . S
C1706 C1707 1.397 . S
C1706 C1711 1.363 . S
C1707 H1678 0.950 . S
C1707 C1706 1.397 . S
C1707 C1708 1.334 . S
C1708 H1679 0.950 . S
C1708 C1707 1.334 . S
C1708 C1709 1.287 . S
C1709 C1708 1.287 . S
C1709 C1710 1.524 . S
C1709 H1712 0.999 . S
C1710 H1680 0.950 . S
C1710 C1709 1.524 . S
C1710 C1711 1.415 . S
C1711 H1681 0.950 . S
C1711 C1706 1.363 . S
C1711 C1710 1.415 . S
H1712 C1709 0.999 . S
H1713 C1694 0.913 . S
H1714 C1732 0.951 . S
H1715 C1734 0.951 . S
H1716 C1736 0.950 . S
H1717 C1737 0.950 . S
H1718 C1739 0.950 . S
H1719 C1742 0.950 . S
H1720 C1743 0.950 . S
H1721 C1745 0.950 . S
H1722 C1746 0.950 . S
H1723 C1747 0.951 . S
H1724 C1749 0.951 . S
H1725 C1751 0.950 . S
H1726 C1752 0.950 . S
H1727 C1754 0.950 . S
H1728 C1757 0.950 . S
H1729 C1758 0.950 . S
H1730 C1760 0.950 . S
H1731 C1761 0.950 . S
C1732 H1714 0.951 . S
C1732 C1733 1.366 . S
C1732 C1734 1.388 . S
C1733 C1732 1.366 . S
C1733 C1737 1.385 . S
C1734 H1715 0.951 . S
C1734 C1732 1.388 . S
C1734 C1735 1.366 . S
C1735 C1734 1.366 . S
C1735 C1736 1.414 . S
C1735 C1738 1.499 . S
C1736 H1716 0.950 . S
C1736 C1735 1.414 . S
C1736 C1737 1.374 . S
C1737 H1717 0.950 . S
C1737 C1733 1.385 . S
C1737 C1736 1.374 . S
C1738 C1735 1.499 . S
C1738 C1739 1.373 . S
C1738 C1740 1.389 . S
C1739 H1718 0.950 . S
C1739 C1738 1.373 . S
C1739 C1755 1.377 . S
C1740 C1738 1.389 . S
C1740 C1741 1.524 . S
C1740 C1754 1.377 . S
C1741 C1740 1.524 . S
C1741 C1742 1.397 . S
C1741 C1746 1.363 . S
C1742 H1719 0.950 . S
C1742 C1741 1.397 . S
C1742 C1743 1.334 . S
C1743 H1720 0.950 . S
C1743 C1742 1.334 . S
C1743 C1744 1.287 . S
C1744 C1743 1.287 . S
C1744 C1745 1.524 . S
C1744 H1763 0.913 . S
C1745 H1721 0.950 . S
C1745 C1744 1.524 . S
C1745 C1746 1.415 . S
C1746 H1722 0.950 . S
C1746 C1741 1.363 . S
C1746 C1745 1.415 . S
C1747 H1723 0.951 . S
C1747 C1748 1.366 . S
C1747 C1749 1.388 . S
C1748 C1747 1.366 . S
C1748 C1752 1.385 . S
C1749 H1724 0.951 . S
C1749 C1747 1.388 . S
C1749 C1750 1.366 . S
C1750 C1749 1.366 . S
C1750 C1751 1.414 . S
C1750 C1753 1.499 . S
C1751 H1725 0.950 . S
C1751 C1750 1.414 . S
C1751 C1752 1.374 . S
C1752 H1726 0.950 . S
C1752 C1748 1.385 . S
C1752 C1751 1.374 . S
C1753 C1750 1.499 . S
C1753 C1754 1.373 . S
C1753 C1755 1.389 . S
C1754 H1727 0.950 . S
C1754 C1740 1.377 . S
C1754 C1753 1.373 . S
C1755 C1739 1.377 . S
C1755 C1753 1.389 . S
C1755 C1756 1.524 . S
C1756 C1755 1.524 . S
C1756 C1757 1.397 . S
C1756 C1761 1.363 . S
C1757 H1728 0.950 . S
C1757 C1756 1.397 . S
C1757 C1758 1.334 . S
C1758 H1729 0.950 . S
C1758 C1757 1.334 . S
C1758 C1759 1.287 . S
C1759 C1758 1.287 . S
C1759 C1760 1.524 . S
C1759 H1762 0.999 . S
C1760 H1730 0.950 . S
C1760 C1759 1.524 . S
C1760 C1761 1.415 . S
C1761 H1731 0.950 . S
C1761 C1756 1.363 . S
C1761 C1760 1.415 . S
H1762 C1759 0.999 . S
H1763 C1744 0.913 . S
H1764 C1782 0.951 . S
H1765 C1784 0.951 . S
H1766 C1786 0.950 . S
H1767 C1787 0.950 . S
H1768 C1789 0.950 . S
H1769 C1792 0.950 . S
H1770 C1793 0.950 . S
H1771 C1795 0.950 . S
H1772 C1796 0.950 . S
H1773 C1797 0.951 . S
H1774 C1799 0.951 . S
H1775 C1801 0.950 . S
H1776 C1802 0.950 . S
H1777 C1804 0.950 . S
H1778 C1807 0.950 . S
H1779 C1808 0.950 . S
H1780 C1810 0.950 . S
H1781 C1811 0.950 . S
C1782 H1764 0.951 . S
C1782 C1783 1.366 . S
C1782 C1784 1.388 . S
C1783 C1782 1.366 . S
C1783 C1787 1.385 . S
C1784 H1765 0.951 . S
C1784 C1782 1.388 . S
C1784 C1785 1.366 . S
C1785 C1784 1.366 . S
C1785 C1786 1.414 . S
C1785 C1788 1.499 . S
C1786 H1766 0.950 . S
C1786 C1785 1.414 . S
C1786 C1787 1.374 . S
C1787 H1767 0.950 . S
C1787 C1783 1.385 . S
C1787 C1786 1.374 . S
C1788 C1785 1.499 . S
C1788 C1789 1.373 . S
C1788 C1790 1.389 . S
C1789 H1768 0.950 . S
C1789 C1788 1.373 . S
C1789 C1805 1.377 . S
C1790 C1788 1.389 . S
C1790 C1791 1.524 . S
C1790 C1804 1.377 . S
C1791 C1790 1.524 . S
C1791 C1792 1.397 . S
C1791 C1796 1.363 . S
C1792 H1769 0.950 . S
C1792 C1791 1.397 . S
C1792 C1793 1.334 . S
C1793 H1770 0.950 . S
C1793 C1792 1.334 . S
C1793 C1794 1.287 . S
C1794 C1793 1.287 . S
C1794 C1795 1.524 . S
C1794 H1813 0.913 . S
C1795 H1771 0.950 . S
C1795 C1794 1.524 . S
C1795 C1796 1.415 . S
C1796 H1772 0.950 . S
C1796 C1791 1.363 . S
C1796 C1795 1.415 . S
C1797 H1773 0.951 . S
C1797 C1798 1.366 . S
C1797 C1799 1.388 . S
C1798 C1797 1.366 . S
C1798 C1802 1.385 . S
C1799 H1774 0.951 . S
C1799 C1797 1.388 . S
C1799 C1800 1.366 . S
C1800 C1799 1.366 . S
C1800 C1801 1.414 . S
C1800 C1803 1.499 . S
C1801 H1775 0.950 . S
C1801 C1800 1.414 . S
C1801 C1802 1.374 . S
C1802 H1776 0.950 . S
C1802 C1798 1.385 . S
C1802 C1801 1.374 . S
C1803 C1800 1.499 . S
C1803 C1804 1.373 . S
C1803 C1805 1.389 . S
C1804 H1777 0.950 . S
C1804 C1790 1.377 . S
C1804 C1803 1.373 . S
C1805 C1789 1.377 . S
C1805 C1803 1.389 . S
C1805 C1806 1.524 . S
C1806 C1805 1.524 . S
C1806 C1807 1.397 . S
C1806 C1811 1.363 . S
C1807 H1778 0.950 . S
C1807 C1806 1.397 . S
C1807 C1808 1.334 . S
C1808 H1779 0.950 . S
C1808 C1807 1.334 . S
C1808 C1809 1.287 . S
C1809 C1808 1.287 . S
C1809 C1810 1.524 . S
C1809 H1812 0.999 . S
C1810 H1780 0.950 . S
C1810 C1809 1.524 . S
C1810 C1811 1.415 . S
C1811 H1781 0.950 . S
C1811 C1806 1.363 . S
C1811 C1810 1.415 . S
H1812 C1809 0.999 . S
H1813 C1794 0.913 . S
H1814 C1832 0.951 1_455 S
H1815 C1834 0.951 . S
H1816 C1836 0.950 . S
H1817 C1837 0.950 . S
H1818 C1839 0.950 . S
H1819 C1842 0.950 . S
H1820 C1843 0.950 . S
H1821 C1845 0.950 . S
H1822 C1846 0.950 . S
H1823 C1847 0.951 . S
H1824 C1849 0.951 . S
H1825 C1851 0.950 . S
H1826 C1852 0.950 . S
H1827 C1854 0.950 . S
H1828 C1857 0.950 . S
H1829 C1858 0.950 . S
H1830 C1860 0.950 . S
H1831 C1861 0.950 . S
C1832 H1814 0.951 1_655 S
C1832 C1833 1.366 . S
C1832 C1834 1.388 . S
C1833 C1832 1.366 . S
C1833 C1837 1.385 1_545 S
C1834 H1815 0.951 . S
C1834 C1832 1.388 . S
C1834 C1835 1.366 . S
C1835 C1834 1.366 . S
C1835 C1836 1.414 1_545 S
C1835 C1838 1.499 . S
C1836 H1816 0.950 . S
C1836 C1835 1.414 1_565 S
C1836 C1837 1.374 . S
C1837 H1817 0.950 . S
C1837 C1833 1.385 1_565 S
C1837 C1836 1.374 . S
C1838 C1835 1.499 . S
C1838 C1839 1.373 . S
C1838 C1840 1.389 . S
C1839 H1818 0.950 . S
C1839 C1838 1.373 . S
C1839 C1855 1.377 . S
C1840 C1838 1.389 . S
C1840 C1841 1.524 . S
C1840 C1854 1.377 . S
C1841 C1840 1.524 . S
C1841 C1842 1.397 1_545 S
C1841 C1846 1.363 . S
C1842 H1819 0.950 . S
C1842 C1841 1.397 1_565 S
C1842 C1843 1.334 1_655 S
C1843 H1820 0.950 . S
C1843 C1842 1.334 1_455 S
C1843 C1844 1.287 1_565 S
C1844 C1843 1.287 1_545 S
C1844 C1845 1.524 . S
C1844 H1863 0.913 . S
C1845 H1821 0.950 . S
C1845 C1844 1.524 . S
C1845 C1846 1.415 1_455 S
C1846 H1822 0.950 . S
C1846 C1841 1.363 . S
C1846 C1845 1.415 1_655 S
C1847 H1823 0.951 . S
C1847 C1848 1.366 1_565 S
C1847 C1849 1.388 . S
C1848 C1847 1.366 1_545 S
C1848 C1852 1.385 . S
C1849 H1824 0.951 . S
C1849 C1847 1.388 . S
C1849 C1850 1.366 1_565 S
C1850 C1849 1.366 1_545 S
C1850 C1851 1.414 . S
C1850 C1853 1.499 . S
C1851 H1825 0.950 . S
C1851 C1850 1.414 . S
C1851 C1852 1.374 . S
C1852 H1826 0.950 . S
C1852 C1848 1.385 . S
C1852 C1851 1.374 . S
C1853 C1850 1.499 . S
C1853 C1854 1.373 . S
C1853 C1855 1.389 . S
C1854 H1827 0.950 . S
C1854 C1840 1.377 . S
C1854 C1853 1.373 . S
C1855 C1839 1.377 . S
C1855 C1853 1.389 . S
C1855 C1856 1.524 . S
C1856 C1855 1.524 . S
C1856 C1857 1.397 . S
C1856 C1861 1.363 1_545 S
C1857 H1828 0.950 . S
C1857 C1856 1.397 . S
C1857 C1858 1.334 . S
C1858 H1829 0.950 . S
C1858 C1857 1.334 . S
C1858 C1859 1.287 . S
C1859 C1858 1.287 . S
C1859 C1860 1.524 1_545 S
C1859 H1862 0.999 . S
C1860 H1830 0.950 . S
C1860 C1859 1.524 1_565 S
C1860 C1861 1.415 . S
C1861 H1831 0.950 . S
C1861 C1856 1.363 1_565 S
C1861 C1860 1.415 . S
H1862 C1859 0.999 . S
H1863 C1844 0.913 . S
H1864 C1882 0.951 . S
H1865 C1884 0.951 . S
H1866 C1886 0.950 . S
H1867 C1887 0.950 . S
H1868 C1889 0.950 . S
H1869 C1892 0.950 . S
H1870 C1893 0.950 . S
H1871 C1895 0.950 . S
H1872 C1896 0.950 . S
H1873 C1897 0.951 . S
H1874 C1899 0.951 . S
H1875 C1901 0.950 . S
H1876 C1902 0.950 . S
H1877 C1904 0.950 . S
H1878 C1907 0.950 . S
H1879 C1908 0.950 . S
H1880 C1910 0.950 . S
H1881 C1911 0.950 . S
C1882 H1864 0.951 . S
C1882 C1883 1.366 . S
C1882 C1884 1.388 . S
C1883 C1882 1.366 . S
C1883 C1887 1.385 . S
C1884 H1865 0.951 . S
C1884 C1882 1.388 . S
C1884 C1885 1.366 . S
C1885 C1884 1.366 . S
C1885 C1886 1.414 . S
C1885 C1888 1.499 . S
C1886 H1866 0.950 . S
C1886 C1885 1.414 . S
C1886 C1887 1.374 . S
C1887 H1867 0.950 . S
C1887 C1883 1.385 . S
C1887 C1886 1.374 . S
C1888 C1885 1.499 . S
C1888 C1889 1.373 . S
C1888 C1890 1.389 . S
C1889 H1868 0.950 . S
C1889 C1888 1.373 . S
C1889 C1905 1.377 . S
C1890 C1888 1.389 . S
C1890 C1891 1.524 . S
C1890 C1904 1.377 . S
C1891 C1890 1.524 . S
C1891 C1892 1.397 . S
C1891 C1896 1.363 . S
C1892 H1869 0.950 . S
C1892 C1891 1.397 . S
C1892 C1893 1.334 . S
C1893 H1870 0.950 . S
C1893 C1892 1.334 . S
C1893 C1894 1.287 . S
C1894 C1893 1.287 . S
C1894 C1895 1.524 . S
C1894 H1913 0.913 . S
C1895 H1871 0.950 . S
C1895 C1894 1.524 . S
C1895 C1896 1.415 . S
C1896 H1872 0.950 . S
C1896 C1891 1.363 . S
C1896 C1895 1.415 . S
C1897 H1873 0.951 . S
C1897 C1898 1.366 . S
C1897 C1899 1.388 . S
C1898 C1897 1.366 . S
C1898 C1902 1.385 . S
C1899 H1874 0.951 . S
C1899 C1897 1.388 . S
C1899 C1900 1.366 . S
C1900 C1899 1.366 . S
C1900 C1901 1.414 . S
C1900 C1903 1.499 . S
C1901 H1875 0.950 . S
C1901 C1900 1.414 . S
C1901 C1902 1.374 . S
C1902 H1876 0.950 . S
C1902 C1898 1.385 . S
C1902 C1901 1.374 . S
C1903 C1900 1.499 . S
C1903 C1904 1.373 . S
C1903 C1905 1.389 . S
C1904 H1877 0.950 . S
C1904 C1890 1.377 . S
C1904 C1903 1.373 . S
C1905 C1889 1.377 . S
C1905 C1903 1.389 . S
C1905 C1906 1.524 . S
C1906 C1905 1.524 . S
C1906 C1907 1.397 . S
C1906 C1911 1.363 . S
C1907 H1878 0.950 . S
C1907 C1906 1.397 . S
C1907 C1908 1.334 . S
C1908 H1879 0.950 . S
C1908 C1907 1.334 . S
C1908 C1909 1.287 . S
C1909 C1908 1.287 . S
C1909 C1910 1.524 . S
C1909 H1912 0.999 . S
C1910 H1880 0.950 . S
C1910 C1909 1.524 . S
C1910 C1911 1.415 . S
C1911 H1881 0.950 . S
C1911 C1906 1.363 . S
C1911 C1910 1.415 . S
H1912 C1909 0.999 . S
H1913 C1894 0.913 . S
H1914 C1932 0.956 . S
H1915 C1934 0.951 . S
H1916 C1936 0.950 . S
H1917 C1937 0.938 1_655 S
H1918 C1939 0.950 . S
H1919 C1942 0.950 . S
H1920 C1943 0.950 . S
H1921 C1945 0.950 . S
H1922 C1946 0.950 . S
H1923 C1947 0.951 . S
H1924 C1949 0.951 . S
H1925 C1951 0.950 . S
H1926 C1952 0.950 . S
H1927 C1954 0.950 . S
H1928 C1957 0.950 . S
H1929 C1958 0.950 . S
H1930 C1960 0.950 . S
H1931 C1961 0.950 . S
C1932 H1914 0.956 . S
C1932 C1933 1.366 1_455 S
C1932 C1934 1.388 . S
C1933 C1932 1.366 1_655 S
C1933 C1937 1.373 1_655 S
C1934 H1915 0.951 . S
C1934 C1932 1.388 . S
C1934 C1935 1.366 . S
C1935 C1934 1.366 . S
C1935 C1936 1.414 . S
C1935 C1938 1.499 . S
C1936 H1916 0.950 . S
C1936 C1935 1.414 . S
C1936 C1937 1.399 . S
C1937 H1917 0.938 1_455 S
C1937 C1933 1.373 1_455 S
C1937 C1936 1.399 . S
C1938 C1935 1.499 . S
C1938 C1939 1.373 . S
C1938 C1940 1.389 . S
C1939 H1918 0.950 . S
C1939 C1938 1.373 . S
C1939 C1955 1.377 . S
C1940 C1938 1.389 . S
C1940 C1941 1.524 . S
C1940 C1954 1.377 . S
C1941 C1940 1.524 . S
C1941 C1942 1.397 . S
C1941 C1946 1.363 . S
C1942 H1919 0.950 . S
C1942 C1941 1.397 . S
C1942 C1943 1.334 . S
C1943 H1920 0.950 . S
C1943 C1942 1.334 . S
C1943 C1944 1.287 . S
C1944 C1943 1.287 . S
C1944 C1945 1.524 . S
C1944 H1963 0.913 . S
C1945 H1921 0.950 . S
C1945 C1944 1.524 . S
C1945 C1946 1.415 . S
C1946 H1922 0.950 . S
C1946 C1941 1.363 . S
C1946 C1945 1.415 . S
C1947 H1923 0.951 . S
C1947 C1948 1.366 . S
C1947 C1949 1.388 . S
C1948 C1947 1.366 . S
C1948 C1952 1.385 . S
C1949 H1924 0.951 . S
C1949 C1947 1.388 . S
C1949 C1950 1.366 . S
C1950 C1949 1.366 . S
C1950 C1951 1.414 . S
C1950 C1953 1.499 . S
C1951 H1925 0.950 . S
C1951 C1950 1.414 . S
C1951 C1952 1.374 . S
C1952 H1926 0.950 . S
C1952 C1948 1.385 . S
C1952 C1951 1.374 . S
C1953 C1950 1.499 . S
C1953 C1954 1.373 . S
C1953 C1955 1.389 . S
C1954 H1927 0.950 . S
C1954 C1940 1.377 . S
C1954 C1953 1.373 . S
C1955 C1939 1.377 . S
C1955 C1953 1.389 . S
C1955 C1956 1.524 . S
C1956 C1955 1.524 . S
C1956 C1957 1.397 . S
C1956 C1961 1.363 . S
C1957 H1928 0.950 . S
C1957 C1956 1.397 . S
C1957 C1958 1.334 . S
C1958 H1929 0.950 . S
C1958 C1957 1.334 . S
C1958 C1959 1.287 . S
C1959 C1958 1.287 . S
C1959 C1960 1.524 . S
C1959 H1962 0.999 . S
C1960 H1930 0.950 . S
C1960 C1959 1.524 . S
C1960 C1961 1.415 . S
C1961 H1931 0.950 . S
C1961 C1956 1.363 . S
C1961 C1960 1.415 . S
H1962 C1959 0.999 . S
H1963 C1944 0.913 . S
H1964 C1982 0.951 . S
H1965 C1984 0.951 . S
H1966 C1986 0.950 . S
H1967 C1987 0.950 . S
H1968 C1989 0.950 . S
H1969 C1992 0.950 . S
H1970 C1993 0.950 . S
H1971 C1995 0.950 . S
H1972 C1996 0.950 . S
H1973 C1997 0.951 . S
H1974 C1999 0.951 . S
H1975 C2001 0.950 . S
H1976 C2002 0.950 . S
H1977 C2004 0.950 . S
H1978 C2007 0.950 . S
H1979 C2008 0.950 . S
H1980 C2010 0.950 . S
H1981 C2011 0.950 . S
C1982 H1964 0.951 . S
C1982 C1983 1.366 . S
C1982 C1984 1.388 . S
C1983 C1982 1.366 . S
C1983 C1987 1.385 . S
C1984 H1965 0.951 . S
C1984 C1982 1.388 . S
C1984 C1985 1.366 . S
C1985 C1984 1.366 . S
C1985 C1986 1.414 . S
C1985 C1988 1.499 . S
C1986 H1966 0.950 . S
C1986 C1985 1.414 . S
C1986 C1987 1.374 . S
C1987 H1967 0.950 . S
C1987 C1983 1.385 . S
C1987 C1986 1.374 . S
C1988 C1985 1.499 . S
C1988 C1989 1.373 . S
C1988 C1990 1.389 . S
C1989 H1968 0.950 . S
C1989 C1988 1.373 . S
C1989 C2005 1.377 . S
C1990 C1988 1.389 . S
C1990 C1991 1.524 . S
C1990 C2004 1.377 . S
C1991 C1990 1.524 . S
C1991 C1992 1.397 . S
C1991 C1996 1.363 . S
C1992 H1969 0.950 . S
C1992 C1991 1.397 . S
C1992 C1993 1.334 . S
C1993 H1970 0.950 . S
C1993 C1992 1.334 . S
C1993 C1994 1.287 . S
C1994 C1993 1.287 . S
C1994 C1995 1.524 . S
C1994 H2013 0.913 . S
C1995 H1971 0.950 . S
C1995 C1994 1.524 . S
C1995 C1996 1.415 . S
C1996 H1972 0.950 . S
C1996 C1991 1.363 . S
C1996 C1995 1.415 . S
C1997 H1973 0.951 . S
C1997 C1998 1.366 . S
C1997 C1999 1.388 . S
C1998 C1997 1.366 . S
C1998 C2002 1.385 . S
C1999 H1974 0.951 . S
C1999 C1997 1.388 . S
C1999 C2000 1.366 . S
C2000 C1999 1.366 . S
C2000 C2001 1.414 . S
C2000 C2003 1.499 . S
C2001 H1975 0.950 . S
C2001 C2000 1.414 . S
C2001 C2002 1.374 . S
C2002 H1976 0.950 . S
C2002 C1998 1.385 . S
C2002 C2001 1.374 . S
C2003 C2000 1.499 . S
C2003 C2004 1.373 . S
C2003 C2005 1.389 . S
C2004 H1977 0.950 . S
C2004 C1990 1.377 . S
C2004 C2003 1.373 . S
C2005 C1989 1.377 . S
C2005 C2003 1.389 . S
C2005 C2006 1.524 . S
C2006 C2005 1.524 . S
C2006 C2007 1.397 . S
C2006 C2011 1.363 . S
C2007 H1978 0.950 . S
C2007 C2006 1.397 . S
C2007 C2008 1.334 . S
C2008 H1979 0.950 . S
C2008 C2007 1.334 . S
C2008 C2009 1.287 . S
C2009 C2008 1.287 . S
C2009 C2010 1.524 . S
C2009 H2012 0.999 . S
C2010 H1980 0.950 . S
C2010 C2009 1.524 . S
C2010 C2011 1.415 . S
C2011 H1981 0.950 . S
C2011 C2006 1.363 . S
C2011 C2010 1.415 . S
H2012 C2009 0.999 . S
H2013 C1994 0.913 . S
H2014 C2032 0.951 . S
H2015 C2034 0.951 . S
H2016 C2036 0.896 1_455 S
H2017 C2037 0.950 1_455 S
H2018 C2039 0.922 1_455 S
H2019 C2042 0.950 . S
H2020 C2043 0.950 . S
H2021 C2045 0.950 . S
H2022 C2046 0.950 . S
H2023 C2047 0.951 . S
H2024 C2049 0.951 . S
H2025 C2051 0.950 . S
H2026 C2052 0.950 . S
H2027 C2054 0.950 . S
H2028 C2057 0.950 1_655 S
H2029 C2058 0.950 . S
H2030 C2060 0.950 . S
H2031 C2061 0.950 . S
C2032 H2014 0.951 . S
C2032 C2033 1.366 . S
C2032 C2034 1.388 . S
C2033 C2032 1.366 . S
C2033 C2037 1.385 . S
C2034 H2015 0.951 . S
C2034 C2032 1.388 . S
C2034 C2035 1.366 . S
C2035 C2034 1.366 . S
C2035 C2036 1.458 . S
C2035 C2038 1.499 1_554 S
C2036 H2016 0.896 1_655 S
C2036 C2035 1.458 . S
C2036 C2037 1.386 . S
C2037 H2017 0.950 1_655 S
C2037 C2033 1.385 . S
C2037 C2036 1.386 . S
C2038 C2035 1.499 1_556 S
C2038 C2039 1.411 . S
C2038 C2040 1.389 1_556 S
C2039 H2018 0.922 1_655 S
C2039 C2038 1.411 . S
C2039 C2055 1.366 1_655 S
C2040 C2038 1.389 1_554 S
C2040 C2041 1.524 . S
C2040 C2054 1.377 1_554 S
C2041 C2040 1.524 . S
C2041 C2042 1.397 . S
C2041 C2046 1.363 . S
C2042 H2019 0.950 . S
C2042 C2041 1.397 . S
C2042 C2043 1.334 . S
C2043 H2020 0.950 . S
C2043 C2042 1.334 . S
C2043 C2044 1.287 . S
C2044 C2043 1.287 . S
C2044 C2045 1.524 . S
C2044 H2063 0.913 . S
C2045 H2021 0.950 . S
C2045 C2044 1.524 . S
C2045 C2046 1.415 . S
C2046 H2022 0.950 . S
C2046 C2041 1.363 . S
C2046 C2045 1.415 . S
C2047 H2023 0.951 . S
C2047 C2048 1.366 1_455 S
C2047 C2049 1.388 . S
C2048 C2047 1.366 1_655 S
C2048 C2052 1.385 . S
C2049 H2024 0.951 . S
C2049 C2047 1.388 . S
C2049 C2050 1.366 1_455 S
C2050 C2049 1.366 1_655 S
C2050 C2051 1.414 . S
C2050 C2053 1.499 . S
C2051 H2025 0.950 . S
C2051 C2050 1.414 . S
C2051 C2052 1.374 . S
C2052 H2026 0.950 . S
C2052 C2048 1.385 . S
C2052 C2051 1.374 . S
C2053 C2050 1.499 . S
C2053 C2054 1.373 . S
C2053 C2055 1.368 1_655 S
C2054 H2027 0.950 . S
C2054 C2040 1.377 1_556 S
C2054 C2053 1.373 . S
C2055 C2039 1.366 1_455 S
C2055 C2053 1.368 1_455 S
C2055 C2056 1.552 . S
C2056 C2055 1.552 . S
C2056 C2057 1.397 . S
C2056 C2061 1.363 . S
C2057 H2028 0.950 1_455 S
C2057 C2056 1.397 . S
C2057 C2058 1.334 . S
C2058 H2029 0.950 . S
C2058 C2057 1.334 . S
C2058 C2059 1.287 . S
C2059 C2058 1.287 . S
C2059 C2060 1.524 . S
C2059 H2062 0.999 . S
C2060 H2030 0.950 . S
C2060 C2059 1.524 . S
C2060 C2061 1.415 . S
C2061 H2031 0.950 . S
C2061 C2056 1.363 . S
C2061 C2060 1.415 . S
H2062 C2059 0.999 . S
H2063 C2044 0.913 . S
H2064 C2082 0.951 . S
H2065 C2084 0.951 . S
H2066 C2086 0.950 . S
H2067 C2087 0.950 . S
H2068 C2089 0.950 . S
H2069 C2092 0.950 . S
H2070 C2093 0.950 . S
H2071 C2095 0.950 . S
H2072 C2096 0.950 . S
H2073 C2097 0.951 . S
H2074 C2099 0.951 . S
H2075 C2101 0.950 . S
H2076 C2102 0.950 . S
H2077 C2104 0.950 . S
H2078 C2107 0.950 . S
H2079 C2108 0.950 . S
H2080 C2110 0.950 . S
H2081 C2111 0.950 . S
C2082 H2064 0.951 . S
C2082 C2083 1.366 . S
C2082 C2084 1.388 . S
C2083 C2082 1.366 . S
C2083 C2087 1.385 . S
C2084 H2065 0.951 . S
C2084 C2082 1.388 . S
C2084 C2085 1.366 . S
C2085 C2084 1.366 . S
C2085 C2086 1.414 . S
C2085 C2088 1.499 . S
C2086 H2066 0.950 . S
C2086 C2085 1.414 . S
C2086 C2087 1.374 . S
C2087 H2067 0.950 . S
C2087 C2083 1.385 . S
C2087 C2086 1.374 . S
C2088 C2085 1.499 . S
C2088 C2089 1.373 . S
C2088 C2090 1.389 . S
C2089 H2068 0.950 . S
C2089 C2088 1.373 . S
C2089 C2105 1.377 . S
C2090 C2088 1.389 . S
C2090 C2091 1.524 . S
C2090 C2104 1.377 . S
C2091 C2090 1.524 . S
C2091 C2092 1.397 . S
C2091 C2096 1.363 . S
C2092 H2069 0.950 . S
C2092 C2091 1.397 . S
C2092 C2093 1.334 . S
C2093 H2070 0.950 . S
C2093 C2092 1.334 . S
C2093 C2094 1.287 . S
C2094 C2093 1.287 . S
C2094 C2095 1.524 . S
C2094 H2113 0.913 . S
C2095 H2071 0.950 . S
C2095 C2094 1.524 . S
C2095 C2096 1.415 . S
C2096 H2072 0.950 . S
C2096 C2091 1.363 . S
C2096 C2095 1.415 . S
C2097 H2073 0.951 . S
C2097 C2098 1.366 . S
C2097 C2099 1.388 . S
C2098 C2097 1.366 . S
C2098 C2102 1.385 . S
C2099 H2074 0.951 . S
C2099 C2097 1.388 . S
C2099 C2100 1.366 . S
C2100 C2099 1.366 . S
C2100 C2101 1.414 . S
C2100 C2103 1.499 . S
C2101 H2075 0.950 . S
C2101 C2100 1.414 . S
C2101 C2102 1.374 . S
C2102 H2076 0.950 . S
C2102 C2098 1.385 . S
C2102 C2101 1.374 . S
C2103 C2100 1.499 . S
C2103 C2104 1.373 . S
C2103 C2105 1.389 . S
C2104 H2077 0.950 . S
C2104 C2090 1.377 . S
C2104 C2103 1.373 . S
C2105 C2089 1.377 . S
C2105 C2103 1.389 . S
C2105 C2106 1.524 . S
C2106 C2105 1.524 . S
C2106 C2107 1.397 . S
C2106 C2111 1.363 . S
C2107 H2078 0.950 . S
C2107 C2106 1.397 . S
C2107 C2108 1.334 . S
C2108 H2079 0.950 . S
C2108 C2107 1.334 . S
C2108 C2109 1.287 . S
C2109 C2108 1.287 . S
C2109 C2110 1.524 . S
C2109 H2112 0.999 . S
C2110 H2080 0.950 . S
C2110 C2109 1.524 . S
C2110 C2111 1.415 . S
C2111 H2081 0.950 . S
C2111 C2106 1.363 . S
C2111 C2110 1.415 . S
H2112 C2109 0.999 . S
H2113 C2094 0.913 . S
H2114 C2132 0.951 . S
H2115 C2134 0.951 1_556 S
H2116 C2136 0.950 . S
H2117 C2137 0.950 . S
H2118 C2139 0.921 1_655 S
H2119 C2142 0.950 1_554 S
H2120 C2143 0.950 . S
H2121 C2145 0.950 . S
H2122 C2146 0.950 . S
H2123 C2147 0.951 . S
H2124 C2149 0.951 . S
H2125 C2151 0.950 . S
H2126 C2152 0.950 . S
H2127 C2154 0.950 . S
H2128 C2157 0.950 . S
H2129 C2158 0.950 . S
H2130 C2160 0.950 . S
H2131 C2161 0.950 . S
C2132 H2114 0.951 . S
C2132 C2133 1.366 . S
C2132 C2134 1.388 . S
C2133 C2132 1.366 . S
C2133 C2137 1.385 . S
C2134 H2115 0.951 1_554 S
C2134 C2132 1.388 . S
C2134 C2135 1.366 . S
C2135 C2134 1.366 . S
C2135 C2136 1.414 . S
C2135 C2138 1.499 . S
C2136 H2116 0.950 . S
C2136 C2135 1.414 . S
C2136 C2137 1.374 . S
C2137 H2117 0.950 . S
C2137 C2133 1.385 . S
C2137 C2136 1.374 . S
C2138 C2135 1.499 . S
C2138 C2139 1.418 . S
C2138 C2140 1.389 1_554 S
C2139 H2118 0.921 1_455 S
C2139 C2138 1.418 . S
C2139 C2155 1.364 1_454 S
C2140 C2138 1.389 1_556 S
C2140 C2141 1.524 . S
C2140 C2154 1.377 . S
C2141 C2140 1.524 . S
C2141 C2142 1.397 . S
C2141 C2146 1.363 . S
C2142 H2119 0.950 1_556 S
C2142 C2141 1.397 . S
C2142 C2143 1.334 . S
C2143 H2120 0.950 . S
C2143 C2142 1.334 . S
C2143 C2144 1.287 . S
C2144 C2143 1.287 . S
C2144 C2145 1.524 . S
C2144 H2163 0.913 . S
C2145 H2121 0.950 . S
C2145 C2144 1.524 . S
C2145 C2146 1.415 . S
C2146 H2122 0.950 . S
C2146 C2141 1.363 . S
C2146 C2145 1.415 . S
C2147 H2123 0.951 . S
C2147 C2148 1.366 . S
C2147 C2149 1.388 . S
C2148 C2147 1.366 . S
C2148 C2152 1.385 . S
C2149 H2124 0.951 . S
C2149 C2147 1.388 . S
C2149 C2150 1.366 . S
C2150 C2149 1.366 . S
C2150 C2151 1.414 . S
C2150 C2153 1.499 . S
C2151 H2125 0.950 . S
C2151 C2150 1.414 . S
C2151 C2152 1.374 . S
C2152 H2126 0.950 . S
C2152 C2148 1.385 . S
C2152 C2151 1.374 . S
C2153 C2150 1.499 . S
C2153 C2154 1.373 . S
C2153 C2155 1.389 1_455 S
C2154 H2127 0.950 . S
C2154 C2140 1.377 . S
C2154 C2153 1.373 . S
C2155 C2139 1.364 1_656 S
C2155 C2153 1.389 1_655 S
C2155 C2156 1.523 1_556 S
C2156 C2155 1.523 1_554 S
C2156 C2157 1.393 1_554 S
C2156 C2161 1.368 . S
C2157 H2128 0.950 . S
C2157 C2156 1.393 1_556 S
C2157 C2158 1.334 . S
C2158 H2129 0.950 . S
C2158 C2157 1.334 . S
C2158 C2159 1.287 1_556 S
C2159 C2158 1.287 1_554 S
C2159 C2160 1.524 . S
C2159 H2162 0.999 . S
C2160 H2130 0.950 . S
C2160 C2159 1.524 . S
C2160 C2161 1.415 . S
C2161 H2131 0.950 . S
C2161 C2156 1.368 . S
C2161 C2160 1.415 . S
H2162 C2159 0.999 . S
H2163 C2144 0.913 . S
H2164 C2182 0.951 . S
H2165 C2184 0.951 . S
H2166 C2186 0.950 . S
H2167 C2187 0.950 . S
H2168 C2189 0.950 . S
H2169 C2192 0.950 . S
H2170 C2193 0.950 . S
H2171 C2195 0.950 . S
H2172 C2196 0.950 . S
H2173 C2197 0.951 . S
H2174 C2199 0.951 . S
H2175 C2201 0.950 . S
H2176 C2202 0.950 . S
H2177 C2204 0.950 . S
H2178 C2207 0.950 . S
H2179 C2208 0.950 . S
H2180 C2210 0.950 . S
H2181 C2211 0.950 . S
C2182 H2164 0.951 . S
C2182 C2183 1.366 . S
C2182 C2184 1.388 . S
C2183 C2182 1.366 . S
C2183 C2187 1.385 . S
C2184 H2165 0.951 . S
C2184 C2182 1.388 . S
C2184 C2185 1.366 . S
C2185 C2184 1.366 . S
C2185 C2186 1.414 . S
C2185 C2188 1.499 . S
C2186 H2166 0.950 . S
C2186 C2185 1.414 . S
C2186 C2187 1.374 . S
C2187 H2167 0.950 . S
C2187 C2183 1.385 . S
C2187 C2186 1.374 . S
C2188 C2185 1.499 . S
C2188 C2189 1.373 . S
C2188 C2190 1.389 . S
C2189 H2168 0.950 . S
C2189 C2188 1.373 . S
C2189 C2205 1.377 . S
C2190 C2188 1.389 . S
C2190 C2191 1.524 . S
C2190 C2204 1.377 . S
C2191 C2190 1.524 . S
C2191 C2192 1.397 . S
C2191 C2196 1.363 . S
C2192 H2169 0.950 . S
C2192 C2191 1.397 . S
C2192 C2193 1.334 . S
C2193 H2170 0.950 . S
C2193 C2192 1.334 . S
C2193 C2194 1.287 . S
C2194 C2193 1.287 . S
C2194 C2195 1.524 . S
C2194 H2213 0.913 . S
C2195 H2171 0.950 . S
C2195 C2194 1.524 . S
C2195 C2196 1.415 . S
C2196 H2172 0.950 . S
C2196 C2191 1.363 . S
C2196 C2195 1.415 . S
C2197 H2173 0.951 . S
C2197 C2198 1.366 . S
C2197 C2199 1.388 . S
C2198 C2197 1.366 . S
C2198 C2202 1.385 . S
C2199 H2174 0.951 . S
C2199 C2197 1.388 . S
C2199 C2200 1.366 . S
C2200 C2199 1.366 . S
C2200 C2201 1.414 . S
C2200 C2203 1.499 . S
C2201 H2175 0.950 . S
C2201 C2200 1.414 . S
C2201 C2202 1.374 . S
C2202 H2176 0.950 . S
C2202 C2198 1.385 . S
C2202 C2201 1.374 . S
C2203 C2200 1.499 . S
C2203 C2204 1.373 . S
C2203 C2205 1.389 . S
C2204 H2177 0.950 . S
C2204 C2190 1.377 . S
C2204 C2203 1.373 . S
C2205 C2189 1.377 . S
C2205 C2203 1.389 . S
C2205 C2206 1.524 . S
C2206 C2205 1.524 . S
C2206 C2207 1.397 . S
C2206 C2211 1.363 . S
C2207 H2178 0.950 . S
C2207 C2206 1.397 . S
C2207 C2208 1.334 . S
C2208 H2179 0.950 . S
C2208 C2207 1.334 . S
C2208 C2209 1.287 . S
C2209 C2208 1.287 . S
C2209 C2210 1.524 . S
C2209 H2212 0.999 . S
C2210 H2180 0.950 . S
C2210 C2209 1.524 . S
C2210 C2211 1.415 . S
C2211 H2181 0.950 . S
C2211 C2206 1.363 . S
C2211 C2210 1.415 . S
H2212 C2209 0.999 . S
H2213 C2194 0.913 . S
H2214 C2232 0.951 . S
H2215 C2234 0.951 . S
H2216 C2236 0.950 . S
H2217 C2237 0.950 . S
H2218 C2239 0.950 . S
H2219 C2242 0.950 . S
H2220 C2243 0.950 . S
H2221 C2245 0.950 . S
H2222 C2246 0.950 . S
H2223 C2247 0.951 . S
H2224 C2249 0.951 . S
H2225 C2251 0.950 . S
H2226 C2252 0.950 . S
H2227 C2254 0.950 . S
H2228 C2257 0.950 . S
H2229 C2258 0.950 . S
H2230 C2260 0.950 . S
H2231 C2261 0.950 . S
C2232 H2214 0.951 . S
C2232 C2233 1.366 . S
C2232 C2234 1.388 . S
C2233 C2232 1.366 . S
C2233 C2237 1.385 1_556 S
C2234 H2215 0.951 . S
C2234 C2232 1.388 . S
C2234 C2235 1.366 1_556 S
C2235 C2234 1.366 1_554 S
C2235 C2236 1.414 . S
C2235 C2238 1.499 . S
C2236 H2216 0.950 . S
C2236 C2235 1.414 . S
C2236 C2237 1.374 . S
C2237 H2217 0.950 . S
C2237 C2233 1.385 1_554 S
C2237 C2236 1.374 . S
C2238 C2235 1.499 . S
C2238 C2239 1.373 . S
C2238 C2240 1.389 . S
C2239 H2218 0.950 . S
C2239 C2238 1.373 . S
C2239 C2255 1.377 . S
C2240 C2238 1.389 . S
C2240 C2241 1.524 . S
C2240 C2254 1.377 . S
C2241 C2240 1.524 . S
C2241 C2242 1.397 . S
C2241 C2246 1.363 . S
C2242 H2219 0.950 . S
C2242 C2241 1.397 . S
C2242 C2243 1.334 . S
C2243 H2220 0.950 . S
C2243 C2242 1.334 . S
C2243 C2244 1.287 1_554 S
C2244 C2243 1.287 1_556 S
C2244 C2245 1.524 . S
C2244 H2263 0.913 . S
C2245 H2221 0.950 . S
C2245 C2244 1.524 . S
C2245 C2246 1.415 1_556 S
C2246 H2222 0.950 . S
C2246 C2241 1.363 . S
C2246 C2245 1.415 1_554 S
C2247 H2223 0.951 . S
C2247 C2248 1.366 . S
C2247 C2249 1.388 . S
C2248 C2247 1.366 . S
C2248 C2252 1.385 . S
C2249 H2224 0.951 . S
C2249 C2247 1.388 . S
C2249 C2250 1.366 . S
C2250 C2249 1.366 . S
C2250 C2251 1.414 . S
C2250 C2253 1.499 . S
C2251 H2225 0.950 . S
C2251 C2250 1.414 . S
C2251 C2252 1.374 . S
C2252 H2226 0.950 . S
C2252 C2248 1.385 . S
C2252 C2251 1.374 . S
C2253 C2250 1.499 . S
C2253 C2254 1.373 . S
C2253 C2255 1.389 . S
C2254 H2227 0.950 . S
C2254 C2240 1.377 . S
C2254 C2253 1.373 . S
C2255 C2239 1.377 . S
C2255 C2253 1.389 . S
C2255 C2256 1.524 . S
C2256 C2255 1.524 . S
C2256 C2257 1.397 . S
C2256 C2261 1.363 . S
C2257 H2228 0.950 . S
C2257 C2256 1.397 . S
C2257 C2258 1.334 . S
C2258 H2229 0.950 . S
C2258 C2257 1.334 . S
C2258 C2259 1.287 . S
C2259 C2258 1.287 . S
C2259 C2260 1.524 . S
C2259 H2262 0.999 . S
C2260 H2230 0.950 . S
C2260 C2259 1.524 . S
C2260 C2261 1.415 . S
C2261 H2231 0.950 . S
C2261 C2256 1.363 . S
C2261 C2260 1.415 . S
H2262 C2259 0.999 . S
H2263 C2244 0.913 . S
H2264 C2282 0.951 . S
H2265 C2284 0.951 . S
H2266 C2286 0.950 . S
H2267 C2287 0.950 . S
H2268 C2289 0.950 . S
H2269 C2292 0.950 . S
H2270 C2293 0.950 . S
H2271 C2295 0.950 . S
H2272 C2296 0.950 . S
H2273 C2297 0.951 . S
H2274 C2299 0.951 . S
H2275 C2301 0.950 . S
H2276 C2302 0.950 . S
H2277 C2304 0.950 . S
H2278 C2307 0.950 . S
H2279 C2308 0.950 . S
H2280 C2310 0.950 . S
H2281 C2311 0.950 . S
C2282 H2264 0.951 . S
C2282 C2283 1.366 . S
C2282 C2284 1.388 . S
C2283 C2282 1.366 . S
C2283 C2287 1.385 . S
C2284 H2265 0.951 . S
C2284 C2282 1.388 . S
C2284 C2285 1.366 . S
C2285 C2284 1.366 . S
C2285 C2286 1.414 . S
C2285 C2288 1.499 . S
C2286 H2266 0.950 . S
C2286 C2285 1.414 . S
C2286 C2287 1.374 . S
C2287 H2267 0.950 . S
C2287 C2283 1.385 . S
C2287 C2286 1.374 . S
C2288 C2285 1.499 . S
C2288 C2289 1.373 . S
C2288 C2290 1.389 . S
C2289 H2268 0.950 . S
C2289 C2288 1.373 . S
C2289 C2305 1.377 . S
C2290 C2288 1.389 . S
C2290 C2291 1.524 . S
C2290 C2304 1.377 . S
C2291 C2290 1.524 . S
C2291 C2292 1.397 . S
C2291 C2296 1.363 . S
C2292 H2269 0.950 . S
C2292 C2291 1.397 . S
C2292 C2293 1.334 . S
C2293 H2270 0.950 . S
C2293 C2292 1.334 . S
C2293 C2294 1.287 . S
C2294 C2293 1.287 . S
C2294 C2295 1.524 . S
C2294 H2313 0.913 . S
C2295 H2271 0.950 . S
C2295 C2294 1.524 . S
C2295 C2296 1.415 . S
C2296 H2272 0.950 . S
C2296 C2291 1.363 . S
C2296 C2295 1.415 . S
C2297 H2273 0.951 . S
C2297 C2298 1.366 . S
C2297 C2299 1.388 . S
C2298 C2297 1.366 . S
C2298 C2302 1.385 . S
C2299 H2274 0.951 . S
C2299 C2297 1.388 . S
C2299 C2300 1.366 . S
C2300 C2299 1.366 . S
C2300 C2301 1.414 . S
C2300 C2303 1.499 . S
C2301 H2275 0.950 . S
C2301 C2300 1.414 . S
C2301 C2302 1.374 . S
C2302 H2276 0.950 . S
C2302 C2298 1.385 . S
C2302 C2301 1.374 . S
C2303 C2300 1.499 . S
C2303 C2304 1.373 . S
C2303 C2305 1.389 . S
C2304 H2277 0.950 . S
C2304 C2290 1.377 . S
C2304 C2303 1.373 . S
C2305 C2289 1.377 . S
C2305 C2303 1.389 . S
C2305 C2306 1.524 . S
C2306 C2305 1.524 . S
C2306 C2307 1.397 . S
C2306 C2311 1.363 . S
C2307 H2278 0.950 . S
C2307 C2306 1.397 . S
C2307 C2308 1.334 . S
C2308 H2279 0.950 . S
C2308 C2307 1.334 . S
C2308 C2309 1.287 . S
C2309 C2308 1.287 . S
C2309 C2310 1.524 . S
C2309 H2312 0.999 . S
C2310 H2280 0.950 . S
C2310 C2309 1.524 . S
C2310 C2311 1.415 . S
C2311 H2281 0.950 . S
C2311 C2306 1.363 . S
C2311 C2310 1.415 . S
H2312 C2309 0.999 . S
H2313 C2294 0.913 . S
H2314 C2332 0.951 . S
H2315 C2334 0.951 . S
H2316 C2336 0.950 . S
H2317 C2337 0.950 . S
H2318 C2339 0.950 . S
H2319 C2342 0.950 . S
H2320 C2343 0.950 . S
H2321 C2345 0.950 . S
H2322 C2346 0.950 . S
H2323 C2347 0.951 . S
H2324 C2349 0.951 . S
H2325 C2351 0.950 . S
H2326 C2352 0.950 . S
H2327 C2354 0.950 . S
H2328 C2357 0.950 . S
H2329 C2358 0.950 . S
H2330 C2360 0.950 . S
H2331 C2361 0.950 . S
C2332 H2314 0.951 . S
C2332 C2333 1.366 . S
C2332 C2334 1.388 . S
C2333 C2332 1.366 . S
C2333 C2337 1.385 1_556 S
C2334 H2315 0.951 . S
C2334 C2332 1.388 . S
C2334 C2335 1.366 1_556 S
C2335 C2334 1.366 1_554 S
C2335 C2336 1.414 . S
C2335 C2338 1.499 . S
C2336 H2316 0.950 . S
C2336 C2335 1.414 . S
C2336 C2337 1.374 . S
C2337 H2317 0.950 . S
C2337 C2333 1.385 1_554 S
C2337 C2336 1.374 . S
C2338 C2335 1.499 . S
C2338 C2339 1.373 . S
C2338 C2340 1.389 . S
C2339 H2318 0.950 . S
C2339 C2338 1.373 . S
C2339 C2355 1.377 . S
C2340 C2338 1.389 . S
C2340 C2341 1.524 . S
C2340 C2354 1.377 . S
C2341 C2340 1.524 . S
C2341 C2342 1.397 . S
C2341 C2346 1.363 . S
C2342 H2319 0.950 . S
C2342 C2341 1.397 . S
C2342 C2343 1.334 . S
C2343 H2320 0.950 . S
C2343 C2342 1.334 . S
C2343 C2344 1.287 . S
C2344 C2343 1.287 . S
C2344 C2345 1.524 1_554 S
C2344 H2363 0.913 1_554 S
C2345 H2321 0.950 . S
C2345 C2344 1.524 1_556 S
C2345 C2346 1.415 1_556 S
C2346 H2322 0.950 . S
C2346 C2341 1.363 . S
C2346 C2345 1.415 1_554 S
C2347 H2323 0.951 . S
C2347 C2348 1.366 . S
C2347 C2349 1.388 . S
C2348 C2347 1.366 . S
C2348 C2352 1.385 . S
C2349 H2324 0.951 . S
C2349 C2347 1.388 . S
C2349 C2350 1.366 . S
C2350 C2349 1.366 . S
C2350 C2351 1.414 . S
C2350 C2353 1.499 . S
C2351 H2325 0.950 . S
C2351 C2350 1.414 . S
C2351 C2352 1.374 . S
C2352 H2326 0.950 . S
C2352 C2348 1.385 . S
C2352 C2351 1.374 . S
C2353 C2350 1.499 . S
C2353 C2354 1.373 . S
C2353 C2355 1.389 . S
C2354 H2327 0.950 . S
C2354 C2340 1.377 . S
C2354 C2353 1.373 . S
C2355 C2339 1.377 . S
C2355 C2353 1.389 . S
C2355 C2356 1.524 . S
C2356 C2355 1.524 . S
C2356 C2357 1.397 . S
C2356 C2361 1.363 . S
C2357 H2328 0.950 . S
C2357 C2356 1.397 . S
C2357 C2358 1.334 . S
C2358 H2329 0.950 . S
C2358 C2357 1.334 . S
C2358 C2359 1.287 . S
C2359 C2358 1.287 . S
C2359 C2360 1.524 . S
C2359 H2362 0.999 . S
C2360 H2330 0.950 . S
C2360 C2359 1.524 . S
C2360 C2361 1.415 . S
C2361 H2331 0.950 . S
C2361 C2356 1.363 . S
C2361 C2360 1.415 . S
H2362 C2359 0.999 . S
H2363 C2344 0.913 1_556 S
H2364 C2382 0.951 . S
H2365 C2384 0.951 . S
H2366 C2386 0.950 . S
H2367 C2387 0.950 . S
H2368 C2389 0.950 . S
H2369 C2392 0.950 . S
H2370 C2393 0.950 . S
H2371 C2395 0.950 . S
H2372 C2396 0.950 . S
H2373 C2397 0.951 . S
H2374 C2399 0.951 . S
H2375 C2401 0.950 . S
H2376 C2402 0.950 . S
H2377 C2404 0.950 . S
H2378 C2407 0.950 . S
H2379 C2408 0.950 . S
H2380 C2410 0.950 . S
H2381 C2411 0.950 . S
C2382 H2364 0.951 . S
C2382 C2383 1.366 . S
C2382 C2384 1.388 . S
C2383 C2382 1.366 . S
C2383 C2387 1.385 . S
C2384 H2365 0.951 . S
C2384 C2382 1.388 . S
C2384 C2385 1.366 . S
C2385 C2384 1.366 . S
C2385 C2386 1.414 . S
C2385 C2388 1.499 . S
C2386 H2366 0.950 . S
C2386 C2385 1.414 . S
C2386 C2387 1.374 . S
C2387 H2367 0.950 . S
C2387 C2383 1.385 . S
C2387 C2386 1.374 . S
C2388 C2385 1.499 . S
C2388 C2389 1.373 . S
C2388 C2390 1.389 . S
C2389 H2368 0.950 . S
C2389 C2388 1.373 . S
C2389 C2405 1.377 . S
C2390 C2388 1.389 . S
C2390 C2391 1.524 . S
C2390 C2404 1.377 . S
C2391 C2390 1.524 . S
C2391 C2392 1.397 . S
C2391 C2396 1.363 . S
C2392 H2369 0.950 . S
C2392 C2391 1.397 . S
C2392 C2393 1.334 . S
C2393 H2370 0.950 . S
C2393 C2392 1.334 . S
C2393 C2394 1.287 . S
C2394 C2393 1.287 . S
C2394 C2395 1.524 . S
C2394 H2413 0.913 . S
C2395 H2371 0.950 . S
C2395 C2394 1.524 . S
C2395 C2396 1.415 . S
C2396 H2372 0.950 . S
C2396 C2391 1.363 . S
C2396 C2395 1.415 . S
C2397 H2373 0.951 . S
C2397 C2398 1.366 . S
C2397 C2399 1.388 . S
C2398 C2397 1.366 . S
C2398 C2402 1.385 . S
C2399 H2374 0.951 . S
C2399 C2397 1.388 . S
C2399 C2400 1.366 . S
C2400 C2399 1.366 . S
C2400 C2401 1.414 . S
C2400 C2403 1.499 . S
C2401 H2375 0.950 . S
C2401 C2400 1.414 . S
C2401 C2402 1.374 . S
C2402 H2376 0.950 . S
C2402 C2398 1.385 . S
C2402 C2401 1.374 . S
C2403 C2400 1.499 . S
C2403 C2404 1.373 . S
C2403 C2405 1.389 . S
C2404 H2377 0.950 . S
C2404 C2390 1.377 . S
C2404 C2403 1.373 . S
C2405 C2389 1.377 . S
C2405 C2403 1.389 . S
C2405 C2406 1.524 . S
C2406 C2405 1.524 . S
C2406 C2407 1.397 . S
C2406 C2411 1.363 . S
C2407 H2378 0.950 . S
C2407 C2406 1.397 . S
C2407 C2408 1.334 . S
C2408 H2379 0.950 . S
C2408 C2407 1.334 . S
C2408 C2409 1.287 . S
C2409 C2408 1.287 . S
C2409 C2410 1.524 . S
C2409 H2412 0.999 . S
C2410 H2380 0.950 . S
C2410 C2409 1.524 . S
C2410 C2411 1.415 . S
C2411 H2381 0.950 . S
C2411 C2406 1.363 . S
C2411 C2410 1.415 . S
H2412 C2409 0.999 . S
H2413 C2394 0.913 . S
H2414 C2432 0.951 . S
H2415 C2434 0.951 . S
H2416 C2436 0.950 . S
H2417 C2437 0.950 . S
H2418 C2439 0.950 . S
H2419 C2442 0.950 . S
H2420 C2443 0.950 . S
H2421 C2445 0.950 . S
H2422 C2446 0.950 . S
H2423 C2447 0.951 . S
H2424 C2449 0.951 . S
H2425 C2451 0.950 . S
H2426 C2452 0.950 . S
H2427 C2454 0.950 . S
H2428 C2457 0.950 . S
H2429 C2458 0.950 . S
H2430 C2460 0.950 . S
H2431 C2461 0.950 . S
C2432 H2414 0.951 . S
C2432 C2433 1.366 . S
C2432 C2434 1.388 . S
C2433 C2432 1.366 . S
C2433 C2437 1.385 . S
C2434 H2415 0.951 . S
C2434 C2432 1.388 . S
C2434 C2435 1.366 . S
C2435 C2434 1.366 . S
C2435 C2436 1.414 . S
C2435 C2438 1.499 . S
C2436 H2416 0.950 . S
C2436 C2435 1.414 . S
C2436 C2437 1.374 . S
C2437 H2417 0.950 . S
C2437 C2433 1.385 . S
C2437 C2436 1.374 . S
C2438 C2435 1.499 . S
C2438 C2439 1.373 . S
C2438 C2440 1.389 . S
C2439 H2418 0.950 . S
C2439 C2438 1.373 . S
C2439 C2455 1.377 . S
C2440 C2438 1.389 . S
C2440 C2441 1.524 . S
C2440 C2454 1.377 . S
C2441 C2440 1.524 . S
C2441 C2442 1.397 . S
C2441 C2446 1.363 . S
C2442 H2419 0.950 . S
C2442 C2441 1.397 . S
C2442 C2443 1.334 . S
C2443 H2420 0.950 . S
C2443 C2442 1.334 . S
C2443 C2444 1.287 . S
C2444 C2443 1.287 . S
C2444 C2445 1.524 . S
C2444 H2463 0.913 . S
C2445 H2421 0.950 . S
C2445 C2444 1.524 . S
C2445 C2446 1.415 . S
C2446 H2422 0.950 . S
C2446 C2441 1.363 . S
C2446 C2445 1.415 . S
C2447 H2423 0.951 . S
C2447 C2448 1.366 . S
C2447 C2449 1.388 . S
C2448 C2447 1.366 . S
C2448 C2452 1.385 . S
C2449 H2424 0.951 . S
C2449 C2447 1.388 . S
C2449 C2450 1.366 . S
C2450 C2449 1.366 . S
C2450 C2451 1.414 . S
C2450 C2453 1.499 . S
C2451 H2425 0.950 . S
C2451 C2450 1.414 . S
C2451 C2452 1.374 . S
C2452 H2426 0.950 . S
C2452 C2448 1.385 . S
C2452 C2451 1.374 . S
C2453 C2450 1.499 . S
C2453 C2454 1.373 . S
C2453 C2455 1.389 . S
C2454 H2427 0.950 . S
C2454 C2440 1.377 . S
C2454 C2453 1.373 . S
C2455 C2439 1.377 . S
C2455 C2453 1.389 . S
C2455 C2456 1.524 . S
C2456 C2455 1.524 . S
C2456 C2457 1.397 . S
C2456 C2461 1.363 . S
C2457 H2428 0.950 . S
C2457 C2456 1.397 . S
C2457 C2458 1.334 . S
C2458 H2429 0.950 . S
C2458 C2457 1.334 . S
C2458 C2459 1.287 . S
C2459 C2458 1.287 . S
C2459 C2460 1.524 . S
C2459 H2462 0.999 . S
C2460 H2430 0.950 . S
C2460 C2459 1.524 . S
C2460 C2461 1.415 . S
C2461 H2431 0.950 . S
C2461 C2456 1.363 . S
C2461 C2460 1.415 . S
H2462 C2459 0.999 . S
H2463 C2444 0.913 . S
H2464 C2482 0.951 . S
H2465 C2484 0.951 . S
H2466 C2486 0.950 . S
H2467 C2487 0.950 . S
H2468 C2489 0.950 . S
H2469 C2492 0.950 . S
H2470 C2493 0.950 . S
H2471 C2495 0.950 . S
H2472 C2496 0.950 . S
H2473 C2497 0.951 . S
H2474 C2499 0.951 . S
H2475 C2501 0.950 . S
H2476 C2502 0.950 . S
H2477 C2504 0.950 . S
H2478 C2507 0.950 . S
H2479 C2508 0.950 . S
H2480 C2510 0.950 . S
H2481 C2511 0.950 . S
C2482 H2464 0.951 . S
C2482 C2483 1.366 . S
C2482 C2484 1.388 . S
C2483 C2482 1.366 . S
C2483 C2487 1.385 . S
C2484 H2465 0.951 . S
C2484 C2482 1.388 . S
C2484 C2485 1.366 . S
C2485 C2484 1.366 . S
C2485 C2486 1.414 . S
C2485 C2488 1.499 . S
C2486 H2466 0.950 . S
C2486 C2485 1.414 . S
C2486 C2487 1.374 . S
C2487 H2467 0.950 . S
C2487 C2483 1.385 . S
C2487 C2486 1.374 . S
C2488 C2485 1.499 . S
C2488 C2489 1.373 . S
C2488 C2490 1.389 . S
C2489 H2468 0.950 . S
C2489 C2488 1.373 . S
C2489 C2505 1.377 . S
C2490 C2488 1.389 . S
C2490 C2491 1.524 . S
C2490 C2504 1.377 . S
C2491 C2490 1.524 . S
C2491 C2492 1.397 . S
C2491 C2496 1.363 . S
C2492 H2469 0.950 . S
C2492 C2491 1.397 . S
C2492 C2493 1.334 . S
C2493 H2470 0.950 . S
C2493 C2492 1.334 . S
C2493 C2494 1.287 . S
C2494 C2493 1.287 . S
C2494 C2495 1.524 . S
C2494 H2513 0.913 . S
C2495 H2471 0.950 . S
C2495 C2494 1.524 . S
C2495 C2496 1.415 . S
C2496 H2472 0.950 . S
C2496 C2491 1.363 . S
C2496 C2495 1.415 . S
C2497 H2473 0.951 . S
C2497 C2498 1.366 . S
C2497 C2499 1.388 . S
C2498 C2497 1.366 . S
C2498 C2502 1.385 . S
C2499 H2474 0.951 . S
C2499 C2497 1.388 . S
C2499 C2500 1.366 . S
C2500 C2499 1.366 . S
C2500 C2501 1.414 . S
C2500 C2503 1.499 . S
C2501 H2475 0.950 . S
C2501 C2500 1.414 . S
C2501 C2502 1.374 . S
C2502 H2476 0.950 . S
C2502 C2498 1.385 . S
C2502 C2501 1.374 . S
C2503 C2500 1.499 . S
C2503 C2504 1.373 . S
C2503 C2505 1.389 . S
C2504 H2477 0.950 . S
C2504 C2490 1.377 . S
C2504 C2503 1.373 . S
C2505 C2489 1.377 . S
C2505 C2503 1.389 . S
C2505 C2506 1.524 . S
C2506 C2505 1.524 . S
C2506 C2507 1.397 . S
C2506 C2511 1.363 . S
C2507 H2478 0.950 . S
C2507 C2506 1.397 . S
C2507 C2508 1.334 . S
C2508 H2479 0.950 . S
C2508 C2507 1.334 . S
C2508 C2509 1.287 . S
C2509 C2508 1.287 . S
C2509 C2510 1.524 . S
C2509 H2512 0.999 . S
C2510 H2480 0.950 . S
C2510 C2509 1.524 . S
C2510 C2511 1.415 . S
C2511 H2481 0.950 . S
C2511 C2506 1.363 . S
C2511 C2510 1.415 . S
H2512 C2509 0.999 . S
H2513 C2494 0.913 . S
H2514 C2532 0.951 . S
H2515 C2534 0.951 . S
H2516 C2536 0.950 . S
H2517 C2537 0.950 . S
H2518 C2539 0.950 . S
H2519 C2542 0.950 . S
H2520 C2543 0.950 . S
H2521 C2545 0.950 . S
H2522 C2546 0.950 . S
H2523 C2547 0.951 . S
H2524 C2549 0.951 . S
H2525 C2551 0.950 . S
H2526 C2552 0.950 . S
H2527 C2554 0.950 . S
H2528 C2557 0.950 . S
H2529 C2558 0.950 . S
H2530 C2560 0.950 . S
H2531 C2561 0.950 . S
C2532 H2514 0.951 . S
C2532 C2533 1.366 . S
C2532 C2534 1.388 . S
C2533 C2532 1.366 . S
C2533 C2537 1.385 . S
C2534 H2515 0.951 . S
C2534 C2532 1.388 . S
C2534 C2535 1.366 . S
C2535 C2534 1.366 . S
C2535 C2536 1.414 . S
C2535 C2538 1.499 . S
C2536 H2516 0.950 . S
C2536 C2535 1.414 . S
C2536 C2537 1.374 . S
C2537 H2517 0.950 . S
C2537 C2533 1.385 . S
C2537 C2536 1.374 . S
C2538 C2535 1.499 . S
C2538 C2539 1.373 . S
C2538 C2540 1.389 . S
C2539 H2518 0.950 . S
C2539 C2538 1.373 . S
C2539 C2555 1.377 . S
C2540 C2538 1.389 . S
C2540 C2541 1.524 . S
C2540 C2554 1.377 . S
C2541 C2540 1.524 . S
C2541 C2542 1.397 . S
C2541 C2546 1.363 . S
C2542 H2519 0.950 . S
C2542 C2541 1.397 . S
C2542 C2543 1.334 . S
C2543 H2520 0.950 . S
C2543 C2542 1.334 . S
C2543 C2544 1.287 . S
C2544 C2543 1.287 . S
C2544 C2545 1.524 . S
C2544 H2563 0.913 . S
C2545 H2521 0.950 . S
C2545 C2544 1.524 . S
C2545 C2546 1.415 . S
C2546 H2522 0.950 . S
C2546 C2541 1.363 . S
C2546 C2545 1.415 . S
C2547 H2523 0.951 . S
C2547 C2548 1.366 . S
C2547 C2549 1.388 . S
C2548 C2547 1.366 . S
C2548 C2552 1.385 . S
C2549 H2524 0.951 . S
C2549 C2547 1.388 . S
C2549 C2550 1.366 . S
C2550 C2549 1.366 . S
C2550 C2551 1.414 . S
C2550 C2553 1.499 . S
C2551 H2525 0.950 . S
C2551 C2550 1.414 . S
C2551 C2552 1.374 . S
C2552 H2526 0.950 . S
C2552 C2548 1.385 . S
C2552 C2551 1.374 . S
C2553 C2550 1.499 . S
C2553 C2554 1.373 . S
C2553 C2555 1.389 . S
C2554 H2527 0.950 . S
C2554 C2540 1.377 . S
C2554 C2553 1.373 . S
C2555 C2539 1.377 . S
C2555 C2553 1.389 . S
C2555 C2556 1.524 . S
C2556 C2555 1.524 . S
C2556 C2557 1.397 . S
C2556 C2561 1.363 . S
C2557 H2528 0.950 . S
C2557 C2556 1.397 . S
C2557 C2558 1.334 . S
C2558 H2529 0.950 . S
C2558 C2557 1.334 . S
C2558 C2559 1.287 . S
C2559 C2558 1.287 . S
C2559 C2560 1.524 . S
C2559 H2562 0.999 . S
C2560 H2530 0.950 . S
C2560 C2559 1.524 . S
C2560 C2561 1.415 . S
C2561 H2531 0.950 . S
C2561 C2556 1.363 . S
C2561 C2560 1.415 . S
H2562 C2559 0.999 . S
H2563 C2544 0.913 . S
H2564 C2582 0.951 . S
H2565 C2584 0.951 . S
H2566 C2586 0.950 . S
H2567 C2587 0.950 . S
H2568 C2589 0.950 1_554 S
H2569 C2592 0.950 . S
H2570 C2593 0.950 . S
H2571 C2595 0.950 . S
H2572 C2596 0.950 . S
H2573 C2597 0.951 . S
H2574 C2599 0.951 . S
H2575 C2601 0.950 . S
H2576 C2602 0.950 . S
H2577 C2604 0.950 . S
H2578 C2607 0.950 . S
H2579 C2608 0.950 . S
H2580 C2610 0.950 . S
H2581 C2611 0.950 . S
C2582 H2564 0.951 . S
C2582 C2583 1.366 . S
C2582 C2584 1.388 . S
C2583 C2582 1.366 . S
C2583 C2587 1.385 . S
C2584 H2565 0.951 . S
C2584 C2582 1.388 . S
C2584 C2585 1.366 . S
C2585 C2584 1.366 . S
C2585 C2586 1.414 . S
C2585 C2588 1.499 . S
C2586 H2566 0.950 . S
C2586 C2585 1.414 . S
C2586 C2587 1.374 . S
C2587 H2567 0.950 . S
C2587 C2583 1.385 . S
C2587 C2586 1.374 . S
C2588 C2585 1.499 . S
C2588 C2589 1.373 . S
C2588 C2590 1.389 . S
C2589 H2568 0.950 1_556 S
C2589 C2588 1.373 . S
C2589 C2605 1.377 . S
C2590 C2588 1.389 . S
C2590 C2591 1.524 . S
C2590 C2604 1.377 . S
C2591 C2590 1.524 . S
C2591 C2592 1.397 . S
C2591 C2596 1.363 . S
C2592 H2569 0.950 . S
C2592 C2591 1.397 . S
C2592 C2593 1.334 . S
C2593 H2570 0.950 . S
C2593 C2592 1.334 . S
C2593 C2594 1.287 . S
C2594 C2593 1.287 . S
C2594 C2595 1.524 . S
C2594 H2613 0.913 . S
C2595 H2571 0.950 . S
C2595 C2594 1.524 . S
C2595 C2596 1.415 . S
C2596 H2572 0.950 . S
C2596 C2591 1.363 . S
C2596 C2595 1.415 . S
C2597 H2573 0.951 . S
C2597 C2598 1.366 . S
C2597 C2599 1.388 . S
C2598 C2597 1.366 . S
C2598 C2602 1.385 . S
C2599 H2574 0.951 . S
C2599 C2597 1.388 . S
C2599 C2600 1.366 . S
C2600 C2599 1.366 . S
C2600 C2601 1.414 . S
C2600 C2603 1.499 . S
C2601 H2575 0.950 . S
C2601 C2600 1.414 . S
C2601 C2602 1.374 . S
C2602 H2576 0.950 . S
C2602 C2598 1.385 . S
C2602 C2601 1.374 . S
C2603 C2600 1.499 . S
C2603 C2604 1.373 . S
C2603 C2605 1.389 . S
C2604 H2577 0.950 . S
C2604 C2590 1.377 . S
C2604 C2603 1.373 . S
C2605 C2589 1.377 . S
C2605 C2603 1.389 . S
C2605 C2606 1.524 1_556 S
C2606 C2605 1.524 1_554 S
C2606 C2607 1.397 . S
C2606 C2611 1.363 . S
C2607 H2578 0.950 . S
C2607 C2606 1.397 . S
C2607 C2608 1.334 . S
C2608 H2579 0.950 . S
C2608 C2607 1.334 . S
C2608 C2609 1.287 . S
C2609 C2608 1.287 . S
C2609 C2610 1.524 . S
C2609 H2612 0.999 . S
C2610 H2580 0.950 . S
C2610 C2609 1.524 . S
C2610 C2611 1.415 . S
C2611 H2581 0.950 . S
C2611 C2606 1.363 . S
C2611 C2610 1.415 . S
H2612 C2609 0.999 . S
H2613 C2594 0.913 . S
H2614 C2632 0.951 . S
H2615 C2634 0.951 . S
H2616 C2636 0.950 . S
H2617 C2637 0.950 . S
H2618 C2639 0.950 . S
H2619 C2642 0.950 . S
H2620 C2643 0.950 . S
H2621 C2645 0.950 . S
H2622 C2646 0.950 . S
H2623 C2647 0.951 . S
H2624 C2649 0.951 . S
H2625 C2651 0.950 . S
H2626 C2652 0.950 . S
H2627 C2654 0.950 . S
H2628 C2657 0.950 . S
H2629 C2658 0.950 . S
H2630 C2660 0.950 . S
H2631 C2661 0.950 . S
C2632 H2614 0.951 . S
C2632 C2633 1.366 . S
C2632 C2634 1.388 . S
C2633 C2632 1.366 . S
C2633 C2637 1.385 . S
C2634 H2615 0.951 . S
C2634 C2632 1.388 . S
C2634 C2635 1.366 . S
C2635 C2634 1.366 . S
C2635 C2636 1.414 . S
C2635 C2638 1.499 . S
C2636 H2616 0.950 . S
C2636 C2635 1.414 . S
C2636 C2637 1.374 . S
C2637 H2617 0.950 . S
C2637 C2633 1.385 . S
C2637 C2636 1.374 . S
C2638 C2635 1.499 . S
C2638 C2639 1.373 . S
C2638 C2640 1.389 . S
C2639 H2618 0.950 . S
C2639 C2638 1.373 . S
C2639 C2655 1.377 . S
C2640 C2638 1.389 . S
C2640 C2641 1.524 . S
C2640 C2654 1.377 . S
C2641 C2640 1.524 . S
C2641 C2642 1.397 . S
C2641 C2646 1.363 . S
C2642 H2619 0.950 . S
C2642 C2641 1.397 . S
C2642 C2643 1.334 . S
C2643 H2620 0.950 . S
C2643 C2642 1.334 . S
C2643 C2644 1.287 . S
C2644 C2643 1.287 . S
C2644 C2645 1.524 . S
C2644 H2663 0.913 . S
C2645 H2621 0.950 . S
C2645 C2644 1.524 . S
C2645 C2646 1.415 . S
C2646 H2622 0.950 . S
C2646 C2641 1.363 . S
C2646 C2645 1.415 . S
C2647 H2623 0.951 . S
C2647 C2648 1.366 . S
C2647 C2649 1.388 . S
C2648 C2647 1.366 . S
C2648 C2652 1.385 . S
C2649 H2624 0.951 . S
C2649 C2647 1.388 . S
C2649 C2650 1.366 . S
C2650 C2649 1.366 . S
C2650 C2651 1.414 . S
C2650 C2653 1.499 . S
C2651 H2625 0.950 . S
C2651 C2650 1.414 . S
C2651 C2652 1.374 . S
C2652 H2626 0.950 . S
C2652 C2648 1.385 . S
C2652 C2651 1.374 . S
C2653 C2650 1.499 . S
C2653 C2654 1.373 . S
C2653 C2655 1.389 . S
C2654 H2627 0.950 . S
C2654 C2640 1.377 . S
C2654 C2653 1.373 . S
C2655 C2639 1.377 . S
C2655 C2653 1.389 . S
C2655 C2656 1.524 . S
C2656 C2655 1.524 . S
C2656 C2657 1.397 . S
C2656 C2661 1.363 . S
C2657 H2628 0.950 . S
C2657 C2656 1.397 . S
C2657 C2658 1.334 . S
C2658 H2629 0.950 . S
C2658 C2657 1.334 . S
C2658 C2659 1.287 . S
C2659 C2658 1.287 . S
C2659 C2660 1.524 . S
C2659 H2662 0.999 . S
C2660 H2630 0.950 . S
C2660 C2659 1.524 . S
C2660 C2661 1.415 . S
C2661 H2631 0.950 . S
C2661 C2656 1.363 . S
C2661 C2660 1.415 . S
H2662 C2659 0.999 . S
H2663 C2644 0.913 . S
H2664 C2682 0.951 . S
H2665 C2684 0.951 . S
H2666 C2686 0.950 . S
H2667 C2687 0.950 . S
H2668 C2689 0.950 . S
H2669 C2692 0.950 . S
H2670 C2693 0.950 . S
H2671 C2695 0.950 . S
H2672 C2696 0.950 . S
H2673 C2697 0.951 . S
H2674 C2699 0.951 . S
H2675 C2701 0.950 1_556 S
H2676 C2702 0.950 . S
H2677 C2704 0.950 . S
H2678 C2707 0.950 1_556 S
H2679 C2708 0.950 . S
H2680 C2710 0.950 . S
H2681 C2711 0.950 . S
C2682 H2664 0.951 . S
C2682 C2683 1.366 . S
C2682 C2684 1.388 . S
C2683 C2682 1.366 . S
C2683 C2687 1.385 . S
C2684 H2665 0.951 . S
C2684 C2682 1.388 . S
C2684 C2685 1.366 . S
C2685 C2684 1.366 . S
C2685 C2686 1.414 . S
C2685 C2688 1.499 . S
C2686 H2666 0.950 . S
C2686 C2685 1.414 . S
C2686 C2687 1.374 . S
C2687 H2667 0.950 . S
C2687 C2683 1.385 . S
C2687 C2686 1.374 . S
C2688 C2685 1.499 . S
C2688 C2689 1.373 . S
C2688 C2690 1.389 . S
C2689 H2668 0.950 . S
C2689 C2688 1.373 . S
C2689 C2705 1.377 . S
C2690 C2688 1.389 . S
C2690 C2691 1.524 . S
C2690 C2704 1.377 . S
C2691 C2690 1.524 . S
C2691 C2692 1.397 . S
C2691 C2696 1.363 . S
C2692 H2669 0.950 . S
C2692 C2691 1.397 . S
C2692 C2693 1.334 . S
C2693 H2670 0.950 . S
C2693 C2692 1.334 . S
C2693 C2694 1.287 . S
C2694 C2693 1.287 . S
C2694 C2695 1.524 . S
C2694 H2713 0.913 . S
C2695 H2671 0.950 . S
C2695 C2694 1.524 . S
C2695 C2696 1.415 . S
C2696 H2672 0.950 . S
C2696 C2691 1.363 . S
C2696 C2695 1.415 . S
C2697 H2673 0.951 . S
C2697 C2698 1.366 . S
C2697 C2699 1.388 . S
C2698 C2697 1.366 . S
C2698 C2702 1.385 1_554 S
C2699 H2674 0.951 . S
C2699 C2697 1.388 . S
C2699 C2700 1.366 . S
C2700 C2699 1.366 . S
C2700 C2701 1.414 . S
C2700 C2703 1.499 . S
C2701 H2675 0.950 1_554 S
C2701 C2700 1.414 . S
C2701 C2702 1.374 1_554 S
C2702 H2676 0.950 . S
C2702 C2698 1.385 1_556 S
C2702 C2701 1.374 1_556 S
C2703 C2700 1.499 . S
C2703 C2704 1.373 . S
C2703 C2705 1.389 . S
C2704 H2677 0.950 . S
C2704 C2690 1.377 . S
C2704 C2703 1.373 . S
C2705 C2689 1.377 . S
C2705 C2703 1.389 . S
C2705 C2706 1.524 . S
C2706 C2705 1.524 . S
C2706 C2707 1.397 . S
C2706 C2711 1.363 . S
C2707 H2678 0.950 1_554 S
C2707 C2706 1.397 . S
C2707 C2708 1.334 1_554 S
C2708 H2679 0.950 . S
C2708 C2707 1.334 1_556 S
C2708 C2709 1.287 1_556 S
C2709 C2708 1.287 1_554 S
C2709 C2710 1.524 . S
C2709 H2712 0.999 . S
C2710 H2680 0.950 . S
C2710 C2709 1.524 . S
C2710 C2711 1.415 . S
C2711 H2681 0.950 . S
C2711 C2706 1.363 . S
C2711 C2710 1.415 . S
H2712 C2709 0.999 . S
H2713 C2694 0.913 . S
H2714 C2732 0.951 . S
H2715 C2734 0.951 . S
H2716 C2736 0.950 1_545 S
H2717 C2737 0.950 . S
H2718 C2739 0.950 . S
H2719 C2742 0.950 1_545 S
H2720 C2743 0.950 . S
H2721 C2745 0.950 . S
H2722 C2746 0.950 . S
H2723 C2747 0.951 . S
H2724 C2749 0.951 . S
H2725 C2751 0.950 . S
H2726 C2752 0.950 . S
H2727 C2754 0.950 . S
H2728 C2757 0.950 1_554 S
H2729 C2758 0.950 . S
H2730 C2760 0.950 . S
H2731 C2761 0.950 . S
C2732 H2714 0.951 . S
C2732 C2733 1.386 . S
C2732 C2734 1.388 . S
C2733 C2732 1.386 . S
C2733 C2737 1.376 1_565 S
C2734 H2715 0.951 . S
C2734 C2732 1.388 . S
C2734 C2735 1.366 . S
C2735 C2734 1.366 . S
C2735 C2736 1.414 . S
C2735 C2738 1.499 . S
C2736 H2716 0.950 1_565 S
C2736 C2735 1.414 . S
C2736 C2737 1.374 1_565 S
C2737 H2717 0.950 . S
C2737 C2733 1.376 1_545 S
C2737 C2736 1.374 1_545 S
C2738 C2735 1.499 . S
C2738 C2739 1.373 . S
C2738 C2740 1.389 . S
C2739 H2718 0.950 . S
C2739 C2738 1.373 . S
C2739 C2755 1.377 . S
C2740 C2738 1.389 . S
C2740 C2741 1.524 . S
C2740 C2754 1.377 . S
C2741 C2740 1.524 . S
C2741 C2742 1.397 . S
C2741 C2746 1.363 . S
C2742 H2719 0.950 1_565 S
C2742 C2741 1.397 . S
C2742 C2743 1.334 1_565 S
C2743 H2720 0.950 . S
C2743 C2742 1.334 1_545 S
C2743 C2744 1.287 1_545 S
C2744 C2743 1.287 1_565 S
C2744 C2745 1.524 . S
C2744 H2763 0.913 . S
C2745 H2721 0.950 . S
C2745 C2744 1.524 . S
C2745 C2746 1.415 . S
C2746 H2722 0.950 . S
C2746 C2741 1.363 . S
C2746 C2745 1.415 . S
C2747 H2723 0.951 . S
C2747 C2748 1.366 . S
C2747 C2749 1.388 . S
C2748 C2747 1.366 . S
C2748 C2752 1.385 . S
C2749 H2724 0.951 . S
C2749 C2747 1.388 . S
C2749 C2750 1.366 . S
C2750 C2749 1.366 . S
C2750 C2751 1.414 . S
C2750 C2753 1.499 . S
C2751 H2725 0.950 . S
C2751 C2750 1.414 . S
C2751 C2752 1.374 . S
C2752 H2726 0.950 . S
C2752 C2748 1.385 . S
C2752 C2751 1.374 . S
C2753 C2750 1.499 . S
C2753 C2754 1.373 . S
C2753 C2755 1.389 . S
C2754 H2727 0.950 . S
C2754 C2740 1.377 . S
C2754 C2753 1.373 . S
C2755 C2739 1.377 . S
C2755 C2753 1.389 . S
C2755 C2756 1.473 1_554 S
C2756 C2755 1.473 1_556 S
C2756 C2757 1.405 . S
C2756 C2761 1.407 . S
C2757 H2728 0.950 1_556 S
C2757 C2756 1.405 . S
C2757 C2758 1.334 . S
C2758 H2729 0.950 . S
C2758 C2757 1.334 . S
C2758 C2759 1.287 . S
C2759 C2758 1.287 . S
C2759 C2760 1.524 . S
C2759 H2762 0.999 . S
C2760 H2730 0.950 . S
C2760 C2759 1.524 . S
C2760 C2761 1.415 . S
C2761 H2731 0.950 . S
C2761 C2756 1.407 . S
C2761 C2760 1.415 . S
H2762 C2759 0.999 . S
H2763 C2744 0.913 . S
C398 C218 1.130 . S
C383 N66 1.118 . S
C448 C231 1.673 . S
C433 N79 1.661 . S
C483 N92 1.825 . S
C498 C244 1.833 . S
C548 C257 1.327 . S
C533 N54 1.344 . S
C598 C265 1.487 . S
C583 N131 1.489 . S
C648 C278 1.021 . S
C633 N158 1.033 . S
C683 N145 1.578 . S
C698 C291 1.558 . S
C748 C304 1.793 . S
C733 N118 1.797 . S
C783 N148 1.949 . S
C798 C322 1.920 . S
C848 C333 1.617 . S
C833 N122 1.639 . S
C883 N132 1.123 . S
C898 C317 1.100 . S
C948 C325 1.434 . S
C933 N161 1.422 . S
C983 N96 1.980 . S
C998 C348 1.996 . S
C1033 N53 1.755 . S
C1048 C338 1.740 . S
C1083 N67 0.967 . S
C1098 C343 0.950 . S
C1133 N83 1.379 . S
C1148 C346 1.375 . S
C1183 N44 1.353 . S
C1198 C255 1.343 . S
C1233 N187 1.405 . S
C1248 C247 1.408 . S
C1298 C216 1.173 . S
C1283 N197 1.195 . S
C1348 C221 1.259 . S
C1333 N106 1.276 . S
C1383 N57 1.904 . S
C1398 C268 1.861 . S
C1448 C307 1.424 . S
C1433 N144 1.434 . S
C1498 C260 1.361 . S
C1483 N119 1.374 . S
C1548 C286 1.767 . S
C1533 N157 1.787 . S
C1598 C296 1.130 . S
C1583 N183 1.118 . S
C1633 N196 1.661 . S
C1648 C309 1.673 . S
C1683 N105 1.825 . S
C1698 C270 1.833 . S
C1748 C283 1.328 . S
C1733 N171 1.345 . S
C1783 N40 1.490 . S
C1798 C239 1.487 . S
C1848 C252 1.021 . S
C1833 N2 1.033 1_655 S
C1898 C213 1.557 . S
C1883 N15 1.577 . S
C1948 C226 1.788 . S
C1933 N27 1.797 . S
C1983 N18 1.949 . S
C1998 C335 1.920 . S
C2033 N31 1.639 . S
C2048 C320 1.617 1_655 S
C2083 N41 1.123 . S
C2098 C330 1.100 . S
C2133 N5 1.421 . S
C2148 C312 1.435 . S
C2198 C361 1.996 . S
C2183 N109 1.980 . S
C2248 C351 1.740 . S
C2233 N170 1.755 . S
C2298 C356 0.950 . S
C2283 N184 0.967 . S
C2333 N200 1.378 . S
C2348 C359 1.374 . S
C2383 N135 1.354 . S
C2398 C281 1.343 . S
C2448 C273 1.408 . S
C2433 N70 1.405 . S
C2498 C294 1.172 . S
C2483 N80 1.195 . S
C2548 C299 1.259 . S
C2533 N93 1.276 . S
C2583 N174 1.904 . S
C2598 C242 1.862 . S
C2648 C229 1.424 . S
C2633 N14 1.434 . S
C2683 N28 1.374 . S
C2698 C234 1.361 . S
C2748 C208 1.768 . S
C2733 N1 1.777 1_565 S
