# Generated by pormake.
# Topology ctn, (3,4)-cn, num edge types: 1
# Building blocks:
#     Node 0, Type 0, BuildingBlock: VETTIZ_charged_linker_0, # of connection points: 3
#     Node 1, Type 0, BuildingBlock: VETTIZ_charged_linker_0, # of connection points: 3
#     Node 2, Type 0, BuildingBlock: VETTIZ_charged_linker_0, # of connection points: 3
#     Node 3, Type 0, BuildingBlock: VETTIZ_charged_linker_0, # of connection points: 3
#     Node 4, Type 0, BuildingBlock: VETTIZ_charged_linker_0, # of connection points: 3
#     Node 5, Type 0, BuildingBlock: VETTIZ_charged_linker_0, # of connection points: 3
#     Node 6, Type 0, BuildingBlock: VETTIZ_charged_linker_0, # of connection points: 3
#     Node 7, Type 0, BuildingBlock: VETTIZ_charged_linker_0, # of connection points: 3
#     Node 8, Type 0, BuildingBlock: VETTIZ_charged_linker_0, # of connection points: 3
#     Node 9, Type 0, BuildingBlock: VETTIZ_charged_linker_0, # of connection points: 3
#     Node 10, Type 0, BuildingBlock: VETTIZ_charged_linker_0, # of connection points: 3
#     Node 11, Type 0, BuildingBlock: VETTIZ_charged_linker_0, # of connection points: 3
#     Node 12, Type 0, BuildingBlock: VETTIZ_charged_linker_0, # of connection points: 3
#     Node 13, Type 0, BuildingBlock: VETTIZ_charged_linker_0, # of connection points: 3
#     Node 14, Type 0, BuildingBlock: VETTIZ_charged_linker_0, # of connection points: 3
#     Node 15, Type 0, BuildingBlock: VETTIZ_charged_linker_0, # of connection points: 3
#     Node 16, Type 1, BuildingBlock: AZAVOO_clean_sbu_0, # of connection points: 4
#     Node 17, Type 1, BuildingBlock: AZAVOO_clean_sbu_0, # of connection points: 4
#     Node 18, Type 1, BuildingBlock: AZAVOO_clean_sbu_0, # of connection points: 4
#     Node 19, Type 1, BuildingBlock: AZAVOO_clean_sbu_0, # of connection points: 4
#     Node 20, Type 1, BuildingBlock: AZAVOO_clean_sbu_0, # of connection points: 4
#     Node 21, Type 1, BuildingBlock: AZAVOO_clean_sbu_0, # of connection points: 4
#     Node 22, Type 1, BuildingBlock: AZAVOO_clean_sbu_0, # of connection points: 4
#     Node 23, Type 1, BuildingBlock: AZAVOO_clean_sbu_0, # of connection points: 4
#     Node 24, Type 1, BuildingBlock: AZAVOO_clean_sbu_0, # of connection points: 4
#     Node 25, Type 1, BuildingBlock: AZAVOO_clean_sbu_0, # of connection points: 4
#     Node 26, Type 1, BuildingBlock: AZAVOO_clean_sbu_0, # of connection points: 4
#     Node 27, Type 1, BuildingBlock: AZAVOO_clean_sbu_0, # of connection points: 4
#     Edge 28, Type (0, 1), BuildingBlock: UVAHIK_clean_linker_0, # of connection points: 2
#     Edge 29, Type (0, 1), BuildingBlock: UVAHIK_clean_linker_0, # of connection points: 2
#     Edge 30, Type (0, 1), BuildingBlock: UVAHIK_clean_linker_0, # of connection points: 2
#     Edge 31, Type (0, 1), BuildingBlock: UVAHIK_clean_linker_0, # of connection points: 2
#     Edge 32, Type (0, 1), BuildingBlock: UVAHIK_clean_linker_0, # of connection points: 2
#     Edge 33, Type (0, 1), BuildingBlock: UVAHIK_clean_linker_0, # of connection points: 2
#     Edge 34, Type (0, 1), BuildingBlock: UVAHIK_clean_linker_0, # of connection points: 2
#     Edge 35, Type (0, 1), BuildingBlock: UVAHIK_clean_linker_0, # of connection points: 2
#     Edge 36, Type (0, 1), BuildingBlock: UVAHIK_clean_linker_0, # of connection points: 2
#     Edge 37, Type (0, 1), BuildingBlock: UVAHIK_clean_linker_0, # of connection points: 2
#     Edge 38, Type (0, 1), BuildingBlock: UVAHIK_clean_linker_0, # of connection points: 2
#     Edge 39, Type (0, 1), BuildingBlock: UVAHIK_clean_linker_0, # of connection points: 2
#     Edge 40, Type (0, 1), BuildingBlock: UVAHIK_clean_linker_0, # of connection points: 2
#     Edge 41, Type (0, 1), BuildingBlock: UVAHIK_clean_linker_0, # of connection points: 2
#     Edge 42, Type (0, 1), BuildingBlock: UVAHIK_clean_linker_0, # of connection points: 2
#     Edge 43, Type (0, 1), BuildingBlock: UVAHIK_clean_linker_0, # of connection points: 2
#     Edge 44, Type (0, 1), BuildingBlock: UVAHIK_clean_linker_0, # of connection points: 2
#     Edge 45, Type (0, 1), BuildingBlock: UVAHIK_clean_linker_0, # of connection points: 2
#     Edge 46, Type (0, 1), BuildingBlock: UVAHIK_clean_linker_0, # of connection points: 2
#     Edge 47, Type (0, 1), BuildingBlock: UVAHIK_clean_linker_0, # of connection points: 2
#     Edge 48, Type (0, 1), BuildingBlock: UVAHIK_clean_linker_0, # of connection points: 2
#     Edge 49, Type (0, 1), BuildingBlock: UVAHIK_clean_linker_0, # of connection points: 2
#     Edge 50, Type (0, 1), BuildingBlock: UVAHIK_clean_linker_0, # of connection points: 2
#     Edge 51, Type (0, 1), BuildingBlock: UVAHIK_clean_linker_0, # of connection points: 2
#     Edge 52, Type (0, 1), BuildingBlock: UVAHIK_clean_linker_0, # of connection points: 2
#     Edge 53, Type (0, 1), BuildingBlock: UVAHIK_clean_linker_0, # of connection points: 2
#     Edge 54, Type (0, 1), BuildingBlock: UVAHIK_clean_linker_0, # of connection points: 2
#     Edge 55, Type (0, 1), BuildingBlock: UVAHIK_clean_linker_0, # of connection points: 2
#     Edge 56, Type (0, 1), BuildingBlock: UVAHIK_clean_linker_0, # of connection points: 2
#     Edge 57, Type (0, 1), BuildingBlock: UVAHIK_clean_linker_0, # of connection points: 2
#     Edge 58, Type (0, 1), BuildingBlock: UVAHIK_clean_linker_0, # of connection points: 2
#     Edge 59, Type (0, 1), BuildingBlock: UVAHIK_clean_linker_0, # of connection points: 2
#     Edge 60, Type (0, 1), BuildingBlock: UVAHIK_clean_linker_0, # of connection points: 2
#     Edge 61, Type (0, 1), BuildingBlock: UVAHIK_clean_linker_0, # of connection points: 2
#     Edge 62, Type (0, 1), BuildingBlock: UVAHIK_clean_linker_0, # of connection points: 2
#     Edge 63, Type (0, 1), BuildingBlock: UVAHIK_clean_linker_0, # of connection points: 2
#     Edge 64, Type (0, 1), BuildingBlock: UVAHIK_clean_linker_0, # of connection points: 2
#     Edge 65, Type (0, 1), BuildingBlock: UVAHIK_clean_linker_0, # of connection points: 2
#     Edge 66, Type (0, 1), BuildingBlock: UVAHIK_clean_linker_0, # of connection points: 2
#     Edge 67, Type (0, 1), BuildingBlock: UVAHIK_clean_linker_0, # of connection points: 2
#     Edge 68, Type (0, 1), BuildingBlock: UVAHIK_clean_linker_0, # of connection points: 2
#     Edge 69, Type (0, 1), BuildingBlock: UVAHIK_clean_linker_0, # of connection points: 2
#     Edge 70, Type (0, 1), BuildingBlock: UVAHIK_clean_linker_0, # of connection points: 2
#     Edge 71, Type (0, 1), BuildingBlock: UVAHIK_clean_linker_0, # of connection points: 2
#     Edge 72, Type (0, 1), BuildingBlock: UVAHIK_clean_linker_0, # of connection points: 2
#     Edge 73, Type (0, 1), BuildingBlock: UVAHIK_clean_linker_0, # of connection points: 2
#     Edge 74, Type (0, 1), BuildingBlock: UVAHIK_clean_linker_0, # of connection points: 2
#     Edge 75, Type (0, 1), BuildingBlock: UVAHIK_clean_linker_0, # of connection points: 2
# Relax obj value: 0.002
# Max RMSD: 0.045
# Mean RMSD: 0.024
data_MOF--net-ctn--node1-AZAVOO_clean_sbu_0--node2-VETTIZ_charged_linker_0--edge1-UVAHIK_clean_linker_0
_symmetry_space_group_name_H-M    P1
_symmetry_Int_Tables_number       1
_symmetry_cell_setting            triclinic
loop_
_symmetry_equiv_pos_as_xyz
'x, y, z'
_cell_length_a     82.401228
_cell_length_b     83.535654
_cell_length_c     83.534502
_cell_angle_alpha  90.101282
_cell_angle_beta   92.449526
_cell_angle_gamma 92.702434
loop_
_atom_site_label
_atom_site_type_symbol
_atom_site_fract_x
_atom_site_fract_y
_atom_site_fract_z
_atom_type_partial_charge
C0 C 0.02253 0.0584 0.97222 0.0
C1 C 0.00975 0.06884 0.97352 0.0
C2 C 0.99825 0.06585 0.9853 0.0
C3 C 0.01333 0.04342 0.99524 0.0
C4 C 0.02414 0.04589 0.98319 0.0
C5 C 0.03771 0.03447 0.98413 0.0
H6 H 0.07811 0.97844 0.0257 0.0
C7 C 0.01937 0.03045 0.00559 0.0
C8 C 0.03363 0.02515 0.99913 0.0
H9 H 0.0887 0.99834 0.97927 0.0
H10 H 0.065 0.01404 0.97992 0.0
H11 H 0.06782 0.01019 0.04185 0.0
H12 H 0.03908 0.97259 0.01729 0.0
H13 H 0.02895 0.97772 0.03454 0.0
H14 H 0.04894 0.96989 0.03661 0.0
H15 H 0.06357 0.99109 0.05094 0.0
H16 H 0.04988 0.00723 0.05227 0.0
C17 C 0.05401 0.04443 0.98631 0.0
C18 C 0.03633 0.02369 0.96895 0.0
C19 C 0.99061 0.01605 0.05654 0.0
C20 C 0.99455 0.00628 0.06974 0.0
C21 C 0.00865 0.99732 0.0693 0.0
C22 C 0.01862 0.99818 0.05612 0.0
C23 C 0.01465 0.00826 0.04324 0.0
C24 C 0.00087 0.01702 0.04362 0.0
C25 C 0.99914 0.02793 0.02942 0.0
C26 C 0.01396 0.02401 0.02025 0.0
C27 C 0.02296 0.01241 0.02836 0.0
C28 C 6e-05 0.0455 0.03562 0.0
C29 C 0.98314 0.02296 0.01993 0.0
C30 C 0.07527 0.98603 0.01557 0.0
C31 C 0.08549 0.98721 0.00248 0.0
C32 C 0.08131 0.99742 0.98967 0.0
C33 C 0.06744 0.00646 0.99 0.0
C34 C 0.05755 0.00533 0.00327 0.0
C35 C 0.06138 0.99505 0.01564 0.0
C36 C 0.04914 0.99503 0.02851 0.0
C37 C 0.03735 0.007 0.0218 0.0
C38 C 0.04248 0.01315 0.00713 0.0
C39 C 0.05796 0.00107 0.0443 0.0
C40 C 0.0411 0.97793 0.02947 0.0
H41 H 0.99101 0.05171 0.00505 0.0
H42 H 0.03139 0.06019 0.9631 0.0
H43 H 0.02354 0.02231 0.96412 0.0
H44 H 0.0399 0.0113 0.97142 0.0
H45 H 0.04378 0.02885 0.95928 0.0
H46 H 0.05284 0.05443 0.99494 0.0
H47 H 0.0577 0.04974 0.97476 0.0
H48 H 0.06406 0.03748 0.9913 0.0
H49 H 0.97984 0.023 0.05626 0.0
H50 H 0.01228 0.98994 0.07934 0.0
H51 H 0.02922 0.99119 0.05662 0.0
H52 H 0.00764 0.04675 0.04695 0.0
H53 H 0.98779 0.04962 0.03809 0.0
H54 H 0.00599 0.05395 0.0273 0.0
H55 H 0.98139 0.00968 0.01936 0.0
H56 H 0.98305 0.02694 0.00733 0.0
H57 H 0.97246 0.02769 0.02574 0.0
H58 H 0.98832 0.07373 0.98659 0.0
C59 C 0.99994 0.05316 0.99612 0.0
C60 C 0.27834 0.67566 0.23474 0.0
C61 C 0.26516 0.67205 0.22391 0.0
C62 C 0.26328 0.68127 0.20993 0.0
C63 C 0.28722 0.69781 0.21795 0.0
C64 C 0.28929 0.68844 0.23144 0.0
C65 C 0.30437 0.69348 0.24131 0.0
H66 H 0.37065 0.74396 0.25253 0.0
C67 C 0.3005 0.71034 0.21826 0.0
C68 C 0.31068 0.70779 0.23183 0.0
H69 H 0.35679 0.70232 0.28042 0.0
H70 H 0.33276 0.6976 0.26329 0.0
H71 H 0.33532 0.75754 0.24916 0.0
H72 H 0.36123 0.728 0.21763 0.0
H73 H 0.35223 0.74317 0.20619 0.0
H74 H 0.36705 0.7486 0.22194 0.0
H75 H 0.35077 0.76586 0.23672 0.0
H76 H 0.32982 0.76326 0.22955 0.0
C77 C 0.29922 0.69845 0.25815 0.0
C78 C 0.31615 0.67951 0.24132 0.0
C79 C 0.30127 0.7532 0.17531 0.0
C80 C 0.31129 0.76701 0.17301 0.0
C81 C 0.32427 0.77073 0.18411 0.0
C82 C 0.3274 0.76066 0.19719 0.0
C83 C 0.31734 0.74681 0.19926 0.0
C84 C 0.30442 0.7434 0.18851 0.0
C85 C 0.29456 0.72861 0.19297 0.0
C86 C 0.3038 0.72357 0.20808 0.0
C87 C 0.31721 0.73417 0.21162 0.0
C88 C 0.27716 0.73361 0.19639 0.0
C89 C 0.29536 0.71612 0.17931 0.0
C90 C 0.36238 0.73389 0.255 0.0
C91 C 0.3657 0.72344 0.26779 0.0
C92 C 0.35467 0.7104 0.27049 0.0
C93 C 0.34067 0.70771 0.26057 0.0
C94 C 0.33762 0.71814 0.24775 0.0
C95 C 0.34836 0.73099 0.24514 0.0
C96 C 0.34317 0.74073 0.23085 0.0
C97 C 0.32774 0.7314 0.22513 0.0
C98 C 0.32451 0.71824 0.23513 0.0
C99 C 0.33967 0.75779 0.23673 0.0
C100 C 0.35659 0.74026 0.21846 0.0
H101 H 0.27204 0.70084 0.19613 0.0
H102 H 0.28022 0.66852 0.24542 0.0
H103 H 0.31425 0.67206 0.23028 0.0
H104 H 0.32906 0.68374 0.24127 0.0
H105 H 0.31433 0.67149 0.25174 0.0
H106 H 0.28817 0.70561 0.2572 0.0
H107 H 0.29634 0.68774 0.26557 0.0
H108 H 0.30851 0.70616 0.26469 0.0
H109 H 0.29103 0.75022 0.16711 0.0
H110 H 0.33213 0.78132 0.18252 0.0
H111 H 0.33754 0.76404 0.20516 0.0
H112 H 0.27754 0.74544 0.20258 0.0
H113 H 0.26969 0.73467 0.1851 0.0
H114 H 0.27074 0.72532 0.20451 0.0
H115 H 0.30733 0.71711 0.1736 0.0
H116 H 0.29433 0.70362 0.18361 0.0
H117 H 0.28578 0.71789 0.1698 0.0
H118 H 0.25319 0.67862 0.20144 0.0
C119 C 0.27419 0.69418 0.20692 0.0
C120 C 0.99701 0.43047 0.01367 0.0
C121 C 0.98784 0.42738 0.99932 0.0
C122 C 0.97496 0.43729 0.9951 0.0
C123 C 0.98009 0.45258 0.01962 0.0
C124 C 0.99289 0.44304 0.02363 0.0
C125 C 0.00091 0.44752 0.03965 0.0
H126 H 0.00632 0.49686 0.10434 0.0
C127 C 0.97862 0.46418 0.03278 0.0
C128 C 0.99079 0.4613 0.04457 0.0
H129 H 0.03532 0.45641 0.09498 0.0
H130 H 0.01969 0.45093 0.07025 0.0
H131 H 0.97302 0.4788 0.09522 0.0
H132 H 0.0035 0.51049 0.06769 0.0
H133 H 0.98324 0.5161 0.06479 0.0
H134 H 0.9927 0.51684 0.08462 0.0
H135 H 0.9728 0.50015 0.09737 0.0
H136 H 0.95982 0.4894 0.0826 0.0
C137 C 0.99899 0.43296 0.05102 0.0
C138 C 0.01875 0.4531 0.0369 0.0
C139 C 0.93353 0.50371 0.02979 0.0
C140 C 0.92871 0.51553 0.0404 0.0
C141 C 0.93788 0.51824 0.05489 0.0
C142 C 0.9515 0.50936 0.05876 0.0
C143 C 0.95603 0.49751 0.04811 0.0
C144 C 0.9471 0.49485 0.0339 0.0
C145 C 0.95349 0.48151 0.02422 0.0
C146 C 0.96763 0.47651 0.03504 0.0
C147 C 0.9691 0.48597 0.04897 0.0
C148 C 0.93993 0.46804 0.02233 0.0
C149 C 0.95929 0.48862 0.00821 0.0
C150 C 0.00929 0.48688 0.09688 0.0
C151 C 0.0221 0.47711 0.10145 0.0
C152 C 0.02546 0.46404 0.09165 0.0
C153 C 0.01643 0.46095 0.07728 0.0
C154 C 0.00377 0.47094 0.07274 0.0
C155 C 0.00021 0.48348 0.08262 0.0
C156 C 0.98578 0.49228 0.07631 0.0
C157 C 0.98157 0.48326 0.06079 0.0
C158 C 0.99224 0.47087 0.05868 0.0
C159 C 0.97212 0.49022 0.08847 0.0
C160 C 0.99145 0.50991 0.07324 0.0
H161 H 0.96108 0.4569 0.00127 0.0
H162 H 0.00683 0.42293 0.01735 0.0
H163 H 0.01947 0.46074 0.02603 0.0
H164 H 0.02429 0.46057 0.04677 0.0
H165 H 0.02639 0.44268 0.03513 0.0
H166 H 0.98756 0.42575 0.04804 0.0
H167 H 0.00926 0.4249 0.05013 0.0
H168 H 0.99796 0.43653 0.06367 0.0
H169 H 0.92692 0.50139 0.01847 0.0
H170 H 0.93435 0.52705 0.06345 0.0
H171 H 0.95789 0.51199 0.06999 0.0
H172 H 0.93269 0.46709 0.03327 0.0
H173 H 0.93141 0.47043 0.01204 0.0
H174 H 0.94472 0.45602 0.02088 0.0
H175 H 0.96475 0.50096 0.01002 0.0
H176 H 0.96899 0.48183 0.00302 0.0
H177 H 0.949 0.48931 0.99925 0.0
H178 H 0.96782 0.43523 0.98403 0.0
C179 C 0.97108 0.44988 0.00512 0.0
C180 C 0.67905 0.80917 0.25003 0.0
C181 C 0.66956 0.79474 0.25003 0.0
C182 C 0.67233 0.78283 0.23863 0.0
C183 C 0.69396 0.79961 0.22774 0.0
C184 C 0.69119 0.8113 0.23889 0.0
C185 C 0.70283 0.82563 0.23773 0.0
H186 H 0.7672 0.86201 0.20263 0.0
C187 C 0.70766 0.80544 0.21811 0.0
C188 C 0.71292 0.82069 0.22393 0.0
H189 H 0.7406 0.87935 0.24216 0.0
H190 H 0.72267 0.85565 0.24063 0.0
H191 H 0.73614 0.84987 0.18135 0.0
H192 H 0.76791 0.82552 0.21435 0.0
H193 H 0.76436 0.81318 0.19737 0.0
H194 H 0.77409 0.83278 0.19522 0.0
H195 H 0.75589 0.84413 0.17597 0.0
H196 H 0.73816 0.83068 0.17332 0.0
C197 C 0.69285 0.84041 0.23349 0.0
C198 C 0.71309 0.82718 0.25371 0.0
C199 C 0.72689 0.77092 0.17306 0.0
C200 C 0.73881 0.77351 0.16167 0.0
C201 C 0.74831 0.788 0.1621 0.0
C202 C 0.74598 0.79974 0.17366 0.0
C203 C 0.73396 0.79704 0.1849 0.0
C204 C 0.7246 0.78286 0.18445 0.0
C205 C 0.71206 0.78234 0.19704 0.0
C206 C 0.71548 0.79852 0.20513 0.0
C207 C 0.7284 0.80701 0.19804 0.0
C208 C 0.69499 0.78107 0.18846 0.0
C209 C 0.7157 0.76828 0.20852 0.0
C210 C 0.7574 0.86082 0.21084 0.0
C211 C 0.75534 0.8726 0.22254 0.0
C212 C 0.74257 0.87038 0.23315 0.0
C213 C 0.73213 0.85663 0.23221 0.0
C214 C 0.73449 0.84487 0.22057 0.0
C215 C 0.74691 0.84713 0.21009 0.0
C216 C 0.74769 0.83336 0.19857 0.0
C217 C 0.73381 0.82237 0.20398 0.0
C218 C 0.72611 0.82917 0.21686 0.0
C219 C 0.74443 0.83973 0.18136 0.0
C220 C 0.76439 0.82579 0.20135 0.0
H221 H 0.68597 0.77566 0.21914 0.0
H222 H 0.67739 0.81844 0.25882 0.0
H223 H 0.71524 0.81519 0.25895 0.0
H224 H 0.72538 0.83267 0.2522 0.0
H225 H 0.70682 0.83419 0.2627 0.0
H226 H 0.68262 0.8371 0.22481 0.0
H227 H 0.68758 0.84542 0.24434 0.0
H228 H 0.70001 0.85 0.22755 0.0
H229 H 0.71928 0.75998 0.1729 0.0
H230 H 0.75765 0.79019 0.15353 0.0
H231 H 0.75363 0.81047 0.17335 0.0
H232 H 0.69486 0.78803 0.17712 0.0
H233 H 0.69134 0.76843 0.18541 0.0
H234 H 0.68548 0.78621 0.19555 0.0
H235 H 0.72904 0.76706 0.21038 0.0
H236 H 0.71127 0.77007 0.22065 0.0
H237 H 0.71041 0.75674 0.20359 0.0
H238 H 0.6651 0.77165 0.23833 0.0
C239 C 0.68444 0.7852 0.22747 0.0
C240 C 0.04803 0.9358 0.50876 0.0
C241 C 0.03569 0.92395 0.50544 0.0
C242 C 0.02446 0.9261 0.49252 0.0
C243 C 0.0379 0.95166 0.48646 0.0
C244 C 0.04902 0.94944 0.49904 0.0
C245 C 0.06196 0.96276 0.50027 0.0
H246 H 0.09391 0.03276 0.47201 0.0
C247 C 0.04241 0.96698 0.47862 0.0
C248 C 0.05656 0.97349 0.48658 0.0
H249 H 0.11265 0.00395 0.51095 0.0
H250 H 0.09001 0.98481 0.50691 0.0
H251 H 0.05656 0.0295 0.48156 0.0
H252 H 0.08366 0.00321 0.44818 0.0
H253 H 0.06476 0.0072 0.43884 0.0
H254 H 0.07856 0.02365 0.44499 0.0
H255 H 0.06225 0.03779 0.4627 0.0
H256 H 0.04372 0.02565 0.46454 0.0
C257 C 0.0609 0.97106 0.51675 0.0
C258 C 0.0786 0.95554 0.4974 0.0
C259 C 0.00742 0.98653 0.43177 0.0
C260 C 0.0083 0.00032 0.42214 0.0
C261 C 0.02095 0.012 0.42537 0.0
C262 C 0.03265 0.00985 0.43779 0.0
C263 C 0.03171 0.9959 0.44715 0.0
C264 C 0.01915 0.9846 0.44414 0.0
C265 C 0.01995 0.97059 0.45537 0.0
C266 C 0.03509 0.9753 0.4656 0.0
C267 C 0.04198 0.99009 0.46069 0.0
C268 C 0.00444 0.97006 0.46525 0.0
C269 C 0.02217 0.95527 0.44532 0.0
C270 C 0.09306 0.02239 0.47975 0.0
C271 C 0.10512 0.01986 0.4918 0.0
C272 C 0.10365 0.00608 0.50145 0.0
C273 C 0.09044 0.99501 0.49914 0.0
C274 C 0.07855 0.99767 0.48699 0.0
C275 C 0.07997 0.01118 0.47754 0.0
C276 C 0.06625 0.01194 0.46512 0.0
C277 C 0.05645 0.99658 0.46857 0.0
C278 C 0.0637 0.9883 0.48143 0.0
C279 C 0.05668 0.02703 0.46847 0.0
C280 C 0.07356 0.01159 0.44835 0.0
H281 H 0.01651 0.94086 0.47344 0.0
H282 H 0.05699 0.93428 0.51846 0.0
H283 H 0.07718 0.94497 0.48925 0.0
H284 H 0.08707 0.96395 0.49135 0.0
H285 H 0.08449 0.95153 0.50882 0.0
H286 H 0.04798 0.97227 0.51977 0.0
H287 H 0.06682 0.964 0.52643 0.0
H288 H 0.06634 0.98339 0.51705 0.0
H289 H 0.99774 0.97742 0.42976 0.0
H290 H 0.02201 0.02265 0.41805 0.0
H291 H 0.04205 0.0191 0.43952 0.0
H292 H 0.00113 0.98238 0.46848 0.0
H293 H 0.99393 0.9643 0.45831 0.0
H294 H 0.00599 0.96381 0.47679 0.0
H295 H 0.02922 0.95808 0.43452 0.0
H296 H 0.02928 0.94629 0.45188 0.0
H297 H 0.01025 0.94965 0.44116 0.0
H298 H 0.01485 0.91708 0.4898 0.0
C299 C 0.02544 0.93992 0.48308 0.0
C300 C 0.24881 0.6724 0.77337 0.0
C301 C 0.24789 0.6619 0.76017 0.0
C302 C 0.23519 0.66325 0.74846 0.0
C303 C 0.22472 0.68535 0.76313 0.0
C304 C 0.23721 0.68401 0.77457 0.0
C305 C 0.23684 0.69644 0.78755 0.0
H306 H 0.20247 0.76107 0.81818 0.0
C307 C 0.21483 0.69875 0.76791 0.0
C308 C 0.2219 0.7053 0.7822 0.0
H309 H 0.24495 0.7372 0.83628 0.0
H310 H 0.24166 0.71795 0.81486 0.0
H311 H 0.18099 0.72967 0.81181 0.0
H312 H 0.20989 0.75829 0.77993 0.0
H313 H 0.19057 0.75395 0.7706 0.0
H314 H 0.19209 0.76505 0.78909 0.0
H315 H 0.17345 0.7474 0.80265 0.0
H316 H 0.17093 0.72806 0.79289 0.0
C317 C 0.23447 0.68768 0.80368 0.0
C318 C 0.25264 0.70725 0.78701 0.0
C319 C 0.16531 0.71331 0.73354 0.0
C320 C 0.15327 0.7244 0.73556 0.0
C321 C 0.15407 0.73424 0.74929 0.0
C322 C 0.16691 0.73328 0.76075 0.0
C323 C 0.17897 0.72222 0.75854 0.0
C324 C 0.17789 0.71228 0.74525 0.0
C325 C 0.19123 0.70057 0.74542 0.0
C326 C 0.20062 0.70529 0.76087 0.0
C327 C 0.19351 0.71814 0.76837 0.0
C328 C 0.18332 0.6834 0.74623 0.0
C329 C 0.20147 0.70378 0.73054 0.0
C330 C 0.21101 0.75165 0.81758 0.0
C331 C 0.22413 0.75086 0.82886 0.0
C332 C 0.23497 0.73838 0.82756 0.0
C333 C 0.23298 0.7271 0.81515 0.0
C334 C 0.21998 0.72819 0.80385 0.0
C335 C 0.20918 0.74023 0.80523 0.0
C336 C 0.19591 0.73928 0.79226 0.0
C337 C 0.20081 0.72494 0.78267 0.0
C338 C 0.21491 0.71853 0.78953 0.0
C339 C 0.17941 0.73604 0.8002 0.0
C340 C 0.19701 0.75496 0.78242 0.0
H341 H 0.21424 0.67531 0.74059 0.0
H342 H 0.25859 0.67187 0.78241 0.0
H343 H 0.25675 0.70849 0.77454 0.0
H344 H 0.25102 0.71968 0.79097 0.0
H345 H 0.26269 0.70216 0.79435 0.0
H346 H 0.22619 0.67684 0.80199 0.0
H347 H 0.24623 0.68373 0.80891 0.0
H348 H 0.22863 0.69503 0.8126 0.0
H349 H 0.16478 0.70544 0.72319 0.0
H350 H 0.14484 0.74283 0.75102 0.0
H351 H 0.16696 0.74119 0.77087 0.0
H352 H 0.17227 0.6832 0.75345 0.0
H353 H 0.17959 0.67879 0.73408 0.0
H354 H 0.19132 0.67482 0.75226 0.0
H355 H 0.20295 0.71686 0.7282 0.0
H356 H 0.21397 0.69966 0.73206 0.0
H357 H 0.19551 0.69804 0.71967 0.0
H358 H 0.23418 0.65525 0.73822 0.0
C359 C 0.22359 0.67488 0.7499 0.0
C360 C 0.91709 0.4833 0.48118 0.0
C361 C 0.91303 0.46992 0.47134 0.0
C362 C 0.92285 0.46684 0.45835 0.0
C363 C 0.94057 0.49002 0.46548 0.0
C364 C 0.93082 0.49308 0.47809 0.0
C365 C 0.93683 0.50759 0.48763 0.0
H366 H 0.98967 0.57139 0.49732 0.0
C367 C 0.95401 0.50243 0.46577 0.0
C368 C 0.95185 0.51272 0.47874 0.0
H369 H 0.94959 0.55693 0.52681 0.0
H370 H 0.94378 0.53369 0.51027 0.0
H371 H 0.97258 0.56153 0.46259 0.0
H372 H 0.00357 0.53721 0.49631 0.0
H373 H 0.00826 0.53017 0.47734 0.0
H374 H 0.01175 0.55118 0.48215 0.0
H375 H 0.99347 0.56753 0.46725 0.0
H376 H 0.988 0.55272 0.45207 0.0
C377 C 0.9236 0.52016 0.48624 0.0
C378 C 0.94112 0.50221 0.50501 0.0
C379 C 0.99755 0.50153 0.42434 0.0
C380 C 0.01185 0.51103 0.4223 0.0
C381 C 0.0156 0.52408 0.43273 0.0
C382 C 0.00531 0.52764 0.44503 0.0
C383 C 0.99115 0.51797 0.44706 0.0
C384 C 0.98749 0.50511 0.43687 0.0
C385 C 0.97226 0.49579 0.44133 0.0
C386 C 0.96744 0.50518 0.45584 0.0
C387 C 0.97848 0.51825 0.45902 0.0
C388 C 0.95957 0.49677 0.42719 0.0
C389 C 0.97683 0.47853 0.44578 0.0
C390 C 0.97973 0.56317 0.50036 0.0
C391 C 0.96992 0.56631 0.51332 0.0
C392 C 0.9571 0.55518 0.51669 0.0
C393 C 0.95379 0.54156 0.50711 0.0
C394 C 0.96347 0.53882 0.49404 0.0
C395 C 0.97638 0.54936 0.49103 0.0
C396 C 0.98584 0.54403 0.4771 0.0
C397 C 0.97613 0.52882 0.47198 0.0
C398 C 0.96298 0.52595 0.48186 0.0
C399 C 0.98508 0.55711 0.46402 0.0
C400 C 0.00331 0.54054 0.48341 0.0
H401 H 0.94361 0.47378 0.44538 0.0
H402 H 0.9097 0.48619 0.4911 0.0
H403 H 0.94505 0.48964 0.5053 0.0
H404 H 0.95153 0.50931 0.51062 0.0
H405 H 0.9305 0.50282 0.5127 0.0
H406 H 0.91801 0.52031 0.47387 0.0
H407 H 0.91372 0.51738 0.49458 0.0
H408 H 0.92841 0.53254 0.48847 0.0
H409 H 0.99447 0.49132 0.41659 0.0
H410 H 0.02648 0.53164 0.43127 0.0
H411 H 0.00882 0.53777 0.45251 0.0
H412 H 0.96012 0.5089 0.42171 0.0
H413 H 0.96186 0.48795 0.41768 0.0
H414 H 0.94693 0.49489 0.43089 0.0
H415 H 0.98905 0.47856 0.452 0.0
H416 H 0.96853 0.47272 0.45427 0.0
H417 H 0.97718 0.47089 0.43492 0.0
H418 H 0.92009 0.45654 0.45065 0.0
C419 C 0.93658 0.47681 0.45537 0.0
C420 C 0.79251 0.73385 0.81676 0.0
C421 C 0.77793 0.7312 0.82481 0.0
C422 C 0.76432 0.73994 0.81995 0.0
C423 C 0.78027 0.75475 0.80082 0.0
C424 C 0.79333 0.74553 0.80472 0.0
C425 C 0.80766 0.74964 0.79463 0.0
H426 H 0.84072 0.79562 0.7365 0.0
C427 C 0.78529 0.76645 0.78856 0.0
C428 C 0.80124 0.76337 0.78465 0.0
H429 H 0.86126 0.75511 0.76082 0.0
H430 H 0.83766 0.75216 0.77689 0.0
H431 H 0.82798 0.81162 0.76824 0.0
H432 H 0.80431 0.78079 0.73217 0.0
H433 H 0.79128 0.7963 0.73615 0.0
H434 H 0.81098 0.80118 0.72846 0.0
H435 H 0.82121 0.81915 0.74912 0.0
H436 H 0.80797 0.81777 0.76579 0.0
C437 C 0.82222 0.75527 0.80591 0.0
C438 C 0.81082 0.73482 0.78422 0.0
C439 C 0.74819 0.81128 0.77313 0.0
C440 C 0.75009 0.82488 0.76335 0.0
C441 C 0.76435 0.82692 0.75464 0.0
C442 C 0.77656 0.8158 0.75586 0.0
C443 C 0.77462 0.8025 0.76599 0.0
C444 C 0.76058 0.80039 0.77435 0.0
C445 C 0.76077 0.7858 0.78486 0.0
C446 C 0.77739 0.77967 0.78163 0.0
C447 C 0.7854 0.78944 0.77052 0.0
C448 C 0.75963 0.79143 0.80245 0.0
C449 C 0.74678 0.77388 0.77893 0.0
C450 C 0.84025 0.78623 0.74542 0.0
C451 C 0.85287 0.77552 0.7473 0.0
C452 C 0.85162 0.76336 0.75894 0.0
C453 C 0.83791 0.76167 0.76828 0.0
C454 C 0.82524 0.77222 0.76597 0.0
C455 C 0.82661 0.78434 0.75481 0.0
C456 C 0.81196 0.79445 0.754 0.0
C457 C 0.80132 0.786 0.76608 0.0
C458 C 0.8092 0.77305 0.77312 0.0
C459 C 0.81745 0.81169 0.75944 0.0
C460 C 0.80419 0.79328 0.7368 0.0
H461 H 0.75472 0.75806 0.8052 0.0
H462 H 0.8032 0.72732 0.81996 0.0
H463 H 0.79944 0.72736 0.78169 0.0
H464 H 0.81511 0.73811 0.77225 0.0
H465 H 0.81973 0.72704 0.79031 0.0
H466 H 0.81818 0.76339 0.81537 0.0
H467 H 0.82781 0.74491 0.81193 0.0
H468 H 0.83174 0.76223 0.79967 0.0
H469 H 0.73732 0.80918 0.77981 0.0
H470 H 0.7663 0.83736 0.74718 0.0
H471 H 0.78715 0.81812 0.74904 0.0
H472 H 0.76775 0.80227 0.80486 0.0
H473 H 0.74703 0.79456 0.80493 0.0
H474 H 0.76355 0.78251 0.81132 0.0
H475 H 0.74351 0.77563 0.76601 0.0
H476 H 0.75021 0.76124 0.77976 0.0
H477 H 0.73563 0.7754 0.78568 0.0
H478 H 0.75272 0.73778 0.82536 0.0
C479 C 0.76544 0.7517 0.80811 0.0
C480 C 0.29034 0.23658 0.31795 0.0
C481 C 0.27731 0.236 0.32833 0.0
C482 C 0.2659 0.24806 0.32724 0.0
C483 C 0.28067 0.26108 0.30606 0.0
C484 C 0.29178 0.24919 0.30698 0.0
C485 C 0.305 0.25177 0.29524 0.0
H486 H 0.33876 0.29689 0.23693 0.0
C487 C 0.28589 0.2727 0.29378 0.0
C488 C 0.30016 0.26735 0.28741 0.0
H489 H 0.35382 0.25141 0.25546 0.0
H490 H 0.33224 0.25093 0.27411 0.0
H491 H 0.33065 0.31264 0.27155 0.0
H492 H 0.30119 0.28714 0.23511 0.0
H493 H 0.29 0.30308 0.24173 0.0
H494 H 0.30904 0.30732 0.2324 0.0
H495 H 0.32523 0.3215 0.25263 0.0
H496 H 0.31215 0.32221 0.26938 0.0
C497 C 0.32147 0.25379 0.30484 0.0
C498 C 0.30384 0.23756 0.28321 0.0
C499 C 0.25268 0.32139 0.28218 0.0
C500 C 0.25469 0.33459 0.27188 0.0
C501 C 0.26842 0.33559 0.26232 0.0
C502 C 0.27983 0.32365 0.26291 0.0
C503 C 0.27758 0.31052 0.27319 0.0
C504 C 0.26424 0.30962 0.28267 0.0
C505 C 0.26402 0.29502 0.29317 0.0
C506 C 0.27931 0.2872 0.28827 0.0
C507 C 0.28718 0.29629 0.27652 0.0
C508 C 0.26529 0.30068 0.3109 0.0
C509 C 0.24848 0.28456 0.28857 0.0
C510 C 0.33753 0.28699 0.24522 0.0
C511 C 0.34799 0.2742 0.24481 0.0
C512 C 0.34583 0.26135 0.25553 0.0
C513 C 0.33329 0.26109 0.26634 0.0
C514 C 0.32267 0.27376 0.26636 0.0
C515 C 0.32489 0.28645 0.25595 0.0
C516 C 0.31198 0.29849 0.2572 0.0
C517 C 0.30162 0.29089 0.27002 0.0
C518 C 0.30802 0.27647 0.2754 0.0
C519 C 0.32032 0.31464 0.26287 0.0
C520 C 0.30255 0.29923 0.24078 0.0
H521 H 0.25846 0.26938 0.31607 0.0
H522 H 0.29924 0.22744 0.31835 0.0
H523 H 0.29108 0.23272 0.2814 0.0
H524 H 0.30751 0.24109 0.27109 0.0
H525 H 0.31129 0.22758 0.28755 0.0
H526 H 0.32021 0.26109 0.31583 0.0
H527 H 0.32594 0.24199 0.30863 0.0
H528 H 0.331 0.26025 0.29814 0.0
H529 H 0.24225 0.32012 0.28961 0.0
H530 H 0.27048 0.34574 0.2545 0.0
H531 H 0.28999 0.32515 0.25535 0.0
H532 H 0.27255 0.31222 0.31223 0.0
H533 H 0.25309 0.30255 0.31553 0.0
H534 H 0.27174 0.29231 0.31887 0.0
H535 H 0.24586 0.28476 0.27539 0.0
H536 H 0.24962 0.27178 0.29153 0.0
H537 H 0.23772 0.28902 0.29445 0.0
H538 H 0.2559 0.2481 0.33524 0.0
C539 C 0.26749 0.26054 0.31618 0.0
C540 C 0.49762 0.93567 0.50954 0.0
C541 C 0.4881 0.93288 0.49534 0.0
C542 C 0.47498 0.94271 0.49179 0.0
C543 C 0.48049 0.95721 0.51674 0.0
C544 C 0.49358 0.94782 0.52004 0.0
C545 C 0.50197 0.9519 0.53598 0.0
H546 H 0.50817 0.99876 0.60247 0.0
C547 C 0.47914 0.96826 0.53039 0.0
C548 C 0.49172 0.96525 0.5417 0.0
H549 H 0.53779 0.9595 0.59057 0.0
H550 H 0.52161 0.95469 0.56604 0.0
H551 H 0.47513 0.98016 0.59364 0.0
H552 H 0.5037 0.01382 0.56635 0.0
H553 H 0.48319 0.01891 0.56451 0.0
H554 H 0.49341 0.0191 0.58399 0.0
H555 H 0.47433 0.00136 0.59665 0.0
H556 H 0.46122 0.9908 0.58186 0.0
C557 C 0.50071 0.93693 0.54688 0.0
C558 C 0.5196 0.95799 0.53289 0.0
C559 C 0.43262 0.0061 0.53058 0.0
C560 C 0.4277 0.01712 0.54192 0.0
C561 C 0.43726 0.01968 0.55618 0.0
C562 C 0.4514 0.01129 0.55917 0.0
C563 C 0.45602 0.00011 0.54784 0.0
C564 C 0.4467 0.99769 0.53382 0.0
C565 C 0.45321 0.98501 0.52337 0.0
C566 C 0.46788 0.98012 0.5335 0.0
C567 C 0.46951 0.98906 0.54778 0.0
C568 C 0.44007 0.97116 0.52139 0.0
C569 C 0.4582 0.99296 0.50745 0.0
C570 C 0.51116 0.9892 0.59448 0.0
C571 C 0.52429 0.97957 0.59827 0.0
C572 C 0.52768 0.96703 0.58783 0.0
C573 C 0.51833 0.96432 0.57358 0.0
C574 C 0.50531 0.97414 0.56984 0.0
C575 C 0.50175 0.98617 0.58034 0.0
C576 C 0.48687 0.99476 0.57487 0.0
C577 C 0.48242 0.98626 0.55909 0.0
C578 C 0.49335 0.9743 0.55614 0.0
C579 C 0.47367 0.99178 0.58737 0.0
C580 C 0.49191 0.01263 0.57235 0.0
H581 H 0.46095 0.96182 0.49904 0.0
H582 H 0.50764 0.92819 0.51271 0.0
H583 H 0.51984 0.96593 0.52221 0.0
H584 H 0.52523 0.96533 0.54281 0.0
H585 H 0.52742 0.94783 0.53061 0.0
H586 H 0.48934 0.92958 0.54399 0.0
H587 H 0.51111 0.92915 0.54538 0.0
H588 H 0.49999 0.94002 0.5597 0.0
H589 H 0.42544 0.00373 0.51959 0.0
H590 H 0.43381 0.02825 0.56502 0.0
H591 H 0.45814 0.01378 0.57024 0.0
H592 H 0.43336 0.96942 0.53259 0.0
H593 H 0.43102 0.97372 0.5116 0.0
H594 H 0.44519 0.95944 0.51911 0.0
H595 H 0.46313 0.00546 0.50955 0.0
H596 H 0.46807 0.98685 0.50175 0.0
H597 H 0.44762 0.99347 0.4988 0.0
H598 H 0.46758 0.94091 0.48085 0.0
C599 C 0.47116 0.95486 0.50237 0.0
C600 C 0.18118 0.31109 0.75319 0.0
C601 C 0.17154 0.29676 0.75328 0.0
C602 C 0.17393 0.28487 0.74173 0.0
C603 C 0.19546 0.30149 0.73048 0.0
C604 C 0.19309 0.31315 0.7418 0.0
C605 C 0.2049 0.32733 0.74053 0.0
H606 H 0.26926 0.36284 0.70465 0.0
C607 C 0.209 0.30722 0.72061 0.0
C608 C 0.21461 0.32235 0.72646 0.0
H609 H 0.24369 0.38037 0.74481 0.0
H610 H 0.22525 0.35705 0.74329 0.0
H611 H 0.23765 0.3517 0.68374 0.0
H612 H 0.2693 0.32615 0.71583 0.0
H613 H 0.26526 0.3142 0.69865 0.0
H614 H 0.27533 0.33366 0.69675 0.0
H615 H 0.25703 0.3454 0.67784 0.0
H616 H 0.23887 0.3325 0.67547 0.0
C617 C 0.19508 0.3423 0.73663 0.0
C618 C 0.21549 0.3286 0.75632 0.0
C619 C 0.22666 0.27279 0.67476 0.0
C620 C 0.23835 0.2753 0.66314 0.0
C621 C 0.24803 0.28967 0.66347 0.0
C622 C 0.24613 0.30136 0.67519 0.0
C623 C 0.23436 0.29874 0.6867 0.0
C624 C 0.22479 0.28469 0.68631 0.0
C625 C 0.21256 0.28423 0.69919 0.0
C626 C 0.21641 0.3003 0.70737 0.0
C627 C 0.22927 0.30866 0.70008 0.0
C628 C 0.19531 0.28329 0.69098 0.0
C629 C 0.21624 0.27001 0.71045 0.0
C630 C 0.25957 0.36178 0.713 0.0
C631 C 0.25798 0.37349 0.72489 0.0
C632 C 0.24533 0.37145 0.73566 0.0
C633 C 0.23458 0.35791 0.73473 0.0
C634 C 0.23651 0.34621 0.72293 0.0
C635 C 0.24878 0.34832 0.71226 0.0
C636 C 0.24905 0.33467 0.70053 0.0
C637 C 0.23507 0.32388 0.70608 0.0
C638 C 0.22777 0.3307 0.71919 0.0
C639 C 0.24559 0.3413 0.68346 0.0
C640 C 0.2656 0.32673 0.70289 0.0
H641 H 0.18702 0.27766 0.72188 0.0
H642 H 0.17981 0.32033 0.76209 0.0
H643 H 0.21756 0.31653 0.76141 0.0
H644 H 0.22782 0.33393 0.75461 0.0
H645 H 0.20953 0.33564 0.76551 0.0
H646 H 0.18465 0.33921 0.72811 0.0
H647 H 0.19011 0.34729 0.74764 0.0
H648 H 0.20227 0.35184 0.73065 0.0
H649 H 0.2189 0.26195 0.67468 0.0
H650 H 0.25721 0.2918 0.65472 0.0
H651 H 0.25392 0.312 0.67482 0.0
H652 H 0.19501 0.29045 0.67976 0.0
H653 H 0.19145 0.27073 0.68777 0.0
H654 H 0.18604 0.2884 0.69838 0.0
H655 H 0.22956 0.26847 0.71188 0.0
H656 H 0.21226 0.27181 0.72275 0.0
H657 H 0.21053 0.2586 0.70559 0.0
H658 H 0.16657 0.27377 0.74152 0.0
C659 C 0.18578 0.28717 0.73032 0.0
C660 C 0.77944 0.17215 0.73425 0.0
C661 C 0.7642 0.1695 0.72621 0.0
C662 C 0.75883 0.18086 0.71498 0.0
C663 C 0.78357 0.19722 0.72001 0.0
C664 C 0.78884 0.18612 0.73107 0.0
C665 C 0.80507 0.19116 0.73894 0.0
H666 H 0.86613 0.24791 0.74989 0.0
C667 C 0.79598 0.21054 0.7197 0.0
C668 C 0.80856 0.20716 0.73086 0.0
H669 H 0.86172 0.20128 0.77195 0.0
H670 H 0.83665 0.19524 0.75652 0.0
H671 H 0.8281 0.25655 0.74982 0.0
H672 H 0.85669 0.23455 0.7146 0.0
H673 H 0.84329 0.24696 0.70423 0.0
H674 H 0.85825 0.25571 0.71847 0.0
H675 H 0.84384 0.26731 0.73948 0.0
H676 H 0.82337 0.26509 0.73103 0.0
C677 C 0.80275 0.19311 0.75713 0.0
C678 C 0.8175 0.17863 0.73469 0.0
C679 C 0.78863 0.25578 0.68019 0.0
C680 C 0.798 0.26973 0.6768 0.0
C681 C 0.81202 0.27376 0.6865 0.0
C682 C 0.81694 0.26363 0.69902 0.0
C683 C 0.80772 0.24939 0.70187 0.0
C684 C 0.79367 0.24584 0.69267 0.0
C685 C 0.7852 0.23039 0.69746 0.0
C686 C 0.7968 0.22488 0.71067 0.0
C687 C 0.80996 0.23601 0.71321 0.0
C688 C 0.7684 0.23427 0.70386 0.0
C689 C 0.78437 0.21889 0.68284 0.0
C690 C 0.85965 0.23645 0.7514 0.0
C691 C 0.86568 0.22509 0.7622 0.0
C692 C 0.85721 0.21017 0.76367 0.0
C693 C 0.84265 0.20674 0.75477 0.0
C694 C 0.8366 0.21831 0.74417 0.0
C695 C 0.84525 0.23274 0.74239 0.0
C696 C 0.83754 0.24313 0.72979 0.0
C697 C 0.82257 0.23279 0.72471 0.0
C698 C 0.82199 0.21834 0.7333 0.0
C699 C 0.83302 0.25894 0.73781 0.0
C700 C 0.84951 0.24538 0.71605 0.0
H701 H 0.76366 0.20279 0.70309 0.0
H702 H 0.78381 0.1637 0.74307 0.0
H703 H 0.81452 0.17326 0.72266 0.0
H704 H 0.82998 0.18394 0.73385 0.0
H705 H 0.8176 0.1687 0.74351 0.0
H706 H 0.79124 0.19908 0.75926 0.0
H707 H 0.80212 0.18128 0.76317 0.0
H708 H 0.81241 0.20076 0.76321 0.0
H709 H 0.77761 0.25256 0.67314 0.0
H710 H 0.81941 0.28448 0.6841 0.0
H711 H 0.82784 0.26718 0.70586 0.0
H712 H 0.7685 0.24666 0.70878 0.0
H713 H 0.7587 0.23325 0.69421 0.0
H714 H 0.7649 0.22652 0.71399 0.0
H715 H 0.79594 0.21978 0.67643 0.0
H716 H 0.78278 0.20615 0.68616 0.0
H717 H 0.77438 0.22187 0.67417 0.0
H718 H 0.74721 0.17899 0.70851 0.0
C719 C 0.76843 0.19466 0.71182 0.0
C720 C 0.52131 0.56268 0.47858 0.0
C721 C 0.50817 0.57248 0.48091 0.0
C722 C 0.49651 0.56767 0.49204 0.0
C723 C 0.51189 0.54455 0.49924 0.0
C724 C 0.5229 0.54882 0.4878 0.0
C725 C 0.53644 0.5374 0.48721 0.0
H726 H 0.57588 0.47587 0.52057 0.0
C727 C 0.51769 0.5302 0.5076 0.0
C728 C 0.53199 0.52585 0.50051 0.0
H729 H 0.58775 0.50267 0.47797 0.0
H730 H 0.56383 0.51781 0.48036 0.0
H731 H 0.56395 0.50537 0.5411 0.0
H732 H 0.53798 0.47044 0.51048 0.0
H733 H 0.52581 0.47369 0.52682 0.0
H734 H 0.54556 0.46552 0.53023 0.0
H735 H 0.56162 0.48454 0.54623 0.0
H736 H 0.54645 0.49848 0.55081 0.0
C737 C 0.5527 0.54695 0.49116 0.0
C738 C 0.53544 0.5291 0.47055 0.0
C739 C 0.48895 0.50964 0.55654 0.0
C740 C 0.49214 0.49744 0.56766 0.0
C741 C 0.50526 0.48758 0.56524 0.0
C742 C 0.51523 0.49008 0.55218 0.0
C743 C 0.51211 0.50262 0.54143 0.0
C744 C 0.49901 0.51199 0.54361 0.0
C745 C 0.49759 0.52486 0.53115 0.0
C746 C 0.51202 0.52169 0.52112 0.0
C747 C 0.52056 0.50874 0.52725 0.0
C748 C 0.49952 0.54132 0.53981 0.0
C749 C 0.48121 0.52189 0.52152 0.0
C750 C 0.57328 0.48485 0.51161 0.0
C751 C 0.58394 0.48814 0.49915 0.0
C752 C 0.58003 0.50009 0.4879 0.0
C753 C 0.56603 0.50881 0.48923 0.0
C754 C 0.55573 0.50559 0.50192 0.0
C755 C 0.55927 0.49358 0.51267 0.0
C756 C 0.54663 0.49146 0.52507 0.0
C757 C 0.535 0.50428 0.52005 0.0
C758 C 0.54054 0.51266 0.50662 0.0
C759 C 0.55499 0.49502 0.54174 0.0
C760 C 0.53857 0.47438 0.52323 0.0
H761 H 0.48914 0.55093 0.50962 0.0
H762 H 0.53054 0.56601 0.4702 0.0
H763 H 0.52277 0.52847 0.46533 0.0
H764 H 0.53891 0.51647 0.47115 0.0
H765 H 0.54317 0.5357 0.46194 0.0
H766 H 0.55136 0.5554 0.50129 0.0
H767 H 0.55662 0.5541 0.48069 0.0
H768 H 0.56267 0.53931 0.49504 0.0
H769 H 0.47915 0.51761 0.55814 0.0
H770 H 0.50788 0.47797 0.5735 0.0
H771 H 0.5251 0.48228 0.55108 0.0
H772 H 0.50889 0.54103 0.54979 0.0
H773 H 0.48792 0.54457 0.54499 0.0
H774 H 0.50377 0.55115 0.53202 0.0
H775 H 0.47775 0.50887 0.5207 0.0
H776 H 0.48178 0.52588 0.50894 0.0
H777 H 0.47121 0.52788 0.52729 0.0
H778 H 0.48607 0.57477 0.49383 0.0
C779 C 0.49829 0.55377 0.50117 0.0
C780 C 0.54417 0.43875 0.00921 0.0
C781 C 0.5299 0.42883 0.00739 0.0
C782 C 0.51774 0.43306 0.99596 0.0
C783 C 0.53429 0.45623 0.98811 0.0
C784 C 0.54605 0.45236 -0.00045 0.0
C785 C 0.56032 0.46432 0.00013 0.0
H786 H 0.5969 0.53208 0.97151 0.0
C787 C 0.54006 0.47097 0.97993 0.0
C788 C 0.55524 0.47587 0.98701 0.0
H789 H 0.61396 0.50186 0.0101 0.0
H790 H 0.59005 0.4843 0.00628 0.0
H791 H 0.55998 0.53163 0.98103 0.0
H792 H 0.58428 0.50251 0.94774 0.0
H793 H 0.56559 0.50748 0.93863 0.0
H794 H 0.58057 0.52321 0.94402 0.0
H795 H 0.56667 0.53924 0.96222 0.0
H796 H 0.54706 0.52898 0.96385 0.0
C797 C 0.56137 0.47239 0.01689 0.0
C798 C 0.57566 0.45545 0.99589 0.0
C799 C 0.50671 0.49222 0.93279 0.0
C800 C 0.50902 0.5053 0.92244 0.0
C801 C 0.52269 0.5159 0.92517 0.0
C802 C 0.53409 0.51326 0.93775 0.0
C803 C 0.5318 0.49989 0.94776 0.0
C804 C 0.51817 0.48976 0.94528 0.0
C805 C 0.51758 0.47626 0.95714 0.0
C806 C 0.53326 0.47976 0.96697 0.0
C807 C 0.54158 0.49358 0.9614 0.0
C808 C 0.50237 0.47789 0.96725 0.0
C809 C 0.51788 0.46028 0.94773 0.0
C810 C 0.59557 0.52159 0.97903 0.0
C811 C 0.60735 0.5184 0.99116 0.0
C812 C 0.60499 0.50473 0.00082 0.0
C813 C 0.5911 0.49449 0.99854 0.0
C814 C 0.57938 0.49793 0.98648 0.0
C815 C 0.58174 0.51125 0.97693 0.0
C816 C 0.56796 0.51302 0.96474 0.0
C817 C 0.55686 0.49867 0.96868 0.0
C818 C 0.56365 0.48985 0.98139 0.0
C819 C 0.55998 0.52908 0.96795 0.0
C820 C 0.57484 0.51161 0.94785 0.0
H821 H 0.51019 0.4491 0.97783 0.0
H822 H 0.55383 0.43589 0.01778 0.0
H823 H 0.57272 0.44647 0.98622 0.0
H824 H 0.58533 0.46349 0.99115 0.0
H825 H 0.5807 0.44899 0.00645 0.0
H826 H 0.54907 0.47339 0.0217 0.0
H827 H 0.56865 0.46536 0.02562 0.0
H828 H 0.56649 0.48484 0.01668 0.0
H829 H 0.4962 0.484 0.93118 0.0
H830 H 0.52481 0.52602 0.91731 0.0
H831 H 0.54433 0.52165 0.93909 0.0
H832 H 0.49911 0.49063 0.96823 0.0
H833 H 0.49164 0.47105 0.96178 0.0
H834 H 0.50439 0.47399 0.97979 0.0
H835 H 0.52654 0.46139 0.93788 0.0
H836 H 0.52208 0.45024 0.95512 0.0
H837 H 0.50568 0.45687 0.94225 0.0
H838 H 0.50645 0.42593 0.99451 0.0
C839 C 0.51988 0.44663 0.98633 0.0
C840 C 0.74835 0.17415 0.27246 0.0
C841 C 0.74632 0.16263 0.26019 0.0
C842 C 0.73286 0.16331 0.24924 0.0
C843 C 0.72373 0.18666 0.26298 0.0
C844 C 0.73704 0.18603 0.27358 0.0
C845 C 0.73779 0.19944 0.28563 0.0
H846 H 0.70281 0.26246 0.31843 0.0
C847 C 0.71433 0.20051 0.26752 0.0
C848 C 0.72256 0.20805 0.28076 0.0
H849 H 0.74942 0.24311 0.33131 0.0
H850 H 0.74559 0.22377 0.31006 0.0
H851 H 0.68303 0.22922 0.31087 0.0
H852 H 0.70883 0.26264 0.2809 0.0
H853 H 0.69166 0.2554 0.26951 0.0
H854 H 0.68903 0.26637 0.28779 0.0
H855 H 0.67586 0.24864 0.30591 0.0
H856 H 0.67104 0.23149 0.29317 0.0
C857 C 0.73673 0.19193 0.30252 0.0
C858 C 0.75348 0.21002 0.28317 0.0
C859 C 0.66199 0.21285 0.23635 0.0
C860 C 0.65071 0.22484 0.23794 0.0
C861 C 0.65306 0.23594 0.25066 0.0
C862 C 0.66648 0.23528 0.26146 0.0
C863 C 0.67775 0.22338 0.25958 0.0
C864 C 0.67537 0.21236 0.24725 0.0
C865 C 0.68866 0.20059 0.24713 0.0
C866 C 0.6995 0.20652 0.26128 0.0
C867 C 0.69302 0.21986 0.26851 0.0
C868 C 0.68093 0.18365 0.25007 0.0
C869 C 0.69733 0.20237 0.2311 0.0
C870 C 0.71229 0.25419 0.31661 0.0
C871 C 0.72631 0.25422 0.32688 0.0
C872 C 0.73827 0.24314 0.32396 0.0
C873 C 0.7361 0.23194 0.31149 0.0
C874 C 0.72188 0.23182 0.30163 0.0
C875 C 0.71042 0.24302 0.30405 0.0
C876 C 0.69645 0.24157 0.29185 0.0
C877 C 0.70131 0.22744 0.28193 0.0
C878 C 0.71611 0.22169 0.28785 0.0
C879 C 0.68068 0.23763 0.3008 0.0
C880 C 0.6963 0.25729 0.28201 0.0
H881 H 0.71153 0.17509 0.24194 0.0
H882 H 0.75876 0.17414 0.28084 0.0
H883 H 0.75744 0.20927 0.27063 0.0
H884 H 0.7517 0.22292 0.28509 0.0
H885 H 0.76371 0.20624 0.29118 0.0
H886 H 0.7274 0.18186 0.30243 0.0
H887 H 0.74855 0.18711 0.30657 0.0
H888 H 0.733 0.20039 0.31166 0.0
H889 H 0.66066 0.20423 0.22663 0.0
H890 H 0.64444 0.24514 0.25231 0.0
H891 H 0.66756 0.24409 0.27084 0.0
H892 H 0.67126 0.18412 0.25894 0.0
H893 H 0.67527 0.17841 0.23882 0.0
H894 H 0.68967 0.17527 0.25525 0.0
H895 H 0.69809 0.21513 0.22726 0.0
H896 H 0.71006 0.19878 0.23197 0.0
H897 H 0.69065 0.19534 0.2214 0.0
H898 H 0.73105 0.15454 0.23969 0.0
C899 C 0.72153 0.17522 0.25061 0.0
C900 C 0.41802 0.9884 0.97914 0.0
C901 C 0.41187 0.97645 0.9684 0.0
C902 C 0.42012 0.97366 0.95431 0.0
C903 C 0.44072 0.99423 0.96212 0.0
C904 C 0.43231 0.99721 0.97571 0.0
C905 C 0.44005 0.01081 0.98555 0.0
H906 H 0.50024 0.06817 0.99589 0.0
C907 C 0.45527 0.00531 0.96232 0.0
C908 C 0.45486 0.01511 0.97598 0.0
H909 H 0.45724 0.06064 0.02341 0.0
H910 H 0.44922 0.03725 0.00756 0.0
H911 H 0.48185 0.06281 0.96215 0.0
H912 H 0.50878 0.03155 0.99297 0.0
H913 H 0.51271 0.02582 0.97335 0.0
H914 H 0.51873 0.04584 0.98023 0.0
H915 H 0.50354 0.06466 0.96536 0.0
H916 H 0.49415 0.05183 0.94993 0.0
C917 C 0.42803 0.02457 0.98566 0.0
C918 C 0.44486 0.00432 0.00235 0.0
C919 C 0.49619 0.00271 0.91834 0.0
C920 C 0.51099 0.01131 0.91587 0.0
C921 C 0.51689 0.02271 0.92745 0.0
C922 C 0.50807 0.02589 0.94091 0.0
C923 C 0.49312 0.01759 0.94297 0.0
C924 C 0.4875 0.00603 0.93197 0.0
C925 C 0.47153 0.99815 0.93655 0.0
C926 C 0.4685 0.00706 0.95197 0.0
C927 C 0.48115 0.01851 0.95554 0.0
C928 C 0.45855 0.00145 0.92316 0.0
C929 C 0.47418 0.98016 0.93955 0.0
C930 C 0.48906 0.06154 0.9985 0.0
C931 C 0.47935 0.0664 0.01092 0.0
C932 C 0.46507 0.05714 0.01406 0.0
C933 C 0.46031 0.04364 0.0047 0.0
C934 C 0.46982 0.03937 0.99193 0.0
C935 C 0.484 0.04819 0.98912 0.0
C936 C 0.49231 0.04225 0.97474 0.0
C937 C 0.48056 0.02864 0.96914 0.0
C938 C 0.46748 0.02695 0.9793 0.0
C939 C 0.49318 0.05604 0.96236 0.0
C940 C 0.50906 0.03612 0.98047 0.0
H941 H 0.44039 0.97968 0.94031 0.0
H942 H 0.41172 0.99098 0.9899 0.0
H943 H 0.4503 0.99244 0.00135 0.0
H944 H 0.45416 0.01205 0.00888 0.0
H945 H 0.43406 0.00279 0.00982 0.0
H946 H 0.4197 0.02418 0.9748 0.0
H947 H 0.42036 0.02378 0.99627 0.0
H948 H 0.43425 0.03658 0.98534 0.0
H949 H 0.49133 0.99384 0.90973 0.0
H950 H 0.52846 0.02918 0.92614 0.0
H951 H 0.51323 0.03478 0.94914 0.0
H952 H 0.46069 0.01359 0.91798 0.0
H953 H 0.45885 0.9926 0.91325 0.0
H954 H 0.4461 0.00144 0.92757 0.0
H955 H 0.48612 0.97855 0.94594 0.0
H956 H 0.46509 0.97445 0.94729 0.0
H957 H 0.4741 0.97343 0.92806 0.0
H958 H 0.41552 0.96448 0.9459 0.0
C959 C 0.43457 0.98243 0.95115 0.0
Mg960 Mg 0.23909 0.85672 0.00752 0.0
O961 O 0.26297 0.8716 0.00413 0.0
O962 O 0.28345 0.855 0.00697 0.0
Mg963 Mg 0.27277 0.82957 0.00995 0.0
C964 C 0.27814 0.86896 0.00467 0.0
C965 C 0.22468 0.8902 0.00842 0.0
O966 O 0.23481 0.89092 0.02101 0.0
O967 O 0.24 0.84721 0.98201 0.0
O968 O 0.26076 0.83093 0.98461 0.0
O969 O 0.24223 0.85957 0.03413 0.0
O970 O 0.25157 0.83958 0.02047 0.0
C971 C 0.24955 0.83735 0.97613 0.0
C972 C 0.25054 0.84681 0.03397 0.0
O973 O 0.22412 0.87777 -0.00042 0.0
Mg974 Mg 0.15022 0.50859 0.27167 0.0
O975 O 0.13423 0.50651 0.24826 0.0
O976 O 0.1512 0.50879 0.22803 0.0
Mg977 Mg 0.17739 0.51049 0.23796 0.0
C978 C 0.1369 0.50717 0.23329 0.0
C979 C 0.12629 0.51205 0.29767 0.0
O980 O 0.13614 0.52488 0.2986 0.0
O981 O 0.15729 0.48268 0.26875 0.0
O982 O 0.17412 0.48516 0.24849 0.0
O983 O 0.15018 0.53536 0.27094 0.0
O984 O 0.16858 0.52128 0.25966 0.0
C985 C 0.1669 0.47667 0.259 0.0
C986 C 0.16289 0.53506 0.26241 0.0
O987 O 0.12859 0.50156 0.28704 0.0
Mg988 Mg 0.779 0.64745 0.01162 0.0
O989 O 0.75424 0.63349 0.01159 0.0
O990 O 0.73494 0.65143 0.01038 0.0
Mg991 Mg 0.74709 0.67655 0.00941 0.0
C992 C 0.73928 0.63696 0.01106 0.0
C993 C 0.79157 0.61367 0.01835 0.0
O994 O 0.78218 0.61552 0.03049 0.0
O995 O 0.77533 0.65188 0.98472 0.0
O996 O 0.75653 0.67033 0.98477 0.0
O997 O 0.77929 0.65025 0.03836 0.0
O998 O 0.76899 0.66754 0.02128 0.0
C999 C 0.7661 0.66158 0.97735 0.0
C1000 C 0.77173 0.66331 0.0359 0.0
O1001 O 0.79219 0.62447 0.00767 0.0
Mg1002 Mg 0.90126 0.03003 0.24308 0.0
O1003 O 0.88444 0.00722 0.24056 0.0
O1004 O 0.90031 0.98661 0.23713 0.0
Mg1005 Mg 0.92682 0.99581 0.23774 0.0
C1006 C 0.88629 0.99227 0.23836 0.0
C1007 C 0.87688 0.05623 0.24209 0.0
O1008 O 0.88605 0.05918 0.22985 0.0
O1009 O 0.90893 0.0232 0.26872 0.0
O1010 O 0.92498 0.00297 0.26417 0.0
O1011 O 0.90027 0.03309 0.21659 0.0
O1012 O 0.91874 0.01923 0.22958 0.0
C1013 C 0.91843 0.01245 0.27374 0.0
C1014 C 0.91252 0.02403 0.21611 0.0
O1015 O 0.88007 0.04447 0.25116 0.0
Mg1016 Mg 0.27727 0.14835 0.51357 0.0
O1017 O 0.25231 0.13456 0.51328 0.0
O1018 O 0.23331 0.1528 0.51178 0.0
Mg1019 Mg 0.24564 0.17773 0.5106 0.0
C1020 C 0.23741 0.13826 0.51258 0.0
C1021 C 0.28983 0.11463 0.52085 0.0
O1022 O 0.2805 0.11668 0.53299 0.0
O1023 O 0.27411 0.15266 0.48663 0.0
O1024 O 0.25487 0.17075 0.48608 0.0
O1025 O 0.27719 0.15134 0.54023 0.0
O1026 O 0.2673 0.1686 0.52286 0.0
C1027 C 0.26463 0.16194 0.479 0.0
C1028 C 0.26977 0.16445 0.53755 0.0
O1029 O 0.29038 0.12525 0.50998 0.0
Mg1030 Mg 0.40387 0.53084 0.74084 0.0
O1031 O 0.38773 0.50757 0.74013 0.0
O1032 O 0.40391 0.48716 0.73699 0.0
Mg1033 Mg 0.43019 0.49705 0.73667 0.0
C1034 C 0.38982 0.49261 0.73845 0.0
C1035 C 0.37874 0.55637 0.73931 0.0
O1036 O 0.38736 0.55894 0.72661 0.0
O1037 O 0.41249 0.52574 0.76662 0.0
O1038 O 0.42863 0.50539 0.76281 0.0
O1039 O 0.40179 0.53185 0.71418 0.0
O1040 O 0.42135 0.51987 0.72769 0.0
C1041 C 0.42218 0.51532 0.77201 0.0
C1042 C 0.41441 0.52321 0.71408 0.0
O1043 O 0.38251 0.54506 0.74873 0.0
Mg1044 Mg 0.73447 0.35884 0.50639 0.0
O1045 O 0.76033 0.37004 0.50426 0.0
O1046 O 0.77753 0.35032 0.50802 0.0
Mg1047 Mg 0.76305 0.32689 0.51248 0.0
C1048 C 0.77475 0.36498 0.50516 0.0
C1049 C 0.72423 0.39395 0.50513 0.0
O1050 O 0.73352 0.39409 0.51831 0.0
O1051 O 0.73588 0.34793 0.4814 0.0
O1052 O 0.75261 0.32811 0.48663 0.0
O1053 O 0.73602 0.36268 0.53299 0.0
O1054 O 0.74331 0.34081 0.52091 0.0
C1055 C 0.74354 0.33586 0.4769 0.0
C1056 C 0.74233 0.34881 0.53397 0.0
O1057 O 0.72304 0.38132 0.49658 0.0
Mg1058 Mg 0.6521 0.00171 0.76916 0.0
O1059 O 0.63717 0.00104 0.74516 0.0
O1060 O 0.65485 0.00367 0.7256 0.0
Mg1061 Mg 0.68065 0.00383 0.73665 0.0
C1062 C 0.64033 0.00226 0.73035 0.0
C1063 C 0.6277 0.00535 0.79433 0.0
O1064 O 0.63864 0.01724 0.79627 0.0
O1065 O 0.65812 0.97559 0.76558 0.0
O1066 O 0.67563 0.97819 0.74588 0.0
O1067 O 0.6532 0.02855 0.76891 0.0
O1068 O 0.67165 0.01381 0.75859 0.0
C1069 C 0.66769 0.96957 0.75579 0.0
C1070 C 0.6664 0.02779 0.76119 0.0
O1071 O 0.62943 0.99524 0.7832 0.0
Mg1072 Mg 0.03099 0.25317 0.89759 0.0
O1073 O 0.00828 0.25171 0.88053 0.0
O1074 O 0.98698 0.24497 0.89531 0.0
Mg1075 Mg 0.99591 0.24165 0.92125 0.0
C1076 C 0.99307 0.24858 0.88191 0.0
C1077 C 0.05936 0.25874 0.87641 0.0
O1078 O 0.06297 0.2465 0.88553 0.0
O1079 O 0.02345 0.277 0.90781 0.0
O1080 O 0.00254 0.26865 0.92239 0.0
O1081 O 0.03423 0.22727 0.89328 0.0
O1082 O 0.01998 0.23651 0.91281 0.0
C1083 C 0.01211 0.2798 0.91726 0.0
C1084 C 0.02478 0.22441 0.90501 0.0
O1085 O 0.04602 0.2654 0.87838 0.0
Mg1086 Mg 0.53353 0.75631 0.4 0.0
O1087 O 0.50956 0.75217 0.38489 0.0
O1088 O 0.49023 0.74531 0.40194 0.0
Mg1089 Mg 0.50109 0.74608 0.42745 0.0
C1090 C 0.49483 0.74798 0.38775 0.0
C1091 C 0.55962 0.75986 0.376 0.0
O1092 O 0.56401 0.7484 0.38578 0.0
O1093 O 0.52552 0.78079 0.40809 0.0
O1094 O 0.506 0.7732 0.42468 0.0
O1095 O 0.53775 0.73018 0.39844 0.0
O1096 O 0.52466 0.74117 0.41784 0.0
C1097 C 0.51454 0.78408 0.41776 0.0
C1098 C 0.52941 0.72842 0.41114 0.0
O1099 O 0.54652 0.76676 0.37848 0.0
Mg1100 Mg 0.98773 0.74767 0.60261 0.0
O1101 O 0.01131 0.74224 0.61686 0.0
O1102 O 0.02855 0.73279 0.59951 0.0
Mg1103 Mg 0.01641 0.73277 0.57437 0.0
C1104 C 0.02502 0.73671 0.61369 0.0
C1105 C 0.96416 0.76612 0.62234 0.0
O1106 O 0.95661 0.76507 0.60818 0.0
O1107 O 0.00015 0.77044 0.59301 0.0
O1108 O 0.0161 0.76032 0.5749 0.0
O1109 O 0.97785 0.72253 0.60555 0.0
O1110 O 0.99284 0.73056 0.58552 0.0
C1111 C 0.01029 0.77226 0.58193 0.0
C1112 C 0.98543 0.719 0.59286 0.0
O1113 O 0.97828 0.76067 0.62406 0.0
Mg1114 Mg 0.48855 0.24728 0.10026 0.0
O1115 O 0.51197 0.24396 0.11573 0.0
O1116 O 0.53132 0.2383 0.09892 0.0
Mg1117 Mg 0.52075 0.23839 0.07323 0.0
C1118 C 0.52659 0.24057 0.11307 0.0
C1119 C 0.46144 0.25109 0.12239 0.0
O1120 O 0.45636 0.24027 0.11165 0.0
O1121 O 0.49816 0.27193 0.09241 0.0
O1122 O 0.5171 0.26551 0.07544 0.0
O1123 O 0.48247 0.22111 0.10164 0.0
O1124 O 0.49673 0.23238 0.08253 0.0
C1125 C 0.50904 0.27592 0.08254 0.0
C1126 C 0.49081 0.21951 0.089 0.0
O1127 O 0.47566 0.2575 0.12139 0.0
C1128 C 0.24235 0.76837 0.84705 0.0
C1129 C 0.22656 0.7628 0.84207 0.0
C1130 C 0.24484 0.77858 0.86025 0.0
C1131 C 0.22557 0.80668 0.88652 0.0
H1132 H 0.25717 0.79241 0.91845 0.0
C1133 C 0.23183 0.83219 0.95132 0.0
C1134 C 0.24727 0.83246 0.95915 0.0
C1135 C 0.22944 0.82554 0.93596 0.0
C1136 C 0.24855 0.79682 0.90957 0.0
H1137 H 0.20095 0.76416 0.84673 0.0
H1138 H 0.20534 0.78227 0.86969 0.0
H1139 H 0.25275 0.77769 0.89346 0.0
H1140 H 0.27253 0.82716 0.95664 0.0
H1141 H 0.26857 0.81625 0.9297 0.0
H1142 H 0.22146 0.82593 0.90262 0.0
C1143 C 0.21576 0.77866 0.86332 0.0
C1144 C 0.24597 0.7883 0.89526 0.0
C1145 C 0.21326 0.7683 0.85017 0.0
C1146 C 0.26044 0.82686 0.951 0.0
C1147 C 0.25812 0.8205 0.93558 0.0
C1148 C 0.22829 0.81537 0.90082 0.0
C1149 C 0.23159 0.78361 0.86868 0.0
C1150 C 0.23444 0.7931 0.88361 0.0
C1151 C 0.24251 0.81925 0.92806 0.0
C1152 C 0.23981 0.81051 0.91254 0.0
H1153 H 0.25285 0.76471 0.84085 0.0
H1154 H 0.25716 0.78243 0.86398 0.0
H1155 H 0.21666 0.81067 0.87768 0.0
H1156 H 0.22146 0.83639 0.95736 0.0
H1157 H 0.21723 0.8247 0.9306 0.0
C1158 C 0.03974 0.50671 0.41305 0.0
C1159 C 0.02301 0.50746 0.40946 0.0
C1160 C 0.05054 0.50471 0.40087 0.0
C1161 C 0.05332 0.49467 0.35748 0.0
H1162 H 0.09326 0.52095 0.36245 0.0
C1163 C 0.10516 0.49514 0.31178 0.0
C1164 C 0.11315 0.51009 0.30915 0.0
C1165 C 0.09366 0.49346 0.32367 0.0
C1166 C 0.08212 0.51362 0.36078 0.0
H1167 H 0.00433 0.50616 0.39042 0.0
H1168 H 0.02325 0.50317 0.36895 0.0
H1169 H 0.07423 0.52021 0.38373 0.0
H1170 H 0.11469 0.53513 0.31625 0.0
H1171 H 0.09454 0.53231 0.33646 0.0
H1172 H 0.06109 0.48869 0.33411 0.0
C1173 C 0.02804 0.50379 0.38122 0.0
C1174 C 0.07128 0.51298 0.37314 0.0
C1175 C 0.01719 0.50557 0.39349 0.0
C1176 C 0.10896 0.52338 0.31814 0.0
C1177 C 0.09745 0.52175 0.32983 0.0
C1178 C 0.06418 0.4954 0.345 0.0
C1179 C 0.04491 0.50367 0.38473 0.0
C1180 C 0.05668 0.50358 0.37167 0.0
C1181 C 0.08991 0.50672 0.33303 0.0
C1182 C 0.07862 0.50506 0.34644 0.0
H1183 H 0.0445 0.50786 0.42532 0.0
H1184 H 0.06338 0.50423 0.4041 0.0
H1185 H 0.04228 0.48717 0.356 0.0
H1186 H 0.10814 0.48468 0.30502 0.0
H1187 H 0.0881 0.4817 0.32585 0.0
C1188 C 0.78573 0.70584 0.83922 0.0
C1189 C 0.77692 0.7199 0.83859 0.0
C1190 C 0.7848 0.69555 0.85243 0.0
C1191 C 0.75841 0.68331 0.8845 0.0
H1192 H 0.79719 0.6768 0.91119 0.0
C1193 C 0.75554 0.67295 0.95154 0.0
C1194 C 0.76674 0.66339 0.95972 0.0
C1195 C 0.75667 0.6759 0.93522 0.0
C1196 C 0.78628 0.67812 0.90371 0.0
H1197 H 0.76062 0.73426 0.85178 0.0
H1198 H 0.75848 0.71602 0.87421 0.0
H1199 H 0.79962 0.68929 0.88486 0.0
H1200 H 0.78765 0.64894 0.95693 0.0
H1201 H 0.78957 0.65406 0.92819 0.0
H1202 H 0.74497 0.67253 0.9033 0.0
C1203 C 0.76601 0.71295 0.86444 0.0
C1204 C 0.78769 0.6853 0.88867 0.0
C1205 C 0.76718 0.72335 0.85149 0.0
C1206 C 0.77884 0.65639 0.951 0.0
C1207 C 0.77999 0.65939 0.93456 0.0
C1208 C 0.757 0.67598 0.8994 0.0
C1209 C 0.7748 0.69899 0.86506 0.0
C1210 C 0.77371 0.68851 0.87925 0.0
C1211 C 0.76901 0.66933 0.92653 0.0
C1212 C 0.77085 0.67394 0.90949 0.0
H1213 H 0.79323 0.70266 0.82948 0.0
H1214 H 0.79171 0.68483 0.8527 0.0
H1215 H 0.74747 0.6855 0.87734 0.0
H1216 H 0.74602 0.67852 0.9578 0.0
H1217 H 0.74818 0.68386 0.92954 0.0
C1218 C 0.98961 0.01717 0.40541 0.0
C1219 C 0.99633 0.00228 0.40855 0.0
C1220 C 0.97853 0.01896 0.39243 0.0
C1221 C 0.95136 0.99547 0.36333 0.0
H1222 H 0.95628 0.03326 0.33677 0.0
C1223 C 0.92967 0.99738 0.29717 0.0
C1224 C 0.92296 0.01138 0.29105 0.0
C1225 C 0.93578 0.9968 0.31299 0.0
C1226 C 0.95454 0.02277 0.34422 0.0
H1227 H 0.99686 0.97766 0.4004 0.0
H1228 H 0.97778 0.98079 0.37774 0.0
H1229 H 0.97276 0.03134 0.36158 0.0
H1230 H 0.91685 0.03561 0.29693 0.0
H1231 H 0.92774 0.03464 0.32466 0.0
H1232 H 0.9336 0.98666 0.3456 0.0
C1233 C 0.9807 0.99102 0.38549 0.0
C1234 C 0.96399 0.02166 0.35845 0.0
C1235 C 0.9917 0.98922 0.39847 0.0
C1236 C 0.92192 0.02463 0.30131 0.0
C1237 C 0.92825 0.02412 0.31713 0.0
C1238 C 0.942 0.99655 0.34906 0.0
C1239 C 0.97399 0.00591 0.38227 0.0
C1240 C 0.96277 0.00783 0.36801 0.0
C1241 C 0.93546 0.01027 0.32304 0.0
C1242 C 0.94373 0.01006 0.33918 0.0
H1243 H 0.99279 0.02741 0.41307 0.0
H1244 H 0.97346 0.03055 0.39042 0.0
H1245 H 0.94983 0.98481 0.37058 0.0
H1246 H 0.93059 0.98693 0.28962 0.0
H1247 H 0.94139 0.98601 0.31713 0.0
C1248 C 0.24143 0.2678 0.63448 0.0
C1249 C 0.24038 0.26314 0.65054 0.0
C1250 C 0.24379 0.25649 0.62259 0.0
C1251 C 0.24149 0.2127 0.61403 0.0
H1252 H 0.26945 0.22559 0.57968 0.0
C1253 C 0.26544 0.16917 0.56672 0.0
C1254 C 0.26454 0.17452 0.55077 0.0
C1255 C 0.26164 0.17931 0.57925 0.0
C1256 C 0.26152 0.22186 0.58914 0.0
H1257 H 0.24087 0.24298 0.6668 0.0
H1258 H 0.2454 0.22319 0.64609 0.0
H1259 H 0.26478 0.24452 0.60096 0.0
H1260 H 0.25864 0.19456 0.53544 0.0
H1261 H 0.25212 0.21218 0.55725 0.0
H1262 H 0.23861 0.18984 0.6022 0.0
C1263 C 0.24407 0.23555 0.64259 0.0
C1264 C 0.25877 0.23272 0.60131 0.0
C1265 C 0.24153 0.24687 0.65448 0.0
C1266 C 0.25942 0.19004 0.54758 0.0
C1267 C 0.25579 0.20019 0.56007 0.0
C1268 C 0.2444 0.20175 0.60189 0.0
C1269 C 0.24535 0.24024 0.6265 0.0
C1270 C 0.24858 0.22837 0.61383 0.0
C1271 C 0.25707 0.19502 0.57604 0.0
C1272 C 0.25429 0.2063 0.58924 0.0
H1273 H 0.24031 0.28022 0.63108 0.0
H1274 H 0.2443 0.26051 0.6103 0.0
H1275 H 0.23344 0.20898 0.62338 0.0
H1276 H 0.26935 0.15726 0.56955 0.0
H1277 H 0.26278 0.17506 0.59147 0.0
C1278 C 0.48995 0.49298 0.59724 0.0
C1279 C 0.48235 0.49571 0.58216 0.0
C1280 C 0.48106 0.49315 0.61111 0.0
C1281 C 0.44529 0.51116 0.62645 0.0
H1282 H 0.45176 0.48246 0.66235 0.0
C1283 C 0.41127 0.51871 0.68447 0.0
C1284 C 0.42042 0.51714 0.69891 0.0
C1285 C 0.41741 0.51392 0.66998 0.0
C1286 C 0.4499 0.49065 0.65247 0.0
H1287 H 0.45923 0.49974 0.56976 0.0
H1288 H 0.44377 0.50022 0.594 0.0
H1289 H 0.46515 0.47772 0.63735 0.0
H1290 H 0.44304 0.50903 0.70953 0.0
H1291 H 0.45393 0.50103 0.68425 0.0
H1292 H 0.43056 0.52444 0.64159 0.0
C1293 C 0.45666 0.49817 0.59509 0.0
C1294 C 0.45754 0.48789 0.63815 0.0
C1295 C 0.46552 0.49792 0.58121 0.0
C1296 C 0.43566 0.51032 0.69861 0.0
C1297 C 0.44187 0.50565 0.6841 0.0
C1298 C 0.43776 0.51398 0.64077 0.0
C1299 C 0.4644 0.49612 0.61021 0.0
C1300 C 0.45542 0.49821 0.62504 0.0
C1301 C 0.43292 0.50759 0.66957 0.0
C1302 C 0.44009 0.50386 0.65402 0.0
H1303 H 0.50292 0.49144 0.59843 0.0
H1304 H 0.48739 0.4917 0.62261 0.0
H1305 H 0.44364 0.51948 0.61665 0.0
H1306 H 0.39942 0.5238 0.68433 0.0
H1307 H 0.41005 0.51531 0.65906 0.0
C1308 C 0.79279 0.29629 0.66386 0.0
C1309 C 0.79338 0.27954 0.66273 0.0
C1310 C 0.78734 0.3052 0.65067 0.0
C1311 C 0.76267 0.29991 0.61284 0.0
H1312 H 0.78324 0.34052 0.60061 0.0
C1313 C 0.75237 0.32622 0.55045 0.0
C1314 C 0.74862 0.34241 0.54937 0.0
C1315 C 0.7577 0.31979 0.56502 0.0
C1316 C 0.77728 0.32928 0.60403 0.0
H1317 H 0.78972 0.2591 0.64676 0.0
H1318 H 0.78051 0.27456 0.62378 0.0
H1319 H 0.79313 0.32691 0.62485 0.0
H1320 H 0.74783 0.36469 0.56262 0.0
H1321 H 0.75739 0.35338 0.58823 0.0
H1322 H 0.74712 0.30203 0.59188 0.0
C1323 C 0.78371 0.28082 0.63492 0.0
C1324 C 0.78291 0.32151 0.61788 0.0
C1325 C 0.78903 0.27196 0.64806 0.0
C1326 C 0.7506 0.35215 0.56313 0.0
C1327 C 0.75612 0.34573 0.57773 0.0
C1328 C 0.75715 0.30759 0.599 0.0
C1329 C 0.78248 0.2975 0.63613 0.0
C1330 C 0.77586 0.30656 0.62224 0.0
C1331 C 0.75951 0.32943 0.57882 0.0
C1332 C 0.76459 0.32219 0.59429 0.0
H1333 H 0.79606 0.30241 0.67506 0.0
H1334 H 0.7865 0.31803 0.65198 0.0
H1335 H 0.75667 0.28864 0.61609 0.0
H1336 H 0.75091 0.31837 0.54011 0.0
H1337 H 0.76042 0.30723 0.56549 0.0
C1338 C 0.53712 0.97057 0.62421 0.0
C1339 C 0.53465 0.98274 0.61291 0.0
C1340 C 0.54737 0.97349 0.63779 0.0
C1341 C 0.58371 0.99495 0.65089 0.0
H1342 H 0.56934 0.99186 0.69442 0.0
C1343 C 0.62832 0.0104 0.70389 0.0
C1344 C 0.62686 0.00165 0.71811 0.0
C1345 C 0.61617 0.00907 0.69173 0.0
C1346 C 0.57367 0.99253 0.68238 0.0
H1347 H 0.54082 0.0074 0.6068 0.0
H1348 H 0.55927 0.01231 0.63033 0.0
H1349 H 0.54975 0.98709 0.67192 0.0
H1350 H 0.61152 0.98476 0.73092 0.0
H1351 H 0.59067 0.98168 0.70938 0.0
H1352 H 0.60767 -0.00052 0.66098 0.0
C1353 C 0.55304 0.00067 0.62879 0.0
C1354 C 0.56239 0.98991 0.66952 0.0
C1355 C 0.5425 0.99788 0.61541 0.0
C1356 C 0.61287 0.99173 0.72009 0.0
C1357 C 0.60088 0.99005 0.70773 0.0
C1358 C 0.59505 0.99719 0.66369 0.0
C1359 C 0.55556 0.98848 0.64005 0.0
C1360 C 0.56734 0.99121 0.65371 0.0
C1361 C 0.60245 0.99856 0.69327 0.0
C1362 C 0.59021 0.99614 0.67966 0.0
H1363 H 0.53114 0.95883 0.62251 0.0
H1364 H 0.54924 0.96391 0.64631 0.0
H1365 H 0.5878 0.99581 0.63875 0.0
H1366 H 0.6389 0.01831 0.70215 0.0
H1367 H 0.61766 0.01624 0.68107 0.0
C1368 C 0.88139 0.24223 0.78243 0.0
C1369 C 0.88057 0.22888 0.7722 0.0
C1370 C 0.89509 0.2454 0.79257 0.0
C1371 C 0.9312 0.22554 0.81038 0.0
H1372 H 0.94318 0.26885 0.82471 0.0
C1373 C 0.9873 0.24363 0.8526 0.0
C1374 C 0.98206 0.24865 0.86752 0.0
C1375 C 0.97632 0.24224 0.83937 0.0
C1376 C 0.94 0.25673 0.82067 0.0
H1377 H 0.89347 0.2087 0.76394 0.0
H1378 H 0.91782 0.21462 0.78099 0.0
H1379 H 0.92169 0.26441 0.80392 0.0
H1380 H 0.96155 0.25686 0.88016 0.0
H1381 H 0.94255 0.25502 0.85682 0.0
H1382 H 0.94989 0.21805 0.82701 0.0
C1383 C 0.90771 0.22235 0.78176 0.0
C1384 C 0.92758 0.25411 0.8089 0.0
C1385 C 0.89383 0.21899 0.77189 0.0
C1386 C 0.96587 0.2529 0.86881 0.0
C1387 C 0.95504 0.25192 0.85549 0.0
C1388 C 0.94386 0.22821 0.82187 0.0
C1389 C 0.90845 0.23547 0.79244 0.0
C1390 C 0.92273 0.23844 0.80385 0.0
C1391 C 0.96011 0.24631 0.84078 0.0
C1392 C 0.94812 0.24379 0.8273 0.0
H1393 H 0.8712 0.24994 0.78294 0.0
H1394 H 0.89494 0.25539 0.80081 0.0
H1395 H 0.92771 0.21327 0.80711 0.0
H1396 H 0.99969 0.24019 0.85133 0.0
H1397 H 0.98041 0.23785 0.82809 0.0
C1398 C 0.47812 0.90899 0.47903 0.0
C1399 C 0.49116 0.91915 0.48477 0.0
C1400 C 0.48093 0.89539 0.47003 0.0
C1401 C 0.51011 0.87618 0.44514 0.0
H1402 H 0.48868 0.83691 0.45978 0.0
C1403 C 0.52459 0.81264 0.42238 0.0
C1404 C 0.51177 0.80093 0.42178 0.0
C1405 C 0.52221 0.82796 0.42849 0.0
C1406 C 0.49454 0.84778 0.45529 0.0
H1407 H 0.51734 0.92336 0.48508 0.0
H1408 H 0.52226 0.89947 0.46922 0.0
H1409 H 0.48429 0.86202 0.47321 0.0
H1410 H 0.48616 0.79638 0.4258 0.0
H1411 H 0.48183 0.82311 0.43573 0.0
H1412 H 0.52023 0.86189 0.42705 0.0
C1413 C 0.50987 0.9021 0.47174 0.0
C1414 C 0.49207 0.86216 0.46308 0.0
C1415 C 0.50707 0.91566 0.48091 0.0
C1416 C 0.49633 0.80509 0.42639 0.0
C1417 C 0.4939 0.82039 0.4322 0.0
C1418 C 0.51247 0.86174 0.43719 0.0
C1419 C 0.49684 0.89169 0.46647 0.0
C1420 C 0.49974 0.87652 0.45806 0.0
C1421 C 0.50692 0.83186 0.43388 0.0
C1422 C 0.50461 0.84736 0.44212 0.0
H1423 H 0.46575 0.91127 0.48193 0.0
H1424 H 0.47065 0.88764 0.466 0.0
H1425 H 0.51614 0.88712 0.44102 0.0
H1426 H 0.53662 0.80972 0.41893 0.0
H1427 H 0.53253 0.83646 0.42965 0.0
C1428 C 0.15883 0.27938 0.77412 0.0
C1429 C 0.15946 0.29394 0.76573 0.0
C1430 C 0.14785 0.27684 0.78623 0.0
C1431 C 0.1092 0.28911 0.80095 0.0
H1432 H 0.12534 0.27163 0.84122 0.0
C1433 C 0.06813 0.27826 0.85516 0.0
C1434 C 0.07055 0.26415 0.86391 0.0
C1435 C 0.07893 0.28314 0.8434 0.0
C1436 C 0.12056 0.27635 0.83 0.0
H1437 H 0.1489 0.31713 0.7632 0.0
H1438 H 0.12949 0.31257 0.78435 0.0
H1439 H 0.14409 0.27752 0.82004 0.0
H1440 H 0.08602 0.24396 0.86696 0.0
H1441 H 0.10444 0.25217 0.84635 0.0
H1442 H 0.08557 0.2875 0.81073 0.0
C1443 C 0.13757 0.30319 0.78156 0.0
C1444 C 0.13134 0.27976 0.81789 0.0
C1445 C 0.14872 0.30583 0.76955 0.0
C1446 C 0.08387 0.25498 0.86057 0.0
C1447 C 0.09453 0.25976 0.84879 0.0
C1448 C 0.09835 0.28553 0.81303 0.0
C1449 C 0.13715 0.28872 0.79011 0.0
C1450 C 0.12575 0.28598 0.80318 0.0
C1451 C 0.0923 0.27395 0.84011 0.0
C1452 C 0.10387 0.27888 0.82763 0.0
H1453 H 0.16705 0.27007 0.77152 0.0
H1454 H 0.14768 0.26551 0.79254 0.0
H1455 H 0.10456 0.29384 0.78968 0.0
H1456 H 0.05799 0.28559 0.85748 0.0
H1457 H 0.07691 0.2942 0.83703 0.0
C1458 C 0.51188 0.58988 0.45664 0.0
C1459 C 0.50724 0.58814 0.47257 0.0
C1460 C 0.5124 0.60495 0.44938 0.0
C1461 C 0.51657 0.6478 0.46008 0.0
H1462 H 0.50487 0.65429 0.41518 0.0
C1463 C 0.51755 0.71067 0.43215 0.0
C1464 C 0.52496 0.71234 0.41738 0.0
C1465 C 0.51396 0.69549 0.4384 0.0
C1466 C 0.50827 0.65262 0.42772 0.0
H1467 H 0.49912 0.60089 0.49321 0.0
H1468 H 0.49952 0.62699 0.4804 0.0
H1469 H 0.50079 0.62772 0.42696 0.0
H1470 H 0.53416 0.69939 0.39741 0.0
H1471 H 0.52797 0.67284 0.40838 0.0
H1472 H 0.52414 0.67263 0.46086 0.0
C1473 C 0.50304 0.61676 0.4736 0.0
C1474 C 0.50595 0.63742 0.43445 0.0
C1475 C 0.50259 0.60173 0.48087 0.0
C1476 C 0.52845 0.6985 0.40883 0.0
C1477 C 0.52481 0.68329 0.41506 0.0
C1478 C 0.51883 0.66298 0.45338 0.0
C1479 C 0.50826 0.61861 0.45788 0.0
C1480 C 0.51013 0.63482 0.45071 0.0
C1481 C 0.51769 0.68163 0.43 0.0
C1482 C 0.51477 0.66555 0.43711 0.0
H1483 H 0.51533 0.57962 0.44983 0.0
H1484 H 0.51657 0.60596 0.43728 0.0
H1485 H 0.52025 0.64617 0.47255 0.0
H1486 H 0.51476 0.72109 0.43907 0.0
H1487 H 0.50831 0.69459 0.44986 0.0
C1488 C 0.87395 0.79153 0.73234 0.0
C1489 C 0.86689 0.77658 0.73666 0.0
C1490 C 0.8865 0.79247 0.72157 0.0
C1491 C 0.90424 0.79091 0.69037 0.0
H1492 H 0.93672 0.75881 0.69011 0.0
C1493 C 0.93939 0.77631 0.6345 0.0
C1494 C 0.95546 0.77146 0.63641 0.0
C1495 C 0.93036 0.77941 0.64784 0.0
C1496 C 0.92792 0.76804 0.69013 0.0
H1497 H 0.86755 0.75091 0.73304 0.0
H1498 H 0.88936 0.75254 0.7143 0.0
H1499 H 0.91803 0.75928 0.71189 0.0
H1500 H 0.97494 0.76691 0.65387 0.0
H1501 H 0.9592 0.77249 0.67719 0.0
H1502 H 0.9141 0.79962 0.66857 0.0
C1503 C 0.88542 0.76354 0.71944 0.0
C1504 C 0.91706 0.76817 0.70252 0.0
C1505 C 0.87289 0.7626 0.73019 0.0
C1506 C 0.96255 0.77053 0.65198 0.0
C1507 C 0.9535 0.77363 0.66534 0.0
C1508 C 0.91511 0.79078 0.67798 0.0
C1509 C 0.89228 0.77848 0.71487 0.0
C1510 C 0.90487 0.77939 0.70262 0.0
C1511 C 0.93718 0.77775 0.66343 0.0
C1512 C 0.92687 0.77914 0.67753 0.0
H1513 H 0.86976 0.80252 0.73728 0.0
H1514 H 0.89167 0.80416 0.71847 0.0
H1515 H 0.89494 0.79966 0.69002 0.0
H1516 H 0.93355 0.77718 0.62269 0.0
H1517 H 0.91778 0.78239 0.6459 0.0
C1518 C 0.03405 0.90992 0.53184 0.0
C1519 C 0.03472 0.90915 0.51508 0.0
C1520 C 0.0327 0.89584 0.54084 0.0
C1521 C 0.04175 0.8537 0.54063 0.0
H1522 H 0.00484 0.84654 0.56742 0.0
C1523 C 0.02235 0.79071 0.56164 0.0
C1524 C 0.01497 0.78861 0.5764 0.0
C1525 C 0.02604 0.80602 0.55582 0.0
C1526 C 0.01542 0.84842 0.5603 0.0
H1527 H 0.03492 0.89326 0.49459 0.0
H1528 H 0.03301 0.86862 0.51037 0.0
H1529 H 0.00918 0.87241 0.55434 0.0
H1530 H 0.00611 0.80104 0.59686 0.0
H1531 H 0.01308 0.82787 0.58694 0.0
H1532 H 0.04825 0.82995 0.54663 0.0
C1533 C 0.03334 0.88008 0.51651 0.0
C1534 C 0.01784 0.86323 0.55275 0.0
C1535 C 0.03433 0.89412 0.5075 0.0
C1536 C 0.0117 0.80224 0.58539 0.0
C1537 C 0.01562 0.81763 0.57965 0.0
C1538 C 0.03952 0.83902 0.54837 0.0
C1539 C 0.0324 0.88082 0.53324 0.0
C1540 C 0.0308 0.86584 0.54257 0.0
C1541 C 0.02271 0.81972 0.5647 0.0
C1542 C 0.02608 0.83601 0.55798 0.0
H1543 H 0.03427 0.9214 0.53792 0.0
H1544 H 0.03202 0.89667 0.55374 0.0
H1545 H 0.05196 0.85553 0.53298 0.0
H1546 H 0.0249 0.78049 0.55431 0.0
H1547 H 0.03112 0.80706 0.54411 0.0
C1548 C 0.14328 0.72944 0.70751 0.0
C1549 C 0.13988 0.72569 0.7234 0.0
C1550 C 0.13064 0.73077 0.69597 0.0
C1551 C 0.08554 0.73434 0.69152 0.0
H1552 H 0.09315 0.72285 0.64762 0.0
C1553 C 0.03822 0.74535 0.64006 0.0
C1554 C 0.03738 0.73492 0.62682 0.0
C1555 C 0.05048 0.74411 0.65204 0.0
C1556 C 0.09064 0.72587 0.65985 0.0
H1557 H 0.12083 0.72012 0.73979 0.0
H1558 H 0.0987 0.72154 0.71956 0.0
H1559 H 0.11457 0.72026 0.66799 0.0
H1560 H 0.04821 0.71462 0.61603 0.0
H1561 H 0.06895 0.71182 0.63727 0.0
H1562 H 0.06125 0.73897 0.68352 0.0
C1563 C 0.11102 0.7241 0.71599 0.0
C1564 C 0.10313 0.72469 0.67155 0.0
C1565 C 0.12367 0.72315 0.72759 0.0
C1566 C 0.04871 0.72296 0.62601 0.0
C1567 C 0.0607 0.72146 0.63817 0.0
C1568 C 0.07291 0.73517 0.67986 0.0
C1569 C 0.11431 0.72798 0.69999 0.0
C1570 C 0.10083 0.72902 0.68756 0.0
C1571 C 0.06195 0.73217 0.65125 0.0
C1572 C 0.07529 0.73103 0.66382 0.0
H1573 H 0.15573 0.73159 0.70408 0.0
H1574 H 0.13373 0.73416 0.68394 0.0
H1575 H 0.08328 0.73803 0.70362 0.0
H1576 H 0.0297 0.75477 0.64091 0.0
H1577 H 0.05113 0.75278 0.66172 0.0
C1578 C 0.95962 0.58899 0.52933 0.0
C1579 C 0.9728 0.58119 0.52313 0.0
C1580 C 0.96221 0.60302 0.53836 0.0
C1581 C 0.98937 0.63798 0.54334 0.0
H1582 H 0.96995 0.64294 0.58443 0.0
C1583 C 0.99883 0.697 0.57886 0.0
C1584 C 0.98558 0.70233 0.58705 0.0
C1585 C 0.99847 0.6815 0.57251 0.0
C1586 C 0.97529 0.64187 0.57289 0.0
H1587 H 0.99912 0.58211 0.52192 0.0
H1588 H 0.00348 0.60705 0.53712 0.0
H1589 H 0.96682 0.61728 0.57037 0.0
H1590 H 0.96168 0.6956 0.59534 0.0
H1591 H 0.96065 0.66881 0.58367 0.0
H1592 H 0.99716 0.66265 0.54528 0.0
C1593 C 0.99118 0.6021 0.53501 0.0
C1594 C 0.97357 0.62712 0.56491 0.0
C1595 C 0.98864 0.58788 0.52621 0.0
C1596 C 0.9721 0.69175 0.58911 0.0
C1597 C 0.97158 0.67635 0.58249 0.0
C1598 C 0.99085 0.65281 0.55116 0.0
C1599 C 0.97798 0.60977 0.54117 0.0
C1600 C 0.98053 0.62509 0.55004 0.0
C1601 C 0.98469 0.67106 0.57393 0.0
C1602 C 0.98375 0.655 0.56601 0.0
H1603 H 0.94723 0.58447 0.52695 0.0
H1604 H 0.95182 0.60886 0.5428 0.0
H1605 H 0.99468 0.63674 0.53179 0.0
H1606 H 0.00955 0.70473 0.57742 0.0
H1607 H 0.009 0.67776 0.56643 0.0
C1608 C 0.7723 0.89465 0.21014 0.0
C1609 C 0.7668 0.88686 0.22393 0.0
C1610 C 0.78392 0.90737 0.2114 0.0
C1611 C 0.8165 0.92518 0.21726 0.0
H1612 H 0.81701 0.95722 0.25097 0.0
C1613 C 0.87362 0.9647 0.23383 0.0
C1614 C 0.87177 0.98107 0.23688 0.0
C1615 C 0.86007 0.9541 0.23205 0.0
C1616 C 0.81696 0.94844 0.2414 0.0
H1617 H 0.769 0.88654 0.2499 0.0
H1618 H 0.7893 0.90872 0.2521 0.0
H1619 H 0.79414 0.93755 0.24798 0.0
H1620 H 0.8541 0.99904 0.24062 0.0
H1621 H 0.83038 0.98042 0.23744 0.0
H1622 H 0.83925 0.93604 0.21062 0.0
C1623 C 0.78447 0.90513 0.24031 0.0
C1624 C 0.80394 0.93709 0.23979 0.0
C1625 C 0.77284 0.8924 0.23904 0.0
C1626 C 0.85599 0.98652 0.23828 0.0
C1627 C 0.84239 0.97585 0.23653 0.0
C1628 C 0.8295 0.93648 0.21889 0.0
C1629 C 0.79032 0.91261 0.22649 0.0
C1630 C 0.80364 0.92525 0.22777 0.0
C1631 C 0.8443 0.95954 0.23327 0.0
C1632 C 0.82998 0.94813 0.23109 0.0
H1633 H 0.76768 0.89086 0.19834 0.0
H1634 H 0.78796 0.91306 0.20054 0.0
H1635 H 0.81675 0.91614 0.20798 0.0
H1636 H 0.88556 0.96003 0.23275 0.0
H1637 H 0.86198 0.94156 0.22982 0.0
C1638 C 0.76499 0.14729 0.24365 0.0
C1639 C 0.75852 0.15029 0.25858 0.0
C1640 C 0.77733 0.1365 0.24234 0.0
C1641 C 0.79648 0.10229 0.26156 0.0
H1642 H 0.83432 0.11718 0.23882 0.0
C1643 C 0.85477 0.06582 0.25916 0.0
C1644 C 0.86293 0.06632 0.24472 0.0
C1645 C 0.84182 0.07577 0.26145 0.0
C1646 C 0.82377 0.11269 0.24501 0.0
H1647 H 0.75943 0.14393 0.28374 0.0
H1648 H 0.78092 0.12491 0.28141 0.0
H1649 H 0.81171 0.13459 0.24121 0.0
H1650 H 0.86356 0.07724 0.22119 0.0
H1651 H 0.84087 0.09406 0.22495 0.0
H1652 H 0.80838 0.08024 0.26507 0.0
C1653 C 0.77649 0.13098 0.27075 0.0
C1654 C 0.81083 0.12272 0.24641 0.0
C1655 C 0.76429 0.14192 0.2721 0.0
C1656 C 0.85769 0.0767 0.23255 0.0
C1657 C 0.8447 0.08646 0.23475 0.0
C1658 C 0.80938 0.09214 0.26 0.0
C1659 C 0.7833 0.12835 0.2559 0.0
C1660 C 0.79702 0.1176 0.25461 0.0
C1661 C 0.83669 0.08629 0.24928 0.0
C1662 C 0.82315 0.09718 0.25159 0.0
H1663 H 0.76085 0.15364 0.23306 0.0
H1664 H 0.78227 0.13459 0.23072 0.0
H1665 H 0.78593 0.09803 0.2679 0.0
H1666 H 0.85855 0.05794 0.26876 0.0
H1667 H 0.83603 0.07541 0.27284 0.0
C1668 C 0.38371 0.96552 0.96103 0.0
C1669 C 0.39701 0.9668 0.97208 0.0
C1670 C 0.36955 0.95665 0.96476 0.0
C1671 C 0.34883 0.93738 0.99939 0.0
H1672 H 0.32451 0.91332 0.96581 0.0
C1673 C 0.30581 0.882 0.00928 0.0
C1674 C 0.29009 0.88234 0.00211 0.0
C1675 C 0.31754 0.89405 0.00613 0.0
C1676 C 0.3311 0.92015 0.97525 0.0
H1677 H 0.40621 0.95962 0.9955 0.0
H1678 H 0.38197 0.94349 0.00177 0.0
H1679 H 0.34789 0.9306 0.95904 0.0
H1680 H 0.27424 0.89559 0.98616 0.0
H1681 H 0.29508 0.91646 0.98019 0.0
H1682 H 0.33248 0.92602 0.01566 0.0
C1683 C 0.38203 0.94981 0.99047 0.0
C1684 C 0.34447 0.93011 0.9714 0.0
C1685 C 0.39602 0.95893 0.98684 0.0
C1686 C 0.28624 0.89509 0.9919 0.0
C1687 C 0.29813 0.90696 0.98843 0.0
C1688 C 0.33568 0.92715 0.00325 0.0
C1689 C 0.36853 0.9486 0.97953 0.0
C1690 C 0.35366 0.93873 0.98345 0.0
C1691 C 0.31388 0.90646 0.99548 0.0
C1692 C 0.32681 0.91836 0.99124 0.0
H1693 H 0.38416 0.97164 0.94961 0.0
H1694 H 0.35937 0.95627 0.95613 0.0
H1695 H 0.35526 0.94411 0.00896 0.0
H1696 H 0.30907 0.87234 0.01725 0.0
H1697 H 0.32964 0.89339 0.01162 0.0
C1698 C 0.23826 0.3545 0.2565 0.0
C1699 C 0.24261 0.3473 0.27117 0.0
C1700 C 0.22727 0.36673 0.25587 0.0
C1701 C 0.21021 0.39741 0.28138 0.0
H1702 H 0.18095 0.40239 0.2443 0.0
C1703 C 0.16905 0.45132 0.27493 0.0
C1704 C 0.17084 0.45961 0.26043 0.0
C1705 C 0.17494 0.43595 0.27683 0.0
C1706 C 0.18903 0.40112 0.25475 0.0
H1707 H 0.23862 0.3473 0.29669 0.0
H1708 H 0.21908 0.36828 0.2955 0.0
H1709 H 0.19686 0.37853 0.2467 0.0
H1710 H 0.17927 0.4579 0.23626 0.0
H1711 H 0.18934 0.43114 0.23953 0.0
H1712 H 0.20249 0.42012 0.2893 0.0
C1713 C 0.22437 0.36464 0.28451 0.0
C1714 C 0.19821 0.3875 0.2561 0.0
C1715 C 0.23545 0.35246 0.28515 0.0
C1716 C 0.1778 0.45188 0.24762 0.0
C1717 C 0.18347 0.43649 0.24945 0.0
C1718 C 0.20092 0.41096 0.28009 0.0
C1719 C 0.22024 0.37203 0.26987 0.0
C1720 C 0.20921 0.38566 0.26924 0.0
C1721 C 0.18248 0.42852 0.26418 0.0
C1722 C 0.19052 0.41313 0.26659 0.0
H1723 H 0.24333 0.35068 0.24546 0.0
H1724 H 0.22457 0.37228 0.24442 0.0
H1725 H 0.21869 0.39652 0.29157 0.0
H1726 H 0.16377 0.45696 0.28503 0.0
H1727 H 0.17392 0.43002 0.28829 0.0
C1728 C 0.13498 0.02624 0.49715 0.0
C1729 C 0.11917 0.03154 0.49431 0.0
C1730 C 0.14821 0.03726 0.49935 0.0
C1731 C 0.1607 0.07958 0.49153 0.0
H1732 H 0.19485 0.07255 0.52382 0.0
C1733 C 0.20796 0.12937 0.51032 0.0
C1734 C 0.22435 0.12539 0.51184 0.0
C1735 C 0.19559 0.11744 0.50851 0.0
C1736 C 0.18549 0.07458 0.51465 0.0
H1737 H 0.10481 0.05255 0.49194 0.0
H1738 H 0.12781 0.07176 0.49588 0.0
H1739 H 0.1723 0.05265 0.51994 0.0
H1740 H 0.2405 0.1056 0.51312 0.0
H1741 H 0.21878 0.0847 0.50997 0.0
H1742 H 0.17377 0.10155 0.48634 0.0
C1743 C 0.13007 0.0591 0.49608 0.0
C1744 C 0.17258 0.06319 0.51241 0.0
C1745 C 0.11687 0.04809 0.49384 0.0
C1746 C 0.22802 0.1091 0.51196 0.0
C1747 C 0.21558 0.09712 0.51021 0.0
C1748 C 0.17355 0.09096 0.49381 0.0
C1749 C 0.14592 0.05383 0.49879 0.0
C1750 C 0.15995 0.06563 0.50091 0.0
C1751 C 0.19925 0.10119 0.50822 0.0
C1752 C 0.186 0.08868 0.50549 0.0
H1753 H 0.13718 0.01356 0.49738 0.0
H1754 H 0.16027 0.03279 0.50119 0.0
H1755 H 0.1514 0.08168 0.48233 0.0
H1756 H 0.20462 0.14175 0.51027 0.0
H1757 H 0.18312 0.12095 0.50731 0.0
C1758 C 0.73713 0.15637 0.7319 0.0
C1759 C 0.75379 0.15505 0.72952 0.0
C1760 C 0.72721 0.14275 0.73475 0.0
C1761 C 0.72404 0.09931 0.72842 0.0
H1762 H 0.69429 0.09928 0.76315 0.0
C1763 C 0.69103 0.04149 0.75005 0.0
C1764 C 0.67526 0.04239 0.75562 0.0
C1765 C 0.69998 0.05538 0.74597 0.0
C1766 C 0.70231 0.09915 0.75322 0.0
H1767 H 0.77315 0.13847 0.72821 0.0
H1768 H 0.75575 0.11458 0.73316 0.0
H1769 H 0.71125 0.12325 0.758 0.0
H1770 H 0.65627 0.0585 0.76079 0.0
H1771 H 0.67173 0.08275 0.75324 0.0
H1772 H 0.71502 0.07532 0.72346 0.0
C1773 C 0.75039 0.12618 0.73278 0.0
C1774 C 0.71208 0.11288 0.75033 0.0
C1775 C 0.76036 0.13983 0.7301 0.0
C1776 C 0.66844 0.05744 0.75661 0.0
C1777 C 0.67735 0.07134 0.75239 0.0
C1778 C 0.71416 0.08563 0.73119 0.0
C1779 C 0.73372 0.12751 0.73513 0.0
C1780 C 0.72313 0.11305 0.73799 0.0
C1781 C 0.69333 0.0705 0.74723 0.0
C1782 C 0.70326 0.08533 0.74372 0.0
H1783 H 0.73178 0.16797 0.73165 0.0
H1784 H 0.71438 0.14411 0.73644 0.0
H1785 H 0.73229 0.0992 0.71866 0.0
H1786 H 0.69669 0.03009 0.7493 0.0
H1787 H 0.71233 0.05426 0.74229 0.0
C1788 C 0.40145 0.02692 0.55132 0.0
C1789 C 0.41249 0.0257 0.53907 0.0
C1790 C 0.38714 0.03503 0.54872 0.0
C1791 C 0.3598 0.05104 0.51655 0.0
H1792 H 0.34578 0.07734 0.55117 0.0
C1793 C 0.31233 0.09997 0.50888 0.0
C1794 C 0.30139 0.10157 0.52119 0.0
C1795 C 0.32469 0.08907 0.51032 0.0
C1796 C 0.3494 0.06988 0.54145 0.0
H1797 H 0.41723 0.03203 0.51451 0.0
H1798 H 0.39242 0.04654 0.51005 0.0
H1799 H 0.36991 0.06194 0.55521 0.0
H1800 H 0.29429 0.09228 0.54425 0.0
H1801 H 0.31583 0.07332 0.54673 0.0
H1802 H 0.33943 0.05945 0.50268 0.0
C1803 C 0.39461 0.04092 0.52156 0.0
C1804 C 0.36324 0.06102 0.54377 0.0
C1805 C 0.40887 0.03267 0.52413 0.0
C1806 C 0.30257 0.09146 0.53459 0.0
C1807 C 0.31497 0.08065 0.53606 0.0
C1808 C 0.346 0.06003 0.51419 0.0
C1809 C 0.38359 0.04227 0.53386 0.0
C1810 C 0.36865 0.05148 0.53135 0.0
C1811 C 0.3264 0.07961 0.52414 0.0
C1812 C 0.34066 0.06955 0.52663 0.0
H1813 H 0.40378 0.02142 0.56287 0.0
H1814 H 0.3788 0.03553 0.55836 0.0
H1815 H 0.36346 0.04365 0.5068 0.0
H1816 H 0.31173 0.10755 0.49838 0.0
H1817 H 0.33335 0.08859 0.50096 0.0
C1818 C 0.61356 0.48719 0.49305 0.0
C1819 C 0.59916 0.47933 0.49806 0.0
C1820 C 0.62798 0.47905 0.49257 0.0
C1821 C 0.64861 0.44607 0.51145 0.0
H1822 H 0.67542 0.44666 0.47435 0.0
C1823 C 0.71108 0.4187 0.51383 0.0
C1824 C 0.71292 0.40696 0.50205 0.0
C1825 C 0.69847 0.42926 0.51234 0.0
C1826 C 0.66806 0.44647 0.48479 0.0
H1827 H 0.58864 0.4565 0.50594 0.0
H1828 H 0.61393 0.44254 0.5056 0.0
H1829 H 0.65023 0.46127 0.47366 0.0
H1830 H 0.70373 0.39793 0.47887 0.0
H1831 H 0.6818 0.41659 0.47619 0.0
H1832 H 0.66631 0.43131 0.52261 0.0
C1833 C 0.61399 0.45502 0.5021 0.0
C1834 C 0.65372 0.45484 0.48442 0.0
C1835 C 0.59953 0.46307 0.50237 0.0
C1836 C 0.70258 0.40678 0.4882 0.0
C1837 C 0.69006 0.41748 0.48663 0.0
C1838 C 0.66302 0.43794 0.51191 0.0
C1839 C 0.62836 0.46296 0.49729 0.0
C1840 C 0.64379 0.45456 0.4977 0.0
C1841 C 0.68757 0.42845 0.49895 0.0
C1842 C 0.67283 0.43795 0.49856 0.0
H1843 H 0.61384 0.49976 0.48989 0.0
H1844 H 0.63894 0.48548 0.48895 0.0
H1845 H 0.64124 0.44578 0.52189 0.0
H1846 H 0.71887 0.41924 0.52462 0.0
H1847 H 0.69693 0.43775 0.52192 0.0
C1848 C 0.73589 0.26036 0.35523 0.0
C1849 C 0.72836 0.2654 0.3408 0.0
C1850 C 0.73801 0.27073 0.36831 0.0
C1851 C 0.72131 0.30436 0.38787 0.0
H1852 H 0.76353 0.30773 0.41029 0.0
C1853 C 0.73279 0.33867 0.44835 0.0
C1854 C 0.74206 0.33048 0.45996 0.0
C1855 C 0.73155 0.33327 0.43243 0.0
C1856 C 0.75164 0.30689 0.40421 0.0
H1857 H 0.71707 0.28546 0.32897 0.0
H1858 H 0.72029 0.3034 0.35221 0.0
H1859 H 0.76039 0.29335 0.38487 0.0
H1860 H 0.7572 0.31012 0.46386 0.0
H1861 H 0.7548 0.30067 0.43648 0.0
H1862 H 0.71237 0.3172 0.40764 0.0
C1863 C 0.72465 0.29139 0.35317 0.0
C1864 C 0.74989 0.29871 0.38964 0.0
C1865 C 0.72275 0.28107 0.33992 0.0
C1866 C 0.75003 0.31683 0.45529 0.0
C1867 C 0.74877 0.31145 0.43948 0.0
C1868 C 0.72303 0.31243 0.40259 0.0
C1869 C 0.73244 0.28632 0.36741 0.0
C1870 C 0.73463 0.29699 0.38156 0.0
C1871 C 0.73958 0.31961 0.42783 0.0
C1872 C 0.73813 0.31333 0.41116 0.0
H1873 H 0.73996 0.24828 0.35656 0.0
H1874 H 0.74378 0.26643 0.37928 0.0
H1875 H 0.7094 0.30314 0.38185 0.0
H1876 H 0.72651 0.34925 0.45154 0.0
H1877 H 0.72441 0.33983 0.4237 0.0
C1878 C 0.52255 0.9932 0.89541 0.0
C1879 C 0.52044 0.0087 0.90139 0.0
C1880 C 0.53292 0.9909 0.8828 0.0
C1881 C 0.56947 0.00923 0.86697 0.0
H1882 H 0.55894 0.98671 0.82695 0.0
C1883 C 0.61061 0.01738 0.81453 0.0
C1884 C 0.61397 0.00407 0.80517 0.0
C1885 C 0.59849 0.01633 0.82563 0.0
C1886 C 0.56213 0.99281 0.83817 0.0
H1887 H 0.52652 0.03399 0.89793 0.0
H1888 H 0.54481 0.02992 0.87635 0.0
H1889 H 0.53856 0.98752 0.84755 0.0
H1890 H 0.60685 0.97928 0.79972 0.0
H1891 H 0.58566 0.97732 0.81954 0.0
H1892 H 0.59294 0.01448 0.85796 0.0
C1893 C 0.53864 0.01956 0.88154 0.0
C1894 C 0.55047 0.9933 0.84991 0.0
C1895 C 0.52823 0.02186 0.89395 0.0
C1896 C 0.60454 0.98974 0.80681 0.0
C1897 C 0.5924 0.98863 0.81812 0.0
C1898 C 0.58111 0.00861 0.85541 0.0
C1899 C 0.5414 0.00406 0.8761 0.0
C1900 C 0.55394 0.00189 0.86422 0.0
C1901 C 0.58948 0.00187 0.82787 0.0
C1902 C 0.57746 0.00082 0.84067 0.0
H1903 H 0.51674 0.98281 0.90089 0.0
H1904 H 0.53487 0.97884 0.87877 0.0
H1905 H 0.57256 0.01565 0.87805 0.0
H1906 H 0.61745 0.02869 0.81338 0.0
H1907 H 0.59625 0.02692 0.83256 0.0
C1908 C 0.26055 0.21673 0.34457 0.0
C1909 C 0.2759 0.22338 0.34078 0.0
C1910 C 0.25895 0.20642 0.3576 0.0
C1911 C 0.28084 0.1812 0.38679 0.0
H1912 H 0.24888 0.19537 0.41576 0.0
C1913 C 0.2802 0.16351 0.45391 0.0
C1914 C 0.26529 0.16335 0.46145 0.0
C1915 C 0.28099 0.16774 0.43773 0.0
C1916 C 0.2576 0.19091 0.40772 0.0
H1917 H 0.30171 0.22369 0.34721 0.0
H1918 H 0.29888 0.20554 0.36991 0.0
H1919 H 0.25116 0.208 0.38985 0.0
H1920 H 0.23938 0.16596 0.45782 0.0
H1921 H 0.24057 0.17244 0.42951 0.0
H1922 H 0.28733 0.16411 0.40479 0.0
C1923 C 0.28812 0.2083 0.36274 0.0
C1924 C 0.25894 0.19824 0.39284 0.0
C1925 C 0.28972 0.2187 0.34973 0.0
C1926 C 0.25106 0.16625 0.45232 0.0
C1927 C 0.25179 0.1701 0.43613 0.0
C1928 C 0.27937 0.17368 0.40168 0.0
C1929 C 0.27266 0.20245 0.36707 0.0
C1930 C 0.27066 0.1936 0.38228 0.0
C1931 C 0.26684 0.1716 0.42877 0.0
C1932 C 0.26782 0.17856 0.41241 0.0
H1933 H 0.2497 0.21979 0.33769 0.0
H1934 H 0.24691 0.20187 0.36052 0.0
H1935 H 0.28994 0.17735 0.37883 0.0
H1936 H 0.29135 0.16136 0.46074 0.0
H1937 H 0.29281 0.16883 0.43255 0.0
C1938 C 0.49214 0.52271 0.9044 0.0
C1939 C 0.49753 0.50747 0.90851 0.0
C1940 C 0.48147 0.52461 0.89111 0.0
C1941 C 0.4531 0.50143 0.86276 0.0
H1942 H 0.46099 0.53738 0.83439 0.0
C1943 C 0.43309 0.50108 0.79611 0.0
C1944 C 0.42684 0.515 0.78932 0.0
C1945 C 0.43903 0.50103 0.812 0.0
C1946 C 0.45845 0.52743 0.84233 0.0
H1947 H 0.4962 0.48237 0.90173 0.0
H1948 H 0.4779 0.48568 0.87852 0.0
H1949 H 0.47685 0.53575 0.85962 0.0
H1950 H 0.42151 0.53971 0.79401 0.0
H1951 H 0.43221 0.53968 0.82186 0.0
H1952 H 0.43519 0.49278 0.84509 0.0
C1953 C 0.48148 0.49613 0.88576 0.0
C1954 C 0.46753 0.52648 0.85681 0.0
C1955 C 0.49204 0.49422 0.89906 0.0
C1956 C 0.42621 0.52878 0.79893 0.0
C1957 C 0.43241 0.5288 0.81481 0.0
C1958 C 0.44414 0.50231 0.84824 0.0
C1959 C 0.47604 0.51134 0.88159 0.0
C1960 C 0.46523 0.51328 0.86704 0.0
C1961 C 0.43905 0.51496 0.82143 0.0
C1962 C 0.44695 0.51514 0.83773 0.0
H1963 H 0.49604 0.53312 0.91155 0.0
H1964 H 0.47739 0.53647 0.88836 0.0
H1965 H 0.45071 0.49129 0.87052 0.0
H1966 H 0.43367 0.49024 0.78905 0.0
H1967 H 0.4442 0.49023 0.81672 0.0
C1968 C 0.74254 0.76598 0.13313 0.0
C1969 C 0.74124 0.76133 0.14918 0.0
C1970 C 0.74522 0.75467 0.12133 0.0
C1971 C 0.74341 0.71088 0.11283 0.0
H1972 H 0.77155 0.72405 0.07872 0.0
C1973 C 0.76766 0.66777 0.06519 0.0
C1974 C 0.7666 0.67324 0.04928 0.0
C1975 C 0.7639 0.67779 0.07784 0.0
C1976 C 0.76359 0.72024 0.08812 0.0
H1977 H 0.74164 0.74122 0.16549 0.0
H1978 H 0.74674 0.72144 0.14493 0.0
H1979 H 0.76663 0.74287 0.10002 0.0
H1980 H 0.76049 0.69338 0.03417 0.0
H1981 H 0.75406 0.71079 0.05618 0.0
H1982 H 0.74074 0.68806 0.1009 0.0
C1983 C 0.74536 0.73378 0.14138 0.0
C1984 C 0.76069 0.73104 0.1003 0.0
C1985 C 0.74249 0.7451 0.15318 0.0
C1986 C 0.76139 0.68877 0.04627 0.0
C1987 C 0.75782 0.6988 0.05888 0.0
C1988 C 0.74647 0.69999 0.10068 0.0
C1989 C 0.74688 0.73845 0.12531 0.0
C1990 C 0.75039 0.7266 0.11271 0.0
C1991 C 0.75923 0.6935 0.07479 0.0
C1992 C 0.75642 0.70465 0.0881 0.0
H1993 H 0.74134 0.77837 0.12967 0.0
H1994 H 0.7459 0.75868 0.10904 0.0
H1995 H 0.73529 0.70708 0.12209 0.0
H1996 H 0.77164 0.65586 0.06788 0.0
H1997 H 0.76513 0.67344 0.09001 0.0
C1998 C 0.97681 0.01983 0.08895 0.0
C1999 C 0.98444 0.00597 0.08415 0.0
C2000 C 0.96765 0.01973 0.10262 0.0
C2001 C 0.965 0.00255 0.14166 0.0
H2002 H 0.92063 0.01616 0.14028 0.0
C2003 C 0.92946 0.00678 0.19944 0.0
C2004 C 0.9191 0.01956 0.20061 0.0
C2005 C 0.93618 0.00319 0.18484 0.0
C2006 C 0.93308 0.01253 0.14095 0.0
H2007 H 0.98804 0.98102 0.09007 0.0
H2008 H 0.97269 0.98121 0.11445 0.0
H2009 H 0.93489 0.01385 0.11544 0.0
H2010 H 0.90765 0.03861 0.1874 0.0
H2011 H 0.91989 0.03292 0.16225 0.0
H2012 H 0.96373 0.00213 0.16712 0.0
C2013 C 0.97375 0.99204 0.10738 0.0
C2014 C 0.94116 0.01109 0.1267 0.0
C2015 C 0.98264 0.99201 0.09349 0.0
C2016 C 0.91548 0.02858 0.18686 0.0
C2017 C 0.92244 0.02521 0.17236 0.0
C2018 C 0.95706 0.00431 0.15596 0.0
C2019 C 0.96618 0.0059 0.11203 0.0
C2020 C 0.95722 0.00623 0.12696 0.0
C2021 C 0.93297 0.01252 0.17114 0.0
C2022 C 0.94103 0.00951 0.15583 0.0
H2023 H 0.97819 0.03094 0.0824 0.0
H2024 H 0.96207 0.03062 0.10612 0.0
H2025 H 0.97747 0.99892 0.14213 0.0
H2026 H 0.93241 -0.00048 0.20975 0.0
H2027 H 0.94394 0.99311 0.18435 0.0
C2028 C 0.3069 0.79403 0.16101 0.0
C2029 C 0.30808 0.77743 0.15905 0.0
C2030 C 0.30282 0.80364 0.14788 0.0
C2031 C 0.30219 0.80502 0.1039 0.0
H2032 H 0.26526 0.83173 0.10737 0.0
C2033 C 0.26583 0.82586 0.04853 0.0
C2034 C 0.25914 0.841 0.04855 0.0
C2035 C 0.27358 0.82 0.06232 0.0
C2036 C 0.2758 0.82461 0.10625 0.0
H2037 H 0.30653 0.7579 0.14187 0.0
H2038 H 0.2996 0.77468 0.11891 0.0
H2039 H 0.2761 0.81818 0.13109 0.0
H2040 H 0.25548 0.86201 0.063 0.0
H2041 H 0.2693 0.85186 0.08713 0.0
H2042 H 0.30191 0.81128 0.07911 0.0
C2043 C 0.30176 0.78027 0.13056 0.0
C2044 C 0.28197 0.81683 0.11984 0.0
C2045 C 0.30559 0.77066 0.1437 0.0
C2046 C 0.26049 0.85026 0.06264 0.0
C2047 C 0.26835 0.84442 0.07647 0.0
C2048 C 0.29614 0.81291 0.09036 0.0
C2049 C 0.30015 0.79681 0.13255 0.0
C2050 C 0.29496 0.80665 0.11869 0.0
C2051 C 0.27493 0.82918 0.07648 0.0
C2052 C 0.28259 0.82245 0.09127 0.0
H2053 H 0.30868 0.7995 0.17276 0.0
H2054 H 0.30169 0.81637 0.1497 0.0
H2055 H 0.31238 0.79742 0.10276 0.0
H2056 H 0.26481 0.81833 0.03793 0.0
H2057 H 0.27815 0.80807 0.06196 0.0
C2058 C 0.03473 0.46899 0.12784 0.0
C2059 C 0.03223 0.4808 0.11615 0.0
C2060 C 0.04473 0.47243 0.14149 0.0
C2061 C 0.08041 0.49566 0.15442 0.0
H2062 H 0.06609 0.49176 0.19792 0.0
C2063 C 0.12376 0.5146 0.20717 0.0
C2064 C 0.12313 0.50577 0.22141 0.0
C2065 C 0.1116 0.51236 0.19513 0.0
C2066 C 0.0704 0.49268 0.18588 0.0
H2067 H 0.03812 0.50535 0.10945 0.0
H2068 H 0.05609 0.51119 0.13309 0.0
H2069 H 0.04686 0.48568 0.17535 0.0
H2070 H 0.10921 0.48791 0.23446 0.0
H2071 H 0.08832 0.4833 0.2131 0.0
H2072 H 0.10403 0.50181 0.16457 0.0
C2073 C 0.05009 0.49941 0.1318 0.0
C2074 C 0.05933 0.48929 0.17299 0.0
C2075 C 0.03981 0.49609 0.11835 0.0
C2076 C 0.10989 0.49493 0.22359 0.0
C2077 C 0.09789 0.49236 0.21134 0.0
C2078 C 0.09154 0.49869 0.16725 0.0
C2079 C 0.05266 0.4876 0.14345 0.0
C2080 C 0.06425 0.49091 0.15718 0.0
C2081 C 0.09872 0.50087 0.19681 0.0
C2082 C 0.0867 0.49743 0.18319 0.0
H2083 H 0.02894 0.45713 0.1264 0.0
H2084 H 0.04664 0.46313 0.1503 0.0
H2085 H 0.08451 0.49677 0.1423 0.0
H2086 H 0.13375 0.5232 0.20529 0.0
H2087 H 0.11244 0.51958 0.18443 0.0
C2088 C 0.38553 0.74154 0.28378 0.0
C2089 C 0.38056 0.72607 0.27833 0.0
C2090 C 0.39912 0.74386 0.29428 0.0
C2091 C 0.42343 0.72213 0.32429 0.0
H2092 H 0.45342 0.75919 0.3221 0.0
C2093 C 0.48681 0.74843 0.35829 0.0
C2094 C 0.4826 0.74587 0.37427 0.0
C2095 C 0.47516 0.74603 0.34571 0.0
C2096 C 0.44524 0.74871 0.32277 0.0
H2097 H 0.38638 0.70103 0.27902 0.0
H2098 H 0.41007 0.70508 0.29731 0.0
H2099 H 0.43196 0.75482 0.30119 0.0
H2100 H 0.46269 0.739 0.38947 0.0
H2101 H 0.44254 0.73496 0.36765 0.0
H2102 H 0.43666 0.71595 0.34578 0.0
C2103 C 0.40329 0.71537 0.29373 0.0
C2104 C 0.43285 0.74629 0.3109 0.0
C2105 C 0.38971 0.71305 0.28327 0.0
C2106 C 0.46645 0.74101 0.37734 0.0
C2107 C 0.45488 0.73858 0.36481 0.0
C2108 C 0.43575 0.72456 0.33614 0.0
C2109 C 0.40803 0.73077 0.29953 0.0
C2110 C 0.42172 0.73304 0.31161 0.0
C2111 C 0.4591 0.74094 0.34884 0.0
C2112 C 0.44667 0.73797 0.33564 0.0
H2113 H 0.37864 0.75179 0.2803 0.0
H2114 H 0.40232 0.75585 0.29868 0.0
H2115 H 0.41497 0.71189 0.32531 0.0
H2116 H 0.49912 0.75218 0.35549 0.0
H2117 H 0.47879 0.74786 0.33351 0.0
C2118 C 0.97808 0.40309 0.98352 0.0
C2119 C 0.99105 0.41336 0.98922 0.0
C2120 C 0.981 0.3894 0.97472 0.0
C2121 C 0.01017 0.37053 0.94972 0.0
H2122 H 0.98865 0.33103 0.96369 0.0
C2123 C 0.02315 0.30767 0.92411 0.0
C2124 C 0.01001 0.29631 0.92297 0.0
C2125 C 0.02132 0.32264 0.93126 0.0
C2126 C 0.99456 0.34197 0.95942 0.0
H2127 H 0.01723 0.41759 0.98977 0.0
H2128 H 0.02234 0.39356 0.97419 0.0
H2129 H 0.98456 0.35589 0.97776 0.0
H2130 H 0.98442 0.2921 0.92737 0.0
H2131 H 0.98108 0.31823 0.93919 0.0
H2132 H 0.01995 0.35661 0.93115 0.0
C2133 C 0.00993 0.39617 0.97661 0.0
C2134 C 0.99226 0.3562 0.96756 0.0
C2135 C 0.00701 0.40982 0.98561 0.0
C2136 C 0.99485 0.3005 0.92833 0.0
C2137 C 0.99297 0.31546 0.93522 0.0
C2138 C 0.01235 0.35625 0.94141 0.0
C2139 C 0.99695 0.38572 0.97129 0.0
C2140 C 0.99992 0.37064 0.96274 0.0
C2141 C 0.00627 0.32657 0.93721 0.0
C2142 C 0.00443 0.34181 0.94608 0.0
H2143 H 0.96567 0.40542 0.98624 0.0
H2144 H 0.97076 0.38161 0.97065 0.0
H2145 H 0.01617 0.38154 0.94574 0.0
H2146 H 0.03498 0.30475 0.9201 0.0
H2147 H 0.03184 0.33086 0.93264 0.0
C2148 C 0.65653 0.77726 0.27062 0.0
C2149 C 0.65726 0.79185 0.26229 0.0
C2150 C 0.64548 0.77471 0.28267 0.0
C2151 C 0.60703 0.7874 0.29779 0.0
H2152 H 0.62353 0.76983 0.33787 0.0
C2153 C 0.56744 0.77832 0.35349 0.0
C2154 C 0.56991 0.76437 0.36248 0.0
C2155 C 0.57774 0.78258 0.3411 0.0
C2156 C 0.61865 0.77456 0.3267 0.0
H2157 H 0.64674 0.81505 0.25974 0.0
H2158 H 0.62725 0.81052 0.28081 0.0
H2159 H 0.64198 0.77529 0.31637 0.0
H2160 H 0.58476 0.74368 0.36515 0.0
H2161 H 0.6023 0.75082 0.34349 0.0
H2162 H 0.58358 0.78632 0.30801 0.0
C2163 C 0.63529 0.80111 0.278 0.0
C2164 C 0.62925 0.77772 0.3144 0.0
C2165 C 0.6465 0.80374 0.26605 0.0
C2166 C 0.58263 0.75462 0.35861 0.0
C2167 C 0.59278 0.75879 0.34622 0.0
C2168 C 0.59634 0.78409 0.31008 0.0
C2169 C 0.63481 0.78663 0.28655 0.0
C2170 C 0.62353 0.784 0.29976 0.0
C2171 C 0.59064 0.77291 0.33743 0.0
C2172 C 0.602 0.77742 0.32461 0.0
H2173 H 0.66476 0.76794 0.26807 0.0
H2174 H 0.64527 0.76338 0.28896 0.0
H2175 H 0.6023 0.79219 0.28658 0.0
H2176 H 0.55774 0.78607 0.35619 0.0
H2177 H 0.5758 0.79359 0.33462 0.0
C2178 C 0.02368 0.09267 0.96114 0.0
C2179 C 0.00926 0.08351 0.96354 0.0
C2180 C 0.02337 0.10693 0.95252 0.0
C2181 C 0.9963 0.13885 0.94018 0.0
H2182 H 0.03235 0.15126 0.9138 0.0
C2183 C 0.01234 0.20453 0.9238 0.0
C2184 C 0.01956 0.20784 0.90917 0.0
C2185 C 0.00881 0.18872 0.92839 0.0
C2186 C 0.02202 0.14794 0.92088 0.0
H2187 H 0.9832 0.082 0.95854 0.0
H2188 H 0.98265 0.10699 0.9433 0.0
H2189 H 0.0305 0.12445 0.92494 0.0
H2190 H 0.0279 0.19725 0.88746 0.0
H2191 H 0.02136 0.16969 0.89526 0.0
H2192 H 0.98776 0.16236 0.936 0.0
C2193 C 0.99418 0.10318 0.94828 0.0
C2194 C 0.02109 0.13261 0.92746 0.0
C2195 C 0.99449 0.08887 0.95698 0.0
C2196 C 0.02251 0.19506 0.8989 0.0
C2197 C 0.01882 0.17926 0.90341 0.0
C2198 C 0.99718 0.1542 0.9335 0.0
C2199 C 0.00863 0.1124 0.94602 0.0
C2200 C 0.00845 0.12801 0.93752 0.0
C2201 C 0.01228 0.17586 0.91838 0.0
C2202 C 0.01024 0.15904 0.92405 0.0
H2203 H 0.03521 0.08908 0.96634 0.0
H2204 H 0.03467 0.1139 0.95135 0.0
H2205 H 0.98644 0.13573 0.94793 0.0
H2206 H 0.00998 0.21413 0.93199 0.0
H2207 H 0.00398 0.18658 0.94009 0.0
C2208 C 0.3712 0.28693 0.23008 0.0
C2209 C 0.36044 0.27369 0.23259 0.0
C2210 C 0.38272 0.28635 0.21827 0.0
C2211 C 0.38955 0.26722 0.18017 0.0
H2212 H 0.43573 0.27488 0.18977 0.0
C2213 C 0.43632 0.24602 0.13747 0.0
C2214 C 0.45064 0.25539 0.13526 0.0
C2215 C 0.42574 0.24994 0.14928 0.0
C2216 C 0.42287 0.27299 0.18681 0.0
H2217 H 0.35311 0.24962 0.22465 0.0
H2218 H 0.373 0.24872 0.20387 0.0
H2219 H 0.41631 0.27897 0.21064 0.0
H2220 H 0.46518 0.27621 0.14384 0.0
H2221 H 0.4464 0.28332 0.16441 0.0
H2222 H 0.39584 0.26138 0.15642 0.0
C2223 C 0.37264 0.25946 0.21111 0.0
C2224 C 0.41178 0.27529 0.19877 0.0
C2225 C 0.36136 0.25993 0.22306 0.0
C2226 C 0.45423 0.26875 0.14527 0.0
C2227 C 0.4435 0.27278 0.15708 0.0
C2228 C 0.40055 0.26513 0.1682 0.0
C2229 C 0.38339 0.27266 0.20857 0.0
C2230 C 0.39507 0.27202 0.19563 0.0
C2231 C 0.42905 0.26346 0.15912 0.0
C2232 C 0.41739 0.26754 0.17147 0.0
H2233 H 0.37075 0.29766 0.23732 0.0
H2234 H 0.39088 0.29669 0.21649 0.0
H2235 H 0.37669 0.26489 0.17739 0.0
H2236 H 0.43326 0.23553 0.13011 0.0
H2237 H 0.41498 0.24221 0.15077 0.0
C2238 C 0.51985 0.40016 0.01039 0.0
C2239 C 0.52769 0.41405 0.01717 0.0
C2240 C 0.51763 0.38629 0.0195 0.0
C2241 C 0.50617 0.3623 0.04449 0.0
H2242 H 0.54305 0.34564 0.06837 0.0
C2243 C 0.50048 0.30439 0.08188 0.0
C2244 C 0.51195 0.29305 0.07848 0.0
C2245 C 0.50253 0.32021 0.07657 0.0
C2246 C 0.53264 0.3502 0.06181 0.0
H2247 H 0.53928 0.42414 0.03899 0.0
H2248 H 0.53577 0.3997 0.05475 0.0
H2249 H 0.5461 0.37135 0.05453 0.0
H2250 H 0.53497 0.28966 0.06753 0.0
H2251 H 0.53856 0.31723 0.05842 0.0
H2252 H 0.49278 0.34104 0.05146 0.0
C2253 C 0.53133 0.39966 0.04235 0.0
C2254 C 0.53435 0.36494 0.05399 0.0
C2255 C 0.5334 0.41363 0.03329 0.0
C2256 C 0.52585 0.29805 0.07027 0.0
C2257 C 0.52798 0.31388 0.06514 0.0
C2258 C 0.5044 0.34767 0.05245 0.0
C2259 C 0.52335 0.38589 0.03556 0.0
C2260 C 0.52121 0.37098 0.045 0.0
C2261 C 0.51619 0.32505 0.06796 0.0
C2262 C 0.51769 0.34134 0.06096 0.0
H2263 H 0.51562 0.39987 0.99794 0.0
H2264 H 0.51169 0.37576 0.01386 0.0
H2265 H 0.4958 0.36675 0.03776 0.0
H2266 H 0.48965 0.30094 0.08817 0.0
H2267 H 0.49331 0.32861 0.07901 0.0
C2268 C 0.63221 0.24104 0.22047 0.0
C2269 C 0.63674 0.22601 0.22622 0.0
C2270 C 0.6193 0.24219 0.20919 0.0
C2271 C 0.59597 0.21869 0.17797 0.0
H2272 H 0.56632 0.2533 0.17979 0.0
C2273 C 0.53394 0.24095 0.14265 0.0
C2274 C 0.53847 0.23891 0.12675 0.0
C2275 C 0.5452 0.23903 0.15545 0.0
C2276 C 0.57439 0.24348 0.1792 0.0
H2277 H 0.631 0.20043 0.22492 0.0
H2278 H 0.60846 0.20243 0.2052 0.0
H2279 H 0.58696 0.25034 0.2013 0.0
H2280 H 0.55853 0.23341 0.11192 0.0
H2281 H 0.57805 0.23024 0.13415 0.0
H2282 H 0.58337 0.21175 0.15595 0.0
C2283 C 0.61505 0.21331 0.20926 0.0
C2284 C 0.58633 0.24188 0.19143 0.0
C2285 C 0.62797 0.21217 0.22054 0.0
C2286 C 0.55454 0.23501 0.12399 0.0
C2287 C 0.56575 0.23308 0.13675 0.0
C2288 C 0.58406 0.2203 0.16575 0.0
C2289 C 0.61062 0.22834 0.20339 0.0
C2290 C 0.59736 0.22956 0.19087 0.0
C2291 C 0.56121 0.23498 0.15264 0.0
C2292 C 0.57325 0.23281 0.16612 0.0
H2293 H 0.63888 0.25192 0.2244 0.0
H2294 H 0.6164 0.25392 0.20472 0.0
H2295 H 0.60435 0.20915 0.17709 0.0
H2296 H 0.52168 0.24393 0.14523 0.0
H2297 H 0.5413 0.24047 0.16757 0.0
C2298 C 0.48059 0.08299 0.03623 0.0
C2299 C 0.48353 0.08159 0.01983 0.0
C2300 C 0.48353 0.09763 0.04422 0.0
C2301 C 0.4874 0.14107 0.03591 0.0
H2302 H 0.50322 0.14401 0.08026 0.0
C2303 C 0.50011 0.20198 0.06719 0.0
C2304 C 0.49326 0.2035 0.08221 0.0
C2305 C 0.50095 0.18692 0.06007 0.0
C2306 C 0.49875 0.14334 0.06788 0.0
H2307 H 0.49211 0.09457 0.99908 0.0
H2308 H 0.49781 0.11979 0.01312 0.0
H2309 H 0.50095 0.11792 0.06684 0.0
H2310 H 0.48256 0.19037 0.10183 0.0
H2311 H 0.48404 0.16407 0.08938 0.0
H2312 H 0.48514 0.16644 0.03695 0.0
C2313 C 0.49293 0.10966 0.01976 0.0
C2314 C 0.4974 0.12841 0.06021 0.0
C2315 C 0.48989 0.09509 0.01175 0.0
C2316 C 0.48787 0.1896 0.09023 0.0
C2317 C 0.4888 0.17452 0.08315 0.0
C2318 C 0.48886 0.15597 0.04354 0.0
C2319 C 0.48954 0.11121 0.03602 0.0
C2320 C 0.49161 0.12709 0.04414 0.0
C2321 C 0.49505 0.17305 0.06785 0.0
C2322 C 0.49444 0.15727 0.05963 0.0
H2323 H 0.4759 0.07279 0.04288 0.0
H2324 H 0.48065 0.09841 0.05672 0.0
H2325 H 0.48257 0.14049 0.02365 0.0
H2326 H 0.50437 0.21246 0.0607 0.0
H2327 H 0.506 0.18613 0.04835 0.0
C2328 C 0.27539 0.39522 0.71252 0.0
C2329 C 0.26979 0.38748 0.7263 0.0
C2330 C 0.28731 0.40766 0.71378 0.0
C2331 C 0.32027 0.42481 0.71961 0.0
H2332 H 0.32112 0.45714 0.75306 0.0
C2333 C 0.37747 0.46475 0.73509 0.0
C2334 C 0.37548 0.48116 0.73772 0.0
C2335 C 0.36401 0.45397 0.73377 0.0
C2336 C 0.32098 0.44826 0.74358 0.0
H2337 H 0.27218 0.38694 0.75225 0.0
H2338 H 0.29296 0.4087 0.75446 0.0
H2339 H 0.29811 0.43761 0.75031 0.0
H2340 H 0.35766 0.49903 0.74129 0.0
H2341 H 0.33413 0.48014 0.73895 0.0
H2342 H 0.34306 0.43545 0.71282 0.0
C2343 C 0.28799 0.40525 0.74268 0.0
C2344 C 0.30789 0.43699 0.7421 0.0
C2345 C 0.27607 0.39278 0.74141 0.0
C2346 C 0.35966 0.48648 0.73926 0.0
C2347 C 0.34617 0.47565 0.73799 0.0
C2348 C 0.33337 0.43601 0.72113 0.0
C2349 C 0.29391 0.41268 0.72886 0.0
C2350 C 0.30743 0.42509 0.73014 0.0
C2351 C 0.3482 0.4593 0.73507 0.0
C2352 C 0.33394 0.44779 0.73321 0.0
H2353 H 0.27059 0.39162 0.70072 0.0
H2354 H 0.29141 0.41333 0.70293 0.0
H2355 H 0.32039 0.4157 0.71038 0.0
H2356 H 0.38944 0.46018 0.7339 0.0
H2357 H 0.366 0.44141 0.73179 0.0
C2358 C 0.26581 0.64085 0.77157 0.0
C2359 C 0.26047 0.64996 0.75838 0.0
C2360 C 0.2782 0.63014 0.77003 0.0
C2361 C 0.3133 0.62316 0.74594 0.0
H2362 H 0.31043 0.57996 0.76287 0.0
C2363 C 0.3596 0.57714 0.73033 0.0
C2364 C 0.36488 0.56648 0.74224 0.0
C2365 C 0.34672 0.58694 0.73288 0.0
C2366 C 0.31153 0.59206 0.75828 0.0
H2367 H 0.26387 0.65493 0.73326 0.0
H2368 H 0.2855 0.63624 0.73057 0.0
H2369 H 0.28803 0.5977 0.7662 0.0
H2370 H 0.36067 0.55768 0.76617 0.0
H2371 H 0.33829 0.57514 0.77081 0.0
H2372 H 0.3368 0.61776 0.73822 0.0
C2373 C 0.28012 0.63741 0.74209 0.0
C2374 C 0.29867 0.60219 0.76014 0.0
C2375 C 0.26763 0.64799 0.74359 0.0
C2376 C 0.35687 0.56576 0.75676 0.0
C2377 C 0.344 0.5757 0.75937 0.0
C2378 C 0.32617 0.61312 0.7442 0.0
C2379 C 0.28562 0.62847 0.75532 0.0
C2380 C 0.29936 0.61778 0.75382 0.0
C2381 C 0.33884 0.5865 0.74748 0.0
C2382 C 0.32539 0.59736 0.75015 0.0
H2383 H 0.26042 0.64204 0.78308 0.0
H2384 H 0.28225 0.62347 0.78044 0.0
H2385 H 0.31431 0.63522 0.74123 0.0
H2386 H 0.36538 0.57789 0.71893 0.0
H2387 H 0.34286 0.5948 0.7233 0.0
C2388 C 0.88826 0.45293 0.46236 0.0
C2389 C 0.89872 0.45918 0.47481 0.0
C2390 C 0.87467 0.44305 0.46576 0.0
C2391 C 0.85807 0.41701 0.4975 0.0
H2392 H 0.81713 0.42134 0.4736 0.0
C2393 C 0.80458 0.37072 0.50221 0.0
C2394 C 0.78875 0.37629 0.50234 0.0
C2395 C 0.81778 0.38114 0.49907 0.0
C2396 C 0.82843 0.42008 0.48049 0.0
H2397 H 0.90324 0.45969 0.50059 0.0
H2398 H 0.8794 0.44285 0.50653 0.0
H2399 H 0.84053 0.43901 0.46768 0.0
H2400 H 0.77445 0.39734 0.4994 0.0
H2401 H 0.79759 0.41561 0.49413 0.0
H2402 H 0.84594 0.39833 0.51053 0.0
C2403 C 0.88175 0.44543 0.49412 0.0
C2404 C 0.8419 0.43007 0.47695 0.0
C2405 C 0.89532 0.45526 0.49072 0.0
C2406 C 0.78646 0.39262 0.49936 0.0
C2407 C 0.79972 0.40308 0.49624 0.0
C2408 C 0.84462 0.40706 0.50104 0.0
C2409 C 0.87125 0.43919 0.48169 0.0
C2410 C 0.85689 0.42862 0.4854 0.0
C2411 C 0.81552 0.39744 0.49603 0.0
C2412 C 0.82966 0.40842 0.49254 0.0
H2413 H 0.89045 0.45583 0.44998 0.0
H2414 H 0.86693 0.4383 0.4559 0.0
H2415 H 0.86946 0.41544 0.50413 0.0
H2416 H 0.80682 0.35821 0.50436 0.0
H2417 H 0.82974 0.37634 0.49875 0.0
C2418 C 0.73381 0.84522 0.74838 0.0
C2419 C 0.73764 0.83723 0.76275 0.0
C2420 C 0.72288 0.85752 0.74808 0.0
C2421 C 0.70591 0.88707 0.77484 0.0
H2422 H 0.67821 0.89533 0.73736 0.0
C2423 C 0.66789 0.94328 0.77034 0.0
C2424 C 0.67063 0.95224 0.7564 0.0
C2425 C 0.6728 0.92749 0.77152 0.0
C2426 C 0.68584 0.89313 0.74793 0.0
H2427 H 0.73266 0.83578 0.78804 0.0
H2428 H 0.71324 0.85683 0.78737 0.0
H2429 H 0.69304 0.87072 0.73879 0.0
H2430 H 0.67969 0.95134 0.73242 0.0
H2431 H 0.68808 0.92387 0.73444 0.0
H2432 H 0.6989 0.90961 0.78384 0.0
C2433 C 0.7189 0.85378 0.77638 0.0
C2434 C 0.6944 0.87908 0.74873 0.0
C2435 C 0.7299 0.84154 0.77671 0.0
C2436 C 0.67751 0.9448 0.74337 0.0
C2437 C 0.68222 0.92901 0.74448 0.0
C2438 C 0.69725 0.90105 0.77409 0.0
C2439 C 0.71543 0.86209 0.76212 0.0
C2440 C 0.70486 0.87606 0.76202 0.0
C2441 C 0.68029 0.92031 0.75869 0.0
C2442 C 0.68744 0.90441 0.76046 0.0
H2443 H 0.73935 0.84206 0.73736 0.0
H2444 H 0.72067 0.86377 0.7369 0.0
H2445 H 0.71399 0.88528 0.78518 0.0
H2446 H 0.66262 0.94868 0.78059 0.0
H2447 H 0.67107 0.921 0.78258 0.0
C2448 C 0.62745 0.53361 0.00961 0.0
C2449 C 0.62191 0.52942 0.99394 0.0
C2450 C 0.64086 0.54431 0.01225 0.0
C2451 C 0.66219 0.57499 0.01372 0.0
H2452 H 0.70001 0.57354 0.98775 0.0
C2453 C 0.70998 0.6274 0.01105 0.0
C2454 C 0.72647 0.62384 0.01067 0.0
C2455 C 0.6978 0.6152 0.00996 0.0
C2456 C 0.68961 0.57401 0.99522 0.0
H2457 H 0.62636 0.53292 0.96876 0.0
H2458 H 0.64963 0.55178 0.97336 0.0
H2459 H 0.67788 0.55321 0.98399 0.0
H2460 H 0.74306 0.60452 0.00908 0.0
H2461 H 0.72173 0.58319 0.00722 0.0
H2462 H 0.67391 0.59575 0.02496 0.0
C2463 C 0.64367 0.54669 0.98361 0.0
C2464 C 0.67685 0.56247 0.99294 0.0
C2465 C 0.63022 0.53603 0.98097 0.0
C2466 C 0.73049 0.60771 0.0094 0.0
C2467 C 0.71827 0.59549 0.00823 0.0
C2468 C 0.67491 0.58655 0.01595 0.0
C2469 C 0.64908 0.55104 0.99928 0.0
C2470 C 0.66294 0.5629 0.00208 0.0
C2471 C 0.70179 0.59911 0.00842 0.0
C2472 C 0.6887 0.58628 0.00664 0.0
H2473 H 0.62123 0.52886 0.01986 0.0
H2474 H 0.64481 0.54729 0.02447 0.0
H2475 H 0.6516 0.57576 0.02087 0.0
H2476 H 0.7064 0.63967 0.01202 0.0
H2477 H 0.68522 0.61842 0.00994 0.0
C2478 C 0.2456 0.65806 0.24182 0.0
C2479 C 0.25337 0.65871 0.22721 0.0
C2480 C 0.23445 0.64547 0.24498 0.0
C2481 C 0.20985 0.61161 0.22513 0.0
H2482 H 0.20788 0.59606 0.26876 0.0
C2483 C 0.18169 0.54982 0.24408 0.0
C2484 C 0.17087 0.55004 0.25663 0.0
C2485 C 0.19026 0.56383 0.23964 0.0
C2486 C 0.20821 0.6004 0.25655 0.0
H2487 H 0.25582 0.64677 0.20449 0.0
H2488 H 0.23697 0.62434 0.21023 0.0
H2489 H 0.22625 0.61874 0.26284 0.0
H2490 H 0.16033 0.56519 0.27416 0.0
H2491 H 0.1757 0.58959 0.26665 0.0
H2492 H 0.19232 0.59255 0.21888 0.0
C2493 C 0.23895 0.63378 0.21908 0.0
C2494 C 0.21867 0.61346 0.25313 0.0
C2495 C 0.24986 0.64656 0.2158 0.0
C2496 C 0.16853 0.56464 0.2644 0.0
C2497 C 0.17736 0.57858 0.26018 0.0
C2498 C 0.19962 0.59832 0.22853 0.0
C2499 C 0.23107 0.63305 0.23372 0.0
C2500 C 0.21966 0.61927 0.23737 0.0
C2501 C 0.18842 0.57824 0.24788 0.0
C2502 C 0.19872 0.59263 0.24427 0.0
H2503 H 0.24801 0.66743 0.25071 0.0
H2504 H 0.2284 0.64559 0.25622 0.0
H2505 H 0.20998 0.61588 0.21291 0.0
H2506 H 0.18373 0.53883 0.23781 0.0
H2507 H 0.19879 0.56329 0.23015 0.0
C2508 C 0.90003 0.51735 0.02905 0.0
C2509 C 0.91403 0.52479 0.0366 0.0
C2510 C 0.88607 0.52594 0.02602 0.0
C2511 C 0.86532 0.56051 0.04063 0.0
H2512 H 0.84118 0.55853 -0.00029 0.0
C2513 C 0.80433 0.59037 0.03182 0.0
C2514 C 0.80311 0.6006 0.01852 0.0
C2515 C 0.81674 0.57957 0.03317 0.0
C2516 C 0.84781 0.55917 0.0112 0.0
H2517 H 0.92441 0.5473 0.04633 0.0
H2518 H 0.89994 0.56212 0.04137 0.0
H2519 H 0.86565 0.54317 0.00367 0.0
H2520 H 0.81338 0.60678 0.99573 0.0
H2521 H 0.83504 0.58783 0.99809 0.0
H2522 H 0.84767 0.57658 0.04816 0.0
C2523 C 0.89977 0.5496 0.03793 0.0
C2524 C 0.86173 0.55032 0.01349 0.0
C2525 C 0.91377 0.54108 0.04082 0.0
C2526 C 0.81402 0.59912 0.00616 0.0
C2527 C 0.82639 0.58822 0.00747 0.0
C2528 C 0.85135 0.56919 0.0384 0.0
C2529 C 0.88573 0.54209 0.03062 0.0
C2530 C 0.87071 0.55105 0.02819 0.0
C2531 C 0.82815 0.57867 0.02121 0.0
C2532 C 0.84249 0.56871 0.02364 0.0
H2533 H 0.8997 0.50477 0.02583 0.0
H2534 H 0.87537 0.51981 0.0205 0.0
H2535 H 0.8719 0.56117 0.05214 0.0
H2536 H 0.79607 0.5911 0.04151 0.0
H2537 H 0.81765 0.57216 0.04378 0.0
C2538 C 0.10061 0.96229 0.00847 0.0
C2539 C 0.10045 0.97791 0.00221 0.0
C2540 C 0.11475 0.9537 0.00852 0.0
C2541 C 0.15329 0.95038 0.98879 0.0
H2542 H 0.1668 0.92879 0.02787 0.0
C2543 C 0.20157 0.90192 0.9926 0.0
C2544 C 0.21254 0.90257 0.00597 0.0
C2545 C 0.18888 0.91246 0.99135 0.0
C2546 C 0.16325 0.93486 0.01691 0.0
H2547 H 0.11519 0.9967 0.99113 0.0
H2548 H 0.13973 0.98149 0.99088 0.0
H2549 H 0.14239 0.94427 0.02732 0.0
H2550 H 0.21926 0.91531 0.02812 0.0
H2551 H 0.19707 0.93358 0.02595 0.0
H2552 H 0.17411 0.94077 0.97835 0.0
C2553 C 0.12885 0.97594 0.9957 0.0
C2554 C 0.1492 0.94357 0.01655 0.0
C2555 C 0.11476 0.98461 0.9958 0.0
C2556 C 0.21098 0.91442 0.0177 0.0
C2557 C 0.19822 0.92484 0.01652 0.0
C2558 C 0.16727 0.94148 0.98909 0.0
C2559 C 0.12901 0.96045 0.00216 0.0
C2560 C 0.14406 0.95139 0.00249 0.0
C2561 C 0.18686 0.92375 0.0035 0.0
C2562 C 0.17237 0.93364 0.00316 0.0
H2563 H 0.08976 0.9566 0.01321 0.0
H2564 H 0.11448 0.94168 0.01338 0.0
H2565 H 0.14954 0.95623 0.97777 0.0
H2566 H 0.20247 0.89296 0.98333 0.0
H2567 H 0.18025 0.91131 0.98121 0.0
loop_
_geom_bond_atom_site_label_1
_geom_bond_atom_site_label_2
_geom_bond_distance
_geom_bond_site_symmetry_2
_ccdc_geom_bond_type
C0 C1 1.391 . S
C0 C4 1.391 . S
C0 H42 0.948 . S
C1 C0 1.391 . S
C1 C2 1.404 . S
C2 C1 1.404 . S
C2 H58 0.941 1_556 S
C2 C59 1.381 1_556 S
C3 C4 1.391 1_554 S
C3 C7 1.397 . S
C3 C59 1.419 . S
C4 C0 1.391 . S
C4 C3 1.391 1_556 S
C4 C5 1.399 . S
C5 C4 1.399 . S
C5 C8 1.396 1_556 S
C5 C17 1.454 . S
C5 C18 1.684 . S
H6 C30 0.948 . S
C7 C3 1.397 . S
C7 C8 1.394 . S
C7 C26 1.723 . S
C8 C5 1.396 1_554 S
C8 C7 1.394 . S
C8 C38 1.723 . S
H9 C32 0.947 1_556 S
H10 C33 0.948 1_556 S
H11 C39 0.982 . S
H12 C40 0.979 . S
H13 C40 0.980 . S
H14 C40 0.983 . S
H15 C39 0.979 1_565 S
H16 C39 0.977 . S
C17 C5 1.454 . S
C17 H46 0.952 1_556 S
C17 H47 1.011 . S
C17 H48 0.974 1_556 S
C18 C5 1.684 . S
C18 H43 0.979 . S
C18 H44 0.980 . S
C18 H45 0.983 . S
C19 C20 1.391 . S
C19 C24 1.391 1_655 S
C19 H49 0.948 . S
C20 C19 1.391 . S
C20 C21 1.391 1_655 S
C21 C20 1.391 1_455 S
C21 C22 1.392 . S
C21 H50 0.947 . S
C22 C21 1.392 . S
C22 C23 1.419 . S
C22 H51 0.948 . S
C23 C22 1.419 . S
C23 C24 1.391 . S
C23 C27 1.397 . S
C24 C19 1.391 1_455 S
C24 C23 1.391 . S
C24 C25 1.399 . S
C25 C24 1.399 . S
C25 C26 1.396 . S
C25 C28 1.453 . S
C25 C29 1.684 1_455 S
C26 C7 1.723 . S
C26 C25 1.396 . S
C26 C27 1.394 . S
C27 C23 1.397 . S
C27 C26 1.394 . S
C27 C37 1.723 . S
C28 C25 1.453 . S
C28 H52 0.982 . S
C28 H53 0.954 1_455 S
C28 H54 0.977 . S
C29 C25 1.684 1_655 S
C29 H55 0.979 . S
C29 H56 0.980 . S
C29 H57 0.983 . S
C30 H6 0.948 . S
C30 C31 1.391 . S
C30 C35 1.391 1_565 S
C31 C30 1.391 . S
C31 C32 1.391 1_565 S
C32 H9 0.947 1_554 S
C32 C31 1.391 1_545 S
C32 C33 1.392 . S
C33 H10 0.948 1_554 S
C33 C32 1.392 . S
C33 C34 1.419 . S
C34 C33 1.419 . S
C34 C35 1.391 . S
C34 C38 1.397 . S
C35 C30 1.391 1_545 S
C35 C34 1.391 . S
C35 C36 1.399 . S
C36 C35 1.399 . S
C36 C37 1.396 . S
C36 C39 1.453 . S
C36 C40 1.684 1_545 S
C37 C27 1.723 . S
C37 C36 1.396 . S
C37 C38 1.394 . S
C38 C8 1.723 . S
C38 C34 1.397 . S
C38 C37 1.394 . S
C39 H11 0.982 . S
C39 H15 0.979 1_545 S
C39 H16 0.977 . S
C39 C36 1.453 . S
C40 H12 0.979 . S
C40 H13 0.980 . S
C40 H14 0.983 . S
C40 C36 1.684 1_565 S
H41 C59 0.948 . S
H42 C0 0.948 . S
H43 C18 0.979 . S
H44 C18 0.980 . S
H45 C18 0.983 . S
H46 C17 0.952 1_554 S
H47 C17 1.011 . S
H48 C17 0.974 1_554 S
H49 C19 0.948 . S
H50 C21 0.947 . S
H51 C22 0.948 . S
H52 C28 0.982 . S
H53 C28 0.954 1_655 S
H54 C28 0.977 . S
H55 C29 0.979 . S
H56 C29 0.980 . S
H57 C29 0.983 . S
H58 C2 0.941 1_554 S
C59 C2 1.381 1_554 S
C59 C3 1.419 . S
C59 H41 0.948 . S
C60 C61 1.391 . S
C60 C64 1.391 . S
C60 H102 0.948 . S
C61 C60 1.391 . S
C61 C62 1.391 . S
C62 C61 1.391 . S
C62 H118 0.947 . S
C62 C119 1.392 . S
C63 C64 1.391 . S
C63 C67 1.397 . S
C63 C119 1.419 . S
C64 C60 1.391 . S
C64 C63 1.391 . S
C64 C65 1.399 . S
C65 C64 1.399 . S
C65 C68 1.396 . S
C65 C77 1.453 . S
C65 C78 1.684 . S
H66 C90 0.948 . S
C67 C63 1.397 . S
C67 C68 1.394 . S
C67 C86 1.723 . S
C68 C65 1.396 . S
C68 C67 1.394 . S
C68 C98 1.723 . S
H69 C92 0.947 . S
H70 C93 0.948 . S
H71 C99 0.982 . S
H72 C100 0.979 . S
H73 C100 0.980 . S
H74 C100 0.983 . S
H75 C99 0.979 . S
H76 C99 0.977 . S
C77 C65 1.453 . S
C77 H106 0.982 . S
C77 H107 0.979 . S
C77 H108 0.977 . S
C78 C65 1.684 . S
C78 H103 0.979 . S
C78 H104 0.980 . S
C78 H105 0.983 . S
C79 C80 1.391 . S
C79 C84 1.391 . S
C79 H109 0.948 . S
C80 C79 1.391 . S
C80 C81 1.391 . S
C81 C80 1.391 . S
C81 C82 1.392 . S
C81 H110 0.947 . S
C82 C81 1.392 . S
C82 C83 1.419 . S
C82 H111 0.948 . S
C83 C82 1.419 . S
C83 C84 1.391 . S
C83 C87 1.397 . S
C84 C79 1.391 . S
C84 C83 1.391 . S
C84 C85 1.399 . S
C85 C84 1.399 . S
C85 C86 1.396 . S
C85 C88 1.453 . S
C85 C89 1.684 . S
C86 C67 1.723 . S
C86 C85 1.396 . S
C86 C87 1.394 . S
C87 C83 1.397 . S
C87 C86 1.394 . S
C87 C97 1.723 . S
C88 C85 1.453 . S
C88 H112 0.982 . S
C88 H113 0.979 . S
C88 H114 0.977 . S
C89 C85 1.684 . S
C89 H115 0.979 . S
C89 H116 0.980 . S
C89 H117 0.983 . S
C90 H66 0.948 . S
C90 C91 1.391 . S
C90 C95 1.391 . S
C91 C90 1.391 . S
C91 C92 1.391 . S
C92 H69 0.947 . S
C92 C91 1.391 . S
C92 C93 1.392 . S
C93 H70 0.948 . S
C93 C92 1.392 . S
C93 C94 1.419 . S
C94 C93 1.419 . S
C94 C95 1.391 . S
C94 C98 1.397 . S
C95 C90 1.391 . S
C95 C94 1.391 . S
C95 C96 1.399 . S
C96 C95 1.399 . S
C96 C97 1.396 . S
C96 C99 1.453 . S
C96 C100 1.684 . S
C97 C87 1.723 . S
C97 C96 1.396 . S
C97 C98 1.394 . S
C98 C68 1.723 . S
C98 C94 1.397 . S
C98 C97 1.394 . S
C99 H71 0.982 . S
C99 H75 0.979 . S
C99 H76 0.977 . S
C99 C96 1.453 . S
C100 H72 0.979 . S
C100 H73 0.980 . S
C100 H74 0.983 . S
C100 C96 1.684 . S
H101 C119 0.948 . S
H102 C60 0.948 . S
H103 C78 0.979 . S
H104 C78 0.980 . S
H105 C78 0.983 . S
H106 C77 0.982 . S
H107 C77 0.979 . S
H108 C77 0.977 . S
H109 C79 0.948 . S
H110 C81 0.947 . S
H111 C82 0.948 . S
H112 C88 0.982 . S
H113 C88 0.979 . S
H114 C88 0.977 . S
H115 C89 0.979 . S
H116 C89 0.980 . S
H117 C89 0.983 . S
H118 C62 0.947 . S
C119 C62 1.392 . S
C119 C63 1.419 . S
C119 H101 0.948 . S
C120 C121 1.412 . S
C120 C124 1.391 . S
C120 H162 0.948 1_655 S
C121 C120 1.412 . S
C121 C122 1.386 1_554 S
C122 C121 1.386 1_556 S
C122 H178 0.947 . S
C122 C179 1.392 1_556 S
C123 C124 1.391 . S
C123 C127 1.397 . S
C123 C179 1.419 . S
C124 C120 1.391 . S
C124 C123 1.391 . S
C124 C125 1.399 1_655 S
C125 C124 1.399 1_455 S
C125 C128 1.396 1_455 S
C125 C137 1.453 . S
C125 C138 1.684 . S
H126 C150 0.948 . S
C127 C123 1.397 . S
C127 C128 1.394 . S
C127 C146 1.723 . S
C128 C125 1.396 1_655 S
C128 C127 1.394 . S
C128 C158 1.723 . S
H129 C152 0.947 . S
H130 C153 0.948 . S
H131 C159 0.982 . S
H132 C160 0.979 . S
H133 C160 0.980 . S
H134 C160 0.983 . S
H135 C159 0.979 . S
H136 C159 0.977 . S
C137 C125 1.453 . S
C137 H166 0.982 1_455 S
C137 H167 0.979 . S
C137 H168 0.977 . S
C138 C125 1.684 . S
C138 H163 0.979 . S
C138 H164 0.980 . S
C138 H165 0.983 . S
C139 C140 1.391 . S
C139 C144 1.391 . S
C139 H169 0.948 . S
C140 C139 1.391 . S
C140 C141 1.391 . S
C141 C140 1.391 . S
C141 C142 1.392 . S
C141 H170 0.947 . S
C142 C141 1.392 . S
C142 C143 1.419 . S
C142 H171 0.948 . S
C143 C142 1.419 . S
C143 C144 1.391 . S
C143 C147 1.397 . S
C144 C139 1.391 . S
C144 C143 1.391 . S
C144 C145 1.399 . S
C145 C144 1.399 . S
C145 C146 1.396 . S
C145 C148 1.453 . S
C145 C149 1.684 . S
C146 C127 1.723 . S
C146 C145 1.396 . S
C146 C147 1.394 . S
C147 C143 1.397 . S
C147 C146 1.394 . S
C147 C157 1.723 . S
C148 C145 1.453 . S
C148 H172 0.982 . S
C148 H173 0.979 . S
C148 H174 0.977 . S
C149 C145 1.684 . S
C149 H175 0.979 1_554 S
C149 H176 0.980 1_554 S
C149 H177 0.983 1_554 S
C150 H126 0.948 . S
C150 C151 1.391 . S
C150 C155 1.391 . S
C151 C150 1.391 . S
C151 C152 1.391 . S
C152 H129 0.947 . S
C152 C151 1.391 . S
C152 C153 1.392 . S
C153 H130 0.948 . S
C153 C152 1.392 . S
C153 C154 1.419 . S
C154 C153 1.419 . S
C154 C155 1.391 . S
C154 C158 1.397 1_455 S
C155 C150 1.391 . S
C155 C154 1.391 . S
C155 C156 1.399 1_455 S
C156 C155 1.399 1_655 S
C156 C157 1.396 . S
C156 C159 1.453 . S
C156 C160 1.684 . S
C157 C147 1.723 . S
C157 C156 1.396 . S
C157 C158 1.394 . S
C158 C128 1.723 . S
C158 C154 1.397 1_655 S
C158 C157 1.394 . S
C159 H131 0.982 . S
C159 H135 0.979 . S
C159 H136 0.977 . S
C159 C156 1.453 . S
C160 H132 0.979 . S
C160 H133 0.980 . S
C160 H134 0.983 . S
C160 C156 1.684 . S
H161 C179 0.948 . S
H162 C120 0.948 1_455 S
H163 C138 0.979 . S
H164 C138 0.980 . S
H165 C138 0.983 . S
H166 C137 0.982 1_655 S
H167 C137 0.979 . S
H168 C137 0.977 . S
H169 C139 0.948 . S
H170 C141 0.947 . S
H171 C142 0.948 . S
H172 C148 0.982 . S
H173 C148 0.979 . S
H174 C148 0.977 . S
H175 C149 0.979 1_556 S
H176 C149 0.980 1_556 S
H177 C149 0.983 1_556 S
H178 C122 0.947 . S
C179 C122 1.392 1_554 S
C179 C123 1.419 . S
C179 H161 0.948 . S
C180 C181 1.391 . S
C180 C184 1.391 . S
C180 H222 0.948 . S
C181 C180 1.391 . S
C181 C182 1.391 . S
C182 C181 1.391 . S
C182 H238 0.947 . S
C182 C239 1.392 . S
C183 C184 1.391 . S
C183 C187 1.397 . S
C183 C239 1.419 . S
C184 C180 1.391 . S
C184 C183 1.391 . S
C184 C185 1.399 . S
C185 C184 1.399 . S
C185 C188 1.396 . S
C185 C197 1.453 . S
C185 C198 1.684 . S
H186 C210 0.948 . S
C187 C183 1.397 . S
C187 C188 1.394 . S
C187 C206 1.723 . S
C188 C185 1.396 . S
C188 C187 1.394 . S
C188 C218 1.723 . S
H189 C212 0.947 . S
H190 C213 0.948 . S
H191 C219 0.982 . S
H192 C220 0.979 . S
H193 C220 0.980 . S
H194 C220 0.983 . S
H195 C219 0.979 . S
H196 C219 0.977 . S
C197 C185 1.453 . S
C197 H226 0.982 . S
C197 H227 0.979 . S
C197 H228 0.977 . S
C198 C185 1.684 . S
C198 H223 0.979 . S
C198 H224 0.980 . S
C198 H225 0.983 . S
C199 C200 1.391 . S
C199 C204 1.391 . S
C199 H229 0.948 . S
C200 C199 1.391 . S
C200 C201 1.391 . S
C201 C200 1.391 . S
C201 C202 1.392 . S
C201 H230 0.947 . S
C202 C201 1.392 . S
C202 C203 1.419 . S
C202 H231 0.948 . S
C203 C202 1.419 . S
C203 C204 1.391 . S
C203 C207 1.397 . S
C204 C199 1.391 . S
C204 C203 1.391 . S
C204 C205 1.399 . S
C205 C204 1.399 . S
C205 C206 1.396 . S
C205 C208 1.453 . S
C205 C209 1.684 . S
C206 C187 1.723 . S
C206 C205 1.396 . S
C206 C207 1.394 . S
C207 C203 1.397 . S
C207 C206 1.394 . S
C207 C217 1.723 . S
C208 C205 1.453 . S
C208 H232 0.982 . S
C208 H233 0.979 . S
C208 H234 0.977 . S
C209 C205 1.684 . S
C209 H235 0.979 . S
C209 H236 0.980 . S
C209 H237 0.983 . S
C210 H186 0.948 . S
C210 C211 1.391 . S
C210 C215 1.391 . S
C211 C210 1.391 . S
C211 C212 1.391 . S
C212 H189 0.947 . S
C212 C211 1.391 . S
C212 C213 1.392 . S
C213 H190 0.948 . S
C213 C212 1.392 . S
C213 C214 1.419 . S
C214 C213 1.419 . S
C214 C215 1.391 . S
C214 C218 1.397 . S
C215 C210 1.391 . S
C215 C214 1.391 . S
C215 C216 1.399 . S
C216 C215 1.399 . S
C216 C217 1.396 . S
C216 C219 1.453 . S
C216 C220 1.684 . S
C217 C207 1.723 . S
C217 C216 1.396 . S
C217 C218 1.394 . S
C218 C188 1.723 . S
C218 C214 1.397 . S
C218 C217 1.394 . S
C219 H191 0.982 . S
C219 H195 0.979 . S
C219 H196 0.977 . S
C219 C216 1.453 . S
C220 H192 0.979 . S
C220 H193 0.980 . S
C220 H194 0.983 . S
C220 C216 1.684 . S
H221 C239 0.948 . S
H222 C180 0.948 . S
H223 C198 0.979 . S
H224 C198 0.980 . S
H225 C198 0.983 . S
H226 C197 0.982 . S
H227 C197 0.979 . S
H228 C197 0.977 . S
H229 C199 0.948 . S
H230 C201 0.947 . S
H231 C202 0.948 . S
H232 C208 0.982 . S
H233 C208 0.979 . S
H234 C208 0.977 . S
H235 C209 0.979 . S
H236 C209 0.980 . S
H237 C209 0.983 . S
H238 C182 0.947 . S
C239 C182 1.392 . S
C239 C183 1.419 . S
C239 H221 0.948 . S
C240 C241 1.391 . S
C240 C244 1.391 . S
C240 H282 0.948 . S
C241 C240 1.391 . S
C241 C242 1.391 . S
C242 C241 1.391 . S
C242 H298 0.947 . S
C242 C299 1.392 . S
C243 C244 1.391 . S
C243 C247 1.397 . S
C243 C299 1.419 . S
C244 C240 1.391 . S
C244 C243 1.391 . S
C244 C245 1.399 . S
C245 C244 1.399 . S
C245 C248 1.396 . S
C245 C257 1.453 . S
C245 C258 1.684 . S
H246 C270 0.948 . S
C247 C243 1.397 . S
C247 C248 1.394 . S
C247 C266 1.723 . S
C248 C245 1.396 . S
C248 C247 1.394 . S
C248 C278 1.723 . S
H249 C272 0.947 . S
H250 C273 0.948 . S
H251 C279 0.982 . S
H252 C280 0.979 1_565 S
H253 C280 0.980 . S
H254 C280 0.983 . S
H255 C279 0.979 . S
H256 C279 0.977 . S
C257 C245 1.453 . S
C257 H286 0.982 . S
C257 H287 0.979 . S
C257 H288 0.977 . S
C258 C245 1.684 . S
C258 H283 0.979 . S
C258 H284 0.980 . S
C258 H285 0.983 . S
C259 C260 1.391 . S
C259 C264 1.391 . S
C259 H289 0.948 . S
C260 C259 1.391 . S
C260 C261 1.391 . S
C261 C260 1.391 . S
C261 C262 1.392 . S
C261 H290 0.947 1_565 S
C262 C261 1.392 . S
C262 C263 1.419 . S
C262 H291 0.951 1_565 S
C263 C262 1.419 . S
C263 C264 1.391 . S
C263 C267 1.397 . S
C264 C259 1.391 . S
C264 C263 1.391 . S
C264 C265 1.399 . S
C265 C264 1.399 . S
C265 C266 1.396 . S
C265 C268 1.453 . S
C265 C269 1.684 . S
C266 C247 1.723 . S
C266 C265 1.396 . S
C266 C267 1.394 . S
C267 C263 1.397 . S
C267 C266 1.394 . S
C267 C277 1.723 . S
C268 C265 1.453 . S
C268 H292 0.982 . S
C268 H293 0.979 1_455 S
C268 H294 0.977 . S
C269 C265 1.684 . S
C269 H295 0.979 . S
C269 H296 0.980 . S
C269 H297 0.983 . S
C270 H246 0.948 . S
C270 C271 1.391 . S
C270 C275 1.424 . S
C271 C270 1.391 . S
C271 C272 1.391 1_545 S
C272 H249 0.947 . S
C272 C271 1.391 1_565 S
C272 C273 1.392 . S
C273 H250 0.948 . S
C273 C272 1.392 . S
C273 C274 1.419 . S
C274 C273 1.419 . S
C274 C275 1.356 1_565 S
C274 C278 1.397 . S
C275 C270 1.424 . S
C275 C274 1.356 1_545 S
C275 C276 1.400 1_545 S
C276 C275 1.400 1_565 S
C276 C277 1.394 . S
C276 C279 1.456 1_565 S
C276 C280 1.684 1_565 S
C277 C267 1.723 . S
C277 C276 1.394 . S
C277 C278 1.394 . S
C278 C248 1.723 . S
C278 C274 1.397 . S
C278 C277 1.394 . S
C279 H251 0.982 . S
C279 H255 0.979 . S
C279 H256 0.977 . S
C279 C276 1.456 1_545 S
C280 H252 0.979 1_545 S
C280 H253 0.980 . S
C280 H254 0.983 . S
C280 C276 1.684 1_545 S
H281 C299 0.948 . S
H282 C240 0.948 . S
H283 C258 0.979 . S
H284 C258 0.980 . S
H285 C258 0.983 . S
H286 C257 0.982 . S
H287 C257 0.979 . S
H288 C257 0.977 . S
H289 C259 0.948 . S
H290 C261 0.947 1_545 S
H291 C262 0.951 1_545 S
H292 C268 0.982 . S
H293 C268 0.979 1_655 S
H294 C268 0.977 . S
H295 C269 0.979 . S
H296 C269 0.980 . S
H297 C269 0.983 . S
H298 C242 0.947 . S
C299 C242 1.392 . S
C299 C243 1.419 . S
C299 H281 0.948 . S
C300 C301 1.391 . S
C300 C304 1.391 . S
C300 H342 0.948 . S
C301 C300 1.391 . S
C301 C302 1.391 . S
C302 C301 1.391 . S
C302 H358 0.947 . S
C302 C359 1.392 . S
C303 C304 1.391 . S
C303 C307 1.397 . S
C303 C359 1.419 . S
C304 C300 1.391 . S
C304 C303 1.391 . S
C304 C305 1.399 . S
C305 C304 1.399 . S
C305 C308 1.396 . S
C305 C317 1.453 . S
C305 C318 1.684 . S
H306 C330 0.948 . S
C307 C303 1.397 . S
C307 C308 1.394 . S
C307 C326 1.723 . S
C308 C305 1.396 . S
C308 C307 1.394 . S
C308 C338 1.723 . S
H309 C332 0.947 . S
H310 C333 0.948 . S
H311 C339 0.982 . S
H312 C340 0.979 . S
H313 C340 0.980 . S
H314 C340 0.983 . S
H315 C339 0.979 . S
H316 C339 0.977 . S
C317 C305 1.453 . S
C317 H346 0.982 . S
C317 H347 0.979 . S
C317 H348 0.977 . S
C318 C305 1.684 . S
C318 H343 0.979 . S
C318 H344 0.980 . S
C318 H345 0.983 . S
C319 C320 1.391 . S
C319 C324 1.391 . S
C319 H349 0.948 . S
C320 C319 1.391 . S
C320 C321 1.391 . S
C321 C320 1.391 . S
C321 C322 1.392 . S
C321 H350 0.947 . S
C322 C321 1.392 . S
C322 C323 1.419 . S
C322 H351 0.948 . S
C323 C322 1.419 . S
C323 C324 1.391 . S
C323 C327 1.397 . S
C324 C319 1.391 . S
C324 C323 1.391 . S
C324 C325 1.399 . S
C325 C324 1.399 . S
C325 C326 1.396 . S
C325 C328 1.453 . S
C325 C329 1.684 . S
C326 C307 1.723 . S
C326 C325 1.396 . S
C326 C327 1.394 . S
C327 C323 1.397 . S
C327 C326 1.394 . S
C327 C337 1.723 . S
C328 C325 1.453 . S
C328 H352 0.982 . S
C328 H353 0.979 . S
C328 H354 0.977 . S
C329 C325 1.684 . S
C329 H355 0.979 . S
C329 H356 0.980 . S
C329 H357 0.983 . S
C330 H306 0.948 . S
C330 C331 1.391 . S
C330 C335 1.391 . S
C331 C330 1.391 . S
C331 C332 1.391 . S
C332 H309 0.947 . S
C332 C331 1.391 . S
C332 C333 1.392 . S
C333 H310 0.948 . S
C333 C332 1.392 . S
C333 C334 1.419 . S
C334 C333 1.419 . S
C334 C335 1.391 . S
C334 C338 1.397 . S
C335 C330 1.391 . S
C335 C334 1.391 . S
C335 C336 1.399 . S
C336 C335 1.399 . S
C336 C337 1.396 . S
C336 C339 1.453 . S
C336 C340 1.684 . S
C337 C327 1.723 . S
C337 C336 1.396 . S
C337 C338 1.394 . S
C338 C308 1.723 . S
C338 C334 1.397 . S
C338 C337 1.394 . S
C339 H311 0.982 . S
C339 H315 0.979 . S
C339 H316 0.977 . S
C339 C336 1.453 . S
C340 H312 0.979 . S
C340 H313 0.980 . S
C340 H314 0.983 . S
C340 C336 1.684 . S
H341 C359 0.948 . S
H342 C300 0.948 . S
H343 C318 0.979 . S
H344 C318 0.980 . S
H345 C318 0.983 . S
H346 C317 0.982 . S
H347 C317 0.979 . S
H348 C317 0.977 . S
H349 C319 0.948 . S
H350 C321 0.947 . S
H351 C322 0.948 . S
H352 C328 0.982 . S
H353 C328 0.979 . S
H354 C328 0.977 . S
H355 C329 0.979 . S
H356 C329 0.980 . S
H357 C329 0.983 . S
H358 C302 0.947 . S
C359 C302 1.392 . S
C359 C303 1.419 . S
C359 H341 0.948 . S
C360 C361 1.391 . S
C360 C364 1.391 . S
C360 H402 0.948 . S
C361 C360 1.391 . S
C361 C362 1.391 . S
C362 C361 1.391 . S
C362 H418 0.947 . S
C362 C419 1.392 . S
C363 C364 1.391 . S
C363 C367 1.397 . S
C363 C419 1.419 . S
C364 C360 1.391 . S
C364 C363 1.391 . S
C364 C365 1.399 . S
C365 C364 1.399 . S
C365 C368 1.396 . S
C365 C377 1.453 . S
C365 C378 1.684 . S
H366 C390 0.948 . S
C367 C363 1.397 . S
C367 C368 1.394 . S
C367 C386 1.723 . S
C368 C365 1.396 . S
C368 C367 1.394 . S
C368 C398 1.723 . S
H369 C392 0.947 . S
H370 C393 0.948 . S
H371 C399 0.982 . S
H372 C400 0.979 . S
H373 C400 0.980 . S
H374 C400 0.983 . S
H375 C399 0.992 . S
H376 C399 0.977 . S
C377 C365 1.453 . S
C377 H406 0.982 . S
C377 H407 0.979 . S
C377 H408 0.977 . S
C378 C365 1.684 . S
C378 H403 0.979 . S
C378 H404 0.980 . S
C378 H405 0.983 . S
C379 C380 1.357 1_655 S
C379 C384 1.419 . S
C379 H409 0.956 . S
C380 C379 1.357 1_455 S
C380 C381 1.391 . S
C381 C380 1.391 . S
C381 C382 1.392 . S
C381 H410 0.947 . S
C382 C381 1.392 . S
C382 C383 1.419 1_455 S
C382 H411 0.948 . S
C383 C382 1.419 1_655 S
C383 C384 1.391 . S
C383 C387 1.397 . S
C384 C379 1.419 . S
C384 C383 1.391 . S
C384 C385 1.399 . S
C385 C384 1.399 . S
C385 C386 1.396 . S
C385 C388 1.453 . S
C385 C389 1.684 . S
C386 C367 1.723 . S
C386 C385 1.396 . S
C386 C387 1.394 . S
C387 C383 1.397 . S
C387 C386 1.394 . S
C387 C397 1.723 . S
C388 C385 1.453 . S
C388 H412 0.982 . S
C388 H413 0.979 . S
C388 H414 0.977 . S
C389 C385 1.684 . S
C389 H415 0.979 . S
C389 H416 0.980 . S
C389 H417 0.983 . S
C390 H366 0.948 . S
C390 C391 1.391 . S
C390 C395 1.391 . S
C391 C390 1.391 . S
C391 C392 1.391 . S
C392 H369 0.947 . S
C392 C391 1.391 . S
C392 C393 1.392 . S
C393 H370 0.948 . S
C393 C392 1.392 . S
C393 C394 1.419 . S
C394 C393 1.419 . S
C394 C395 1.391 . S
C394 C398 1.397 . S
C395 C390 1.391 . S
C395 C394 1.391 . S
C395 C396 1.399 . S
C396 C395 1.399 . S
C396 C397 1.396 . S
C396 C399 1.453 . S
C396 C400 1.684 1_655 S
C397 C387 1.723 . S
C397 C396 1.396 . S
C397 C398 1.394 . S
C398 C368 1.723 . S
C398 C394 1.397 . S
C398 C397 1.394 . S
C399 H371 0.982 . S
C399 H375 0.992 . S
C399 H376 0.977 . S
C399 C396 1.453 . S
C400 H372 0.979 . S
C400 H373 0.980 . S
C400 H374 0.983 . S
C400 C396 1.684 1_455 S
H401 C419 0.948 . S
H402 C360 0.948 . S
H403 C378 0.979 . S
H404 C378 0.980 . S
H405 C378 0.983 . S
H406 C377 0.982 . S
H407 C377 0.979 . S
H408 C377 0.977 . S
H409 C379 0.956 . S
H410 C381 0.947 . S
H411 C382 0.948 . S
H412 C388 0.982 . S
H413 C388 0.979 . S
H414 C388 0.977 . S
H415 C389 0.979 . S
H416 C389 0.980 . S
H417 C389 0.983 . S
H418 C362 0.947 . S
C419 C362 1.392 . S
C419 C363 1.419 . S
C419 H401 0.948 . S
C420 C421 1.391 . S
C420 C424 1.391 . S
C420 H462 0.948 . S
C421 C420 1.391 . S
C421 C422 1.391 . S
C422 C421 1.391 . S
C422 H478 0.947 . S
C422 C479 1.392 . S
C423 C424 1.391 . S
C423 C427 1.397 . S
C423 C479 1.419 . S
C424 C420 1.391 . S
C424 C423 1.391 . S
C424 C425 1.399 . S
C425 C424 1.399 . S
C425 C428 1.396 . S
C425 C437 1.453 . S
C425 C438 1.684 . S
H426 C450 0.948 . S
C427 C423 1.397 . S
C427 C428 1.394 . S
C427 C446 1.723 . S
C428 C425 1.396 . S
C428 C427 1.394 . S
C428 C458 1.723 . S
H429 C452 0.947 . S
H430 C453 0.948 . S
H431 C459 0.982 . S
H432 C460 0.979 . S
H433 C460 0.980 . S
H434 C460 0.983 . S
H435 C459 0.979 . S
H436 C459 0.977 . S
C437 C425 1.453 . S
C437 H466 0.982 . S
C437 H467 0.979 . S
C437 H468 0.977 . S
C438 C425 1.684 . S
C438 H463 0.979 . S
C438 H464 0.980 . S
C438 H465 0.983 . S
C439 C440 1.391 . S
C439 C444 1.391 . S
C439 H469 0.948 . S
C440 C439 1.391 . S
C440 C441 1.391 . S
C441 C440 1.391 . S
C441 C442 1.392 . S
C441 H470 0.947 . S
C442 C441 1.392 . S
C442 C443 1.419 . S
C442 H471 0.948 . S
C443 C442 1.419 . S
C443 C444 1.391 . S
C443 C447 1.397 . S
C444 C439 1.391 . S
C444 C443 1.391 . S
C444 C445 1.399 . S
C445 C444 1.399 . S
C445 C446 1.396 . S
C445 C448 1.453 . S
C445 C449 1.684 . S
C446 C427 1.723 . S
C446 C445 1.396 . S
C446 C447 1.394 . S
C447 C443 1.397 . S
C447 C446 1.394 . S
C447 C457 1.723 . S
C448 C445 1.453 . S
C448 H472 0.982 . S
C448 H473 0.979 . S
C448 H474 0.977 . S
C449 C445 1.684 . S
C449 H475 0.979 . S
C449 H476 0.980 . S
C449 H477 0.983 . S
C450 H426 0.948 . S
C450 C451 1.391 . S
C450 C455 1.391 . S
C451 C450 1.391 . S
C451 C452 1.391 . S
C452 H429 0.947 . S
C452 C451 1.391 . S
C452 C453 1.392 . S
C453 H430 0.948 . S
C453 C452 1.392 . S
C453 C454 1.419 . S
C454 C453 1.419 . S
C454 C455 1.391 . S
C454 C458 1.397 . S
C455 C450 1.391 . S
C455 C454 1.391 . S
C455 C456 1.399 . S
C456 C455 1.399 . S
C456 C457 1.396 . S
C456 C459 1.453 . S
C456 C460 1.684 . S
C457 C447 1.723 . S
C457 C456 1.396 . S
C457 C458 1.394 . S
C458 C428 1.723 . S
C458 C454 1.397 . S
C458 C457 1.394 . S
C459 H431 0.982 . S
C459 H435 0.979 . S
C459 H436 0.977 . S
C459 C456 1.453 . S
C460 H432 0.979 . S
C460 H433 0.980 . S
C460 H434 0.983 . S
C460 C456 1.684 . S
H461 C479 0.948 . S
H462 C420 0.948 . S
H463 C438 0.979 . S
H464 C438 0.980 . S
H465 C438 0.983 . S
H466 C437 0.982 . S
H467 C437 0.979 . S
H468 C437 0.977 . S
H469 C439 0.948 . S
H470 C441 0.947 . S
H471 C442 0.948 . S
H472 C448 0.982 . S
H473 C448 0.979 . S
H474 C448 0.977 . S
H475 C449 0.979 . S
H476 C449 0.980 . S
H477 C449 0.983 . S
H478 C422 0.947 . S
C479 C422 1.392 . S
C479 C423 1.419 . S
C479 H461 0.948 . S
C480 C481 1.391 . S
C480 C484 1.391 . S
C480 H522 0.948 . S
C481 C480 1.391 . S
C481 C482 1.391 . S
C482 C481 1.391 . S
C482 H538 0.947 . S
C482 C539 1.392 . S
C483 C484 1.391 . S
C483 C487 1.397 . S
C483 C539 1.419 . S
C484 C480 1.391 . S
C484 C483 1.391 . S
C484 C485 1.399 . S
C485 C484 1.399 . S
C485 C488 1.396 . S
C485 C497 1.453 . S
C485 C498 1.684 . S
H486 C510 0.948 . S
C487 C483 1.397 . S
C487 C488 1.394 . S
C487 C506 1.723 . S
C488 C485 1.396 . S
C488 C487 1.394 . S
C488 C518 1.723 . S
H489 C512 0.947 . S
H490 C513 0.948 . S
H491 C519 0.982 . S
H492 C520 0.979 . S
H493 C520 0.980 . S
H494 C520 0.983 . S
H495 C519 0.979 . S
H496 C519 0.977 . S
C497 C485 1.453 . S
C497 H526 0.982 . S
C497 H527 0.979 . S
C497 H528 0.977 . S
C498 C485 1.684 . S
C498 H523 0.979 . S
C498 H524 0.980 . S
C498 H525 0.983 . S
C499 C500 1.391 . S
C499 C504 1.391 . S
C499 H529 0.948 . S
C500 C499 1.391 . S
C500 C501 1.391 . S
C501 C500 1.391 . S
C501 C502 1.392 . S
C501 H530 0.947 . S
C502 C501 1.392 . S
C502 C503 1.419 . S
C502 H531 0.948 . S
C503 C502 1.419 . S
C503 C504 1.391 . S
C503 C507 1.397 . S
C504 C499 1.391 . S
C504 C503 1.391 . S
C504 C505 1.399 . S
C505 C504 1.399 . S
C505 C506 1.396 . S
C505 C508 1.453 . S
C505 C509 1.684 . S
C506 C487 1.723 . S
C506 C505 1.396 . S
C506 C507 1.394 . S
C507 C503 1.397 . S
C507 C506 1.394 . S
C507 C517 1.723 . S
C508 C505 1.453 . S
C508 H532 0.982 . S
C508 H533 0.979 . S
C508 H534 0.977 . S
C509 C505 1.684 . S
C509 H535 0.979 . S
C509 H536 0.980 . S
C509 H537 0.983 . S
C510 H486 0.948 . S
C510 C511 1.391 . S
C510 C515 1.391 . S
C511 C510 1.391 . S
C511 C512 1.391 . S
C512 H489 0.947 . S
C512 C511 1.391 . S
C512 C513 1.392 . S
C513 H490 0.948 . S
C513 C512 1.392 . S
C513 C514 1.419 . S
C514 C513 1.419 . S
C514 C515 1.391 . S
C514 C518 1.397 . S
C515 C510 1.391 . S
C515 C514 1.391 . S
C515 C516 1.399 . S
C516 C515 1.399 . S
C516 C517 1.396 . S
C516 C519 1.453 . S
C516 C520 1.684 . S
C517 C507 1.723 . S
C517 C516 1.396 . S
C517 C518 1.394 . S
C518 C488 1.723 . S
C518 C514 1.397 . S
C518 C517 1.394 . S
C519 H491 0.982 . S
C519 H495 0.979 . S
C519 H496 0.977 . S
C519 C516 1.453 . S
C520 H492 0.979 . S
C520 H493 0.980 . S
C520 H494 0.983 . S
C520 C516 1.684 . S
H521 C539 0.948 . S
H522 C480 0.948 . S
H523 C498 0.979 . S
H524 C498 0.980 . S
H525 C498 0.983 . S
H526 C497 0.982 . S
H527 C497 0.979 . S
H528 C497 0.977 . S
H529 C499 0.948 . S
H530 C501 0.947 . S
H531 C502 0.948 . S
H532 C508 0.982 . S
H533 C508 0.979 . S
H534 C508 0.977 . S
H535 C509 0.979 . S
H536 C509 0.980 . S
H537 C509 0.983 . S
H538 C482 0.947 . S
C539 C482 1.392 . S
C539 C483 1.419 . S
C539 H521 0.948 . S
C540 C541 1.391 . S
C540 C544 1.391 . S
C540 H582 0.948 . S
C541 C540 1.391 . S
C541 C542 1.391 . S
C542 C541 1.391 . S
C542 H598 0.947 . S
C542 C599 1.392 . S
C543 C544 1.391 . S
C543 C547 1.397 . S
C543 C599 1.419 . S
C544 C540 1.391 . S
C544 C543 1.391 . S
C544 C545 1.399 . S
C545 C544 1.399 . S
C545 C548 1.396 . S
C545 C557 1.453 . S
C545 C558 1.684 . S
H546 C570 0.948 . S
C547 C543 1.397 . S
C547 C548 1.394 . S
C547 C566 1.723 . S
C548 C545 1.396 . S
C548 C547 1.394 . S
C548 C578 1.723 . S
H549 C572 0.947 . S
H550 C573 0.948 . S
H551 C579 0.982 . S
H552 C580 0.979 . S
H553 C580 0.980 . S
H554 C580 0.983 . S
H555 C579 0.979 . S
H556 C579 0.977 . S
C557 C545 1.453 . S
C557 H586 0.982 . S
C557 H587 0.979 . S
C557 H588 0.977 . S
C558 C545 1.684 . S
C558 H583 0.979 . S
C558 H584 0.980 . S
C558 H585 0.983 . S
C559 C560 1.391 1_565 S
C559 C564 1.391 . S
C559 H589 0.948 . S
C560 C559 1.391 1_545 S
C560 C561 1.391 . S
C561 C560 1.391 . S
C561 C562 1.392 . S
C561 H590 0.947 . S
C562 C561 1.392 . S
C562 C563 1.419 1_545 S
C562 H591 0.948 . S
C563 C562 1.419 1_565 S
C563 C564 1.391 . S
C563 C567 1.397 . S
C564 C559 1.391 . S
C564 C563 1.391 . S
C564 C565 1.399 . S
C565 C564 1.399 . S
C565 C566 1.396 . S
C565 C568 1.453 . S
C565 C569 1.684 . S
C566 C547 1.723 . S
C566 C565 1.396 . S
C566 C567 1.394 . S
C567 C563 1.397 . S
C567 C566 1.394 . S
C567 C577 1.723 . S
C568 C565 1.453 . S
C568 H592 0.982 . S
C568 H593 0.979 . S
C568 H594 0.977 . S
C569 C565 1.684 . S
C569 H595 0.979 . S
C569 H596 0.980 . S
C569 H597 0.983 . S
C570 H546 0.948 . S
C570 C571 1.391 . S
C570 C575 1.391 . S
C571 C570 1.391 . S
C571 C572 1.391 . S
C572 H549 0.947 . S
C572 C571 1.391 . S
C572 C573 1.392 . S
C573 H550 0.948 . S
C573 C572 1.392 . S
C573 C574 1.419 . S
C574 C573 1.419 . S
C574 C575 1.391 . S
C574 C578 1.397 . S
C575 C570 1.391 . S
C575 C574 1.391 . S
C575 C576 1.399 . S
C576 C575 1.399 . S
C576 C577 1.396 . S
C576 C579 1.453 . S
C576 C580 1.684 1_565 S
C577 C567 1.723 . S
C577 C576 1.396 . S
C577 C578 1.394 . S
C578 C548 1.723 . S
C578 C574 1.397 . S
C578 C577 1.394 . S
C579 H551 0.982 . S
C579 H555 0.979 . S
C579 H556 0.977 . S
C579 C576 1.453 . S
C580 H552 0.979 . S
C580 H553 0.980 . S
C580 H554 0.983 . S
C580 C576 1.684 1_545 S
H581 C599 0.948 . S
H582 C540 0.948 . S
H583 C558 0.979 . S
H584 C558 0.980 . S
H585 C558 0.983 . S
H586 C557 0.982 . S
H587 C557 0.979 . S
H588 C557 0.977 . S
H589 C559 0.948 . S
H590 C561 0.947 . S
H591 C562 0.948 . S
H592 C568 0.982 . S
H593 C568 0.979 . S
H594 C568 0.977 . S
H595 C569 0.979 . S
H596 C569 0.980 . S
H597 C569 0.983 . S
H598 C542 0.947 . S
C599 C542 1.392 . S
C599 C543 1.419 . S
C599 H581 0.948 . S
C600 C601 1.391 . S
C600 C604 1.391 . S
C600 H642 0.948 . S
C601 C600 1.391 . S
C601 C602 1.391 . S
C602 C601 1.391 . S
C602 H658 0.947 . S
C602 C659 1.392 . S
C603 C604 1.391 . S
C603 C607 1.397 . S
C603 C659 1.419 . S
C604 C600 1.391 . S
C604 C603 1.391 . S
C604 C605 1.399 . S
C605 C604 1.399 . S
C605 C608 1.396 . S
C605 C617 1.453 . S
C605 C618 1.684 . S
H606 C630 0.948 . S
C607 C603 1.397 . S
C607 C608 1.394 . S
C607 C626 1.723 . S
C608 C605 1.396 . S
C608 C607 1.394 . S
C608 C638 1.723 . S
H609 C632 0.947 . S
H610 C633 0.948 . S
H611 C639 0.982 . S
H612 C640 0.979 . S
H613 C640 0.980 . S
H614 C640 0.983 . S
H615 C639 0.979 . S
H616 C639 0.977 . S
C617 C605 1.453 . S
C617 H646 0.982 . S
C617 H647 0.979 . S
C617 H648 0.977 . S
C618 C605 1.684 . S
C618 H643 0.979 . S
C618 H644 0.980 . S
C618 H645 0.983 . S
C619 C620 1.391 . S
C619 C624 1.391 . S
C619 H649 0.948 . S
C620 C619 1.391 . S
C620 C621 1.391 . S
C621 C620 1.391 . S
C621 C622 1.392 . S
C621 H650 0.947 . S
C622 C621 1.392 . S
C622 C623 1.419 . S
C622 H651 0.948 . S
C623 C622 1.419 . S
C623 C624 1.391 . S
C623 C627 1.397 . S
C624 C619 1.391 . S
C624 C623 1.391 . S
C624 C625 1.399 . S
C625 C624 1.399 . S
C625 C626 1.396 . S
C625 C628 1.453 . S
C625 C629 1.684 . S
C626 C607 1.723 . S
C626 C625 1.396 . S
C626 C627 1.394 . S
C627 C623 1.397 . S
C627 C626 1.394 . S
C627 C637 1.723 . S
C628 C625 1.453 . S
C628 H652 0.982 . S
C628 H653 0.979 . S
C628 H654 0.977 . S
C629 C625 1.684 . S
C629 H655 0.979 . S
C629 H656 0.980 . S
C629 H657 0.983 . S
C630 H606 0.948 . S
C630 C631 1.391 . S
C630 C635 1.391 . S
C631 C630 1.391 . S
C631 C632 1.391 . S
C632 H609 0.947 . S
C632 C631 1.391 . S
C632 C633 1.392 . S
C633 H610 0.948 . S
C633 C632 1.392 . S
C633 C634 1.419 . S
C634 C633 1.419 . S
C634 C635 1.391 . S
C634 C638 1.397 . S
C635 C630 1.391 . S
C635 C634 1.391 . S
C635 C636 1.399 . S
C636 C635 1.399 . S
C636 C637 1.396 . S
C636 C639 1.453 . S
C636 C640 1.684 . S
C637 C627 1.723 . S
C637 C636 1.396 . S
C637 C638 1.394 . S
C638 C608 1.723 . S
C638 C634 1.397 . S
C638 C637 1.394 . S
C639 H611 0.982 . S
C639 H615 0.979 . S
C639 H616 0.977 . S
C639 C636 1.453 . S
C640 H612 0.979 . S
C640 H613 0.980 . S
C640 H614 0.983 . S
C640 C636 1.684 . S
H641 C659 0.948 . S
H642 C600 0.948 . S
H643 C618 0.979 . S
H644 C618 0.980 . S
H645 C618 0.983 . S
H646 C617 0.982 . S
H647 C617 0.979 . S
H648 C617 0.977 . S
H649 C619 0.948 . S
H650 C621 0.947 . S
H651 C622 0.948 . S
H652 C628 0.982 . S
H653 C628 0.979 . S
H654 C628 0.977 . S
H655 C629 0.979 . S
H656 C629 0.980 . S
H657 C629 0.983 . S
H658 C602 0.947 . S
C659 C602 1.392 . S
C659 C603 1.419 . S
C659 H641 0.948 . S
C660 C661 1.391 . S
C660 C664 1.391 . S
C660 H702 0.948 . S
C661 C660 1.391 . S
C661 C662 1.391 . S
C662 C661 1.391 . S
C662 H718 0.947 . S
C662 C719 1.392 . S
C663 C664 1.391 . S
C663 C667 1.397 . S
C663 C719 1.419 . S
C664 C660 1.391 . S
C664 C663 1.391 . S
C664 C665 1.399 . S
C665 C664 1.399 . S
C665 C668 1.396 . S
C665 C677 1.453 . S
C665 C678 1.684 . S
H666 C690 0.948 . S
C667 C663 1.397 . S
C667 C668 1.394 . S
C667 C686 1.723 . S
C668 C665 1.396 . S
C668 C667 1.394 . S
C668 C698 1.723 . S
H669 C692 0.947 . S
H670 C693 0.948 . S
H671 C699 0.982 . S
H672 C700 0.979 . S
H673 C700 0.980 . S
H674 C700 0.983 . S
H675 C699 0.979 . S
H676 C699 0.977 . S
C677 C665 1.453 . S
C677 H706 0.982 . S
C677 H707 0.979 . S
C677 H708 0.977 . S
C678 C665 1.684 . S
C678 H703 0.979 . S
C678 H704 0.980 . S
C678 H705 0.983 . S
C679 C680 1.391 . S
C679 C684 1.391 . S
C679 H709 0.948 . S
C680 C679 1.391 . S
C680 C681 1.391 . S
C681 C680 1.391 . S
C681 C682 1.392 . S
C681 H710 0.947 . S
C682 C681 1.392 . S
C682 C683 1.419 . S
C682 H711 0.948 . S
C683 C682 1.419 . S
C683 C684 1.391 . S
C683 C687 1.397 . S
C684 C679 1.391 . S
C684 C683 1.391 . S
C684 C685 1.399 . S
C685 C684 1.399 . S
C685 C686 1.396 . S
C685 C688 1.453 . S
C685 C689 1.684 . S
C686 C667 1.723 . S
C686 C685 1.396 . S
C686 C687 1.394 . S
C687 C683 1.397 . S
C687 C686 1.394 . S
C687 C697 1.723 . S
C688 C685 1.453 . S
C688 H712 0.982 . S
C688 H713 0.979 . S
C688 H714 0.977 . S
C689 C685 1.684 . S
C689 H715 0.979 . S
C689 H716 0.980 . S
C689 H717 0.983 . S
C690 H666 0.948 . S
C690 C691 1.391 . S
C690 C695 1.391 . S
C691 C690 1.391 . S
C691 C692 1.391 . S
C692 H669 0.947 . S
C692 C691 1.391 . S
C692 C693 1.392 . S
C693 H670 0.948 . S
C693 C692 1.392 . S
C693 C694 1.419 . S
C694 C693 1.419 . S
C694 C695 1.391 . S
C694 C698 1.397 . S
C695 C690 1.391 . S
C695 C694 1.391 . S
C695 C696 1.399 . S
C696 C695 1.399 . S
C696 C697 1.396 . S
C696 C699 1.453 . S
C696 C700 1.684 . S
C697 C687 1.723 . S
C697 C696 1.396 . S
C697 C698 1.394 . S
C698 C668 1.723 . S
C698 C694 1.397 . S
C698 C697 1.394 . S
C699 H671 0.982 . S
C699 H675 0.979 . S
C699 H676 0.977 . S
C699 C696 1.453 . S
C700 H672 0.979 . S
C700 H673 0.980 . S
C700 H674 0.983 . S
C700 C696 1.684 . S
H701 C719 0.948 . S
H702 C660 0.948 . S
H703 C678 0.979 . S
H704 C678 0.980 . S
H705 C678 0.983 . S
H706 C677 0.982 . S
H707 C677 0.979 . S
H708 C677 0.977 . S
H709 C679 0.948 . S
H710 C681 0.947 . S
H711 C682 0.948 . S
H712 C688 0.982 . S
H713 C688 0.979 . S
H714 C688 0.977 . S
H715 C689 0.979 . S
H716 C689 0.980 . S
H717 C689 0.983 . S
H718 C662 0.947 . S
C719 C662 1.392 . S
C719 C663 1.419 . S
C719 H701 0.948 . S
C720 C721 1.391 . S
C720 C724 1.391 . S
C720 H762 0.948 . S
C721 C720 1.391 . S
C721 C722 1.391 . S
C722 C721 1.391 . S
C722 H778 0.947 . S
C722 C779 1.392 . S
C723 C724 1.391 . S
C723 C727 1.397 . S
C723 C779 1.419 . S
C724 C720 1.391 . S
C724 C723 1.391 . S
C724 C725 1.399 . S
C725 C724 1.399 . S
C725 C728 1.396 . S
C725 C737 1.453 . S
C725 C738 1.684 . S
H726 C750 0.948 . S
C727 C723 1.397 . S
C727 C728 1.394 . S
C727 C746 1.723 . S
C728 C725 1.396 . S
C728 C727 1.394 . S
C728 C758 1.723 . S
H729 C752 0.947 . S
H730 C753 0.948 . S
H731 C759 0.982 . S
H732 C760 0.979 . S
H733 C760 0.980 . S
H734 C760 0.983 . S
H735 C759 0.979 . S
H736 C759 0.977 . S
C737 C725 1.453 . S
C737 H766 0.982 . S
C737 H767 0.979 . S
C737 H768 0.977 . S
C738 C725 1.684 . S
C738 H763 0.979 . S
C738 H764 0.980 . S
C738 H765 0.983 . S
C739 C740 1.391 . S
C739 C744 1.391 . S
C739 H769 0.948 . S
C740 C739 1.391 . S
C740 C741 1.391 . S
C741 C740 1.391 . S
C741 C742 1.392 . S
C741 H770 0.947 . S
C742 C741 1.392 . S
C742 C743 1.419 . S
C742 H771 0.948 . S
C743 C742 1.419 . S
C743 C744 1.391 . S
C743 C747 1.397 . S
C744 C739 1.391 . S
C744 C743 1.391 . S
C744 C745 1.399 . S
C745 C744 1.399 . S
C745 C746 1.396 . S
C745 C748 1.453 . S
C745 C749 1.684 . S
C746 C727 1.723 . S
C746 C745 1.396 . S
C746 C747 1.394 . S
C747 C743 1.397 . S
C747 C746 1.394 . S
C747 C757 1.723 . S
C748 C745 1.453 . S
C748 H772 0.982 . S
C748 H773 0.979 . S
C748 H774 0.977 . S
C749 C745 1.684 . S
C749 H775 0.979 . S
C749 H776 0.980 . S
C749 H777 0.983 . S
C750 H726 0.948 . S
C750 C751 1.391 . S
C750 C755 1.391 . S
C751 C750 1.391 . S
C751 C752 1.391 . S
C752 H729 0.947 . S
C752 C751 1.391 . S
C752 C753 1.392 . S
C753 H730 0.948 . S
C753 C752 1.392 . S
C753 C754 1.419 . S
C754 C753 1.419 . S
C754 C755 1.391 . S
C754 C758 1.397 . S
C755 C750 1.391 . S
C755 C754 1.391 . S
C755 C756 1.399 . S
C756 C755 1.399 . S
C756 C757 1.396 . S
C756 C759 1.453 . S
C756 C760 1.684 . S
C757 C747 1.723 . S
C757 C756 1.396 . S
C757 C758 1.394 . S
C758 C728 1.723 . S
C758 C754 1.397 . S
C758 C757 1.394 . S
C759 H731 0.982 . S
C759 H735 0.979 . S
C759 H736 0.977 . S
C759 C756 1.453 . S
C760 H732 0.979 . S
C760 H733 0.980 . S
C760 H734 0.983 . S
C760 C756 1.684 . S
H761 C779 0.948 . S
H762 C720 0.948 . S
H763 C738 0.979 . S
H764 C738 0.980 . S
H765 C738 0.983 . S
H766 C737 0.982 . S
H767 C737 0.979 . S
H768 C737 0.977 . S
H769 C739 0.948 . S
H770 C741 0.947 . S
H771 C742 0.948 . S
H772 C748 0.982 . S
H773 C748 0.979 . S
H774 C748 0.977 . S
H775 C749 0.979 . S
H776 C749 0.980 . S
H777 C749 0.983 . S
H778 C722 0.947 . S
C779 C722 1.392 . S
C779 C723 1.419 . S
C779 H761 0.948 . S
C780 C781 1.391 . S
C780 C784 1.391 1_554 S
C780 H822 0.948 . S
C781 C780 1.391 . S
C781 C782 1.391 1_554 S
C782 C781 1.391 1_556 S
C782 H838 0.947 . S
C782 C839 1.392 . S
C783 C784 1.391 . S
C783 C787 1.397 . S
C783 C839 1.419 . S
C784 C780 1.391 1_556 S
C784 C783 1.391 . S
C784 C785 1.399 . S
C785 C784 1.399 . S
C785 C788 1.396 . S
C785 C797 1.453 1_556 S
C785 C798 1.684 . S
H786 C810 0.948 . S
C787 C783 1.397 . S
C787 C788 1.394 . S
C787 C806 1.723 . S
C788 C785 1.396 . S
C788 C787 1.394 . S
C788 C818 1.723 . S
H789 C812 0.947 . S
H790 C813 0.948 . S
H791 C819 0.982 . S
H792 C820 0.979 . S
H793 C820 0.980 . S
H794 C820 0.983 . S
H795 C819 0.979 . S
H796 C819 0.977 . S
C797 C785 1.453 1_554 S
C797 H826 0.982 . S
C797 H827 0.979 . S
C797 H828 0.977 . S
C798 C785 1.684 . S
C798 H823 0.979 . S
C798 H824 0.980 . S
C798 H825 0.983 1_556 S
C799 C800 1.391 . S
C799 C804 1.391 . S
C799 H829 0.948 . S
C800 C799 1.391 . S
C800 C801 1.391 . S
C801 C800 1.391 . S
C801 C802 1.392 . S
C801 H830 0.947 . S
C802 C801 1.392 . S
C802 C803 1.419 . S
C802 H831 0.948 . S
C803 C802 1.419 . S
C803 C804 1.391 . S
C803 C807 1.397 . S
C804 C799 1.391 . S
C804 C803 1.391 . S
C804 C805 1.399 . S
C805 C804 1.399 . S
C805 C806 1.396 . S
C805 C808 1.453 . S
C805 C809 1.684 . S
C806 C787 1.723 . S
C806 C805 1.396 . S
C806 C807 1.394 . S
C807 C803 1.397 . S
C807 C806 1.394 . S
C807 C817 1.723 . S
C808 C805 1.453 . S
C808 H832 0.982 . S
C808 H833 0.979 . S
C808 H834 0.977 . S
C809 C805 1.684 . S
C809 H835 0.979 . S
C809 H836 0.980 . S
C809 H837 0.983 . S
C810 H786 0.948 . S
C810 C811 1.391 . S
C810 C815 1.391 . S
C811 C810 1.391 . S
C811 C812 1.391 . S
C812 H789 0.947 . S
C812 C811 1.391 . S
C812 C813 1.392 . S
C813 H790 0.948 . S
C813 C812 1.392 . S
C813 C814 1.419 . S
C814 C813 1.419 . S
C814 C815 1.391 . S
C814 C818 1.397 . S
C815 C810 1.391 . S
C815 C814 1.391 . S
C815 C816 1.399 . S
C816 C815 1.399 . S
C816 C817 1.396 . S
C816 C819 1.453 . S
C816 C820 1.684 . S
C817 C807 1.723 . S
C817 C816 1.396 . S
C817 C818 1.394 . S
C818 C788 1.723 . S
C818 C814 1.397 . S
C818 C817 1.394 . S
C819 H791 0.982 . S
C819 H795 0.979 . S
C819 H796 0.977 . S
C819 C816 1.453 . S
C820 H792 0.979 . S
C820 H793 0.980 . S
C820 H794 0.983 . S
C820 C816 1.684 . S
H821 C839 0.948 . S
H822 C780 0.948 . S
H823 C798 0.979 . S
H824 C798 0.980 . S
H825 C798 0.983 1_554 S
H826 C797 0.982 . S
H827 C797 0.979 . S
H828 C797 0.977 . S
H829 C799 0.948 . S
H830 C801 0.947 . S
H831 C802 0.948 . S
H832 C808 0.982 . S
H833 C808 0.979 . S
H834 C808 0.977 . S
H835 C809 0.979 . S
H836 C809 0.980 . S
H837 C809 0.983 . S
H838 C782 0.947 . S
C839 C782 1.392 . S
C839 C783 1.419 . S
C839 H821 0.948 . S
C840 C841 1.391 . S
C840 C844 1.391 . S
C840 H882 0.948 . S
C841 C840 1.391 . S
C841 C842 1.391 . S
C842 C841 1.391 . S
C842 H898 0.947 . S
C842 C899 1.392 . S
C843 C844 1.391 . S
C843 C847 1.397 . S
C843 C899 1.419 . S
C844 C840 1.391 . S
C844 C843 1.391 . S
C844 C845 1.399 . S
C845 C844 1.399 . S
C845 C848 1.396 . S
C845 C857 1.453 . S
C845 C858 1.684 . S
H846 C870 0.948 . S
C847 C843 1.397 . S
C847 C848 1.394 . S
C847 C866 1.723 . S
C848 C845 1.396 . S
C848 C847 1.394 . S
C848 C878 1.723 . S
H849 C872 0.947 . S
H850 C873 0.948 . S
H851 C879 0.982 . S
H852 C880 0.979 . S
H853 C880 0.980 . S
H854 C880 0.983 . S
H855 C879 0.979 . S
H856 C879 0.977 . S
C857 C845 1.453 . S
C857 H886 0.982 . S
C857 H887 0.979 . S
C857 H888 0.977 . S
C858 C845 1.684 . S
C858 H883 0.979 . S
C858 H884 0.980 . S
C858 H885 0.983 . S
C859 C860 1.391 . S
C859 C864 1.391 . S
C859 H889 0.948 . S
C860 C859 1.391 . S
C860 C861 1.391 . S
C861 C860 1.391 . S
C861 C862 1.392 . S
C861 H890 0.947 . S
C862 C861 1.392 . S
C862 C863 1.419 . S
C862 H891 0.948 . S
C863 C862 1.419 . S
C863 C864 1.391 . S
C863 C867 1.397 . S
C864 C859 1.391 . S
C864 C863 1.391 . S
C864 C865 1.399 . S
C865 C864 1.399 . S
C865 C866 1.396 . S
C865 C868 1.453 . S
C865 C869 1.684 . S
C866 C847 1.723 . S
C866 C865 1.396 . S
C866 C867 1.394 . S
C867 C863 1.397 . S
C867 C866 1.394 . S
C867 C877 1.723 . S
C868 C865 1.453 . S
C868 H892 0.982 . S
C868 H893 0.979 . S
C868 H894 0.977 . S
C869 C865 1.684 . S
C869 H895 0.979 . S
C869 H896 0.980 . S
C869 H897 0.983 . S
C870 H846 0.948 . S
C870 C871 1.391 . S
C870 C875 1.391 . S
C871 C870 1.391 . S
C871 C872 1.391 . S
C872 H849 0.947 . S
C872 C871 1.391 . S
C872 C873 1.392 . S
C873 H850 0.948 . S
C873 C872 1.392 . S
C873 C874 1.419 . S
C874 C873 1.419 . S
C874 C875 1.391 . S
C874 C878 1.397 . S
C875 C870 1.391 . S
C875 C874 1.391 . S
C875 C876 1.399 . S
C876 C875 1.399 . S
C876 C877 1.396 . S
C876 C879 1.453 . S
C876 C880 1.684 . S
C877 C867 1.723 . S
C877 C876 1.396 . S
C877 C878 1.394 . S
C878 C848 1.723 . S
C878 C874 1.397 . S
C878 C877 1.394 . S
C879 H851 0.982 . S
C879 H855 0.979 . S
C879 H856 0.977 . S
C879 C876 1.453 . S
C880 H852 0.979 . S
C880 H853 0.980 . S
C880 H854 0.983 . S
C880 C876 1.684 . S
H881 C899 0.948 . S
H882 C840 0.948 . S
H883 C858 0.979 . S
H884 C858 0.980 . S
H885 C858 0.983 . S
H886 C857 0.982 . S
H887 C857 0.979 . S
H888 C857 0.977 . S
H889 C859 0.948 . S
H890 C861 0.947 . S
H891 C862 0.948 . S
H892 C868 0.982 . S
H893 C868 0.979 . S
H894 C868 0.977 . S
H895 C869 0.979 . S
H896 C869 0.980 . S
H897 C869 0.983 . S
H898 C842 0.947 . S
C899 C842 1.392 . S
C899 C843 1.419 . S
C899 H881 0.948 . S
C900 C901 1.360 1_545 S
C900 C904 1.413 . S
C900 H942 0.959 . S
C901 C900 1.360 1_565 S
C901 C902 1.391 . S
C902 C901 1.391 . S
C902 H958 0.947 . S
C902 C959 1.392 . S
C903 C904 1.391 . S
C903 C907 1.397 . S
C903 C959 1.419 1_545 S
C904 C900 1.413 . S
C904 C903 1.391 . S
C904 C905 1.399 . S
C905 C904 1.399 . S
C905 C908 1.396 . S
C905 C917 1.453 . S
C905 C918 1.684 1_556 S
H906 C930 0.936 1_556 S
C907 C903 1.397 . S
C907 C908 1.394 . S
C907 C926 1.723 . S
C908 C905 1.396 . S
C908 C907 1.394 . S
C908 C938 1.723 . S
H909 C932 0.947 . S
H910 C933 0.948 . S
H911 C939 0.982 . S
H912 C940 0.979 . S
H913 C940 0.980 . S
H914 C940 0.983 . S
H915 C939 0.979 . S
H916 C939 0.977 . S
C917 C905 1.453 . S
C917 H946 0.982 . S
C917 H947 0.993 . S
C917 H948 0.977 . S
C918 C905 1.684 1_554 S
C918 H943 0.979 . S
C918 H944 0.980 . S
C918 H945 0.983 . S
C919 C920 1.391 . S
C919 C924 1.391 . S
C919 H949 0.948 . S
C920 C919 1.391 . S
C920 C921 1.391 . S
C921 C920 1.391 . S
C921 C922 1.392 . S
C921 H950 0.947 . S
C922 C921 1.392 . S
C922 C923 1.419 . S
C922 H951 0.948 . S
C923 C922 1.419 . S
C923 C924 1.391 . S
C923 C927 1.397 . S
C924 C919 1.391 . S
C924 C923 1.391 . S
C924 C925 1.399 . S
C925 C924 1.399 . S
C925 C926 1.396 . S
C925 C928 1.453 . S
C925 C929 1.684 1_545 S
C926 C907 1.723 . S
C926 C925 1.396 . S
C926 C927 1.394 . S
C927 C923 1.397 . S
C927 C926 1.394 . S
C927 C937 1.723 . S
C928 C925 1.453 . S
C928 H952 0.982 . S
C928 H953 0.945 1_545 S
C928 H954 1.006 . S
C929 C925 1.684 1_565 S
C929 H955 0.979 . S
C929 H956 0.980 . S
C929 H957 0.983 . S
C930 H906 0.936 1_554 S
C930 C931 1.391 . S
C930 C935 1.391 1_554 S
C931 C930 1.391 . S
C931 C932 1.391 . S
C932 H909 0.947 . S
C932 C931 1.391 . S
C932 C933 1.392 . S
C933 H910 0.948 . S
C933 C932 1.392 . S
C933 C934 1.419 1_554 S
C934 C933 1.419 1_556 S
C934 C935 1.391 . S
C934 C938 1.397 . S
C935 C930 1.391 1_556 S
C935 C934 1.391 . S
C935 C936 1.399 . S
C936 C935 1.399 . S
C936 C937 1.396 . S
C936 C939 1.453 . S
C936 C940 1.684 . S
C937 C927 1.723 . S
C937 C936 1.396 . S
C937 C938 1.394 . S
C938 C908 1.723 . S
C938 C934 1.397 . S
C938 C937 1.394 . S
C939 H911 0.982 . S
C939 H915 0.979 . S
C939 H916 0.977 . S
C939 C936 1.453 . S
C940 H912 0.979 . S
C940 H913 0.980 . S
C940 H914 0.983 . S
C940 C936 1.684 . S
H941 C959 0.948 . S
H942 C900 0.959 . S
H943 C918 0.979 . S
H944 C918 0.980 . S
H945 C918 0.983 . S
H946 C917 0.982 . S
H947 C917 0.993 . S
H948 C917 0.977 . S
H949 C919 0.948 . S
H950 C921 0.947 . S
H951 C922 0.948 . S
H952 C928 0.982 . S
H953 C928 0.945 1_565 S
H954 C928 1.006 . S
H955 C929 0.979 . S
H956 C929 0.980 . S
H957 C929 0.983 . S
H958 C902 0.947 . S
C959 C902 1.392 . S
C959 C903 1.419 1_565 S
C959 H941 0.948 . S
Mg960 O961 2.035 . S
Mg960 O967 1.986 1_554 S
Mg960 O969 2.114 . S
Mg960 O970 2.251 . S
Mg960 O973 2.010 . S
O961 Mg960 2.035 . S
O961 C964 1.244 1_554 S
O962 Mg963 2.028 . S
O962 C964 1.248 . S
Mg963 O962 2.028 . S
Mg963 O968 2.032 . S
Mg963 O970 2.079 1_556 S
C964 O961 1.244 1_556 S
C964 O962 1.248 . S
C965 O966 1.264 . S
C965 O973 1.249 . S
O966 C965 1.264 . S
O967 Mg960 1.986 1_556 S
O967 C971 1.246 . S
O968 Mg963 2.032 . S
O968 C971 1.259 . S
O969 Mg960 2.114 . S
O969 C972 1.252 . S
O970 Mg960 2.251 . S
O970 Mg963 2.079 1_554 S
O970 C972 1.273 . S
C971 O967 1.246 . S
C971 O968 1.259 . S
C972 O969 1.252 . S
C972 O970 1.273 . S
O973 Mg960 2.010 . S
O973 C965 1.249 . S
Mg974 O975 2.028 . S
Mg974 O981 1.986 . S
Mg974 O983 2.114 . S
Mg974 O984 2.251 . S
Mg974 O987 2.010 . S
O975 Mg974 2.028 . S
O975 C978 1.250 . S
O976 Mg977 2.028 . S
O976 C978 1.248 . S
Mg977 O976 2.028 . S
Mg977 O982 2.032 . S
Mg977 O984 2.079 . S
C978 O975 1.250 . S
C978 O976 1.248 . S
C979 O980 1.264 . S
C979 O987 1.249 . S
O980 C979 1.264 . S
O981 Mg974 1.986 . S
O981 C985 1.246 . S
O982 Mg977 2.032 . S
O982 C985 1.259 . S
O983 Mg974 2.114 . S
O983 C986 1.252 . S
O984 Mg974 2.251 . S
O984 Mg977 2.079 . S
O984 C986 1.273 . S
C985 O981 1.246 . S
C985 O982 1.259 . S
C986 O983 1.252 . S
C986 O984 1.273 . S
O987 Mg974 2.010 . S
O987 C979 1.249 . S
Mg988 O989 2.028 . S
Mg988 O995 1.986 1_554 S
Mg988 O997 2.114 . S
Mg988 O998 2.251 . S
Mg988 O1001 2.010 . S
O989 Mg988 2.028 . S
O989 C992 1.250 . S
O990 Mg991 2.030 . S
O990 C992 1.245 1_556 S
Mg991 O990 2.030 . S
Mg991 O996 2.032 . S
Mg991 O998 2.079 1_556 S
C992 O989 1.250 . S
C992 O990 1.245 1_554 S
C993 O994 1.264 . S
C993 O1001 1.249 . S
O994 C993 1.264 . S
O995 Mg988 1.986 1_556 S
O995 C999 1.246 . S
O996 Mg991 2.032 . S
O996 C999 1.259 . S
O997 Mg988 2.114 . S
O997 C1000 1.252 . S
O998 Mg988 2.251 . S
O998 Mg991 2.079 1_554 S
O998 C1000 1.273 . S
C999 O995 1.246 . S
C999 O996 1.259 . S
C1000 O997 1.252 . S
C1000 O998 1.273 . S
O1001 Mg988 2.010 . S
O1001 C993 1.249 . S
Mg1002 O1003 2.028 . S
Mg1002 O1009 1.986 . S
Mg1002 O1011 2.114 . S
Mg1002 O1012 2.251 . S
Mg1002 O1015 2.010 . S
O1003 Mg1002 2.028 . S
O1003 C1006 1.250 1_545 S
O1004 Mg1005 2.028 . S
O1004 C1006 1.248 . S
Mg1005 O1004 2.028 . S
Mg1005 O1010 2.032 . S
Mg1005 O1012 2.079 1_565 S
C1006 O1003 1.250 1_565 S
C1006 O1004 1.248 . S
C1007 O1008 1.264 . S
C1007 O1015 1.249 . S
O1008 C1007 1.264 . S
O1009 Mg1002 1.986 . S
O1009 C1013 1.246 . S
O1010 Mg1005 2.032 . S
O1010 C1013 1.259 1_565 S
O1011 Mg1002 2.114 . S
O1011 C1014 1.252 . S
O1012 Mg1002 2.251 . S
O1012 Mg1005 2.079 1_545 S
O1012 C1014 1.273 . S
C1013 O1009 1.246 . S
C1013 O1010 1.259 1_545 S
C1014 O1011 1.252 . S
C1014 O1012 1.273 . S
O1015 Mg1002 2.010 . S
O1015 C1007 1.249 . S
Mg1016 O1017 2.028 . S
Mg1016 O1023 1.986 . S
Mg1016 O1025 2.114 . S
Mg1016 O1026 2.251 . S
Mg1016 O1029 2.010 . S
O1017 Mg1016 2.028 . S
O1017 C1020 1.250 . S
O1018 Mg1019 2.028 . S
O1018 C1020 1.248 . S
Mg1019 O1018 2.028 . S
Mg1019 O1024 2.032 . S
Mg1019 O1026 2.079 . S
C1020 O1017 1.250 . S
C1020 O1018 1.248 . S
C1021 O1022 1.264 . S
C1021 O1029 1.249 . S
O1022 C1021 1.264 . S
O1023 Mg1016 1.986 . S
O1023 C1027 1.246 . S
O1024 Mg1019 2.032 . S
O1024 C1027 1.259 . S
O1025 Mg1016 2.114 . S
O1025 C1028 1.252 . S
O1026 Mg1016 2.251 . S
O1026 Mg1019 2.079 . S
O1026 C1028 1.273 . S
C1027 O1023 1.246 . S
C1027 O1024 1.259 . S
C1028 O1025 1.252 . S
C1028 O1026 1.273 . S
O1029 Mg1016 2.010 . S
O1029 C1021 1.249 . S
Mg1030 O1031 2.028 . S
Mg1030 O1037 1.986 . S
Mg1030 O1039 2.114 . S
Mg1030 O1040 2.251 . S
Mg1030 O1043 2.010 . S
O1031 Mg1030 2.028 . S
O1031 C1034 1.250 . S
O1032 Mg1033 2.028 . S
O1032 C1034 1.248 . S
Mg1033 O1032 2.028 . S
Mg1033 O1038 2.032 . S
Mg1033 O1040 2.079 . S
C1034 O1031 1.250 . S
C1034 O1032 1.248 . S
C1035 O1036 1.264 . S
C1035 O1043 1.249 . S
O1036 C1035 1.264 . S
O1037 Mg1030 1.986 . S
O1037 C1041 1.246 . S
O1038 Mg1033 2.032 . S
O1038 C1041 1.259 . S
O1039 Mg1030 2.114 . S
O1039 C1042 1.252 . S
O1040 Mg1030 2.251 . S
O1040 Mg1033 2.079 . S
O1040 C1042 1.273 . S
C1041 O1037 1.246 . S
C1041 O1038 1.259 . S
C1042 O1039 1.252 . S
C1042 O1040 1.273 . S
O1043 Mg1030 2.010 . S
O1043 C1035 1.249 . S
Mg1044 O1045 2.028 . S
Mg1044 O1051 1.986 . S
Mg1044 O1053 2.114 . S
Mg1044 O1054 2.251 . S
Mg1044 O1057 2.010 . S
O1045 Mg1044 2.028 . S
O1045 C1048 1.250 . S
O1046 Mg1047 2.028 . S
O1046 C1048 1.248 . S
Mg1047 O1046 2.028 . S
Mg1047 O1052 2.032 . S
Mg1047 O1054 2.079 . S
C1048 O1045 1.250 . S
C1048 O1046 1.248 . S
C1049 O1050 1.264 . S
C1049 O1057 1.249 . S
O1050 C1049 1.264 . S
O1051 Mg1044 1.986 . S
O1051 C1055 1.246 . S
O1052 Mg1047 2.032 . S
O1052 C1055 1.259 . S
O1053 Mg1044 2.114 . S
O1053 C1056 1.252 . S
O1054 Mg1044 2.251 . S
O1054 Mg1047 2.079 . S
O1054 C1056 1.273 . S
C1055 O1051 1.246 . S
C1055 O1052 1.259 . S
C1056 O1053 1.252 . S
C1056 O1054 1.273 . S
O1057 Mg1044 2.010 . S
O1057 C1049 1.249 . S
Mg1058 O1059 2.028 1_545 S
Mg1058 O1065 1.986 1_545 S
Mg1058 O1067 2.114 . S
Mg1058 O1068 2.251 . S
Mg1058 O1071 2.010 . S
O1059 Mg1058 2.028 1_565 S
O1059 C1062 1.250 . S
O1060 Mg1061 2.028 . S
O1060 C1062 1.248 . S
Mg1061 O1060 2.028 . S
Mg1061 O1066 2.032 . S
Mg1061 O1068 2.079 1_565 S
C1062 O1059 1.250 . S
C1062 O1060 1.248 . S
C1063 O1064 1.264 . S
C1063 O1071 1.249 . S
O1064 C1063 1.264 . S
O1065 Mg1058 1.986 1_565 S
O1065 C1069 1.246 . S
O1066 Mg1061 2.032 . S
O1066 C1069 1.259 . S
O1067 Mg1058 2.114 . S
O1067 C1070 1.252 . S
O1068 Mg1058 2.251 . S
O1068 Mg1061 2.079 1_545 S
O1068 C1070 1.273 . S
C1069 O1065 1.246 . S
C1069 O1066 1.259 . S
C1070 O1067 1.252 . S
C1070 O1068 1.273 . S
O1071 Mg1058 2.010 . S
O1071 C1063 1.249 . S
Mg1072 O1073 2.028 . S
Mg1072 O1079 1.986 . S
Mg1072 O1081 2.114 . S
Mg1072 O1082 2.251 . S
Mg1072 O1085 2.010 . S
O1073 Mg1072 2.028 . S
O1073 C1076 1.250 1_455 S
O1074 Mg1075 2.028 . S
O1074 C1076 1.248 . S
Mg1075 O1074 2.028 . S
Mg1075 O1080 2.032 . S
Mg1075 O1082 2.079 1_655 S
C1076 O1073 1.250 1_655 S
C1076 O1074 1.248 . S
C1077 O1078 1.264 . S
C1077 O1085 1.249 . S
O1078 C1077 1.264 . S
O1079 Mg1072 1.986 . S
O1079 C1083 1.246 . S
O1080 Mg1075 2.032 . S
O1080 C1083 1.259 1_655 S
O1081 Mg1072 2.114 . S
O1081 C1084 1.252 . S
O1082 Mg1072 2.251 . S
O1082 Mg1075 2.079 1_455 S
O1082 C1084 1.273 . S
C1083 O1079 1.246 . S
C1083 O1080 1.259 1_455 S
C1084 O1081 1.252 . S
C1084 O1082 1.273 . S
O1085 Mg1072 2.010 . S
O1085 C1077 1.249 . S
Mg1086 O1087 2.028 . S
Mg1086 O1093 1.986 . S
Mg1086 O1095 2.114 . S
Mg1086 O1096 2.251 . S
Mg1086 O1099 2.010 . S
O1087 Mg1086 2.028 . S
O1087 C1090 1.250 . S
O1088 Mg1089 2.028 . S
O1088 C1090 1.248 . S
Mg1089 O1088 2.028 . S
Mg1089 O1094 2.032 . S
Mg1089 O1096 2.079 . S
C1090 O1087 1.250 . S
C1090 O1088 1.248 . S
C1091 O1092 1.264 . S
C1091 O1099 1.249 . S
O1092 C1091 1.264 . S
O1093 Mg1086 1.986 . S
O1093 C1097 1.246 . S
O1094 Mg1089 2.032 . S
O1094 C1097 1.259 . S
O1095 Mg1086 2.114 . S
O1095 C1098 1.252 . S
O1096 Mg1086 2.251 . S
O1096 Mg1089 2.079 . S
O1096 C1098 1.273 . S
C1097 O1093 1.246 . S
C1097 O1094 1.259 . S
C1098 O1095 1.252 . S
C1098 O1096 1.273 . S
O1099 Mg1086 2.010 . S
O1099 C1091 1.249 . S
Mg1100 O1101 2.028 1_655 S
Mg1100 O1107 2.001 . S
Mg1100 O1109 2.114 . S
Mg1100 O1110 2.251 1_655 S
Mg1100 O1113 2.010 . S
O1101 Mg1100 2.028 1_455 S
O1101 C1104 1.250 . S
O1102 Mg1103 2.028 . S
O1102 C1104 1.248 . S
Mg1103 O1102 2.028 . S
Mg1103 O1108 2.032 . S
Mg1103 O1110 2.079 . S
C1104 O1101 1.250 . S
C1104 O1102 1.248 . S
C1105 O1106 1.264 . S
C1105 O1113 1.249 . S
O1106 C1105 1.264 . S
O1107 Mg1100 2.001 . S
O1107 C1111 1.207 1_655 S
O1108 Mg1103 2.032 . S
O1108 C1111 1.259 . S
O1109 Mg1100 2.114 . S
O1109 C1112 1.252 . S
O1110 Mg1100 2.251 1_455 S
O1110 Mg1103 2.079 . S
O1110 C1112 1.273 1_455 S
C1111 O1107 1.207 1_455 S
C1111 O1108 1.259 . S
C1112 O1109 1.252 . S
C1112 O1110 1.273 1_655 S
O1113 Mg1100 2.010 . S
O1113 C1105 1.249 . S
Mg1114 O1115 2.028 . S
Mg1114 O1121 1.986 . S
Mg1114 O1123 2.114 . S
Mg1114 O1124 2.251 . S
Mg1114 O1127 2.010 . S
O1115 Mg1114 2.028 . S
O1115 C1118 1.250 . S
O1116 Mg1117 2.028 . S
O1116 C1118 1.248 . S
Mg1117 O1116 2.028 . S
Mg1117 O1122 2.032 . S
Mg1117 O1124 2.079 . S
C1118 O1115 1.250 . S
C1118 O1116 1.248 . S
C1119 O1120 1.264 . S
C1119 O1127 1.249 . S
O1120 C1119 1.264 . S
O1121 Mg1114 1.986 . S
O1121 C1125 1.246 . S
O1122 Mg1117 2.032 . S
O1122 C1125 1.259 . S
O1123 Mg1114 2.114 . S
O1123 C1126 1.252 . S
O1124 Mg1114 2.251 . S
O1124 Mg1117 2.079 . S
O1124 C1126 1.273 . S
C1125 O1121 1.246 . S
C1125 O1122 1.259 . S
C1126 O1123 1.252 . S
C1126 O1124 1.273 . S
O1127 Mg1114 2.010 . S
O1127 C1119 1.249 . S
C1128 C1129 1.349 . S
C1128 C1130 1.327 . S
C1128 H1153 0.950 . S
C1129 C1128 1.349 . S
C1129 C1145 1.349 . S
C1130 C1128 1.327 . S
C1130 C1149 1.429 . S
C1130 H1154 0.950 . S
C1131 C1148 1.574 . S
C1131 C1150 1.368 . S
C1131 H1155 0.949 . S
H1132 C1136 0.949 . S
C1133 C1134 1.349 . S
C1133 C1135 1.327 . S
C1133 H1156 0.950 . S
C1134 C1133 1.349 . S
C1134 C1146 1.349 . S
C1135 C1133 1.327 . S
C1135 C1151 1.429 . S
C1135 H1157 0.950 . S
C1136 H1132 0.949 . S
C1136 C1144 1.574 . S
C1136 C1152 1.368 . S
H1137 C1145 0.950 . S
H1138 C1143 0.950 . S
H1139 C1144 0.949 . S
H1140 C1146 0.950 . S
H1141 C1147 0.950 . S
H1142 C1148 0.949 . S
C1143 H1138 0.950 . S
C1143 C1145 1.327 . S
C1143 C1149 1.429 . S
C1144 C1136 1.574 . S
C1144 H1139 0.949 . S
C1144 C1150 1.368 . S
C1145 C1129 1.349 . S
C1145 H1137 0.950 . S
C1145 C1143 1.327 . S
C1146 C1134 1.349 . S
C1146 H1140 0.950 . S
C1146 C1147 1.327 . S
C1147 H1141 0.950 . S
C1147 C1146 1.327 . S
C1147 C1151 1.429 . S
C1148 C1131 1.574 . S
C1148 H1142 0.949 . S
C1148 C1152 1.368 . S
C1149 C1130 1.429 . S
C1149 C1143 1.429 . S
C1149 C1150 1.523 . S
C1150 C1131 1.368 . S
C1150 C1144 1.368 . S
C1150 C1149 1.523 . S
C1151 C1135 1.429 . S
C1151 C1147 1.429 . S
C1151 C1152 1.523 . S
C1152 C1136 1.368 . S
C1152 C1148 1.368 . S
C1152 C1151 1.523 . S
H1153 C1128 0.950 . S
H1154 C1130 0.950 . S
H1155 C1131 0.949 . S
H1156 C1133 0.950 . S
H1157 C1135 0.950 . S
C1158 C1159 1.349 . S
C1158 C1160 1.327 . S
C1158 H1183 0.950 . S
C1159 C1158 1.349 . S
C1159 C1175 1.349 . S
C1160 C1158 1.327 . S
C1160 C1179 1.429 . S
C1160 H1184 0.950 . S
C1161 C1178 1.574 . S
C1161 C1180 1.368 . S
C1161 H1185 0.949 . S
H1162 C1166 0.949 . S
C1163 C1164 1.349 . S
C1163 C1165 1.327 . S
C1163 H1186 0.950 . S
C1164 C1163 1.349 . S
C1164 C1176 1.349 . S
C1165 C1163 1.327 . S
C1165 C1181 1.429 . S
C1165 H1187 0.950 . S
C1166 H1162 0.949 . S
C1166 C1174 1.574 . S
C1166 C1182 1.368 . S
H1167 C1175 0.950 . S
H1168 C1173 0.950 . S
H1169 C1174 0.949 . S
H1170 C1176 0.950 . S
H1171 C1177 0.950 . S
H1172 C1178 0.949 . S
C1173 H1168 0.950 . S
C1173 C1175 1.327 . S
C1173 C1179 1.429 . S
C1174 C1166 1.574 . S
C1174 H1169 0.949 . S
C1174 C1180 1.368 . S
C1175 C1159 1.349 . S
C1175 H1167 0.950 . S
C1175 C1173 1.327 . S
C1176 C1164 1.349 . S
C1176 H1170 0.950 . S
C1176 C1177 1.327 . S
C1177 H1171 0.950 . S
C1177 C1176 1.327 . S
C1177 C1181 1.429 . S
C1178 C1161 1.574 . S
C1178 H1172 0.949 . S
C1178 C1182 1.368 . S
C1179 C1160 1.429 . S
C1179 C1173 1.429 . S
C1179 C1180 1.523 . S
C1180 C1161 1.368 . S
C1180 C1174 1.368 . S
C1180 C1179 1.523 . S
C1181 C1165 1.429 . S
C1181 C1177 1.429 . S
C1181 C1182 1.523 . S
C1182 C1166 1.368 . S
C1182 C1178 1.368 . S
C1182 C1181 1.523 . S
H1183 C1158 0.950 . S
H1184 C1160 0.950 . S
H1185 C1161 0.949 . S
H1186 C1163 0.950 . S
H1187 C1165 0.950 . S
C1188 C1189 1.349 . S
C1188 C1190 1.327 . S
C1188 H1213 0.950 . S
C1189 C1188 1.349 . S
C1189 C1205 1.349 . S
C1190 C1188 1.327 . S
C1190 C1209 1.429 . S
C1190 H1214 0.950 . S
C1191 C1208 1.574 . S
C1191 C1210 1.368 . S
C1191 H1215 0.949 . S
H1192 C1196 0.949 . S
C1193 C1194 1.349 . S
C1193 C1195 1.327 . S
C1193 H1216 0.950 . S
C1194 C1193 1.349 . S
C1194 C1206 1.349 . S
C1195 C1193 1.327 . S
C1195 C1211 1.429 . S
C1195 H1217 0.950 . S
C1196 H1192 0.949 . S
C1196 C1204 1.574 . S
C1196 C1212 1.368 . S
H1197 C1205 0.950 . S
H1198 C1203 0.950 . S
H1199 C1204 0.949 . S
H1200 C1206 0.950 . S
H1201 C1207 0.950 . S
H1202 C1208 0.949 . S
C1203 H1198 0.950 . S
C1203 C1205 1.327 . S
C1203 C1209 1.429 . S
C1204 C1196 1.574 . S
C1204 H1199 0.949 . S
C1204 C1210 1.368 . S
C1205 C1189 1.349 . S
C1205 H1197 0.950 . S
C1205 C1203 1.327 . S
C1206 C1194 1.349 . S
C1206 H1200 0.950 . S
C1206 C1207 1.327 . S
C1207 H1201 0.950 . S
C1207 C1206 1.327 . S
C1207 C1211 1.429 . S
C1208 C1191 1.574 . S
C1208 H1202 0.949 . S
C1208 C1212 1.368 . S
C1209 C1190 1.429 . S
C1209 C1203 1.429 . S
C1209 C1210 1.523 . S
C1210 C1191 1.368 . S
C1210 C1204 1.368 . S
C1210 C1209 1.523 . S
C1211 C1195 1.429 . S
C1211 C1207 1.429 . S
C1211 C1212 1.523 . S
C1212 C1196 1.368 . S
C1212 C1208 1.368 . S
C1212 C1211 1.523 . S
H1213 C1188 0.950 . S
H1214 C1190 0.950 . S
H1215 C1191 0.949 . S
H1216 C1193 0.950 . S
H1217 C1195 0.950 . S
C1218 C1219 1.384 1_455 S
C1218 C1220 1.319 1_465 S
C1218 H1243 0.924 1_565 S
C1219 C1218 1.384 1_655 S
C1219 C1235 1.349 . S
C1220 C1218 1.319 1_645 S
C1220 C1239 1.429 1_545 S
C1220 H1244 0.950 . S
C1221 C1238 1.574 . S
C1221 C1240 1.368 . S
C1221 H1245 0.949 . S
H1222 C1226 0.949 . S
C1223 C1224 1.349 1_565 S
C1223 C1225 1.327 . S
C1223 H1246 0.950 . S
C1224 C1223 1.349 1_545 S
C1224 C1236 1.349 . S
C1225 C1223 1.327 . S
C1225 C1241 1.429 1_565 S
C1225 H1247 0.950 . S
C1226 H1222 0.949 . S
C1226 C1234 1.574 . S
C1226 C1242 1.332 1_545 S
H1227 C1235 0.950 . S
H1228 C1233 0.950 . S
H1229 C1234 0.949 . S
H1230 C1236 0.950 . S
H1231 C1237 0.950 . S
H1232 C1238 0.949 . S
C1233 H1228 0.950 . S
C1233 C1235 1.327 . S
C1233 C1239 1.429 . S
C1234 C1226 1.574 . S
C1234 H1229 0.949 . S
C1234 C1240 1.368 1_545 S
C1235 C1219 1.349 . S
C1235 H1227 0.950 . S
C1235 C1233 1.327 . S
C1236 C1224 1.349 . S
C1236 H1230 0.950 . S
C1236 C1237 1.327 . S
C1237 H1231 0.950 . S
C1237 C1236 1.327 . S
C1237 C1241 1.429 . S
C1238 C1221 1.574 . S
C1238 H1232 0.949 . S
C1238 C1242 1.413 . S
C1239 C1220 1.429 1_565 S
C1239 C1233 1.429 . S
C1239 C1240 1.523 . S
C1240 C1221 1.368 . S
C1240 C1234 1.368 1_565 S
C1240 C1239 1.523 . S
C1241 C1225 1.429 1_545 S
C1241 C1237 1.429 . S
C1241 C1242 1.514 1_545 S
C1242 C1226 1.332 1_565 S
C1242 C1238 1.413 . S
C1242 C1241 1.514 1_565 S
H1243 C1218 0.924 1_545 S
H1244 C1220 0.950 . S
H1245 C1221 0.949 . S
H1246 C1223 0.950 . S
H1247 C1225 0.950 . S
C1248 C1249 1.349 . S
C1248 C1250 1.327 . S
C1248 H1273 0.950 . S
C1249 C1248 1.349 . S
C1249 C1265 1.349 . S
C1250 C1248 1.327 . S
C1250 C1269 1.429 . S
C1250 H1274 0.950 . S
C1251 C1268 1.574 . S
C1251 C1270 1.368 . S
C1251 H1275 0.949 . S
H1252 C1256 0.949 . S
C1253 C1254 1.349 . S
C1253 C1255 1.327 . S
C1253 H1276 0.950 . S
C1254 C1253 1.349 . S
C1254 C1266 1.349 . S
C1255 C1253 1.327 . S
C1255 C1271 1.429 . S
C1255 H1277 0.950 . S
C1256 H1252 0.949 . S
C1256 C1264 1.574 . S
C1256 C1272 1.368 . S
H1257 C1265 0.950 . S
H1258 C1263 0.950 . S
H1259 C1264 0.949 . S
H1260 C1266 0.950 . S
H1261 C1267 0.950 . S
H1262 C1268 0.949 . S
C1263 H1258 0.950 . S
C1263 C1265 1.327 . S
C1263 C1269 1.429 . S
C1264 C1256 1.574 . S
C1264 H1259 0.949 . S
C1264 C1270 1.368 . S
C1265 C1249 1.349 . S
C1265 H1257 0.950 . S
C1265 C1263 1.327 . S
C1266 C1254 1.349 . S
C1266 H1260 0.950 . S
C1266 C1267 1.327 . S
C1267 H1261 0.950 . S
C1267 C1266 1.327 . S
C1267 C1271 1.429 . S
C1268 C1251 1.574 . S
C1268 H1262 0.949 . S
C1268 C1272 1.368 . S
C1269 C1250 1.429 . S
C1269 C1263 1.429 . S
C1269 C1270 1.523 . S
C1270 C1251 1.368 . S
C1270 C1264 1.368 . S
C1270 C1269 1.523 . S
C1271 C1255 1.429 . S
C1271 C1267 1.429 . S
C1271 C1272 1.523 . S
C1272 C1256 1.368 . S
C1272 C1268 1.368 . S
C1272 C1271 1.523 . S
H1273 C1248 0.950 . S
H1274 C1250 0.950 . S
H1275 C1251 0.949 . S
H1276 C1253 0.950 . S
H1277 C1255 0.950 . S
C1278 C1279 1.349 . S
C1278 C1280 1.327 . S
C1278 H1303 0.950 . S
C1279 C1278 1.349 . S
C1279 C1295 1.349 . S
C1280 C1278 1.327 . S
C1280 C1299 1.429 . S
C1280 H1304 0.950 . S
C1281 C1298 1.574 . S
C1281 C1300 1.368 . S
C1281 H1305 0.949 . S
H1282 C1286 0.949 . S
C1283 C1284 1.349 . S
C1283 C1285 1.327 . S
C1283 H1306 0.950 . S
C1284 C1283 1.349 . S
C1284 C1296 1.349 . S
C1285 C1283 1.327 . S
C1285 C1301 1.429 . S
C1285 H1307 0.950 . S
C1286 H1282 0.949 . S
C1286 C1294 1.574 . S
C1286 C1302 1.368 . S
H1287 C1295 0.950 . S
H1288 C1293 0.950 . S
H1289 C1294 0.949 . S
H1290 C1296 0.950 . S
H1291 C1297 0.950 . S
H1292 C1298 0.949 . S
C1293 H1288 0.950 . S
C1293 C1295 1.327 . S
C1293 C1299 1.429 . S
C1294 C1286 1.574 . S
C1294 H1289 0.949 . S
C1294 C1300 1.368 . S
C1295 C1279 1.349 . S
C1295 H1287 0.950 . S
C1295 C1293 1.327 . S
C1296 C1284 1.349 . S
C1296 H1290 0.950 . S
C1296 C1297 1.327 . S
C1297 H1291 0.950 . S
C1297 C1296 1.327 . S
C1297 C1301 1.429 . S
C1298 C1281 1.574 . S
C1298 H1292 0.949 . S
C1298 C1302 1.368 . S
C1299 C1280 1.429 . S
C1299 C1293 1.429 . S
C1299 C1300 1.523 . S
C1300 C1281 1.368 . S
C1300 C1294 1.368 . S
C1300 C1299 1.523 . S
C1301 C1285 1.429 . S
C1301 C1297 1.429 . S
C1301 C1302 1.523 . S
C1302 C1286 1.368 . S
C1302 C1298 1.368 . S
C1302 C1301 1.523 . S
H1303 C1278 0.950 . S
H1304 C1280 0.950 . S
H1305 C1281 0.949 . S
H1306 C1283 0.950 . S
H1307 C1285 0.950 . S
C1308 C1309 1.349 . S
C1308 C1310 1.327 . S
C1308 H1333 0.950 . S
C1309 C1308 1.349 . S
C1309 C1325 1.349 . S
C1310 C1308 1.327 . S
C1310 C1329 1.429 . S
C1310 H1334 0.950 . S
C1311 C1328 1.574 . S
C1311 C1330 1.368 . S
C1311 H1335 0.949 . S
H1312 C1316 0.949 . S
C1313 C1314 1.349 . S
C1313 C1315 1.327 . S
C1313 H1336 0.950 . S
C1314 C1313 1.349 . S
C1314 C1326 1.349 . S
C1315 C1313 1.327 . S
C1315 C1331 1.429 . S
C1315 H1337 0.950 . S
C1316 H1312 0.949 . S
C1316 C1324 1.574 . S
C1316 C1332 1.368 . S
H1317 C1325 0.950 . S
H1318 C1323 0.950 . S
H1319 C1324 0.949 . S
H1320 C1326 0.950 . S
H1321 C1327 0.950 . S
H1322 C1328 0.949 . S
C1323 H1318 0.950 . S
C1323 C1325 1.327 . S
C1323 C1329 1.429 . S
C1324 C1316 1.574 . S
C1324 H1319 0.949 . S
C1324 C1330 1.368 . S
C1325 C1309 1.349 . S
C1325 H1317 0.950 . S
C1325 C1323 1.327 . S
C1326 C1314 1.349 . S
C1326 H1320 0.950 . S
C1326 C1327 1.327 . S
C1327 H1321 0.950 . S
C1327 C1326 1.327 . S
C1327 C1331 1.429 . S
C1328 C1311 1.574 . S
C1328 H1322 0.949 . S
C1328 C1332 1.368 . S
C1329 C1310 1.429 . S
C1329 C1323 1.429 . S
C1329 C1330 1.523 . S
C1330 C1311 1.368 . S
C1330 C1324 1.368 . S
C1330 C1329 1.523 . S
C1331 C1315 1.429 . S
C1331 C1327 1.429 . S
C1331 C1332 1.523 . S
C1332 C1316 1.368 . S
C1332 C1328 1.368 . S
C1332 C1331 1.523 . S
H1333 C1308 0.950 . S
H1334 C1310 0.950 . S
H1335 C1311 0.949 . S
H1336 C1313 0.950 . S
H1337 C1315 0.950 . S
C1338 C1339 1.349 . S
C1338 C1340 1.327 . S
C1338 H1363 0.950 . S
C1339 C1338 1.349 . S
C1339 C1355 1.349 . S
C1340 C1338 1.327 . S
C1340 C1359 1.429 . S
C1340 H1364 0.950 . S
C1341 C1358 1.568 1_565 S
C1341 C1360 1.433 . S
C1341 H1365 0.899 1_565 S
H1342 C1346 0.949 . S
C1343 C1344 1.349 1_545 S
C1343 C1345 1.327 . S
C1343 H1366 0.950 . S
C1344 C1343 1.349 1_565 S
C1344 C1356 1.349 . S
C1345 C1343 1.327 . S
C1345 C1361 1.429 1_545 S
C1345 H1367 0.950 . S
C1346 H1342 0.949 . S
C1346 C1354 1.574 . S
C1346 C1362 1.368 . S
H1347 C1355 0.956 1_545 S
H1348 C1353 0.950 1_545 S
H1349 C1354 0.949 . S
H1350 C1356 0.950 . S
H1351 C1357 0.950 . S
H1352 C1358 0.949 . S
C1353 H1348 0.950 1_565 S
C1353 C1355 1.327 . S
C1353 C1359 1.429 . S
C1354 C1346 1.574 . S
C1354 H1349 0.949 . S
C1354 C1360 1.368 . S
C1355 C1339 1.349 . S
C1355 H1347 0.956 1_565 S
C1355 C1353 1.327 . S
C1356 C1344 1.349 . S
C1356 H1350 0.950 . S
C1356 C1357 1.327 . S
C1357 H1351 0.950 . S
C1357 C1356 1.327 . S
C1357 C1361 1.429 . S
C1358 C1341 1.568 1_545 S
C1358 H1352 0.949 . S
C1358 C1362 1.368 1_545 S
C1359 C1340 1.429 . S
C1359 C1353 1.429 . S
C1359 C1360 1.523 . S
C1360 C1341 1.433 . S
C1360 C1354 1.368 . S
C1360 C1359 1.523 . S
C1361 C1345 1.429 1_565 S
C1361 C1357 1.429 . S
C1361 C1362 1.523 . S
C1362 C1346 1.368 . S
C1362 C1358 1.368 1_565 S
C1362 C1361 1.523 . S
H1363 C1338 0.950 . S
H1364 C1340 0.950 . S
H1365 C1341 0.899 1_545 S
H1366 C1343 0.950 . S
H1367 C1345 0.950 . S
C1368 C1369 1.349 . S
C1368 C1370 1.327 . S
C1368 H1393 0.950 . S
C1369 C1368 1.349 . S
C1369 C1385 1.349 . S
C1370 C1368 1.327 . S
C1370 C1389 1.429 . S
C1370 H1394 0.950 . S
C1371 C1388 1.574 . S
C1371 C1390 1.368 . S
C1371 H1395 0.949 . S
H1372 C1376 0.949 . S
C1373 C1374 1.349 . S
C1373 C1375 1.327 . S
C1373 H1396 0.950 . S
C1374 C1373 1.349 . S
C1374 C1386 1.349 . S
C1375 C1373 1.327 . S
C1375 C1391 1.429 . S
C1375 H1397 0.950 . S
C1376 H1372 0.949 . S
C1376 C1384 1.574 . S
C1376 C1392 1.368 . S
H1377 C1385 0.950 . S
H1378 C1383 0.950 . S
H1379 C1384 0.949 . S
H1380 C1386 0.950 . S
H1381 C1387 0.950 . S
H1382 C1388 0.949 . S
C1383 H1378 0.950 . S
C1383 C1385 1.327 . S
C1383 C1389 1.429 . S
C1384 C1376 1.574 . S
C1384 H1379 0.949 . S
C1384 C1390 1.368 . S
C1385 C1369 1.349 . S
C1385 H1377 0.950 . S
C1385 C1383 1.327 . S
C1386 C1374 1.349 . S
C1386 H1380 0.950 . S
C1386 C1387 1.327 . S
C1387 H1381 0.950 . S
C1387 C1386 1.327 . S
C1387 C1391 1.429 . S
C1388 C1371 1.574 . S
C1388 H1382 0.949 . S
C1388 C1392 1.368 . S
C1389 C1370 1.429 . S
C1389 C1383 1.429 . S
C1389 C1390 1.523 . S
C1390 C1371 1.368 . S
C1390 C1384 1.368 . S
C1390 C1389 1.523 . S
C1391 C1375 1.429 . S
C1391 C1387 1.429 . S
C1391 C1392 1.523 . S
C1392 C1376 1.368 . S
C1392 C1388 1.368 . S
C1392 C1391 1.523 . S
H1393 C1368 0.950 . S
H1394 C1370 0.950 . S
H1395 C1371 0.949 . S
H1396 C1373 0.950 . S
H1397 C1375 0.950 . S
C1398 C1399 1.349 . S
C1398 C1400 1.327 . S
C1398 H1423 0.950 . S
C1399 C1398 1.349 . S
C1399 C1415 1.349 . S
C1400 C1398 1.327 . S
C1400 C1419 1.429 . S
C1400 H1424 0.950 . S
C1401 C1418 1.574 . S
C1401 C1420 1.368 . S
C1401 H1425 0.949 . S
H1402 C1406 0.949 . S
C1403 C1404 1.349 . S
C1403 C1405 1.327 . S
C1403 H1426 0.950 . S
C1404 C1403 1.349 . S
C1404 C1416 1.349 . S
C1405 C1403 1.327 . S
C1405 C1421 1.429 . S
C1405 H1427 0.950 . S
C1406 H1402 0.949 . S
C1406 C1414 1.574 . S
C1406 C1422 1.368 . S
H1407 C1415 0.950 . S
H1408 C1413 0.950 . S
H1409 C1414 0.949 . S
H1410 C1416 0.950 . S
H1411 C1417 0.950 . S
H1412 C1418 0.949 . S
C1413 H1408 0.950 . S
C1413 C1415 1.327 . S
C1413 C1419 1.429 . S
C1414 C1406 1.574 . S
C1414 H1409 0.949 . S
C1414 C1420 1.368 . S
C1415 C1399 1.349 . S
C1415 H1407 0.950 . S
C1415 C1413 1.327 . S
C1416 C1404 1.349 . S
C1416 H1410 0.950 . S
C1416 C1417 1.327 . S
C1417 H1411 0.950 . S
C1417 C1416 1.327 . S
C1417 C1421 1.429 . S
C1418 C1401 1.574 . S
C1418 H1412 0.949 . S
C1418 C1422 1.368 . S
C1419 C1400 1.429 . S
C1419 C1413 1.429 . S
C1419 C1420 1.523 . S
C1420 C1401 1.368 . S
C1420 C1414 1.368 . S
C1420 C1419 1.523 . S
C1421 C1405 1.429 . S
C1421 C1417 1.429 . S
C1421 C1422 1.523 . S
C1422 C1406 1.368 . S
C1422 C1418 1.368 . S
C1422 C1421 1.523 . S
H1423 C1398 0.950 . S
H1424 C1400 0.950 . S
H1425 C1401 0.949 . S
H1426 C1403 0.950 . S
H1427 C1405 0.950 . S
C1428 C1429 1.349 . S
C1428 C1430 1.327 . S
C1428 H1453 0.950 . S
C1429 C1428 1.349 . S
C1429 C1445 1.349 . S
C1430 C1428 1.327 . S
C1430 C1449 1.429 . S
C1430 H1454 0.950 . S
C1431 C1448 1.574 . S
C1431 C1450 1.368 . S
C1431 H1455 0.949 . S
H1432 C1436 0.949 . S
C1433 C1434 1.349 . S
C1433 C1435 1.327 . S
C1433 H1456 0.950 . S
C1434 C1433 1.349 . S
C1434 C1446 1.349 . S
C1435 C1433 1.327 . S
C1435 C1451 1.429 . S
C1435 H1457 0.950 . S
C1436 H1432 0.949 . S
C1436 C1444 1.574 . S
C1436 C1452 1.368 . S
H1437 C1445 0.950 . S
H1438 C1443 0.950 . S
H1439 C1444 0.949 . S
H1440 C1446 0.950 . S
H1441 C1447 0.950 . S
H1442 C1448 0.949 . S
C1443 H1438 0.950 . S
C1443 C1445 1.327 . S
C1443 C1449 1.429 . S
C1444 C1436 1.574 . S
C1444 H1439 0.949 . S
C1444 C1450 1.368 . S
C1445 C1429 1.349 . S
C1445 H1437 0.950 . S
C1445 C1443 1.327 . S
C1446 C1434 1.349 . S
C1446 H1440 0.950 . S
C1446 C1447 1.327 . S
C1447 H1441 0.950 . S
C1447 C1446 1.327 . S
C1447 C1451 1.429 . S
C1448 C1431 1.574 . S
C1448 H1442 0.949 . S
C1448 C1452 1.368 . S
C1449 C1430 1.429 . S
C1449 C1443 1.429 . S
C1449 C1450 1.523 . S
C1450 C1431 1.368 . S
C1450 C1444 1.368 . S
C1450 C1449 1.523 . S
C1451 C1435 1.429 . S
C1451 C1447 1.429 . S
C1451 C1452 1.523 . S
C1452 C1436 1.368 . S
C1452 C1448 1.368 . S
C1452 C1451 1.523 . S
H1453 C1428 0.950 . S
H1454 C1430 0.950 . S
H1455 C1431 0.949 . S
H1456 C1433 0.950 . S
H1457 C1435 0.950 . S
C1458 C1459 1.349 . S
C1458 C1460 1.327 . S
C1458 H1483 0.950 . S
C1459 C1458 1.349 . S
C1459 C1475 1.349 . S
C1460 C1458 1.327 . S
C1460 C1479 1.429 . S
C1460 H1484 0.950 . S
C1461 C1478 1.574 . S
C1461 C1480 1.368 . S
C1461 H1485 0.949 . S
H1462 C1466 0.949 . S
C1463 C1464 1.349 . S
C1463 C1465 1.327 . S
C1463 H1486 0.950 . S
C1464 C1463 1.349 . S
C1464 C1476 1.349 . S
C1465 C1463 1.327 . S
C1465 C1481 1.429 . S
C1465 H1487 0.950 . S
C1466 H1462 0.949 . S
C1466 C1474 1.574 . S
C1466 C1482 1.368 . S
H1467 C1475 0.950 . S
H1468 C1473 0.950 . S
H1469 C1474 0.949 . S
H1470 C1476 0.950 . S
H1471 C1477 0.950 . S
H1472 C1478 0.949 . S
C1473 H1468 0.950 . S
C1473 C1475 1.327 . S
C1473 C1479 1.429 . S
C1474 C1466 1.574 . S
C1474 H1469 0.949 . S
C1474 C1480 1.368 . S
C1475 C1459 1.349 . S
C1475 H1467 0.950 . S
C1475 C1473 1.327 . S
C1476 C1464 1.349 . S
C1476 H1470 0.950 . S
C1476 C1477 1.327 . S
C1477 H1471 0.950 . S
C1477 C1476 1.327 . S
C1477 C1481 1.429 . S
C1478 C1461 1.574 . S
C1478 H1472 0.949 . S
C1478 C1482 1.368 . S
C1479 C1460 1.429 . S
C1479 C1473 1.429 . S
C1479 C1480 1.523 . S
C1480 C1461 1.368 . S
C1480 C1474 1.368 . S
C1480 C1479 1.523 . S
C1481 C1465 1.429 . S
C1481 C1477 1.429 . S
C1481 C1482 1.523 . S
C1482 C1466 1.368 . S
C1482 C1478 1.368 . S
C1482 C1481 1.523 . S
H1483 C1458 0.950 . S
H1484 C1460 0.950 . S
H1485 C1461 0.949 . S
H1486 C1463 0.950 . S
H1487 C1465 0.950 . S
C1488 C1489 1.349 . S
C1488 C1490 1.327 . S
C1488 H1513 0.950 . S
C1489 C1488 1.349 . S
C1489 C1505 1.349 . S
C1490 C1488 1.327 . S
C1490 C1509 1.429 . S
C1490 H1514 0.950 . S
C1491 C1508 1.574 . S
C1491 C1510 1.368 . S
C1491 H1515 0.949 . S
H1492 C1496 0.949 . S
C1493 C1494 1.349 . S
C1493 C1495 1.327 . S
C1493 H1516 0.950 . S
C1494 C1493 1.349 . S
C1494 C1506 1.349 . S
C1495 C1493 1.327 . S
C1495 C1511 1.429 . S
C1495 H1517 0.950 . S
C1496 H1492 0.949 . S
C1496 C1504 1.574 . S
C1496 C1512 1.368 . S
H1497 C1505 0.950 . S
H1498 C1503 0.950 . S
H1499 C1504 0.949 . S
H1500 C1506 0.950 . S
H1501 C1507 0.950 . S
H1502 C1508 0.949 . S
C1503 H1498 0.950 . S
C1503 C1505 1.327 . S
C1503 C1509 1.429 . S
C1504 C1496 1.574 . S
C1504 H1499 0.949 . S
C1504 C1510 1.368 . S
C1505 C1489 1.349 . S
C1505 H1497 0.950 . S
C1505 C1503 1.327 . S
C1506 C1494 1.349 . S
C1506 H1500 0.950 . S
C1506 C1507 1.327 . S
C1507 H1501 0.950 . S
C1507 C1506 1.327 . S
C1507 C1511 1.429 . S
C1508 C1491 1.574 . S
C1508 H1502 0.949 . S
C1508 C1512 1.368 . S
C1509 C1490 1.429 . S
C1509 C1503 1.429 . S
C1509 C1510 1.523 . S
C1510 C1491 1.368 . S
C1510 C1504 1.368 . S
C1510 C1509 1.523 . S
C1511 C1495 1.429 . S
C1511 C1507 1.429 . S
C1511 C1512 1.523 . S
C1512 C1496 1.368 . S
C1512 C1508 1.368 . S
C1512 C1511 1.523 . S
H1513 C1488 0.950 . S
H1514 C1490 0.950 . S
H1515 C1491 0.949 . S
H1516 C1493 0.950 . S
H1517 C1495 0.950 . S
C1518 C1519 1.349 . S
C1518 C1520 1.327 . S
C1518 H1543 0.950 . S
C1519 C1518 1.349 . S
C1519 C1535 1.349 . S
C1520 C1518 1.327 . S
C1520 C1539 1.429 . S
C1520 H1544 0.950 . S
C1521 C1538 1.574 . S
C1521 C1540 1.368 . S
C1521 H1545 0.949 . S
H1522 C1526 0.949 . S
C1523 C1524 1.349 . S
C1523 C1525 1.327 . S
C1523 H1546 0.950 . S
C1524 C1523 1.349 . S
C1524 C1536 1.349 . S
C1525 C1523 1.327 . S
C1525 C1541 1.429 . S
C1525 H1547 0.950 . S
C1526 H1522 0.949 . S
C1526 C1534 1.574 . S
C1526 C1542 1.368 . S
H1527 C1535 0.950 . S
H1528 C1533 0.950 . S
H1529 C1534 0.949 . S
H1530 C1536 0.950 . S
H1531 C1537 0.950 . S
H1532 C1538 0.949 . S
C1533 H1528 0.950 . S
C1533 C1535 1.327 . S
C1533 C1539 1.429 . S
C1534 C1526 1.574 . S
C1534 H1529 0.949 . S
C1534 C1540 1.368 . S
C1535 C1519 1.349 . S
C1535 H1527 0.950 . S
C1535 C1533 1.327 . S
C1536 C1524 1.349 . S
C1536 H1530 0.950 . S
C1536 C1537 1.327 . S
C1537 H1531 0.950 . S
C1537 C1536 1.327 . S
C1537 C1541 1.429 . S
C1538 C1521 1.574 . S
C1538 H1532 0.949 . S
C1538 C1542 1.368 . S
C1539 C1520 1.429 . S
C1539 C1533 1.429 . S
C1539 C1540 1.523 . S
C1540 C1521 1.368 . S
C1540 C1534 1.368 . S
C1540 C1539 1.523 . S
C1541 C1525 1.429 . S
C1541 C1537 1.429 . S
C1541 C1542 1.523 . S
C1542 C1526 1.368 . S
C1542 C1538 1.368 . S
C1542 C1541 1.523 . S
H1543 C1518 0.950 . S
H1544 C1520 0.950 . S
H1545 C1521 0.949 . S
H1546 C1523 0.950 . S
H1547 C1525 0.950 . S
C1548 C1549 1.349 . S
C1548 C1550 1.327 . S
C1548 H1573 0.950 . S
C1549 C1548 1.349 . S
C1549 C1565 1.349 . S
C1550 C1548 1.327 . S
C1550 C1569 1.429 . S
C1550 H1574 0.950 . S
C1551 C1568 1.574 . S
C1551 C1570 1.368 . S
C1551 H1575 0.949 . S
H1552 C1556 0.949 . S
C1553 C1554 1.349 . S
C1553 C1555 1.327 . S
C1553 H1576 0.950 . S
C1554 C1553 1.349 . S
C1554 C1566 1.349 . S
C1555 C1553 1.327 . S
C1555 C1571 1.429 . S
C1555 H1577 0.950 . S
C1556 H1552 0.949 . S
C1556 C1564 1.574 . S
C1556 C1572 1.368 . S
H1557 C1565 0.950 . S
H1558 C1563 0.950 . S
H1559 C1564 0.949 . S
H1560 C1566 0.950 . S
H1561 C1567 0.950 . S
H1562 C1568 0.949 . S
C1563 H1558 0.950 . S
C1563 C1565 1.327 . S
C1563 C1569 1.429 . S
C1564 C1556 1.574 . S
C1564 H1559 0.949 . S
C1564 C1570 1.368 . S
C1565 C1549 1.349 . S
C1565 H1557 0.950 . S
C1565 C1563 1.327 . S
C1566 C1554 1.349 . S
C1566 H1560 0.950 . S
C1566 C1567 1.327 . S
C1567 H1561 0.950 . S
C1567 C1566 1.327 . S
C1567 C1571 1.429 . S
C1568 C1551 1.574 . S
C1568 H1562 0.949 . S
C1568 C1572 1.368 . S
C1569 C1550 1.429 . S
C1569 C1563 1.429 . S
C1569 C1570 1.523 . S
C1570 C1551 1.368 . S
C1570 C1564 1.368 . S
C1570 C1569 1.523 . S
C1571 C1555 1.429 . S
C1571 C1567 1.429 . S
C1571 C1572 1.523 . S
C1572 C1556 1.368 . S
C1572 C1568 1.368 . S
C1572 C1571 1.523 . S
H1573 C1548 0.950 . S
H1574 C1550 0.950 . S
H1575 C1551 0.949 . S
H1576 C1553 0.950 . S
H1577 C1555 0.950 . S
C1578 C1579 1.349 . S
C1578 C1580 1.327 . S
C1578 H1603 0.950 . S
C1579 C1578 1.349 . S
C1579 C1595 1.349 . S
C1580 C1578 1.327 . S
C1580 C1599 1.429 . S
C1580 H1604 0.950 . S
C1581 C1598 1.578 . S
C1581 C1600 1.307 1_455 S
C1581 H1605 1.003 . S
H1582 C1586 0.949 . S
C1583 C1584 1.349 1_455 S
C1583 C1585 1.327 . S
C1583 H1606 0.950 . S
C1584 C1583 1.349 1_655 S
C1584 C1596 1.349 . S
C1585 C1583 1.327 . S
C1585 C1601 1.429 1_455 S
C1585 H1607 0.950 . S
C1586 H1582 0.949 . S
C1586 C1594 1.574 . S
C1586 C1602 1.368 . S
H1587 C1595 0.950 1_455 S
H1588 C1593 0.950 1_455 S
H1589 C1594 0.949 . S
H1590 C1596 0.950 . S
H1591 C1597 0.950 . S
H1592 C1598 0.949 . S
C1593 H1588 0.950 1_655 S
C1593 C1595 1.327 . S
C1593 C1599 1.429 . S
C1594 C1586 1.574 . S
C1594 H1589 0.949 . S
C1594 C1600 1.368 . S
C1595 C1579 1.349 . S
C1595 H1587 0.950 1_655 S
C1595 C1593 1.327 . S
C1596 C1584 1.349 . S
C1596 H1590 0.950 . S
C1596 C1597 1.327 . S
C1597 H1591 0.950 . S
C1597 C1596 1.327 . S
C1597 C1601 1.429 . S
C1598 C1581 1.578 . S
C1598 H1592 0.949 . S
C1598 C1602 1.368 1_455 S
C1599 C1580 1.429 . S
C1599 C1593 1.429 . S
C1599 C1600 1.523 . S
C1600 C1581 1.307 1_655 S
C1600 C1594 1.368 . S
C1600 C1599 1.523 . S
C1601 C1585 1.429 1_655 S
C1601 C1597 1.429 . S
C1601 C1602 1.523 . S
C1602 C1586 1.368 . S
C1602 C1598 1.368 1_655 S
C1602 C1601 1.523 . S
H1603 C1578 0.950 . S
H1604 C1580 0.950 . S
H1605 C1581 1.003 . S
H1606 C1583 0.950 . S
H1607 C1585 0.950 . S
C1608 C1609 1.349 . S
C1608 C1610 1.327 . S
C1608 H1633 0.950 . S
C1609 C1608 1.349 . S
C1609 C1625 1.349 . S
C1610 C1608 1.327 . S
C1610 C1629 1.429 . S
C1610 H1634 0.950 . S
C1611 C1628 1.574 . S
C1611 C1630 1.368 . S
C1611 H1635 0.949 . S
H1612 C1616 0.949 . S
C1613 C1614 1.349 . S
C1613 C1615 1.327 . S
C1613 H1636 0.950 . S
C1614 C1613 1.349 . S
C1614 C1626 1.349 . S
C1615 C1613 1.327 . S
C1615 C1631 1.429 . S
C1615 H1637 0.950 . S
C1616 H1612 0.949 . S
C1616 C1624 1.574 . S
C1616 C1632 1.368 . S
H1617 C1625 0.950 . S
H1618 C1623 0.950 . S
H1619 C1624 0.949 . S
H1620 C1626 0.950 . S
H1621 C1627 0.950 . S
H1622 C1628 0.949 . S
C1623 H1618 0.950 . S
C1623 C1625 1.327 . S
C1623 C1629 1.429 . S
C1624 C1616 1.574 . S
C1624 H1619 0.949 . S
C1624 C1630 1.368 . S
C1625 C1609 1.349 . S
C1625 H1617 0.950 . S
C1625 C1623 1.327 . S
C1626 C1614 1.349 . S
C1626 H1620 0.950 . S
C1626 C1627 1.327 . S
C1627 H1621 0.950 . S
C1627 C1626 1.327 . S
C1627 C1631 1.429 . S
C1628 C1611 1.574 . S
C1628 H1622 0.949 . S
C1628 C1632 1.368 . S
C1629 C1610 1.429 . S
C1629 C1623 1.429 . S
C1629 C1630 1.523 . S
C1630 C1611 1.368 . S
C1630 C1624 1.368 . S
C1630 C1629 1.523 . S
C1631 C1615 1.429 . S
C1631 C1627 1.429 . S
C1631 C1632 1.523 . S
C1632 C1616 1.368 . S
C1632 C1628 1.368 . S
C1632 C1631 1.523 . S
H1633 C1608 0.950 . S
H1634 C1610 0.950 . S
H1635 C1611 0.949 . S
H1636 C1613 0.950 . S
H1637 C1615 0.950 . S
C1638 C1639 1.349 . S
C1638 C1640 1.327 . S
C1638 H1663 0.950 . S
C1639 C1638 1.349 . S
C1639 C1655 1.349 . S
C1640 C1638 1.327 . S
C1640 C1659 1.429 . S
C1640 H1664 0.950 . S
C1641 C1658 1.574 . S
C1641 C1660 1.368 . S
C1641 H1665 0.949 . S
H1642 C1646 0.949 . S
C1643 C1644 1.349 . S
C1643 C1645 1.327 . S
C1643 H1666 0.950 . S
C1644 C1643 1.349 . S
C1644 C1656 1.349 . S
C1645 C1643 1.327 . S
C1645 C1661 1.429 . S
C1645 H1667 0.950 . S
C1646 H1642 0.949 . S
C1646 C1654 1.574 . S
C1646 C1662 1.368 . S
H1647 C1655 0.950 . S
H1648 C1653 0.950 . S
H1649 C1654 0.949 . S
H1650 C1656 0.950 . S
H1651 C1657 0.950 . S
H1652 C1658 0.949 . S
C1653 H1648 0.950 . S
C1653 C1655 1.327 . S
C1653 C1659 1.429 . S
C1654 C1646 1.574 . S
C1654 H1649 0.949 . S
C1654 C1660 1.368 . S
C1655 C1639 1.349 . S
C1655 H1647 0.950 . S
C1655 C1653 1.327 . S
C1656 C1644 1.349 . S
C1656 H1650 0.950 . S
C1656 C1657 1.327 . S
C1657 H1651 0.950 . S
C1657 C1656 1.327 . S
C1657 C1661 1.429 . S
C1658 C1641 1.574 . S
C1658 H1652 0.949 . S
C1658 C1662 1.368 . S
C1659 C1640 1.429 . S
C1659 C1653 1.429 . S
C1659 C1660 1.523 . S
C1660 C1641 1.368 . S
C1660 C1654 1.368 . S
C1660 C1659 1.523 . S
C1661 C1645 1.429 . S
C1661 C1657 1.429 . S
C1661 C1662 1.523 . S
C1662 C1646 1.368 . S
C1662 C1658 1.368 . S
C1662 C1661 1.523 . S
H1663 C1638 0.950 . S
H1664 C1640 0.950 . S
H1665 C1641 0.949 . S
H1666 C1643 0.950 . S
H1667 C1645 0.950 . S
C1668 C1669 1.349 . S
C1668 C1670 1.327 . S
C1668 H1693 0.950 . S
C1669 C1668 1.349 . S
C1669 C1685 1.349 . S
C1670 C1668 1.327 . S
C1670 C1689 1.429 . S
C1670 H1694 0.950 . S
C1671 C1688 1.574 . S
C1671 C1690 1.368 1_554 S
C1671 H1695 0.949 . S
H1672 C1676 0.949 . S
C1673 C1674 1.349 1_554 S
C1673 C1675 1.327 . S
C1673 H1696 0.950 . S
C1674 C1673 1.349 1_556 S
C1674 C1686 1.349 . S
C1675 C1673 1.327 . S
C1675 C1691 1.429 1_554 S
C1675 H1697 0.950 . S
C1676 H1672 0.949 . S
C1676 C1684 1.574 . S
C1676 C1692 1.368 . S
H1677 C1685 0.950 1_554 S
H1678 C1683 0.950 1_554 S
H1679 C1684 0.949 . S
H1680 C1686 0.950 . S
H1681 C1687 0.950 . S
H1682 C1688 0.949 . S
C1683 H1678 0.950 1_556 S
C1683 C1685 1.327 . S
C1683 C1689 1.429 . S
C1684 C1676 1.574 . S
C1684 H1679 0.949 . S
C1684 C1690 1.368 . S
C1685 C1669 1.349 . S
C1685 H1677 0.950 1_556 S
C1685 C1683 1.327 . S
C1686 C1674 1.349 . S
C1686 H1680 0.950 . S
C1686 C1687 1.327 . S
C1687 H1681 0.950 . S
C1687 C1686 1.327 . S
C1687 C1691 1.429 . S
C1688 C1671 1.574 . S
C1688 H1682 0.949 . S
C1688 C1692 1.368 1_554 S
C1689 C1670 1.429 . S
C1689 C1683 1.429 . S
C1689 C1690 1.523 . S
C1690 C1671 1.368 1_556 S
C1690 C1684 1.368 . S
C1690 C1689 1.523 . S
C1691 C1675 1.429 1_556 S
C1691 C1687 1.429 . S
C1691 C1692 1.523 . S
C1692 C1676 1.368 . S
C1692 C1688 1.368 1_556 S
C1692 C1691 1.523 . S
H1693 C1668 0.950 . S
H1694 C1670 0.950 . S
H1695 C1671 0.949 . S
H1696 C1673 0.950 . S
H1697 C1675 0.950 . S
C1698 C1699 1.349 . S
C1698 C1700 1.327 . S
C1698 H1723 0.950 . S
C1699 C1698 1.349 . S
C1699 C1715 1.349 . S
C1700 C1698 1.327 . S
C1700 C1719 1.429 . S
C1700 H1724 0.950 . S
C1701 C1718 1.574 . S
C1701 C1720 1.368 . S
C1701 H1725 0.949 . S
H1702 C1706 0.949 . S
C1703 C1704 1.349 . S
C1703 C1705 1.327 . S
C1703 H1726 0.950 . S
C1704 C1703 1.349 . S
C1704 C1716 1.349 . S
C1705 C1703 1.327 . S
C1705 C1721 1.429 . S
C1705 H1727 0.950 . S
C1706 H1702 0.949 . S
C1706 C1714 1.574 . S
C1706 C1722 1.368 . S
H1707 C1715 0.950 . S
H1708 C1713 0.950 . S
H1709 C1714 0.949 . S
H1710 C1716 0.950 . S
H1711 C1717 0.950 . S
H1712 C1718 0.949 . S
C1713 H1708 0.950 . S
C1713 C1715 1.327 . S
C1713 C1719 1.429 . S
C1714 C1706 1.574 . S
C1714 H1709 0.949 . S
C1714 C1720 1.368 . S
C1715 C1699 1.349 . S
C1715 H1707 0.950 . S
C1715 C1713 1.327 . S
C1716 C1704 1.349 . S
C1716 H1710 0.950 . S
C1716 C1717 1.327 . S
C1717 H1711 0.950 . S
C1717 C1716 1.327 . S
C1717 C1721 1.429 . S
C1718 C1701 1.574 . S
C1718 H1712 0.949 . S
C1718 C1722 1.368 . S
C1719 C1700 1.429 . S
C1719 C1713 1.429 . S
C1719 C1720 1.523 . S
C1720 C1701 1.368 . S
C1720 C1714 1.368 . S
C1720 C1719 1.523 . S
C1721 C1705 1.429 . S
C1721 C1717 1.429 . S
C1721 C1722 1.523 . S
C1722 C1706 1.368 . S
C1722 C1718 1.368 . S
C1722 C1721 1.523 . S
H1723 C1698 0.950 . S
H1724 C1700 0.950 . S
H1725 C1701 0.949 . S
H1726 C1703 0.950 . S
H1727 C1705 0.950 . S
C1728 C1729 1.349 . S
C1728 C1730 1.327 . S
C1728 H1753 0.950 . S
C1729 C1728 1.349 . S
C1729 C1745 1.349 . S
C1730 C1728 1.327 . S
C1730 C1749 1.429 . S
C1730 H1754 0.950 . S
C1731 C1748 1.574 . S
C1731 C1750 1.368 . S
C1731 H1755 0.949 . S
H1732 C1736 0.949 . S
C1733 C1734 1.349 . S
C1733 C1735 1.327 . S
C1733 H1756 0.950 . S
C1734 C1733 1.349 . S
C1734 C1746 1.349 . S
C1735 C1733 1.327 . S
C1735 C1751 1.429 . S
C1735 H1757 0.950 . S
C1736 H1732 0.949 . S
C1736 C1744 1.574 . S
C1736 C1752 1.368 . S
H1737 C1745 0.950 . S
H1738 C1743 0.950 . S
H1739 C1744 0.949 . S
H1740 C1746 0.950 . S
H1741 C1747 0.950 . S
H1742 C1748 0.949 . S
C1743 H1738 0.950 . S
C1743 C1745 1.327 . S
C1743 C1749 1.429 . S
C1744 C1736 1.574 . S
C1744 H1739 0.949 . S
C1744 C1750 1.368 . S
C1745 C1729 1.349 . S
C1745 H1737 0.950 . S
C1745 C1743 1.327 . S
C1746 C1734 1.349 . S
C1746 H1740 0.950 . S
C1746 C1747 1.327 . S
C1747 H1741 0.950 . S
C1747 C1746 1.327 . S
C1747 C1751 1.429 . S
C1748 C1731 1.574 . S
C1748 H1742 0.949 . S
C1748 C1752 1.368 . S
C1749 C1730 1.429 . S
C1749 C1743 1.429 . S
C1749 C1750 1.523 . S
C1750 C1731 1.368 . S
C1750 C1744 1.368 . S
C1750 C1749 1.523 . S
C1751 C1735 1.429 . S
C1751 C1747 1.429 . S
C1751 C1752 1.523 . S
C1752 C1736 1.368 . S
C1752 C1748 1.368 . S
C1752 C1751 1.523 . S
H1753 C1728 0.950 . S
H1754 C1730 0.950 . S
H1755 C1731 0.949 . S
H1756 C1733 0.950 . S
H1757 C1735 0.950 . S
C1758 C1759 1.349 . S
C1758 C1760 1.327 . S
C1758 H1783 0.950 . S
C1759 C1758 1.349 . S
C1759 C1775 1.349 . S
C1760 C1758 1.327 . S
C1760 C1779 1.429 . S
C1760 H1784 0.950 . S
C1761 C1778 1.574 . S
C1761 C1780 1.368 . S
C1761 H1785 0.949 . S
H1762 C1766 0.949 . S
C1763 C1764 1.349 . S
C1763 C1765 1.327 . S
C1763 H1786 0.950 . S
C1764 C1763 1.349 . S
C1764 C1776 1.349 . S
C1765 C1763 1.327 . S
C1765 C1781 1.429 . S
C1765 H1787 0.950 . S
C1766 H1762 0.949 . S
C1766 C1774 1.574 . S
C1766 C1782 1.368 . S
H1767 C1775 0.950 . S
H1768 C1773 0.950 . S
H1769 C1774 0.949 . S
H1770 C1776 0.950 . S
H1771 C1777 0.950 . S
H1772 C1778 0.949 . S
C1773 H1768 0.950 . S
C1773 C1775 1.327 . S
C1773 C1779 1.429 . S
C1774 C1766 1.574 . S
C1774 H1769 0.949 . S
C1774 C1780 1.368 . S
C1775 C1759 1.349 . S
C1775 H1767 0.950 . S
C1775 C1773 1.327 . S
C1776 C1764 1.349 . S
C1776 H1770 0.950 . S
C1776 C1777 1.327 . S
C1777 H1771 0.950 . S
C1777 C1776 1.327 . S
C1777 C1781 1.429 . S
C1778 C1761 1.574 . S
C1778 H1772 0.949 . S
C1778 C1782 1.368 . S
C1779 C1760 1.429 . S
C1779 C1773 1.429 . S
C1779 C1780 1.523 . S
C1780 C1761 1.368 . S
C1780 C1774 1.368 . S
C1780 C1779 1.523 . S
C1781 C1765 1.429 . S
C1781 C1777 1.429 . S
C1781 C1782 1.523 . S
C1782 C1766 1.368 . S
C1782 C1778 1.368 . S
C1782 C1781 1.523 . S
H1783 C1758 0.950 . S
H1784 C1760 0.950 . S
H1785 C1761 0.949 . S
H1786 C1763 0.950 . S
H1787 C1765 0.950 . S
C1788 C1789 1.349 . S
C1788 C1790 1.327 . S
C1788 H1813 0.950 . S
C1789 C1788 1.349 . S
C1789 C1805 1.349 . S
C1790 C1788 1.327 . S
C1790 C1809 1.429 . S
C1790 H1814 0.950 . S
C1791 C1808 1.574 . S
C1791 C1810 1.368 . S
C1791 H1815 0.949 . S
H1792 C1796 0.949 . S
C1793 C1794 1.349 . S
C1793 C1795 1.327 . S
C1793 H1816 0.950 . S
C1794 C1793 1.349 . S
C1794 C1806 1.349 . S
C1795 C1793 1.327 . S
C1795 C1811 1.429 . S
C1795 H1817 0.950 . S
C1796 H1792 0.949 . S
C1796 C1804 1.574 . S
C1796 C1812 1.368 . S
H1797 C1805 0.950 . S
H1798 C1803 0.950 . S
H1799 C1804 0.949 . S
H1800 C1806 0.950 . S
H1801 C1807 0.950 . S
H1802 C1808 0.949 . S
C1803 H1798 0.950 . S
C1803 C1805 1.327 . S
C1803 C1809 1.429 . S
C1804 C1796 1.574 . S
C1804 H1799 0.949 . S
C1804 C1810 1.368 . S
C1805 C1789 1.349 . S
C1805 H1797 0.950 . S
C1805 C1803 1.327 . S
C1806 C1794 1.349 . S
C1806 H1800 0.950 . S
C1806 C1807 1.327 . S
C1807 H1801 0.950 . S
C1807 C1806 1.327 . S
C1807 C1811 1.429 . S
C1808 C1791 1.574 . S
C1808 H1802 0.949 . S
C1808 C1812 1.368 . S
C1809 C1790 1.429 . S
C1809 C1803 1.429 . S
C1809 C1810 1.523 . S
C1810 C1791 1.368 . S
C1810 C1804 1.368 . S
C1810 C1809 1.523 . S
C1811 C1795 1.429 . S
C1811 C1807 1.429 . S
C1811 C1812 1.523 . S
C1812 C1796 1.368 . S
C1812 C1808 1.368 . S
C1812 C1811 1.523 . S
H1813 C1788 0.950 . S
H1814 C1790 0.950 . S
H1815 C1791 0.949 . S
H1816 C1793 0.950 . S
H1817 C1795 0.950 . S
C1818 C1819 1.349 . S
C1818 C1820 1.327 . S
C1818 H1843 0.950 . S
C1819 C1818 1.349 . S
C1819 C1835 1.349 . S
C1820 C1818 1.327 . S
C1820 C1839 1.429 . S
C1820 H1844 0.950 . S
C1821 C1838 1.574 . S
C1821 C1840 1.368 . S
C1821 H1845 0.949 . S
H1822 C1826 0.949 . S
C1823 C1824 1.349 . S
C1823 C1825 1.327 . S
C1823 H1846 0.950 . S
C1824 C1823 1.349 . S
C1824 C1836 1.349 . S
C1825 C1823 1.327 . S
C1825 C1841 1.429 . S
C1825 H1847 0.950 . S
C1826 H1822 0.949 . S
C1826 C1834 1.574 . S
C1826 C1842 1.368 . S
H1827 C1835 0.950 . S
H1828 C1833 0.950 . S
H1829 C1834 0.949 . S
H1830 C1836 0.950 . S
H1831 C1837 0.950 . S
H1832 C1838 0.949 . S
C1833 H1828 0.950 . S
C1833 C1835 1.327 . S
C1833 C1839 1.429 . S
C1834 C1826 1.574 . S
C1834 H1829 0.949 . S
C1834 C1840 1.368 . S
C1835 C1819 1.349 . S
C1835 H1827 0.950 . S
C1835 C1833 1.327 . S
C1836 C1824 1.349 . S
C1836 H1830 0.950 . S
C1836 C1837 1.327 . S
C1837 H1831 0.950 . S
C1837 C1836 1.327 . S
C1837 C1841 1.429 . S
C1838 C1821 1.574 . S
C1838 H1832 0.949 . S
C1838 C1842 1.368 . S
C1839 C1820 1.429 . S
C1839 C1833 1.429 . S
C1839 C1840 1.523 . S
C1840 C1821 1.368 . S
C1840 C1834 1.368 . S
C1840 C1839 1.523 . S
C1841 C1825 1.429 . S
C1841 C1837 1.429 . S
C1841 C1842 1.523 . S
C1842 C1826 1.368 . S
C1842 C1838 1.368 . S
C1842 C1841 1.523 . S
H1843 C1818 0.950 . S
H1844 C1820 0.950 . S
H1845 C1821 0.949 . S
H1846 C1823 0.950 . S
H1847 C1825 0.950 . S
C1848 C1849 1.349 . S
C1848 C1850 1.327 . S
C1848 H1873 0.950 . S
C1849 C1848 1.349 . S
C1849 C1865 1.349 . S
C1850 C1848 1.327 . S
C1850 C1869 1.429 . S
C1850 H1874 0.950 . S
C1851 C1868 1.574 . S
C1851 C1870 1.368 . S
C1851 H1875 0.949 . S
H1852 C1856 0.949 . S
C1853 C1854 1.349 . S
C1853 C1855 1.327 . S
C1853 H1876 0.950 . S
C1854 C1853 1.349 . S
C1854 C1866 1.349 . S
C1855 C1853 1.327 . S
C1855 C1871 1.429 . S
C1855 H1877 0.950 . S
C1856 H1852 0.949 . S
C1856 C1864 1.574 . S
C1856 C1872 1.368 . S
H1857 C1865 0.950 . S
H1858 C1863 0.950 . S
H1859 C1864 0.949 . S
H1860 C1866 0.950 . S
H1861 C1867 0.950 . S
H1862 C1868 0.949 . S
C1863 H1858 0.950 . S
C1863 C1865 1.327 . S
C1863 C1869 1.429 . S
C1864 C1856 1.574 . S
C1864 H1859 0.949 . S
C1864 C1870 1.368 . S
C1865 C1849 1.349 . S
C1865 H1857 0.950 . S
C1865 C1863 1.327 . S
C1866 C1854 1.349 . S
C1866 H1860 0.950 . S
C1866 C1867 1.327 . S
C1867 H1861 0.950 . S
C1867 C1866 1.327 . S
C1867 C1871 1.429 . S
C1868 C1851 1.574 . S
C1868 H1862 0.949 . S
C1868 C1872 1.368 . S
C1869 C1850 1.429 . S
C1869 C1863 1.429 . S
C1869 C1870 1.523 . S
C1870 C1851 1.368 . S
C1870 C1864 1.368 . S
C1870 C1869 1.523 . S
C1871 C1855 1.429 . S
C1871 C1867 1.429 . S
C1871 C1872 1.523 . S
C1872 C1856 1.368 . S
C1872 C1868 1.368 . S
C1872 C1871 1.523 . S
H1873 C1848 0.950 . S
H1874 C1850 0.950 . S
H1875 C1851 0.949 . S
H1876 C1853 0.950 . S
H1877 C1855 0.950 . S
C1878 C1879 1.349 . S
C1878 C1880 1.327 . S
C1878 H1903 0.950 1_545 S
C1879 C1878 1.349 . S
C1879 C1895 1.349 . S
C1880 C1878 1.327 . S
C1880 C1899 1.429 . S
C1880 H1904 0.950 1_545 S
C1881 C1898 1.574 . S
C1881 C1900 1.368 . S
C1881 H1905 0.949 . S
H1882 C1886 0.949 . S
C1883 C1884 1.349 . S
C1883 C1885 1.327 . S
C1883 H1906 0.950 . S
C1884 C1883 1.349 . S
C1884 C1896 1.349 1_545 S
C1885 C1883 1.327 . S
C1885 C1901 1.429 . S
C1885 H1907 0.950 . S
C1886 H1882 0.949 . S
C1886 C1894 1.579 . S
C1886 C1902 1.368 1_565 S
H1887 C1895 0.950 . S
H1888 C1893 0.950 . S
H1889 C1894 0.976 . S
H1890 C1896 0.950 . S
H1891 C1897 0.950 . S
H1892 C1898 0.949 . S
C1893 H1888 0.950 . S
C1893 C1895 1.327 . S
C1893 C1899 1.429 . S
C1894 C1886 1.579 . S
C1894 H1889 0.976 . S
C1894 C1900 1.335 1_565 S
C1895 C1879 1.349 . S
C1895 H1887 0.950 . S
C1895 C1893 1.327 . S
C1896 C1884 1.349 1_565 S
C1896 H1890 0.950 . S
C1896 C1897 1.327 . S
C1897 H1891 0.950 . S
C1897 C1896 1.327 . S
C1897 C1901 1.429 1_565 S
C1898 C1881 1.574 . S
C1898 H1892 0.949 . S
C1898 C1902 1.368 . S
C1899 C1880 1.429 . S
C1899 C1893 1.429 . S
C1899 C1900 1.523 . S
C1900 C1881 1.368 . S
C1900 C1894 1.335 1_545 S
C1900 C1899 1.523 . S
C1901 C1885 1.429 . S
C1901 C1897 1.429 1_545 S
C1901 C1902 1.523 . S
C1902 C1886 1.368 1_545 S
C1902 C1898 1.368 . S
C1902 C1901 1.523 . S
H1903 C1878 0.950 1_565 S
H1904 C1880 0.950 1_565 S
H1905 C1881 0.949 . S
H1906 C1883 0.950 . S
H1907 C1885 0.950 . S
C1908 C1909 1.349 . S
C1908 C1910 1.327 . S
C1908 H1933 0.950 . S
C1909 C1908 1.349 . S
C1909 C1925 1.349 . S
C1910 C1908 1.327 . S
C1910 C1929 1.429 . S
C1910 H1934 0.950 . S
C1911 C1928 1.574 . S
C1911 C1930 1.368 . S
C1911 H1935 0.949 . S
H1912 C1916 0.949 . S
C1913 C1914 1.349 . S
C1913 C1915 1.327 . S
C1913 H1936 0.950 . S
C1914 C1913 1.349 . S
C1914 C1926 1.349 . S
C1915 C1913 1.327 . S
C1915 C1931 1.429 . S
C1915 H1937 0.950 . S
C1916 H1912 0.949 . S
C1916 C1924 1.574 . S
C1916 C1932 1.368 . S
H1917 C1925 0.950 . S
H1918 C1923 0.950 . S
H1919 C1924 0.949 . S
H1920 C1926 0.950 . S
H1921 C1927 0.950 . S
H1922 C1928 0.949 . S
C1923 H1918 0.950 . S
C1923 C1925 1.327 . S
C1923 C1929 1.429 . S
C1924 C1916 1.574 . S
C1924 H1919 0.949 . S
C1924 C1930 1.368 . S
C1925 C1909 1.349 . S
C1925 H1917 0.950 . S
C1925 C1923 1.327 . S
C1926 C1914 1.349 . S
C1926 H1920 0.950 . S
C1926 C1927 1.327 . S
C1927 H1921 0.950 . S
C1927 C1926 1.327 . S
C1927 C1931 1.429 . S
C1928 C1911 1.574 . S
C1928 H1922 0.949 . S
C1928 C1932 1.368 . S
C1929 C1910 1.429 . S
C1929 C1923 1.429 . S
C1929 C1930 1.523 . S
C1930 C1911 1.368 . S
C1930 C1924 1.368 . S
C1930 C1929 1.523 . S
C1931 C1915 1.429 . S
C1931 C1927 1.429 . S
C1931 C1932 1.523 . S
C1932 C1916 1.368 . S
C1932 C1928 1.368 . S
C1932 C1931 1.523 . S
H1933 C1908 0.950 . S
H1934 C1910 0.950 . S
H1935 C1911 0.949 . S
H1936 C1913 0.950 . S
H1937 C1915 0.950 . S
C1938 C1939 1.349 . S
C1938 C1940 1.327 . S
C1938 H1963 0.950 . S
C1939 C1938 1.349 . S
C1939 C1955 1.349 . S
C1940 C1938 1.327 . S
C1940 C1959 1.429 . S
C1940 H1964 0.950 . S
C1941 C1958 1.574 . S
C1941 C1960 1.368 . S
C1941 H1965 0.949 . S
H1942 C1946 0.949 . S
C1943 C1944 1.349 . S
C1943 C1945 1.327 . S
C1943 H1966 0.950 . S
C1944 C1943 1.349 . S
C1944 C1956 1.349 . S
C1945 C1943 1.327 . S
C1945 C1961 1.429 . S
C1945 H1967 0.950 . S
C1946 H1942 0.949 . S
C1946 C1954 1.574 . S
C1946 C1962 1.368 . S
H1947 C1955 0.950 . S
H1948 C1953 0.950 . S
H1949 C1954 0.949 . S
H1950 C1956 0.950 . S
H1951 C1957 0.950 . S
H1952 C1958 0.949 . S
C1953 H1948 0.950 . S
C1953 C1955 1.327 . S
C1953 C1959 1.429 . S
C1954 C1946 1.574 . S
C1954 H1949 0.949 . S
C1954 C1960 1.368 . S
C1955 C1939 1.349 . S
C1955 H1947 0.950 . S
C1955 C1953 1.327 . S
C1956 C1944 1.349 . S
C1956 H1950 0.950 . S
C1956 C1957 1.327 . S
C1957 H1951 0.950 . S
C1957 C1956 1.327 . S
C1957 C1961 1.429 . S
C1958 C1941 1.574 . S
C1958 H1952 0.949 . S
C1958 C1962 1.368 . S
C1959 C1940 1.429 . S
C1959 C1953 1.429 . S
C1959 C1960 1.523 . S
C1960 C1941 1.368 . S
C1960 C1954 1.368 . S
C1960 C1959 1.523 . S
C1961 C1945 1.429 . S
C1961 C1957 1.429 . S
C1961 C1962 1.523 . S
C1962 C1946 1.368 . S
C1962 C1958 1.368 . S
C1962 C1961 1.523 . S
H1963 C1938 0.950 . S
H1964 C1940 0.950 . S
H1965 C1941 0.949 . S
H1966 C1943 0.950 . S
H1967 C1945 0.950 . S
C1968 C1969 1.349 . S
C1968 C1970 1.327 . S
C1968 H1993 0.950 . S
C1969 C1968 1.349 . S
C1969 C1985 1.349 . S
C1970 C1968 1.327 . S
C1970 C1989 1.429 . S
C1970 H1994 0.950 . S
C1971 C1988 1.574 . S
C1971 C1990 1.368 . S
C1971 H1995 0.949 . S
H1972 C1976 0.949 . S
C1973 C1974 1.349 . S
C1973 C1975 1.327 . S
C1973 H1996 0.950 . S
C1974 C1973 1.349 . S
C1974 C1986 1.349 . S
C1975 C1973 1.327 . S
C1975 C1991 1.429 . S
C1975 H1997 0.950 . S
C1976 H1972 0.949 . S
C1976 C1984 1.574 . S
C1976 C1992 1.368 . S
H1977 C1985 0.950 . S
H1978 C1983 0.950 . S
H1979 C1984 0.949 . S
H1980 C1986 0.950 . S
H1981 C1987 0.950 . S
H1982 C1988 0.949 . S
C1983 H1978 0.950 . S
C1983 C1985 1.327 . S
C1983 C1989 1.429 . S
C1984 C1976 1.574 . S
C1984 H1979 0.949 . S
C1984 C1990 1.368 . S
C1985 C1969 1.349 . S
C1985 H1977 0.950 . S
C1985 C1983 1.327 . S
C1986 C1974 1.349 . S
C1986 H1980 0.950 . S
C1986 C1987 1.327 . S
C1987 H1981 0.950 . S
C1987 C1986 1.327 . S
C1987 C1991 1.429 . S
C1988 C1971 1.574 . S
C1988 H1982 0.949 . S
C1988 C1992 1.368 . S
C1989 C1970 1.429 . S
C1989 C1983 1.429 . S
C1989 C1990 1.523 . S
C1990 C1971 1.368 . S
C1990 C1984 1.368 . S
C1990 C1989 1.523 . S
C1991 C1975 1.429 . S
C1991 C1987 1.429 . S
C1991 C1992 1.523 . S
C1992 C1976 1.368 . S
C1992 C1988 1.368 . S
C1992 C1991 1.523 . S
H1993 C1968 0.950 . S
H1994 C1970 0.950 . S
H1995 C1971 0.949 . S
H1996 C1973 0.950 . S
H1997 C1975 0.950 . S
C1998 C1999 1.349 . S
C1998 C2000 1.327 . S
C1998 H2023 0.950 . S
C1999 C1998 1.349 . S
C1999 C2015 1.349 . S
C2000 C1998 1.327 . S
C2000 C2019 1.429 . S
C2000 H2024 0.950 . S
C2001 C2018 1.574 . S
C2001 C2020 1.368 . S
C2001 H2025 0.949 . S
H2002 C2006 0.949 . S
C2003 C2004 1.349 . S
C2003 C2005 1.327 . S
C2003 H2026 0.950 1_545 S
C2004 C2003 1.349 . S
C2004 C2016 1.349 . S
C2005 C2003 1.327 . S
C2005 C2021 1.429 . S
C2005 H2027 0.950 1_545 S
C2006 H2002 0.949 . S
C2006 C2014 1.574 . S
C2006 C2022 1.368 . S
H2007 C2015 0.950 . S
H2008 C2013 0.950 . S
H2009 C2014 0.949 . S
H2010 C2016 0.950 . S
H2011 C2017 0.950 . S
H2012 C2018 0.948 . S
C2013 H2008 0.950 . S
C2013 C2015 1.327 . S
C2013 C2019 1.429 . S
C2014 C2006 1.574 . S
C2014 H2009 0.949 . S
C2014 C2020 1.368 . S
C2015 C1999 1.349 . S
C2015 H2007 0.950 . S
C2015 C2013 1.327 . S
C2016 C2004 1.349 . S
C2016 H2010 0.950 . S
C2016 C2017 1.327 . S
C2017 H2011 0.950 . S
C2017 C2016 1.327 . S
C2017 C2021 1.429 . S
C2018 C2001 1.574 . S
C2018 H2012 0.948 . S
C2018 C2022 1.368 . S
C2019 C2000 1.429 . S
C2019 C2013 1.429 . S
C2019 C2020 1.523 . S
C2020 C2001 1.368 . S
C2020 C2014 1.368 . S
C2020 C2019 1.523 . S
C2021 C2005 1.429 . S
C2021 C2017 1.429 . S
C2021 C2022 1.523 . S
C2022 C2006 1.368 . S
C2022 C2018 1.368 . S
C2022 C2021 1.523 . S
H2023 C1998 0.950 . S
H2024 C2000 0.950 . S
H2025 C2001 0.949 . S
H2026 C2003 0.950 1_565 S
H2027 C2005 0.950 1_565 S
C2028 C2029 1.349 . S
C2028 C2030 1.327 . S
C2028 H2053 0.950 . S
C2029 C2028 1.349 . S
C2029 C2045 1.349 . S
C2030 C2028 1.327 . S
C2030 C2049 1.429 . S
C2030 H2054 0.950 . S
C2031 C2048 1.574 . S
C2031 C2050 1.368 . S
C2031 H2055 0.949 . S
H2032 C2036 0.949 . S
C2033 C2034 1.349 . S
C2033 C2035 1.327 . S
C2033 H2056 0.950 . S
C2034 C2033 1.349 . S
C2034 C2046 1.349 . S
C2035 C2033 1.327 . S
C2035 C2051 1.429 . S
C2035 H2057 0.950 . S
C2036 H2032 0.949 . S
C2036 C2044 1.574 . S
C2036 C2052 1.368 . S
H2037 C2045 0.950 . S
H2038 C2043 0.950 . S
H2039 C2044 0.949 . S
H2040 C2046 0.950 . S
H2041 C2047 0.950 . S
H2042 C2048 0.949 . S
C2043 H2038 0.950 . S
C2043 C2045 1.327 . S
C2043 C2049 1.429 . S
C2044 C2036 1.574 . S
C2044 H2039 0.949 . S
C2044 C2050 1.368 . S
C2045 C2029 1.349 . S
C2045 H2037 0.950 . S
C2045 C2043 1.327 . S
C2046 C2034 1.349 . S
C2046 H2040 0.950 . S
C2046 C2047 1.327 . S
C2047 H2041 0.950 . S
C2047 C2046 1.327 . S
C2047 C2051 1.429 . S
C2048 C2031 1.574 . S
C2048 H2042 0.949 . S
C2048 C2052 1.368 . S
C2049 C2030 1.429 . S
C2049 C2043 1.429 . S
C2049 C2050 1.523 . S
C2050 C2031 1.368 . S
C2050 C2044 1.368 . S
C2050 C2049 1.523 . S
C2051 C2035 1.429 . S
C2051 C2047 1.429 . S
C2051 C2052 1.523 . S
C2052 C2036 1.368 . S
C2052 C2048 1.368 . S
C2052 C2051 1.523 . S
H2053 C2028 0.950 . S
H2054 C2030 0.950 . S
H2055 C2031 0.949 . S
H2056 C2033 0.950 . S
H2057 C2035 0.950 . S
C2058 C2059 1.349 . S
C2058 C2060 1.327 . S
C2058 H2083 0.950 . S
C2059 C2058 1.349 . S
C2059 C2075 1.349 . S
C2060 C2058 1.327 . S
C2060 C2079 1.429 . S
C2060 H2084 0.950 . S
C2061 C2078 1.574 . S
C2061 C2080 1.368 . S
C2061 H2085 0.949 . S
H2062 C2066 0.949 . S
C2063 C2064 1.349 . S
C2063 C2065 1.327 . S
C2063 H2086 0.950 . S
C2064 C2063 1.349 . S
C2064 C2076 1.349 . S
C2065 C2063 1.327 . S
C2065 C2081 1.429 . S
C2065 H2087 0.950 . S
C2066 H2062 0.949 . S
C2066 C2074 1.574 . S
C2066 C2082 1.368 . S
H2067 C2075 0.950 . S
H2068 C2073 0.950 . S
H2069 C2074 0.949 . S
H2070 C2076 0.950 . S
H2071 C2077 0.950 . S
H2072 C2078 0.949 . S
C2073 H2068 0.950 . S
C2073 C2075 1.327 . S
C2073 C2079 1.429 . S
C2074 C2066 1.574 . S
C2074 H2069 0.949 . S
C2074 C2080 1.368 . S
C2075 C2059 1.349 . S
C2075 H2067 0.950 . S
C2075 C2073 1.327 . S
C2076 C2064 1.349 . S
C2076 H2070 0.950 . S
C2076 C2077 1.327 . S
C2077 H2071 0.950 . S
C2077 C2076 1.327 . S
C2077 C2081 1.429 . S
C2078 C2061 1.574 . S
C2078 H2072 0.949 . S
C2078 C2082 1.368 . S
C2079 C2060 1.429 . S
C2079 C2073 1.429 . S
C2079 C2080 1.523 . S
C2080 C2061 1.368 . S
C2080 C2074 1.368 . S
C2080 C2079 1.523 . S
C2081 C2065 1.429 . S
C2081 C2077 1.429 . S
C2081 C2082 1.523 . S
C2082 C2066 1.368 . S
C2082 C2078 1.368 . S
C2082 C2081 1.523 . S
H2083 C2058 0.950 . S
H2084 C2060 0.950 . S
H2085 C2061 0.949 . S
H2086 C2063 0.950 . S
H2087 C2065 0.950 . S
C2088 C2089 1.349 . S
C2088 C2090 1.327 . S
C2088 H2113 0.950 . S
C2089 C2088 1.349 . S
C2089 C2105 1.349 . S
C2090 C2088 1.327 . S
C2090 C2109 1.429 . S
C2090 H2114 0.950 . S
C2091 C2108 1.574 . S
C2091 C2110 1.368 . S
C2091 H2115 0.949 . S
H2092 C2096 0.949 . S
C2093 C2094 1.349 . S
C2093 C2095 1.327 . S
C2093 H2116 0.950 . S
C2094 C2093 1.349 . S
C2094 C2106 1.349 . S
C2095 C2093 1.327 . S
C2095 C2111 1.429 . S
C2095 H2117 0.950 . S
C2096 H2092 0.949 . S
C2096 C2104 1.574 . S
C2096 C2112 1.368 . S
H2097 C2105 0.950 . S
H2098 C2103 0.950 . S
H2099 C2104 0.949 . S
H2100 C2106 0.950 . S
H2101 C2107 0.950 . S
H2102 C2108 0.949 . S
C2103 H2098 0.950 . S
C2103 C2105 1.327 . S
C2103 C2109 1.429 . S
C2104 C2096 1.574 . S
C2104 H2099 0.949 . S
C2104 C2110 1.368 . S
C2105 C2089 1.349 . S
C2105 H2097 0.950 . S
C2105 C2103 1.327 . S
C2106 C2094 1.349 . S
C2106 H2100 0.950 . S
C2106 C2107 1.327 . S
C2107 H2101 0.950 . S
C2107 C2106 1.327 . S
C2107 C2111 1.429 . S
C2108 C2091 1.574 . S
C2108 H2102 0.949 . S
C2108 C2112 1.368 . S
C2109 C2090 1.429 . S
C2109 C2103 1.429 . S
C2109 C2110 1.523 . S
C2110 C2091 1.368 . S
C2110 C2104 1.368 . S
C2110 C2109 1.523 . S
C2111 C2095 1.429 . S
C2111 C2107 1.429 . S
C2111 C2112 1.523 . S
C2112 C2096 1.368 . S
C2112 C2108 1.368 . S
C2112 C2111 1.523 . S
H2113 C2088 0.950 . S
H2114 C2090 0.950 . S
H2115 C2091 0.949 . S
H2116 C2093 0.950 . S
H2117 C2095 0.950 . S
C2118 C2119 1.349 . S
C2118 C2120 1.327 . S
C2118 H2143 0.950 . S
C2119 C2118 1.349 . S
C2119 C2135 1.349 1_655 S
C2120 C2118 1.327 . S
C2120 C2139 1.429 . S
C2120 H2144 0.950 . S
C2121 C2138 1.574 . S
C2121 C2140 1.368 1_455 S
C2121 H2145 0.949 . S
H2122 C2126 0.949 . S
C2123 C2124 1.349 . S
C2123 C2125 1.327 . S
C2123 H2146 0.950 . S
C2124 C2123 1.349 . S
C2124 C2136 1.349 1_455 S
C2125 C2123 1.327 . S
C2125 C2141 1.429 . S
C2125 H2147 0.950 . S
C2126 H2122 0.949 . S
C2126 C2134 1.574 . S
C2126 C2142 1.368 1_655 S
H2127 C2135 0.950 . S
H2128 C2133 0.950 . S
H2129 C2134 0.949 . S
H2130 C2136 0.950 . S
H2131 C2137 0.950 . S
H2132 C2138 0.949 . S
C2133 H2128 0.950 . S
C2133 C2135 1.327 . S
C2133 C2139 1.429 1_455 S
C2134 C2126 1.574 . S
C2134 H2129 0.949 . S
C2134 C2140 1.368 . S
C2135 C2119 1.349 1_455 S
C2135 H2127 0.950 . S
C2135 C2133 1.327 . S
C2136 C2124 1.349 1_655 S
C2136 H2130 0.950 . S
C2136 C2137 1.327 . S
C2137 H2131 0.950 . S
C2137 C2136 1.327 . S
C2137 C2141 1.429 1_655 S
C2138 C2121 1.574 . S
C2138 H2132 0.949 . S
C2138 C2142 1.368 . S
C2139 C2120 1.429 . S
C2139 C2133 1.429 1_655 S
C2139 C2140 1.523 . S
C2140 C2121 1.368 1_655 S
C2140 C2134 1.368 . S
C2140 C2139 1.523 . S
C2141 C2125 1.429 . S
C2141 C2137 1.429 1_455 S
C2141 C2142 1.523 . S
C2142 C2126 1.368 1_455 S
C2142 C2138 1.368 . S
C2142 C2141 1.523 . S
H2143 C2118 0.950 . S
H2144 C2120 0.950 . S
H2145 C2121 0.949 . S
H2146 C2123 0.950 . S
H2147 C2125 0.950 . S
C2148 C2149 1.349 . S
C2148 C2150 1.327 . S
C2148 H2173 0.950 . S
C2149 C2148 1.349 . S
C2149 C2165 1.349 . S
C2150 C2148 1.327 . S
C2150 C2169 1.429 . S
C2150 H2174 0.950 . S
C2151 C2168 1.574 . S
C2151 C2170 1.368 . S
C2151 H2175 0.949 . S
H2152 C2156 0.949 . S
C2153 C2154 1.349 . S
C2153 C2155 1.327 . S
C2153 H2176 0.950 . S
C2154 C2153 1.349 . S
C2154 C2166 1.349 . S
C2155 C2153 1.327 . S
C2155 C2171 1.429 . S
C2155 H2177 0.950 . S
C2156 H2152 0.949 . S
C2156 C2164 1.574 . S
C2156 C2172 1.368 . S
H2157 C2165 0.950 . S
H2158 C2163 0.950 . S
H2159 C2164 0.949 . S
H2160 C2166 0.950 . S
H2161 C2167 0.950 . S
H2162 C2168 0.949 . S
C2163 H2158 0.950 . S
C2163 C2165 1.327 . S
C2163 C2169 1.429 . S
C2164 C2156 1.574 . S
C2164 H2159 0.949 . S
C2164 C2170 1.368 . S
C2165 C2149 1.349 . S
C2165 H2157 0.950 . S
C2165 C2163 1.327 . S
C2166 C2154 1.349 . S
C2166 H2160 0.950 . S
C2166 C2167 1.327 . S
C2167 H2161 0.950 . S
C2167 C2166 1.327 . S
C2167 C2171 1.429 . S
C2168 C2151 1.574 . S
C2168 H2162 0.949 . S
C2168 C2172 1.368 . S
C2169 C2150 1.429 . S
C2169 C2163 1.429 . S
C2169 C2170 1.523 . S
C2170 C2151 1.368 . S
C2170 C2164 1.368 . S
C2170 C2169 1.523 . S
C2171 C2155 1.429 . S
C2171 C2167 1.429 . S
C2171 C2172 1.523 . S
C2172 C2156 1.368 . S
C2172 C2168 1.368 . S
C2172 C2171 1.523 . S
H2173 C2148 0.950 . S
H2174 C2150 0.950 . S
H2175 C2151 0.949 . S
H2176 C2153 0.950 . S
H2177 C2155 0.950 . S
C2178 C2179 1.349 . S
C2178 C2180 1.327 . S
C2178 H2203 0.950 . S
C2179 C2178 1.349 . S
C2179 C2195 1.349 . S
C2180 C2178 1.327 . S
C2180 C2199 1.429 . S
C2180 H2204 0.950 . S
C2181 C2198 1.574 . S
C2181 C2200 1.368 . S
C2181 H2205 0.949 . S
H2182 C2186 0.949 . S
C2183 C2184 1.349 . S
C2183 C2185 1.327 . S
C2183 H2206 0.950 . S
C2184 C2183 1.349 . S
C2184 C2196 1.349 . S
C2185 C2183 1.327 . S
C2185 C2201 1.429 . S
C2185 H2207 0.950 . S
C2186 H2182 0.949 . S
C2186 C2194 1.574 . S
C2186 C2202 1.368 . S
H2187 C2195 0.950 . S
H2188 C2193 0.950 . S
H2189 C2194 0.949 . S
H2190 C2196 0.950 . S
H2191 C2197 0.950 . S
H2192 C2198 0.949 . S
C2193 H2188 0.950 . S
C2193 C2195 1.327 . S
C2193 C2199 1.429 . S
C2194 C2186 1.574 . S
C2194 H2189 0.949 . S
C2194 C2200 1.368 . S
C2195 C2179 1.349 . S
C2195 H2187 0.950 . S
C2195 C2193 1.327 . S
C2196 C2184 1.349 . S
C2196 H2190 0.950 . S
C2196 C2197 1.327 . S
C2197 H2191 0.950 . S
C2197 C2196 1.327 . S
C2197 C2201 1.429 . S
C2198 C2181 1.574 . S
C2198 H2192 0.949 . S
C2198 C2202 1.368 . S
C2199 C2180 1.429 . S
C2199 C2193 1.429 . S
C2199 C2200 1.523 . S
C2200 C2181 1.368 . S
C2200 C2194 1.368 . S
C2200 C2199 1.523 . S
C2201 C2185 1.429 . S
C2201 C2197 1.429 . S
C2201 C2202 1.523 . S
C2202 C2186 1.368 . S
C2202 C2198 1.368 . S
C2202 C2201 1.523 . S
H2203 C2178 0.950 . S
H2204 C2180 0.950 . S
H2205 C2181 0.949 . S
H2206 C2183 0.950 . S
H2207 C2185 0.950 . S
C2208 C2209 1.349 . S
C2208 C2210 1.327 . S
C2208 H2233 0.950 . S
C2209 C2208 1.349 . S
C2209 C2225 1.349 . S
C2210 C2208 1.327 . S
C2210 C2229 1.429 . S
C2210 H2234 0.950 . S
C2211 C2228 1.574 . S
C2211 C2230 1.368 . S
C2211 H2235 0.949 . S
H2212 C2216 0.949 . S
C2213 C2214 1.349 . S
C2213 C2215 1.327 . S
C2213 H2236 0.950 . S
C2214 C2213 1.349 . S
C2214 C2226 1.349 . S
C2215 C2213 1.327 . S
C2215 C2231 1.429 . S
C2215 H2237 0.950 . S
C2216 H2212 0.949 . S
C2216 C2224 1.574 . S
C2216 C2232 1.368 . S
H2217 C2225 0.950 . S
H2218 C2223 0.950 . S
H2219 C2224 0.949 . S
H2220 C2226 0.950 . S
H2221 C2227 0.950 . S
H2222 C2228 0.949 . S
C2223 H2218 0.950 . S
C2223 C2225 1.327 . S
C2223 C2229 1.429 . S
C2224 C2216 1.574 . S
C2224 H2219 0.949 . S
C2224 C2230 1.368 . S
C2225 C2209 1.349 . S
C2225 H2217 0.950 . S
C2225 C2223 1.327 . S
C2226 C2214 1.349 . S
C2226 H2220 0.950 . S
C2226 C2227 1.327 . S
C2227 H2221 0.950 . S
C2227 C2226 1.327 . S
C2227 C2231 1.429 . S
C2228 C2211 1.574 . S
C2228 H2222 0.949 . S
C2228 C2232 1.368 . S
C2229 C2210 1.429 . S
C2229 C2223 1.429 . S
C2229 C2230 1.523 . S
C2230 C2211 1.368 . S
C2230 C2224 1.368 . S
C2230 C2229 1.523 . S
C2231 C2215 1.429 . S
C2231 C2227 1.429 . S
C2231 C2232 1.523 . S
C2232 C2216 1.368 . S
C2232 C2228 1.368 . S
C2232 C2231 1.523 . S
H2233 C2208 0.950 . S
H2234 C2210 0.950 . S
H2235 C2211 0.949 . S
H2236 C2213 0.950 . S
H2237 C2215 0.950 . S
C2238 C2239 1.349 . S
C2238 C2240 1.327 . S
C2238 H2263 0.950 . S
C2239 C2238 1.349 . S
C2239 C2255 1.349 . S
C2240 C2238 1.327 . S
C2240 C2259 1.429 . S
C2240 H2264 0.950 . S
C2241 C2258 1.574 . S
C2241 C2260 1.368 . S
C2241 H2265 0.949 . S
H2242 C2246 0.949 . S
C2243 C2244 1.349 . S
C2243 C2245 1.327 . S
C2243 H2266 0.950 . S
C2244 C2243 1.349 . S
C2244 C2256 1.349 . S
C2245 C2243 1.327 . S
C2245 C2261 1.429 . S
C2245 H2267 0.950 . S
C2246 H2242 0.949 . S
C2246 C2254 1.574 . S
C2246 C2262 1.368 . S
H2247 C2255 0.950 . S
H2248 C2253 0.950 . S
H2249 C2254 0.949 . S
H2250 C2256 0.950 . S
H2251 C2257 0.950 . S
H2252 C2258 0.949 . S
C2253 H2248 0.950 . S
C2253 C2255 1.327 . S
C2253 C2259 1.429 . S
C2254 C2246 1.574 . S
C2254 H2249 0.949 . S
C2254 C2260 1.368 . S
C2255 C2239 1.349 . S
C2255 H2247 0.950 . S
C2255 C2253 1.327 . S
C2256 C2244 1.349 . S
C2256 H2250 0.950 . S
C2256 C2257 1.327 . S
C2257 H2251 0.950 . S
C2257 C2256 1.327 . S
C2257 C2261 1.429 . S
C2258 C2241 1.574 . S
C2258 H2252 0.949 . S
C2258 C2262 1.368 . S
C2259 C2240 1.429 . S
C2259 C2253 1.429 . S
C2259 C2260 1.523 . S
C2260 C2241 1.368 . S
C2260 C2254 1.368 . S
C2260 C2259 1.523 . S
C2261 C2245 1.429 . S
C2261 C2257 1.429 . S
C2261 C2262 1.523 . S
C2262 C2246 1.368 . S
C2262 C2258 1.368 . S
C2262 C2261 1.523 . S
H2263 C2238 0.950 . S
H2264 C2240 0.950 . S
H2265 C2241 0.949 . S
H2266 C2243 0.950 . S
H2267 C2245 0.950 . S
C2268 C2269 1.349 . S
C2268 C2270 1.327 . S
C2268 H2293 0.950 . S
C2269 C2268 1.349 . S
C2269 C2285 1.349 . S
C2270 C2268 1.327 . S
C2270 C2289 1.429 . S
C2270 H2294 0.950 . S
C2271 C2288 1.574 . S
C2271 C2290 1.368 . S
C2271 H2295 0.949 . S
H2272 C2276 0.949 . S
C2273 C2274 1.349 . S
C2273 C2275 1.327 . S
C2273 H2296 0.950 . S
C2274 C2273 1.349 . S
C2274 C2286 1.349 . S
C2275 C2273 1.327 . S
C2275 C2291 1.429 . S
C2275 H2297 0.950 . S
C2276 H2272 0.949 . S
C2276 C2284 1.574 . S
C2276 C2292 1.368 . S
H2277 C2285 0.950 . S
H2278 C2283 0.950 . S
H2279 C2284 0.949 . S
H2280 C2286 0.950 . S
H2281 C2287 0.950 . S
H2282 C2288 0.949 . S
C2283 H2278 0.950 . S
C2283 C2285 1.327 . S
C2283 C2289 1.429 . S
C2284 C2276 1.574 . S
C2284 H2279 0.949 . S
C2284 C2290 1.368 . S
C2285 C2269 1.349 . S
C2285 H2277 0.950 . S
C2285 C2283 1.327 . S
C2286 C2274 1.349 . S
C2286 H2280 0.950 . S
C2286 C2287 1.327 . S
C2287 H2281 0.950 . S
C2287 C2286 1.327 . S
C2287 C2291 1.429 . S
C2288 C2271 1.574 . S
C2288 H2282 0.949 . S
C2288 C2292 1.368 . S
C2289 C2270 1.429 . S
C2289 C2283 1.429 . S
C2289 C2290 1.523 . S
C2290 C2271 1.368 . S
C2290 C2284 1.368 . S
C2290 C2289 1.523 . S
C2291 C2275 1.429 . S
C2291 C2287 1.429 . S
C2291 C2292 1.523 . S
C2292 C2276 1.368 . S
C2292 C2288 1.368 . S
C2292 C2291 1.523 . S
H2293 C2268 0.950 . S
H2294 C2270 0.950 . S
H2295 C2271 0.949 . S
H2296 C2273 0.950 . S
H2297 C2275 0.950 . S
C2298 C2299 1.349 . S
C2298 C2300 1.327 . S
C2298 H2323 0.950 . S
C2299 C2298 1.349 . S
C2299 C2315 1.349 . S
C2300 C2298 1.327 . S
C2300 C2319 1.429 . S
C2300 H2324 0.950 . S
C2301 C2318 1.574 . S
C2301 C2320 1.368 . S
C2301 H2325 0.949 . S
H2302 C2306 0.949 . S
C2303 C2304 1.349 . S
C2303 C2305 1.327 . S
C2303 H2326 0.950 . S
C2304 C2303 1.349 . S
C2304 C2316 1.349 . S
C2305 C2303 1.327 . S
C2305 C2321 1.429 . S
C2305 H2327 0.950 . S
C2306 H2302 0.949 . S
C2306 C2314 1.574 . S
C2306 C2322 1.368 . S
H2307 C2315 0.950 . S
H2308 C2313 0.950 . S
H2309 C2314 0.949 . S
H2310 C2316 0.950 . S
H2311 C2317 0.950 . S
H2312 C2318 0.949 . S
C2313 H2308 0.950 . S
C2313 C2315 1.327 . S
C2313 C2319 1.429 . S
C2314 C2306 1.574 . S
C2314 H2309 0.949 . S
C2314 C2320 1.368 . S
C2315 C2299 1.349 . S
C2315 H2307 0.950 . S
C2315 C2313 1.327 . S
C2316 C2304 1.349 . S
C2316 H2310 0.950 . S
C2316 C2317 1.327 . S
C2317 H2311 0.950 . S
C2317 C2316 1.327 . S
C2317 C2321 1.429 . S
C2318 C2301 1.574 . S
C2318 H2312 0.949 . S
C2318 C2322 1.368 . S
C2319 C2300 1.429 . S
C2319 C2313 1.429 . S
C2319 C2320 1.523 . S
C2320 C2301 1.368 . S
C2320 C2314 1.368 . S
C2320 C2319 1.523 . S
C2321 C2305 1.429 . S
C2321 C2317 1.429 . S
C2321 C2322 1.523 . S
C2322 C2306 1.368 . S
C2322 C2318 1.368 . S
C2322 C2321 1.523 . S
H2323 C2298 0.950 . S
H2324 C2300 0.950 . S
H2325 C2301 0.949 . S
H2326 C2303 0.950 . S
H2327 C2305 0.950 . S
C2328 C2329 1.349 . S
C2328 C2330 1.327 . S
C2328 H2353 0.950 . S
C2329 C2328 1.349 . S
C2329 C2345 1.349 . S
C2330 C2328 1.327 . S
C2330 C2349 1.429 . S
C2330 H2354 0.950 . S
C2331 C2348 1.574 . S
C2331 C2350 1.368 . S
C2331 H2355 0.949 . S
H2332 C2336 0.949 . S
C2333 C2334 1.349 . S
C2333 C2335 1.327 . S
C2333 H2356 0.950 . S
C2334 C2333 1.349 . S
C2334 C2346 1.349 . S
C2335 C2333 1.327 . S
C2335 C2351 1.429 . S
C2335 H2357 0.950 . S
C2336 H2332 0.949 . S
C2336 C2344 1.574 . S
C2336 C2352 1.368 . S
H2337 C2345 0.950 . S
H2338 C2343 0.950 . S
H2339 C2344 0.949 . S
H2340 C2346 0.950 . S
H2341 C2347 0.950 . S
H2342 C2348 0.949 . S
C2343 H2338 0.950 . S
C2343 C2345 1.327 . S
C2343 C2349 1.429 . S
C2344 C2336 1.574 . S
C2344 H2339 0.949 . S
C2344 C2350 1.368 . S
C2345 C2329 1.349 . S
C2345 H2337 0.950 . S
C2345 C2343 1.327 . S
C2346 C2334 1.349 . S
C2346 H2340 0.950 . S
C2346 C2347 1.327 . S
C2347 H2341 0.950 . S
C2347 C2346 1.327 . S
C2347 C2351 1.429 . S
C2348 C2331 1.574 . S
C2348 H2342 0.949 . S
C2348 C2352 1.368 . S
C2349 C2330 1.429 . S
C2349 C2343 1.429 . S
C2349 C2350 1.523 . S
C2350 C2331 1.368 . S
C2350 C2344 1.368 . S
C2350 C2349 1.523 . S
C2351 C2335 1.429 . S
C2351 C2347 1.429 . S
C2351 C2352 1.523 . S
C2352 C2336 1.368 . S
C2352 C2348 1.368 . S
C2352 C2351 1.523 . S
H2353 C2328 0.950 . S
H2354 C2330 0.950 . S
H2355 C2331 0.949 . S
H2356 C2333 0.950 . S
H2357 C2335 0.950 . S
C2358 C2359 1.349 . S
C2358 C2360 1.327 . S
C2358 H2383 0.950 . S
C2359 C2358 1.349 . S
C2359 C2375 1.349 . S
C2360 C2358 1.327 . S
C2360 C2379 1.429 . S
C2360 H2384 0.950 . S
C2361 C2378 1.574 . S
C2361 C2380 1.368 . S
C2361 H2385 0.949 . S
H2362 C2366 0.949 . S
C2363 C2364 1.349 . S
C2363 C2365 1.327 . S
C2363 H2386 0.950 . S
C2364 C2363 1.349 . S
C2364 C2376 1.349 . S
C2365 C2363 1.327 . S
C2365 C2381 1.429 . S
C2365 H2387 0.950 . S
C2366 H2362 0.949 . S
C2366 C2374 1.574 . S
C2366 C2382 1.368 . S
H2367 C2375 0.950 . S
H2368 C2373 0.950 . S
H2369 C2374 0.949 . S
H2370 C2376 0.950 . S
H2371 C2377 0.950 . S
H2372 C2378 0.949 . S
C2373 H2368 0.950 . S
C2373 C2375 1.327 . S
C2373 C2379 1.429 . S
C2374 C2366 1.574 . S
C2374 H2369 0.949 . S
C2374 C2380 1.368 . S
C2375 C2359 1.349 . S
C2375 H2367 0.950 . S
C2375 C2373 1.327 . S
C2376 C2364 1.349 . S
C2376 H2370 0.950 . S
C2376 C2377 1.327 . S
C2377 H2371 0.950 . S
C2377 C2376 1.327 . S
C2377 C2381 1.429 . S
C2378 C2361 1.574 . S
C2378 H2372 0.949 . S
C2378 C2382 1.368 . S
C2379 C2360 1.429 . S
C2379 C2373 1.429 . S
C2379 C2380 1.523 . S
C2380 C2361 1.368 . S
C2380 C2374 1.368 . S
C2380 C2379 1.523 . S
C2381 C2365 1.429 . S
C2381 C2377 1.429 . S
C2381 C2382 1.523 . S
C2382 C2366 1.368 . S
C2382 C2378 1.368 . S
C2382 C2381 1.523 . S
H2383 C2358 0.950 . S
H2384 C2360 0.950 . S
H2385 C2361 0.949 . S
H2386 C2363 0.950 . S
H2387 C2365 0.950 . S
C2388 C2389 1.349 . S
C2388 C2390 1.327 . S
C2388 H2413 0.950 . S
C2389 C2388 1.349 . S
C2389 C2405 1.349 . S
C2390 C2388 1.327 . S
C2390 C2409 1.429 . S
C2390 H2414 0.950 . S
C2391 C2408 1.574 . S
C2391 C2410 1.368 . S
C2391 H2415 0.949 . S
H2392 C2396 0.949 . S
C2393 C2394 1.349 . S
C2393 C2395 1.327 . S
C2393 H2416 0.950 . S
C2394 C2393 1.349 . S
C2394 C2406 1.349 . S
C2395 C2393 1.327 . S
C2395 C2411 1.429 . S
C2395 H2417 0.950 . S
C2396 H2392 0.949 . S
C2396 C2404 1.574 . S
C2396 C2412 1.368 . S
H2397 C2405 0.950 . S
H2398 C2403 0.950 . S
H2399 C2404 0.949 . S
H2400 C2406 0.950 . S
H2401 C2407 0.950 . S
H2402 C2408 0.949 . S
C2403 H2398 0.950 . S
C2403 C2405 1.327 . S
C2403 C2409 1.429 . S
C2404 C2396 1.574 . S
C2404 H2399 0.949 . S
C2404 C2410 1.368 . S
C2405 C2389 1.349 . S
C2405 H2397 0.950 . S
C2405 C2403 1.327 . S
C2406 C2394 1.349 . S
C2406 H2400 0.950 . S
C2406 C2407 1.327 . S
C2407 H2401 0.950 . S
C2407 C2406 1.327 . S
C2407 C2411 1.429 . S
C2408 C2391 1.574 . S
C2408 H2402 0.949 . S
C2408 C2412 1.368 . S
C2409 C2390 1.429 . S
C2409 C2403 1.429 . S
C2409 C2410 1.523 . S
C2410 C2391 1.368 . S
C2410 C2404 1.368 . S
C2410 C2409 1.523 . S
C2411 C2395 1.429 . S
C2411 C2407 1.429 . S
C2411 C2412 1.523 . S
C2412 C2396 1.368 . S
C2412 C2408 1.368 . S
C2412 C2411 1.523 . S
H2413 C2388 0.950 . S
H2414 C2390 0.950 . S
H2415 C2391 0.949 . S
H2416 C2393 0.950 . S
H2417 C2395 0.950 . S
C2418 C2419 1.349 . S
C2418 C2420 1.327 . S
C2418 H2443 0.950 . S
C2419 C2418 1.349 . S
C2419 C2435 1.349 . S
C2420 C2418 1.327 . S
C2420 C2439 1.429 . S
C2420 H2444 0.950 . S
C2421 C2438 1.574 . S
C2421 C2440 1.368 . S
C2421 H2445 0.949 . S
H2422 C2426 0.949 . S
C2423 C2424 1.349 . S
C2423 C2425 1.327 . S
C2423 H2446 0.950 . S
C2424 C2423 1.349 . S
C2424 C2436 1.349 . S
C2425 C2423 1.327 . S
C2425 C2441 1.429 . S
C2425 H2447 0.950 . S
C2426 H2422 0.949 . S
C2426 C2434 1.574 . S
C2426 C2442 1.368 . S
H2427 C2435 0.950 . S
H2428 C2433 0.950 . S
H2429 C2434 0.949 . S
H2430 C2436 0.950 . S
H2431 C2437 0.950 . S
H2432 C2438 0.949 . S
C2433 H2428 0.950 . S
C2433 C2435 1.327 . S
C2433 C2439 1.429 . S
C2434 C2426 1.574 . S
C2434 H2429 0.949 . S
C2434 C2440 1.368 . S
C2435 C2419 1.349 . S
C2435 H2427 0.950 . S
C2435 C2433 1.327 . S
C2436 C2424 1.349 . S
C2436 H2430 0.950 . S
C2436 C2437 1.327 . S
C2437 H2431 0.950 . S
C2437 C2436 1.327 . S
C2437 C2441 1.429 . S
C2438 C2421 1.574 . S
C2438 H2432 0.949 . S
C2438 C2442 1.368 . S
C2439 C2420 1.429 . S
C2439 C2433 1.429 . S
C2439 C2440 1.523 . S
C2440 C2421 1.368 . S
C2440 C2434 1.368 . S
C2440 C2439 1.523 . S
C2441 C2425 1.429 . S
C2441 C2437 1.429 . S
C2441 C2442 1.523 . S
C2442 C2426 1.368 . S
C2442 C2438 1.368 . S
C2442 C2441 1.523 . S
H2443 C2418 0.950 . S
H2444 C2420 0.950 . S
H2445 C2421 0.949 . S
H2446 C2423 0.950 . S
H2447 C2425 0.950 . S
C2448 C2449 1.349 . S
C2448 C2450 1.327 . S
C2448 H2473 0.950 . S
C2449 C2448 1.349 . S
C2449 C2465 1.349 . S
C2450 C2448 1.327 . S
C2450 C2469 1.429 . S
C2450 H2474 0.950 1_556 S
C2451 C2468 1.574 . S
C2451 C2470 1.368 . S
C2451 H2475 0.949 . S
H2452 C2456 0.949 . S
C2453 C2454 1.394 . S
C2453 C2455 1.327 . S
C2453 H2476 0.950 . S
C2454 C2453 1.394 . S
C2454 C2466 1.312 1_556 S
C2455 C2453 1.327 . S
C2455 C2471 1.429 . S
C2455 H2477 0.950 . S
C2456 H2452 0.949 . S
C2456 C2464 1.571 1_554 S
C2456 C2472 1.368 1_554 S
H2457 C2465 0.950 . S
H2458 C2463 0.950 . S
H2459 C2464 0.937 1_554 S
H2460 C2466 0.950 . S
H2461 C2467 0.950 . S
H2462 C2468 0.949 . S
C2463 H2458 0.950 . S
C2463 C2465 1.327 . S
C2463 C2469 1.429 . S
C2464 C2456 1.571 1_556 S
C2464 H2459 0.937 1_556 S
C2464 C2470 1.384 . S
C2465 C2449 1.349 . S
C2465 H2457 0.950 . S
C2465 C2463 1.327 . S
C2466 C2454 1.312 1_554 S
C2466 H2460 0.950 . S
C2466 C2467 1.327 . S
C2467 H2461 0.950 . S
C2467 C2466 1.327 . S
C2467 C2471 1.429 1_554 S
C2468 C2451 1.574 . S
C2468 H2462 0.949 . S
C2468 C2472 1.368 . S
C2469 C2450 1.429 . S
C2469 C2463 1.429 . S
C2469 C2470 1.523 . S
C2470 C2451 1.368 . S
C2470 C2464 1.384 . S
C2470 C2469 1.523 . S
C2471 C2455 1.429 . S
C2471 C2467 1.429 1_556 S
C2471 C2472 1.523 . S
C2472 C2456 1.368 1_556 S
C2472 C2468 1.368 . S
C2472 C2471 1.523 . S
H2473 C2448 0.950 . S
H2474 C2450 0.950 1_554 S
H2475 C2451 0.949 . S
H2476 C2453 0.950 . S
H2477 C2455 0.950 . S
C2478 C2479 1.349 . S
C2478 C2480 1.327 . S
C2478 H2503 0.950 . S
C2479 C2478 1.349 . S
C2479 C2495 1.349 . S
C2480 C2478 1.327 . S
C2480 C2499 1.429 . S
C2480 H2504 0.950 . S
C2481 C2498 1.574 . S
C2481 C2500 1.368 . S
C2481 H2505 0.949 . S
H2482 C2486 0.949 . S
C2483 C2484 1.349 . S
C2483 C2485 1.327 . S
C2483 H2506 0.950 . S
C2484 C2483 1.349 . S
C2484 C2496 1.349 . S
C2485 C2483 1.327 . S
C2485 C2501 1.429 . S
C2485 H2507 0.950 . S
C2486 H2482 0.949 . S
C2486 C2494 1.574 . S
C2486 C2502 1.368 . S
H2487 C2495 0.950 . S
H2488 C2493 0.950 . S
H2489 C2494 0.949 . S
H2490 C2496 0.950 . S
H2491 C2497 0.950 . S
H2492 C2498 0.949 . S
C2493 H2488 0.950 . S
C2493 C2495 1.327 . S
C2493 C2499 1.429 . S
C2494 C2486 1.574 . S
C2494 H2489 0.949 . S
C2494 C2500 1.368 . S
C2495 C2479 1.349 . S
C2495 H2487 0.950 . S
C2495 C2493 1.327 . S
C2496 C2484 1.349 . S
C2496 H2490 0.950 . S
C2496 C2497 1.327 . S
C2497 H2491 0.950 . S
C2497 C2496 1.327 . S
C2497 C2501 1.429 . S
C2498 C2481 1.574 . S
C2498 H2492 0.949 . S
C2498 C2502 1.368 . S
C2499 C2480 1.429 . S
C2499 C2493 1.429 . S
C2499 C2500 1.523 . S
C2500 C2481 1.368 . S
C2500 C2494 1.368 . S
C2500 C2499 1.523 . S
C2501 C2485 1.429 . S
C2501 C2497 1.429 . S
C2501 C2502 1.523 . S
C2502 C2486 1.368 . S
C2502 C2498 1.368 . S
C2502 C2501 1.523 . S
H2503 C2478 0.950 . S
H2504 C2480 0.950 . S
H2505 C2481 0.949 . S
H2506 C2483 0.950 . S
H2507 C2485 0.950 . S
C2508 C2509 1.349 . S
C2508 C2510 1.327 . S
C2508 H2533 0.950 . S
C2509 C2508 1.349 . S
C2509 C2525 1.349 . S
C2510 C2508 1.327 . S
C2510 C2529 1.429 . S
C2510 H2534 0.950 . S
C2511 C2528 1.574 . S
C2511 C2530 1.368 . S
C2511 H2535 0.949 . S
H2512 C2516 0.976 . S
C2513 C2514 1.349 . S
C2513 C2515 1.327 . S
C2513 H2536 0.950 . S
C2514 C2513 1.349 . S
C2514 C2526 1.349 . S
C2515 C2513 1.327 . S
C2515 C2531 1.429 . S
C2515 H2537 0.950 . S
C2516 H2512 0.976 . S
C2516 C2524 1.574 . S
C2516 C2532 1.368 . S
H2517 C2525 0.950 . S
H2518 C2523 0.950 . S
H2519 C2524 0.949 . S
H2520 C2526 0.950 1_556 S
H2521 C2527 0.950 1_556 S
H2522 C2528 0.949 . S
C2523 H2518 0.950 . S
C2523 C2525 1.327 . S
C2523 C2529 1.429 . S
C2524 C2516 1.574 . S
C2524 H2519 0.949 . S
C2524 C2530 1.368 . S
C2525 C2509 1.349 . S
C2525 H2517 0.950 . S
C2525 C2523 1.327 . S
C2526 C2514 1.349 . S
C2526 H2520 0.950 1_554 S
C2526 C2527 1.327 . S
C2527 H2521 0.950 1_554 S
C2527 C2526 1.327 . S
C2527 C2531 1.429 . S
C2528 C2511 1.574 . S
C2528 H2522 0.949 . S
C2528 C2532 1.368 . S
C2529 C2510 1.429 . S
C2529 C2523 1.429 . S
C2529 C2530 1.523 . S
C2530 C2511 1.368 . S
C2530 C2524 1.368 . S
C2530 C2529 1.523 . S
C2531 C2515 1.429 . S
C2531 C2527 1.429 . S
C2531 C2532 1.523 . S
C2532 C2516 1.368 . S
C2532 C2528 1.368 . S
C2532 C2531 1.523 . S
H2533 C2508 0.950 . S
H2534 C2510 0.950 . S
H2535 C2511 0.949 . S
H2536 C2513 0.950 . S
H2537 C2515 0.950 . S
C2538 C2539 1.349 . S
C2538 C2540 1.327 . S
C2538 H2563 0.950 . S
C2539 C2538 1.349 . S
C2539 C2555 1.349 . S
C2540 C2538 1.327 . S
C2540 C2559 1.429 . S
C2540 H2564 0.950 . S
C2541 C2558 1.580 . S
C2541 C2560 1.368 . S
C2541 H2565 0.949 1_554 S
H2542 C2546 0.949 . S
C2543 C2544 1.349 1_556 S
C2543 C2545 1.327 . S
C2543 H2566 0.950 . S
C2544 C2543 1.349 1_554 S
C2544 C2556 1.349 . S
C2545 C2543 1.327 . S
C2545 C2561 1.429 1_556 S
C2545 H2567 0.950 . S
C2546 H2542 0.949 . S
C2546 C2554 1.574 . S
C2546 C2562 1.368 . S
H2547 C2555 0.952 1_556 S
H2548 C2553 0.950 1_556 S
H2549 C2554 0.949 . S
H2550 C2556 0.950 . S
H2551 C2557 0.950 . S
H2552 C2558 0.913 1_556 S
C2553 H2548 0.950 1_554 S
C2553 C2555 1.327 . S
C2553 C2559 1.429 . S
C2554 C2546 1.574 . S
C2554 H2549 0.949 . S
C2554 C2560 1.368 . S
C2555 C2539 1.349 . S
C2555 H2547 0.952 1_554 S
C2555 C2553 1.327 . S
C2556 C2544 1.349 . S
C2556 H2550 0.950 . S
C2556 C2557 1.327 . S
C2557 H2551 0.950 . S
C2557 C2556 1.327 . S
C2557 C2561 1.429 . S
C2558 C2541 1.580 . S
C2558 H2552 0.913 1_554 S
C2558 C2562 1.404 . S
C2559 C2540 1.429 . S
C2559 C2553 1.429 . S
C2559 C2560 1.523 . S
C2560 C2541 1.368 . S
C2560 C2554 1.368 . S
C2560 C2559 1.523 . S
C2561 C2545 1.429 1_554 S
C2561 C2557 1.429 . S
C2561 C2562 1.523 . S
C2562 C2546 1.368 . S
C2562 C2558 1.404 . S
C2562 C2561 1.523 . S
H2563 C2538 0.950 . S
H2564 C2540 0.950 . S
H2565 C2541 0.949 1_556 S
H2566 C2543 0.950 . S
H2567 C2545 0.950 . S
C1134 C971 1.437 . S
C1129 C331 1.439 . S
C1164 C979 1.291 . S
C1159 C380 1.529 . S
C1189 C421 1.408 . S
C1194 C999 1.402 . S
C1224 C1013 1.507 . S
C1219 C260 1.501 1_655 S
C1254 C1028 1.535 . S
C1249 C620 1.511 . S
C1284 C1042 1.514 . S
C1279 C740 1.496 . S
C1309 C680 1.550 . S
C1314 C1056 1.577 . S
C1344 C1062 1.438 . S
C1339 C571 1.462 . S
C1369 C691 1.495 . S
C1374 C1076 1.488 . S
C1404 C1097 1.542 . S
C1399 C541 1.545 . S
C1429 C601 1.443 . S
C1434 C1077 1.227 . S
C1464 C1098 1.542 . S
C1459 C721 1.522 . S
C1489 C451 1.457 . S
C1494 C1105 1.227 . S
C1519 C241 1.486 . S
C1524 C1111 1.495 . S
C1549 C320 1.482 . S
C1554 C1104 1.466 . S
C1579 C391 1.459 . S
C1584 C1112 1.477 . S
C1609 C211 1.473 . S
C1614 C1006 1.457 . S
C1639 C841 1.476 . S
C1644 C1007 1.251 . S
C1674 C964 1.525 . S
C1669 C901 1.554 . S
C1704 C985 1.429 . S
C1699 C500 1.439 . S
C1729 C271 1.467 . S
C1734 C1020 1.452 . S
C1764 C1070 1.535 . S
C1759 C661 1.507 . S
C1794 C1021 1.209 . S
C1789 C560 1.420 . S
C1824 C1049 1.291 . S
C1819 C751 1.544 . S
C1854 C1055 1.437 . S
C1849 C871 1.439 . S
C1879 C920 1.529 . S
C1884 C1063 1.291 . S
C1909 C481 1.408 . S
C1914 C1027 1.402 . S
C1944 C1041 1.507 . S
C1939 C800 1.501 . S
C1969 C200 1.511 . S
C1974 C1000 1.535 . S
C2004 C1014 1.514 . S
C1999 C20 1.496 . S
C2034 C972 1.577 . S
C2029 C80 1.550 . S
C2064 C978 1.438 . S
C2059 C151 1.461 . S
C2089 C91 1.495 . S
C2094 C1090 1.488 . S
C2119 C121 1.533 1_556 S
C2124 C1083 1.542 . S
C2149 C181 1.443 . S
C2154 C1091 1.227 . S
C2179 C1 1.522 . S
C2184 C1084 1.542 . S
C2214 C1119 1.226 . S
C2209 C511 1.457 . S
C2244 C1125 1.495 . S
C2239 C781 1.486 . S
C2274 C1118 1.467 . S
C2269 C860 1.482 . S
C2299 C931 1.459 . S
C2304 C1126 1.477 . S
C2329 C631 1.473 . S
C2334 C1034 1.458 . S
C2364 C1035 1.250 . S
C2359 C301 1.476 . S
C2394 C1048 1.525 . S
C2389 C361 1.554 . S
C2424 C1069 1.429 . S
C2419 C440 1.442 . S
C2449 C811 1.467 . S
C2454 C992 1.448 1_556 S
C2484 C986 1.535 . S
C2479 C61 1.510 . S
C2509 C140 1.420 . S
C2514 C993 1.209 . S
C2544 C965 1.291 . S
C2539 C31 1.544 . S
