# Generated by pormake.
# Topology dag, (6,3)-cn, num edge types: 1
# Building blocks:
#     Node 0, Type 0, BuildingBlock: OJICUG_clean_sbu_0, # of connection points: 6
#     Node 1, Type 0, BuildingBlock: OJICUG_clean_sbu_0, # of connection points: 6
#     Node 2, Type 0, BuildingBlock: OJICUG_clean_sbu_0, # of connection points: 6
#     Node 3, Type 0, BuildingBlock: OJICUG_clean_sbu_0, # of connection points: 6
#     Node 4, Type 1, BuildingBlock: BETDAH_clean_linker_0, # of connection points: 3
#     Node 5, Type 1, BuildingBlock: BETDAH_clean_linker_0, # of connection points: 3
#     Node 6, Type 1, BuildingBlock: BETDAH_clean_linker_0, # of connection points: 3
#     Node 7, Type 1, BuildingBlock: BETDAH_clean_linker_0, # of connection points: 3
#     Node 8, Type 1, BuildingBlock: BETDAH_clean_linker_0, # of connection points: 3
#     Node 9, Type 1, BuildingBlock: BETDAH_clean_linker_0, # of connection points: 3
#     Node 10, Type 1, BuildingBlock: BETDAH_clean_linker_0, # of connection points: 3
#     Node 11, Type 1, BuildingBlock: BETDAH_clean_linker_0, # of connection points: 3
#     Edge 12, Type (0, 1), BuildingBlock: ZUJKAS_clean_linker_0, # of connection points: 2
#     Edge 13, Type (0, 1), BuildingBlock: ZUJKAS_clean_linker_0, # of connection points: 2
#     Edge 14, Type (0, 1), BuildingBlock: ZUJKAS_clean_linker_0, # of connection points: 2
#     Edge 15, Type (0, 1), BuildingBlock: ZUJKAS_clean_linker_0, # of connection points: 2
#     Edge 16, Type (0, 1), BuildingBlock: ZUJKAS_clean_linker_0, # of connection points: 2
#     Edge 17, Type (0, 1), BuildingBlock: ZUJKAS_clean_linker_0, # of connection points: 2
#     Edge 18, Type (0, 1), BuildingBlock: ZUJKAS_clean_linker_0, # of connection points: 2
#     Edge 19, Type (0, 1), BuildingBlock: ZUJKAS_clean_linker_0, # of connection points: 2
#     Edge 20, Type (0, 1), BuildingBlock: ZUJKAS_clean_linker_0, # of connection points: 2
#     Edge 21, Type (0, 1), BuildingBlock: ZUJKAS_clean_linker_0, # of connection points: 2
#     Edge 22, Type (0, 1), BuildingBlock: ZUJKAS_clean_linker_0, # of connection points: 2
#     Edge 23, Type (0, 1), BuildingBlock: ZUJKAS_clean_linker_0, # of connection points: 2
#     Edge 24, Type (0, 1), BuildingBlock: ZUJKAS_clean_linker_0, # of connection points: 2
#     Edge 25, Type (0, 1), BuildingBlock: ZUJKAS_clean_linker_0, # of connection points: 2
#     Edge 26, Type (0, 1), BuildingBlock: ZUJKAS_clean_linker_0, # of connection points: 2
#     Edge 27, Type (0, 1), BuildingBlock: ZUJKAS_clean_linker_0, # of connection points: 2
#     Edge 28, Type (0, 1), BuildingBlock: ZUJKAS_clean_linker_0, # of connection points: 2
#     Edge 29, Type (0, 1), BuildingBlock: ZUJKAS_clean_linker_0, # of connection points: 2
#     Edge 30, Type (0, 1), BuildingBlock: ZUJKAS_clean_linker_0, # of connection points: 2
#     Edge 31, Type (0, 1), BuildingBlock: ZUJKAS_clean_linker_0, # of connection points: 2
#     Edge 32, Type (0, 1), BuildingBlock: ZUJKAS_clean_linker_0, # of connection points: 2
#     Edge 33, Type (0, 1), BuildingBlock: ZUJKAS_clean_linker_0, # of connection points: 2
#     Edge 34, Type (0, 1), BuildingBlock: ZUJKAS_clean_linker_0, # of connection points: 2
#     Edge 35, Type (0, 1), BuildingBlock: ZUJKAS_clean_linker_0, # of connection points: 2
# Relax obj value: 0.098
# Max RMSD: 0.107
# Mean RMSD: 0.090
data_MOF--net-dag--node1-OJICUG_clean_sbu_0--node2-BETDAH_clean_linker_0--edge1-ZUJKAS_clean_linker_0
_symmetry_space_group_name_H-M    P1
_symmetry_Int_Tables_number       1
_symmetry_cell_setting            triclinic
loop_
_symmetry_equiv_pos_as_xyz
'x, y, z'
_cell_length_a     47.279943
_cell_length_b     50.445317
_cell_length_c     50.15173
_cell_angle_alpha  93.945121
_cell_angle_beta   90.018268
_cell_angle_gamma 90.002769
loop_
_atom_site_label
_atom_site_type_symbol
_atom_site_fract_x
_atom_site_fract_y
_atom_site_fract_z
_atom_type_partial_charge
Sc0 Sc 0.1114 0.86512 0.06883 0.0
Sc1 Sc 0.12236 0.79598 0.06568 0.0
Sc2 Sc 0.17895 0.84007 0.08237 0.0
O3 O 0.13758 0.8337 0.07231 0.0
C4 C 0.16872 0.88622 0.0435 0.0
C5 C 0.09305 0.8262 0.01889 0.0
C6 C 0.1836 0.79085 0.03874 0.0
C7 C 0.06989 0.82442 0.09555 0.0
C8 C 0.14735 0.8846 0.12021 0.0
C9 C 0.16232 0.79124 0.11658 0.0
O10 O 0.14217 0.88694 0.0475 0.0
O11 O 0.1013 0.80506 0.02906 0.0
O12 O 0.19408 0.81087 0.05208 0.0
O13 O 0.07719 0.84758 0.08979 0.0
O14 O 0.16888 0.87041 0.11374 0.0
O15 O 0.14182 0.78323 0.10164 0.0
O16 O 0.12477 0.88409 0.10641 0.0
O17 O 0.08425 0.80382 0.0885 0.0
O18 O 0.17744 0.81125 0.11193 0.0
O19 O 0.09562 0.84915 0.03083 0.0
O20 O 0.18488 0.86976 0.05407 0.0
O21 O 0.15823 0.7833 0.04171 0.0
Sc22 Sc 0.68348 0.65706 0.46293 0.0
Sc23 Sc 0.62879 0.70216 0.48259 0.0
Sc24 Sc 0.61576 0.63333 0.47811 0.0
O25 O 0.64271 0.66419 0.47456 0.0
C26 C 0.65058 0.61299 0.42601 0.0
C27 C 0.66639 0.70689 0.43023 0.0
C28 C 0.57511 0.6751 0.45272 0.0
C29 C 0.69136 0.7054 0.507 0.0
C30 C 0.67283 0.61113 0.50243 0.0
C31 C 0.59886 0.6723 0.52874 0.0
O32 O 0.67178 0.62811 0.43083 0.0
O33 O 0.64621 0.71468 0.44567 0.0
O34 O 0.58272 0.6514 0.45609 0.0
O35 O 0.70044 0.68482 0.4936 0.0
O36 O 0.64602 0.61178 0.50038 0.0
O37 O 0.60994 0.69312 0.52023 0.0
O38 O 0.68908 0.62621 0.49007 0.0
O39 O 0.66632 0.71407 0.50459 0.0
O40 O 0.59888 0.64997 0.51535 0.0
O41 O 0.68184 0.68696 0.43445 0.0
O42 O 0.6292 0.61296 0.44133 0.0
O43 O 0.58914 0.69524 0.46184 0.0
Sc44 Sc 0.87394 0.20918 0.97813 0.0
Sc45 Sc 0.81882 0.16354 0.96084 0.0
Sc46 Sc 0.88629 0.14034 0.97731 0.0
O47 O 0.85967 0.17105 0.97208 0.0
C48 C 0.92791 0.18094 0.95063 0.0
C49 C 0.83588 0.21148 0.92561 0.0
C50 C 0.85245 0.11856 0.92541 0.0
C51 C 0.81161 0.21377 0.00288 0.0
C52 C 0.90214 0.18097 0.02673 0.0
C53 C 0.82859 0.11901 0.00165 0.0
O54 O 0.91307 0.20143 0.95687 0.0
O55 O 0.82085 0.19148 0.93046 0.0
O56 O 0.87447 0.11991 0.93998 0.0
O57 O 0.83688 0.22189 0.00049 0.0
O58 O 0.90053 0.15774 0.01525 0.0
O59 O 0.81246 0.13462 0.98988 0.0
O60 O 0.8938 0.20166 0.01581 0.0
O61 O 0.80215 0.19314 0.98982 0.0
O62 O 0.85528 0.11878 0.99858 0.0
O63 O 0.85572 0.22029 0.94096 0.0
O64 O 0.92077 0.15782 0.95666 0.0
O65 O 0.83048 0.13257 0.93067 0.0
Sc66 Sc 0.38872 0.35991 0.56279 0.0
Sc67 Sc 0.32162 0.33659 0.58049 0.0
Sc68 Sc 0.37613 0.29102 0.56151 0.0
O69 O 0.36215 0.32916 0.56828 0.0
C70 C 0.40435 0.31947 0.51308 0.0
C71 C 0.33062 0.3813 0.5395 0.0
C72 C 0.31335 0.28698 0.53781 0.0
C73 C 0.35567 0.38163 0.61538 0.0
C74 C 0.43041 0.31906 0.58894 0.0
C75 C 0.33902 0.28787 0.6145 0.0
O76 O 0.40326 0.3425 0.52502 0.0
O77 O 0.31488 0.36613 0.55223 0.0
O78 O 0.3386 0.27868 0.53968 0.0
O79 O 0.37698 0.38082 0.5999 0.0
O80 O 0.41554 0.29866 0.58232 0.0
O81 O 0.32397 0.30801 0.61019 0.0
O82 O 0.42321 0.34236 0.58347 0.0
O83 O 0.33404 0.36689 0.61106 0.0
O84 O 0.35865 0.27934 0.59878 0.0
O85 O 0.35745 0.38119 0.54138 0.0
O86 O 0.39529 0.29879 0.52354 0.0
O87 O 0.30425 0.30754 0.55125 0.0
H88 H 0.07403 0.1142 0.23753 0.0
H89 H 0.12281 0.1291 0.30942 0.0
H90 H 0.06462 0.18818 0.28447 0.0
C91 C 0.07932 0.12701 0.25507 0.0
C92 C 0.06674 0.15217 0.2587 0.0
C93 C 0.09928 0.11835 0.27333 0.0
C94 C 0.10741 0.1356 0.29526 0.0
C95 C 0.09476 0.16089 0.29921 0.0
C96 C 0.07446 0.16884 0.28102 0.0
N97 N 0.10115 0.17885 0.32141 0.0
C98 C 0.12361 0.17666 0.33897 0.0
H99 H 0.42369 0.61405 0.74161 0.0
H100 H 0.40897 0.69612 0.76535 0.0
H101 H 0.35377 0.63635 0.79368 0.0
C102 C 0.41195 0.62901 0.7536 0.0
C103 C 0.38796 0.62173 0.768 0.0
C104 C 0.41955 0.65572 0.75255 0.0
C105 C 0.40347 0.67536 0.76648 0.0
C106 C 0.38037 0.66852 0.78204 0.0
C107 C 0.37241 0.64164 0.78267 0.0
N108 N 0.36479 0.68946 0.79537 0.0
C109 C 0.34875 0.68727 0.8183 0.0
H110 H 0.80217 0.89223 0.13878 0.0
H111 H 0.76185 0.82399 0.16898 0.0
H112 H 0.71155 0.88586 0.13782 0.0
C113 C 0.78312 0.88165 0.14371 0.0
C114 C 0.7567 0.89234 0.13761 0.0
C115 C 0.7853 0.85696 0.15487 0.0
C116 C 0.76045 0.84303 0.16031 0.0
C117 C 0.73381 0.85356 0.15418 0.0
C118 C 0.73213 0.87786 0.1424 0.0
N119 N 0.70835 0.8402 0.15976 0.0
C120 C 0.70563 0.82494 0.18159 0.0
H121 H 0.70127 0.3746 0.61841 0.0
H122 H 0.74108 0.30545 0.64733 0.0
H123 H 0.79174 0.37168 0.6261 0.0
C124 C 0.72024 0.36416 0.62389 0.0
C125 C 0.74664 0.37646 0.62174 0.0
C126 C 0.71799 0.33843 0.63265 0.0
C127 C 0.74254 0.32527 0.64037 0.0
C128 C 0.7692 0.33727 0.63772 0.0
C129 C 0.77115 0.36252 0.6279 0.0
N130 N 0.79441 0.32424 0.64457 0.0
C131 C 0.79681 0.3115 0.66808 0.0
H132 H 0.58764 0.37966 0.31056 0.0
H133 H 0.6271 0.37191 0.23307 0.0
H134 H 0.56484 0.31499 0.25448 0.0
C135 C 0.59065 0.36871 0.29141 0.0
C136 C 0.57447 0.3458 0.28519 0.0
C137 C 0.60975 0.37835 0.27287 0.0
C138 C 0.61256 0.36465 0.24758 0.0
C139 C 0.59617 0.3418 0.241 0.0
C140 C 0.57713 0.33273 0.25972 0.0
N141 N 0.59764 0.32768 0.21559 0.0
C142 C 0.62074 0.32779 0.19849 0.0
H143 H 0.19617 0.11424 0.90852 0.0
H144 H 0.23704 0.18309 0.88003 0.0
H145 H 0.2867 0.1211 0.91167 0.0
C146 C 0.21529 0.12498 0.90414 0.0
C147 C 0.2416 0.11432 0.91069 0.0
C148 C 0.21329 0.14984 0.89327 0.0
C149 C 0.23823 0.16394 0.88851 0.0
C150 C 0.26472 0.15348 0.89519 0.0
C151 C 0.2662 0.12903 0.9067 0.0
N152 N 0.29022 0.16714 0.89056 0.0
C153 C 0.29441 0.18066 0.86773 0.0
H154 H 0.30462 0.61591 0.42097 0.0
H155 H 0.26627 0.67959 0.38097 0.0
H156 H 0.21411 0.62155 0.41637 0.0
C157 C 0.28588 0.62603 0.41442 0.0
C158 C 0.25914 0.61588 0.42016 0.0
C159 C 0.28877 0.64897 0.40031 0.0
C160 C 0.26432 0.66187 0.39187 0.0
C161 C 0.23734 0.65187 0.39767 0.0
C162 C 0.23493 0.62912 0.41197 0.0
N163 N 0.21223 0.66423 0.38936 0.0
C164 C 0.2106 0.67711 0.36586 0.0
H165 H 0.91031 0.88364 0.80965 0.0
H166 H 0.9403 0.81979 0.75572 0.0
H167 H 0.8749 0.87214 0.73078 0.0
C168 C 0.90947 0.87242 0.79042 0.0
C169 C 0.8906 0.88031 0.77092 0.0
C170 C 0.92763 0.85071 0.78522 0.0
C171 C 0.92622 0.83645 0.76023 0.0
C172 C 0.90694 0.84362 0.74073 0.0
C173 C 0.88922 0.86585 0.74599 0.0
N174 N 0.90681 0.82855 0.71579 0.0
C175 C 0.88384 0.82644 0.69851 0.0
H176 H 0.19466 0.90533 0.14574 0.0
H177 H 0.1964 0.94089 0.18169 0.0
H178 H 0.10527 0.94284 0.18396 0.0
H179 H 0.10329 0.90761 0.1482 0.0
H180 H 0.17106 0.99199 0.17636 0.0
H181 H 0.12824 0.9441 0.26377 0.0
H182 H 0.14325 0.9254 0.23513 0.0
H183 H 0.10753 0.93757 0.23401 0.0
C184 C 0.17501 0.91297 0.15428 0.0
C185 C 0.14883 0.90369 0.14403 0.0
C186 C 0.17606 0.9333 0.17477 0.0
C187 C 0.15098 0.94425 0.1857 0.0
C188 C 0.12489 0.93434 0.17616 0.0
H189 H 0.07007 0.07261 0.26246 0.0
H190 H 0.0888 0.02954 0.24605 0.0
C191 C 0.1238 0.91432 0.15554 0.0
C192 C 0.15155 0.96791 0.20495 0.0
H193 H 0.12417 0.99183 0.2648 0.0
C194 C 0.16151 0.99195 0.19602 0.0
C195 C 0.13908 0.9677 0.23054 0.0
C196 C 0.12915 0.94225 0.24158 0.0
C197 C 0.15718 0.01616 0.21104 0.0
C198 C 0.14311 0.01617 0.23599 0.0
C199 C 0.13494 0.99184 0.24571 0.0
C200 C 0.13274 0.04118 0.25005 0.0
C201 C 0.16572 0.04164 0.1991 0.0
C202 C 0.15122 0.06182 0.25889 0.0
C203 C 0.14046 0.0867 0.26816 0.0
C204 C 0.11111 0.09116 0.26874 0.0
C205 C 0.09279 0.06984 0.26182 0.0
C206 C 0.10348 0.04516 0.25256 0.0
H207 H 0.17207 0.03833 0.1778 0.0
H208 H 0.14807 0.05619 0.20045 0.0
H209 H 0.18395 0.05055 0.21039 0.0
H210 H 0.17389 0.059 0.25766 0.0
H211 H 0.15503 0.10277 0.27345 0.0
H212 H 0.60842 0.70773 0.57198 0.0
H213 H 0.5852 0.70863 0.61586 0.0
H214 H 0.5329 0.64236 0.58784 0.0
H215 H 0.55664 0.64063 0.54476 0.0
H216 H 0.53299 0.71696 0.63171 0.0
H217 H 0.56104 0.61535 0.6554 0.0
H218 H 0.57696 0.63104 0.62784 0.0
H219 H 0.54342 0.61414 0.62374 0.0
C220 C 0.59208 0.69328 0.57533 0.0
C221 C 0.58463 0.67387 0.55507 0.0
C222 C 0.57886 0.69379 0.60038 0.0
C223 C 0.55787 0.67504 0.60544 0.0
C224 C 0.5498 0.65633 0.58485 0.0
H225 H 0.4156 0.6838 0.70861 0.0
H226 H 0.45274 0.69144 0.67614 0.0
C227 C 0.56327 0.6555 0.56011 0.0
C228 C 0.54339 0.67536 0.63175 0.0
H229 H 0.51907 0.63386 0.67745 0.0
C230 C 0.53037 0.69891 0.64202 0.0
C231 C 0.54068 0.6521 0.64581 0.0
C232 C 0.5566 0.62687 0.63775 0.0
C233 C 0.51314 0.69933 0.66487 0.0
C234 C 0.50789 0.67532 0.67712 0.0
C235 C 0.5225 0.65223 0.66788 0.0
C236 C 0.48604 0.67304 0.6982 0.0
C237 C 0.50078 0.72554 0.67549 0.0
C238 C 0.492 0.65948 0.72115 0.0
C239 C 0.47049 0.65431 0.73922 0.0
C240 C 0.44282 0.66307 0.7349 0.0
C241 C 0.43696 0.67729 0.71249 0.0
C242 C 0.45827 0.68189 0.6941 0.0
H243 H 0.51519 0.74223 0.67155 0.0
H244 H 0.48057 0.729 0.66503 0.0
H245 H 0.49672 0.72593 0.69731 0.0
H246 H 0.51315 0.65229 0.72475 0.0
H247 H 0.47534 0.64319 0.75637 0.0
H248 H 0.7722 0.11027 0.01114 0.0
H249 H 0.75152 0.07453 0.0355 0.0
H250 H 0.83505 0.04712 0.05433 0.0
H251 H 0.85597 0.08251 0.03013 0.0
H252 H 0.79634 0.00803 0.0283 0.0
H253 H 0.75107 0.06346 0.11835 0.0
H254 H 0.74397 0.07562 0.08606 0.0
H255 H 0.77929 0.0769 0.09908 0.0
C256 C 0.7862 0.09686 0.02075 0.0
C257 C 0.81579 0.09919 0.0185 0.0
C258 C 0.77431 0.07652 0.03471 0.0
C259 C 0.79181 0.05832 0.0467 0.0
C260 C 0.82125 0.06104 0.04517 0.0
H261 H 0.78532 0.93745 0.15374 0.0
H262 H 0.78802 0.9787 0.13104 0.0
C263 C 0.83314 0.08131 0.03131 0.0
C264 C 0.77983 0.03526 0.05934 0.0
H265 H 0.74675 0.01682 0.11563 0.0
C266 C 0.78514 0.00988 0.04722 0.0
C267 C 0.76533 0.03795 0.084 0.0
C268 C 0.75959 0.06489 0.09785 0.0
C269 C 0.77723 0.98695 0.05959 0.0
C270 C 0.7633 0.98956 0.08458 0.0
C271 C 0.75719 0.01498 0.09634 0.0
C272 C 0.75809 0.96616 0.10006 0.0
C273 C 0.78517 0.96013 0.04648 0.0
C274 C 0.73968 0.94581 0.09057 0.0
C275 C 0.73825 0.92209 0.1034 0.0
C276 C 0.75524 0.91847 0.12588 0.0
C277 C 0.77238 0.93953 0.13617 0.0
C278 C 0.77376 0.96317 0.12338 0.0
H279 H 0.79991 0.9618 0.02943 0.0
H280 H 0.79524 0.9476 0.06118 0.0
H281 H 0.76578 0.94978 0.03885 0.0
H282 H 0.72721 0.94793 0.07272 0.0
H283 H 0.72486 0.90619 0.09506 0.0
H284 H 0.45349 0.27287 0.60531 0.0
H285 H 0.50111 0.26646 0.62286 0.0
H286 H 0.51801 0.35012 0.61893 0.0
H287 H 0.47051 0.35684 0.60205 0.0
H288 H 0.54915 0.27405 0.59725 0.0
H289 H 0.55083 0.33795 0.6908 0.0
H290 H 0.51823 0.32837 0.67398 0.0
H291 H 0.53821 0.35649 0.664 0.0
C292 C 0.46715 0.29001 0.60865 0.0
C293 C 0.45811 0.31539 0.60217 0.0
C294 C 0.49437 0.28629 0.61871 0.0
C295 C 0.51302 0.30785 0.62264 0.0
C296 C 0.50379 0.33327 0.61682 0.0
H297 H 0.68063 0.33401 0.59175 0.0
H298 H 0.6316 0.31937 0.59293 0.0
C299 C 0.47661 0.33704 0.6069 0.0
C300 C 0.54308 0.30366 0.62986 0.0
H301 H 0.59642 0.33139 0.6682 0.0
C302 C 0.55936 0.2861 0.61322 0.0
C303 C 0.55644 0.31881 0.65108 0.0
C304 C 0.53989 0.33621 0.67114 0.0
C305 C 0.5889 0.28516 0.61568 0.0
C306 C 0.6025 0.30262 0.6349 0.0
C307 C 0.58605 0.31831 0.65315 0.0
C308 C 0.63332 0.30791 0.63373 0.0
C309 C 0.60531 0.2662 0.59697 0.0
C310 C 0.6507 0.30645 0.65634 0.0
C311 C 0.67891 0.31502 0.65572 0.0
C312 C 0.68984 0.32557 0.63264 0.0
C313 C 0.67266 0.32607 0.60983 0.0
C314 C 0.64472 0.31744 0.6104 0.0
H315 H 0.5927 0.24809 0.59133 0.0
H316 H 0.61012 0.276 0.57835 0.0
H317 H 0.62554 0.26018 0.60606 0.0
H318 H 0.64222 0.2994 0.67462 0.0
H319 H 0.69172 0.31461 0.6736 0.0
H320 H 0.69225 0.60472 0.38778 0.0
H321 H 0.69347 0.57013 0.35089 0.0
H322 H 0.61182 0.542 0.37486 0.0
H323 H 0.61002 0.5765 0.41092 0.0
H324 H 0.6938 0.51743 0.35334 0.0
H325 H 0.59979 0.54357 0.29609 0.0
H326 H 0.61534 0.56637 0.32129 0.0
H327 H 0.59024 0.54162 0.33045 0.0
C328 C 0.67435 0.59144 0.38489 0.0
C329 C 0.651 0.59353 0.40236 0.0
C330 C 0.6751 0.57166 0.36381 0.0
C331 C 0.65248 0.55377 0.35972 0.0
C332 C 0.62915 0.55603 0.377 0.0
H333 H 0.63602 0.39289 0.32003 0.0
H334 H 0.65253 0.43694 0.33542 0.0
C335 C 0.6283 0.57573 0.39787 0.0
C336 C 0.65379 0.53125 0.33903 0.0
H337 H 0.61211 0.49636 0.29355 0.0
C338 C 0.67627 0.51312 0.33977 0.0
C339 C 0.63143 0.52586 0.32067 0.0
C340 C 0.60805 0.5456 0.31687 0.0
C341 C 0.67566 0.48871 0.32448 0.0
C342 C 0.65156 0.48196 0.30865 0.0
C343 C 0.63039 0.50115 0.30603 0.0
C344 C 0.64597 0.45431 0.29758 0.0
C345 C 0.70056 0.4702 0.32604 0.0
C346 C 0.63663 0.44913 0.2711 0.0
C347 C 0.62648 0.42389 0.26238 0.0
C348 C 0.62534 0.40345 0.28006 0.0
C349 C 0.6363 0.40829 0.30601 0.0
C350 C 0.6462 0.43346 0.31473 0.0
H351 H 0.72057 0.48161 0.32875 0.0
H352 H 0.69805 0.45826 0.34366 0.0
H353 H 0.7024 0.45651 0.30781 0.0
H354 H 0.63607 0.46491 0.25751 0.0
H355 H 0.618 0.42086 0.24234 0.0
H356 H 0.96154 0.142 0.92694 0.0
H357 H 0.0093 0.14669 0.90934 0.0
H358 H 0.00501 0.23151 0.92632 0.0
H359 H 0.95705 0.22713 0.94401 0.0
H360 H 0.03221 0.18261 0.86735 0.0
H361 H 0.07358 0.20199 0.97106 0.0
H362 H 0.0398 0.18613 0.96455 0.0
H363 H 0.04378 0.221 0.96068 0.0
C364 C 0.97055 0.16173 0.92669 0.0
C365 C 0.95552 0.18417 0.93717 0.0
C366 C 0.99781 0.16436 0.9165 0.0
C367 C 0.01066 0.1894 0.91673 0.0
C368 C 0.99541 0.212 0.9261 0.0
H369 H 0.19483 0.20054 0.90648 0.0
H370 H 0.14581 0.21634 0.90692 0.0
C371 C 0.968 0.20943 0.93616 0.0
C372 C 0.04079 0.19129 0.90919 0.0
H373 H 0.10672 0.19568 0.93666 0.0
C374 C 0.04857 0.18589 0.88238 0.0
C375 C 0.06198 0.19583 0.92884 0.0
C376 C 0.0546 0.20148 0.95796 0.0
C377 C 0.07716 0.18396 0.87483 0.0
C378 C 0.09839 0.18674 0.89476 0.0
C379 C 0.09051 0.19356 0.92136 0.0
C380 C 0.12839 0.17948 0.88933 0.0
C381 C 0.08425 0.17858 0.84565 0.0
C382 C 0.13505 0.15381 0.87858 0.0
C383 C 0.16298 0.14488 0.87805 0.0
C384 C 0.18487 0.16126 0.88868 0.0
C385 C 0.17847 0.18751 0.89797 0.0
C386 C 0.15044 0.19651 0.89838 0.0
H387 H 0.06804 0.1873 0.8328 0.0
H388 H 0.10528 0.18675 0.84076 0.0
H389 H 0.08443 0.1568 0.84068 0.0
H390 H 0.11847 0.14003 0.87205 0.0
H391 H 0.16729 0.12464 0.87051 0.0
H392 H 0.27401 0.39167 0.53428 0.0
H393 H 0.25225 0.42733 0.51076 0.0
H394 H 0.33455 0.45172 0.48465 0.0
H395 H 0.35652 0.41611 0.5078 0.0
H396 H 0.26303 0.48084 0.52224 0.0
H397 H 0.28746 0.45203 0.41631 0.0
H398 H 0.28931 0.42883 0.44215 0.0
H399 H 0.31816 0.45128 0.4373 0.0
C400 C 0.28749 0.40432 0.52317 0.0
C401 C 0.31708 0.40106 0.52305 0.0
C402 C 0.27498 0.42469 0.50976 0.0
C403 C 0.29175 0.44194 0.49574 0.0
C404 C 0.32116 0.43828 0.49491 0.0
H405 H 0.28704 0.6028 0.46492 0.0
H406 H 0.28858 0.55942 0.48373 0.0
C407 C 0.33371 0.418 0.50835 0.0
C408 C 0.27906 0.46531 0.48408 0.0
H409 H 0.27737 0.49843 0.42708 0.0
C410 C 0.26565 0.48449 0.50131 0.0
C411 C 0.28211 0.46984 0.45673 0.0
C412 C 0.29478 0.44926 0.43699 0.0
C413 C 0.2569 0.50886 0.49226 0.0
C414 C 0.26204 0.51422 0.4654 0.0
C415 C 0.27371 0.49436 0.44775 0.0
C416 C 0.25823 0.54108 0.45587 0.0
C417 C 0.24291 0.52893 0.51167 0.0
C418 C 0.24065 0.54512 0.43397 0.0
C419 C 0.23984 0.56992 0.42312 0.0
C420 C 0.25691 0.59086 0.4338 0.0
C421 C 0.27379 0.58694 0.45624 0.0
C422 C 0.27448 0.56226 0.46714 0.0
H423 H 0.23246 0.51911 0.52822 0.0
H424 H 0.25921 0.54267 0.52059 0.0
H425 H 0.22694 0.54084 0.50151 0.0
H426 H 0.22816 0.52892 0.42487 0.0
H427 H 0.22687 0.57235 0.40564 0.0
H428 H 0.07568 0.78121 0.98926 0.0
H429 H 0.05197 0.77872 0.94565 0.0
H430 H 0.05613 0.864 0.9445 0.0
H431 H 0.07979 0.86678 0.98775 0.0
H432 H 0.99988 0.80395 0.93383 0.0
H433 H 0.08714 0.83744 0.87062 0.0
H434 H 0.09301 0.82535 0.90326 0.0
H435 H 0.08138 0.85895 0.90015 0.0
C436 C 0.07179 0.79942 0.97961 0.0
C437 C 0.07965 0.8242 0.99207 0.0
C438 C 0.05824 0.79794 0.95471 0.0
C439 C 0.05271 0.82114 0.94171 0.0
C440 C 0.06072 0.84582 0.95396 0.0
H441 H 0.96086 0.88421 0.81669 0.0
H442 H 0.99225 0.873 0.85288 0.0
C443 C 0.07406 0.84735 0.97883 0.0
C444 C 0.03699 0.82006 0.91611 0.0
H445 H 0.04025 0.8403 0.85264 0.0
C446 C 0.00879 0.81139 0.91587 0.0
C447 C 0.04877 0.82977 0.89278 0.0
C448 C 0.07933 0.83817 0.89155 0.0
C449 C 0.99148 0.81373 0.89338 0.0
C450 C 0.00293 0.82457 0.87044 0.0
C451 C 0.03152 0.83207 0.87029 0.0
C452 C 0.98497 0.83063 0.84741 0.0
C453 C 0.96071 0.80602 0.89492 0.0
C454 C 0.97088 0.81045 0.83197 0.0
C455 C 0.95265 0.81684 0.81135 0.0
C456 C 0.94831 0.84351 0.80584 0.0
C457 C 0.96329 0.86353 0.82078 0.0
C458 C 0.98142 0.85714 0.84133 0.0
H459 H 0.95407 0.80272 0.91568 0.0
H460 H 0.94701 0.82162 0.88714 0.0
H461 H 0.95714 0.78731 0.88241 0.0
H462 H 0.97372 0.78982 0.83606 0.0
H463 H 0.94141 0.80098 0.8002 0.0
H464 H 0.89769 0.09452 0.90023 0.0
H465 H 0.89725 0.05698 0.86693 0.0
H466 H 0.80605 0.05837 0.86596 0.0
H467 H 0.80629 0.09649 0.899 0.0
H468 H 0.87445 0.00975 0.87726 0.0
H469 H 0.82461 0.04635 0.78651 0.0
H470 H 0.83835 0.06845 0.81331 0.0
H471 H 0.80459 0.05269 0.81673 0.0
C472 C 0.8775 0.08721 0.8926 0.0
C473 C 0.85201 0.0984 0.90245 0.0
C474 C 0.8773 0.06575 0.87351 0.0
C475 C 0.85164 0.05489 0.86385 0.0
C476 C 0.82612 0.0667 0.87273 0.0
H477 H 0.84831 0.88864 0.80706 0.0
H478 H 0.8328 0.93195 0.82697 0.0
C479 C 0.8263 0.08842 0.89173 0.0
C480 C 0.85188 0.02948 0.84703 0.0
H481 H 0.8325 -0.00029 0.78643 0.0
C482 C 0.86526 0.0076 0.8574 0.0
C483 C 0.83997 0.02672 0.82109 0.0
C484 C 0.82627 0.04983 0.80858 0.0
C485 C 0.86733 0.98313 0.84257 0.0
C486 C 0.85496 0.98013 0.81683 0.0
C487 C 0.84155 0.00197 0.80633 0.0
C488 C 0.85749 0.95471 0.8003 0.0
C489 C 0.88354 0.96091 0.85436 0.0
C490 C 0.87471 0.95323 0.77743 0.0
C491 C 0.8831 0.92848 0.76572 0.0
C492 C 0.8744 0.90502 0.77681 0.0
C493 C 0.85506 0.90652 0.79809 0.0
C494 C 0.8464 0.93121 0.80956 0.0
H495 H 0.89716 0.96833 0.87133 0.0
H496 H 0.86838 0.94642 0.86193 0.0
H497 H 0.89711 0.95028 0.83903 0.0
H498 H 0.88348 0.97113 0.76998 0.0
H499 H 0.89834 0.92774 0.74956 0.0
H500 H 0.42724 0.35901 0.48547 0.0
H501 H 0.45045 0.35525 0.44222 0.0
H502 H 0.43439 0.27091 0.43551 0.0
H503 H 0.41134 0.27433 0.47946 0.0
H504 H 0.48876 0.28246 0.42311 0.0
H505 H 0.41731 0.34574 0.36811 0.0
H506 H 0.42873 0.36289 0.39871 0.0
H507 H 0.40766 0.33319 0.39972 0.0
C508 C 0.42832 0.33961 0.47483 0.0
C509 C 0.4173 0.31696 0.48605 0.0
C510 C 0.44144 0.33756 0.4499 0.0
C511 C 0.44361 0.31291 0.43534 0.0
C512 C 0.43266 0.29019 0.44632 0.0
H513 H 0.52072 0.32599 0.27731 0.0
H514 H 0.48767 0.31192 0.31118 0.0
C515 C 0.41951 0.29219 0.47143 0.0
C516 C 0.4591 0.31106 0.40956 0.0
H517 H 0.46542 0.34182 0.35136 0.0
C518 C 0.48335 0.29502 0.40715 0.0
C519 C 0.45174 0.32694 0.38843 0.0
C520 C 0.42474 0.34291 0.38874 0.0
C521 C 0.50153 0.29598 0.38511 0.0
C522 C 0.49563 0.31391 0.36532 0.0
C523 C 0.47027 0.32841 0.36674 0.0
C524 C 0.51646 0.31971 0.34435 0.0
C525 C 0.52714 0.2781 0.38353 0.0
C526 C 0.54362 0.32876 0.3517 0.0
C527 C 0.5626 0.33653 0.33242 0.0
C528 C 0.55472 0.33586 0.30534 0.0
C529 C 0.5276 0.32647 0.29793 0.0
C530 C 0.50863 0.31855 0.31728 0.0
H531 H 0.52318 0.25957 0.3937 0.0
H532 H 0.53331 0.2727 0.36249 0.0
H533 H 0.54515 0.28852 0.39385 0.0
H534 H 0.54994 0.33052 0.37251 0.0
H535 H 0.58341 0.34335 0.3388 0.0
H536 H 0.22474 0.89269 0.03078 0.0
H537 H 0.24574 0.929 0.00745 0.0
H538 H 0.16283 0.96191 0.9961 0.0
H539 H 0.14158 0.92595 0.01927 0.0
H540 H 0.23307 0.94768 0.9537 0.0
H541 H 0.21048 0.02169 0.03804 0.0
H542 H 0.21088 0.98632 0.04177 0.0
H543 H 0.18064 0.00157 0.0274 0.0
C544 C 0.21091 0.90751 0.02313 0.0
C545 C 0.18145 0.90652 0.02718 0.0
C546 C 0.22298 0.9282 0.00981 0.0
C547 C 0.20582 0.94824 0.00051 0.0
C548 C 0.17641 0.94677 0.00354 0.0
H549 H 0.21332 0.06929 0.89357 0.0
H550 H 0.21095 0.02747 0.91519 0.0
C551 C 0.16432 0.92613 0.01673 0.0
C552 C 0.21839 0.97131 0.98833 0.0
H553 H 0.22225 0.03885 0.99631 0.0
C554 C 0.23113 0.96761 0.96311 0.0
C555 C 0.21629 0.99715 0.00095 0.0
C556 C 0.20408 0.00201 0.02866 0.0
C557 C 0.24034 0.98941 0.94944 0.0
C558 C 0.23634 0.01542 0.96128 0.0
C559 C 0.22514 0.01891 0.98719 0.0
C560 C 0.24094 0.03936 0.94638 0.0
C561 C 0.2538 0.98444 0.9223 0.0
C562 C 0.25848 0.06001 0.95683 0.0
C563 C 0.25961 0.08411 0.94466 0.0
C564 C 0.24294 0.08799 0.92204 0.0
C565 C 0.22616 0.06694 0.91114 0.0
C566 C 0.22509 0.0429 0.92326 0.0
H567 H 0.26384 0.96449 0.92012 0.0
H568 H 0.23725 0.98515 0.90667 0.0
H569 H 0.27001 -0.00028 0.91871 0.0
H570 H 0.27065 0.05773 0.97484 0.0
H571 H 0.27256 0.10006 0.95359 0.0
H572 H 0.54282 0.63813 0.42421 0.0
H573 H 0.49538 0.64392 0.40644 0.0
H574 H 0.49763 0.7271 0.43264 0.0
H575 H 0.54523 0.72156 0.45063 0.0
H576 H 0.45113 0.69927 0.45129 0.0
H577 H 0.46282 0.67986 0.34194 0.0
H578 H 0.47976 0.65519 0.36058 0.0
H579 H 0.4923 0.68894 0.36364 0.0
C580 C 0.5335 0.65779 0.42583 0.0
C581 C 0.54782 0.67934 0.43903 0.0
C582 C 0.50643 0.66111 0.41541 0.0
C583 C 0.49313 0.68601 0.41791 0.0
C584 C 0.50766 0.70778 0.43028 0.0
H585 H 0.30753 0.70047 0.40726 0.0
H586 H 0.35684 0.71568 0.407 0.0
C587 C 0.53486 0.70454 0.44056 0.0
C588 C 0.46291 0.68829 0.41061 0.0
H589 H 0.41614 0.67357 0.3599 0.0
C590 C 0.4434 0.6943 0.4312 0.0
C591 C 0.45301 0.68176 0.38439 0.0
C592 C 0.47309 0.67632 0.36131 0.0
C593 C 0.41418 0.69198 0.42672 0.0
C594 C 0.40424 0.6841 0.40073 0.0
C595 C 0.42377 0.67964 0.37979 0.0
C596 C 0.3742 0.67677 0.39585 0.0
C597 C 0.3944 0.69612 0.45028 0.0
C598 C 0.36752 0.65031 0.38792 0.0
C599 C 0.33949 0.64172 0.38764 0.0
C600 C 0.31754 0.6594 0.39541 0.0
C601 C 0.32401 0.68638 0.40128 0.0
C602 C 0.35217 0.69503 0.40141 0.0
H603 H 0.40589 0.69733 0.46966 0.0
H604 H 0.38264 0.71498 0.4488 0.0
H605 H 0.37878 0.67969 0.45041 0.0
H606 H 0.38413 0.63592 0.38332 0.0
H607 H 0.33509 0.62093 0.38246 0.0
H608 H 0.39865 0.41511 0.63179 0.0
H609 H 0.39698 0.45212 0.66561 0.0
H610 H 0.31112 0.43209 0.68482 0.0
H611 H 0.31238 0.39475 0.65072 0.0
H612 H 0.34882 0.49368 0.6623 0.0
H613 H 0.36048 0.4462 0.75883 0.0
H614 H 0.37567 0.43135 0.72828 0.0
H615 H 0.3381 0.43121 0.73277 0.0
C616 C 0.37945 0.41821 0.64336 0.0
C617 C 0.35555 0.40198 0.63829 0.0
C618 C 0.3786 0.4394 0.66274 0.0
C619 C 0.35398 0.44475 0.67768 0.0
C620 C 0.33039 0.42809 0.67357 0.0
H621 H 0.33434 0.60445 0.75602 0.0
H622 H 0.32068 0.55972 0.7385 0.0
C623 C 0.33117 0.40681 0.65405 0.0
C624 C 0.35252 0.46927 0.6956 0.0
H625 H 0.36031 0.4931 0.76061 0.0
C626 C 0.35083 0.49362 0.68384 0.0
C627 C 0.35538 0.46895 0.7236 0.0
C628 C 0.35758 0.4431 0.73685 0.0
C629 C 0.35285 0.5178 0.69927 0.0
C630 C 0.35631 0.5176 0.72731 0.0
C631 C 0.35731 0.49318 0.73918 0.0
C632 C 0.36205 0.54255 0.74383 0.0
C633 C 0.35277 0.54337 0.68526 0.0
C634 C 0.38928 0.54723 0.7542 0.0
C635 C 0.39707 0.57266 0.76439 0.0
C636 C 0.37773 0.59386 0.76441 0.0
C637 C 0.34968 0.58852 0.75638 0.0
C638 C 0.3419 0.56303 0.74615 0.0
H639 H 0.35474 0.53981 0.66323 0.0
H640 H 0.33262 0.55408 0.6896 0.0
H641 H 0.37039 0.55648 0.69259 0.0
H642 H 0.40511 0.53167 0.75269 0.0
H643 H 0.41875 0.57613 0.77071 0.0
H644 H 0.04059 0.77836 0.10235 0.0
H645 H 0.99286 0.77421 0.12063 0.0
H646 H 0.98952 0.85897 0.1384 0.0
H647 H 0.03707 0.86342 0.12026 0.0
H648 H 0.96641 0.8238 0.18005 0.0
H649 H 0.92441 0.80374 0.07667 0.0
H650 H 0.95379 0.78423 0.08707 0.0
H651 H 0.95854 0.81896 0.08291 0.0
C652 C 0.0299 0.79609 0.11052 0.0
C653 C 0.04257 0.82128 0.10954 0.0
C654 C 0.00263 0.79366 0.12091 0.0
C655 C 0.98768 0.81631 0.13062 0.0
C656 C 0.00077 0.84126 0.13097 0.0
H657 H 0.83165 0.88237 0.17665 0.0
H658 H 0.88039 0.86677 0.175 0.0
C659 C 0.02791 0.84376 0.12046 0.0
C660 C 0.95757 0.81463 0.13833 0.0
H661 H 0.89148 0.81021 0.11121 0.0
C662 C 0.94995 0.8204 0.16512 0.0
C663 C 0.93626 0.80997 0.11881 0.0
C664 C 0.94343 0.80398 0.08969 0.0
C665 C 0.92142 0.82258 0.17279 0.0
C666 C 0.90009 0.81964 0.15298 0.0
C667 C 0.90778 0.81245 0.12642 0.0
C668 C 0.87016 0.82713 0.15846 0.0
C669 C 0.9145 0.8284 0.20196 0.0
C670 C 0.84798 0.81007 0.14983 0.0
C671 C 0.81999 0.81917 0.1503 0.0
C672 C 0.81378 0.84556 0.15923 0.0
C673 C 0.83582 0.86202 0.16939 0.0
C674 C 0.86371 0.85298 0.16881 0.0
H675 H 0.93075 0.81984 0.21487 0.0
H676 H 0.9144 0.85023 0.2066 0.0
H677 H 0.89347 0.82037 0.20706 0.0
H678 H 0.85246 0.7901 0.14159 0.0
H679 H 0.80351 0.80608 0.14216 0.0
H680 H 0.72907 0.60396 0.51362 0.0
H681 H 0.75037 0.56717 0.53598 0.0
H682 H 0.66749 0.5352 0.54956 0.0
H683 H 0.64589 0.57174 0.52742 0.0
H684 H 0.73554 0.54653 0.59175 0.0
H685 H 0.71705 0.47728 0.5023 0.0
H686 H 0.71892 0.51291 0.50054 0.0
H687 H 0.68759 0.49795 0.51303 0.0
C688 C 0.71531 0.58928 0.52162 0.0
C689 C 0.68574 0.59069 0.51847 0.0
C690 C 0.72755 0.56834 0.5344 0.0
C691 C 0.71044 0.54848 0.54408 0.0
C692 C 0.68097 0.55035 0.54199 0.0
H693 H 0.71558 0.41912 0.6403 0.0
H694 H 0.7134 0.4628 0.62224 0.0
C695 C 0.6687 0.57128 0.52935 0.0
C696 C 0.72315 0.5249 0.55512 0.0
H697 H 0.72963 0.45794 0.54248 0.0
C698 C 0.73468 0.52718 0.58092 0.0
C699 C 0.72235 0.49988 0.54067 0.0
C700 C 0.71103 0.49672 0.51249 0.0
C701 C 0.74405 0.50463 0.59328 0.0
C702 C 0.74153 0.47934 0.57944 0.0
C703 C 0.73149 0.47736 0.55306 0.0
C704 C 0.74616 0.45443 0.59271 0.0
C705 C 0.75602 0.50796 0.62118 0.0
C706 C 0.76531 0.43523 0.58207 0.0
C707 C 0.76647 0.41013 0.59228 0.0
C708 C 0.74815 0.40383 0.61298 0.0
C709 C 0.72975 0.42343 0.62418 0.0
C710 C 0.72873 0.44848 0.61411 0.0
H711 H 0.76485 0.52821 0.62549 0.0
H712 H 0.73887 0.50508 0.6358 0.0
H713 H 0.77286 0.49311 0.62419 0.0
H714 H 0.77871 0.43939 0.56534 0.0
H715 H 0.78071 0.3953 0.58321 0.0
H716 H 0.90949 0.14211 0.06125 0.0
H717 H 0.933 0.14557 0.10461 0.0
H718 H 0.94724 0.22915 0.09721 0.0
H719 H 0.92352 0.22596 0.05353 0.0
H720 H 0.99659 0.19739 0.10927 0.0
H721 H 0.90687 0.18189 0.1776 0.0
H722 H 0.90827 0.15842 0.14901 0.0
H723 H 0.90212 0.19297 0.14437 0.0
C724 C 0.91736 0.16133 0.06887 0.0
C725 C 0.91471 0.18376 0.05385 0.0
C726 C 0.93059 0.16329 0.09378 0.0
C727 C 0.94151 0.18767 0.10421 0.0
C728 C 0.93867 0.21022 0.08954 0.0
H729 H 0.06158 0.20143 0.23902 0.0
H730 H 0.0295 0.2146 0.20397 0.0
C731 C 0.92512 0.20835 0.06463 0.0
C732 C 0.95787 0.18872 0.12941 0.0
H733 H 0.95328 0.17444 0.19479 0.0
C734 C 0.98714 0.19293 0.12816 0.0
C735 C 0.94538 0.18276 0.15388 0.0
C736 C 0.91388 0.17898 0.15646 0.0
C737 C 0.00457 0.18969 0.15037 0.0
C738 C 0.9922 0.18271 0.17464 0.0
C739 C 0.96273 0.17975 0.17618 0.0
C740 C 0.00968 0.17599 0.19779 0.0
C741 C 0.03619 0.19217 0.14714 0.0
C742 C 0.00823 0.15032 0.20683 0.0
C743 C 0.02612 0.14288 0.22715 0.0
C744 C 0.04596 0.16095 0.23883 0.0
C745 C 0.04654 0.18703 0.2305 0.0
C746 C 0.02845 0.19451 0.21025 0.0
H747 H 0.04253 0.19188 0.12579 0.0
H748 H 0.04337 0.21127 0.15717 0.0
H749 H 0.04736 0.1758 0.15648 0.0
H750 H 0.99373 0.13576 0.19765 0.0
H751 H 0.02465 0.12283 0.23349 0.0
H752 H 0.2033 0.80322 0.15401 0.0
H753 H 0.21222 0.78166 0.19517 0.0
H754 H 0.14469 0.72612 0.17602 0.0
H755 H 0.1352 0.74782 0.13477 0.0
H756 H 0.14218 0.7489 0.22792 0.0
H757 H 0.24973 0.71007 0.2047 0.0
H758 H 0.24616 0.74498 0.20057 0.0
H759 H 0.22636 0.72147 0.17941 0.0
C760 C 0.19042 0.78628 0.15833 0.0
C761 C 0.16854 0.77723 0.14096 0.0
C762 C 0.1957 0.77389 0.18185 0.0
C763 C 0.17941 0.75206 0.18841 0.0
C764 C 0.15761 0.74287 0.17118 0.0
H765 H 0.21552 0.65098 0.31778 0.0
H766 H 0.20759 0.66902 0.27413 0.0
C767 C 0.15226 0.75528 0.1476 0.0
C768 C 0.18434 0.73971 0.21392 0.0
H769 H 0.23487 0.7099 0.25016 0.0
C770 C 0.16237 0.7402 0.23275 0.0
C771 C 0.21062 0.72816 0.22 0.0
C772 C 0.23449 0.72586 0.20002 0.0
C773 C 0.16618 0.72996 0.2578 0.0
C774 C 0.19283 0.71941 0.2643 0.0
C775 C 0.21459 0.71834 0.24523 0.0
C776 C 0.19839 0.70888 0.29061 0.0
C777 C 0.14155 0.73024 0.27696 0.0
C778 C 0.19638 0.72548 0.31421 0.0
C779 C 0.20087 0.71518 0.33905 0.0
C780 C 0.20762 0.68829 0.34043 0.0
C781 C 0.21032 0.67183 0.31693 0.0
C782 C 0.2058 0.68209 0.29212 0.0
H783 H 0.12105 0.73251 0.26652 0.0
H784 H 0.14089 0.71172 0.28768 0.0
H785 H 0.14391 0.74728 0.292 0.0
H786 H 0.19123 0.74633 0.31342 0.0
H787 H 0.19878 0.72811 0.35711 0.0
H788 H 0.74641 0.69347 0.51901 0.0
H789 H 0.77731 0.71684 0.55193 0.0
H790 H 0.71075 0.77297 0.57245 0.0
H791 H 0.67977 0.75003 0.53944 0.0
H792 H 0.76332 0.79695 0.56587 0.0
H793 H 0.77064 0.71446 0.63329 0.0
H794 H 0.78017 0.70527 0.59924 0.0
H795 H 0.74445 0.71517 0.60715 0.0
C796 C 0.73829 0.71078 0.53049 0.0
C797 C 0.71049 0.71974 0.52659 0.0
C798 C 0.75596 0.72404 0.54941 0.0
C799 C 0.74617 0.7464 0.56491 0.0
C800 C 0.71867 0.75568 0.56078 0.0
H801 H 0.83039 0.81218 0.70947 0.0
H802 H 0.79466 0.7953 0.67694 0.0
C803 C 0.70098 0.74247 0.54189 0.0
C804 C 0.76462 0.76024 0.58536 0.0
H805 H 0.80154 0.75109 0.6425 0.0
C806 C 0.7716 0.78699 0.5827 0.0
C807 C 0.775 0.74732 0.60752 0.0
C808 C 0.76701 0.71905 0.61221 0.0
C809 C 0.78928 0.80098 0.60129 0.0
C810 C 0.80054 0.78774 0.62288 0.0
C811 C 0.79301 0.76118 0.62586 0.0
C812 C 0.8208 0.80071 0.64227 0.0
C813 C 0.79552 0.82986 0.59778 0.0
C814 C 0.84717 0.8096 0.63356 0.0
C815 C 0.8674 0.81933 0.65209 0.0
C816 C 0.86156 0.82019 0.67952 0.0
C817 C 0.83506 0.81195 0.6883 0.0
C818 C 0.81479 0.80223 0.66978 0.0
H819 H 0.77919 0.83892 0.58531 0.0
H820 H 0.79672 0.84146 0.61738 0.0
H821 H 0.8162 0.83147 0.58757 0.0
H822 H 0.85253 0.80806 0.61252 0.0
H823 H 0.88798 0.82522 0.64503 0.0
H824 H 0.82391 0.25848 0.03507 0.0
H825 H 0.79362 0.28136 0.06875 0.0
H826 H 0.72628 0.22594 0.04854 0.0
H827 H 0.75644 0.20267 0.015 0.0
H828 H 0.74043 0.30567 0.06407 0.0
H829 H 0.73592 0.22145 0.12954 0.0
H830 H 0.76131 0.22297 0.10282 0.0
H831 H 0.72548 0.21291 0.0956 0.0
C832 C 0.80264 0.25112 0.03769 0.0
C833 C 0.79274 0.22855 0.02238 0.0
C834 C 0.78535 0.26429 0.05695 0.0
C835 C 0.75789 0.2551 0.06142 0.0
C836 C 0.74763 0.23305 0.04575 0.0
H837 H 0.61644 0.32928 0.14523 0.0
H838 H 0.65221 0.31451 0.11204 0.0
C839 C 0.76488 0.21985 0.02648 0.0
C840 C 0.74004 0.26843 0.08264 0.0
H841 H 0.70461 0.25748 0.14013 0.0
C842 C 0.7327 0.29521 0.0808 0.0
C843 C 0.73041 0.25487 0.10468 0.0
C844 C 0.73887 0.22654 0.10851 0.0
C845 C 0.71526 0.30858 0.10002 0.0
C846 C 0.70464 0.29466 0.12143 0.0
C847 C 0.71265 0.2681 0.12364 0.0
C848 C 0.68436 0.30679 0.1413 0.0
C849 C 0.70851 0.3375 0.09733 0.0
C850 C 0.69052 0.30738 0.16876 0.0
C851 C 0.67005 0.31572 0.18766 0.0
C852 C 0.64322 0.32351 0.17931 0.0
C853 C 0.63726 0.32374 0.15197 0.0
C854 C 0.65769 0.31539 0.13305 0.0
H855 H 0.72459 0.34711 0.08503 0.0
H856 H 0.68772 0.33908 0.08729 0.0
H857 H 0.70729 0.34859 0.1172 0.0
H858 H 0.71088 0.30065 0.17555 0.0
H859 H 0.67482 0.3151 0.20875 0.0
H860 H 0.37083 0.24893 0.63578 0.0
H861 H 0.36325 0.22894 0.67837 0.0
H862 H 0.28857 0.2769 0.69241 0.0
H863 H 0.2957 0.29682 0.65003 0.0
H864 H 0.36032 0.25749 0.72976 0.0
H865 H 0.26182 0.20096 0.70538 0.0
H866 H 0.2848 0.2128 0.68 0.0
H867 H 0.2607 0.23521 0.69773 0.0
C868 C 0.3526 0.25501 0.64777 0.0
C869 C 0.33386 0.27447 0.63942 0.0
C870 C 0.34837 0.24361 0.6721 0.0
C871 C 0.32518 0.25125 0.68831 0.0
C872 C 0.30631 0.27042 0.67995 0.0
H873 H 0.26183 0.2162 0.84414 0.0
H874 H 0.27037 0.23425 0.80049 0.0
C875 C 0.31055 0.28189 0.65575 0.0
C876 C 0.32135 0.24026 0.71463 0.0
H877 H 0.27521 0.20547 0.75117 0.0
C878 C 0.34186 0.24591 0.73443 0.0
C879 C 0.29713 0.22536 0.72061 0.0
C880 C 0.27494 0.21799 0.69977 0.0
C881 C 0.33845 0.23757 0.76035 0.0
C882 C 0.31414 0.22276 0.76638 0.0
C883 C 0.29375 0.21694 0.74649 0.0
C884 C 0.30959 0.21279 0.7931 0.0
C885 C 0.3605 0.24528 0.78122 0.0
C886 C 0.32872 0.19473 0.80324 0.0
C887 C 0.32391 0.18461 0.82805 0.0
C888 C 0.29985 0.19231 0.8429 0.0
C889 C 0.28064 0.21028 0.83292 0.0
C890 C 0.28547 0.22047 0.80808 0.0
H891 H 0.37349 0.26235 0.77551 0.0
H892 H 0.35055 0.25057 0.80093 0.0
H893 H 0.3749 0.2282 0.78344 0.0
H894 H 0.3471 0.1881 0.79174 0.0
H895 H 0.33874 0.17047 0.83545 0.0
H896 H 0.63587 0.74781 0.41102 0.0
H897 H 0.64238 0.76794 0.36841 0.0
H898 H 0.71456 0.7175 0.35093 0.0
H899 H 0.70822 0.69709 0.39318 0.0
H900 H 0.68994 0.79439 0.34814 0.0
H901 H 0.66241 0.7029 0.28563 0.0
H902 H 0.65464 0.70696 0.32093 0.0
H903 H 0.68981 0.69847 0.30975 0.0
C904 C 0.65323 0.74107 0.3982 0.0
C905 C 0.67137 0.72066 0.40549 0.0
C906 C 0.65688 0.75259 0.37386 0.0
C907 C 0.67861 0.74382 0.35638 0.0
C908 C 0.69729 0.72412 0.36393 0.0
H909 H 0.74494 0.81979 0.21958 0.0
H910 H 0.73828 0.79961 0.26236 0.0
C911 C 0.69369 0.71259 0.3882 0.0
C912 C 0.68178 0.75517 0.33015 0.0
H913 H 0.68135 0.73875 0.26297 0.0
C914 C 0.68798 0.7823 0.3295 0.0
C915 C 0.67882 0.73933 0.30591 0.0
C916 C 0.67079 0.71035 0.30545 0.0
C917 C 0.69191 0.79395 0.30516 0.0
C918 C 0.68996 0.7779 0.28096 0.0
C919 C 0.68315 0.7509 0.2816 0.0
C920 C 0.69452 0.7889 0.25473 0.0
C921 C 0.69775 0.82338 0.30555 0.0
C922 C 0.67243 0.78867 0.23599 0.0
C923 C 0.67632 0.79995 0.21158 0.0
C924 C 0.70237 0.81134 0.20564 0.0
C925 C 0.7247 0.81098 0.22395 0.0
C926 C 0.72084 0.7997 0.24836 0.0
H927 H 0.69161 0.83384 0.3249 0.0
H928 H 0.72072 0.82657 0.30258 0.0
H929 H 0.68621 0.83249 0.28919 0.0
H930 H 0.65203 0.7803 0.24052 0.0
H931 H 0.65885 0.80022 0.1976 0.0
H932 H 0.79279 0.20138 0.88995 0.0
H933 H 0.78627 0.21967 0.84659 0.0
H934 H 0.86039 0.26852 0.86017 0.0
H935 H 0.86736 0.25021 0.90364 0.0
H936 H 0.78007 0.27398 0.83364 0.0
H937 H 0.87569 0.22524 0.78807 0.0
H938 H 0.86017 0.21518 0.81868 0.0
H939 H 0.88133 0.24476 0.81897 0.0
C940 C 0.80771 0.21609 0.88386 0.0
C941 C 0.83075 0.22417 0.90026 0.0
C942 C 0.80388 0.22653 0.85906 0.0
C943 C 0.82308 0.2451 0.85009 0.0
C944 C 0.84561 0.25386 0.86664 0.0
H945 H 0.83992 0.32183 0.70174 0.0
H946 H 0.84581 0.30571 0.74648 0.0
C947 C 0.84944 0.24349 0.89153 0.0
C948 C 0.81964 0.25491 0.82319 0.0
H949 H 0.85038 0.25411 0.7616 0.0
C950 C 0.79539 0.26966 0.81784 0.0
C951 C 0.83969 0.24912 0.80271 0.0
C952 C 0.8656 0.23253 0.80719 0.0
C953 C 0.79084 0.27917 0.79255 0.0
C954 C 0.81082 0.27325 0.77201 0.0
C955 C 0.8351 0.25854 0.77741 0.0
C956 C 0.80722 0.28254 0.74487 0.0
C957 C 0.76503 0.29594 0.78823 0.0
C958 C 0.78382 0.27448 0.72903 0.0
C959 C 0.78046 0.28371 0.70355 0.0
C960 C 0.80062 0.30083 0.69366 0.0
C961 C 0.82423 0.30852 0.70918 0.0
C962 C 0.82756 0.29937 0.73462 0.0
H963 H 0.75591 0.30425 0.80744 0.0
H964 H 0.77015 0.31261 0.7757 0.0
H965 H 0.7486 0.28346 0.77773 0.0
H966 H 0.76819 0.26107 0.73637 0.0
H967 H 0.76211 0.27764 0.6917 0.0
H968 H 0.25776 0.29804 0.52726 0.0
H969 H 0.22664 0.27486 0.49444 0.0
H970 H 0.29386 0.22022 0.47153 0.0
H971 H 0.32506 0.24295 0.50446 0.0
H972 H 0.23484 0.26865 0.43982 0.0
H973 H 0.22728 0.17043 0.48284 0.0
H974 H 0.24033 0.19971 0.50165 0.0
H975 H 0.26284 0.18163 0.47794 0.0
C976 C 0.26591 0.28094 0.51545 0.0
C977 C 0.29397 0.27238 0.51863 0.0
C978 C 0.24807 0.26772 0.49667 0.0
C979 C 0.25781 0.24559 0.48079 0.0
C980 C 0.2857 0.23689 0.48396 0.0
H981 H 0.17839 0.18828 0.33065 0.0
H982 H 0.21313 0.20261 0.36517 0.0
C983 C 0.30358 0.25007 0.50273 0.0
C984 C 0.23923 0.23254 0.45995 0.0
H985 H 0.20814 0.17348 0.4393 0.0
C986 C 0.22898 0.24785 0.43971 0.0
C987 C 0.23144 0.20545 0.45999 0.0
C988 C 0.2408 0.18835 0.48189 0.0
C989 C 0.21131 0.23679 0.4194 0.0
C990 C 0.20408 0.20954 0.41904 0.0
C991 C 0.21407 0.19426 0.43942 0.0
C992 C 0.18494 0.19708 0.39836 0.0
C993 C 0.19997 0.25456 0.39886 0.0
C994 C 0.15817 0.18795 0.40565 0.0
C995 C 0.13852 0.17954 0.386 0.0
C996 C 0.14553 0.17996 0.35888 0.0
C997 C 0.17276 0.18762 0.35154 0.0
C998 C 0.19244 0.196 0.37119 0.0
H999 H 0.2022 0.27594 0.40545 0.0
H1000 H 0.21196 0.25087 0.37995 0.0
H1001 H 0.17731 0.2503 0.39462 0.0
H1002 H 0.15199 0.18858 0.42648 0.0
H1003 H 0.11744 0.17396 0.39196 0.0
H1004 H 0.16766 0.74946 0.00373 0.0
H1005 H 0.196 0.72651 0.96862 0.0
H1006 H 0.26768 0.77574 0.99154 0.0
H1007 H 0.2396 0.79884 0.02691 0.0
H1008 H 0.2222 0.75106 0.92601 0.0
H1009 H 0.30048 0.69953 0.98676 0.0
H1010 H 0.2675 0.71252 0.00036 0.0
H1011 H 0.2967 0.73449 0.99558 0.0
C1012 C 0.18954 0.7553 0.00157 0.0
C1013 C 0.20131 0.77605 0.01825 0.0
C1014 C 0.20569 0.74212 0.98144 0.0
C1015 C 0.23401 0.74919 0.9777 0.0
C1016 C 0.24599 0.76964 0.99443 0.0
H1017 H 0.36509 0.7158 0.86244 0.0
H1018 H 0.33623 0.72792 0.902 0.0
C1019 C 0.22983 0.78294 0.01454 0.0
C1020 C 0.25043 0.7363 0.95521 0.0
H1021 H 0.30987 0.69984 0.94015 0.0
C1022 C 0.24121 0.73961 0.92905 0.0
C1023 C 0.27523 0.72146 0.95931 0.0
C1024 C 0.28551 0.71653 0.98701 0.0
C1025 C 0.25667 0.72928 0.90682 0.0
C1026 C 0.28169 0.71465 0.91088 0.0
C1027 C 0.29063 0.71094 0.93707 0.0
C1028 C 0.29987 0.70474 0.88821 0.0
C1029 C 0.24671 0.73513 0.87923 0.0
C1030 C 0.28936 0.68698 0.86771 0.0
C1031 C 0.30584 0.68015 0.84505 0.0
C1032 C 0.33308 0.69072 0.84292 0.0
C1033 C 0.34411 0.70734 0.86391 0.0
C1034 C 0.32766 0.71427 0.88643 0.0
H1035 H 0.23117 0.75169 0.87987 0.0
H1036 H 0.26478 0.74036 0.86646 0.0
H1037 H 0.23627 0.7172 0.86967 0.0
H1038 H 0.26818 0.67898 0.86892 0.0
H1039 H 0.29701 0.66734 0.82892 0.0
loop_
_geom_bond_atom_site_label_1
_geom_bond_atom_site_label_2
_geom_bond_distance
_geom_bond_site_symmetry_2
_ccdc_geom_bond_type
Sc0 O3 2.025 . S
Sc0 O10 2.105 . S
Sc0 O13 2.105 . S
Sc0 O16 2.105 . S
Sc0 O19 2.102 . S
Sc1 O3 2.025 . S
Sc1 O11 2.070 1_554 S
Sc1 O15 2.105 . S
Sc1 O17 2.105 . S
Sc1 O21 2.105 . S
Sc2 O3 2.025 . S
Sc2 O12 2.105 . S
Sc2 O14 2.105 . S
Sc2 O18 2.105 . S
Sc2 O20 2.105 . S
O3 Sc0 2.025 . S
O3 Sc1 2.025 . S
O3 Sc2 2.025 . S
C4 O10 1.268 . S
C4 O20 1.268 . S
C5 O11 1.288 . S
C5 O19 1.269 1_556 S
C6 O12 1.268 . S
C6 O21 1.268 . S
C7 O13 1.268 . S
C7 O17 1.268 . S
C8 O14 1.268 . S
C8 O16 1.268 . S
C9 O15 1.268 . S
C9 O18 1.268 . S
O10 Sc0 2.105 . S
O10 C4 1.268 . S
O11 Sc1 2.070 1_556 S
O11 C5 1.288 . S
O12 Sc2 2.105 . S
O12 C6 1.268 . S
O13 Sc0 2.105 . S
O13 C7 1.268 . S
O14 Sc2 2.105 . S
O14 C8 1.268 . S
O15 Sc1 2.105 . S
O15 C9 1.268 . S
O16 Sc0 2.105 . S
O16 C8 1.268 . S
O17 Sc1 2.105 . S
O17 C7 1.268 . S
O18 Sc2 2.105 . S
O18 C9 1.268 . S
O19 Sc0 2.102 . S
O19 C5 1.269 1_554 S
O20 Sc2 2.105 . S
O20 C4 1.268 . S
O21 Sc1 2.105 . S
O21 C6 1.268 . S
Sc22 O25 2.025 . S
Sc22 O32 2.105 . S
Sc22 O35 2.105 . S
Sc22 O38 2.105 . S
Sc22 O41 2.105 . S
Sc23 O25 2.025 . S
Sc23 O33 2.105 . S
Sc23 O37 2.105 . S
Sc23 O39 2.105 . S
Sc23 O43 2.105 . S
Sc24 O25 2.025 . S
Sc24 O34 2.105 . S
Sc24 O36 2.105 . S
Sc24 O40 2.105 . S
Sc24 O42 2.105 . S
O25 Sc22 2.025 . S
O25 Sc23 2.025 . S
O25 Sc24 2.025 . S
C26 O32 1.268 . S
C26 O42 1.268 . S
C27 O33 1.268 . S
C27 O41 1.268 . S
C28 O34 1.268 . S
C28 O43 1.268 . S
C29 O35 1.268 . S
C29 O39 1.268 . S
C30 O36 1.268 . S
C30 O38 1.268 . S
C31 O37 1.268 . S
C31 O40 1.268 . S
O32 Sc22 2.105 . S
O32 C26 1.268 . S
O33 Sc23 2.105 . S
O33 C27 1.268 . S
O34 Sc24 2.105 . S
O34 C28 1.268 . S
O35 Sc22 2.105 . S
O35 C29 1.268 . S
O36 Sc24 2.105 . S
O36 C30 1.268 . S
O37 Sc23 2.105 . S
O37 C31 1.268 . S
O38 Sc22 2.105 . S
O38 C30 1.268 . S
O39 Sc23 2.105 . S
O39 C29 1.268 . S
O40 Sc24 2.105 . S
O40 C31 1.268 . S
O41 Sc22 2.105 . S
O41 C27 1.268 . S
O42 Sc24 2.105 . S
O42 C26 1.268 . S
O43 Sc23 2.105 . S
O43 C28 1.268 . S
Sc44 O47 2.025 . S
Sc44 O54 2.105 1_554 S
Sc44 O57 2.105 . S
Sc44 O60 2.105 . S
Sc44 O63 2.105 1_554 S
Sc45 O47 2.025 1_556 S
Sc45 O55 2.105 . S
Sc45 O59 2.105 1_556 S
Sc45 O61 2.105 1_556 S
Sc45 O65 2.105 . S
Sc46 O47 2.025 . S
Sc46 O56 2.105 1_554 S
Sc46 O58 2.105 . S
Sc46 O62 2.105 . S
Sc46 O64 2.105 1_554 S
O47 Sc44 2.025 . S
O47 Sc45 2.025 1_554 S
O47 Sc46 2.025 . S
C48 O54 1.268 . S
C48 O64 1.268 . S
C49 O55 1.268 . S
C49 O63 1.268 . S
C50 O56 1.268 . S
C50 O65 1.268 . S
C51 O57 1.268 . S
C51 O61 1.268 . S
C52 O58 1.268 . S
C52 O60 1.268 . S
C53 O59 1.268 . S
C53 O62 1.268 . S
O54 Sc44 2.105 1_556 S
O54 C48 1.268 . S
O55 Sc45 2.105 . S
O55 C49 1.268 . S
O56 Sc46 2.105 1_556 S
O56 C50 1.268 . S
O57 Sc44 2.105 . S
O57 C51 1.268 . S
O58 Sc46 2.105 . S
O58 C52 1.268 . S
O59 Sc45 2.105 1_554 S
O59 C53 1.268 . S
O60 Sc44 2.105 . S
O60 C52 1.268 . S
O61 Sc45 2.105 1_554 S
O61 C51 1.268 . S
O62 Sc46 2.105 . S
O62 C53 1.268 . S
O63 Sc44 2.105 1_556 S
O63 C49 1.268 . S
O64 Sc46 2.105 1_556 S
O64 C48 1.268 . S
O65 Sc45 2.105 . S
O65 C50 1.268 . S
Sc66 O69 2.025 . S
Sc66 O76 2.105 . S
Sc66 O79 2.105 . S
Sc66 O82 2.105 . S
Sc66 O85 2.105 . S
Sc67 O69 2.025 . S
Sc67 O77 2.105 . S
Sc67 O81 2.105 . S
Sc67 O83 2.105 . S
Sc67 O87 2.105 . S
Sc68 O69 2.025 . S
Sc68 O78 2.105 . S
Sc68 O80 2.105 . S
Sc68 O84 2.105 . S
Sc68 O86 2.105 . S
O69 Sc66 2.025 . S
O69 Sc67 2.025 . S
O69 Sc68 2.025 . S
C70 O76 1.268 . S
C70 O86 1.268 . S
C71 O77 1.268 . S
C71 O85 1.268 . S
C72 O78 1.268 . S
C72 O87 1.268 . S
C73 O79 1.268 . S
C73 O83 1.268 . S
C74 O80 1.268 . S
C74 O82 1.268 . S
C75 O81 1.268 . S
C75 O84 1.268 . S
O76 Sc66 2.105 . S
O76 C70 1.268 . S
O77 Sc67 2.105 . S
O77 C71 1.268 . S
O78 Sc68 2.105 . S
O78 C72 1.268 . S
O79 Sc66 2.105 . S
O79 C73 1.268 . S
O80 Sc68 2.105 . S
O80 C74 1.268 . S
O81 Sc67 2.105 . S
O81 C75 1.268 . S
O82 Sc66 2.105 . S
O82 C74 1.268 . S
O83 Sc67 2.105 . S
O83 C73 1.268 . S
O84 Sc68 2.105 . S
O84 C75 1.268 . S
O85 Sc66 2.105 . S
O85 C71 1.268 . S
O86 Sc68 2.105 . S
O86 C70 1.268 . S
O87 Sc67 2.105 . S
O87 C72 1.268 . S
H88 C91 0.929 . S
H89 C94 0.929 . S
H90 C96 0.930 . S
C91 H88 0.929 . S
C91 C92 1.398 . S
C91 C93 1.396 . S
C92 C91 1.398 . S
C92 C96 1.407 . S
C93 C91 1.396 . S
C93 C94 1.394 . S
C94 H89 0.929 . S
C94 C93 1.394 . S
C94 C95 1.382 . S
C95 C94 1.382 . S
C95 C96 1.392 . S
C95 N97 1.420 . S
C96 H90 0.930 . S
C96 C92 1.407 . S
C96 C95 1.392 . S
N97 C95 1.420 . S
N97 C98 1.244 . S
C98 N97 1.244 . S
H99 C102 0.929 . S
H100 C105 0.929 . S
H101 C107 0.930 . S
C102 H99 0.929 . S
C102 C103 1.398 . S
C102 C104 1.396 . S
C103 C102 1.398 . S
C103 C107 1.407 . S
C104 C102 1.396 . S
C104 C105 1.394 . S
C105 H100 0.929 . S
C105 C104 1.394 . S
C105 C106 1.382 . S
C106 C105 1.382 . S
C106 C107 1.392 . S
C106 N108 1.420 . S
C107 H101 0.930 . S
C107 C103 1.407 . S
C107 C106 1.392 . S
N108 C106 1.420 . S
N108 C109 1.244 . S
C109 N108 1.244 . S
H110 C113 0.929 . S
H111 C116 0.929 . S
H112 C118 0.930 . S
C113 H110 0.929 . S
C113 C114 1.398 . S
C113 C115 1.396 . S
C114 C113 1.398 . S
C114 C118 1.407 . S
C115 C113 1.396 . S
C115 C116 1.394 . S
C116 H111 0.929 . S
C116 C115 1.394 . S
C116 C117 1.382 . S
C117 C116 1.382 . S
C117 C118 1.392 . S
C117 N119 1.420 . S
C118 H112 0.930 . S
C118 C114 1.407 . S
C118 C117 1.392 . S
N119 C117 1.420 . S
N119 C120 1.244 . S
C120 N119 1.244 . S
H121 C124 0.929 . S
H122 C127 0.929 . S
H123 C129 0.930 . S
C124 H121 0.929 . S
C124 C125 1.398 . S
C124 C126 1.396 . S
C125 C124 1.398 . S
C125 C129 1.407 . S
C126 C124 1.396 . S
C126 C127 1.394 . S
C127 H122 0.929 . S
C127 C126 1.394 . S
C127 C128 1.382 . S
C128 C127 1.382 . S
C128 C129 1.392 . S
C128 N130 1.420 . S
C129 H123 0.930 . S
C129 C125 1.407 . S
C129 C128 1.392 . S
N130 C128 1.420 . S
N130 C131 1.244 . S
C131 N130 1.244 . S
H132 C135 0.929 . S
H133 C138 0.929 . S
H134 C140 0.930 . S
C135 H132 0.929 . S
C135 C136 1.398 . S
C135 C137 1.396 . S
C136 C135 1.398 . S
C136 C140 1.407 . S
C137 C135 1.396 . S
C137 C138 1.394 . S
C138 H133 0.929 . S
C138 C137 1.394 . S
C138 C139 1.382 . S
C139 C138 1.382 . S
C139 C140 1.392 . S
C139 N141 1.420 . S
C140 H134 0.930 . S
C140 C136 1.407 . S
C140 C139 1.392 . S
N141 C139 1.420 . S
N141 C142 1.244 . S
C142 N141 1.244 . S
H143 C146 0.929 . S
H144 C149 0.929 . S
H145 C151 0.930 . S
C146 H143 0.929 . S
C146 C147 1.398 . S
C146 C148 1.396 . S
C147 C146 1.398 . S
C147 C151 1.407 . S
C148 C146 1.396 . S
C148 C149 1.394 . S
C149 H144 0.929 . S
C149 C148 1.394 . S
C149 C150 1.382 . S
C150 C149 1.382 . S
C150 C151 1.392 . S
C150 N152 1.420 . S
C151 H145 0.930 . S
C151 C147 1.407 . S
C151 C150 1.392 . S
N152 C150 1.420 . S
N152 C153 1.244 . S
C153 N152 1.244 . S
H154 C157 0.929 . S
H155 C160 0.929 . S
H156 C162 0.930 . S
C157 H154 0.929 . S
C157 C158 1.398 . S
C157 C159 1.396 . S
C158 C157 1.398 . S
C158 C162 1.407 . S
C159 C157 1.396 . S
C159 C160 1.394 . S
C160 H155 0.929 . S
C160 C159 1.394 . S
C160 C161 1.382 . S
C161 C160 1.382 . S
C161 C162 1.392 . S
C161 N163 1.420 . S
C162 H156 0.930 . S
C162 C158 1.407 . S
C162 C161 1.392 . S
N163 C161 1.420 . S
N163 C164 1.244 . S
C164 N163 1.244 . S
H165 C168 0.929 . S
H166 C171 0.929 . S
H167 C173 0.930 . S
C168 H165 0.929 . S
C168 C169 1.398 . S
C168 C170 1.396 . S
C169 C168 1.398 . S
C169 C173 1.407 . S
C170 C168 1.396 . S
C170 C171 1.394 . S
C171 H166 0.929 . S
C171 C170 1.394 . S
C171 C172 1.382 . S
C172 C171 1.382 . S
C172 C173 1.392 . S
C172 N174 1.420 . S
C173 H167 0.930 . S
C173 C169 1.407 . S
C173 C172 1.392 . S
N174 C172 1.420 . S
N174 C175 1.244 . S
C175 N174 1.244 . S
H176 C184 0.929 . S
H177 C186 0.930 . S
H178 C188 0.930 . S
H179 C191 0.929 . S
H180 C194 0.930 . S
H181 C196 0.960 . S
H182 C196 0.960 . S
H183 C196 0.960 . S
C184 H176 0.929 . S
C184 C185 1.377 . S
C184 C186 1.384 . S
C185 C184 1.377 . S
C185 C191 1.390 . S
C186 H177 0.930 . S
C186 C184 1.384 . S
C186 C187 1.372 . S
C187 C186 1.372 . S
C187 C188 1.400 . S
C187 C192 1.490 . S
C188 H178 0.930 . S
C188 C187 1.400 . S
C188 C191 1.386 . S
H189 C205 0.930 . S
H190 C206 0.931 . S
C191 H179 0.929 . S
C191 C185 1.390 . S
C191 C188 1.386 . S
C192 C187 1.490 . S
C192 C194 1.395 1_565 S
C192 C195 1.403 . S
H193 C199 0.930 . S
C194 H180 0.930 . S
C194 C192 1.395 1_545 S
C194 C197 1.403 . S
C195 C192 1.403 . S
C195 C196 1.524 . S
C195 C199 1.400 1_565 S
C196 H181 0.960 . S
C196 H182 0.960 . S
C196 H183 0.960 . S
C196 C195 1.524 . S
C197 C194 1.403 . S
C197 C198 1.392 . S
C197 C201 1.495 . S
C198 C197 1.392 . S
C198 C199 1.385 . S
C198 C200 1.478 . S
C199 H193 0.930 . S
C199 C195 1.400 1_545 S
C199 C198 1.385 . S
C200 C198 1.478 . S
C200 C202 1.381 . S
C200 C206 1.383 . S
C201 C197 1.495 . S
C201 H207 0.959 . S
C201 H208 0.961 . S
C201 H209 0.960 . S
C202 C200 1.381 . S
C202 C203 1.394 . S
C202 H210 0.930 . S
C203 C202 1.394 . S
C203 C204 1.383 . S
C203 H211 0.929 . S
C204 C203 1.383 . S
C204 C205 1.377 . S
C205 H189 0.930 . S
C205 C204 1.377 . S
C205 C206 1.379 . S
C206 H190 0.931 . S
C206 C200 1.383 . S
C206 C205 1.379 . S
H207 C201 0.959 . S
H208 C201 0.961 . S
H209 C201 0.960 . S
H210 C202 0.930 . S
H211 C203 0.929 . S
H212 C220 0.929 . S
H213 C222 0.930 . S
H214 C224 0.930 . S
H215 C227 0.929 . S
H216 C230 0.930 . S
H217 C232 0.960 . S
H218 C232 0.960 . S
H219 C232 0.960 . S
C220 H212 0.929 . S
C220 C221 1.377 . S
C220 C222 1.384 . S
C221 C220 1.377 . S
C221 C227 1.390 . S
C222 H213 0.930 . S
C222 C220 1.384 . S
C222 C223 1.372 . S
C223 C222 1.372 . S
C223 C224 1.400 . S
C223 C228 1.490 . S
C224 H214 0.930 . S
C224 C223 1.400 . S
C224 C227 1.386 . S
H225 C241 0.930 . S
H226 C242 0.931 . S
C227 H215 0.929 . S
C227 C221 1.390 . S
C227 C224 1.386 . S
C228 C223 1.490 . S
C228 C230 1.395 . S
C228 C231 1.403 . S
H229 C235 0.930 . S
C230 H216 0.930 . S
C230 C228 1.395 . S
C230 C233 1.403 . S
C231 C228 1.403 . S
C231 C232 1.524 . S
C231 C235 1.400 . S
C232 H217 0.960 . S
C232 H218 0.960 . S
C232 H219 0.960 . S
C232 C231 1.524 . S
C233 C230 1.403 . S
C233 C234 1.392 . S
C233 C237 1.495 . S
C234 C233 1.392 . S
C234 C235 1.385 . S
C234 C236 1.478 . S
C235 H229 0.930 . S
C235 C231 1.400 . S
C235 C234 1.385 . S
C236 C234 1.478 . S
C236 C238 1.381 . S
C236 C242 1.383 . S
C237 C233 1.495 . S
C237 H243 0.959 . S
C237 H244 0.961 . S
C237 H245 0.960 . S
C238 C236 1.381 . S
C238 C239 1.394 . S
C238 H246 0.930 . S
C239 C238 1.394 . S
C239 C240 1.383 . S
C239 H247 0.929 . S
C240 C239 1.383 . S
C240 C241 1.377 . S
C241 H225 0.930 . S
C241 C240 1.377 . S
C241 C242 1.379 . S
C242 H226 0.931 . S
C242 C236 1.383 . S
C242 C241 1.379 . S
H243 C237 0.959 . S
H244 C237 0.961 . S
H245 C237 0.960 . S
H246 C238 0.930 . S
H247 C239 0.929 . S
H248 C256 0.929 . S
H249 C258 0.930 . S
H250 C260 0.930 . S
H251 C263 0.929 . S
H252 C266 0.930 . S
H253 C268 0.960 . S
H254 C268 0.960 . S
H255 C268 0.960 . S
C256 H248 0.929 . S
C256 C257 1.377 . S
C256 C258 1.384 . S
C257 C256 1.377 . S
C257 C263 1.390 . S
C258 H249 0.930 . S
C258 C256 1.384 . S
C258 C259 1.372 . S
C259 C258 1.372 . S
C259 C260 1.400 . S
C259 C264 1.490 . S
C260 H250 0.930 . S
C260 C259 1.400 . S
C260 C263 1.386 . S
H261 C277 0.930 . S
H262 C278 0.931 . S
C263 H251 0.929 . S
C263 C257 1.390 . S
C263 C260 1.386 . S
C264 C259 1.490 . S
C264 C266 1.395 1_545 S
C264 C267 1.403 . S
H265 C271 0.930 . S
C266 H252 0.930 . S
C266 C264 1.395 1_565 S
C266 C269 1.403 . S
C267 C264 1.403 . S
C267 C268 1.524 . S
C267 C271 1.400 1_545 S
C268 H253 0.960 . S
C268 H254 0.960 . S
C268 H255 0.960 . S
C268 C267 1.524 . S
C269 C266 1.403 . S
C269 C270 1.392 . S
C269 C273 1.495 . S
C270 C269 1.392 . S
C270 C271 1.385 . S
C270 C272 1.478 . S
C271 H265 0.930 . S
C271 C267 1.400 1_565 S
C271 C270 1.385 . S
C272 C270 1.478 . S
C272 C274 1.381 . S
C272 C278 1.383 . S
C273 C269 1.495 . S
C273 H279 0.959 . S
C273 H280 0.961 . S
C273 H281 0.960 . S
C274 C272 1.381 . S
C274 C275 1.394 . S
C274 H282 0.930 . S
C275 C274 1.394 . S
C275 C276 1.383 . S
C275 H283 0.929 . S
C276 C275 1.383 . S
C276 C277 1.377 . S
C277 H261 0.930 . S
C277 C276 1.377 . S
C277 C278 1.379 . S
C278 H262 0.931 . S
C278 C272 1.383 . S
C278 C277 1.379 . S
H279 C273 0.959 . S
H280 C273 0.961 . S
H281 C273 0.960 . S
H282 C274 0.930 . S
H283 C275 0.929 . S
H284 C292 0.929 . S
H285 C294 0.930 . S
H286 C296 0.930 . S
H287 C299 0.929 . S
H288 C302 0.930 . S
H289 C304 0.960 . S
H290 C304 0.960 . S
H291 C304 0.960 . S
C292 H284 0.929 . S
C292 C293 1.377 . S
C292 C294 1.384 . S
C293 C292 1.377 . S
C293 C299 1.390 . S
C294 H285 0.930 . S
C294 C292 1.384 . S
C294 C295 1.372 . S
C295 C294 1.372 . S
C295 C296 1.400 . S
C295 C300 1.490 . S
C296 H286 0.930 . S
C296 C295 1.400 . S
C296 C299 1.386 . S
H297 C313 0.930 . S
H298 C314 0.931 . S
C299 H287 0.929 . S
C299 C293 1.390 . S
C299 C296 1.386 . S
C300 C295 1.490 . S
C300 C302 1.395 . S
C300 C303 1.403 . S
H301 C307 0.930 . S
C302 H288 0.930 . S
C302 C300 1.395 . S
C302 C305 1.403 . S
C303 C300 1.403 . S
C303 C304 1.524 . S
C303 C307 1.400 . S
C304 H289 0.960 . S
C304 H290 0.960 . S
C304 H291 0.960 . S
C304 C303 1.524 . S
C305 C302 1.403 . S
C305 C306 1.392 . S
C305 C309 1.495 . S
C306 C305 1.392 . S
C306 C307 1.385 . S
C306 C308 1.478 . S
C307 H301 0.930 . S
C307 C303 1.400 . S
C307 C306 1.385 . S
C308 C306 1.478 . S
C308 C310 1.381 . S
C308 C314 1.383 . S
C309 C305 1.495 . S
C309 H315 0.959 . S
C309 H316 0.961 . S
C309 H317 0.960 . S
C310 C308 1.381 . S
C310 C311 1.394 . S
C310 H318 0.930 . S
C311 C310 1.394 . S
C311 C312 1.383 . S
C311 H319 0.929 . S
C312 C311 1.383 . S
C312 C313 1.377 . S
C313 H297 0.930 . S
C313 C312 1.377 . S
C313 C314 1.379 . S
C314 H298 0.931 . S
C314 C308 1.383 . S
C314 C313 1.379 . S
H315 C309 0.959 . S
H316 C309 0.961 . S
H317 C309 0.960 . S
H318 C310 0.930 . S
H319 C311 0.929 . S
H320 C328 0.929 . S
H321 C330 0.930 . S
H322 C332 0.930 . S
H323 C335 0.929 . S
H324 C338 0.930 . S
H325 C340 0.960 . S
H326 C340 0.960 . S
H327 C340 0.960 . S
C328 H320 0.929 . S
C328 C329 1.377 . S
C328 C330 1.384 . S
C329 C328 1.377 . S
C329 C335 1.390 . S
C330 H321 0.930 . S
C330 C328 1.384 . S
C330 C331 1.372 . S
C331 C330 1.372 . S
C331 C332 1.400 . S
C331 C336 1.490 . S
C332 H322 0.930 . S
C332 C331 1.400 . S
C332 C335 1.386 . S
H333 C349 0.930 . S
H334 C350 0.931 . S
C335 H323 0.929 . S
C335 C329 1.390 . S
C335 C332 1.386 . S
C336 C331 1.490 . S
C336 C338 1.395 . S
C336 C339 1.403 . S
H337 C343 0.930 . S
C338 H324 0.930 . S
C338 C336 1.395 . S
C338 C341 1.403 . S
C339 C336 1.403 . S
C339 C340 1.524 . S
C339 C343 1.400 . S
C340 H325 0.960 . S
C340 H326 0.960 . S
C340 H327 0.960 . S
C340 C339 1.524 . S
C341 C338 1.403 . S
C341 C342 1.392 . S
C341 C345 1.495 . S
C342 C341 1.392 . S
C342 C343 1.385 . S
C342 C344 1.478 . S
C343 H337 0.930 . S
C343 C339 1.400 . S
C343 C342 1.385 . S
C344 C342 1.478 . S
C344 C346 1.381 . S
C344 C350 1.383 . S
C345 C341 1.495 . S
C345 H351 0.959 . S
C345 H352 0.961 . S
C345 H353 0.960 . S
C346 C344 1.381 . S
C346 C347 1.394 . S
C346 H354 0.930 . S
C347 C346 1.394 . S
C347 C348 1.383 . S
C347 H355 0.929 . S
C348 C347 1.383 . S
C348 C349 1.377 . S
C349 H333 0.930 . S
C349 C348 1.377 . S
C349 C350 1.379 . S
C350 H334 0.931 . S
C350 C344 1.383 . S
C350 C349 1.379 . S
H351 C345 0.959 . S
H352 C345 0.961 . S
H353 C345 0.960 . S
H354 C346 0.930 . S
H355 C347 0.929 . S
H356 C364 0.929 . S
H357 C366 0.930 . S
H358 C368 0.940 . S
H359 C371 0.929 . S
H360 C374 0.930 . S
H361 C376 0.960 . S
H362 C376 0.960 . S
H363 C376 0.960 . S
C364 H356 0.929 . S
C364 C365 1.377 . S
C364 C366 1.384 . S
C365 C364 1.377 . S
C365 C371 1.390 . S
C366 H357 0.930 . S
C366 C364 1.384 . S
C366 C367 1.372 1_655 S
C367 C366 1.372 1_455 S
C367 C368 1.404 . S
C367 C372 1.490 . S
C368 H358 0.940 . S
C368 C367 1.404 . S
C368 C371 1.371 1_455 S
H369 C385 0.930 . S
H370 C386 0.931 . S
C371 H359 0.929 . S
C371 C365 1.390 . S
C371 C368 1.371 1_655 S
C372 C367 1.490 . S
C372 C374 1.395 . S
C372 C375 1.403 . S
H373 C379 0.930 . S
C374 H360 0.930 . S
C374 C372 1.395 . S
C374 C377 1.403 . S
C375 C372 1.403 . S
C375 C376 1.524 . S
C375 C379 1.400 . S
C376 H361 0.960 . S
C376 H362 0.960 . S
C376 H363 0.960 . S
C376 C375 1.524 . S
C377 C374 1.403 . S
C377 C378 1.392 . S
C377 C381 1.495 . S
C378 C377 1.392 . S
C378 C379 1.385 . S
C378 C380 1.478 . S
C379 H373 0.930 . S
C379 C375 1.400 . S
C379 C378 1.385 . S
C380 C378 1.478 . S
C380 C382 1.381 . S
C380 C386 1.383 . S
C381 C377 1.495 . S
C381 H387 0.959 . S
C381 H388 0.961 . S
C381 H389 0.960 . S
C382 C380 1.381 . S
C382 C383 1.394 . S
C382 H390 0.930 . S
C383 C382 1.394 . S
C383 C384 1.383 . S
C383 H391 0.929 . S
C384 C383 1.383 . S
C384 C385 1.377 . S
C385 H369 0.930 . S
C385 C384 1.377 . S
C385 C386 1.379 . S
C386 H370 0.931 . S
C386 C380 1.383 . S
C386 C385 1.379 . S
H387 C381 0.959 . S
H388 C381 0.961 . S
H389 C381 0.960 . S
H390 C382 0.930 . S
H391 C383 0.929 . S
H392 C400 0.929 . S
H393 C402 0.930 . S
H394 C404 0.930 . S
H395 C407 0.929 . S
H396 C410 0.930 . S
H397 C412 0.960 . S
H398 C412 0.960 . S
H399 C412 0.960 . S
C400 H392 0.929 . S
C400 C401 1.377 . S
C400 C402 1.384 . S
C401 C400 1.377 . S
C401 C407 1.390 . S
C402 H393 0.930 . S
C402 C400 1.384 . S
C402 C403 1.372 . S
C403 C402 1.372 . S
C403 C404 1.400 . S
C403 C408 1.490 . S
C404 H394 0.930 . S
C404 C403 1.400 . S
C404 C407 1.386 . S
H405 C421 0.930 . S
H406 C422 0.931 . S
C407 H395 0.929 . S
C407 C401 1.390 . S
C407 C404 1.386 . S
C408 C403 1.490 . S
C408 C410 1.395 . S
C408 C411 1.403 . S
H409 C415 0.930 . S
C410 H396 0.930 . S
C410 C408 1.395 . S
C410 C413 1.403 . S
C411 C408 1.403 . S
C411 C412 1.524 . S
C411 C415 1.400 . S
C412 H397 0.960 . S
C412 H398 0.960 . S
C412 H399 0.960 . S
C412 C411 1.524 . S
C413 C410 1.403 . S
C413 C414 1.392 . S
C413 C417 1.495 . S
C414 C413 1.392 . S
C414 C415 1.385 . S
C414 C416 1.478 . S
C415 H409 0.930 . S
C415 C411 1.400 . S
C415 C414 1.385 . S
C416 C414 1.478 . S
C416 C418 1.381 . S
C416 C422 1.383 . S
C417 C413 1.495 . S
C417 H423 0.959 . S
C417 H424 0.961 . S
C417 H425 0.960 . S
C418 C416 1.381 . S
C418 C419 1.394 . S
C418 H426 0.930 . S
C419 C418 1.394 . S
C419 C420 1.383 . S
C419 H427 0.929 . S
C420 C419 1.383 . S
C420 C421 1.377 . S
C421 H405 0.930 . S
C421 C420 1.377 . S
C421 C422 1.379 . S
C422 H406 0.931 . S
C422 C416 1.383 . S
C422 C421 1.379 . S
H423 C417 0.959 . S
H424 C417 0.961 . S
H425 C417 0.960 . S
H426 C418 0.930 . S
H427 C419 0.929 . S
H428 C436 0.929 . S
H429 C438 0.930 . S
H430 C440 0.930 . S
H431 C443 0.929 . S
H432 C446 0.930 . S
H433 C448 0.960 . S
H434 C448 0.960 . S
H435 C448 0.960 . S
C436 H428 0.929 . S
C436 C437 1.377 . S
C436 C438 1.384 . S
C437 C436 1.377 . S
C437 C443 1.390 . S
C438 H429 0.930 . S
C438 C436 1.384 . S
C438 C439 1.372 . S
C439 C438 1.372 . S
C439 C440 1.400 . S
C439 C444 1.490 . S
C440 H430 0.930 . S
C440 C439 1.400 . S
C440 C443 1.386 . S
H441 C457 0.930 . S
H442 C458 0.931 . S
C443 H431 0.929 . S
C443 C437 1.390 . S
C443 C440 1.386 . S
C444 C439 1.490 . S
C444 C446 1.395 1_455 S
C444 C447 1.403 . S
H445 C451 0.930 . S
C446 H432 0.930 . S
C446 C444 1.395 1_655 S
C446 C449 1.403 . S
C447 C444 1.403 . S
C447 C448 1.524 . S
C447 C451 1.400 . S
C448 H433 0.960 . S
C448 H434 0.960 . S
C448 H435 0.960 . S
C448 C447 1.524 . S
C449 C446 1.403 . S
C449 C450 1.392 . S
C449 C453 1.495 . S
C450 C449 1.392 . S
C450 C451 1.385 1_655 S
C450 C452 1.478 . S
C451 H445 0.930 . S
C451 C447 1.400 . S
C451 C450 1.385 1_455 S
C452 C450 1.478 . S
C452 C454 1.381 . S
C452 C458 1.383 . S
C453 C449 1.495 . S
C453 H459 0.959 . S
C453 H460 0.961 . S
C453 H461 0.960 . S
C454 C452 1.381 . S
C454 C455 1.394 . S
C454 H462 0.930 . S
C455 C454 1.394 . S
C455 C456 1.383 . S
C455 H463 0.929 . S
C456 C455 1.383 . S
C456 C457 1.377 . S
C457 H441 0.930 . S
C457 C456 1.377 . S
C457 C458 1.379 . S
C458 H442 0.931 . S
C458 C452 1.383 . S
C458 C457 1.379 . S
H459 C453 0.959 . S
H460 C453 0.961 . S
H461 C453 0.960 . S
H462 C454 0.930 . S
H463 C455 0.929 . S
H464 C472 0.929 . S
H465 C474 0.930 . S
H466 C476 0.930 . S
H467 C479 0.929 . S
H468 C482 0.930 . S
H469 C484 0.960 . S
H470 C484 0.960 . S
H471 C484 0.960 . S
C472 H464 0.929 . S
C472 C473 1.377 . S
C472 C474 1.384 . S
C473 C472 1.377 . S
C473 C479 1.390 . S
C474 H465 0.930 . S
C474 C472 1.384 . S
C474 C475 1.372 . S
C475 C474 1.372 . S
C475 C476 1.400 . S
C475 C480 1.490 . S
C476 H466 0.930 . S
C476 C475 1.400 . S
C476 C479 1.386 . S
H477 C493 0.930 . S
H478 C494 0.931 . S
C479 H467 0.929 . S
C479 C473 1.390 . S
C479 C476 1.386 . S
C480 C475 1.490 . S
C480 C482 1.395 . S
C480 C483 1.403 . S
H481 C487 0.930 . S
C482 H468 0.930 . S
C482 C480 1.395 . S
C482 C485 1.403 1_545 S
C483 C480 1.403 . S
C483 C484 1.524 . S
C483 C487 1.400 1_545 S
C484 H469 0.960 . S
C484 H470 0.960 . S
C484 H471 0.960 . S
C484 C483 1.524 . S
C485 C482 1.403 1_565 S
C485 C486 1.392 . S
C485 C489 1.495 . S
C486 C485 1.392 . S
C486 C487 1.385 . S
C486 C488 1.478 . S
C487 H481 0.930 . S
C487 C483 1.400 1_565 S
C487 C486 1.385 . S
C488 C486 1.478 . S
C488 C490 1.381 . S
C488 C494 1.383 . S
C489 C485 1.495 . S
C489 H495 0.959 . S
C489 H496 0.961 . S
C489 H497 0.960 . S
C490 C488 1.381 . S
C490 C491 1.394 . S
C490 H498 0.930 . S
C491 C490 1.394 . S
C491 C492 1.383 . S
C491 H499 0.929 . S
C492 C491 1.383 . S
C492 C493 1.377 . S
C493 H477 0.930 . S
C493 C492 1.377 . S
C493 C494 1.379 . S
C494 H478 0.931 . S
C494 C488 1.383 . S
C494 C493 1.379 . S
H495 C489 0.959 . S
H496 C489 0.961 . S
H497 C489 0.960 . S
H498 C490 0.930 . S
H499 C491 0.929 . S
H500 C508 0.929 . S
H501 C510 0.930 . S
H502 C512 0.930 . S
H503 C515 0.929 . S
H504 C518 0.930 . S
H505 C520 0.960 . S
H506 C520 0.960 . S
H507 C520 0.960 . S
C508 H500 0.929 . S
C508 C509 1.377 . S
C508 C510 1.384 . S
C509 C508 1.377 . S
C509 C515 1.390 . S
C510 H501 0.930 . S
C510 C508 1.384 . S
C510 C511 1.372 . S
C511 C510 1.372 . S
C511 C512 1.400 . S
C511 C516 1.490 . S
C512 H502 0.930 . S
C512 C511 1.400 . S
C512 C515 1.386 . S
H513 C529 0.930 . S
H514 C530 0.931 . S
C515 H503 0.929 . S
C515 C509 1.390 . S
C515 C512 1.386 . S
C516 C511 1.490 . S
C516 C518 1.395 . S
C516 C519 1.403 . S
H517 C523 0.930 . S
C518 H504 0.930 . S
C518 C516 1.395 . S
C518 C521 1.403 . S
C519 C516 1.403 . S
C519 C520 1.524 . S
C519 C523 1.400 . S
C520 H505 0.960 . S
C520 H506 0.960 . S
C520 H507 0.960 . S
C520 C519 1.524 . S
C521 C518 1.403 . S
C521 C522 1.392 . S
C521 C525 1.495 . S
C522 C521 1.392 . S
C522 C523 1.385 . S
C522 C524 1.478 . S
C523 H517 0.930 . S
C523 C519 1.400 . S
C523 C522 1.385 . S
C524 C522 1.478 . S
C524 C526 1.381 . S
C524 C530 1.383 . S
C525 C521 1.495 . S
C525 H531 0.959 . S
C525 H532 0.961 . S
C525 H533 0.960 . S
C526 C524 1.381 . S
C526 C527 1.394 . S
C526 H534 0.930 . S
C527 C526 1.394 . S
C527 C528 1.383 . S
C527 H535 0.929 . S
C528 C527 1.383 . S
C528 C529 1.377 . S
C529 H513 0.930 . S
C529 C528 1.377 . S
C529 C530 1.379 . S
C530 H514 0.931 . S
C530 C524 1.383 . S
C530 C529 1.379 . S
H531 C525 0.959 . S
H532 C525 0.961 . S
H533 C525 0.960 . S
H534 C526 0.930 . S
H535 C527 0.929 . S
H536 C544 0.929 . S
H537 C546 0.930 . S
H538 C548 0.930 . S
H539 C551 0.929 . S
H540 C554 0.930 . S
H541 C556 0.960 . S
H542 C556 0.960 1_554 S
H543 C556 0.960 . S
C544 H536 0.929 . S
C544 C545 1.377 . S
C544 C546 1.384 . S
C545 C544 1.377 . S
C545 C551 1.390 . S
C546 H537 0.930 . S
C546 C544 1.384 . S
C546 C547 1.372 . S
C547 C546 1.372 . S
C547 C548 1.400 . S
C547 C552 1.490 . S
C548 H538 0.930 . S
C548 C547 1.400 . S
C548 C551 1.386 . S
H549 C565 0.930 . S
H550 C566 0.931 . S
C551 H539 0.929 . S
C551 C545 1.390 . S
C551 C548 1.386 . S
C552 C547 1.490 . S
C552 C554 1.395 . S
C552 C555 1.403 1_565 S
H553 C559 0.930 . S
C554 H540 0.930 . S
C554 C552 1.395 . S
C554 C557 1.403 1_565 S
C555 C552 1.403 1_545 S
C555 C556 1.524 . S
C555 C559 1.400 . S
C556 H541 0.960 . S
C556 H542 0.960 1_556 S
C556 H543 0.960 . S
C556 C555 1.524 . S
C557 C554 1.403 1_545 S
C557 C558 1.392 . S
C557 C561 1.495 . S
C558 C557 1.392 . S
C558 C559 1.385 . S
C558 C560 1.478 . S
C559 H553 0.930 . S
C559 C555 1.400 . S
C559 C558 1.385 . S
C560 C558 1.478 . S
C560 C562 1.381 . S
C560 C566 1.383 . S
C561 C557 1.495 . S
C561 H567 0.959 1_545 S
C561 H568 0.961 . S
C561 H569 0.960 . S
C562 C560 1.381 . S
C562 C563 1.394 . S
C562 H570 0.930 . S
C563 C562 1.394 . S
C563 C564 1.383 . S
C563 H571 0.929 . S
C564 C563 1.383 . S
C564 C565 1.377 . S
C565 H549 0.930 . S
C565 C564 1.377 . S
C565 C566 1.379 . S
C566 H550 0.931 . S
C566 C560 1.383 . S
C566 C565 1.379 . S
H567 C561 0.959 1_565 S
H568 C561 0.961 . S
H569 C561 0.960 . S
H570 C562 0.930 . S
H571 C563 0.929 . S
H572 C580 0.929 . S
H573 C582 0.930 . S
H574 C584 0.930 . S
H575 C587 0.929 . S
H576 C590 0.930 . S
H577 C592 0.960 . S
H578 C592 0.960 . S
H579 C592 0.960 . S
C580 H572 0.929 . S
C580 C581 1.377 . S
C580 C582 1.384 . S
C581 C580 1.377 . S
C581 C587 1.390 . S
C582 H573 0.930 . S
C582 C580 1.384 . S
C582 C583 1.372 . S
C583 C582 1.372 . S
C583 C584 1.400 . S
C583 C588 1.490 . S
C584 H574 0.930 . S
C584 C583 1.400 . S
C584 C587 1.386 . S
H585 C601 0.930 . S
H586 C602 0.931 . S
C587 H575 0.929 . S
C587 C581 1.390 . S
C587 C584 1.386 . S
C588 C583 1.490 . S
C588 C590 1.395 . S
C588 C591 1.403 . S
H589 C595 0.930 . S
C590 H576 0.930 . S
C590 C588 1.395 . S
C590 C593 1.403 . S
C591 C588 1.403 . S
C591 C592 1.524 . S
C591 C595 1.400 . S
C592 H577 0.960 . S
C592 H578 0.960 . S
C592 H579 0.960 . S
C592 C591 1.524 . S
C593 C590 1.403 . S
C593 C594 1.392 . S
C593 C597 1.495 . S
C594 C593 1.392 . S
C594 C595 1.385 . S
C594 C596 1.478 . S
C595 H589 0.930 . S
C595 C591 1.400 . S
C595 C594 1.385 . S
C596 C594 1.478 . S
C596 C598 1.381 . S
C596 C602 1.383 . S
C597 C593 1.495 . S
C597 H603 0.959 . S
C597 H604 0.961 . S
C597 H605 0.960 . S
C598 C596 1.381 . S
C598 C599 1.394 . S
C598 H606 0.930 . S
C599 C598 1.394 . S
C599 C600 1.383 . S
C599 H607 0.929 . S
C600 C599 1.383 . S
C600 C601 1.377 . S
C601 H585 0.930 . S
C601 C600 1.377 . S
C601 C602 1.379 . S
C602 H586 0.931 . S
C602 C596 1.383 . S
C602 C601 1.379 . S
H603 C597 0.959 . S
H604 C597 0.961 . S
H605 C597 0.960 . S
H606 C598 0.930 . S
H607 C599 0.929 . S
H608 C616 0.929 . S
H609 C618 0.930 . S
H610 C620 0.930 . S
H611 C623 0.929 . S
H612 C626 0.930 . S
H613 C628 0.960 . S
H614 C628 0.960 . S
H615 C628 0.960 . S
C616 H608 0.929 . S
C616 C617 1.377 . S
C616 C618 1.384 . S
C617 C616 1.377 . S
C617 C623 1.390 . S
C618 H609 0.930 . S
C618 C616 1.384 . S
C618 C619 1.372 . S
C619 C618 1.372 . S
C619 C620 1.400 . S
C619 C624 1.490 . S
C620 H610 0.930 . S
C620 C619 1.400 . S
C620 C623 1.386 . S
H621 C637 0.930 . S
H622 C638 0.931 . S
C623 H611 0.929 . S
C623 C617 1.390 . S
C623 C620 1.386 . S
C624 C619 1.490 . S
C624 C626 1.395 . S
C624 C627 1.403 . S
H625 C631 0.930 . S
C626 H612 0.930 . S
C626 C624 1.395 . S
C626 C629 1.403 . S
C627 C624 1.403 . S
C627 C628 1.524 . S
C627 C631 1.400 . S
C628 H613 0.960 . S
C628 H614 0.960 . S
C628 H615 0.960 . S
C628 C627 1.524 . S
C629 C626 1.403 . S
C629 C630 1.392 . S
C629 C633 1.495 . S
C630 C629 1.392 . S
C630 C631 1.385 . S
C630 C632 1.478 . S
C631 H625 0.930 . S
C631 C627 1.400 . S
C631 C630 1.385 . S
C632 C630 1.478 . S
C632 C634 1.381 . S
C632 C638 1.383 . S
C633 C629 1.495 . S
C633 H639 0.959 . S
C633 H640 0.961 . S
C633 H641 0.960 . S
C634 C632 1.381 . S
C634 C635 1.394 . S
C634 H642 0.930 . S
C635 C634 1.394 . S
C635 C636 1.383 . S
C635 H643 0.929 . S
C636 C635 1.383 . S
C636 C637 1.377 . S
C637 H621 0.930 . S
C637 C636 1.377 . S
C637 C638 1.379 . S
C638 H622 0.931 . S
C638 C632 1.383 . S
C638 C637 1.379 . S
H639 C633 0.959 . S
H640 C633 0.961 . S
H641 C633 0.960 . S
H642 C634 0.930 . S
H643 C635 0.929 . S
H644 C652 0.929 . S
H645 C654 0.933 . S
H646 C656 0.930 1_655 S
H647 C659 0.929 . S
H648 C662 0.930 . S
H649 C664 0.960 . S
H650 C664 0.960 . S
H651 C664 0.960 . S
C652 H644 0.929 . S
C652 C653 1.377 . S
C652 C654 1.384 . S
C653 C652 1.377 . S
C653 C659 1.390 . S
C654 H645 0.933 . S
C654 C652 1.384 . S
C654 C655 1.372 1_455 S
C655 C654 1.372 1_655 S
C655 C656 1.400 1_655 S
C655 C660 1.490 . S
C656 H646 0.930 1_455 S
C656 C655 1.400 1_455 S
C656 C659 1.386 . S
H657 C673 0.930 . S
H658 C674 0.931 . S
C659 H647 0.929 . S
C659 C653 1.390 . S
C659 C656 1.386 . S
C660 C655 1.490 . S
C660 C662 1.395 . S
C660 C663 1.403 . S
H661 C667 0.930 . S
C662 H648 0.930 . S
C662 C660 1.395 . S
C662 C665 1.403 . S
C663 C660 1.403 . S
C663 C664 1.524 . S
C663 C667 1.400 . S
C664 H649 0.960 . S
C664 H650 0.960 . S
C664 H651 0.960 . S
C664 C663 1.524 . S
C665 C662 1.403 . S
C665 C666 1.392 . S
C665 C669 1.495 . S
C666 C665 1.392 . S
C666 C667 1.385 . S
C666 C668 1.478 . S
C667 H661 0.930 . S
C667 C663 1.400 . S
C667 C666 1.385 . S
C668 C666 1.478 . S
C668 C670 1.381 . S
C668 C674 1.383 . S
C669 C665 1.495 . S
C669 H675 0.959 . S
C669 H676 0.961 . S
C669 H677 0.960 . S
C670 C668 1.381 . S
C670 C671 1.394 . S
C670 H678 0.930 . S
C671 C670 1.394 . S
C671 C672 1.383 . S
C671 H679 0.929 . S
C672 C671 1.383 . S
C672 C673 1.377 . S
C673 H657 0.930 . S
C673 C672 1.377 . S
C673 C674 1.379 . S
C674 H658 0.931 . S
C674 C668 1.383 . S
C674 C673 1.379 . S
H675 C669 0.959 . S
H676 C669 0.961 . S
H677 C669 0.960 . S
H678 C670 0.930 . S
H679 C671 0.929 . S
H680 C688 0.929 . S
H681 C690 0.930 . S
H682 C692 0.930 . S
H683 C695 0.929 . S
H684 C698 0.930 . S
H685 C700 0.960 . S
H686 C700 0.960 . S
H687 C700 0.960 . S
C688 H680 0.929 . S
C688 C689 1.377 . S
C688 C690 1.384 . S
C689 C688 1.377 . S
C689 C695 1.390 . S
C690 H681 0.930 . S
C690 C688 1.384 . S
C690 C691 1.372 . S
C691 C690 1.372 . S
C691 C692 1.400 . S
C691 C696 1.490 . S
C692 H682 0.930 . S
C692 C691 1.400 . S
C692 C695 1.386 . S
H693 C709 0.930 . S
H694 C710 0.931 . S
C695 H683 0.929 . S
C695 C689 1.390 . S
C695 C692 1.386 . S
C696 C691 1.490 . S
C696 C698 1.395 . S
C696 C699 1.403 . S
H697 C703 0.930 . S
C698 H684 0.930 . S
C698 C696 1.395 . S
C698 C701 1.403 . S
C699 C696 1.403 . S
C699 C700 1.524 . S
C699 C703 1.400 . S
C700 H685 0.960 . S
C700 H686 0.960 . S
C700 H687 0.960 . S
C700 C699 1.524 . S
C701 C698 1.403 . S
C701 C702 1.392 . S
C701 C705 1.495 . S
C702 C701 1.392 . S
C702 C703 1.385 . S
C702 C704 1.478 . S
C703 H697 0.930 . S
C703 C699 1.400 . S
C703 C702 1.385 . S
C704 C702 1.478 . S
C704 C706 1.381 . S
C704 C710 1.383 . S
C705 C701 1.495 . S
C705 H711 0.959 . S
C705 H712 0.961 . S
C705 H713 0.960 . S
C706 C704 1.381 . S
C706 C707 1.394 . S
C706 H714 0.930 . S
C707 C706 1.394 . S
C707 C708 1.383 . S
C707 H715 0.929 . S
C708 C707 1.383 . S
C708 C709 1.377 . S
C709 H693 0.930 . S
C709 C708 1.377 . S
C709 C710 1.379 . S
C710 H694 0.931 . S
C710 C704 1.383 . S
C710 C709 1.379 . S
H711 C705 0.959 . S
H712 C705 0.961 . S
H713 C705 0.960 . S
H714 C706 0.930 . S
H715 C707 0.929 . S
H716 C724 0.929 . S
H717 C726 0.930 . S
H718 C728 0.930 . S
H719 C731 0.929 . S
H720 C734 0.930 1_455 S
H721 C736 0.960 . S
H722 C736 0.960 . S
H723 C736 0.960 . S
C724 H716 0.929 . S
C724 C725 1.377 . S
C724 C726 1.384 . S
C725 C724 1.377 . S
C725 C731 1.390 . S
C726 H717 0.930 . S
C726 C724 1.384 . S
C726 C727 1.372 . S
C727 C726 1.372 . S
C727 C728 1.400 . S
C727 C732 1.490 . S
C728 H718 0.930 . S
C728 C727 1.400 . S
C728 C731 1.386 . S
H729 C745 0.930 . S
H730 C746 0.931 . S
C731 H719 0.929 . S
C731 C725 1.390 . S
C731 C728 1.386 . S
C732 C727 1.490 . S
C732 C734 1.395 . S
C732 C735 1.403 . S
H733 C739 0.930 . S
C734 H720 0.930 1_655 S
C734 C732 1.395 . S
C734 C737 1.403 1_655 S
C735 C732 1.403 . S
C735 C736 1.524 . S
C735 C739 1.400 . S
C736 H721 0.960 . S
C736 H722 0.960 . S
C736 H723 0.960 . S
C736 C735 1.524 . S
C737 C734 1.403 1_455 S
C737 C738 1.392 . S
C737 C741 1.495 . S
C738 C737 1.392 . S
C738 C739 1.385 1_455 S
C738 C740 1.478 . S
C739 H733 0.930 . S
C739 C735 1.400 . S
C739 C738 1.385 1_655 S
C740 C738 1.478 . S
C740 C742 1.381 . S
C740 C746 1.383 . S
C741 C737 1.495 . S
C741 H747 0.959 . S
C741 H748 0.961 . S
C741 H749 0.960 . S
C742 C740 1.381 . S
C742 C743 1.394 . S
C742 H750 0.930 . S
C743 C742 1.394 . S
C743 C744 1.383 . S
C743 H751 0.929 . S
C744 C743 1.383 . S
C744 C745 1.377 . S
C745 H729 0.930 . S
C745 C744 1.377 . S
C745 C746 1.379 . S
C746 H730 0.931 . S
C746 C740 1.383 . S
C746 C745 1.379 . S
H747 C741 0.959 . S
H748 C741 0.961 . S
H749 C741 0.960 . S
H750 C742 0.930 . S
H751 C743 0.929 . S
H752 C760 0.929 . S
H753 C762 0.930 . S
H754 C764 0.930 . S
H755 C767 0.929 . S
H756 C770 0.930 . S
H757 C772 0.960 . S
H758 C772 0.960 . S
H759 C772 0.960 . S
C760 H752 0.929 . S
C760 C761 1.377 . S
C760 C762 1.384 . S
C761 C760 1.377 . S
C761 C767 1.390 . S
C762 H753 0.930 . S
C762 C760 1.384 . S
C762 C763 1.372 . S
C763 C762 1.372 . S
C763 C764 1.400 . S
C763 C768 1.490 . S
C764 H754 0.930 . S
C764 C763 1.400 . S
C764 C767 1.386 . S
H765 C781 0.930 . S
H766 C782 0.931 . S
C767 H755 0.929 . S
C767 C761 1.390 . S
C767 C764 1.386 . S
C768 C763 1.490 . S
C768 C770 1.395 . S
C768 C771 1.403 . S
H769 C775 0.930 . S
C770 H756 0.930 . S
C770 C768 1.395 . S
C770 C773 1.403 . S
C771 C768 1.403 . S
C771 C772 1.524 . S
C771 C775 1.400 . S
C772 H757 0.960 . S
C772 H758 0.960 . S
C772 H759 0.960 . S
C772 C771 1.524 . S
C773 C770 1.403 . S
C773 C774 1.392 . S
C773 C777 1.495 . S
C774 C773 1.392 . S
C774 C775 1.385 . S
C774 C776 1.478 . S
C775 H769 0.930 . S
C775 C771 1.400 . S
C775 C774 1.385 . S
C776 C774 1.478 . S
C776 C778 1.381 . S
C776 C782 1.383 . S
C777 C773 1.495 . S
C777 H783 0.959 . S
C777 H784 0.961 . S
C777 H785 0.960 . S
C778 C776 1.381 . S
C778 C779 1.394 . S
C778 H786 0.930 . S
C779 C778 1.394 . S
C779 C780 1.383 . S
C779 H787 0.929 . S
C780 C779 1.383 . S
C780 C781 1.377 . S
C781 H765 0.930 . S
C781 C780 1.377 . S
C781 C782 1.379 . S
C782 H766 0.931 . S
C782 C776 1.383 . S
C782 C781 1.379 . S
H783 C777 0.959 . S
H784 C777 0.961 . S
H785 C777 0.960 . S
H786 C778 0.930 . S
H787 C779 0.929 . S
H788 C796 0.929 . S
H789 C798 0.930 . S
H790 C800 0.930 . S
H791 C803 0.929 . S
H792 C806 0.930 . S
H793 C808 0.960 . S
H794 C808 0.960 . S
H795 C808 0.960 . S
C796 H788 0.929 . S
C796 C797 1.377 . S
C796 C798 1.384 . S
C797 C796 1.377 . S
C797 C803 1.390 . S
C798 H789 0.930 . S
C798 C796 1.384 . S
C798 C799 1.372 . S
C799 C798 1.372 . S
C799 C800 1.400 . S
C799 C804 1.490 . S
C800 H790 0.930 . S
C800 C799 1.400 . S
C800 C803 1.386 . S
H801 C817 0.930 . S
H802 C818 0.931 . S
C803 H791 0.929 . S
C803 C797 1.390 . S
C803 C800 1.386 . S
C804 C799 1.490 . S
C804 C806 1.395 . S
C804 C807 1.403 . S
H805 C811 0.930 . S
C806 H792 0.930 . S
C806 C804 1.395 . S
C806 C809 1.403 . S
C807 C804 1.403 . S
C807 C808 1.524 . S
C807 C811 1.400 . S
C808 H793 0.960 . S
C808 H794 0.960 . S
C808 H795 0.960 . S
C808 C807 1.524 . S
C809 C806 1.403 . S
C809 C810 1.392 . S
C809 C813 1.495 . S
C810 C809 1.392 . S
C810 C811 1.385 . S
C810 C812 1.478 . S
C811 H805 0.930 . S
C811 C807 1.400 . S
C811 C810 1.385 . S
C812 C810 1.478 . S
C812 C814 1.381 . S
C812 C818 1.383 . S
C813 C809 1.495 . S
C813 H819 0.959 . S
C813 H820 0.961 . S
C813 H821 0.960 . S
C814 C812 1.381 . S
C814 C815 1.394 . S
C814 H822 0.930 . S
C815 C814 1.394 . S
C815 C816 1.383 . S
C815 H823 0.929 . S
C816 C815 1.383 . S
C816 C817 1.377 . S
C817 H801 0.930 . S
C817 C816 1.377 . S
C817 C818 1.379 . S
C818 H802 0.931 . S
C818 C812 1.383 . S
C818 C817 1.379 . S
H819 C813 0.959 . S
H820 C813 0.961 . S
H821 C813 0.960 . S
H822 C814 0.930 . S
H823 C815 0.929 . S
H824 C832 0.929 . S
H825 C834 0.930 . S
H826 C836 0.930 . S
H827 C839 0.929 . S
H828 C842 0.930 . S
H829 C844 0.960 . S
H830 C844 0.960 . S
H831 C844 0.960 . S
C832 H824 0.929 . S
C832 C833 1.377 . S
C832 C834 1.384 . S
C833 C832 1.377 . S
C833 C839 1.390 . S
C834 H825 0.930 . S
C834 C832 1.384 . S
C834 C835 1.372 . S
C835 C834 1.372 . S
C835 C836 1.400 . S
C835 C840 1.490 . S
C836 H826 0.930 . S
C836 C835 1.400 . S
C836 C839 1.386 . S
H837 C853 0.930 . S
H838 C854 0.931 . S
C839 H827 0.929 . S
C839 C833 1.390 . S
C839 C836 1.386 . S
C840 C835 1.490 . S
C840 C842 1.395 . S
C840 C843 1.403 . S
H841 C847 0.930 . S
C842 H828 0.930 . S
C842 C840 1.395 . S
C842 C845 1.403 . S
C843 C840 1.403 . S
C843 C844 1.524 . S
C843 C847 1.400 . S
C844 H829 0.960 . S
C844 H830 0.960 . S
C844 H831 0.960 . S
C844 C843 1.524 . S
C845 C842 1.403 . S
C845 C846 1.392 . S
C845 C849 1.495 . S
C846 C845 1.392 . S
C846 C847 1.385 . S
C846 C848 1.478 . S
C847 H841 0.930 . S
C847 C843 1.400 . S
C847 C846 1.385 . S
C848 C846 1.478 . S
C848 C850 1.381 . S
C848 C854 1.383 . S
C849 C845 1.495 . S
C849 H855 0.959 . S
C849 H856 0.961 . S
C849 H857 0.960 . S
C850 C848 1.381 . S
C850 C851 1.394 . S
C850 H858 0.930 . S
C851 C850 1.394 . S
C851 C852 1.383 . S
C851 H859 0.929 . S
C852 C851 1.383 . S
C852 C853 1.377 . S
C853 H837 0.930 . S
C853 C852 1.377 . S
C853 C854 1.379 . S
C854 H838 0.931 . S
C854 C848 1.383 . S
C854 C853 1.379 . S
H855 C849 0.959 . S
H856 C849 0.961 . S
H857 C849 0.960 . S
H858 C850 0.930 . S
H859 C851 0.929 . S
H860 C868 0.929 . S
H861 C870 0.930 . S
H862 C872 0.930 . S
H863 C875 0.929 . S
H864 C878 0.930 . S
H865 C880 0.960 . S
H866 C880 0.960 . S
H867 C880 0.960 . S
C868 H860 0.929 . S
C868 C869 1.377 . S
C868 C870 1.384 . S
C869 C868 1.377 . S
C869 C875 1.390 . S
C870 H861 0.930 . S
C870 C868 1.384 . S
C870 C871 1.372 . S
C871 C870 1.372 . S
C871 C872 1.400 . S
C871 C876 1.490 . S
C872 H862 0.930 . S
C872 C871 1.400 . S
C872 C875 1.386 . S
H873 C889 0.930 . S
H874 C890 0.931 . S
C875 H863 0.929 . S
C875 C869 1.390 . S
C875 C872 1.386 . S
C876 C871 1.490 . S
C876 C878 1.395 . S
C876 C879 1.403 . S
H877 C883 0.930 . S
C878 H864 0.930 . S
C878 C876 1.395 . S
C878 C881 1.403 . S
C879 C876 1.403 . S
C879 C880 1.524 . S
C879 C883 1.400 . S
C880 H865 0.960 . S
C880 H866 0.960 . S
C880 H867 0.960 . S
C880 C879 1.524 . S
C881 C878 1.403 . S
C881 C882 1.392 . S
C881 C885 1.495 . S
C882 C881 1.392 . S
C882 C883 1.385 . S
C882 C884 1.478 . S
C883 H877 0.930 . S
C883 C879 1.400 . S
C883 C882 1.385 . S
C884 C882 1.478 . S
C884 C886 1.381 . S
C884 C890 1.383 . S
C885 C881 1.495 . S
C885 H891 0.959 . S
C885 H892 0.961 . S
C885 H893 0.960 . S
C886 C884 1.381 . S
C886 C887 1.394 . S
C886 H894 0.930 . S
C887 C886 1.394 . S
C887 C888 1.383 . S
C887 H895 0.929 . S
C888 C887 1.383 . S
C888 C889 1.377 . S
C889 H873 0.930 . S
C889 C888 1.377 . S
C889 C890 1.379 . S
C890 H874 0.931 . S
C890 C884 1.383 . S
C890 C889 1.379 . S
H891 C885 0.959 . S
H892 C885 0.961 . S
H893 C885 0.960 . S
H894 C886 0.930 . S
H895 C887 0.929 . S
H896 C904 0.929 . S
H897 C906 0.930 . S
H898 C908 0.930 . S
H899 C911 0.929 . S
H900 C914 0.930 . S
H901 C916 0.960 . S
H902 C916 0.960 . S
H903 C916 0.960 . S
C904 H896 0.929 . S
C904 C905 1.377 . S
C904 C906 1.384 . S
C905 C904 1.377 . S
C905 C911 1.390 . S
C906 H897 0.930 . S
C906 C904 1.384 . S
C906 C907 1.372 . S
C907 C906 1.372 . S
C907 C908 1.400 . S
C907 C912 1.490 . S
C908 H898 0.930 . S
C908 C907 1.400 . S
C908 C911 1.386 . S
H909 C925 0.930 . S
H910 C926 0.931 . S
C911 H899 0.929 . S
C911 C905 1.390 . S
C911 C908 1.386 . S
C912 C907 1.490 . S
C912 C914 1.395 . S
C912 C915 1.403 . S
H913 C919 0.930 . S
C914 H900 0.930 . S
C914 C912 1.395 . S
C914 C917 1.403 . S
C915 C912 1.403 . S
C915 C916 1.524 . S
C915 C919 1.400 . S
C916 H901 0.960 . S
C916 H902 0.960 . S
C916 H903 0.960 . S
C916 C915 1.524 . S
C917 C914 1.403 . S
C917 C918 1.392 . S
C917 C921 1.495 . S
C918 C917 1.392 . S
C918 C919 1.385 . S
C918 C920 1.478 . S
C919 H913 0.930 . S
C919 C915 1.400 . S
C919 C918 1.385 . S
C920 C918 1.478 . S
C920 C922 1.381 . S
C920 C926 1.383 . S
C921 C917 1.495 . S
C921 H927 0.959 . S
C921 H928 0.961 . S
C921 H929 0.960 . S
C922 C920 1.381 . S
C922 C923 1.394 . S
C922 H930 0.930 . S
C923 C922 1.394 . S
C923 C924 1.383 . S
C923 H931 0.929 . S
C924 C923 1.383 . S
C924 C925 1.377 . S
C925 H909 0.930 . S
C925 C924 1.377 . S
C925 C926 1.379 . S
C926 H910 0.931 . S
C926 C920 1.383 . S
C926 C925 1.379 . S
H927 C921 0.959 . S
H928 C921 0.961 . S
H929 C921 0.960 . S
H930 C922 0.930 . S
H931 C923 0.929 . S
H932 C940 0.929 . S
H933 C942 0.930 . S
H934 C944 0.930 . S
H935 C947 0.929 . S
H936 C950 0.930 . S
H937 C952 0.960 . S
H938 C952 0.960 . S
H939 C952 0.960 . S
C940 H932 0.929 . S
C940 C941 1.377 . S
C940 C942 1.384 . S
C941 C940 1.377 . S
C941 C947 1.390 . S
C942 H933 0.930 . S
C942 C940 1.384 . S
C942 C943 1.372 . S
C943 C942 1.372 . S
C943 C944 1.400 . S
C943 C948 1.490 . S
C944 H934 0.930 . S
C944 C943 1.400 . S
C944 C947 1.386 . S
H945 C961 0.930 . S
H946 C962 0.931 . S
C947 H935 0.929 . S
C947 C941 1.390 . S
C947 C944 1.386 . S
C948 C943 1.490 . S
C948 C950 1.395 . S
C948 C951 1.403 . S
H949 C955 0.930 . S
C950 H936 0.930 . S
C950 C948 1.395 . S
C950 C953 1.403 . S
C951 C948 1.403 . S
C951 C952 1.524 . S
C951 C955 1.400 . S
C952 H937 0.960 . S
C952 H938 0.960 . S
C952 H939 0.960 . S
C952 C951 1.524 . S
C953 C950 1.403 . S
C953 C954 1.392 . S
C953 C957 1.495 . S
C954 C953 1.392 . S
C954 C955 1.385 . S
C954 C956 1.478 . S
C955 H949 0.930 . S
C955 C951 1.400 . S
C955 C954 1.385 . S
C956 C954 1.478 . S
C956 C958 1.381 . S
C956 C962 1.383 . S
C957 C953 1.495 . S
C957 H963 0.959 . S
C957 H964 0.961 . S
C957 H965 0.960 . S
C958 C956 1.381 . S
C958 C959 1.394 . S
C958 H966 0.930 . S
C959 C958 1.394 . S
C959 C960 1.383 . S
C959 H967 0.929 . S
C960 C959 1.383 . S
C960 C961 1.377 . S
C961 H945 0.930 . S
C961 C960 1.377 . S
C961 C962 1.379 . S
C962 H946 0.931 . S
C962 C956 1.383 . S
C962 C961 1.379 . S
H963 C957 0.959 . S
H964 C957 0.961 . S
H965 C957 0.960 . S
H966 C958 0.930 . S
H967 C959 0.929 . S
H968 C976 0.929 . S
H969 C978 0.930 . S
H970 C980 0.930 . S
H971 C983 0.929 . S
H972 C986 0.930 . S
H973 C988 0.960 . S
H974 C988 0.960 . S
H975 C988 0.960 . S
C976 H968 0.929 . S
C976 C977 1.377 . S
C976 C978 1.384 . S
C977 C976 1.377 . S
C977 C983 1.390 . S
C978 H969 0.930 . S
C978 C976 1.384 . S
C978 C979 1.372 . S
C979 C978 1.372 . S
C979 C980 1.400 . S
C979 C984 1.490 . S
C980 H970 0.930 . S
C980 C979 1.400 . S
C980 C983 1.386 . S
H981 C997 0.930 . S
H982 C998 0.931 . S
C983 H971 0.929 . S
C983 C977 1.390 . S
C983 C980 1.386 . S
C984 C979 1.490 . S
C984 C986 1.395 . S
C984 C987 1.403 . S
H985 C991 0.930 . S
C986 H972 0.930 . S
C986 C984 1.395 . S
C986 C989 1.403 . S
C987 C984 1.403 . S
C987 C988 1.524 . S
C987 C991 1.400 . S
C988 H973 0.960 . S
C988 H974 0.960 . S
C988 H975 0.960 . S
C988 C987 1.524 . S
C989 C986 1.403 . S
C989 C990 1.392 . S
C989 C993 1.495 . S
C990 C989 1.392 . S
C990 C991 1.385 . S
C990 C992 1.478 . S
C991 H985 0.930 . S
C991 C987 1.400 . S
C991 C990 1.385 . S
C992 C990 1.478 . S
C992 C994 1.381 . S
C992 C998 1.383 . S
C993 C989 1.495 . S
C993 H999 0.959 . S
C993 H1000 0.961 . S
C993 H1001 0.960 . S
C994 C992 1.381 . S
C994 C995 1.394 . S
C994 H1002 0.930 . S
C995 C994 1.394 . S
C995 C996 1.383 . S
C995 H1003 0.929 . S
C996 C995 1.383 . S
C996 C997 1.377 . S
C997 H981 0.930 . S
C997 C996 1.377 . S
C997 C998 1.379 . S
C998 H982 0.931 . S
C998 C992 1.383 . S
C998 C997 1.379 . S
H999 C993 0.959 . S
H1000 C993 0.961 . S
H1001 C993 0.960 . S
H1002 C994 0.930 . S
H1003 C995 0.929 . S
H1004 C1012 0.929 . S
H1005 C1014 0.930 . S
H1006 C1016 0.930 . S
H1007 C1019 0.947 . S
H1008 C1022 0.930 . S
H1009 C1024 0.960 . S
H1010 C1024 0.960 . S
H1011 C1024 0.960 . S
C1012 H1004 0.929 . S
C1012 C1013 1.377 . S
C1012 C1014 1.384 . S
C1013 C1012 1.377 . S
C1013 C1019 1.390 . S
C1014 H1005 0.930 . S
C1014 C1012 1.384 . S
C1014 C1015 1.372 . S
C1015 C1014 1.372 . S
C1015 C1016 1.400 . S
C1015 C1020 1.490 . S
C1016 H1006 0.930 . S
C1016 C1015 1.400 . S
C1016 C1019 1.386 . S
H1017 C1033 0.930 . S
H1018 C1034 0.931 . S
C1019 H1007 0.947 . S
C1019 C1013 1.390 . S
C1019 C1016 1.386 . S
C1020 C1015 1.490 . S
C1020 C1022 1.395 . S
C1020 C1023 1.403 . S
H1021 C1027 0.930 . S
C1022 H1008 0.930 . S
C1022 C1020 1.395 . S
C1022 C1025 1.403 . S
C1023 C1020 1.403 . S
C1023 C1024 1.524 . S
C1023 C1027 1.400 . S
C1024 H1009 0.960 . S
C1024 H1010 0.960 . S
C1024 H1011 0.960 . S
C1024 C1023 1.524 . S
C1025 C1022 1.403 . S
C1025 C1026 1.392 . S
C1025 C1029 1.495 . S
C1026 C1025 1.392 . S
C1026 C1027 1.385 . S
C1026 C1028 1.478 . S
C1027 H1021 0.930 . S
C1027 C1023 1.400 . S
C1027 C1026 1.385 . S
C1028 C1026 1.478 . S
C1028 C1030 1.381 . S
C1028 C1034 1.383 . S
C1029 C1025 1.495 . S
C1029 H1035 0.959 . S
C1029 H1036 0.961 . S
C1029 H1037 0.960 . S
C1030 C1028 1.381 . S
C1030 C1031 1.394 . S
C1030 H1038 0.930 . S
C1031 C1030 1.394 . S
C1031 C1032 1.383 . S
C1031 H1039 0.929 . S
C1032 C1031 1.383 . S
C1032 C1033 1.377 . S
C1033 H1017 0.930 . S
C1033 C1032 1.377 . S
C1033 C1034 1.379 . S
C1034 H1018 0.931 . S
C1034 C1028 1.383 . S
C1034 C1033 1.379 . S
H1035 C1029 0.959 . S
H1036 C1029 0.961 . S
H1037 C1029 0.960 . S
H1038 C1030 0.930 . S
H1039 C1031 0.929 . S
C185 C8 1.379 . S
C204 C93 1.300 . S
C221 C31 1.298 . S
C240 C104 1.268 . S
C257 C53 1.308 . S
C276 C114 1.283 . S
C312 C126 1.329 . S
C293 C74 1.317 . S
C348 C137 1.355 . S
C329 C26 1.381 . S
C365 C48 1.312 . S
C384 C148 1.314 . S
C401 C71 1.307 . S
C420 C158 1.301 . S
C437 C5 1.300 . S
C456 C170 1.211 . S
C473 C50 1.240 . S
C492 C169 1.207 . S
C528 C136 1.076 . S
C509 C70 1.105 . S
C564 C147 1.242 . S
C545 C4 1.257 1_556 S
C581 C28 1.331 . S
C600 C159 1.282 . S
C636 C103 1.195 . S
C617 C73 1.240 . S
C653 C7 1.324 . S
C672 C115 1.321 . S
C708 C125 1.265 . S
C689 C30 1.254 . S
C744 C92 1.049 . S
C725 C52 1.110 . S
C780 C164 1.405 . S
C761 C9 1.405 . S
C816 C175 1.392 . S
C797 C29 1.376 . S
C833 C51 1.325 . S
C852 C142 1.324 . S
C888 C153 1.350 . S
C869 C75 1.349 . S
C924 C120 1.399 . S
C905 C27 1.406 . S
C941 C49 1.352 . S
C960 C131 1.309 . S
C996 C98 1.320 . S
C977 C72 1.319 . S
C1032 C109 1.372 . S
C1013 C6 1.373 1_556 S
