# Generated by pormake.
# Topology zzz, (3,6)-cn, num edge types: 1
# Building blocks:
#     Node 0, Type 0, BuildingBlock: BETDAH_clean_linker_0, # of connection points: 3
#     Node 1, Type 0, BuildingBlock: BETDAH_clean_linker_0, # of connection points: 3
#     Node 2, Type 0, BuildingBlock: BETDAH_clean_linker_0, # of connection points: 3
#     Node 3, Type 0, BuildingBlock: BETDAH_clean_linker_0, # of connection points: 3
#     Node 4, Type 0, BuildingBlock: BETDAH_clean_linker_0, # of connection points: 3
#     Node 5, Type 0, BuildingBlock: BETDAH_clean_linker_0, # of connection points: 3
#     Node 6, Type 0, BuildingBlock: BETDAH_clean_linker_0, # of connection points: 3
#     Node 7, Type 0, BuildingBlock: BETDAH_clean_linker_0, # of connection points: 3
#     Node 8, Type 1, BuildingBlock: JUFBIX_clean_sbu_0, # of connection points: 6
#     Node 9, Type 1, BuildingBlock: JUFBIX_clean_sbu_0, # of connection points: 6
#     Node 10, Type 1, BuildingBlock: JUFBIX_clean_sbu_0, # of connection points: 6
#     Node 11, Type 1, BuildingBlock: JUFBIX_clean_sbu_0, # of connection points: 6
#     Edge 12, Type (0, 1), BuildingBlock: XIVTED_clean_linker_0, # of connection points: 2
#     Edge 13, Type (0, 1), BuildingBlock: XIVTED_clean_linker_0, # of connection points: 2
#     Edge 14, Type (0, 1), BuildingBlock: XIVTED_clean_linker_0, # of connection points: 2
#     Edge 15, Type (0, 1), BuildingBlock: XIVTED_clean_linker_0, # of connection points: 2
#     Edge 16, Type (0, 1), BuildingBlock: XIVTED_clean_linker_0, # of connection points: 2
#     Edge 17, Type (0, 1), BuildingBlock: XIVTED_clean_linker_0, # of connection points: 2
#     Edge 18, Type (0, 1), BuildingBlock: XIVTED_clean_linker_0, # of connection points: 2
#     Edge 19, Type (0, 1), BuildingBlock: XIVTED_clean_linker_0, # of connection points: 2
#     Edge 20, Type (0, 1), BuildingBlock: XIVTED_clean_linker_0, # of connection points: 2
#     Edge 21, Type (0, 1), BuildingBlock: XIVTED_clean_linker_0, # of connection points: 2
#     Edge 22, Type (0, 1), BuildingBlock: XIVTED_clean_linker_0, # of connection points: 2
#     Edge 23, Type (0, 1), BuildingBlock: XIVTED_clean_linker_0, # of connection points: 2
#     Edge 24, Type (0, 1), BuildingBlock: XIVTED_clean_linker_0, # of connection points: 2
#     Edge 25, Type (0, 1), BuildingBlock: XIVTED_clean_linker_0, # of connection points: 2
#     Edge 26, Type (0, 1), BuildingBlock: XIVTED_clean_linker_0, # of connection points: 2
#     Edge 27, Type (0, 1), BuildingBlock: XIVTED_clean_linker_0, # of connection points: 2
#     Edge 28, Type (0, 1), BuildingBlock: XIVTED_clean_linker_0, # of connection points: 2
#     Edge 29, Type (0, 1), BuildingBlock: XIVTED_clean_linker_0, # of connection points: 2
#     Edge 30, Type (0, 1), BuildingBlock: XIVTED_clean_linker_0, # of connection points: 2
#     Edge 31, Type (0, 1), BuildingBlock: XIVTED_clean_linker_0, # of connection points: 2
#     Edge 32, Type (0, 1), BuildingBlock: XIVTED_clean_linker_0, # of connection points: 2
#     Edge 33, Type (0, 1), BuildingBlock: XIVTED_clean_linker_0, # of connection points: 2
#     Edge 34, Type (0, 1), BuildingBlock: XIVTED_clean_linker_0, # of connection points: 2
#     Edge 35, Type (0, 1), BuildingBlock: XIVTED_clean_linker_0, # of connection points: 2
# Relax obj value: 0.120
# Max RMSD: 0.176
# Mean RMSD: 0.085
data_MOF--net-zzz--node1-JUFBIX_clean_sbu_0--node2-BETDAH_clean_linker_0--edge1-XIVTED_clean_linker_0
_symmetry_space_group_name_H-M    P1
_symmetry_Int_Tables_number       1
_symmetry_cell_setting            triclinic
loop_
_symmetry_equiv_pos_as_xyz
'x, y, z'
_cell_length_a     52.04819
_cell_length_b     51.802244
_cell_length_c     17.874497
_cell_angle_alpha  81.72439
_cell_angle_beta   89.618378
_cell_angle_gamma 91.573986
loop_
_atom_site_label
_atom_site_type_symbol
_atom_site_fract_x
_atom_site_fract_y
_atom_site_fract_z
_atom_type_partial_charge
H0 H 0.86089 0.51315 0.2879 0.0
H1 H 0.79139 0.52202 0.1596 0.0
H2 H 0.79285 0.5381 0.3902 0.0
C3 C 0.84064 0.51766 0.28438 0.0
C4 C 0.82842 0.52576 0.34628 0.0
C5 C 0.82743 0.5162 0.21722 0.0
C6 C 0.80143 0.52277 0.21214 0.0
C7 C 0.7887 0.53035 0.27523 0.0
C8 C 0.80242 0.53196 0.34197 0.0
N9 N 0.76234 0.53679 0.2736 0.0
C10 C 0.74586 0.53399 0.2142 0.0
H11 H 0.97556 0.82932 0.28532 0.0
H12 H 0.98668 0.76429 0.16536 0.0
H13 H 0.97858 0.75227 0.40894 0.0
C14 C 0.97692 0.80845 0.28517 0.0
C15 C 0.9761 0.79197 0.35406 0.0
C16 C 0.98071 0.79875 0.21693 0.0
C17 C 0.98361 0.77182 0.21807 0.0
C18 C 0.98248 0.75483 0.28752 0.0
C19 C 0.97902 0.76513 0.35544 0.0
N20 N 0.98495 0.72743 0.2913 0.0
C21 C 0.98699 0.71463 0.22838 0.0
H22 H 0.68447 0.02395 0.15585 0.0
H23 H 0.75316 0.0093 0.03599 0.0
H24 H 0.74867 0.99027 0.27911 0.0
C25 C 0.70426 0.01785 0.15652 0.0
C26 C 0.71515 0.0078 0.22548 0.0
C27 C 0.7176 0.01834 0.08804 0.0
C28 C 0.74285 0.00929 0.08883 0.0
C29 C 0.75432 0.9996 0.15831 0.0
C30 C 0.74011 0.99832 0.22602 0.0
N31 N 0.77972 0.9902 0.16243 0.0
C32 C 0.79861 0.99659 0.1069 0.0
H33 H 0.50625 0.6611 0.17911 0.0
H34 H 0.529 0.73577 0.05625 0.0
H35 H 0.53771 0.72069 0.29834 0.0
C36 C 0.51314 0.68107 0.17912 0.0
C37 C 0.52096 0.68904 0.24703 0.0
C38 C 0.51621 0.69758 0.1103 0.0
C39 C 0.52618 0.7231 0.10958 0.0
C40 C 0.53339 0.7317 0.17808 0.0
C41 C 0.5314 0.71434 0.2461 0.0
N42 N 0.5438 0.75718 0.18053 0.0
C43 C 0.53886 0.77887 0.12766 0.0
H44 H 0.16337 0.48072 0.30039 0.0
H45 H 0.23398 0.50168 0.40168 0.0
H46 H 0.23217 0.49368 0.16458 0.0
C47 C 0.18394 0.48476 0.29568 0.0
C48 C 0.19618 0.48593 0.22543 0.0
C49 C 0.19735 0.4907 0.35881 0.0
C50 C 0.22374 0.49694 0.35266 0.0
C51 C 0.23657 0.49738 0.28262 0.0
C52 C 0.22252 0.4925 0.21895 0.0
N53 N 0.26334 0.50316 0.27374 0.0
C54 C 0.28022 0.50333 0.33365 0.0
H55 H 0.05236 0.18152 0.28601 0.0
H56 H 0.04275 0.24643 0.40743 0.0
H57 H 0.05186 0.25899 0.16411 0.0
C58 C 0.05156 0.20241 0.28663 0.0
C59 C 0.05304 0.21907 0.21811 0.0
C60 C 0.0479 0.212 0.35509 0.0
C61 C 0.04572 0.23899 0.35454 0.0
C62 C 0.04749 0.25616 0.28548 0.0
C63 C 0.05089 0.24598 0.21733 0.0
N64 N 0.04576 0.28361 0.28236 0.0
C65 C 0.04319 0.29616 0.34562 0.0
H66 H 0.3437 0.01088 0.41541 0.0
H67 H 0.26906 0.99918 0.52079 0.0
H68 H 0.27679 0.03389 0.28651 0.0
C69 C 0.32297 0.01252 0.41181 0.0
C70 C 0.31215 0.02371 0.34398 0.0
C71 C 0.30765 1.0034 0.47518 0.0
C72 C 0.28086 1.00588 0.4713 0.0
C73 C 0.2696 0.01682 0.40259 0.0
C74 C 0.28538 0.02542 0.33913 0.0
N75 N 0.24263 0.01966 0.39463 0.0
C76 C 0.2243 0.0125 0.45137 0.0
H77 H 0.51758 0.34899 0.38459 0.0
H78 H 0.49433 0.27448 0.5076 0.0
H79 H 0.48669 0.28921 0.26509 0.0
C80 C 0.51067 0.32902 0.38465 0.0
C81 C 0.50319 0.32094 0.31658 0.0
C82 C 0.5073 0.31261 0.45356 0.0
C83 C 0.49734 0.28708 0.45425 0.0
C84 C 0.49044 0.27838 0.38564 0.0
C85 C 0.49274 0.29564 0.31747 0.0
N86 N 0.4801 0.25288 0.38319 0.0
C87 C 0.48484 0.23125 0.43652 0.0
Co88 Co 0.02107 0.01488 0.83314 0.0
C89 C 0.96805 0.01109 0.83909 0.0
Co90 Co 1.00479 0.99647 0.7393 0.0
C91 C 0.03064 0.05657 0.91956 0.0
C92 C 0.05547 0.02476 0.95225 0.0
N93 N 0.03553 0.03209 0.90713 0.0
N94 N 0.04703 0.06512 0.96939 0.0
C95 C 0.06259 0.04503 0.99059 0.0
H96 H 0.01619 0.06844 0.8893 0.0
H97 H 0.06492 1.00633 0.95461 0.0
C98 C 0.0578 1.00024 0.73332 0.0
N99 N 0.99039 0.97924 0.66534 0.0
C100 C 0.99572 0.95492 0.65239 0.0
C101 C 0.97024 0.98625 0.62073 0.0
N102 N 0.97942 0.94615 0.6027 0.0
C103 C 0.96344 0.96594 0.58217 0.0
C104 C 0.01062 0.04939 0.70246 0.0
O105 O 0.05463 0.01057 0.79303 0.0
O106 O 0.0382 0.99227 0.70025 0.0
O107 O 1.003 0.0291 0.67569 0.0
O108 O 0.01898 0.04719 0.7694 0.0
O109 O 0.97124 1.00075 0.77941 0.0
H110 H 0.96046 1.00448 0.61885 0.0
H111 H 0.01044 0.9433 0.68218 0.0
O112 O 0.98764 0.01911 0.87217 0.0
O113 O 0.02282 0.98224 0.89678 0.0
O114 O 0.0069 0.96415 0.80297 0.0
C115 C 0.01525 0.96195 0.86993 0.0
H116 H 0.07836 0.04512 0.0297 0.0
H117 H 0.94761 0.96561 0.54334 0.0
Co118 Co 0.50415 0.01142 0.83586 0.0
C119 C 0.51703 0.95858 0.84881 0.0
Co120 Co 0.51901 0.99889 0.7309 0.0
C121 C 0.46699 0.02808 0.93792 0.0
C122 C 0.50242 0.01813 -0.00666 0.0
N123 N 0.49098 0.02022 0.92534 0.0
N124 N 0.4629 0.03069 0.011 0.0
C125 C 0.48524 0.02463 0.04602 0.0
H126 H 0.45256 0.03136 0.89456 0.0
H127 H 0.52169 0.01137 0.00456 0.0
C128 C 0.50615 0.05176 0.71783 0.0
N129 N 0.53205 0.99056 0.64045 0.0
C130 C 0.5566 0.98532 0.62398 0.0
C131 C 0.52022 0.99427 0.57297 0.0
N132 N 0.56067 0.98642 0.54902 0.0
C133 C 0.53777 0.99187 0.51675 0.0
C134 C 0.46616 0.99298 0.74609 0.0
O135 O 0.49992 0.04616 0.78728 0.0
O136 O 0.51478 0.03396 0.68316 0.0
O137 O 0.48499 0.98973 0.70312 0.0
O138 O 0.47044 1.00219 0.80696 0.0
O139 O 0.52316 0.96417 0.7792 0.0
H140 H 0.50066 1.00051 0.56442 0.0
H141 H 0.57182 0.9832 0.66515 0.0
O142 O 0.50849 0.97638 0.8838 0.0
O143 O 0.53817 0.0207 0.86366 0.0
O144 O 0.55272 0.00797 0.76013 0.0
C145 C 0.557 0.01727 0.82086 0.0
H146 H 0.48854 0.02368 0.10608 0.0
H147 H 0.53442 0.99569 0.4565 0.0
Co148 Co 0.53443 0.50546 0.78486 0.0
C149 C 0.50996 0.4741 0.90575 0.0
Co150 Co 0.49203 0.50465 0.77903 0.0
C151 C 0.58385 0.51021 0.85343 0.0
C152 C 0.58744 0.5022 0.73976 0.0
N153 N 0.56992 0.50595 0.79273 0.0
N154 N 0.6094 0.50929 0.84065 0.0
C155 C 0.61172 0.50418 0.76908 0.0
H156 H 0.5753 0.51361 0.90636 0.0
H157 H 0.58284 0.49837 0.68338 0.0
C158 C 0.51649 0.53596 0.6581 0.0
N159 N 0.45655 0.50427 0.77089 0.0
C160 C 0.4428 0.50212 0.70822 0.0
C161 C 0.43891 0.50683 0.82468 0.0
N162 N 0.41724 0.50334 0.72041 0.0
C163 C 0.41474 0.50631 0.79382 0.0
C164 C 0.51176 0.54543 0.84737 0.0
O165 O 0.53694 0.52816 0.69146 0.0
O166 O 0.49487 0.52728 0.68583 0.0
O167 O 0.49092 0.53455 0.82967 0.0
O168 O 0.53301 0.53523 0.83493 0.0
O169 O 0.48953 0.48194 0.87226 0.0
H170 H 0.44337 0.50913 0.88242 0.0
H171 H 0.45151 0.50032 0.65416 0.0
O172 O 0.53162 0.48282 0.87827 0.0
O173 O 0.53551 0.4756 0.73441 0.0
O174 O 0.49343 0.47485 0.72872 0.0
C175 C 0.51472 0.46469 0.71648 0.0
H176 H 0.62965 0.50242 0.73949 0.0
H177 H 0.39676 0.50785 0.82338 0.0
Co178 Co 0.01467 0.52593 0.78576 0.0
C179 C 0.04771 0.49459 0.88151 0.0
Co180 Co 0.00945 0.48316 0.78734 0.0
C181 C 1.0049 0.57643 0.83114 0.0
C182 C 0.04167 0.57575 0.77787 0.0
N183 N 0.01985 0.5613 0.7943 0.0
N184 N 0.0167 0.59934 0.84015 0.0
C185 C 0.03977 0.59906 0.80567 0.0
H186 H 0.98615 0.57027 0.85428 0.0
H187 H 0.0587 0.56911 0.75231 0.0
C188 C 0.97646 0.51455 0.6914 0.0
N189 N 1.00432 0.44788 0.77886 0.0
C190 C 0.02 0.43245 0.74548 0.0
C191 C 0.98208 0.43385 0.79095 0.0
N192 N 0.00826 0.40975 0.73411 0.0
C193 C 0.98445 0.41048 0.76375 0.0
C194 C 0.9775 0.50127 0.88868 0.0
O195 O 0.98864 0.53381 0.71275 0.0
O196 O 0.98312 0.49145 0.71593 0.0
O197 O 0.98444 0.48044 0.86577 0.0
O198 O 0.98891 0.52272 0.86282 0.0
O199 O 0.03592 0.47534 0.85895 0.0
H200 H 0.96459 0.4409 0.8128 0.0
H201 H 0.03929 0.43834 0.72627 0.0
O202 O 0.04062 0.51765 0.85844 0.0
O203 O 0.0403 0.52838 0.70842 0.0
O204 O 0.03449 0.48636 0.70902 0.0
C205 C 0.04646 0.50754 0.68404 0.0
H206 H 0.05503 0.61368 0.80563 0.0
H207 H 0.96911 0.39617 0.76056 0.0
H208 H 0.18454 0.97983 0.43343 0.0
H209 H 0.10334 0.02079 0.77868 0.0
H210 H 0.214 0.03239 0.58036 0.0
H211 H 0.0717 0.97657 0.61219 0.0
H212 H 0.14552 0.02087 0.71711 0.0
H213 H 0.14476 0.97381 0.50891 0.0
C214 C 0.18268 0.98977 0.48249 0.0
C215 C 0.20237 1.00649 0.50134 0.0
C216 C 0.12938 0.01102 0.69436 0.0
C217 C 0.15697 1.00013 0.58718 0.0
C218 C 0.10528 0.0109 0.72958 0.0
C219 C 0.08387 0.99878 0.70033 0.0
C220 C 0.13214 0.99884 0.62954 0.0
C221 C 0.08759 0.98629 0.63654 0.0
C222 C 0.15997 0.98646 0.5253 0.0
C223 C 0.19914 0.0192 0.56462 0.0
N224 N 0.11119 0.98673 0.60322 0.0
N225 N 0.17676 0.01586 0.60524 0.0
H226 H 0.47005 0.21508 0.58245 0.0
H227 H 0.52053 0.0706 0.57233 0.0
H228 H 0.50968 0.19125 0.39263 0.0
H229 H 0.48628 0.09438 0.77126 0.0
H230 H 0.51655 0.11487 0.50643 0.0
H231 H 0.4759 0.17135 0.65408 0.0
C232 C 0.48018 0.20063 0.55636 0.0
C233 C 0.48954 0.20652 0.4821 0.0
C234 C 0.50992 0.11048 0.56454 0.0
C235 C 0.49604 0.15673 0.56244 0.0
C236 C 0.51215 0.08513 0.60225 0.0
C237 C 0.5037 0.07869 0.67753 0.0
C238 C 0.49906 0.12968 0.60202 0.0
C239 C 0.49305 0.09844 0.71325 0.0
C240 C 0.48347 0.17573 0.59695 0.0
C241 C 0.50233 0.18732 0.45009 0.0
N242 N 0.49097 0.12302 0.67514 0.0
N243 N 0.50514 0.16325 0.49031 0.0
H244 H 0.27673 0.52389 0.46436 0.0
H245 H 0.41855 0.4807 0.59243 0.0
H246 H 0.32657 0.48167 0.33498 0.0
H247 H 0.36958 0.52364 0.72307 0.0
H248 H 0.38471 0.48026 0.49897 0.0
H249 H 0.30998 0.52331 0.56174 0.0
C250 C 0.29471 0.51447 0.45685 0.0
C251 C 0.29917 0.50282 0.39225 0.0
C252 C 0.38132 0.48976 0.54812 0.0
C253 C 0.33709 0.50206 0.50227 0.0
C254 C 0.40075 0.49015 0.60143 0.0
C255 C 0.39704 0.50234 0.66578 0.0
C256 C 0.35792 0.50168 0.55888 0.0
C257 C 0.37326 0.51381 0.67485 0.0
C258 C 0.31365 0.51413 0.51216 0.0
C259 C 0.32259 0.49085 0.3844 0.0
N260 N 0.35466 0.51327 0.62193 0.0
N261 N 0.34073 0.49079 0.43876 0.0
H262 H 0.01384 0.28265 0.47138 0.0
H263 H 0.04468 0.41825 0.62218 0.0
H264 H 0.06632 0.34213 0.36134 0.0
H265 H 0.9917 0.35941 0.73478 0.0
H266 H 0.05571 0.38884 0.53341 0.0
H267 H 0.00782 0.30879 0.57427 0.0
C268 C 0.02419 0.30118 0.46947 0.0
C269 C 0.04051 0.31047 0.40848 0.0
C270 C 0.04181 0.38224 0.57786 0.0
C271 C 0.03379 0.34039 0.52476 0.0
C272 C 0.03562 0.39902 0.62931 0.0
C273 C 0.01705 0.39146 0.68629 0.0
C274 C 0.02933 0.35767 0.58288 0.0
C275 C 1.00578 0.36628 0.69121 0.0
C276 C 0.02079 0.31607 0.52794 0.0
C277 C 0.05355 0.33446 0.40781 0.0
N278 N 0.01196 0.35038 0.6399 0.0
N279 N 0.04983 0.34869 0.46498 0.0
H280 H 0.80872 0.97855 0.97481 0.0
H281 H 0.95411 0.03426 0.96113 0.0
H282 H 0.83958 0.0267 0.1319 0.0
H283 H 0.9225 0.9909 0.79262 0.0
H284 H 0.91161 0.03363 0.02009 0.0
H285 H 0.84936 0.98477 0.90246 0.0
C286 C 0.824 0.99073 -0.00678 0.0
C287 C 0.82103 1.00226 0.05875 0.0
C288 C 0.91389 0.02439 0.96992 0.0
C289 C 0.86744 0.00916 0.97777 0.0
C290 C 0.9382 0.02474 0.93618 0.0
C291 C 0.94196 0.0125 0.87199 0.0
C292 C 0.8931 0.01155 0.93969 0.0
C293 C 0.92054 1.00055 0.84213 0.0
C294 C 0.84717 0.99422 0.95226 0.0
C295 C 0.84127 0.01763 0.08121 0.0
N296 N 0.89709 1.00021 0.87652 0.0
N297 N 0.8637 0.02052 0.04106 0.0
H298 H 0.55291 0.79512 0.98121 0.0
H299 H 0.50312 0.93966 -0.00531 0.0
H300 H 0.51446 0.81886 0.17311 0.0
H301 H 0.53654 0.91599 0.79444 0.0
H302 H 0.50719 0.89532 0.0601 0.0
H303 H 0.5469 0.83891 0.91026 0.0
C304 C 0.54301 0.80956 0.0079 0.0
C305 C 0.53403 0.80364 0.08254 0.0
C306 C 0.51361 0.89975 0.0018 0.0
C307 C 0.52735 0.8535 0.00299 0.0
C308 C 0.51134 0.92514 0.96438 0.0
C309 C 0.51953 0.93163 0.88888 0.0
C310 C 0.52426 0.88058 0.96378 0.0
C311 C 0.52998 0.9119 0.85264 0.0
C312 C 0.53963 0.8345 0.9677 0.0
C313 C 0.52152 0.82283 0.11534 0.0
N314 N 0.5321 0.88729 0.89046 0.0
N315 N 0.51861 0.84694 0.07547 0.0
H316 H 0.70001 0.55664 0.20245 0.0
H317 H 0.65759 0.49015 0.84234 0.0
H318 H 0.74849 0.50563 0.09813 0.0
H319 H 0.60809 0.5375 0.95747 0.0
H320 H 0.69181 0.49697 0.93116 0.0
H321 H 0.66675 0.55128 0.10909 0.0
C322 C 0.70359 0.5444 0.15938 0.0
C323 C 0.7268 0.53157 0.15728 0.0
C324 C 0.67345 0.50586 0.93695 0.0
C325 C 0.68904 0.52517 0.05078 0.0
C326 C 0.65393 0.50208 0.88598 0.0
C327 C 0.62983 0.51319 0.89244 0.0
C328 C 0.66893 0.52096 -0.00526 0.0
C329 C 0.62615 0.52822 0.95086 0.0
C330 C 0.68465 0.54128 0.10626 0.0
C331 C 0.73072 0.51586 0.10102 0.0
N332 N 0.64546 0.53166 -0.00043 0.0
N333 N 0.71196 0.51305 0.04982 0.0
H334 H 0.014 0.72804 0.09797 0.0
H335 H 0.98294 0.59042 0.95901 0.0
H336 H 0.96471 0.66777 0.2189 0.0
H337 H 0.0326 0.65008 0.83518 0.0
H338 H 0.97328 0.62004 0.04847 0.0
H339 H 0.01881 0.70126 -0.00397 0.0
C340 C 1.00409 0.7092 0.10251 0.0
C341 C 0.98901 0.69988 0.16624 0.0
C342 C 0.98615 0.62677 0.00144 0.0
C343 C 0.99437 0.66923 0.05106 0.0
C344 C 0.99155 0.60986 0.94965 0.0
C345 C 0.00878 0.61762 0.88918 0.0
C346 C 0.99807 0.65168 -0.00676 0.0
C347 C 0.01955 0.64306 0.88142 0.0
C348 C 1.00681 0.69394 0.04458 0.0
C349 C 0.97652 0.67548 0.17025 0.0
N350 N 0.01416 0.6591 0.93306 0.0
N351 N 0.97956 0.66091 0.11353 0.0
H352 H 0.01054 0.20924 0.46592 0.0
H353 H 0.01867 0.05936 0.55045 0.0
H354 H 0.0778 0.17058 0.40074 0.0
H355 H 0.00765 0.09747 0.74722 0.0
H356 H 0.02873 0.10204 0.47591 0.0
H357 H 0.99963 0.17042 0.55892 0.0
C358 C 0.02335 0.19296 0.47265 0.0
C359 C 0.04484 0.19284 0.42475 0.0
C360 C 0.02376 0.10094 0.53527 0.0
C361 C 0.03197 0.14865 0.52744 0.0
C362 C 0.01781 0.07675 0.57746 0.0
C363 C 0.01244 0.07501 0.65487 0.0
C364 C 0.0237 0.12347 0.57041 0.0
C365 C 0.01184 0.09813 0.68754 0.0
C366 C 0.01698 0.17085 0.52492 0.0
C367 C 0.06074 0.17119 0.43539 0.0
N368 N 0.01737 0.12158 0.64496 0.0
N369 N 0.05362 0.14968 0.48417 0.0
H370 H 0.31395 0.02457 0.6051 0.0
H371 H 0.44991 0.96437 0.6372 0.0
H372 H 0.33391 0.95862 0.49723 0.0
H373 H 0.4216 0.00923 0.80437 0.0
H374 H 0.40599 0.95922 0.59322 0.0
H375 H 0.35032 0.01586 0.69075 0.0
C376 C 0.32527 0.00751 0.60202 0.0
C377 C 0.32108 0.99228 0.54431 0.0
C378 C 0.40929 0.96985 0.64034 0.0
C379 C 0.36323 0.98292 0.63898 0.0
C380 C 0.43441 0.97293 0.6651 0.0
C381 C 0.43946 0.98751 0.72386 0.0
C382 C 0.38911 0.9819 0.67346 0.0
C383 C 0.41859 0.99798 0.75848 0.0
C384 C 0.34623 1.00272 0.65014 0.0
C385 C 0.3366 0.97074 0.5413 0.0
N386 N 0.39438 0.99537 0.73187 0.0
N387 N 0.35738 0.96707 0.58664 0.0
H388 H 0.47083 0.32122 0.55558 0.0
H389 H 0.5566 0.43784 0.67987 0.0
H390 H 0.55154 0.33333 0.50318 0.0
H391 H 0.47368 0.43297 0.69186 0.0
H392 H 0.55658 0.39478 0.63877 0.0
H393 H 0.47354 0.35585 0.63541 0.0
C394 C 0.48937 0.33038 0.56378 0.0
C395 C 0.51099 0.32455 0.52296 0.0
C396 C 0.53841 0.40311 0.65071 0.0
C397 C 0.51408 0.36474 0.61123 0.0
C398 C 0.53839 0.42777 0.67364 0.0
C399 C 0.51509 0.43921 0.68831 0.0
C400 C 0.51497 0.38971 0.64276 0.0
C401 C 0.4921 0.42509 0.68022 0.0
C402 C 0.49084 0.35046 0.60815 0.0
C403 C 0.53447 0.33732 0.53408 0.0
N404 N 0.49262 0.40114 0.65779 0.0
N405 N 0.53532 0.35717 0.57612 0.0
H406 H 0.17228 0.45112 0.44767 0.0
H407 H 0.08235 0.54682 0.63856 0.0
H408 H 0.18654 0.53424 0.42081 0.0
H409 H 0.06374 0.46608 0.62236 0.0
H410 H 0.1233 0.54259 0.57302 0.0
H411 H 0.13659 0.4557 0.53369 0.0
C412 C 0.16836 0.47023 0.46222 0.0
C413 C 0.1823 0.49232 0.42789 0.0
C414 C 0.11017 0.52587 0.58386 0.0
C415 C 0.14087 0.49799 0.52315 0.0
C416 C 0.08671 0.52833 0.62053 0.0
C417 C 0.06955 0.50677 0.63591 0.0
C418 C 0.11649 0.50166 0.56305 0.0
C419 C 0.07633 0.48321 0.61198 0.0
C420 C 0.14777 0.47295 0.51026 0.0
C421 C 0.17631 0.51676 0.44715 0.0
N422 N 0.09925 0.48129 0.57712 0.0
N423 N 0.15571 0.51905 0.49279 0.0
H424 H 0.01803 0.8023 0.10586 0.0
H425 H 1.00673 0.95173 0.0217 0.0
H426 H 0.94967 0.83921 0.1708 0.0
H427 H 0.01903 0.91401 0.82484 0.0
H428 H 0.99717 0.90886 0.09581 0.0
H429 H 0.02807 0.8413 0.01271 0.0
C430 C 1.00479 0.81821 0.099 0.0
C431 C 0.98324 0.81781 0.14691 0.0
C432 C 1.00229 0.91009 0.03652 0.0
C433 C 0.99512 0.86223 0.04405 0.0
C434 C 0.00796 0.93439 -0.00541 0.0
C435 C 0.01357 0.93628 0.9173 0.0
C436 C 1.00289 0.88761 0.00124 0.0
C437 C 0.01465 0.91323 0.88445 0.0
C438 C 0.01066 0.84044 0.04664 0.0
C439 C 0.96678 0.83902 0.1361 0.0
N440 N 0.00941 0.88967 0.92679 0.0
N441 N 0.97342 0.86068 0.08727 0.0
H442 H 0.70897 0.98919 0.97438 0.0
H443 H 0.57342 0.04856 0.9229 0.0
H444 H 0.69143 0.06278 0.04571 0.0
H445 H 0.60135 0.99855 0.76876 0.0
H446 H 0.61747 0.05485 0.96496 0.0
H447 H 0.67193 0.99361 0.88983 0.0
C448 C 0.698 0.00681 0.96972 0.0
C449 C 0.703 0.0255 0.01763 0.0
C450 C 0.61402 0.04281 0.92108 0.0
C451 C 0.66018 0.03016 0.92394 0.0
C452 C 0.58886 0.03907 0.89752 0.0
C453 C 0.5837 0.02286 0.84275 0.0
C454 C 0.63413 0.02977 0.89096 0.0
C455 C 0.60448 0.01117 0.81132 0.0
C456 C 0.67667 0.00919 0.9222 0.0
C457 C 0.68798 0.04782 0.01015 0.0
N458 N 0.62874 0.01448 0.83682 0.0
N459 N 0.66683 0.0492 0.96591 0.0
H460 H 0.47178 0.67746 0.06005 0.0
H461 H 0.55305 0.57694 0.87027 0.0
H462 H 0.55269 0.68829 0.00934 0.0
H463 H 0.47018 0.57253 0.88563 0.0
H464 H 0.55262 0.61986 0.91093 0.0
H465 H 0.46951 0.64279 0.98056 0.0
C466 C 0.48882 0.67327 0.02928 0.0
C467 C 0.51244 0.68568 0.0409 0.0
C468 C 0.5345 0.60961 0.90503 0.0
C469 C 0.51035 0.64528 0.95317 0.0
C470 C 0.53474 0.58494 0.88254 0.0
C471 C 0.51162 0.57093 0.87544 0.0
C472 C 0.51099 0.62036 0.92135 0.0
C473 C 0.48848 0.5825 0.8911 0.0
C474 C 0.48763 0.65322 0.98485 0.0
C475 C 0.53409 0.67928 0.00117 0.0
N476 N 0.48877 0.60645 0.91392 0.0
N477 N 0.53267 0.65908 0.96039 0.0
H478 H 0.83754 0.54746 0.08423 0.0
H479 H 0.95091 0.45934 0.96759 0.0
H480 H 0.85253 0.47151 0.20621 0.0
H481 H 0.9501 0.5433 0.91422 0.0
H482 H 0.90986 0.4602 0.03558 0.0
H483 H 0.87271 0.54212 -0.00382 0.0
C484 C 0.84765 0.52928 0.09063 0.0
C485 C 0.84229 0.50988 0.1521 0.0
C486 C 0.91877 0.47838 0.00889 0.0
C487 C 0.88274 0.50391 0.05371 0.0
C488 C 0.94223 0.47793 0.97064 0.0
C489 C 0.95413 0.50131 0.93601 0.0
C490 C 0.90697 0.50232 0.01121 0.0
C491 C 0.94187 0.52482 0.9409 0.0
C492 C 0.86792 0.52639 0.04128 0.0
C493 C 0.85619 0.48685 0.15912 0.0
N494 N 0.91894 0.52471 0.9775 0.0
N495 N 0.87602 0.48457 0.11095 0.0
H496 H 0.0958 0.19917 0.16424 0.0
H497 H 0.00896 0.10012 0.9673 0.0
H498 H 0.01501 0.20871 0.12276 0.0
H499 H 0.08939 0.08983 0.01674 0.0
H500 H 0.01239 0.14381 0.00302 0.0
H501 H 0.09583 0.16431 0.08536 0.0
C502 C 0.07834 0.19466 0.13547 0.0
C503 C 0.05544 0.20687 0.14904 0.0
C504 C 0.02934 0.13207 0.00549 0.0
C505 C 0.0549 0.16621 0.06224 0.0
C506 C 0.0274 0.10708 0.98506 0.0
C507 C 0.04885 0.09106 0.98977 0.0
C508 C 0.0529 0.14119 0.031 0.0
C509 C 0.0722 0.10117 0.01377 0.0
C510 C 0.07822 0.17448 0.09152 0.0
C511 C 0.03311 0.19992 0.11253 0.0
N512 N 0.07355 0.12549 0.03388 0.0
N513 N 0.03326 0.17967 0.07185 0.0
H514 H 0.35171 0.05902 0.34082 0.0
H515 H 0.41475 0.01755 0.96875 0.0
H516 H 0.31299 0.00864 0.20305 0.0
H517 H 0.45618 0.05462 0.1344 0.0
H518 H 0.37463 0.02209 0.03748 0.0
H519 H 0.38676 0.06626 0.24803 0.0
C520 C 0.35038 0.04998 0.2899 0.0
C521 C 0.32962 0.03307 0.27958 0.0
C522 C 0.39247 0.0295 0.05823 0.0
C523 C 0.36989 0.04074 0.17397 0.0
C524 C 0.41536 0.02705 0.01884 0.0
C525 C 0.43889 0.03555 0.04634 0.0
C526 C 0.39309 0.0407 0.12523 0.0
C527 C 0.43854 0.04745 0.11196 0.0
C528 C 0.37044 0.05396 0.23723 0.0
C529 C 0.3287 0.02185 0.21278 0.0
N530 N 0.41606 0.04955 0.14931 0.0
N531 N 0.34881 0.02555 0.16286 0.0
H532 H 0.46531 0.33495 0.21421 0.0
H533 H 0.54961 0.45428 -0.00641 0.0
H534 H 0.54464 0.35133 0.2627 0.0
H535 H 0.468 0.44409 0.96168 0.0
H536 H 0.5485 0.41522 0.08787 0.0
H537 H 0.46663 0.3725 0.11315 0.0
C538 C 0.48314 0.34612 0.20237 0.0
C539 C 0.50489 0.34014 0.24671 0.0
C540 C 0.53079 0.42158 0.06059 0.0
C541 C 0.50643 0.38328 0.13287 0.0
C542 C 0.53138 0.44399 0.00701 0.0
C543 C 0.50885 0.45254 0.96977 0.0
C544 C 0.50752 0.40743 0.07693 0.0
C545 C 0.48581 0.43831 0.98929 0.0
C546 C 0.48381 0.36772 0.14546 0.0
C547 C 0.52742 0.35543 0.22995 0.0
N548 N 0.48576 0.41637 0.04127 0.0
N549 N 0.52757 0.37635 0.17471 0.0
H550 H 0.19228 0.51995 0.09499 0.0
H551 H 0.06564 0.44906 0.9599 0.0
H552 H 0.16276 0.44578 0.20761 0.0
H553 H 0.08355 0.53157 0.9063 0.0
H554 H 0.10565 0.44391 0.03208 0.0
H555 H 0.15782 0.52008 0.00221 0.0
C556 C 0.179 0.50333 0.09869 0.0
C557 C 0.18019 0.48291 0.15901 0.0
C558 C 0.10076 0.46309 0.00424 0.0
C559 C 0.14051 0.48315 0.05465 0.0
C560 C 0.07792 0.46605 0.96343 0.0
C561 C 0.07108 0.49082 0.92791 0.0
C562 C 0.11698 0.48497 0.00834 0.0
C563 C 0.08783 0.51215 0.93365 0.0
C564 C 0.15916 0.50355 0.04647 0.0
C565 C 0.16232 0.46196 0.16198 0.0
N566 N 0.10998 0.50873 0.97295 0.0
N567 N 0.14301 0.46273 0.111 0.0
H568 H 0.93303 0.8112 0.40831 0.0
H569 H 0.01823 0.91206 0.60339 0.0
H570 H 0.01409 0.80332 0.44837 0.0
H571 H 0.93748 0.92065 0.55578 0.0
H572 H 0.01563 0.86838 0.56743 0.0
H573 H 0.93244 0.84615 0.48682 0.0
C574 C 0.95046 0.8161 0.43667 0.0
C575 C 0.97358 0.80432 0.42283 0.0
C576 C 0.99843 0.87974 0.5654 0.0
C577 C 0.97345 0.84508 0.50921 0.0
C578 C 0.99989 0.90473 0.58596 0.0
C579 C 0.9781 0.92025 0.58191 0.0
C580 C 0.975 0.87014 0.54039 0.0
C581 C 0.95491 0.90969 0.55828 0.0
C582 C 0.95025 0.83632 0.48041 0.0
C583 C 0.99583 0.81176 0.45883 0.0
N584 N 0.95402 0.88538 0.53803 0.0
N585 N 0.99534 0.83205 0.49932 0.0
H586 H 0.68932 0.0469 0.27539 0.0
H587 H 0.60209 0.9563 0.58176 0.0
H588 H 0.70335 0.96474 0.33 0.0
H589 H 0.57545 0.02277 0.43256 0.0
H590 H 0.64448 0.9621 0.51734 0.0
H591 H 0.65362 0.0419 0.36612 0.0
C592 C 0.68525 0.02792 0.30809 0.0
C593 C 0.69901 1.00612 0.29465 0.0
C594 C 0.62928 0.97535 0.49908 0.0
C595 C 0.65802 1.0002 0.39759 0.0
C596 C 0.60523 0.97204 0.53547 0.0
C597 C 0.58528 0.98884 0.51134 0.0
C598 C 0.6334 0.99608 0.43999 0.0
C599 C 0.59018 0.0091 0.45172 0.0
C600 C 0.66479 0.02504 0.3593 0.0
C601 C 0.69313 0.98199 0.33883 0.0
N602 N 0.61375 0.01222 0.4184 0.0
N603 N 0.67273 0.97954 0.38781 0.0
H604 H 0.55937 0.67529 0.34786 0.0
H605 H 0.47674 0.55498 0.56963 0.0
H606 H 0.47998 0.65814 0.30202 0.0
H607 H 0.55815 0.56652 0.60221 0.0
H608 H 0.47737 0.59391 0.4751 0.0
H609 H 0.55873 0.6377 0.44875 0.0
C610 C 0.54168 0.66394 0.36023 0.0
C611 C 0.51971 0.66973 0.31669 0.0
C612 C 0.49515 0.58789 0.50256 0.0
C613 C 0.51894 0.62654 0.43032 0.0
C614 C 0.49483 0.56554 0.5563 0.0
C615 C 0.51744 0.55742 0.59383 0.0
C616 C 0.51821 0.6024 0.48629 0.0
C617 C 0.54029 0.57198 0.57436 0.0
C618 C 0.54139 0.64232 0.41705 0.0
C619 C 0.49737 0.6542 0.33411 0.0
N620 N 0.54007 0.59386 0.52217 0.0
N621 N 0.4976 0.63326 0.38922 0.0
H622 H 0.83434 0.48838 0.46683 0.0
H623 H 0.95769 0.56047 0.61756 0.0
H624 H 0.85898 0.56653 0.3741 0.0
H625 H 0.94179 0.47736 0.66029 0.0
H626 H 0.91777 0.5657 0.54501 0.0
H627 H 0.86892 0.48718 0.55952 0.0
C628 C 0.84656 0.50559 0.46798 0.0
C629 C 0.84379 0.52769 0.41404 0.0
C630 C 0.92309 0.54637 0.57048 0.0
C631 C 0.88384 0.52625 0.5172 0.0
C632 C 0.94589 0.54336 0.61151 0.0
C633 C 0.95324 0.51842 0.64434 0.0
C634 C 0.90746 0.52432 0.56323 0.0
C635 C 0.9371 0.49694 0.63533 0.0
C636 C 0.86648 0.50482 0.51997 0.0
C637 C 0.86044 0.54931 0.41593 0.0
N638 N 0.91501 0.5004 0.59579 0.0
N639 N 0.87998 0.54799 0.46634 0.0
loop_
_geom_bond_atom_site_label_1
_geom_bond_atom_site_label_2
_geom_bond_distance
_geom_bond_site_symmetry_2
_ccdc_geom_bond_type
H0 C3 0.929 . S
H1 C6 0.929 . S
H2 C8 0.930 . S
C3 H0 0.929 . S
C3 C4 1.398 . S
C3 C5 1.396 . S
C4 C3 1.398 . S
C4 C8 1.407 . S
C5 C3 1.396 . S
C5 C6 1.394 . S
C6 H1 0.929 . S
C6 C5 1.394 . S
C6 C7 1.382 . S
C7 C6 1.382 . S
C7 C8 1.392 . S
C7 N9 1.420 . S
C8 H2 0.930 . S
C8 C4 1.407 . S
C8 C7 1.392 . S
N9 C7 1.420 . S
N9 C10 1.244 . S
C10 N9 1.244 . S
H11 C14 0.929 . S
H12 C17 0.929 . S
H13 C19 0.930 . S
C14 H11 0.929 . S
C14 C15 1.398 . S
C14 C16 1.396 . S
C15 C14 1.398 . S
C15 C19 1.407 . S
C16 C14 1.396 . S
C16 C17 1.394 . S
C17 H12 0.929 . S
C17 C16 1.394 . S
C17 C18 1.382 . S
C18 C17 1.382 . S
C18 C19 1.392 . S
C18 N20 1.420 . S
C19 H13 0.930 . S
C19 C15 1.407 . S
C19 C18 1.392 . S
N20 C18 1.420 . S
N20 C21 1.244 . S
C21 N20 1.244 . S
H22 C25 0.929 . S
H23 C28 0.929 1_556 S
H24 C30 0.930 . S
C25 H22 0.929 . S
C25 C26 1.392 1_565 S
C25 C27 1.397 1_565 S
C26 C25 1.392 1_545 S
C26 C30 1.412 . S
C27 C25 1.397 1_545 S
C27 C28 1.396 . S
C28 H23 0.929 1_554 S
C28 C27 1.396 . S
C28 C29 1.382 . S
C29 C28 1.382 . S
C29 C30 1.392 . S
C29 N31 1.420 . S
C30 H24 0.930 . S
C30 C26 1.412 . S
C30 C29 1.392 . S
N31 C29 1.420 . S
N31 C32 1.228 1_545 S
C32 N31 1.228 1_565 S
H33 C36 0.929 . S
H34 C39 0.929 . S
H35 C41 0.930 . S
C36 H33 0.929 . S
C36 C37 1.398 . S
C36 C38 1.396 . S
C37 C36 1.398 . S
C37 C41 1.407 . S
C38 C36 1.396 . S
C38 C39 1.394 . S
C39 H34 0.929 . S
C39 C38 1.394 . S
C39 C40 1.382 . S
C40 C39 1.382 . S
C40 C41 1.392 . S
C40 N42 1.420 . S
C41 H35 0.930 . S
C41 C37 1.407 . S
C41 C40 1.392 . S
N42 C40 1.420 . S
N42 C43 1.244 . S
C43 N42 1.244 . S
H44 C47 0.929 . S
H45 C50 0.929 . S
H46 C52 0.930 . S
C47 H44 0.929 . S
C47 C48 1.398 . S
C47 C49 1.396 . S
C48 C47 1.398 . S
C48 C52 1.407 . S
C49 C47 1.396 . S
C49 C50 1.394 . S
C50 H45 0.929 . S
C50 C49 1.394 . S
C50 C51 1.382 . S
C51 C50 1.382 . S
C51 C52 1.392 . S
C51 N53 1.420 . S
C52 H46 0.930 . S
C52 C48 1.407 . S
C52 C51 1.392 . S
N53 C51 1.420 . S
N53 C54 1.244 . S
C54 N53 1.244 . S
H55 C58 0.929 . S
H56 C61 0.929 . S
H57 C63 0.930 . S
C58 H55 0.929 . S
C58 C59 1.398 . S
C58 C60 1.396 . S
C59 C58 1.398 . S
C59 C63 1.407 . S
C60 C58 1.396 . S
C60 C61 1.394 . S
C61 H56 0.929 . S
C61 C60 1.394 . S
C61 C62 1.382 . S
C62 C61 1.382 . S
C62 C63 1.392 . S
C62 N64 1.420 . S
C63 H57 0.930 . S
C63 C59 1.407 . S
C63 C62 1.392 . S
N64 C62 1.420 . S
N64 C65 1.244 . S
C65 N64 1.244 . S
H66 C69 0.929 . S
H67 C72 0.929 . S
H68 C74 0.930 . S
C69 H66 0.929 . S
C69 C70 1.399 1_565 S
C69 C71 1.390 1_565 S
C70 C69 1.399 1_545 S
C70 C74 1.418 . S
C71 C69 1.390 1_545 S
C71 C72 1.400 . S
C72 H67 0.929 . S
C72 C71 1.400 . S
C72 C73 1.382 . S
C73 C72 1.382 . S
C73 C74 1.392 . S
C73 N75 1.420 . S
C74 H68 0.930 . S
C74 C70 1.418 . S
C74 C73 1.392 . S
N75 C73 1.420 . S
N75 C76 1.239 1_545 S
C76 N75 1.239 1_565 S
H77 C80 0.929 . S
H78 C83 0.929 . S
H79 C85 0.930 . S
C80 H77 0.929 . S
C80 C81 1.398 . S
C80 C82 1.396 . S
C81 C80 1.398 . S
C81 C85 1.407 . S
C82 C80 1.396 . S
C82 C83 1.394 . S
C83 H78 0.929 . S
C83 C82 1.394 . S
C83 C84 1.382 . S
C84 C83 1.382 . S
C84 C85 1.392 . S
C84 N86 1.420 . S
C85 H79 0.930 . S
C85 C81 1.407 . S
C85 C84 1.392 . S
N86 C84 1.420 . S
N86 C87 1.244 . S
C87 N86 1.244 . S
Co88 N93 2.057 . S
Co88 O105 2.021 . S
Co88 O108 2.062 . S
Co88 O112 2.117 1_455 S
Co88 O113 2.020 1_545 S
C89 O109 1.259 1_545 S
C89 O112 1.258 . S
Co90 N99 2.057 . S
Co90 O106 2.117 1_655 S
Co90 O107 2.020 1_665 S
Co90 O109 2.021 . S
Co90 O114 2.062 . S
C91 N93 1.316 . S
C91 N94 1.347 1_556 S
C91 H96 0.931 . S
C92 N93 1.375 1_655 S
C92 C95 1.350 1_656 S
C92 H97 0.930 . S
N93 Co88 2.057 . S
N93 C91 1.316 . S
N93 C92 1.375 1_455 S
N94 C91 1.347 1_554 S
N94 C95 1.373 . S
C95 C92 1.350 1_454 S
C95 N94 1.373 . S
C95 H116 0.931 1_455 S
H96 C91 0.931 . S
H97 C92 0.930 . S
C98 O105 1.259 1_565 S
C98 O106 1.258 . S
N99 Co90 2.057 . S
N99 C100 1.316 . S
N99 C101 1.375 1_655 S
C100 N99 1.316 . S
C100 N102 1.347 . S
C100 H111 0.931 . S
C101 N99 1.375 1_455 S
C101 C103 1.350 . S
C101 H110 0.930 . S
N102 C100 1.347 . S
N102 C103 1.373 1_655 S
C103 C101 1.350 . S
C103 N102 1.373 1_455 S
C103 H117 0.931 . S
C104 O107 1.256 . S
C104 O108 1.255 . S
O105 Co88 2.021 . S
O105 C98 1.259 1_545 S
O106 Co90 2.117 1_455 S
O106 C98 1.258 . S
O107 Co90 2.020 1_445 S
O107 C104 1.256 . S
O108 Co88 2.062 . S
O108 C104 1.255 . S
O109 C89 1.259 1_565 S
O109 Co90 2.021 . S
H110 C101 0.930 . S
H111 C100 0.931 . S
O112 Co88 2.117 1_655 S
O112 C89 1.258 . S
O113 Co88 2.020 1_565 S
O113 C115 1.256 . S
O114 Co90 2.062 . S
O114 C115 1.255 1_655 S
C115 O113 1.256 . S
C115 O114 1.255 1_455 S
H116 C95 0.931 1_655 S
H117 C103 0.931 . S
Co118 N123 2.057 1_545 S
Co118 O135 2.021 . S
Co118 O138 2.067 . S
Co118 O142 2.117 1_545 S
Co118 O143 2.020 . S
C119 O139 1.259 . S
C119 O142 1.258 . S
Co120 N129 2.057 1_565 S
Co120 O136 2.117 1_565 S
Co120 O137 2.020 . S
Co120 O139 2.021 . S
Co120 O144 2.065 . S
C121 N123 1.316 1_545 S
C121 N124 1.347 1_556 S
C121 H126 0.931 . S
C122 N123 1.375 1_554 S
C122 C125 1.350 . S
C122 H127 0.930 . S
N123 Co118 2.057 1_565 S
N123 C121 1.316 1_565 S
N123 C122 1.375 1_556 S
N124 C121 1.347 1_554 S
N124 C125 1.373 1_545 S
C125 C122 1.350 . S
C125 N124 1.373 1_565 S
C125 H146 0.931 . S
H126 C121 0.931 . S
H127 C122 0.930 . S
C128 O135 1.259 . S
C128 O136 1.258 . S
N129 Co120 2.057 1_545 S
N129 C130 1.316 1_545 S
N129 C131 1.375 . S
C130 N129 1.316 1_565 S
C130 N132 1.347 . S
C130 H141 0.931 . S
C131 N129 1.375 . S
C131 C133 1.350 . S
C131 H140 0.930 . S
N132 C130 1.347 . S
N132 C133 1.373 1_565 S
C133 C131 1.350 . S
C133 N132 1.373 1_545 S
C133 H147 0.931 . S
C134 O137 1.256 . S
C134 O138 1.245 1_565 S
O135 Co118 2.021 . S
O135 C128 1.259 . S
O136 Co120 2.117 1_545 S
O136 C128 1.258 . S
O137 Co120 2.020 . S
O137 C134 1.256 . S
O138 Co118 2.067 . S
O138 C134 1.245 1_545 S
O139 C119 1.259 . S
O139 Co120 2.021 . S
H140 C131 0.930 . S
H141 C130 0.931 . S
O142 Co118 2.117 1_565 S
O142 C119 1.258 . S
O143 Co118 2.020 . S
O143 C145 1.256 . S
O144 Co120 2.065 . S
O144 C145 1.249 1_565 S
C145 O143 1.256 . S
C145 O144 1.249 1_545 S
H146 C125 0.931 . S
H147 C133 0.931 . S
Co148 N153 2.057 . S
Co148 O165 2.021 . S
Co148 O168 2.062 . S
Co148 O172 2.117 . S
Co148 O173 2.020 . S
C149 O169 1.259 . S
C149 O172 1.258 . S
Co150 N159 2.057 . S
Co150 O166 2.117 . S
Co150 O167 2.020 . S
Co150 O169 2.021 . S
Co150 O174 2.062 . S
C151 N153 1.316 . S
C151 N154 1.347 . S
C151 H156 0.931 . S
C152 N153 1.375 . S
C152 C155 1.350 . S
C152 H157 0.930 . S
N153 Co148 2.057 . S
N153 C151 1.316 . S
N153 C152 1.375 . S
N154 C151 1.347 . S
N154 C155 1.373 . S
C155 C152 1.350 . S
C155 N154 1.373 . S
C155 H176 0.931 . S
H156 C151 0.931 . S
H157 C152 0.930 . S
C158 O165 1.259 . S
C158 O166 1.258 . S
N159 Co150 2.057 . S
N159 C160 1.316 . S
N159 C161 1.375 . S
C160 N159 1.316 . S
C160 N162 1.347 . S
C160 H171 0.931 . S
C161 N159 1.375 . S
C161 C163 1.350 . S
C161 H170 0.930 . S
N162 C160 1.347 . S
N162 C163 1.373 . S
C163 C161 1.350 . S
C163 N162 1.373 . S
C163 H177 0.931 . S
C164 O167 1.256 . S
C164 O168 1.255 . S
O165 Co148 2.021 . S
O165 C158 1.259 . S
O166 Co150 2.117 . S
O166 C158 1.258 . S
O167 Co150 2.020 . S
O167 C164 1.256 . S
O168 Co148 2.062 . S
O168 C164 1.255 . S
O169 C149 1.259 . S
O169 Co150 2.021 . S
H170 C161 0.930 . S
H171 C160 0.931 . S
O172 Co148 2.117 . S
O172 C149 1.258 . S
O173 Co148 2.020 . S
O173 C175 1.256 . S
O174 Co150 2.062 . S
O174 C175 1.255 . S
C175 O173 1.256 . S
C175 O174 1.255 . S
H176 C155 0.931 . S
H177 C163 0.931 . S
Co178 N183 2.057 . S
Co178 O195 2.021 1_455 S
Co178 O198 2.062 1_455 S
Co178 O202 2.117 . S
Co178 O203 2.020 . S
C179 O199 1.259 . S
C179 O202 1.258 . S
Co180 N189 2.057 . S
Co180 O196 2.117 1_455 S
Co180 O197 2.020 1_455 S
Co180 O199 2.021 . S
Co180 O204 2.062 . S
C181 N183 1.316 1_655 S
C181 N184 1.347 . S
C181 H186 0.931 . S
C182 N183 1.375 . S
C182 C185 1.350 . S
C182 H187 0.930 . S
N183 Co178 2.057 . S
N183 C181 1.316 1_455 S
N183 C182 1.375 . S
N184 C181 1.347 . S
N184 C185 1.370 1_655 S
C185 C182 1.350 . S
C185 N184 1.370 1_455 S
C185 H206 0.931 . S
H186 C181 0.931 . S
H187 C182 0.930 . S
C188 O195 1.259 . S
C188 O196 1.258 . S
N189 Co180 2.057 . S
N189 C190 1.316 . S
N189 C191 1.375 1_455 S
C190 N189 1.316 . S
C190 N192 1.347 . S
C190 H201 0.931 . S
C191 N189 1.375 1_655 S
C191 C193 1.350 . S
C191 H200 0.930 . S
N192 C190 1.347 . S
N192 C193 1.373 1_455 S
C193 C191 1.350 . S
C193 N192 1.373 1_655 S
C193 H207 0.931 . S
C194 O197 1.256 . S
C194 O198 1.255 . S
O195 Co178 2.021 1_655 S
O195 C188 1.259 . S
O196 Co180 2.117 1_655 S
O196 C188 1.258 . S
O197 Co180 2.020 1_655 S
O197 C194 1.256 . S
O198 Co178 2.062 1_655 S
O198 C194 1.255 . S
O199 C179 1.259 . S
O199 Co180 2.021 . S
H200 C191 0.930 . S
H201 C190 0.931 . S
O202 Co178 2.117 . S
O202 C179 1.258 . S
O203 Co178 2.020 . S
O203 C205 1.256 . S
O204 Co180 2.062 . S
O204 C205 1.255 . S
C205 O203 1.256 . S
C205 O204 1.255 . S
H206 C185 0.931 . S
H207 C193 0.931 . S
H208 C214 0.930 . S
H209 C218 0.930 . S
H210 C223 0.929 . S
H211 C221 0.929 . S
H212 C216 0.929 . S
H213 C222 0.929 . S
C214 H208 0.930 . S
C214 C215 1.377 . S
C214 C222 1.378 . S
C215 C214 1.377 . S
C215 C223 1.422 1_565 S
C216 H212 0.929 . S
C216 C218 1.378 . S
C216 C220 1.350 1_545 S
C217 C220 1.463 . S
C217 C222 1.350 . S
C217 N225 1.427 1_565 S
C218 H209 0.930 . S
C218 C216 1.378 . S
C218 C219 1.367 1_545 S
C219 C218 1.367 1_565 S
C219 C221 1.433 . S
C220 C216 1.350 1_565 S
C220 C217 1.463 . S
C220 N224 1.427 . S
C221 H211 0.929 . S
C221 C219 1.433 . S
C221 N224 1.384 . S
C222 H213 0.929 . S
C222 C214 1.378 . S
C222 C217 1.350 . S
C223 H210 0.929 . S
C223 C215 1.422 1_545 S
C223 N225 1.384 . S
N224 C220 1.427 . S
N224 C221 1.384 . S
N225 C217 1.427 1_545 S
N225 C223 1.384 . S
H226 C232 0.930 . S
H227 C236 0.930 . S
H228 C241 0.929 . S
H229 C239 0.929 . S
H230 C234 0.929 . S
H231 C240 0.929 . S
C232 H226 0.930 . S
C232 C233 1.367 . S
C232 C240 1.378 . S
C233 C232 1.367 . S
C233 C241 1.433 . S
C234 H230 0.929 . S
C234 C236 1.378 . S
C234 C238 1.350 . S
C235 C238 1.463 . S
C235 C240 1.350 . S
C235 N243 1.427 . S
C236 H227 0.930 . S
C236 C234 1.378 . S
C236 C237 1.367 . S
C237 C236 1.367 . S
C237 C239 1.433 . S
C238 C234 1.350 . S
C238 C235 1.463 . S
C238 N242 1.427 . S
C239 H229 0.929 . S
C239 C237 1.433 . S
C239 N242 1.384 . S
C240 H231 0.929 . S
C240 C232 1.378 . S
C240 C235 1.350 . S
C241 H228 0.929 . S
C241 C233 1.433 . S
C241 N243 1.384 . S
N242 C238 1.427 . S
N242 C239 1.384 . S
N243 C235 1.427 . S
N243 C241 1.384 . S
H244 C250 0.930 . S
H245 C254 0.930 . S
H246 C259 0.929 . S
H247 C257 0.929 . S
H248 C252 0.929 . S
H249 C258 0.929 . S
C250 H244 0.930 . S
C250 C251 1.367 . S
C250 C258 1.378 . S
C251 C250 1.367 . S
C251 C259 1.433 . S
C252 H248 0.929 . S
C252 C254 1.378 . S
C252 C256 1.350 . S
C253 C256 1.463 . S
C253 C258 1.350 . S
C253 N261 1.427 . S
C254 H245 0.930 . S
C254 C252 1.378 . S
C254 C255 1.367 . S
C255 C254 1.367 . S
C255 C257 1.433 . S
C256 C252 1.350 . S
C256 C253 1.463 . S
C256 N260 1.427 . S
C257 H247 0.929 . S
C257 C255 1.433 . S
C257 N260 1.384 . S
C258 H249 0.929 . S
C258 C250 1.378 . S
C258 C253 1.350 . S
C259 H246 0.929 . S
C259 C251 1.433 . S
C259 N261 1.384 . S
N260 C256 1.427 . S
N260 C257 1.384 . S
N261 C253 1.427 . S
N261 C259 1.384 . S
H262 C268 0.930 . S
H263 C272 0.930 . S
H264 C277 0.929 . S
H265 C275 0.929 1_655 S
H266 C270 0.929 . S
H267 C276 0.929 . S
C268 H262 0.930 . S
C268 C269 1.367 . S
C268 C276 1.378 . S
C269 C268 1.367 . S
C269 C277 1.433 . S
C270 H266 0.929 . S
C270 C272 1.378 . S
C270 C274 1.350 . S
C271 C274 1.463 . S
C271 C276 1.350 . S
C271 N279 1.427 . S
C272 H263 0.930 . S
C272 C270 1.378 . S
C272 C273 1.367 . S
C273 C272 1.367 . S
C273 C275 1.433 . S
C274 C270 1.350 . S
C274 C271 1.463 . S
C274 N278 1.427 . S
C275 H265 0.929 1_455 S
C275 C273 1.433 . S
C275 N278 1.384 . S
C276 H267 0.929 . S
C276 C268 1.378 . S
C276 C271 1.350 . S
C277 H264 0.929 . S
C277 C269 1.433 . S
C277 N279 1.384 . S
N278 C274 1.427 . S
N278 C275 1.384 . S
N279 C271 1.427 . S
N279 C277 1.384 . S
H280 C286 0.930 . S
H281 C290 0.930 . S
H282 C295 0.929 . S
H283 C293 0.929 . S
H284 C288 0.929 . S
H285 C294 0.929 . S
C286 H280 0.930 . S
C286 C287 1.367 . S
C286 C294 1.378 . S
C287 C286 1.367 . S
C287 C295 1.433 1_546 S
C288 H284 0.929 . S
C288 C290 1.378 . S
C288 C292 1.350 1_565 S
C289 C292 1.463 . S
C289 C294 1.350 . S
C289 N297 1.427 1_546 S
C290 H281 0.930 . S
C290 C288 1.378 . S
C290 C291 1.367 1_565 S
C291 C290 1.367 1_545 S
C291 C293 1.433 . S
C292 C288 1.350 1_545 S
C292 C289 1.463 . S
C292 N296 1.427 . S
C293 H283 0.929 . S
C293 C291 1.433 . S
C293 N296 1.384 . S
C294 H285 0.929 . S
C294 C286 1.378 . S
C294 C289 1.350 . S
C295 H282 0.929 . S
C295 C287 1.433 1_564 S
C295 N297 1.384 . S
N296 C292 1.427 . S
N296 C293 1.384 . S
N297 C289 1.427 1_564 S
N297 C295 1.384 . S
H298 C304 0.930 . S
H299 C308 0.930 . S
H300 C313 0.929 . S
H301 C311 0.929 . S
H302 C306 0.929 1_554 S
H303 C312 0.929 . S
C304 H298 0.930 . S
C304 C305 1.367 1_556 S
C304 C312 1.378 . S
C305 C304 1.367 1_554 S
C305 C313 1.433 . S
C306 H302 0.929 1_556 S
C306 C308 1.378 . S
C306 C310 1.350 . S
C307 C310 1.463 . S
C307 C312 1.350 . S
C307 N315 1.427 1_556 S
C308 H299 0.930 . S
C308 C306 1.378 . S
C308 C309 1.367 . S
C309 C308 1.367 . S
C309 C311 1.433 . S
C310 C306 1.350 . S
C310 C307 1.463 . S
C310 N314 1.427 . S
C311 H301 0.929 . S
C311 C309 1.433 . S
C311 N314 1.384 . S
C312 H303 0.929 . S
C312 C304 1.378 . S
C312 C307 1.350 . S
C313 H300 0.929 . S
C313 C305 1.433 . S
C313 N315 1.384 . S
N314 C310 1.427 . S
N314 C311 1.384 . S
N315 C307 1.427 1_554 S
N315 C313 1.384 . S
H316 C322 0.930 . S
H317 C326 0.930 . S
H318 C331 0.929 . S
H319 C329 0.929 . S
H320 C324 0.929 . S
H321 C330 0.929 . S
C322 H316 0.930 . S
C322 C323 1.367 . S
C322 C330 1.378 1_554 S
C323 C322 1.367 . S
C323 C331 1.433 . S
C324 H320 0.929 . S
C324 C326 1.378 1_554 S
C324 C328 1.350 1_554 S
C325 C328 1.463 1_554 S
C325 C330 1.350 1_554 S
C325 N333 1.427 . S
C326 H317 0.930 . S
C326 C324 1.378 1_556 S
C326 C327 1.367 . S
C327 C326 1.367 . S
C327 C329 1.433 . S
C328 C324 1.350 1_556 S
C328 C325 1.463 1_556 S
C328 N332 1.427 . S
C329 H319 0.929 . S
C329 C327 1.433 . S
C329 N332 1.384 . S
C330 H321 0.929 . S
C330 C322 1.378 1_556 S
C330 C325 1.350 1_556 S
C331 H318 0.929 . S
C331 C323 1.433 . S
C331 N333 1.384 . S
N332 C328 1.427 . S
N332 C329 1.384 . S
N333 C325 1.427 . S
N333 C331 1.384 . S
H334 C340 0.930 . S
H335 C344 0.930 . S
H336 C349 0.929 . S
H337 C347 0.929 1_455 S
H338 C342 0.929 1_554 S
H339 C348 0.929 . S
C340 H334 0.930 . S
C340 C341 1.367 1_556 S
C340 C348 1.378 . S
C341 C340 1.367 1_554 S
C341 C349 1.433 . S
C342 H338 0.929 1_556 S
C342 C344 1.378 . S
C342 C346 1.350 . S
C343 C346 1.463 . S
C343 C348 1.350 . S
C343 N351 1.427 1_556 S
C344 H335 0.930 . S
C344 C342 1.378 . S
C344 C345 1.367 . S
C345 C344 1.367 . S
C345 C347 1.433 . S
C346 C342 1.350 . S
C346 C343 1.463 . S
C346 N350 1.427 . S
C347 H337 0.929 1_655 S
C347 C345 1.433 . S
C347 N350 1.384 . S
C348 H339 0.929 . S
C348 C340 1.378 . S
C348 C343 1.350 . S
C349 H336 0.929 . S
C349 C341 1.433 . S
C349 N351 1.384 . S
N350 C346 1.427 . S
N350 C347 1.384 . S
N351 C343 1.427 1_554 S
N351 C349 1.384 . S
H352 C358 0.930 . S
H353 C362 0.930 . S
H354 C367 0.929 . S
H355 C365 0.929 . S
H356 C360 0.929 . S
H357 C366 0.929 . S
C358 H352 0.930 . S
C358 C359 1.367 . S
C358 C366 1.378 . S
C359 C358 1.367 . S
C359 C367 1.433 . S
C360 H356 0.929 . S
C360 C362 1.378 . S
C360 C364 1.350 . S
C361 C364 1.463 . S
C361 C366 1.350 . S
C361 N369 1.427 . S
C362 H353 0.930 . S
C362 C360 1.378 . S
C362 C363 1.367 . S
C363 C362 1.367 . S
C363 C365 1.433 . S
C364 C360 1.350 . S
C364 C361 1.463 . S
C364 N368 1.427 . S
C365 H355 0.929 . S
C365 C363 1.433 . S
C365 N368 1.384 . S
C366 H357 0.929 . S
C366 C358 1.378 . S
C366 C361 1.350 . S
C367 H354 0.929 . S
C367 C359 1.433 . S
C367 N369 1.384 . S
N368 C364 1.427 . S
N368 C365 1.384 . S
N369 C361 1.427 . S
N369 C367 1.384 . S
H370 C376 0.930 . S
H371 C380 0.930 . S
H372 C385 0.929 . S
H373 C383 0.929 . S
H374 C378 0.929 . S
H375 C384 0.929 . S
C376 H370 0.930 . S
C376 C377 1.377 . S
C376 C384 1.378 . S
C377 C376 1.377 . S
C377 C385 1.422 1_545 S
C378 H374 0.929 . S
C378 C380 1.378 . S
C378 C382 1.350 . S
C379 C382 1.463 . S
C379 C384 1.350 1_565 S
C379 N387 1.427 . S
C380 H371 0.930 . S
C380 C378 1.378 . S
C380 C381 1.367 . S
C381 C380 1.367 . S
C381 C383 1.433 1_565 S
C382 C378 1.350 . S
C382 C379 1.463 . S
C382 N386 1.427 1_565 S
C383 H373 0.929 . S
C383 C381 1.433 1_545 S
C383 N386 1.384 . S
C384 H375 0.929 . S
C384 C376 1.378 . S
C384 C379 1.350 1_545 S
C385 H372 0.929 . S
C385 C377 1.422 1_565 S
C385 N387 1.384 . S
N386 C382 1.427 1_545 S
N386 C383 1.384 . S
N387 C379 1.427 . S
N387 C385 1.384 . S
H388 C394 0.930 . S
H389 C398 0.930 . S
H390 C403 0.929 . S
H391 C401 0.929 . S
H392 C396 0.929 . S
H393 C402 0.929 . S
C394 H388 0.930 . S
C394 C395 1.367 . S
C394 C402 1.378 . S
C395 C394 1.367 . S
C395 C403 1.433 . S
C396 H392 0.929 . S
C396 C398 1.378 . S
C396 C400 1.350 . S
C397 C400 1.463 . S
C397 C402 1.350 . S
C397 N405 1.427 . S
C398 H389 0.930 . S
C398 C396 1.378 . S
C398 C399 1.367 . S
C399 C398 1.367 . S
C399 C401 1.433 . S
C400 C396 1.350 . S
C400 C397 1.463 . S
C400 N404 1.427 . S
C401 H391 0.929 . S
C401 C399 1.433 . S
C401 N404 1.384 . S
C402 H393 0.929 . S
C402 C394 1.378 . S
C402 C397 1.350 . S
C403 H390 0.929 . S
C403 C395 1.433 . S
C403 N405 1.384 . S
N404 C400 1.427 . S
N404 C401 1.384 . S
N405 C397 1.427 . S
N405 C403 1.384 . S
H406 C412 0.930 . S
H407 C416 0.930 . S
H408 C421 0.929 . S
H409 C419 0.929 . S
H410 C414 0.929 . S
H411 C420 0.929 . S
C412 H406 0.930 . S
C412 C413 1.367 . S
C412 C420 1.378 . S
C413 C412 1.367 . S
C413 C421 1.433 . S
C414 H410 0.929 . S
C414 C416 1.378 . S
C414 C418 1.350 . S
C415 C418 1.463 . S
C415 C420 1.350 . S
C415 N423 1.427 . S
C416 H407 0.930 . S
C416 C414 1.378 . S
C416 C417 1.367 . S
C417 C416 1.367 . S
C417 C419 1.433 . S
C418 C414 1.350 . S
C418 C415 1.463 . S
C418 N422 1.427 . S
C419 H409 0.929 . S
C419 C417 1.433 . S
C419 N422 1.384 . S
C420 H411 0.929 . S
C420 C412 1.378 . S
C420 C415 1.350 . S
C421 H408 0.929 . S
C421 C413 1.433 . S
C421 N423 1.384 . S
N422 C418 1.427 . S
N422 C419 1.384 . S
N423 C415 1.427 . S
N423 C421 1.384 . S
H424 C430 0.930 . S
H425 C434 0.930 . S
H426 C439 0.929 . S
H427 C437 0.941 . S
H428 C432 0.929 1_554 S
H429 C438 0.929 . S
C430 H424 0.930 . S
C430 C431 1.367 1_556 S
C430 C438 1.378 . S
C431 C430 1.367 1_554 S
C431 C439 1.433 . S
C432 H428 0.929 1_556 S
C432 C434 1.378 . S
C432 C436 1.350 . S
C433 C436 1.463 . S
C433 C438 1.350 . S
C433 N441 1.427 1_556 S
C434 H425 0.930 . S
C434 C432 1.378 . S
C434 C435 1.367 1_655 S
C435 C434 1.367 1_455 S
C435 C437 1.436 . S
C436 C432 1.350 . S
C436 C433 1.463 . S
C436 N440 1.427 . S
C437 H427 0.941 . S
C437 C435 1.436 . S
C437 N440 1.370 1_455 S
C438 H429 0.929 . S
C438 C430 1.378 . S
C438 C433 1.350 . S
C439 H426 0.929 . S
C439 C431 1.433 . S
C439 N441 1.384 . S
N440 C436 1.427 . S
N440 C437 1.370 1_655 S
N441 C433 1.427 1_554 S
N441 C439 1.384 . S
H442 C448 0.930 . S
H443 C452 0.930 . S
H444 C457 0.929 1_554 S
H445 C455 0.929 . S
H446 C450 0.929 . S
H447 C456 0.929 . S
C448 H442 0.930 . S
C448 C449 1.379 . S
C448 C456 1.378 . S
C449 C448 1.379 . S
C449 C457 1.420 1_565 S
C450 H446 0.929 . S
C450 C452 1.378 . S
C450 C454 1.350 . S
C451 C454 1.463 . S
C451 C456 1.350 1_545 S
C451 N459 1.427 . S
C452 H443 0.930 . S
C452 C450 1.378 . S
C452 C453 1.367 . S
C453 C452 1.367 . S
C453 C455 1.433 1_545 S
C454 C450 1.350 . S
C454 C451 1.463 . S
C454 N458 1.427 1_545 S
C455 H445 0.929 . S
C455 C453 1.433 1_565 S
C455 N458 1.384 . S
C456 H447 0.929 . S
C456 C448 1.378 . S
C456 C451 1.350 1_565 S
C457 H444 0.929 1_556 S
C457 C449 1.420 1_545 S
C457 N459 1.384 . S
N458 C454 1.427 1_565 S
N458 C455 1.384 . S
N459 C451 1.427 . S
N459 C457 1.384 . S
H460 C466 0.930 . S
H461 C470 0.930 . S
H462 C475 0.929 . S
H463 C473 0.929 1_554 S
H464 C468 0.929 . S
H465 C474 0.929 . S
C466 H460 0.930 . S
C466 C467 1.367 . S
C466 C474 1.378 . S
C467 C466 1.367 . S
C467 C475 1.433 1_554 S
C468 H464 0.929 . S
C468 C470 1.378 . S
C468 C472 1.350 . S
C469 C472 1.463 . S
C469 C474 1.350 1_556 S
C469 N477 1.427 . S
C470 H461 0.930 . S
C470 C468 1.378 . S
C470 C471 1.367 . S
C471 C470 1.367 . S
C471 C473 1.433 . S
C472 C468 1.350 . S
C472 C469 1.463 . S
C472 N476 1.427 1_556 S
C473 H463 0.929 1_556 S
C473 C471 1.433 . S
C473 N476 1.384 1_556 S
C474 H465 0.929 . S
C474 C466 1.378 . S
C474 C469 1.350 1_554 S
C475 H462 0.929 . S
C475 C467 1.433 1_556 S
C475 N477 1.384 . S
N476 C472 1.427 1_554 S
N476 C473 1.384 1_554 S
N477 C469 1.427 . S
N477 C475 1.384 . S
H478 C484 0.930 . S
H479 C488 0.930 . S
H480 C493 0.929 . S
H481 C491 0.929 . S
H482 C486 0.929 . S
H483 C492 0.929 . S
C484 H478 0.930 . S
C484 C485 1.367 . S
C484 C492 1.378 . S
C485 C484 1.367 . S
C485 C493 1.433 . S
C486 H482 0.929 . S
C486 C488 1.378 . S
C486 C490 1.350 . S
C487 C490 1.463 1_554 S
C487 C492 1.350 . S
C487 N495 1.427 . S
C488 H479 0.930 . S
C488 C486 1.378 . S
C488 C489 1.367 . S
C489 C488 1.367 . S
C489 C491 1.433 . S
C490 C486 1.350 . S
C490 C487 1.463 1_556 S
C490 N494 1.427 . S
C491 H481 0.929 . S
C491 C489 1.433 . S
C491 N494 1.384 . S
C492 H483 0.929 . S
C492 C484 1.378 . S
C492 C487 1.350 . S
C493 H480 0.929 . S
C493 C485 1.433 . S
C493 N495 1.384 . S
N494 C490 1.427 . S
N494 C491 1.384 . S
N495 C487 1.427 . S
N495 C493 1.384 . S
H496 C502 0.930 . S
H497 C506 0.930 1_556 S
H498 C511 0.929 . S
H499 C509 0.929 . S
H500 C504 0.929 . S
H501 C510 0.929 . S
C502 H496 0.930 . S
C502 C503 1.367 . S
C502 C510 1.378 . S
C503 C502 1.367 . S
C503 C511 1.433 . S
C504 H500 0.929 . S
C504 C506 1.378 . S
C504 C508 1.350 . S
C505 C508 1.463 . S
C505 C510 1.350 . S
C505 N513 1.427 . S
C506 H497 0.930 1_554 S
C506 C504 1.378 . S
C506 C507 1.367 . S
C507 C506 1.367 . S
C507 C509 1.433 . S
C508 C504 1.350 . S
C508 C505 1.463 . S
C508 N512 1.427 . S
C509 H499 0.929 . S
C509 C507 1.433 . S
C509 N512 1.384 . S
C510 H501 0.929 . S
C510 C502 1.378 . S
C510 C505 1.350 . S
C511 H498 0.929 . S
C511 C503 1.433 . S
C511 N513 1.384 . S
N512 C508 1.427 . S
N512 C509 1.384 . S
N513 C505 1.427 . S
N513 C511 1.384 . S
H514 C520 0.930 . S
H515 C524 0.930 . S
H516 C529 0.929 . S
H517 C527 0.929 . S
H518 C522 0.929 . S
H519 C528 0.929 . S
C520 H514 0.930 . S
C520 C521 1.367 . S
C520 C528 1.378 . S
C521 C520 1.367 . S
C521 C529 1.433 1_545 S
C522 H518 0.929 . S
C522 C524 1.378 . S
C522 C526 1.350 1_565 S
C523 C526 1.463 . S
C523 C528 1.350 . S
C523 N531 1.427 1_545 S
C524 H515 0.930 . S
C524 C522 1.378 . S
C524 C525 1.367 1_565 S
C525 C524 1.367 1_545 S
C525 C527 1.433 . S
C526 C522 1.350 1_545 S
C526 C523 1.463 . S
C526 N530 1.427 . S
C527 H517 0.929 . S
C527 C525 1.433 . S
C527 N530 1.384 . S
C528 H519 0.929 . S
C528 C520 1.378 . S
C528 C523 1.350 . S
C529 H516 0.929 . S
C529 C521 1.433 1_565 S
C529 N531 1.384 . S
N530 C526 1.427 . S
N530 C527 1.384 . S
N531 C523 1.427 1_565 S
N531 C529 1.384 . S
H532 C538 0.930 . S
H533 C542 0.930 . S
H534 C547 0.929 . S
H535 C545 0.929 . S
H536 C540 0.929 . S
H537 C546 0.929 . S
C538 H532 0.930 . S
C538 C539 1.367 . S
C538 C546 1.378 . S
C539 C538 1.367 . S
C539 C547 1.433 . S
C540 H536 0.929 . S
C540 C542 1.378 . S
C540 C544 1.350 . S
C541 C544 1.463 . S
C541 C546 1.350 . S
C541 N549 1.427 . S
C542 H533 0.930 . S
C542 C540 1.378 . S
C542 C543 1.367 1_554 S
C543 C542 1.367 1_556 S
C543 C545 1.433 . S
C544 C540 1.350 . S
C544 C541 1.463 . S
C544 N548 1.427 . S
C545 H535 0.929 . S
C545 C543 1.433 . S
C545 N548 1.384 1_556 S
C546 H537 0.929 . S
C546 C538 1.378 . S
C546 C541 1.350 . S
C547 H534 0.929 . S
C547 C539 1.433 . S
C547 N549 1.384 . S
N548 C544 1.427 . S
N548 C545 1.384 1_554 S
N549 C541 1.427 . S
N549 C547 1.384 . S
H550 C556 0.930 . S
H551 C560 0.930 . S
H552 C565 0.929 . S
H553 C563 0.929 . S
H554 C558 0.929 . S
H555 C564 0.929 . S
C556 H550 0.930 . S
C556 C557 1.367 . S
C556 C564 1.378 . S
C557 C556 1.367 . S
C557 C565 1.433 . S
C558 H554 0.929 . S
C558 C560 1.378 . S
C558 C562 1.350 . S
C559 C562 1.463 . S
C559 C564 1.350 . S
C559 N567 1.427 . S
C560 H551 0.930 . S
C560 C558 1.378 . S
C560 C561 1.367 1_554 S
C561 C560 1.367 1_556 S
C561 C563 1.433 . S
C562 C558 1.350 . S
C562 C559 1.463 . S
C562 N566 1.427 . S
C563 H553 0.929 . S
C563 C561 1.433 . S
C563 N566 1.384 1_556 S
C564 H555 0.929 . S
C564 C556 1.378 . S
C564 C559 1.350 . S
C565 H552 0.929 . S
C565 C557 1.433 . S
C565 N567 1.384 . S
N566 C562 1.427 . S
N566 C563 1.384 1_554 S
N567 C559 1.427 . S
N567 C565 1.384 . S
H568 C574 0.930 . S
H569 C578 0.930 1_455 S
H570 C583 0.929 . S
H571 C581 0.929 . S
H572 C576 0.929 . S
H573 C582 0.929 . S
C574 H568 0.930 . S
C574 C575 1.367 . S
C574 C582 1.378 . S
C575 C574 1.367 . S
C575 C583 1.433 . S
C576 H572 0.929 . S
C576 C578 1.378 . S
C576 C580 1.350 . S
C577 C580 1.463 . S
C577 C582 1.350 . S
C577 N585 1.427 . S
C578 H569 0.930 1_655 S
C578 C576 1.378 . S
C578 C579 1.367 . S
C579 C578 1.367 . S
C579 C581 1.433 . S
C580 C576 1.350 . S
C580 C577 1.463 . S
C580 N584 1.427 . S
C581 H571 0.929 . S
C581 C579 1.433 . S
C581 N584 1.384 . S
C582 H573 0.929 . S
C582 C574 1.378 . S
C582 C577 1.350 . S
C583 H570 0.929 . S
C583 C575 1.433 . S
C583 N585 1.384 . S
N584 C580 1.427 . S
N584 C581 1.384 . S
N585 C577 1.427 . S
N585 C583 1.384 . S
H586 C592 0.930 . S
H587 C596 0.930 . S
H588 C601 0.929 . S
H589 C599 0.929 . S
H590 C594 0.929 . S
H591 C600 0.929 . S
C592 H586 0.930 . S
C592 C593 1.359 1_545 S
C592 C600 1.378 . S
C593 C592 1.359 1_565 S
C593 C601 1.441 . S
C594 H590 0.929 . S
C594 C596 1.378 . S
C594 C598 1.350 . S
C595 C598 1.463 . S
C595 C600 1.350 1_565 S
C595 N603 1.427 . S
C596 H587 0.930 . S
C596 C594 1.378 . S
C596 C597 1.367 . S
C597 C596 1.367 . S
C597 C599 1.433 1_565 S
C598 C594 1.350 . S
C598 C595 1.463 . S
C598 N602 1.427 1_565 S
C599 H589 0.929 . S
C599 C597 1.433 1_545 S
C599 N602 1.384 . S
C600 H591 0.929 . S
C600 C592 1.378 . S
C600 C595 1.350 1_545 S
C601 H588 0.929 . S
C601 C593 1.441 . S
C601 N603 1.384 . S
N602 C598 1.427 1_545 S
N602 C599 1.384 . S
N603 C595 1.427 . S
N603 C601 1.384 . S
H604 C610 0.930 . S
H605 C614 0.930 . S
H606 C619 0.929 . S
H607 C617 0.929 . S
H608 C612 0.929 . S
H609 C618 0.929 . S
C610 H604 0.930 . S
C610 C611 1.367 . S
C610 C618 1.378 . S
C611 C610 1.367 . S
C611 C619 1.433 . S
C612 H608 0.929 . S
C612 C614 1.378 . S
C612 C616 1.350 . S
C613 C616 1.463 . S
C613 C618 1.350 . S
C613 N621 1.427 . S
C614 H605 0.930 . S
C614 C612 1.378 . S
C614 C615 1.367 . S
C615 C614 1.367 . S
C615 C617 1.433 . S
C616 C612 1.350 . S
C616 C613 1.463 . S
C616 N620 1.427 . S
C617 H607 0.929 . S
C617 C615 1.433 . S
C617 N620 1.384 . S
C618 H609 0.929 . S
C618 C610 1.378 . S
C618 C613 1.350 . S
C619 H606 0.929 . S
C619 C611 1.433 . S
C619 N621 1.384 . S
N620 C616 1.427 . S
N620 C617 1.384 . S
N621 C613 1.427 . S
N621 C619 1.384 . S
H622 C628 0.930 . S
H623 C632 0.930 . S
H624 C637 0.929 . S
H625 C635 0.929 . S
H626 C630 0.929 . S
H627 C636 0.929 . S
C628 H622 0.930 . S
C628 C629 1.367 . S
C628 C636 1.378 . S
C629 C628 1.367 . S
C629 C637 1.433 . S
C630 H626 0.929 . S
C630 C632 1.378 . S
C630 C634 1.350 . S
C631 C634 1.463 . S
C631 C636 1.350 . S
C631 N639 1.427 . S
C632 H623 0.930 . S
C632 C630 1.378 . S
C632 C633 1.367 . S
C633 C632 1.367 . S
C633 C635 1.433 . S
C634 C630 1.350 . S
C634 C631 1.463 . S
C634 N638 1.427 . S
C635 H625 0.929 . S
C635 C633 1.433 . S
C635 N638 1.384 . S
C636 H627 0.929 . S
C636 C628 1.378 . S
C636 C631 1.350 . S
C637 H624 0.929 . S
C637 C629 1.433 . S
C637 N639 1.384 . S
N638 C634 1.427 . S
N638 C635 1.384 . S
N639 C631 1.427 . S
N639 C637 1.384 . S
C215 C76 1.667 . S
C219 C98 1.675 . S
C237 C128 1.804 . S
C233 C87 1.775 . S
C255 N162 1.360 . S
C251 C54 1.381 . S
C273 N192 1.412 . S
C269 C65 1.406 . S
C291 C89 1.674 . S
C287 C32 1.662 1_546 S
C305 C43 1.783 . S
C309 C119 1.808 . S
C323 C10 1.386 . S
C327 N154 1.358 . S
C341 C21 1.409 . S
C345 N184 1.405 . S
C363 C104 0.430 . S
C359 C60 0.529 . S
C381 C134 0.773 . S
C377 C71 0.778 . S
C399 C175 1.052 . S
C395 C82 1.026 . S
C413 C49 0.577 . S
C417 C205 0.583 . S
C431 C16 0.547 . S
C435 C115 0.436 . S
C453 C145 0.773 . S
C449 C27 0.766 1_566 S
C471 C164 1.047 . S
C467 C38 1.017 . S
C485 C5 0.589 . S
C489 C194 0.589 . S
C503 C59 1.458 . S
C507 N94 1.470 . S
C521 C70 1.417 . S
C525 N124 1.421 . S
C543 C149 1.659 . S
C539 C81 1.631 . S
C561 C179 1.595 . S
C557 C48 1.561 . S
C575 C15 1.456 . S
C579 N102 1.472 . S
C597 N132 1.433 . S
C593 C26 1.434 1_565 S
C615 C158 1.659 . S
C611 C37 1.626 . S
C629 C4 1.554 . S
C633 C188 1.594 . S
