# Generated by pormake.
# Topology anh, (6,3)-cn, num edge types: 1
# Building blocks:
#     Node 0, Type 0, BuildingBlock: INOVEN_clean_sbu_0, # of connection points: 6
#     Node 1, Type 0, BuildingBlock: INOVEN_clean_sbu_0, # of connection points: 6
#     Node 2, Type 0, BuildingBlock: INOVEN_clean_sbu_0, # of connection points: 6
#     Node 3, Type 1, BuildingBlock: BELTOD_clean_linker_0, # of connection points: 3
#     Node 4, Type 1, BuildingBlock: BELTOD_clean_linker_0, # of connection points: 3
#     Node 5, Type 1, BuildingBlock: BELTOD_clean_linker_0, # of connection points: 3
#     Node 6, Type 1, BuildingBlock: BELTOD_clean_linker_0, # of connection points: 3
#     Node 7, Type 1, BuildingBlock: BELTOD_clean_linker_0, # of connection points: 3
#     Node 8, Type 1, BuildingBlock: BELTOD_clean_linker_0, # of connection points: 3
#     Edge 9, Type (0, 1), BuildingBlock: MIFKUJ_clean_linker_0, # of connection points: 2
#     Edge 10, Type (0, 1), BuildingBlock: MIFKUJ_clean_linker_0, # of connection points: 2
#     Edge 11, Type (0, 1), BuildingBlock: MIFKUJ_clean_linker_0, # of connection points: 2
#     Edge 12, Type (0, 1), BuildingBlock: MIFKUJ_clean_linker_0, # of connection points: 2
#     Edge 13, Type (0, 1), BuildingBlock: MIFKUJ_clean_linker_0, # of connection points: 2
#     Edge 14, Type (0, 1), BuildingBlock: MIFKUJ_clean_linker_0, # of connection points: 2
#     Edge 15, Type (0, 1), BuildingBlock: MIFKUJ_clean_linker_0, # of connection points: 2
#     Edge 16, Type (0, 1), BuildingBlock: MIFKUJ_clean_linker_0, # of connection points: 2
#     Edge 17, Type (0, 1), BuildingBlock: MIFKUJ_clean_linker_0, # of connection points: 2
#     Edge 18, Type (0, 1), BuildingBlock: MIFKUJ_clean_linker_0, # of connection points: 2
#     Edge 19, Type (0, 1), BuildingBlock: MIFKUJ_clean_linker_0, # of connection points: 2
#     Edge 20, Type (0, 1), BuildingBlock: MIFKUJ_clean_linker_0, # of connection points: 2
#     Edge 21, Type (0, 1), BuildingBlock: MIFKUJ_clean_linker_0, # of connection points: 2
#     Edge 22, Type (0, 1), BuildingBlock: MIFKUJ_clean_linker_0, # of connection points: 2
#     Edge 23, Type (0, 1), BuildingBlock: MIFKUJ_clean_linker_0, # of connection points: 2
#     Edge 24, Type (0, 1), BuildingBlock: MIFKUJ_clean_linker_0, # of connection points: 2
#     Edge 25, Type (0, 1), BuildingBlock: MIFKUJ_clean_linker_0, # of connection points: 2
#     Edge 26, Type (0, 1), BuildingBlock: MIFKUJ_clean_linker_0, # of connection points: 2
# Relax obj value: 0.155
# Max RMSD: 0.199
# Mean RMSD: 0.143
data_MOF--net-anh--node1-INOVEN_clean_sbu_0--node2-BELTOD_clean_linker_0--edge1-MIFKUJ_clean_linker_0
_symmetry_space_group_name_H-M    P1
_symmetry_Int_Tables_number       1
_symmetry_cell_setting            triclinic
loop_
_symmetry_equiv_pos_as_xyz
'x, y, z'
_cell_length_a     43.87588
_cell_length_b     50.107763
_cell_length_c     76.355445
_cell_angle_alpha  92.814581
_cell_angle_beta   89.916321
_cell_angle_gamma 127.07055
loop_
_atom_site_label
_atom_site_type_symbol
_atom_site_fract_x
_atom_site_fract_y
_atom_site_fract_z
_atom_type_partial_charge
Gd0 Gd 0.08742 0.52379 0.15151 0.0
Gd1 Gd 0.04621 0.55143 0.16577 0.0
C2 C 0.13517 0.60496 0.16134 0.0
C3 C 0.12866 0.51197 0.13375 0.0
C4 C 0.16663 0.51998 0.13602 0.0
C5 C 0.1832 0.52604 0.15286 0.0
C6 C 0.18528 0.51919 0.12134 0.0
C7 C 0.23472 0.52681 0.14038 0.0
C8 C 0.21919 0.52272 0.12349 0.0
C9 C 0.2169 0.52924 0.15503 0.0
C10 C 0.08029 0.52204 0.18656 0.0
C11 C 0.99912 0.47142 0.15659 0.0
C12 C 1.00278 0.56028 0.18376 0.0
C13 C 0.96509 0.53623 0.19107 0.0
C14 C 0.95399 0.50478 0.19569 0.0
C15 C 0.93833 0.54288 0.1914 0.0
C16 C 0.88861 0.48551 0.19868 0.0
C17 C 0.90037 0.51777 0.19531 0.0
C18 C 0.91599 0.47955 0.19928 0.0
C19 C 0.05483 0.55298 0.13072 0.0
O20 O 0.13435 0.58021 0.15358 0.0
O21 O 0.10479 0.59972 0.16859 0.0
O22 O 0.10336 0.49153 0.14484 0.0
O23 O 0.12764 0.53696 0.13087 0.0
O24 O 0.0812 0.50046 0.17703 0.0
O25 O 0.08727 0.54526 0.17742 0.0
O26 O 1.0027 0.49526 0.16681 0.0
O27 O 1.02694 0.47795 0.1464 0.0
O28 O 1.00307 0.55968 0.16661 0.0
O29 O 1.03116 0.56203 0.19079 0.0
O30 O 0.05659 0.5762 0.14016 0.0
O31 O 0.04628 0.52946 0.14001 0.0
H32 H 0.16932 0.52703 0.16435 0.0
H33 H 0.17288 0.51459 0.10826 0.0
H34 H 0.23212 0.52043 0.11198 0.0
H35 H 0.22846 0.53267 0.16817 0.0
H36 H 0.97422 0.49913 0.1957 0.0
H37 H 0.94634 0.56695 0.1878 0.0
H38 H 0.87975 0.52294 0.19453 0.0
H39 H 0.90773 0.45496 0.20175 0.0
Gd40 Gd 0.58753 0.02279 0.49076 0.0
Gd41 Gd 0.53894 0.04342 0.47945 0.0
C42 C 0.49635 0.96581 0.48206 0.0
C43 C 0.61552 0.99704 0.50656 0.0
C44 C 0.60674 0.96387 0.50841 0.0
C45 C 0.63473 0.95956 0.50434 0.0
C46 C 0.57147 0.93671 0.51442 0.0
C47 C 0.59321 0.90186 0.51295 0.0
C48 C 0.56484 0.90605 0.51675 0.0
C49 C 0.62798 0.92892 0.50645 0.0
C50 C 0.58448 0.02736 0.45587 0.0
C51 C 0.63154 0.09994 0.48553 0.0
C52 C 0.51087 0.07103 0.46599 0.0
C53 C 0.51476 0.10182 0.47093 0.0
C54 C 0.51672 0.11175 0.48867 0.0
C55 C 0.51761 0.12204 0.45796 0.0
C56 C 0.52422 0.16175 0.48045 0.0
C57 C 0.52231 0.15175 0.46266 0.0
C58 C 0.52111 0.1412 0.49336 0.0
C59 C 0.54517 0.04114 0.51453 0.0
O60 O 0.52687 0.9747 0.49139 0.0
O61 O 0.49666 0.98797 0.47318 0.0
O62 O 0.62599 0.00921 0.49109 0.0
O63 O 0.59299 0.00281 0.51407 0.0
O64 O 0.61436 0.03469 0.46443 0.0
O65 O 0.55665 0.01546 0.46581 0.0
O66 O 0.59961 0.09089 0.4775 0.0
O67 O 0.63256 0.07842 0.49435 0.0
O68 O 0.49249 0.04702 0.47685 0.0
O69 O 0.54161 0.07538 0.46026 0.0
O70 O 0.51438 0.03294 0.50657 0.0
O71 O 0.57141 0.05217 0.50385 0.0
H72 H 0.66203 0.98006 0.49958 0.0
H73 H 0.54924 0.93925 0.51758 0.0
H74 H 0.53784 0.88596 0.52191 0.0
H75 H 0.65016 0.9265 0.50292 0.0
H76 H 0.5149 0.09675 0.49896 0.0
H77 H 0.51653 0.11498 0.4442 0.0
H78 H 0.52509 0.16713 0.45237 0.0
H79 H 0.52175 0.14768 0.50716 0.0
Gd80 Gd 0.59816 0.56227 0.84979 0.0
Gd81 Gd 0.54543 0.48736 0.85394 0.0
C82 C 0.5058 0.52362 0.85393 0.0
C83 C 0.62994 0.6221 0.83986 0.0
C84 C 0.61858 0.64361 0.83587 0.0
C85 C 0.63864 0.67578 0.8442 0.0
C86 C 0.58873 0.63299 0.82369 0.0
C87 C 0.60051 0.68707 0.82772 0.0
C88 C 0.57995 0.65463 0.81958 0.0
C89 C 0.6296 0.69724 0.84024 0.0
C90 C 0.59106 0.54368 0.8829 0.0
C91 C 0.639 0.52686 0.85155 0.0
C92 C 0.51381 0.42677 0.86275 0.0
C93 C 0.52124 0.40211 0.85911 0.0
C94 C 0.55316 0.41066 0.84967 0.0
C95 C 0.49603 0.36961 0.86481 0.0
C96 C 0.53423 0.3541 0.8514 0.0
C97 C 0.50241 0.34577 0.86098 0.0
C98 C 0.55965 0.38692 0.84588 0.0
C99 C 0.55362 0.50588 0.82066 0.0
O100 O 0.538 0.54854 0.84703 0.0
O101 O 0.50358 0.49848 0.86048 0.0
O102 O 0.62873 0.6154 0.8563 0.0
O103 O 0.61787 0.59633 0.82891 0.0
O104 O 0.62295 0.56895 0.87696 0.0
O105 O 0.56449 0.53085 0.87143 0.0
O106 O 0.60503 0.49991 0.85584 0.0
O107 O 0.64318 0.55394 0.84673 0.0
O108 O 0.50202 0.43383 0.84927 0.0
O109 O 0.53978 0.45342 0.87254 0.0
O110 O 0.52175 0.48063 0.82651 0.0
O111 O 0.57987 0.51868 0.83227 0.0
H112 H 0.66176 0.68451 0.85363 0.0
H113 H 0.57254 0.6082 0.81715 0.0
H114 H 0.55722 0.64609 0.80996 0.0
H115 H 0.64622 0.72222 0.84658 0.0
H116 H 0.57282 0.43559 0.84505 0.0
H117 H 0.47133 0.36263 0.87218 0.0
H118 H 0.48257 0.32087 0.86562 0.0
H119 H 0.58415 0.39408 0.8383 0.0
P120 P 0.60592 0.02466 0.20902 0.0
H121 H 0.5822 0.98857 0.17466 0.0
H122 H 0.52006 0.93973 0.1628 0.0
H123 H 0.46588 0.94738 0.20807 0.0
H124 H 0.52756 0.99659 0.21943 0.0
H125 H 0.68809 0.07201 0.20804 0.0
H126 H 0.73145 0.12949 0.19959 0.0
H127 H 0.63499 0.12755 0.18493 0.0
H128 H 0.59132 0.06899 0.19312 0.0
H129 H 0.59419 0.98252 0.23708 0.0
H130 H 0.60287 0.07215 0.23182 0.0
O131 O 0.6285 0.0074 0.2063 0.0
H132 H 0.58446 0.98465 0.26842 0.0
H133 H 0.59237 0.07415 0.26322 0.0
C134 C 0.55968 0.996 0.19803 0.0
C135 C 0.55675 0.9803 0.18175 0.0
C136 C 0.52122 0.9521 0.1751 0.0
C137 C 0.48794 0.93906 0.18465 0.0
C138 C 0.49073 0.95662 0.20029 0.0
C139 C 0.52624 0.98486 0.20688 0.0
C140 C 0.63651 0.06603 0.20091 0.0
C141 C 0.67614 0.08368 0.20275 0.0
C142 C 0.70097 0.11679 0.19811 0.0
C143 C 0.68679 0.13336 0.19174 0.0
C144 C 0.64688 0.11546 0.18967 0.0
C145 C 0.62189 0.08204 0.19433 0.0
C146 C 0.60018 0.0276 0.23222 0.0
C147 C 0.59421 0.00279 0.24271 0.0
C148 C 0.58817 0.00383 0.2606 0.0
C149 C 0.58756 0.02956 0.26834 0.0
C150 C 0.59317 0.05426 0.25771 0.0
C151 C 0.59921 0.05316 0.23977 0.0
P152 P 0.63231 0.56614 0.57763 0.0
H153 H 0.61703 0.54179 0.54066 0.0
H154 H 0.59619 0.48839 0.5261 0.0
H155 H 0.57893 0.44714 0.57673 0.0
H156 H 0.60128 0.50059 0.59105 0.0
H157 H 0.66858 0.63686 0.58171 0.0
H158 H 0.65376 0.67261 0.57062 0.0
H159 H 0.55395 0.58657 0.54257 0.0
H160 H 0.56814 0.55053 0.55463 0.0
H161 H 0.68217 0.60541 0.60831 0.0
H162 H 0.56272 0.52529 0.59771 0.0
O163 O 0.67913 0.58638 0.5753 0.0
H164 H 0.67117 0.60388 0.63961 0.0
H165 H 0.55161 0.52201 0.62918 0.0
C166 C 0.60938 0.52499 0.56696 0.0
C167 C 0.60776 0.52094 0.54859 0.0
C168 C 0.59589 0.49037 0.54028 0.0
C169 C 0.58591 0.46338 0.55022 0.0
C170 C 0.5868 0.46742 0.56862 0.0
C171 C 0.59893 0.49798 0.57688 0.0
C172 C 0.62012 0.59124 0.5686 0.0
C173 C 0.64359 0.62569 0.57309 0.0
C174 C 0.63516 0.64617 0.56662 0.0
C175 C 0.60306 0.63271 0.55535 0.0
C176 C 0.57892 0.59786 0.55119 0.0
C177 C 0.58723 0.57723 0.55791 0.0
C178 C 0.62349 0.56469 0.60075 0.0
C179 C 0.6536 0.58708 0.61276 0.0
C180 C 0.64725 0.58603 0.63073 0.0
C181 C 0.6106 0.56239 0.63709 0.0
C182 C 0.58019 0.54071 0.62486 0.0
C183 C 0.58653 0.54223 0.60685 0.0
P184 P 0.09825 0.56309 0.88309 0.0
H185 H 0.16462 0.59593 0.86057 0.0
H186 H 0.21226 0.58699 0.85458 0.0
H187 H 0.14193 0.49167 0.87825 0.0
H188 H 0.09464 0.50164 0.8848 0.0
H189 H 0.07932 0.60452 0.86812 0.0
H190 H 1.01983 0.59556 0.86208 0.0
H191 H 0.9583 0.48973 0.86892 0.0
H192 H 1.01906 0.49967 0.87612 0.0
H193 H 0.13893 0.55469 0.91033 0.0
H194 H 0.03964 0.5531 0.90678 0.0
O195 O 0.12895 0.60487 0.88449 0.0
H196 H 0.13126 0.54868 0.94191 0.0
H197 H 1.03214 0.54726 0.93821 0.0
C198 C 0.12574 0.54968 0.87332 0.0
C199 C 0.15878 0.57266 0.86416 0.0
C200 C 0.18639 0.56743 0.8607 0.0
C201 C 0.18193 0.53875 0.86612 0.0
C202 C 0.14735 0.51454 0.8742 0.0
C203 C 0.11967 0.51989 0.8777 0.0
C204 C 0.05442 0.5528 0.87247 0.0
C205 C 0.05332 0.57911 0.86795 0.0
C206 C 1.01859 0.57382 0.8644 0.0
C207 C 0.98315 0.54179 0.86498 0.0
C208 C 0.98443 0.51498 0.8686 0.0
C209 C 1.01948 0.52045 0.87237 0.0
C210 C 0.08885 0.55277 0.90583 0.0
C211 C 0.11467 0.55182 0.91613 0.0
C212 C 0.11046 0.54864 0.93426 0.0
C213 C 0.081 0.54735 0.94254 0.0
C214 C 0.05516 0.54822 0.93222 0.0
C215 C 0.05918 0.55109 0.91411 0.0
P216 P 0.09916 0.50758 0.43218 0.0
H217 H 0.11481 0.53958 0.4678 0.0
H218 H 0.15795 0.59858 0.47882 0.0
H219 H 0.18283 0.62865 0.42547 0.0
H220 H 0.14021 0.57053 0.41473 0.0
H221 H 0.07109 0.44113 0.44167 0.0
H222 H 1.01091 0.39442 0.45269 0.0
H223 H 0.97182 0.45558 0.45705 0.0
H224 H 1.03272 0.5026 0.44566 0.0
H225 H 0.11849 0.48553 0.40066 0.0
H226 H 0.0518 0.52058 0.41326 0.0
O227 O 0.13126 0.50012 0.43413 0.0
H228 H 0.10584 0.48454 0.36947 0.0
H229 H 1.03849 0.51922 0.38193 0.0
C230 C 0.12316 0.5505 0.44042 0.0
C231 C 0.12871 0.55902 0.45852 0.0
C232 C 0.15374 0.59274 0.46479 0.0
C233 C 0.17381 0.6185 0.45304 0.0
C234 C 0.16732 0.60972 0.43493 0.0
C235 C 0.14263 0.57621 0.42874 0.0
C236 C 0.05682 0.47566 0.4432 0.0
C237 C 0.05003 0.44489 0.44537 0.0
C238 C 1.01543 0.41805 0.45172 0.0
C239 C 0.98642 0.42115 0.45592 0.0
C240 C 0.99342 0.45223 0.45389 0.0
C241 C 1.02834 0.47924 0.44754 0.0
C242 C 0.08628 0.50335 0.40927 0.0
C243 C 0.10072 0.49264 0.39673 0.0
C244 C 0.09328 0.49191 0.37886 0.0
C245 C 0.07126 0.50192 0.37319 0.0
C246 C 0.05593 0.51175 0.38586 0.0
C247 C 0.06326 0.5123 0.40376 0.0
P248 P 0.64426 0.06547 0.75871 0.0
H249 H 0.65939 0.09492 0.79437 0.0
H250 H 0.63931 0.12541 0.8101 0.0
H251 H 0.56464 0.10407 0.76599 0.0
H252 H 0.5843 0.07322 0.75053 0.0
H253 H 0.67674 0.0306 0.75113 0.0
H254 H 0.66169 0.97788 0.75997 0.0
H255 H 0.5695 0.96137 0.7907 0.0
H256 H 0.58523 0.01478 0.78188 0.0
H257 H 0.67965 0.10969 0.7298 0.0
H258 H 0.57959 0.00913 0.73722 0.0
O259 O 0.69165 0.09375 0.76091 0.0
H260 H 0.66309 0.10212 0.6985 0.0
H261 H 0.56305 1.00112 0.70581 0.0
C262 C 0.62369 0.0821 0.77123 0.0
C263 C 0.63819 0.09633 0.78823 0.0
C264 C 0.62689 0.11395 0.79715 0.0
C265 C 0.60073 0.11757 0.78922 0.0
C266 C 0.58467 0.10163 0.77253 0.0
C267 C 0.59606 0.08406 0.76362 0.0
C268 C 0.63247 0.02676 0.76604 0.0
C269 C 0.6534 0.01573 0.75985 0.0
C270 C 0.64452 0.9854 0.76479 0.0
C271 C 0.61426 0.96529 0.77599 0.0
C272 C 0.59319 0.97643 0.78219 0.0
C273 C 0.6021 0.0069 0.77715 0.0
C274 C 0.63128 0.05974 0.73573 0.0
C275 C 0.65425 0.08588 0.72465 0.0
C276 C 0.64482 0.08146 0.70675 0.0
C277 C 0.612 0.05087 0.69961 0.0
C278 C 0.58847 0.025 0.71089 0.0
C279 C 0.59801 0.02945 0.72882 0.0
P280 P 0.44527 0.31551 0.09042 0.0
H281 H 0.43786 0.26939 0.11514 0.0
H282 H 0.48503 0.27007 0.13271 0.0
H283 H 0.57583 0.36014 0.10876 0.0
H284 H 0.52876 0.35875 0.09108 0.0
H285 H 0.37487 0.30527 0.10104 0.0
H286 H 0.36347 0.34265 0.11594 0.0
H287 H 0.48518 0.41796 0.12462 0.0
H288 H 0.49638 0.38059 0.10955 0.0
H289 H 0.482 0.30596 0.06129 0.0
H290 H 0.44536 0.36732 0.07387 0.0
O291 O 0.40502 0.2768 0.08654 0.0
H292 H 0.50614 0.33295 0.03345 0.0
H293 H 0.47046 0.39498 0.04674 0.0
C294 C 0.47989 0.31357 0.10154 0.0
C295 C 0.46799 0.2888 0.11342 0.0
C296 C 0.49494 0.28936 0.12354 0.0
C297 C 0.53422 0.31497 0.12203 0.0
C298 C 0.54589 0.33954 0.10994 0.0
C299 C 0.51897 0.33887 0.09983 0.0
C300 C 0.43642 0.33997 0.1044 0.0
C301 C 0.39904 0.32946 0.10655 0.0
C302 C 0.39257 0.35084 0.11511 0.0
C303 C 0.42347 0.38324 0.12147 0.0
C304 C 0.46085 0.39321 0.1198 0.0
C305 C 0.46725 0.37174 0.11132 0.0
C306 C 0.46249 0.33496 0.06983 0.0
C307 C 0.47936 0.32533 0.05812 0.0
C308 C 0.49332 0.34091 0.04228 0.0
C309 C 0.4903 0.36619 0.03784 0.0
C310 C 0.47281 0.37531 0.04956 0.0
C311 C 0.45878 0.35967 0.06528 0.0
H312 H 0.23921 0.48867 0.16272 0.0
H313 H 0.28627 0.4778 0.16335 0.0
H314 H 0.34969 0.54913 0.12387 0.0
H315 H 0.30166 0.55931 0.12285 0.0
H316 H 0.33855 0.49463 0.1141 0.0
H317 H 0.38673 0.56127 0.16725 0.0
H318 H 0.38558 0.58257 0.19684 0.0
H319 H 0.33807 0.48657 0.21682 0.0
H320 H 0.33839 0.4645 0.18729 0.0
H321 H 0.46161 0.44841 0.11347 0.0
H322 H 0.44439 0.48566 0.12097 0.0
H323 H 0.35217 0.40988 0.15164 0.0
H324 H 0.36954 0.37255 0.14437 0.0
H325 H 0.39091 0.4777 0.16635 0.0
H326 H 0.33285 0.41091 0.11099 0.0
H327 H 0.33619 0.39135 0.08127 0.0
H328 H 0.40694 0.49279 0.06572 0.0
H329 H 0.40447 0.51297 0.09546 0.0
C330 C 0.26374 0.50273 0.15452 0.0
C331 C 0.26677 0.52479 0.14271 0.0
C332 C 0.2908 0.49661 0.15494 0.0
C333 C 0.32188 0.51289 0.14379 0.0
C334 C 0.32598 0.53625 0.1326 0.0
C335 C 0.29857 0.54204 0.13201 0.0
C336 C 0.3469 0.50219 0.14226 0.0
C337 C 0.35088 0.49189 0.12554 0.0
C338 C 0.36263 0.49805 0.15716 0.0
C339 C 0.3624 0.51117 0.175 0.0
C340 C 0.37578 0.54461 0.17792 0.0
C341 C 0.37531 0.55684 0.19469 0.0
C342 C 0.36171 0.53592 0.20869 0.0
C343 C 0.34861 0.50275 0.20596 0.0
C344 C 0.34899 0.49038 0.1892 0.0
C345 C 0.43836 0.44002 0.12223 0.0
C346 C 0.41669 0.40744 0.12823 0.0
C347 C 0.42851 0.4613 0.12645 0.0
C348 C 0.39685 0.45037 0.13673 0.0
C349 C 0.37674 0.41875 0.1437 0.0
C350 C 0.38645 0.39736 0.13941 0.0
C351 C 0.38161 0.46983 0.13833 0.0
C352 C 0.37936 0.48147 0.155 0.0
C353 C 0.36784 0.47566 0.1234 0.0
C354 C 0.36884 0.46346 0.10547 0.0
C355 C 0.34934 0.42905 0.10126 0.0
C356 C 0.35105 0.41785 0.08442 0.0
C357 C 0.37186 0.44082 0.07163 0.0
C358 C 0.3909 0.47503 0.07565 0.0
C359 C 0.38935 0.48636 0.09249 0.0
H360 H 0.37316 0.43211 0.0586 0.0
H361 H 0.36137 0.54544 0.22167 0.0
H362 H 0.70352 0.12792 0.49916 0.0
H363 H 0.76192 0.1845 0.49578 0.0
H364 H 0.69813 0.20767 0.46585 0.0
H365 H 0.63977 0.15108 0.46894 0.0
H366 H 0.76218 0.22817 0.45002 0.0
H367 H 0.73018 0.23965 0.50849 0.0
H368 H 0.71342 0.22489 0.53916 0.0
H369 H 0.81983 0.24074 0.54863 0.0
H370 H 0.83702 0.25515 0.51794 0.0
H371 H 0.9146 0.40101 0.44647 0.0
H372 H 0.85298 0.34933 0.4534 0.0
H373 H 0.91085 0.3213 0.48423 0.0
H374 H 0.97238 0.37348 0.47797 0.0
H375 H 0.84812 0.30451 0.49995 0.0
H376 H 0.87842 0.28978 0.44132 0.0
H377 H 0.89522 0.30373 0.41056 0.0
H378 H 0.7918 0.29316 0.40139 0.0
H379 H 0.77463 0.27959 0.43217 0.0
C380 C 0.7018 0.1451 0.49196 0.0
C381 C 0.66682 0.13484 0.48435 0.0
C382 C 0.73527 0.17755 0.49009 0.0
C383 C 0.73449 0.20058 0.48068 0.0
C384 C 0.69955 0.19044 0.47317 0.0
C385 C 0.66611 0.15802 0.47501 0.0
C386 C 0.77025 0.2348 0.47815 0.0
C387 C 0.78061 0.24506 0.46097 0.0
C388 C 0.79488 0.25667 0.49238 0.0
C389 C 0.78473 0.2482 0.51087 0.0
C390 C 0.74989 0.23975 0.51708 0.0
C391 C 0.74033 0.23149 0.53447 0.0
C392 C 0.7655 0.2318 0.54583 0.0
C393 C 0.80034 0.24047 0.53982 0.0
C394 C 0.81002 0.24873 0.52243 0.0
C395 C 0.91424 0.38421 0.45502 0.0
C396 C 0.94862 0.39137 0.46151 0.0
C397 C 0.87893 0.35442 0.45882 0.0
C398 C 0.87718 0.33098 0.46906 0.0
C399 C 0.91134 0.33878 0.4762 0.0
C400 C 0.9466 0.36857 0.47247 0.0
C401 C 0.84006 0.2978 0.47183 0.0
C402 C 0.82951 0.2877 0.48902 0.0
C403 C 0.81525 0.276 0.45762 0.0
C404 C 0.82546 0.28404 0.43909 0.0
C405 C 0.85941 0.29068 0.43278 0.0
C406 C 0.86897 0.29848 0.41533 0.0
C407 C 0.84465 0.29943 0.40404 0.0
C408 C 0.81065 0.29248 0.41016 0.0
C409 C 0.80098 0.28472 0.4276 0.0
H410 H 0.8521 0.30546 0.39054 0.0
H411 H 0.75804 0.22539 0.55929 0.0
H412 H 0.59308 0.70091 0.79458 0.0
H413 H 0.58853 0.74487 0.78595 0.0
H414 H 0.58803 0.77184 0.8404 0.0
H415 H 0.59257 0.72784 0.84913 0.0
H416 H 0.53598 0.77244 0.81823 0.0
H417 H 0.66816 0.81622 0.82153 0.0
H418 H 0.72337 0.81647 0.81498 0.0
H419 H 0.70668 0.8202 0.76001 0.0
H420 H 0.65094 0.81943 0.76622 0.0
H421 H 0.5967 0.9396 0.80853 0.0
H422 H 0.58731 0.88878 0.81727 0.0
H423 H 0.60254 0.86752 0.7639 0.0
H424 H 0.6118 0.91808 0.7551 0.0
H425 H 0.64581 0.86315 0.78592 0.0
H426 H 0.51473 0.82093 0.78236 0.0
H427 H 0.45897 0.81999 0.78864 0.0
H428 H 0.47266 0.81295 0.8435 0.0
H429 H 0.52888 0.81434 0.83757 0.0
C430 C 0.59125 0.71578 0.8047 0.0
C431 C 0.59338 0.71109 0.82253 0.0
C432 C 0.58886 0.74098 0.79976 0.0
C433 C 0.5883 0.76179 0.81254 0.0
C434 C 0.58848 0.75608 0.83034 0.0
C435 C 0.59131 0.73111 0.8353 0.0
C436 C 0.59027 0.79093 0.80735 0.0
C437 C 0.56013 0.7925 0.81133 0.0
C438 C 0.62151 0.81674 0.79809 0.0
C439 C 0.65513 0.81739 0.79432 0.0
C440 C 0.67605 0.81679 0.80803 0.0
C441 C 0.70748 0.81708 0.80438 0.0
C442 C 0.71846 0.81825 0.78708 0.0
C443 C 0.6981 0.81923 0.7734 0.0
C444 C 0.6666 0.81888 0.77698 0.0
C445 C 0.59739 0.92378 0.79861 0.0
C446 C 0.60528 0.93303 0.78114 0.0
C447 C 0.59204 0.89474 0.80362 0.0
C448 C 0.59414 0.87425 0.79123 0.0
C449 C 0.60102 0.88301 0.77372 0.0
C450 C 0.60643 0.912 0.76872 0.0
C451 C 0.59129 0.8447 0.79661 0.0
C452 C 0.62147 0.8431 0.79275 0.0
C453 C 0.56003 0.81889 0.80593 0.0
C454 C 0.52628 0.8181 0.80954 0.0
C455 C 0.50607 0.81949 0.79578 0.0
C456 C 0.47433 0.81882 0.79927 0.0
C457 C 0.46234 0.81651 0.81646 0.0
C458 C 0.48202 0.81479 0.83019 0.0
C459 C 0.51381 0.8155 0.82677 0.0
H460 H 0.43775 0.81597 0.81914 0.0
H461 H 0.74281 0.81849 0.78429 0.0
H462 H 0.83314 0.48281 0.21702 0.0
H463 H 0.76385 0.44049 0.21272 0.0
H464 H 0.78232 0.38342 0.17615 0.0
H465 H 0.85105 0.42541 0.1805 0.0
H466 H 0.73198 0.43246 0.18256 0.0
H467 H 0.70489 0.30364 0.16955 0.0
H468 H 0.72238 0.27028 0.18257 0.0
H469 H 0.7458 0.32393 0.23238 0.0
H470 H 0.72816 0.35742 0.21974 0.0
H471 H 0.60452 0.33251 0.11367 0.0
H472 H 0.65662 0.34868 0.13408 0.0
H473 H 0.58167 0.31975 0.17742 0.0
H474 H 0.52952 0.30457 0.15719 0.0
H475 H 0.65062 0.3084 0.17463 0.0
H476 H 0.61764 0.38703 0.18023 0.0
H477 H 0.59753 0.41798 0.16652 0.0
H478 H 0.69435 0.46417 0.13351 0.0
H479 H 0.71465 0.43305 0.14688 0.0
C480 C 0.82225 0.46072 0.20846 0.0
C481 C 0.84738 0.45733 0.19906 0.0
C482 C 0.78274 0.4365 0.20607 0.0
C483 C 0.76778 0.40865 0.19416 0.0
C484 C 0.79295 0.4042 0.18569 0.0
C485 C 0.83235 0.4283 0.18814 0.0
C486 C 0.7272 0.38817 0.18796 0.0
C487 C 0.71398 0.40529 0.18134 0.0
C488 C 0.70366 0.35267 0.18604 0.0
C489 C 0.71518 0.3331 0.19366 0.0
C490 C 0.71359 0.30824 0.1833 0.0
C491 C 0.72353 0.28929 0.19062 0.0
C492 C 0.73491 0.29481 0.20832 0.0
C493 C 0.7368 0.31957 0.21869 0.0
C494 C 0.727 0.33865 0.21143 0.0
C495 C 0.59888 0.32907 0.12751 0.0
C496 C 0.56308 0.31786 0.13383 0.0
C497 C 0.62853 0.3379 0.1391 0.0
C498 C 0.6228 0.33534 0.15718 0.0
C499 C 0.58635 0.32152 0.16346 0.0
C500 C 0.55665 0.31291 0.15186 0.0
C501 C 0.65643 0.35299 0.16935 0.0
C502 C 0.66843 0.33547 0.17664 0.0
C503 C 0.67894 0.38813 0.17212 0.0
C504 C 0.66747 0.4076 0.16445 0.0
C505 C 0.63449 0.40367 0.16998 0.0
C506 C 0.62307 0.42123 0.16228 0.0
C507 C 0.64461 0.44299 0.14913 0.0
C508 C 0.67769 0.4473 0.1437 0.0
C509 C 0.68917 0.42974 0.15134 0.0
H510 H 0.63571 0.45654 0.14317 0.0
H511 H 0.74245 0.28004 0.21398 0.0
H512 H 0.48162 0.91524 0.50178 0.0
H513 H 0.4255 0.8565 0.49984 0.0
H514 H 0.37764 0.87651 0.45775 0.0
H515 H 0.43319 0.93553 0.45998 0.0
H516 H 0.32381 0.83696 0.47959 0.0
H517 H 0.42386 0.83839 0.45127 0.0
H518 H 0.48746 0.85086 0.45017 0.0
H519 H 0.46039 0.78863 0.49316 0.0
H520 H 0.39686 0.77623 0.4947 0.0
H521 H 0.18813 0.67494 0.43994 0.0
H522 H 0.24129 0.73323 0.44772 0.0
H523 H 0.27955 0.70178 0.48835 0.0
H524 H 0.22715 0.64313 0.48012 0.0
H525 H 0.33811 0.74642 0.4702 0.0
H526 H 0.23815 0.74176 0.498 0.0
H527 H 0.17495 0.72961 0.5007 0.0
H528 H 0.20157 0.79742 0.46075 0.0
H529 H 0.26477 0.80964 0.45763 0.0
C530 C 0.45917 0.90718 0.4921 0.0
C531 C 0.46206 0.93014 0.48096 0.0
C532 C 0.42709 0.87348 0.49096 0.0
C533 C 0.39747 0.8618 0.47845 0.0
C534 C 0.40007 0.8848 0.4675 0.0
C535 C 0.43195 0.91858 0.46876 0.0
C536 C 0.36383 0.82568 0.47664 0.0
C537 C 0.32696 0.8172 0.47733 0.0
C538 C 0.36779 0.79965 0.47436 0.0
C539 C 0.40575 0.80665 0.47321 0.0
C540 C 0.43156 0.82753 0.46055 0.0
C541 C 0.46761 0.83459 0.45986 0.0
C542 C 0.47803 0.82066 0.47164 0.0
C543 C 0.45234 0.79949 0.48408 0.0
C544 C 0.41631 0.79243 0.48486 0.0
C545 C 0.20775 0.68035 0.45058 0.0
C546 C 0.20333 0.6542 0.45934 0.0
C547 C 0.23802 0.71382 0.45514 0.0
C548 C 0.26443 0.7221 0.46874 0.0
C549 C 0.25958 0.69612 0.47782 0.0
C550 C 0.22931 0.66255 0.47322 0.0
C551 C 0.29803 0.75773 0.4728 0.0
C552 C 0.3349 0.76612 0.47255 0.0
C553 C 0.29409 0.78365 0.47565 0.0
C554 C 0.2561 0.7764 0.47748 0.0
C555 C 0.23043 0.75389 0.48969 0.0
C556 C 0.19461 0.74702 0.49132 0.0
C557 C 0.18422 0.76267 0.48088 0.0
C558 C 0.20966 0.78529 0.46882 0.0
C559 C 0.2455 0.79223 0.46713 0.0
H560 H 0.15648 0.75732 0.48216 0.0
H561 H 0.50596 0.8262 0.47111 0.0
H562 H 0.48088 0.28845 0.83999 0.0
H563 H 0.49147 0.24712 0.83124 0.0
H564 H 0.61211 0.32048 0.84338 0.0
H565 H 0.60169 0.36196 0.85217 0.0
H566 H 0.60077 0.28877 0.81239 0.0
H567 H 0.55366 0.25552 0.86998 0.0
H568 H 0.50873 0.23889 0.89391 0.0
H569 H 0.41994 0.1524 0.86228 0.0
H570 H 0.46421 0.16877 0.83804 0.0
H571 H 0.65112 0.17897 0.80632 0.0
H572 H 0.63859 0.21734 0.81848 0.0
H573 H 0.5194 0.14585 0.80299 0.0
H574 H 0.53157 0.10684 0.7911 0.0
H575 H 0.5297 0.17604 0.83598 0.0
H576 H 0.57696 0.21014 0.77831 0.0
H577 H 0.62219 0.22685 0.7545 0.0
H578 H 0.71121 0.31218 0.78669 0.0
H579 H 0.66662 0.29569 0.8108 0.0
C580 C 0.50959 0.29566 0.84105 0.0
C581 C 0.54044 0.32853 0.84679 0.0
C582 C 0.51562 0.27199 0.83602 0.0
C583 C 0.55255 0.28056 0.83679 0.0
C584 C 0.58336 0.31328 0.84263 0.0
C585 C 0.57738 0.337 0.84761 0.0
C586 C 0.55926 0.25578 0.83091 0.0
C587 C 0.58564 0.26434 0.81776 0.0
C588 C 0.53884 0.22352 0.83757 0.0
C589 C 0.51216 0.21356 0.85213 0.0
C590 C 0.52447 0.2331 0.86807 0.0
C591 C 0.49913 0.2237 0.8817 0.0
C592 C 0.46148 0.19466 0.8796 0.0
C593 C 0.44911 0.17491 0.86388 0.0
C594 C 0.47432 0.18423 0.85019 0.0
C595 C 0.62208 0.17109 0.80576 0.0
C596 C 0.59234 0.1398 0.7977 0.0
C597 C 0.61504 0.19322 0.81258 0.0
C598 C 0.57815 0.18465 0.81145 0.0
C599 C 0.54812 0.15302 0.80395 0.0
C600 C 0.55516 0.13087 0.79705 0.0
C601 C 0.5713 0.20919 0.81757 0.0
C602 C 0.54486 0.20055 0.83069 0.0
C603 C 0.59171 0.24143 0.81092 0.0
C604 C 0.61854 0.25148 0.79642 0.0
C605 C 0.60626 0.23232 0.78036 0.0
C606 C 0.63176 0.24177 0.7668 0.0
C607 C 0.66957 0.27051 0.76909 0.0
C608 C 0.68192 0.2899 0.78494 0.0
C609 C 0.65654 0.28052 0.79855 0.0
H610 H 0.68928 0.2778 0.75858 0.0
H611 H 0.44191 0.18742 0.89017 0.0
H612 H 0.64589 0.89382 0.52491 0.0
H613 H 0.63745 0.8418 0.52867 0.0
H614 H 0.51844 0.78492 0.51293 0.0
H615 H 0.52691 0.83712 0.50831 0.0
H616 H 0.53781 0.76518 0.54528 0.0
H617 H 0.56638 0.78285 0.48448 0.0
H618 H 0.60234 0.81618 0.45939 0.0
H619 H 0.70438 0.83447 0.48061 0.0
H620 H 0.66916 0.80168 0.50599 0.0
H621 H 0.53354 0.6206 0.54931 0.0
H622 H 0.52217 0.65934 0.53874 0.0
H623 H 0.64376 0.73519 0.53534 0.0
H624 H 0.65512 0.69614 0.54463 0.0
H625 H 0.61091 0.73837 0.50888 0.0
H626 H 0.5879 0.73057 0.57127 0.0
H627 H 0.55577 0.70114 0.59794 0.0
H628 H 0.44762 0.66784 0.57546 0.0
H629 H 0.4791 0.69678 0.54858 0.0
C630 C 0.61797 0.87036 0.52195 0.0
C631 C 0.58722 0.86983 0.51603 0.0
C632 C 0.61316 0.84061 0.52426 0.0
C633 C 0.57743 0.80958 0.52095 0.0
C634 C 0.54627 0.80869 0.51556 0.0
C635 C 0.55116 0.83857 0.51299 0.0
C636 C 0.57344 0.77837 0.52303 0.0
C637 C 0.55302 0.75875 0.53711 0.0
C638 C 0.59394 0.77052 0.51254 0.0
C639 C 0.61515 0.78996 0.4972 0.0
C640 C 0.59655 0.79418 0.48387 0.0
C641 C 0.61679 0.81295 0.46958 0.0
C642 C 0.65563 0.82748 0.46842 0.0
C643 C 0.67429 0.8232 0.48153 0.0
C644 C 0.65418 0.80449 0.49585 0.0
C645 C 0.55782 0.64532 0.546 0.0
C646 C 0.59533 0.6553 0.54809 0.0
C647 C 0.55128 0.66762 0.54016 0.0
C648 C 0.58213 0.70052 0.53656 0.0
C649 C 0.61941 0.71008 0.5381 0.0
C650 C 0.62592 0.68776 0.54367 0.0
C651 C 0.57631 0.7256 0.53158 0.0
C652 C 0.59496 0.74418 0.5169 0.0
C653 C 0.55464 0.73278 0.5417 0.0
C654 C 0.53576 0.71546 0.55785 0.0
C655 C 0.55723 0.71676 0.57198 0.0
C656 C 0.53915 0.70021 0.58713 0.0
C657 C 0.49966 0.68254 0.58837 0.0
C658 C 0.47819 0.68147 0.57447 0.0
C659 C 0.49613 0.69795 0.55928 0.0
H660 H 0.48572 0.66974 0.60011 0.0
H661 H 0.67126 0.84201 0.45735 0.0
H662 H 0.64308 0.47772 0.86318 0.0
H663 H 0.69864 0.47751 0.86484 0.0
H664 H 0.76835 0.57473 0.84341 0.0
H665 H 0.71279 0.57502 0.84159 0.0
H666 H 0.78438 0.53416 0.82855 0.0
H667 H 0.77144 0.56354 0.88817 0.0
H668 H 0.7343 0.55315 0.91466 0.0
H669 H 0.71627 0.45954 0.91924 0.0
H670 H 0.75291 0.46918 0.89264 0.0
H671 H 0.96814 0.5789 0.84588 0.0
H672 H 0.91043 0.57493 0.84412 0.0
H673 H 0.85256 0.48858 0.87526 0.0
H674 H 0.91166 0.49434 0.87857 0.0
H675 H 0.82756 0.5202 0.88501 0.0
H676 H 0.83813 0.48744 0.82723 0.0
H677 H 0.86831 0.49099 0.79929 0.0
H678 H 0.88368 0.58202 0.78955 0.0
H679 H 0.85402 0.57925 0.81755 0.0
C680 C 0.67016 0.49912 0.85877 0.0
C681 C 0.6731 0.52647 0.85228 0.0
C682 C 0.70217 0.49902 0.85982 0.0
C683 C 0.73829 0.52629 0.85446 0.0
C684 C 0.74111 0.55333 0.84769 0.0
C685 C 0.70914 0.55352 0.8467 0.0
C686 C 0.77309 0.52683 0.85597 0.0
C687 C 0.79409 0.53157 0.84096 0.0
C688 C 0.78529 0.52209 0.87195 0.0
C689 C 0.76473 0.517 0.88836 0.0
C690 C 0.75951 0.54072 0.89482 0.0
C691 C 0.73853 0.53495 0.90984 0.0
C692 C 0.72291 0.50569 0.91861 0.0
C693 C 0.72841 0.48221 0.91243 0.0
C694 C 0.74933 0.48784 0.8974 0.0
C695 C 0.94359 0.55923 0.85267 0.0
C696 C 0.94565 0.53714 0.86252 0.0
C697 C 0.90983 0.55655 0.85132 0.0
C698 C 0.87603 0.53095 0.8592 0.0
C699 C 0.87774 0.50861 0.86891 0.0
C700 C 0.91183 0.51168 0.87059 0.0
C701 C 0.83952 0.52802 0.85755 0.0
C702 C 0.81807 0.52279 0.87254 0.0
C703 C 0.82631 0.53151 0.84142 0.0
C704 C 0.84417 0.5333 0.82457 0.0
C705 C 0.84818 0.50834 0.81919 0.0
C706 C 0.86516 0.51019 0.80333 0.0
C707 C 0.87799 0.53676 0.79268 0.0
C708 C 0.87378 0.56148 0.79783 0.0
C709 C 0.85685 0.55977 0.81369 0.0
H710 H 0.89113 0.53815 0.7804 0.0
H711 H 0.70657 0.50121 0.93021 0.0
H712 H 0.20644 0.6255 0.15193 0.0
H713 H 0.26623 0.68252 0.15407 0.0
H714 H 0.2061 0.7197 0.17495 0.0
H715 H 0.14624 0.66292 0.17282 0.0
H716 H 0.25675 0.75971 0.15007 0.0
H717 H 0.25711 0.70919 0.20188 0.0
H718 H 0.25255 0.6657 0.21817 0.0
H719 H 0.35016 0.68483 0.1921 0.0
H720 H 0.35487 0.72804 0.17538 0.0
H721 H 0.41435 0.9193 0.18673 0.0
H722 H 0.35482 0.86296 0.18106 0.0
H723 H 0.41894 0.82703 0.16462 0.0
H724 H 0.47853 0.88284 0.17099 0.0
H725 H 0.36641 0.78591 0.18635 0.0
H726 H 0.36725 0.8374 0.13495 0.0
H727 H 0.37121 0.88019 0.11822 0.0
H728 H 0.27165 0.85921 0.14312 0.0
H729 H 0.2674 0.81658 0.16019 0.0
C730 C 0.20586 0.64579 0.15694 0.0
C731 C 0.17149 0.63953 0.16229 0.0
C732 C 0.24011 0.67838 0.15819 0.0
C733 C 0.24069 0.70536 0.1648 0.0
C734 C 0.20634 0.69929 0.16982 0.0
C735 C 0.17215 0.66673 0.16866 0.0
C736 C 0.27717 0.73984 0.16682 0.0
C737 C 0.28062 0.76555 0.15815 0.0
C738 C 0.30858 0.7473 0.17706 0.0
C739 C 0.30609 0.72161 0.18724 0.0
C740 C 0.27743 0.70395 0.19952 0.0
C741 C 0.27484 0.67937 0.20885 0.0
C742 C 0.30101 0.67247 0.20616 0.0
C743 C 0.32988 0.69018 0.19415 0.0
C744 C 0.33252 0.71472 0.18475 0.0
C745 C 0.41583 0.89945 0.18187 0.0
C746 C 0.45139 0.90577 0.17931 0.0
C747 C 0.38169 0.86725 0.17847 0.0
C748 C 0.38228 0.84069 0.17227 0.0
C749 C 0.41767 0.84706 0.16937 0.0
C750 C 0.45179 0.87918 0.17283 0.0
C751 C 0.34617 0.80597 0.16956 0.0
C752 C 0.3427 0.78015 0.17817 0.0
C753 C 0.31478 0.79843 0.15924 0.0
C754 C 0.31723 0.82402 0.14897 0.0
C755 C 0.34638 0.84209 0.13696 0.0
C756 C 0.34864 0.86628 0.1274 0.0
C757 C 0.32176 0.87247 0.12964 0.0
C758 C 0.29249 0.85441 0.14142 0.0
C759 C 0.29011 0.83021 0.15103 0.0
H760 H 0.32355 0.89121 0.12222 0.0
H761 H 0.29896 0.65343 0.21339 0.0
H762 H 0.56764 0.20655 0.50805 0.0
H763 H 0.57324 0.25641 0.51786 0.0
H764 H 0.50011 0.23993 0.47435 0.0
H765 H 0.4933 0.18915 0.46465 0.0
H766 H 0.56525 0.30782 0.48039 0.0
H767 H 0.46206 0.21989 0.51216 0.0
H768 H 0.42931 0.17114 0.53043 0.0
H769 H 0.51302 0.23065 0.57218 0.0
H770 H 0.54664 0.27966 0.55404 0.0
H771 H 0.54403 0.42951 0.51957 0.0
H772 H 0.53015 0.37792 0.50566 0.0
H773 H 0.59336 0.3745 0.54753 0.0
H774 H 0.6079 0.42604 0.56128 0.0
H775 H 0.52555 0.31398 0.54042 0.0
H776 H 0.63148 0.40031 0.50785 0.0
H777 H 0.66522 0.44902 0.48952 0.0
H778 H 0.57669 0.39259 0.44934 0.0
H779 H 0.54213 0.34365 0.46755 0.0
C780 C 0.55237 0.21321 0.50062 0.0
C781 C 0.52956 0.19344 0.48567 0.0
C782 C 0.55582 0.24189 0.5062 0.0
C783 C 0.53672 0.25164 0.49696 0.0
C784 C 0.51503 0.23279 0.48168 0.0
C785 C 0.51131 0.20384 0.47613 0.0
C786 C 0.53898 0.28113 0.50363 0.0
C787 C 0.55594 0.309 0.49338 0.0
C788 C 0.52727 0.28276 0.52067 0.0
C789 C 0.50705 0.25339 0.53167 0.0
C790 C 0.47367 0.22252 0.52518 0.0
C791 C 0.45492 0.19484 0.53552 0.0
C792 C 0.46912 0.19777 0.55244 0.0
C793 C 0.50207 0.22841 0.55906 0.0
C794 C 0.52097 0.25616 0.54876 0.0
C795 C 0.55521 0.4179 0.52574 0.0
C796 C 0.57687 0.43188 0.54163 0.0
C797 C 0.54718 0.38838 0.51779 0.0
C798 C 0.56077 0.37237 0.52555 0.0
C799 C 0.58231 0.38625 0.54138 0.0
C800 C 0.59042 0.41569 0.54928 0.0
C801 C 0.55266 0.34106 0.51736 0.0
C802 C 0.53448 0.31274 0.52734 0.0
C803 C 0.56328 0.33909 0.5001 0.0
C804 C 0.58399 0.36847 0.48915 0.0
C805 C 0.61903 0.39839 0.49517 0.0
C806 C 0.63834 0.42602 0.48479 0.0
C807 C 0.62305 0.42394 0.4683 0.0
C808 C 0.58846 0.39419 0.46213 0.0
C809 C 0.569 0.3665 0.47247 0.0
H810 H 0.63805 0.44535 0.46028 0.0
H811 H 0.45455 0.17632 0.56043 0.0
H812 H 0.4908 0.55939 0.83425 0.0
H813 H 0.43603 0.56071 0.83533 0.0
H814 H 0.39019 0.49273 0.8771 0.0
H815 H 0.44385 0.48981 0.87525 0.0
H816 H 0.33364 0.47579 0.85857 0.0
H817 H 0.43939 0.58547 0.88168 0.0
H818 H 0.5037 0.63944 0.88117 0.0
H819 H 0.4711 0.66261 0.83465 0.0
H820 H 0.40667 0.60859 0.83478 0.0
H821 H 0.20225 0.50806 0.88751 0.0
H822 H 0.25541 0.50475 0.8849 0.0
H823 H 0.28928 0.55908 0.83794 0.0
H824 H 0.23562 0.56174 0.84012 0.0
H825 H 0.35161 0.58343 0.85886 0.0
H826 H 0.24532 0.47397 0.83653 0.0
H827 H 0.18142 0.41966 0.83711 0.0
H828 H 0.21573 0.39653 0.88306 0.0
H829 H 0.27971 0.45092 0.88289 0.0
C830 C 0.46907 0.54468 0.84369 0.0
C831 C 0.47213 0.52458 0.85472 0.0
C832 C 0.43766 0.54569 0.84443 0.0
C833 C 0.40874 0.52753 0.85664 0.0
C834 C 0.4117 0.50719 0.86755 0.0
C835 C 0.44267 0.50557 0.86653 0.0
C836 C 0.3754 0.52934 0.85796 0.0
C837 C 0.33793 0.49951 0.85892 0.0
C838 C 0.37995 0.55999 0.858 0.0
C839 C 0.41831 0.59286 0.85816 0.0
C840 C 0.44597 0.60204 0.87131 0.0
C841 C 0.48244 0.63263 0.87109 0.0
C842 C 0.4915 0.65439 0.85786 0.0
C843 C 0.46404 0.6457 0.84488 0.0
C844 C 0.42752 0.61513 0.84504 0.0
C845 C 0.22039 0.51883 0.87639 0.0
C846 C 0.21388 0.53517 0.86405 0.0
C847 C 0.25122 0.51706 0.87497 0.0
C848 C 0.2768 0.53155 0.86117 0.0
C849 C 0.27043 0.54781 0.84882 0.0
C850 C 0.23948 0.54941 0.85015 0.0
C851 C 0.31016 0.52996 0.85965 0.0
C852 C 0.34752 0.5598 0.8586 0.0
C853 C 0.30559 0.49939 0.85968 0.0
C854 C 0.26718 0.46667 0.8598 0.0
C855 C 0.23914 0.45742 0.84684 0.0
C856 C 0.20293 0.4266 0.84708 0.0
C857 C 0.19449 0.4047 0.86014 0.0
C858 C 0.22229 0.41354 0.87296 0.0
C859 C 0.25854 0.44435 0.8728 0.0
H860 H 0.16643 0.38084 0.8603 0.0
H861 H 0.51977 0.67802 0.85768 0.0
H862 H 0.92826 0.45189 0.16498 0.0
H863 H 0.87086 0.39492 0.16869 0.0
H864 H 0.93264 0.35582 0.15434 0.0
H865 H 0.98976 0.4127 0.14976 0.0
H866 H 0.86333 0.31468 0.14149 0.0
H867 H 0.91648 0.3681 0.1994 0.0
H868 H 0.93951 0.41089 0.22383 0.0
H869 H 0.83152 0.39459 0.22312 0.0
H870 H 0.80839 0.35243 0.19838 0.0
H871 H 0.75095 0.1835 0.21067 0.0
H872 H 0.79918 0.24087 0.20288 0.0
H873 H 0.73218 0.22314 0.15638 0.0
H874 H 0.68423 0.16486 0.16378 0.0
H875 H 0.8015 0.29306 0.19884 0.0
H876 H 0.79385 0.26979 0.12381 0.0
H877 H 0.77461 0.22401 0.10179 0.0
H878 H 0.79905 0.17749 0.13925 0.0
H879 H 0.81887 0.22319 0.1614 0.0
C880 C 0.92954 0.43113 0.16249 0.0
C881 C 0.96362 0.43677 0.15724 0.0
C882 C 0.89677 0.39862 0.16474 0.0
C883 C 0.89759 0.37111 0.16231 0.0
C884 C 0.93123 0.37659 0.15639 0.0
C885 C 0.96388 0.40911 0.15378 0.0
C886 C 0.86388 0.3369 0.16649 0.0
C887 C 0.84969 0.31004 0.154 0.0
C888 C 0.84602 0.33054 0.18284 0.0
C889 C 0.86062 0.35701 0.19714 0.0
C890 C 0.89778 0.37384 0.20439 0.0
C891 C 0.91086 0.39796 0.21829 0.0
C892 C 0.88689 0.40524 0.22513 0.0
C893 C 0.84996 0.38871 0.21794 0.0
C894 C 0.83686 0.36473 0.20398 0.0
C895 C 0.74648 0.19165 0.19871 0.0
C896 C 0.71399 0.1693 0.18768 0.0
C897 C 0.77396 0.22465 0.19436 0.0
C898 C 0.76973 0.23631 0.1789 0.0
C899 C 0.73647 0.21459 0.16823 0.0
C900 C 0.70889 0.18136 0.17256 0.0
C901 C 0.80096 0.27083 0.17388 0.0
C902 C 0.81466 0.29778 0.18621 0.0
C903 C 0.81885 0.2771 0.15755 0.0
C904 C 0.80737 0.24968 0.1443 0.0
C905 C 0.79519 0.24981 0.12732 0.0
C906 C 0.78418 0.22389 0.11482 0.0
C907 C 0.78547 0.19779 0.11914 0.0
C908 C 0.79792 0.19764 0.13594 0.0
C909 C 0.809 0.22353 0.14847 0.0
H910 H 0.77691 0.17773 0.10945 0.0
H911 H 0.89705 0.4239 0.23589 0.0
H912 H 0.062 0.59681 0.10808 0.0
H913 H 0.0668 0.59491 0.0761 0.0
H914 H 0.06208 0.50662 0.07813 0.0
H915 H 0.05685 0.50818 0.11008 0.0
H916 H 0.11892 0.55464 0.05627 0.0
H917 H 0.98485 0.4968 0.06545 0.0
H918 H 0.92867 0.4902 0.07754 0.0
H919 H 0.95698 0.57578 0.05107 0.0
H920 H 1.01369 0.58319 0.03902 0.0
H921 H 0.08621 0.50865 0.96465 0.0
H922 H 0.08213 0.50869 0.99666 0.0
H923 H 0.06709 0.58621 0.99624 0.0
H924 H 0.07026 0.58565 0.9643 0.0
H925 H 1.01971 0.54213 0.01763 0.0
H926 H 0.1539 0.60162 0.00887 0.0
H927 H 0.21146 0.61031 0.9971 0.0
H928 H 0.18523 0.52484 0.02294 0.0
H929 H 0.1272 0.51537 0.03468 0.0
C930 C 0.06205 0.57705 0.10169 0.0
C931 C 0.05888 0.55256 0.11152 0.0
C932 C 0.06472 0.57595 0.08345 0.0
C933 C 0.06452 0.55048 0.07474 0.0
C934 C 0.06226 0.52646 0.08459 0.0
C935 C 0.05916 0.52733 0.10281 0.0
C936 C 0.06606 0.54861 0.05533 0.0
C937 C 0.09702 0.55147 0.04778 0.0
C938 C 1.0379 0.54523 0.0443 0.0
C939 C 1.00373 0.54074 0.05147 0.0
C940 C 0.97928 0.51438 0.06232 0.0
C941 C 0.9473 0.51046 0.06915 0.0
C942 C 0.93931 0.53261 0.06512 0.0
C943 C 0.96324 0.55867 0.05421 0.0
C944 C 0.99528 0.56273 0.04736 0.0
C945 C 0.08215 0.52574 0.97142 0.0
C946 C 0.07846 0.54708 0.96196 0.0
C947 C 0.07994 0.52584 0.98972 0.0
C948 C 0.07477 0.54777 0.99895 0.0
C949 C 0.07097 0.56899 0.98947 0.0
C950 C 0.07272 0.56861 0.97119 0.0
C951 C 0.07286 0.54848 0.01844 0.0
C952 C 0.04172 0.54531 0.02605 0.0
C953 C 0.10109 0.55191 0.02951 0.0
C954 C 0.13599 0.55758 0.0225 0.0
C955 C 0.16025 0.58453 0.01193 0.0
C956 C 0.19298 0.58962 0.00529 0.0
C957 C 0.20194 0.56809 0.00923 0.0
C958 C 0.17822 0.54147 0.01987 0.0
C959 C 0.14542 0.53624 0.02653 0.0
H960 H 0.2273 0.57207 0.00408 0.0
H961 H 0.91454 0.52953 0.07041 0.0
H962 H 0.64127 0.04794 0.43316 0.0
H963 H 0.63843 0.04983 0.40135 0.0
H964 H 0.52049 0.01219 0.40344 0.0
H965 H 0.52331 0.0105 0.43546 0.0
H966 H 0.59459 0.99936 0.37709 0.0
H967 H 0.50415 0.04693 0.36968 0.0
H968 H 0.48952 0.08072 0.38687 0.0
H969 H 0.59839 0.13431 0.41433 0.0
H970 H 0.61393 0.10127 0.3971 0.0
H971 H 0.53733 0.9772 0.28836 0.0
H972 H 0.53271 0.97819 0.32025 0.0
H973 H 0.6194 0.08529 0.32358 0.0
H974 H 0.62462 0.0845 0.29166 0.0
H975 H 0.56061 0.06435 0.34717 0.0
H976 H 0.64597 0.03801 0.32991 0.0
H977 H 0.66396 0.00631 0.31321 0.0
H978 H 0.57318 0.91575 0.33596 0.0
H979 H 0.55429 0.94685 0.35261 0.0
C980 C 0.61475 0.04014 0.42686 0.0
C981 C 0.58246 0.02896 0.43673 0.0
C982 C 0.61314 0.04116 0.40868 0.0
C983 C 0.57931 0.03123 0.40003 0.0
C984 C 0.54699 0.02024 0.40988 0.0
C985 C 0.54858 0.01917 0.42813 0.0
C986 C 0.57798 0.03185 0.38067 0.0
C987 C 0.587 0.01347 0.37057 0.0
C988 C 0.56848 0.05055 0.37217 0.0
C989 C 0.55999 0.07135 0.38221 0.0
C990 C 0.52505 0.06606 0.37931 0.0
C991 C 0.51659 0.08507 0.38907 0.0
C992 C 0.54295 0.10956 0.40173 0.0
C993 C 0.57794 0.11525 0.40457 0.0
C994 C 0.58657 0.09638 0.39481 0.0
C995 C 0.55537 1.001 0.29586 0.0
C996 C 0.58176 0.03071 0.28748 0.0
C997 C 0.55249 0.00154 0.31406 0.0
C998 C 0.576 0.03176 0.32427 0.0
C999 C 0.60093 0.06172 0.31592 0.0
C1000 C 0.60387 0.06121 0.29768 0.0
C1001 C 0.57693 0.03165 0.34367 0.0
C1002 C 0.56788 0.05007 0.35374 0.0
C1003 C 0.58694 0.01337 0.35223 0.0
C1004 C 0.59849 0.99469 0.34237 0.0
C1005 C 0.62968 0.01129 0.33125 0.0
C1006 C 0.64006 0.99344 0.32181 0.0
C1007 C 0.61966 0.95902 0.32348 0.0
C1008 C 0.58891 0.9424 0.33465 0.0
C1009 C 0.57837 0.96013 0.3441 0.0
H1010 H 0.62774 0.94524 0.31616 0.0
H1011 H 0.5363 0.12418 0.4093 0.0
H1012 H 0.62084 0.5455 0.804 0.0
H1013 H 0.62931 0.55852 0.77312 0.0
H1014 H 0.50715 0.50233 0.76545 0.0
H1015 H 0.49861 0.48799 0.79614 0.0
H1016 H 0.53114 0.48624 0.74001 0.0
H1017 H 0.5717 0.59179 0.76577 0.0
H1018 H 0.60755 0.64207 0.7861 0.0
H1019 H 0.71345 0.66858 0.76607 0.0
H1020 H 0.67821 0.61844 0.74557 0.0
H1021 H 0.54755 0.54713 0.65478 0.0
H1022 H 0.53685 0.54049 0.68622 0.0
H1023 H 0.64924 0.56678 0.69471 0.0
H1024 H 0.65963 0.57181 0.66329 0.0
H1025 H 0.6277 0.59978 0.71931 0.0
H1026 H 0.58182 0.48998 0.69388 0.0
H1027 H 0.54219 0.44077 0.67307 0.0
H1028 H 0.44053 0.42388 0.69282 0.0
H1029 H 0.47964 0.47332 0.71358 0.0
C1030 C 0.59588 0.53615 0.79572 0.0
C1031 C 0.55908 0.51565 0.80237 0.0
C1032 C 0.60072 0.54379 0.77809 0.0
C1033 C 0.5689 0.5318 0.76692 0.0
C1034 C 0.53216 0.51185 0.77374 0.0
C1035 C 0.52729 0.50371 0.79128 0.0
C1036 C 0.57374 0.53846 0.74795 0.0
C1037 C 0.5518 0.51122 0.73556 0.0
C1038 C 0.60094 0.57094 0.74199 0.0
C1039 C 0.62231 0.6012 0.75424 0.0
C1040 C 0.60264 0.60823 0.76578 0.0
C1041 C 0.62285 0.63672 0.77732 0.0
C1042 C 0.66275 0.65839 0.77747 0.0
C1043 C 0.68253 0.65173 0.76597 0.0
C1044 C 0.66246 0.62335 0.75434 0.0
C1045 C 0.56992 0.55119 0.66325 0.0
C1046 C 0.60446 0.55993 0.65636 0.0
C1047 C 0.56385 0.54769 0.68125 0.0
C1048 C 0.59231 0.55322 0.69273 0.0
C1049 C 0.62708 0.56271 0.68605 0.0
C1050 C 0.63299 0.56573 0.66804 0.0
C1051 C 0.58525 0.5476 0.71164 0.0
C1052 C 0.60684 0.57497 0.72392 0.0
C1053 C 0.55715 0.5154 0.71751 0.0
C1054 C 0.53367 0.48555 0.70513 0.0
C1055 C 0.55104 0.47594 0.69367 0.0
C1056 C 0.52867 0.44798 0.68191 0.0
C1057 C 0.48887 0.42927 0.68158 0.0
C1058 C 0.47136 0.43843 0.69306 0.0
C1059 C 0.49361 0.4664 0.70483 0.0
H1060 H 0.4716 0.40763 0.67247 0.0
H1061 H 0.67832 0.68039 0.78645 0.0
H1062 H 0.61018 0.06276 0.53283 0.0
H1063 H 0.61765 0.05997 0.56426 0.0
H1064 H 0.49766 0.0128 0.57041 0.0
H1065 H 0.49016 0.0159 0.53891 0.0
H1066 H 0.54045 0.06144 0.59561 0.0
H1067 H 0.53081 0.96652 0.5719 0.0
H1068 H 0.54626 0.93634 0.55194 0.0
H1069 H 0.66247 0.99931 0.57193 0.0
H1070 H 0.64773 0.02999 0.59198 0.0
H1071 H 0.54184 0.02076 0.68338 0.0
H1072 H 0.52698 0.01452 0.65187 0.0
H1073 H 0.64591 0.06446 0.64116 0.0
H1074 H 0.66081 0.07001 0.67257 0.0
H1075 H 0.59917 0.01027 0.61831 0.0
H1076 H 0.60851 0.1067 0.64098 0.0
H1077 H 0.59239 0.13676 0.66064 0.0
H1078 H 0.47525 0.07002 0.64209 0.0
H1079 H 0.4906 0.03926 0.62249 0.0
C1080 C 0.58538 0.0517 0.54088 0.0
C1081 C 0.54957 0.03944 0.53348 0.0
C1082 C 0.58963 0.04997 0.55882 0.0
C1083 C 0.55809 0.03576 0.56965 0.0
C1084 C 0.52234 0.02377 0.56228 0.0
C1085 C 0.51808 0.02552 0.54432 0.0
C1086 C 0.56279 0.03421 0.58873 0.0
C1087 C 0.55264 0.04971 0.60059 0.0
C1088 C 0.57932 0.01942 0.5952 0.0
C1089 C 0.58822 1.00072 0.58336 0.0
C1090 C 0.55972 0.97405 0.57198 0.0
C1091 C 0.56834 0.95684 0.56065 0.0
C1092 C 0.60537 0.966 0.5606 0.0
C1093 C 0.6338 0.99227 0.57196 0.0
C1094 C 0.6253 0.00952 0.58335 0.0
C1095 C 0.56474 0.03005 0.6743 0.0
C1096 C 0.60255 0.0461 0.68048 0.0
C1097 C 0.55626 0.02667 0.65631 0.0
C1098 C 0.58542 0.03935 0.64418 0.0
C1099 C 0.62299 0.05457 0.65029 0.0
C1100 C 0.63151 0.05802 0.66825 0.0
C1101 C 0.5771 0.03774 0.62516 0.0
C1102 C 0.58663 0.02169 0.61332 0.0
C1103 C 0.55984 0.0519 0.6187 0.0
C1104 C 0.55062 0.07046 0.63042 0.0
C1105 C 0.57926 0.09827 0.6412 0.0
C1106 C 0.57027 0.11546 0.65231 0.0
C1107 C 0.5328 0.10525 0.65265 0.0
C1108 C 0.50425 0.07787 0.64184 0.0
C1109 C 0.51308 0.06056 0.63072 0.0
H1110 H 0.5259 0.11859 0.66126 0.0
H1111 H 0.61202 0.95268 0.5518 0.0
H1112 H 0.64689 0.5655 0.90806 0.0
H1113 H 0.64073 0.53869 0.93534 0.0
H1114 H 0.52133 0.4615 0.92242 0.0
H1115 H 0.52682 0.48876 0.89564 0.0
H1116 H 0.57875 0.51801 0.96329 0.0
H1117 H 0.51827 0.38889 0.92883 0.0
H1118 H 0.52551 0.36658 0.90092 0.0
H1119 H 0.63947 0.45714 0.89722 0.0
H1120 H 0.63322 0.47966 0.92529 0.0
H1121 H 0.45821 0.38528 0.01596 0.0
H1122 H 0.48592 0.41849 0.99035 0.0
H1123 H 0.58384 0.41872 0.99589 0.0
H1124 H 0.55684 0.38621 0.02201 0.0
H1125 H 0.55371 0.40707 0.96011 0.0
H1126 H 0.59789 0.48558 0.00958 0.0
H1127 H 0.59134 0.50886 0.03728 0.0
H1128 H 0.51561 0.52281 0.01124 0.0
H1129 H 0.52122 0.4991 0.98343 0.0
C1130 C 0.61929 0.543 0.91116 0.0
C1131 C 0.58738 0.52896 0.89971 0.0
C1132 C 0.61587 0.52775 0.92667 0.0
C1133 C 0.58072 0.498 0.93066 0.0
C1134 C 0.54877 0.48429 0.91939 0.0
C1135 C 0.55196 0.49985 0.90413 0.0
C1136 C 0.57664 0.48097 0.94667 0.0
C1137 C 0.57376 0.49398 0.9627 0.0
C1138 C 0.57076 0.44992 0.94577 0.0
C1139 C 0.5751 0.43608 0.92911 0.0
C1140 C 0.54495 0.40396 0.92213 0.0
C1141 C 0.54887 0.39129 0.90625 0.0
C1142 C 0.58285 0.41048 0.89726 0.0
C1143 C 0.61308 0.44234 0.90415 0.0
C1144 C 0.60935 0.45507 0.92004 0.0
C1145 C 0.48574 0.39248 0.01184 0.0
C1146 C 0.50555 0.38348 0.02123 0.0
C1147 C 0.5014 0.41129 0.99713 0.0
C1148 C 0.53708 0.42134 0.9914 0.0
C1149 C 0.55626 0.41118 0.00017 0.0
C1150 C 0.54071 0.39252 0.01503 0.0
C1151 C 0.55462 0.44365 0.97667 0.0
C1152 C 0.55965 0.43148 0.96084 0.0
C1153 C 0.56298 0.47575 0.97778 0.0
C1154 C 0.55981 0.49036 0.99444 0.0
C1155 C 0.57963 0.49339 0.00978 0.0
C1156 C 0.57611 0.5067 0.0255 0.0
C1157 C 0.55303 0.51727 0.02602 0.0
C1158 C 0.53348 0.51461 0.01081 0.0
C1159 C 0.53686 0.50128 0.99506 0.0
H1160 H 0.55033 0.52755 0.03821 0.0
H1161 H 0.58582 0.40063 0.88498 0.0
H1162 H 0.08819 0.56989 0.20942 0.0
H1163 H 0.08074 0.56749 0.24126 0.0
H1164 H 0.05631 0.47003 0.23867 0.0
H1165 H 0.0623 0.47183 0.20687 0.0
H1166 H 1.00972 0.4705 0.26025 0.0
H1167 H 0.14588 0.54346 0.25147 0.0
H1168 H 0.20569 0.59268 0.24034 0.0
H1169 H 0.18859 0.65814 0.26922 0.0
H1170 H 0.12838 0.60928 0.28032 0.0
H1171 H 0.0553 0.45615 0.34654 0.0
H1172 H 0.05158 0.46089 0.31504 0.0
H1173 H 0.07086 0.55554 0.32516 0.0
H1174 H 0.07561 0.55136 0.3567 0.0
H1175 H 0.11636 0.55955 0.30012 0.0
H1176 H 0.98322 0.48598 0.31132 0.0
H1177 H 0.92397 0.43648 0.32257 0.0
H1178 H 0.93559 0.37169 0.28929 0.0
H1179 H 0.99525 0.4208 0.27803 0.0
C1180 C 0.0808 0.54783 0.21565 0.0
C1181 C 0.07577 0.52103 0.20571 0.0
C1182 C 0.07685 0.54659 0.23385 0.0
C1183 C 0.06839 0.51873 0.2424 0.0
C1184 C 0.06282 0.49177 0.23239 0.0
C1185 C 0.06648 0.49292 0.21423 0.0
C1186 C 0.06606 0.51766 0.26181 0.0
C1187 C 1.03317 0.48984 0.26897 0.0
C1188 C 0.0962 0.54335 0.27322 0.0
C1189 C 0.13243 0.57271 0.26657 0.0
C1190 C 0.15473 0.56835 0.25533 0.0
C1191 C 0.18871 0.59618 0.24905 0.0
C1192 C 0.20087 0.62851 0.25404 0.0
C1193 C 0.1791 0.63308 0.26534 0.0
C1194 C 0.14505 0.60533 0.27164 0.0
C1195 C 0.05867 0.47794 0.34207 0.0
C1196 C 0.0658 0.5034 0.35414 0.0
C1197 C 0.05619 0.48048 0.32406 0.0
C1198 C 0.06061 0.50844 0.31774 0.0
C1199 C 0.06721 0.53368 0.32975 0.0
C1200 C 0.06961 0.53113 0.34778 0.0
C1201 C 0.06033 0.51206 0.29855 0.0
C1202 C 0.09273 0.54036 0.29143 0.0
C1203 C 1.02981 0.48674 0.28718 0.0
C1204 C 0.99392 0.45711 0.29394 0.0
C1205 C 0.97333 0.46118 0.30651 0.0
C1206 C 0.93963 0.43318 0.31287 0.0
C1207 C 0.92607 0.40096 0.30668 0.0
C1208 C 0.94615 0.39667 0.29409 0.0
C1209 C 0.97989 0.42458 0.2877 0.0
H1210 H 0.89997 0.37931 0.31162 0.0
H1211 H 0.22723 0.65003 0.2492 0.0
loop_
_geom_bond_atom_site_label_1
_geom_bond_atom_site_label_2
_geom_bond_distance
_geom_bond_site_symmetry_2
_ccdc_geom_bond_type
Gd0 C3 2.818 . S
Gd0 O20 2.377 . S
Gd0 O22 2.448 . S
Gd0 O23 2.506 . S
Gd0 O24 2.435 . S
Gd0 O25 2.717 . S
Gd0 O27 2.395 1_455 S
Gd0 O31 2.327 . S
Gd1 C12 2.818 1_455 S
Gd1 O21 2.395 . S
Gd1 O25 2.327 . S
Gd1 O26 2.377 1_455 S
Gd1 O28 2.448 1_455 S
Gd1 O29 2.506 1_455 S
Gd1 O30 2.435 . S
Gd1 O31 2.717 . S
C2 O20 1.240 . S
C2 O21 1.240 . S
C3 Gd0 2.818 . S
C3 C4 1.510 . S
C3 O22 1.249 . S
C3 O23 1.252 . S
C4 C3 1.510 . S
C4 C5 1.404 . S
C4 C6 1.352 . S
C5 C4 1.404 . S
C5 C9 1.389 . S
C5 H32 0.930 . S
C6 C4 1.352 . S
C6 C8 1.374 . S
C6 H33 0.931 . S
C7 C8 1.359 . S
C7 C9 1.364 . S
C8 C6 1.374 . S
C8 C7 1.359 . S
C8 H34 0.931 . S
C9 C5 1.389 . S
C9 C7 1.364 . S
C9 H35 0.931 . S
C10 O24 1.256 . S
C10 O25 1.257 . S
C11 O26 1.240 . S
C11 O27 1.240 . S
C12 Gd1 2.818 1_655 S
C12 C13 1.510 . S
C12 O28 1.249 . S
C12 O29 1.252 . S
C13 C12 1.510 . S
C13 C14 1.404 . S
C13 C15 1.352 . S
C14 C13 1.404 . S
C14 C18 1.389 . S
C14 H36 0.930 . S
C15 C13 1.352 . S
C15 C17 1.374 . S
C15 H37 0.931 . S
C16 C17 1.359 . S
C16 C18 1.364 . S
C17 C15 1.374 . S
C17 C16 1.359 . S
C17 H38 0.931 . S
C18 C14 1.389 . S
C18 C16 1.364 . S
C18 H39 0.931 . S
C19 O30 1.256 . S
C19 O31 1.257 . S
O20 Gd0 2.377 . S
O20 C2 1.240 . S
O21 Gd1 2.395 . S
O21 C2 1.240 . S
O22 Gd0 2.448 . S
O22 C3 1.249 . S
O23 Gd0 2.506 . S
O23 C3 1.252 . S
O24 Gd0 2.435 . S
O24 C10 1.256 . S
O25 Gd0 2.717 . S
O25 Gd1 2.327 . S
O25 C10 1.257 . S
O26 Gd1 2.377 1_655 S
O26 C11 1.240 . S
O27 Gd0 2.395 1_655 S
O27 C11 1.240 . S
O28 Gd1 2.448 1_655 S
O28 C12 1.249 . S
O29 Gd1 2.506 1_655 S
O29 C12 1.252 . S
O30 Gd1 2.435 . S
O30 C19 1.256 . S
O31 Gd0 2.327 . S
O31 Gd1 2.717 . S
O31 C19 1.257 . S
H32 C5 0.930 . S
H33 C6 0.931 . S
H34 C8 0.931 . S
H35 C9 0.931 . S
H36 C14 0.930 . S
H37 C15 0.931 . S
H38 C17 0.931 . S
H39 C18 0.931 . S
Gd40 C43 2.818 . S
Gd40 O60 2.377 . S
Gd40 O62 2.448 . S
Gd40 O63 2.506 . S
Gd40 O64 2.435 . S
Gd40 O65 2.717 1_565 S
Gd40 O67 2.395 1_565 S
Gd40 O71 2.327 1_565 S
Gd41 C52 2.818 . S
Gd41 O61 2.395 1_545 S
Gd41 O65 2.327 . S
Gd41 O66 2.377 . S
Gd41 O68 2.448 . S
Gd41 O69 2.506 . S
Gd41 O70 2.435 . S
Gd41 O71 2.717 . S
C42 O60 1.240 . S
C42 O61 1.240 . S
C43 Gd40 2.818 . S
C43 C44 1.510 . S
C43 O62 1.249 . S
C43 O63 1.252 . S
C44 C43 1.510 . S
C44 C45 1.404 . S
C44 C46 1.352 . S
C45 C44 1.404 . S
C45 C49 1.389 . S
C45 H72 0.930 . S
C46 C44 1.352 . S
C46 C48 1.374 . S
C46 H73 0.931 . S
C47 C48 1.359 . S
C47 C49 1.364 . S
C48 C46 1.374 . S
C48 C47 1.359 . S
C48 H74 0.931 . S
C49 C45 1.389 . S
C49 C47 1.364 . S
C49 H75 0.931 . S
C50 O64 1.256 1_545 S
C50 O65 1.257 . S
C51 O66 1.240 . S
C51 O67 1.240 . S
C52 Gd41 2.818 . S
C52 C53 1.510 . S
C52 O68 1.249 . S
C52 O69 1.252 . S
C53 C52 1.510 . S
C53 C54 1.404 . S
C53 C55 1.352 . S
C54 C53 1.404 . S
C54 C58 1.389 . S
C54 H76 0.930 . S
C55 C53 1.352 . S
C55 C57 1.374 . S
C55 H77 0.931 . S
C56 C57 1.359 . S
C56 C58 1.364 . S
C57 C55 1.374 . S
C57 C56 1.359 . S
C57 H78 0.931 . S
C58 C54 1.389 . S
C58 C56 1.364 . S
C58 H79 0.931 . S
C59 O70 1.256 . S
C59 O71 1.257 . S
O60 Gd40 2.377 . S
O60 C42 1.240 . S
O61 Gd41 2.395 1_565 S
O61 C42 1.240 . S
O62 Gd40 2.448 . S
O62 C43 1.249 . S
O63 Gd40 2.506 . S
O63 C43 1.252 . S
O64 Gd40 2.435 . S
O64 C50 1.256 1_565 S
O65 Gd40 2.717 1_545 S
O65 Gd41 2.327 . S
O65 C50 1.257 . S
O66 Gd41 2.377 . S
O66 C51 1.240 . S
O67 Gd40 2.395 1_545 S
O67 C51 1.240 . S
O68 Gd41 2.448 . S
O68 C52 1.249 . S
O69 Gd41 2.506 . S
O69 C52 1.252 . S
O70 Gd41 2.435 . S
O70 C59 1.256 . S
O71 Gd40 2.327 1_545 S
O71 Gd41 2.717 . S
O71 C59 1.257 . S
H72 C45 0.930 . S
H73 C46 0.931 . S
H74 C48 0.931 . S
H75 C49 0.931 . S
H76 C54 0.930 . S
H77 C55 0.931 . S
H78 C57 0.931 . S
H79 C58 0.931 . S
Gd80 C83 2.818 . S
Gd80 O100 2.377 . S
Gd80 O102 2.448 . S
Gd80 O103 2.506 . S
Gd80 O104 2.435 . S
Gd80 O105 2.717 . S
Gd80 O107 2.395 . S
Gd80 O111 2.327 . S
Gd81 C92 2.818 . S
Gd81 O101 2.395 . S
Gd81 O105 2.327 . S
Gd81 O106 2.377 . S
Gd81 O108 2.448 . S
Gd81 O109 2.506 . S
Gd81 O110 2.435 . S
Gd81 O111 2.717 . S
C82 O100 1.240 . S
C82 O101 1.240 . S
C83 Gd80 2.818 . S
C83 C84 1.510 . S
C83 O102 1.249 . S
C83 O103 1.252 . S
C84 C83 1.510 . S
C84 C85 1.404 . S
C84 C86 1.352 . S
C85 C84 1.404 . S
C85 C89 1.389 . S
C85 H112 0.930 . S
C86 C84 1.352 . S
C86 C88 1.374 . S
C86 H113 0.931 . S
C87 C88 1.359 . S
C87 C89 1.364 . S
C88 C86 1.374 . S
C88 C87 1.359 . S
C88 H114 0.931 . S
C89 C85 1.389 . S
C89 C87 1.364 . S
C89 H115 0.931 . S
C90 O104 1.256 . S
C90 O105 1.257 . S
C91 O106 1.240 . S
C91 O107 1.240 . S
C92 Gd81 2.818 . S
C92 C93 1.510 . S
C92 O108 1.249 . S
C92 O109 1.252 . S
C93 C92 1.510 . S
C93 C94 1.404 . S
C93 C95 1.352 . S
C94 C93 1.404 . S
C94 C98 1.389 . S
C94 H116 0.930 . S
C95 C93 1.352 . S
C95 C97 1.374 . S
C95 H117 0.931 . S
C96 C97 1.359 . S
C96 C98 1.364 . S
C97 C95 1.374 . S
C97 C96 1.359 . S
C97 H118 0.931 . S
C98 C94 1.389 . S
C98 C96 1.364 . S
C98 H119 0.931 . S
C99 O110 1.256 . S
C99 O111 1.257 . S
O100 Gd80 2.377 . S
O100 C82 1.240 . S
O101 Gd81 2.395 . S
O101 C82 1.240 . S
O102 Gd80 2.448 . S
O102 C83 1.249 . S
O103 Gd80 2.506 . S
O103 C83 1.252 . S
O104 Gd80 2.435 . S
O104 C90 1.256 . S
O105 Gd80 2.717 . S
O105 Gd81 2.327 . S
O105 C90 1.257 . S
O106 Gd81 2.377 . S
O106 C91 1.240 . S
O107 Gd80 2.395 . S
O107 C91 1.240 . S
O108 Gd81 2.448 . S
O108 C92 1.249 . S
O109 Gd81 2.506 . S
O109 C92 1.252 . S
O110 Gd81 2.435 . S
O110 C99 1.256 . S
O111 Gd80 2.327 . S
O111 Gd81 2.717 . S
O111 C99 1.257 . S
H112 C85 0.930 . S
H113 C86 0.931 . S
H114 C88 0.931 . S
H115 C89 0.931 . S
H116 C94 0.930 . S
H117 C95 0.931 . S
H118 C97 0.931 . S
H119 C98 0.931 . S
P120 O131 1.490 1_545 S
P120 C134 1.812 1_545 S
P120 C140 1.803 . S
P120 C146 1.819 . S
H121 C135 0.941 . S
H122 C136 0.939 . S
H123 C138 0.940 . S
H124 C139 0.940 . S
H125 C141 0.939 . S
H126 C142 0.942 . S
H127 C144 0.940 . S
H128 C145 0.939 . S
H129 C147 0.941 . S
H130 C151 0.939 . S
O131 P120 1.490 1_565 S
H132 C148 0.939 . S
H133 C150 0.940 . S
C134 P120 1.812 1_565 S
C134 C135 1.389 . S
C134 C139 1.391 . S
C135 H121 0.941 . S
C135 C134 1.389 . S
C135 C136 1.397 . S
C136 H122 0.939 . S
C136 C135 1.397 . S
C136 C137 1.378 . S
C137 C136 1.378 . S
C137 C138 1.378 . S
C138 H123 0.940 . S
C138 C137 1.378 . S
C138 C139 1.396 . S
C139 H124 0.940 . S
C139 C134 1.391 . S
C139 C138 1.396 . S
C140 P120 1.803 . S
C140 C141 1.378 . S
C140 C145 1.400 . S
C141 H125 0.939 . S
C141 C140 1.378 . S
C141 C142 1.361 . S
C142 H126 0.942 . S
C142 C141 1.361 . S
C142 C143 1.369 . S
C143 C142 1.369 . S
C143 C144 1.404 . S
C144 H127 0.940 . S
C144 C143 1.404 . S
C144 C145 1.389 . S
C145 H128 0.939 . S
C145 C140 1.400 . S
C145 C144 1.389 . S
C146 P120 1.819 . S
C146 C147 1.391 1_545 S
C146 C151 1.391 . S
C147 H129 0.941 . S
C147 C146 1.391 1_565 S
C147 C148 1.396 . S
C148 H132 0.939 . S
C148 C147 1.396 . S
C148 C149 1.397 1_565 S
C149 C148 1.397 1_545 S
C149 C150 1.385 . S
C150 H133 0.940 . S
C150 C149 1.385 . S
C150 C151 1.388 . S
C151 H130 0.939 . S
C151 C146 1.391 . S
C151 C150 1.388 . S
P152 O163 1.490 . S
P152 C166 1.812 . S
P152 C172 1.803 . S
P152 C178 1.819 . S
H153 C167 0.941 . S
H154 C168 0.939 . S
H155 C170 0.940 . S
H156 C171 0.940 . S
H157 C173 0.939 . S
H158 C174 0.942 . S
H159 C176 0.940 . S
H160 C177 0.939 . S
H161 C179 0.941 . S
H162 C183 0.939 . S
O163 P152 1.490 . S
H164 C180 0.939 . S
H165 C182 0.940 . S
C166 P152 1.812 . S
C166 C167 1.389 . S
C166 C171 1.391 . S
C167 H153 0.941 . S
C167 C166 1.389 . S
C167 C168 1.397 . S
C168 H154 0.939 . S
C168 C167 1.397 . S
C168 C169 1.378 . S
C169 C168 1.378 . S
C169 C170 1.378 . S
C170 H155 0.940 . S
C170 C169 1.378 . S
C170 C171 1.396 . S
C171 H156 0.940 . S
C171 C166 1.391 . S
C171 C170 1.396 . S
C172 P152 1.803 . S
C172 C173 1.378 . S
C172 C177 1.400 . S
C173 H157 0.939 . S
C173 C172 1.378 . S
C173 C174 1.361 . S
C174 H158 0.942 . S
C174 C173 1.361 . S
C174 C175 1.369 . S
C175 C174 1.369 . S
C175 C176 1.404 . S
C176 H159 0.940 . S
C176 C175 1.404 . S
C176 C177 1.389 . S
C177 H160 0.939 . S
C177 C172 1.400 . S
C177 C176 1.389 . S
C178 P152 1.819 . S
C178 C179 1.391 . S
C178 C183 1.391 . S
C179 H161 0.941 . S
C179 C178 1.391 . S
C179 C180 1.396 . S
C180 H164 0.939 . S
C180 C179 1.396 . S
C180 C181 1.397 . S
C181 C180 1.397 . S
C181 C182 1.385 . S
C182 H165 0.940 . S
C182 C181 1.385 . S
C182 C183 1.388 . S
C183 H162 0.939 . S
C183 C178 1.391 . S
C183 C182 1.388 . S
P184 O195 1.490 . S
P184 C198 1.812 . S
P184 C204 1.803 . S
P184 C210 1.819 . S
H185 C199 0.941 . S
H186 C200 0.939 . S
H187 C202 0.940 . S
H188 C203 0.940 . S
H189 C205 0.939 . S
H190 C206 0.942 1_655 S
H191 C208 0.940 . S
H192 C209 0.939 . S
H193 C211 0.941 . S
H194 C215 0.939 . S
O195 P184 1.490 . S
H196 C212 0.939 . S
H197 C214 0.940 . S
C198 P184 1.812 . S
C198 C199 1.389 . S
C198 C203 1.391 . S
C199 H185 0.941 . S
C199 C198 1.389 . S
C199 C200 1.397 . S
C200 H186 0.939 . S
C200 C199 1.397 . S
C200 C201 1.378 . S
C201 C200 1.378 . S
C201 C202 1.378 . S
C202 H187 0.940 . S
C202 C201 1.378 . S
C202 C203 1.396 . S
C203 H188 0.940 . S
C203 C198 1.391 . S
C203 C202 1.396 . S
C204 P184 1.803 . S
C204 C205 1.378 . S
C204 C209 1.400 . S
C205 H189 0.939 . S
C205 C204 1.378 . S
C205 C206 1.361 . S
C206 H190 0.942 1_455 S
C206 C205 1.361 . S
C206 C207 1.369 1_455 S
C207 C206 1.369 1_655 S
C207 C208 1.404 . S
C208 H191 0.940 . S
C208 C207 1.404 . S
C208 C209 1.389 1_655 S
C209 H192 0.939 . S
C209 C204 1.400 . S
C209 C208 1.389 1_455 S
C210 P184 1.819 . S
C210 C211 1.391 . S
C210 C215 1.391 . S
C211 H193 0.941 . S
C211 C210 1.391 . S
C211 C212 1.396 . S
C212 H196 0.939 . S
C212 C211 1.396 . S
C212 C213 1.397 . S
C213 C212 1.397 . S
C213 C214 1.385 . S
C214 H197 0.940 . S
C214 C213 1.385 . S
C214 C215 1.388 . S
C215 H194 0.939 . S
C215 C210 1.391 . S
C215 C214 1.388 . S
P216 O227 1.490 . S
P216 C230 1.812 . S
P216 C236 1.803 1_455 S
P216 C242 1.819 . S
H217 C231 0.941 . S
H218 C232 0.939 . S
H219 C234 0.940 . S
H220 C235 0.940 . S
H221 C237 0.939 . S
H222 C238 0.942 . S
H223 C240 0.940 . S
H224 C241 0.939 . S
H225 C243 0.941 . S
H226 C247 0.939 . S
O227 P216 1.490 . S
H228 C244 0.939 . S
H229 C246 0.940 . S
C230 P216 1.812 . S
C230 C231 1.389 . S
C230 C235 1.391 . S
C231 H217 0.941 . S
C231 C230 1.389 . S
C231 C232 1.397 . S
C232 H218 0.939 . S
C232 C231 1.397 . S
C232 C233 1.378 . S
C233 C232 1.378 . S
C233 C234 1.378 . S
C234 H219 0.940 . S
C234 C233 1.378 . S
C234 C235 1.396 . S
C235 H220 0.940 . S
C235 C230 1.391 . S
C235 C234 1.396 . S
C236 P216 1.803 1_655 S
C236 C237 1.378 . S
C236 C241 1.400 . S
C237 H221 0.939 . S
C237 C236 1.378 . S
C237 C238 1.361 . S
C238 H222 0.942 . S
C238 C237 1.361 . S
C238 C239 1.369 . S
C239 C238 1.369 . S
C239 C240 1.404 . S
C240 H223 0.940 . S
C240 C239 1.404 . S
C240 C241 1.389 . S
C241 H224 0.939 . S
C241 C236 1.400 . S
C241 C240 1.389 . S
C242 P216 1.819 . S
C242 C243 1.391 . S
C242 C247 1.391 1_455 S
C243 H225 0.941 . S
C243 C242 1.391 . S
C243 C244 1.396 . S
C244 H228 0.939 . S
C244 C243 1.396 . S
C244 C245 1.397 . S
C245 C244 1.397 . S
C245 C246 1.385 1_455 S
C246 H229 0.940 . S
C246 C245 1.385 1_655 S
C246 C247 1.388 . S
C247 H226 0.939 . S
C247 C242 1.391 1_655 S
C247 C246 1.388 . S
P248 O259 1.490 . S
P248 C262 1.812 . S
P248 C268 1.803 1_545 S
P248 C274 1.819 . S
H249 C263 0.941 . S
H250 C264 0.939 . S
H251 C266 0.940 . S
H252 C267 0.940 . S
H253 C269 0.939 . S
H254 C270 0.942 . S
H255 C272 0.940 . S
H256 C273 0.939 . S
H257 C275 0.941 . S
H258 C279 0.939 . S
O259 P248 1.490 . S
H260 C276 0.939 . S
H261 C278 0.940 . S
C262 P248 1.812 . S
C262 C263 1.389 . S
C262 C267 1.391 . S
C263 H249 0.941 . S
C263 C262 1.389 . S
C263 C264 1.397 . S
C264 H250 0.939 . S
C264 C263 1.397 . S
C264 C265 1.378 . S
C265 C264 1.378 . S
C265 C266 1.378 . S
C266 H251 0.940 . S
C266 C265 1.378 . S
C266 C267 1.396 . S
C267 H252 0.940 . S
C267 C262 1.391 . S
C267 C266 1.396 . S
C268 P248 1.803 1_565 S
C268 C269 1.378 . S
C268 C273 1.400 . S
C269 H253 0.939 . S
C269 C268 1.378 . S
C269 C270 1.361 . S
C270 H254 0.942 . S
C270 C269 1.361 . S
C270 C271 1.369 . S
C271 C270 1.369 . S
C271 C272 1.404 . S
C272 H255 0.940 . S
C272 C271 1.404 . S
C272 C273 1.389 . S
C273 H256 0.939 . S
C273 C268 1.400 . S
C273 C272 1.389 . S
C274 P248 1.819 . S
C274 C275 1.391 . S
C274 C279 1.391 1_545 S
C275 H257 0.941 . S
C275 C274 1.391 . S
C275 C276 1.396 . S
C276 H260 0.939 . S
C276 C275 1.396 . S
C276 C277 1.397 . S
C277 C276 1.397 . S
C277 C278 1.385 1_545 S
C278 H261 0.940 . S
C278 C277 1.385 1_565 S
C278 C279 1.388 . S
C279 H258 0.939 . S
C279 C274 1.391 1_565 S
C279 C278 1.388 . S
P280 O291 1.490 . S
P280 C294 1.812 . S
P280 C300 1.803 . S
P280 C306 1.819 . S
H281 C295 0.941 . S
H282 C296 0.939 . S
H283 C298 0.940 . S
H284 C299 0.940 . S
H285 C301 0.939 . S
H286 C302 0.942 . S
H287 C304 0.940 . S
H288 C305 0.939 . S
H289 C307 0.941 . S
H290 C311 0.939 . S
O291 P280 1.490 . S
H292 C308 0.939 . S
H293 C310 0.940 . S
C294 P280 1.812 . S
C294 C295 1.389 . S
C294 C299 1.391 . S
C295 H281 0.941 . S
C295 C294 1.389 . S
C295 C296 1.397 . S
C296 H282 0.939 . S
C296 C295 1.397 . S
C296 C297 1.378 . S
C297 C296 1.378 . S
C297 C298 1.378 . S
C298 H283 0.940 . S
C298 C297 1.378 . S
C298 C299 1.396 . S
C299 H284 0.940 . S
C299 C294 1.391 . S
C299 C298 1.396 . S
C300 P280 1.803 . S
C300 C301 1.378 . S
C300 C305 1.400 . S
C301 H285 0.939 . S
C301 C300 1.378 . S
C301 C302 1.361 . S
C302 H286 0.942 . S
C302 C301 1.361 . S
C302 C303 1.369 . S
C303 C302 1.369 . S
C303 C304 1.404 . S
C304 H287 0.940 . S
C304 C303 1.404 . S
C304 C305 1.389 . S
C305 H288 0.939 . S
C305 C300 1.400 . S
C305 C304 1.389 . S
C306 P280 1.819 . S
C306 C307 1.391 . S
C306 C311 1.391 . S
C307 H289 0.941 . S
C307 C306 1.391 . S
C307 C308 1.396 . S
C308 H292 0.939 . S
C308 C307 1.396 . S
C308 C309 1.397 . S
C309 C308 1.397 . S
C309 C310 1.385 . S
C310 H293 0.940 . S
C310 C309 1.385 . S
C310 C311 1.388 . S
C311 H290 0.939 . S
C311 C306 1.391 . S
C311 C310 1.388 . S
H312 C330 0.951 . S
H313 C332 0.951 . S
H314 C334 0.950 . S
H315 C335 0.950 . S
H316 C337 0.950 . S
H317 C340 0.950 . S
H318 C341 0.950 . S
H319 C343 0.950 . S
H320 C344 0.950 . S
H321 C345 0.951 . S
H322 C347 0.951 . S
H323 C349 0.950 . S
H324 C350 0.950 . S
H325 C352 0.950 . S
H326 C355 0.950 . S
H327 C356 0.950 . S
H328 C358 0.950 . S
H329 C359 0.950 . S
C330 H312 0.951 . S
C330 C331 1.366 . S
C330 C332 1.388 . S
C331 C330 1.366 . S
C331 C335 1.385 . S
C332 H313 0.951 . S
C332 C330 1.388 . S
C332 C333 1.366 . S
C333 C332 1.366 . S
C333 C334 1.414 . S
C333 C336 1.499 . S
C334 H314 0.950 . S
C334 C333 1.414 . S
C334 C335 1.374 . S
C335 H315 0.950 . S
C335 C331 1.385 . S
C335 C334 1.374 . S
C336 C333 1.499 . S
C336 C337 1.373 . S
C336 C338 1.389 . S
C337 H316 0.950 . S
C337 C336 1.373 . S
C337 C353 1.377 . S
C338 C336 1.389 . S
C338 C339 1.524 . S
C338 C352 1.377 . S
C339 C338 1.524 . S
C339 C340 1.397 . S
C339 C344 1.363 . S
C340 H317 0.950 . S
C340 C339 1.397 . S
C340 C341 1.334 . S
C341 H318 0.950 . S
C341 C340 1.334 . S
C341 C342 1.287 . S
C342 C341 1.287 . S
C342 C343 1.524 . S
C342 H361 0.913 . S
C343 H319 0.950 . S
C343 C342 1.524 . S
C343 C344 1.415 . S
C344 H320 0.950 . S
C344 C339 1.363 . S
C344 C343 1.415 . S
C345 H321 0.951 . S
C345 C346 1.366 . S
C345 C347 1.388 . S
C346 C345 1.366 . S
C346 C350 1.385 . S
C347 H322 0.951 . S
C347 C345 1.388 . S
C347 C348 1.366 . S
C348 C347 1.366 . S
C348 C349 1.414 . S
C348 C351 1.499 . S
C349 H323 0.950 . S
C349 C348 1.414 . S
C349 C350 1.374 . S
C350 H324 0.950 . S
C350 C346 1.385 . S
C350 C349 1.374 . S
C351 C348 1.499 . S
C351 C352 1.373 . S
C351 C353 1.389 . S
C352 H325 0.950 . S
C352 C338 1.377 . S
C352 C351 1.373 . S
C353 C337 1.377 . S
C353 C351 1.389 . S
C353 C354 1.524 . S
C354 C353 1.524 . S
C354 C355 1.397 . S
C354 C359 1.363 . S
C355 H326 0.950 . S
C355 C354 1.397 . S
C355 C356 1.334 . S
C356 H327 0.950 . S
C356 C355 1.334 . S
C356 C357 1.287 . S
C357 C356 1.287 . S
C357 C358 1.524 . S
C357 H360 0.999 . S
C358 H328 0.950 . S
C358 C357 1.524 . S
C358 C359 1.415 . S
C359 H329 0.950 . S
C359 C354 1.363 . S
C359 C358 1.415 . S
H360 C357 0.999 . S
H361 C342 0.913 . S
H362 C380 0.951 . S
H363 C382 0.951 . S
H364 C384 0.950 . S
H365 C385 0.950 . S
H366 C387 0.950 . S
H367 C390 0.950 . S
H368 C391 0.950 . S
H369 C393 0.950 . S
H370 C394 0.950 . S
H371 C395 0.951 . S
H372 C397 0.951 . S
H373 C399 0.950 . S
H374 C400 0.950 . S
H375 C402 0.950 . S
H376 C405 0.950 . S
H377 C406 0.950 . S
H378 C408 0.950 . S
H379 C409 0.950 . S
C380 H362 0.951 . S
C380 C381 1.366 . S
C380 C382 1.388 . S
C381 C380 1.366 . S
C381 C385 1.385 . S
C382 H363 0.951 . S
C382 C380 1.388 . S
C382 C383 1.366 . S
C383 C382 1.366 . S
C383 C384 1.414 . S
C383 C386 1.499 . S
C384 H364 0.950 . S
C384 C383 1.414 . S
C384 C385 1.374 . S
C385 H365 0.950 . S
C385 C381 1.385 . S
C385 C384 1.374 . S
C386 C383 1.499 . S
C386 C387 1.373 . S
C386 C388 1.389 . S
C387 H366 0.950 . S
C387 C386 1.373 . S
C387 C403 1.377 . S
C388 C386 1.389 . S
C388 C389 1.524 . S
C388 C402 1.377 . S
C389 C388 1.524 . S
C389 C390 1.397 . S
C389 C394 1.363 . S
C390 H367 0.950 . S
C390 C389 1.397 . S
C390 C391 1.334 . S
C391 H368 0.950 . S
C391 C390 1.334 . S
C391 C392 1.287 . S
C392 C391 1.287 . S
C392 C393 1.524 . S
C392 H411 0.913 . S
C393 H369 0.950 . S
C393 C392 1.524 . S
C393 C394 1.415 . S
C394 H370 0.950 . S
C394 C389 1.363 . S
C394 C393 1.415 . S
C395 H371 0.951 . S
C395 C396 1.366 . S
C395 C397 1.388 . S
C396 C395 1.366 . S
C396 C400 1.385 . S
C397 H372 0.951 . S
C397 C395 1.388 . S
C397 C398 1.366 . S
C398 C397 1.366 . S
C398 C399 1.414 . S
C398 C401 1.499 . S
C399 H373 0.950 . S
C399 C398 1.414 . S
C399 C400 1.374 . S
C400 H374 0.950 . S
C400 C396 1.385 . S
C400 C399 1.374 . S
C401 C398 1.499 . S
C401 C402 1.373 . S
C401 C403 1.389 . S
C402 H375 0.950 . S
C402 C388 1.377 . S
C402 C401 1.373 . S
C403 C387 1.377 . S
C403 C401 1.389 . S
C403 C404 1.524 . S
C404 C403 1.524 . S
C404 C405 1.397 . S
C404 C409 1.363 . S
C405 H376 0.950 . S
C405 C404 1.397 . S
C405 C406 1.334 . S
C406 H377 0.950 . S
C406 C405 1.334 . S
C406 C407 1.287 . S
C407 C406 1.287 . S
C407 C408 1.524 . S
C407 H410 0.999 . S
C408 H378 0.950 . S
C408 C407 1.524 . S
C408 C409 1.415 . S
C409 H379 0.950 . S
C409 C404 1.363 . S
C409 C408 1.415 . S
H410 C407 0.999 . S
H411 C392 0.913 . S
H412 C430 0.951 . S
H413 C432 0.951 . S
H414 C434 0.950 . S
H415 C435 0.950 . S
H416 C437 0.950 . S
H417 C440 0.950 . S
H418 C441 0.950 . S
H419 C443 0.950 . S
H420 C444 0.950 . S
H421 C445 0.951 . S
H422 C447 0.951 . S
H423 C449 0.950 . S
H424 C450 0.950 . S
H425 C452 0.950 . S
H426 C455 0.950 . S
H427 C456 0.950 . S
H428 C458 0.950 . S
H429 C459 0.950 . S
C430 H412 0.951 . S
C430 C431 1.366 . S
C430 C432 1.388 . S
C431 C430 1.366 . S
C431 C435 1.385 . S
C432 H413 0.951 . S
C432 C430 1.388 . S
C432 C433 1.366 . S
C433 C432 1.366 . S
C433 C434 1.414 . S
C433 C436 1.499 . S
C434 H414 0.950 . S
C434 C433 1.414 . S
C434 C435 1.374 . S
C435 H415 0.950 . S
C435 C431 1.385 . S
C435 C434 1.374 . S
C436 C433 1.499 . S
C436 C437 1.373 . S
C436 C438 1.389 . S
C437 H416 0.950 . S
C437 C436 1.373 . S
C437 C453 1.377 . S
C438 C436 1.389 . S
C438 C439 1.524 . S
C438 C452 1.377 . S
C439 C438 1.524 . S
C439 C440 1.397 . S
C439 C444 1.363 . S
C440 H417 0.950 . S
C440 C439 1.397 . S
C440 C441 1.334 . S
C441 H418 0.950 . S
C441 C440 1.334 . S
C441 C442 1.287 . S
C442 C441 1.287 . S
C442 C443 1.524 . S
C442 H461 0.913 . S
C443 H419 0.950 . S
C443 C442 1.524 . S
C443 C444 1.415 . S
C444 H420 0.950 . S
C444 C439 1.363 . S
C444 C443 1.415 . S
C445 H421 0.951 . S
C445 C446 1.366 . S
C445 C447 1.388 . S
C446 C445 1.366 . S
C446 C450 1.385 . S
C447 H422 0.951 . S
C447 C445 1.388 . S
C447 C448 1.366 . S
C448 C447 1.366 . S
C448 C449 1.414 . S
C448 C451 1.499 . S
C449 H423 0.950 . S
C449 C448 1.414 . S
C449 C450 1.374 . S
C450 H424 0.950 . S
C450 C446 1.385 . S
C450 C449 1.374 . S
C451 C448 1.499 . S
C451 C452 1.373 . S
C451 C453 1.389 . S
C452 H425 0.950 . S
C452 C438 1.377 . S
C452 C451 1.373 . S
C453 C437 1.377 . S
C453 C451 1.389 . S
C453 C454 1.524 . S
C454 C453 1.524 . S
C454 C455 1.397 . S
C454 C459 1.363 . S
C455 H426 0.950 . S
C455 C454 1.397 . S
C455 C456 1.334 . S
C456 H427 0.950 . S
C456 C455 1.334 . S
C456 C457 1.287 . S
C457 C456 1.287 . S
C457 C458 1.524 . S
C457 H460 0.999 . S
C458 H428 0.950 . S
C458 C457 1.524 . S
C458 C459 1.415 . S
C459 H429 0.950 . S
C459 C454 1.363 . S
C459 C458 1.415 . S
H460 C457 0.999 . S
H461 C442 0.913 . S
H462 C480 0.951 . S
H463 C482 0.951 . S
H464 C484 0.950 . S
H465 C485 0.950 . S
H466 C487 0.950 . S
H467 C490 0.950 . S
H468 C491 0.950 . S
H469 C493 0.950 . S
H470 C494 0.950 . S
H471 C495 0.951 . S
H472 C497 0.951 . S
H473 C499 0.950 . S
H474 C500 0.950 . S
H475 C502 0.950 . S
H476 C505 0.950 . S
H477 C506 0.950 . S
H478 C508 0.950 . S
H479 C509 0.950 . S
C480 H462 0.951 . S
C480 C481 1.366 . S
C480 C482 1.388 . S
C481 C480 1.366 . S
C481 C485 1.385 . S
C482 H463 0.951 . S
C482 C480 1.388 . S
C482 C483 1.366 . S
C483 C482 1.366 . S
C483 C484 1.414 . S
C483 C486 1.499 . S
C484 H464 0.950 . S
C484 C483 1.414 . S
C484 C485 1.374 . S
C485 H465 0.950 . S
C485 C481 1.385 . S
C485 C484 1.374 . S
C486 C483 1.499 . S
C486 C487 1.373 . S
C486 C488 1.389 . S
C487 H466 0.950 . S
C487 C486 1.373 . S
C487 C503 1.377 . S
C488 C486 1.389 . S
C488 C489 1.524 . S
C488 C502 1.377 . S
C489 C488 1.524 . S
C489 C490 1.397 . S
C489 C494 1.363 . S
C490 H467 0.950 . S
C490 C489 1.397 . S
C490 C491 1.334 . S
C491 H468 0.950 . S
C491 C490 1.334 . S
C491 C492 1.287 . S
C492 C491 1.287 . S
C492 C493 1.524 . S
C492 H511 0.913 . S
C493 H469 0.950 . S
C493 C492 1.524 . S
C493 C494 1.415 . S
C494 H470 0.950 . S
C494 C489 1.363 . S
C494 C493 1.415 . S
C495 H471 0.951 . S
C495 C496 1.366 . S
C495 C497 1.388 . S
C496 C495 1.366 . S
C496 C500 1.385 . S
C497 H472 0.951 . S
C497 C495 1.388 . S
C497 C498 1.366 . S
C498 C497 1.366 . S
C498 C499 1.414 . S
C498 C501 1.499 . S
C499 H473 0.950 . S
C499 C498 1.414 . S
C499 C500 1.374 . S
C500 H474 0.950 . S
C500 C496 1.385 . S
C500 C499 1.374 . S
C501 C498 1.499 . S
C501 C502 1.373 . S
C501 C503 1.389 . S
C502 H475 0.950 . S
C502 C488 1.377 . S
C502 C501 1.373 . S
C503 C487 1.377 . S
C503 C501 1.389 . S
C503 C504 1.524 . S
C504 C503 1.524 . S
C504 C505 1.397 . S
C504 C509 1.363 . S
C505 H476 0.950 . S
C505 C504 1.397 . S
C505 C506 1.334 . S
C506 H477 0.950 . S
C506 C505 1.334 . S
C506 C507 1.287 . S
C507 C506 1.287 . S
C507 C508 1.524 . S
C507 H510 0.999 . S
C508 H478 0.950 . S
C508 C507 1.524 . S
C508 C509 1.415 . S
C509 H479 0.950 . S
C509 C504 1.363 . S
C509 C508 1.415 . S
H510 C507 0.999 . S
H511 C492 0.913 . S
H512 C530 0.951 . S
H513 C532 0.951 . S
H514 C534 0.950 . S
H515 C535 0.950 . S
H516 C537 0.950 . S
H517 C540 0.950 . S
H518 C541 0.950 . S
H519 C543 0.950 . S
H520 C544 0.950 . S
H521 C545 0.951 . S
H522 C547 0.951 . S
H523 C549 0.950 . S
H524 C550 0.950 . S
H525 C552 0.950 . S
H526 C555 0.950 . S
H527 C556 0.950 . S
H528 C558 0.950 . S
H529 C559 0.950 . S
C530 H512 0.951 . S
C530 C531 1.366 . S
C530 C532 1.388 . S
C531 C530 1.366 . S
C531 C535 1.385 . S
C532 H513 0.951 . S
C532 C530 1.388 . S
C532 C533 1.366 . S
C533 C532 1.366 . S
C533 C534 1.414 . S
C533 C536 1.499 . S
C534 H514 0.950 . S
C534 C533 1.414 . S
C534 C535 1.374 . S
C535 H515 0.950 . S
C535 C531 1.385 . S
C535 C534 1.374 . S
C536 C533 1.499 . S
C536 C537 1.373 . S
C536 C538 1.389 . S
C537 H516 0.950 . S
C537 C536 1.373 . S
C537 C553 1.377 . S
C538 C536 1.389 . S
C538 C539 1.524 . S
C538 C552 1.377 . S
C539 C538 1.524 . S
C539 C540 1.397 . S
C539 C544 1.363 . S
C540 H517 0.950 . S
C540 C539 1.397 . S
C540 C541 1.334 . S
C541 H518 0.950 . S
C541 C540 1.334 . S
C541 C542 1.287 . S
C542 C541 1.287 . S
C542 C543 1.524 . S
C542 H561 0.913 . S
C543 H519 0.950 . S
C543 C542 1.524 . S
C543 C544 1.415 . S
C544 H520 0.950 . S
C544 C539 1.363 . S
C544 C543 1.415 . S
C545 H521 0.951 . S
C545 C546 1.366 . S
C545 C547 1.388 . S
C546 C545 1.366 . S
C546 C550 1.385 . S
C547 H522 0.951 . S
C547 C545 1.388 . S
C547 C548 1.366 . S
C548 C547 1.366 . S
C548 C549 1.414 . S
C548 C551 1.499 . S
C549 H523 0.950 . S
C549 C548 1.414 . S
C549 C550 1.374 . S
C550 H524 0.950 . S
C550 C546 1.385 . S
C550 C549 1.374 . S
C551 C548 1.499 . S
C551 C552 1.373 . S
C551 C553 1.389 . S
C552 H525 0.950 . S
C552 C538 1.377 . S
C552 C551 1.373 . S
C553 C537 1.377 . S
C553 C551 1.389 . S
C553 C554 1.524 . S
C554 C553 1.524 . S
C554 C555 1.397 . S
C554 C559 1.363 . S
C555 H526 0.950 . S
C555 C554 1.397 . S
C555 C556 1.334 . S
C556 H527 0.950 . S
C556 C555 1.334 . S
C556 C557 1.287 . S
C557 C556 1.287 . S
C557 C558 1.524 . S
C557 H560 0.999 . S
C558 H528 0.950 . S
C558 C557 1.524 . S
C558 C559 1.415 . S
C559 H529 0.950 . S
C559 C554 1.363 . S
C559 C558 1.415 . S
H560 C557 0.999 . S
H561 C542 0.913 . S
H562 C580 0.951 . S
H563 C582 0.951 . S
H564 C584 0.950 . S
H565 C585 0.950 . S
H566 C587 0.950 . S
H567 C590 0.950 . S
H568 C591 0.950 . S
H569 C593 0.950 . S
H570 C594 0.950 . S
H571 C595 0.951 . S
H572 C597 0.951 . S
H573 C599 0.950 . S
H574 C600 0.950 . S
H575 C602 0.950 . S
H576 C605 0.950 . S
H577 C606 0.950 . S
H578 C608 0.950 . S
H579 C609 0.950 . S
C580 H562 0.951 . S
C580 C581 1.366 . S
C580 C582 1.388 . S
C581 C580 1.366 . S
C581 C585 1.385 . S
C582 H563 0.951 . S
C582 C580 1.388 . S
C582 C583 1.366 . S
C583 C582 1.366 . S
C583 C584 1.414 . S
C583 C586 1.499 . S
C584 H564 0.950 . S
C584 C583 1.414 . S
C584 C585 1.374 . S
C585 H565 0.950 . S
C585 C581 1.385 . S
C585 C584 1.374 . S
C586 C583 1.499 . S
C586 C587 1.373 . S
C586 C588 1.389 . S
C587 H566 0.950 . S
C587 C586 1.373 . S
C587 C603 1.377 . S
C588 C586 1.389 . S
C588 C589 1.524 . S
C588 C602 1.377 . S
C589 C588 1.524 . S
C589 C590 1.397 . S
C589 C594 1.363 . S
C590 H567 0.950 . S
C590 C589 1.397 . S
C590 C591 1.334 . S
C591 H568 0.950 . S
C591 C590 1.334 . S
C591 C592 1.287 . S
C592 C591 1.287 . S
C592 C593 1.524 . S
C592 H611 0.913 . S
C593 H569 0.950 . S
C593 C592 1.524 . S
C593 C594 1.415 . S
C594 H570 0.950 . S
C594 C589 1.363 . S
C594 C593 1.415 . S
C595 H571 0.951 . S
C595 C596 1.366 . S
C595 C597 1.388 . S
C596 C595 1.366 . S
C596 C600 1.385 . S
C597 H572 0.951 . S
C597 C595 1.388 . S
C597 C598 1.366 . S
C598 C597 1.366 . S
C598 C599 1.414 . S
C598 C601 1.499 . S
C599 H573 0.950 . S
C599 C598 1.414 . S
C599 C600 1.374 . S
C600 H574 0.950 . S
C600 C596 1.385 . S
C600 C599 1.374 . S
C601 C598 1.499 . S
C601 C602 1.373 . S
C601 C603 1.389 . S
C602 H575 0.950 . S
C602 C588 1.377 . S
C602 C601 1.373 . S
C603 C587 1.377 . S
C603 C601 1.389 . S
C603 C604 1.524 . S
C604 C603 1.524 . S
C604 C605 1.397 . S
C604 C609 1.363 . S
C605 H576 0.950 . S
C605 C604 1.397 . S
C605 C606 1.334 . S
C606 H577 0.950 . S
C606 C605 1.334 . S
C606 C607 1.287 . S
C607 C606 1.287 . S
C607 C608 1.524 . S
C607 H610 0.999 . S
C608 H578 0.950 . S
C608 C607 1.524 . S
C608 C609 1.415 . S
C609 H579 0.950 . S
C609 C604 1.363 . S
C609 C608 1.415 . S
H610 C607 0.999 . S
H611 C592 0.913 . S
H612 C630 0.951 . S
H613 C632 0.951 . S
H614 C634 0.950 . S
H615 C635 0.950 . S
H616 C637 0.950 . S
H617 C640 0.950 . S
H618 C641 0.950 . S
H619 C643 0.950 . S
H620 C644 0.950 . S
H621 C645 0.951 . S
H622 C647 0.951 . S
H623 C649 0.950 . S
H624 C650 0.950 . S
H625 C652 0.950 . S
H626 C655 0.950 . S
H627 C656 0.950 . S
H628 C658 0.950 . S
H629 C659 0.950 . S
C630 H612 0.951 . S
C630 C631 1.366 . S
C630 C632 1.388 . S
C631 C630 1.366 . S
C631 C635 1.385 . S
C632 H613 0.951 . S
C632 C630 1.388 . S
C632 C633 1.366 . S
C633 C632 1.366 . S
C633 C634 1.414 . S
C633 C636 1.499 . S
C634 H614 0.950 . S
C634 C633 1.414 . S
C634 C635 1.374 . S
C635 H615 0.950 . S
C635 C631 1.385 . S
C635 C634 1.374 . S
C636 C633 1.499 . S
C636 C637 1.373 . S
C636 C638 1.389 . S
C637 H616 0.950 . S
C637 C636 1.373 . S
C637 C653 1.377 . S
C638 C636 1.389 . S
C638 C639 1.524 . S
C638 C652 1.377 . S
C639 C638 1.524 . S
C639 C640 1.397 . S
C639 C644 1.363 . S
C640 H617 0.950 . S
C640 C639 1.397 . S
C640 C641 1.334 . S
C641 H618 0.950 . S
C641 C640 1.334 . S
C641 C642 1.287 . S
C642 C641 1.287 . S
C642 C643 1.524 . S
C642 H661 0.913 . S
C643 H619 0.950 . S
C643 C642 1.524 . S
C643 C644 1.415 . S
C644 H620 0.950 . S
C644 C639 1.363 . S
C644 C643 1.415 . S
C645 H621 0.951 . S
C645 C646 1.366 . S
C645 C647 1.388 . S
C646 C645 1.366 . S
C646 C650 1.385 . S
C647 H622 0.951 . S
C647 C645 1.388 . S
C647 C648 1.366 . S
C648 C647 1.366 . S
C648 C649 1.414 . S
C648 C651 1.499 . S
C649 H623 0.950 . S
C649 C648 1.414 . S
C649 C650 1.374 . S
C650 H624 0.950 . S
C650 C646 1.385 . S
C650 C649 1.374 . S
C651 C648 1.499 . S
C651 C652 1.373 . S
C651 C653 1.389 . S
C652 H625 0.950 . S
C652 C638 1.377 . S
C652 C651 1.373 . S
C653 C637 1.377 . S
C653 C651 1.389 . S
C653 C654 1.524 . S
C654 C653 1.524 . S
C654 C655 1.397 . S
C654 C659 1.363 . S
C655 H626 0.950 . S
C655 C654 1.397 . S
C655 C656 1.334 . S
C656 H627 0.950 . S
C656 C655 1.334 . S
C656 C657 1.287 . S
C657 C656 1.287 . S
C657 C658 1.524 . S
C657 H660 0.999 . S
C658 H628 0.950 . S
C658 C657 1.524 . S
C658 C659 1.415 . S
C659 H629 0.950 . S
C659 C654 1.363 . S
C659 C658 1.415 . S
H660 C657 0.999 . S
H661 C642 0.913 . S
H662 C680 0.951 . S
H663 C682 0.951 . S
H664 C684 0.950 . S
H665 C685 0.950 . S
H666 C687 0.950 . S
H667 C690 0.950 . S
H668 C691 0.950 . S
H669 C693 0.950 . S
H670 C694 0.950 . S
H671 C695 0.951 . S
H672 C697 0.951 . S
H673 C699 0.950 . S
H674 C700 0.950 . S
H675 C702 0.950 . S
H676 C705 0.950 . S
H677 C706 0.950 . S
H678 C708 0.950 . S
H679 C709 0.950 . S
C680 H662 0.951 . S
C680 C681 1.366 . S
C680 C682 1.388 . S
C681 C680 1.366 . S
C681 C685 1.385 . S
C682 H663 0.951 . S
C682 C680 1.388 . S
C682 C683 1.366 . S
C683 C682 1.366 . S
C683 C684 1.414 . S
C683 C686 1.499 . S
C684 H664 0.950 . S
C684 C683 1.414 . S
C684 C685 1.374 . S
C685 H665 0.950 . S
C685 C681 1.385 . S
C685 C684 1.374 . S
C686 C683 1.499 . S
C686 C687 1.373 . S
C686 C688 1.389 . S
C687 H666 0.950 . S
C687 C686 1.373 . S
C687 C703 1.377 . S
C688 C686 1.389 . S
C688 C689 1.524 . S
C688 C702 1.377 . S
C689 C688 1.524 . S
C689 C690 1.397 . S
C689 C694 1.363 . S
C690 H667 0.950 . S
C690 C689 1.397 . S
C690 C691 1.334 . S
C691 H668 0.950 . S
C691 C690 1.334 . S
C691 C692 1.287 . S
C692 C691 1.287 . S
C692 C693 1.524 . S
C692 H711 0.913 . S
C693 H669 0.950 . S
C693 C692 1.524 . S
C693 C694 1.415 . S
C694 H670 0.950 . S
C694 C689 1.363 . S
C694 C693 1.415 . S
C695 H671 0.951 . S
C695 C696 1.366 . S
C695 C697 1.388 . S
C696 C695 1.366 . S
C696 C700 1.385 . S
C697 H672 0.951 . S
C697 C695 1.388 . S
C697 C698 1.366 . S
C698 C697 1.366 . S
C698 C699 1.414 . S
C698 C701 1.499 . S
C699 H673 0.950 . S
C699 C698 1.414 . S
C699 C700 1.374 . S
C700 H674 0.950 . S
C700 C696 1.385 . S
C700 C699 1.374 . S
C701 C698 1.499 . S
C701 C702 1.373 . S
C701 C703 1.389 . S
C702 H675 0.950 . S
C702 C688 1.377 . S
C702 C701 1.373 . S
C703 C687 1.377 . S
C703 C701 1.389 . S
C703 C704 1.524 . S
C704 C703 1.524 . S
C704 C705 1.397 . S
C704 C709 1.363 . S
C705 H676 0.950 . S
C705 C704 1.397 . S
C705 C706 1.334 . S
C706 H677 0.950 . S
C706 C705 1.334 . S
C706 C707 1.287 . S
C707 C706 1.287 . S
C707 C708 1.524 . S
C707 H710 0.999 . S
C708 H678 0.950 . S
C708 C707 1.524 . S
C708 C709 1.415 . S
C709 H679 0.950 . S
C709 C704 1.363 . S
C709 C708 1.415 . S
H710 C707 0.999 . S
H711 C692 0.913 . S
H712 C730 0.951 . S
H713 C732 0.951 . S
H714 C734 0.950 . S
H715 C735 0.950 . S
H716 C737 0.950 . S
H717 C740 0.950 . S
H718 C741 0.950 . S
H719 C743 0.950 . S
H720 C744 0.950 . S
H721 C745 0.951 . S
H722 C747 0.951 . S
H723 C749 0.950 . S
H724 C750 0.950 . S
H725 C752 0.950 . S
H726 C755 0.950 . S
H727 C756 0.950 . S
H728 C758 0.950 . S
H729 C759 0.950 . S
C730 H712 0.951 . S
C730 C731 1.366 . S
C730 C732 1.388 . S
C731 C730 1.366 . S
C731 C735 1.385 . S
C732 H713 0.951 . S
C732 C730 1.388 . S
C732 C733 1.366 . S
C733 C732 1.366 . S
C733 C734 1.414 . S
C733 C736 1.499 . S
C734 H714 0.950 . S
C734 C733 1.414 . S
C734 C735 1.374 . S
C735 H715 0.950 . S
C735 C731 1.385 . S
C735 C734 1.374 . S
C736 C733 1.499 . S
C736 C737 1.373 . S
C736 C738 1.389 . S
C737 H716 0.950 . S
C737 C736 1.373 . S
C737 C753 1.377 . S
C738 C736 1.389 . S
C738 C739 1.524 . S
C738 C752 1.377 . S
C739 C738 1.524 . S
C739 C740 1.397 . S
C739 C744 1.363 . S
C740 H717 0.950 . S
C740 C739 1.397 . S
C740 C741 1.334 . S
C741 H718 0.950 . S
C741 C740 1.334 . S
C741 C742 1.287 . S
C742 C741 1.287 . S
C742 C743 1.524 . S
C742 H761 0.913 . S
C743 H719 0.950 . S
C743 C742 1.524 . S
C743 C744 1.415 . S
C744 H720 0.950 . S
C744 C739 1.363 . S
C744 C743 1.415 . S
C745 H721 0.951 . S
C745 C746 1.366 . S
C745 C747 1.388 . S
C746 C745 1.366 . S
C746 C750 1.385 . S
C747 H722 0.951 . S
C747 C745 1.388 . S
C747 C748 1.366 . S
C748 C747 1.366 . S
C748 C749 1.414 . S
C748 C751 1.499 . S
C749 H723 0.950 . S
C749 C748 1.414 . S
C749 C750 1.374 . S
C750 H724 0.950 . S
C750 C746 1.385 . S
C750 C749 1.374 . S
C751 C748 1.499 . S
C751 C752 1.373 . S
C751 C753 1.389 . S
C752 H725 0.950 . S
C752 C738 1.377 . S
C752 C751 1.373 . S
C753 C737 1.377 . S
C753 C751 1.389 . S
C753 C754 1.524 . S
C754 C753 1.524 . S
C754 C755 1.397 . S
C754 C759 1.363 . S
C755 H726 0.950 . S
C755 C754 1.397 . S
C755 C756 1.334 . S
C756 H727 0.950 . S
C756 C755 1.334 . S
C756 C757 1.287 . S
C757 C756 1.287 . S
C757 C758 1.524 . S
C757 H760 0.999 . S
C758 H728 0.950 . S
C758 C757 1.524 . S
C758 C759 1.415 . S
C759 H729 0.950 . S
C759 C754 1.363 . S
C759 C758 1.415 . S
H760 C757 0.999 . S
H761 C742 0.913 . S
H762 C780 0.951 . S
H763 C782 0.951 . S
H764 C784 0.950 . S
H765 C785 0.950 . S
H766 C787 0.950 . S
H767 C790 0.950 . S
H768 C791 0.950 . S
H769 C793 0.950 . S
H770 C794 0.950 . S
H771 C795 0.951 . S
H772 C797 0.951 . S
H773 C799 0.950 . S
H774 C800 0.950 . S
H775 C802 0.950 . S
H776 C805 0.950 . S
H777 C806 0.950 . S
H778 C808 0.950 . S
H779 C809 0.950 . S
C780 H762 0.951 . S
C780 C781 1.366 . S
C780 C782 1.388 . S
C781 C780 1.366 . S
C781 C785 1.385 . S
C782 H763 0.951 . S
C782 C780 1.388 . S
C782 C783 1.366 . S
C783 C782 1.366 . S
C783 C784 1.414 . S
C783 C786 1.499 . S
C784 H764 0.950 . S
C784 C783 1.414 . S
C784 C785 1.374 . S
C785 H765 0.950 . S
C785 C781 1.385 . S
C785 C784 1.374 . S
C786 C783 1.499 . S
C786 C787 1.373 . S
C786 C788 1.389 . S
C787 H766 0.950 . S
C787 C786 1.373 . S
C787 C803 1.377 . S
C788 C786 1.389 . S
C788 C789 1.524 . S
C788 C802 1.377 . S
C789 C788 1.524 . S
C789 C790 1.397 . S
C789 C794 1.363 . S
C790 H767 0.950 . S
C790 C789 1.397 . S
C790 C791 1.334 . S
C791 H768 0.950 . S
C791 C790 1.334 . S
C791 C792 1.287 . S
C792 C791 1.287 . S
C792 C793 1.524 . S
C792 H811 0.913 . S
C793 H769 0.950 . S
C793 C792 1.524 . S
C793 C794 1.415 . S
C794 H770 0.950 . S
C794 C789 1.363 . S
C794 C793 1.415 . S
C795 H771 0.951 . S
C795 C796 1.366 . S
C795 C797 1.388 . S
C796 C795 1.366 . S
C796 C800 1.385 . S
C797 H772 0.951 . S
C797 C795 1.388 . S
C797 C798 1.366 . S
C798 C797 1.366 . S
C798 C799 1.414 . S
C798 C801 1.499 . S
C799 H773 0.950 . S
C799 C798 1.414 . S
C799 C800 1.374 . S
C800 H774 0.950 . S
C800 C796 1.385 . S
C800 C799 1.374 . S
C801 C798 1.499 . S
C801 C802 1.373 . S
C801 C803 1.389 . S
C802 H775 0.950 . S
C802 C788 1.377 . S
C802 C801 1.373 . S
C803 C787 1.377 . S
C803 C801 1.389 . S
C803 C804 1.524 . S
C804 C803 1.524 . S
C804 C805 1.397 . S
C804 C809 1.363 . S
C805 H776 0.950 . S
C805 C804 1.397 . S
C805 C806 1.334 . S
C806 H777 0.950 . S
C806 C805 1.334 . S
C806 C807 1.287 . S
C807 C806 1.287 . S
C807 C808 1.524 . S
C807 H810 0.999 . S
C808 H778 0.950 . S
C808 C807 1.524 . S
C808 C809 1.415 . S
C809 H779 0.950 . S
C809 C804 1.363 . S
C809 C808 1.415 . S
H810 C807 0.999 . S
H811 C792 0.913 . S
H812 C830 0.951 . S
H813 C832 0.951 . S
H814 C834 0.950 . S
H815 C835 0.950 . S
H816 C837 0.950 . S
H817 C840 0.950 . S
H818 C841 0.950 . S
H819 C843 0.950 . S
H820 C844 0.950 . S
H821 C845 0.951 . S
H822 C847 0.951 . S
H823 C849 0.950 . S
H824 C850 0.950 . S
H825 C852 0.950 . S
H826 C855 0.950 . S
H827 C856 0.950 . S
H828 C858 0.950 . S
H829 C859 0.950 . S
C830 H812 0.951 . S
C830 C831 1.366 . S
C830 C832 1.388 . S
C831 C830 1.366 . S
C831 C835 1.385 . S
C832 H813 0.951 . S
C832 C830 1.388 . S
C832 C833 1.366 . S
C833 C832 1.366 . S
C833 C834 1.414 . S
C833 C836 1.499 . S
C834 H814 0.950 . S
C834 C833 1.414 . S
C834 C835 1.374 . S
C835 H815 0.950 . S
C835 C831 1.385 . S
C835 C834 1.374 . S
C836 C833 1.499 . S
C836 C837 1.373 . S
C836 C838 1.389 . S
C837 H816 0.950 . S
C837 C836 1.373 . S
C837 C853 1.377 . S
C838 C836 1.389 . S
C838 C839 1.524 . S
C838 C852 1.377 . S
C839 C838 1.524 . S
C839 C840 1.397 . S
C839 C844 1.363 . S
C840 H817 0.950 . S
C840 C839 1.397 . S
C840 C841 1.334 . S
C841 H818 0.950 . S
C841 C840 1.334 . S
C841 C842 1.287 . S
C842 C841 1.287 . S
C842 C843 1.524 . S
C842 H861 0.913 . S
C843 H819 0.950 . S
C843 C842 1.524 . S
C843 C844 1.415 . S
C844 H820 0.950 . S
C844 C839 1.363 . S
C844 C843 1.415 . S
C845 H821 0.951 . S
C845 C846 1.366 . S
C845 C847 1.388 . S
C846 C845 1.366 . S
C846 C850 1.385 . S
C847 H822 0.951 . S
C847 C845 1.388 . S
C847 C848 1.366 . S
C848 C847 1.366 . S
C848 C849 1.414 . S
C848 C851 1.499 . S
C849 H823 0.950 . S
C849 C848 1.414 . S
C849 C850 1.374 . S
C850 H824 0.950 . S
C850 C846 1.385 . S
C850 C849 1.374 . S
C851 C848 1.499 . S
C851 C852 1.373 . S
C851 C853 1.389 . S
C852 H825 0.950 . S
C852 C838 1.377 . S
C852 C851 1.373 . S
C853 C837 1.377 . S
C853 C851 1.389 . S
C853 C854 1.524 . S
C854 C853 1.524 . S
C854 C855 1.397 . S
C854 C859 1.363 . S
C855 H826 0.950 . S
C855 C854 1.397 . S
C855 C856 1.334 . S
C856 H827 0.950 . S
C856 C855 1.334 . S
C856 C857 1.287 . S
C857 C856 1.287 . S
C857 C858 1.524 . S
C857 H860 0.999 . S
C858 H828 0.950 . S
C858 C857 1.524 . S
C858 C859 1.415 . S
C859 H829 0.950 . S
C859 C854 1.363 . S
C859 C858 1.415 . S
H860 C857 0.999 . S
H861 C842 0.913 . S
H862 C880 0.951 . S
H863 C882 0.951 . S
H864 C884 0.950 . S
H865 C885 0.950 . S
H866 C887 0.950 . S
H867 C890 0.950 . S
H868 C891 0.950 . S
H869 C893 0.950 . S
H870 C894 0.950 . S
H871 C895 0.951 . S
H872 C897 0.951 . S
H873 C899 0.950 . S
H874 C900 0.950 . S
H875 C902 0.950 . S
H876 C905 0.950 . S
H877 C906 0.950 . S
H878 C908 0.950 . S
H879 C909 0.950 . S
C880 H862 0.951 . S
C880 C881 1.366 . S
C880 C882 1.388 . S
C881 C880 1.366 . S
C881 C885 1.385 . S
C882 H863 0.951 . S
C882 C880 1.388 . S
C882 C883 1.366 . S
C883 C882 1.366 . S
C883 C884 1.414 . S
C883 C886 1.499 . S
C884 H864 0.950 . S
C884 C883 1.414 . S
C884 C885 1.374 . S
C885 H865 0.950 . S
C885 C881 1.385 . S
C885 C884 1.374 . S
C886 C883 1.499 . S
C886 C887 1.373 . S
C886 C888 1.389 . S
C887 H866 0.950 . S
C887 C886 1.373 . S
C887 C903 1.377 . S
C888 C886 1.389 . S
C888 C889 1.524 . S
C888 C902 1.377 . S
C889 C888 1.524 . S
C889 C890 1.397 . S
C889 C894 1.363 . S
C890 H867 0.950 . S
C890 C889 1.397 . S
C890 C891 1.334 . S
C891 H868 0.950 . S
C891 C890 1.334 . S
C891 C892 1.287 . S
C892 C891 1.287 . S
C892 C893 1.524 . S
C892 H911 0.913 . S
C893 H869 0.950 . S
C893 C892 1.524 . S
C893 C894 1.415 . S
C894 H870 0.950 . S
C894 C889 1.363 . S
C894 C893 1.415 . S
C895 H871 0.951 . S
C895 C896 1.366 . S
C895 C897 1.388 . S
C896 C895 1.366 . S
C896 C900 1.385 . S
C897 H872 0.951 . S
C897 C895 1.388 . S
C897 C898 1.366 . S
C898 C897 1.366 . S
C898 C899 1.414 . S
C898 C901 1.499 . S
C899 H873 0.950 . S
C899 C898 1.414 . S
C899 C900 1.374 . S
C900 H874 0.950 . S
C900 C896 1.385 . S
C900 C899 1.374 . S
C901 C898 1.499 . S
C901 C902 1.373 . S
C901 C903 1.389 . S
C902 H875 0.950 . S
C902 C888 1.377 . S
C902 C901 1.373 . S
C903 C887 1.377 . S
C903 C901 1.389 . S
C903 C904 1.524 . S
C904 C903 1.524 . S
C904 C905 1.397 . S
C904 C909 1.363 . S
C905 H876 0.950 . S
C905 C904 1.397 . S
C905 C906 1.334 . S
C906 H877 0.950 . S
C906 C905 1.334 . S
C906 C907 1.287 . S
C907 C906 1.287 . S
C907 C908 1.524 . S
C907 H910 0.999 . S
C908 H878 0.950 . S
C908 C907 1.524 . S
C908 C909 1.415 . S
C909 H879 0.950 . S
C909 C904 1.363 . S
C909 C908 1.415 . S
H910 C907 0.999 . S
H911 C892 0.913 . S
H912 C930 0.951 . S
H913 C932 0.951 . S
H914 C934 0.950 . S
H915 C935 0.950 . S
H916 C937 0.950 . S
H917 C940 0.950 . S
H918 C941 0.950 . S
H919 C943 0.950 . S
H920 C944 0.950 . S
H921 C945 0.951 . S
H922 C947 0.949 . S
H923 C949 0.950 1_554 S
H924 C950 0.950 . S
H925 C952 0.950 1_655 S
H926 C955 0.950 . S
H927 C956 0.950 . S
H928 C958 0.950 . S
H929 C959 0.950 . S
C930 H912 0.951 . S
C930 C931 1.366 . S
C930 C932 1.388 . S
C931 C930 1.366 . S
C931 C935 1.385 . S
C932 H913 0.951 . S
C932 C930 1.388 . S
C932 C933 1.366 . S
C933 C932 1.366 . S
C933 C934 1.414 . S
C933 C936 1.499 . S
C934 H914 0.950 . S
C934 C933 1.414 . S
C934 C935 1.374 . S
C935 H915 0.950 . S
C935 C931 1.385 . S
C935 C934 1.374 . S
C936 C933 1.499 . S
C936 C937 1.373 . S
C936 C938 1.389 . S
C937 H916 0.950 . S
C937 C936 1.373 . S
C937 C953 1.377 . S
C938 C936 1.389 . S
C938 C939 1.524 1_455 S
C938 C952 1.377 . S
C939 C938 1.524 1_655 S
C939 C940 1.397 . S
C939 C944 1.363 . S
C940 H917 0.950 . S
C940 C939 1.397 . S
C940 C941 1.334 . S
C941 H918 0.950 . S
C941 C940 1.334 . S
C941 C942 1.287 . S
C942 C941 1.287 . S
C942 C943 1.524 . S
C942 H961 0.913 . S
C943 H919 0.950 . S
C943 C942 1.524 . S
C943 C944 1.415 . S
C944 H920 0.950 . S
C944 C939 1.363 . S
C944 C943 1.415 . S
C945 H921 0.951 . S
C945 C946 1.366 . S
C945 C947 1.388 . S
C946 C945 1.366 . S
C946 C950 1.385 . S
C947 H922 0.949 . S
C947 C945 1.388 . S
C947 C948 1.366 1_556 S
C948 C947 1.366 1_554 S
C948 C949 1.414 1_554 S
C948 C951 1.499 . S
C949 H923 0.950 1_556 S
C949 C948 1.414 1_556 S
C949 C950 1.374 . S
C950 H924 0.950 . S
C950 C946 1.385 . S
C950 C949 1.374 . S
C951 C948 1.499 . S
C951 C952 1.373 . S
C951 C953 1.389 . S
C952 H925 0.950 1_455 S
C952 C938 1.377 . S
C952 C951 1.373 . S
C953 C937 1.377 . S
C953 C951 1.389 . S
C953 C954 1.524 . S
C954 C953 1.524 . S
C954 C955 1.397 . S
C954 C959 1.363 . S
C955 H926 0.950 . S
C955 C954 1.397 . S
C955 C956 1.334 . S
C956 H927 0.950 . S
C956 C955 1.334 . S
C956 C957 1.287 . S
C957 C956 1.287 . S
C957 C958 1.524 . S
C957 H960 0.999 . S
C958 H928 0.950 . S
C958 C957 1.524 . S
C958 C959 1.415 . S
C959 H929 0.950 . S
C959 C954 1.363 . S
C959 C958 1.415 . S
H960 C957 0.999 . S
H961 C942 0.913 . S
H962 C980 0.951 . S
H963 C982 0.951 . S
H964 C984 0.950 . S
H965 C985 0.950 . S
H966 C987 0.950 1_565 S
H967 C990 0.950 . S
H968 C991 0.950 . S
H969 C993 0.950 . S
H970 C994 0.950 . S
H971 C995 0.951 . S
H972 C997 0.951 . S
H973 C999 0.950 . S
H974 C1000 0.950 . S
H975 C1002 0.950 . S
H976 C1005 0.950 . S
H977 C1006 0.950 . S
H978 C1008 0.950 . S
H979 C1009 0.950 . S
C980 H962 0.951 . S
C980 C981 1.366 . S
C980 C982 1.388 . S
C981 C980 1.366 . S
C981 C985 1.385 1_545 S
C982 H963 0.951 . S
C982 C980 1.388 . S
C982 C983 1.366 . S
C983 C982 1.366 . S
C983 C984 1.414 1_545 S
C983 C986 1.499 . S
C984 H964 0.950 . S
C984 C983 1.414 1_565 S
C984 C985 1.374 . S
C985 H965 0.950 . S
C985 C981 1.385 1_565 S
C985 C984 1.374 . S
C986 C983 1.499 . S
C986 C987 1.373 . S
C986 C988 1.389 . S
C987 H966 0.950 1_545 S
C987 C986 1.373 . S
C987 C1003 1.377 . S
C988 C986 1.389 . S
C988 C989 1.524 . S
C988 C1002 1.377 . S
C989 C988 1.524 . S
C989 C990 1.397 . S
C989 C994 1.363 . S
C990 H967 0.950 . S
C990 C989 1.397 . S
C990 C991 1.334 . S
C991 H968 0.950 . S
C991 C990 1.334 . S
C991 C992 1.287 . S
C992 C991 1.287 . S
C992 C993 1.524 . S
C992 H1011 0.913 . S
C993 H969 0.950 . S
C993 C992 1.524 . S
C993 C994 1.415 . S
C994 H970 0.950 . S
C994 C989 1.363 . S
C994 C993 1.415 . S
C995 H971 0.951 . S
C995 C996 1.366 1_565 S
C995 C997 1.388 . S
C996 C995 1.366 1_545 S
C996 C1000 1.385 . S
C997 H972 0.951 . S
C997 C995 1.388 . S
C997 C998 1.366 1_565 S
C998 C997 1.366 1_545 S
C998 C999 1.414 . S
C998 C1001 1.499 . S
C999 H973 0.950 . S
C999 C998 1.414 . S
C999 C1000 1.374 . S
C1000 H974 0.950 . S
C1000 C996 1.385 . S
C1000 C999 1.374 . S
C1001 C998 1.499 . S
C1001 C1002 1.373 . S
C1001 C1003 1.389 . S
C1002 H975 0.950 . S
C1002 C988 1.377 . S
C1002 C1001 1.373 . S
C1003 C987 1.377 . S
C1003 C1001 1.389 . S
C1003 C1004 1.524 1_545 S
C1004 C1003 1.524 1_565 S
C1004 C1005 1.397 1_565 S
C1004 C1009 1.363 . S
C1005 H976 0.950 . S
C1005 C1004 1.397 1_545 S
C1005 C1006 1.334 . S
C1006 H977 0.950 . S
C1006 C1005 1.334 . S
C1006 C1007 1.287 1_545 S
C1007 C1006 1.287 1_565 S
C1007 C1008 1.524 . S
C1007 H1010 0.999 . S
C1008 H978 0.950 . S
C1008 C1007 1.524 . S
C1008 C1009 1.415 . S
C1009 H979 0.950 . S
C1009 C1004 1.363 . S
C1009 C1008 1.415 . S
H1010 C1007 0.999 . S
H1011 C992 0.913 . S
H1012 C1030 0.951 . S
H1013 C1032 0.951 . S
H1014 C1034 0.950 . S
H1015 C1035 0.950 . S
H1016 C1037 0.950 . S
H1017 C1040 0.950 . S
H1018 C1041 0.950 . S
H1019 C1043 0.950 . S
H1020 C1044 0.950 . S
H1021 C1045 0.951 . S
H1022 C1047 0.951 . S
H1023 C1049 0.950 . S
H1024 C1050 0.950 . S
H1025 C1052 0.950 . S
H1026 C1055 0.950 . S
H1027 C1056 0.950 . S
H1028 C1058 0.950 . S
H1029 C1059 0.950 . S
C1030 H1012 0.951 . S
C1030 C1031 1.366 . S
C1030 C1032 1.388 . S
C1031 C1030 1.366 . S
C1031 C1035 1.385 . S
C1032 H1013 0.951 . S
C1032 C1030 1.388 . S
C1032 C1033 1.366 . S
C1033 C1032 1.366 . S
C1033 C1034 1.414 . S
C1033 C1036 1.499 . S
C1034 H1014 0.950 . S
C1034 C1033 1.414 . S
C1034 C1035 1.374 . S
C1035 H1015 0.950 . S
C1035 C1031 1.385 . S
C1035 C1034 1.374 . S
C1036 C1033 1.499 . S
C1036 C1037 1.373 . S
C1036 C1038 1.389 . S
C1037 H1016 0.950 . S
C1037 C1036 1.373 . S
C1037 C1053 1.377 . S
C1038 C1036 1.389 . S
C1038 C1039 1.524 . S
C1038 C1052 1.377 . S
C1039 C1038 1.524 . S
C1039 C1040 1.397 . S
C1039 C1044 1.363 . S
C1040 H1017 0.950 . S
C1040 C1039 1.397 . S
C1040 C1041 1.334 . S
C1041 H1018 0.950 . S
C1041 C1040 1.334 . S
C1041 C1042 1.287 . S
C1042 C1041 1.287 . S
C1042 C1043 1.524 . S
C1042 H1061 0.913 . S
C1043 H1019 0.950 . S
C1043 C1042 1.524 . S
C1043 C1044 1.415 . S
C1044 H1020 0.950 . S
C1044 C1039 1.363 . S
C1044 C1043 1.415 . S
C1045 H1021 0.951 . S
C1045 C1046 1.366 . S
C1045 C1047 1.388 . S
C1046 C1045 1.366 . S
C1046 C1050 1.385 . S
C1047 H1022 0.951 . S
C1047 C1045 1.388 . S
C1047 C1048 1.366 . S
C1048 C1047 1.366 . S
C1048 C1049 1.414 . S
C1048 C1051 1.499 . S
C1049 H1023 0.950 . S
C1049 C1048 1.414 . S
C1049 C1050 1.374 . S
C1050 H1024 0.950 . S
C1050 C1046 1.385 . S
C1050 C1049 1.374 . S
C1051 C1048 1.499 . S
C1051 C1052 1.373 . S
C1051 C1053 1.389 . S
C1052 H1025 0.950 . S
C1052 C1038 1.377 . S
C1052 C1051 1.373 . S
C1053 C1037 1.377 . S
C1053 C1051 1.389 . S
C1053 C1054 1.524 . S
C1054 C1053 1.524 . S
C1054 C1055 1.397 . S
C1054 C1059 1.363 . S
C1055 H1026 0.950 . S
C1055 C1054 1.397 . S
C1055 C1056 1.334 . S
C1056 H1027 0.950 . S
C1056 C1055 1.334 . S
C1056 C1057 1.287 . S
C1057 C1056 1.287 . S
C1057 C1058 1.524 . S
C1057 H1060 0.999 . S
C1058 H1028 0.950 . S
C1058 C1057 1.524 . S
C1058 C1059 1.415 . S
C1059 H1029 0.950 . S
C1059 C1054 1.363 . S
C1059 C1058 1.415 . S
H1060 C1057 0.999 . S
H1061 C1042 0.913 . S
H1062 C1080 0.951 . S
H1063 C1082 0.951 . S
H1064 C1084 0.950 . S
H1065 C1085 0.950 . S
H1066 C1087 0.950 . S
H1067 C1090 0.950 . S
H1068 C1091 0.950 . S
H1069 C1093 0.950 . S
H1070 C1094 0.950 1_545 S
H1071 C1095 0.951 . S
H1072 C1097 0.951 . S
H1073 C1099 0.950 . S
H1074 C1100 0.950 . S
H1075 C1102 0.950 . S
H1076 C1105 0.950 . S
H1077 C1106 0.950 . S
H1078 C1108 0.950 . S
H1079 C1109 0.950 . S
C1080 H1062 0.951 . S
C1080 C1081 1.366 . S
C1080 C1082 1.388 . S
C1081 C1080 1.366 . S
C1081 C1085 1.385 1_545 S
C1082 H1063 0.951 . S
C1082 C1080 1.388 . S
C1082 C1083 1.366 . S
C1083 C1082 1.366 . S
C1083 C1084 1.414 1_545 S
C1083 C1086 1.499 . S
C1084 H1064 0.950 . S
C1084 C1083 1.414 1_565 S
C1084 C1085 1.374 . S
C1085 H1065 0.950 . S
C1085 C1081 1.385 1_565 S
C1085 C1084 1.374 . S
C1086 C1083 1.499 . S
C1086 C1087 1.373 . S
C1086 C1088 1.389 1_545 S
C1087 H1066 0.950 . S
C1087 C1086 1.373 . S
C1087 C1103 1.377 . S
C1088 C1086 1.389 1_565 S
C1088 C1089 1.524 . S
C1088 C1102 1.377 . S
C1089 C1088 1.524 . S
C1089 C1090 1.397 . S
C1089 C1094 1.363 . S
C1090 H1067 0.950 . S
C1090 C1089 1.397 . S
C1090 C1091 1.334 . S
C1091 H1068 0.950 . S
C1091 C1090 1.334 . S
C1091 C1092 1.287 . S
C1092 C1091 1.287 . S
C1092 C1093 1.524 . S
C1092 H1111 0.913 . S
C1093 H1069 0.950 . S
C1093 C1092 1.524 . S
C1093 C1094 1.415 . S
C1094 H1070 0.950 1_565 S
C1094 C1089 1.363 . S
C1094 C1093 1.415 . S
C1095 H1071 0.951 . S
C1095 C1096 1.366 1_565 S
C1095 C1097 1.388 . S
C1096 C1095 1.366 1_545 S
C1096 C1100 1.385 . S
C1097 H1072 0.951 . S
C1097 C1095 1.388 . S
C1097 C1098 1.366 1_565 S
C1098 C1097 1.366 1_545 S
C1098 C1099 1.414 . S
C1098 C1101 1.499 . S
C1099 H1073 0.950 . S
C1099 C1098 1.414 . S
C1099 C1100 1.374 . S
C1100 H1074 0.950 . S
C1100 C1096 1.385 . S
C1100 C1099 1.374 . S
C1101 C1098 1.499 . S
C1101 C1102 1.373 1_545 S
C1101 C1103 1.389 . S
C1102 H1075 0.950 . S
C1102 C1088 1.377 . S
C1102 C1101 1.373 1_565 S
C1103 C1087 1.377 . S
C1103 C1101 1.389 . S
C1103 C1104 1.524 . S
C1104 C1103 1.524 . S
C1104 C1105 1.397 . S
C1104 C1109 1.363 . S
C1105 H1076 0.950 . S
C1105 C1104 1.397 . S
C1105 C1106 1.334 . S
C1106 H1077 0.950 . S
C1106 C1105 1.334 . S
C1106 C1107 1.287 . S
C1107 C1106 1.287 . S
C1107 C1108 1.524 . S
C1107 H1110 0.999 . S
C1108 H1078 0.950 . S
C1108 C1107 1.524 . S
C1108 C1109 1.415 . S
C1109 H1079 0.950 . S
C1109 C1104 1.363 . S
C1109 C1108 1.415 . S
H1110 C1107 0.999 . S
H1111 C1092 0.913 . S
H1112 C1130 0.951 . S
H1113 C1132 0.951 . S
H1114 C1134 0.950 . S
H1115 C1135 0.950 . S
H1116 C1137 0.950 . S
H1117 C1140 0.950 . S
H1118 C1141 0.950 . S
H1119 C1143 0.950 . S
H1120 C1144 0.950 . S
H1121 C1145 0.951 . S
H1122 C1147 0.932 1_556 S
H1123 C1149 0.950 1_556 S
H1124 C1150 0.950 . S
H1125 C1152 0.950 . S
H1126 C1155 0.950 . S
H1127 C1156 0.950 . S
H1128 C1158 0.950 . S
H1129 C1159 0.950 . S
C1130 H1112 0.951 . S
C1130 C1131 1.366 . S
C1130 C1132 1.388 . S
C1131 C1130 1.366 . S
C1131 C1135 1.385 . S
C1132 H1113 0.951 . S
C1132 C1130 1.388 . S
C1132 C1133 1.366 . S
C1133 C1132 1.366 . S
C1133 C1134 1.414 . S
C1133 C1136 1.499 . S
C1134 H1114 0.950 . S
C1134 C1133 1.414 . S
C1134 C1135 1.374 . S
C1135 H1115 0.950 . S
C1135 C1131 1.385 . S
C1135 C1134 1.374 . S
C1136 C1133 1.499 . S
C1136 C1137 1.373 . S
C1136 C1138 1.389 . S
C1137 H1116 0.950 . S
C1137 C1136 1.373 . S
C1137 C1153 1.377 . S
C1138 C1136 1.389 . S
C1138 C1139 1.524 . S
C1138 C1152 1.377 . S
C1139 C1138 1.524 . S
C1139 C1140 1.397 . S
C1139 C1144 1.363 . S
C1140 H1117 0.950 . S
C1140 C1139 1.397 . S
C1140 C1141 1.334 . S
C1141 H1118 0.950 . S
C1141 C1140 1.334 . S
C1141 C1142 1.287 . S
C1142 C1141 1.287 . S
C1142 C1143 1.524 . S
C1142 H1161 0.913 . S
C1143 H1119 0.950 . S
C1143 C1142 1.524 . S
C1143 C1144 1.415 . S
C1144 H1120 0.950 . S
C1144 C1139 1.363 . S
C1144 C1143 1.415 . S
C1145 H1121 0.951 . S
C1145 C1146 1.366 . S
C1145 C1147 1.388 . S
C1146 C1145 1.366 . S
C1146 C1150 1.385 . S
C1147 H1122 0.932 1_554 S
C1147 C1145 1.388 . S
C1147 C1148 1.366 1_554 S
C1148 C1147 1.366 1_556 S
C1148 C1149 1.414 1_556 S
C1148 C1151 1.499 . S
C1149 H1123 0.950 1_554 S
C1149 C1148 1.414 1_554 S
C1149 C1150 1.374 . S
C1150 H1124 0.950 . S
C1150 C1146 1.385 . S
C1150 C1149 1.374 . S
C1151 C1148 1.499 . S
C1151 C1152 1.373 . S
C1151 C1153 1.389 . S
C1152 H1125 0.950 . S
C1152 C1138 1.377 . S
C1152 C1151 1.373 . S
C1153 C1137 1.377 . S
C1153 C1151 1.389 . S
C1153 C1154 1.524 . S
C1154 C1153 1.524 . S
C1154 C1155 1.397 . S
C1154 C1159 1.363 . S
C1155 H1126 0.950 . S
C1155 C1154 1.397 . S
C1155 C1156 1.334 1_556 S
C1156 H1127 0.950 . S
C1156 C1155 1.334 1_554 S
C1156 C1157 1.301 . S
C1157 C1156 1.301 . S
C1157 C1158 1.485 1_554 S
C1157 H1160 1.033 . S
C1158 H1128 0.950 . S
C1158 C1157 1.485 1_556 S
C1158 C1159 1.415 . S
C1159 H1129 0.950 . S
C1159 C1154 1.363 . S
C1159 C1158 1.415 . S
H1160 C1157 1.033 . S
H1161 C1142 0.913 . S
H1162 C1180 0.951 . S
H1163 C1182 0.951 . S
H1164 C1184 0.950 . S
H1165 C1185 0.950 . S
H1166 C1187 0.950 . S
H1167 C1190 0.950 . S
H1168 C1191 0.950 . S
H1169 C1193 0.950 . S
H1170 C1194 0.950 . S
H1171 C1195 0.951 . S
H1172 C1197 0.951 . S
H1173 C1199 0.950 . S
H1174 C1200 0.950 . S
H1175 C1202 0.950 1_655 S
H1176 C1205 0.950 . S
H1177 C1206 0.950 . S
H1178 C1208 0.950 . S
H1179 C1209 0.950 . S
C1180 H1162 0.951 . S
C1180 C1181 1.366 1_655 S
C1180 C1182 1.388 . S
C1181 C1180 1.366 1_455 S
C1181 C1185 1.385 . S
C1182 H1163 0.951 . S
C1182 C1180 1.388 . S
C1182 C1183 1.366 1_655 S
C1183 C1182 1.366 1_455 S
C1183 C1184 1.414 . S
C1183 C1186 1.499 . S
C1184 H1164 0.950 . S
C1184 C1183 1.414 . S
C1184 C1185 1.374 . S
C1185 H1165 0.950 . S
C1185 C1181 1.385 . S
C1185 C1184 1.374 . S
C1186 C1183 1.499 . S
C1186 C1187 1.373 . S
C1186 C1188 1.389 . S
C1187 H1166 0.950 . S
C1187 C1186 1.373 . S
C1187 C1203 1.377 . S
C1188 C1186 1.389 . S
C1188 C1189 1.516 1_455 S
C1188 C1202 1.377 . S
C1189 C1188 1.516 1_655 S
C1189 C1190 1.392 1_655 S
C1189 C1194 1.376 . S
C1190 H1167 0.950 . S
C1190 C1189 1.392 1_455 S
C1190 C1191 1.334 . S
C1191 H1168 0.950 . S
C1191 C1190 1.334 . S
C1191 C1192 1.273 1_455 S
C1192 C1191 1.273 1_655 S
C1192 C1193 1.531 . S
C1192 H1211 0.921 . S
C1193 H1169 0.950 . S
C1193 C1192 1.531 . S
C1193 C1194 1.415 . S
C1194 H1170 0.950 . S
C1194 C1189 1.376 . S
C1194 C1193 1.415 . S
C1195 H1171 0.951 . S
C1195 C1196 1.366 . S
C1195 C1197 1.388 . S
C1196 C1195 1.366 . S
C1196 C1200 1.385 1_455 S
C1197 H1172 0.951 . S
C1197 C1195 1.388 . S
C1197 C1198 1.366 . S
C1198 C1197 1.366 . S
C1198 C1199 1.414 1_455 S
C1198 C1201 1.499 . S
C1199 H1173 0.950 . S
C1199 C1198 1.414 1_655 S
C1199 C1200 1.374 . S
C1200 H1174 0.950 . S
C1200 C1196 1.385 1_655 S
C1200 C1199 1.374 . S
C1201 C1198 1.499 . S
C1201 C1202 1.373 . S
C1201 C1203 1.389 . S
C1202 H1175 0.950 1_455 S
C1202 C1188 1.377 . S
C1202 C1201 1.373 . S
C1203 C1187 1.377 . S
C1203 C1201 1.389 . S
C1203 C1204 1.524 . S
C1204 C1203 1.524 . S
C1204 C1205 1.397 1_455 S
C1204 C1209 1.363 . S
C1205 H1176 0.950 . S
C1205 C1204 1.397 1_655 S
C1205 C1206 1.334 . S
C1206 H1177 0.950 . S
C1206 C1205 1.334 . S
C1206 C1207 1.287 1_655 S
C1207 C1206 1.287 1_455 S
C1207 C1208 1.524 . S
C1207 H1210 0.999 . S
C1208 H1178 0.950 . S
C1208 C1207 1.524 . S
C1208 C1209 1.415 . S
C1209 H1179 0.950 . S
C1209 C1204 1.363 . S
C1209 C1208 1.415 . S
H1210 C1207 0.999 . S
H1211 C1192 0.921 . S
C331 C7 0.480 . S
C346 C303 0.436 . S
C381 C51 1.829 . S
C396 C239 1.774 . S
C431 C87 1.149 . S
C446 C271 1.133 . S
C481 C16 0.341 . S
C496 C297 0.313 . S
C546 C233 1.877 . S
C531 C42 1.923 . S
C596 C265 1.248 . S
C581 C96 1.265 . S
C631 C47 1.145 . S
C646 C175 1.142 . S
C681 C91 3.012 . S
C696 C207 2.944 . S
C731 C2 1.956 . S
C746 C137 1.913 . S
C796 C169 1.234 . S
C781 C56 1.243 . S
C846 C201 2.875 . S
C831 C82 2.903 . S
C881 C11 1.818 . S
C896 C143 1.770 . S
C946 C213 1.726 . S
C931 C19 1.697 . S
C981 C50 1.348 . S
C996 C149 1.360 . S
C1031 C99 1.465 . S
C1046 C181 1.485 . S
C1096 C277 1.455 . S
C1081 C59 1.453 . S
C1146 C309 1.129 . S
C1131 C90 1.122 . S
C1181 C10 1.346 . S
C1196 C245 1.350 . S
