# Generated by pormake.
# Topology ftw, (4,12)-cn, num edge types: 1
# Building blocks:
#     Node 0, Type 0, BuildingBlock: KUFVIS_clean_linker_0, # of connection points: 4
#     Node 1, Type 0, BuildingBlock: KUFVIS_clean_linker_0, # of connection points: 4
#     Node 2, Type 0, BuildingBlock: KUFVIS_clean_linker_0, # of connection points: 4
#     Node 3, Type 1, BuildingBlock: QEWDON_clean_sbu_0, # of connection points: 12
#     Edge 4, Type (0, 1), BuildingBlock: TEMPAE_clean_linker_10, # of connection points: 2
#     Edge 5, Type (0, 1), BuildingBlock: TEMPAE_clean_linker_10, # of connection points: 2
#     Edge 6, Type (0, 1), BuildingBlock: TEMPAE_clean_linker_10, # of connection points: 2
#     Edge 7, Type (0, 1), BuildingBlock: TEMPAE_clean_linker_10, # of connection points: 2
#     Edge 8, Type (0, 1), BuildingBlock: TEMPAE_clean_linker_10, # of connection points: 2
#     Edge 9, Type (0, 1), BuildingBlock: TEMPAE_clean_linker_10, # of connection points: 2
#     Edge 10, Type (0, 1), BuildingBlock: TEMPAE_clean_linker_10, # of connection points: 2
#     Edge 11, Type (0, 1), BuildingBlock: TEMPAE_clean_linker_10, # of connection points: 2
#     Edge 12, Type (0, 1), BuildingBlock: TEMPAE_clean_linker_10, # of connection points: 2
#     Edge 13, Type (0, 1), BuildingBlock: TEMPAE_clean_linker_10, # of connection points: 2
#     Edge 14, Type (0, 1), BuildingBlock: TEMPAE_clean_linker_10, # of connection points: 2
#     Edge 15, Type (0, 1), BuildingBlock: TEMPAE_clean_linker_10, # of connection points: 2
# Relax obj value: 0.101
# Max RMSD: 0.259
# Mean RMSD: 0.192
data_MOF--net-ftw--node1-QEWDON_clean_sbu_0--node2-KUFVIS_clean_linker_0--edge1-TEMPAE_clean_linker_10
_symmetry_space_group_name_H-M    P1
_symmetry_Int_Tables_number       1
_symmetry_cell_setting            triclinic
loop_
_symmetry_equiv_pos_as_xyz
'x, y, z'
_cell_length_a     23.699662
_cell_length_b     27.001047
_cell_length_c     24.71033
_cell_angle_alpha  90.03797
_cell_angle_beta   90.145638
_cell_angle_gamma 90.255967
loop_
_atom_site_label
_atom_site_type_symbol
_atom_site_fract_x
_atom_site_fract_y
_atom_site_fract_z
_atom_type_partial_charge
H0 H -0.02146 0.31935 0.53774 0.0
H1 H 0.96591 0.45384 0.62721 0.0
H2 H -0.02198 0.45574 0.45131 0.0
H3 H 0.95626 0.53069 0.45267 0.0
H4 H 0.96164 0.66627 0.54109 0.0
H5 H -0.02309 0.53067 0.62754 0.0
C6 C -0.02309 0.35952 0.53829 0.0
C7 C -0.02208 0.3855 0.4896 0.0
C8 C -0.0268 0.38446 0.5876 0.0
C9 C 0.97049 0.43653 0.58818 0.0
C10 C 0.97169 0.46466 0.5394 0.0
C11 C -0.02421 0.43755 0.49005 0.0
C12 C 0.96811 0.52122 0.53993 0.0
C13 C 0.96097 0.54878 0.49128 0.0
C14 C 0.95855 0.60093 0.49138 0.0
C15 C 0.96166 0.62612 0.54077 0.0
C16 C 0.96658 0.60074 0.58978 0.0
C17 C 0.97127 0.54872 0.58908 0.0
H18 H 0.47693 -0.00224 0.73347 0.0
H19 H 0.56804 0.97971 0.58646 0.0
H20 H 0.38652 0.9863 0.58324 0.0
H21 H 0.39361 0.96004 0.5027 0.0
H22 H 0.49123 0.97951 0.35801 0.0
H23 H 0.56332 0.01858 0.50979 0.0
C24 C 0.47615 -0.00803 0.69019 0.0
C25 C 0.42424 0.98837 0.66239 0.0
C26 C 0.52796 0.98854 0.66309 0.0
C27 C 0.52798 0.98482 0.60649 0.0
C28 C 0.47727 0.98627 0.57627 0.0
C29 C 0.42569 0.98695 0.60518 0.0
C30 C 0.47892 0.9866 0.51503 0.0
C31 C 0.43198 0.9714 0.48314 0.0
C32 C 0.43411 0.97107 0.42588 0.0
C33 C 0.48572 0.98361 0.4012 0.0
C34 C 0.53164 0.00125 0.43131 0.0
C35 C 0.52784 0.00324 0.48775 0.0
H36 H 0.48236 0.66368 0.04813 0.0
H37 H 0.55616 0.52228 0.0756 0.0
H38 H 0.38063 0.53504 0.02591 0.0
H39 H 0.37147 0.46106 0.05304 0.0
H40 H 0.45179 0.32136 0.03195 0.0
H41 H 0.55384 0.4512 0.03939 0.0
C42 C 0.47777 0.6237 0.05064 0.0
C43 C 0.42587 0.60175 0.03964 0.0
C44 C 0.52467 0.59457 0.06143 0.0
C45 C 0.51903 0.54323 0.06505 0.0
C46 C 0.4673 0.51991 0.05175 0.0
C47 C 0.42061 0.55029 0.03894 0.0
C48 C 0.46318 0.46471 0.04727 0.0
C49 C 0.41008 0.44072 0.04726 0.0
C50 C 0.40588 0.38966 0.03867 0.0
C51 C 0.45473 0.36137 0.03555 0.0
C52 C 0.50752 0.38384 0.03769 0.0
C53 C 0.51203 0.43527 0.04118 0.0
Zn54 Zn 0.02927 0.06809 0.99656 0.0
Zn55 Zn 0.0433 0.07302 0.12606 0.0
O56 O 0.0199 0.02651 0.06579 0.0
H57 H 0.02234 -0.00913 0.06542 0.0
C58 C 0.95933 0.13756 0.89252 0.0
O59 O 0.96992 0.09136 0.87944 0.0
Zn60 Zn 0.90726 0.89926 0.12546 0.0
Zn61 Zn 0.91739 0.9014 0.99357 0.0
O62 O 0.92514 0.94413 0.06196 0.0
H63 H 0.92149 0.97967 0.06056 0.0
Zn64 Zn 0.9021 0.09384 0.99074 0.0
O65 O 0.93761 0.08837 0.06573 0.0
Zn66 Zn 0.87715 0.07797 0.12074 0.0
H67 H 0.92468 0.09131 0.02881 0.0
Zn68 Zn 0.05054 0.90186 0.98675 0.0
O69 O 0.01746 0.88679 0.06067 0.0
H70 H -0.01136 0.86146 0.06283 0.0
Zn71 Zn 0.07995 0.89641 0.11542 0.0
C72 C -0.00089 0.81871 0.92237 0.0
O73 O -0.01156 0.80013 0.9704 0.0
O74 O 0.05862 0.13889 1.01151 0.0
O75 O 0.09072 0.12553 0.09487 0.0
O76 O 0.87558 0.83592 1.00929 0.0
O77 O 0.86029 0.84391 0.09788 0.0
O78 O 0.8173 0.10659 0.99875 0.0
O79 O 0.80528 0.10153 0.08807 0.0
C80 C 0.10282 -0.00655 0.18033 0.0
O81 O 0.1365 0.89866 0.99062 0.0
O82 O 0.15075 0.87693 0.07674 0.0
O83 O 0.88516 0.93251 0.9225 0.0
C84 C 0.08939 0.151 0.05171 0.0
O85 O 0.08069 0.04195 0.9344 0.0
C86 C 0.8488 0.97989 0.17812 0.0
O87 O 0.93459 0.14667 0.937 0.0
C88 C 0.85313 0.82139 0.05322 0.0
O89 O 0.02223 0.86125 0.91903 0.0
C90 C 0.944 0.13214 0.19371 0.0
O91 O 0.09088 0.03915 0.18054 0.0
O92 O 0.08269 0.96687 0.14221 0.0
C93 C 0.78716 0.11191 0.04085 0.0
O94 O 0.85816 0.93367 0.17911 0.0
O95 O 0.87598 0.00659 0.14467 0.0
C96 C 0.01253 0.84539 0.18951 0.0
O97 O 0.89281 0.12315 0.18279 0.0
O98 O -0.01771 0.10944 0.16773 0.0
C99 C 0.16781 0.88147 0.02802 0.0
O100 O 0.06435 0.85149 0.17838 0.0
O101 O -0.02371 0.86888 0.16149 0.0
C102 C 0.85239 0.96969 0.9229 0.0
O103 O 0.84346 -0.00724 0.9689 0.0
C104 C 0.07959 0.00459 0.90306 0.0
O105 O 0.0388 0.97178 0.90736 0.0
C106 C 0.02697 0.32947 0.42476 0.0
C107 C -0.02106 0.35669 0.43858 0.0
C108 C 0.02556 0.29496 0.38212 0.0
C109 C -0.02549 0.28678 0.35341 0.0
C110 C 0.92634 0.31545 0.36629 0.0
C111 C 0.92924 0.35024 0.40864 0.0
C112 C 0.078 0.26571 0.36937 0.0
C113 C 0.87099 0.30776 0.33704 0.0
C114 C -0.02357 0.21697 0.21906 0.0
C115 C 0.95777 0.16987 0.23485 0.0
C116 C -0.0176 0.25543 0.25719 0.0
C117 C 0.97039 0.24613 0.31244 0.0
C118 C 0.95298 0.19801 0.32854 0.0
C119 C 0.94603 0.16069 0.28936 0.0
C120 C -0.00013 0.30634 0.23817 0.0
C121 C 0.9407 0.18614 0.38705 0.0
H122 H 0.06514 0.33411 0.44854 0.0
H123 H 0.89186 0.37067 0.42016 0.0
H124 H 0.07068 0.22601 0.37867 0.0
H125 H 0.08789 0.26835 0.32561 0.0
H126 H 0.11521 0.2788 0.39288 0.0
H127 H 0.83856 0.33501 0.34958 0.0
H128 H 0.87725 0.31073 0.29268 0.0
H129 H 0.85466 0.26996 0.34538 0.0
H130 H -0.01569 0.22417 0.17657 0.0
H131 H 0.93088 0.12433 0.30122 0.0
H132 H 0.03786 0.31903 0.26062 0.0
H133 H 0.96573 0.3332 0.24676 0.0
H134 H 0.00912 0.30722 0.19413 0.0
H135 H -0.02203 0.19523 0.41251 0.0
H136 H 0.92968 0.14649 0.39311 0.0
H137 H 0.90515 0.20913 0.40161 0.0
C138 C 0.58116 0.04822 0.35813 0.0
C139 C 0.58405 0.01617 0.40269 0.0
C140 C 0.62773 0.05501 0.32391 0.0
C141 C 0.67796 0.02838 0.33401 0.0
C142 C 0.68266 -0.00042 0.38179 0.0
C143 C 0.63561 -0.00599 0.41579 0.0
C144 C 0.62128 0.08699 0.27424 0.0
C145 C 0.73537 0.97047 0.39411 0.0
C146 C 0.75275 0.97151 0.21445 0.0
C147 C 0.80288 -0.001 0.21216 0.0
C148 C 0.71114 0.98214 0.25264 0.0
C149 C 0.71972 0.0215 0.2897 0.0
C150 C 0.76916 0.05114 0.28589 0.0
C151 C 0.8106 0.03921 0.24722 0.0
C152 C 0.6592 0.94947 0.25492 0.0
C153 C 0.77962 0.09377 0.32415 0.0
H154 H 0.54149 0.0661 0.34853 0.0
H155 H 0.63796 0.96937 0.45034 0.0
H156 H 0.66038 0.10856 0.26645 0.0
H157 H 0.61343 0.06303 0.23848 0.0
H158 H 0.58534 0.11302 0.27816 0.0
H159 H 0.73586 0.95657 0.43641 0.0
H160 H 0.73772 0.93821 0.36635 0.0
H161 H 0.77361 -0.00655 0.38739 0.0
H162 H 0.74696 0.94029 0.18729 0.0
H163 H 0.85012 0.05939 0.24662 0.0
H164 H 0.62053 0.97228 0.25177 0.0
H165 H 0.65768 0.92982 0.29432 0.0
H166 H 0.65832 0.92141 0.22202 0.0
H167 H 0.74103 0.1165 0.32863 0.0
H168 H 0.81476 0.11794 0.31021 0.0
H169 H 0.79061 0.07916 0.36475 0.0
C170 C -0.01124 0.61891 0.39559 0.0
C171 C 0.95481 0.63038 0.44028 0.0
C172 C -0.00766 0.65114 0.35092 0.0
C173 C 0.96192 0.69627 0.35126 0.0
C174 C 0.9251 0.70656 0.3948 0.0
C175 C 0.92152 0.67331 0.43833 0.0
C176 C 0.03105 0.6381 0.30472 0.0
C177 C 0.89216 0.75428 0.39717 0.0
C178 C 0.0301 0.8049 0.27817 0.0
C179 C -0.0038 0.80952 0.23197 0.0
C180 C 0.01869 0.76879 0.3175 0.0
C181 C -0.02665 0.73514 0.3096 0.0
C182 C 0.93901 0.73944 0.26273 0.0
C183 C 0.95031 0.77719 0.2248 0.0
C184 C 0.05536 0.76671 0.36754 0.0
C185 C 0.89154 0.70331 0.25187 0.0
H186 H 0.01476 0.58601 0.39664 0.0
H187 H 0.89412 0.68197 0.47207 0.0
H188 H 0.00958 0.64425 0.26535 0.0
H189 H 0.06884 0.66248 0.30582 0.0
H190 H 0.04528 0.59899 0.30675 0.0
H191 H 0.86241 0.75515 0.43183 0.0
H192 H 0.92185 0.78599 0.40111 0.0
H193 H 0.86789 0.75973 0.35925 0.0
H194 H 0.06566 0.82985 0.28366 0.0
H195 H 0.9247 0.78017 0.18853 0.0
H196 H 0.07755 0.73068 0.3694 0.0
H197 H 0.0288 0.76957 0.40433 0.0
H198 H 0.08741 0.79687 0.36853 0.0
H199 H 0.90889 0.66538 0.24783 0.0
H200 H 0.86779 0.71245 0.21439 0.0
H201 H 0.86171 0.70267 0.28637 0.0
C202 C 0.33539 0.93409 0.41135 0.0
C203 C 0.38265 0.96025 0.39135 0.0
C204 C 0.28546 0.92911 0.38053 0.0
C205 C 0.28329 0.94845 0.32735 0.0
C206 C 0.33173 0.97149 0.30546 0.0
C207 C 0.37954 0.9786 0.33799 0.0
C208 C 0.23409 0.90546 0.40587 0.0
C209 C 0.33198 -0.0081 0.24849 0.0
C210 C 0.16929 0.9296 0.2202 0.0
C211 C 0.14106 0.975 0.22356 0.0
C212 C 0.21259 0.91779 0.25735 0.0
C213 C 0.22873 0.95283 0.29747 0.0
C214 C 0.1975 -0.00301 0.30314 0.0
C215 C 0.1538 0.00705 0.2668 0.0
C216 C 0.24358 0.86951 0.25121 0.0
C217 C 0.21331 0.03599 0.34452 0.0
H218 H 0.33635 0.91817 0.45145 0.0
H219 H 0.41344 0.00067 0.3214 0.0
H220 H 0.20179 0.93425 0.41352 0.0
H221 H 0.21498 0.87791 0.37791 0.0
H222 H 0.2441 0.88702 0.44487 0.0
H223 H 0.37512 0.00216 0.23489 0.0
H224 H 0.31434 0.96434 0.21967 0.0
H225 H 0.30508 0.02539 0.24657 0.0
H226 H 0.1598 0.90453 0.1872 0.0
H227 H 0.13162 0.0419 0.27068 0.0
H228 H 0.2528 0.85297 0.29135 0.0
H229 H 0.2845 0.87638 0.23078 0.0
H230 H 0.21905 0.8424 0.22668 0.0
H231 H 0.21944 0.01907 0.38496 0.0
H232 H 0.1809 0.06543 0.34785 0.0
H233 H 0.25382 0.05369 0.33274 0.0
C234 C 0.92928 0.66944 0.64793 0.0
C235 C 0.96699 0.62986 0.64125 0.0
C236 C 0.93195 0.70048 0.6935 0.0
C237 C -0.0269 0.69168 0.73392 0.0
C238 C 0.01022 0.65093 0.72831 0.0
C239 C 0.00673 0.62051 0.68208 0.0
C240 C 0.89143 0.74333 0.69777 0.0
C241 C 0.05454 0.64017 0.7706 0.0
C242 C 0.01843 0.79892 0.82492 0.0
C243 C -0.01051 0.78826 0.87305 0.0
C244 C 0.01336 0.76793 0.77935 0.0
C245 C -0.02213 0.72559 0.7816 0.0
C246 C 0.94718 0.71555 0.82951 0.0
C247 C 0.9537 0.74674 0.87475 0.0
C248 C 0.04685 0.78005 0.72913 0.0
C249 C 0.90788 0.67152 0.83319 0.0
H250 H 0.89783 0.67653 0.61698 0.0
H251 H 0.03631 0.59036 0.67709 0.0
H252 H 0.86861 0.74189 0.73688 0.0
H253 H 0.91522 0.7788 0.69681 0.0
H254 H 0.85998 0.74353 0.66436 0.0
H255 H 0.07889 0.60617 0.76126 0.0
H256 H 0.08435 0.67188 0.77359 0.0
H257 H 0.03451 0.63569 0.81084 0.0
H258 H 0.04639 0.83077 0.8233 0.0
H259 H 0.93085 0.73845 0.91163 0.0
H260 H 0.01805 0.78431 0.69399 0.0
H261 H 0.0759 0.74913 0.71966 0.0
H262 H 0.07209 0.81458 0.73368 0.0
H263 H 0.87576 0.67324 0.8005 0.0
H264 H 0.88581 0.66961 0.87276 0.0
H265 H 0.93198 0.6368 0.82734 0.0
C266 C 0.31718 -0.00133 0.67007 0.0
C267 C 0.36937 0.98557 0.69358 0.0
C268 C 0.26644 -0.0039 0.69958 0.0
C269 C 0.26774 0.98333 0.75509 0.0
C270 C 0.31958 0.96974 0.77913 0.0
C271 C 0.3689 0.96916 0.74778 0.0
C272 C 0.21153 0.00837 0.67161 0.0
C273 C 0.3235 0.95755 0.83872 0.0
C274 C 0.15908 0.03976 0.84916 0.0
C275 C 0.12496 -0.00109 0.86224 0.0
C276 C 0.20443 0.03533 0.8132 0.0
C277 C 0.21633 0.98881 0.78946 0.0
C278 C 0.18106 0.94759 0.8012 0.0
C279 C 0.13567 0.95316 0.83743 0.0
C280 C 0.24072 0.08031 0.80199 0.0
C281 C 0.19166 0.89755 0.77605 0.0
H282 H 0.31525 0.01194 0.62888 0.0
H283 H 0.40721 0.95605 0.76667 0.0
H284 H 0.17843 0.98091 0.68239 0.0
H285 H 0.19665 0.04522 0.68514 0.0
H286 H 0.21602 0.00908 0.62687 0.0
H287 H 0.36716 0.94824 0.85148 0.0
H288 H 0.30905 0.98968 0.863 0.0
H289 H 0.29545 0.92587 0.84855 0.0
H290 H 0.15067 0.07544 0.86754 0.0
H291 H 0.10942 0.92144 0.84725 0.0
H292 H 0.24173 0.08803 0.75794 0.0
H293 H 0.28474 0.07312 0.81513 0.0
H294 H 0.2253 0.11393 0.82315 0.0
H295 H 0.19274 0.90091 0.73131 0.0
H296 H 0.15888 0.86989 0.78733 0.0
H297 H 0.23337 0.8834 0.78912 0.0
C298 C 0.01387 0.35892 0.67713 0.0
C299 C 0.9711 0.35479 0.63812 0.0
C300 C 0.0161 0.32614 0.7214 0.0
C301 C -0.02593 0.28895 0.72702 0.0
C302 C 0.92973 0.28594 0.68857 0.0
C303 C 0.9291 0.31858 0.64441 0.0
C304 C 0.06438 0.3302 0.76111 0.0
C305 C 0.88352 0.24749 0.69341 0.0
C306 C -0.00131 0.16926 0.8048 0.0
C307 C 0.96915 0.17813 0.85294 0.0
C308 C 0.00295 0.20586 0.76452 0.0
C309 C -0.02344 0.25234 0.77225 0.0
C310 C 0.94858 0.26216 0.82163 0.0
C311 C 0.94549 0.2251 0.86145 0.0
C312 C 0.03385 0.19406 0.71277 0.0
C313 C 0.91955 0.31101 0.83142 0.0
H314 H 0.04677 0.38651 0.67179 0.0
H315 H 0.8961 0.31538 0.6141 0.0
H316 H 0.04806 0.33349 0.80299 0.0
H317 H 0.09019 0.29604 0.75944 0.0
H318 H 0.09212 0.36252 0.75257 0.0
H319 H 0.85071 0.25157 0.66155 0.0
H320 H 0.90182 0.20986 0.69029 0.0
H321 H 0.86298 0.25027 0.73359 0.0
H322 H 0.01747 0.13326 0.798 0.0
H323 H 0.92259 0.23244 0.89848 0.0
H324 H 0.06459 0.22388 0.70319 0.0
H325 H 0.00331 0.19205 0.67872 0.0
H326 H 0.05669 0.15828 0.71514 0.0
H327 H 0.94905 0.34222 0.82378 0.0
H328 H 0.90317 0.31423 0.87335 0.0
H329 H 0.8837 0.315 0.8028 0.0
C330 C 0.58502 0.96033 0.74287 0.0
C331 C 0.58191 0.98753 0.69461 0.0
C332 C 0.6341 0.96037 0.77472 0.0
C333 C 0.6819 0.98795 0.7579 0.0
C334 C 0.67987 0.0144 0.70842 0.0
C335 C 0.62986 0.01396 0.67739 0.0
C336 C 0.63439 0.93135 0.82697 0.0
C337 C 0.73006 0.04392 0.68888 0.0
C338 C 0.77791 0.01979 0.87621 0.0
C339 C 0.81638 0.98045 0.875 0.0
C340 C 0.73637 0.02489 0.83591 0.0
C341 C 0.73297 0.98968 0.79345 0.0
C342 C 0.77445 0.95222 0.78973 0.0
C343 C 0.81571 0.94813 0.83044 0.0
C344 C 0.69368 0.06597 0.84098 0.0
C345 C 0.77291 0.91416 0.74496 0.0
H346 H 0.54879 0.93884 0.75591 0.0
H347 H 0.62791 0.03524 0.64026 0.0
H348 H 0.66943 0.90423 0.82679 0.0
H349 H 0.64161 0.9568 0.8616 0.0
H350 H 0.59416 0.91104 0.83375 0.0
H351 H 0.72341 0.05911 0.6476 0.0
H352 H 0.73833 0.07516 0.71703 0.0
H353 H 0.76842 0.02051 0.68864 0.0
H354 H 0.77849 0.04537 0.91002 0.0
H355 H 0.84554 0.91785 0.82876 0.0
H356 H 0.65212 0.05001 0.85227 0.0
H357 H 0.68825 0.08522 0.80169 0.0
H358 H 0.70604 0.09366 0.87217 0.0
H359 H 0.73753 0.88795 0.75216 0.0
H360 H 0.81268 0.89262 0.74281 0.0
H361 H 0.76543 0.93209 0.70523 0.0
C362 C 0.34356 0.32935 0.99204 0.0
C363 C 0.35084 0.36484 0.03288 0.0
C364 C 0.29572 0.29914 0.99081 0.0
C365 C 0.25379 0.30568 0.03068 0.0
C366 C 0.25876 0.34408 0.06941 0.0
C367 C 0.30771 0.37323 0.07028 0.0
C368 C 0.29256 0.2576 0.94986 0.0
C369 C 0.21451 0.35182 0.1124 0.0
C370 C 0.11869 0.23237 1.01293 0.0
C371 C 0.1294 0.19209 0.04696 0.0
C372 C 0.15834 0.27076 1.00817 0.0
C373 C 0.20981 0.26756 0.03706 0.0
C374 C 0.22083 0.22664 0.07103 0.0
C375 C 0.18011 0.18967 0.07601 0.0
C376 C 0.14551 0.31445 0.97221 0.0
C377 C 0.27614 0.22116 0.10112 0.0
H378 H 0.37667 0.32364 0.96249 0.0
H379 H 0.31353 0.40059 0.10195 0.0
H380 H 0.29831 0.22161 0.97079 0.0
H381 H 0.25059 0.25664 0.92998 0.0
H382 H 0.32554 0.26105 0.91819 0.0
H383 H 0.22019 0.3877 0.13379 0.0
H384 H 0.17159 0.35053 0.09439 0.0
H385 H 0.21712 0.32158 0.14269 0.0
H386 H 0.07934 0.23399 0.99053 0.0
H387 H 0.18878 0.15798 0.10163 0.0
H388 H 0.17693 0.31672 0.9391 0.0
H389 H 0.14891 0.34931 0.99585 0.0
H390 H 0.10265 0.31208 0.95405 0.0
H391 H 0.31166 0.22049 0.07197 0.0
H392 H 0.2777 0.18676 0.12573 0.0
H393 H 0.28301 0.25327 0.12838 0.0
C394 C 0.3381 0.64547 0.06321 0.0
C395 C 0.37901 0.63395 0.02473 0.0
C396 C 0.30244 0.68599 0.05531 0.0
C397 C 0.30873 0.71518 1.00805 0.0
C398 C 0.34721 0.70118 0.96732 0.0
C399 C 0.38217 0.66049 0.97628 0.0
C400 C 0.2608 0.69946 0.09907 0.0
C401 C 0.35465 0.73133 0.91638 0.0
C402 C 0.19211 0.80564 0.98101 0.0
C403 C 0.21082 0.84663 1.01098 0.0
C404 C 0.22443 0.76277 0.97804 0.0
C405 C 0.27784 0.76219 1.00335 0.0
C406 C 0.29935 0.80539 0.02897 0.0
C407 C 0.26457 0.84696 0.03404 0.0
C408 C 0.19884 0.71686 0.9528 0.0
C409 C 0.35738 0.80648 0.05425 0.0
H410 H 0.33657 0.62487 0.10085 0.0
H411 H 0.4145 0.65124 0.94701 0.0
H412 H 0.27509 0.73374 0.11986 0.0
H413 H 0.21869 0.70704 0.08126 0.0
H414 H 0.25639 0.66971 0.12983 0.0
H415 H 0.38111 0.71195 0.88603 0.0
H416 H 0.3132 0.73985 0.89774 0.0
H417 H 0.37517 0.76715 0.92669 0.0
H418 H 0.14963 0.80529 0.96445 0.0
H419 H 0.27828 0.87863 0.05774 0.0
H420 H 0.18684 0.69055 0.98534 0.0
H421 H 0.22967 0.69784 0.9264 0.0
H422 H 0.16046 0.72538 0.92866 0.0
H423 H 0.3572 0.78419 0.09195 0.0
H424 H 0.37106 0.84478 0.06444 0.0
H425 H 0.38882 0.78987 0.02648 0.0
C426 C 0.5633 0.31943 0.08253 0.0
C427 C 0.55714 0.35189 0.03893 0.0
C428 C 0.6025 0.28117 0.0806 0.0
C429 C 0.63621 0.27569 0.03389 0.0
C430 C 0.6324 0.31018 0.9909 0.0
C431 C 0.59239 0.34816 0.99388 0.0
C432 C 0.60626 0.24553 0.12762 0.0
C433 C 0.66893 0.30578 0.94118 0.0
C434 C 0.76407 0.19767 0.05828 0.0
C435 C 0.74625 0.15165 0.03839 0.0
C436 C 0.72973 0.23911 0.05428 0.0
C437 C 0.67567 0.23384 0.03097 0.0
C438 C 0.65766 0.18746 1.00983 0.0
C439 C 0.69395 0.14659 1.013 0.0
C440 C 0.7509 0.28812 0.07609 0.0
C441 C 0.59973 0.18087 0.98535 0.0
H442 H 0.53555 0.32281 0.11718 0.0
H443 H 0.5868 0.37337 0.96017 0.0
H444 H 0.59567 0.20751 0.11373 0.0
H445 H 0.64998 0.24467 0.14372 0.0
H446 H 0.57732 0.25558 0.16113 0.0
H447 H 0.66411 0.338 0.91363 0.0
H448 H 0.714 0.30255 0.95285 0.0
H449 H 0.65745 0.27162 0.91866 0.0
H450 H 0.80565 0.20133 0.07644 0.0
H451 H 0.68134 0.11094 0.99664 0.0
H452 H 0.72575 0.29891 0.11197 0.0
H453 H 0.74568 0.31764 0.0453 0.0
H454 H 0.79607 0.28665 0.08815 0.0
H455 H 0.5672 0.18718 1.01683 0.0
H456 H 0.59347 0.14324 0.96806 0.0
H457 H 0.5928 0.20867 0.95301 0.0
C458 C 0.59636 0.6397 1.00952 0.0
C459 C 0.58042 0.61774 0.05841 0.0
C460 C 0.64544 0.66809 1.00611 0.0
C461 C 0.67914 0.67428 0.05288 0.0
C462 C 0.66479 0.64985 0.10173 0.0
C463 C 0.61514 0.62153 0.10395 0.0
C464 C 0.65877 0.69432 0.95364 0.0
C465 C 0.69994 0.6562 0.15231 0.0
C466 C 0.82214 0.73501 0.03526 0.0
C467 C 0.80975 0.7833 0.05129 0.0
C468 C 0.78002 0.69841 0.03642 0.0
C469 C 0.72473 0.71149 0.05246 0.0
C470 C 0.71204 0.76087 0.06697 0.0
C471 C 0.75516 0.79609 0.06699 0.0
C472 C 0.79461 0.6459 1.02119 0.0
C473 C 0.65301 0.77663 0.08217 0.0
H474 H 0.56903 0.63618 0.97442 0.0
H475 H 0.60216 0.60437 0.1416 0.0
H476 H 0.65157 0.73465 0.95861 0.0
H477 H 0.70371 0.6893 0.94266 0.0
H478 H 0.63202 0.68086 0.91964 0.0
H479 H 0.68696 0.63019 0.18485 0.0
H480 H 0.74526 0.65039 0.14322 0.0
H481 H 0.69549 0.69461 0.16768 0.0
H482 H 0.86478 0.72577 0.0232 0.0
H483 H 0.74615 0.83398 0.07872 0.0
H484 H 0.7675 0.6332 0.9872 0.0
H485 H 0.78621 0.62095 0.05595 0.0
H486 H 0.83951 0.64206 1.00915 0.0
H487 H 0.62319 0.76775 0.04883 0.0
H488 H 0.65033 0.81692 0.09091 0.0
H489 H 0.63873 0.75595 0.11844 0.0
loop_
_geom_bond_atom_site_label_1
_geom_bond_atom_site_label_2
_geom_bond_distance
_geom_bond_site_symmetry_2
_ccdc_geom_bond_type
H0 C6 0.930 . S
H1 C9 0.931 . S
H2 C11 0.931 . S
H3 C13 0.930 . S
H4 C15 0.930 . S
H5 C17 0.931 . S
C6 H0 0.930 . S
C6 C7 1.381 . S
C6 C8 1.393 1_655 S
C7 C6 1.381 . S
C7 C11 1.382 . S
C8 C6 1.393 1_455 S
C8 C9 1.400 . S
C9 H1 0.931 . S
C9 C8 1.400 . S
C9 C10 1.375 . S
C10 C9 1.375 . S
C10 C11 1.415 1_455 S
C10 C12 1.501 . S
C11 H2 0.931 . S
C11 C7 1.382 . S
C11 C10 1.415 1_655 S
C12 C10 1.501 . S
C12 C13 1.384 . S
C12 C17 1.408 1_455 S
C13 H3 0.930 . S
C13 C12 1.384 . S
C13 C14 1.389 . S
C14 C13 1.389 . S
C14 C15 1.405 . S
C15 H4 0.930 . S
C15 C14 1.405 . S
C15 C16 1.364 1_455 S
C16 C15 1.364 1_655 S
C16 C17 1.400 . S
C17 H5 0.931 . S
C17 C12 1.408 1_655 S
C17 C16 1.400 . S
H18 C24 0.930 . S
H19 C27 0.931 . S
H20 C29 0.931 . S
H21 C31 0.930 . S
H22 C33 0.930 . S
H23 C35 0.931 . S
C24 H18 0.930 . S
C24 C25 1.380 . S
C24 C26 1.394 1_545 S
C25 C24 1.380 . S
C25 C29 1.382 . S
C26 C24 1.394 1_565 S
C26 C27 1.400 . S
C27 H19 0.931 . S
C27 C26 1.400 . S
C27 C28 1.375 . S
C28 C27 1.375 . S
C28 C29 1.415 1_565 S
C28 C30 1.501 . S
C29 H20 0.931 . S
C29 C25 1.382 . S
C29 C28 1.415 1_545 S
C30 C28 1.501 . S
C30 C31 1.384 . S
C30 C35 1.408 1_565 S
C31 H21 0.930 . S
C31 C30 1.384 . S
C31 C32 1.389 . S
C32 C31 1.389 . S
C32 C33 1.405 . S
C33 H22 0.930 . S
C33 C32 1.405 . S
C33 C34 1.364 1_565 S
C34 C33 1.364 1_545 S
C34 C35 1.400 . S
C35 H23 0.931 . S
C35 C30 1.408 1_545 S
C35 C34 1.400 . S
H36 C42 0.930 . S
H37 C45 0.931 . S
H38 C47 0.931 . S
H39 C49 0.930 . S
H40 C51 0.930 . S
H41 C53 0.931 . S
C42 H36 0.930 . S
C42 C43 1.380 . S
C42 C44 1.394 . S
C43 C42 1.380 . S
C43 C47 1.382 . S
C44 C42 1.394 . S
C44 C45 1.400 . S
C45 H37 0.931 . S
C45 C44 1.400 . S
C45 C46 1.375 . S
C46 C45 1.375 . S
C46 C47 1.415 . S
C46 C48 1.501 . S
C47 H38 0.931 . S
C47 C43 1.382 . S
C47 C46 1.415 . S
C48 C46 1.501 . S
C48 C49 1.384 . S
C48 C53 1.408 . S
C49 H39 0.930 . S
C49 C48 1.384 . S
C49 C50 1.389 . S
C50 C49 1.389 . S
C50 C51 1.405 . S
C51 H40 0.930 . S
C51 C50 1.405 . S
C51 C52 1.364 . S
C52 C51 1.364 . S
C52 C53 1.400 . S
C53 H41 0.931 . S
C53 C48 1.408 . S
C53 C52 1.400 . S
Zn54 O56 1.933 1_556 S
Zn54 O74 1.985 . S
Zn54 O85 1.955 . S
Zn55 O56 1.911 . S
Zn55 O75 1.970 . S
Zn55 O91 1.945 . S
Zn55 O98 1.981 . S
O56 Zn54 1.933 1_554 S
O56 Zn55 1.911 . S
O56 H57 0.841 . S
H57 O56 0.841 . S
C58 O59 1.246 . S
C58 O87 1.276 1_455 S
O59 C58 1.246 . S
Zn60 O62 1.911 . S
Zn60 O77 1.970 . S
Zn60 O94 1.945 . S
Zn60 O101 1.981 . S
Zn61 O62 1.933 1_556 S
Zn61 O76 1.985 . S
Zn61 O83 1.955 . S
O62 Zn60 1.911 . S
O62 Zn61 1.933 1_554 S
O62 H63 0.841 . S
H63 O62 0.841 . S
Zn64 O65 1.933 1_556 S
Zn64 O78 1.985 . S
Zn64 O87 1.955 . S
O65 Zn64 1.933 1_554 S
O65 Zn66 1.911 . S
O65 H67 0.841 . S
Zn66 O65 1.911 . S
Zn66 O79 1.970 . S
Zn66 O95 1.981 . S
Zn66 O97 1.945 . S
H67 O65 0.841 . S
Zn68 O69 1.933 1_556 S
Zn68 O81 1.985 . S
Zn68 O89 1.955 . S
O69 Zn68 1.933 1_554 S
O69 H70 0.841 . S
O69 Zn71 1.911 . S
H70 O69 0.841 . S
Zn71 O69 1.911 . S
Zn71 O82 1.970 . S
Zn71 O92 1.981 . S
Zn71 O100 1.945 . S
C72 O73 1.246 . S
C72 O89 1.276 1_655 S
O73 C72 1.246 . S
O74 Zn54 1.985 . S
O74 C84 1.245 1_556 S
O75 Zn55 1.970 . S
O75 C84 1.263 . S
O76 Zn61 1.985 . S
O76 C88 1.245 1_556 S
O77 Zn60 1.970 . S
O77 C88 1.263 . S
O78 Zn64 1.985 . S
O78 C93 1.245 1_556 S
O79 Zn66 1.970 . S
O79 C93 1.263 . S
C80 O91 1.262 . S
C80 O92 1.245 1_545 S
O81 Zn68 1.985 . S
O81 C99 1.245 1_556 S
O82 Zn71 1.970 . S
O82 C99 1.263 . S
O83 Zn61 1.955 . S
O83 C102 1.276 1_565 S
C84 O74 1.245 1_554 S
C84 O75 1.263 . S
O85 Zn54 1.955 . S
O85 C104 1.276 1_545 S
C86 O94 1.261 1_545 S
C86 O95 1.245 . S
O87 C58 1.276 1_655 S
O87 Zn64 1.955 . S
C88 O76 1.245 1_554 S
C88 O77 1.263 . S
O89 Zn68 1.955 . S
O89 C72 1.276 1_455 S
C90 O97 1.245 1_455 S
C90 O98 1.254 . S
O91 Zn55 1.945 . S
O91 C80 1.262 . S
O92 Zn71 1.981 . S
O92 C80 1.245 1_565 S
C93 O78 1.245 1_554 S
C93 O79 1.263 . S
O94 Zn60 1.945 . S
O94 C86 1.261 1_565 S
O95 Zn66 1.981 . S
O95 C86 1.245 . S
C96 O100 1.282 . S
C96 O101 1.234 1_455 S
O97 Zn66 1.945 . S
O97 C90 1.245 1_655 S
O98 Zn55 1.981 . S
O98 C90 1.254 . S
C99 O81 1.245 1_554 S
C99 O82 1.263 . S
O100 Zn71 1.945 . S
O100 C96 1.282 . S
O101 Zn60 1.981 . S
O101 C96 1.234 1_655 S
C102 O83 1.276 1_545 S
C102 O103 1.246 . S
O103 C102 1.246 . S
C104 O85 1.276 1_565 S
C104 O105 1.246 . S
O105 C104 1.246 . S
C106 C107 1.391 1_455 S
C106 C108 1.394 . S
C106 H122 0.931 . S
C107 C106 1.391 1_655 S
C107 C111 1.376 . S
C108 C106 1.394 . S
C108 C109 1.369 . S
C108 C112 1.531 . S
C109 C108 1.369 . S
C109 C110 1.410 1_455 S
C109 C117 1.503 . S
C110 C109 1.410 1_655 S
C110 C111 1.392 . S
C110 C113 1.511 . S
C111 C107 1.376 . S
C111 C110 1.392 . S
C111 H123 0.929 . S
C112 C108 1.531 . S
C112 H124 0.960 . S
C112 H125 0.962 . S
C112 H126 0.960 . S
C113 C110 1.511 . S
C113 H127 0.961 . S
C113 H128 0.961 . S
C113 H129 0.961 . S
C114 C115 1.370 . S
C114 C116 1.363 . S
C114 H130 0.931 . S
C115 C114 1.370 . S
C115 C119 1.408 . S
C116 C114 1.363 . S
C116 C117 1.370 . S
C116 C120 1.524 . S
C117 C109 1.503 . S
C117 C116 1.370 . S
C117 C118 1.403 . S
C118 C117 1.403 . S
C118 C119 1.404 . S
C118 C121 1.539 1_455 S
C119 C115 1.408 . S
C119 C118 1.404 . S
C119 H131 0.930 . S
C120 C116 1.524 . S
C120 H132 0.956 . S
C120 H133 0.961 1_455 S
C120 H134 0.961 . S
C121 C118 1.539 1_655 S
C121 H135 0.958 1_655 S
C121 H136 0.961 . S
C121 H137 0.960 . S
H122 C106 0.931 . S
H123 C111 0.929 . S
H124 C112 0.960 . S
H125 C112 0.962 . S
H126 C112 0.960 . S
H127 C113 0.961 . S
H128 C113 0.961 . S
H129 C113 0.961 . S
H130 C114 0.931 . S
H131 C119 0.930 . S
H132 C120 0.956 . S
H133 C120 0.961 1_655 S
H134 C120 0.961 . S
H135 C121 0.958 1_455 S
H136 C121 0.961 . S
H137 C121 0.960 . S
C138 C139 1.391 . S
C138 C140 1.394 . S
C138 H154 0.931 . S
C139 C138 1.391 . S
C139 C143 1.376 1_545 S
C140 C138 1.394 . S
C140 C141 1.369 . S
C140 C144 1.531 . S
C141 C140 1.369 . S
C141 C142 1.410 1_545 S
C141 C149 1.503 . S
C142 C141 1.410 1_565 S
C142 C143 1.392 . S
C142 C145 1.511 . S
C143 C139 1.376 1_565 S
C143 C142 1.392 . S
C143 H155 0.929 . S
C144 C140 1.531 . S
C144 H156 0.960 . S
C144 H157 0.962 . S
C144 H158 0.960 . S
C145 C142 1.511 . S
C145 H159 0.961 . S
C145 H160 0.961 . S
C145 H161 0.961 1_565 S
C146 C147 1.370 1_565 S
C146 C148 1.363 . S
C146 H162 0.931 . S
C147 C146 1.370 1_545 S
C147 C151 1.408 . S
C148 C146 1.363 . S
C148 C149 1.370 1_565 S
C148 C152 1.524 . S
C149 C141 1.503 . S
C149 C148 1.370 1_545 S
C149 C150 1.403 . S
C150 C149 1.403 . S
C150 C151 1.404 . S
C150 C153 1.539 . S
C151 C147 1.408 . S
C151 C150 1.404 . S
C151 H163 0.930 . S
C152 C148 1.524 . S
C152 H164 0.956 . S
C152 H165 0.961 . S
C152 H166 0.961 . S
C153 C150 1.539 . S
C153 H167 0.958 . S
C153 H168 0.961 . S
C153 H169 0.960 . S
H154 C138 0.931 . S
H155 C143 0.929 . S
H156 C144 0.960 . S
H157 C144 0.962 . S
H158 C144 0.960 . S
H159 C145 0.961 . S
H160 C145 0.961 . S
H161 C145 0.961 1_545 S
H162 C146 0.931 . S
H163 C151 0.930 . S
H164 C152 0.956 . S
H165 C152 0.961 . S
H166 C152 0.961 . S
H167 C153 0.958 . S
H168 C153 0.961 . S
H169 C153 0.960 . S
C170 C171 1.391 . S
C170 C172 1.394 . S
C170 H186 0.931 . S
C171 C170 1.391 . S
C171 C175 1.376 1_455 S
C172 C170 1.394 . S
C172 C173 1.369 1_455 S
C172 C176 1.531 . S
C173 C172 1.369 1_655 S
C173 C174 1.410 . S
C173 C181 1.503 . S
C174 C173 1.410 . S
C174 C175 1.392 . S
C174 C177 1.511 . S
C175 C171 1.376 1_655 S
C175 C174 1.392 . S
C175 H187 0.929 . S
C176 C172 1.531 . S
C176 H188 0.960 . S
C176 H189 0.962 . S
C176 H190 0.960 . S
C177 C174 1.511 . S
C177 H191 0.961 . S
C177 H192 0.961 . S
C177 H193 0.961 . S
C178 C179 1.370 1_455 S
C178 C180 1.363 . S
C178 H194 0.931 . S
C179 C178 1.370 1_655 S
C179 C183 1.408 . S
C180 C178 1.363 . S
C180 C181 1.370 1_455 S
C180 C184 1.524 . S
C181 C173 1.503 . S
C181 C180 1.370 1_655 S
C181 C182 1.403 . S
C182 C181 1.403 . S
C182 C183 1.404 . S
C182 C185 1.539 . S
C183 C179 1.408 . S
C183 C182 1.404 . S
C183 H195 0.930 . S
C184 C180 1.524 . S
C184 H196 0.956 . S
C184 H197 0.961 . S
C184 H198 0.961 . S
C185 C182 1.539 . S
C185 H199 0.958 . S
C185 H200 0.961 . S
C185 H201 0.960 . S
H186 C170 0.931 . S
H187 C175 0.929 . S
H188 C176 0.960 . S
H189 C176 0.962 . S
H190 C176 0.960 . S
H191 C177 0.961 . S
H192 C177 0.961 . S
H193 C177 0.961 . S
H194 C178 0.931 . S
H195 C183 0.930 . S
H196 C184 0.956 . S
H197 C184 0.961 . S
H198 C184 0.961 . S
H199 C185 0.958 . S
H200 C185 0.961 . S
H201 C185 0.960 . S
C202 C203 1.391 . S
C202 C204 1.394 1_565 S
C202 H218 0.931 . S
C203 C202 1.391 . S
C203 C207 1.375 1_565 S
C204 C202 1.394 1_545 S
C204 C205 1.369 . S
C204 C208 1.531 . S
C205 C204 1.369 . S
C205 C206 1.410 . S
C205 C213 1.503 1_545 S
C206 C205 1.410 . S
C206 C207 1.393 . S
C206 C209 1.511 . S
C207 C203 1.375 1_545 S
C207 C206 1.393 . S
C207 H219 0.929 . S
C208 C204 1.531 . S
C208 H220 0.960 . S
C208 H221 0.962 1_545 S
C208 H222 0.960 . S
C209 C206 1.511 . S
C209 H223 0.961 1_545 S
C209 H224 0.961 1_545 S
C209 H225 0.961 . S
C210 C211 1.370 . S
C210 C212 1.363 . S
C210 H226 0.931 . S
C211 C210 1.370 . S
C211 C215 1.408 1_565 S
C212 C210 1.363 . S
C212 C213 1.370 . S
C212 C216 1.524 . S
C213 C205 1.503 1_565 S
C213 C212 1.370 . S
C213 C214 1.403 1_565 S
C214 C213 1.403 1_545 S
C214 C215 1.404 . S
C214 C217 1.539 . S
C215 C211 1.408 1_545 S
C215 C214 1.404 . S
C215 H227 0.930 . S
C216 C212 1.524 . S
C216 H228 0.956 . S
C216 H229 0.961 . S
C216 H230 0.961 . S
C217 C214 1.539 . S
C217 H231 0.958 . S
C217 H232 0.961 . S
C217 H233 0.960 . S
H218 C202 0.931 . S
H219 C207 0.929 . S
H220 C208 0.960 . S
H221 C208 0.962 1_565 S
H222 C208 0.960 . S
H223 C209 0.961 1_565 S
H224 C209 0.961 1_565 S
H225 C209 0.961 . S
H226 C210 0.931 . S
H227 C215 0.930 . S
H228 C216 0.956 . S
H229 C216 0.961 . S
H230 C216 0.961 . S
H231 C217 0.958 . S
H232 C217 0.961 . S
H233 C217 0.960 . S
C234 C235 1.391 . S
C234 C236 1.394 . S
C234 H250 0.931 . S
C235 C234 1.391 . S
C235 C239 1.376 1_655 S
C236 C234 1.394 . S
C236 C237 1.369 . S
C236 C240 1.531 . S
C237 C236 1.369 . S
C237 C238 1.410 1_655 S
C237 C245 1.503 . S
C238 C237 1.410 1_455 S
C238 C239 1.392 . S
C238 C241 1.511 . S
C239 C235 1.376 1_455 S
C239 C238 1.392 . S
C239 H251 0.929 . S
C240 C236 1.531 . S
C240 H252 0.960 . S
C240 H253 0.962 . S
C240 H254 0.960 . S
C241 C238 1.511 . S
C241 H255 0.961 . S
C241 H256 0.961 . S
C241 H257 0.961 . S
C242 C243 1.370 1_455 S
C242 C244 1.363 . S
C242 H258 0.931 . S
C243 C242 1.370 1_655 S
C243 C247 1.408 . S
C244 C242 1.363 . S
C244 C245 1.370 1_455 S
C244 C248 1.524 . S
C245 C237 1.503 . S
C245 C244 1.370 1_655 S
C245 C246 1.403 . S
C246 C245 1.403 . S
C246 C247 1.404 . S
C246 C249 1.539 . S
C247 C243 1.408 . S
C247 C246 1.404 . S
C247 H259 0.930 . S
C248 C244 1.524 . S
C248 H260 0.956 . S
C248 H261 0.961 . S
C248 H262 0.961 . S
C249 C246 1.539 . S
C249 H263 0.958 . S
C249 H264 0.961 . S
C249 H265 0.960 . S
H250 C234 0.931 . S
H251 C239 0.929 . S
H252 C240 0.960 . S
H253 C240 0.962 . S
H254 C240 0.960 . S
H255 C241 0.961 . S
H256 C241 0.961 . S
H257 C241 0.961 . S
H258 C242 0.931 . S
H259 C247 0.930 . S
H260 C248 0.956 . S
H261 C248 0.961 . S
H262 C248 0.961 . S
H263 C249 0.958 . S
H264 C249 0.961 . S
H265 C249 0.960 . S
C266 C267 1.389 1_565 S
C266 C268 1.394 . S
C266 H282 0.931 . S
C267 C266 1.389 1_545 S
C267 C271 1.376 1_545 S
C268 C266 1.394 . S
C268 C269 1.369 . S
C268 C272 1.531 . S
C269 C268 1.369 . S
C269 C270 1.410 . S
C269 C277 1.503 . S
C270 C269 1.410 . S
C270 C271 1.393 . S
C270 C273 1.511 . S
C271 C267 1.376 1_565 S
C271 C270 1.393 . S
C271 H283 0.928 1_565 S
C272 C268 1.531 . S
C272 H284 0.960 . S
C272 H285 0.962 1_565 S
C272 H286 0.960 . S
C273 C270 1.511 . S
C273 H287 0.961 1_565 S
C273 H288 0.961 1_565 S
C273 H289 0.961 . S
C274 C275 1.370 1_545 S
C274 C276 1.363 . S
C274 H290 0.931 . S
C275 C274 1.370 1_565 S
C275 C279 1.408 . S
C276 C274 1.363 . S
C276 C277 1.370 1_545 S
C276 C280 1.524 . S
C277 C269 1.503 . S
C277 C276 1.370 1_565 S
C277 C278 1.403 . S
C278 C277 1.403 . S
C278 C279 1.404 . S
C278 C281 1.539 . S
C279 C275 1.408 . S
C279 C278 1.404 . S
C279 H291 0.930 . S
C280 C276 1.524 . S
C280 H292 0.956 . S
C280 H293 0.961 . S
C280 H294 0.961 . S
C281 C278 1.539 . S
C281 H295 0.958 . S
C281 H296 0.961 . S
C281 H297 0.960 . S
H282 C266 0.931 . S
H283 C271 0.928 1_545 S
H284 C272 0.960 . S
H285 C272 0.962 1_545 S
H286 C272 0.960 . S
H287 C273 0.961 1_545 S
H288 C273 0.961 1_545 S
H289 C273 0.961 . S
H290 C274 0.931 . S
H291 C279 0.930 . S
H292 C280 0.956 . S
H293 C280 0.961 . S
H294 C280 0.961 . S
H295 C281 0.958 . S
H296 C281 0.961 . S
H297 C281 0.960 . S
C298 C299 1.391 . S
C298 C300 1.394 . S
C298 H314 0.931 . S
C299 C298 1.391 . S
C299 C303 1.376 1_455 S
C300 C298 1.394 . S
C300 C301 1.369 . S
C300 C304 1.531 . S
C301 C300 1.369 . S
C301 C302 1.410 1_455 S
C301 C309 1.503 . S
C302 C301 1.410 1_655 S
C302 C303 1.392 . S
C302 C305 1.511 . S
C303 C299 1.376 1_655 S
C303 C302 1.392 . S
C303 H315 0.929 . S
C304 C300 1.531 . S
C304 H316 0.960 . S
C304 H317 0.962 . S
C304 H318 0.960 . S
C305 C302 1.511 . S
C305 H319 0.961 . S
C305 H320 0.961 . S
C305 H321 0.961 . S
C306 C307 1.370 . S
C306 C308 1.363 . S
C306 H322 0.931 . S
C307 C306 1.370 . S
C307 C311 1.408 1_455 S
C308 C306 1.363 . S
C308 C309 1.370 . S
C308 C312 1.524 . S
C309 C301 1.503 . S
C309 C308 1.370 . S
C309 C310 1.403 1_455 S
C310 C309 1.403 1_655 S
C310 C311 1.404 . S
C310 C313 1.539 . S
C311 C307 1.408 1_655 S
C311 C310 1.404 . S
C311 H323 0.930 . S
C312 C308 1.524 . S
C312 H324 0.956 . S
C312 H325 0.961 . S
C312 H326 0.961 . S
C313 C310 1.539 . S
C313 H327 0.958 . S
C313 H328 0.961 . S
C313 H329 0.960 . S
H314 C298 0.931 . S
H315 C303 0.929 . S
H316 C304 0.960 . S
H317 C304 0.962 . S
H318 C304 0.960 . S
H319 C305 0.961 . S
H320 C305 0.961 . S
H321 C305 0.961 . S
H322 C306 0.931 . S
H323 C311 0.930 . S
H324 C312 0.956 . S
H325 C312 0.961 . S
H326 C312 0.961 . S
H327 C313 0.958 . S
H328 C313 0.961 . S
H329 C313 0.960 . S
C330 C331 1.391 . S
C330 C332 1.394 . S
C330 H346 0.931 . S
C331 C330 1.391 . S
C331 C335 1.376 1_565 S
C332 C330 1.394 . S
C332 C333 1.369 . S
C332 C336 1.531 . S
C333 C332 1.369 . S
C333 C334 1.410 1_565 S
C333 C341 1.506 . S
C334 C333 1.410 1_545 S
C334 C335 1.392 . S
C334 C337 1.511 . S
C335 C331 1.376 1_545 S
C335 C334 1.392 . S
C335 H347 0.929 . S
C336 C332 1.531 . S
C336 H348 0.960 . S
C336 H349 0.962 . S
C336 H350 0.960 . S
C337 C334 1.511 . S
C337 H351 0.961 . S
C337 H352 0.961 . S
C337 H353 0.979 . S
C338 C339 1.370 . S
C338 C340 1.363 . S
C338 H354 0.931 . S
C339 C338 1.370 . S
C339 C343 1.408 1_545 S
C340 C338 1.363 . S
C340 C341 1.357 1_545 S
C340 C344 1.524 . S
C341 C333 1.506 . S
C341 C340 1.357 1_565 S
C341 C342 1.414 . S
C342 C341 1.414 . S
C342 C343 1.404 . S
C342 C345 1.539 . S
C343 C339 1.408 1_565 S
C343 C342 1.404 . S
C343 H355 0.930 . S
C344 C340 1.524 . S
C344 H356 0.956 . S
C344 H357 0.961 . S
C344 H358 0.961 . S
C345 C342 1.539 . S
C345 H359 0.958 . S
C345 H360 0.961 . S
C345 H361 0.960 . S
H346 C330 0.931 . S
H347 C335 0.929 . S
H348 C336 0.960 . S
H349 C336 0.962 . S
H350 C336 0.960 . S
H351 C337 0.961 . S
H352 C337 0.961 . S
H353 C337 0.979 . S
H354 C338 0.931 . S
H355 C343 0.930 . S
H356 C344 0.956 . S
H357 C344 0.961 . S
H358 C344 0.961 . S
H359 C345 0.958 . S
H360 C345 0.961 . S
H361 C345 0.960 . S
C362 C363 1.391 1_556 S
C362 C364 1.394 . S
C362 H378 0.931 . S
C363 C362 1.391 1_554 S
C363 C367 1.376 . S
C364 C362 1.394 . S
C364 C365 1.369 1_556 S
C364 C368 1.531 . S
C365 C364 1.369 1_554 S
C365 C366 1.410 . S
C365 C373 1.503 . S
C366 C365 1.410 . S
C366 C367 1.392 . S
C366 C369 1.511 . S
C367 C363 1.376 . S
C367 C366 1.392 . S
C367 H379 0.929 . S
C368 C364 1.531 . S
C368 H380 0.960 . S
C368 H381 0.962 . S
C368 H382 0.960 . S
C369 C366 1.511 . S
C369 H383 0.961 . S
C369 H384 0.961 . S
C369 H385 0.961 . S
C370 C371 1.370 1_556 S
C370 C372 1.363 . S
C370 H386 0.931 . S
C371 C370 1.370 1_554 S
C371 C375 1.408 . S
C372 C370 1.363 . S
C372 C373 1.370 1_556 S
C372 C376 1.524 . S
C373 C365 1.503 . S
C373 C372 1.370 1_554 S
C373 C374 1.403 . S
C374 C373 1.403 . S
C374 C375 1.404 . S
C374 C377 1.539 . S
C375 C371 1.408 . S
C375 C374 1.404 . S
C375 H387 0.930 . S
C376 C372 1.524 . S
C376 H388 0.956 . S
C376 H389 0.961 . S
C376 H390 0.961 . S
C377 C374 1.539 . S
C377 H391 0.958 . S
C377 H392 0.961 . S
C377 H393 0.960 . S
H378 C362 0.931 . S
H379 C367 0.929 . S
H380 C368 0.960 . S
H381 C368 0.962 . S
H382 C368 0.960 . S
H383 C369 0.961 . S
H384 C369 0.961 . S
H385 C369 0.961 . S
H386 C370 0.931 . S
H387 C375 0.930 . S
H388 C376 0.956 . S
H389 C376 0.961 . S
H390 C376 0.961 . S
H391 C377 0.958 . S
H392 C377 0.961 . S
H393 C377 0.960 . S
C394 C395 1.391 . S
C394 C396 1.394 . S
C394 H410 0.931 . S
C395 C394 1.391 . S
C395 C399 1.376 1_554 S
C396 C394 1.394 . S
C396 C397 1.369 . S
C396 C400 1.531 . S
C397 C396 1.369 . S
C397 C398 1.410 1_554 S
C397 C405 1.503 . S
C398 C397 1.410 1_556 S
C398 C399 1.392 . S
C398 C401 1.511 . S
C399 C395 1.376 1_556 S
C399 C398 1.392 . S
C399 H411 0.929 . S
C400 C396 1.531 . S
C400 H412 0.960 . S
C400 H413 0.962 . S
C400 H414 0.960 . S
C401 C398 1.511 . S
C401 H415 0.961 . S
C401 H416 0.961 . S
C401 H417 0.961 . S
C402 C403 1.370 . S
C402 C404 1.363 . S
C402 H418 0.931 . S
C403 C402 1.370 . S
C403 C407 1.408 . S
C404 C402 1.363 . S
C404 C405 1.370 . S
C404 C408 1.524 1_554 S
C405 C397 1.503 . S
C405 C404 1.370 . S
C405 C406 1.403 . S
C406 C405 1.403 . S
C406 C407 1.404 . S
C406 C409 1.539 . S
C407 C403 1.408 . S
C407 C406 1.404 . S
C407 H419 0.930 . S
C408 C404 1.524 1_556 S
C408 H420 0.956 1_556 S
C408 H421 0.961 . S
C408 H422 0.961 . S
C409 C406 1.539 . S
C409 H423 0.958 . S
C409 H424 0.961 . S
C409 H425 0.960 . S
H410 C394 0.931 . S
H411 C399 0.929 . S
H412 C400 0.960 . S
H413 C400 0.962 . S
H414 C400 0.960 . S
H415 C401 0.961 . S
H416 C401 0.961 . S
H417 C401 0.961 . S
H418 C402 0.931 . S
H419 C407 0.930 . S
H420 C408 0.956 1_554 S
H421 C408 0.961 . S
H422 C408 0.961 . S
H423 C409 0.958 . S
H424 C409 0.961 . S
H425 C409 0.960 . S
C426 C427 1.391 . S
C426 C428 1.394 . S
C426 H442 0.931 . S
C427 C426 1.391 . S
C427 C431 1.376 1_554 S
C428 C426 1.394 . S
C428 C429 1.369 . S
C428 C432 1.531 . S
C429 C428 1.369 . S
C429 C430 1.410 1_554 S
C429 C437 1.503 . S
C430 C429 1.410 1_556 S
C430 C431 1.392 . S
C430 C433 1.511 . S
C431 C427 1.376 1_556 S
C431 C430 1.392 . S
C431 H443 0.929 . S
C432 C428 1.531 . S
C432 H444 0.960 . S
C432 H445 0.962 . S
C432 H446 0.960 . S
C433 C430 1.511 . S
C433 H447 0.961 . S
C433 H448 0.961 . S
C433 H449 0.961 . S
C434 C435 1.370 . S
C434 C436 1.363 . S
C434 H450 0.931 . S
C435 C434 1.370 . S
C435 C439 1.408 1_554 S
C436 C434 1.363 . S
C436 C437 1.370 . S
C436 C440 1.524 . S
C437 C429 1.503 . S
C437 C436 1.370 . S
C437 C438 1.403 1_554 S
C438 C437 1.403 1_556 S
C438 C439 1.404 . S
C438 C441 1.539 . S
C439 C435 1.408 1_556 S
C439 C438 1.404 . S
C439 H451 0.930 . S
C440 C436 1.524 . S
C440 H452 0.956 . S
C440 H453 0.961 . S
C440 H454 0.961 . S
C441 C438 1.539 . S
C441 H455 0.958 . S
C441 H456 0.961 . S
C441 H457 0.960 . S
H442 C426 0.931 . S
H443 C431 0.929 . S
H444 C432 0.960 . S
H445 C432 0.962 . S
H446 C432 0.960 . S
H447 C433 0.961 . S
H448 C433 0.961 . S
H449 C433 0.961 . S
H450 C434 0.931 . S
H451 C439 0.930 . S
H452 C440 0.956 . S
H453 C440 0.961 . S
H454 C440 0.961 . S
H455 C441 0.958 . S
H456 C441 0.961 . S
H457 C441 0.960 . S
C458 C459 1.391 1_556 S
C458 C460 1.394 . S
C458 H474 0.931 . S
C459 C458 1.391 1_554 S
C459 C463 1.376 . S
C460 C458 1.394 . S
C460 C461 1.369 1_556 S
C460 C464 1.531 . S
C461 C460 1.369 1_554 S
C461 C462 1.410 . S
C461 C469 1.503 . S
C462 C461 1.410 . S
C462 C463 1.392 . S
C462 C465 1.511 . S
C463 C459 1.376 . S
C463 C462 1.392 . S
C463 H475 0.929 . S
C464 C460 1.531 . S
C464 H476 0.960 . S
C464 H477 0.962 . S
C464 H478 0.960 . S
C465 C462 1.511 . S
C465 H479 0.961 . S
C465 H480 0.961 . S
C465 H481 0.961 . S
C466 C467 1.370 . S
C466 C468 1.363 . S
C466 H482 0.936 . S
C467 C466 1.370 . S
C467 C471 1.408 . S
C468 C466 1.363 . S
C468 C469 1.370 . S
C468 C472 1.524 . S
C469 C461 1.503 . S
C469 C468 1.370 . S
C469 C470 1.403 . S
C470 C469 1.403 . S
C470 C471 1.404 . S
C470 C473 1.539 . S
C471 C467 1.408 . S
C471 C470 1.404 . S
C471 H483 0.930 . S
C472 C468 1.524 . S
C472 H484 0.956 1_554 S
C472 H485 0.961 . S
C472 H486 0.961 . S
C473 C470 1.539 . S
C473 H487 0.958 . S
C473 H488 0.961 . S
C473 H489 0.960 . S
H474 C458 0.931 . S
H475 C463 0.929 . S
H476 C464 0.960 . S
H477 C464 0.962 . S
H478 C464 0.960 . S
H479 C465 0.961 . S
H480 C465 0.961 . S
H481 C465 0.961 . S
H482 C466 0.936 . S
H483 C471 0.930 . S
H484 C472 0.956 1_556 S
H485 C472 0.961 . S
H486 C472 0.961 . S
H487 C473 0.958 . S
H488 C473 0.961 . S
H489 C473 0.960 . S
C115 C90 2.003 . S
C107 C7 2.059 . S
C147 C86 1.312 . S
C139 C34 1.367 . S
C179 C96 1.996 1_655 S
C171 C14 2.084 . S
C211 C80 1.283 1_565 S
C203 C32 1.358 . S
C235 C16 2.187 . S
C243 C72 2.083 . S
C275 C104 1.393 . S
C267 C25 1.458 . S
C299 C8 2.184 . S
C307 C58 2.068 . S
C331 C26 1.478 . S
C339 C102 1.372 . S
C363 C50 1.037 . S
C371 C84 1.031 . S
C395 C43 1.035 . S
C403 C99 1.082 . S
C435 C93 1.074 . S
C427 C52 1.044 . S
C467 C88 1.021 . S
C459 C44 1.026 . S
