# Generated by pormake.
# Topology pth, (4,4)-cn, num edge types: 1
# Building blocks:
#     Node 0, Type 0, BuildingBlock: AZAVOO_clean_sbu_0, # of connection points: 4
#     Node 1, Type 0, BuildingBlock: AZAVOO_clean_sbu_0, # of connection points: 4
#     Node 2, Type 0, BuildingBlock: AZAVOO_clean_sbu_0, # of connection points: 4
#     Node 3, Type 1, BuildingBlock: NAHDIM_clean_linker_0, # of connection points: 4
#     Node 4, Type 1, BuildingBlock: NAHDIM_clean_linker_0, # of connection points: 4
#     Node 5, Type 1, BuildingBlock: NAHDIM_clean_linker_0, # of connection points: 4
#     Edge 6, Type (0, 1), BuildingBlock: ZUJKAS_clean_linker_0, # of connection points: 2
#     Edge 7, Type (0, 1), BuildingBlock: ZUJKAS_clean_linker_0, # of connection points: 2
#     Edge 8, Type (0, 1), BuildingBlock: ZUJKAS_clean_linker_0, # of connection points: 2
#     Edge 9, Type (0, 1), BuildingBlock: ZUJKAS_clean_linker_0, # of connection points: 2
#     Edge 10, Type (0, 1), BuildingBlock: ZUJKAS_clean_linker_0, # of connection points: 2
#     Edge 11, Type (0, 1), BuildingBlock: ZUJKAS_clean_linker_0, # of connection points: 2
#     Edge 12, Type (0, 1), BuildingBlock: ZUJKAS_clean_linker_0, # of connection points: 2
#     Edge 13, Type (0, 1), BuildingBlock: ZUJKAS_clean_linker_0, # of connection points: 2
#     Edge 14, Type (0, 1), BuildingBlock: ZUJKAS_clean_linker_0, # of connection points: 2
#     Edge 15, Type (0, 1), BuildingBlock: ZUJKAS_clean_linker_0, # of connection points: 2
#     Edge 16, Type (0, 1), BuildingBlock: ZUJKAS_clean_linker_0, # of connection points: 2
#     Edge 17, Type (0, 1), BuildingBlock: ZUJKAS_clean_linker_0, # of connection points: 2
# Relax obj value: 0.085
# Max RMSD: 0.220
# Mean RMSD: 0.131
data_MOF--net-pth--node1-AZAVOO_clean_sbu_0--node2-NAHDIM_clean_linker_0--edge1-ZUJKAS_clean_linker_0
_symmetry_space_group_name_H-M    P1
_symmetry_Int_Tables_number       1
_symmetry_cell_setting            triclinic
loop_
_symmetry_equiv_pos_as_xyz
'x, y, z'
_cell_length_a     38.205454
_cell_length_b     38.856654
_cell_length_c     96.368643
_cell_angle_alpha  90.424764
_cell_angle_beta   92.969967
_cell_angle_gamma 121.78303
loop_
_atom_site_label
_atom_site_type_symbol
_atom_site_fract_x
_atom_site_fract_y
_atom_site_fract_z
_atom_type_partial_charge
Mg0 Mg 0.11477 0.10003 0.06715 0.0
O1 O 0.06008 0.06331 0.05127 0.0
O2 O 0.05197 0.10638 0.03834 0.0
Mg3 Mg 0.10244 0.17088 0.04569 0.0
C4 C 0.04109 0.07037 0.0415 0.0
C5 C 0.12117 0.03468 0.08368 0.0
O6 O 0.15993 0.0587 0.08088 0.0
O7 O 0.07629 0.11631 0.07992 0.0
O8 O 0.07407 0.16231 0.06674 0.0
O9 O 0.15831 0.10278 0.05167 0.0
O10 O 0.14087 0.14824 0.05408 0.0
C11 C 0.0659 0.14229 0.07782 0.0
C12 C 0.1607 0.13557 0.04755 0.0
O13 O 0.09478 0.0432 0.0793 0.0
Mg14 Mg 0.95033 0.03225 0.38709 0.0
O15 O 0.00472 0.05238 0.40313 0.0
O16 O 0.01342 0.10457 0.41605 0.0
Mg17 Mg 0.96486 0.11841 0.40802 0.0
C18 C 0.0237 0.07919 0.41298 0.0
C19 C 0.9535 0.97933 0.36351 0.0
O20 O 0.92754 0.98816 0.35761 0.0
O21 O 0.99016 0.0867 0.37398 0.0
O22 O 0.99556 0.13688 0.38729 0.0
O23 O 0.90647 0.99213 0.40276 0.0
O24 O 0.92504 0.0557 0.3998 0.0
C25 C 0.00303 0.12411 0.37624 0.0
C26 C 0.9049 0.02328 0.40659 0.0
O27 O 0.96893 0.99342 0.37573 0.0
Mg28 Mg 0.01468 0.02987 0.72626 0.0
O29 O 0.05248 0.08289 0.74218 0.0
O30 O 0.00734 0.08849 0.75434 0.0
Mg31 Mg 0.94193 0.03975 0.74655 0.0
C32 C 0.04433 0.10018 0.75171 0.0
C33 C 0.06513 0.03594 0.70177 0.0
O34 O 0.02691 0.01332 0.6965 0.0
O35 O 0.99804 0.06809 0.7131 0.0
O36 O 0.95189 0.07086 0.72563 0.0
O37 O 0.01349 0.98692 0.74171 0.0
O38 O 0.96605 0.00298 0.7392 0.0
C39 C 0.9726 0.07935 0.71483 0.0
C40 C 0.98025 0.9838 0.74585 0.0
O41 O 0.07149 0.0492 0.71431 0.0
C42 C 0.94959 0.62239 0.31159 0.0
C43 C 0.98106 0.65711 0.30313 0.0
C44 C 0.98443 0.63409 0.28013 0.0
C45 C 0.02691 0.65485 0.27844 0.0
C46 C 0.04333 0.63883 0.26958 0.0
C47 C 0.01662 0.60102 0.26245 0.0
C48 C 0.97353 0.58059 0.26388 0.0
C49 C 0.95792 0.59791 0.27253 0.0
C50 C 0.08926 0.66195 0.26805 0.0
C51 C 0.94409 0.53989 0.25666 0.0
C52 C 0.17378 0.50011 0.31315 0.0
C53 C 0.13543 0.47297 0.30352 0.0
C54 C 0.1257 0.49532 0.28105 0.0
C55 C 0.08254 0.47473 0.27945 0.0
C56 C 0.06298 0.48912 0.27066 0.0
C57 C 0.08722 0.52527 0.26357 0.0
C58 C 0.13085 0.54583 0.26511 0.0
C59 C 0.14949 0.52995 0.2736 0.0
C60 C 0.01646 0.46589 0.26904 0.0
C61 C 0.15786 0.58501 0.25804 0.0
C62 C 0.10133 0.46156 0.17943 0.0
C63 C 0.06007 0.44293 0.18277 0.0
C64 C 0.04422 0.4663 0.18714 0.0
C65 C 0.07046 0.509 0.18838 0.0
C66 C 0.11117 0.52787 0.18404 0.0
C67 C 0.12591 0.50376 0.17943 0.0
C68 C 0.00011 0.44527 0.19112 0.0
C69 C 0.13978 0.57332 0.18505 0.0
C70 C 0.93257 0.69519 0.17691 0.0
C71 C 0.97378 0.69999 0.17387 0.0
C72 C 0.98336 0.64285 0.17389 0.0
C73 C 0.95856 0.60075 0.17439 0.0
C74 C 0.97339 0.57844 0.18103 0.0
C75 C 0.01443 0.59885 0.18695 0.0
C76 C 0.04059 0.64116 0.18555 0.0
C77 C 0.02466 0.6628 0.17912 0.0
C78 C 0.9448 0.53332 0.18217 0.0
C79 C 0.08505 0.66367 0.19119 0.0
C80 C 0.03396 0.58145 0.25434 0.0
C81 C 0.05146 0.56279 0.26176 0.0
C82 C 0.06708 0.54238 0.25493 0.0
C83 C 0.06438 0.53958 0.24024 0.0
C84 C 0.07805 0.51771 0.23305 0.0
C85 C 0.07593 0.51569 0.21861 0.0
C86 C 0.05982 0.53527 0.21077 0.0
C87 C 0.05737 0.53316 0.19605 0.0
C88 C 0.04245 0.55401 0.18856 0.0
C89 C 0.02913 0.57656 0.19542 0.0
C90 C 0.03007 0.5779 0.21014 0.0
C91 C 0.01569 0.59919 0.21737 0.0
C92 C 0.01707 0.60056 0.23184 0.0
C93 C 0.03272 0.58059 0.23964 0.0
C94 C 0.04762 0.5592 0.23257 0.0
C95 C 0.04581 0.55745 0.21781 0.0
C96 C 0.15172 0.40962 0.18774 0.0
C97 C 0.11058 0.40463 0.18276 0.0
O98 O 0.96844 0.64829 0.28913 0.0
O99 O 0.9665 0.66343 0.16847 0.0
O100 O 0.11854 0.43976 0.17641 0.0
O101 O 0.14508 0.48269 0.28987 0.0
H102 H 0.01138 0.65978 0.30525 0.0
H103 H 0.94736 0.59375 0.30838 0.0
H104 H 0.91861 0.61831 0.30987 0.0
H105 H 0.95927 0.62859 0.32286 0.0
H106 H 0.04713 0.68348 0.2841 0.0
H107 H 0.92508 0.58245 0.27385 0.0
H108 H 0.10281 0.64614 0.27349 0.0
H109 H 0.10482 0.69342 0.27252 0.0
H110 H 0.09575 0.66302 0.25691 0.0
H111 H 0.91213 0.52625 0.25996 0.0
H112 H 0.95464 0.51863 0.25884 0.0
H113 H 0.94355 0.54336 0.24525 0.0
H114 H 0.11143 0.47938 0.30639 0.0
H115 H 0.16671 0.49319 0.32419 0.0
H116 H 0.18416 0.53241 0.31174 0.0
H117 H 0.19936 0.4957 0.31077 0.0
H118 H 0.06427 0.44737 0.28505 0.0
H119 H 0.18282 0.54541 0.27491 0.0
H120 H 0.00588 0.4617 0.25786 0.0
H121 H 0.00512 0.48346 0.27422 0.0
H122 H 0.00234 0.4357 0.27369 0.0
H123 H 0.19078 0.60001 0.26187 0.0
H124 H 0.14725 0.6063 0.25975 0.0
H125 H 0.15566 0.57884 0.24667 0.0
H126 H 0.09293 0.39978 0.19216 0.0
H127 H 0.04051 0.41018 0.18221 0.0
H128 H 0.15748 0.51774 0.17653 0.0
H129 H -0.00034 0.44615 0.20262 0.0
H130 H 0.98189 0.41309 0.18728 0.0
H131 H 0.985 0.46115 0.1869 0.0
H132 H 0.17015 0.58334 0.18088 0.0
H133 H 0.1449 0.58417 0.19609 0.0
H134 H 0.12542 0.58781 0.17921 0.0
H135 H 0.99223 0.70833 0.18402 0.0
H136 H 0.93762 0.72416 0.18125 0.0
H137 H 0.91714 0.67158 0.18466 0.0
H138 H 0.91178 0.68593 0.1673 0.0
H139 H 0.92692 0.58563 0.17009 0.0
H140 H 0.04433 0.69528 0.17824 0.0
H141 H 0.94236 0.52547 0.19328 0.0
H142 H 0.95766 0.5172 0.17695 0.0
H143 H 0.91337 0.5222 0.17739 0.0
H144 H 0.1028 0.69502 0.18747 0.0
H145 H 0.10019 0.64725 0.1881 0.0
H146 H 0.08631 0.66531 0.20272 0.0
H147 H 0.05305 0.56427 0.27304 0.0
H148 H 0.09056 0.50187 0.2385 0.0
H149 H 0.08728 0.49862 0.2137 0.0
H150 H 0.04122 0.55271 0.17729 0.0
H151 H 0.00311 0.61499 0.21195 0.0
H152 H 0.00576 0.61755 0.23685 0.0
H153 H 0.17084 0.41427 0.17881 0.0
H154 H 0.1465 0.3824 0.19323 0.0
H155 H 0.16901 0.43632 0.1951 0.0
C156 C 0.37394 0.99122 0.6347 0.0
C157 C 0.37808 0.0294 0.62866 0.0
C158 C 0.4011 0.04024 0.60534 0.0
C159 C 0.4296 0.08206 0.60553 0.0
C160 C 0.46286 0.0983 0.59695 0.0
C161 C 0.46784 0.07195 0.5882 0.0
C162 C 0.43805 0.02981 0.58763 0.0
C163 C 0.4045 0.0146 0.59606 0.0
C164 C 0.49347 0.14341 0.59763 0.0
C165 C 0.44261 0.0006 0.57863 0.0
C166 C 0.75348 0.09659 0.62797 0.0
C167 C 0.71884 0.08589 0.61762 0.0
C168 C 0.6775 0.11245 0.60824 0.0
C169 C 0.65142 0.07836 0.59939 0.0
C170 C 0.6186 0.07591 0.5913 0.0
C171 C 0.6124 0.10873 0.59172 0.0
C172 C 0.63889 0.14335 0.60043 0.0
C173 C 0.67102 0.14463 0.60865 0.0
C174 C 0.59054 0.03817 0.58229 0.0
C175 C 0.63332 0.17897 0.601 0.0
C176 C 0.7038 0.15191 0.51208 0.0
C177 C 0.67261 0.11135 0.51364 0.0
C178 C 0.63266 0.10111 0.51648 0.0
C179 C 0.62399 0.13215 0.51791 0.0
C180 C 0.65441 0.17251 0.51513 0.0
C181 C 0.69395 0.1818 0.51211 0.0
C182 C 0.6005 0.0575 0.51886 0.0
C183 C 0.64599 0.20619 0.51633 0.0
C184 C 0.31432 0.04195 0.51039 0.0
C185 C 0.33911 0.07628 0.50061 0.0
C186 C 0.40395 0.07956 0.49967 0.0
C187 C 0.41377 0.04974 0.50077 0.0
C188 C 0.45073 0.0582 0.50781 0.0
C189 C 0.47869 0.09768 0.51359 0.0
C190 C 0.47011 0.12864 0.51163 0.0
C191 C 0.43269 0.11919 0.50471 0.0
C192 C 0.45915 0.02461 0.50959 0.0
C193 C 0.49985 0.17133 0.51727 0.0
C194 C 0.50651 0.08774 0.58098 0.0
C195 C 0.54124 0.0942 0.58895 0.0
C196 C 0.57829 0.10666 0.58291 0.0
C197 C 0.58121 0.1133 0.56853 0.0
C198 C 0.61824 0.12627 0.56219 0.0
C199 C 0.6202 0.13031 0.5479 0.0
C200 C 0.58521 0.12163 0.53938 0.0
C201 C 0.58642 0.12356 0.52475 0.0
C202 C 0.55149 0.11583 0.51659 0.0
C203 C 0.51495 0.10573 0.52271 0.0
C204 C 0.51288 0.10264 0.53732 0.0
C205 C 0.47639 0.09165 0.54381 0.0
C206 C 0.47439 0.08753 0.55815 0.0
C207 C 0.50866 0.09385 0.56652 0.0
C208 C 0.54608 0.10619 0.56026 0.0
C209 C 0.54812 0.11042 0.54565 0.0
C210 C 0.80528 0.17657 0.52324 0.0
C211 C 0.76287 0.14436 0.51668 0.0
O212 O 0.3708 0.02396 0.61434 0.0
O213 O 0.36629 0.06926 0.49398 0.0
O214 O 0.74375 0.16341 0.5109 0.0
O215 O 0.70886 0.11532 0.61655 0.0
H216 H 0.41014 0.05503 0.63151 0.0
H217 H 0.39685 0.98556 0.6303 0.0
H218 H 0.34253 0.96442 0.63211 0.0
H219 H 0.37988 0.99503 0.64618 0.0
H220 H 0.42608 0.10181 0.61254 0.0
H221 H 0.38193 0.98235 0.59596 0.0
H222 H 0.52247 0.14994 0.60332 0.0
H223 H 0.48164 0.16022 0.60305 0.0
H224 H 0.50106 0.15482 0.58699 0.0
H225 H 0.41856 0.96851 0.58025 0.0
H226 H 0.47344 0.00475 0.58088 0.0
H227 H 0.44032 0.00682 0.56751 0.0
H228 H 0.69144 0.05473 0.61853 0.0
H229 H 0.73929 0.0734 0.63615 0.0
H230 H 0.75768 0.12244 0.63475 0.0
H231 H 0.79991 0.10152 0.61588 0.0
H232 H 0.65631 0.05341 0.59874 0.0
H233 H 0.69135 0.17087 0.61544 0.0
H234 H 0.59546 0.04542 0.57117 0.0
H235 H 0.55772 0.02697 0.58393 0.0
H236 H 0.5963 0.01347 0.58445 0.0
H237 H 0.65815 0.20471 0.60761 0.0
H238 H 0.60315 0.16945 0.60522 0.0
H239 H 0.63291 0.18951 0.59035 0.0
H240 H 0.74504 0.12501 0.52527 0.0
H241 H 0.67963 0.0878 0.513 0.0
H242 H 0.71805 0.21289 0.51056 0.0
H243 H 0.59663 0.0534 0.53019 0.0
H244 H 0.60935 0.03639 0.51489 0.0
H245 H 0.57022 0.04929 0.51373 0.0
H246 H 0.67178 0.23539 0.51283 0.0
H247 H 0.64112 0.21034 0.52732 0.0
H248 H 0.6173 0.19802 0.51002 0.0
H249 H 0.35635 0.10503 0.50704 0.0
H250 H 0.29202 0.04694 0.51562 0.0
H251 H 0.33548 0.04106 0.51853 0.0
H252 H 0.29719 0.0122 0.50457 0.0
H253 H 0.39154 0.01938 0.49664 0.0
H254 H 0.42568 0.14262 0.50335 0.0
H255 H 0.46127 0.01933 0.52083 0.0
H256 H 0.48927 0.03364 0.50543 0.0
H257 H 0.43474 0.99576 0.50422 0.0
H258 H 0.49076 0.19278 0.51363 0.0
H259 H 0.53141 0.18199 0.51409 0.0
H260 H 0.50105 0.17182 0.52881 0.0
H261 H 0.53906 0.08834 0.59997 0.0
H262 H 0.64606 0.13303 0.56818 0.0
H263 H 0.64954 0.14004 0.54365 0.0
H264 H 0.55263 0.11739 0.50537 0.0
H265 H 0.44878 0.08572 0.53788 0.0
H266 H 0.44549 0.07879 0.56257 0.0
H267 H 0.82113 0.16206 0.52807 0.0
H268 H 0.80169 0.19444 0.53148 0.0
H269 H 0.82482 0.1976 0.51531 0.0
C270 C 0.68673 0.61853 0.80868 0.0
C271 C 0.68955 0.6509 0.81862 0.0
C272 C 0.66596 0.63154 0.84181 0.0
C273 C 0.64644 0.65321 0.84358 0.0
C274 C 0.61518 0.64048 0.85288 0.0
C275 C 0.60314 0.60523 0.86043 0.0
C276 C 0.62408 0.58437 0.85907 0.0
C277 C 0.65583 0.59834 0.84992 0.0
C278 C 0.5943 0.66407 0.85435 0.0
C279 C 0.61188 0.54643 0.86683 0.0
C280 C 0.2623 0.41841 0.85468 0.0
C281 C 0.2996 0.41822 0.84971 0.0
C282 C 0.36906 0.47779 0.84951 0.0
C283 C 0.39096 0.45868 0.8526 0.0
C284 C 0.43198 0.48113 0.85812 0.0
C285 C 0.45128 0.52343 0.86059 0.0
C286 C 0.4302 0.54308 0.85656 0.0
C287 C 0.38933 0.51991 0.85094 0.0
C288 C 0.4541 0.45948 0.86191 0.0
C289 C 0.4502 0.58824 0.85884 0.0
C290 C 0.38567 0.471 0.94361 0.0
C291 C 0.41148 0.45686 0.94038 0.0
C292 C 0.45148 0.48369 0.9363 0.0
C293 C 0.46574 0.52535 0.93538 0.0
C294 C 0.44108 0.54008 0.93977 0.0
C295 C 0.40134 0.51261 0.94396 0.0
C296 C 0.47755 0.46715 0.93215 0.0
C297 C 0.45561 0.58438 0.93911 0.0
C298 C 0.79727 0.73156 0.94108 0.0
C299 C 0.765 0.73665 0.94797 0.0
C300 C 0.69665 0.67591 0.94839 0.0
C301 C 0.68017 0.63425 0.94696 0.0
C302 C 0.64051 0.60831 0.94063 0.0
C303 C 0.61667 0.62458 0.93593 0.0
C304 C 0.6322 0.66636 0.93823 0.0
C305 C 0.67213 0.69165 0.94443 0.0
C306 C 0.62464 0.56383 0.9385 0.0
C307 C 0.60701 0.68444 0.93377 0.0
C308 C 0.56639 0.5881 0.86877 0.0
C309 C 0.5276 0.56578 0.8616 0.0
C310 C 0.49159 0.54636 0.86872 0.0
C311 C 0.49405 0.54841 0.88341 0.0
C312 C 0.45839 0.52793 0.89088 0.0
C313 C 0.46113 0.52901 0.90531 0.0
C314 C 0.4996 0.55123 0.91288 0.0
C315 C 0.50266 0.55162 0.92757 0.0
C316 C 0.54105 0.57564 0.93484 0.0
C317 C 0.57689 0.59866 0.92772 0.0
C318 C 0.57466 0.59692 0.91299 0.0
C319 C 0.61029 0.61807 0.90549 0.0
C320 C 0.60772 0.61547 0.891 0.0
C321 C 0.56942 0.5919 0.88347 0.0
C322 C 0.53309 0.57133 0.89081 0.0
C323 C 0.53579 0.57329 0.90557 0.0
C324 C 0.27796 0.39918 0.93603 0.0
C325 C 0.32019 0.4061 0.94061 0.0
O326 O 0.69411 0.64154 0.83218 0.0
O327 O 0.73634 0.70022 0.95349 0.0
O328 O 0.34537 0.44544 0.94607 0.0
O329 O 0.32825 0.45652 0.84546 0.0
H330 H 0.66013 0.65021 0.81679 0.0
H331 H 0.65945 0.58848 0.81078 0.0
H332 H 0.71479 0.61675 0.81005 0.0
H333 H 0.68317 0.62549 0.79772 0.0
H334 H 0.65542 0.67983 0.83761 0.0
H335 H 0.6716 0.58225 0.84857 0.0
H336 H 0.56267 0.64641 0.84925 0.0
H337 H 0.61133 0.69395 0.84949 0.0
H338 H 0.59145 0.66892 0.86551 0.0
H339 H 0.62913 0.53211 0.86379 0.0
H340 H 0.57832 0.52406 0.86486 0.0
H341 H 0.61793 0.55386 0.87818 0.0
H342 H 0.31245 0.41016 0.85889 0.0
H343 H 0.23865 0.38778 0.85796 0.0
H344 H 0.24826 0.42782 0.84634 0.0
H345 H 0.27212 0.44006 0.86374 0.0
H346 H 0.37588 0.42619 0.85092 0.0
H347 H 0.37235 0.53441 0.84825 0.0
H348 H 0.45885 0.46021 0.87339 0.0
H349 H 0.485 0.4752 0.85761 0.0
H350 H 0.43652 0.42737 0.85799 0.0
H351 H 0.43046 0.5992 0.85449 0.0
H352 H 0.48019 0.60433 0.85394 0.0
H353 H 0.45661 0.59623 0.87016 0.0
H354 H 0.33293 0.40165 0.93109 0.0
H355 H 0.40013 0.42481 0.94069 0.0
H356 H 0.38146 0.52329 0.94678 0.0
H357 H 0.47867 0.46714 0.92066 0.0
H358 H 0.46501 0.43569 0.93552 0.0
H359 H 0.50968 0.48672 0.9367 0.0
H360 H 0.43438 0.59158 0.944 0.0
H361 H 0.45786 0.59291 0.92807 0.0
H362 H 0.48688 0.60316 0.9444 0.0
H363 H 0.75019 0.7454 0.93963 0.0
H364 H 0.82075 0.76054 0.93667 0.0
H365 H 0.78208 0.70817 0.93247 0.0
H366 H 0.81295 0.72184 0.94868 0.0
H367 H 0.69917 0.62237 0.9503 0.0
H368 H 0.6843 0.72371 0.94611 0.0
H369 H 0.61834 0.55535 0.92721 0.0
H370 H 0.59508 0.54556 0.94353 0.0
H371 H 0.64688 0.55586 0.94283 0.0
H372 H 0.62171 0.71648 0.93756 0.0
H373 H 0.57572 0.66651 0.93773 0.0
H374 H 0.60323 0.68316 0.92225 0.0
H375 H 0.52543 0.56312 0.85032 0.0
H376 H 0.42789 0.51035 0.88568 0.0
H377 H 0.43255 0.51223 0.91043 0.0
H378 H 0.5431 0.57625 0.94611 0.0
H379 H 0.64065 0.63652 0.91072 0.0
H380 H 0.63613 0.63214 0.88577 0.0
H381 H 0.25726 0.3679 0.93152 0.0
H382 H 0.28149 0.42085 0.92795 0.0
H383 H 0.26342 0.40382 0.94497 0.0
H384 H 0.05492 0.20604 0.07887 0.0
H385 H 0.04053 0.23331 0.09898 0.0
H386 H 0.02146 0.1315 0.12257 0.0
H387 H 0.0381 0.10476 0.10252 0.0
H388 H 0.98114 0.21297 0.11602 0.0
H389 H 0.11578 0.22222 0.14534 0.0
H390 H 0.10391 0.20747 0.12713 0.0
H391 H 0.07414 0.1722 0.14 0.0
C392 C 0.04716 0.18896 0.08825 0.0
C393 C 0.04869 0.15366 0.08917 0.0
C394 C 0.03872 0.20461 0.09976 0.0
C395 C 0.03108 0.18512 0.11243 0.0
C396 C 0.02865 0.14779 0.11304 0.0
H397 H 0.06145 0.32541 0.18925 0.0
H398 H 0.03105 0.26488 0.17363 0.0
C399 C 0.03788 0.13239 0.10154 0.0
C400 C 0.03018 0.20665 0.12507 0.0
H401 H 0.0871 0.25596 0.15514 0.0
C402 C 0.00379 0.22171 0.12471 0.0
C403 C 0.05978 0.21813 0.13644 0.0
C404 C 0.09025 0.2045 0.13728 0.0
C405 C 0.00805 0.24992 0.13489 0.0
C406 C 0.03912 0.26297 0.14574 0.0
C407 C 0.06328 0.24565 0.14675 0.0
C408 C 0.05132 0.2986 0.15494 0.0
C409 C 0.9807 0.26707 0.13366 0.0
C410 C 0.07265 0.33736 0.14954 0.0
C411 C 0.09053 0.37181 0.1584 0.0
C412 C 0.08676 0.36806 0.17283 0.0
C413 C 0.06419 0.3291 0.17815 0.0
C414 C 0.04683 0.29461 0.16928 0.0
H415 H 0.95242 0.24746 0.12682 0.0
H416 H 0.97162 0.27084 0.14407 0.0
H417 H 0.99795 0.29739 0.12914 0.0
H418 H 0.0772 0.34094 0.13851 0.0
H419 H 0.10845 0.40128 0.15399 0.0
H420 H 0.87472 0.96835 0.42735 0.0
H421 H 0.83858 0.97056 0.44747 0.0
H422 H 0.8484 0.07976 0.43287 0.0
H423 H 0.88415 0.07792 0.413 0.0
H424 H 0.87107 0.04006 0.46785 0.0
H425 H 0.7239 0.00239 0.44012 0.0
H426 H 0.75842 0.98899 0.43315 0.0
H427 H 0.76842 0.03948 0.43159 0.0
C428 C 0.86887 0.99261 0.42843 0.0
C429 C 0.88236 0.02303 0.41863 0.0
C430 C 0.84829 0.99382 0.43989 0.0
C431 C 0.84035 0.02499 0.4415 0.0
C432 C 0.85364 0.0551 0.43168 0.0
H433 H 0.78381 0.16316 0.48973 0.0
H434 H 0.79677 0.12496 0.47264 0.0
C435 C 0.8744 0.05415 0.42038 0.0
C436 C 0.8202 0.02823 0.45369 0.0
H437 H 0.74222 0.04175 0.46173 0.0
C438 C 0.84227 0.03929 0.46669 0.0
C439 C 0.78261 0.02707 0.45208 0.0
C440 C 0.75672 0.01344 0.4385 0.0
C441 C 0.8295 0.05268 0.47783 0.0
C442 C 0.79359 0.05455 0.47585 0.0
C443 C 0.76992 0.04057 0.46316 0.0
C444 C 0.78305 0.07562 0.4861 0.0
C445 C 0.85603 0.06754 0.49128 0.0
C446 C 0.77051 0.06018 0.49925 0.0
C447 C 0.76292 0.08191 0.50902 0.0
C448 C 0.76741 0.11919 0.50572 0.0
C449 C 0.77944 0.13422 0.49246 0.0
C450 C 0.78692 0.11249 0.48272 0.0
H451 H 0.88541 0.06839 0.49055 0.0
H452 H 0.86334 0.09839 0.4943 0.0
H453 H 0.8389 0.04711 0.49968 0.0
H454 H 0.76709 0.03163 0.502 0.0
H455 H 0.75414 0.06994 0.51923 0.0
H456 H 0.90619 0.96567 0.75497 0.0
H457 H 0.86637 0.91694 0.77219 0.0
H458 H 0.9649 0.89499 0.78041 0.0
H459 H 0.00487 0.94345 0.76294 0.0
H460 H 0.89204 0.82626 0.77416 0.0
H461 H 0.87052 0.91523 0.81407 0.0
H462 H 0.85643 0.92325 0.7969 0.0
H463 H 0.90917 0.93874 0.8015 0.0
C464 C 0.91988 0.95123 0.76065 0.0
C465 C 0.95867 0.95837 0.75756 0.0
C466 C 0.89713 0.92353 0.77059 0.0
C467 C 0.91289 0.90275 0.77775 0.0
C468 C 0.9523 0.91094 0.77507 0.0
H469 H 0.77243 0.68233 0.82464 0.0
H470 H 0.8307 0.74605 0.81695 0.0
C471 C 0.97505 0.93858 0.76508 0.0
C472 C 0.88603 0.86892 0.78661 0.0
H473 H 0.82062 0.84299 0.8128 0.0
C474 C 0.87712 0.83003 0.78281 0.0
C475 C 0.86645 0.8739 0.79785 0.0
C476 C 0.87647 0.91513 0.80291 0.0
C477 C 0.84756 0.79573 0.78945 0.0
C478 C 0.82675 0.80054 0.80029 0.0
C479 C 0.83665 0.8395 0.80445 0.0
C480 C 0.7924 0.76503 0.80659 0.0
C481 C 0.83725 0.75438 0.78435 0.0
C482 C 0.75183 0.75543 0.80364 0.0
C483 C 0.71865 0.71921 0.808 0.0
C484 C 0.72553 0.69221 0.8155 0.0
C485 C 0.76633 0.70275 0.81894 0.0
C486 C 0.79953 0.73896 0.81454 0.0
H487 H 0.85145 0.75553 0.77446 0.0
H488 H 0.84881 0.74157 0.7923 0.0
H489 H 0.80331 0.73343 0.78275 0.0
H490 H 0.74581 0.77517 0.79747 0.0
H491 H 0.68754 0.71171 0.80515 0.0
H492 H 0.04399 0.98 0.09178 0.0
H493 H 0.02398 0.92291 0.10679 0.0
H494 H 0.14967 0.95172 0.11026 0.0
H495 H 0.17002 0.00875 0.09512 0.0
H496 H 0.09051 0.86822 0.10553 0.0
H497 H 0.05246 0.93479 0.14899 0.0
H498 H 0.02642 0.93219 0.1326 0.0
H499 H 0.08168 0.96419 0.13481 0.0
C500 C 0.06742 0.9742 0.0957 0.0
C501 C 0.10868 0.99913 0.09233 0.0
C502 C 0.05594 0.94166 0.10433 0.0
C503 C 0.08548 0.93353 0.1098 0.0
C504 C 0.12647 0.95766 0.10619 0.0
H505 H 0.04007 0.77698 0.17945 0.0
H506 H 0.07146 0.83325 0.16371 0.0
C507 C 0.13802 0.99026 0.09756 0.0
C508 C 0.07354 0.9 0.11939 0.0
H509 H 0.0317 0.86559 0.1505 0.0
C510 C 0.07787 0.86767 0.11541 0.0
C511 C 0.05775 0.89977 0.13236 0.0
C512 C 0.05463 0.93475 0.13754 0.0
C513 C 0.06561 0.83445 0.1239 0.0
C514 C 0.04805 0.83338 0.13659 0.0
C515 C 0.04486 0.86629 0.14072 0.0
C516 C 0.03196 0.7982 0.14566 0.0
C517 C 0.07191 0.80102 0.11928 0.0
C518 C -0.00045 0.75975 0.14072 0.0
C519 C 0.98179 0.72752 0.14968 0.0
C520 C 0.99598 0.73326 0.16376 0.0
C521 C 0.02884 0.77162 0.16862 0.0
C522 C 0.04668 0.80376 0.15966 0.0
H523 H 0.09619 0.81172 0.1117 0.0
H524 H 0.08061 0.78873 0.12827 0.0
H525 H 0.0427 0.77599 0.1141 0.0
H526 H 0.987 0.75499 0.13006 0.0
H527 H 0.95609 0.69842 0.14572 0.0
H528 H 0.05195 0.02764 0.41071 0.0
H529 H 0.10732 0.02847 0.42491 0.0
H530 H 0.12967 0.13451 0.44793 0.0
H531 H 0.07403 0.13369 0.43396 0.0
H532 H 0.19125 0.08888 0.42905 0.0
H533 H 0.11266 0.05545 0.47845 0.0
H534 H 0.08595 0.04901 0.46172 0.0
H535 H 0.1175 0.09862 0.46998 0.0
C536 C 0.06858 0.05117 0.41879 0.0
C537 C 0.05822 0.08041 0.42125 0.0
C538 C 0.10027 0.05161 0.42688 0.0
C539 C 0.12211 0.08114 0.43762 0.0
C540 C 0.11259 0.11093 0.43989 0.0
H541 H 0.31515 0.13143 0.50036 0.0
H542 H 0.2645 0.13353 0.48436 0.0
C543 C 0.08086 0.11049 0.43184 0.0
C544 C 0.15481 0.08074 0.44645 0.0
H545 H 0.18231 0.07299 0.48001 0.0
C546 C 0.18929 0.08525 0.44019 0.0
C547 C 0.15205 0.07591 0.46097 0.0
C548 C 0.1149 0.06909 0.46819 0.0
C549 C 0.2216 0.08596 0.44812 0.0
C550 C 0.21893 0.0814 0.46264 0.0
C551 C 0.18434 0.07667 0.46888 0.0
C552 C 0.25163 0.0815 0.47165 0.0
C553 C 0.25869 0.09252 0.44094 0.0
C554 C 0.26116 0.05151 0.46982 0.0
C555 C 0.29028 0.05041 0.47891 0.0
C556 C 0.3103 0.07926 0.49 0.0
C557 C 0.30068 0.10923 0.49178 0.0
C558 C 0.27168 0.11037 0.48269 0.0
H559 H 0.26083 0.10575 0.4306 0.0
H560 H 0.28766 0.11284 0.44737 0.0
H561 H 0.25614 0.06295 0.43933 0.0
H562 H 0.24531 0.02835 0.46158 0.0
H563 H 0.29653 0.02652 0.47747 0.0
H564 H 0.12698 0.12706 0.75257 0.0
H565 H 0.1822 0.18003 0.76826 0.0
H566 H 0.09447 0.2029 0.78582 0.0
H567 H 0.03929 0.15006 0.77046 0.0
H568 H 0.2115 0.26311 0.77231 0.0
H569 H 0.14644 0.1793 0.81975 0.0
H570 H 0.12991 0.15547 0.80254 0.0
H571 H 0.10897 0.1838 0.80927 0.0
C572 C 0.11949 0.14349 0.75975 0.0
C573 C 0.07858 0.13395 0.76038 0.0
C574 C 0.15107 0.17369 0.76869 0.0
C575 C 0.14217 0.19467 0.77839 0.0
C576 C 0.10176 0.18631 0.77864 0.0
H577 H 0.27002 0.41895 0.82319 0.0
H578 H 0.24016 0.3645 0.80524 0.0
C579 C 0.07027 0.15616 0.7698 0.0
C580 C 0.17459 0.22521 0.78842 0.0
H581 H 0.19381 0.2512 0.82303 0.0
C582 C 0.20815 0.26034 0.78342 0.0
C583 C 0.17081 0.22102 0.80291 0.0
C584 C 0.13733 0.18264 0.80895 0.0
C585 C 0.23643 0.29266 0.79255 0.0
C586 C 0.23026 0.28995 0.80697 0.0
C587 C 0.19833 0.25363 0.81198 0.0
C588 C 0.2539 0.32515 0.81695 0.0
C589 C 0.27226 0.32945 0.78664 0.0
C590 C 0.27129 0.32116 0.82957 0.0
C591 C 0.28742 0.35187 0.83997 0.0
C592 C 0.28665 0.38722 0.8379 0.0
C593 C 0.27098 0.39199 0.82503 0.0
C594 C 0.25439 0.36108 0.81471 0.0
H595 H 0.28161 0.32111 0.77707 0.0
H596 H 0.26282 0.35114 0.78374 0.0
H597 H 0.29936 0.34488 0.79426 0.0
H598 H 0.27106 0.29364 0.83157 0.0
H599 H 0.29939 0.34747 0.84979 0.0
H600 H 0.98465 0.07649 0.68725 0.0
H601 H 0.95474 0.09518 0.668 0.0
H602 H 0.90927 0.14502 0.69713 0.0
H603 H 0.93788 0.1251 0.71646 0.0
H604 H 0.84896 0.08902 0.68079 0.0
H605 H 0.97315 0.19265 0.64774 0.0
H606 H 0.97529 0.14849 0.65116 0.0
H607 H 0.98356 0.18304 0.66532 0.0
C608 C 0.96936 0.09253 0.68956 0.0
C609 C 0.96308 0.0988 0.70337 0.0
C610 C 0.95252 0.1035 0.67852 0.0
C611 C 0.92992 0.12172 0.6811 0.0
C612 C 0.92657 0.13097 0.6949 0.0
H613 H 0.78857 0.16908 0.60719 0.0
H614 H 0.84636 0.18312 0.63051 0.0
C615 C 0.94284 0.11948 0.70593 0.0
C616 C 0.90392 0.12438 0.66972 0.0
H617 H 0.90416 0.15385 0.63639 0.0
C618 C 0.86122 0.10378 0.67117 0.0
C619 C 0.91984 0.14403 0.65722 0.0
C620 C 0.96554 0.16865 0.65532 0.0
C621 C 0.83388 0.10052 0.66027 0.0
C622 C 0.84955 0.11765 0.64748 0.0
C623 C 0.89229 0.14021 0.64619 0.0
C624 C 0.82178 0.1102 0.63516 0.0
C625 C 0.78846 0.07914 0.66259 0.0
C626 C 0.78754 0.05855 0.62867 0.0
C627 C 0.75184 0.04704 0.61391 0.0
C628 C 0.74757 0.09035 0.60817 0.0
C629 C 0.78969 0.1443 0.61174 0.0
C630 C 0.82423 0.15255 0.62661 0.0
H631 H 0.78244 0.07389 0.67377 0.0
H632 H 0.7757 0.09738 0.65867 0.0
H633 H 0.77174 0.04931 0.65688 0.0
H634 H 0.78835 0.0342 0.63373 0.0
H635 H 0.72875 0.01602 0.61074 0.0
H636 H 0.01328 0.98968 0.0434 0.0
H637 H 0.95992 0.93332 0.02846 0.0
H638 H 0.93671 0.01564 0.00602 0.0
H639 H 0.99043 0.07239 0.02074 0.0
H640 H 0.87504 0.90382 0.02261 0.0
H641 H 0.9646 0.96106 0.97561 0.0
H642 H 0.98734 0.98065 0.99293 0.0
H643 H 0.95541 0.9963 0.98433 0.0
C644 C 0.99673 0.99588 0.03534 0.0
C645 C 0.00654 0.03572 0.03318 0.0
C646 C 0.96617 0.96357 0.02683 0.0
C647 C 0.9449 0.97044 0.016 0.0
C648 C 0.95338 0.00984 0.01415 0.0
H649 H 0.77795 0.81306 0.94747 0.0
H650 H 0.81698 0.86908 0.96472 0.0
C651 C 0.98402 0.04222 0.02262 0.0
C652 C 0.91495 0.93656 0.00634 0.0
H653 H 0.89809 0.90245 0.97247 0.0
C654 C 0.87995 0.90348 0.01164 0.0
C655 C 0.92153 0.93627 0.99204 0.0
C656 C 0.95939 0.97026 0.98586 0.0
C657 C 0.85115 0.87013 0.00297 0.0
C658 C 0.85803 0.86964 0.98871 0.0
C659 C 0.8928 0.90296 0.98341 0.0
C660 C 0.83053 0.83445 0.97909 0.0
C661 C 0.81343 0.836 0.00914 0.0
C662 C 0.82495 0.79632 0.9815 0.0
C663 C 0.80242 0.76423 0.97171 0.0
C664 C 0.78538 0.76981 0.95928 0.0
C665 C 0.79045 0.80782 0.957 0.0
C666 C 0.81278 0.83982 0.96683 0.0
H667 H 0.80645 0.84617 0.01885 0.0
H668 H 0.78598 0.8232 0.00166 0.0
H669 H 0.81907 0.81149 0.01176 0.0
H670 H 0.83924 0.79174 0.99071 0.0
H671 H 0.79938 0.73537 0.97363 0.0
H672 H 0.91913 0.93735 0.33867 0.0
H673 H 0.9306 0.88738 0.32778 0.0
H674 H 0.02072 0.90884 0.36101 0.0
H675 H 0.00884 0.95825 0.37215 0.0
H676 H 0.00044 0.89214 0.31838 0.0
H677 H 0.93922 0.78721 0.36186 0.0
H678 H 0.93298 0.82992 0.36018 0.0
H679 H 0.98127 0.83728 0.36701 0.0
C680 C 0.9415 0.93157 0.34365 0.0
C681 C 0.96268 0.95139 0.35637 0.0
C682 C 0.94807 0.90306 0.33739 0.0
C683 C 0.97591 0.89386 0.34373 0.0
C684 C 0.99838 0.91482 0.35612 0.0
H685 H 0.03528 0.71266 0.32308 0.0
H686 H 0.03782 0.77297 0.33231 0.0
C687 C 0.99168 0.94317 0.36243 0.0
C688 C 0.98042 0.86148 0.33756 0.0
H689 H 0.96719 0.76915 0.34393 0.0
C690 C 0.9932 0.86525 0.32396 0.0
C691 C 0.97082 0.82638 0.34486 0.0
C692 C 0.95494 0.81963 0.35923 0.0
C693 C 0.99683 0.83487 0.31748 0.0
C694 C 0.9871 0.79983 0.32478 0.0
C695 C 0.9748 0.79625 0.33842 0.0
C696 C 0.988 0.76569 0.31834 0.0
C697 C 0.01127 0.84047 0.30294 0.0
C698 C 0.95904 0.7417 0.30748 0.0
C699 C 0.95738 0.70719 0.30225 0.0
C700 C 0.98504 0.69641 0.3077 0.0
C701 C 0.01421 0.72076 0.3185 0.0
C702 C 0.01563 0.75507 0.32379 0.0
H703 H 0.0259 0.87248 0.29991 0.0
H704 H 0.03368 0.83073 0.30199 0.0
H705 H 0.98442 0.82139 0.29549 0.0
H706 H 0.93686 0.74896 0.30335 0.0
H707 H 0.93389 0.68845 0.29417 0.0
H708 H 0.06091 0.00475 0.67583 0.0
H709 H 0.1178 0.0118 0.66307 0.0
H710 H 0.20474 0.09099 0.69605 0.0
H711 H 0.1479 0.08343 0.70907 0.0
H712 H 0.18756 0.07837 0.65331 0.0
H713 H 0.22967 0.00139 0.69319 0.0
H714 H 0.18223 0.001 0.69311 0.0
H715 H 0.23001 0.04502 0.69967 0.0
C716 C 0.09213 0.02384 0.68036 0.0
C717 C 0.09985 0.04312 0.69355 0.0
C718 C 0.12461 0.02789 0.67303 0.0
C719 C 0.16537 0.05129 0.67874 0.0
C720 C 0.17339 0.07205 0.69161 0.0
H721 H 0.39251 0.08084 0.65074 0.0
H722 H 0.34266 0.09058 0.6624 0.0
C723 C 0.14089 0.06783 0.699 0.0
C724 C 0.19914 0.05265 0.67138 0.0
H725 H 0.27178 0.02678 0.67423 0.0
C726 C 0.20608 0.06721 0.65788 0.0
C727 C 0.22311 0.03792 0.67738 0.0
C728 C 0.21576 0.0201 0.69158 0.0
C729 C 0.23646 0.06746 0.65021 0.0
C730 C 0.2601 0.0524 0.65617 0.0
C731 C 0.25363 0.03846 0.66974 0.0
C732 C 0.2907 0.04927 0.64837 0.0
C733 C 0.24321 0.08397 0.63583 0.0
C734 C 0.27784 0.02271 0.63667 0.0
C735 C 0.30619 0.01706 0.63002 0.0
C736 C 0.34794 0.03812 0.63492 0.0
C737 C 0.3607 0.06485 0.6466 0.0
C738 C 0.33231 0.07036 0.65327 0.0
H739 H 0.23003 0.10329 0.63413 0.0
H740 H 0.27661 0.102 0.63401 0.0
H741 H 0.22787 0.05836 0.628 0.0
H742 H 0.24564 0.0054 0.63295 0.0
H743 H 0.29533 0.99554 0.62125 0.0
H744 H 0.18009 0.21033 0.04002 0.0
H745 H 0.21837 0.24799 0.02045 0.0
H746 H 0.2341 0.15009 0.00845 0.0
H747 H 0.19518 0.11151 0.02823 0.0
H748 H 0.30453 0.26779 0.01439 0.0
H749 H 0.17944 0.17676 0.97318 0.0
H750 H 0.16741 0.17736 0.99103 0.0
H751 H 0.19307 0.15197 0.98621 0.0
C752 C 0.19136 0.19649 0.03322 0.0
C753 C 0.18423 0.15772 0.03559 0.0
C754 C 0.21349 0.21824 0.02209 0.0
C755 C 0.22889 0.20174 0.01304 0.0
C756 C 0.22223 0.16316 0.01534 0.0
H757 H 0.31863 0.33528 0.93662 0.0
H758 H 0.3046 0.28321 0.95352 0.0
C759 C 0.20009 0.14126 0.02661 0.0
C760 C 0.25126 0.22562 0.00118 0.0
H761 H 0.23398 0.24068 0.96734 0.0
C762 C 0.28969 0.26144 0.00399 0.0
C763 C 0.23189 0.21702 0.98764 0.0
C764 C 0.19064 0.17875 0.9842 0.0
C765 C 0.30802 0.29024 0.99382 0.0
C766 C 0.28683 0.28334 0.98064 0.0
C767 C 0.25001 0.24604 0.9775 0.0
C768 C 0.29942 0.31613 0.97069 0.0
C769 C 0.34919 0.32844 0.99744 0.0
C770 C 0.3009 0.35169 0.97473 0.0
C771 C 0.30891 0.38132 0.96515 0.0
C772 C 0.31557 0.37594 0.95131 0.0
C773 C 0.31427 0.34041 0.94728 0.0
C774 C 0.30622 0.3107 0.95689 0.0
H775 H 0.36752 0.32304 0.00548 0.0
H776 H 0.3674 0.34045 0.98815 0.0
H777 H 0.34406 0.35186 0.00178 0.0
H778 H 0.29446 0.35595 0.9852 0.0
H779 H 0.30882 0.40797 0.96845 0.0
H780 H 0.04732 0.20621 0.37955 0.0
H781 H 0.07443 0.25559 0.36156 0.0
H782 H 0.03582 0.15972 0.3305 0.0
H783 H 0.00771 0.10943 0.34858 0.0
H784 H 0.13249 0.27395 0.34167 0.0
H785 H 0.97448 0.2164 0.31753 0.0
H786 H 0.98264 0.20126 0.33445 0.0
H787 H 0.99174 0.18146 0.3191 0.0
C788 C 0.04486 0.19544 0.36893 0.0
C789 C 0.02479 0.15378 0.36548 0.0
C790 C 0.06058 0.2238 0.35865 0.0
C791 C 0.05659 0.21129 0.34468 0.0
C792 C 0.03864 0.16992 0.34121 0.0
H793 H 0.16479 0.42701 0.29316 0.0
H794 H 0.14559 0.35834 0.29945 0.0
C795 C 0.02286 0.1413 0.35156 0.0
C796 C 0.06886 0.24204 0.33396 0.0
H797 H 0.02767 0.27951 0.31085 0.0
C798 C 0.10988 0.27483 0.33464 0.0
C799 C 0.0391 0.24301 0.32488 0.0
C800 C 0.99444 0.20885 0.32391 0.0
C801 C 0.1214 0.30989 0.32727 0.0
C802 C 0.09111 0.31179 0.3188 0.0
C803 C 0.05074 0.27785 0.31734 0.0
C804 C 0.09915 0.35057 0.31322 0.0
C805 C 0.16507 0.34573 0.32948 0.0
C806 C 0.07822 0.36816 0.31841 0.0
C807 C 0.08877 0.40697 0.31473 0.0
C808 C 0.12026 0.42888 0.30569 0.0
C809 C 0.14012 0.4106 0.30004 0.0
C810 C 0.12942 0.37158 0.3037 0.0
H811 H 0.18286 0.34128 0.338 0.0
H812 H 0.18124 0.35041 0.31979 0.0
H813 H 0.16515 0.37372 0.33198 0.0
H814 H 0.05487 0.35252 0.3258 0.0
H815 H 0.07329 0.42047 0.31934 0.0
loop_
_geom_bond_atom_site_label_1
_geom_bond_atom_site_label_2
_geom_bond_distance
_geom_bond_site_symmetry_2
_ccdc_geom_bond_type
Mg0 O1 2.028 . S
Mg0 O7 1.986 . S
Mg0 O9 2.114 . S
Mg0 O10 2.251 . S
Mg0 O13 2.010 . S
O1 Mg0 2.028 . S
O1 C4 1.250 . S
O2 Mg3 2.028 . S
O2 C4 1.248 . S
Mg3 O2 2.028 . S
Mg3 O8 2.032 . S
Mg3 O10 2.079 . S
C4 O1 1.250 . S
C4 O2 1.248 . S
C5 O6 1.264 . S
C5 O13 1.249 . S
O6 C5 1.264 . S
O7 Mg0 1.986 . S
O7 C11 1.246 . S
O8 Mg3 2.032 . S
O8 C11 1.259 . S
O9 Mg0 2.114 . S
O9 C12 1.252 . S
O10 Mg0 2.251 . S
O10 Mg3 2.079 . S
O10 C12 1.273 . S
C11 O7 1.246 . S
C11 O8 1.259 . S
C12 O9 1.252 . S
C12 O10 1.273 . S
O13 Mg0 2.010 . S
O13 C5 1.249 . S
Mg14 O15 2.028 1_655 S
Mg14 O21 1.986 1_655 S
Mg14 O23 2.114 . S
Mg14 O24 2.251 . S
Mg14 O27 2.010 1_545 S
O15 Mg14 2.028 1_455 S
O15 C18 1.250 . S
O16 Mg17 2.028 . S
O16 C18 1.248 . S
Mg17 O16 2.028 . S
Mg17 O22 2.032 . S
Mg17 O24 2.079 1_455 S
C18 O15 1.250 . S
C18 O16 1.248 . S
C19 O20 1.264 . S
C19 O27 1.249 . S
O20 C19 1.264 . S
O21 Mg14 1.986 1_455 S
O21 C25 1.246 . S
O22 Mg17 2.032 . S
O22 C25 1.259 . S
O23 Mg14 2.114 . S
O23 C26 1.252 . S
O24 Mg14 2.251 . S
O24 Mg17 2.079 1_655 S
O24 C26 1.273 . S
C25 O21 1.246 . S
C25 O22 1.259 . S
C26 O23 1.252 . S
C26 O24 1.273 . S
O27 Mg14 2.010 1_565 S
O27 C19 1.249 . S
Mg28 O29 2.028 . S
Mg28 O35 1.987 1_455 S
Mg28 O37 2.114 1_545 S
Mg28 O38 2.251 1_455 S
Mg28 O41 2.010 . S
O29 Mg28 2.028 . S
O29 C32 1.250 . S
O30 Mg31 2.028 1_455 S
O30 C32 1.248 . S
Mg31 O30 2.028 1_655 S
Mg31 O36 2.032 . S
Mg31 O38 2.079 . S
C32 O29 1.250 . S
C32 O30 1.248 . S
C33 O34 1.264 1_545 S
C33 O41 1.249 . S
O34 C33 1.264 1_565 S
O35 Mg28 1.987 1_655 S
O35 C39 1.245 . S
O36 Mg31 2.032 . S
O36 C39 1.259 . S
O37 Mg28 2.114 1_565 S
O37 C40 1.252 1_455 S
O38 Mg28 2.251 1_655 S
O38 Mg31 2.079 . S
O38 C40 1.273 1_545 S
C39 O35 1.245 . S
C39 O36 1.259 . S
C40 O37 1.252 1_655 S
C40 O38 1.273 1_565 S
O41 Mg28 2.010 . S
O41 C33 1.249 . S
C42 C43 1.560 1_655 S
C42 H103 0.959 . S
C42 H104 0.959 . S
C42 H105 0.960 . S
C43 C42 1.560 1_455 S
C43 O98 1.426 1_455 S
C43 H102 0.980 . S
C44 C45 1.407 . S
C44 C49 1.418 1_455 S
C44 O98 1.334 1_455 S
C45 C44 1.407 . S
C45 C46 1.360 . S
C45 H106 0.929 . S
C46 C45 1.360 . S
C46 C47 1.401 . S
C46 C50 1.527 . S
C47 C46 1.401 . S
C47 C48 1.405 1_455 S
C47 C80 1.587 . S
C48 C47 1.405 1_655 S
C48 C49 1.332 . S
C48 C51 1.496 . S
C49 C44 1.418 1_655 S
C49 C48 1.332 . S
C49 H107 0.929 . S
C50 C46 1.527 . S
C50 H108 0.959 . S
C50 H109 0.961 . S
C50 H110 0.961 . S
C51 C48 1.496 . S
C51 H111 0.960 . S
C51 H112 0.960 . S
C51 H113 0.961 . S
C52 C53 1.517 . S
C52 H115 0.961 . S
C52 H116 0.960 . S
C52 H117 0.959 . S
C53 C52 1.517 . S
C53 O101 1.468 . S
C53 H114 0.980 . S
C54 C55 1.349 . S
C54 C59 1.367 . S
C54 O101 1.408 . S
C55 C54 1.349 . S
C55 C56 1.407 . S
C55 H118 0.930 . S
C56 C55 1.407 . S
C56 C57 1.449 . S
C56 C60 1.535 1_455 S
C57 C56 1.449 . S
C57 C58 1.384 . S
C57 C82 1.553 . S
C58 C57 1.384 . S
C58 C59 1.364 . S
C58 C61 1.450 . S
C59 C54 1.367 . S
C59 C58 1.364 . S
C59 H119 0.931 . S
C60 C56 1.535 1_655 S
C60 H120 0.959 . S
C60 H121 0.961 . S
C60 H122 0.959 . S
C61 C58 1.450 . S
C61 H123 0.960 . S
C61 H124 0.960 . S
C61 H125 0.960 . S
C62 C63 1.309 . S
C62 C67 1.304 . S
C62 O100 1.435 . S
C63 C62 1.309 . S
C63 C64 1.476 . S
C63 H127 0.930 . S
C64 C63 1.476 . S
C64 C65 1.400 . S
C64 C68 1.567 1_455 S
C65 C64 1.400 . S
C65 C66 1.373 . S
C65 C87 1.432 . S
C66 C65 1.373 . S
C66 C67 1.339 . S
C66 C69 1.530 . S
C67 C62 1.304 . S
C67 C66 1.339 . S
C67 H128 0.930 . S
C68 C64 1.567 1_655 S
C68 H129 0.961 . S
C68 H130 0.960 . S
C68 H131 0.958 . S
C69 C66 1.530 . S
C69 H132 0.961 . S
C69 H133 0.960 . S
C69 H134 0.960 . S
C70 C71 1.530 . S
C70 H136 0.961 . S
C70 H137 0.961 1_455 S
C70 H138 0.959 1_455 S
C71 C70 1.530 . S
C71 O99 1.412 . S
C71 H135 0.980 . S
C72 C73 1.288 1_455 S
C72 C77 1.377 . S
C72 O99 1.393 . S
C73 C72 1.288 1_655 S
C73 C74 1.369 1_655 S
C73 H139 0.932 . S
C74 C73 1.369 1_455 S
C74 C75 1.398 . S
C74 C78 1.527 1_455 S
C75 C74 1.398 . S
C75 C76 1.380 . S
C75 C89 1.497 . S
C76 C75 1.380 . S
C76 C77 1.383 . S
C76 C79 1.603 . S
C77 C72 1.377 . S
C77 C76 1.383 . S
C77 H140 0.929 . S
C78 C74 1.527 1_655 S
C78 H141 0.961 . S
C78 H142 0.959 . S
C78 H143 0.959 . S
C79 C76 1.603 . S
C79 H144 0.960 . S
C79 H145 0.962 . S
C79 H146 0.961 . S
C80 C47 1.587 . S
C80 C81 1.360 . S
C80 C93 1.412 . S
C81 C80 1.360 . S
C81 C82 1.365 . S
C81 H147 0.929 . S
C82 C57 1.553 . S
C82 C81 1.365 . S
C82 C83 1.404 . S
C83 C82 1.404 . S
C83 C84 1.395 . S
C83 C94 1.451 . S
C84 C83 1.395 . S
C84 C85 1.322 . S
C84 H148 0.930 . S
C85 C84 1.322 . S
C85 C86 1.459 . S
C85 H149 0.929 . S
C86 C85 1.459 . S
C86 C87 1.445 . S
C86 C95 1.395 . S
C87 C65 1.432 . S
C87 C86 1.445 . S
C87 C88 1.370 . S
C88 C87 1.370 . S
C88 C89 1.438 . S
C88 H150 0.930 . S
C89 C75 1.497 . S
C89 C88 1.438 . S
C89 C90 1.360 . S
C90 C89 1.360 . S
C90 C91 1.401 . S
C90 C95 1.446 . S
C91 C90 1.401 . S
C91 C92 1.347 . S
C91 H151 0.929 . S
C92 C91 1.347 . S
C92 C93 1.455 . S
C92 H152 0.930 . S
C93 C80 1.412 . S
C93 C92 1.455 . S
C93 C94 1.331 . S
C94 C83 1.451 . S
C94 C93 1.331 . S
C94 C95 1.497 . S
C95 C86 1.395 . S
C95 C90 1.446 . S
C95 C94 1.497 . S
C96 C97 1.582 . S
C96 H153 0.962 . S
C96 H154 0.959 . S
C96 H155 0.958 . S
C97 C96 1.582 . S
C97 O100 1.458 . S
C97 H126 0.980 . S
O98 C43 1.426 1_655 S
O98 C44 1.334 1_655 S
O99 C71 1.412 . S
O99 C72 1.393 . S
O100 C62 1.435 . S
O100 C97 1.458 . S
O101 C53 1.468 . S
O101 C54 1.408 . S
H102 C43 0.980 . S
H103 C42 0.959 . S
H104 C42 0.959 . S
H105 C42 0.960 . S
H106 C45 0.929 . S
H107 C49 0.929 . S
H108 C50 0.959 . S
H109 C50 0.961 . S
H110 C50 0.961 . S
H111 C51 0.960 . S
H112 C51 0.960 . S
H113 C51 0.961 . S
H114 C53 0.980 . S
H115 C52 0.961 . S
H116 C52 0.960 . S
H117 C52 0.959 . S
H118 C55 0.930 . S
H119 C59 0.931 . S
H120 C60 0.959 . S
H121 C60 0.961 . S
H122 C60 0.959 . S
H123 C61 0.960 . S
H124 C61 0.960 . S
H125 C61 0.960 . S
H126 C97 0.980 . S
H127 C63 0.930 . S
H128 C67 0.930 . S
H129 C68 0.961 . S
H130 C68 0.960 . S
H131 C68 0.958 . S
H132 C69 0.961 . S
H133 C69 0.960 . S
H134 C69 0.960 . S
H135 C71 0.980 . S
H136 C70 0.961 . S
H137 C70 0.961 1_655 S
H138 C70 0.959 1_655 S
H139 C73 0.932 . S
H140 C77 0.929 . S
H141 C78 0.961 . S
H142 C78 0.959 . S
H143 C78 0.959 . S
H144 C79 0.960 . S
H145 C79 0.962 . S
H146 C79 0.961 . S
H147 C81 0.929 . S
H148 C84 0.930 . S
H149 C85 0.929 . S
H150 C88 0.930 . S
H151 C91 0.929 . S
H152 C92 0.930 . S
H153 C96 0.962 . S
H154 C96 0.959 . S
H155 C96 0.958 . S
C156 C157 1.560 . S
C156 H217 0.959 . S
C156 H218 0.959 . S
C156 H219 0.960 . S
C157 C156 1.560 . S
C157 O212 1.426 . S
C157 H216 0.980 . S
C158 C159 1.407 . S
C158 C163 1.418 . S
C158 O212 1.334 . S
C159 C158 1.407 . S
C159 C160 1.360 . S
C159 H220 0.929 . S
C160 C159 1.360 . S
C160 C161 1.401 . S
C160 C164 1.527 . S
C161 C160 1.401 . S
C161 C162 1.405 . S
C161 C194 1.587 . S
C162 C161 1.405 . S
C162 C163 1.332 . S
C162 C165 1.496 . S
C163 C158 1.418 . S
C163 C162 1.332 . S
C163 H221 0.929 . S
C164 C160 1.527 . S
C164 H222 0.959 . S
C164 H223 0.961 . S
C164 H224 0.961 . S
C165 C162 1.496 . S
C165 H225 0.960 1_545 S
C165 H226 0.960 . S
C165 H227 0.961 . S
C166 C167 1.517 . S
C166 H229 0.961 . S
C166 H230 0.960 . S
C166 H231 0.959 . S
C167 C166 1.517 . S
C167 O215 1.468 . S
C167 H228 0.980 . S
C168 C169 1.349 . S
C168 C173 1.367 . S
C168 O215 1.408 . S
C169 C168 1.349 . S
C169 C170 1.407 . S
C169 H232 0.930 . S
C170 C169 1.407 . S
C170 C171 1.449 . S
C170 C174 1.535 . S
C171 C170 1.449 . S
C171 C172 1.384 . S
C171 C196 1.553 . S
C172 C171 1.384 . S
C172 C173 1.364 . S
C172 C175 1.450 . S
C173 C168 1.367 . S
C173 C172 1.364 . S
C173 H233 0.931 . S
C174 C170 1.535 . S
C174 H234 0.959 . S
C174 H235 0.961 . S
C174 H236 0.959 . S
C175 C172 1.450 . S
C175 H237 0.960 . S
C175 H238 0.960 . S
C175 H239 0.960 . S
C176 C177 1.309 . S
C176 C181 1.304 . S
C176 O214 1.435 . S
C177 C176 1.309 . S
C177 C178 1.476 . S
C177 H241 0.930 . S
C178 C177 1.476 . S
C178 C179 1.400 . S
C178 C182 1.567 . S
C179 C178 1.400 . S
C179 C180 1.373 . S
C179 C201 1.432 . S
C180 C179 1.373 . S
C180 C181 1.339 . S
C180 C183 1.530 . S
C181 C176 1.304 . S
C181 C180 1.339 . S
C181 H242 0.930 . S
C182 C178 1.567 . S
C182 H243 0.961 . S
C182 H244 0.960 . S
C182 H245 0.958 . S
C183 C180 1.530 . S
C183 H246 0.961 . S
C183 H247 0.960 . S
C183 H248 0.960 . S
C184 C185 1.530 . S
C184 H250 0.961 . S
C184 H251 0.961 . S
C184 H252 0.959 . S
C185 C184 1.530 . S
C185 O213 1.412 . S
C185 H249 0.980 . S
C186 C187 1.288 . S
C186 C191 1.377 . S
C186 O213 1.393 . S
C187 C186 1.288 . S
C187 C188 1.369 . S
C187 H253 0.932 . S
C188 C187 1.369 . S
C188 C189 1.398 . S
C188 C192 1.527 . S
C189 C188 1.398 . S
C189 C190 1.380 . S
C189 C203 1.497 . S
C190 C189 1.380 . S
C190 C191 1.383 . S
C190 C193 1.603 . S
C191 C186 1.377 . S
C191 C190 1.383 . S
C191 H254 0.929 . S
C192 C188 1.527 . S
C192 H255 0.961 . S
C192 H256 0.959 . S
C192 H257 0.959 1_545 S
C193 C190 1.603 . S
C193 H258 0.960 . S
C193 H259 0.962 . S
C193 H260 0.961 . S
C194 C161 1.587 . S
C194 C195 1.360 . S
C194 C207 1.412 . S
C195 C194 1.360 . S
C195 C196 1.365 . S
C195 H261 0.929 . S
C196 C171 1.553 . S
C196 C195 1.365 . S
C196 C197 1.404 . S
C197 C196 1.404 . S
C197 C198 1.395 . S
C197 C208 1.451 . S
C198 C197 1.395 . S
C198 C199 1.322 . S
C198 H262 0.930 . S
C199 C198 1.322 . S
C199 C200 1.459 . S
C199 H263 0.929 . S
C200 C199 1.459 . S
C200 C201 1.445 . S
C200 C209 1.395 . S
C201 C179 1.432 . S
C201 C200 1.445 . S
C201 C202 1.370 . S
C202 C201 1.370 . S
C202 C203 1.438 . S
C202 H264 0.930 . S
C203 C189 1.497 . S
C203 C202 1.438 . S
C203 C204 1.360 . S
C204 C203 1.360 . S
C204 C205 1.401 . S
C204 C209 1.446 . S
C205 C204 1.401 . S
C205 C206 1.347 . S
C205 H265 0.929 . S
C206 C205 1.347 . S
C206 C207 1.455 . S
C206 H266 0.930 . S
C207 C194 1.412 . S
C207 C206 1.455 . S
C207 C208 1.331 . S
C208 C197 1.451 . S
C208 C207 1.331 . S
C208 C209 1.497 . S
C209 C200 1.395 . S
C209 C204 1.446 . S
C209 C208 1.497 . S
C210 C211 1.582 . S
C210 H267 0.962 . S
C210 H268 0.959 . S
C210 H269 0.958 . S
C211 C210 1.582 . S
C211 O214 1.458 . S
C211 H240 0.980 . S
O212 C157 1.426 . S
O212 C158 1.334 . S
O213 C185 1.412 . S
O213 C186 1.393 . S
O214 C176 1.435 . S
O214 C211 1.458 . S
O215 C167 1.468 . S
O215 C168 1.408 . S
H216 C157 0.980 . S
H217 C156 0.959 . S
H218 C156 0.959 . S
H219 C156 0.960 . S
H220 C159 0.929 . S
H221 C163 0.929 . S
H222 C164 0.959 . S
H223 C164 0.961 . S
H224 C164 0.961 . S
H225 C165 0.960 1_565 S
H226 C165 0.960 . S
H227 C165 0.961 . S
H228 C167 0.980 . S
H229 C166 0.961 . S
H230 C166 0.960 . S
H231 C166 0.959 . S
H232 C169 0.930 . S
H233 C173 0.931 . S
H234 C174 0.959 . S
H235 C174 0.961 . S
H236 C174 0.959 . S
H237 C175 0.960 . S
H238 C175 0.960 . S
H239 C175 0.960 . S
H240 C211 0.980 . S
H241 C177 0.930 . S
H242 C181 0.930 . S
H243 C182 0.961 . S
H244 C182 0.960 . S
H245 C182 0.958 . S
H246 C183 0.961 . S
H247 C183 0.960 . S
H248 C183 0.960 . S
H249 C185 0.980 . S
H250 C184 0.961 . S
H251 C184 0.961 . S
H252 C184 0.959 . S
H253 C187 0.932 . S
H254 C191 0.929 . S
H255 C192 0.961 . S
H256 C192 0.959 . S
H257 C192 0.959 1_565 S
H258 C193 0.960 . S
H259 C193 0.962 . S
H260 C193 0.961 . S
H261 C195 0.929 . S
H262 C198 0.930 . S
H263 C199 0.929 . S
H264 C202 0.930 . S
H265 C205 0.929 . S
H266 C206 0.930 . S
H267 C210 0.962 . S
H268 C210 0.959 . S
H269 C210 0.958 . S
C270 C271 1.560 . S
C270 H331 0.959 . S
C270 H332 0.959 . S
C270 H333 0.960 . S
C271 C270 1.560 . S
C271 O326 1.426 . S
C271 H330 0.980 . S
C272 C273 1.407 . S
C272 C277 1.418 . S
C272 O326 1.334 . S
C273 C272 1.407 . S
C273 C274 1.360 . S
C273 H334 0.929 . S
C274 C273 1.360 . S
C274 C275 1.401 . S
C274 C278 1.527 . S
C275 C274 1.401 . S
C275 C276 1.405 . S
C275 C308 1.587 . S
C276 C275 1.405 . S
C276 C277 1.332 . S
C276 C279 1.496 . S
C277 C272 1.418 . S
C277 C276 1.332 . S
C277 H335 0.929 . S
C278 C274 1.527 . S
C278 H336 0.959 . S
C278 H337 0.961 . S
C278 H338 0.961 . S
C279 C276 1.496 . S
C279 H339 0.960 . S
C279 H340 0.960 . S
C279 H341 0.961 . S
C280 C281 1.517 . S
C280 H343 0.961 . S
C280 H344 0.960 . S
C280 H345 0.959 . S
C281 C280 1.517 . S
C281 O329 1.468 . S
C281 H342 0.980 . S
C282 C283 1.349 . S
C282 C287 1.367 . S
C282 O329 1.408 . S
C283 C282 1.349 . S
C283 C284 1.407 . S
C283 H346 0.930 . S
C284 C283 1.407 . S
C284 C285 1.449 . S
C284 C288 1.535 . S
C285 C284 1.449 . S
C285 C286 1.384 . S
C285 C310 1.553 . S
C286 C285 1.384 . S
C286 C287 1.364 . S
C286 C289 1.450 . S
C287 C282 1.367 . S
C287 C286 1.364 . S
C287 H347 0.931 . S
C288 C284 1.535 . S
C288 H348 0.959 . S
C288 H349 0.961 . S
C288 H350 0.959 . S
C289 C286 1.450 . S
C289 H351 0.960 . S
C289 H352 0.960 . S
C289 H353 0.960 . S
C290 C291 1.309 . S
C290 C295 1.304 . S
C290 O328 1.435 . S
C291 C290 1.309 . S
C291 C292 1.476 . S
C291 H355 0.930 . S
C292 C291 1.476 . S
C292 C293 1.400 . S
C292 C296 1.567 . S
C293 C292 1.400 . S
C293 C294 1.373 . S
C293 C315 1.432 . S
C294 C293 1.373 . S
C294 C295 1.339 . S
C294 C297 1.530 . S
C295 C290 1.304 . S
C295 C294 1.339 . S
C295 H356 0.930 . S
C296 C292 1.567 . S
C296 H357 0.961 . S
C296 H358 0.960 . S
C296 H359 0.958 . S
C297 C294 1.530 . S
C297 H360 0.961 . S
C297 H361 0.960 . S
C297 H362 0.960 . S
C298 C299 1.530 . S
C298 H364 0.961 . S
C298 H365 0.961 . S
C298 H366 0.959 . S
C299 C298 1.530 . S
C299 O327 1.412 . S
C299 H363 0.980 . S
C300 C301 1.288 . S
C300 C305 1.377 . S
C300 O327 1.393 . S
C301 C300 1.288 . S
C301 C302 1.369 . S
C301 H367 0.932 . S
C302 C301 1.369 . S
C302 C303 1.398 . S
C302 C306 1.527 . S
C303 C302 1.398 . S
C303 C304 1.380 . S
C303 C317 1.497 . S
C304 C303 1.380 . S
C304 C305 1.383 . S
C304 C307 1.603 . S
C305 C300 1.377 . S
C305 C304 1.383 . S
C305 H368 0.929 . S
C306 C302 1.527 . S
C306 H369 0.961 . S
C306 H370 0.959 . S
C306 H371 0.959 . S
C307 C304 1.603 . S
C307 H372 0.960 . S
C307 H373 0.962 . S
C307 H374 0.961 . S
C308 C275 1.587 . S
C308 C309 1.360 . S
C308 C321 1.412 . S
C309 C308 1.360 . S
C309 C310 1.365 . S
C309 H375 0.929 . S
C310 C285 1.553 . S
C310 C309 1.365 . S
C310 C311 1.404 . S
C311 C310 1.404 . S
C311 C312 1.395 . S
C311 C322 1.451 . S
C312 C311 1.395 . S
C312 C313 1.322 . S
C312 H376 0.930 . S
C313 C312 1.322 . S
C313 C314 1.459 . S
C313 H377 0.929 . S
C314 C313 1.459 . S
C314 C315 1.445 . S
C314 C323 1.395 . S
C315 C293 1.432 . S
C315 C314 1.445 . S
C315 C316 1.370 . S
C316 C315 1.370 . S
C316 C317 1.438 . S
C316 H378 0.930 . S
C317 C303 1.497 . S
C317 C316 1.438 . S
C317 C318 1.360 . S
C318 C317 1.360 . S
C318 C319 1.401 . S
C318 C323 1.446 . S
C319 C318 1.401 . S
C319 C320 1.347 . S
C319 H379 0.929 . S
C320 C319 1.347 . S
C320 C321 1.455 . S
C320 H380 0.930 . S
C321 C308 1.412 . S
C321 C320 1.455 . S
C321 C322 1.331 . S
C322 C311 1.451 . S
C322 C321 1.331 . S
C322 C323 1.497 . S
C323 C314 1.395 . S
C323 C318 1.446 . S
C323 C322 1.497 . S
C324 C325 1.582 . S
C324 H381 0.962 . S
C324 H382 0.959 . S
C324 H383 0.958 . S
C325 C324 1.582 . S
C325 O328 1.458 . S
C325 H354 0.980 . S
O326 C271 1.426 . S
O326 C272 1.334 . S
O327 C299 1.412 . S
O327 C300 1.393 . S
O328 C290 1.435 . S
O328 C325 1.458 . S
O329 C281 1.468 . S
O329 C282 1.408 . S
H330 C271 0.980 . S
H331 C270 0.959 . S
H332 C270 0.959 . S
H333 C270 0.960 . S
H334 C273 0.929 . S
H335 C277 0.929 . S
H336 C278 0.959 . S
H337 C278 0.961 . S
H338 C278 0.961 . S
H339 C279 0.960 . S
H340 C279 0.960 . S
H341 C279 0.961 . S
H342 C281 0.980 . S
H343 C280 0.961 . S
H344 C280 0.960 . S
H345 C280 0.959 . S
H346 C283 0.930 . S
H347 C287 0.931 . S
H348 C288 0.959 . S
H349 C288 0.961 . S
H350 C288 0.959 . S
H351 C289 0.960 . S
H352 C289 0.960 . S
H353 C289 0.960 . S
H354 C325 0.980 . S
H355 C291 0.930 . S
H356 C295 0.930 . S
H357 C296 0.961 . S
H358 C296 0.960 . S
H359 C296 0.958 . S
H360 C297 0.961 . S
H361 C297 0.960 . S
H362 C297 0.960 . S
H363 C299 0.980 . S
H364 C298 0.961 . S
H365 C298 0.961 . S
H366 C298 0.959 . S
H367 C301 0.932 . S
H368 C305 0.929 . S
H369 C306 0.961 . S
H370 C306 0.959 . S
H371 C306 0.959 . S
H372 C307 0.960 . S
H373 C307 0.962 . S
H374 C307 0.961 . S
H375 C309 0.929 . S
H376 C312 0.930 . S
H377 C313 0.929 . S
H378 C316 0.930 . S
H379 C319 0.929 . S
H380 C320 0.930 . S
H381 C324 0.962 . S
H382 C324 0.959 . S
H383 C324 0.958 . S
H384 C392 0.929 . S
H385 C394 0.930 . S
H386 C396 0.930 . S
H387 C399 0.929 . S
H388 C402 0.928 1_655 S
H389 C404 0.960 . S
H390 C404 0.960 . S
H391 C404 0.960 . S
C392 H384 0.929 . S
C392 C393 1.377 . S
C392 C394 1.384 . S
C393 C392 1.377 . S
C393 C399 1.390 . S
C394 H385 0.930 . S
C394 C392 1.384 . S
C394 C395 1.372 . S
C395 C394 1.372 . S
C395 C396 1.400 . S
C395 C400 1.490 . S
C396 H386 0.930 . S
C396 C395 1.400 . S
C396 C399 1.386 . S
H397 C413 0.930 . S
H398 C414 0.931 . S
C399 H387 0.929 . S
C399 C393 1.390 . S
C399 C396 1.386 . S
C400 C395 1.490 . S
C400 C402 1.395 . S
C400 C403 1.403 . S
H401 C407 0.930 . S
C402 H388 0.928 1_455 S
C402 C400 1.395 . S
C402 C405 1.403 . S
C403 C400 1.403 . S
C403 C404 1.524 . S
C403 C407 1.400 . S
C404 H389 0.960 . S
C404 H390 0.960 . S
C404 H391 0.960 . S
C404 C403 1.524 . S
C405 C402 1.403 . S
C405 C406 1.392 . S
C405 C409 1.495 1_455 S
C406 C405 1.392 . S
C406 C407 1.385 . S
C406 C408 1.478 . S
C407 H401 0.930 . S
C407 C403 1.400 . S
C407 C406 1.385 . S
C408 C406 1.478 . S
C408 C410 1.381 . S
C408 C414 1.383 . S
C409 C405 1.495 1_655 S
C409 H415 0.959 . S
C409 H416 0.961 . S
C409 H417 0.960 . S
C410 C408 1.381 . S
C410 C411 1.394 . S
C410 H418 0.930 . S
C411 C410 1.394 . S
C411 C412 1.383 . S
C411 H419 0.929 . S
C412 C411 1.383 . S
C412 C413 1.377 . S
C413 H397 0.930 . S
C413 C412 1.377 . S
C413 C414 1.379 . S
C414 H398 0.931 . S
C414 C408 1.383 . S
C414 C413 1.379 . S
H415 C409 0.959 . S
H416 C409 0.961 . S
H417 C409 0.960 . S
H418 C410 0.930 . S
H419 C411 0.929 . S
H420 C428 0.929 1_565 S
H421 C430 0.930 1_565 S
H422 C432 0.930 . S
H423 C435 0.929 . S
H424 C438 0.930 . S
H425 C440 0.960 . S
H426 C440 0.960 . S
H427 C440 0.960 . S
C428 H420 0.929 1_545 S
C428 C429 1.377 . S
C428 C430 1.384 . S
C429 C428 1.377 . S
C429 C435 1.390 . S
C430 H421 0.930 1_545 S
C430 C428 1.384 . S
C430 C431 1.372 . S
C431 C430 1.372 . S
C431 C432 1.400 . S
C431 C436 1.490 . S
C432 H422 0.930 . S
C432 C431 1.400 . S
C432 C435 1.386 . S
H433 C449 0.930 . S
H434 C450 0.931 . S
C435 H423 0.929 . S
C435 C429 1.390 . S
C435 C432 1.386 . S
C436 C431 1.490 . S
C436 C438 1.395 . S
C436 C439 1.403 . S
H437 C443 0.930 . S
C438 H424 0.930 . S
C438 C436 1.395 . S
C438 C441 1.403 . S
C439 C436 1.403 . S
C439 C440 1.524 . S
C439 C443 1.400 . S
C440 H425 0.960 . S
C440 H426 0.960 . S
C440 H427 0.960 . S
C440 C439 1.524 . S
C441 C438 1.403 . S
C441 C442 1.392 . S
C441 C445 1.495 . S
C442 C441 1.392 . S
C442 C443 1.385 . S
C442 C444 1.478 . S
C443 H437 0.930 . S
C443 C439 1.400 . S
C443 C442 1.385 . S
C444 C442 1.478 . S
C444 C446 1.381 . S
C444 C450 1.383 . S
C445 C441 1.495 . S
C445 H451 0.959 . S
C445 H452 0.961 . S
C445 H453 0.960 . S
C446 C444 1.381 . S
C446 C447 1.394 . S
C446 H454 0.930 . S
C447 C446 1.394 . S
C447 C448 1.383 . S
C447 H455 0.929 . S
C448 C447 1.383 . S
C448 C449 1.377 . S
C449 H433 0.930 . S
C449 C448 1.377 . S
C449 C450 1.379 . S
C450 H434 0.931 . S
C450 C444 1.383 . S
C450 C449 1.379 . S
H451 C445 0.959 . S
H452 C445 0.961 . S
H453 C445 0.960 . S
H454 C446 0.930 . S
H455 C447 0.929 . S
H456 C464 0.929 . S
H457 C466 0.930 . S
H458 C468 0.930 . S
H459 C471 0.929 1_455 S
H460 C474 0.930 . S
H461 C476 0.960 . S
H462 C476 0.960 . S
H463 C476 0.960 . S
C464 H456 0.929 . S
C464 C465 1.377 . S
C464 C466 1.384 . S
C465 C464 1.377 . S
C465 C471 1.390 . S
C466 H457 0.930 . S
C466 C464 1.384 . S
C466 C467 1.372 . S
C467 C466 1.372 . S
C467 C468 1.400 . S
C467 C472 1.490 . S
C468 H458 0.930 . S
C468 C467 1.400 . S
C468 C471 1.386 . S
H469 C485 0.930 . S
H470 C486 0.931 . S
C471 H459 0.929 1_655 S
C471 C465 1.390 . S
C471 C468 1.386 . S
C472 C467 1.490 . S
C472 C474 1.395 . S
C472 C475 1.403 . S
H473 C479 0.930 . S
C474 H460 0.930 . S
C474 C472 1.395 . S
C474 C477 1.403 . S
C475 C472 1.403 . S
C475 C476 1.524 . S
C475 C479 1.400 . S
C476 H461 0.960 . S
C476 H462 0.960 . S
C476 H463 0.960 . S
C476 C475 1.524 . S
C477 C474 1.403 . S
C477 C478 1.392 . S
C477 C481 1.495 . S
C478 C477 1.392 . S
C478 C479 1.385 . S
C478 C480 1.478 . S
C479 H473 0.930 . S
C479 C475 1.400 . S
C479 C478 1.385 . S
C480 C478 1.478 . S
C480 C482 1.381 . S
C480 C486 1.383 . S
C481 C477 1.495 . S
C481 H487 0.959 . S
C481 H488 0.961 . S
C481 H489 0.960 . S
C482 C480 1.381 . S
C482 C483 1.394 . S
C482 H490 0.930 . S
C483 C482 1.394 . S
C483 C484 1.383 . S
C483 H491 0.929 . S
C484 C483 1.383 . S
C484 C485 1.377 . S
C485 H469 0.930 . S
C485 C484 1.377 . S
C485 C486 1.379 . S
C486 H470 0.931 . S
C486 C480 1.383 . S
C486 C485 1.379 . S
H487 C481 0.959 . S
H488 C481 0.961 . S
H489 C481 0.960 . S
H490 C482 0.930 . S
H491 C483 0.929 . S
H492 C500 0.929 . S
H493 C502 0.930 . S
H494 C504 0.930 . S
H495 C507 0.929 1_545 S
H496 C510 0.930 . S
H497 C512 0.960 . S
H498 C512 0.960 . S
H499 C512 0.960 . S
C500 H492 0.929 . S
C500 C501 1.377 . S
C500 C502 1.384 . S
C501 C500 1.377 . S
C501 C507 1.390 . S
C502 H493 0.930 . S
C502 C500 1.384 . S
C502 C503 1.372 . S
C503 C502 1.372 . S
C503 C504 1.400 . S
C503 C508 1.490 . S
C504 H494 0.930 . S
C504 C503 1.400 . S
C504 C507 1.386 . S
H505 C521 0.930 . S
H506 C522 0.931 . S
C507 H495 0.929 1_565 S
C507 C501 1.390 . S
C507 C504 1.386 . S
C508 C503 1.490 . S
C508 C510 1.395 . S
C508 C511 1.403 . S
H509 C515 0.930 . S
C510 H496 0.930 . S
C510 C508 1.395 . S
C510 C513 1.403 . S
C511 C508 1.403 . S
C511 C512 1.524 . S
C511 C515 1.400 . S
C512 H497 0.960 . S
C512 H498 0.960 . S
C512 H499 0.960 . S
C512 C511 1.524 . S
C513 C510 1.403 . S
C513 C514 1.392 . S
C513 C517 1.495 . S
C514 C513 1.392 . S
C514 C515 1.385 . S
C514 C516 1.478 . S
C515 H509 0.930 . S
C515 C511 1.400 . S
C515 C514 1.385 . S
C516 C514 1.478 . S
C516 C518 1.381 . S
C516 C522 1.383 . S
C517 C513 1.495 . S
C517 H523 0.959 . S
C517 H524 0.961 . S
C517 H525 0.960 . S
C518 C516 1.381 . S
C518 C519 1.394 . S
C518 H526 0.930 . S
C519 C518 1.394 . S
C519 C520 1.383 . S
C519 H527 0.929 . S
C520 C519 1.383 . S
C520 C521 1.377 . S
C521 H505 0.930 . S
C521 C520 1.377 . S
C521 C522 1.379 . S
C522 H506 0.931 . S
C522 C516 1.383 . S
C522 C521 1.379 . S
H523 C517 0.959 . S
H524 C517 0.961 . S
H525 C517 0.960 . S
H526 C518 0.930 . S
H527 C519 0.929 . S
H528 C536 0.929 . S
H529 C538 0.930 . S
H530 C540 0.930 . S
H531 C543 0.929 . S
H532 C546 0.930 . S
H533 C548 0.960 . S
H534 C548 0.960 . S
H535 C548 0.960 . S
C536 H528 0.929 . S
C536 C537 1.377 . S
C536 C538 1.384 . S
C537 C536 1.377 . S
C537 C543 1.390 . S
C538 H529 0.930 . S
C538 C536 1.384 . S
C538 C539 1.372 . S
C539 C538 1.372 . S
C539 C540 1.400 . S
C539 C544 1.490 . S
C540 H530 0.930 . S
C540 C539 1.400 . S
C540 C543 1.386 . S
H541 C557 0.930 . S
H542 C558 0.931 . S
C543 H531 0.929 . S
C543 C537 1.390 . S
C543 C540 1.386 . S
C544 C539 1.490 . S
C544 C546 1.395 . S
C544 C547 1.403 . S
H545 C551 0.930 . S
C546 H532 0.930 . S
C546 C544 1.395 . S
C546 C549 1.403 . S
C547 C544 1.403 . S
C547 C548 1.524 . S
C547 C551 1.400 . S
C548 H533 0.960 . S
C548 H534 0.960 . S
C548 H535 0.960 . S
C548 C547 1.524 . S
C549 C546 1.403 . S
C549 C550 1.392 . S
C549 C553 1.495 . S
C550 C549 1.392 . S
C550 C551 1.385 . S
C550 C552 1.478 . S
C551 H545 0.930 . S
C551 C547 1.400 . S
C551 C550 1.385 . S
C552 C550 1.478 . S
C552 C554 1.381 . S
C552 C558 1.383 . S
C553 C549 1.495 . S
C553 H559 0.959 . S
C553 H560 0.961 . S
C553 H561 0.960 . S
C554 C552 1.381 . S
C554 C555 1.394 . S
C554 H562 0.930 . S
C555 C554 1.394 . S
C555 C556 1.383 . S
C555 H563 0.929 . S
C556 C555 1.383 . S
C556 C557 1.377 . S
C557 H541 0.930 . S
C557 C556 1.377 . S
C557 C558 1.379 . S
C558 H542 0.931 . S
C558 C552 1.383 . S
C558 C557 1.379 . S
H559 C553 0.959 . S
H560 C553 0.961 . S
H561 C553 0.960 . S
H562 C554 0.930 . S
H563 C555 0.929 . S
H564 C572 0.929 . S
H565 C574 0.930 . S
H566 C576 0.930 . S
H567 C579 0.929 . S
H568 C582 0.930 . S
H569 C584 0.960 . S
H570 C584 0.960 . S
H571 C584 0.960 . S
C572 H564 0.929 . S
C572 C573 1.377 . S
C572 C574 1.384 . S
C573 C572 1.377 . S
C573 C579 1.390 . S
C574 H565 0.930 . S
C574 C572 1.384 . S
C574 C575 1.372 . S
C575 C574 1.372 . S
C575 C576 1.400 . S
C575 C580 1.490 . S
C576 H566 0.930 . S
C576 C575 1.400 . S
C576 C579 1.386 . S
H577 C593 0.930 . S
H578 C594 0.931 . S
C579 H567 0.929 . S
C579 C573 1.390 . S
C579 C576 1.386 . S
C580 C575 1.490 . S
C580 C582 1.395 . S
C580 C583 1.403 . S
H581 C587 0.930 . S
C582 H568 0.930 . S
C582 C580 1.395 . S
C582 C585 1.403 . S
C583 C580 1.403 . S
C583 C584 1.524 . S
C583 C587 1.400 . S
C584 H569 0.960 . S
C584 H570 0.960 . S
C584 H571 0.960 . S
C584 C583 1.524 . S
C585 C582 1.403 . S
C585 C586 1.392 . S
C585 C589 1.495 . S
C586 C585 1.392 . S
C586 C587 1.385 . S
C586 C588 1.478 . S
C587 H581 0.930 . S
C587 C583 1.400 . S
C587 C586 1.385 . S
C588 C586 1.478 . S
C588 C590 1.381 . S
C588 C594 1.383 . S
C589 C585 1.495 . S
C589 H595 0.959 . S
C589 H596 0.961 . S
C589 H597 0.960 . S
C590 C588 1.381 . S
C590 C591 1.394 . S
C590 H598 0.930 . S
C591 C590 1.394 . S
C591 C592 1.383 . S
C591 H599 0.929 . S
C592 C591 1.383 . S
C592 C593 1.377 . S
C593 H577 0.930 . S
C593 C592 1.377 . S
C593 C594 1.379 . S
C594 H578 0.931 . S
C594 C588 1.383 . S
C594 C593 1.379 . S
H595 C589 0.959 . S
H596 C589 0.961 . S
H597 C589 0.960 . S
H598 C590 0.930 . S
H599 C591 0.929 . S
H600 C608 0.929 . S
H601 C610 0.930 . S
H602 C612 0.930 . S
H603 C615 0.929 . S
H604 C618 0.930 . S
H605 C620 0.960 . S
H606 C620 0.960 . S
H607 C620 0.960 . S
C608 H600 0.929 . S
C608 C609 1.377 . S
C608 C610 1.384 . S
C609 C608 1.377 . S
C609 C615 1.390 . S
C610 H601 0.930 . S
C610 C608 1.384 . S
C610 C611 1.372 . S
C611 C610 1.372 . S
C611 C612 1.400 . S
C611 C616 1.490 . S
C612 H602 0.930 . S
C612 C611 1.400 . S
C612 C615 1.386 . S
H613 C629 0.930 . S
H614 C630 0.931 . S
C615 H603 0.929 . S
C615 C609 1.390 . S
C615 C612 1.386 . S
C616 C611 1.490 . S
C616 C618 1.395 . S
C616 C619 1.403 . S
H617 C623 0.930 . S
C618 H604 0.930 . S
C618 C616 1.395 . S
C618 C621 1.403 . S
C619 C616 1.403 . S
C619 C620 1.524 . S
C619 C623 1.400 . S
C620 H605 0.960 . S
C620 H606 0.960 . S
C620 H607 0.960 . S
C620 C619 1.524 . S
C621 C618 1.403 . S
C621 C622 1.392 . S
C621 C625 1.495 . S
C622 C621 1.392 . S
C622 C623 1.385 . S
C622 C624 1.478 . S
C623 H617 0.930 . S
C623 C619 1.400 . S
C623 C622 1.385 . S
C624 C622 1.478 . S
C624 C626 1.381 . S
C624 C630 1.383 . S
C625 C621 1.495 . S
C625 H631 0.959 . S
C625 H632 0.961 . S
C625 H633 0.960 . S
C626 C624 1.381 . S
C626 C627 1.394 . S
C626 H634 0.930 . S
C627 C626 1.394 . S
C627 C628 1.383 . S
C627 H635 0.929 . S
C628 C627 1.383 . S
C628 C629 1.377 . S
C629 H613 0.930 . S
C629 C628 1.377 . S
C629 C630 1.379 . S
C630 H614 0.931 . S
C630 C624 1.383 . S
C630 C629 1.379 . S
H631 C625 0.959 . S
H632 C625 0.961 . S
H633 C625 0.960 . S
H634 C626 0.930 . S
H635 C627 0.929 . S
H636 C644 0.929 1_455 S
H637 C646 0.930 . S
H638 C648 0.930 . S
H639 C651 0.929 . S
H640 C654 0.930 . S
H641 C656 0.960 . S
H642 C656 0.960 . S
H643 C656 0.912 1_554 S
C644 H636 0.929 1_655 S
C644 C645 1.377 1_565 S
C644 C646 1.384 . S
C645 C644 1.377 1_545 S
C645 C651 1.390 . S
C646 H637 0.930 . S
C646 C644 1.384 . S
C646 C647 1.372 . S
C647 C646 1.372 . S
C647 C648 1.400 . S
C647 C652 1.490 . S
C648 H638 0.930 . S
C648 C647 1.400 . S
C648 C651 1.386 1_565 S
H649 C665 0.930 . S
H650 C666 0.931 . S
C651 H639 0.929 . S
C651 C645 1.390 . S
C651 C648 1.386 1_545 S
C652 C647 1.490 . S
C652 C654 1.395 . S
C652 C655 1.437 . S
H653 C659 0.930 . S
C654 H640 0.930 . S
C654 C652 1.395 . S
C654 C657 1.403 . S
C655 C652 1.437 . S
C655 C656 1.509 1_554 S
C655 C659 1.381 1_554 S
C656 H641 0.960 . S
C656 H642 0.960 . S
C656 H643 0.912 1_556 S
C656 C655 1.509 1_556 S
C657 C654 1.403 . S
C657 C658 1.392 1_554 S
C657 C661 1.495 . S
C658 C657 1.392 1_556 S
C658 C659 1.385 . S
C658 C660 1.478 . S
C659 H653 0.930 . S
C659 C655 1.381 1_556 S
C659 C658 1.385 . S
C660 C658 1.478 . S
C660 C662 1.381 . S
C660 C666 1.383 . S
C661 C657 1.495 . S
C661 H667 0.959 . S
C661 H668 0.961 . S
C661 H669 0.960 . S
C662 C660 1.381 . S
C662 C663 1.394 . S
C662 H670 0.930 . S
C663 C662 1.394 . S
C663 C664 1.383 . S
C663 H671 0.929 . S
C664 C663 1.383 . S
C664 C665 1.377 . S
C665 H649 0.930 . S
C665 C664 1.377 . S
C665 C666 1.379 . S
C666 H650 0.931 . S
C666 C660 1.383 . S
C666 C665 1.379 . S
H667 C661 0.959 . S
H668 C661 0.961 . S
H669 C661 0.960 . S
H670 C662 0.930 . S
H671 C663 0.929 . S
H672 C680 0.929 . S
H673 C682 0.930 . S
H674 C684 0.930 . S
H675 C687 0.929 . S
H676 C690 0.930 . S
H677 C692 0.960 . S
H678 C692 0.960 . S
H679 C692 0.960 . S
C680 H672 0.929 . S
C680 C681 1.377 . S
C680 C682 1.384 . S
C681 C680 1.377 . S
C681 C687 1.390 1_655 S
C682 H673 0.930 . S
C682 C680 1.384 . S
C682 C683 1.372 . S
C683 C682 1.372 . S
C683 C684 1.400 1_655 S
C683 C688 1.505 . S
C684 H674 0.930 . S
C684 C683 1.400 1_455 S
C684 C687 1.386 . S
H685 C701 0.930 . S
H686 C702 0.931 . S
C687 H675 0.929 . S
C687 C681 1.390 1_455 S
C687 C684 1.386 . S
C688 C683 1.505 . S
C688 C690 1.382 1_655 S
C688 C691 1.401 . S
H689 C695 0.930 . S
C690 H676 0.930 . S
C690 C688 1.382 1_455 S
C690 C693 1.403 . S
C691 C688 1.401 . S
C691 C692 1.524 . S
C691 C695 1.400 . S
C692 H677 0.960 . S
C692 H678 0.960 . S
C692 H679 0.960 . S
C692 C691 1.524 . S
C693 C690 1.403 . S
C693 C694 1.392 . S
C693 C697 1.495 . S
C694 C693 1.392 . S
C694 C695 1.385 1_455 S
C694 C696 1.478 . S
C695 H689 0.930 . S
C695 C691 1.400 . S
C695 C694 1.385 1_655 S
C696 C694 1.478 . S
C696 C698 1.381 1_455 S
C696 C702 1.383 . S
C697 C693 1.495 . S
C697 H703 0.959 . S
C697 H704 0.961 . S
C697 H705 0.960 . S
C698 C696 1.381 1_655 S
C698 C699 1.394 . S
C698 H706 0.930 . S
C699 C698 1.394 . S
C699 C700 1.383 1_655 S
C699 H707 0.929 . S
C700 C699 1.383 1_455 S
C700 C701 1.377 . S
C701 H685 0.930 . S
C701 C700 1.377 . S
C701 C702 1.379 . S
C702 H686 0.931 . S
C702 C696 1.383 . S
C702 C701 1.379 . S
H703 C697 0.959 . S
H704 C697 0.961 . S
H705 C697 0.960 . S
H706 C698 0.930 . S
H707 C699 0.929 . S
H708 C716 0.929 . S
H709 C718 0.930 . S
H710 C720 0.930 . S
H711 C723 0.929 . S
H712 C726 0.930 . S
H713 C728 0.960 1_565 S
H714 C728 0.960 1_565 S
H715 C728 0.960 . S
C716 H708 0.929 . S
C716 C717 1.377 . S
C716 C718 1.384 . S
C717 C716 1.377 . S
C717 C723 1.390 . S
C718 H709 0.930 . S
C718 C716 1.384 . S
C718 C719 1.372 . S
C719 C718 1.372 . S
C719 C720 1.400 . S
C719 C724 1.490 . S
C720 H710 0.930 . S
C720 C719 1.400 . S
C720 C723 1.386 . S
H721 C737 0.930 . S
H722 C738 0.931 . S
C723 H711 0.929 . S
C723 C717 1.390 . S
C723 C720 1.386 . S
C724 C719 1.490 . S
C724 C726 1.395 . S
C724 C727 1.403 . S
H725 C731 0.930 . S
C726 H712 0.930 . S
C726 C724 1.395 . S
C726 C729 1.403 . S
C727 C724 1.403 . S
C727 C728 1.524 . S
C727 C731 1.400 . S
C728 H713 0.960 1_545 S
C728 H714 0.960 1_545 S
C728 H715 0.960 . S
C728 C727 1.524 . S
C729 C726 1.403 . S
C729 C730 1.392 . S
C729 C733 1.495 . S
C730 C729 1.392 . S
C730 C731 1.385 . S
C730 C732 1.478 . S
C731 H725 0.930 . S
C731 C727 1.400 . S
C731 C730 1.385 . S
C732 C730 1.478 . S
C732 C734 1.381 . S
C732 C738 1.383 . S
C733 C729 1.495 . S
C733 H739 0.959 . S
C733 H740 0.961 . S
C733 H741 0.960 . S
C734 C732 1.381 . S
C734 C735 1.394 . S
C734 H742 0.930 . S
C735 C734 1.394 . S
C735 C736 1.383 . S
C735 H743 0.929 . S
C736 C735 1.383 . S
C736 C737 1.377 . S
C737 H721 0.930 . S
C737 C736 1.377 . S
C737 C738 1.379 . S
C738 H722 0.931 . S
C738 C732 1.383 . S
C738 C737 1.379 . S
H739 C733 0.959 . S
H740 C733 0.961 . S
H741 C733 0.960 . S
H742 C734 0.930 . S
H743 C735 0.929 . S
H744 C752 0.929 . S
H745 C754 0.930 . S
H746 C756 0.930 . S
H747 C759 0.929 . S
H748 C762 0.930 . S
H749 C764 0.960 . S
H750 C764 0.960 . S
H751 C764 0.960 . S
C752 H744 0.929 . S
C752 C753 1.377 . S
C752 C754 1.384 . S
C753 C752 1.377 . S
C753 C759 1.390 . S
C754 H745 0.930 . S
C754 C752 1.384 . S
C754 C755 1.372 . S
C755 C754 1.372 . S
C755 C756 1.400 . S
C755 C760 1.490 . S
C756 H746 0.930 . S
C756 C755 1.400 . S
C756 C759 1.386 . S
H757 C773 0.930 . S
H758 C774 0.931 . S
C759 H747 0.929 . S
C759 C753 1.390 . S
C759 C756 1.386 . S
C760 C755 1.490 . S
C760 C762 1.395 . S
C760 C763 1.403 1_554 S
H761 C767 0.930 . S
C762 H748 0.930 . S
C762 C760 1.395 . S
C762 C765 1.403 . S
C763 C760 1.403 1_556 S
C763 C764 1.524 . S
C763 C767 1.400 . S
C764 H749 0.960 . S
C764 H750 0.960 . S
C764 H751 0.960 . S
C764 C763 1.524 . S
C765 C762 1.403 . S
C765 C766 1.392 1_554 S
C765 C769 1.495 . S
C766 C765 1.392 1_556 S
C766 C767 1.385 . S
C766 C768 1.478 . S
C767 H761 0.930 . S
C767 C763 1.400 . S
C767 C766 1.385 . S
C768 C766 1.478 . S
C768 C770 1.381 . S
C768 C774 1.383 . S
C769 C765 1.495 . S
C769 H775 0.959 . S
C769 H776 0.961 . S
C769 H777 0.960 . S
C770 C768 1.381 . S
C770 C771 1.394 . S
C770 H778 0.930 . S
C771 C770 1.394 . S
C771 C772 1.383 . S
C771 H779 0.929 . S
C772 C771 1.383 . S
C772 C773 1.377 . S
C773 H757 0.930 . S
C773 C772 1.377 . S
C773 C774 1.379 . S
C774 H758 0.931 . S
C774 C768 1.383 . S
C774 C773 1.379 . S
H775 C769 0.959 . S
H776 C769 0.961 . S
H777 C769 0.960 . S
H778 C770 0.930 . S
H779 C771 0.929 . S
H780 C788 0.929 . S
H781 C790 0.930 . S
H782 C792 0.930 . S
H783 C795 0.929 . S
H784 C798 0.930 . S
H785 C800 0.960 . S
H786 C800 0.960 . S
H787 C800 0.960 . S
C788 H780 0.929 . S
C788 C789 1.377 . S
C788 C790 1.384 . S
C789 C788 1.377 . S
C789 C795 1.390 . S
C790 H781 0.930 . S
C790 C788 1.384 . S
C790 C791 1.372 . S
C791 C790 1.372 . S
C791 C792 1.400 . S
C791 C796 1.490 . S
C792 H782 0.930 . S
C792 C791 1.400 . S
C792 C795 1.386 . S
H793 C809 0.930 . S
H794 C810 0.931 . S
C795 H783 0.929 . S
C795 C789 1.390 . S
C795 C792 1.386 . S
C796 C791 1.490 . S
C796 C798 1.395 . S
C796 C799 1.403 . S
H797 C803 0.930 1_655 S
C798 H784 0.930 . S
C798 C796 1.395 . S
C798 C801 1.403 . S
C799 C796 1.403 . S
C799 C800 1.524 1_455 S
C799 C803 1.400 . S
C800 H785 0.960 . S
C800 H786 0.960 . S
C800 H787 0.960 . S
C800 C799 1.524 1_655 S
C801 C798 1.403 . S
C801 C802 1.392 . S
C801 C805 1.495 . S
C802 C801 1.392 . S
C802 C803 1.385 . S
C802 C804 1.478 . S
C803 H797 0.930 1_455 S
C803 C799 1.400 . S
C803 C802 1.385 . S
C804 C802 1.478 . S
C804 C806 1.381 . S
C804 C810 1.383 . S
C805 C801 1.495 . S
C805 H811 0.959 . S
C805 H812 0.961 . S
C805 H813 0.960 . S
C806 C804 1.381 . S
C806 C807 1.394 . S
C806 H814 0.930 . S
C807 C806 1.394 . S
C807 C808 1.383 . S
C807 H815 0.929 . S
C808 C807 1.383 . S
C808 C809 1.377 . S
C809 H793 0.930 . S
C809 C808 1.377 . S
C809 C810 1.379 . S
C810 H794 0.931 . S
C810 C804 1.383 . S
C810 C809 1.379 . S
H811 C805 0.959 . S
H812 C805 0.961 . S
H813 C805 0.960 . S
H814 C806 0.930 . S
H815 C807 0.929 . S
C412 C97 1.129 . S
C393 C11 1.415 . S
C429 C26 1.570 . S
C448 C211 1.151 . S
C465 C40 1.169 . S
C484 C271 0.854 . S
C501 C5 1.096 1_565 S
C520 C71 1.073 . S
C556 C185 1.167 . S
C537 C18 1.412 . S
C573 C32 1.334 . S
C592 C281 0.836 . S
C628 C167 0.743 . S
C609 C39 1.194 . S
C645 C4 1.271 1_655 S
C664 C299 1.063 . S
C700 C43 0.999 . S
C681 C19 1.004 . S
C736 C157 0.940 . S
C717 C33 0.936 . S
C772 C325 1.140 . S
C753 C12 1.434 . S
C789 C25 1.323 . S
C808 C53 0.737 . S
