# Generated by pormake.
# Topology pts, (4,4)-cn, num edge types: 1
# Building blocks:
#     Node 0, Type 0, BuildingBlock: NAWXER_clean_linker_0, # of connection points: 4
#     Node 1, Type 0, BuildingBlock: NAWXER_clean_linker_0, # of connection points: 4
#     Node 2, Type 1, BuildingBlock: UXUYUI_clean_sbu_0, # of connection points: 4
#     Node 3, Type 1, BuildingBlock: UXUYUI_clean_sbu_0, # of connection points: 4
#     Edge 4, Type (0, 1), BuildingBlock: FUNLAD_clean_linker_1, # of connection points: 2
#     Edge 5, Type (0, 1), BuildingBlock: FUNLAD_clean_linker_1, # of connection points: 2
#     Edge 6, Type (0, 1), BuildingBlock: FUNLAD_clean_linker_1, # of connection points: 2
#     Edge 7, Type (0, 1), BuildingBlock: FUNLAD_clean_linker_1, # of connection points: 2
#     Edge 8, Type (0, 1), BuildingBlock: FUNLAD_clean_linker_1, # of connection points: 2
#     Edge 9, Type (0, 1), BuildingBlock: FUNLAD_clean_linker_1, # of connection points: 2
#     Edge 10, Type (0, 1), BuildingBlock: FUNLAD_clean_linker_1, # of connection points: 2
#     Edge 11, Type (0, 1), BuildingBlock: FUNLAD_clean_linker_1, # of connection points: 2
# Relax obj value: 0.000
# Max RMSD: 0.009
# Mean RMSD: 0.008
data_MOF--net-pts--node1-UXUYUI_clean_sbu_0--node2-NAWXER_clean_linker_0--edge1-FUNLAD_clean_linker_1
_symmetry_space_group_name_H-M    P1
_symmetry_Int_Tables_number       1
_symmetry_cell_setting            triclinic
loop_
_symmetry_equiv_pos_as_xyz
'x, y, z'
_cell_length_a     36.160649
_cell_length_b     36.231957
_cell_length_c     51.985739
_cell_angle_alpha  90.060107
_cell_angle_beta   89.893842
_cell_angle_gamma 89.981841
loop_
_atom_site_label
_atom_site_type_symbol
_atom_site_fract_x
_atom_site_fract_y
_atom_site_fract_z
_atom_type_partial_charge
C0 C 0.63116 0.04319 0.96621 0.0
C1 C 0.63651 0.01729 0.94641 0.0
C2 C 0.59939 0.04224 0.98153 0.0
C3 C 0.57237 0.01499 0.97763 0.0
C4 C 0.6088 0.99063 0.94204 0.0
C5 C 0.57707 0.98962 0.95749 0.0
C6 C 0.53855 0.01373 0.99376 0.0
C7 C 0.63326 0.9908 0.0483 0.0
C8 C 0.6367 0.01666 0.06847 0.0
C9 C 0.60192 0.99081 0.03253 0.0
C10 C 0.57367 0.01687 0.03634 0.0
C11 C 0.60828 0.04261 0.07212 0.0
C12 C 0.5771 0.04261 0.05635 0.0
C13 C 0.53928 0.01613 0.02091 0.0
C14 C 0.38126 0.98835 0.05187 0.0
C15 C 0.37879 0.0136 0.07243 0.0
C16 C 0.41163 0.98914 0.03514 0.0
C17 C 0.43984 0.01538 0.03849 0.0
C18 C 0.40731 0.03936 0.07589 0.0
C19 C 0.43748 0.04026 0.05912 0.0
C20 C 0.47327 0.01552 0.02196 0.0
C21 C 0.37782 0.04171 0.97036 0.0
C22 C 0.37178 0.01599 0.95059 0.0
C23 C 0.41055 0.04113 0.98459 0.0
C24 C 0.43765 0.01421 0.97975 0.0
C25 C 0.3992 0.9893 0.94552 0.0
C26 C 0.43191 0.98865 0.95986 0.0
C27 C 0.47242 0.01324 0.99481 0.0
H28 H 0.65163 0.06439 0.96985 0.0
H29 H 0.59589 0.06301 0.99633 0.0
H30 H 0.61101 0.97062 0.92671 0.0
H31 H 0.55627 0.96876 0.95381 0.0
H32 H 0.65416 0.97016 0.04465 0.0
H33 H 0.59949 0.97 0.01766 0.0
H34 H 0.60999 0.06283 0.08744 0.0
H35 H 0.55552 0.06278 0.05983 0.0
H36 H 0.36054 0.96723 0.04904 0.0
H37 H 0.41344 0.9687 0.01998 0.0
H38 H 0.40632 0.05888 0.09169 0.0
H39 H 0.45912 0.06043 0.06233 0.0
H40 H 0.35727 0.06261 0.97467 0.0
H41 H 0.41471 0.06187 0.99933 0.0
H42 H 0.39536 0.96842 0.93089 0.0
H43 H 0.45249 0.96773 0.9557 0.0
N44 N 0.50512 0.01214 0.98179 0.0
N45 N 0.50664 0.01708 0.03383 0.0
C46 C 0.02646 0.6269 0.55334 0.0
C47 C 1.00047 0.62795 0.57354 0.0
C48 C 0.02751 0.59689 0.53641 0.0
C49 C 1.0024 0.56755 0.53915 0.0
C50 C 0.97591 0.59825 0.57649 0.0
C51 C 0.97686 0.56838 0.55949 0.0
C52 C 1.00421 0.53469 0.52219 0.0
C53 C 0.97536 0.63036 0.47129 0.0
C54 C 1.0012 0.63768 0.45175 0.0
C55 C 0.977 0.59749 0.48529 0.0
C56 C 1.00514 0.57163 0.48046 0.0
C57 C 0.02913 0.61152 0.44673 0.0
C58 C 0.03086 0.57875 0.46085 0.0
C59 C 0.00727 0.53661 0.4951 0.0
C60 C 0.99157 0.37757 0.46272 0.0
C61 C 0.01899 0.37581 0.44346 0.0
C62 C 0.98898 0.40842 0.47882 0.0
C63 C 0.01406 0.4378 0.47632 0.0
C64 C 0.04385 0.40537 0.44096 0.0
C65 C 0.04121 0.43619 0.45705 0.0
C66 C 0.0115 0.47083 0.49305 0.0
C67 C 0.04133 0.37674 0.54594 0.0
C68 C 0.01563 0.36995 0.56571 0.0
C69 C 0.03884 0.40853 0.53081 0.0
C70 C 0.01023 0.43409 0.53493 0.0
C71 C 0.98716 0.39589 0.5699 0.0
C72 C 0.98465 0.42758 0.55472 0.0
C73 C 0.00822 0.46894 0.52012 0.0
H74 H 0.04676 0.64855 0.55094 0.0
H75 H 0.0485 0.59627 0.52152 0.0
H76 H 0.95592 0.5981 0.59204 0.0
H77 H 0.95759 0.54582 0.56226 0.0
H78 H 0.95357 0.64998 0.47556 0.0
H79 H 0.95614 0.59225 0.49981 0.0
H80 H 0.05015 0.61647 0.43231 0.0
H81 H 0.05273 0.55915 0.45671 0.0
H82 H 0.97234 0.35514 0.46573 0.0
H83 H 0.96727 0.40932 0.4932 0.0
H84 H 0.06531 0.40474 0.42639 0.0
H85 H 0.0607 0.45863 0.45463 0.0
H86 H 0.06378 0.35759 0.54236 0.0
H87 H 0.0597 0.41343 0.51625 0.0
H88 H 0.96694 0.39253 0.58502 0.0
H89 H 0.96266 0.44719 0.55851 0.0
N90 N 1.00454 0.50093 0.53354 0.0
N91 N 0.01109 0.5046 0.48164 0.0
Li92 Li 1.00355 0.03391 0.2754 0.0
Li93 Li 1.00402 0.96841 0.2745 0.0
Li94 Li 0.03972 0.00511 0.24103 0.0
Li95 Li 0.97023 1.00123 0.2421 0.0
C96 C 0.07028 0.01916 0.29583 0.0
N97 N 0.11565 0.05554 0.33026 0.0
C98 C 0.05993 0.0224 0.32166 0.0
C99 C 0.10381 0.03428 0.28754 0.0
C100 C 0.08319 0.04097 0.33875 0.0
C101 C 0.12635 0.05258 0.30524 0.0
C102 C 0.94289 0.98122 0.2983 0.0
C103 C 0.90523 0.92956 0.31145 0.0
N104 N 0.9097 0.93961 0.33647 0.0
C105 C 0.94713 0.99098 0.32416 0.0
C106 C 0.92172 0.95027 0.2919 0.0
C107 C 0.93009 0.96964 0.34316 0.0
C108 C 0.96926 0.08616 0.30823 0.0
N109 N 1.00159 0.07806 0.29611 0.0
C110 C 0.02928 0.13318 0.31268 0.0
C111 C 0.03104 0.10131 0.29758 0.0
C112 C 0.99661 0.1415 0.3263 0.0
C113 C 0.96627 0.11765 0.32359 0.0
H114 H 0.94562 0.06825 0.30585 0.0
H115 H 0.05593 0.09532 0.28685 0.0
C116 C 1.00319 0.8908 0.28152 0.0
N117 N 0.00623 0.92357 0.2941 0.0
C118 C 1.00411 0.85761 0.29516 0.0
C119 C 0.01176 0.89238 0.33446 0.0
C120 C 0.01105 0.92485 0.32002 0.0
C121 C 0.00788 0.85814 0.322 0.0
H122 H 1.00018 0.89035 0.26087 0.0
H123 H 0.0142 0.95107 0.32959 0.0
C124 C 0.99688 0.08147 0.23685 0.0
N125 N 0.98461 0.15669 0.23713 0.0
C126 C 0.96101 0.09522 0.23977 0.0
C127 C 0.02649 0.10588 0.23392 0.0
C128 C 0.95539 0.13337 0.2399 0.0
C129 C 0.01971 0.14384 0.23414 0.0
C130 C 0.99302 0.9436 0.21534 0.0
C131 C 0.0095 0.94892 0.19128 0.0
C132 C 0.96155 0.92137 0.21736 0.0
C133 C 0.99393 0.93229 0.16959 0.0
C134 C 0.94677 0.90528 0.19522 0.0
N135 N 0.96311 0.91104 0.17199 0.0
C136 C 0.11066 0.98466 0.22268 0.0
C137 C 0.0795 0.03014 0.19815 0.0
C138 C 0.14028 0.98469 0.20536 0.0
N139 N 0.08119 0.00724 0.21879 0.0
C140 C 0.10836 0.03095 0.18031 0.0
C141 C 0.13933 0.00818 0.1838 0.0
H142 H 0.11085 0.96624 0.23905 0.0
H143 H 0.05532 0.0472 0.19526 0.0
C144 C 0.89432 0.99413 0.22691 0.0
N145 N 0.92927 1.00226 0.21911 0.0
C146 C 0.86535 0.99358 0.20913 0.0
C147 C 0.90883 0.01062 0.17584 0.0
C148 C 0.93684 0.01096 0.19424 0.0
C149 C 0.87251 1.00189 0.18313 0.0
H150 H 0.88894 0.98779 0.24685 0.0
H151 H 0.96487 0.01768 0.18865 0.0
O152 O 0.04799 1.00102 0.27876 0.0
O153 O 0.95976 1.00149 0.27939 0.0
O154 O 1.00303 0.04427 0.23739 0.0
O155 O 0.00736 0.96039 0.23672 0.0
H156 H 0.03385 0.01145 0.32834 0.0
H157 H 0.11224 0.03215 0.26763 0.0
H158 H 0.07536 0.04395 0.35874 0.0
H159 H 0.15231 0.06451 0.29908 0.0
H160 H 0.88896 0.90544 0.30675 0.0
H161 H 0.96392 0.01436 0.32963 0.0
H162 H 0.91842 0.94199 0.27208 0.0
H163 H 0.93331 0.9768 0.36323 0.0
H164 H 0.05335 0.15078 0.31331 0.0
H165 H 0.94034 0.12329 0.33332 0.0
H166 H 1.00158 0.83174 0.28484 0.0
H167 H 0.01603 0.89424 0.35501 0.0
H168 H 0.93785 0.07662 0.2422 0.0
H169 H 0.05446 0.09563 0.23188 0.0
H170 H 0.92781 0.14445 0.24229 0.0
H171 H 0.04237 0.1631 0.23206 0.0
H172 H 0.03389 0.96589 0.18929 0.0
H173 H 0.94841 0.91691 0.23578 0.0
H174 H 0.0063 0.93635 0.15085 0.0
H175 H 0.92225 0.88828 0.1965 0.0
H176 H 0.16293 0.96578 0.20858 0.0
H177 H 0.1064 0.04913 0.16383 0.0
H178 H 0.83807 0.98595 0.21578 0.0
H179 H 0.91552 0.01714 0.15603 0.0
Li180 Li 0.97387 1.00175 0.77407 0.0
Li181 Li 0.04158 1.00254 0.7722 0.0
Li182 Li 1.00427 0.03765 0.74136 0.0
Li183 Li 0.00751 0.97016 0.73942 0.0
C184 C 0.01172 0.08129 0.78108 0.0
N185 N 0.02159 0.15689 0.78224 0.0
C186 C 0.04668 0.09613 0.78598 0.0
C187 C 0.98174 0.10489 0.77688 0.0
C188 C 0.0511 0.13444 0.78649 0.0
C189 C 0.98732 0.14304 0.77749 0.0
C190 C 0.02478 0.94137 0.79637 0.0
C191 C 0.07421 0.90368 0.81303 0.0
N192 N 0.06043 0.90813 0.8372 0.0
C193 C 0.01105 0.94551 0.82136 0.0
C194 C 0.05653 0.92018 0.79212 0.0
C195 C 0.02947 0.92847 0.84175 0.0
C196 C 0.91369 0.96555 0.79767 0.0
N197 N 0.93166 0.9984 0.79606 0.0
C198 C 0.88748 0.02664 0.82414 0.0
C199 C 0.91946 0.02861 0.80906 0.0
C200 C 0.86806 0.99306 0.82601 0.0
C201 C 0.88159 0.96234 0.81247 0.0
H202 H 0.92409 0.94194 0.78715 0.0
H203 H 0.93428 0.05438 0.80748 0.0
C204 C 0.11881 0.99652 0.78082 0.0
N205 N 0.08567 1.0026 0.79243 0.0
C206 C 0.15119 0.99524 0.79538 0.0
C207 C 0.1149 0.00716 0.83356 0.0
C208 C 0.08319 0.00824 0.81823 0.0
C209 C 0.14961 1.00067 0.82209 0.0
H210 H 0.12013 0.99256 0.76026 0.0
H211 H 0.05645 0.01317 0.82695 0.0
C212 C 0.92652 0.99587 0.73629 0.0
N213 N 0.85152 0.98159 0.73826 0.0
C214 C 0.91326 0.96041 0.73109 0.0
C215 C 0.90163 0.02411 0.74238 0.0
C216 C 0.87524 0.95376 0.73218 0.0
C217 C 0.86382 0.01631 0.74334 0.0
C218 C 0.06522 0.99335 0.71318 0.0
C219 C 0.05973 0.01081 0.68952 0.0
C220 C 0.08701 0.96151 0.71438 0.0
C221 C 0.07604 0.996 0.66742 0.0
C222 C 0.10275 0.94751 0.69184 0.0
N223 N 0.09699 0.9649 0.66902 0.0
C224 C 0.03237 0.10332 0.71897 0.0
C225 C 0.97074 0.08861 0.70748 0.0
C226 C 0.0315 0.1349 0.70357 0.0
N227 N 1.00219 0.08109 0.72072 0.0
C228 C 0.96866 0.11981 0.69183 0.0
C229 C 0.99929 0.14338 0.68954 0.0
H230 H 0.05718 0.09642 0.72951 0.0
H231 H 0.94736 0.0702 0.70886 0.0
C232 C 0.01419 0.8946 0.72474 0.0
N233 N 0.00696 0.92933 0.71629 0.0
C234 C 0.01467 0.86504 0.70744 0.0
C235 C 1.0001 0.90764 0.67315 0.0
C236 C 0.99951 0.93624 0.69114 0.0
C237 C 0.00752 0.87147 0.68122 0.0
H238 H 0.01982 0.88986 0.74487 0.0
H239 H 0.99348 0.96412 0.68503 0.0
O240 O 0.00695 0.04387 0.78008 0.0
O241 O 0.0076 0.95846 0.77622 0.0
O242 O 0.96371 1.00276 0.73588 0.0
O243 O 0.04898 0.00708 0.73498 0.0
H244 H 0.07024 0.07832 0.78912 0.0
H245 H 0.9546 0.09389 0.77272 0.0
H246 H 0.07802 0.14631 0.79017 0.0
H247 H 0.96443 0.16162 0.77407 0.0
H248 H 0.09897 0.88744 0.81006 0.0
H249 H 0.98667 0.96201 0.82502 0.0
H250 H 0.06774 0.91699 0.77294 0.0
H251 H 0.01925 0.93156 0.8612 0.0
H252 H 0.87795 0.05146 0.83361 0.0
H253 H 0.86741 0.93603 0.81329 0.0
H254 H 0.17732 0.9901 0.78579 0.0
H255 H 0.11182 0.01072 0.8541 0.0
H256 H 0.93211 0.93816 0.72652 0.0
H257 H 0.91145 0.05161 0.74676 0.0
H258 H 0.86459 0.92642 0.72831 0.0
H259 H 0.84428 0.03782 0.74823 0.0
H260 H 0.0428 0.03533 0.68817 0.0
H261 H 0.09117 0.94737 0.73246 0.0
H262 H 0.07191 0.00914 0.64897 0.0
H263 H 0.11942 0.92274 0.69246 0.0
H264 H 0.05579 0.15222 0.70298 0.0
H265 H 0.94334 0.12527 0.68139 0.0
H266 H 0.0214 0.83779 0.71451 0.0
H267 H 0.99457 0.91368 0.65312 0.0
H268 H 0.35282 0.02595 0.10998 0.0
C269 C 0.34799 0.01303 0.09138 0.0
H270 H 0.30798 0.98605 0.06828 0.0
H271 H 0.214 0.92824 0.1627 0.0
H272 H 0.23924 0.87105 0.1459 0.0
H273 H 0.28597 0.87161 0.11127 0.0
H274 H 0.30756 0.92935 0.09309 0.0
C275 C 0.31431 0.99888 0.08661 0.0
C276 C 0.28512 0.99882 0.10686 0.0
C277 C 0.27294 0.96483 0.11736 0.0
C278 C 0.24637 0.96453 0.13758 0.0
C279 C 0.23443 0.93013 0.14752 0.0
C280 C 0.24865 0.89707 0.13803 0.0
C281 C 0.27493 0.89738 0.11852 0.0
C282 C 0.28706 0.93075 0.10824 0.0
H283 H 0.16226 0.02005 0.14522 0.0
C284 C 0.16905 0.00876 0.16402 0.0
H285 H 0.2122 0.98637 0.18674 0.0
H286 H 0.29837 0.06857 0.0886 0.0
H287 H 0.27499 0.12586 0.10645 0.0
H288 H 0.23316 0.12559 0.14399 0.0
H289 H 0.21384 0.06801 0.16351 0.0
C290 C 0.20395 0.9975 0.16827 0.0
C291 C 0.23213 0.99822 0.14734 0.0
C292 C 0.24451 0.03228 0.13696 0.0
C293 C 0.27022 0.03252 0.11621 0.0
C294 C 0.28026 0.0668 0.10514 0.0
C295 C 0.26682 0.09992 0.11507 0.0
C296 C 0.24316 0.09976 0.13613 0.0
C297 C 0.23206 0.06645 0.14704 0.0
H298 H 0.04513 0.31965 0.57854 0.0
C299 C 0.02045 0.33623 0.58179 0.0
H300 H 0.97173 0.34037 0.60458 0.0
H301 H 0.01556 0.1647 0.62142 0.0
H302 H 0.99915 0.15689 0.57651 0.0
H303 H 0.98401 0.21072 0.54948 0.0
H304 H 0.98564 0.2727 0.56709 0.0
C305 C 0.99655 0.32497 0.60006 0.0
C306 C 1.00456 0.29214 0.61631 0.0
C307 C 1.00256 0.25604 0.60582 0.0
C308 C 0.01011 0.22491 0.62162 0.0
C309 C 0.00911 0.18924 0.61047 0.0
C310 C 0.99989 0.18437 0.58469 0.0
C311 C 0.99146 0.21468 0.56945 0.0
C312 C 0.99268 0.25015 0.57979 0.0
H313 H 0.96873 0.18299 0.66516 0.0
C314 C 0.99607 0.17623 0.6725 0.0
H315 H 0.05261 0.1923 0.67155 0.0
H316 H 0.01116 0.35754 0.64235 0.0
H317 H 0.02644 0.36518 0.68746 0.0
H318 H 0.03823 0.31109 0.71505 0.0
H319 H 0.03492 0.24899 0.69766 0.0
C320 C 0.02466 0.19742 0.66499 0.0
C321 C 0.01857 0.2299 0.64803 0.0
C322 C 0.0207 0.26596 0.65847 0.0
C323 C 0.01361 0.29712 0.64261 0.0
C324 C 0.01598 0.33287 0.65356 0.0
C325 C 0.02479 0.33766 0.67942 0.0
C326 C 0.03145 0.3072 0.69495 0.0
C327 C 0.02947 0.27171 0.68472 0.0
H328 H 0.66809 0.03835 0.10166 0.0
C329 C 0.6686 0.0175 0.08658 0.0
H330 H 0.69932 0.97195 0.07211 0.0
H331 H 0.81713 0.06647 0.14621 0.0
H332 H 0.81275 0.11457 0.11398 0.0
H333 H 0.77015 0.10834 0.07722 0.0
H334 H 0.73119 0.05425 0.07275 0.0
C335 C 0.69755 0.99415 0.08602 0.0
C336 C 0.72671 0.99599 0.10619 0.0
C337 C 0.75046 0.02707 0.10788 0.0
C338 C 0.77626 0.02987 0.12842 0.0
C339 C 0.79809 0.0622 0.13047 0.0
C340 C 0.79569 0.09016 0.11218 0.0
C341 C 0.77161 0.08671 0.09154 0.0
C342 C 0.74922 0.05561 0.0893 0.0
H343 H 0.85248 0.99921 0.14298 0.0
C344 C 0.84346 1.00081 0.16294 0.0
H345 H 0.79646 0.00486 0.18726 0.0
H346 H 0.686 0.9323 0.1082 0.0
H347 H 0.69224 0.88299 0.13939 0.0
H348 H 0.73863 0.88676 0.17402 0.0
H349 H 0.77892 0.94 0.17778 0.0
C350 C 0.80696 1.00292 0.16776 0.0
C351 C 0.77945 1.00078 0.14654 0.0
C352 C 0.75632 0.96934 0.14449 0.0
C353 C 0.7299 0.96695 0.12431 0.0
C354 C 0.70681 0.93543 0.12296 0.0
C355 C 0.71006 0.90691 0.14077 0.0
C356 C 0.73616 0.90905 0.16028 0.0
C357 C 0.75908 0.93981 0.16222 0.0
H358 H 0.98606 0.65302 0.61109 0.0
C359 C 0.99926 0.65846 0.59265 0.0
H360 H 0.02359 0.70013 0.56953 0.0
H361 H 0.94537 0.824 0.6381 0.0
H362 H 0.9052 0.82432 0.60086 0.0
H363 H 0.91266 0.77805 0.56639 0.0
H364 H 0.96016 0.7309 0.56915 0.0
C365 C 0.01255 0.69252 0.5882 0.0
C366 C 0.00983 0.72175 0.60823 0.0
C367 C 0.98274 0.7498 0.60594 0.0
C368 C 0.9791 0.77707 0.6255 0.0
C369 C 0.95039 0.8035 0.62338 0.0
C370 C 0.92688 0.8038 0.60219 0.0
C371 C 0.93103 0.7777 0.58281 0.0
C372 C 0.95845 0.75084 0.58461 0.0
H373 H 0.01474 0.84917 0.64191 0.0
C374 C 0.00867 0.84156 0.66171 0.0
H375 H 0.99425 0.79754 0.68651 0.0
H376 H 0.06575 0.67273 0.61785 0.0
H377 H 0.10634 0.67249 0.65494 0.0
H378 H 0.10051 0.72004 0.6887 0.0
H379 H 0.0541 0.76812 0.68558 0.0
C380 C 1.00101 0.80606 0.66706 0.0
C381 C 1.00348 0.77691 0.6469 0.0
C382 C 0.03055 0.74877 0.64916 0.0
C383 C 0.03381 0.72123 0.62977 0.0
C384 C 0.06164 0.69395 0.63223 0.0
C385 C 0.08526 0.69359 0.65336 0.0
C386 C 0.082 0.72037 0.67236 0.0
C387 C 0.05513 0.74778 0.67035 0.0
H388 H 0.31323 0.03203 0.94518 0.0
C389 C 0.33626 0.01751 0.93623 0.0
H390 H 0.35371 0.98919 0.90261 0.0
H391 H 0.19168 0.94134 0.87094 0.0
H392 H 0.21727 0.88275 0.88464 0.0
H393 H 0.27866 0.87961 0.90513 0.0
H394 H 0.31476 0.9351 0.91215 0.0
C395 C 0.33147 1.00348 0.91249 0.0
C396 C 0.29499 0.00563 0.89927 0.0
C397 C 0.27453 0.97286 0.89487 0.0
C398 C 0.23933 0.97461 0.88273 0.0
C399 C 0.21895 0.94156 0.87944 0.0
C400 C 0.23321 0.90773 0.88738 0.0
C401 C 0.26775 0.90596 0.89894 0.0
C402 C 0.28823 0.93805 0.90279 0.0
H403 H 0.20856 0.98631 0.82767 0.0
C404 C 0.18454 0.99837 0.83712 0.0
H405 H 0.16629 0.02566 0.87094 0.0
H406 H 0.32854 0.07337 0.90241 0.0
H407 H 0.3029 0.13193 0.88873 0.0
H408 H 0.24129 0.13509 0.86858 0.0
H409 H 0.20505 0.07963 0.86181 0.0
C410 C 0.18855 0.01115 0.86127 0.0
C411 C 0.22493 0.00911 0.87461 0.0
C412 C 0.24538 0.04188 0.879 0.0
C413 C 0.28064 0.04013 0.89106 0.0
C414 C 0.30114 0.07315 0.89411 0.0
C415 C 0.28687 0.10697 0.88616 0.0
C416 C 0.25221 0.10875 0.87478 0.0
C417 C 0.23166 0.07668 0.87108 0.0
H418 H 0.04945 0.34029 0.41597 0.0
C419 C 0.02325 0.34345 0.42605 0.0
H420 H 0.96888 0.32211 0.42951 0.0
H421 H 0.9767 0.24035 0.32189 0.0
H422 H 0.9351 0.2908 0.31201 0.0
H423 H 0.92351 0.34033 0.3436 0.0
H424 H 0.95372 0.33983 0.38521 0.0
C425 C 0.99633 0.3187 0.42141 0.0
C426 C 1.0022 0.28776 0.40297 0.0
C427 C 0.98364 0.28798 0.37897 0.0
C428 C 0.9898 0.25904 0.36093 0.0
C429 C 0.97218 0.26092 0.33665 0.0
C430 C 0.94842 0.28991 0.33063 0.0
C431 C 0.94194 0.31782 0.3484 0.0
C432 C 0.95939 0.31713 0.37226 0.0
H433 H 0.96567 0.17903 0.35218 0.0
C434 C 0.99255 0.17444 0.34329 0.0
H435 H 0.04765 0.1946 0.34148 0.0
H436 H 0.03989 0.27733 0.44808 0.0
H437 H 0.08136 0.2268 0.45806 0.0
H438 H 0.09248 0.1769 0.42667 0.0
H439 H 0.06206 0.17715 0.38515 0.0
C440 C 0.01985 0.19845 0.34878 0.0
C441 C 0.01385 0.22943 0.3672 0.0
C442 C 0.03238 0.22921 0.39123 0.0
C443 C 0.02633 0.25823 0.40921 0.0
C444 C 0.04419 0.25656 0.43342 0.0
C445 C 0.06789 0.22755 0.43948 0.0
C446 C 0.07412 0.19944 0.42182 0.0
C447 C 0.05654 0.20001 0.39801 0.0
H448 H 0.68889 0.04347 0.93403 0.0
C449 C 0.67096 0.01983 0.9307 0.0
H450 H 0.66617 0.96972 0.90976 0.0
H451 H 0.78721 0.0673 0.84085 0.0
H452 H 0.73627 0.10909 0.83238 0.0
H453 H 0.6758 0.10038 0.85355 0.0
H454 H 0.66599 0.05006 0.88346 0.0
C455 C 0.68173 0.99482 0.91303 0.0
C456 C 0.7174 0.99905 0.89891 0.0
C457 C 0.72245 0.02831 0.8811 0.0
C458 C 0.7571 0.0329 0.86849 0.0
C459 C 0.76147 0.0625 0.85096 0.0
C460 C 0.73243 0.08665 0.84586 0.0
C461 C 0.69841 0.08178 0.85781 0.0
C462 C 0.69325 0.05292 0.87512 0.0
H463 H 0.81591 0.96521 0.83705 0.0
C464 C 0.83321 0.98909 0.84104 0.0
H465 H 0.83862 0.03672 0.86455 0.0
H466 H 0.71669 0.93951 0.93133 0.0
H467 H 0.76745 0.89739 0.93941 0.0
H468 H 0.82765 0.90567 0.91779 0.0
H469 H 0.83741 0.95601 0.88788 0.0
C470 C 0.82231 0.01264 0.85961 0.0
C471 C 0.78634 0.00774 0.87318 0.0
C472 C 0.7812 0.97826 0.89077 0.0
C473 C 0.7466 0.97376 0.90348 0.0
C474 C 0.7423 0.94419 0.92105 0.0
C475 C 0.77125 0.91983 0.92593 0.0
C476 C 0.80513 0.92447 0.91374 0.0
C477 C 0.81028 0.95338 0.89646 0.0
H478 H 0.98378 0.69582 0.44667 0.0
C479 C 0.99878 0.67323 0.43761 0.0
H480 H 0.02576 0.65603 0.4034 0.0
H481 H 0.94732 0.78142 0.33778 0.0
H482 H 0.91134 0.72815 0.32486 0.0
H483 H 0.91982 0.66799 0.34623 0.0
H484 H 0.96413 0.66089 0.38087 0.0
C485 C 0.01303 0.67854 0.41398 0.0
C486 C 0.00903 0.7146 0.40062 0.0
C487 C 0.98379 0.71806 0.37994 0.0
C488 C 0.97954 0.75254 0.36721 0.0
C489 C 0.95271 0.75561 0.3475 0.0
C490 C 0.9316 0.7253 0.34003 0.0
C491 C 0.93633 0.69145 0.35209 0.0
C492 C 0.96194 0.68774 0.3719 0.0
H493 H 0.01772 0.79809 0.32575 0.0
C494 C 0.009 0.82262 0.33621 0.0
H495 H 0.98894 0.8429 0.37181 0.0
H496 H 0.06106 0.71692 0.43882 0.0
H497 H 0.09714 0.77013 0.4518 0.0
H498 H 0.08998 0.8299 0.42968 0.0
H499 H 0.04677 0.8368 0.39442 0.0
C500 C 0.99843 0.81914 0.36092 0.0
C501 C 1.00142 0.78324 0.37471 0.0
C502 C 0.02647 0.77982 0.39554 0.0
C503 C 0.03041 0.74543 0.40843 0.0
C504 C 0.05641 0.74255 0.42868 0.0
C505 C 0.07746 0.77284 0.43625 0.0
C506 C 0.07345 0.80648 0.42378 0.0
C507 C 0.04844 0.81007 0.4036 0.0
loop_
_geom_bond_atom_site_label_1
_geom_bond_atom_site_label_2
_geom_bond_distance
_geom_bond_site_symmetry_2
_ccdc_geom_bond_type
C0 C1 1.366 1_545 S
C0 C2 1.384 . S
C0 H28 0.931 . S
C1 C0 1.366 1_565 S
C1 C4 1.401 . S
C2 C0 1.384 . S
C2 C3 1.381 1_545 S
C2 H29 0.930 . S
C3 C2 1.381 1_565 S
C3 C5 1.381 . S
C3 C6 1.487 . S
C4 C1 1.401 . S
C4 C5 1.387 . S
C4 H30 0.930 . S
C5 C3 1.381 . S
C5 C4 1.387 . S
C5 H31 0.931 . S
C6 C3 1.487 . S
C6 C13 1.399 1_566 S
C6 N44 1.343 . S
C7 C8 1.384 1_565 S
C7 C9 1.384 . S
C7 H32 0.931 . S
C8 C7 1.384 1_545 S
C8 C11 1.382 . S
C9 C7 1.384 . S
C9 C10 1.381 1_565 S
C9 H33 0.930 . S
C10 C9 1.381 1_545 S
C10 C12 1.381 . S
C10 C13 1.487 . S
C11 C8 1.382 . S
C11 C12 1.387 . S
C11 H34 0.930 . S
C12 C10 1.381 . S
C12 C11 1.387 . S
C12 H35 0.931 . S
C13 C6 1.399 1_544 S
C13 C10 1.487 . S
C13 N45 1.343 . S
C14 C15 1.384 1_565 S
C14 C16 1.384 . S
C14 H36 0.931 . S
C15 C14 1.384 1_545 S
C15 C18 1.382 . S
C16 C14 1.384 . S
C16 C17 1.381 1_565 S
C16 H37 0.930 . S
C17 C16 1.381 1_545 S
C17 C19 1.381 . S
C17 C20 1.487 . S
C18 C15 1.382 . S
C18 C19 1.387 . S
C18 H38 0.930 . S
C19 C17 1.381 . S
C19 C18 1.387 . S
C19 H39 0.931 . S
C20 C17 1.487 . S
C20 C27 1.399 1_544 S
C20 N45 1.343 . S
C21 C22 1.366 1_545 S
C21 C23 1.384 . S
C21 H40 0.931 . S
C22 C21 1.366 1_565 S
C22 C25 1.401 . S
C23 C21 1.384 . S
C23 C24 1.381 1_545 S
C23 H41 0.930 . S
C24 C23 1.381 1_565 S
C24 C26 1.381 . S
C24 C27 1.487 . S
C25 C22 1.401 . S
C25 C26 1.387 . S
C25 H42 0.930 . S
C26 C24 1.381 . S
C26 C25 1.387 . S
C26 H43 0.931 . S
C27 C20 1.399 1_566 S
C27 C24 1.487 . S
C27 N44 1.343 . S
H28 C0 0.931 . S
H29 C2 0.930 . S
H30 C4 0.930 . S
H31 C5 0.931 . S
H32 C7 0.931 . S
H33 C9 0.930 . S
H34 C11 0.930 . S
H35 C12 0.931 . S
H36 C14 0.931 . S
H37 C16 0.930 . S
H38 C18 0.930 . S
H39 C19 0.931 . S
H40 C21 0.931 . S
H41 C23 0.930 . S
H42 C25 0.930 . S
H43 C26 0.931 . S
N44 C6 1.343 . S
N44 C27 1.343 . S
N45 C13 1.343 . S
N45 C20 1.343 . S
C46 C47 1.366 1_455 S
C46 C48 1.384 . S
C46 H74 0.931 . S
C47 C46 1.366 1_655 S
C47 C50 1.401 . S
C48 C46 1.384 . S
C48 C49 1.381 1_455 S
C48 H75 0.930 . S
C49 C48 1.381 1_655 S
C49 C51 1.381 . S
C49 C52 1.487 . S
C50 C47 1.401 . S
C50 C51 1.387 . S
C50 H76 0.930 . S
C51 C49 1.381 . S
C51 C50 1.387 . S
C51 H77 0.931 . S
C52 C49 1.487 . S
C52 C59 1.399 1_655 S
C52 N90 1.343 . S
C53 C54 1.384 1_655 S
C53 C55 1.384 . S
C53 H78 0.931 . S
C54 C53 1.384 1_455 S
C54 C57 1.382 . S
C55 C53 1.384 . S
C55 C56 1.381 1_655 S
C55 H79 0.930 . S
C56 C55 1.381 1_455 S
C56 C58 1.381 . S
C56 C59 1.487 . S
C57 C54 1.382 . S
C57 C58 1.387 . S
C57 H80 0.930 . S
C58 C56 1.381 . S
C58 C57 1.387 . S
C58 H81 0.931 . S
C59 C52 1.399 1_455 S
C59 C56 1.487 . S
C59 N91 1.343 . S
C60 C61 1.384 1_655 S
C60 C62 1.384 . S
C60 H82 0.931 . S
C61 C60 1.384 1_455 S
C61 C64 1.382 . S
C62 C60 1.384 . S
C62 C63 1.381 1_655 S
C62 H83 0.930 . S
C63 C62 1.381 1_455 S
C63 C65 1.381 . S
C63 C66 1.487 . S
C64 C61 1.382 . S
C64 C65 1.387 . S
C64 H84 0.930 . S
C65 C63 1.381 . S
C65 C64 1.387 . S
C65 H85 0.931 . S
C66 C63 1.487 . S
C66 C73 1.399 1_455 S
C66 N91 1.343 . S
C67 C68 1.366 1_455 S
C67 C69 1.384 . S
C67 H86 0.931 . S
C68 C67 1.366 1_655 S
C68 C71 1.401 . S
C69 C67 1.384 . S
C69 C70 1.381 1_455 S
C69 H87 0.930 . S
C70 C69 1.381 1_655 S
C70 C72 1.381 . S
C70 C73 1.487 . S
C71 C68 1.401 . S
C71 C72 1.387 . S
C71 H88 0.930 . S
C72 C70 1.381 . S
C72 C71 1.387 . S
C72 H89 0.931 . S
C73 C66 1.399 1_655 S
C73 C70 1.487 . S
C73 N90 1.343 . S
H74 C46 0.931 . S
H75 C48 0.930 . S
H76 C50 0.930 . S
H77 C51 0.931 . S
H78 C53 0.931 . S
H79 C55 0.930 . S
H80 C57 0.930 . S
H81 C58 0.931 . S
H82 C60 0.931 . S
H83 C62 0.930 . S
H84 C64 0.930 . S
H85 C65 0.931 . S
H86 C67 0.931 . S
H87 C69 0.930 . S
H88 C71 0.930 . S
H89 C72 0.931 . S
N90 C52 1.343 . S
N90 C73 1.343 . S
N91 C59 1.343 . S
N91 C66 1.343 . S
Li92 N109 1.990 . S
Li92 O152 1.956 1_545 S
Li92 O153 1.970 1_455 S
Li92 O154 1.961 1_455 S
Li93 N117 1.990 . S
Li93 O152 1.970 1_655 S
Li93 O153 1.956 1_565 S
Li93 O155 1.961 1_655 S
Li94 N139 1.990 . S
Li94 O152 1.961 1_545 S
Li94 O154 1.956 1_455 S
Li94 O155 1.970 1_545 S
Li95 N145 1.990 . S
Li95 O153 1.961 1_565 S
Li95 O154 1.970 1_565 S
Li95 O155 1.956 1_655 S
C96 C98 1.348 1_545 S
C96 C99 1.356 . S
C96 O152 1.325 1_545 S
N97 C100 1.314 1_545 S
N97 C101 1.279 . S
C98 C96 1.348 1_565 S
C98 C100 1.353 . S
C98 H156 0.929 . S
C99 C96 1.356 . S
C99 C101 1.358 . S
C99 H157 0.930 . S
C100 N97 1.314 1_565 S
C100 C98 1.353 . S
C100 H158 0.930 . S
C101 N97 1.279 . S
C101 C99 1.358 . S
C101 H159 0.930 . S
C102 C105 1.348 . S
C102 C106 1.356 1_545 S
C102 O153 1.325 . S
C103 N104 1.279 . S
C103 C106 1.358 . S
C103 H160 0.930 . S
N104 C103 1.279 . S
N104 C107 1.314 1_565 S
C105 C102 1.348 . S
C105 C107 1.353 . S
C105 H161 0.929 . S
C106 C102 1.356 1_565 S
C106 C103 1.358 . S
C106 H162 0.930 . S
C107 N104 1.314 1_545 S
C107 C105 1.353 . S
C107 H163 0.930 . S
C108 N109 1.314 1_655 S
C108 C113 1.353 . S
C108 H114 0.930 . S
N109 Li92 1.990 . S
N109 C108 1.314 1_455 S
N109 C111 1.279 . S
C110 C111 1.358 . S
C110 C112 1.356 . S
C110 H164 0.930 . S
C111 N109 1.279 . S
C111 C110 1.358 . S
C111 H115 0.930 . S
C112 C110 1.356 . S
C112 C113 1.348 1_455 S
C113 C108 1.353 . S
C113 C112 1.348 1_655 S
C113 H165 0.929 . S
H114 C108 0.930 . S
H115 C111 0.930 . S
C116 N117 1.314 1_455 S
C116 C118 1.353 . S
C116 H122 0.930 . S
N117 Li93 1.990 . S
N117 C116 1.314 1_655 S
N117 C120 1.279 . S
C118 C116 1.353 . S
C118 C121 1.348 . S
C118 H166 0.929 . S
C119 C120 1.358 . S
C119 C121 1.356 1_655 S
C119 H167 0.930 . S
C120 N117 1.279 . S
C120 C119 1.358 . S
C120 H123 0.930 . S
C121 C118 1.348 . S
C121 C119 1.356 1_455 S
H122 C116 0.930 . S
H123 C120 0.930 . S
C124 C126 1.348 1_455 S
C124 C127 1.356 . S
C124 O154 1.325 1_455 S
N125 C128 1.314 1_455 S
N125 C129 1.279 . S
C126 C124 1.348 1_655 S
C126 C128 1.353 . S
C126 H168 0.929 . S
C127 C124 1.356 . S
C127 C129 1.358 . S
C127 H169 0.930 . S
C128 N125 1.314 1_655 S
C128 C126 1.353 . S
C128 H170 0.930 . S
C129 N125 1.279 . S
C129 C127 1.358 . S
C129 H171 0.930 . S
C130 C131 1.348 . S
C130 C132 1.356 1_455 S
C130 O155 1.325 . S
C131 C130 1.348 . S
C131 C133 1.353 . S
C131 H172 0.929 . S
C132 C130 1.356 1_655 S
C132 C134 1.358 . S
C132 H173 0.930 . S
C133 C131 1.353 . S
C133 N135 1.314 1_455 S
C133 H174 0.930 . S
C134 C132 1.358 . S
C134 N135 1.279 . S
C134 H175 0.930 . S
N135 C133 1.314 1_655 S
N135 C134 1.279 . S
C136 C138 1.353 . S
C136 N139 1.314 1_565 S
C136 H142 0.930 . S
C137 N139 1.279 . S
C137 C140 1.358 . S
C137 H143 0.930 . S
C138 C136 1.353 . S
C138 C141 1.348 1_565 S
C138 H176 0.929 . S
N139 Li94 1.990 . S
N139 C136 1.314 1_545 S
N139 C137 1.279 . S
C140 C137 1.358 . S
C140 C141 1.356 . S
C140 H177 0.930 . S
C141 C138 1.348 1_545 S
C141 C140 1.356 . S
H142 C136 0.930 . S
H143 C137 0.930 . S
C144 N145 1.314 1_545 S
C144 C146 1.353 . S
C144 H150 0.930 . S
N145 Li95 1.990 . S
N145 C144 1.314 1_565 S
N145 C148 1.279 . S
C146 C144 1.353 . S
C146 C149 1.348 . S
C146 H178 0.929 . S
C147 C148 1.358 . S
C147 C149 1.356 1_565 S
C147 H179 0.930 . S
C148 N145 1.279 . S
C148 C147 1.358 . S
C148 H151 0.930 . S
C149 C146 1.348 . S
C149 C147 1.356 1_545 S
H150 C144 0.930 . S
H151 C148 0.930 . S
O152 Li92 1.956 1_565 S
O152 Li93 1.970 1_455 S
O152 Li94 1.961 1_565 S
O152 C96 1.325 1_565 S
O153 Li92 1.970 1_655 S
O153 Li93 1.956 1_545 S
O153 Li95 1.961 1_545 S
O153 C102 1.325 . S
O154 Li92 1.961 1_655 S
O154 Li94 1.956 1_655 S
O154 Li95 1.970 1_545 S
O154 C124 1.325 1_655 S
O155 Li93 1.961 1_455 S
O155 Li94 1.970 1_565 S
O155 Li95 1.956 1_455 S
O155 C130 1.325 . S
H156 C98 0.929 . S
H157 C99 0.930 . S
H158 C100 0.930 . S
H159 C101 0.930 . S
H160 C103 0.930 . S
H161 C105 0.929 . S
H162 C106 0.930 . S
H163 C107 0.930 . S
H164 C110 0.930 . S
H165 C113 0.929 . S
H166 C118 0.929 . S
H167 C119 0.930 . S
H168 C126 0.929 . S
H169 C127 0.930 . S
H170 C128 0.930 . S
H171 C129 0.930 . S
H172 C131 0.929 . S
H173 C132 0.930 . S
H174 C133 0.930 . S
H175 C134 0.930 . S
H176 C138 0.929 . S
H177 C140 0.930 . S
H178 C146 0.929 . S
H179 C147 0.930 . S
Li180 N197 1.990 . S
Li180 O240 1.956 1_655 S
Li180 O241 1.970 1_545 S
Li180 O242 1.961 1_545 S
Li181 N205 1.990 . S
Li181 O240 1.970 1_565 S
Li181 O241 1.956 1_455 S
Li181 O243 1.961 1_565 S
Li182 N227 1.990 . S
Li182 O240 1.961 1_655 S
Li182 O242 1.956 1_545 S
Li182 O243 1.970 1_655 S
Li183 N233 1.990 . S
Li183 O241 1.961 1_455 S
Li183 O242 1.970 1_455 S
Li183 O243 1.956 1_565 S
C184 C186 1.348 . S
C184 C187 1.356 1_455 S
C184 O240 1.325 . S
N185 C188 1.314 1_655 S
N185 C189 1.279 . S
C186 C184 1.348 . S
C186 C188 1.353 . S
C186 H244 0.929 . S
C187 C184 1.356 1_655 S
C187 C189 1.358 . S
C187 H245 0.930 . S
C188 N185 1.314 1_455 S
C188 C186 1.353 . S
C188 H246 0.930 . S
C189 N185 1.279 . S
C189 C187 1.358 . S
C189 H247 0.930 . S
C190 C193 1.348 1_455 S
C190 C194 1.356 . S
C190 O241 1.325 1_455 S
C191 N192 1.279 . S
C191 C194 1.358 . S
C191 H248 0.930 . S
N192 C191 1.279 . S
N192 C195 1.314 1_455 S
C193 C190 1.348 1_655 S
C193 C195 1.353 . S
C193 H249 0.929 . S
C194 C190 1.356 . S
C194 C191 1.358 . S
C194 H250 0.930 . S
C195 N192 1.314 1_655 S
C195 C193 1.353 . S
C195 H251 0.930 . S
C196 N197 1.314 1_565 S
C196 C201 1.353 . S
C196 H202 0.930 . S
N197 Li180 1.990 . S
N197 C196 1.314 1_545 S
N197 C199 1.279 . S
C198 C199 1.358 . S
C198 C200 1.356 . S
C198 H252 0.930 . S
C199 N197 1.279 . S
C199 C198 1.358 . S
C199 H203 0.930 . S
C200 C198 1.356 . S
C200 C201 1.348 1_545 S
C201 C196 1.353 . S
C201 C200 1.348 1_565 S
C201 H253 0.929 . S
H202 C196 0.930 . S
H203 C199 0.930 . S
C204 N205 1.314 1_545 S
C204 C206 1.353 . S
C204 H210 0.930 . S
N205 Li181 1.990 . S
N205 C204 1.314 1_565 S
N205 C208 1.279 . S
C206 C204 1.353 . S
C206 C209 1.348 . S
C206 H254 0.929 . S
C207 C208 1.358 . S
C207 C209 1.356 1_565 S
C207 H255 0.930 . S
C208 N205 1.279 . S
C208 C207 1.358 . S
C208 H211 0.930 . S
C209 C206 1.348 . S
C209 C207 1.356 1_545 S
H210 C204 0.930 . S
H211 C208 0.930 . S
C212 C214 1.348 1_545 S
C212 C215 1.356 . S
C212 O242 1.325 1_545 S
N213 C216 1.314 1_545 S
N213 C217 1.279 . S
C214 C212 1.348 1_565 S
C214 C216 1.353 . S
C214 H256 0.929 . S
C215 C212 1.356 . S
C215 C217 1.358 . S
C215 H257 0.930 . S
C216 N213 1.314 1_565 S
C216 C214 1.353 . S
C216 H258 0.930 . S
C217 N213 1.279 . S
C217 C215 1.358 . S
C217 H259 0.930 . S
C218 C219 1.348 . S
C218 C220 1.356 1_545 S
C218 O243 1.325 . S
C219 C218 1.348 . S
C219 C221 1.353 . S
C219 H260 0.929 . S
C220 C218 1.356 1_565 S
C220 C222 1.358 . S
C220 H261 0.930 . S
C221 C219 1.353 . S
C221 N223 1.314 1_545 S
C221 H262 0.930 . S
C222 C220 1.358 . S
C222 N223 1.279 . S
C222 H263 0.930 . S
N223 C221 1.314 1_565 S
N223 C222 1.279 . S
C224 C226 1.353 . S
C224 N227 1.314 1_455 S
C224 H230 0.930 . S
C225 N227 1.279 . S
C225 C228 1.358 . S
C225 H231 0.930 . S
C226 C224 1.353 . S
C226 C229 1.348 . S
C226 H264 0.929 . S
N227 Li182 1.990 . S
N227 C224 1.314 1_655 S
N227 C225 1.279 . S
C228 C225 1.358 . S
C228 C229 1.356 1_655 S
C228 H265 0.930 . S
C229 C226 1.348 . S
C229 C228 1.356 1_455 S
H230 C224 0.930 . S
H231 C225 0.930 . S
C232 N233 1.314 1_655 S
C232 C234 1.353 . S
C232 H238 0.930 . S
N233 Li183 1.990 . S
N233 C232 1.314 1_455 S
N233 C236 1.279 . S
C234 C232 1.353 . S
C234 C237 1.348 1_655 S
C234 H266 0.929 . S
C235 C236 1.358 . S
C235 C237 1.356 . S
C235 H267 0.930 . S
C236 N233 1.279 . S
C236 C235 1.358 . S
C236 H239 0.930 . S
C237 C234 1.348 1_455 S
C237 C235 1.356 . S
H238 C232 0.930 . S
H239 C236 0.930 . S
O240 Li180 1.956 1_455 S
O240 Li181 1.970 1_545 S
O240 Li182 1.961 1_455 S
O240 C184 1.325 . S
O241 Li180 1.970 1_565 S
O241 Li181 1.956 1_655 S
O241 Li183 1.961 1_655 S
O241 C190 1.325 1_655 S
O242 Li180 1.961 1_565 S
O242 Li182 1.956 1_565 S
O242 Li183 1.970 1_655 S
O242 C212 1.325 1_565 S
O243 Li181 1.961 1_545 S
O243 Li182 1.970 1_455 S
O243 Li183 1.956 1_545 S
O243 C218 1.325 . S
H244 C186 0.929 . S
H245 C187 0.930 . S
H246 C188 0.930 . S
H247 C189 0.930 . S
H248 C191 0.930 . S
H249 C193 0.929 . S
H250 C194 0.930 . S
H251 C195 0.930 . S
H252 C198 0.930 . S
H253 C201 0.929 . S
H254 C206 0.929 . S
H255 C207 0.930 . S
H256 C214 0.929 . S
H257 C215 0.930 . S
H258 C216 0.930 . S
H259 C217 0.930 . S
H260 C219 0.929 . S
H261 C220 0.930 . S
H262 C221 0.930 . S
H263 C222 0.930 . S
H264 C226 0.929 . S
H265 C228 0.930 . S
H266 C234 0.929 . S
H267 C235 0.930 . S
H268 C269 0.951 . S
C269 H268 0.951 . S
C269 C275 1.265 1_545 S
H270 C275 0.950 . S
H271 C279 0.949 . S
H272 C280 0.950 . S
H273 C281 0.951 . S
H274 C282 0.951 . S
C275 C269 1.265 1_565 S
C275 H270 0.950 . S
C275 C276 1.478 . S
C276 C275 1.478 . S
C276 C277 1.397 . S
C276 C293 1.394 1_565 S
C277 C276 1.397 . S
C277 C278 1.438 . S
C277 C282 1.429 . S
C278 C277 1.438 . S
C278 C279 1.428 . S
C278 C291 1.385 1_565 S
C279 H271 0.949 . S
C279 C278 1.428 . S
C279 C280 1.345 . S
C280 H272 0.950 . S
C280 C279 1.345 . S
C280 C281 1.424 . S
C281 H273 0.951 . S
C281 C280 1.424 . S
C281 C282 1.347 . S
C282 H274 0.951 . S
C282 C277 1.429 . S
C282 C281 1.347 . S
H283 C284 0.953 . S
C284 H283 0.953 . S
C284 C290 1.263 1_565 S
H285 C290 0.950 . S
H286 C294 0.949 . S
H287 C295 0.950 . S
H288 C296 0.951 . S
H289 C297 0.951 . S
C290 C284 1.263 1_545 S
C290 H285 0.950 . S
C290 C291 1.479 . S
C291 C278 1.385 1_545 S
C291 C290 1.479 . S
C291 C292 1.405 . S
C292 C291 1.405 . S
C292 C293 1.438 . S
C292 C297 1.429 . S
C293 C276 1.394 1_545 S
C293 C292 1.438 . S
C293 C294 1.428 . S
C294 H286 0.949 . S
C294 C293 1.428 . S
C294 C295 1.345 . S
C295 H287 0.950 . S
C295 C294 1.345 . S
C295 C296 1.424 . S
C296 H288 0.951 . S
C296 C295 1.424 . S
C296 C297 1.347 . S
C297 H289 0.951 . S
C297 C292 1.429 . S
C297 C296 1.347 . S
H298 C299 0.951 . S
C299 H298 0.951 . S
C299 C305 1.265 1_455 S
H300 C305 0.950 . S
H301 C309 0.949 . S
H302 C310 0.950 . S
H303 C311 0.951 . S
H304 C312 0.951 . S
C305 C299 1.265 1_655 S
C305 H300 0.950 . S
C305 C306 1.478 . S
C306 C305 1.478 . S
C306 C307 1.397 . S
C306 C323 1.394 1_655 S
C307 C306 1.397 . S
C307 C308 1.438 . S
C307 C312 1.429 . S
C308 C307 1.438 . S
C308 C309 1.428 . S
C308 C321 1.394 1_655 S
C309 H301 0.949 . S
C309 C308 1.428 . S
C309 C310 1.345 . S
C310 H302 0.950 . S
C310 C309 1.345 . S
C310 C311 1.424 . S
C311 H303 0.951 . S
C311 C310 1.424 . S
C311 C312 1.347 . S
C312 H304 0.951 . S
C312 C307 1.429 . S
C312 C311 1.347 . S
H313 C314 0.951 . S
C314 H313 0.951 . S
C314 C320 1.265 1_655 S
H315 C320 0.950 . S
H316 C324 0.949 . S
H317 C325 0.950 . S
H318 C326 0.951 . S
H319 C327 0.951 . S
C320 C314 1.265 1_455 S
C320 H315 0.950 . S
C320 C321 1.478 . S
C321 C308 1.394 1_455 S
C321 C320 1.478 . S
C321 C322 1.397 . S
C322 C321 1.397 . S
C322 C323 1.438 . S
C322 C327 1.429 . S
C323 C306 1.394 1_455 S
C323 C322 1.438 . S
C323 C324 1.428 . S
C324 H316 0.949 . S
C324 C323 1.428 . S
C324 C325 1.345 . S
C325 H317 0.950 . S
C325 C324 1.345 . S
C325 C326 1.424 . S
C326 H318 0.951 . S
C326 C325 1.424 . S
C326 C327 1.347 . S
C327 H319 0.951 . S
C327 C322 1.429 . S
C327 C326 1.347 . S
H328 C329 0.951 1_565 S
C329 H328 0.951 1_545 S
C329 C335 1.265 . S
H330 C335 0.950 . S
H331 C339 0.949 . S
H332 C340 0.950 . S
H333 C341 0.951 . S
H334 C342 0.951 . S
C335 C329 1.265 . S
C335 H330 0.950 . S
C335 C336 1.478 . S
C336 C335 1.478 . S
C336 C337 1.397 . S
C336 C353 1.394 1_545 S
C337 C336 1.397 . S
C337 C338 1.438 . S
C337 C342 1.429 . S
C338 C337 1.438 . S
C338 C339 1.428 . S
C338 C351 1.390 1_545 S
C339 H331 0.949 . S
C339 C338 1.428 . S
C339 C340 1.345 . S
C340 H332 0.950 . S
C340 C339 1.345 . S
C340 C341 1.424 . S
C341 H333 0.951 . S
C341 C340 1.424 . S
C341 C342 1.347 . S
C342 H334 0.951 . S
C342 C337 1.429 . S
C342 C341 1.347 . S
H343 C344 0.951 . S
C344 H343 0.951 . S
C344 C350 1.265 1_545 S
H345 C350 0.950 . S
H346 C354 0.949 . S
H347 C355 0.950 . S
H348 C356 0.951 . S
H349 C357 0.951 . S
C350 C344 1.265 1_565 S
C350 H345 0.950 . S
C350 C351 1.478 . S
C351 C338 1.390 1_565 S
C351 C350 1.478 . S
C351 C352 1.401 . S
C352 C351 1.401 . S
C352 C353 1.438 . S
C352 C357 1.429 . S
C353 C336 1.394 1_565 S
C353 C352 1.438 . S
C353 C354 1.428 . S
C354 H346 0.949 . S
C354 C353 1.428 . S
C354 C355 1.345 . S
C355 H347 0.950 . S
C355 C354 1.345 . S
C355 C356 1.424 . S
C356 H348 0.951 . S
C356 C355 1.424 . S
C356 C357 1.347 . S
C357 H349 0.951 . S
C357 C352 1.429 . S
C357 C356 1.347 . S
H358 C359 0.951 . S
C359 H358 0.951 . S
C359 C365 1.265 1_655 S
H360 C365 0.950 . S
H361 C369 0.949 . S
H362 C370 0.950 . S
H363 C371 0.951 . S
H364 C372 0.951 . S
C365 C359 1.265 1_455 S
C365 H360 0.950 . S
C365 C366 1.478 . S
C366 C365 1.478 . S
C366 C367 1.397 1_455 S
C366 C383 1.394 . S
C367 C366 1.397 1_655 S
C367 C368 1.438 . S
C367 C372 1.429 . S
C368 C367 1.438 . S
C368 C369 1.428 . S
C368 C381 1.394 . S
C369 H361 0.949 . S
C369 C368 1.428 . S
C369 C370 1.345 . S
C370 H362 0.950 . S
C370 C369 1.345 . S
C370 C371 1.424 . S
C371 H363 0.951 . S
C371 C370 1.424 . S
C371 C372 1.347 . S
C372 H364 0.951 . S
C372 C367 1.429 . S
C372 C371 1.347 . S
H373 C374 0.951 . S
C374 H373 0.951 . S
C374 C380 1.265 1_455 S
H375 C380 0.950 . S
H376 C384 0.949 . S
H377 C385 0.950 . S
H378 C386 0.951 . S
H379 C387 0.951 . S
C380 C374 1.265 1_655 S
C380 H375 0.950 . S
C380 C381 1.478 . S
C381 C368 1.394 . S
C381 C380 1.478 . S
C381 C382 1.397 1_655 S
C382 C381 1.397 1_455 S
C382 C383 1.438 . S
C382 C387 1.429 . S
C383 C366 1.394 . S
C383 C382 1.438 . S
C383 C384 1.428 . S
C384 H376 0.949 . S
C384 C383 1.428 . S
C384 C385 1.345 . S
C385 H377 0.950 . S
C385 C384 1.345 . S
C385 C386 1.424 . S
C386 H378 0.951 . S
C386 C385 1.424 . S
C386 C387 1.347 . S
C387 H379 0.951 . S
C387 C382 1.429 . S
C387 C386 1.347 . S
H388 C389 0.952 . S
C389 H388 0.952 . S
C389 C395 1.264 1_565 S
H390 C395 0.951 . S
H391 C399 0.949 . S
H392 C400 0.950 . S
H393 C401 0.951 . S
H394 C402 0.951 . S
C395 C389 1.264 1_545 S
C395 H390 0.951 . S
C395 C396 1.478 . S
C396 C395 1.478 . S
C396 C397 1.379 1_545 S
C396 C413 1.412 . S
C397 C396 1.379 1_565 S
C397 C398 1.438 . S
C397 C402 1.429 . S
C398 C397 1.438 . S
C398 C399 1.428 . S
C398 C411 1.390 1_565 S
C399 H391 0.949 . S
C399 C398 1.428 . S
C399 C400 1.345 . S
C400 H392 0.950 . S
C400 C399 1.345 . S
C400 C401 1.424 . S
C401 H393 0.951 . S
C401 C400 1.424 . S
C401 C402 1.347 . S
C402 H394 0.951 . S
C402 C397 1.429 . S
C402 C401 1.347 . S
H403 C404 0.951 . S
C404 H403 0.951 . S
C404 C410 1.265 . S
H405 C410 0.949 1_565 S
H406 C414 0.949 . S
H407 C415 0.950 . S
H408 C416 0.951 . S
H409 C417 0.951 . S
C410 C404 1.265 . S
C410 H405 0.949 1_545 S
C410 C411 1.478 . S
C411 C398 1.390 1_545 S
C411 C410 1.478 . S
C411 C412 1.401 . S
C412 C411 1.401 . S
C412 C413 1.438 . S
C412 C417 1.429 . S
C413 C396 1.412 . S
C413 C412 1.438 . S
C413 C414 1.428 . S
C414 H406 0.949 . S
C414 C413 1.428 . S
C414 C415 1.345 . S
C415 H407 0.950 . S
C415 C414 1.345 . S
C415 C416 1.424 . S
C416 H408 0.951 . S
C416 C415 1.424 . S
C416 C417 1.347 . S
C417 H409 0.951 . S
C417 C412 1.429 . S
C417 C416 1.347 . S
H418 C419 0.951 . S
C419 H418 0.951 . S
C419 C425 1.265 1_455 S
H420 C425 0.950 . S
H421 C429 0.949 . S
H422 C430 0.950 . S
H423 C431 0.951 . S
H424 C432 0.951 . S
C425 C419 1.265 1_655 S
C425 H420 0.950 . S
C425 C426 1.478 . S
C426 C425 1.478 . S
C426 C427 1.397 . S
C426 C443 1.394 1_655 S
C427 C426 1.397 . S
C427 C428 1.438 . S
C427 C432 1.429 . S
C428 C427 1.438 . S
C428 C429 1.428 . S
C428 C441 1.394 1_655 S
C429 H421 0.949 . S
C429 C428 1.428 . S
C429 C430 1.345 . S
C430 H422 0.950 . S
C430 C429 1.345 . S
C430 C431 1.424 . S
C431 H423 0.951 . S
C431 C430 1.424 . S
C431 C432 1.347 . S
C432 H424 0.951 . S
C432 C427 1.429 . S
C432 C431 1.347 . S
H433 C434 0.951 . S
C434 H433 0.951 . S
C434 C440 1.265 1_655 S
H435 C440 0.950 . S
H436 C444 0.949 . S
H437 C445 0.950 . S
H438 C446 0.951 . S
H439 C447 0.951 . S
C440 C434 1.265 1_455 S
C440 H435 0.950 . S
C440 C441 1.478 . S
C441 C428 1.394 1_455 S
C441 C440 1.478 . S
C441 C442 1.397 . S
C442 C441 1.397 . S
C442 C443 1.438 . S
C442 C447 1.429 . S
C443 C426 1.394 1_455 S
C443 C442 1.438 . S
C443 C444 1.428 . S
C444 H436 0.949 . S
C444 C443 1.428 . S
C444 C445 1.345 . S
C445 H437 0.950 . S
C445 C444 1.345 . S
C445 C446 1.424 . S
C446 H438 0.951 . S
C446 C445 1.424 . S
C446 C447 1.347 . S
C447 H439 0.951 . S
C447 C442 1.429 . S
C447 C446 1.347 . S
H448 C449 0.951 . S
C449 H448 0.951 . S
C449 C455 1.265 1_565 S
H450 C455 0.950 . S
H451 C459 0.949 . S
H452 C460 0.950 . S
H453 C461 0.951 . S
H454 C462 0.951 . S
C455 C449 1.265 1_545 S
C455 H450 0.950 . S
C455 C456 1.479 . S
C456 C455 1.479 . S
C456 C457 1.409 . S
C456 C473 1.381 1_545 S
C457 C456 1.409 . S
C457 C458 1.438 . S
C457 C462 1.429 . S
C458 C457 1.438 . S
C458 C459 1.428 . S
C458 C471 1.394 1_545 S
C459 H451 0.949 . S
C459 C458 1.428 . S
C459 C460 1.345 . S
C460 H452 0.950 . S
C460 C459 1.345 . S
C460 C461 1.424 . S
C461 H453 0.951 . S
C461 C460 1.424 . S
C461 C462 1.347 . S
C462 H454 0.951 . S
C462 C457 1.429 . S
C462 C461 1.347 . S
H463 C464 0.950 1_545 S
C464 H463 0.950 1_565 S
C464 C470 1.266 . S
H465 C470 0.950 . S
H466 C474 0.949 . S
H467 C475 0.950 . S
H468 C476 0.951 . S
H469 C477 0.951 . S
C470 C464 1.266 . S
C470 H465 0.950 . S
C470 C471 1.478 . S
C471 C458 1.394 1_565 S
C471 C470 1.478 . S
C471 C472 1.397 . S
C472 C471 1.397 . S
C472 C473 1.438 . S
C472 C477 1.429 . S
C473 C456 1.381 1_565 S
C473 C472 1.438 . S
C473 C474 1.428 . S
C474 H466 0.949 . S
C474 C473 1.428 . S
C474 C475 1.345 . S
C475 H467 0.950 . S
C475 C474 1.345 . S
C475 C476 1.424 . S
C476 H468 0.951 . S
C476 C475 1.424 . S
C476 C477 1.347 . S
C477 H469 0.951 . S
C477 C472 1.429 . S
C477 C476 1.347 . S
H478 C479 0.951 . S
C479 H478 0.951 . S
C479 C485 1.265 1_655 S
H480 C485 0.950 . S
H481 C489 0.949 . S
H482 C490 0.950 . S
H483 C491 0.951 . S
H484 C492 0.951 . S
C485 C479 1.265 1_455 S
C485 H480 0.950 . S
C485 C486 1.478 . S
C486 C485 1.478 . S
C486 C487 1.397 1_455 S
C486 C503 1.394 . S
C487 C486 1.397 1_655 S
C487 C488 1.438 . S
C487 C492 1.429 . S
C488 C487 1.438 . S
C488 C489 1.428 . S
C488 C501 1.410 . S
C489 H481 0.949 . S
C489 C488 1.428 . S
C489 C490 1.345 . S
C490 H482 0.950 . S
C490 C489 1.345 . S
C490 C491 1.424 . S
C491 H483 0.951 . S
C491 C490 1.424 . S
C491 C492 1.347 . S
C492 H484 0.951 . S
C492 C487 1.429 . S
C492 C491 1.347 . S
H493 C494 0.951 . S
C494 H493 0.951 . S
C494 C500 1.265 1_455 S
H495 C500 0.950 . S
H496 C504 0.949 . S
H497 C505 0.950 . S
H498 C506 0.951 . S
H499 C507 0.951 . S
C500 C494 1.265 1_655 S
C500 H495 0.950 . S
C500 C501 1.479 . S
C501 C488 1.410 . S
C501 C500 1.479 . S
C501 C502 1.380 1_655 S
C502 C501 1.380 1_455 S
C502 C503 1.438 . S
C502 C507 1.429 . S
C503 C486 1.394 . S
C503 C502 1.438 . S
C503 C504 1.428 . S
C504 H496 0.949 . S
C504 C503 1.428 . S
C504 C505 1.345 . S
C505 H497 0.950 . S
C505 C504 1.345 . S
C505 C506 1.424 . S
C506 H498 0.951 . S
C506 C505 1.424 . S
C506 C507 1.347 . S
C507 H499 0.951 . S
C507 C502 1.429 . S
C507 C506 1.347 . S
C284 C141 1.480 1_565 S
C269 C15 1.481 . S
C314 C229 1.477 1_655 S
C299 C68 1.478 1_455 S
C344 C149 1.481 . S
C329 C8 1.484 . S
C374 C237 1.478 . S
C359 C47 1.484 . S
C404 C209 1.482 . S
C389 C22 1.474 . S
C434 C112 1.484 1_655 S
C419 C61 1.478 . S
C464 C200 1.481 1_565 S
C449 C1 1.478 . S
C479 C54 1.475 1_655 S
C494 C121 1.485 . S
