# Generated by pormake.
# Topology nom, (4,4)-cn, num edge types: 1
# Building blocks:
#     Node 0, Type 0, BuildingBlock: KUFVIS_clean_linker_0, # of connection points: 4
#     Node 1, Type 0, BuildingBlock: KUFVIS_clean_linker_0, # of connection points: 4
#     Node 2, Type 0, BuildingBlock: KUFVIS_clean_linker_0, # of connection points: 4
#     Node 3, Type 0, BuildingBlock: KUFVIS_clean_linker_0, # of connection points: 4
#     Node 4, Type 0, BuildingBlock: KUFVIS_clean_linker_0, # of connection points: 4
#     Node 5, Type 0, BuildingBlock: KUFVIS_clean_linker_0, # of connection points: 4
#     Node 6, Type 1, BuildingBlock: QUQFOY_clean_sbu_1, # of connection points: 4
#     Node 7, Type 1, BuildingBlock: QUQFOY_clean_sbu_1, # of connection points: 4
#     Node 8, Type 1, BuildingBlock: QUQFOY_clean_sbu_1, # of connection points: 4
#     Node 9, Type 1, BuildingBlock: QUQFOY_clean_sbu_1, # of connection points: 4
#     Node 10, Type 1, BuildingBlock: QUQFOY_clean_sbu_1, # of connection points: 4
#     Node 11, Type 1, BuildingBlock: QUQFOY_clean_sbu_1, # of connection points: 4
#     Edge 12, Type (0, 1), BuildingBlock: TEMPAE_clean_linker_10, # of connection points: 2
#     Edge 13, Type (0, 1), BuildingBlock: TEMPAE_clean_linker_10, # of connection points: 2
#     Edge 14, Type (0, 1), BuildingBlock: TEMPAE_clean_linker_10, # of connection points: 2
#     Edge 15, Type (0, 1), BuildingBlock: TEMPAE_clean_linker_10, # of connection points: 2
#     Edge 16, Type (0, 1), BuildingBlock: TEMPAE_clean_linker_10, # of connection points: 2
#     Edge 17, Type (0, 1), BuildingBlock: TEMPAE_clean_linker_10, # of connection points: 2
#     Edge 18, Type (0, 1), BuildingBlock: TEMPAE_clean_linker_10, # of connection points: 2
#     Edge 19, Type (0, 1), BuildingBlock: TEMPAE_clean_linker_10, # of connection points: 2
#     Edge 20, Type (0, 1), BuildingBlock: TEMPAE_clean_linker_10, # of connection points: 2
#     Edge 21, Type (0, 1), BuildingBlock: TEMPAE_clean_linker_10, # of connection points: 2
#     Edge 22, Type (0, 1), BuildingBlock: TEMPAE_clean_linker_10, # of connection points: 2
#     Edge 23, Type (0, 1), BuildingBlock: TEMPAE_clean_linker_10, # of connection points: 2
#     Edge 24, Type (0, 1), BuildingBlock: TEMPAE_clean_linker_10, # of connection points: 2
#     Edge 25, Type (0, 1), BuildingBlock: TEMPAE_clean_linker_10, # of connection points: 2
#     Edge 26, Type (0, 1), BuildingBlock: TEMPAE_clean_linker_10, # of connection points: 2
#     Edge 27, Type (0, 1), BuildingBlock: TEMPAE_clean_linker_10, # of connection points: 2
#     Edge 28, Type (0, 1), BuildingBlock: TEMPAE_clean_linker_10, # of connection points: 2
#     Edge 29, Type (0, 1), BuildingBlock: TEMPAE_clean_linker_10, # of connection points: 2
#     Edge 30, Type (0, 1), BuildingBlock: TEMPAE_clean_linker_10, # of connection points: 2
#     Edge 31, Type (0, 1), BuildingBlock: TEMPAE_clean_linker_10, # of connection points: 2
#     Edge 32, Type (0, 1), BuildingBlock: TEMPAE_clean_linker_10, # of connection points: 2
#     Edge 33, Type (0, 1), BuildingBlock: TEMPAE_clean_linker_10, # of connection points: 2
#     Edge 34, Type (0, 1), BuildingBlock: TEMPAE_clean_linker_10, # of connection points: 2
#     Edge 35, Type (0, 1), BuildingBlock: TEMPAE_clean_linker_10, # of connection points: 2
# Relax obj value: 0.005
# Max RMSD: 0.089
# Mean RMSD: 0.068
data_MOF--net-nom--node1-QUQFOY_clean_sbu_1--node2-KUFVIS_clean_linker_0--edge1-TEMPAE_clean_linker_10
_symmetry_space_group_name_H-M    P1
_symmetry_Int_Tables_number       1
_symmetry_cell_setting            triclinic
loop_
_symmetry_equiv_pos_as_xyz
'x, y, z'
_cell_length_a     47.822176
_cell_length_b     47.893763
_cell_length_c     45.510303
_cell_angle_alpha  89.991755
_cell_angle_beta   89.956453
_cell_angle_gamma 120.10832
loop_
_atom_site_label
_atom_site_type_symbol
_atom_site_fract_x
_atom_site_fract_y
_atom_site_fract_z
_atom_type_partial_charge
H0 H 0.14526 0.58097 0.32577 0.0
H1 H 0.06727 0.56503 0.26855 0.0
H2 H 0.04743 0.51687 0.35278 0.0
H3 H 1.00578 0.53683 0.34487 0.0
H4 H 0.92551 0.47666 0.28904 0.0
H5 H 1.02162 0.50359 0.26145 0.0
C6 C 0.11953 0.5688 0.32112 0.0
C7 C 0.09769 0.54762 0.34192 0.0
C8 C 0.10893 0.57573 0.29498 0.0
C9 C 0.07565 0.55991 0.28886 0.0
C10 C 0.05316 0.53861 0.30978 0.0
C11 C 0.06443 0.533 0.3365 0.0
C12 C 1.01792 0.52208 0.3039 0.0
C13 C 0.9965 0.52309 0.32477 0.0
C14 C 0.96316 0.50724 0.31903 0.0
C15 C 0.95133 0.4892 0.2933 0.0
C16 C 0.97203 0.48752 0.27264 0.0
C17 C 1.00548 0.50463 0.27758 0.0
H18 H 0.57402 0.13685 0.48596 0.0
H19 H 0.50819 0.05749 0.43199 0.0
H20 H 0.5482 0.04056 0.51088 0.0
H21 H 0.49298 0.99494 0.50995 0.0
H22 H 0.46829 0.91724 0.44962 0.0
H23 H 0.52113 1.01476 0.41844 0.0
C24 C 0.56096 0.1111 0.48148 0.0
C25 C 0.56374 0.09008 0.50089 0.0
C26 C 0.54084 0.09969 0.45694 0.0
C27 C 0.52373 0.06638 0.45111 0.0
C28 C 0.52603 0.04458 0.47068 0.0
C29 C 0.54593 0.05678 0.49574 0.0
C30 C 0.50865 1.00925 0.46477 0.0
C31 C 0.49352 0.98671 0.4879 0.0
C32 C 0.47959 0.95347 0.48253 0.0
C33 C 0.48007 0.94296 0.45403 0.0
C34 C 0.49515 0.96471 0.431 0.0
C35 C 0.50901 0.99789 0.43624 0.0
H36 H 0.57066 0.45728 0.62224 0.0
H37 H 0.49463 0.46007 0.66923 0.0
H38 H 0.54406 0.52715 0.59778 0.0
H39 H 0.49471 0.52296 0.59304 0.0
H40 H 0.44585 0.55324 0.65255 0.0
H41 H 0.4927 0.50384 0.68648 0.0
C42 C 0.55606 0.46849 0.62591 0.0
C43 C 0.56 0.49363 0.60766 0.0
C44 C 0.53268 0.45637 0.64796 0.0
C45 C 0.51314 0.47017 0.65242 0.0
C46 C 0.51686 0.49603 0.63442 0.0
C47 C 0.54045 0.50741 0.61189 0.0
C48 C 0.49638 0.51118 0.63914 0.0
C49 C 0.4877 0.52448 0.61534 0.0
C50 C 0.47005 0.54019 0.62044 0.0
C51 C 0.45961 0.54114 0.64883 0.0
C52 C 0.4669 0.52741 0.6725 0.0
C53 C 0.48595 0.51314 0.66777 0.0
H54 H 0.14044 0.57781 0.78648 0.0
H55 H 0.06112 0.51809 0.84352 0.0
H56 H 0.04348 0.54687 0.75859 0.0
H57 H 0.99893 0.48688 0.76667 0.0
H58 H 0.92087 0.46745 0.82529 0.0
H59 H 1.01827 0.53437 0.85119 0.0
C60 C 0.11464 0.56477 0.79086 0.0
C61 C 0.0934 0.5648 0.76981 0.0
C62 C 0.1033 0.54773 0.81719 0.0
C63 C 0.06998 0.53118 0.82302 0.0
C64 C 0.04805 0.53054 0.80184 0.0
C65 C 0.05999 0.54706 0.775 0.0
C66 C 1.0128 0.51316 0.80797 0.0
C67 C 0.99047 0.49148 0.7872 0.0
C68 C 0.95727 0.47453 0.79378 0.0
C69 C 0.94653 0.4806 0.82027 0.0
C70 C 0.96818 0.50207 0.84097 0.0
C71 C 1.00141 0.51797 0.835 0.0
H72 H 0.49953 0.90831 0.97788 0.0
H73 H 0.55925 0.98822 0.92153 0.0
H74 H 0.53005 1.00471 0.0068 0.0
H75 H 0.59139 0.04916 -0.0011 0.0
H76 H 0.60638 0.12835 0.94396 0.0
H77 H 0.54097 0.03142 0.91598 0.0
C78 C 0.51253 0.93414 0.97381 0.0
C79 C 0.51221 0.95501 -0.00493 0.0
C80 C 0.52957 0.94575 0.94754 0.0
C81 C 0.54628 0.97912 0.94204 0.0
C82 C 0.54693 1.00073 0.96363 0.0
C83 C 0.5301 0.98843 -0.00973 0.0
C84 C 0.56409 0.03604 0.9581 0.0
C85 C 0.58601 0.05799 -0.02099 0.0
C86 C 0.60181 0.09137 0.97351 0.0
C87 C 0.59436 0.10255 0.94805 0.0
C88 C 0.57243 0.08129 0.92742 0.0
C89 C 0.55782 0.04795 0.9321 0.0
H90 H 0.51695 0.6149 0.12568 0.0
H91 H 0.57187 0.58706 0.18019 0.0
H92 H 0.53402 0.53962 0.09663 0.0
H93 H 0.58553 0.54158 0.09885 0.0
H94 H 0.60222 0.48134 0.15735 0.0
H95 H 0.55565 0.53169 0.18995 0.0
C96 C 0.52758 0.59979 0.12934 0.0
C97 C 0.52324 0.57668 0.1084 0.0
C98 C 0.54489 0.60367 0.15513 0.0
C99 C 0.55853 0.58406 0.1601 0.0
C100 C 0.55535 0.5611 0.13872 0.0
C101 C 0.53765 0.55773 0.11281 0.0
C102 C 0.56908 0.53958 0.14384 0.0
C103 C 0.58328 0.53132 0.12053 0.0
C104 C 0.59443 0.50956 0.1253 0.0
C105 C 0.59219 0.49692 0.15341 0.0
C106 C 0.57827 0.50463 0.17671 0.0
C107 C 0.56691 0.52616 0.17196 0.0
O108 O 0.63188 0.4016 0.44054 0.0
Cd109 Cd 0.63185 0.37913 0.4019 0.0
Cd110 Cd 0.69292 0.4353 0.39434 0.0
O111 O 0.67764 0.44702 0.43221 0.0
O112 O 0.59327 0.33458 0.40338 0.0
O113 O 0.64339 0.34389 0.40091 0.0
C114 C 0.61275 0.32341 0.40202 0.0
C115 C 0.74729 0.44882 0.3924 0.0
C116 C 0.65251 0.43041 0.4477 0.0
C117 C 0.64222 0.42261 0.34962 0.0
O118 O 0.67192 0.43958 0.35638 0.0
O119 O 0.62303 0.39828 0.36496 0.0
O120 O 0.73906 0.47061 0.3922 0.0
O121 O 0.72457 0.41897 0.39353 0.0
O122 O 0.26139 0.6328 0.60217 0.0
Cd123 Cd 0.28265 0.62774 0.56459 0.0
Cd124 Cd 0.28049 0.68064 0.54835 0.0
O125 O 0.24969 0.6683 0.58375 0.0
O126 O 0.29635 0.59609 0.57563 0.0
O127 O 0.33038 0.64476 0.55828 0.0
C128 C 0.32524 0.6171 0.5676 0.0
C129 C 0.32136 0.73457 0.5447 0.0
C130 C 0.24673 0.64874 0.60401 0.0
C131 C 0.24742 0.62307 0.50924 0.0
O132 O 0.26026 0.65358 0.51094 0.0
O133 O 0.2518 0.60747 0.52953 0.0
O134 O 0.29209 0.72542 0.53699 0.0
O135 O 0.32779 0.713 0.55423 0.0
O136 O 0.66271 0.2492 0.75849 0.0
Cd137 Cd 0.68527 0.27498 0.72107 0.0
Cd138 Cd 0.6247 0.2708 0.71183 0.0
O139 O 0.61452 0.24279 0.74889 0.0
O140 O 0.73133 0.28587 0.72429 0.0
O141 O 0.7169 0.32301 0.72215 0.0
C142 C 0.73959 0.3159 0.72378 0.0
C143 C 0.6043 0.30624 0.71006 0.0
C144 C 0.63288 0.23694 0.76468 0.0
C145 C 0.64665 0.24035 0.66688 0.0
O146 O 0.626 0.24865 0.6735 0.0
O147 O 0.67121 0.24844 0.68298 0.0
O148 O 0.58554 0.27546 0.70851 0.0
O149 O 0.635 0.31721 0.7124 0.0
O150 O 0.43863 0.65015 0.92636 0.0
Cd151 Cd 0.42759 0.66681 0.88857 0.0
Cd152 Cd 0.36817 0.61137 0.89823 0.0
O153 O 0.38995 0.6089 0.93593 0.0
O154 O 0.4653 0.71114 0.88176 0.0
O155 O 0.41612 0.70198 0.8914 0.0
C156 C 0.44616 0.72237 0.88603 0.0
C157 C 0.3152 0.6019 0.89888 0.0
C158 C 0.41971 0.62615 0.94227 0.0
C159 C 0.40569 0.61258 0.84512 0.0
O160 O 0.38179 0.59587 0.8619 0.0
O161 O 0.42522 0.64222 0.85046 0.0
O162 O 0.32142 0.57908 0.90381 0.0
O163 O 0.3393 0.63059 0.89431 0.0
O164 O 0.81036 0.393 0.0151 0.0
Cd165 Cd 0.78626 0.36614 0.05165 0.0
Cd166 Cd 0.78434 0.42251 0.06539 0.0
O167 O 0.81502 0.43918 0.02979 0.0
O168 O 0.77952 0.32189 0.04506 0.0
O169 O 0.73909 0.33137 0.05032 0.0
C170 C 0.74887 0.31091 0.04652 0.0
C171 C 0.74483 0.4377 0.06766 0.0
C172 C 0.82173 0.42318 0.01168 0.0
C173 C 0.81741 0.40108 0.1081 0.0
O174 O 0.80513 0.41894 0.10386 0.0
O175 O 0.81314 0.37947 0.0896 0.0
O176 O 0.77446 0.45751 0.07445 0.0
O177 O 0.73718 0.40883 0.05979 0.0
O178 O 0.44266 0.79847 0.17389 0.0
Cd179 Cd 0.441 0.77719 0.21362 0.0
Cd180 Cd 0.38003 0.77364 0.21777 0.0
O181 O 0.39701 0.79915 0.17917 0.0
O182 O 0.48029 0.77245 0.21459 0.0
O183 O 0.43058 0.73073 0.21583 0.0
C184 C 0.46137 0.74169 0.21589 0.0
C185 C 0.32563 0.73262 0.21973 0.0
C186 C 0.42273 0.8068 0.16491 0.0
C187 C 0.42949 0.81311 0.26284 0.0
O188 O 0.4001 0.80065 0.2551 0.0
O189 O 0.44874 0.80661 0.24925 0.0
O190 O 0.33377 0.7626 0.21824 0.0
O191 O 0.34847 0.72567 0.22005 0.0
C192 C 0.13997 0.59338 0.24759 0.0
C193 C 0.13374 0.60091 0.27569 0.0
C194 C 0.16892 0.6146 0.23282 0.0
C195 C 0.1921 0.64351 0.24682 0.0
C196 C 0.18456 0.65217 0.2742 0.0
C197 C 0.15537 0.63093 0.28809 0.0
C198 C 0.17557 0.60504 0.2032 0.0
C199 C 0.20846 0.68261 0.29009 0.0
C200 C 0.28239 0.67835 0.23701 0.0
C201 C 0.29117 0.70743 0.22255 0.0
C202 C 0.24986 0.65636 0.24361 0.0
C203 C 0.22549 0.66325 0.23486 0.0
C204 C 0.23408 0.69142 0.21827 0.0
C205 C 0.26687 0.71343 0.21271 0.0
C206 C 0.24185 0.62685 0.26174 0.0
C207 C 0.20884 0.69918 0.20771 0.0
H208 H 0.12332 0.5701 0.23806 0.0
H209 H 0.1504 0.63674 0.30981 0.0
H210 H 0.18691 0.62613 0.18818 0.0
H211 H 0.19272 0.596 0.2058 0.0
H212 H 0.15314 0.58569 0.19285 0.0
H213 H 0.19809 0.6867 0.31038 0.0
H214 H 0.23008 0.68102 0.29622 0.0
H215 H 0.21671 0.70391 0.27556 0.0
H216 H 0.30109 0.67363 0.24465 0.0
H217 H 0.27353 0.73571 0.20115 0.0
H218 H 0.22237 0.60484 0.25109 0.0
H219 H 0.23281 0.62893 0.28364 0.0
H220 H 0.26315 0.62373 0.26497 0.0
H221 H 0.18773 0.67738 0.19842 0.0
H222 H 0.21859 0.71852 0.19079 0.0
H223 H 0.20003 0.7074 0.22651 0.0
C224 C 0.52835 0.14367 0.45286 0.0
C225 C 0.53834 0.12406 0.4389 0.0
C226 C 0.53754 0.1745 0.44208 0.0
C227 C 0.55643 0.18564 0.41618 0.0
C228 C 0.56314 0.16432 0.40005 0.0
C229 C 0.55436 0.13378 0.41184 0.0
C230 C 0.53008 0.19635 0.46029 0.0
C231 C 0.582 0.17472 0.3717 0.0
C232 C 0.56978 0.26693 0.39028 0.0
C233 C 0.60006 0.28817 0.4026 0.0
C234 C 0.55621 0.2333 0.39262 0.0
C235 C 0.57272 0.22069 0.40871 0.0
C236 C 0.60373 0.24211 0.42051 0.0
C237 C 0.61726 0.27559 0.41684 0.0
C238 C 0.52376 0.21136 0.37873 0.0
C239 C 0.62189 0.22979 0.43842 0.0
H240 H 0.51619 0.13617 0.47394 0.0
H241 H 0.56237 0.11877 0.40118 0.0
H242 H 0.55277 0.21573 0.4702 0.0
H243 H 0.51997 0.20814 0.44637 0.0
H244 H 0.51268 0.1831 0.47828 0.0
H245 H 0.57897 0.15368 0.3588 0.0
H246 H 0.57436 0.18889 0.35802 0.0
H247 H 0.60808 0.19039 0.37665 0.0
H248 H 0.5566 0.27663 0.37891 0.0
H249 H 0.64061 0.29198 0.42644 0.0
H250 H 0.50493 0.20071 0.39604 0.0
H251 H 0.52402 0.19113 0.36708 0.0
H252 H 0.51677 0.22448 0.36293 0.0
H253 H 0.60769 0.21724 0.45832 0.0
H254 H 0.64604 0.2495 0.44544 0.0
H255 H 0.62516 0.21198 0.42554 0.0
C256 C 0.47145 0.58884 0.60071 0.0
C257 C 0.46132 0.55604 0.59721 0.0
C258 C 0.45304 0.60178 0.58954 0.0
C259 C 0.42433 0.58152 0.57383 0.0
C260 C 0.41695 0.54979 0.56634 0.0
C261 C 0.43538 0.5372 0.57849 0.0
C262 C 0.46186 0.63561 0.59839 0.0
C263 C 0.38735 0.52784 0.54853 0.0
C264 C 0.3518 0.59036 0.59242 0.0
C265 C 0.35136 0.60921 0.56914 0.0
C266 C 0.37562 0.58155 0.59417 0.0
C267 C 0.39894 0.59079 0.57144 0.0
C268 C 0.39831 0.60946 0.54757 0.0
C269 C 0.37479 0.61895 0.54696 0.0
C270 C 0.37591 0.56252 0.62058 0.0
C271 C 0.42193 0.61872 0.52243 0.0
H272 H 0.49149 0.60333 0.61534 0.0
H273 H 0.42744 0.51179 0.57586 0.0
H274 H 0.45782 0.64846 0.58011 0.0
H275 H 0.44624 0.63433 0.617 0.0
H276 H 0.48748 0.64997 0.60553 0.0
H277 H 0.38919 0.50753 0.53882 0.0
H278 H 0.36573 0.51755 0.56296 0.0
H279 H 0.38363 0.54138 0.53065 0.0
H280 H 0.33369 0.58288 0.60958 0.0
H281 H 0.37409 0.63312 0.52869 0.0
H282 H 0.39984 0.57535 0.63156 0.0
H283 H 0.37189 0.53863 0.61349 0.0
H284 H 0.35702 0.55861 0.63693 0.0
H285 H 0.44713 0.63143 0.53071 0.0
H286 H 0.41915 0.63443 0.50614 0.0
H287 H 0.41817 0.59658 0.5111 0.0
C288 C 0.91214 0.41867 0.78711 0.0
C289 C 0.93271 0.44899 0.77466 0.0
C290 C 0.88263 0.39705 0.77397 0.0
C291 C 0.87381 0.4056 0.7472 0.0
C292 C 0.89608 0.43475 0.73291 0.0
C293 C 0.92529 0.4564 0.74702 0.0
C294 C 0.8597 0.36641 0.79018 0.0
C295 C 0.88813 0.44413 0.70379 0.0
C296 C 0.79805 0.33518 0.71516 0.0
C297 C 0.77403 0.34109 0.72599 0.0
C298 C 0.83098 0.3574 0.71967 0.0
C299 C 0.83999 0.38557 0.73638 0.0
C300 C 0.81582 0.39226 0.7463 0.0
C301 C 0.78311 0.37014 0.74056 0.0
C302 C 0.85598 0.34994 0.70777 0.0
C303 C 0.82429 0.42169 0.7647 0.0
H304 H 0.91804 0.41296 0.80847 0.0
H305 H 0.94115 0.4799 0.73743 0.0
H306 H 0.83813 0.36759 0.79736 0.0
H307 H 0.85118 0.34519 0.77553 0.0
H308 H 0.87103 0.36249 0.80988 0.0
H309 H 0.91008 0.46353 0.69284 0.0
H310 H 0.87629 0.42298 0.68889 0.0
H311 H 0.87101 0.45305 0.70734 0.0
H312 H 0.79107 0.3129 0.70348 0.0
H313 H 0.76456 0.37472 0.74895 0.0
H314 H 0.8656 0.34174 0.72592 0.0
H315 H 0.87662 0.37187 0.69806 0.0
H316 H 0.84569 0.33067 0.69081 0.0
H317 H 0.83459 0.41989 0.786 0.0
H318 H 0.80294 0.42441 0.76922 0.0
H319 H 0.84297 0.44381 0.75351 0.0
C320 C 0.53996 0.90115 0.93731 0.0
C321 C 0.52892 0.92148 0.92701 0.0
C322 C 0.52872 0.87048 0.92511 0.0
C323 C 0.50643 0.8602 0.90152 0.0
C324 C 0.49834 0.88224 0.88874 0.0
C325 C 0.50941 0.91263 0.9019 0.0
C326 C 0.5379 0.84789 0.9397 0.0
C327 C 0.47573 0.87274 0.86284 0.0
C328 C 0.48718 0.7786 0.87093 0.0
C329 C 0.459 0.75766 0.88656 0.0
C330 C 0.50167 0.81228 0.8738 0.0
C331 C 0.48831 0.82526 0.89359 0.0
C332 C 0.45915 0.80419 0.90858 0.0
C333 C 0.44459 0.77068 0.90451 0.0
C334 C 0.53198 0.83386 0.85659 0.0
C335 C 0.44435 0.8169 0.93033 0.0
H336 H 0.55486 0.90798 0.9569 0.0
H337 H 0.5006 0.92821 0.89411 0.0
H338 H 0.51656 0.82857 0.95139 0.0
H339 H 0.5455 0.83607 0.92311 0.0
H340 H 0.55779 0.86054 0.95584 0.0
H341 H 0.47765 0.89421 0.85157 0.0
H342 H 0.48082 0.85844 0.84675 0.0
H343 H 0.45046 0.85746 0.87053 0.0
H344 H 0.49821 0.76862 0.85676 0.0
H345 H 0.42289 0.75458 0.91669 0.0
H346 H 0.55323 0.84354 0.8714 0.0
H347 H 0.53093 0.85474 0.84731 0.0
H348 H 0.53581 0.82067 0.83839 0.0
H349 H 0.46131 0.82881 0.94887 0.0
H350 H 0.42105 0.79749 0.93934 0.0
H351 H 0.44012 0.83532 0.91977 0.0
C352 C 0.63934 0.52258 0.08981 0.0
C353 C 0.60977 0.4998 0.10223 0.0
C354 C 0.65996 0.5128 0.07718 0.0
C355 C 0.65094 0.4797 0.07773 0.0
C356 C 0.61951 0.45648 0.0872 0.0
C357 C 0.59913 0.46684 0.09886 0.0
C358 C 0.69268 0.53821 0.06604 0.0
C359 C 0.60884 0.42101 0.08871 0.0
C360 C 0.70167 0.44598 0.04548 0.0
C361 C 0.72053 0.44791 0.06978 0.0
C362 C 0.67979 0.45752 0.0472 0.0
C363 C 0.67589 0.46994 0.07419 0.0
C364 C 0.69475 0.47147 0.09884 0.0
C365 C 0.71733 0.46109 0.0961 0.0
C366 C 0.6612 0.45679 0.02016 0.0
C367 C 0.69071 0.48352 0.12834 0.0
H368 H 0.64763 0.54807 0.09235 0.0
H369 H 0.57612 0.44922 0.10834 0.0
H370 H 0.7111 0.54357 0.08326 0.0
H371 H 0.69971 0.52959 0.04628 0.0
H372 H 0.69305 0.561 0.06057 0.0
H373 H 0.58235 0.40583 0.09222 0.0
H374 H 0.6154 0.41291 0.06837 0.0
H375 H 0.62136 0.41687 0.10728 0.0
H376 H 0.70468 0.43627 0.02497 0.0
H377 H 0.73208 0.46261 0.1148 0.0
H378 H 0.6658 0.48146 0.0153 0.0
H379 H 0.63487 0.44135 0.02404 0.0
H380 H 0.66792 0.44755 0.00059 0.0
H381 H 0.69667 0.50901 0.12649 0.0
H382 H 0.70639 0.482 0.14551 0.0
H383 H 0.66518 0.46918 0.13568 0.0
C384 C 0.47185 0.90388 0.50713 0.0
C385 C 0.46389 0.92834 0.50556 0.0
C386 C 0.45042 0.87373 0.51937 0.0
C387 C 0.42083 0.86834 0.53144 0.0
C388 C 0.41491 0.89448 0.53373 0.0
C389 C 0.43639 0.92422 0.52035 0.0
C390 C 0.45769 0.84665 0.51582 0.0
C391 C 0.38441 0.89019 0.54774 0.0
C392 C 0.34849 0.7856 0.51626 0.0
C393 C 0.34665 0.76876 0.54195 0.0
C394 C 0.3724 0.81806 0.51276 0.0
C395 C 0.39414 0.83452 0.53613 0.0
C396 C 0.39154 0.81786 0.56265 0.0
C397 C 0.36824 0.78486 0.565 0.0
C398 C 0.37489 0.83445 0.48371 0.0
C399 C 0.41326 0.8349 0.58846 0.0
H400 H 0.49337 0.90724 0.49593 0.0
H401 H 0.43022 0.9431 0.5193 0.0
H402 H 0.4522 0.83225 0.53626 0.0
H403 H 0.44217 0.83017 0.49817 0.0
H404 H 0.48336 0.85572 0.50982 0.0
H405 H 0.38698 0.91374 0.55419 0.0
H406 H 0.36416 0.87843 0.53187 0.0
H407 H 0.37788 0.87447 0.56744 0.0
H408 H 0.33171 0.77304 0.49849 0.0
H409 H 0.36638 0.77185 0.58507 0.0
H410 H 0.39938 0.84375 0.4742 0.0
H411 H 0.37134 0.85539 0.48703 0.0
H412 H 0.35675 0.81792 0.46751 0.0
H413 H 0.43861 0.84217 0.58296 0.0
H414 H 0.40607 0.81944 0.60841 0.0
H415 H 0.41272 0.85728 0.59358 0.0
C416 C 0.54097 0.43296 0.69386 0.0
C417 C 0.52941 0.4286 0.665 0.0
C418 C 0.54924 0.41121 0.70645 0.0
C419 C 0.54643 0.38512 0.68943 0.0
C420 C 0.53187 0.37909 0.66132 0.0
C421 C 0.52323 0.40074 0.64961 0.0
C422 C 0.56355 0.4178 0.73691 0.0
C423 C 0.52858 0.35179 0.64224 0.0
C424 C 0.60911 0.35894 0.69611 0.0
C425 C 0.59078 0.328 0.70813 0.0
C426 C 0.59523 0.37831 0.69096 0.0
C427 C 0.56252 0.36681 0.69885 0.0
C428 C 0.54459 0.33642 0.71277 0.0
C429 C 0.55877 0.31713 0.71678 0.0
C430 C 0.61508 0.41034 0.67558 0.0
C431 C 0.51008 0.32374 0.72239 0.0
H432 H 0.54604 0.45468 0.70564 0.0
H433 H 0.51449 0.3976 0.62717 0.0
H434 H 0.55458 0.395 0.74945 0.0
H435 H 0.59023 0.4293 0.73529 0.0
H436 H 0.55781 0.43425 0.74934 0.0
H437 H 0.51398 0.34857 0.62221 0.0
H438 H 0.55295 0.35685 0.63531 0.0
H439 H 0.51718 0.32878 0.65466 0.0
H440 H 0.63383 0.36737 0.68936 0.0
H441 H 0.54464 0.29334 0.72645 0.0
H442 H 0.61522 0.42996 0.68864 0.0
H443 H 0.60406 0.40974 0.65395 0.0
H444 H 0.64047 0.41634 0.67192 0.0
H445 H 0.5077 0.34277 0.7341 0.0
H446 H 0.50132 0.30237 0.73699 0.0
H447 H 0.49414 0.31666 0.70283 0.0
C448 C 0.14892 0.53831 0.82647 0.0
C449 C 0.12732 0.54744 0.83748 0.0
C450 C 0.17719 0.54561 0.84169 0.0
C451 C 0.18388 0.56217 0.86884 0.0
C452 C 0.16072 0.56889 0.88135 0.0
C453 C 0.13263 0.56157 0.86537 0.0
C454 C 0.20107 0.53786 0.82749 0.0
C455 C 0.16658 0.58574 0.91058 0.0
C456 C 0.25588 0.56509 0.90658 0.0
C457 C 0.2813 0.5945 0.89609 0.0
C458 C 0.22356 0.55536 0.90005 0.0
C459 C 0.21659 0.5752 0.88206 0.0
C460 C 0.24203 0.60584 0.87302 0.0
C461 C 0.27408 0.61524 0.88038 0.0
C462 C 0.19712 0.52295 0.91081 0.0
C463 C 0.23569 0.62766 0.85363 0.0
H464 H 0.14464 0.52725 0.80491 0.0
H465 H 0.11598 0.56877 0.8738 0.0
H466 H 0.22335 0.56062 0.82149 0.0
H467 H 0.20812 0.52468 0.84308 0.0
H468 H 0.19121 0.52302 0.80732 0.0
H469 H 0.14403 0.58351 0.91981 0.0
H470 H 0.17677 0.5758 0.92664 0.0
H471 H 0.18443 0.61176 0.90777 0.0
H472 H 0.26129 0.54911 0.91909 0.0
H473 H 0.2936 0.63802 0.87227 0.0
H474 H 0.18872 0.50541 0.89241 0.0
H475 H 0.17603 0.52459 0.9187 0.0
H476 H 0.2056 0.51339 0.92884 0.0
H477 H 0.22766 0.61644 0.83163 0.0
H478 H 0.25754 0.65183 0.85079 0.0
H479 H 0.21603 0.63082 0.86295 0.0
C480 C 0.65678 0.138 -0.01941 0.0
C481 C 0.62686 0.11593 -0.00699 0.0
C482 C 0.67701 0.16785 -0.00612 0.0
C483 C 0.66753 0.17551 0.02078 0.0
C484 C 0.63904 0.15183 0.03506 0.0
C485 C 0.61872 0.12231 0.02079 0.0
C486 C 0.70692 0.19231 0.97761 0.0
C487 C 0.62877 0.15852 0.06431 0.0
C488 C 0.73438 0.25348 0.05347 0.0
C489 C 0.72596 0.27594 0.04329 0.0
C490 C 0.71422 0.22027 0.04841 0.0
C491 C 0.68565 0.20942 0.03174 0.0
C492 C 0.67652 0.23197 0.02229 0.0
C493 C 0.69655 0.26493 0.02865 0.0
C494 C 0.72419 0.19697 0.05989 0.0
C495 C 0.64663 0.22158 0.00389 0.0
H496 H 0.66298 0.133 0.95905 0.0
H497 H 0.5955 0.10536 0.03032 0.0
H498 H 0.70379 0.21273 0.97044 0.0
H499 H 0.72833 0.20231 -0.0078 0.0
H500 H 0.71193 0.18183 0.9579 0.0
H501 H 0.61045 0.13592 0.07524 0.0
H502 H 0.64986 0.17151 0.07915 0.0
H503 H 0.61805 0.17414 0.06098 0.0
H504 H 0.75695 0.26194 0.06519 0.0
H505 H 0.69005 0.28229 0.02076 0.0
H506 H 0.7332 0.18845 0.04149 0.0
H507 H 0.70318 0.17547 0.06973 0.0
H508 H 0.74362 0.20832 0.07663 0.0
H509 H 0.64929 0.21187 -0.01743 0.0
H510 H 0.64214 0.2418 -0.00059 0.0
H511 H 0.62513 0.20198 0.01508 0.0
C512 C 0.52717 0.6172 0.20181 0.0
C513 C 0.54627 0.6277 0.17641 0.0
C514 C 0.51644 0.63666 0.21523 0.0
C515 C 0.52439 0.66672 0.20234 0.0
C516 C 0.54672 0.6788 0.17874 0.0
C517 C 0.55782 0.65931 0.16642 0.0
C518 C 0.49411 0.62366 0.24136 0.0
C519 C 0.55575 0.71049 0.16402 0.0
C520 C 0.4609 0.69209 0.1986 0.0
C521 C 0.47493 0.71996 0.21592 0.0
C522 C 0.47625 0.67384 0.19487 0.0
C523 C 0.50566 0.683 0.20982 0.0
C524 C 0.51857 0.70977 0.22912 0.0
C525 C 0.50347 0.72843 0.23137 0.0
C526 C 0.46197 0.64594 0.17351 0.0
C527 C 0.54896 0.71951 0.2465 0.0
H528 H 0.51808 0.5927 0.20949 0.0
H529 H 0.57251 0.66731 0.14667 0.0
H530 H 0.49899 0.64323 0.25717 0.0
H531 H 0.46871 0.61303 0.23387 0.0
H532 H 0.49658 0.60455 0.25287 0.0
H533 H 0.57574 0.71785 0.14794 0.0
H534 H 0.53439 0.70821 0.15223 0.0
H535 H 0.56314 0.72996 0.18052 0.0
H536 H 0.43894 0.68567 0.18655 0.0
H537 H 0.51416 0.74986 0.24503 0.0
H538 H 0.45774 0.62353 0.18459 0.0
H539 H 0.47925 0.65081 0.15525 0.0
H540 H 0.43874 0.64164 0.16402 0.0
H541 H 0.54908 0.69796 0.25531 0.0
H542 H 0.5516 0.73573 0.26506 0.0
H543 H 0.57034 0.73249 0.23198 0.0
C544 C 0.93268 0.49473 0.36654 0.0
C545 C 0.93943 0.50904 0.33866 0.0
C546 C 0.90382 0.48736 0.38123 0.0
C547 C 0.88122 0.49394 0.36729 0.0
C548 C 0.88942 0.51091 0.34029 0.0
C549 C 0.91859 0.51858 0.32653 0.0
C550 C 0.89653 0.47043 0.41054 0.0
C551 C 0.86612 0.51831 0.32446 0.0
C552 C 0.79074 0.4382 0.37536 0.0
C553 C 0.78173 0.45816 0.39003 0.0
C554 C 0.82338 0.44895 0.36916 0.0
C555 C 0.84759 0.48001 0.37867 0.0
C556 C 0.83869 0.49917 0.39552 0.0
C557 C 0.80581 0.48826 0.40054 0.0
C558 C 0.83173 0.42796 0.35066 0.0
C559 C 0.86374 0.53185 0.40699 0.0
H560 H 0.94872 0.48721 0.37586 0.0
H561 H 0.92394 0.52972 0.30495 0.0
H562 H 0.88485 0.47979 0.42558 0.0
H563 H 0.87948 0.44428 0.40736 0.0
H564 H 0.91875 0.47333 0.42114 0.0
H565 H 0.87708 0.53349 0.30463 0.0
H566 H 0.84452 0.49541 0.31756 0.0
H567 H 0.85769 0.53096 0.33928 0.0
H568 H 0.77216 0.41494 0.3672 0.0
H569 H 0.79889 0.50358 0.41227 0.0
H570 H 0.85072 0.42485 0.36155 0.0
H571 H 0.84155 0.43986 0.32917 0.0
H572 H 0.81041 0.40373 0.34655 0.0
H573 H 0.88469 0.53089 0.41629 0.0
H574 H 0.85367 0.54083 0.42415 0.0
H575 H 0.87286 0.54952 0.38867 0.0
C576 C 0.13662 0.53765 0.3695 0.0
C577 C 0.11086 0.54376 0.37001 0.0
C578 C 0.15682 0.54453 0.39393 0.0
C579 C 0.15083 0.55756 0.41945 0.0
C580 C 0.12261 0.56013 0.42121 0.0
C581 C 0.10289 0.55323 0.39632 0.0
C582 C 0.18648 0.5412 0.39115 0.0
C583 C 0.11505 0.57333 0.44828 0.0
C584 C 0.20224 0.57237 0.48768 0.0
C585 C 0.22468 0.60548 0.48504 0.0
C586 C 0.17809 0.55621 0.46643 0.0
C587 C 0.17663 0.57354 0.44189 0.0
C588 C 0.1999 0.60669 0.43861 0.0
C589 C 0.22351 0.62228 0.46031 0.0
C590 C 0.15358 0.52094 0.4707 0.0
C591 C 0.19952 0.62592 0.41243 0.0
H592 H 0.14257 0.53006 0.34912 0.0
H593 H 0.08301 0.55803 0.39667 0.0
H594 H 0.20801 0.56543 0.38772 0.0
H595 H 0.19054 0.53101 0.41151 0.0
H596 H 0.18463 0.52562 0.3723 0.0
H597 H 0.08977 0.56849 0.44816 0.0
H598 H 0.11893 0.56275 0.46847 0.0
H599 H 0.13158 0.59984 0.44928 0.0
H600 H 0.20283 0.55926 0.50686 0.0
H601 H 0.24083 0.64781 0.45807 0.0
H602 H 0.15219 0.50696 0.45078 0.0
H603 H 0.12928 0.51802 0.47409 0.0
H604 H 0.15937 0.5104 0.48989 0.0
H605 H 0.20077 0.61431 0.39175 0.0
H606 H 0.21996 0.6512 0.41273 0.0
H607 H 0.17656 0.62638 0.41206 0.0
C608 C 0.61432 0.13137 0.52483 0.0
C609 C 0.58351 0.10401 0.52755 0.0
C610 C 0.62893 0.1521 0.54868 0.0
C611 C 0.61246 0.14482 0.5759 0.0
C612 C 0.58332 0.11507 0.57967 0.0
C613 C 0.56902 0.09496 0.55527 0.0
C614 C 0.66003 0.18348 0.5437 0.0
C615 C 0.56554 0.10609 0.60863 0.0
C616 C 0.65397 0.19809 0.64187 0.0
C617 C 0.64022 0.21802 0.64212 0.0
C618 C 0.64526 0.17408 0.62044 0.0
C619 C 0.62274 0.17038 0.59853 0.0
C620 C 0.60964 0.19116 0.59808 0.0
C621 C 0.61831 0.21454 0.62008 0.0
C622 C 0.65933 0.15207 0.62181 0.0
C623 C 0.58604 0.18839 0.5746 0.0
H624 H 0.62562 0.1381 0.50334 0.0
H625 H 0.54519 0.07379 0.55736 0.0
H626 H 0.65461 0.2034 0.54188 0.0
H627 H 0.67683 0.18912 0.56244 0.0
H628 H 0.67241 0.18296 0.52321 0.0
H629 H 0.54684 0.08009 0.60949 0.0
H630 H 0.58258 0.11163 0.62717 0.0
H631 H 0.55342 0.12047 0.61179 0.0
H632 H 0.67066 0.20042 0.65909 0.0
H633 H 0.6077 0.22993 0.62017 0.0
H634 H 0.67034 0.15188 0.6004 0.0
H635 H 0.63976 0.12698 0.62621 0.0
H636 H 0.67795 0.15933 0.63924 0.0
H637 H 0.59673 0.19046 0.5525 0.0
H638 H 0.57913 0.20725 0.57674 0.0
H639 H 0.5638 0.16437 0.57591 0.0
C640 C 0.47702 0.54316 0.72556 0.0
C641 C 0.4554 0.53004 0.70203 0.0
C642 C 0.46812 0.55308 0.75123 0.0
C643 C 0.43719 0.55022 0.75295 0.0
C644 C 0.41451 0.53467 0.73016 0.0
C645 C 0.42376 0.5243 0.70519 0.0
C646 C 0.49256 0.56863 0.77558 0.0
C647 C 0.38141 0.5314 0.73096 0.0
C648 C 0.40415 0.56398 0.82381 0.0
C649 C 0.41272 0.59649 0.82099 0.0
C650 C 0.4128 0.54879 0.80225 0.0
C651 C 0.42955 0.56631 0.77693 0.0
C652 C 0.43786 0.59903 0.77378 0.0
C653 C 0.42976 0.61389 0.79611 0.0
C654 C 0.40431 0.51416 0.80668 0.0
C655 C 0.45503 0.61825 0.74668 0.0
H656 H 0.50148 0.54762 0.72319 0.0
H657 H 0.40683 0.51358 0.68716 0.0
H658 H 0.50217 0.59506 0.77539 0.0
H659 H 0.48108 0.55938 0.79731 0.0
H660 H 0.51317 0.56426 0.77308 0.0
H661 H 0.36576 0.5163 0.71266 0.0
H662 H 0.3691 0.52066 0.75206 0.0
H663 H 0.38395 0.5557 0.72931 0.0
H664 H 0.39148 0.55064 0.84333 0.0
H665 H 0.43644 0.63904 0.79398 0.0
H666 H 0.42649 0.51229 0.80538 0.0
H667 H 0.3879 0.49879 0.78895 0.0
H668 H 0.39239 0.50436 0.82819 0.0
H669 H 0.47865 0.61939 0.74418 0.0
H670 H 0.45931 0.64328 0.74748 0.0
H671 H 0.4405 0.60614 0.72683 0.0
C672 C 0.92777 0.50848 0.87001 0.0
C673 C 0.95504 0.50476 0.86956 0.0
C674 C 0.90821 0.50048 0.89504 0.0
C675 C 0.9165 0.48898 0.92029 0.0
C676 C 0.94606 0.48884 0.92104 0.0
C677 C 0.96503 0.49666 0.8955 0.0
C678 C 0.87696 0.50104 0.89327 0.0
C679 C 0.95609 0.47746 0.94783 0.0
C680 C 0.86625 0.47376 -0.01062 0.0
C681 C 0.8449 0.44033 -0.01237 0.0
C682 C 0.89001 0.49001 0.96782 0.0
C683 C 0.89204 0.47247 0.94375 0.0
C684 C 0.87017 0.43883 0.94158 0.0
C685 C 0.84704 0.42313 0.96369 0.0
C686 C 0.91321 0.52578 0.97102 0.0
C687 C 0.87121 0.41936 0.91591 0.0
H688 H 0.92028 0.51508 0.84994 0.0
H689 H 0.98608 0.49372 0.89515 0.0
H690 H 0.85648 0.47595 0.89117 0.0
H691 H 0.87297 0.51141 0.91354 0.0
H692 H 0.87653 0.51515 0.87408 0.0
H693 H 0.98198 0.4843 0.94687 0.0
H694 H 0.95186 0.48758 0.96816 0.0
H695 H 0.9413 0.45077 0.94933 0.0
H696 H 0.86496 0.48716 0.00803 0.0
H697 H 0.83059 0.39733 0.9622 0.0
H698 H 0.91189 0.53885 0.95143 0.0
H699 H 0.93835 0.5304 0.97234 0.0
H700 H 0.90816 0.53597 -0.00909 0.0
H701 H 0.86821 0.42949 0.895 0.0
H702 H 0.85208 0.39354 0.91726 0.0
H703 H 0.89507 0.42076 0.91505 0.0
C704 C 0.46254 0.91379 0.02042 0.0
C705 C 0.49378 0.94066 0.02239 0.0
C706 C 0.44804 0.89356 0.0446 0.0
C707 C 0.46494 0.90091 0.07155 0.0
C708 C 0.49492 0.92998 0.07452 0.0
C709 C 0.50917 0.94953 0.04973 0.0
C710 C 0.41614 0.86277 0.0404 0.0
C711 C 0.51317 0.93905 0.10321 0.0
C712 C 0.42004 0.85085 0.13825 0.0
C713 C 0.43146 0.829 0.13968 0.0
C714 C 0.43099 0.87473 0.11642 0.0
C715 C 0.45328 0.87623 0.09517 0.0
C716 C 0.46416 0.85363 0.09601 0.0
C717 C 0.45342 0.83052 0.1185 0.0
C718 C 0.41938 0.89881 0.11653 0.0
C719 C 0.48734 0.85398 0.07323 0.0
H720 H 0.45048 0.90724 -0.00073 0.0
H721 H 0.53331 0.97031 0.05126 0.0
H722 H 0.42026 0.84194 0.04034 0.0
H723 H 0.39935 0.85907 0.05874 0.0
H724 H 0.4043 0.8627 0.01938 0.0
H725 H 0.53304 0.96461 0.10329 0.0
H726 H 0.49665 0.93522 0.12186 0.0
H727 H 0.52379 0.9234 0.10692 0.0
H728 H 0.40343 0.85009 0.15489 0.0
H729 H 0.46229 0.81369 0.11959 0.0
H730 H 0.40801 0.89834 0.09517 0.0
H731 H 0.44028 0.92354 0.11939 0.0
H732 H 0.40165 0.89402 0.13436 0.0
H733 H 0.47714 0.85179 0.05089 0.0
H734 H 0.49262 0.83409 0.07647 0.0
H735 H 0.51044 0.87728 0.07413 0.0
C736 C 0.56876 0.45795 0.20782 0.0
C737 C 0.57733 0.49053 0.20592 0.0
C738 C 0.57604 0.44587 0.23283 0.0
C739 C 0.59134 0.46666 0.25691 0.0
C740 C 0.59689 0.49864 0.25636 0.0
C741 C 0.59004 0.51036 0.23066 0.0
C742 C 0.56993 0.41171 0.23237 0.0
C743 C 0.61218 0.52116 0.28206 0.0
C744 C 0.59715 0.42686 0.32688 0.0
C745 C 0.62907 0.43303 0.3254 0.0
C746 C 0.58476 0.4385 0.3052 0.0
C747 C 0.60451 0.45588 0.28109 0.0
C748 C 0.63664 0.46181 0.27929 0.0
C749 C 0.6487 0.45071 0.30174 0.0
C750 C 0.55071 0.43245 0.30821 0.0
C751 C 0.65817 0.47957 0.25349 0.0
H752 H 0.55833 0.44243 0.18884 0.0
H753 H 0.59664 0.53553 0.22928 0.0
H754 H 0.59339 0.41224 0.23148 0.0
H755 H 0.55738 0.39868 0.2527 0.0
H756 H 0.55522 0.39786 0.21314 0.0
H757 H 0.60992 0.54307 0.28016 0.0
H758 H 0.60094 0.50873 0.30302 0.0
H759 H 0.63824 0.52885 0.28313 0.0
H760 H 0.58208 0.41366 0.34545 0.0
H761 H 0.67338 0.45552 0.30062 0.0
H762 H 0.53578 0.41785 0.28943 0.0
H763 H 0.55091 0.45571 0.30769 0.0
H764 H 0.53897 0.41962 0.32892 0.0
H765 H 0.64664 0.46674 0.23276 0.0
H766 H 0.68237 0.48178 0.25524 0.0
H767 H 0.66142 0.50414 0.25188 0.0
C768 C 0.50427 0.92732 0.40024 0.0
C769 C 0.4958 0.95138 0.40188 0.0
C770 C 0.49647 0.90742 0.37558 0.0
C771 C 0.48071 0.91242 0.3516 0.0
C772 C 0.47525 0.93891 0.35184 0.0
C773 C 0.48266 0.95805 0.37723 0.0
C774 C 0.50248 0.87932 0.37638 0.0
C775 C 0.45952 0.94562 0.32618 0.0
C776 C 0.47413 0.8642 0.28337 0.0
C777 C 0.44245 0.83813 0.28581 0.0
C778 C 0.4865 0.88938 0.30392 0.0
C779 C 0.46704 0.88785 0.32794 0.0
C780 C 0.43504 0.8615 0.33057 0.0
C781 C 0.42293 0.83718 0.30914 0.0
C782 C 0.52035 0.91754 0.29996 0.0
C783 C 0.41384 0.85863 0.35635 0.0
H784 H 0.51489 0.92253 0.41926 0.0
H785 H 0.47616 0.97669 0.3785 0.0
H786 H 0.479 0.8564 0.37751 0.0
H787 H 0.51491 0.87857 0.35608 0.0
H788 H 0.51731 0.88043 0.39561 0.0
H789 H 0.46217 0.96999 0.32761 0.0
H790 H 0.47008 0.94363 0.30512 0.0
H791 H 0.43335 0.92744 0.3258 0.0
H792 H 0.48904 0.86529 0.26494 0.0
H793 H 0.3984 0.81709 0.31091 0.0
H794 H 0.53596 0.91818 0.31826 0.0
H795 H 0.52008 0.94057 0.3006 0.0
H796 H 0.5314 0.91624 0.27889 0.0
H797 H 0.38954 0.83666 0.35507 0.0
H798 H 0.4108 0.88009 0.35739 0.0
H799 H 0.42554 0.85783 0.37714 0.0
C800 C 0.61296 0.50569 0.58697 0.0
C801 C 0.58223 0.50187 0.5824 0.0
C802 C 0.6293 0.50024 0.56417 0.0
C803 C 0.61473 0.49146 0.53611 0.0
C804 C 0.58592 0.4921 0.53048 0.0
C805 C 0.56983 0.49719 0.55385 0.0
C806 C 0.66003 0.49998 0.57113 0.0
C807 C 0.57017 0.48384 0.50059 0.0
C808 C 0.65957 0.47994 0.47269 0.0
C809 C 0.64539 0.44619 0.47216 0.0
C810 C 0.6501 0.49521 0.49349 0.0
C811 C 0.62631 0.47628 0.51453 0.0
C812 C 0.61286 0.44231 0.51484 0.0
C813 C 0.62233 0.42764 0.49345 0.0
C814 C 0.66462 0.53138 0.49225 0.0
C815 C 0.5879 0.42133 0.53742 0.0
H816 H 0.62264 0.50963 0.60909 0.0
H817 H 0.54607 0.49424 0.5503 0.0
H818 H 0.65442 0.47461 0.57352 0.0
H819 H 0.67792 0.51108 0.55312 0.0
H820 H 0.67119 0.51295 0.59192 0.0
H821 H 0.55168 0.49127 0.49839 0.0
H822 H 0.58846 0.49559 0.48297 0.0
H823 H 0.55815 0.45736 0.49719 0.0
H824 H 0.67717 0.49443 0.45606 0.0
H825 H 0.61139 0.40159 0.49317 0.0
H826 H 0.67379 0.54225 0.51417 0.0
H827 H 0.64569 0.53718 0.48596 0.0
H828 H 0.68473 0.54287 0.47612 0.0
H829 H 0.59728 0.42981 0.55991 0.0
H830 H 0.58106 0.39554 0.53552 0.0
H831 H 0.5658 0.42313 0.53474 0.0
C832 C 0.13273 0.61454 0.74344 0.0
C833 C 0.10737 0.58247 0.74212 0.0
C834 C 0.15338 0.62891 0.71943 0.0
C835 C 0.14837 0.61071 0.6935 0.0
C836 C 0.12074 0.5795 0.69104 0.0
C837 C 0.10048 0.56566 0.71553 0.0
C838 C 0.18239 0.66226 0.72296 0.0
C839 C 0.11429 0.55955 0.66357 0.0
C840 C 0.19995 0.6511 0.62603 0.0
C841 C 0.22346 0.64182 0.62823 0.0
C842 C 0.17534 0.64134 0.64715 0.0
C843 C 0.17448 0.62214 0.67113 0.0
C844 C 0.19875 0.6136 0.67397 0.0
C845 C 0.22283 0.62341 0.65242 0.0
C846 C 0.14981 0.65077 0.64338 0.0
C847 C 0.19897 0.59356 0.69953 0.0
H848 H 0.13789 0.62752 0.76408 0.0
H849 H 0.08096 0.54079 0.7146 0.0
H850 H 0.20437 0.66029 0.72597 0.0
H851 H 0.18612 0.67709 0.70305 0.0
H852 H 0.17996 0.67504 0.7423 0.0
H853 H 0.0894 0.53838 0.6633 0.0
H854 H 0.11782 0.57436 0.64368 0.0
H855 H 0.13167 0.55065 0.66232 0.0
H856 H 0.20009 0.66512 0.60727 0.0
H857 H 0.24094 0.61622 0.65433 0.0
H858 H 0.14799 0.6628 0.66352 0.0
H859 H 0.1259 0.6288 0.64002 0.0
H860 H 0.15488 0.66721 0.62438 0.0
H861 H 0.19954 0.60551 0.72058 0.0
H862 H 0.22002 0.58972 0.69888 0.0
H863 H 0.17651 0.56964 0.69939 0.0
C864 C 0.56097 0.12087 0.90328 0.0
C865 C 0.56713 0.09529 0.90055 0.0
C866 C 0.56663 0.14194 0.87983 0.0
C867 C 0.57814 0.13683 0.8529 0.0
C868 C 0.58072 0.10884 0.84902 0.0
C869 C 0.5753 0.08835 0.87307 0.0
C870 C 0.56359 0.17146 0.88495 0.0
C871 C 0.5921 0.10215 0.82034 0.0
C872 C 0.58542 0.18977 0.78794 0.0
C873 C 0.61853 0.21284 0.7885 0.0
C874 C 0.57187 0.16463 0.80858 0.0
C875 C 0.5918 0.16295 0.83059 0.0
C876 C 0.62506 0.18667 0.83174 0.0
C877 C 0.63809 0.21115 0.81047 0.0
C878 C 0.53647 0.13951 0.80644 0.0
C879 C 0.64696 0.18605 0.85533 0.0
H880 H 0.55438 0.126 0.92459 0.0
H881 H 0.58013 0.0686 0.871 0.0
H882 H 0.58809 0.19299 0.88687 0.0
H883 H 0.55137 0.17565 0.86618 0.0
H884 H 0.54995 0.16942 0.90538 0.0
H885 H 0.5874 0.07698 0.81922 0.0
H886 H 0.58004 0.10642 0.80147 0.0
H887 H 0.6185 0.11883 0.81798 0.0
H888 H 0.57023 0.1907 0.77076 0.0
H889 H 0.66365 0.22892 0.81099 0.0
H890 H 0.52397 0.13819 0.82738 0.0
H891 H 0.5338 0.11539 0.80272 0.0
H892 H 0.52414 0.14463 0.78831 0.0
H893 H 0.63728 0.18655 0.87738 0.0
H894 H 0.67202 0.20678 0.85361 0.0
H895 H 0.6478 0.16337 0.85379 0.0
C896 C 0.51576 0.57541 0.05384 0.0
C897 C 0.50351 0.57343 0.08219 0.0
C898 C 0.50067 0.58027 0.02946 0.0
C899 C 0.47322 0.58375 0.03385 0.0
C900 C 0.4595 0.57937 0.06219 0.0
C901 C 0.47451 0.57367 0.0859 0.0
C902 C 0.51526 0.58368 -0.00066 0.0
C903 C 0.43049 0.58322 0.06792 0.0
C904 C 0.45987 0.63822 -0.0177 0.0
C905 C 0.43306 0.6157 0.96622 0.0
C906 C 0.47333 0.62808 0.00431 0.0
C907 C 0.46029 0.59462 0.00955 0.0
C908 C 0.43372 0.57179 -0.00718 0.0
C909 C 0.42008 0.58263 0.97166 0.0
C910 C 0.50113 0.65316 0.02232 0.0
C911 C 0.41981 0.53596 -0.0028 0.0
H912 H 0.53814 0.57517 0.05094 0.0
H913 H 0.4647 0.57152 0.10782 0.0
H914 H 0.49613 0.56975 -0.01712 0.0
H915 H 0.52766 0.6094 -0.00745 0.0
H916 H 0.53313 0.57533 -0.00108 0.0
H917 H 0.42169 0.57712 0.09093 0.0
H918 H 0.43698 0.60858 0.06358 0.0
H919 H 0.41039 0.56767 0.0529 0.0
H920 H 0.46996 0.66376 0.97795 0.0
H921 H 0.39973 0.56515 0.95877 0.0
H922 H 0.52239 0.64986 0.02016 0.0
H923 H 0.49431 0.65018 0.04591 0.0
H924 H 0.50833 0.67817 0.01554 0.0
H925 H 0.43919 0.52976 -0.00481 0.0
H926 H 0.4005 0.52142 -0.01896 0.0
H927 H 0.40955 0.52893 0.01963 0.0
C928 C 0.96457 0.48451 0.21836 0.0
C929 C 0.95741 0.46884 0.24558 0.0
C930 C 0.94377 0.47026 0.19431 0.0
C931 C 0.91526 0.4399 0.19791 0.0
C932 C 0.9098 0.42269 0.22454 0.0
C933 C 0.93111 0.43734 0.24803 0.0
C934 C 0.95075 0.48902 0.166 0.0
C935 C 0.87978 0.3903 0.22932 0.0
C936 C 0.84191 0.42847 0.1557 0.0
C937 C 0.8402 0.40822 0.13272 0.0
C938 C 0.86594 0.43845 0.1773 0.0
C939 C 0.8891 0.42831 0.17563 0.0
C940 C 0.88713 0.40732 0.15287 0.0
C941 C 0.86254 0.39732 0.1318 0.0
C942 C 0.86687 0.46036 0.20164 0.0
C943 C 0.91156 0.39626 0.15027 0.0
H944 H 0.98483 0.50892 0.21654 0.0
H945 H 0.92574 0.42524 0.26916 0.0
H946 H 0.94633 0.47305 0.14681 0.0
H947 H 0.93428 0.49896 0.16405 0.0
H948 H 0.97607 0.5094 0.16507 0.0
H949 H 0.88158 0.37807 0.24938 0.0
H950 H 0.8586 0.39373 0.23174 0.0
H951 H 0.87514 0.37423 0.21018 0.0
H952 H 0.82472 0.43693 0.15657 0.0
H953 H 0.8616 0.3819 0.11394 0.0
H954 H 0.88985 0.48377 0.20055 0.0
H955 H 0.86606 0.44942 0.22335 0.0
H956 H 0.84643 0.46512 0.20035 0.0
H957 H 0.93592 0.41741 0.14629 0.0
H958 H 0.90575 0.37872 0.13209 0.0
H959 H 0.91284 0.38492 0.17109 0.0
loop_
_geom_bond_atom_site_label_1
_geom_bond_atom_site_label_2
_geom_bond_distance
_geom_bond_site_symmetry_2
_ccdc_geom_bond_type
H0 C6 0.930 . S
H1 C9 0.931 . S
H2 C11 0.931 . S
H3 C13 0.930 . S
H4 C15 0.930 . S
H5 C17 0.931 . S
C6 H0 0.930 . S
C6 C7 1.380 . S
C6 C8 1.394 . S
C7 C6 1.380 . S
C7 C11 1.382 . S
C8 C6 1.394 . S
C8 C9 1.400 . S
C9 H1 0.931 . S
C9 C8 1.400 . S
C9 C10 1.375 . S
C10 C9 1.375 . S
C10 C11 1.415 . S
C10 C12 1.501 1_455 S
C11 H2 0.931 . S
C11 C7 1.382 . S
C11 C10 1.415 . S
C12 C10 1.501 1_655 S
C12 C13 1.384 . S
C12 C17 1.408 . S
C13 H3 0.930 . S
C13 C12 1.384 . S
C13 C14 1.389 . S
C14 C13 1.389 . S
C14 C15 1.405 . S
C15 H4 0.930 . S
C15 C14 1.405 . S
C15 C16 1.364 . S
C16 C15 1.364 . S
C16 C17 1.400 . S
C17 H5 0.931 . S
C17 C12 1.408 . S
C17 C16 1.400 . S
H18 C24 0.930 . S
H19 C27 0.931 . S
H20 C29 0.931 . S
H21 C31 0.930 . S
H22 C33 0.930 . S
H23 C35 0.931 . S
C24 H18 0.930 . S
C24 C25 1.380 . S
C24 C26 1.394 . S
C25 C24 1.380 . S
C25 C29 1.382 . S
C26 C24 1.394 . S
C26 C27 1.400 . S
C27 H19 0.931 . S
C27 C26 1.400 . S
C27 C28 1.375 . S
C28 C27 1.375 . S
C28 C29 1.415 . S
C28 C30 1.501 1_545 S
C29 H20 0.931 . S
C29 C25 1.382 . S
C29 C28 1.415 . S
C30 C28 1.501 1_565 S
C30 C31 1.384 . S
C30 C35 1.408 . S
C31 H21 0.930 . S
C31 C30 1.384 . S
C31 C32 1.389 . S
C32 C31 1.389 . S
C32 C33 1.405 . S
C33 H22 0.930 . S
C33 C32 1.405 . S
C33 C34 1.364 . S
C34 C33 1.364 . S
C34 C35 1.400 . S
C35 H23 0.931 . S
C35 C30 1.408 . S
C35 C34 1.400 . S
H36 C42 0.930 . S
H37 C45 0.931 . S
H38 C47 0.931 . S
H39 C49 0.930 . S
H40 C51 0.930 . S
H41 C53 0.931 . S
C42 H36 0.930 . S
C42 C43 1.380 . S
C42 C44 1.394 . S
C43 C42 1.380 . S
C43 C47 1.382 . S
C44 C42 1.394 . S
C44 C45 1.400 . S
C45 H37 0.931 . S
C45 C44 1.400 . S
C45 C46 1.375 . S
C46 C45 1.375 . S
C46 C47 1.415 . S
C46 C48 1.501 . S
C47 H38 0.931 . S
C47 C43 1.382 . S
C47 C46 1.415 . S
C48 C46 1.501 . S
C48 C49 1.384 . S
C48 C53 1.408 . S
C49 H39 0.930 . S
C49 C48 1.384 . S
C49 C50 1.389 . S
C50 C49 1.389 . S
C50 C51 1.405 . S
C51 H40 0.930 . S
C51 C50 1.405 . S
C51 C52 1.364 . S
C52 C51 1.364 . S
C52 C53 1.400 . S
C53 H41 0.931 . S
C53 C48 1.408 . S
C53 C52 1.400 . S
H54 C60 0.930 . S
H55 C63 0.931 . S
H56 C65 0.931 . S
H57 C67 0.930 . S
H58 C69 0.930 . S
H59 C71 0.931 . S
C60 H54 0.930 . S
C60 C61 1.380 . S
C60 C62 1.394 . S
C61 C60 1.380 . S
C61 C65 1.382 . S
C62 C60 1.394 . S
C62 C63 1.400 . S
C63 H55 0.931 . S
C63 C62 1.400 . S
C63 C64 1.375 . S
C64 C63 1.375 . S
C64 C65 1.415 . S
C64 C66 1.501 1_455 S
C65 H56 0.931 . S
C65 C61 1.382 . S
C65 C64 1.415 . S
C66 C64 1.501 1_655 S
C66 C67 1.384 . S
C66 C71 1.408 . S
C67 H57 0.930 . S
C67 C66 1.384 . S
C67 C68 1.389 . S
C68 C67 1.389 . S
C68 C69 1.405 . S
C69 H58 0.930 . S
C69 C68 1.405 . S
C69 C70 1.364 . S
C70 C69 1.364 . S
C70 C71 1.400 . S
C71 H59 0.931 . S
C71 C66 1.408 . S
C71 C70 1.400 . S
H72 C78 0.930 . S
H73 C81 0.931 . S
H74 C83 0.931 . S
H75 C85 0.930 . S
H76 C87 0.930 . S
H77 C89 0.931 . S
C78 H72 0.930 . S
C78 C79 1.380 . S
C78 C80 1.394 1_554 S
C79 C78 1.380 . S
C79 C83 1.382 . S
C80 C78 1.394 1_556 S
C80 C81 1.400 . S
C81 H73 0.931 . S
C81 C80 1.400 . S
C81 C82 1.375 . S
C82 C81 1.375 . S
C82 C83 1.415 1_556 S
C82 C84 1.501 1_565 S
C83 H74 0.931 . S
C83 C79 1.382 . S
C83 C82 1.415 1_554 S
C84 C82 1.501 1_545 S
C84 C85 1.384 1_556 S
C84 C89 1.408 . S
C85 H75 0.930 . S
C85 C84 1.384 1_554 S
C85 C86 1.391 . S
C86 C85 1.391 . S
C86 C87 1.400 1_554 S
C87 H76 0.930 . S
C87 C86 1.400 1_556 S
C87 C88 1.364 . S
C88 C87 1.364 . S
C88 C89 1.400 . S
C89 H77 0.931 . S
C89 C84 1.408 . S
C89 C88 1.400 . S
H90 C96 0.930 . S
H91 C99 0.931 . S
H92 C101 0.931 . S
H93 C103 0.930 . S
H94 C105 0.930 . S
H95 C107 0.931 . S
C96 H90 0.930 . S
C96 C97 1.380 . S
C96 C98 1.394 . S
C97 C96 1.380 . S
C97 C101 1.382 . S
C98 C96 1.394 . S
C98 C99 1.400 . S
C99 H91 0.931 . S
C99 C98 1.400 . S
C99 C100 1.375 . S
C100 C99 1.375 . S
C100 C101 1.415 . S
C100 C102 1.501 . S
C101 H92 0.931 . S
C101 C97 1.382 . S
C101 C100 1.415 . S
C102 C100 1.501 . S
C102 C103 1.384 . S
C102 C107 1.408 . S
C103 H93 0.930 . S
C103 C102 1.384 . S
C103 C104 1.389 . S
C104 C103 1.389 . S
C104 C105 1.405 . S
C105 H94 0.930 . S
C105 C104 1.405 . S
C105 C106 1.364 . S
C106 C105 1.364 . S
C106 C107 1.400 . S
C107 H95 0.931 . S
C107 C102 1.408 . S
C107 C106 1.400 . S
O108 Cd109 2.223 . S
O108 C116 1.315 . S
Cd109 O108 2.223 . S
Cd109 O112 2.297 . S
Cd109 O113 2.439 . S
Cd109 O119 2.240 . S
Cd110 O111 2.240 . S
Cd110 O118 2.223 . S
Cd110 O120 2.297 . S
Cd110 O121 2.439 . S
O111 Cd110 2.240 . S
O111 C116 1.279 . S
O112 Cd109 2.297 . S
O112 C114 1.247 . S
O113 Cd109 2.439 . S
O113 C114 1.208 . S
C114 O112 1.247 . S
C114 O113 1.208 . S
C115 O120 1.247 . S
C115 O121 1.208 . S
C116 O108 1.315 . S
C116 O111 1.279 . S
C117 O118 1.315 . S
C117 O119 1.279 . S
O118 Cd110 2.223 . S
O118 C117 1.315 . S
O119 Cd109 2.240 . S
O119 C117 1.279 . S
O120 Cd110 2.297 . S
O120 C115 1.247 . S
O121 Cd110 2.439 . S
O121 C115 1.208 . S
O122 Cd123 2.223 . S
O122 C130 1.315 . S
Cd123 O122 2.223 . S
Cd123 O126 2.297 . S
Cd123 O127 2.439 . S
Cd123 O133 2.240 . S
Cd124 O125 2.240 . S
Cd124 O132 2.223 . S
Cd124 O134 2.297 . S
Cd124 O135 2.439 . S
O125 Cd124 2.240 . S
O125 C130 1.279 . S
O126 Cd123 2.297 . S
O126 C128 1.247 . S
O127 Cd123 2.439 . S
O127 C128 1.208 . S
C128 O126 1.247 . S
C128 O127 1.208 . S
C129 O134 1.247 . S
C129 O135 1.208 . S
C130 O122 1.315 . S
C130 O125 1.279 . S
C131 O132 1.315 . S
C131 O133 1.279 . S
O132 Cd124 2.223 . S
O132 C131 1.315 . S
O133 Cd123 2.240 . S
O133 C131 1.279 . S
O134 Cd124 2.297 . S
O134 C129 1.247 . S
O135 Cd124 2.439 . S
O135 C129 1.208 . S
O136 Cd137 2.223 . S
O136 C144 1.315 . S
Cd137 O136 2.223 . S
Cd137 O140 2.297 . S
Cd137 O141 2.439 . S
Cd137 O147 2.240 . S
Cd138 O139 2.240 . S
Cd138 O146 2.223 . S
Cd138 O148 2.297 . S
Cd138 O149 2.439 . S
O139 Cd138 2.240 . S
O139 C144 1.279 . S
O140 Cd137 2.297 . S
O140 C142 1.247 . S
O141 Cd137 2.439 . S
O141 C142 1.208 . S
C142 O140 1.247 . S
C142 O141 1.208 . S
C143 O148 1.247 . S
C143 O149 1.208 . S
C144 O136 1.315 . S
C144 O139 1.279 . S
C145 O146 1.315 . S
C145 O147 1.279 . S
O146 Cd138 2.223 . S
O146 C145 1.315 . S
O147 Cd137 2.240 . S
O147 C145 1.279 . S
O148 Cd138 2.297 . S
O148 C143 1.247 . S
O149 Cd138 2.439 . S
O149 C143 1.208 . S
O150 Cd151 2.223 . S
O150 C158 1.315 . S
Cd151 O150 2.223 . S
Cd151 O154 2.297 . S
Cd151 O155 2.439 . S
Cd151 O161 2.240 . S
Cd152 O153 2.240 . S
Cd152 O160 2.223 . S
Cd152 O162 2.297 . S
Cd152 O163 2.439 . S
O153 Cd152 2.240 . S
O153 C158 1.279 . S
O154 Cd151 2.297 . S
O154 C156 1.247 . S
O155 Cd151 2.439 . S
O155 C156 1.208 . S
C156 O154 1.247 . S
C156 O155 1.208 . S
C157 O162 1.247 . S
C157 O163 1.208 . S
C158 O150 1.315 . S
C158 O153 1.279 . S
C159 O160 1.315 . S
C159 O161 1.279 . S
O160 Cd152 2.223 . S
O160 C159 1.315 . S
O161 Cd151 2.240 . S
O161 C159 1.279 . S
O162 Cd152 2.297 . S
O162 C157 1.247 . S
O163 Cd152 2.439 . S
O163 C157 1.208 . S
O164 Cd165 2.223 . S
O164 C172 1.315 . S
Cd165 O164 2.223 . S
Cd165 O168 2.297 . S
Cd165 O169 2.439 . S
Cd165 O175 2.240 . S
Cd166 O167 2.240 . S
Cd166 O174 2.223 . S
Cd166 O176 2.297 . S
Cd166 O177 2.439 . S
O167 Cd166 2.240 . S
O167 C172 1.279 . S
O168 Cd165 2.297 . S
O168 C170 1.247 . S
O169 Cd165 2.439 . S
O169 C170 1.208 . S
C170 O168 1.247 . S
C170 O169 1.208 . S
C171 O176 1.247 . S
C171 O177 1.208 . S
C172 O164 1.315 . S
C172 O167 1.279 . S
C173 O174 1.315 . S
C173 O175 1.279 . S
O174 Cd166 2.223 . S
O174 C173 1.315 . S
O175 Cd165 2.240 . S
O175 C173 1.279 . S
O176 Cd166 2.297 . S
O176 C171 1.247 . S
O177 Cd166 2.439 . S
O177 C171 1.208 . S
O178 Cd179 2.223 . S
O178 C186 1.315 . S
Cd179 O178 2.223 . S
Cd179 O182 2.297 . S
Cd179 O183 2.439 . S
Cd179 O189 2.240 . S
Cd180 O181 2.240 . S
Cd180 O188 2.223 . S
Cd180 O190 2.297 . S
Cd180 O191 2.439 . S
O181 Cd180 2.240 . S
O181 C186 1.279 . S
O182 Cd179 2.297 . S
O182 C184 1.247 . S
O183 Cd179 2.439 . S
O183 C184 1.208 . S
C184 O182 1.247 . S
C184 O183 1.208 . S
C185 O190 1.247 . S
C185 O191 1.208 . S
C186 O178 1.315 . S
C186 O181 1.279 . S
C187 O188 1.315 . S
C187 O189 1.279 . S
O188 Cd180 2.223 . S
O188 C187 1.315 . S
O189 Cd179 2.240 . S
O189 C187 1.279 . S
O190 Cd180 2.297 . S
O190 C185 1.247 . S
O191 Cd180 2.439 . S
O191 C185 1.208 . S
C192 C193 1.391 . S
C192 C194 1.394 . S
C192 H208 0.931 . S
C193 C192 1.391 . S
C193 C197 1.376 . S
C194 C192 1.394 . S
C194 C195 1.369 . S
C194 C198 1.531 . S
C195 C194 1.369 . S
C195 C196 1.410 . S
C195 C203 1.503 . S
C196 C195 1.410 . S
C196 C197 1.392 . S
C196 C199 1.511 . S
C197 C193 1.376 . S
C197 C196 1.392 . S
C197 H209 0.929 . S
C198 C194 1.531 . S
C198 H210 0.960 . S
C198 H211 0.962 . S
C198 H212 0.960 . S
C199 C196 1.511 . S
C199 H213 0.961 . S
C199 H214 0.961 . S
C199 H215 0.961 . S
C200 C201 1.370 . S
C200 C202 1.363 . S
C200 H216 0.931 . S
C201 C200 1.370 . S
C201 C205 1.408 . S
C202 C200 1.363 . S
C202 C203 1.370 . S
C202 C206 1.524 . S
C203 C195 1.503 . S
C203 C202 1.370 . S
C203 C204 1.403 . S
C204 C203 1.403 . S
C204 C205 1.404 . S
C204 C207 1.539 . S
C205 C201 1.408 . S
C205 C204 1.404 . S
C205 H217 0.930 . S
C206 C202 1.524 . S
C206 H218 0.956 . S
C206 H219 0.961 . S
C206 H220 0.961 . S
C207 C204 1.539 . S
C207 H221 0.958 . S
C207 H222 0.961 . S
C207 H223 0.960 . S
H208 C192 0.931 . S
H209 C197 0.929 . S
H210 C198 0.960 . S
H211 C198 0.962 . S
H212 C198 0.960 . S
H213 C199 0.961 . S
H214 C199 0.961 . S
H215 C199 0.961 . S
H216 C200 0.931 . S
H217 C205 0.930 . S
H218 C206 0.956 . S
H219 C206 0.961 . S
H220 C206 0.961 . S
H221 C207 0.958 . S
H222 C207 0.961 . S
H223 C207 0.960 . S
C224 C225 1.391 . S
C224 C226 1.394 . S
C224 H240 0.931 . S
C225 C224 1.391 . S
C225 C229 1.376 . S
C226 C224 1.394 . S
C226 C227 1.369 . S
C226 C230 1.531 . S
C227 C226 1.369 . S
C227 C228 1.410 . S
C227 C235 1.503 . S
C228 C227 1.410 . S
C228 C229 1.392 . S
C228 C231 1.511 . S
C229 C225 1.376 . S
C229 C228 1.392 . S
C229 H241 0.929 . S
C230 C226 1.531 . S
C230 H242 0.960 . S
C230 H243 0.962 . S
C230 H244 0.960 . S
C231 C228 1.511 . S
C231 H245 0.961 . S
C231 H246 0.961 . S
C231 H247 0.961 . S
C232 C233 1.370 . S
C232 C234 1.363 . S
C232 H248 0.931 . S
C233 C232 1.370 . S
C233 C237 1.408 . S
C234 C232 1.363 . S
C234 C235 1.370 . S
C234 C238 1.524 . S
C235 C227 1.503 . S
C235 C234 1.370 . S
C235 C236 1.403 . S
C236 C235 1.403 . S
C236 C237 1.404 . S
C236 C239 1.539 . S
C237 C233 1.408 . S
C237 C236 1.404 . S
C237 H249 0.930 . S
C238 C234 1.524 . S
C238 H250 0.956 . S
C238 H251 0.961 . S
C238 H252 0.961 . S
C239 C236 1.539 . S
C239 H253 0.958 . S
C239 H254 0.961 . S
C239 H255 0.960 . S
H240 C224 0.931 . S
H241 C229 0.929 . S
H242 C230 0.960 . S
H243 C230 0.962 . S
H244 C230 0.960 . S
H245 C231 0.961 . S
H246 C231 0.961 . S
H247 C231 0.961 . S
H248 C232 0.931 . S
H249 C237 0.930 . S
H250 C238 0.956 . S
H251 C238 0.961 . S
H252 C238 0.961 . S
H253 C239 0.958 . S
H254 C239 0.961 . S
H255 C239 0.960 . S
C256 C257 1.391 . S
C256 C258 1.394 . S
C256 H272 0.931 . S
C257 C256 1.391 . S
C257 C261 1.376 . S
C258 C256 1.394 . S
C258 C259 1.369 . S
C258 C262 1.531 . S
C259 C258 1.369 . S
C259 C260 1.410 . S
C259 C267 1.503 . S
C260 C259 1.410 . S
C260 C261 1.392 . S
C260 C263 1.511 . S
C261 C257 1.376 . S
C261 C260 1.392 . S
C261 H273 0.929 . S
C262 C258 1.531 . S
C262 H274 0.960 . S
C262 H275 0.962 . S
C262 H276 0.960 . S
C263 C260 1.511 . S
C263 H277 0.961 . S
C263 H278 0.961 . S
C263 H279 0.961 . S
C264 C265 1.370 . S
C264 C266 1.363 . S
C264 H280 0.931 . S
C265 C264 1.370 . S
C265 C269 1.408 . S
C266 C264 1.363 . S
C266 C267 1.370 . S
C266 C270 1.524 . S
C267 C259 1.503 . S
C267 C266 1.370 . S
C267 C268 1.403 . S
C268 C267 1.403 . S
C268 C269 1.404 . S
C268 C271 1.539 . S
C269 C265 1.408 . S
C269 C268 1.404 . S
C269 H281 0.930 . S
C270 C266 1.524 . S
C270 H282 0.956 . S
C270 H283 0.961 . S
C270 H284 0.961 . S
C271 C268 1.539 . S
C271 H285 0.958 . S
C271 H286 0.961 . S
C271 H287 0.960 . S
H272 C256 0.931 . S
H273 C261 0.929 . S
H274 C262 0.960 . S
H275 C262 0.962 . S
H276 C262 0.960 . S
H277 C263 0.961 . S
H278 C263 0.961 . S
H279 C263 0.961 . S
H280 C264 0.931 . S
H281 C269 0.930 . S
H282 C270 0.956 . S
H283 C270 0.961 . S
H284 C270 0.961 . S
H285 C271 0.958 . S
H286 C271 0.961 . S
H287 C271 0.960 . S
C288 C289 1.391 . S
C288 C290 1.394 . S
C288 H304 0.931 . S
C289 C288 1.391 . S
C289 C293 1.376 . S
C290 C288 1.394 . S
C290 C291 1.369 . S
C290 C294 1.531 . S
C291 C290 1.369 . S
C291 C292 1.410 . S
C291 C299 1.503 . S
C292 C291 1.410 . S
C292 C293 1.392 . S
C292 C295 1.511 . S
C293 C289 1.376 . S
C293 C292 1.392 . S
C293 H305 0.929 . S
C294 C290 1.531 . S
C294 H306 0.960 . S
C294 H307 0.962 . S
C294 H308 0.960 . S
C295 C292 1.511 . S
C295 H309 0.961 . S
C295 H310 0.961 . S
C295 H311 0.961 . S
C296 C297 1.370 . S
C296 C298 1.363 . S
C296 H312 0.931 . S
C297 C296 1.370 . S
C297 C301 1.408 . S
C298 C296 1.363 . S
C298 C299 1.370 . S
C298 C302 1.524 . S
C299 C291 1.503 . S
C299 C298 1.370 . S
C299 C300 1.403 . S
C300 C299 1.403 . S
C300 C301 1.404 . S
C300 C303 1.539 . S
C301 C297 1.408 . S
C301 C300 1.404 . S
C301 H313 0.930 . S
C302 C298 1.524 . S
C302 H314 0.956 . S
C302 H315 0.961 . S
C302 H316 0.961 . S
C303 C300 1.539 . S
C303 H317 0.958 . S
C303 H318 0.961 . S
C303 H319 0.960 . S
H304 C288 0.931 . S
H305 C293 0.929 . S
H306 C294 0.960 . S
H307 C294 0.962 . S
H308 C294 0.960 . S
H309 C295 0.961 . S
H310 C295 0.961 . S
H311 C295 0.961 . S
H312 C296 0.931 . S
H313 C301 0.930 . S
H314 C302 0.956 . S
H315 C302 0.961 . S
H316 C302 0.961 . S
H317 C303 0.958 . S
H318 C303 0.961 . S
H319 C303 0.960 . S
C320 C321 1.391 . S
C320 C322 1.394 . S
C320 H336 0.931 . S
C321 C320 1.391 . S
C321 C325 1.376 . S
C322 C320 1.394 . S
C322 C323 1.369 . S
C322 C326 1.531 . S
C323 C322 1.369 . S
C323 C324 1.410 . S
C323 C331 1.503 . S
C324 C323 1.410 . S
C324 C325 1.392 . S
C324 C327 1.511 . S
C325 C321 1.376 . S
C325 C324 1.392 . S
C325 H337 0.929 . S
C326 C322 1.531 . S
C326 H338 0.960 . S
C326 H339 0.962 . S
C326 H340 0.953 1_556 S
C327 C324 1.511 . S
C327 H341 0.961 . S
C327 H342 0.961 . S
C327 H343 0.961 . S
C328 C329 1.370 . S
C328 C330 1.363 . S
C328 H344 0.931 . S
C329 C328 1.370 . S
C329 C333 1.408 . S
C330 C328 1.363 . S
C330 C331 1.370 . S
C330 C334 1.524 . S
C331 C323 1.503 . S
C331 C330 1.370 . S
C331 C332 1.403 . S
C332 C331 1.403 . S
C332 C333 1.404 . S
C332 C335 1.539 1_556 S
C333 C329 1.408 . S
C333 C332 1.404 . S
C333 H345 0.930 . S
C334 C330 1.524 . S
C334 H346 0.956 . S
C334 H347 0.961 . S
C334 H348 0.961 . S
C335 C332 1.539 1_554 S
C335 H349 0.958 . S
C335 H350 0.961 . S
C335 H351 0.960 . S
H336 C320 0.931 . S
H337 C325 0.929 . S
H338 C326 0.960 . S
H339 C326 0.962 . S
H340 C326 0.953 1_554 S
H341 C327 0.961 . S
H342 C327 0.961 . S
H343 C327 0.961 . S
H344 C328 0.931 . S
H345 C333 0.930 . S
H346 C334 0.956 . S
H347 C334 0.961 . S
H348 C334 0.961 . S
H349 C335 0.958 . S
H350 C335 0.961 . S
H351 C335 0.960 . S
C352 C353 1.391 . S
C352 C354 1.394 . S
C352 H368 0.931 . S
C353 C352 1.391 . S
C353 C357 1.376 . S
C354 C352 1.394 . S
C354 C355 1.369 . S
C354 C358 1.531 . S
C355 C354 1.369 . S
C355 C356 1.410 . S
C355 C363 1.503 . S
C356 C355 1.410 . S
C356 C357 1.392 . S
C356 C359 1.511 . S
C357 C353 1.376 . S
C357 C356 1.392 . S
C357 H369 0.929 . S
C358 C354 1.531 . S
C358 H370 0.960 . S
C358 H371 0.962 . S
C358 H372 0.960 . S
C359 C356 1.511 . S
C359 H373 0.961 . S
C359 H374 0.961 . S
C359 H375 0.961 . S
C360 C361 1.370 . S
C360 C362 1.363 . S
C360 H376 0.931 . S
C361 C360 1.370 . S
C361 C365 1.408 . S
C362 C360 1.363 . S
C362 C363 1.370 . S
C362 C366 1.524 . S
C363 C355 1.503 . S
C363 C362 1.370 . S
C363 C364 1.403 . S
C364 C363 1.403 . S
C364 C365 1.404 . S
C364 C367 1.539 . S
C365 C361 1.408 . S
C365 C364 1.404 . S
C365 H377 0.930 . S
C366 C362 1.524 . S
C366 H378 0.956 . S
C366 H379 0.961 . S
C366 H380 0.961 . S
C367 C364 1.539 . S
C367 H381 0.958 . S
C367 H382 0.961 . S
C367 H383 0.960 . S
H368 C352 0.931 . S
H369 C357 0.929 . S
H370 C358 0.960 . S
H371 C358 0.962 . S
H372 C358 0.960 . S
H373 C359 0.961 . S
H374 C359 0.961 . S
H375 C359 0.961 . S
H376 C360 0.931 . S
H377 C365 0.930 . S
H378 C366 0.956 . S
H379 C366 0.961 . S
H380 C366 0.961 . S
H381 C367 0.958 . S
H382 C367 0.961 . S
H383 C367 0.960 . S
C384 C385 1.391 . S
C384 C386 1.394 . S
C384 H400 0.931 . S
C385 C384 1.391 . S
C385 C389 1.376 . S
C386 C384 1.394 . S
C386 C387 1.369 . S
C386 C390 1.531 . S
C387 C386 1.369 . S
C387 C388 1.410 . S
C387 C395 1.503 . S
C388 C387 1.410 . S
C388 C389 1.392 . S
C388 C391 1.511 . S
C389 C385 1.376 . S
C389 C388 1.392 . S
C389 H401 0.929 . S
C390 C386 1.531 . S
C390 H402 0.960 . S
C390 H403 0.962 . S
C390 H404 0.960 . S
C391 C388 1.511 . S
C391 H405 0.961 . S
C391 H406 0.961 . S
C391 H407 0.961 . S
C392 C393 1.370 . S
C392 C394 1.363 . S
C392 H408 0.931 . S
C393 C392 1.370 . S
C393 C397 1.408 . S
C394 C392 1.363 . S
C394 C395 1.370 . S
C394 C398 1.524 . S
C395 C387 1.503 . S
C395 C394 1.370 . S
C395 C396 1.403 . S
C396 C395 1.403 . S
C396 C397 1.404 . S
C396 C399 1.539 . S
C397 C393 1.408 . S
C397 C396 1.404 . S
C397 H409 0.930 . S
C398 C394 1.524 . S
C398 H410 0.956 . S
C398 H411 0.961 . S
C398 H412 0.961 . S
C399 C396 1.539 . S
C399 H413 0.958 . S
C399 H414 0.961 . S
C399 H415 0.960 . S
H400 C384 0.931 . S
H401 C389 0.929 . S
H402 C390 0.960 . S
H403 C390 0.962 . S
H404 C390 0.960 . S
H405 C391 0.961 . S
H406 C391 0.961 . S
H407 C391 0.961 . S
H408 C392 0.931 . S
H409 C397 0.930 . S
H410 C398 0.956 . S
H411 C398 0.961 . S
H412 C398 0.961 . S
H413 C399 0.958 . S
H414 C399 0.961 . S
H415 C399 0.960 . S
C416 C417 1.391 . S
C416 C418 1.394 . S
C416 H432 0.931 . S
C417 C416 1.391 . S
C417 C421 1.376 . S
C418 C416 1.394 . S
C418 C419 1.369 . S
C418 C422 1.531 . S
C419 C418 1.369 . S
C419 C420 1.410 . S
C419 C427 1.503 . S
C420 C419 1.410 . S
C420 C421 1.392 . S
C420 C423 1.511 . S
C421 C417 1.376 . S
C421 C420 1.392 . S
C421 H433 0.929 . S
C422 C418 1.531 . S
C422 H434 0.960 . S
C422 H435 0.962 . S
C422 H436 0.960 . S
C423 C420 1.511 . S
C423 H437 0.961 . S
C423 H438 0.961 . S
C423 H439 0.961 . S
C424 C425 1.370 . S
C424 C426 1.363 . S
C424 H440 0.931 . S
C425 C424 1.370 . S
C425 C429 1.408 . S
C426 C424 1.363 . S
C426 C427 1.370 . S
C426 C430 1.524 . S
C427 C419 1.503 . S
C427 C426 1.370 . S
C427 C428 1.403 . S
C428 C427 1.403 . S
C428 C429 1.404 . S
C428 C431 1.539 . S
C429 C425 1.408 . S
C429 C428 1.404 . S
C429 H441 0.930 . S
C430 C426 1.524 . S
C430 H442 0.956 . S
C430 H443 0.961 . S
C430 H444 0.961 . S
C431 C428 1.539 . S
C431 H445 0.958 . S
C431 H446 0.961 . S
C431 H447 0.960 . S
H432 C416 0.931 . S
H433 C421 0.929 . S
H434 C422 0.960 . S
H435 C422 0.962 . S
H436 C422 0.960 . S
H437 C423 0.961 . S
H438 C423 0.961 . S
H439 C423 0.961 . S
H440 C424 0.931 . S
H441 C429 0.930 . S
H442 C430 0.956 . S
H443 C430 0.961 . S
H444 C430 0.961 . S
H445 C431 0.958 . S
H446 C431 0.961 . S
H447 C431 0.960 . S
C448 C449 1.391 . S
C448 C450 1.394 . S
C448 H464 0.931 . S
C449 C448 1.391 . S
C449 C453 1.376 . S
C450 C448 1.394 . S
C450 C451 1.369 . S
C450 C454 1.531 . S
C451 C450 1.369 . S
C451 C452 1.410 . S
C451 C459 1.503 . S
C452 C451 1.410 . S
C452 C453 1.392 . S
C452 C455 1.511 . S
C453 C449 1.376 . S
C453 C452 1.392 . S
C453 H465 0.929 . S
C454 C450 1.531 . S
C454 H466 0.960 . S
C454 H467 0.962 . S
C454 H468 0.960 . S
C455 C452 1.511 . S
C455 H469 0.961 . S
C455 H470 0.961 . S
C455 H471 0.961 . S
C456 C457 1.370 . S
C456 C458 1.363 . S
C456 H472 0.931 . S
C457 C456 1.370 . S
C457 C461 1.408 . S
C458 C456 1.363 . S
C458 C459 1.370 . S
C458 C462 1.524 . S
C459 C451 1.503 . S
C459 C458 1.370 . S
C459 C460 1.403 . S
C460 C459 1.403 . S
C460 C461 1.404 . S
C460 C463 1.539 . S
C461 C457 1.408 . S
C461 C460 1.404 . S
C461 H473 0.930 . S
C462 C458 1.524 . S
C462 H474 0.956 . S
C462 H475 0.961 . S
C462 H476 0.961 . S
C463 C460 1.539 . S
C463 H477 0.958 . S
C463 H478 0.961 . S
C463 H479 0.960 . S
H464 C448 0.931 . S
H465 C453 0.929 . S
H466 C454 0.960 . S
H467 C454 0.962 . S
H468 C454 0.960 . S
H469 C455 0.961 . S
H470 C455 0.961 . S
H471 C455 0.961 . S
H472 C456 0.931 . S
H473 C461 0.930 . S
H474 C462 0.956 . S
H475 C462 0.961 . S
H476 C462 0.961 . S
H477 C463 0.958 . S
H478 C463 0.961 . S
H479 C463 0.960 . S
C480 C481 1.378 1_556 S
C480 C482 1.390 1_556 S
C480 H496 0.948 . S
C481 C480 1.378 1_554 S
C481 C485 1.376 . S
C482 C480 1.390 1_554 S
C482 C483 1.369 . S
C482 C486 1.531 1_554 S
C483 C482 1.369 . S
C483 C484 1.410 . S
C483 C491 1.503 . S
C484 C483 1.410 . S
C484 C485 1.392 . S
C484 C487 1.511 . S
C485 C481 1.376 . S
C485 C484 1.392 . S
C485 H497 0.929 . S
C486 C482 1.531 1_556 S
C486 H498 0.960 . S
C486 H499 0.962 1_556 S
C486 H500 0.960 . S
C487 C484 1.511 . S
C487 H501 0.961 . S
C487 H502 0.961 . S
C487 H503 0.961 . S
C488 C489 1.370 . S
C488 C490 1.363 . S
C488 H504 0.931 . S
C489 C488 1.370 . S
C489 C493 1.408 . S
C490 C488 1.363 . S
C490 C491 1.370 . S
C490 C494 1.524 . S
C491 C483 1.503 . S
C491 C490 1.370 . S
C491 C492 1.403 . S
C492 C491 1.403 . S
C492 C493 1.404 . S
C492 C495 1.539 1_554 S
C493 C489 1.408 . S
C493 C492 1.404 . S
C493 H505 0.930 . S
C494 C490 1.524 . S
C494 H506 0.956 . S
C494 H507 0.961 . S
C494 H508 0.961 . S
C495 C492 1.539 1_556 S
C495 H509 0.958 . S
C495 H510 0.961 . S
C495 H511 0.960 . S
H496 C480 0.948 . S
H497 C485 0.929 . S
H498 C486 0.960 . S
H499 C486 0.962 1_554 S
H500 C486 0.960 . S
H501 C487 0.961 . S
H502 C487 0.961 . S
H503 C487 0.961 . S
H504 C488 0.931 . S
H505 C493 0.930 . S
H506 C494 0.956 . S
H507 C494 0.961 . S
H508 C494 0.961 . S
H509 C495 0.958 . S
H510 C495 0.961 . S
H511 C495 0.960 . S
C512 C513 1.391 . S
C512 C514 1.394 . S
C512 H528 0.931 . S
C513 C512 1.391 . S
C513 C517 1.376 . S
C514 C512 1.394 . S
C514 C515 1.369 . S
C514 C518 1.531 . S
C515 C514 1.369 . S
C515 C516 1.410 . S
C515 C523 1.503 . S
C516 C515 1.410 . S
C516 C517 1.392 . S
C516 C519 1.511 . S
C517 C513 1.376 . S
C517 C516 1.392 . S
C517 H529 0.929 . S
C518 C514 1.531 . S
C518 H530 0.960 . S
C518 H531 0.962 . S
C518 H532 0.960 . S
C519 C516 1.511 . S
C519 H533 0.961 . S
C519 H534 0.961 . S
C519 H535 0.961 . S
C520 C521 1.370 . S
C520 C522 1.363 . S
C520 H536 0.931 . S
C521 C520 1.370 . S
C521 C525 1.408 . S
C522 C520 1.363 . S
C522 C523 1.370 . S
C522 C526 1.524 . S
C523 C515 1.503 . S
C523 C522 1.370 . S
C523 C524 1.403 . S
C524 C523 1.403 . S
C524 C525 1.404 . S
C524 C527 1.539 . S
C525 C521 1.408 . S
C525 C524 1.404 . S
C525 H537 0.930 . S
C526 C522 1.524 . S
C526 H538 0.956 . S
C526 H539 0.961 . S
C526 H540 0.961 . S
C527 C524 1.539 . S
C527 H541 0.958 . S
C527 H542 0.961 . S
C527 H543 0.960 . S
H528 C512 0.931 . S
H529 C517 0.929 . S
H530 C518 0.960 . S
H531 C518 0.962 . S
H532 C518 0.960 . S
H533 C519 0.961 . S
H534 C519 0.961 . S
H535 C519 0.961 . S
H536 C520 0.931 . S
H537 C525 0.930 . S
H538 C526 0.956 . S
H539 C526 0.961 . S
H540 C526 0.961 . S
H541 C527 0.958 . S
H542 C527 0.961 . S
H543 C527 0.960 . S
C544 C545 1.391 . S
C544 C546 1.394 . S
C544 H560 0.931 . S
C545 C544 1.391 . S
C545 C549 1.376 . S
C546 C544 1.394 . S
C546 C547 1.369 . S
C546 C550 1.531 . S
C547 C546 1.369 . S
C547 C548 1.410 . S
C547 C555 1.503 . S
C548 C547 1.410 . S
C548 C549 1.392 . S
C548 C551 1.511 . S
C549 C545 1.376 . S
C549 C548 1.392 . S
C549 H561 0.929 . S
C550 C546 1.531 . S
C550 H562 0.960 . S
C550 H563 0.962 . S
C550 H564 0.960 . S
C551 C548 1.511 . S
C551 H565 0.961 . S
C551 H566 0.961 . S
C551 H567 0.961 . S
C552 C553 1.370 . S
C552 C554 1.363 . S
C552 H568 0.931 . S
C553 C552 1.370 . S
C553 C557 1.408 . S
C554 C552 1.363 . S
C554 C555 1.370 . S
C554 C558 1.524 . S
C555 C547 1.503 . S
C555 C554 1.370 . S
C555 C556 1.403 . S
C556 C555 1.403 . S
C556 C557 1.404 . S
C556 C559 1.539 . S
C557 C553 1.408 . S
C557 C556 1.404 . S
C557 H569 0.930 . S
C558 C554 1.524 . S
C558 H570 0.956 . S
C558 H571 0.961 . S
C558 H572 0.961 . S
C559 C556 1.539 . S
C559 H573 0.958 . S
C559 H574 0.961 . S
C559 H575 0.960 . S
H560 C544 0.931 . S
H561 C549 0.929 . S
H562 C550 0.960 . S
H563 C550 0.962 . S
H564 C550 0.960 . S
H565 C551 0.961 . S
H566 C551 0.961 . S
H567 C551 0.961 . S
H568 C552 0.931 . S
H569 C557 0.930 . S
H570 C558 0.956 . S
H571 C558 0.961 . S
H572 C558 0.961 . S
H573 C559 0.958 . S
H574 C559 0.961 . S
H575 C559 0.960 . S
C576 C577 1.391 . S
C576 C578 1.394 . S
C576 H592 0.931 . S
C577 C576 1.391 . S
C577 C581 1.376 . S
C578 C576 1.394 . S
C578 C579 1.369 . S
C578 C582 1.531 . S
C579 C578 1.369 . S
C579 C580 1.410 . S
C579 C587 1.503 . S
C580 C579 1.410 . S
C580 C581 1.392 . S
C580 C583 1.511 . S
C581 C577 1.376 . S
C581 C580 1.392 . S
C581 H593 0.929 . S
C582 C578 1.531 . S
C582 H594 0.960 . S
C582 H595 0.962 . S
C582 H596 0.960 . S
C583 C580 1.511 . S
C583 H597 0.961 . S
C583 H598 0.961 . S
C583 H599 0.961 . S
C584 C585 1.370 . S
C584 C586 1.363 . S
C584 H600 0.931 . S
C585 C584 1.370 . S
C585 C589 1.408 . S
C586 C584 1.363 . S
C586 C587 1.370 . S
C586 C590 1.524 . S
C587 C579 1.503 . S
C587 C586 1.370 . S
C587 C588 1.403 . S
C588 C587 1.403 . S
C588 C589 1.404 . S
C588 C591 1.539 . S
C589 C585 1.408 . S
C589 C588 1.404 . S
C589 H601 0.930 . S
C590 C586 1.524 . S
C590 H602 0.956 . S
C590 H603 0.961 . S
C590 H604 0.961 . S
C591 C588 1.539 . S
C591 H605 0.958 . S
C591 H606 0.961 . S
C591 H607 0.960 . S
H592 C576 0.931 . S
H593 C581 0.929 . S
H594 C582 0.960 . S
H595 C582 0.962 . S
H596 C582 0.960 . S
H597 C583 0.961 . S
H598 C583 0.961 . S
H599 C583 0.961 . S
H600 C584 0.931 . S
H601 C589 0.930 . S
H602 C590 0.956 . S
H603 C590 0.961 . S
H604 C590 0.961 . S
H605 C591 0.958 . S
H606 C591 0.961 . S
H607 C591 0.960 . S
C608 C609 1.391 . S
C608 C610 1.394 . S
C608 H624 0.931 . S
C609 C608 1.391 . S
C609 C613 1.376 . S
C610 C608 1.394 . S
C610 C611 1.369 . S
C610 C614 1.531 . S
C611 C610 1.369 . S
C611 C612 1.410 . S
C611 C619 1.503 . S
C612 C611 1.410 . S
C612 C613 1.392 . S
C612 C615 1.511 . S
C613 C609 1.376 . S
C613 C612 1.392 . S
C613 H625 0.929 . S
C614 C610 1.531 . S
C614 H626 0.960 . S
C614 H627 0.962 . S
C614 H628 0.960 . S
C615 C612 1.511 . S
C615 H629 0.961 . S
C615 H630 0.961 . S
C615 H631 0.961 . S
C616 C617 1.370 . S
C616 C618 1.363 . S
C616 H632 0.931 . S
C617 C616 1.370 . S
C617 C621 1.408 . S
C618 C616 1.363 . S
C618 C619 1.370 . S
C618 C622 1.524 . S
C619 C611 1.503 . S
C619 C618 1.370 . S
C619 C620 1.403 . S
C620 C619 1.403 . S
C620 C621 1.404 . S
C620 C623 1.539 . S
C621 C617 1.408 . S
C621 C620 1.404 . S
C621 H633 0.930 . S
C622 C618 1.524 . S
C622 H634 0.956 . S
C622 H635 0.961 . S
C622 H636 0.961 . S
C623 C620 1.539 . S
C623 H637 0.958 . S
C623 H638 0.961 . S
C623 H639 0.960 . S
H624 C608 0.931 . S
H625 C613 0.929 . S
H626 C614 0.960 . S
H627 C614 0.962 . S
H628 C614 0.960 . S
H629 C615 0.961 . S
H630 C615 0.961 . S
H631 C615 0.961 . S
H632 C616 0.931 . S
H633 C621 0.930 . S
H634 C622 0.956 . S
H635 C622 0.961 . S
H636 C622 0.961 . S
H637 C623 0.958 . S
H638 C623 0.961 . S
H639 C623 0.960 . S
C640 C641 1.391 . S
C640 C642 1.394 . S
C640 H656 0.931 . S
C641 C640 1.391 . S
C641 C645 1.376 . S
C642 C640 1.394 . S
C642 C643 1.369 . S
C642 C646 1.531 . S
C643 C642 1.369 . S
C643 C644 1.410 . S
C643 C651 1.503 . S
C644 C643 1.410 . S
C644 C645 1.392 . S
C644 C647 1.511 . S
C645 C641 1.376 . S
C645 C644 1.392 . S
C645 H657 0.929 . S
C646 C642 1.531 . S
C646 H658 0.960 . S
C646 H659 0.962 . S
C646 H660 0.960 . S
C647 C644 1.511 . S
C647 H661 0.961 . S
C647 H662 0.961 . S
C647 H663 0.961 . S
C648 C649 1.370 . S
C648 C650 1.363 . S
C648 H664 0.931 . S
C649 C648 1.370 . S
C649 C653 1.408 . S
C650 C648 1.363 . S
C650 C651 1.370 . S
C650 C654 1.524 . S
C651 C643 1.503 . S
C651 C650 1.370 . S
C651 C652 1.403 . S
C652 C651 1.403 . S
C652 C653 1.404 . S
C652 C655 1.539 . S
C653 C649 1.408 . S
C653 C652 1.404 . S
C653 H665 0.930 . S
C654 C650 1.524 . S
C654 H666 0.956 . S
C654 H667 0.961 . S
C654 H668 0.961 . S
C655 C652 1.539 . S
C655 H669 0.958 . S
C655 H670 0.961 . S
C655 H671 0.960 . S
H656 C640 0.931 . S
H657 C645 0.929 . S
H658 C646 0.960 . S
H659 C646 0.962 . S
H660 C646 0.960 . S
H661 C647 0.961 . S
H662 C647 0.961 . S
H663 C647 0.961 . S
H664 C648 0.931 . S
H665 C653 0.930 . S
H666 C654 0.956 . S
H667 C654 0.961 . S
H668 C654 0.961 . S
H669 C655 0.958 . S
H670 C655 0.961 . S
H671 C655 0.960 . S
C672 C673 1.391 . S
C672 C674 1.394 . S
C672 H688 0.931 . S
C673 C672 1.391 . S
C673 C677 1.376 . S
C674 C672 1.394 . S
C674 C675 1.369 . S
C674 C678 1.531 . S
C675 C674 1.369 . S
C675 C676 1.410 . S
C675 C683 1.503 . S
C676 C675 1.410 . S
C676 C677 1.392 . S
C676 C679 1.511 . S
C677 C673 1.376 . S
C677 C676 1.392 . S
C677 H689 0.929 . S
C678 C674 1.531 . S
C678 H690 0.960 . S
C678 H691 0.962 . S
C678 H692 0.960 . S
C679 C676 1.511 . S
C679 H693 0.961 . S
C679 H694 0.961 . S
C679 H695 0.961 . S
C680 C681 1.370 . S
C680 C682 1.363 1_554 S
C680 H696 0.931 . S
C681 C680 1.370 . S
C681 C685 1.408 1_554 S
C682 C680 1.363 1_556 S
C682 C683 1.370 . S
C682 C686 1.524 . S
C683 C675 1.503 . S
C683 C682 1.370 . S
C683 C684 1.403 . S
C684 C683 1.403 . S
C684 C685 1.404 . S
C684 C687 1.539 . S
C685 C681 1.408 1_556 S
C685 C684 1.404 . S
C685 H697 0.930 . S
C686 C682 1.524 . S
C686 H698 0.956 . S
C686 H699 0.961 . S
C686 H700 0.961 1_556 S
C687 C684 1.539 . S
C687 H701 0.958 . S
C687 H702 0.961 . S
C687 H703 0.960 . S
H688 C672 0.931 . S
H689 C677 0.929 . S
H690 C678 0.960 . S
H691 C678 0.962 . S
H692 C678 0.960 . S
H693 C679 0.961 . S
H694 C679 0.961 . S
H695 C679 0.961 . S
H696 C680 0.931 . S
H697 C685 0.930 . S
H698 C686 0.956 . S
H699 C686 0.961 . S
H700 C686 0.961 1_554 S
H701 C687 0.958 . S
H702 C687 0.961 . S
H703 C687 0.960 . S
C704 C705 1.391 . S
C704 C706 1.394 . S
C704 H720 0.931 . S
C705 C704 1.391 . S
C705 C709 1.376 . S
C706 C704 1.394 . S
C706 C707 1.369 . S
C706 C710 1.531 . S
C707 C706 1.369 . S
C707 C708 1.410 . S
C707 C715 1.503 . S
C708 C707 1.410 . S
C708 C709 1.392 . S
C708 C711 1.511 . S
C709 C705 1.376 . S
C709 C708 1.392 . S
C709 H721 0.929 . S
C710 C706 1.531 . S
C710 H722 0.960 . S
C710 H723 0.962 . S
C710 H724 0.960 . S
C711 C708 1.511 . S
C711 H725 0.961 . S
C711 H726 0.961 . S
C711 H727 0.961 . S
C712 C713 1.370 . S
C712 C714 1.363 . S
C712 H728 0.931 . S
C713 C712 1.370 . S
C713 C717 1.408 . S
C714 C712 1.363 . S
C714 C715 1.370 . S
C714 C718 1.524 . S
C715 C707 1.503 . S
C715 C714 1.370 . S
C715 C716 1.403 . S
C716 C715 1.403 . S
C716 C717 1.404 . S
C716 C719 1.539 . S
C717 C713 1.408 . S
C717 C716 1.404 . S
C717 H729 0.930 . S
C718 C714 1.524 . S
C718 H730 0.956 . S
C718 H731 0.961 . S
C718 H732 0.961 . S
C719 C716 1.539 . S
C719 H733 0.958 . S
C719 H734 0.961 . S
C719 H735 0.960 . S
H720 C704 0.931 . S
H721 C709 0.929 . S
H722 C710 0.960 . S
H723 C710 0.962 . S
H724 C710 0.960 . S
H725 C711 0.961 . S
H726 C711 0.961 . S
H727 C711 0.961 . S
H728 C712 0.931 . S
H729 C717 0.930 . S
H730 C718 0.956 . S
H731 C718 0.961 . S
H732 C718 0.961 . S
H733 C719 0.958 . S
H734 C719 0.961 . S
H735 C719 0.960 . S
C736 C737 1.391 . S
C736 C738 1.394 . S
C736 H752 0.931 . S
C737 C736 1.391 . S
C737 C741 1.376 . S
C738 C736 1.394 . S
C738 C739 1.369 . S
C738 C742 1.531 . S
C739 C738 1.369 . S
C739 C740 1.410 . S
C739 C747 1.503 . S
C740 C739 1.410 . S
C740 C741 1.392 . S
C740 C743 1.511 . S
C741 C737 1.376 . S
C741 C740 1.392 . S
C741 H753 0.929 . S
C742 C738 1.531 . S
C742 H754 0.960 . S
C742 H755 0.962 . S
C742 H756 0.960 . S
C743 C740 1.511 . S
C743 H757 0.961 . S
C743 H758 0.961 . S
C743 H759 0.961 . S
C744 C745 1.370 . S
C744 C746 1.363 . S
C744 H760 0.931 . S
C745 C744 1.370 . S
C745 C749 1.408 . S
C746 C744 1.363 . S
C746 C747 1.370 . S
C746 C750 1.524 . S
C747 C739 1.503 . S
C747 C746 1.370 . S
C747 C748 1.403 . S
C748 C747 1.403 . S
C748 C749 1.404 . S
C748 C751 1.539 . S
C749 C745 1.408 . S
C749 C748 1.404 . S
C749 H761 0.930 . S
C750 C746 1.524 . S
C750 H762 0.956 . S
C750 H763 0.961 . S
C750 H764 0.961 . S
C751 C748 1.539 . S
C751 H765 0.958 . S
C751 H766 0.961 . S
C751 H767 0.960 . S
H752 C736 0.931 . S
H753 C741 0.929 . S
H754 C742 0.960 . S
H755 C742 0.962 . S
H756 C742 0.960 . S
H757 C743 0.961 . S
H758 C743 0.961 . S
H759 C743 0.961 . S
H760 C744 0.931 . S
H761 C749 0.930 . S
H762 C750 0.956 . S
H763 C750 0.961 . S
H764 C750 0.961 . S
H765 C751 0.958 . S
H766 C751 0.961 . S
H767 C751 0.960 . S
C768 C769 1.391 . S
C768 C770 1.394 . S
C768 H784 0.931 . S
C769 C768 1.391 . S
C769 C773 1.376 . S
C770 C768 1.394 . S
C770 C771 1.369 . S
C770 C774 1.531 . S
C771 C770 1.369 . S
C771 C772 1.410 . S
C771 C779 1.503 . S
C772 C771 1.410 . S
C772 C773 1.392 . S
C772 C775 1.511 . S
C773 C769 1.376 . S
C773 C772 1.392 . S
C773 H785 0.929 . S
C774 C770 1.531 . S
C774 H786 0.960 . S
C774 H787 0.962 . S
C774 H788 0.960 . S
C775 C772 1.511 . S
C775 H789 0.961 . S
C775 H790 0.961 . S
C775 H791 0.961 . S
C776 C777 1.370 . S
C776 C778 1.363 . S
C776 H792 0.931 . S
C777 C776 1.370 . S
C777 C781 1.408 . S
C778 C776 1.363 . S
C778 C779 1.370 . S
C778 C782 1.524 . S
C779 C771 1.503 . S
C779 C778 1.370 . S
C779 C780 1.403 . S
C780 C779 1.403 . S
C780 C781 1.404 . S
C780 C783 1.539 . S
C781 C777 1.408 . S
C781 C780 1.404 . S
C781 H793 0.930 . S
C782 C778 1.524 . S
C782 H794 0.956 . S
C782 H795 0.961 . S
C782 H796 0.961 . S
C783 C780 1.539 . S
C783 H797 0.958 . S
C783 H798 0.961 . S
C783 H799 0.960 . S
H784 C768 0.931 . S
H785 C773 0.929 . S
H786 C774 0.960 . S
H787 C774 0.962 . S
H788 C774 0.960 . S
H789 C775 0.961 . S
H790 C775 0.961 . S
H791 C775 0.961 . S
H792 C776 0.931 . S
H793 C781 0.930 . S
H794 C782 0.956 . S
H795 C782 0.961 . S
H796 C782 0.961 . S
H797 C783 0.958 . S
H798 C783 0.961 . S
H799 C783 0.960 . S
C800 C801 1.391 . S
C800 C802 1.394 . S
C800 H816 0.931 . S
C801 C800 1.391 . S
C801 C805 1.376 . S
C802 C800 1.394 . S
C802 C803 1.369 . S
C802 C806 1.531 . S
C803 C802 1.369 . S
C803 C804 1.410 . S
C803 C811 1.503 . S
C804 C803 1.410 . S
C804 C805 1.392 . S
C804 C807 1.511 . S
C805 C801 1.376 . S
C805 C804 1.392 . S
C805 H817 0.929 . S
C806 C802 1.531 . S
C806 H818 0.960 . S
C806 H819 0.962 . S
C806 H820 0.960 . S
C807 C804 1.511 . S
C807 H821 0.961 . S
C807 H822 0.961 . S
C807 H823 0.961 . S
C808 C809 1.370 . S
C808 C810 1.363 . S
C808 H824 0.931 . S
C809 C808 1.370 . S
C809 C813 1.408 . S
C810 C808 1.363 . S
C810 C811 1.370 . S
C810 C814 1.524 . S
C811 C803 1.503 . S
C811 C810 1.370 . S
C811 C812 1.403 . S
C812 C811 1.403 . S
C812 C813 1.404 . S
C812 C815 1.539 . S
C813 C809 1.408 . S
C813 C812 1.404 . S
C813 H825 0.930 . S
C814 C810 1.524 . S
C814 H826 0.956 . S
C814 H827 0.961 . S
C814 H828 0.961 . S
C815 C812 1.539 . S
C815 H829 0.958 . S
C815 H830 0.961 . S
C815 H831 0.960 . S
H816 C800 0.931 . S
H817 C805 0.929 . S
H818 C806 0.960 . S
H819 C806 0.962 . S
H820 C806 0.960 . S
H821 C807 0.961 . S
H822 C807 0.961 . S
H823 C807 0.961 . S
H824 C808 0.931 . S
H825 C813 0.930 . S
H826 C814 0.956 . S
H827 C814 0.961 . S
H828 C814 0.961 . S
H829 C815 0.958 . S
H830 C815 0.961 . S
H831 C815 0.960 . S
C832 C833 1.391 . S
C832 C834 1.394 . S
C832 H848 0.931 . S
C833 C832 1.391 . S
C833 C837 1.376 . S
C834 C832 1.394 . S
C834 C835 1.369 . S
C834 C838 1.531 . S
C835 C834 1.369 . S
C835 C836 1.410 . S
C835 C843 1.503 . S
C836 C835 1.410 . S
C836 C837 1.392 . S
C836 C839 1.511 . S
C837 C833 1.376 . S
C837 C836 1.392 . S
C837 H849 0.929 . S
C838 C834 1.531 . S
C838 H850 0.960 . S
C838 H851 0.962 . S
C838 H852 0.960 . S
C839 C836 1.511 . S
C839 H853 0.961 . S
C839 H854 0.961 . S
C839 H855 0.961 . S
C840 C841 1.370 . S
C840 C842 1.363 . S
C840 H856 0.931 . S
C841 C840 1.370 . S
C841 C845 1.408 . S
C842 C840 1.363 . S
C842 C843 1.370 . S
C842 C846 1.524 . S
C843 C835 1.503 . S
C843 C842 1.370 . S
C843 C844 1.403 . S
C844 C843 1.403 . S
C844 C845 1.404 . S
C844 C847 1.539 . S
C845 C841 1.408 . S
C845 C844 1.404 . S
C845 H857 0.930 . S
C846 C842 1.524 . S
C846 H858 0.956 . S
C846 H859 0.961 . S
C846 H860 0.961 . S
C847 C844 1.539 . S
C847 H861 0.958 . S
C847 H862 0.961 . S
C847 H863 0.960 . S
H848 C832 0.931 . S
H849 C837 0.929 . S
H850 C838 0.960 . S
H851 C838 0.962 . S
H852 C838 0.960 . S
H853 C839 0.961 . S
H854 C839 0.961 . S
H855 C839 0.961 . S
H856 C840 0.931 . S
H857 C845 0.930 . S
H858 C846 0.956 . S
H859 C846 0.961 . S
H860 C846 0.961 . S
H861 C847 0.958 . S
H862 C847 0.961 . S
H863 C847 0.960 . S
C864 C865 1.391 . S
C864 C866 1.394 . S
C864 H880 0.931 . S
C865 C864 1.391 . S
C865 C869 1.376 . S
C866 C864 1.394 . S
C866 C867 1.369 . S
C866 C870 1.531 . S
C867 C866 1.369 . S
C867 C868 1.410 . S
C867 C875 1.503 . S
C868 C867 1.410 . S
C868 C869 1.392 . S
C868 C871 1.511 . S
C869 C865 1.376 . S
C869 C868 1.392 . S
C869 H881 0.929 . S
C870 C866 1.531 . S
C870 H882 0.960 . S
C870 H883 0.962 . S
C870 H884 0.960 . S
C871 C868 1.511 . S
C871 H885 0.961 . S
C871 H886 0.961 . S
C871 H887 0.961 . S
C872 C873 1.370 . S
C872 C874 1.363 . S
C872 H888 0.931 . S
C873 C872 1.370 . S
C873 C877 1.408 . S
C874 C872 1.363 . S
C874 C875 1.370 . S
C874 C878 1.524 . S
C875 C867 1.503 . S
C875 C874 1.370 . S
C875 C876 1.403 . S
C876 C875 1.403 . S
C876 C877 1.404 . S
C876 C879 1.539 . S
C877 C873 1.408 . S
C877 C876 1.404 . S
C877 H889 0.930 . S
C878 C874 1.524 . S
C878 H890 0.956 . S
C878 H891 0.961 . S
C878 H892 0.961 . S
C879 C876 1.539 . S
C879 H893 0.958 . S
C879 H894 0.961 . S
C879 H895 0.960 . S
H880 C864 0.931 . S
H881 C869 0.929 . S
H882 C870 0.960 . S
H883 C870 0.962 . S
H884 C870 0.960 . S
H885 C871 0.961 . S
H886 C871 0.961 . S
H887 C871 0.961 . S
H888 C872 0.931 . S
H889 C877 0.930 . S
H890 C878 0.956 . S
H891 C878 0.961 . S
H892 C878 0.961 . S
H893 C879 0.958 . S
H894 C879 0.961 . S
H895 C879 0.960 . S
C896 C897 1.391 . S
C896 C898 1.394 . S
C896 H912 0.931 . S
C897 C896 1.391 . S
C897 C901 1.376 . S
C898 C896 1.394 . S
C898 C899 1.369 . S
C898 C902 1.531 1_554 S
C899 C898 1.369 . S
C899 C900 1.410 . S
C899 C907 1.503 . S
C900 C899 1.410 . S
C900 C901 1.392 . S
C900 C903 1.511 . S
C901 C897 1.376 . S
C901 C900 1.392 . S
C901 H913 0.929 . S
C902 C898 1.531 1_556 S
C902 H914 0.960 . S
C902 H915 0.962 . S
C902 H916 0.960 . S
C903 C900 1.511 . S
C903 H917 0.961 . S
C903 H918 0.961 . S
C903 H919 0.961 . S
C904 C905 1.370 . S
C904 C906 1.363 1_556 S
C904 H920 0.931 . S
C905 C904 1.370 . S
C905 C909 1.408 . S
C906 C904 1.363 1_554 S
C906 C907 1.370 . S
C906 C910 1.524 . S
C907 C899 1.503 . S
C907 C906 1.370 . S
C907 C908 1.403 1_554 S
C908 C907 1.403 1_556 S
C908 C909 1.404 . S
C908 C911 1.539 1_556 S
C909 C905 1.408 . S
C909 C908 1.404 . S
C909 H921 0.930 . S
C910 C906 1.524 . S
C910 H922 0.956 . S
C910 H923 0.961 . S
C910 H924 0.961 . S
C911 C908 1.539 1_554 S
C911 H925 0.958 1_554 S
C911 H926 0.961 . S
C911 H927 0.960 . S
H912 C896 0.931 . S
H913 C901 0.929 . S
H914 C902 0.960 . S
H915 C902 0.962 . S
H916 C902 0.960 . S
H917 C903 0.961 . S
H918 C903 0.961 . S
H919 C903 0.961 . S
H920 C904 0.931 . S
H921 C909 0.930 . S
H922 C910 0.956 . S
H923 C910 0.961 . S
H924 C910 0.961 . S
H925 C911 0.958 1_556 S
H926 C911 0.961 . S
H927 C911 0.960 . S
C928 C929 1.391 . S
C928 C930 1.394 . S
C928 H944 0.931 . S
C929 C928 1.391 . S
C929 C933 1.376 . S
C930 C928 1.394 . S
C930 C931 1.369 . S
C930 C934 1.531 . S
C931 C930 1.369 . S
C931 C932 1.410 . S
C931 C939 1.503 . S
C932 C931 1.410 . S
C932 C933 1.392 . S
C932 C935 1.511 . S
C933 C929 1.376 . S
C933 C932 1.392 . S
C933 H945 0.929 . S
C934 C930 1.531 . S
C934 H946 0.960 . S
C934 H947 0.962 . S
C934 H948 0.960 . S
C935 C932 1.511 . S
C935 H949 0.961 . S
C935 H950 0.961 . S
C935 H951 0.961 . S
C936 C937 1.370 . S
C936 C938 1.363 . S
C936 H952 0.931 . S
C937 C936 1.370 . S
C937 C941 1.408 . S
C938 C936 1.363 . S
C938 C939 1.370 . S
C938 C942 1.524 . S
C939 C931 1.503 . S
C939 C938 1.370 . S
C939 C940 1.403 . S
C940 C939 1.403 . S
C940 C941 1.404 . S
C940 C943 1.539 . S
C941 C937 1.408 . S
C941 C940 1.404 . S
C941 H953 0.930 . S
C942 C938 1.524 . S
C942 H954 0.956 . S
C942 H955 0.961 . S
C942 H956 0.961 . S
C943 C940 1.539 . S
C943 H957 0.958 . S
C943 H958 0.961 . S
C943 H959 0.960 . S
H944 C928 0.931 . S
H945 C933 0.929 . S
H946 C934 0.960 . S
H947 C934 0.962 . S
H948 C934 0.960 . S
H949 C935 0.961 . S
H950 C935 0.961 . S
H951 C935 0.961 . S
H952 C936 0.931 . S
H953 C941 0.930 . S
H954 C942 0.956 . S
H955 C942 0.961 . S
H956 C942 0.961 . S
H957 C943 0.958 . S
H958 C943 0.961 . S
H959 C943 0.960 . S
C201 C185 1.470 . S
C193 C8 1.479 . S
C225 C26 1.428 . S
C233 C114 1.493 . S
C257 C50 1.481 . S
C265 C128 1.495 . S
C289 C68 1.430 . S
C297 C142 1.495 . S
C329 C156 1.492 . S
C321 C80 1.427 . S
C353 C104 1.432 . S
C361 C171 1.486 . S
C385 C32 1.465 . S
C393 C129 1.499 . S
C417 C44 1.492 . S
C425 C143 1.475 . S
C449 C62 1.424 . S
C457 C157 1.487 . S
C489 C170 1.496 . S
C481 C86 1.435 . S
C521 C184 1.482 . S
C513 C98 1.482 . S
C553 C115 1.475 . S
C545 C14 1.490 . S
C577 C7 1.484 . S
C585 C131 1.520 . S
C609 C25 1.465 . S
C617 C145 1.518 . S
C649 C159 1.522 . S
C641 C52 1.457 . S
C673 C70 1.470 . S
C681 C172 1.521 . S
C713 C186 1.520 . S
C705 C79 1.455 . S
C745 C117 1.520 . S
C737 C106 1.458 . S
C777 C187 1.518 . S
C769 C34 1.459 . S
C801 C43 1.479 . S
C809 C116 1.517 . S
C841 C130 1.528 . S
C833 C61 1.456 . S
C865 C88 1.485 . S
C873 C144 1.516 . S
C897 C97 1.490 . S
C905 C158 1.532 . S
C929 C16 1.516 . S
C937 C173 1.532 . S
