# Generated by pormake.
# Topology apo, (3,6)-cn, num edge types: 1
# Building blocks:
#     Node 0, Type 0, BuildingBlock: PAMTOO_clean_linker_0, # of connection points: 3
#     Node 1, Type 0, BuildingBlock: PAMTOO_clean_linker_0, # of connection points: 3
#     Node 2, Type 0, BuildingBlock: PAMTOO_clean_linker_0, # of connection points: 3
#     Node 3, Type 0, BuildingBlock: PAMTOO_clean_linker_0, # of connection points: 3
#     Node 4, Type 0, BuildingBlock: PAMTOO_clean_linker_0, # of connection points: 3
#     Node 5, Type 0, BuildingBlock: PAMTOO_clean_linker_0, # of connection points: 3
#     Node 6, Type 0, BuildingBlock: PAMTOO_clean_linker_0, # of connection points: 3
#     Node 7, Type 0, BuildingBlock: PAMTOO_clean_linker_0, # of connection points: 3
#     Node 8, Type 1, BuildingBlock: KUMBOL_clean_sbu_1, # of connection points: 6
#     Node 9, Type 1, BuildingBlock: KUMBOL_clean_sbu_1, # of connection points: 6
#     Node 10, Type 1, BuildingBlock: KUMBOL_clean_sbu_1, # of connection points: 6
#     Node 11, Type 1, BuildingBlock: KUMBOL_clean_sbu_1, # of connection points: 6
#     Edge 12, Type (0, 1), BuildingBlock: KIFKEQ_clean_linker_1, # of connection points: 2
#     Edge 13, Type (0, 1), BuildingBlock: KIFKEQ_clean_linker_1, # of connection points: 2
#     Edge 14, Type (0, 1), BuildingBlock: KIFKEQ_clean_linker_1, # of connection points: 2
#     Edge 15, Type (0, 1), BuildingBlock: KIFKEQ_clean_linker_1, # of connection points: 2
#     Edge 16, Type (0, 1), BuildingBlock: KIFKEQ_clean_linker_1, # of connection points: 2
#     Edge 17, Type (0, 1), BuildingBlock: KIFKEQ_clean_linker_1, # of connection points: 2
#     Edge 18, Type (0, 1), BuildingBlock: KIFKEQ_clean_linker_1, # of connection points: 2
#     Edge 19, Type (0, 1), BuildingBlock: KIFKEQ_clean_linker_1, # of connection points: 2
#     Edge 20, Type (0, 1), BuildingBlock: KIFKEQ_clean_linker_1, # of connection points: 2
#     Edge 21, Type (0, 1), BuildingBlock: KIFKEQ_clean_linker_1, # of connection points: 2
#     Edge 22, Type (0, 1), BuildingBlock: KIFKEQ_clean_linker_1, # of connection points: 2
#     Edge 23, Type (0, 1), BuildingBlock: KIFKEQ_clean_linker_1, # of connection points: 2
#     Edge 24, Type (0, 1), BuildingBlock: KIFKEQ_clean_linker_1, # of connection points: 2
#     Edge 25, Type (0, 1), BuildingBlock: KIFKEQ_clean_linker_1, # of connection points: 2
#     Edge 26, Type (0, 1), BuildingBlock: KIFKEQ_clean_linker_1, # of connection points: 2
#     Edge 27, Type (0, 1), BuildingBlock: KIFKEQ_clean_linker_1, # of connection points: 2
#     Edge 28, Type (0, 1), BuildingBlock: KIFKEQ_clean_linker_1, # of connection points: 2
#     Edge 29, Type (0, 1), BuildingBlock: KIFKEQ_clean_linker_1, # of connection points: 2
#     Edge 30, Type (0, 1), BuildingBlock: KIFKEQ_clean_linker_1, # of connection points: 2
#     Edge 31, Type (0, 1), BuildingBlock: KIFKEQ_clean_linker_1, # of connection points: 2
#     Edge 32, Type (0, 1), BuildingBlock: KIFKEQ_clean_linker_1, # of connection points: 2
#     Edge 33, Type (0, 1), BuildingBlock: KIFKEQ_clean_linker_1, # of connection points: 2
#     Edge 34, Type (0, 1), BuildingBlock: KIFKEQ_clean_linker_1, # of connection points: 2
#     Edge 35, Type (0, 1), BuildingBlock: KIFKEQ_clean_linker_1, # of connection points: 2
# Relax obj value: 0.040
# Max RMSD: 0.224
# Mean RMSD: 0.161
data_MOF--net-apo--node1-KUMBOL_clean_sbu_1--node2-PAMTOO_clean_linker_0--edge1-KIFKEQ_clean_linker_1
_symmetry_space_group_name_H-M    P1
_symmetry_Int_Tables_number       1
_symmetry_cell_setting            triclinic
loop_
_symmetry_equiv_pos_as_xyz
'x, y, z'
_cell_length_a     28.004061
_cell_length_b     43.170884
_cell_length_c     51.564305
_cell_angle_alpha  90.0143
_cell_angle_beta   90.030332
_cell_angle_gamma 90.507376
loop_
_atom_site_label
_atom_site_type_symbol
_atom_site_fract_x
_atom_site_fract_y
_atom_site_fract_z
_atom_type_partial_charge
H0 H 0.37815 0.43634 0.43416 0.0
H1 H 0.30605 0.39318 0.36946 0.0
H2 H 0.29108 0.35485 0.4459 0.0
H3 H 0.30625 0.30907 0.40378 0.0
C4 C 0.28749 0.32096 0.38761 0.0
O5 O 0.268 0.34818 0.39671 0.0
H6 H 0.31437 0.32623 0.3723 0.0
C7 C 0.35486 0.41839 0.42641 0.0
C8 C 0.33583 0.39584 0.44325 0.0
C9 C 0.3442 0.41792 0.39972 0.0
C10 C 0.3147 0.39406 0.38994 0.0
C11 C 0.29575 0.37129 0.40651 0.0
C12 C 0.3058 0.37248 0.43318 0.0
H13 H 0.16151 0.07188 0.936 0.0
H14 H 0.23828 0.15807 0.94481 0.0
H15 H 0.22205 0.11782 0.86922 0.0
H16 H 0.31889 0.14086 0.8849 0.0
C17 C 0.30773 0.16342 0.89334 0.0
O18 O 0.25852 0.16422 0.89531 0.0
H19 H 0.32375 0.16529 0.91302 0.0
C20 C 0.18205 0.09071 0.92754 0.0
C21 C 0.18924 0.0917 0.9005 0.0
C22 C 0.19937 0.11454 0.94373 0.0
C23 C 0.22453 0.13957 0.93263 0.0
C24 C 0.2331 0.14048 0.90583 0.0
C25 C 0.21517 0.11676 0.88988 0.0
H26 H 0.87128 0.09277 0.59642 0.0
H27 H 0.79868 0.12571 0.66488 0.0
H28 H 0.80022 0.18081 0.5961 0.0
H29 H 0.81421 0.21409 0.64575 0.0
C30 C 0.78936 0.20033 0.65815 0.0
O31 O 0.76933 0.17669 0.64365 0.0
H32 H 0.81006 0.19048 0.67457 0.0
C33 C 0.85052 0.11013 0.6064 0.0
C34 C 0.83829 0.13749 0.59316 0.0
C35 C 0.83665 0.10532 0.63243 0.0
C36 C 0.80929 0.12823 0.64479 0.0
C37 C 0.79627 0.15519 0.63164 0.0
C38 C 0.81078 0.15981 0.606 0.0
H39 H 0.66096 0.42044 0.09944 0.0
H40 H 0.73616 0.33401 0.09574 0.0
H41 H 0.73397 0.38483 0.16681 0.0
H42 H 0.82722 0.3614 0.15276 0.0
C43 C 0.81642 0.33925 0.14328 0.0
O44 O 0.7673 0.33632 0.1434 0.0
H45 H 0.82943 0.33979 0.12289 0.0
C46 C 0.68171 0.40267 0.10891 0.0
C47 C 0.69526 0.4063 0.13512 0.0
C48 C 0.69582 0.3766 0.09447 0.0
C49 C 0.72491 0.35434 0.10636 0.0
C50 C 0.73904 0.35776 0.13222 0.0
C51 C 0.72367 0.38328 0.14661 0.0
H52 H 0.65148 0.57712 0.59812 0.0
H53 H 0.7345 0.66029 0.5872 0.0
H54 H 0.71388 0.62425 0.66391 0.0
H55 H 0.70604 0.69216 0.65757 0.0
C56 C 0.73592 0.69594 0.64366 0.0
O57 O 0.75499 0.66781 0.63647 0.0
H58 H 0.72102 0.70771 0.62629 0.0
C59 C 0.6717 0.59624 0.60633 0.0
C60 C 0.67952 0.59763 0.6333 0.0
C61 C 0.69074 0.61881 0.58952 0.0
C62 C 0.71939 0.64271 0.59983 0.0
C63 C 0.72762 0.64455 0.62664 0.0
C64 C 0.70768 0.62214 0.64325 0.0
H65 H 0.86766 0.93926 0.09801 0.0
H66 H 0.80582 0.89058 0.16296 0.0
H67 H 0.7855 0.85575 0.08591 0.0
H68 H 0.70199 0.84689 0.11579 0.0
C69 C 0.71648 0.84829 0.13584 0.0
O70 O 0.7658 0.84707 0.13498 0.0
H71 H 0.70545 0.87078 0.14446 0.0
C72 C 0.84693 0.92011 0.10572 0.0
C73 C 0.82797 0.89786 0.08849 0.0
C74 C 0.83956 0.918 0.1327 0.0
C75 C 0.81193 0.8931 0.14234 0.0
C76 C 0.79254 0.8708 0.12545 0.0
C77 C 0.80101 0.87304 0.09869 0.0
H78 H 0.16888 0.92415 0.43639 0.0
H79 H 0.24009 0.8364 0.44223 0.0
H80 H 0.23135 0.88187 0.36866 0.0
H81 H 0.21065 0.81326 0.37112 0.0
C82 C 0.24153 0.8069 0.3836 0.0
O83 O 0.26302 0.83346 0.39314 0.0
H84 H 0.22814 0.79256 0.4 0.0
C85 C 0.18859 0.90553 0.42738 0.0
C86 C 0.19784 0.90629 0.40048 0.0
C87 C 0.20322 0.88027 0.44261 0.0
C88 C 0.22789 0.85583 0.43077 0.0
C89 C 0.23779 0.85653 0.40419 0.0
C90 C 0.22277 0.88158 0.38915 0.0
H91 H 0.36461 0.58864 0.93346 0.0
H92 H 0.29158 0.6255 0.8668 0.0
H93 H 0.28818 0.67475 0.93864 0.0
H94 H 0.19541 0.67263 0.91116 0.0
C95 C 0.20888 0.67101 0.8909 0.0
O96 O 0.25801 0.67356 0.89083 0.0
H97 H 0.19767 0.64804 0.88304 0.0
C98 C 0.34353 0.60664 0.92452 0.0
C99 C 0.32862 0.6321 0.93955 0.0
C100 C 0.33055 0.60387 0.89818 0.0
C101 C 0.30162 0.62676 0.88706 0.0
C102 C 0.28591 0.65182 0.90184 0.0
C103 C 0.29967 0.65464 0.92783 0.0
C104 C 0.87173 0.112 0.27263 0.0
C105 C 0.85679 0.05761 0.28166 0.0
C106 C 0.88639 0.08412 0.28306 0.0
C107 C 0.81332 0.05913 0.26814 0.0
C108 C 0.82682 0.11409 0.26039 0.0
C109 C 0.79842 0.08731 0.25746 0.0
N110 N 0.89955 0.13755 0.27643 0.0
C111 C 0.88189 0.16629 0.27131 0.0
C112 C 0.81087 0.14327 0.25258 0.0
C113 C 0.83809 0.16956 0.25859 0.0
Gd114 Gd 0.07992 0.12849 0.24153 0.0
Gd115 Gd 0.97468 0.12897 0.29574 0.0
N116 N 0.92883 0.08333 0.29571 0.0
C117 C 0.87116 0.0307 0.29458 0.0
C118 C 0.94185 0.05784 0.30962 0.0
C119 C 0.91346 0.03101 0.30902 0.0
H120 H 0.97471 0.05815 0.32063 0.0
H121 H 0.92434 0.01056 0.31955 0.0
H122 H 0.04546 0.18702 0.20185 0.0
H123 H 0.90125 0.18682 0.27723 0.0
H124 H 0.06489 0.24215 0.19528 0.0
H125 H 0.84934 0.00987 0.29405 0.0
H126 H 0.79034 0.03889 0.2665 0.0
H127 H 0.17241 0.0978 0.27225 0.0
H128 H 0.77663 0.14588 0.24308 0.0
H129 H 0.82501 0.19239 0.25384 0.0
H130 H 0.20524 0.25888 0.24701 0.0
H131 H 0.76407 0.08839 0.24783 0.0
H132 H 0.2741 0.17022 0.28824 0.0
H133 H 0.24955 0.11508 0.29123 0.0
N134 N 0.15397 0.14276 0.25915 0.0
C135 C 0.16785 0.17274 0.25607 0.0
C136 C 0.18322 0.12184 0.27083 0.0
C137 C 0.24052 0.16271 0.27977 0.0
C138 C 0.22676 0.13156 0.28153 0.0
C139 C 0.21115 0.1837 0.26673 0.0
H140 H 0.25661 0.22406 0.27224 0.0
N141 N 0.09835 0.18043 0.23097 0.0
C142 C 0.13866 0.19231 0.242 0.0
C143 C 0.12435 0.24185 0.2218 0.0
C144 C 0.1524 0.22346 0.23802 0.0
C145 C 0.07371 0.19744 0.21317 0.0
C146 C 0.08542 0.22858 0.20888 0.0
O147 O 0.98278 0.08808 0.26826 0.0
O148 O 0.0063 0.11136 0.23062 0.0
O149 O 0.1134 0.13159 0.20347 0.0
O150 O 0.11045 0.08777 0.22339 0.0
O151 O 0.04152 0.10285 0.30628 0.0
O152 O 0.07918 0.08653 0.26833 0.0
O153 O 0.09301 0.14506 0.28284 0.0
O154 O 0.02448 0.17035 0.29331 0.0
O155 O 0.99051 0.12518 0.33684 0.0
O156 O 0.92443 0.14573 0.32451 0.0
O157 O 0.00881 0.1501 0.23102 0.0
O158 O 0.98296 0.171 0.26961 0.0
C159 C 0.98356 0.08907 0.24282 0.0
C160 C 0.0695 0.08377 0.29339 0.0
C161 C 0.10254 0.08714 0.17743 0.0
C162 C 0.10229 0.08399 0.12999 0.0
C163 C 0.04799 0.05187 0.15531 0.0
C164 C 0.06626 0.06445 0.17822 0.0
C165 C 0.06549 0.06174 0.13136 0.0
C166 C 0.12101 0.09651 0.15317 0.0
C167 C 0.11992 0.10193 0.20164 0.0
C168 C 0.19445 0.23492 0.24959 0.0
C169 C 0.2238 0.21506 0.26388 0.0
H170 H 0.13365 0.2659 0.21824 0.0
C171 C 0.07114 0.16817 0.2942 0.0
C172 C 0.98459 0.17095 0.2441 0.0
C173 C 0.95754 0.16313 0.36399 0.0
C174 C 0.94824 0.17932 0.40913 0.0
C175 C 0.98342 0.21443 0.37726 0.0
C176 C 0.97787 0.19201 0.35795 0.0
C177 C 0.96869 0.20823 0.40266 0.0
C178 C 0.94294 0.15684 0.3895 0.0
C179 C 0.95178 0.1391 0.34407 0.0
H180 H 0.02002 0.03445 0.15612 0.0
H181 H 0.05172 0.05655 0.19653 0.0
H182 H 0.05072 0.05165 0.11382 0.0
H183 H 0.14907 0.11394 0.1523 0.0
H184 H 0.99904 0.23674 0.37252 0.0
H185 H 0.98935 0.19718 0.33836 0.0
H186 H 0.97274 0.22624 0.41714 0.0
H187 H 0.92804 0.13423 0.39406 0.0
C188 C 0.65686 0.40735 0.77512 0.0
C189 C 0.6644 0.46215 0.78492 0.0
C190 C 0.6381 0.43418 0.7855 0.0
C191 C 0.70874 0.46314 0.77222 0.0
C192 C 0.70259 0.40784 0.76367 0.0
C193 C 0.72773 0.43605 0.76153 0.0
N194 N 0.63216 0.38036 0.7782 0.0
C195 C 0.65372 0.35278 0.77314 0.0
C196 C 0.72259 0.37975 0.75584 0.0
C197 C 0.69845 0.35203 0.76113 0.0
Gd198 Gd 0.45141 0.37964 0.74118 0.0
Gd199 Gd 0.55528 0.38453 0.79645 0.0
N200 N 0.59483 0.43256 0.79727 0.0
C201 C 0.64589 0.488 0.79779 0.0
C202 C 0.57775 0.45708 0.81107 0.0
C203 C 0.60276 0.48528 0.81131 0.0
H204 H 0.5444 0.45487 0.82145 0.0
H205 H 0.58868 0.50491 0.82178 0.0
H206 H 0.49348 0.32291 0.70193 0.0
H207 H 0.63685 0.33124 0.77873 0.0
H208 H 0.47847 0.26748 0.69412 0.0
H209 H 0.6651 0.50989 0.79789 0.0
H210 H 0.72921 0.48452 0.77121 0.0
H211 H 0.35629 0.40612 0.77215 0.0
H212 H 0.75759 0.37911 0.74691 0.0
H213 H 0.71467 0.33006 0.75643 0.0
H214 H 0.33626 0.24522 0.74275 0.0
H215 H 0.76267 0.43693 0.75252 0.0
H216 H 0.25934 0.33022 0.78512 0.0
H217 H 0.27987 0.38585 0.78987 0.0
N218 N 0.37833 0.36231 0.75804 0.0
C219 C 0.36676 0.33208 0.75408 0.0
C220 C 0.34727 0.38186 0.77 0.0
C221 C 0.29263 0.33904 0.77722 0.0
C222 C 0.30413 0.37046 0.77998 0.0
C223 C 0.32393 0.31945 0.76398 0.0
H224 H 0.28123 0.27761 0.76795 0.0
N225 N 0.43786 0.32733 0.72982 0.0
C226 C 0.39795 0.3139 0.73999 0.0
C227 C 0.41719 0.26538 0.7193 0.0
C228 C 0.38683 0.28247 0.73527 0.0
C229 C 0.46514 0.31145 0.71245 0.0
C230 C 0.45601 0.28011 0.70745 0.0
O231 O 0.54456 0.42484 0.76855 0.0
O232 O 0.52347 0.39989 0.73121 0.0
O233 O 0.42342 0.37663 0.70173 0.0
O234 O 0.41366 0.41825 0.72413 0.0
O235 O 0.48353 0.40492 0.80606 0.0
O236 O 0.44842 0.42172 0.76777 0.0
O237 O 0.43901 0.36089 0.7819 0.0
O238 O 0.51119 0.34054 0.79323 0.0
O239 O 0.53885 0.38901 0.83741 0.0
O240 O 0.60561 0.36893 0.82573 0.0
O241 O 0.52507 0.36123 0.73136 0.0
O242 O 0.55349 0.34227 0.77022 0.0
C243 C 0.5426 0.42375 0.74311 0.0
C244 C 0.4566 0.42434 0.79297 0.0
C245 C 0.42454 0.4242 0.67866 0.0
C246 C 0.42542 0.43285 0.63151 0.0
C247 C 0.46274 0.47021 0.66086 0.0
C248 C 0.45005 0.45207 0.68213 0.0
C249 C 0.45034 0.4609 0.63584 0.0
C250 C 0.41247 0.41464 0.65326 0.0
C251 C 0.40982 0.40533 0.70138 0.0
C252 C 0.34511 0.2694 0.74595 0.0
C253 C 0.31368 0.28787 0.76023 0.0
H254 H 0.40993 0.24118 0.7152 0.0
C255 C 0.46429 0.33937 0.79335 0.0
C256 C 0.55155 0.34177 0.74469 0.0
C257 C 0.57236 0.35212 0.86538 0.0
C258 C 0.58216 0.33675 0.91069 0.0
C259 C 0.54414 0.30173 0.87971 0.0
C260 C 0.55037 0.32355 0.86 0.0
C261 C 0.55983 0.30823 0.9049 0.0
C262 C 0.58829 0.35861 0.89065 0.0
C263 C 0.57786 0.37573 0.84507 0.0
H264 H 0.48204 0.49177 0.6638 0.0
H265 H 0.46007 0.46003 0.70132 0.0
H266 H 0.4598 0.47607 0.61991 0.0
H267 H 0.39345 0.39292 0.65055 0.0
H268 H 0.52711 0.2797 0.87546 0.0
H269 H 0.53798 0.31821 0.84062 0.0
H270 H 0.555 0.29077 0.91977 0.0
H271 H 0.60468 0.38093 0.89477 0.0
C272 C 0.84969 0.86045 0.75921 0.0
C273 C 0.83965 0.80496 0.76455 0.0
C274 C 0.86605 0.83248 0.7686 0.0
C275 C 0.79793 0.80576 0.74944 0.0
C276 C 0.80626 0.86168 0.74541 0.0
C277 C 0.78131 0.83407 0.73983 0.0
N278 N 0.87428 0.88668 0.76537 0.0
C279 C 0.85442 0.915 0.76108 0.0
C280 C 0.78822 0.89071 0.73863 0.0
C281 C 0.81189 0.9175 0.74703 0.0
Gd282 Gd 0.06001 0.88647 0.73611 0.0
Gd283 Gd 0.94831 0.87969 0.7863 0.0
N284 N 0.90696 0.83242 0.78268 0.0
C285 C 0.85555 0.77765 0.77626 0.0
C286 C 0.9213 0.80634 0.79535 0.0
C287 C 0.89614 0.77845 0.79207 0.0
H288 H 0.95292 0.80703 0.80739 0.0
H289 H 0.9082 0.7576 0.80159 0.0
H290 H 0.02686 0.94424 0.6958 0.0
H291 H 0.87115 0.93575 0.76859 0.0
H292 H 0.041 1.00038 0.69103 0.0
H293 H 0.83628 0.756 0.77361 0.0
H294 H 0.7776 0.78477 0.74566 0.0
H295 H 0.15039 0.85894 0.77065 0.0
H296 H 0.75499 0.89268 0.72802 0.0
H297 H 0.79707 0.94007 0.74301 0.0
H298 H 0.17069 0.02158 0.74946 0.0
H299 H 0.74826 0.83451 0.72891 0.0
H300 H 0.24188 0.93479 0.79232 0.0
H301 H 0.22246 0.87873 0.79333 0.0
N302 N 0.12924 0.9034 0.75761 0.0
C303 C 0.14064 0.93392 0.7556 0.0
C304 C 0.15877 0.8834 0.7702 0.0
C305 C 0.21044 0.92619 0.78229 0.0
C306 C 0.19955 0.89453 0.78295 0.0
C307 C 0.18107 0.94631 0.7683 0.0
H308 H 0.2215 0.98824 0.7764 0.0
N309 N 0.07481 0.93935 0.72742 0.0
C310 C 0.11187 0.9526 0.7405 0.0
C311 C 0.09579 1.00194 0.72037 0.0
C312 C 0.12301 0.98434 0.7376 0.0
C313 C 0.05156 0.9557 0.7087 0.0
C314 C 0.06057 0.98737 0.70543 0.0
O315 O 0.96663 0.84106 0.75835 0.0
O316 O 0.99105 0.86509 0.72115 0.0
O317 O 0.09657 0.89208 0.69874 0.0
O318 O 0.10014 0.84826 0.71997 0.0
O319 O 0.01637 0.85562 0.79853 0.0
O320 O 0.06043 0.84358 0.76148 0.0
O321 O 0.06447 0.90264 0.77814 0.0
O322 O 0.99163 0.92388 0.78571 0.0
O323 O 0.96298 0.87699 0.82765 0.0
O324 O 0.89335 0.89074 0.81449 0.0
O325 O 0.98841 0.90499 0.72284 0.0
O326 O 0.95391 0.92249 0.76069 0.0
C327 C 0.96608 0.84347 0.73303 0.0
C328 C 0.04926 0.83949 0.78618 0.0
C329 C 0.14404 0.85068 0.67942 0.0
C330 C 0.17462 0.84958 0.635 0.0
C331 C 0.20845 0.81595 0.6679 0.0
C332 C 0.17685 0.82767 0.68628 0.0
C333 C 0.2076 0.82693 0.64247 0.0
C334 C 0.14273 0.86144 0.65359 0.0
C335 C 0.11309 0.86406 0.69962 0.0
C336 C 0.16194 0.99717 0.75121 0.0
C337 C 0.19099 0.97818 0.76647 0.0
H338 H 0.10314 0.0264 0.71759 0.0
C339 C 0.03813 0.92436 0.78855 0.0
C340 C 0.95936 0.92367 0.7353 0.0
C341 C 0.92109 0.91213 0.85378 0.0
C342 C 0.91019 0.92903 0.89872 0.0
C343 C 0.9309 0.96633 0.8649 0.0
C344 C 0.93134 0.94273 0.84645 0.0
C345 C 0.92018 0.95966 0.89078 0.0
C346 C 0.91083 0.90531 0.87987 0.0
C347 C 0.92126 0.88717 0.83439 0.0
H348 H 0.23384 0.79838 0.67342 0.0
H349 H 0.17868 0.81912 0.70601 0.0
H350 H 0.23232 0.81739 0.62848 0.0
H351 H 0.11748 0.87913 0.64804 0.0
H352 H 0.93858 0.98996 0.85911 0.0
H353 H 0.9394 0.94835 0.82645 0.0
H354 H 0.91907 0.97867 0.90446 0.0
H355 H 0.9039 0.88149 0.88543 0.0
C356 C 0.67087 0.6619 0.26418 0.0
C357 C 0.67181 0.71693 0.27397 0.0
C358 C 0.64951 0.68757 0.27519 0.0
C359 C 0.71488 0.72039 0.26031 0.0
C360 C 0.71536 0.66502 0.25159 0.0
C361 C 0.73656 0.6945 0.24908 0.0
N362 N 0.64976 0.63366 0.26733 0.0
C363 C 0.67401 0.6074 0.26096 0.0
C364 C 0.73811 0.63828 0.24279 0.0
C365 C 0.71778 0.60931 0.24799 0.0
Gd366 Gd 0.47044 0.62409 0.23295 0.0
Gd367 Gd 0.57402 0.63376 0.28745 0.0
N368 N 0.60729 0.68365 0.2877 0.0
C369 C 0.65043 0.74178 0.28687 0.0
C370 C 0.58737 0.70732 0.30139 0.0
C371 C 0.60839 0.73684 0.30097 0.0
H372 H 0.55478 0.70341 0.31219 0.0
H373 H 0.59207 0.75576 0.31137 0.0
H374 H 0.51163 0.57136 0.19052 0.0
H375 H 0.66027 0.58482 0.26616 0.0
H376 H 0.50301 0.51522 0.18222 0.0
H377 H 0.66649 0.7647 0.28643 0.0
H378 H 0.73224 0.74285 0.2588 0.0
H379 H 0.37282 0.64623 0.26448 0.0
H380 H 0.7723 0.63967 0.23302 0.0
H381 H 0.73619 0.5884 0.2424 0.0
H382 H 0.37012 0.48485 0.23557 0.0
H383 H 0.77044 0.69738 0.2392 0.0
H384 H 0.28664 0.56572 0.27996 0.0
H385 H 0.30027 0.62231 0.28374 0.0
N386 N 0.3998 0.6035 0.25062 0.0
C387 C 0.39166 0.57275 0.24706 0.0
C388 C 0.36686 0.62155 0.26277 0.0
C389 C 0.31829 0.57612 0.27144 0.0
C390 C 0.32587 0.60808 0.27362 0.0
C391 C 0.35112 0.55807 0.25777 0.0
H392 H 0.31373 0.51425 0.26246 0.0
N393 N 0.46056 0.57179 0.22086 0.0
C394 C 0.42361 0.55626 0.2321 0.0
C395 C 0.44588 0.50933 0.20984 0.0
C396 C 0.41558 0.52451 0.22718 0.0
C397 C 0.48685 0.55791 0.20196 0.0
C398 C 0.48102 0.52631 0.19671 0.0
O399 O 0.55622 0.6725 0.25939 0.0
O400 O 0.54048 0.64681 0.22174 0.0
O401 O 0.43888 0.6202 0.19442 0.0
O402 O 0.4316 0.66249 0.21625 0.0
O403 O 0.50164 0.65326 0.29809 0.0
O404 O 0.46298 0.66567 0.25944 0.0
O405 O 0.46056 0.60591 0.2741 0.0
O406 O 0.53434 0.58816 0.28515 0.0
O407 O 0.55846 0.63497 0.32875 0.0
O408 O 0.62903 0.62309 0.31569 0.0
O409 O 0.54504 0.60768 0.22296 0.0
O410 O 0.57599 0.59079 0.2619 0.0
C411 C 0.55892 0.67064 0.23406 0.0
C412 C 0.46925 0.66867 0.28473 0.0
C413 C 0.44143 0.66694 0.17071 0.0
C414 C 0.44026 0.67458 0.12358 0.0
C415 C 0.48762 0.70877 0.15129 0.0
C416 C 0.47289 0.69232 0.17316 0.0
C417 C 0.47138 0.70013 0.12672 0.0
C418 C 0.4253 0.65815 0.14587 0.0
C419 C 0.42625 0.64907 0.1938 0.0
C420 C 0.37654 0.50932 0.23886 0.0
C421 C 0.34433 0.52608 0.25411 0.0
H422 H 0.44099 0.48495 0.20552 0.0
C423 C 0.48768 0.58558 0.28581 0.0
C424 C 0.57237 0.58892 0.23643 0.0
C425 C 0.60232 0.60053 0.35468 0.0
C426 C 0.61507 0.58349 0.39941 0.0
C427 C 0.59513 0.54609 0.36553 0.0
C428 C 0.59322 0.56983 0.34721 0.0
C429 C 0.60612 0.55277 0.39139 0.0
C430 C 0.61305 0.60731 0.38072 0.0
C431 C 0.60071 0.62569 0.33552 0.0
H432 H 0.51171 0.72837 0.15339 0.0
H433 H 0.48617 0.6995 0.19197 0.0
H434 H 0.48289 0.71374 0.1102 0.0
H435 H 0.40182 0.63819 0.14394 0.0
H436 H 0.58828 0.52239 0.35965 0.0
H437 H 0.58489 0.56424 0.32723 0.0
H438 H 0.60814 0.53376 0.40502 0.0
H439 H 0.61918 0.63119 0.3864 0.0
H440 H 0.19968 0.96824 0.41229 0.0
H441 H 0.15903 0.90415 0.35165 0.0
H442 H 0.17191 0.01127 0.38582 0.0
H443 H 0.13143 0.94723 0.32515 0.0
H444 H 0.12484 0.03575 0.27556 0.0
H445 H 0.15856 0.99328 0.3009 0.0
H446 H 0.09629 0.03125 0.37047 0.0
H447 H 0.06349 0.07359 0.34555 0.0
C448 C 0.18456 0.96329 0.39339 0.0
C449 C 0.18146 0.93268 0.38419 0.0
C450 C 0.16873 0.98798 0.37817 0.0
C451 C 0.14936 0.98272 0.35335 0.0
C452 C 0.1468 0.95216 0.344 0.0
C453 C 0.16258 0.92746 0.35924 0.0
C454 C 0.11858 0.03511 0.29627 0.0
C455 C 0.09139 0.05818 0.30842 0.0
C456 C 0.13769 0.01067 0.31078 0.0
C457 C 0.13023 0.00889 0.33775 0.0
C458 C 0.10339 0.03211 0.34984 0.0
C459 C 0.08426 0.05636 0.33541 0.0
H460 H 0.41884 0.5771 0.89888 0.0
H461 H 0.28139 0.57087 0.86098 0.0
H462 H 0.44709 0.53389 0.87288 0.0
H463 H 0.31013 0.52786 0.83464 0.0
H464 H 0.40131 0.47219 0.77471 0.0
H465 H 0.36965 0.5158 0.7996 0.0
H466 H 0.43047 0.47789 0.86956 0.0
H467 H 0.46199 0.43477 0.84508 0.0
C468 C 0.39447 0.56637 0.88518 0.0
C469 C 0.34771 0.57742 0.8822 0.0
C470 C 0.41075 0.54165 0.87019 0.0
C471 C 0.38079 0.52738 0.85175 0.0
C472 C 0.33423 0.53859 0.84848 0.0
C473 C 0.31781 0.56325 0.8636 0.0
C474 C 0.40766 0.47309 0.79542 0.0
C475 C 0.43455 0.45002 0.80778 0.0
C476 C 0.38943 0.49803 0.80967 0.0
C477 C 0.39802 0.50045 0.8365 0.0
C478 C 0.42398 0.47703 0.84886 0.0
C479 C 0.44185 0.45215 0.83474 0.0
H480 H 0.59324 0.56711 0.62821 0.0
H481 H 0.71727 0.57275 0.67813 0.0
H482 H 0.56143 0.52495 0.65453 0.0
H483 H 0.68348 0.53165 0.70528 0.0
H484 H 0.5693 0.48168 0.75959 0.0
H485 H 0.60426 0.52376 0.73404 0.0
H486 H 0.59106 0.46795 0.66497 0.0
H487 H 0.55885 0.42513 0.69076 0.0
C488 C 0.61398 0.5594 0.64467 0.0
C489 C 0.65839 0.57331 0.65068 0.0
C490 C 0.59542 0.53532 0.65985 0.0
C491 C 0.62012 0.52497 0.68182 0.0
C492 C 0.66364 0.53933 0.68846 0.0
C493 C 0.68279 0.56305 0.67295 0.0
C494 C 0.57514 0.47802 0.73915 0.0
C495 C 0.56246 0.4497 0.72745 0.0
C496 C 0.59471 0.50224 0.72446 0.0
C497 C 0.60058 0.49903 0.69757 0.0
C498 C 0.58694 0.47102 0.6857 0.0
C499 C 0.5685 0.44652 0.7005 0.0
H500 H 0.92575 0.94866 0.12809 0.0
H501 H 0.80177 0.94199 0.17789 0.0
H502 H 0.9572 0.99058 0.15479 0.0
H503 H 0.83538 0.98286 0.20549 0.0
H504 H 0.95668 0.03116 0.25916 0.0
H505 H 0.91864 0.98989 0.23381 0.0
H506 H 0.92322 0.04811 0.16589 0.0
H507 H 0.95874 0.09007 0.19155 0.0
C508 C 0.90493 0.95611 0.14459 0.0
C509 C 0.86059 0.94203 0.15043 0.0
C510 C 0.92328 0.98005 0.15999 0.0
C511 C 0.8985 0.99009 0.18202 0.0
C512 C 0.85516 0.97547 0.18857 0.0
C513 C 0.83616 0.95189 0.17282 0.0
C514 C 0.94829 0.03551 0.23905 0.0
C515 C 0.96006 0.0641 0.22754 0.0
C516 C 0.92689 0.01178 0.2245 0.0
C517 C 0.91807 0.01586 0.19793 0.0
C518 C 0.92978 0.04438 0.18636 0.0
C519 C 0.95017 0.06835 0.20105 0.0
H520 H 0.9205 0.0728 0.62783 0.0
H521 H 0.78716 0.07323 0.67026 0.0
H522 H 0.94533 0.02726 0.65209 0.0
H523 H 0.81392 0.02885 0.69553 0.0
H524 H 0.94122 0.92518 0.68328 0.0
H525 H 0.90973 0.96836 0.65796 0.0
H526 H 0.89078 0.02114 0.72817 0.0
H527 H 0.92443 0.97863 0.7535 0.0
C528 C 0.89616 0.06317 0.64205 0.0
C529 C 0.85162 0.07697 0.64691 0.0
C530 C 0.91068 0.03717 0.65608 0.0
C531 C 0.88153 0.02471 0.67566 0.0
C532 C 0.83716 0.03826 0.68064 0.0
C533 C 0.8221 0.06385 0.66624 0.0
C534 C 0.93029 0.94598 0.69334 0.0
C535 C 0.93562 0.94855 0.72039 0.0
C536 C 0.91232 0.97062 0.67884 0.0
C537 C 0.89805 0.998 0.69116 0.0
C538 C 0.90137 1.00016 0.71827 0.0
C539 C 0.92041 0.97578 0.73274 0.0
H540 H 0.74419 0.43699 0.17404 0.0
H541 H 0.61117 0.43874 0.13126 0.0
H542 H 0.71795 0.4813 0.19958 0.0
H543 H 0.58699 0.48427 0.15577 0.0
H544 H 0.59748 0.58728 0.1853 0.0
H545 H 0.62867 0.54318 0.16103 0.0
H546 H 0.63778 0.49034 0.23178 0.0
H547 H 0.60437 0.53393 0.25606 0.0
C548 C 0.70936 0.44655 0.17006 0.0
C549 C 0.67989 0.43395 0.15044 0.0
C550 C 0.69463 0.47212 0.18461 0.0
C551 C 0.65068 0.48614 0.17948 0.0
C552 C 0.62134 0.47397 0.15985 0.0
C553 C 0.63549 0.44799 0.14568 0.0
C554 C 0.60616 0.56627 0.19571 0.0
C555 C 0.59755 0.56385 0.2225 0.0
C556 C 0.62398 0.54112 0.18181 0.0
C557 C 0.63509 0.51341 0.19456 0.0
C558 C 0.62936 0.51153 0.22157 0.0
C559 C 0.61043 0.53648 0.23542 0.0
H560 H 0.38577 0.41066 0.35198 0.0
H561 H 0.34722 0.4805 0.40794 0.0
H562 H 0.41929 0.4509 0.32372 0.0
H563 H 0.38107 0.52061 0.37985 0.0
H564 H 0.40134 0.58619 0.31038 0.0
H565 H 0.36513 0.54526 0.33678 0.0
H566 H 0.48894 0.48823 0.32434 0.0
H567 H 0.52469 0.52903 0.29751 0.0
C568 C 0.38424 0.4346 0.35818 0.0
C569 C 0.36391 0.44237 0.38223 0.0
C570 C 0.40377 0.45761 0.3421 0.0
C571 C 0.40288 0.48896 0.34954 0.0
C572 C 0.38199 0.49673 0.37344 0.0
C573 C 0.36298 0.47371 0.38964 0.0
C574 C 0.42051 0.56477 0.31303 0.0
C575 C 0.46564 0.56072 0.30171 0.0
C576 C 0.40001 0.54144 0.32836 0.0
C577 C 0.42415 0.51347 0.33267 0.0
C578 C 0.46921 0.50936 0.32119 0.0
C579 C 0.48984 0.53281 0.306 0.0
H580 H 0.14597 0.0981 0.85305 0.0
H581 H 0.1861 0.02901 0.90937 0.0
H582 H 0.11093 0.05772 0.82575 0.0
H583 H 0.14946 0.9888 0.88256 0.0
H584 H 0.12107 0.92078 0.81619 0.0
H585 H 0.15948 0.96128 0.84205 0.0
H586 H 0.04248 0.02269 0.82518 0.0
H587 H 0.00524 0.98247 0.79843 0.0
C588 C 0.14756 0.07429 0.85957 0.0
C589 C 0.16889 0.06688 0.88347 0.0
C590 C 0.1269 0.05115 0.84405 0.0
C591 C 0.1271 0.01996 0.85197 0.0
C592 C 0.14897 0.01251 0.87571 0.0
C593 C 0.16954 0.03564 0.89125 0.0
C594 C 0.10392 0.94307 0.81776 0.0
C595 C 0.06054 0.9486 0.80498 0.0
C596 C 0.12562 0.96619 0.83284 0.0
C597 C 0.1042 0.99536 0.83569 0.0
C598 C 0.06042 1.00071 0.8231 0.0
C599 C 0.03879 0.97757 0.80798 0.0
H600 H 0.21816 0.06688 0.97683 0.0
H601 H 0.15981 0.159 0.97459 0.0
H602 H 0.19888 0.06319 0.02307 0.0
H603 H 0.13968 0.15509 0.02082 0.0
H604 H 0.05171 0.10837 0.08996 0.0
H605 H 0.07941 0.11892 0.04576 0.0
H606 H 0.22135 0.09038 0.06722 0.0
H607 H 0.19368 0.08046 0.11171 0.0
C608 C 0.20145 0.08639 0.98631 0.0
C609 C 0.1904 0.11321 0.97214 0.0
C610 C 0.1907 0.08435 1.01277 0.0
C611 C 0.16781 0.10886 0.02554 0.0
C612 C 0.15725 0.13584 1.01145 0.0
C613 C 0.16893 0.13813 0.98508 0.0
C614 C 0.089 0.10488 0.0853 0.0
C615 C 0.12062 0.09368 0.1042 0.0
C616 C 0.10487 0.11099 0.06006 0.0
C617 C 0.1525 0.1054 0.05303 0.0
C618 C 0.18441 0.09479 0.07209 0.0
C619 C 0.16872 0.08931 0.09753 0.0
H620 H 0.42408 0.39187 0.4648 0.0
H621 H 0.27563 0.40205 0.4846 0.0
H622 H 0.44592 0.3961 0.5104 0.0
H623 H 0.29715 0.40847 0.53024 0.0
H624 H 0.34488 0.40174 0.61386 0.0
H625 H 0.32393 0.38856 0.56933 0.0
H626 H 0.45515 0.43152 0.5428 0.0
H627 H 0.47783 0.44196 0.58711 0.0
C628 C 0.39615 0.39516 0.47905 0.0
C629 C 0.34825 0.39672 0.47125 0.0
C630 C 0.40859 0.39792 0.50524 0.0
C631 C 0.37353 0.40317 0.52435 0.0
C632 C 0.32532 0.40407 0.5164 0.0
C633 C 0.31284 0.40059 0.49019 0.0
C634 C 0.36978 0.40775 0.59858 0.0
C635 C 0.41297 0.42324 0.60434 0.0
C636 C 0.35736 0.40062 0.57285 0.0
C637 C 0.38751 0.40905 0.55207 0.0
C638 C 0.43101 0.42407 0.55799 0.0
C639 C 0.44373 0.43069 0.58363 0.0
H640 H 0.60682 0.38665 0.07433 0.0
H641 H 0.74813 0.35678 0.05278 0.0
H642 H 0.57963 0.37843 0.02986 0.0
H643 H 0.7206 0.34773 1.00847 0.0
H644 H 0.66612 0.36451 0.92577 0.0
H645 H 0.69343 0.37565 0.96981 0.0
H646 H 0.56375 0.335 1.00043 0.0
H647 H 0.53589 0.32466 0.95641 0.0
C648 C 0.63216 0.3785 0.06006 0.0
C649 C 0.67966 0.37237 0.06714 0.0
C650 C 0.61644 0.37347 0.03463 0.0
C651 C 0.64787 0.36231 0.01559 0.0
C652 C 0.69554 0.35658 0.02258 0.0
C653 C 0.71121 0.36147 0.04805 0.0
C654 C 0.64324 0.35823 0.94189 0.0
C655 C 0.59881 0.34367 0.93754 0.0
C656 C 0.65911 0.36433 0.96715 0.0
C657 C 0.63082 0.3562 0.98867 0.0
C658 C 0.58624 0.34185 0.9843 0.0
C659 C 0.57049 0.33561 0.95907 0.0
H660 H 0.8383 0.09682 0.55226 0.0
H661 H 0.87588 0.19087 0.57294 0.0
H662 H 0.86576 0.10633 0.50794 0.0
H663 H 0.90219 0.20058 0.52858 0.0
H664 H 0.99261 0.19593 0.45458 0.0
H665 H 0.96646 0.18546 0.49883 0.0
H666 H 0.84248 0.13672 0.46942 0.0
H667 H 0.8682 0.14751 0.42514 0.0
C668 C 0.85253 0.11948 0.54736 0.0
C669 C 0.85485 0.14309 0.56612 0.0
C670 C 0.86783 0.12502 0.52192 0.0
C671 C 0.88615 0.15423 0.51471 0.0
C672 C 0.8887 0.17775 0.53353 0.0
C673 C 0.87315 0.17227 0.55889 0.0
C674 C 0.95951 0.18325 0.4575 0.0
C675 C 0.93252 0.17263 0.43621 0.0
C676 C 0.94458 0.17719 0.4829 0.0
C677 C 0.90237 0.16026 0.48767 0.0
C678 C 0.87552 0.14945 0.46642 0.0
C679 C 0.89033 0.15563 0.44102 0.0
H680 H 0.82978 0.95097 0.05925 0.0
H681 H 0.84563 0.85174 0.0528 0.0
H682 H 0.85054 0.95669 1.01369 0.0
H683 H 0.86465 0.85762 1.00672 0.0
H684 H 0.84605 0.88623 0.91846 0.0
H685 H 0.82553 0.87693 0.96389 0.0
H686 H 0.92664 0.9475 0.98738 0.0
H687 H 0.94869 0.95607 0.94229 0.0
C688 C 0.83785 0.93033 0.04821 0.0
C689 C 0.83673 0.9009 0.05998 0.0
C690 C 0.84956 0.93366 0.02202 0.0
C691 C 0.8597 0.90764 1.00671 0.0
C692 C 0.85686 0.87808 0.01806 0.0
C693 C 0.84575 0.87474 0.04445 0.0
C694 C 0.86461 0.89942 0.93328 0.0
C695 C 0.89881 0.92216 0.9265 0.0
C696 C 0.85263 0.89413 0.95932 0.0
C697 C 0.8741 0.91172 0.97915 0.0
C698 C 0.90886 0.93397 0.97247 0.0
C699 C 0.9213 0.93896 0.94655 0.0
H700 H 0.60388 0.60971 0.56696 0.0
H701 H 0.75264 0.62415 0.54843 0.0
H702 H 0.58546 0.60344 0.52113 0.0
H703 H 0.73462 0.61699 0.50236 0.0
H704 H 0.6791 0.62622 0.41914 0.0
H705 H 0.69658 0.63749 0.46454 0.0
H706 H 0.59557 0.56659 0.48789 0.0
H707 H 0.57611 0.55668 0.44278 0.0
C708 C 0.63271 0.61142 0.55301 0.0
C709 C 0.67977 0.61715 0.56131 0.0
C710 C 0.62223 0.60767 0.52671 0.0
C711 C 0.6586 0.60924 0.50792 0.0
C712 C 0.70558 0.61587 0.51618 0.0
C713 C 0.716 0.61992 0.54259 0.0
C714 C 0.66009 0.61335 0.43397 0.0
C715 C 0.62612 0.59051 0.42716 0.0
C716 C 0.67061 0.61955 0.46006 0.0
C717 C 0.64751 0.60302 0.48003 0.0
C718 C 0.61361 0.58018 0.47316 0.0
C719 C 0.60293 0.57413 0.44716 0.0
H720 H 0.27701 0.65457 0.98075 0.0
H721 H 0.41519 0.61742 0.96122 0.0
H722 H 0.30383 0.6632 0.02506 0.0
H723 H 0.44089 0.62409 1.0059 0.0
H724 H 0.49164 0.67501 0.07833 0.0
H725 H 0.46386 0.66364 0.03476 0.0
H726 H 0.32443 0.63981 0.06504 0.0
H727 H 0.35151 0.65316 0.1086 0.0
C728 C 0.31306 0.64809 0.98588 0.0
C729 C 0.34396 0.6355 0.96719 0.0
C730 C 0.32825 0.65262 1.01149 0.0
C731 C 0.37468 0.64446 0.01921 0.0
C732 C 0.40516 0.63116 1.00067 0.0
C733 C 0.39012 0.62689 0.97502 0.0
C734 C 0.45487 0.66766 0.07575 0.0
C735 C 0.42376 0.66536 0.0971 0.0
C736 C 0.43908 0.66064 0.05069 0.0
C737 C 0.39178 0.65076 0.0462 0.0
C738 C 0.3609 0.64776 0.06762 0.0
C739 C 0.37664 0.65502 0.09272 0.0
H740 H 0.16197 0.83324 0.47018 0.0
H741 H 0.2224 0.92496 0.47881 0.0
H742 H 0.15012 0.83011 0.51715 0.0
H743 H 0.21118 0.92165 0.52594 0.0
H744 H 0.24789 0.87476 0.6073 0.0
H745 H 0.25005 0.88579 0.56073 0.0
H746 H 0.10233 0.8575 0.55414 0.0
H747 H 0.10001 0.84702 0.60096 0.0
C748 C 0.17245 0.85278 0.48215 0.0
C749 C 0.19324 0.8793 0.4709 0.0
C750 C 0.16535 0.85109 0.50897 0.0
C751 C 0.17969 0.87565 0.52517 0.0
C752 C 0.19987 0.90237 0.51389 0.0
C753 C 0.20611 0.90431 0.48698 0.0
C754 C 0.21568 0.87149 0.59593 0.0
C755 C 0.17377 0.8601 0.60763 0.0
C756 C 0.21686 0.87787 0.56935 0.0
C757 C 0.17641 0.8724 0.55382 0.0
C758 C 0.13406 0.8618 0.56566 0.0
C759 C 0.13262 0.85601 0.5924 0.0
H760 H 0.25946 0.26296 0.4038 0.0
H761 H 0.23098 0.33142 0.34506 0.0
H762 H 0.2043 0.22687 0.38256 0.0
H763 H 0.17588 0.29517 0.32347 0.0
H764 H 0.05025 0.22892 0.30381 0.0
H765 H 0.09866 0.2669 0.3278 0.0
H766 H 0.20437 0.19675 0.34241 0.0
H767 H 0.15551 0.1589 0.31913 0.0
C768 C 0.24095 0.27038 0.38646 0.0
C769 C 0.24945 0.3 0.37606 0.0
C770 C 0.20962 0.24963 0.37416 0.0
C771 C 0.18591 0.25798 0.35116 0.0
C772 C 0.19321 0.28805 0.34125 0.0
C773 C 0.22477 0.30879 0.35354 0.0
C774 C 0.08368 0.22166 0.31236 0.0
C775 C 0.09933 0.19102 0.30942 0.0
C776 C 0.11158 0.24344 0.32591 0.0
C777 C 0.15546 0.23493 0.33706 0.0
C778 C 0.17057 0.20409 0.33437 0.0
C779 C 0.14282 0.18244 0.32078 0.0
H780 H 0.30426 0.22563 0.90371 0.0
H781 H 0.35348 0.1608 0.84622 0.0
H782 H 0.34043 0.26839 0.87912 0.0
H783 H 0.38921 0.20335 0.82145 0.0
H784 H 0.49726 0.28119 0.80286 0.0
H785 H 0.45694 0.23916 0.82608 0.0
H786 H 0.33494 0.29787 0.8385 0.0
H787 H 0.3761 0.34017 0.816 0.0
C788 C 0.32231 0.22066 0.88563 0.0
C789 C 0.32618 0.18996 0.8769 0.0
C790 C 0.34293 0.24509 0.8715 0.0
C791 C 0.36808 0.23931 0.84837 0.0
C792 C 0.37082 0.2086 0.83937 0.0
C793 C 0.35006 0.18424 0.85345 0.0
C794 C 0.46189 0.28512 0.81064 0.0
C795 C 0.43969 0.31391 0.80744 0.0
C796 C 0.43856 0.26095 0.82373 0.0
C797 C 0.39251 0.26502 0.83407 0.0
C798 C 0.37047 0.29395 0.83097 0.0
C799 C 0.39382 0.3181 0.81782 0.0
H800 H 0.78293 0.26367 0.65598 0.0
H801 H 0.71012 0.1827 0.68569 0.0
H802 H 0.72302 0.29678 0.67588 0.0
H803 H 0.64902 0.21565 0.70498 0.0
H804 H 0.58454 0.28611 0.76176 0.0
H805 H 0.64005 0.25164 0.7399 0.0
H806 H 0.64108 0.31231 0.67323 0.0
H807 H 0.58705 0.34738 0.69562 0.0
C808 C 0.75361 0.25298 0.66647 0.0
C809 C 0.75075 0.22064 0.66906 0.0
C810 C 0.7191 0.27191 0.67776 0.0
C811 C 0.68097 0.25892 0.69196 0.0
C812 C 0.6781 0.22648 0.69441 0.0
C813 C 0.71278 0.20757 0.6832 0.0
C814 C 0.5967 0.29204 0.74243 0.0
C815 C 0.582 0.31961 0.73053 0.0
C816 C 0.62817 0.27215 0.72978 0.0
C817 C 0.64534 0.27924 0.70482 0.0
C818 C 0.62928 0.30638 0.69261 0.0
C819 C 0.59795 0.32634 0.70533 0.0
H820 H 0.87862 0.29537 0.12527 0.0
H821 H 0.80473 0.32428 0.1944 0.0
H822 H 0.91819 0.25459 0.14976 0.0
H823 H 0.84321 0.28287 0.21898 0.0
H824 H 0.96303 0.22954 0.25993 0.0
H825 H 0.92074 0.26936 0.23563 0.0
H826 H 0.90425 0.20603 0.17124 0.0
H827 H 0.94731 0.16654 0.19543 0.0
C828 C 0.87048 0.2927 0.14569 0.0
C829 C 0.8386 0.31287 0.15799 0.0
C830 C 0.89293 0.26925 0.15972 0.0
C831 C 0.88395 0.26539 0.18639 0.0
C832 C 0.85149 0.28542 0.19858 0.0
C833 C 0.82915 0.30894 0.18452 0.0
C834 C 0.95012 0.22416 0.24062 0.0
C835 C 0.95841 0.19498 0.22956 0.0
C836 C 0.9257 0.2469 0.22672 0.0
C837 C 0.90899 0.24094 0.20144 0.0
C838 C 0.91719 0.21161 0.19049 0.0
C839 C 0.94172 0.18893 0.20436 0.0
H840 H 0.79791 0.73651 0.61987 0.0
H841 H 0.75942 0.70081 0.69514 0.0
H842 H 0.8568 0.77126 0.64003 0.0
H843 H 0.81738 0.73587 0.71551 0.0
H844 H 0.95457 0.782 0.74259 0.0
H845 H 0.90191 0.74535 0.72028 0.0
H846 H 0.86001 0.81752 0.66708 0.0
H847 H 0.91346 0.85403 0.68939 0.0
C848 C 0.80214 0.73617 0.64075 0.0
C849 C 0.77377 0.71632 0.656 0.0
C850 C 0.8356 0.75617 0.65233 0.0
C851 C 0.84174 0.75655 0.67944 0.0
C852 C 0.81405 0.73603 0.69458 0.0
C853 C 0.78063 0.71606 0.68298 0.0
C854 C 0.93424 0.78992 0.72603 0.0
C855 C 0.93774 0.82084 0.7178 0.0
C856 C 0.90391 0.76898 0.71329 0.0
C857 C 0.87628 0.77847 0.69198 0.0
C858 C 0.88104 0.80929 0.68325 0.0
C859 C 0.91163 0.83022 0.69599 0.0
H860 H 0.7448 0.78706 0.13767 0.0
H861 H 0.63858 0.84933 0.16756 0.0
H862 H 0.70711 0.74406 0.16118 0.0
H863 H 0.59986 0.8065 0.19026 0.0
H864 H 0.56829 0.73095 0.24873 0.0
H865 H 0.60899 0.77284 0.22602 0.0
H866 H 0.63732 0.71124 0.16185 0.0
H867 H 0.59882 0.66874 0.18555 0.0
C868 C 0.71368 0.79158 0.1495 0.0
C869 C 0.69552 0.82175 0.15145 0.0
C870 C 0.69166 0.76689 0.16271 0.0
C871 C 0.6505 0.77171 0.17785 0.0
C872 C 0.63207 0.8019 0.17936 0.0
C873 C 0.6542 0.82651 0.1663 0.0
C874 C 0.58391 0.72622 0.22997 0.0
C875 C 0.58126 0.69638 0.21922 0.0
C876 C 0.60667 0.7504 0.21671 0.0
C877 C 0.6267 0.74558 0.19202 0.0
C878 C 0.62315 0.71576 0.181 0.0
C879 C 0.60063 0.69145 0.19445 0.0
H880 H 0.22729 0.77672 0.33746 0.0
H881 H 0.33449 0.79343 0.39603 0.0
H882 H 0.28276 0.74396 0.31372 0.0
H883 H 0.39088 0.76161 0.37189 0.0
H884 H 0.46013 0.67536 0.33732 0.0
H885 H 0.40609 0.70913 0.36076 0.0
H886 H 0.35349 0.74513 0.28805 0.0
H887 H 0.40649 0.71066 0.26458 0.0
C888 C 0.26307 0.77376 0.345 0.0
C889 C 0.27694 0.78814 0.36828 0.0
C890 C 0.29499 0.7551 0.33136 0.0
C891 C 0.34155 0.75025 0.34073 0.0
C892 C 0.35525 0.76456 0.36416 0.0
C893 C 0.32317 0.78307 0.37788 0.0
C894 C 0.43717 0.69054 0.32629 0.0
C895 C 0.43764 0.69017 0.29902 0.0
C896 C 0.40629 0.71008 0.33978 0.0
C897 C 0.37527 0.72992 0.32636 0.0
C898 C 0.37625 0.72983 0.29907 0.0
C899 C 0.40692 0.71015 0.28558 0.0
H900 H 0.18188 0.669 0.83981 0.0
H901 H 0.19018 0.73048 0.90559 0.0
H902 H 0.14496 0.70997 0.81406 0.0
H903 H 0.15426 0.7718 0.87986 0.0
H904 H 0.03654 0.82359 0.83708 0.0
H905 H 0.07686 0.78354 0.86155 0.0
H906 H 0.16003 0.76011 0.79392 0.0
H907 H 0.11887 0.79989 0.76908 0.0
C908 C 0.17586 0.69139 0.84866 0.0
C909 C 0.18778 0.69651 0.87478 0.0
C910 C 0.1551 0.71491 0.83392 0.0
C911 C 0.14622 0.74411 0.84496 0.0
C912 C 0.15968 0.74941 0.87091 0.0
C913 C 0.18039 0.72588 0.88562 0.0
C914 C 0.06342 0.80999 0.82732 0.0
C915 C 0.07438 0.81508 0.80104 0.0
C916 C 0.08683 0.7871 0.84147 0.0
C917 C 0.12188 0.76868 0.82976 0.0
C918 C 0.13288 0.77369 0.80347 0.0
C919 C 0.10942 0.79663 0.78927 0.0
loop_
_geom_bond_atom_site_label_1
_geom_bond_atom_site_label_2
_geom_bond_distance
_geom_bond_site_symmetry_2
_ccdc_geom_bond_type
H0 C7 0.929 . S
H1 C10 0.930 . S
H2 C12 0.929 . S
H3 C4 0.969 . S
C4 H3 0.969 . S
C4 O5 1.550 . S
C4 H6 0.973 . S
O5 C4 1.550 . S
O5 C11 1.412 . S
H6 C4 0.973 . S
C7 H0 0.929 . S
C7 C8 1.400 . S
C7 C9 1.364 . S
C8 C7 1.400 . S
C8 C12 1.377 . S
C9 C7 1.364 . S
C9 C10 1.374 . S
C10 H1 0.930 . S
C10 C9 1.374 . S
C10 C11 1.383 . S
C11 O5 1.412 . S
C11 C10 1.383 . S
C11 C12 1.394 . S
C12 H2 0.929 . S
C12 C8 1.377 . S
C12 C11 1.394 . S
H13 C20 0.929 . S
H14 C23 0.930 . S
H15 C25 0.929 . S
H16 C17 0.969 . S
C17 H16 0.969 . S
C17 O18 1.550 . S
C17 H19 0.973 . S
O18 C17 1.550 . S
O18 C24 1.412 . S
H19 C17 0.973 . S
C20 H13 0.929 . S
C20 C21 1.400 . S
C20 C22 1.364 . S
C21 C20 1.400 . S
C21 C25 1.377 . S
C22 C20 1.364 . S
C22 C23 1.374 . S
C23 H14 0.930 . S
C23 C22 1.374 . S
C23 C24 1.383 . S
C24 O18 1.412 . S
C24 C23 1.383 . S
C24 C25 1.394 . S
C25 H15 0.929 . S
C25 C21 1.377 . S
C25 C24 1.394 . S
H26 C33 0.929 . S
H27 C36 0.930 . S
H28 C38 0.929 . S
H29 C30 0.969 . S
C30 H29 0.969 . S
C30 O31 1.550 . S
C30 H32 0.973 . S
O31 C30 1.550 . S
O31 C37 1.412 . S
H32 C30 0.973 . S
C33 H26 0.929 . S
C33 C34 1.400 . S
C33 C35 1.364 . S
C34 C33 1.400 . S
C34 C38 1.377 . S
C35 C33 1.364 . S
C35 C36 1.374 . S
C36 H27 0.930 . S
C36 C35 1.374 . S
C36 C37 1.383 . S
C37 O31 1.412 . S
C37 C36 1.383 . S
C37 C38 1.394 . S
C38 H28 0.929 . S
C38 C34 1.377 . S
C38 C37 1.394 . S
H39 C46 0.929 . S
H40 C49 0.930 . S
H41 C51 0.929 . S
H42 C43 0.969 . S
C43 H42 0.969 . S
C43 O44 1.550 . S
C43 H45 0.973 . S
O44 C43 1.550 . S
O44 C50 1.412 . S
H45 C43 0.973 . S
C46 H39 0.929 . S
C46 C47 1.400 . S
C46 C48 1.364 . S
C47 C46 1.400 . S
C47 C51 1.377 . S
C48 C46 1.364 . S
C48 C49 1.374 . S
C49 H40 0.930 . S
C49 C48 1.374 . S
C49 C50 1.383 . S
C50 O44 1.412 . S
C50 C49 1.383 . S
C50 C51 1.394 . S
C51 H41 0.929 . S
C51 C47 1.377 . S
C51 C50 1.394 . S
H52 C59 0.929 . S
H53 C62 0.930 . S
H54 C64 0.929 . S
H55 C56 0.969 . S
C56 H55 0.969 . S
C56 O57 1.550 . S
C56 H58 0.973 . S
O57 C56 1.550 . S
O57 C63 1.412 . S
H58 C56 0.973 . S
C59 H52 0.929 . S
C59 C60 1.400 . S
C59 C61 1.364 . S
C60 C59 1.400 . S
C60 C64 1.377 . S
C61 C59 1.364 . S
C61 C62 1.374 . S
C62 H53 0.930 . S
C62 C61 1.374 . S
C62 C63 1.383 . S
C63 O57 1.412 . S
C63 C62 1.383 . S
C63 C64 1.394 . S
C64 H54 0.929 . S
C64 C60 1.377 . S
C64 C63 1.394 . S
H65 C72 0.929 . S
H66 C75 0.930 . S
H67 C77 0.929 . S
H68 C69 0.969 . S
C69 H68 0.969 . S
C69 O70 1.550 . S
C69 H71 0.973 . S
O70 C69 1.550 . S
O70 C76 1.412 . S
H71 C69 0.973 . S
C72 H65 0.929 . S
C72 C73 1.400 . S
C72 C74 1.364 . S
C73 C72 1.400 . S
C73 C77 1.377 . S
C74 C72 1.364 . S
C74 C75 1.374 . S
C75 H66 0.930 . S
C75 C74 1.374 . S
C75 C76 1.383 . S
C76 O70 1.412 . S
C76 C75 1.383 . S
C76 C77 1.394 . S
C77 H67 0.929 . S
C77 C73 1.377 . S
C77 C76 1.394 . S
H78 C85 0.929 . S
H79 C88 0.930 . S
H80 C90 0.929 . S
H81 C82 0.969 . S
C82 H81 0.969 . S
C82 O83 1.550 . S
C82 H84 0.973 . S
O83 C82 1.550 . S
O83 C89 1.412 . S
H84 C82 0.973 . S
C85 H78 0.929 . S
C85 C86 1.400 . S
C85 C87 1.364 . S
C86 C85 1.400 . S
C86 C90 1.377 . S
C87 C85 1.364 . S
C87 C88 1.374 . S
C88 H79 0.930 . S
C88 C87 1.374 . S
C88 C89 1.383 . S
C89 O83 1.412 . S
C89 C88 1.383 . S
C89 C90 1.394 . S
C90 H80 0.929 . S
C90 C86 1.377 . S
C90 C89 1.394 . S
H91 C98 0.929 . S
H92 C101 0.930 . S
H93 C103 0.929 . S
H94 C95 0.969 . S
C95 H94 0.969 . S
C95 O96 1.550 . S
C95 H97 0.973 . S
O96 C95 1.550 . S
O96 C102 1.412 . S
H97 C95 0.973 . S
C98 H91 0.929 . S
C98 C99 1.400 . S
C98 C100 1.364 . S
C99 C98 1.400 . S
C99 C103 1.377 . S
C100 C98 1.364 . S
C100 C101 1.374 . S
C101 H92 0.930 . S
C101 C100 1.374 . S
C101 C102 1.383 . S
C102 O96 1.412 . S
C102 C101 1.383 . S
C102 C103 1.394 . S
C103 H93 0.929 . S
C103 C99 1.377 . S
C103 C102 1.394 . S
C104 C106 1.422 . S
C104 C108 1.415 . S
C104 N110 1.369 . S
C105 C106 1.421 . S
C105 C107 1.417 . S
C105 C117 1.423 1_545 S
C106 C104 1.422 . S
C106 C105 1.421 . S
C106 N116 1.359 . S
C107 C105 1.417 . S
C107 C109 1.329 . S
C107 H126 0.930 . S
C108 C104 1.415 . S
C108 C109 1.437 . S
C108 C112 1.413 . S
C109 C107 1.329 . S
C109 C108 1.437 . S
C109 H131 0.929 . S
N110 C104 1.369 . S
N110 C111 1.338 . S
N110 Gd115 2.622 . S
C111 N110 1.338 . S
C111 C113 1.378 . S
C111 H123 0.929 . S
C112 C108 1.413 . S
C112 C113 1.348 . S
C112 H128 0.931 . S
C113 C111 1.378 . S
C113 C112 1.348 . S
C113 H129 0.930 . S
Gd114 N134 2.622 . S
Gd114 N141 2.570 . S
Gd114 O148 2.353 . S
Gd114 O149 2.468 . S
Gd114 O150 2.427 . S
Gd114 O152 2.388 . S
Gd114 O153 2.386 . S
Gd114 O157 2.307 . S
Gd114 C167 2.805 . S
Gd115 N110 2.622 . S
Gd115 N116 2.570 . S
Gd115 O147 2.386 . S
Gd115 O151 2.307 1_655 S
Gd115 O154 2.353 1_655 S
Gd115 O155 2.468 . S
Gd115 O156 2.427 . S
Gd115 O158 2.388 . S
Gd115 C179 2.805 . S
N116 C106 1.359 . S
N116 Gd115 2.570 . S
N116 C118 1.343 . S
C117 C105 1.423 1_565 S
C117 C119 1.321 1_565 S
C117 H125 0.930 . S
C118 N116 1.343 . S
C118 C119 1.390 . S
C118 H120 0.931 . S
C119 C117 1.321 1_545 S
C119 C118 1.390 . S
C119 H121 0.930 1_545 S
H120 C118 0.931 . S
H121 C119 0.930 1_565 S
H122 C145 0.931 . S
H123 C111 0.929 . S
H124 C146 0.930 . S
H125 C117 0.930 . S
H126 C107 0.930 . S
H127 C136 0.929 . S
H128 C112 0.931 . S
H129 C113 0.930 . S
H130 C168 0.930 . S
H131 C109 0.929 . S
H132 C137 0.931 . S
H133 C138 0.930 . S
N134 Gd114 2.622 . S
N134 C135 1.369 . S
N134 C136 1.338 . S
C135 N134 1.369 . S
C135 C139 1.415 . S
C135 C142 1.422 . S
C136 H127 0.929 . S
C136 N134 1.338 . S
C136 C138 1.378 . S
C137 H132 0.931 . S
C137 C138 1.348 . S
C137 C139 1.413 . S
C138 H133 0.930 . S
C138 C136 1.378 . S
C138 C137 1.348 . S
C139 C135 1.415 . S
C139 C137 1.413 . S
C139 C169 1.437 . S
H140 C169 0.929 . S
N141 Gd114 2.570 . S
N141 C142 1.359 . S
N141 C145 1.343 . S
C142 C135 1.422 . S
C142 N141 1.359 . S
C142 C144 1.421 . S
C143 C144 1.422 . S
C143 C146 1.321 . S
C143 H170 0.931 . S
C144 C142 1.421 . S
C144 C143 1.422 . S
C144 C168 1.417 . S
C145 H122 0.931 . S
C145 N141 1.343 . S
C145 C146 1.390 . S
C146 H124 0.930 . S
C146 C143 1.321 . S
C146 C145 1.390 . S
O147 Gd115 2.386 . S
O147 C159 1.265 . S
O148 Gd114 2.353 . S
O148 C159 1.242 1_455 S
O149 Gd114 2.468 . S
O149 C167 1.263 . S
O150 Gd114 2.427 . S
O150 C167 1.252 . S
O151 Gd115 2.307 1_455 S
O151 C160 1.261 . S
O152 Gd114 2.388 . S
O152 C160 1.252 . S
O153 Gd114 2.386 . S
O153 C171 1.265 . S
O154 Gd115 2.353 1_455 S
O154 C171 1.242 . S
O155 Gd115 2.468 . S
O155 C179 1.263 . S
O156 Gd115 2.427 . S
O156 C179 1.252 . S
O157 Gd114 2.307 . S
O157 C172 1.261 1_455 S
O158 Gd115 2.388 . S
O158 C172 1.252 . S
C159 O147 1.265 . S
C159 O148 1.242 1_655 S
C160 O151 1.261 . S
C160 O152 1.252 . S
C161 C164 1.394 . S
C161 C166 1.370 . S
C161 C167 1.500 . S
C162 C165 1.383 . S
C162 C166 1.395 . S
C163 C164 1.396 . S
C163 C165 1.365 . S
C163 H180 0.929 . S
C164 C161 1.394 . S
C164 C163 1.396 . S
C164 H181 0.930 . S
C165 C162 1.383 . S
C165 C163 1.365 . S
C165 H182 0.931 . S
C166 C161 1.370 . S
C166 C162 1.395 . S
C166 H183 0.930 . S
C167 Gd114 2.805 . S
C167 O149 1.263 . S
C167 O150 1.252 . S
C167 C161 1.500 . S
C168 H130 0.930 . S
C168 C144 1.417 . S
C168 C169 1.329 . S
C169 C139 1.437 . S
C169 H140 0.929 . S
C169 C168 1.329 . S
H170 C143 0.931 . S
C171 O153 1.265 . S
C171 O154 1.242 . S
C172 O157 1.261 1_655 S
C172 O158 1.252 . S
C173 C176 1.394 . S
C173 C178 1.370 . S
C173 C179 1.500 . S
C174 C177 1.383 . S
C174 C178 1.395 . S
C175 C176 1.396 . S
C175 C177 1.365 . S
C175 H184 0.929 . S
C176 C173 1.394 . S
C176 C175 1.396 . S
C176 H185 0.930 . S
C177 C174 1.383 . S
C177 C175 1.365 . S
C177 H186 0.931 . S
C178 C173 1.370 . S
C178 C174 1.395 . S
C178 H187 0.930 . S
C179 Gd115 2.805 . S
C179 O155 1.263 . S
C179 O156 1.252 . S
C179 C173 1.500 . S
H180 C163 0.929 . S
H181 C164 0.930 . S
H182 C165 0.931 . S
H183 C166 0.930 . S
H184 C175 0.929 . S
H185 C176 0.930 . S
H186 C177 0.931 . S
H187 C178 0.930 . S
C188 C190 1.422 . S
C188 C192 1.415 . S
C188 N194 1.369 . S
C189 C190 1.421 . S
C189 C191 1.417 . S
C189 C201 1.422 . S
C190 C188 1.422 . S
C190 C189 1.421 . S
C190 N200 1.359 . S
C191 C189 1.417 . S
C191 C193 1.329 . S
C191 H210 0.930 . S
C192 C188 1.415 . S
C192 C193 1.437 . S
C192 C196 1.413 . S
C193 C191 1.329 . S
C193 C192 1.437 . S
C193 H215 0.929 . S
N194 C188 1.369 . S
N194 C195 1.338 . S
N194 Gd199 2.622 . S
C195 N194 1.338 . S
C195 C197 1.378 . S
C195 H207 0.929 . S
C196 C192 1.413 . S
C196 C197 1.348 . S
C196 H212 0.931 . S
C197 C195 1.378 . S
C197 C196 1.348 . S
C197 H213 0.930 . S
Gd198 N218 2.622 . S
Gd198 N225 2.570 . S
Gd198 O232 2.353 . S
Gd198 O233 2.468 . S
Gd198 O234 2.427 . S
Gd198 O236 2.388 . S
Gd198 O237 2.386 . S
Gd198 O241 2.307 . S
Gd198 C251 2.805 . S
Gd199 N194 2.622 . S
Gd199 N200 2.570 . S
Gd199 O231 2.386 . S
Gd199 O235 2.307 . S
Gd199 O238 2.353 . S
Gd199 O239 2.468 . S
Gd199 O240 2.427 . S
Gd199 O242 2.388 . S
Gd199 C263 2.805 . S
N200 C190 1.359 . S
N200 Gd199 2.570 . S
N200 C202 1.343 . S
C201 C189 1.422 . S
C201 C203 1.321 . S
C201 H209 0.931 . S
C202 N200 1.343 . S
C202 C203 1.390 . S
C202 H204 0.931 . S
C203 C201 1.321 . S
C203 C202 1.390 . S
C203 H205 0.930 . S
H204 C202 0.931 . S
H205 C203 0.930 . S
H206 C229 0.931 . S
H207 C195 0.929 . S
H208 C230 0.930 . S
H209 C201 0.931 . S
H210 C191 0.930 . S
H211 C220 0.929 . S
H212 C196 0.931 . S
H213 C197 0.930 . S
H214 C252 0.930 . S
H215 C193 0.929 . S
H216 C221 0.931 . S
H217 C222 0.930 . S
N218 Gd198 2.622 . S
N218 C219 1.369 . S
N218 C220 1.338 . S
C219 N218 1.369 . S
C219 C223 1.415 . S
C219 C226 1.422 . S
C220 H211 0.929 . S
C220 N218 1.338 . S
C220 C222 1.378 . S
C221 H216 0.931 . S
C221 C222 1.348 . S
C221 C223 1.413 . S
C222 H217 0.930 . S
C222 C220 1.378 . S
C222 C221 1.348 . S
C223 C219 1.415 . S
C223 C221 1.413 . S
C223 C253 1.437 . S
H224 C253 0.929 . S
N225 Gd198 2.570 . S
N225 C226 1.359 . S
N225 C229 1.343 . S
C226 C219 1.422 . S
C226 N225 1.359 . S
C226 C228 1.421 . S
C227 C228 1.422 . S
C227 C230 1.321 . S
C227 H254 0.931 . S
C228 C226 1.421 . S
C228 C227 1.422 . S
C228 C252 1.417 . S
C229 H206 0.931 . S
C229 N225 1.343 . S
C229 C230 1.390 . S
C230 H208 0.930 . S
C230 C227 1.321 . S
C230 C229 1.390 . S
O231 Gd199 2.386 . S
O231 C243 1.265 . S
O232 Gd198 2.353 . S
O232 C243 1.242 . S
O233 Gd198 2.468 . S
O233 C251 1.263 . S
O234 Gd198 2.427 . S
O234 C251 1.252 . S
O235 Gd199 2.307 . S
O235 C244 1.261 . S
O236 Gd198 2.388 . S
O236 C244 1.252 . S
O237 Gd198 2.386 . S
O237 C255 1.265 . S
O238 Gd199 2.353 . S
O238 C255 1.242 . S
O239 Gd199 2.468 . S
O239 C263 1.263 . S
O240 Gd199 2.427 . S
O240 C263 1.252 . S
O241 Gd198 2.307 . S
O241 C256 1.261 . S
O242 Gd199 2.388 . S
O242 C256 1.252 . S
C243 O231 1.265 . S
C243 O232 1.242 . S
C244 O235 1.261 . S
C244 O236 1.252 . S
C245 C248 1.394 . S
C245 C250 1.370 . S
C245 C251 1.500 . S
C246 C249 1.383 . S
C246 C250 1.395 . S
C247 C248 1.396 . S
C247 C249 1.365 . S
C247 H264 0.929 . S
C248 C245 1.394 . S
C248 C247 1.396 . S
C248 H265 0.930 . S
C249 C246 1.383 . S
C249 C247 1.365 . S
C249 H266 0.931 . S
C250 C245 1.370 . S
C250 C246 1.395 . S
C250 H267 0.930 . S
C251 Gd198 2.805 . S
C251 O233 1.263 . S
C251 O234 1.252 . S
C251 C245 1.500 . S
C252 H214 0.930 . S
C252 C228 1.417 . S
C252 C253 1.329 . S
C253 C223 1.437 . S
C253 H224 0.929 . S
C253 C252 1.329 . S
H254 C227 0.931 . S
C255 O237 1.265 . S
C255 O238 1.242 . S
C256 O241 1.261 . S
C256 O242 1.252 . S
C257 C260 1.394 . S
C257 C262 1.370 . S
C257 C263 1.500 . S
C258 C261 1.383 . S
C258 C262 1.395 . S
C259 C260 1.396 . S
C259 C261 1.365 . S
C259 H268 0.929 . S
C260 C257 1.394 . S
C260 C259 1.396 . S
C260 H269 0.930 . S
C261 C258 1.383 . S
C261 C259 1.365 . S
C261 H270 0.931 . S
C262 C257 1.370 . S
C262 C258 1.395 . S
C262 H271 0.930 . S
C263 Gd199 2.805 . S
C263 O239 1.263 . S
C263 O240 1.252 . S
C263 C257 1.500 . S
H264 C247 0.929 . S
H265 C248 0.930 . S
H266 C249 0.931 . S
H267 C250 0.930 . S
H268 C259 0.929 . S
H269 C260 0.930 . S
H270 C261 0.931 . S
H271 C262 0.930 . S
C272 C274 1.422 . S
C272 C276 1.415 . S
C272 N278 1.369 . S
C273 C274 1.421 . S
C273 C275 1.417 . S
C273 C285 1.422 . S
C274 C272 1.422 . S
C274 C273 1.421 . S
C274 N284 1.359 . S
C275 C273 1.417 . S
C275 C277 1.329 . S
C275 H294 0.930 . S
C276 C272 1.415 . S
C276 C277 1.437 . S
C276 C280 1.413 . S
C277 C275 1.329 . S
C277 C276 1.437 . S
C277 H299 0.929 . S
N278 C272 1.369 . S
N278 C279 1.338 . S
N278 Gd283 2.622 . S
C279 N278 1.338 . S
C279 C281 1.378 . S
C279 H291 0.929 . S
C280 C276 1.413 . S
C280 C281 1.348 . S
C280 H296 0.931 . S
C281 C279 1.378 . S
C281 C280 1.348 . S
C281 H297 0.930 . S
Gd282 N302 2.622 . S
Gd282 N309 2.570 . S
Gd282 O316 2.353 . S
Gd282 O317 2.468 . S
Gd282 O318 2.427 . S
Gd282 O320 2.388 . S
Gd282 O321 2.386 . S
Gd282 O325 2.307 . S
Gd282 C335 2.805 . S
Gd283 N278 2.622 . S
Gd283 N284 2.570 . S
Gd283 O315 2.386 . S
Gd283 O319 2.307 1_655 S
Gd283 O322 2.353 1_655 S
Gd283 O323 2.468 . S
Gd283 O324 2.427 . S
Gd283 O326 2.388 . S
Gd283 C347 2.805 . S
N284 C274 1.359 . S
N284 Gd283 2.570 . S
N284 C286 1.343 . S
C285 C273 1.422 . S
C285 C287 1.321 . S
C285 H293 0.931 . S
C286 N284 1.343 . S
C286 C287 1.390 . S
C286 H288 0.931 . S
C287 C285 1.321 . S
C287 C286 1.390 . S
C287 H289 0.930 . S
H288 C286 0.931 . S
H289 C287 0.930 . S
H290 C313 0.931 . S
H291 C279 0.929 . S
H292 C314 0.930 1_545 S
H293 C285 0.931 . S
H294 C275 0.930 . S
H295 C304 0.929 . S
H296 C280 0.931 . S
H297 C281 0.930 . S
H298 C336 0.930 . S
H299 C277 0.929 . S
H300 C305 0.931 . S
H301 C306 0.930 . S
N302 Gd282 2.622 . S
N302 C303 1.369 . S
N302 C304 1.338 . S
C303 N302 1.369 . S
C303 C307 1.415 . S
C303 C310 1.422 . S
C304 H295 0.929 . S
C304 N302 1.338 . S
C304 C306 1.378 . S
C305 H300 0.931 . S
C305 C306 1.348 . S
C305 C307 1.413 . S
C306 H301 0.930 . S
C306 C304 1.378 . S
C306 C305 1.348 . S
C307 C303 1.415 . S
C307 C305 1.413 . S
C307 C337 1.437 . S
H308 C337 0.929 . S
N309 Gd282 2.570 . S
N309 C310 1.359 . S
N309 C313 1.343 . S
C310 C303 1.422 . S
C310 N309 1.359 . S
C310 C312 1.421 . S
C311 C312 1.422 1_545 S
C311 C314 1.321 1_545 S
C311 H338 0.931 . S
C312 C310 1.421 . S
C312 C311 1.422 1_565 S
C312 C336 1.417 . S
C313 H290 0.931 . S
C313 N309 1.343 . S
C313 C314 1.390 . S
C314 H292 0.930 1_565 S
C314 C311 1.321 1_565 S
C314 C313 1.390 . S
O315 Gd283 2.386 . S
O315 C327 1.265 . S
O316 Gd282 2.353 . S
O316 C327 1.242 1_455 S
O317 Gd282 2.468 . S
O317 C335 1.263 . S
O318 Gd282 2.427 . S
O318 C335 1.252 . S
O319 Gd283 2.307 1_455 S
O319 C328 1.261 . S
O320 Gd282 2.388 . S
O320 C328 1.252 . S
O321 Gd282 2.386 . S
O321 C339 1.265 . S
O322 Gd283 2.353 1_455 S
O322 C339 1.242 . S
O323 Gd283 2.468 . S
O323 C347 1.263 . S
O324 Gd283 2.427 . S
O324 C347 1.252 . S
O325 Gd282 2.307 . S
O325 C340 1.261 1_455 S
O326 Gd283 2.388 . S
O326 C340 1.252 . S
C327 O315 1.265 . S
C327 O316 1.242 1_655 S
C328 O319 1.261 . S
C328 O320 1.252 . S
C329 C332 1.394 . S
C329 C334 1.370 . S
C329 C335 1.500 . S
C330 C333 1.383 . S
C330 C334 1.395 . S
C331 C332 1.396 . S
C331 C333 1.365 . S
C331 H348 0.929 . S
C332 C329 1.394 . S
C332 C331 1.396 . S
C332 H349 0.930 . S
C333 C330 1.383 . S
C333 C331 1.365 . S
C333 H350 0.931 . S
C334 C329 1.370 . S
C334 C330 1.395 . S
C334 H351 0.930 . S
C335 Gd282 2.805 . S
C335 O317 1.263 . S
C335 O318 1.252 . S
C335 C329 1.500 . S
C336 H298 0.930 . S
C336 C312 1.417 . S
C336 C337 1.329 . S
C337 C307 1.437 . S
C337 H308 0.929 . S
C337 C336 1.329 . S
H338 C311 0.931 . S
C339 O321 1.265 . S
C339 O322 1.242 . S
C340 O325 1.261 1_655 S
C340 O326 1.252 . S
C341 C344 1.394 . S
C341 C346 1.370 . S
C341 C347 1.500 . S
C342 C345 1.383 . S
C342 C346 1.395 . S
C343 C344 1.396 . S
C343 C345 1.365 . S
C343 H352 0.929 . S
C344 C341 1.394 . S
C344 C343 1.396 . S
C344 H353 0.930 . S
C345 C342 1.383 . S
C345 C343 1.365 . S
C345 H354 0.931 . S
C346 C341 1.370 . S
C346 C342 1.395 . S
C346 H355 0.930 . S
C347 Gd283 2.805 . S
C347 O323 1.263 . S
C347 O324 1.252 . S
C347 C341 1.500 . S
H348 C331 0.929 . S
H349 C332 0.930 . S
H350 C333 0.931 . S
H351 C334 0.930 . S
H352 C343 0.929 . S
H353 C344 0.930 . S
H354 C345 0.931 . S
H355 C346 0.930 . S
C356 C358 1.422 . S
C356 C360 1.415 . S
C356 N362 1.369 . S
C357 C358 1.421 . S
C357 C359 1.417 . S
C357 C369 1.422 . S
C358 C356 1.422 . S
C358 C357 1.421 . S
C358 N368 1.359 . S
C359 C357 1.417 . S
C359 C361 1.329 . S
C359 H378 0.930 . S
C360 C356 1.415 . S
C360 C361 1.437 . S
C360 C364 1.413 . S
C361 C359 1.329 . S
C361 C360 1.437 . S
C361 H383 0.929 . S
N362 C356 1.369 . S
N362 C363 1.338 . S
N362 Gd367 2.622 . S
C363 N362 1.338 . S
C363 C365 1.378 . S
C363 H375 0.929 . S
C364 C360 1.413 . S
C364 C365 1.348 . S
C364 H380 0.931 . S
C365 C363 1.378 . S
C365 C364 1.348 . S
C365 H381 0.930 . S
Gd366 N386 2.622 . S
Gd366 N393 2.570 . S
Gd366 O400 2.353 . S
Gd366 O401 2.468 . S
Gd366 O402 2.427 . S
Gd366 O404 2.388 . S
Gd366 O405 2.386 . S
Gd366 O409 2.307 . S
Gd366 C419 2.805 . S
Gd367 N362 2.622 . S
Gd367 N368 2.570 . S
Gd367 O399 2.386 . S
Gd367 O403 2.307 . S
Gd367 O406 2.353 . S
Gd367 O407 2.468 . S
Gd367 O408 2.427 . S
Gd367 O410 2.388 . S
Gd367 C431 2.805 . S
N368 C358 1.359 . S
N368 Gd367 2.570 . S
N368 C370 1.343 . S
C369 C357 1.422 . S
C369 C371 1.321 . S
C369 H377 0.931 . S
C370 N368 1.343 . S
C370 C371 1.390 . S
C370 H372 0.931 . S
C371 C369 1.321 . S
C371 C370 1.390 . S
C371 H373 0.930 . S
H372 C370 0.931 . S
H373 C371 0.930 . S
H374 C397 0.931 . S
H375 C363 0.929 . S
H376 C398 0.930 . S
H377 C369 0.931 . S
H378 C359 0.930 . S
H379 C388 0.929 . S
H380 C364 0.931 . S
H381 C365 0.930 . S
H382 C420 0.930 . S
H383 C361 0.929 . S
H384 C389 0.931 . S
H385 C390 0.930 . S
N386 Gd366 2.622 . S
N386 C387 1.369 . S
N386 C388 1.338 . S
C387 N386 1.369 . S
C387 C391 1.415 . S
C387 C394 1.422 . S
C388 H379 0.929 . S
C388 N386 1.338 . S
C388 C390 1.378 . S
C389 H384 0.931 . S
C389 C390 1.348 . S
C389 C391 1.413 . S
C390 H385 0.930 . S
C390 C388 1.378 . S
C390 C389 1.348 . S
C391 C387 1.415 . S
C391 C389 1.413 . S
C391 C421 1.437 . S
H392 C421 0.929 . S
N393 Gd366 2.570 . S
N393 C394 1.359 . S
N393 C397 1.343 . S
C394 C387 1.422 . S
C394 N393 1.359 . S
C394 C396 1.421 . S
C395 C396 1.422 . S
C395 C398 1.321 . S
C395 H422 0.931 . S
C396 C394 1.421 . S
C396 C395 1.422 . S
C396 C420 1.417 . S
C397 H374 0.931 . S
C397 N393 1.343 . S
C397 C398 1.390 . S
C398 H376 0.930 . S
C398 C395 1.321 . S
C398 C397 1.390 . S
O399 Gd367 2.386 . S
O399 C411 1.265 . S
O400 Gd366 2.353 . S
O400 C411 1.242 . S
O401 Gd366 2.468 . S
O401 C419 1.263 . S
O402 Gd366 2.427 . S
O402 C419 1.252 . S
O403 Gd367 2.307 . S
O403 C412 1.261 . S
O404 Gd366 2.388 . S
O404 C412 1.252 . S
O405 Gd366 2.386 . S
O405 C423 1.265 . S
O406 Gd367 2.353 . S
O406 C423 1.242 . S
O407 Gd367 2.468 . S
O407 C431 1.263 . S
O408 Gd367 2.427 . S
O408 C431 1.252 . S
O409 Gd366 2.307 . S
O409 C424 1.261 . S
O410 Gd367 2.388 . S
O410 C424 1.252 . S
C411 O399 1.265 . S
C411 O400 1.242 . S
C412 O403 1.261 . S
C412 O404 1.252 . S
C413 C416 1.394 . S
C413 C418 1.370 . S
C413 C419 1.500 . S
C414 C417 1.383 . S
C414 C418 1.395 . S
C415 C416 1.396 . S
C415 C417 1.365 . S
C415 H432 0.929 . S
C416 C413 1.394 . S
C416 C415 1.396 . S
C416 H433 0.930 . S
C417 C414 1.383 . S
C417 C415 1.365 . S
C417 H434 0.931 . S
C418 C413 1.370 . S
C418 C414 1.395 . S
C418 H435 0.930 . S
C419 Gd366 2.805 . S
C419 O401 1.263 . S
C419 O402 1.252 . S
C419 C413 1.500 . S
C420 H382 0.930 . S
C420 C396 1.417 . S
C420 C421 1.329 . S
C421 C391 1.437 . S
C421 H392 0.929 . S
C421 C420 1.329 . S
H422 C395 0.931 . S
C423 O405 1.265 . S
C423 O406 1.242 . S
C424 O409 1.261 . S
C424 O410 1.252 . S
C425 C428 1.394 . S
C425 C430 1.370 . S
C425 C431 1.500 . S
C426 C429 1.383 . S
C426 C430 1.395 . S
C427 C428 1.396 . S
C427 C429 1.365 . S
C427 H436 0.929 . S
C428 C425 1.394 . S
C428 C427 1.396 . S
C428 H437 0.930 . S
C429 C426 1.383 . S
C429 C427 1.365 . S
C429 H438 0.931 . S
C430 C425 1.370 . S
C430 C426 1.395 . S
C430 H439 0.930 . S
C431 Gd367 2.805 . S
C431 O407 1.263 . S
C431 O408 1.252 . S
C431 C425 1.500 . S
H432 C415 0.929 . S
H433 C416 0.930 . S
H434 C417 0.931 . S
H435 C418 0.930 . S
H436 C427 0.929 . S
H437 C428 0.930 . S
H438 C429 0.931 . S
H439 C430 0.930 . S
H440 C448 0.950 . S
H441 C453 0.950 . S
H442 C450 0.950 . S
H443 C452 0.950 . S
H444 C454 0.950 . S
H445 C456 0.950 . S
H446 C458 0.950 . S
H447 C459 0.950 . S
C448 H440 0.950 . S
C448 C449 1.386 . S
C448 C450 1.391 . S
C449 C448 1.386 . S
C449 C453 1.393 . S
C450 H442 0.950 . S
C450 C448 1.391 . S
C450 C451 1.400 . S
C451 C450 1.400 . S
C451 C452 1.398 . S
C451 C457 1.491 . S
C452 H443 0.950 . S
C452 C451 1.398 . S
C452 C453 1.391 . S
C453 H441 0.950 . S
C453 C449 1.393 . S
C453 C452 1.391 . S
C454 H444 0.950 . S
C454 C455 1.386 . S
C454 C456 1.391 1_545 S
C455 C454 1.386 . S
C455 C459 1.393 . S
C456 H445 0.950 . S
C456 C454 1.391 1_565 S
C456 C457 1.400 . S
C457 C451 1.491 . S
C457 C456 1.400 . S
C457 C458 1.398 1_565 S
C458 H446 0.950 . S
C458 C457 1.398 1_545 S
C458 C459 1.391 . S
C459 H447 0.950 . S
C459 C455 1.393 . S
C459 C458 1.391 . S
H460 C468 0.950 . S
H461 C473 0.950 . S
H462 C470 0.950 . S
H463 C472 0.950 . S
H464 C474 0.950 . S
H465 C476 0.950 . S
H466 C478 0.950 . S
H467 C479 0.950 . S
C468 H460 0.950 . S
C468 C469 1.386 . S
C468 C470 1.391 . S
C469 C468 1.386 . S
C469 C473 1.393 . S
C470 H462 0.950 . S
C470 C468 1.391 . S
C470 C471 1.400 . S
C471 C470 1.400 . S
C471 C472 1.398 . S
C471 C477 1.491 . S
C472 H463 0.950 . S
C472 C471 1.398 . S
C472 C473 1.391 . S
C473 H461 0.950 . S
C473 C469 1.393 . S
C473 C472 1.391 . S
C474 H464 0.950 . S
C474 C475 1.386 . S
C474 C476 1.391 . S
C475 C474 1.386 . S
C475 C479 1.393 . S
C476 H465 0.950 . S
C476 C474 1.391 . S
C476 C477 1.400 . S
C477 C471 1.491 . S
C477 C476 1.400 . S
C477 C478 1.398 . S
C478 H466 0.950 . S
C478 C477 1.398 . S
C478 C479 1.391 . S
C479 H467 0.950 . S
C479 C475 1.393 . S
C479 C478 1.391 . S
H480 C488 0.950 . S
H481 C493 0.950 . S
H482 C490 0.950 . S
H483 C492 0.950 . S
H484 C494 0.950 . S
H485 C496 0.950 . S
H486 C498 0.950 . S
H487 C499 0.950 . S
C488 H480 0.950 . S
C488 C489 1.386 . S
C488 C490 1.391 . S
C489 C488 1.386 . S
C489 C493 1.393 . S
C490 H482 0.950 . S
C490 C488 1.391 . S
C490 C491 1.400 . S
C491 C490 1.400 . S
C491 C492 1.398 . S
C491 C497 1.491 . S
C492 H483 0.950 . S
C492 C491 1.398 . S
C492 C493 1.391 . S
C493 H481 0.950 . S
C493 C489 1.393 . S
C493 C492 1.391 . S
C494 H484 0.950 . S
C494 C495 1.386 . S
C494 C496 1.391 . S
C495 C494 1.386 . S
C495 C499 1.393 . S
C496 H485 0.950 . S
C496 C494 1.391 . S
C496 C497 1.400 . S
C497 C491 1.491 . S
C497 C496 1.400 . S
C497 C498 1.398 . S
C498 H486 0.950 . S
C498 C497 1.398 . S
C498 C499 1.391 . S
C499 H487 0.950 . S
C499 C495 1.393 . S
C499 C498 1.391 . S
H500 C508 0.950 . S
H501 C513 0.950 . S
H502 C510 0.950 . S
H503 C512 0.950 . S
H504 C514 0.950 . S
H505 C516 0.950 . S
H506 C518 0.950 1_565 S
H507 C519 0.950 . S
C508 H500 0.950 . S
C508 C509 1.386 . S
C508 C510 1.391 . S
C509 C508 1.386 . S
C509 C513 1.393 . S
C510 H502 0.950 . S
C510 C508 1.391 . S
C510 C511 1.400 . S
C511 C510 1.400 . S
C511 C512 1.398 . S
C511 C517 1.491 . S
C512 H503 0.950 . S
C512 C511 1.398 . S
C512 C513 1.391 . S
C513 H501 0.950 . S
C513 C509 1.393 . S
C513 C512 1.391 . S
C514 H504 0.950 . S
C514 C515 1.386 . S
C514 C516 1.391 1_545 S
C515 C514 1.386 . S
C515 C519 1.393 . S
C516 H505 0.950 . S
C516 C514 1.391 1_565 S
C516 C517 1.400 . S
C517 C511 1.491 . S
C517 C516 1.400 . S
C517 C518 1.398 1_565 S
C518 H506 0.950 1_545 S
C518 C517 1.398 1_545 S
C518 C519 1.391 . S
C519 H507 0.950 . S
C519 C515 1.393 . S
C519 C518 1.391 . S
H520 C528 0.950 . S
H521 C533 0.950 . S
H522 C530 0.950 . S
H523 C532 0.950 . S
H524 C534 0.950 . S
H525 C536 0.950 . S
H526 C538 0.950 . S
H527 C539 0.950 1_455 S
C528 H520 0.950 . S
C528 C529 1.386 . S
C528 C530 1.391 . S
C529 C528 1.386 . S
C529 C533 1.393 . S
C530 H522 0.950 . S
C530 C528 1.391 . S
C530 C531 1.400 . S
C531 C530 1.400 . S
C531 C532 1.398 . S
C531 C537 1.491 . S
C532 H523 0.950 . S
C532 C531 1.398 . S
C532 C533 1.391 . S
C533 H521 0.950 . S
C533 C529 1.393 . S
C533 C532 1.391 . S
C534 H524 0.950 . S
C534 C535 1.386 . S
C534 C536 1.391 . S
C535 C534 1.386 . S
C535 C539 1.393 . S
C536 H525 0.950 . S
C536 C534 1.391 . S
C536 C537 1.400 1_565 S
C537 C531 1.491 . S
C537 C536 1.400 1_545 S
C537 C538 1.398 . S
C538 H526 0.950 . S
C538 C537 1.398 . S
C538 C539 1.391 1_545 S
C539 H527 0.950 1_655 S
C539 C535 1.393 . S
C539 C538 1.391 1_565 S
H540 C548 0.950 . S
H541 C553 0.950 . S
H542 C550 0.950 . S
H543 C552 0.950 . S
H544 C554 0.950 . S
H545 C556 0.950 . S
H546 C558 0.950 . S
H547 C559 0.950 . S
C548 H540 0.950 . S
C548 C549 1.386 . S
C548 C550 1.391 . S
C549 C548 1.386 . S
C549 C553 1.393 . S
C550 H542 0.950 . S
C550 C548 1.391 . S
C550 C551 1.400 . S
C551 C550 1.400 . S
C551 C552 1.398 . S
C551 C557 1.491 . S
C552 H543 0.950 . S
C552 C551 1.398 . S
C552 C553 1.391 . S
C553 H541 0.950 . S
C553 C549 1.393 . S
C553 C552 1.391 . S
C554 H544 0.950 . S
C554 C555 1.386 . S
C554 C556 1.391 . S
C555 C554 1.386 . S
C555 C559 1.393 . S
C556 H545 0.950 . S
C556 C554 1.391 . S
C556 C557 1.400 . S
C557 C551 1.491 . S
C557 C556 1.400 . S
C557 C558 1.398 . S
C558 H546 0.950 . S
C558 C557 1.398 . S
C558 C559 1.391 . S
C559 H547 0.950 . S
C559 C555 1.393 . S
C559 C558 1.391 . S
H560 C568 0.950 . S
H561 C573 0.950 . S
H562 C570 0.950 . S
H563 C572 0.950 . S
H564 C574 0.950 . S
H565 C576 0.950 . S
H566 C578 0.950 . S
H567 C579 0.950 . S
C568 H560 0.950 . S
C568 C569 1.386 . S
C568 C570 1.391 . S
C569 C568 1.386 . S
C569 C573 1.393 . S
C570 H562 0.950 . S
C570 C568 1.391 . S
C570 C571 1.400 . S
C571 C570 1.400 . S
C571 C572 1.398 . S
C571 C577 1.491 . S
C572 H563 0.950 . S
C572 C571 1.398 . S
C572 C573 1.391 . S
C573 H561 0.950 . S
C573 C569 1.393 . S
C573 C572 1.391 . S
C574 H564 0.950 . S
C574 C575 1.386 . S
C574 C576 1.391 . S
C575 C574 1.386 . S
C575 C579 1.393 . S
C576 H565 0.950 . S
C576 C574 1.391 . S
C576 C577 1.400 . S
C577 C571 1.491 . S
C577 C576 1.400 . S
C577 C578 1.398 . S
C578 H566 0.950 . S
C578 C577 1.398 . S
C578 C579 1.391 . S
C579 H567 0.950 . S
C579 C575 1.393 . S
C579 C578 1.391 . S
H580 C588 0.950 . S
H581 C593 0.950 . S
H582 C590 0.950 . S
H583 C592 0.954 . S
H584 C594 0.950 . S
H585 C596 0.950 . S
H586 C598 0.950 . S
H587 C599 0.950 1_545 S
C588 H580 0.950 . S
C588 C589 1.386 . S
C588 C590 1.391 . S
C589 C588 1.386 . S
C589 C593 1.393 . S
C590 H582 0.950 . S
C590 C588 1.391 . S
C590 C591 1.400 . S
C591 C590 1.400 . S
C591 C592 1.398 . S
C591 C597 1.491 . S
C592 H583 0.954 . S
C592 C591 1.398 . S
C592 C593 1.391 . S
C593 H581 0.950 . S
C593 C589 1.393 . S
C593 C592 1.391 . S
C594 H584 0.950 . S
C594 C595 1.386 . S
C594 C596 1.391 . S
C595 C594 1.386 . S
C595 C599 1.393 . S
C596 H585 0.950 . S
C596 C594 1.391 . S
C596 C597 1.400 1_565 S
C597 C591 1.491 . S
C597 C596 1.400 1_545 S
C597 C598 1.398 . S
C598 H586 0.950 . S
C598 C597 1.398 . S
C598 C599 1.391 1_545 S
C599 H587 0.950 1_565 S
C599 C595 1.393 . S
C599 C598 1.391 1_565 S
H600 C608 0.950 . S
H601 C613 0.950 . S
H602 C610 0.950 1_554 S
H603 C612 0.950 . S
H604 C614 0.950 . S
H605 C616 0.950 . S
H606 C618 0.950 . S
H607 C619 0.950 . S
C608 H600 0.950 . S
C608 C609 1.386 . S
C608 C610 1.391 . S
C609 C608 1.386 . S
C609 C613 1.393 . S
C610 H602 0.950 1_556 S
C610 C608 1.391 . S
C610 C611 1.400 1_556 S
C611 C610 1.400 1_554 S
C611 C612 1.398 1_554 S
C611 C617 1.491 . S
C612 H603 0.950 . S
C612 C611 1.398 1_556 S
C612 C613 1.391 . S
C613 H601 0.950 . S
C613 C609 1.393 . S
C613 C612 1.391 . S
C614 H604 0.950 . S
C614 C615 1.386 . S
C614 C616 1.391 . S
C615 C614 1.386 . S
C615 C619 1.393 . S
C616 H605 0.950 . S
C616 C614 1.391 . S
C616 C617 1.400 . S
C617 C611 1.491 . S
C617 C616 1.400 . S
C617 C618 1.398 . S
C618 H606 0.950 . S
C618 C617 1.398 . S
C618 C619 1.391 . S
C619 H607 0.950 . S
C619 C615 1.393 . S
C619 C618 1.391 . S
H620 C628 0.950 . S
H621 C633 0.950 . S
H622 C630 0.950 . S
H623 C632 0.950 . S
H624 C634 0.950 . S
H625 C636 0.950 . S
H626 C638 0.950 . S
H627 C639 0.950 . S
C628 H620 0.950 . S
C628 C629 1.386 . S
C628 C630 1.391 . S
C629 C628 1.386 . S
C629 C633 1.393 . S
C630 H622 0.950 . S
C630 C628 1.391 . S
C630 C631 1.400 . S
C631 C630 1.400 . S
C631 C632 1.398 . S
C631 C637 1.491 . S
C632 H623 0.950 . S
C632 C631 1.398 . S
C632 C633 1.391 . S
C633 H621 0.950 . S
C633 C629 1.393 . S
C633 C632 1.391 . S
C634 H624 0.950 . S
C634 C635 1.386 . S
C634 C636 1.391 . S
C635 C634 1.386 . S
C635 C639 1.393 . S
C636 H625 0.950 . S
C636 C634 1.391 . S
C636 C637 1.400 . S
C637 C631 1.491 . S
C637 C636 1.400 . S
C637 C638 1.398 . S
C638 H626 0.950 . S
C638 C637 1.398 . S
C638 C639 1.391 . S
C639 H627 0.950 . S
C639 C635 1.393 . S
C639 C638 1.391 . S
H640 C648 0.950 . S
H641 C653 0.950 . S
H642 C650 0.950 . S
H643 C652 0.950 1_556 S
H644 C654 0.950 . S
H645 C656 0.950 . S
H646 C658 0.950 . S
H647 C659 0.950 . S
C648 H640 0.950 . S
C648 C649 1.386 . S
C648 C650 1.391 . S
C649 C648 1.386 . S
C649 C653 1.393 . S
C650 H642 0.950 . S
C650 C648 1.391 . S
C650 C651 1.377 1_554 S
C651 C650 1.377 1_556 S
C651 C652 1.395 1_556 S
C651 C657 1.517 . S
C652 H643 0.950 1_554 S
C652 C651 1.395 1_554 S
C652 C653 1.391 . S
C653 H641 0.950 . S
C653 C649 1.393 . S
C653 C652 1.391 . S
C654 H644 0.950 . S
C654 C655 1.386 . S
C654 C656 1.391 . S
C655 C654 1.386 . S
C655 C659 1.393 . S
C656 H645 0.950 . S
C656 C654 1.391 . S
C656 C657 1.400 . S
C657 C651 1.517 . S
C657 C656 1.400 . S
C657 C658 1.398 . S
C658 H646 0.950 . S
C658 C657 1.398 . S
C658 C659 1.391 . S
C659 H647 0.950 . S
C659 C655 1.393 . S
C659 C658 1.391 . S
H660 C668 0.950 . S
H661 C673 0.950 . S
H662 C670 0.950 . S
H663 C672 0.950 . S
H664 C674 0.950 . S
H665 C676 0.950 . S
H666 C678 0.950 . S
H667 C679 0.950 . S
C668 H660 0.950 . S
C668 C669 1.386 . S
C668 C670 1.391 . S
C669 C668 1.386 . S
C669 C673 1.393 . S
C670 H662 0.950 . S
C670 C668 1.391 . S
C670 C671 1.400 . S
C671 C670 1.400 . S
C671 C672 1.398 . S
C671 C677 1.491 . S
C672 H663 0.950 . S
C672 C671 1.398 . S
C672 C673 1.391 . S
C673 H661 0.950 . S
C673 C669 1.393 . S
C673 C672 1.391 . S
C674 H664 0.950 . S
C674 C675 1.386 . S
C674 C676 1.391 . S
C675 C674 1.386 . S
C675 C679 1.393 . S
C676 H665 0.950 . S
C676 C674 1.391 . S
C676 C677 1.400 . S
C677 C671 1.491 . S
C677 C676 1.400 . S
C677 C678 1.398 . S
C678 H666 0.950 . S
C678 C677 1.398 . S
C678 C679 1.391 . S
C679 H667 0.950 . S
C679 C675 1.393 . S
C679 C678 1.391 . S
H680 C688 0.950 . S
H681 C693 0.950 . S
H682 C690 0.950 . S
H683 C692 0.950 . S
H684 C694 0.950 . S
H685 C696 0.950 . S
H686 C698 0.950 . S
H687 C699 0.950 . S
C688 H680 0.950 . S
C688 C689 1.386 . S
C688 C690 1.391 . S
C689 C688 1.386 . S
C689 C693 1.393 . S
C690 H682 0.950 . S
C690 C688 1.391 . S
C690 C691 1.400 1_554 S
C691 C690 1.400 1_556 S
C691 C692 1.398 . S
C691 C697 1.491 . S
C692 H683 0.950 . S
C692 C691 1.398 . S
C692 C693 1.391 1_556 S
C693 H681 0.950 . S
C693 C689 1.393 . S
C693 C692 1.391 1_554 S
C694 H684 0.950 . S
C694 C695 1.386 . S
C694 C696 1.391 . S
C695 C694 1.386 . S
C695 C699 1.393 . S
C696 H685 0.950 . S
C696 C694 1.391 . S
C696 C697 1.400 . S
C697 C691 1.491 . S
C697 C696 1.400 . S
C697 C698 1.398 . S
C698 H686 0.950 . S
C698 C697 1.398 . S
C698 C699 1.391 . S
C699 H687 0.950 . S
C699 C695 1.393 . S
C699 C698 1.391 . S
H700 C708 0.950 . S
H701 C713 0.950 . S
H702 C710 0.950 . S
H703 C712 0.950 . S
H704 C714 0.950 . S
H705 C716 0.950 . S
H706 C718 0.950 . S
H707 C719 0.950 . S
C708 H700 0.950 . S
C708 C709 1.386 . S
C708 C710 1.391 . S
C709 C708 1.386 . S
C709 C713 1.393 . S
C710 H702 0.950 . S
C710 C708 1.391 . S
C710 C711 1.400 . S
C711 C710 1.400 . S
C711 C712 1.398 . S
C711 C717 1.491 . S
C712 H703 0.950 . S
C712 C711 1.398 . S
C712 C713 1.391 . S
C713 H701 0.950 . S
C713 C709 1.393 . S
C713 C712 1.391 . S
C714 H704 0.950 . S
C714 C715 1.386 . S
C714 C716 1.391 . S
C715 C714 1.386 . S
C715 C719 1.393 . S
C716 H705 0.950 . S
C716 C714 1.391 . S
C716 C717 1.400 . S
C717 C711 1.491 . S
C717 C716 1.400 . S
C717 C718 1.398 . S
C718 H706 0.950 . S
C718 C717 1.398 . S
C718 C719 1.391 . S
C719 H707 0.950 . S
C719 C715 1.393 . S
C719 C718 1.391 . S
H720 C728 0.950 . S
H721 C733 0.950 . S
H722 C730 0.950 . S
H723 C732 0.950 . S
H724 C734 0.950 . S
H725 C736 0.950 . S
H726 C738 0.950 . S
H727 C739 0.950 . S
C728 H720 0.950 . S
C728 C729 1.386 . S
C728 C730 1.391 1_556 S
C729 C728 1.386 . S
C729 C733 1.393 . S
C730 H722 0.950 . S
C730 C728 1.391 1_554 S
C730 C731 1.400 . S
C731 C730 1.400 . S
C731 C732 1.398 1_554 S
C731 C737 1.491 . S
C732 H723 0.950 . S
C732 C731 1.398 1_556 S
C732 C733 1.391 . S
C733 H721 0.950 . S
C733 C729 1.393 . S
C733 C732 1.391 . S
C734 H724 0.950 . S
C734 C735 1.386 . S
C734 C736 1.391 . S
C735 C734 1.386 . S
C735 C739 1.393 . S
C736 H725 0.950 . S
C736 C734 1.391 . S
C736 C737 1.400 . S
C737 C731 1.491 . S
C737 C736 1.400 . S
C737 C738 1.398 . S
C738 H726 0.950 . S
C738 C737 1.398 . S
C738 C739 1.391 . S
C739 H727 0.950 . S
C739 C735 1.393 . S
C739 C738 1.391 . S
H740 C748 0.950 . S
H741 C753 0.950 . S
H742 C750 0.950 . S
H743 C752 0.950 . S
H744 C754 0.950 . S
H745 C756 0.950 . S
H746 C758 0.950 . S
H747 C759 0.950 . S
C748 H740 0.950 . S
C748 C749 1.386 . S
C748 C750 1.391 . S
C749 C748 1.386 . S
C749 C753 1.393 . S
C750 H742 0.950 . S
C750 C748 1.391 . S
C750 C751 1.400 . S
C751 C750 1.400 . S
C751 C752 1.398 . S
C751 C757 1.491 . S
C752 H743 0.950 . S
C752 C751 1.398 . S
C752 C753 1.391 . S
C753 H741 0.950 . S
C753 C749 1.393 . S
C753 C752 1.391 . S
C754 H744 0.950 . S
C754 C755 1.386 . S
C754 C756 1.391 . S
C755 C754 1.386 . S
C755 C759 1.393 . S
C756 H745 0.950 . S
C756 C754 1.391 . S
C756 C757 1.400 . S
C757 C751 1.491 . S
C757 C756 1.400 . S
C757 C758 1.398 . S
C758 H746 0.950 . S
C758 C757 1.398 . S
C758 C759 1.391 . S
C759 H747 0.950 . S
C759 C755 1.393 . S
C759 C758 1.391 . S
H760 C768 0.950 . S
H761 C773 0.950 . S
H762 C770 0.950 . S
H763 C772 0.950 . S
H764 C774 0.950 . S
H765 C776 0.950 . S
H766 C778 0.950 . S
H767 C779 0.950 . S
C768 H760 0.950 . S
C768 C769 1.386 . S
C768 C770 1.391 . S
C769 C768 1.386 . S
C769 C773 1.393 . S
C770 H762 0.950 . S
C770 C768 1.391 . S
C770 C771 1.400 . S
C771 C770 1.400 . S
C771 C772 1.398 . S
C771 C777 1.491 . S
C772 H763 0.950 . S
C772 C771 1.398 . S
C772 C773 1.391 . S
C773 H761 0.950 . S
C773 C769 1.393 . S
C773 C772 1.391 . S
C774 H764 0.950 . S
C774 C775 1.386 . S
C774 C776 1.391 . S
C775 C774 1.386 . S
C775 C779 1.393 . S
C776 H765 0.950 . S
C776 C774 1.391 . S
C776 C777 1.400 . S
C777 C771 1.491 . S
C777 C776 1.400 . S
C777 C778 1.398 . S
C778 H766 0.950 . S
C778 C777 1.398 . S
C778 C779 1.391 . S
C779 H767 0.950 . S
C779 C775 1.393 . S
C779 C778 1.391 . S
H780 C788 0.950 . S
H781 C793 0.950 . S
H782 C790 0.950 . S
H783 C792 0.950 . S
H784 C794 0.950 . S
H785 C796 0.950 . S
H786 C798 0.950 . S
H787 C799 0.950 . S
C788 H780 0.950 . S
C788 C789 1.386 . S
C788 C790 1.391 . S
C789 C788 1.386 . S
C789 C793 1.393 . S
C790 H782 0.950 . S
C790 C788 1.391 . S
C790 C791 1.400 . S
C791 C790 1.400 . S
C791 C792 1.398 . S
C791 C797 1.491 . S
C792 H783 0.950 . S
C792 C791 1.398 . S
C792 C793 1.391 . S
C793 H781 0.950 . S
C793 C789 1.393 . S
C793 C792 1.391 . S
C794 H784 0.950 . S
C794 C795 1.386 . S
C794 C796 1.391 . S
C795 C794 1.386 . S
C795 C799 1.393 . S
C796 H785 0.950 . S
C796 C794 1.391 . S
C796 C797 1.400 . S
C797 C791 1.491 . S
C797 C796 1.400 . S
C797 C798 1.398 . S
C798 H786 0.950 . S
C798 C797 1.398 . S
C798 C799 1.391 . S
C799 H787 0.950 . S
C799 C795 1.393 . S
C799 C798 1.391 . S
H800 C808 0.950 . S
H801 C813 0.950 . S
H802 C810 0.950 . S
H803 C812 0.950 . S
H804 C814 0.950 . S
H805 C816 0.950 . S
H806 C818 0.950 . S
H807 C819 0.950 . S
C808 H800 0.950 . S
C808 C809 1.386 . S
C808 C810 1.391 . S
C809 C808 1.386 . S
C809 C813 1.393 . S
C810 H802 0.950 . S
C810 C808 1.391 . S
C810 C811 1.400 . S
C811 C810 1.400 . S
C811 C812 1.398 . S
C811 C817 1.491 . S
C812 H803 0.950 . S
C812 C811 1.398 . S
C812 C813 1.391 . S
C813 H801 0.950 . S
C813 C809 1.393 . S
C813 C812 1.391 . S
C814 H804 0.950 . S
C814 C815 1.386 . S
C814 C816 1.391 . S
C815 C814 1.386 . S
C815 C819 1.393 . S
C816 H805 0.950 . S
C816 C814 1.391 . S
C816 C817 1.400 . S
C817 C811 1.491 . S
C817 C816 1.400 . S
C817 C818 1.398 . S
C818 H806 0.950 . S
C818 C817 1.398 . S
C818 C819 1.391 . S
C819 H807 0.950 . S
C819 C815 1.393 . S
C819 C818 1.391 . S
H820 C828 0.950 . S
H821 C833 0.950 . S
H822 C830 0.950 . S
H823 C832 0.950 . S
H824 C834 0.950 . S
H825 C836 0.950 . S
H826 C838 0.950 . S
H827 C839 0.950 . S
C828 H820 0.950 . S
C828 C829 1.386 . S
C828 C830 1.391 . S
C829 C828 1.386 . S
C829 C833 1.393 . S
C830 H822 0.950 . S
C830 C828 1.391 . S
C830 C831 1.400 . S
C831 C830 1.400 . S
C831 C832 1.398 . S
C831 C837 1.491 . S
C832 H823 0.950 . S
C832 C831 1.398 . S
C832 C833 1.391 . S
C833 H821 0.950 . S
C833 C829 1.393 . S
C833 C832 1.391 . S
C834 H824 0.950 . S
C834 C835 1.386 . S
C834 C836 1.391 . S
C835 C834 1.386 . S
C835 C839 1.393 . S
C836 H825 0.950 . S
C836 C834 1.391 . S
C836 C837 1.400 . S
C837 C831 1.491 . S
C837 C836 1.400 . S
C837 C838 1.398 . S
C838 H826 0.950 . S
C838 C837 1.398 . S
C838 C839 1.391 . S
C839 H827 0.950 . S
C839 C835 1.393 . S
C839 C838 1.391 . S
H840 C848 0.950 . S
H841 C853 0.950 . S
H842 C850 0.950 . S
H843 C852 0.950 . S
H844 C854 0.950 1_455 S
H845 C856 0.950 . S
H846 C858 0.950 . S
H847 C859 0.950 . S
C848 H840 0.950 . S
C848 C849 1.386 . S
C848 C850 1.391 . S
C849 C848 1.386 . S
C849 C853 1.393 . S
C850 H842 0.950 . S
C850 C848 1.391 . S
C850 C851 1.400 . S
C851 C850 1.400 . S
C851 C852 1.398 . S
C851 C857 1.491 . S
C852 H843 0.950 . S
C852 C851 1.398 . S
C852 C853 1.391 . S
C853 H841 0.950 . S
C853 C849 1.393 . S
C853 C852 1.391 . S
C854 H844 0.950 1_655 S
C854 C855 1.386 . S
C854 C856 1.391 . S
C855 C854 1.386 . S
C855 C859 1.393 . S
C856 H845 0.950 . S
C856 C854 1.391 . S
C856 C857 1.400 . S
C857 C851 1.491 . S
C857 C856 1.400 . S
C857 C858 1.398 . S
C858 H846 0.950 . S
C858 C857 1.398 . S
C858 C859 1.391 . S
C859 H847 0.950 . S
C859 C855 1.393 . S
C859 C858 1.391 . S
H860 C868 0.950 . S
H861 C873 0.950 . S
H862 C870 0.950 . S
H863 C872 0.950 . S
H864 C874 0.950 . S
H865 C876 0.950 . S
H866 C878 0.950 . S
H867 C879 0.950 . S
C868 H860 0.950 . S
C868 C869 1.386 . S
C868 C870 1.391 . S
C869 C868 1.386 . S
C869 C873 1.393 . S
C870 H862 0.950 . S
C870 C868 1.391 . S
C870 C871 1.400 . S
C871 C870 1.400 . S
C871 C872 1.398 . S
C871 C877 1.491 . S
C872 H863 0.950 . S
C872 C871 1.398 . S
C872 C873 1.391 . S
C873 H861 0.950 . S
C873 C869 1.393 . S
C873 C872 1.391 . S
C874 H864 0.950 . S
C874 C875 1.386 . S
C874 C876 1.391 . S
C875 C874 1.386 . S
C875 C879 1.393 . S
C876 H865 0.950 . S
C876 C874 1.391 . S
C876 C877 1.400 . S
C877 C871 1.491 . S
C877 C876 1.400 . S
C877 C878 1.398 . S
C878 H866 0.950 . S
C878 C877 1.398 . S
C878 C879 1.391 . S
C879 H867 0.950 . S
C879 C875 1.393 . S
C879 C878 1.391 . S
H880 C888 0.950 . S
H881 C893 0.950 . S
H882 C890 0.950 . S
H883 C892 0.950 . S
H884 C894 0.950 . S
H885 C896 0.950 . S
H886 C898 0.950 . S
H887 C899 0.950 . S
C888 H880 0.950 . S
C888 C889 1.386 . S
C888 C890 1.391 . S
C889 C888 1.386 . S
C889 C893 1.393 . S
C890 H882 0.950 . S
C890 C888 1.391 . S
C890 C891 1.400 . S
C891 C890 1.400 . S
C891 C892 1.398 . S
C891 C897 1.491 . S
C892 H883 0.950 . S
C892 C891 1.398 . S
C892 C893 1.391 . S
C893 H881 0.950 . S
C893 C889 1.393 . S
C893 C892 1.391 . S
C894 H884 0.950 . S
C894 C895 1.386 . S
C894 C896 1.391 . S
C895 C894 1.386 . S
C895 C899 1.393 . S
C896 H885 0.950 . S
C896 C894 1.391 . S
C896 C897 1.400 . S
C897 C891 1.491 . S
C897 C896 1.400 . S
C897 C898 1.398 . S
C898 H886 0.950 . S
C898 C897 1.398 . S
C898 C899 1.391 . S
C899 H887 0.950 . S
C899 C895 1.393 . S
C899 C898 1.391 . S
H900 C908 0.950 . S
H901 C913 0.950 . S
H902 C910 0.950 . S
H903 C912 0.950 . S
H904 C914 0.950 . S
H905 C916 0.950 . S
H906 C918 0.950 . S
H907 C919 0.950 . S
C908 H900 0.950 . S
C908 C909 1.386 . S
C908 C910 1.391 . S
C909 C908 1.386 . S
C909 C913 1.393 . S
C910 H902 0.950 . S
C910 C908 1.391 . S
C910 C911 1.400 . S
C911 C910 1.400 . S
C911 C912 1.398 . S
C911 C917 1.491 . S
C912 H903 0.950 . S
C912 C911 1.398 . S
C912 C913 1.391 . S
C913 H901 0.950 . S
C913 C909 1.393 . S
C913 C912 1.391 . S
C914 H904 0.950 . S
C914 C915 1.386 . S
C914 C916 1.391 . S
C915 C914 1.386 . S
C915 C919 1.393 . S
C916 H905 0.950 . S
C916 C914 1.391 . S
C916 C917 1.400 . S
C917 C911 1.491 . S
C917 C916 1.400 . S
C917 C918 1.398 . S
C918 H906 0.950 . S
C918 C917 1.398 . S
C918 C919 1.391 . S
C919 H907 0.950 . S
C919 C915 1.393 . S
C919 C918 1.391 . S
C449 C86 1.633 . S
C455 C160 1.619 . S
C475 C244 1.679 . S
C469 C100 1.703 . S
C495 C243 1.628 . S
C489 C60 1.629 . S
C509 C74 1.694 . S
C515 C159 1.698 . S
C535 C340 1.689 . S
C529 C35 1.704 . S
C555 C424 1.615 . S
C549 C47 1.636 . S
C569 C9 1.695 . S
C575 C423 1.695 . S
C589 C21 1.627 . S
C595 C339 1.622 . S
C615 C162 1.428 . S
C609 C22 1.593 . S
C635 C246 1.447 . S
C629 C8 1.594 . S
C655 C258 1.389 . S
C649 C48 1.593 . S
C675 C174 1.412 . S
C669 C34 1.604 . S
C695 C342 1.409 . S
C689 C73 1.593 . S
C709 C61 1.588 . S
C715 C426 1.419 . S
C735 C414 1.388 . S
C729 C99 1.603 . S
C749 C87 1.599 . S
C755 C330 1.411 . S
C775 C171 1.607 . S
C769 C4 1.531 . S
C795 C255 1.501 . S
C789 C17 1.480 . S
C809 C30 1.532 . S
C815 C256 1.569 . S
C835 C172 1.475 . S
C829 C43 1.475 . S
C855 C327 1.501 . S
C849 C56 1.461 . S
C869 C69 1.545 . S
C875 C411 1.608 . S
C889 C82 1.460 . S
C895 C412 1.469 . S
C909 C95 1.550 . S
C915 C328 1.569 . S
