# Generated by pormake.
# Topology pth, (4,4)-cn, num edge types: 1
# Building blocks:
#     Node 0, Type 0, BuildingBlock: NAHDIM_clean_sbu_0, # of connection points: 4
#     Node 1, Type 0, BuildingBlock: NAHDIM_clean_sbu_0, # of connection points: 4
#     Node 2, Type 0, BuildingBlock: NAHDIM_clean_sbu_0, # of connection points: 4
#     Node 3, Type 1, BuildingBlock: MIFKUJ_clean_linker_1, # of connection points: 4
#     Node 4, Type 1, BuildingBlock: MIFKUJ_clean_linker_1, # of connection points: 4
#     Node 5, Type 1, BuildingBlock: MIFKUJ_clean_linker_1, # of connection points: 4
#     Edge 6, Type (0, 1), BuildingBlock: KIFKEQ_clean_linker_1, # of connection points: 2
#     Edge 7, Type (0, 1), BuildingBlock: KIFKEQ_clean_linker_1, # of connection points: 2
#     Edge 8, Type (0, 1), BuildingBlock: KIFKEQ_clean_linker_1, # of connection points: 2
#     Edge 9, Type (0, 1), BuildingBlock: KIFKEQ_clean_linker_1, # of connection points: 2
#     Edge 10, Type (0, 1), BuildingBlock: KIFKEQ_clean_linker_1, # of connection points: 2
#     Edge 11, Type (0, 1), BuildingBlock: KIFKEQ_clean_linker_1, # of connection points: 2
#     Edge 12, Type (0, 1), BuildingBlock: KIFKEQ_clean_linker_1, # of connection points: 2
#     Edge 13, Type (0, 1), BuildingBlock: KIFKEQ_clean_linker_1, # of connection points: 2
#     Edge 14, Type (0, 1), BuildingBlock: KIFKEQ_clean_linker_1, # of connection points: 2
#     Edge 15, Type (0, 1), BuildingBlock: KIFKEQ_clean_linker_1, # of connection points: 2
#     Edge 16, Type (0, 1), BuildingBlock: KIFKEQ_clean_linker_1, # of connection points: 2
#     Edge 17, Type (0, 1), BuildingBlock: KIFKEQ_clean_linker_1, # of connection points: 2
# Relax obj value: 0.043
# Max RMSD: 0.165
# Mean RMSD: 0.094
data_MOF--net-pth--node1-NAHDIM_clean_sbu_0--node2-MIFKUJ_clean_linker_1--edge1-KIFKEQ_clean_linker_1
_symmetry_space_group_name_H-M    P1
_symmetry_Int_Tables_number       1
_symmetry_cell_setting            triclinic
loop_
_symmetry_equiv_pos_as_xyz
'x, y, z'
_cell_length_a     30.101919
_cell_length_b     30.229691
_cell_length_c     63.660766
_cell_angle_alpha  91.821656
_cell_angle_beta   89.956509
_cell_angle_gamma 120.6372
loop_
_atom_site_label
_atom_site_type_symbol
_atom_site_fract_x
_atom_site_fract_y
_atom_site_fract_z
_atom_type_partial_charge
C0 C -0.00507 0.95959 0.06914 0.0
O1 O 0.95072 0.95812 0.06738 0.0
O2 O 0.01026 0.086 0.0556 0.0
Zn3 Zn 0.01883 0.03375 0.03858 0.0
O4 O 0.95468 0.98532 0.02167 0.0
C5 C 0.0791 0.0689 2e-05 0.0
O6 O 0.03749 0.03187 0.99042 0.0
O7 O 0.03259 0.99069 0.0581 0.0
C8 C 0.93075 -0.00255 0.0088 0.0
O9 O 0.94764 0.04623 0.0057 0.0
C10 C 0.96913 0.08036 0.06365 0.0
O11 O 0.92565 0.0363 0.06098 0.0
O12 O 0.07972 0.07445 0.01992 0.0
C13 C 0.07131 0.14129 0.33907 0.0
O14 O 0.09597 0.11841 0.33216 0.0
O15 O 0.0153 0.00555 0.34759 0.0
Zn16 Zn 0.0299 0.06085 0.36949 0.0
O17 O 0.96926 0.0402 0.38833 0.0
C18 C 0.12323 0.06119 0.38038 0.0
O19 O 0.11836 0.04301 0.36097 0.0
O20 O 0.04288 0.12426 0.35504 0.0
C21 C 0.97797 0.06466 0.40589 0.0
O22 O 0.02555 0.10051 0.41095 0.0
C23 C 0.98819 0.95785 0.35098 0.0
O24 O 0.96585 0.94314 0.36923 0.0
O25 O 0.09103 0.07339 0.38717 0.0
C26 C 0.07389 0.02315 0.66985 0.0
O27 O 0.07177 0.0655 0.66972 0.0
O28 O 0.95917 0.0222 0.68211 0.0
Zn29 Zn 0.0024 0.00646 0.70094 0.0
O30 O 0.04998 0.068 0.71934 0.0
C31 C 0.9097 0.91536 0.71402 0.0
O32 O 0.8929 0.91648 0.69512 0.0
O33 O 0.04592 0.98872 0.68265 0.0
C34 C 0.07092 0.06011 0.73498 0.0
O35 O 0.05992 0.01294 0.73832 0.0
C36 C 0.92822 0.03576 0.68912 0.0
O37 O 0.92551 0.04187 0.70952 0.0
O38 O 0.95575 0.94869 0.71952 0.0
H39 H 0.08244 0.50405 0.16231 0.0
H40 H 0.07256 0.43135 0.14059 0.0
H41 H 0.93367 0.32925 0.17375 0.0
H42 H 0.9448 0.40195 0.19576 0.0
H43 H 0.01793 0.54132 0.16573 0.0
H44 H 0.0932 0.47574 0.21029 0.0
H45 H 0.10538 0.41592 0.23103 0.0
H46 H 0.97629 0.38941 0.26942 0.0
H47 H 0.96348 0.44844 0.24838 0.0
H48 H 0.94529 0.56738 0.24567 0.0
H49 H 0.93868 0.63185 0.2672 0.0
H50 H 0.07085 0.75237 0.23606 0.0
H51 H 0.079 0.68742 0.21545 0.0
H52 H 0.01972 0.5451 0.24368 0.0
H53 H 0.94171 0.60698 0.19365 0.0
H54 H 0.9394 0.67362 0.17361 0.0
H55 H 0.08587 0.71289 0.1462 0.0
H56 H 0.08838 0.64691 0.16659 0.0
C57 C 0.01458 0.45831 0.18072 0.0
C58 C 0.05005 0.46591 0.16493 0.0
C59 C 0.04411 0.42433 0.15245 0.0
C60 C 0.00215 0.37438 0.15534 0.0
C61 C 0.96685 0.36696 0.17128 0.0
C62 C 0.97306 0.40852 0.18386 0.0
C63 C 0.01945 0.50265 0.19333 0.0
C64 C 0.01903 0.54248 0.18279 0.0
C65 C 0.02089 0.50412 0.21556 0.0
C66 C 0.02704 0.46624 0.22761 0.0
C67 C 0.06688 0.45636 0.22292 0.0
C68 C 0.07396 0.42232 0.23482 0.0
C69 C 0.04187 0.39816 0.25186 0.0
C70 C 0.00197 0.40798 0.25652 0.0
C71 C -0.00543 0.4416 0.24449 0.0
C72 C 0.01232 0.62251 0.22879 0.0
C73 C 0.97301 0.60771 0.24356 0.0
C74 C 0.96892 0.6447 0.25569 0.0
C75 C 0.00399 0.69741 0.25328 0.0
C76 C 0.04345 0.71214 0.23848 0.0
C77 C 0.04781 0.67505 0.22649 0.0
C78 C 0.01612 0.58259 0.21609 0.0
C79 C 0.01854 0.54377 0.22663 0.0
C80 C 0.01736 0.58242 0.19387 0.0
C81 C 0.01542 0.62237 0.18172 0.0
C82 C 0.97343 0.6302 0.18342 0.0
C83 C 0.97201 0.668 0.17186 0.0
C84 C 0.01254 0.69855 0.15837 0.0
C85 C 0.05443 0.69044 0.15667 0.0
C86 C 0.05572 0.65252 0.16816 0.0
H87 H 0.62227 0.10056 0.49994 0.0
H88 H 0.69497 0.10451 0.48122 0.0
H89 H 0.6625 0.96193 0.50832 0.0
H90 H 0.5886 0.95721 0.52637 0.0
H91 H 0.52364 0.03511 0.49654 0.0
H92 H 0.64645 0.09642 0.55202 0.0
H93 H 0.71273 0.10292 0.57612 0.0
H94 H 0.60501 0.95172 0.59828 0.0
H95 H 0.5386 0.94587 0.5743 0.0
H96 H 0.39423 0.93398 0.56666 0.0
H97 H 0.32107 0.92775 0.58599 0.0
H98 H 0.35959 0.0777 0.56513 0.0
H99 H 0.43251 0.08362 0.54584 0.0
H100 H 0.49586 0.00494 0.57281 0.0
H101 H 0.37106 0.95301 0.51454 0.0
H102 H 0.31098 0.96141 0.49138 0.0
H103 H 0.43277 0.11356 0.47584 0.0
H104 H 0.49227 0.10529 0.49925 0.0
C105 C 0.60019 0.0288 0.51467 0.0
C106 C 0.63078 0.07012 0.50182 0.0
C107 C 0.67261 0.07255 0.49128 0.0
C108 C 0.68464 0.0336 0.49333 0.0
C109 C 0.654 0.9923 0.50626 0.0
C110 C 0.61208 0.98985 0.51677 0.0
C111 C 0.55486 0.02557 0.52535 0.0
C112 C 0.51788 0.02906 0.51327 0.0
C113 C 0.54717 0.0176 0.54714 0.0
C114 C 0.58776 0.02044 0.56123 0.0
C115 C 0.6373 0.06445 0.56192 0.0
C116 C 0.67517 0.06809 0.57569 0.0
C117 C 0.6642 0.02782 0.58912 0.0
C118 C 0.61451 0.98372 0.58836 0.0
C119 C 0.5766 0.98017 0.5746 0.0
C120 C 0.41848 0.00901 0.55465 0.0
C121 C 0.38667 0.96536 0.56617 0.0
C122 C 0.34502 0.96192 0.57726 0.0
C123 C 0.33452 0.00221 0.57707 0.0
C124 C 0.36613 0.04565 0.56531 0.0
C125 C 0.40785 0.04911 0.55428 0.0
C126 C 0.4643 0.01364 0.54393 0.0
C127 C 0.50148 0.01055 0.55605 0.0
C128 C 0.47297 0.02372 0.52231 0.0
C129 C 0.436 0.02865 0.50868 0.0
C130 C 0.38461 0.98831 0.50628 0.0
C131 C 0.35048 0.99302 0.49294 0.0
C132 C 0.3672 0.03818 0.48182 0.0
C133 C 0.41861 0.07858 0.48439 0.0
C134 C 0.45272 0.07374 0.49762 0.0
H135 H 0.4729 0.42337 0.83147 0.0
H136 H 0.4048 0.35078 0.81092 0.0
H137 H 0.28993 0.37184 0.84303 0.0
H138 H 0.35836 0.44578 0.86284 0.0
H139 H 0.50249 0.52051 0.83248 0.0
H140 H 0.44917 0.39454 0.88347 0.0
H141 H 0.38749 0.32191 0.90372 0.0
H142 H 0.32993 0.41558 0.93093 0.0
H143 H 0.3929 0.48856 0.91095 0.0
H144 H 0.52547 0.6391 0.90863 0.0
H145 H 0.591 0.71323 0.92941 0.0
H146 H 0.70977 0.69069 0.90198 0.0
H147 H 0.64386 0.61526 0.88207 0.0
H148 H 0.49958 0.53964 0.91007 0.0
H149 H 0.56874 0.66997 0.85542 0.0
H150 H 0.63553 0.73257 0.83263 0.0
H151 H 0.67211 0.61752 0.8118 0.0
H152 H 0.60617 0.55569 0.83478 0.0
C153 C 0.42075 0.43979 0.84881 0.0
C154 C 0.43304 0.4124 0.83404 0.0
C155 C 0.39402 0.37061 0.82245 0.0
C156 C 0.34188 0.35541 0.82538 0.0
C157 C 0.3297 0.38286 0.84024 0.0
C158 C 0.36876 0.42477 0.85176 0.0
C159 C 0.46234 0.48506 0.86068 0.0
C160 C 0.50215 0.52445 0.84947 0.0
C161 C 0.46208 0.49016 0.88283 0.0
C162 C 0.42525 0.44676 0.89559 0.0
C163 C 0.4232 0.39936 0.8938 0.0
C164 C 0.38771 0.35779 0.90532 0.0
C165 C 0.35343 0.3627 0.91887 0.0
C166 C 0.35613 0.41057 0.92085 0.0
C167 C 0.39194 0.45229 0.90939 0.0
C168 C 0.57975 0.62191 0.89363 0.0
C169 C 0.56566 0.6502 0.90711 0.0
C170 C 0.60323 0.69287 0.91883 0.0
C171 C 0.65571 0.70804 0.91734 0.0
C172 C 0.6697 0.67979 0.90369 0.0
C173 C 0.63208 0.63697 0.89208 0.0
C174 C 0.53946 0.57564 0.8818 0.0
C175 C 0.49978 0.5359 0.89307 0.0
C176 C 0.54109 0.56931 0.85974 0.0
C177 C 0.58272 0.60832 0.84682 0.0
C178 C 0.59161 0.65855 0.84611 0.0
C179 C 0.62947 0.69408 0.833 0.0
C180 C 0.65907 0.67992 0.82046 0.0
C181 C 0.65044 0.62978 0.82147 0.0
C182 C 0.61252 0.59431 0.83446 0.0
H183 H 0.89593 0.07707 0.09024 0.0
H184 H 0.04724 0.18037 0.06596 0.0
H185 H 0.90164 0.14781 0.11221 0.0
H186 H 0.05273 0.25061 0.08783 0.0
H187 H 0.01887 0.37382 0.11306 0.0
H188 H 0.00866 0.3024 0.09055 0.0
H189 H 0.95687 0.2034 0.14351 0.0
H190 H 0.96835 0.27514 0.16627 0.0
C191 C 0.93021 0.11484 0.0895 0.0
C192 C 0.97115 0.12312 0.07639 0.0
C193 C 0.93357 0.15519 0.10216 0.0
C194 C 0.97762 0.20463 0.1017 0.0
C195 C 0.01812 0.21301 0.08835 0.0
C196 C 0.01505 0.17268 0.07592 0.0
C197 C 0.00588 0.33705 0.12001 0.0
C198 C -0.0052 0.33042 0.14154 0.0
C199 C -0.00022 0.29609 0.10707 0.0
C200 C 0.982 0.24742 0.1153 0.0
C201 C 0.97005 0.24039 0.13671 0.0
C202 C 0.9766 0.2815 0.14972 0.0
H203 H 0.98478 0.107 0.44509 0.0
H204 H 0.87415 0.00198 0.3983 0.0
H205 H 0.91446 0.09654 0.46731 0.0
H206 H 0.80373 0.99251 0.42034 0.0
H207 H 0.68819 0.95449 0.47279 0.0
H208 H 0.75959 0.95863 0.45302 0.0
H209 H 0.85063 0.12222 0.46706 0.0
H210 H 0.78021 0.11765 0.48756 0.0
C211 C 0.94544 0.0816 0.43955 0.0
C212 C 0.93506 0.05556 0.41987 0.0
C213 C 0.90512 0.07584 0.45225 0.0
C214 C 0.85348 0.04405 0.44554 0.0
C215 C 0.84306 0.01692 0.42608 0.0
C216 C 0.88344 0.02255 0.41339 0.0
C217 C 0.72375 0.99118 0.47192 0.0
C218 C 0.72849 0.03577 0.48173 0.0
C219 C 0.76444 0.99365 0.46038 0.0
C220 C 0.81078 0.04076 0.45842 0.0
C221 C 0.8157 0.0852 0.46845 0.0
C222 C 0.77508 0.08271 0.47999 0.0
H223 H 0.93248 0.90186 0.75403 0.0
H224 H 0.80632 0.84681 0.70897 0.0
H225 H 0.87267 0.84602 0.78021 0.0
H226 H 0.74671 0.79058 0.73512 0.0
H227 H 0.64826 0.74352 0.7941 0.0
H228 H 0.70981 0.80015 0.7685 0.0
H229 H 0.81754 0.75386 0.78741 0.0
H230 H 0.75651 0.69824 0.81339 0.0
C231 C 0.89208 0.87754 0.74965 0.0
C232 C 0.87414 0.87885 0.72942 0.0
C233 C 0.85786 0.84545 0.76464 0.0
C234 C 0.80496 0.81416 0.75976 0.0
C235 C 0.78716 0.81485 0.73944 0.0
C236 C 0.8214 0.84676 0.72441 0.0
C237 C 0.68537 0.74601 0.79298 0.0
C238 C 0.69756 0.71644 0.80574 0.0
C239 C 0.72034 0.77792 0.77815 0.0
C240 C 0.76835 0.78115 0.77584 0.0
C241 C 0.78096 0.75238 0.7889 0.0
C242 C 0.74588 0.72026 0.80365 0.0
H243 H 0.07593 0.94294 0.07301 0.0
H244 H 0.92432 0.89565 0.09696 0.0
H245 H 0.08085 0.88063 0.09489 0.0
H246 H 0.92978 0.83458 0.11916 0.0
H247 H 0.93035 0.68975 0.13645 0.0
H248 H 0.92754 0.75417 0.1154 0.0
H249 H 0.08801 0.86163 0.13099 0.0
H250 H 0.09087 0.79676 0.15188 0.0
C251 C 0.0439 0.91962 0.08308 0.0
C252 C -0.00038 0.92402 0.08315 0.0
C253 C 0.0468 0.88408 0.0957 0.0
C254 C 0.00556 0.85236 0.10869 0.0
C255 C 0.96181 0.85767 0.10905 0.0
C256 C 0.95883 0.89295 0.0964 0.0
C257 C 0.96488 0.72729 0.13554 0.0
C258 C 0.01079 0.73822 0.14585 0.0
C259 C 0.9633 0.76426 0.12349 0.0
C260 C 0.00753 0.81317 0.12155 0.0
C261 C 0.05346 0.82413 0.13191 0.0
C262 C 0.05508 0.78702 0.1439 0.0
H263 H 0.14464 0.09772 0.42122 0.0
H264 H 0.19019 0.02722 0.37225 0.0
H265 H 0.20438 0.09335 0.44577 0.0
H266 H 0.25019 0.02337 0.39677 0.0
H267 H 0.29992 0.96625 0.45303 0.0
H268 H 0.24269 0.97444 0.42838 0.0
H269 H 0.29803 0.1294 0.45244 0.0
H270 H 0.35445 0.12076 0.47745 0.0
C271 C 0.16775 0.08177 0.41563 0.0
C272 C 0.1625 0.06262 0.3948 0.0
C273 C 0.20208 0.07944 0.42968 0.0
C274 C 0.23168 0.05768 0.42323 0.0
C275 C 0.2273 0.03964 0.40228 0.0
C276 C 0.19319 0.04221 0.3882 0.0
C277 C 0.29947 0.00186 0.45319 0.0
C278 C 0.33161 0.04284 0.46718 0.0
C279 C 0.26717 0.00678 0.43892 0.0
C280 C 0.2661 0.05268 0.4384 0.0
C281 C 0.29783 0.09348 0.45255 0.0
C282 C 0.33039 0.08867 0.46674 0.0
H283 H 0.11603 0.05474 0.77119 0.0
H284 H 0.11048 0.16315 0.7302 0.0
H285 H 0.1794 0.12562 0.79367 0.0
H286 H 0.17501 0.23421 0.75242 0.0
H287 H 0.25544 0.34797 0.80756 0.0
H288 H 0.18784 0.27615 0.78668 0.0
H289 H 0.26855 0.19294 0.79287 0.0
H290 H 0.33475 0.26364 0.81458 0.0
C291 C 0.12842 0.09372 0.76694 0.0
C292 C 0.10832 0.10332 0.74887 0.0
C293 C 0.16499 0.13438 0.77977 0.0
C294 C 0.18251 0.18561 0.77479 0.0
C295 C 0.16191 0.19519 0.75685 0.0
C296 C 0.12512 0.15448 0.74405 0.0
C297 C 0.25837 0.31404 0.80471 0.0
C298 C 0.30049 0.31153 0.81276 0.0
C299 C 0.21995 0.27314 0.79251 0.0
C300 C 0.22281 0.22882 0.78806 0.0
C301 C 0.26481 0.22624 0.7962 0.0
C302 C 0.30314 0.26706 0.80843 0.0
H303 H 0.85564 0.06206 0.6985 0.0
H304 H 0.91971 0.01841 0.6466 0.0
H305 H 0.79355 0.06386 0.67443 0.0
H306 H 0.857 0.0189 0.62274 0.0
H307 H 0.7671 0.06719 0.58197 0.0
H308 H 0.83298 0.07452 0.60638 0.0
H309 H 0.71756 0.00325 0.65401 0.0
H310 H 0.65216 -0.0018 0.62992 0.0
C311 C 0.85659 0.05301 0.68196 0.0
C312 C 0.89254 0.03999 0.67448 0.0
C313 C 0.82079 0.05369 0.66819 0.0
C314 C 0.82015 0.0413 0.64667 0.0
C315 C 0.85682 0.02929 0.63916 0.0
C316 C 0.89263 0.02873 0.65289 0.0
C317 C 0.7559 0.05371 0.59774 0.0
C318 C 0.70433 0.03203 0.60398 0.0
C319 C 0.79358 0.05741 0.61166 0.0
C320 C 0.78055 0.03938 0.63214 0.0
C321 C 0.72905 0.01806 0.63843 0.0
C322 C 0.69139 0.01448 0.62452 0.0
H323 H 0.87924 0.89454 0.0152 0.0
H324 H 0.88332 0.00736 0.97398 0.0
H325 H 0.81139 0.82594 0.9934 0.0
H326 H 0.81607 0.93829 0.95173 0.0
H327 H 0.66221 0.80039 0.92707 0.0
H328 H 0.72585 0.87075 0.94989 0.0
H329 H 0.80399 0.78617 0.95946 0.0
H330 H 0.7392 0.71508 0.93763 0.0
C331 C 0.86564 0.90472 0.00146 0.0
C332 C 0.88694 0.95641 0.99624 0.0
C333 C 0.82693 0.86532 0.98887 0.0
C334 C 0.80874 0.87651 0.97064 0.0
C335 C 0.82897 0.92833 0.96573 0.0
C336 C 0.86762 0.96791 0.97844 0.0
C337 C 0.69272 0.79666 0.93421 0.0
C338 C 0.6955 0.75199 0.93053 0.0
C339 C 0.72952 0.83724 0.94711 0.0
C340 C 0.7699 0.83404 0.95661 0.0
C341 C 0.77295 0.78963 0.95269 0.0
C342 C 0.73617 0.74909 0.93989 0.0
H343 H 0.92833 0.85286 0.35128 0.0
H344 H 0.04413 0.9768 0.31519 0.0
H345 H 0.93035 0.79032 0.3266 0.0
H346 H 0.04597 0.91428 0.29062 0.0
H347 H 0.08263 0.78733 0.27096 0.0
H348 H 0.07593 0.85059 0.29326 0.0
H349 H 0.90965 0.75925 0.28845 0.0
H350 H 0.9161 0.69643 0.26562 0.0
C351 C 0.95384 0.86675 0.33801 0.0
C352 C 0.98619 0.91977 0.33525 0.0
C353 C 0.95483 0.83095 0.32385 0.0
C354 C 0.98854 0.84751 0.30678 0.0
C355 C 0.02005 0.90048 0.30378 0.0
C356 C 0.01872 0.93622 0.3178 0.0
C357 C 0.04461 0.78105 0.27432 0.0
C358 C -8e-05 0.73669 0.26646 0.0
C359 C 0.04081 0.81726 0.28715 0.0
C360 C 0.99226 0.80977 0.29259 0.0
C361 C 0.94755 0.76566 0.2847 0.0
C362 C 0.95132 0.72965 0.27168 0.0
H363 H 0.08984 0.94163 0.66635 0.0
H364 H 0.13731 0.08987 0.64089 0.0
H365 H 0.14915 0.93228 0.64293 0.0
H366 H 0.19696 0.08094 0.61789 0.0
H367 H 0.26487 0.0302 0.56571 0.0
H368 H 0.19861 0.03148 0.58737 0.0
H369 H 0.24238 0.97087 0.63882 0.0
H370 H 0.30849 0.96948 0.61716 0.0
C371 C 0.11287 0.97217 0.65577 0.0
C372 C 0.10891 0.01651 0.6555 0.0
C373 C 0.14699 0.96691 0.64243 0.0
C374 C 0.1777 0.00584 0.62853 0.0
C375 C 0.1733 0.04989 0.62817 0.0
C376 C 0.13932 0.05516 0.64148 0.0
C377 C 0.26032 0.01718 0.58165 0.0
C378 C 0.29207 -3e-05 0.58975 0.0
C379 C 0.22239 0.0179 0.59406 0.0
C380 C 0.21542 0.00153 0.61485 0.0
C381 C 0.24631 0.98311 0.62278 0.0
C382 C 0.28421 0.98234 0.61036 0.0
H383 H 0.17397 0.14454 0.01469 0.0
H384 H 0.08208 0.08173 0.95764 0.0
H385 H 0.24227 0.21341 0.99501 0.0
H386 H 0.14958 0.15153 0.93808 0.0
H387 H 0.29723 0.26156 0.90535 0.0
H388 H 0.23488 0.18822 0.92491 0.0
H389 H 0.25761 0.28953 0.97848 0.0
H390 H 0.32219 0.36239 0.95936 0.0
C391 C 0.16842 0.14532 0.99792 0.0
C392 C 0.12249 0.10776 0.98774 0.0
C393 C 0.20743 0.18506 0.98666 0.0
C394 C 0.20128 0.18843 0.96498 0.0
C395 C 0.15594 0.14991 0.9547 0.0
C396 C 0.11709 0.10992 0.96594 0.0
C397 C 0.28956 0.26812 0.92142 0.0
C398 C 0.31489 0.31797 0.93078 0.0
C399 C 0.25326 0.22608 0.93256 0.0
C400 C 0.24112 0.23285 0.95329 0.0
C401 C 0.2665 0.2827 0.96265 0.0
C402 C 0.30302 0.32468 0.95156 0.0
H403 H 0.12976 0.18971 0.30501 0.0
H404 H 0.01483 0.18752 0.3464 0.0
H405 H 0.12706 0.2551 0.28444 0.0
H406 H 0.01087 0.25129 0.32554 0.0
H407 H 0.04434 0.39695 0.29464 0.0
H408 H 0.05677 0.33899 0.31632 0.0
H409 H 0.07019 0.26235 0.26026 0.0
H410 H 0.05897 0.32131 0.23864 0.0
C411 C 0.10404 0.20325 0.30975 0.0
C412 C 0.07247 0.18333 0.32732 0.0
C413 C 0.10221 0.24046 0.29788 0.0
C414 C 0.06859 0.25836 0.30326 0.0
C415 C 0.03779 0.23905 0.32109 0.0
C416 C 0.03986 0.20217 0.33301 0.0
C417 C 0.04985 0.36762 0.28698 0.0
C418 C 0.05039 0.3634 0.26497 0.0
C419 C 0.05693 0.33435 0.29939 0.0
C420 C 0.06424 0.29577 0.29006 0.0
C421 C 0.06546 0.29207 0.268 0.0
C422 C 0.0588 0.32567 0.25559 0.0
loop_
_geom_bond_atom_site_label_1
_geom_bond_atom_site_label_2
_geom_bond_distance
_geom_bond_site_symmetry_2
_ccdc_geom_bond_type
C0 O1 1.160 . S
C0 O7 1.185 . S
O1 C0 1.160 . S
O2 Zn3 1.899 . S
O2 C10 1.284 1_455 S
Zn3 O2 1.899 . S
Zn3 O4 2.032 1_445 S
Zn3 O7 2.086 1_545 S
Zn3 O12 1.977 . S
O4 Zn3 2.032 1_665 S
O4 C8 1.278 . S
C5 O6 1.203 . S
C5 O12 1.267 . S
O6 C5 1.203 . S
O7 C0 1.185 . S
O7 Zn3 2.086 1_565 S
C8 O4 1.278 . S
C8 O9 1.228 1_565 S
O9 C8 1.228 1_545 S
C10 O2 1.284 1_655 S
C10 O11 1.273 . S
O11 C10 1.273 . S
O12 Zn3 1.977 . S
O12 C5 1.267 . S
C13 O14 1.160 . S
C13 O20 1.185 . S
O14 C13 1.160 . S
O15 Zn16 1.899 . S
O15 C23 1.284 1_545 S
Zn16 O15 1.899 . S
Zn16 O17 2.032 1_455 S
Zn16 O20 2.086 . S
Zn16 O25 1.977 . S
O17 Zn16 2.032 1_655 S
O17 C21 1.278 . S
C18 O19 1.203 . S
C18 O25 1.267 . S
O19 C18 1.203 . S
O20 C13 1.185 . S
O20 Zn16 2.086 . S
C21 O17 1.278 . S
C21 O22 1.211 . S
O22 C21 1.211 . S
C23 O15 1.284 1_565 S
C23 O24 1.273 1_455 S
O24 C23 1.273 1_655 S
O25 Zn16 1.977 . S
O25 C18 1.267 . S
C26 O27 1.160 . S
C26 O33 1.185 1_545 S
O27 C26 1.160 . S
O28 Zn29 1.899 1_655 S
O28 C36 1.284 . S
Zn29 O28 1.899 1_455 S
Zn29 O30 2.032 . S
Zn29 O33 2.086 1_545 S
Zn29 O38 1.977 1_445 S
O30 Zn29 2.032 . S
O30 C34 1.278 . S
C31 O32 1.203 . S
C31 O38 1.267 . S
O32 C31 1.203 . S
O33 C26 1.185 1_565 S
O33 Zn29 2.086 1_565 S
C34 O30 1.278 . S
C34 O35 1.211 . S
O35 C34 1.211 . S
C36 O28 1.284 . S
C36 O37 1.273 . S
O37 C36 1.273 . S
O38 Zn29 1.977 1_665 S
O38 C31 1.267 . S
H39 C58 0.949 . S
H40 C59 0.950 . S
H41 C61 0.950 . S
H42 C62 0.950 . S
H43 C64 0.950 . S
H44 C67 0.950 . S
H45 C68 0.950 . S
H46 C70 0.951 . S
H47 C71 0.949 . S
H48 C73 0.949 . S
H49 C74 0.950 . S
H50 C76 0.950 . S
H51 C77 0.950 . S
H52 C79 0.953 . S
H53 C82 0.950 . S
H54 C83 0.950 . S
H55 C85 0.951 . S
H56 C86 0.949 . S
C57 C58 1.376 . S
C57 C62 1.386 1_455 S
C57 C63 1.483 . S
C58 H39 0.949 . S
C58 C57 1.376 . S
C58 C59 1.397 . S
C59 H40 0.950 . S
C59 C58 1.397 . S
C59 C60 1.391 . S
C60 C59 1.391 . S
C60 C61 1.405 1_455 S
C61 H41 0.950 . S
C61 C60 1.405 1_655 S
C61 C62 1.367 . S
C62 H42 0.950 . S
C62 C57 1.386 1_655 S
C62 C61 1.367 . S
C63 C57 1.483 . S
C63 C64 1.382 . S
C63 C65 1.403 . S
C64 H43 0.950 . S
C64 C63 1.382 . S
C64 C80 1.411 . S
C65 C63 1.403 . S
C65 C66 1.489 . S
C65 C79 1.402 1_455 S
C66 C65 1.489 . S
C66 C67 1.383 . S
C66 C71 1.382 1_455 S
C67 H44 0.950 . S
C67 C66 1.383 . S
C67 C68 1.395 . S
C68 H45 0.950 . S
C68 C67 1.395 . S
C68 C69 1.288 . S
C69 C68 1.288 . S
C69 C70 1.392 1_455 S
C70 H46 0.951 . S
C70 C69 1.392 1_655 S
C70 C71 1.392 . S
C71 H47 0.949 . S
C71 C66 1.382 1_655 S
C71 C70 1.392 . S
C72 C73 1.376 1_455 S
C72 C77 1.386 . S
C72 C78 1.483 . S
C73 H48 0.949 . S
C73 C72 1.376 1_655 S
C73 C74 1.397 . S
C74 H49 0.950 . S
C74 C73 1.397 . S
C74 C75 1.391 1_655 S
C75 C74 1.391 1_455 S
C75 C76 1.405 . S
C76 H50 0.950 . S
C76 C75 1.405 . S
C76 C77 1.367 . S
C77 H51 0.950 . S
C77 C72 1.386 . S
C77 C76 1.367 . S
C78 C72 1.483 . S
C78 C79 1.388 1_455 S
C78 C80 1.403 . S
C79 H52 0.953 . S
C79 C65 1.402 1_655 S
C79 C78 1.388 1_655 S
C80 C64 1.411 . S
C80 C78 1.403 . S
C80 C81 1.489 . S
C81 C80 1.489 . S
C81 C82 1.383 1_455 S
C81 C86 1.382 . S
C82 H53 0.950 . S
C82 C81 1.383 1_655 S
C82 C83 1.395 . S
C83 H54 0.950 . S
C83 C82 1.395 . S
C83 C84 1.288 1_655 S
C84 C83 1.288 1_455 S
C84 C85 1.392 . S
C85 H55 0.951 . S
C85 C84 1.392 . S
C85 C86 1.392 . S
C86 H56 0.949 . S
C86 C81 1.382 . S
C86 C85 1.392 . S
H87 C106 0.949 . S
H88 C107 0.950 . S
H89 C109 0.950 . S
H90 C110 0.950 . S
H91 C112 0.950 . S
H92 C115 0.950 . S
H93 C116 0.950 . S
H94 C118 0.951 . S
H95 C119 0.949 . S
H96 C121 0.949 . S
H97 C122 0.950 . S
H98 C124 0.950 . S
H99 C125 0.950 . S
H100 C127 0.950 . S
H101 C130 0.950 . S
H102 C131 0.950 . S
H103 C133 0.951 . S
H104 C134 0.949 . S
C105 C106 1.376 . S
C105 C110 1.386 1_545 S
C105 C111 1.483 . S
C106 H87 0.949 . S
C106 C105 1.376 . S
C106 C107 1.397 . S
C107 H88 0.950 . S
C107 C106 1.397 . S
C107 C108 1.391 . S
C108 C107 1.391 . S
C108 C109 1.405 1_545 S
C109 H89 0.950 . S
C109 C108 1.405 1_565 S
C109 C110 1.367 . S
C110 H90 0.950 . S
C110 C105 1.386 1_565 S
C110 C109 1.367 . S
C111 C105 1.483 . S
C111 C112 1.382 . S
C111 C113 1.403 . S
C112 H91 0.950 . S
C112 C111 1.382 . S
C112 C128 1.411 . S
C113 C111 1.403 . S
C113 C114 1.489 . S
C113 C127 1.411 . S
C114 C113 1.489 . S
C114 C115 1.383 . S
C114 C119 1.382 1_545 S
C115 H92 0.950 . S
C115 C114 1.383 . S
C115 C116 1.395 . S
C116 H93 0.950 . S
C116 C115 1.395 . S
C116 C117 1.288 . S
C117 C116 1.288 . S
C117 C118 1.392 1_545 S
C118 H94 0.951 . S
C118 C117 1.392 1_565 S
C118 C119 1.392 . S
C119 H95 0.949 . S
C119 C114 1.382 1_565 S
C119 C118 1.392 . S
C120 C121 1.376 1_545 S
C120 C125 1.386 . S
C120 C126 1.483 . S
C121 H96 0.949 . S
C121 C120 1.376 1_565 S
C121 C122 1.397 . S
C122 H97 0.950 . S
C122 C121 1.397 . S
C122 C123 1.391 1_565 S
C123 C122 1.391 1_545 S
C123 C124 1.405 . S
C124 H98 0.950 . S
C124 C123 1.405 . S
C124 C125 1.367 . S
C125 H99 0.950 . S
C125 C120 1.386 . S
C125 C124 1.367 . S
C126 C120 1.483 . S
C126 C127 1.382 . S
C126 C128 1.403 . S
C127 H100 0.950 . S
C127 C113 1.411 . S
C127 C126 1.382 . S
C128 C112 1.411 . S
C128 C126 1.403 . S
C128 C129 1.489 . S
C129 C128 1.489 . S
C129 C130 1.383 1_545 S
C129 C134 1.382 . S
C130 H101 0.950 . S
C130 C129 1.383 1_565 S
C130 C131 1.395 . S
C131 H102 0.950 . S
C131 C130 1.395 . S
C131 C132 1.288 1_565 S
C132 C131 1.288 1_545 S
C132 C133 1.392 . S
C133 H103 0.951 . S
C133 C132 1.392 . S
C133 C134 1.392 . S
C134 H104 0.949 . S
C134 C129 1.382 . S
C134 C133 1.392 . S
H135 C154 0.949 . S
H136 C155 0.950 . S
H137 C157 0.950 . S
H138 C158 0.950 . S
H139 C160 0.950 . S
H140 C163 0.950 . S
H141 C164 0.950 . S
H142 C166 0.951 . S
H143 C167 0.949 . S
H144 C169 0.949 . S
H145 C170 0.950 . S
H146 C172 0.950 . S
H147 C173 0.950 . S
H148 C175 0.950 . S
H149 C178 0.950 . S
H150 C179 0.950 . S
H151 C181 0.951 . S
H152 C182 0.949 . S
C153 C154 1.376 . S
C153 C158 1.386 . S
C153 C159 1.483 . S
C154 H135 0.949 . S
C154 C153 1.376 . S
C154 C155 1.397 . S
C155 H136 0.950 . S
C155 C154 1.397 . S
C155 C156 1.391 . S
C156 C155 1.391 . S
C156 C157 1.405 . S
C157 H137 0.950 . S
C157 C156 1.405 . S
C157 C158 1.367 . S
C158 H138 0.950 . S
C158 C153 1.386 . S
C158 C157 1.367 . S
C159 C153 1.483 . S
C159 C160 1.382 . S
C159 C161 1.403 . S
C160 H139 0.950 . S
C160 C159 1.382 . S
C160 C176 1.411 . S
C161 C159 1.403 . S
C161 C162 1.489 . S
C161 C175 1.411 . S
C162 C161 1.489 . S
C162 C163 1.383 . S
C162 C167 1.382 . S
C163 H140 0.950 . S
C163 C162 1.383 . S
C163 C164 1.395 . S
C164 H141 0.950 . S
C164 C163 1.395 . S
C164 C165 1.288 . S
C165 C164 1.288 . S
C165 C166 1.392 . S
C166 H142 0.951 . S
C166 C165 1.392 . S
C166 C167 1.392 . S
C167 H143 0.949 . S
C167 C162 1.382 . S
C167 C166 1.392 . S
C168 C169 1.376 . S
C168 C173 1.386 . S
C168 C174 1.483 . S
C169 H144 0.949 . S
C169 C168 1.376 . S
C169 C170 1.397 . S
C170 H145 0.950 . S
C170 C169 1.397 . S
C170 C171 1.391 . S
C171 C170 1.391 . S
C171 C172 1.405 . S
C172 H146 0.950 . S
C172 C171 1.405 . S
C172 C173 1.367 . S
C173 H147 0.950 . S
C173 C168 1.386 . S
C173 C172 1.367 . S
C174 C168 1.483 . S
C174 C175 1.382 . S
C174 C176 1.403 . S
C175 H148 0.950 . S
C175 C161 1.411 . S
C175 C174 1.382 . S
C176 C160 1.411 . S
C176 C174 1.403 . S
C176 C177 1.489 . S
C177 C176 1.489 . S
C177 C178 1.383 . S
C177 C182 1.382 . S
C178 H149 0.950 . S
C178 C177 1.383 . S
C178 C179 1.395 . S
C179 H150 0.950 . S
C179 C178 1.395 . S
C179 C180 1.288 . S
C180 C179 1.288 . S
C180 C181 1.392 . S
C181 H151 0.951 . S
C181 C180 1.392 . S
C181 C182 1.392 . S
C182 H152 0.949 . S
C182 C177 1.382 . S
C182 C181 1.392 . S
H183 C191 0.950 . S
H184 C196 0.950 . S
H185 C193 0.950 . S
H186 C195 0.950 . S
H187 C197 0.950 . S
H188 C199 0.950 . S
H189 C201 0.950 . S
H190 C202 0.950 . S
C191 H183 0.950 . S
C191 C192 1.384 1_655 S
C191 C193 1.391 . S
C192 C191 1.384 1_455 S
C192 C196 1.393 . S
C193 H185 0.950 . S
C193 C191 1.391 . S
C193 C194 1.400 1_655 S
C194 C193 1.400 1_455 S
C194 C195 1.398 . S
C194 C200 1.497 . S
C195 H186 0.950 . S
C195 C194 1.398 . S
C195 C196 1.391 . S
C196 H184 0.950 . S
C196 C192 1.393 . S
C196 C195 1.391 . S
C197 H187 0.950 . S
C197 C198 1.386 . S
C197 C199 1.391 . S
C198 C197 1.386 . S
C198 C202 1.393 1_455 S
C199 H188 0.950 . S
C199 C197 1.391 . S
C199 C200 1.400 . S
C200 C194 1.497 . S
C200 C199 1.400 . S
C200 C201 1.391 1_455 S
C201 H189 0.950 . S
C201 C200 1.391 1_655 S
C201 C202 1.391 . S
C202 H190 0.950 . S
C202 C198 1.393 1_655 S
C202 C201 1.391 . S
H203 C211 0.950 . S
H204 C216 0.950 1_565 S
H205 C213 0.950 . S
H206 C215 0.950 1_565 S
H207 C217 0.950 1_565 S
H208 C219 0.950 1_565 S
H209 C221 0.950 . S
H210 C222 0.950 . S
C211 H203 0.950 . S
C211 C212 1.386 . S
C211 C213 1.391 . S
C212 C211 1.386 . S
C212 C216 1.393 . S
C213 H205 0.950 . S
C213 C211 1.391 . S
C213 C214 1.400 . S
C214 C213 1.400 . S
C214 C215 1.398 . S
C214 C220 1.491 . S
C215 H206 0.950 1_545 S
C215 C214 1.398 . S
C215 C216 1.391 . S
C216 H204 0.950 1_545 S
C216 C212 1.393 . S
C216 C215 1.391 . S
C217 H207 0.950 1_545 S
C217 C218 1.386 . S
C217 C219 1.391 . S
C218 C217 1.386 . S
C218 C222 1.393 . S
C219 H208 0.950 1_545 S
C219 C217 1.391 . S
C219 C220 1.400 . S
C220 C214 1.491 . S
C220 C219 1.400 . S
C220 C221 1.398 . S
C221 H209 0.950 . S
C221 C220 1.398 . S
C221 C222 1.391 . S
C222 H210 0.950 . S
C222 C218 1.393 . S
C222 C221 1.391 . S
H223 C231 0.950 . S
H224 C236 0.950 . S
H225 C233 0.950 . S
H226 C235 0.950 . S
H227 C237 0.950 . S
H228 C239 0.950 . S
H229 C241 0.950 . S
H230 C242 0.950 . S
C231 H223 0.950 . S
C231 C232 1.386 . S
C231 C233 1.391 . S
C232 C231 1.386 . S
C232 C236 1.393 . S
C233 H225 0.950 . S
C233 C231 1.391 . S
C233 C234 1.400 . S
C234 C233 1.400 . S
C234 C235 1.398 . S
C234 C240 1.491 . S
C235 H226 0.950 . S
C235 C234 1.398 . S
C235 C236 1.391 . S
C236 H224 0.950 . S
C236 C232 1.393 . S
C236 C235 1.391 . S
C237 H227 0.950 . S
C237 C238 1.386 . S
C237 C239 1.391 . S
C238 C237 1.386 . S
C238 C242 1.393 . S
C239 H228 0.950 . S
C239 C237 1.391 . S
C239 C240 1.400 . S
C240 C234 1.491 . S
C240 C239 1.400 . S
C240 C241 1.398 . S
C241 H229 0.950 . S
C241 C240 1.398 . S
C241 C242 1.391 . S
C242 H230 0.950 . S
C242 C238 1.393 . S
C242 C241 1.391 . S
H243 C251 0.950 . S
H244 C256 0.950 . S
H245 C253 0.950 . S
H246 C255 0.950 . S
H247 C257 0.950 . S
H248 C259 0.950 . S
H249 C261 0.950 . S
H250 C262 0.950 . S
C251 H243 0.950 . S
C251 C252 1.386 . S
C251 C253 1.391 . S
C252 C251 1.386 . S
C252 C256 1.393 1_455 S
C253 H245 0.950 . S
C253 C251 1.391 . S
C253 C254 1.400 . S
C254 C253 1.400 . S
C254 C255 1.398 1_455 S
C254 C260 1.491 . S
C255 H246 0.950 . S
C255 C254 1.398 1_655 S
C255 C256 1.391 . S
C256 H244 0.950 . S
C256 C252 1.393 1_655 S
C256 C255 1.391 . S
C257 H247 0.950 . S
C257 C258 1.386 1_655 S
C257 C259 1.391 . S
C258 C257 1.386 1_455 S
C258 C262 1.393 . S
C259 H248 0.950 . S
C259 C257 1.391 . S
C259 C260 1.400 1_655 S
C260 C254 1.491 . S
C260 C259 1.400 1_455 S
C260 C261 1.398 . S
C261 H249 0.950 . S
C261 C260 1.398 . S
C261 C262 1.391 . S
C262 H250 0.950 . S
C262 C258 1.393 . S
C262 C261 1.391 . S
H263 C271 0.950 . S
H264 C276 0.950 . S
H265 C273 0.950 . S
H266 C275 0.950 1_565 S
H267 C277 0.950 1_565 S
H268 C279 0.950 1_565 S
H269 C281 0.950 . S
H270 C282 0.950 . S
C271 H263 0.950 . S
C271 C272 1.386 . S
C271 C273 1.391 . S
C272 C271 1.386 . S
C272 C276 1.393 . S
C273 H265 0.950 . S
C273 C271 1.391 . S
C273 C274 1.400 . S
C274 C273 1.400 . S
C274 C275 1.398 . S
C274 C280 1.491 . S
C275 H266 0.950 1_545 S
C275 C274 1.398 . S
C275 C276 1.391 . S
C276 H264 0.950 . S
C276 C272 1.393 . S
C276 C275 1.391 . S
C277 H267 0.950 1_545 S
C277 C278 1.386 . S
C277 C279 1.391 . S
C278 C277 1.386 . S
C278 C282 1.393 . S
C279 H268 0.950 1_545 S
C279 C277 1.391 . S
C279 C280 1.400 . S
C280 C274 1.491 . S
C280 C279 1.400 . S
C280 C281 1.398 . S
C281 H269 0.950 . S
C281 C280 1.398 . S
C281 C282 1.391 . S
C282 H270 0.950 . S
C282 C278 1.393 . S
C282 C281 1.391 . S
H283 C291 0.950 . S
H284 C296 0.950 . S
H285 C293 0.950 . S
H286 C295 0.950 . S
H287 C297 0.950 . S
H288 C299 0.950 . S
H289 C301 0.950 . S
H290 C302 0.950 . S
C291 H283 0.950 . S
C291 C292 1.386 . S
C291 C293 1.391 . S
C292 C291 1.386 . S
C292 C296 1.393 . S
C293 H285 0.950 . S
C293 C291 1.391 . S
C293 C294 1.400 . S
C294 C293 1.400 . S
C294 C295 1.398 . S
C294 C300 1.491 . S
C295 H286 0.950 . S
C295 C294 1.398 . S
C295 C296 1.391 . S
C296 H284 0.950 . S
C296 C292 1.393 . S
C296 C295 1.391 . S
C297 H287 0.950 . S
C297 C298 1.386 . S
C297 C299 1.391 . S
C298 C297 1.386 . S
C298 C302 1.393 . S
C299 H288 0.950 . S
C299 C297 1.391 . S
C299 C300 1.400 . S
C300 C294 1.491 . S
C300 C299 1.400 . S
C300 C301 1.398 . S
C301 H289 0.950 . S
C301 C300 1.398 . S
C301 C302 1.391 . S
C302 H290 0.950 . S
C302 C298 1.393 . S
C302 C301 1.391 . S
H303 C311 0.950 . S
H304 C316 0.950 . S
H305 C313 0.950 . S
H306 C315 0.950 . S
H307 C317 0.950 . S
H308 C319 0.950 . S
H309 C321 0.950 . S
H310 C322 0.950 . S
C311 H303 0.950 . S
C311 C312 1.386 . S
C311 C313 1.391 . S
C312 C311 1.386 . S
C312 C316 1.393 . S
C313 H305 0.950 . S
C313 C311 1.391 . S
C313 C314 1.400 . S
C314 C313 1.400 . S
C314 C315 1.398 . S
C314 C320 1.491 . S
C315 H306 0.950 . S
C315 C314 1.398 . S
C315 C316 1.391 . S
C316 H304 0.950 . S
C316 C312 1.393 . S
C316 C315 1.391 . S
C317 H307 0.950 . S
C317 C318 1.386 . S
C317 C319 1.391 . S
C318 C317 1.386 . S
C318 C322 1.393 . S
C319 H308 0.950 . S
C319 C317 1.391 . S
C319 C320 1.400 . S
C320 C314 1.491 . S
C320 C319 1.400 . S
C320 C321 1.398 . S
C321 H309 0.950 . S
C321 C320 1.398 . S
C321 C322 1.391 . S
C322 H310 0.950 . S
C322 C318 1.393 . S
C322 C321 1.391 . S
H323 C331 0.950 1_554 S
H324 C336 0.950 . S
H325 C333 0.950 . S
H326 C335 0.950 . S
H327 C337 0.950 . S
H328 C339 0.950 . S
H329 C341 0.950 . S
H330 C342 0.950 . S
C331 H323 0.950 1_556 S
C331 C332 1.386 1_556 S
C331 C333 1.391 . S
C332 C331 1.386 1_554 S
C332 C336 1.393 1_554 S
C333 H325 0.950 . S
C333 C331 1.391 . S
C333 C334 1.400 . S
C334 C333 1.400 . S
C334 C335 1.398 . S
C334 C340 1.491 . S
C335 H326 0.950 . S
C335 C334 1.398 . S
C335 C336 1.391 . S
C336 H324 0.950 . S
C336 C332 1.393 1_556 S
C336 C335 1.391 . S
C337 H327 0.950 . S
C337 C338 1.386 . S
C337 C339 1.391 . S
C338 C337 1.386 . S
C338 C342 1.393 . S
C339 H328 0.950 . S
C339 C337 1.391 . S
C339 C340 1.400 . S
C340 C334 1.491 . S
C340 C339 1.400 . S
C340 C341 1.398 . S
C341 H329 0.950 . S
C341 C340 1.398 . S
C341 C342 1.391 . S
C342 H330 0.950 . S
C342 C338 1.393 . S
C342 C341 1.391 . S
H343 C351 0.950 . S
H344 C356 0.950 . S
H345 C353 0.950 . S
H346 C355 0.950 . S
H347 C357 0.950 . S
H348 C359 0.950 . S
H349 C361 0.950 . S
H350 C362 0.950 . S
C351 H343 0.950 . S
C351 C352 1.386 1_655 S
C351 C353 1.391 . S
C352 C351 1.386 1_455 S
C352 C356 1.393 . S
C353 H345 0.950 . S
C353 C351 1.391 . S
C353 C354 1.400 1_655 S
C354 C353 1.400 1_455 S
C354 C355 1.398 . S
C354 C360 1.491 . S
C355 H346 0.950 . S
C355 C354 1.398 . S
C355 C356 1.391 . S
C356 H344 0.950 . S
C356 C352 1.393 . S
C356 C355 1.391 . S
C357 H347 0.950 . S
C357 C358 1.386 . S
C357 C359 1.391 . S
C358 C357 1.386 . S
C358 C362 1.393 1_455 S
C359 H348 0.950 . S
C359 C357 1.391 . S
C359 C360 1.400 . S
C360 C354 1.491 . S
C360 C359 1.400 . S
C360 C361 1.398 1_455 S
C361 H349 0.950 . S
C361 C360 1.398 1_655 S
C361 C362 1.391 . S
C362 H350 0.950 . S
C362 C358 1.393 1_655 S
C362 C361 1.391 . S
H363 C371 0.950 . S
H364 C376 0.950 . S
H365 C373 0.950 . S
H366 C375 0.950 . S
H367 C377 0.950 . S
H368 C379 0.950 . S
H369 C381 0.950 . S
H370 C382 0.950 . S
C371 H363 0.950 . S
C371 C372 1.386 . S
C371 C373 1.391 . S
C372 C371 1.386 . S
C372 C376 1.393 1_565 S
C373 H365 0.950 . S
C373 C371 1.391 . S
C373 C374 1.400 1_565 S
C374 C373 1.400 1_545 S
C374 C375 1.398 . S
C374 C380 1.491 . S
C375 H366 0.950 . S
C375 C374 1.398 . S
C375 C376 1.391 . S
C376 H364 0.950 . S
C376 C372 1.393 1_545 S
C376 C375 1.391 . S
C377 H367 0.950 . S
C377 C378 1.386 . S
C377 C379 1.391 . S
C378 C377 1.386 . S
C378 C382 1.393 1_545 S
C379 H368 0.950 . S
C379 C377 1.391 . S
C379 C380 1.400 . S
C380 C374 1.491 . S
C380 C379 1.400 . S
C380 C381 1.398 1_545 S
C381 H369 0.950 . S
C381 C380 1.398 1_565 S
C381 C382 1.391 . S
C382 H370 0.950 . S
C382 C378 1.393 1_565 S
C382 C381 1.391 . S
H383 C391 0.950 . S
H384 C396 0.950 . S
H385 C393 0.950 1_554 S
H386 C395 0.950 . S
H387 C397 0.950 . S
H388 C399 0.950 . S
H389 C401 0.950 . S
H390 C402 0.950 . S
C391 H383 0.950 . S
C391 C392 1.370 1_554 S
C391 C393 1.391 1_554 S
C392 C391 1.370 1_556 S
C392 C396 1.436 . S
C393 H385 0.950 1_556 S
C393 C391 1.391 1_556 S
C393 C394 1.400 . S
C394 C393 1.400 . S
C394 C395 1.398 . S
C394 C400 1.491 . S
C395 H386 0.950 . S
C395 C394 1.398 . S
C395 C396 1.391 . S
C396 H384 0.950 . S
C396 C392 1.436 . S
C396 C395 1.391 . S
C397 H387 0.950 . S
C397 C398 1.386 . S
C397 C399 1.391 . S
C398 C397 1.386 . S
C398 C402 1.393 . S
C399 H388 0.950 . S
C399 C397 1.391 . S
C399 C400 1.400 . S
C400 C394 1.491 . S
C400 C399 1.400 . S
C400 C401 1.398 . S
C401 H389 0.950 . S
C401 C400 1.398 . S
C401 C402 1.391 . S
C402 H390 0.950 . S
C402 C398 1.393 . S
C402 C401 1.391 . S
H403 C411 0.950 . S
H404 C416 0.950 . S
H405 C413 0.950 . S
H406 C415 0.950 . S
H407 C417 0.950 1_655 S
H408 C419 0.953 . S
H409 C421 0.950 . S
H410 C422 0.950 . S
C411 H403 0.950 . S
C411 C412 1.386 . S
C411 C413 1.391 . S
C412 C411 1.386 . S
C412 C416 1.393 . S
C413 H405 0.950 . S
C413 C411 1.391 . S
C413 C414 1.400 . S
C414 C413 1.400 . S
C414 C415 1.398 . S
C414 C420 1.491 . S
C415 H406 0.950 . S
C415 C414 1.398 . S
C415 C416 1.391 . S
C416 H404 0.950 . S
C416 C412 1.393 . S
C416 C415 1.391 . S
C417 H407 0.950 1_455 S
C417 C418 1.386 . S
C417 C419 1.391 . S
C418 C417 1.386 . S
C418 C422 1.393 . S
C419 H408 0.953 . S
C419 C417 1.391 . S
C419 C420 1.400 . S
C420 C414 1.491 . S
C420 C419 1.400 . S
C420 C421 1.398 . S
C421 H409 0.950 . S
C421 C420 1.398 . S
C421 C422 1.391 . S
C422 H410 0.950 . S
C422 C418 1.393 . S
C422 C421 1.391 . S
C198 C60 1.414 . S
C192 C10 1.415 1_455 S
C212 C21 1.442 . S
C218 C108 1.470 . S
C232 C31 1.377 . S
C238 C180 1.435 . S
C252 C0 1.383 . S
C258 C84 1.422 . S
C278 C132 1.445 . S
C272 C18 1.383 . S
C292 C34 1.413 . S
C298 C156 1.434 . S
C318 C117 1.394 . S
C312 C36 1.397 . S
C332 C8 1.419 . S
C338 C171 1.437 . S
C358 C75 1.417 . S
C352 C23 1.418 . S
C378 C123 1.385 . S
C372 C26 1.337 1_565 S
C398 C165 1.467 . S
C392 C5 1.380 1_556 S
C412 C13 1.384 . S
C418 C69 1.440 . S
