# Generated by pormake.
# Topology tsx, (6,3)-cn, num edge types: 1
# Building blocks:
#     Node 0, Type 0, BuildingBlock: LEVNOQ01_clean_sbu_1, # of connection points: 6
#     Node 1, Type 0, BuildingBlock: LEVNOQ01_clean_sbu_1, # of connection points: 6
#     Node 2, Type 1, BuildingBlock: PAMTOO_clean_linker_0, # of connection points: 3
#     Node 3, Type 1, BuildingBlock: PAMTOO_clean_linker_0, # of connection points: 3
#     Node 4, Type 1, BuildingBlock: PAMTOO_clean_linker_0, # of connection points: 3
#     Node 5, Type 1, BuildingBlock: PAMTOO_clean_linker_0, # of connection points: 3
#     Edge 6, Type (0, 1), BuildingBlock: XIVTED_clean_linker_0, # of connection points: 2
#     Edge 7, Type (0, 1), BuildingBlock: XIVTED_clean_linker_0, # of connection points: 2
#     Edge 8, Type (0, 1), BuildingBlock: XIVTED_clean_linker_0, # of connection points: 2
#     Edge 9, Type (0, 1), BuildingBlock: XIVTED_clean_linker_0, # of connection points: 2
#     Edge 10, Type (0, 1), BuildingBlock: XIVTED_clean_linker_0, # of connection points: 2
#     Edge 11, Type (0, 1), BuildingBlock: XIVTED_clean_linker_0, # of connection points: 2
#     Edge 12, Type (0, 1), BuildingBlock: XIVTED_clean_linker_0, # of connection points: 2
#     Edge 13, Type (0, 1), BuildingBlock: XIVTED_clean_linker_0, # of connection points: 2
#     Edge 14, Type (0, 1), BuildingBlock: XIVTED_clean_linker_0, # of connection points: 2
#     Edge 15, Type (0, 1), BuildingBlock: XIVTED_clean_linker_0, # of connection points: 2
#     Edge 16, Type (0, 1), BuildingBlock: XIVTED_clean_linker_0, # of connection points: 2
#     Edge 17, Type (0, 1), BuildingBlock: XIVTED_clean_linker_0, # of connection points: 2
# Relax obj value: 0.128
# Max RMSD: 0.145
# Mean RMSD: 0.138
data_MOF--net-tsx--node1-LEVNOQ01_clean_sbu_1--node2-PAMTOO_clean_linker_0--edge1-XIVTED_clean_linker_0
_symmetry_space_group_name_H-M    P1
_symmetry_Int_Tables_number       1
_symmetry_cell_setting            triclinic
loop_
_symmetry_equiv_pos_as_xyz
'x, y, z'
_cell_length_a     18.725059
_cell_length_b     23.08118
_cell_length_c     34.510361
_cell_angle_alpha  89.532558
_cell_angle_beta   91.434323
_cell_angle_gamma 90.150865
loop_
_atom_site_label
_atom_site_type_symbol
_atom_site_fract_x
_atom_site_fract_y
_atom_site_fract_z
_atom_type_partial_charge
O0 O 0.10023 0.95073 0.06575 0.0
Mg1 Mg 0.13818 -0.00406 0.01633 0.0
O2 O 0.99521 0.98982 0.05503 0.0
Mg3 Mg 0.01855 0.00649 -0.00947 0.0
O4 O 0.10967 0.07962 0.00539 0.0
O5 O 0.21022 0.0525 0.03764 0.0
O6 O 0.04674 0.02182 0.92668 0.0
O7 O 0.94669 0.09158 -0.00597 0.0
Mg8 Mg 0.88458 0.00271 0.93909 0.0
O9 O 0.92727 0.94039 0.97529 0.0
O10 O 0.94715 0.02183 0.89074 0.0
O11 O 0.83999 0.07136 0.9688 0.0
O12 O 0.82864 0.92733 0.93816 0.0
C13 C 0.14296 0.90876 0.97022 0.0
C14 C 0.0383 0.96214 0.07736 0.0
C15 C 0.17032 0.09264 0.02278 0.0
C16 C 0.01437 0.02643 0.89399 0.0
C17 C 0.88138 0.10543 -0.01294 0.0
C18 C 0.87379 0.90794 0.96396 0.0
O19 O 0.18589 0.95069 0.97128 0.0
O20 O 0.08118 0.91599 -0.01592 0.0
O21 O 0.65675 0.54534 0.55592 0.0
Mg22 Mg 0.67157 0.57974 0.49868 0.0
O23 O 0.54777 0.58071 0.55532 0.0
Mg24 Mg 0.54328 0.58781 0.48924 0.0
O25 O 0.63568 0.66194 0.48937 0.0
O26 O 0.75101 0.63819 0.50041 0.0
O27 O 0.54628 0.59236 0.42272 0.0
O28 O 0.47699 0.67625 0.4956 0.0
Mg29 Mg 0.4049 0.58579 0.4606 0.0
O30 O 0.45103 0.51661 0.48926 0.0
O31 O 0.43462 0.60272 0.40309 0.0
O32 O 0.36425 0.65042 0.4949 0.0
O33 O 0.34137 0.51594 0.46079 0.0
C34 C 0.65333 0.48394 0.46166 0.0
C35 C 0.60019 0.55744 0.57365 0.0
C36 C 0.70274 0.67678 0.49345 0.0
C37 C 0.50005 0.59868 0.39544 0.0
C38 C 0.41142 0.68835 0.50117 0.0
C39 C 0.39111 0.49005 0.48071 0.0
O40 O 0.69268 0.52522 0.45151 0.0
O41 O 0.6014 0.49548 0.48343 0.0
H42 H 0.12523 0.95066 0.37248 0.0
H43 H 0.95994 0.0794 0.35922 0.0
H44 H 0.06597 0.05444 0.46929 0.0
H45 H 0.89331 0.07708 0.4693 0.0
C46 C 0.89418 0.09926 0.44073 0.0
O47 O 0.96417 0.11065 0.43122 0.0
H48 H 0.86814 0.07025 0.41895 0.0
C49 C 0.09379 0.98541 0.38418 0.0
C50 C 0.10463 0.00079 0.4232 0.0
C51 C 0.04163 0.01302 0.36058 0.0
C52 C 0.99939 0.05628 0.37681 0.0
C53 C 1.00698 0.07001 0.41609 0.0
C54 C 0.05979 0.04266 0.43919 0.0
H55 H 0.25157 0.11241 0.62418 0.0
H56 H 0.07037 -0.00145 0.61715 0.0
H57 H 0.12187 0.10465 0.51932 0.0
H58 H 0.96123 0.07894 0.52657 0.0
C59 C 0.96822 0.04122 0.54642 0.0
O60 O 0.0379 0.0219 0.54503 0.0
H61 H 0.95622 0.05556 0.5763 0.0
C62 C 0.20719 0.09457 0.6074 0.0
C63 C 0.19281 0.1144 0.56944 0.0
C64 C 0.16184 0.05492 0.62536 0.0
C65 C 0.10624 0.02916 0.60366 0.0
C66 C 0.09275 0.04636 0.56525 0.0
C67 C 0.1353 0.08943 0.54828 0.0
H68 H 0.67539 0.45066 0.86855 0.0
H69 H 0.49097 0.56215 0.8648 0.0
H70 H 0.54673 0.47042 0.96888 0.0
H71 H 0.37273 0.49799 0.95237 0.0
C72 C 0.38823 0.5308 0.93049 0.0
O73 O 0.45905 0.54603 0.93667 0.0
H74 H 0.37951 0.5115 0.90127 0.0
C75 C 0.63054 0.47022 0.88269 0.0
C76 C 0.61782 0.45659 0.92173 0.0
C77 C 0.58458 0.50754 0.86145 0.0
C78 C 0.52736 0.53335 0.88033 0.0
C79 C 0.51372 0.51985 0.91893 0.0
C80 C 0.55802 0.48082 0.93926 0.0
H81 H 0.70195 0.55868 0.1285 0.0
H82 H 0.53681 0.43113 0.11313 0.0
H83 H 0.61621 0.52192 0.01431 0.0
H84 H 0.44902 0.48604 0.00744 0.0
C85 C 0.45547 0.45974 0.03426 0.0
O86 O 0.52583 0.44208 0.03855 0.0
H87 H 0.4399 0.48813 0.05862 0.0
C88 C 0.66718 0.53387 0.10934 0.0
C89 C 0.66648 0.54522 0.06925 0.0
C90 C 0.6188 0.49473 0.12554 0.0
C91 C 0.57457 0.46156 0.10104 0.0
C92 C 0.57404 0.47094 0.06103 0.0
C93 C 0.6196 0.51291 0.04507 0.0
H94 H 0.16346 0.1794 0.9675 0.0
H95 H 0.40177 0.39896 0.09532 0.0
H96 H 0.24003 0.14151 0.08378 0.0
H97 H 0.40128 0.40136 0.97048 0.0
H98 H 0.32222 0.31438 0.09337 0.0
H99 H 0.22823 0.27263 0.97007 0.0
C100 C 0.19247 0.19133 -0.0062 0.0
C101 C 0.1967 0.15288 0.02544 0.0
C102 C 0.33896 0.33373 0.06638 0.0
C103 C 0.2705 0.25845 0.02857 0.0
C104 C 0.38429 0.38184 0.06752 0.0
C105 C 0.40671 0.40772 0.03303 0.0
C106 C 0.31574 0.31134 0.03045 0.0
C107 C 0.38361 0.38345 -0.00232 0.0
C108 C 0.22994 0.24405 -0.00488 0.0
C109 C 0.23575 0.1699 0.05869 0.0
N110 N 0.33896 0.33676 -0.00275 0.0
N111 N 0.2711 0.22129 0.05938 0.0
H112 H 0.25189 0.88602 0.9221 0.0
H113 H 0.27919 0.55316 0.98057 0.0
H114 H 0.09287 0.80125 -0.00891 0.0
H115 H 0.39404 0.62907 0.88604 0.0
H116 H 0.21019 0.64299 -0.01433 0.0
H117 H 0.30431 0.79192 0.90863 0.0
C118 C 0.22759 0.84741 0.93411 0.0
C119 C 0.16832 0.85139 0.95798 0.0
C120 C 0.25005 0.63979 0.9636 0.0
C121 C 0.22873 0.74344 0.94315 0.0
C122 C 0.28949 0.58871 0.96078 0.0
C123 C 0.34265 0.58415 0.93305 0.0
C124 C 0.26456 0.68669 0.93877 0.0
C125 C 0.35385 0.63119 0.90798 0.0
C126 C 0.25748 0.79367 0.92637 0.0
C127 C 0.13862 0.8 0.97255 0.0
N128 N 0.31565 0.68069 0.91167 0.0
N129 N 0.16982 0.74808 0.96536 0.0
H130 H 0.82789 0.81504 0.9229 0.0
H131 H 0.69726 0.64897 0.10478 0.0
H132 H 0.89568 0.86604 0.03799 0.0
H133 H 0.73141 0.55686 -0.00178 0.0
H134 H 0.76603 0.72964 0.08025 0.0
H135 H 0.79058 0.72096 0.94853 0.0
C136 C 0.83594 0.80593 0.95355 0.0
C137 C 0.86423 0.84833 0.97853 0.0
C138 C 0.75948 0.69142 0.06248 0.0
C139 C 0.82018 0.7415 0.00805 0.0
C140 C 0.72038 0.64478 0.07652 0.0
C141 C 0.70919 0.59483 0.05394 0.0
C142 C 0.78607 0.6895 0.025 0.0
C143 C 0.73801 0.59426 0.0167 0.0
C144 C 0.81482 0.75224 0.96808 0.0
C145 C 0.874 0.83441 0.01787 0.0
N146 N 0.77447 0.64115 0.00323 0.0
N147 N 0.85049 0.78246 0.03163 0.0
H148 H 0.95398 0.20941 -0.01258 0.0
H149 H 0.76416 0.44883 0.92076 0.0
H150 H 0.74527 0.13484 0.00318 0.0
H151 H 0.57974 0.36938 0.97185 0.0
H152 H 0.83872 0.37207 0.94839 0.0
H153 H 0.89922 0.30556 0.98256 0.0
C154 C 0.89684 0.2135 -0.00925 0.0
C155 C 0.8539 0.16407 -0.00506 0.0
C156 C 0.78245 0.37188 0.95461 0.0
C157 C 0.79018 0.2734 -0.01228 0.0
C158 C 0.73948 0.41554 0.93826 0.0
C159 C 0.66525 0.41504 0.94328 0.0
C160 C 0.75097 0.32709 0.97622 0.0
C161 C 0.63659 0.37161 0.96703 0.0
C162 C 0.86521 0.26838 -0.01278 0.0
C163 C 0.7802 0.17177 -0.0008 0.0
N164 N 0.67927 0.32899 0.98201 0.0
N165 N 0.7507 0.22513 -0.00504 0.0
H166 H 0.81481 0.7196 0.45474 0.0
H167 H 0.84707 0.00176 0.58251 0.0
H168 H 0.64629 0.77096 0.52985 0.0
H169 H 0.97298 0.97291 0.48178 0.0
H170 H 0.76999 0.91997 0.56342 0.0
H171 H 0.87018 0.81465 0.46264 0.0
C172 C 0.78871 0.75161 0.47226 0.0
C173 C 0.72597 0.73774 0.4916 0.0
C174 C 0.81418 0.93192 0.54533 0.0
C175 C 0.7903 0.8461 0.50199 0.0
C176 C 0.85838 0.97831 0.55632 0.0
C177 C 0.9177 -0.00683 0.53417 0.0
C178 C 0.82973 0.90012 0.51204 0.0
C179 C 0.92905 0.96214 0.50013 0.0
C180 C 0.82041 0.80582 0.4769 0.0
C181 C 0.69441 0.78041 0.51421 0.0
N182 N 0.88617 0.91674 0.49039 0.0
N183 N 0.72772 0.8325 0.51943 0.0
H184 H 0.61335 0.38411 0.49936 0.0
H185 H 0.8885 0.18561 0.38581 0.0
H186 H 0.74498 0.44686 0.40704 0.0
H187 H 0.80241 0.13737 0.49619 0.0
H188 H 0.82055 0.27614 0.38717 0.0
H189 H 0.6654 0.28742 0.49204 0.0
C190 C 0.6523 0.37735 0.47716 0.0
C191 C 0.67544 0.42369 0.45402 0.0
C192 C 0.81654 0.24582 0.41114 0.0
C193 C 0.73516 0.31357 0.44562 0.0
C194 C 0.85547 0.19438 0.41041 0.0
C195 C 0.8524 0.15491 0.44141 0.0
C196 C 0.77328 0.25749 0.44283 0.0
C197 C 0.80727 0.16737 0.47211 0.0
C198 C 0.68231 0.32231 0.47319 0.0
C199 C 0.72614 0.41251 0.42576 0.0
N200 N 0.76967 0.21775 0.47216 0.0
N201 N 0.75449 0.35873 0.42248 0.0
H202 H 0.43642 0.43264 0.54689 0.0
H203 H 0.2307 0.13828 0.49389 0.0
H204 H 0.31892 0.4092 0.43902 0.0
H205 H 0.24697 0.20736 0.60992 0.0
H206 H 0.29299 0.22483 0.47022 0.0
H207 H 0.39976 0.33457 0.5671 0.0
C208 C 0.40409 0.40646 0.52728 0.0
C209 C 0.37946 0.42905 0.49164 0.0
C210 C 0.28363 0.22011 0.50093 0.0
C211 C 0.3386 0.3177 0.51403 0.0
C212 C 0.2476 0.17107 0.51444 0.0
C213 C 0.23368 0.16482 0.55409 0.0
C214 C 0.30679 0.26267 0.52729 0.0
C215 C 0.25796 0.2088 0.57932 0.0
C216 C 0.38303 0.35086 0.53879 0.0
C217 C 0.33783 0.39353 0.46709 0.0
N218 N 0.29332 0.25561 0.56551 0.0
N219 N 0.31843 0.33964 0.47878 0.0
H220 H 0.30171 0.72164 0.54532 0.0
H221 H 0.0977 0.95651 0.49716 0.0
H222 H 0.46104 0.78941 0.4692 0.0
H223 H 0.24175 0.97698 0.40264 0.0
H224 H 0.18591 0.89676 0.53131 0.0
H225 H 0.23507 0.81096 0.5382 0.0
C226 C 0.32401 0.75658 0.52824 0.0
C227 C 0.3866 0.74804 0.5076 0.0
C228 C 0.19857 0.91378 0.50303 0.0
C229 C 0.30972 0.85127 0.4985 0.0
C230 C 0.14836 0.94919 0.48387 0.0
C231 C 0.16159 0.97112 0.44674 0.0
C232 C 0.26197 0.89886 0.48442 0.0
C233 C 0.22833 0.9596 0.43078 0.0
C234 C 0.28574 0.80805 0.52407 0.0
C235 C 0.41302 0.79439 0.48569 0.0
N236 N 0.27541 0.92358 0.44938 0.0
N237 N 0.37344 0.8435 0.4809 0.0
H238 H 0.11504 0.89695 0.12949 0.0
H239 H 0.91699 0.00939 0.31597 0.0
H240 H 0.92704 0.00455 0.11933 0.0
H241 H 0.14436 0.97973 0.31002 0.0
H242 H 0.90462 0.98517 0.2471 0.0
H243 H 0.10706 0.89968 0.19976 0.0
C244 C 0.07117 0.92025 0.14199 0.0
C245 C 0.02255 0.95173 0.11853 0.0
C246 C 0.95688 0.98355 0.26123 0.0
C247 C 0.01361 0.95517 0.19896 0.0
C248 C 0.9643 -0.00212 0.3004 0.0
C249 C 0.03199 -0.00316 0.3191 0.0
C250 C 0.01727 0.96703 0.24089 0.0
C251 C 0.09089 0.98017 0.29741 0.0
C252 C 0.06694 0.92196 0.18211 0.0
C253 C 0.96613 0.98027 0.13639 0.0
N254 N 0.08208 0.96588 0.25958 0.0
N255 N 0.96375 0.98209 0.17575 0.0
H256 H 0.12217 0.95887 0.86887 0.0
H257 H 0.17057 0.14296 0.67649 0.0
H258 H 0.99714 0.11036 0.83966 0.0
H259 H 0.15462 0.95653 0.67099 0.0
H260 H 0.15317 0.13781 0.74616 0.0
H261 H 0.17747 0.96497 0.80475 0.0
C262 C 0.10784 -0.00592 0.84923 0.0
C263 C 0.05534 0.03423 0.85895 0.0
C264 C 0.15519 0.09804 0.72976 0.0
C265 C 0.11844 0.04192 0.78725 0.0
C266 C 0.16552 0.10075 0.69013 0.0
C267 C 0.16383 0.04997 0.66803 0.0
C268 C 0.14371 0.04425 0.74746 0.0
C269 C 0.15568 -0.00343 0.68711 0.0
C270 C 0.13889 -0.00273 0.81291 0.0
C271 C 0.03743 0.07871 0.83284 0.0
N272 N 0.14536 -0.00498 0.72599 0.0
N273 N 0.0692 0.08153 0.79805 0.0
H274 H 0.67859 0.48061 0.61746 0.0
H275 H 0.56103 0.60726 0.81881 0.0
H276 H 0.51628 0.61214 0.62548 0.0
H277 H 0.62688 0.42899 0.80726 0.0
H278 H 0.56345 0.61825 0.74842 0.0
H279 H 0.67817 0.4688 0.68808 0.0
C280 C 0.64277 0.50685 0.6341 0.0
C281 C 0.5973 0.54735 0.61574 0.0
C282 C 0.57752 0.57686 0.76147 0.0
C283 C 0.59769 0.53486 0.69613 0.0
C284 C 0.57604 0.57041 0.80161 0.0
C285 C 0.59318 0.51691 0.81917 0.0
C286 C 0.59753 0.52988 0.73872 0.0
C287 C 0.61415 0.47127 0.79526 0.0
C288 C 0.64253 0.50003 0.67426 0.0
C289 C 0.55181 0.58019 0.63855 0.0
N290 N 0.6158 0.47883 0.75623 0.0
N291 N 0.55364 0.57363 0.6777 0.0
H292 H 0.41474 0.60509 0.33028 0.0
H293 H 0.71504 0.49904 0.18706 0.0
H294 H 0.63255 0.5726 0.36857 0.0
H295 H 0.48927 0.50271 0.15855 0.0
H296 H 0.68858 0.52782 0.2534 0.0
H297 H 0.44495 0.57449 0.26545 0.0
C298 C 0.46921 0.59233 0.32494 0.0
C299 C 0.52106 0.59105 0.35496 0.0
C300 C 0.64489 0.52151 0.23269 0.0
C301 C 0.55569 0.55489 0.2809 0.0
C302 C 0.65992 0.50481 0.19499 0.0
C303 C 0.60428 0.49851 0.16732 0.0
C304 C 0.57388 0.53244 0.24247 0.0
C305 C 0.5338 0.50635 0.17903 0.0
C306 C 0.48629 0.57428 0.28798 0.0
C307 C 0.59085 0.57419 0.34627 0.0
N308 N 0.52071 0.52351 0.21558 0.0
N309 N 0.60609 0.55636 0.31001 0.0
loop_
_geom_bond_atom_site_label_1
_geom_bond_atom_site_label_2
_geom_bond_distance
_geom_bond_site_symmetry_2
_ccdc_geom_bond_type
O0 Mg1 1.990 . S
O0 C14 1.253 . S
Mg1 O0 1.990 . S
Mg1 O4 2.180 . S
Mg1 O5 2.117 . S
Mg1 O19 2.030 1_545 S
O2 Mg3 2.072 . S
O2 C14 1.260 . S
Mg3 O2 2.072 . S
Mg3 O4 2.099 . S
Mg3 O6 2.079 1_554 S
Mg3 O7 2.072 . S
Mg3 O9 2.099 1_444 S
Mg3 O20 2.079 1_544 S
O4 Mg1 2.180 . S
O4 Mg3 2.099 . S
O4 C15 1.279 . S
O5 Mg1 2.117 . S
O5 C15 1.250 . S
O6 Mg3 2.079 1_556 S
O6 C16 1.264 . S
O7 Mg3 2.072 . S
O7 C17 1.260 1_454 S
Mg8 O9 2.180 1_545 S
Mg8 O10 2.030 . S
Mg8 O11 1.990 . S
Mg8 O12 2.117 1_545 S
O9 Mg3 2.099 1_666 S
O9 Mg8 2.180 1_565 S
O9 C18 1.279 1_556 S
O10 Mg8 2.030 . S
O10 C16 1.248 1_655 S
O11 Mg8 1.990 . S
O11 C17 1.253 . S
O12 Mg8 2.117 1_565 S
O12 C18 1.250 1_556 S
C13 O19 1.248 . S
C13 O20 1.264 1_554 S
C14 O0 1.253 . S
C14 O2 1.260 . S
C15 O4 1.279 . S
C15 O5 1.250 . S
C16 O6 1.264 . S
C16 O10 1.248 1_455 S
C17 O7 1.260 1_656 S
C17 O11 1.253 . S
C18 O9 1.279 1_554 S
C18 O12 1.250 1_554 S
O19 Mg1 2.030 1_565 S
O19 C13 1.248 . S
O20 Mg3 2.079 1_566 S
O20 C13 1.264 1_556 S
O21 Mg22 1.990 . S
O21 C35 1.253 . S
Mg22 O21 1.990 . S
Mg22 O25 2.180 . S
Mg22 O26 2.117 . S
Mg22 O40 2.030 . S
O23 Mg24 2.072 . S
O23 C35 1.260 . S
Mg24 O23 2.072 . S
Mg24 O25 2.099 . S
Mg24 O27 2.079 . S
Mg24 O28 2.072 . S
Mg24 O30 2.099 . S
Mg24 O41 2.079 . S
O25 Mg22 2.180 . S
O25 Mg24 2.099 . S
O25 C36 1.279 . S
O26 Mg22 2.117 . S
O26 C36 1.250 . S
O27 Mg24 2.079 . S
O27 C37 1.264 . S
O28 Mg24 2.072 . S
O28 C38 1.260 . S
Mg29 O30 2.180 . S
Mg29 O31 2.030 . S
Mg29 O32 1.990 . S
Mg29 O33 2.117 . S
O30 Mg24 2.099 . S
O30 Mg29 2.180 . S
O30 C39 1.279 . S
O31 Mg29 2.030 . S
O31 C37 1.248 . S
O32 Mg29 1.990 . S
O32 C38 1.253 . S
O33 Mg29 2.117 . S
O33 C39 1.250 . S
C34 O40 1.248 . S
C34 O41 1.264 . S
C35 O21 1.253 . S
C35 O23 1.260 . S
C36 O25 1.279 . S
C36 O26 1.250 . S
C37 O27 1.264 . S
C37 O31 1.248 . S
C38 O28 1.260 . S
C38 O32 1.253 . S
C39 O30 1.279 . S
C39 O33 1.250 . S
O40 Mg22 2.030 . S
O40 C34 1.248 . S
O41 Mg24 2.079 . S
O41 C34 1.264 . S
H42 C49 0.929 . S
H43 C52 0.930 1_655 S
H44 C54 0.929 . S
H45 C46 0.969 . S
C46 H45 0.969 . S
C46 O47 1.550 1_655 S
C46 H48 0.973 . S
O47 C46 1.550 1_455 S
O47 C53 1.412 . S
H48 C46 0.973 . S
C49 H42 0.929 . S
C49 C50 1.400 . S
C49 C51 1.364 . S
C50 C49 1.400 . S
C50 C54 1.377 . S
C51 C49 1.364 . S
C51 C52 1.374 1_565 S
C52 H43 0.930 1_455 S
C52 C51 1.374 1_545 S
C52 C53 1.383 . S
C53 O47 1.412 . S
C53 C52 1.383 . S
C53 C54 1.394 1_545 S
C54 H44 0.929 . S
C54 C50 1.377 . S
C54 C53 1.394 1_565 S
H55 C62 0.929 . S
H56 C65 0.930 . S
H57 C67 0.929 . S
H58 C59 0.969 . S
C59 H58 0.969 . S
C59 O60 1.550 . S
C59 H61 0.973 1_545 S
O60 C59 1.550 . S
O60 C66 1.412 . S
H61 C59 0.973 1_565 S
C62 H55 0.929 . S
C62 C63 1.400 . S
C62 C64 1.364 . S
C63 C62 1.400 . S
C63 C67 1.377 . S
C64 C62 1.364 . S
C64 C65 1.374 1_455 S
C65 H56 0.930 . S
C65 C64 1.374 1_655 S
C65 C66 1.383 . S
C66 O60 1.412 . S
C66 C65 1.383 . S
C66 C67 1.394 1_655 S
C67 H57 0.929 . S
C67 C63 1.377 . S
C67 C66 1.394 1_455 S
H68 C75 0.929 . S
H69 C78 0.930 . S
H70 C80 0.929 1_554 S
H71 C72 0.969 . S
C72 H71 0.969 . S
C72 O73 1.550 . S
C72 H74 0.973 . S
O73 C72 1.550 . S
O73 C79 1.412 . S
H74 C72 0.973 . S
C75 H68 0.929 . S
C75 C76 1.400 . S
C75 C77 1.364 . S
C76 C75 1.400 . S
C76 C80 1.377 . S
C77 C75 1.364 . S
C77 C78 1.374 . S
C78 H69 0.930 . S
C78 C77 1.374 . S
C78 C79 1.383 . S
C79 O73 1.412 . S
C79 C78 1.383 . S
C79 C80 1.394 . S
C80 H70 0.929 1_556 S
C80 C76 1.377 . S
C80 C79 1.394 . S
H81 C88 0.929 . S
H82 C91 0.930 . S
H83 C93 0.929 . S
H84 C85 0.969 . S
C85 H84 0.969 . S
C85 O86 1.550 . S
C85 H87 0.973 . S
O86 C85 1.550 . S
O86 C92 1.412 . S
H87 C85 0.973 . S
C88 H81 0.929 . S
C88 C89 1.400 . S
C88 C90 1.364 . S
C89 C88 1.400 . S
C89 C93 1.377 . S
C90 C88 1.364 . S
C90 C91 1.374 . S
C91 H82 0.930 . S
C91 C90 1.374 . S
C91 C92 1.383 . S
C92 O86 1.412 . S
C92 C91 1.383 . S
C92 C93 1.394 . S
C93 H83 0.929 . S
C93 C89 1.377 . S
C93 C92 1.394 . S
H94 C100 0.930 . S
H95 C104 0.930 1_556 S
H96 C109 0.929 . S
H97 C107 0.929 . S
H98 C102 0.929 1_556 S
H99 C108 0.929 . S
C100 H94 0.930 . S
C100 C101 1.367 . S
C100 C108 1.378 . S
C101 C100 1.367 . S
C101 C109 1.433 1_554 S
C102 H98 0.929 1_554 S
C102 C104 1.378 . S
C102 C106 1.350 . S
C103 C106 1.463 . S
C103 C108 1.350 . S
C103 N111 1.427 1_554 S
C104 H95 0.930 1_554 S
C104 C102 1.378 . S
C104 C105 1.367 . S
C105 C104 1.367 . S
C105 C107 1.433 . S
C106 C102 1.350 . S
C106 C103 1.463 . S
C106 N110 1.427 . S
C107 H97 0.929 . S
C107 C105 1.433 . S
C107 N110 1.384 . S
C108 H99 0.929 . S
C108 C100 1.378 . S
C108 C103 1.350 . S
C109 H96 0.929 . S
C109 C101 1.433 1_556 S
C109 N111 1.384 . S
N110 C106 1.427 . S
N110 C107 1.384 . S
N111 C103 1.427 1_556 S
N111 C109 1.384 . S
H112 C118 0.930 . S
H113 C122 0.930 . S
H114 C127 0.929 . S
H115 C125 0.929 . S
H116 C120 0.929 . S
H117 C126 0.929 . S
C118 H112 0.930 . S
C118 C119 1.367 . S
C118 C126 1.378 . S
C119 C118 1.367 . S
C119 C127 1.433 1_554 S
C120 H116 0.929 . S
C120 C122 1.378 . S
C120 C124 1.350 . S
C121 C124 1.463 1_554 S
C121 C126 1.350 . S
C121 N129 1.427 1_554 S
C122 H113 0.930 . S
C122 C120 1.378 . S
C122 C123 1.367 . S
C123 C122 1.367 . S
C123 C125 1.433 1_556 S
C124 C120 1.350 . S
C124 C121 1.463 1_556 S
C124 N128 1.427 1_556 S
C125 H115 0.929 . S
C125 C123 1.433 1_554 S
C125 N128 1.384 . S
C126 H117 0.929 . S
C126 C118 1.378 . S
C126 C121 1.350 . S
C127 H114 0.929 . S
C127 C119 1.433 1_556 S
C127 N129 1.384 . S
N128 C124 1.427 1_554 S
N128 C125 1.384 . S
N129 C121 1.427 1_556 S
N129 C127 1.384 . S
H130 C136 0.930 . S
H131 C140 0.930 . S
H132 C145 0.929 . S
H133 C143 0.929 . S
H134 C138 0.929 . S
H135 C144 0.929 . S
C136 H130 0.930 . S
C136 C137 1.367 . S
C136 C144 1.378 . S
C137 C136 1.367 . S
C137 C145 1.433 . S
C138 H134 0.929 . S
C138 C140 1.378 . S
C138 C142 1.350 . S
C139 C142 1.463 . S
C139 C144 1.350 . S
C139 N147 1.427 . S
C140 H131 0.930 . S
C140 C138 1.378 . S
C140 C141 1.367 . S
C141 C140 1.367 . S
C141 C143 1.433 . S
C142 C138 1.350 . S
C142 C139 1.463 . S
C142 N146 1.427 . S
C143 H133 0.929 . S
C143 C141 1.433 . S
C143 N146 1.384 . S
C144 H135 0.929 . S
C144 C136 1.378 . S
C144 C139 1.350 . S
C145 H132 0.929 . S
C145 C137 1.433 . S
C145 N147 1.384 . S
N146 C142 1.427 . S
N146 C143 1.384 . S
N147 C139 1.427 . S
N147 C145 1.384 . S
H148 C154 0.930 . S
H149 C158 0.930 . S
H150 C163 0.929 . S
H151 C161 0.929 . S
H152 C156 0.929 . S
H153 C162 0.929 . S
C154 H148 0.930 . S
C154 C155 1.367 . S
C154 C162 1.378 . S
C155 C154 1.367 . S
C155 C163 1.433 1_556 S
C156 H152 0.929 . S
C156 C158 1.378 . S
C156 C160 1.350 1_554 S
C157 C160 1.463 . S
C157 C162 1.350 . S
C157 N165 1.427 1_556 S
C158 H149 0.930 . S
C158 C156 1.378 . S
C158 C159 1.367 1_554 S
C159 C158 1.367 1_556 S
C159 C161 1.433 . S
C160 C156 1.350 1_556 S
C160 C157 1.463 . S
C160 N164 1.427 . S
C161 H151 0.929 . S
C161 C159 1.433 . S
C161 N164 1.384 . S
C162 H153 0.929 . S
C162 C154 1.378 . S
C162 C157 1.350 . S
C163 H150 0.929 . S
C163 C155 1.433 1_554 S
C163 N165 1.384 . S
N164 C160 1.427 . S
N164 C161 1.384 . S
N165 C157 1.427 1_554 S
N165 C163 1.384 . S
H166 C172 0.930 . S
H167 C176 0.930 . S
H168 C181 0.929 . S
H169 C179 0.929 . S
H170 C174 0.929 . S
H171 C180 0.929 . S
C172 H166 0.930 . S
C172 C173 1.367 . S
C172 C180 1.378 . S
C173 C172 1.367 . S
C173 C181 1.433 . S
C174 H170 0.929 . S
C174 C176 1.378 . S
C174 C178 1.350 . S
C175 C178 1.463 . S
C175 C180 1.350 . S
C175 N183 1.427 . S
C176 H167 0.930 . S
C176 C174 1.378 . S
C176 C177 1.367 . S
C177 C176 1.367 . S
C177 C179 1.433 . S
C178 C174 1.350 . S
C178 C175 1.463 . S
C178 N182 1.427 . S
C179 H169 0.929 . S
C179 C177 1.433 . S
C179 N182 1.384 . S
C180 H171 0.929 . S
C180 C172 1.378 . S
C180 C175 1.350 . S
C181 H168 0.929 . S
C181 C173 1.433 . S
C181 N183 1.384 . S
N182 C178 1.427 . S
N182 C179 1.384 . S
N183 C175 1.427 . S
N183 C181 1.384 . S
H184 C190 0.930 . S
H185 C194 0.930 . S
H186 C199 0.929 . S
H187 C197 0.929 . S
H188 C192 0.929 . S
H189 C198 0.929 . S
C190 H184 0.930 . S
C190 C191 1.367 . S
C190 C198 1.378 . S
C191 C190 1.367 . S
C191 C199 1.433 . S
C192 H188 0.929 . S
C192 C194 1.378 . S
C192 C196 1.350 . S
C193 C196 1.463 . S
C193 C198 1.350 . S
C193 N201 1.427 . S
C194 H185 0.930 . S
C194 C192 1.378 . S
C194 C195 1.367 . S
C195 C194 1.367 . S
C195 C197 1.433 . S
C196 C192 1.350 . S
C196 C193 1.463 . S
C196 N200 1.427 . S
C197 H187 0.929 . S
C197 C195 1.433 . S
C197 N200 1.384 . S
C198 H189 0.929 . S
C198 C190 1.378 . S
C198 C193 1.350 . S
C199 H186 0.929 . S
C199 C191 1.433 . S
C199 N201 1.384 . S
N200 C196 1.427 . S
N200 C197 1.384 . S
N201 C193 1.427 . S
N201 C199 1.384 . S
H202 C208 0.930 . S
H203 C212 0.930 . S
H204 C217 0.929 . S
H205 C215 0.929 . S
H206 C210 0.929 . S
H207 C216 0.929 . S
C208 H202 0.930 . S
C208 C209 1.367 . S
C208 C216 1.378 . S
C209 C208 1.367 . S
C209 C217 1.433 . S
C210 H206 0.929 . S
C210 C212 1.378 . S
C210 C214 1.350 . S
C211 C214 1.463 . S
C211 C216 1.350 . S
C211 N219 1.427 . S
C212 H203 0.930 . S
C212 C210 1.378 . S
C212 C213 1.367 . S
C213 C212 1.367 . S
C213 C215 1.433 . S
C214 C210 1.350 . S
C214 C211 1.463 . S
C214 N218 1.427 . S
C215 H205 0.929 . S
C215 C213 1.433 . S
C215 N218 1.384 . S
C216 H207 0.929 . S
C216 C208 1.378 . S
C216 C211 1.350 . S
C217 H204 0.929 . S
C217 C209 1.433 . S
C217 N219 1.384 . S
N218 C214 1.427 . S
N218 C215 1.384 . S
N219 C211 1.427 . S
N219 C217 1.384 . S
H220 C226 0.930 . S
H221 C230 0.930 . S
H222 C235 0.929 . S
H223 C233 0.929 . S
H224 C228 0.929 . S
H225 C234 0.929 . S
C226 H220 0.930 . S
C226 C227 1.367 . S
C226 C234 1.378 . S
C227 C226 1.367 . S
C227 C235 1.433 . S
C228 H224 0.929 . S
C228 C230 1.378 . S
C228 C232 1.350 . S
C229 C232 1.463 . S
C229 C234 1.350 . S
C229 N237 1.427 . S
C230 H221 0.930 . S
C230 C228 1.378 . S
C230 C231 1.367 . S
C231 C230 1.367 . S
C231 C233 1.433 . S
C232 C228 1.350 . S
C232 C229 1.463 . S
C232 N236 1.427 . S
C233 H223 0.929 . S
C233 C231 1.433 . S
C233 N236 1.384 . S
C234 H225 0.929 . S
C234 C226 1.378 . S
C234 C229 1.350 . S
C235 H222 0.929 . S
C235 C227 1.433 . S
C235 N237 1.384 . S
N236 C232 1.427 . S
N236 C233 1.384 . S
N237 C229 1.427 . S
N237 C235 1.384 . S
H238 C244 0.930 . S
H239 C248 0.930 1_655 S
H240 C253 0.929 1_655 S
H241 C251 0.929 . S
H242 C246 0.929 1_655 S
H243 C252 0.929 . S
C244 H238 0.930 . S
C244 C245 1.367 1_565 S
C244 C252 1.378 . S
C245 C244 1.367 1_545 S
C245 C253 1.433 . S
C246 H242 0.929 1_455 S
C246 C248 1.378 . S
C246 C250 1.348 1_545 S
C247 C250 1.462 1_545 S
C247 C252 1.350 1_545 S
C247 N255 1.427 . S
C248 H239 0.930 1_455 S
C248 C246 1.378 . S
C248 C249 1.367 1_545 S
C249 C248 1.367 1_565 S
C249 C251 1.433 . S
C250 C246 1.348 1_565 S
C250 C247 1.462 1_565 S
C250 N254 1.429 . S
C251 H241 0.929 . S
C251 C249 1.433 . S
C251 N254 1.384 . S
C252 H243 0.929 . S
C252 C244 1.378 . S
C252 C247 1.350 1_565 S
C253 H240 0.929 1_455 S
C253 C245 1.433 . S
C253 N255 1.384 . S
N254 C250 1.429 . S
N254 C251 1.384 . S
N255 C247 1.427 . S
N255 C253 1.384 . S
H256 C262 0.930 1_565 S
H257 C266 0.930 . S
H258 C271 0.929 . S
H259 C269 0.929 . S
H260 C264 0.929 . S
H261 C270 0.929 1_565 S
C262 H256 0.930 1_545 S
C262 C263 1.367 . S
C262 C270 1.378 . S
C263 C262 1.367 . S
C263 C271 1.433 . S
C264 H260 0.929 . S
C264 C266 1.378 . S
C264 C268 1.350 . S
C265 C268 1.463 . S
C265 C270 1.350 . S
C265 N273 1.427 . S
C266 H257 0.930 . S
C266 C264 1.378 . S
C266 C267 1.367 . S
C267 C266 1.367 . S
C267 C269 1.433 . S
C268 C264 1.350 . S
C268 C265 1.463 . S
C268 N272 1.427 . S
C269 H259 0.929 . S
C269 C267 1.433 . S
C269 N272 1.384 . S
C270 H261 0.929 1_545 S
C270 C262 1.378 . S
C270 C265 1.350 . S
C271 H258 0.929 . S
C271 C263 1.433 . S
C271 N273 1.384 . S
N272 C268 1.427 . S
N272 C269 1.384 . S
N273 C265 1.427 . S
N273 C271 1.384 . S
H274 C280 0.930 . S
H275 C284 0.930 . S
H276 C289 0.929 . S
H277 C287 0.929 . S
H278 C282 0.929 . S
H279 C288 0.929 . S
C280 H274 0.930 . S
C280 C281 1.367 . S
C280 C288 1.378 . S
C281 C280 1.367 . S
C281 C289 1.433 . S
C282 H278 0.929 . S
C282 C284 1.378 . S
C282 C286 1.350 . S
C283 C286 1.463 . S
C283 C288 1.350 . S
C283 N291 1.427 . S
C284 H275 0.930 . S
C284 C282 1.378 . S
C284 C285 1.367 . S
C285 C284 1.367 . S
C285 C287 1.433 . S
C286 C282 1.350 . S
C286 C283 1.463 . S
C286 N290 1.427 . S
C287 H277 0.929 . S
C287 C285 1.433 . S
C287 N290 1.384 . S
C288 H279 0.929 . S
C288 C280 1.378 . S
C288 C283 1.350 . S
C289 H276 0.929 . S
C289 C281 1.433 . S
C289 N291 1.384 . S
N290 C286 1.427 . S
N290 C287 1.384 . S
N291 C283 1.427 . S
N291 C289 1.384 . S
H292 C298 0.930 . S
H293 C302 0.930 . S
H294 C307 0.929 . S
H295 C305 0.929 . S
H296 C300 0.929 . S
H297 C306 0.929 . S
C298 H292 0.930 . S
C298 C299 1.367 . S
C298 C306 1.378 . S
C299 C298 1.367 . S
C299 C307 1.433 . S
C300 H296 0.929 . S
C300 C302 1.378 . S
C300 C304 1.350 . S
C301 C304 1.463 . S
C301 C306 1.350 . S
C301 N309 1.427 . S
C302 H293 0.930 . S
C302 C300 1.378 . S
C302 C303 1.367 . S
C303 C302 1.367 . S
C303 C305 1.433 . S
C304 C300 1.350 . S
C304 C301 1.463 . S
C304 N308 1.427 . S
C305 H295 0.929 . S
C305 C303 1.433 . S
C305 N308 1.384 . S
C306 H297 0.929 . S
C306 C298 1.378 . S
C306 C301 1.350 . S
C307 H294 0.929 . S
C307 C299 1.433 . S
C307 N309 1.384 . S
N308 C304 1.427 . S
N308 C305 1.384 . S
N309 C301 1.427 . S
N309 C307 1.384 . S
C105 C85 1.317 . S
C101 C15 1.241 . S
C119 C13 1.453 . S
C123 C72 1.333 . S
C137 C18 1.335 . S
C141 C89 1.540 . S
C155 C17 1.414 . S
C159 C76 1.481 . S
C173 C36 1.240 . S
C177 C59 1.323 1_565 S
C191 C34 1.456 . S
C195 C46 1.337 . S
C213 C63 1.539 . S
C209 C39 1.318 . S
C231 C50 1.474 . S
C227 C38 1.424 . S
C245 C14 1.551 . S
C249 C51 1.617 . S
C263 C16 1.412 . S
C267 C64 1.470 . S
C285 C77 1.616 . S
C281 C35 1.559 . S
C299 C37 1.418 . S
C303 C90 1.470 . S
