# Generated by pormake.
# Topology llk, (3,12)-cn, num edge types: 1
# Building blocks:
#     Node 0, Type 0, BuildingBlock: QEWDON_clean_linker_0, # of connection points: 3
#     Node 1, Type 0, BuildingBlock: QEWDON_clean_linker_0, # of connection points: 3
#     Node 2, Type 0, BuildingBlock: QEWDON_clean_linker_0, # of connection points: 3
#     Node 3, Type 0, BuildingBlock: QEWDON_clean_linker_0, # of connection points: 3
#     Node 4, Type 0, BuildingBlock: QEWDON_clean_linker_0, # of connection points: 3
#     Node 5, Type 0, BuildingBlock: QEWDON_clean_linker_0, # of connection points: 3
#     Node 6, Type 0, BuildingBlock: QEWDON_clean_linker_0, # of connection points: 3
#     Node 7, Type 0, BuildingBlock: QEWDON_clean_linker_0, # of connection points: 3
#     Node 8, Type 0, BuildingBlock: QEWDON_clean_linker_0, # of connection points: 3
#     Node 9, Type 0, BuildingBlock: QEWDON_clean_linker_0, # of connection points: 3
#     Node 10, Type 0, BuildingBlock: QEWDON_clean_linker_0, # of connection points: 3
#     Node 11, Type 0, BuildingBlock: QEWDON_clean_linker_0, # of connection points: 3
#     Node 12, Type 0, BuildingBlock: QEWDON_clean_linker_0, # of connection points: 3
#     Node 13, Type 0, BuildingBlock: QEWDON_clean_linker_0, # of connection points: 3
#     Node 14, Type 0, BuildingBlock: QEWDON_clean_linker_0, # of connection points: 3
#     Node 15, Type 0, BuildingBlock: QEWDON_clean_linker_0, # of connection points: 3
#     Node 16, Type 0, BuildingBlock: QEWDON_clean_linker_0, # of connection points: 3
#     Node 17, Type 0, BuildingBlock: QEWDON_clean_linker_0, # of connection points: 3
#     Node 18, Type 0, BuildingBlock: QEWDON_clean_linker_0, # of connection points: 3
#     Node 19, Type 0, BuildingBlock: QEWDON_clean_linker_0, # of connection points: 3
#     Node 20, Type 0, BuildingBlock: QEWDON_clean_linker_0, # of connection points: 3
#     Node 21, Type 0, BuildingBlock: QEWDON_clean_linker_0, # of connection points: 3
#     Node 22, Type 0, BuildingBlock: QEWDON_clean_linker_0, # of connection points: 3
#     Node 23, Type 0, BuildingBlock: QEWDON_clean_linker_0, # of connection points: 3
#     Node 24, Type 1, BuildingBlock: EZIPEK_clean_sbu_0, # of connection points: 12
#     Node 25, Type 1, BuildingBlock: EZIPEK_clean_sbu_0, # of connection points: 12
#     Node 26, Type 1, BuildingBlock: EZIPEK_clean_sbu_0, # of connection points: 12
#     Node 27, Type 1, BuildingBlock: EZIPEK_clean_sbu_0, # of connection points: 12
#     Node 28, Type 1, BuildingBlock: EZIPEK_clean_sbu_0, # of connection points: 12
#     Node 29, Type 1, BuildingBlock: EZIPEK_clean_sbu_0, # of connection points: 12
#     Edge 30, Type (0, 1), None
#     Edge 31, Type (0, 1), None
#     Edge 32, Type (0, 1), None
#     Edge 33, Type (0, 1), None
#     Edge 34, Type (0, 1), None
#     Edge 35, Type (0, 1), None
#     Edge 36, Type (0, 1), None
#     Edge 37, Type (0, 1), None
#     Edge 38, Type (0, 1), None
#     Edge 39, Type (0, 1), None
#     Edge 40, Type (0, 1), None
#     Edge 41, Type (0, 1), None
#     Edge 42, Type (0, 1), None
#     Edge 43, Type (0, 1), None
#     Edge 44, Type (0, 1), None
#     Edge 45, Type (0, 1), None
#     Edge 46, Type (0, 1), None
#     Edge 47, Type (0, 1), None
#     Edge 48, Type (0, 1), None
#     Edge 49, Type (0, 1), None
#     Edge 50, Type (0, 1), None
#     Edge 51, Type (0, 1), None
#     Edge 52, Type (0, 1), None
#     Edge 53, Type (0, 1), None
#     Edge 54, Type (0, 1), None
#     Edge 55, Type (0, 1), None
#     Edge 56, Type (0, 1), None
#     Edge 57, Type (0, 1), None
#     Edge 58, Type (0, 1), None
#     Edge 59, Type (0, 1), None
#     Edge 60, Type (0, 1), None
#     Edge 61, Type (0, 1), None
#     Edge 62, Type (0, 1), None
#     Edge 63, Type (0, 1), None
#     Edge 64, Type (0, 1), None
#     Edge 65, Type (0, 1), None
#     Edge 66, Type (0, 1), None
#     Edge 67, Type (0, 1), None
#     Edge 68, Type (0, 1), None
#     Edge 69, Type (0, 1), None
#     Edge 70, Type (0, 1), None
#     Edge 71, Type (0, 1), None
#     Edge 72, Type (0, 1), None
#     Edge 73, Type (0, 1), None
#     Edge 74, Type (0, 1), None
#     Edge 75, Type (0, 1), None
#     Edge 76, Type (0, 1), None
#     Edge 77, Type (0, 1), None
#     Edge 78, Type (0, 1), None
#     Edge 79, Type (0, 1), None
#     Edge 80, Type (0, 1), None
#     Edge 81, Type (0, 1), None
#     Edge 82, Type (0, 1), None
#     Edge 83, Type (0, 1), None
#     Edge 84, Type (0, 1), None
#     Edge 85, Type (0, 1), None
#     Edge 86, Type (0, 1), None
#     Edge 87, Type (0, 1), None
#     Edge 88, Type (0, 1), None
#     Edge 89, Type (0, 1), None
#     Edge 90, Type (0, 1), None
#     Edge 91, Type (0, 1), None
#     Edge 92, Type (0, 1), None
#     Edge 93, Type (0, 1), None
#     Edge 94, Type (0, 1), None
#     Edge 95, Type (0, 1), None
#     Edge 96, Type (0, 1), None
#     Edge 97, Type (0, 1), None
#     Edge 98, Type (0, 1), None
#     Edge 99, Type (0, 1), None
#     Edge 100, Type (0, 1), None
#     Edge 101, Type (0, 1), None
# Relax obj value: 0.106
# Max RMSD: 0.251
# Mean RMSD: 0.192
data_MOF--net-llk--node1-EZIPEK_clean_sbu_0--node2-QEWDON_clean_linker_0--edge1-none
_symmetry_space_group_name_H-M    P1
_symmetry_Int_Tables_number       1
_symmetry_cell_setting            triclinic
loop_
_symmetry_equiv_pos_as_xyz
'x, y, z'
_cell_length_a     25.172504
_cell_length_b     24.767245
_cell_length_c     24.435752
_cell_angle_alpha  90.073993
_cell_angle_beta   89.800442
_cell_angle_gamma 89.82663
loop_
_atom_site_label
_atom_site_type_symbol
_atom_site_fract_x
_atom_site_fract_y
_atom_site_fract_z
_atom_type_partial_charge
H0 H 0.02179 0.35946 0.31703 0.0
C1 C 0.03331 0.3223 0.33708 0.0
C2 C 0.04333 0.32347 0.39319 0.0
C3 C 0.03478 0.27322 0.30792 0.0
H4 H 0.06234 0.2766 0.46447 0.0
C5 C 0.05467 0.27544 0.42087 0.0
C6 C 0.05398 0.22581 0.39387 0.0
C7 C 0.04569 0.22499 0.33687 0.0
C8 C 0.02074 0.27254 0.24856 0.0
H9 H 0.0464 0.1867 0.31551 0.0
C10 C 0.0304 0.31809 0.21522 0.0
C11 C 1.0121 0.32006 0.16102 0.0
C12 C 0.99442 0.22791 0.22551 0.0
H13 H 0.9847 0.19282 0.24971 0.0
C14 C 0.9784 0.22867 0.17099 0.0
H15 H 0.05177 0.35238 0.23143 0.0
C16 C 0.98677 0.27437 0.13902 0.0
H17 H 0.97233 0.27407 0.09732 0.0
H18 H 0.9582 0.19414 0.15372 0.0
H19 H 0.74218 0.05919 0.37005 0.0
C20 C 0.7234 0.04995 0.33137 0.0
C21 C 0.66876 0.03971 0.33074 0.0
C22 C 0.75283 0.05097 0.28193 0.0
H23 H 0.60157 0.02123 0.2809 0.0
C24 C 0.64369 0.03024 0.28099 0.0
C25 C 0.67115 0.03347 0.23139 0.0
C26 C 0.72608 0.04217 0.23187 0.0
C27 C 0.81061 0.06394 0.28251 0.0
H28 H 0.74739 0.04325 0.19333 0.0
C29 C 0.84263 0.04872 0.32715 0.0
C30 C 0.89656 0.06306 0.32915 0.0
C31 C 0.83395 0.09299 0.2392 0.0
H32 H 0.81061 0.10685 0.20487 0.0
C33 C 0.88781 0.10572 0.24011 0.0
H34 H 0.82571 0.0255 0.36039 0.0
C35 C 0.919 0.09097 0.28467 0.0
H36 H 0.9605 0.10233 0.28458 0.0
H37 H 0.90524 0.12785 0.20645 0.0
H38 H 0.03309 0.73669 0.36628 0.0
C39 C 0.0386 0.7156 0.32788 0.0
C40 C 0.04421 0.65928 0.32872 0.0
C41 C 0.03795 0.74402 0.27775 0.0
H42 H 0.05016 0.5875 0.27914 0.0
C43 C 0.04722 0.63112 0.27903 0.0
C44 C 0.04404 0.65792 0.22899 0.0
C45 C 0.04163 0.71446 0.22854 0.0
C46 C 0.03102 0.80395 0.27664 0.0
H47 H 0.04203 0.73517 0.18961 0.0
C48 C 0.04739 0.83586 0.32121 0.0
C49 C 0.03712 0.8915 0.32243 0.0
C50 C 1.00606 0.82973 0.23205 0.0
H51 H 0.99083 0.80708 0.19769 0.0
C52 C 0.99873 0.88555 0.23175 0.0
H53 H 0.06762 0.81767 0.3556 0.0
C54 C 1.01394 0.91638 0.2767 0.0
H55 H 1.00539 0.95928 0.27652 0.0
H56 H 0.97956 0.90477 0.19727 0.0
H57 H 0.30725 0.98139 0.36719 0.0
C58 C 0.3238 0.99412 0.3282 0.0
C59 C 0.37016 0.0228 0.32876 0.0
C60 C 0.29608 0.98435 0.27901 0.0
H61 H 0.42975 0.0577 0.27511 0.0
C62 C 0.39208 0.03684 0.2757 0.0
C63 C 0.36733 0.02308 0.22359 0.0
C64 C 0.31772 0.99729 0.22701 0.0
C65 C 0.24221 0.96418 0.28722 0.0
H66 H 0.29606 0.98755 0.1901 0.0
C67 C 0.21165 0.99678 0.32239 0.0
C68 C 0.18903 0.97373 0.36887 0.0
C69 C 0.2353 0.90802 0.28835 0.0
H70 H 0.25868 0.88209 0.2618 0.0
C71 C 0.20413 0.88483 0.32947 0.0
H72 H 0.21661 0.04032 0.32115 0.0
C73 C 0.183 0.91739 0.37103 0.0
H74 H 0.16138 0.89864 0.40402 0.0
H75 H 0.19971 0.84142 0.33149 0.0
H76 H 0.98621 0.68738 0.74262 0.0
C77 C 0.99597 0.72504 0.72251 0.0
C78 C 1.01272 0.72395 0.66809 0.0
C79 C 0.99104 0.77447 0.75067 0.0
H80 H 0.0356 0.77185 0.59872 0.0
C81 C 0.02282 0.77248 0.64106 0.0
C82 C 1.01505 0.82194 0.66691 0.0
C83 C 1.00015 0.82299 0.72234 0.0
C84 C 0.97695 0.77448 0.80956 0.0
H85 H 0.99612 0.86129 0.74339 0.0
C86 C 0.99514 0.7322 0.84277 0.0
C87 C 0.97897 0.72807 0.89721 0.0
C88 C 0.94437 0.81482 0.83271 0.0
H89 H 0.92901 0.84762 0.80812 0.0
C90 C 0.93005 0.81224 0.88793 0.0
H91 H 0.02183 0.70187 0.82617 0.0
C92 C 0.94695 0.76894 0.9201 0.0
H93 H 0.93377 0.76674 0.96229 0.0
H94 H 0.90473 0.84318 0.9055 0.0
H95 H 0.30879 0.02842 0.69269 0.0
C96 C 0.3296 0.02221 0.73084 0.0
C97 C 0.38449 1.01469 0.72873 0.0
C98 C 0.30178 0.02236 0.78142 0.0
H99 H 0.45486 1.00663 0.77919 0.0
C100 C 0.41206 1.01074 0.77969 0.0
C101 C 0.38557 1.01288 0.83141 0.0
C102 C 0.33019 1.01734 0.8311 0.0
C103 C 0.24281 0.0279 0.78212 0.0
H104 H 0.30929 1.01638 0.86984 0.0
C105 C 0.21258 1.00944 0.73751 0.0
C106 C 0.15768 1.01795 0.73569 0.0
C107 C 0.21625 0.05294 0.82631 0.0
H108 H 0.23779 0.06929 0.86075 0.0
C109 C 0.16112 0.05864 0.82603 0.0
H110 H 0.23148 0.98882 0.70353 0.0
C111 C 0.13189 0.04154 0.78094 0.0
H112 H 0.08945 0.04893 0.78065 0.0
H113 H 0.14115 0.07797 0.86016 0.0
H114 H 0.98965 0.30872 0.68827 0.0
C115 C 0.99624 0.32871 0.72711 0.0
C116 C 1.00919 0.38341 0.72753 0.0
C117 C 0.99025 0.3006 0.77676 0.0
H118 H 0.02727 0.45254 0.77652 0.0
C119 C 1.01557 0.41045 0.7766 0.0
C120 C 1.00608 0.38482 0.82568 0.0
C121 C 0.99481 0.32929 0.82629 0.0
C122 C 0.97877 0.24194 0.77623 0.0
H123 H 0.98975 0.30869 0.865 0.0
C124 C 0.99959 0.20937 0.7341 0.0
C125 C 0.98624 0.15476 0.73031 0.0
C126 C 0.94605 0.21831 0.81633 0.0
H127 H 0.92844 0.24224 0.84878 0.0
C128 C 0.93452 0.16334 0.81417 0.0
H129 H 0.02607 0.22658 0.70381 0.0
C130 C 0.95413 0.1317 0.77136 0.0
H131 H 0.94307 0.08949 0.76993 0.0
H132 H 0.90934 0.14546 0.84514 0.0
H133 H 0.68559 1.01245 0.73463 0.0
C134 C 0.72316 1.00591 0.71397 0.0
C135 C 0.72267 1.00079 0.65732 0.0
C136 C 0.77133 1.00777 0.74317 0.0
H137 H 0.77262 0.99591 0.58484 0.0
C138 C 0.77237 0.99822 0.62911 0.0
C139 C 0.82176 0.99991 0.65719 0.0
C140 C 0.82021 1.0027 0.71454 0.0
C141 C 0.77003 0.02169 0.8025 0.0
H142 H 0.85738 1.00337 0.73665 0.0
C143 C 0.72547 1.00865 0.83536 0.0
C144 C 0.72099 0.02862 0.88881 0.0
C145 C 0.81098 0.05306 0.8254 0.0
H146 H 0.84488 0.06579 0.80144 0.0
C147 C 0.8077 0.07088 0.87927 0.0
H148 H 0.69398 0.98342 0.81959 0.0
C149 C 0.76304 0.05927 0.91062 0.0
H150 H 0.76116 0.07553 0.95177 0.0
H151 H 0.83924 0.09515 0.89639 0.0
H152 H 0.31707 0.36806 0.02085 0.0
C153 C 0.33499 0.3287 1.01485 0.0
C154 C 0.38899 0.32668 1.0041 0.0
C155 C 0.30445 0.28114 0.02042 0.0
H156 H 0.45528 0.27114 0.99411 0.0
C157 C 0.41288 0.27345 1.001 0.0
C158 C 0.3837 0.22338 1.00812 0.0
C159 C 0.32884 0.22903 0.01678 0.0
C160 C 0.24703 0.28719 0.03343 0.0
H161 H 0.30524 0.19282 0.0211 0.0
C162 C 0.21779 0.33225 1.014 0.0
C163 C 0.16497 0.33999 0.02994 0.0
C164 C 0.2219 0.24998 0.06836 0.0
H165 H 0.24331 0.21611 0.08558 0.0
C166 C 0.16894 0.25696 0.08312 0.0
H167 H 0.23548 0.36096 0.98601 0.0
C168 C 0.14069 0.30146 0.06415 0.0
H169 H 0.09978 0.30603 0.07702 0.0
H170 H 0.14988 0.2282 0.11008 0.0
H171 H 0.31962 0.67944 0.99647 0.0
C172 C 0.33671 0.7186 1.00504 0.0
C173 C 0.39023 0.72073 0.01862 0.0
C174 C 0.30501 0.76581 1.00196 0.0
H175 H 0.45432 0.77601 0.03635 0.0
C176 C 0.41245 0.77377 0.02688 0.0
C177 C 0.38217 0.82368 0.02255 0.0
C178 C 0.32797 0.81791 1.01032 0.0
C179 C 0.24748 0.75953 0.98915 0.0
H180 H 0.30352 0.85388 1.00831 0.0
C181 C 0.21879 0.71373 1.00754 0.0
C182 C 0.16526 0.70696 0.9936 0.0
C183 C 0.22124 0.79812 0.95674 0.0
H184 H 0.24211 0.83284 0.94066 0.0
C185 C 0.16784 0.79171 0.94344 0.0
H186 H 0.23736 0.68394 0.03371 0.0
C187 C 0.13999 0.74665 0.96177 0.0
H188 H 0.09861 0.7425 0.95045 0.0
H189 H 0.14803 0.82161 0.91842 0.0
H190 H 0.68961 0.29647 0.99769 0.0
C191 C 0.72697 0.31771 0.99376 0.0
C192 C 0.72534 0.37264 1.00198 0.0
C193 C 0.77617 0.28993 0.99326 0.0
H194 H 0.77254 0.44455 1.00697 0.0
C195 C 0.77389 0.40122 1.00109 0.0
C196 C 0.82396 0.37454 0.99584 0.0
C197 C 0.82429 0.31865 0.98976 0.0
C198 C 0.77577 0.23618 0.01835 0.0
H199 H 0.86186 0.29713 0.99001 0.0
C200 C 0.73039 0.2046 1.01083 0.0
C201 C 0.71053 0.17514 0.05435 0.0
C202 C 0.80801 0.22723 0.06464 0.0
H203 H 0.84344 0.25079 0.07201 0.0
C204 C 0.79098 0.19276 0.10594 0.0
H205 H 0.7071 0.20839 0.9737 0.0
C206 C 0.74149 0.16831 0.10184 0.0
H207 H 0.72785 0.14303 0.13522 0.0
H208 H 0.81478 0.18739 0.14234 0.0
H209 H 0.68862 0.73828 0.05875 0.0
C210 C 0.72685 0.71984 0.06726 0.0
C211 C 0.72784 0.66545 0.07869 0.0
C212 C 0.77434 0.74875 0.05832 0.0
H213 H 0.78035 0.5976 0.09256 0.0
C214 C 0.77855 0.6407 0.08507 0.0
C215 C 0.82707 0.66938 0.07568 0.0
C216 C 0.82419 0.72409 0.06358 0.0
C217 C 0.76893 0.80071 0.03148 0.0
H218 H 0.85991 0.74601 0.05264 0.0
C219 C 0.72822 0.83383 0.05046 0.0
C220 C 0.70229 0.86712 1.01432 0.0
C221 C 0.79041 0.8086 0.97886 0.0
H222 H 0.82155 0.78251 0.96314 0.0
C223 C 0.76788 0.84715 0.94429 0.0
H224 H 0.7126 0.82883 0.09167 0.0
C225 C 0.72285 0.87563 0.96151 0.0
H226 H 0.70441 0.90438 0.93408 0.0
H227 H 0.78367 0.85312 0.90349 0.0
H228 H 0.52194 0.85948 0.81703 0.0
C229 C 0.53346 0.82231 0.83707 0.0
C230 C 0.54352 0.82348 0.89317 0.0
C231 C 0.53485 0.77322 0.80792 0.0
H232 H 0.56253 0.77658 0.96445 0.0
C233 C 0.55483 0.77543 0.92085 0.0
C234 C 0.55404 0.7258 0.89386 0.0
C235 C 0.54572 0.72499 0.83686 0.0
C236 C 0.52077 0.77255 0.74856 0.0
H237 H 0.54637 0.68669 0.81551 0.0
C238 C 0.53043 0.81809 0.71522 0.0
C239 C 0.5121 0.82007 0.66103 0.0
C240 C 0.4944 0.72794 0.72554 0.0
H241 H 0.48466 0.69286 0.74975 0.0
C242 C 0.47835 0.7287 0.67103 0.0
H243 H 0.55184 0.85237 0.73141 0.0
C244 C 0.48673 0.77439 0.63904 0.0
H245 H 0.47227 0.7741 0.59735 0.0
H246 H 0.45812 0.69419 0.65377 0.0
H247 H 0.2422 0.55922 0.87007 0.0
C248 C 0.22341 0.54997 0.8314 0.0
C249 C 0.16878 0.5397 0.83078 0.0
C250 C 0.25284 0.55098 0.78195 0.0
H251 H 0.1016 0.52116 0.78096 0.0
C252 C 0.14371 0.5302 0.78103 0.0
C253 C 0.17116 0.53345 0.73142 0.0
C254 C 0.22608 0.54216 0.73189 0.0
C255 C 0.31061 0.56395 0.78252 0.0
H256 H 0.24738 0.54325 0.69335 0.0
C257 C 0.34263 0.54873 0.82716 0.0
C258 C 0.39655 0.56308 0.82917 0.0
C259 C 0.33394 0.59301 0.73921 0.0
H260 H 0.3106 0.60687 0.70489 0.0
C261 C 0.3878 0.60574 0.74012 0.0
H262 H 0.32571 0.5255 0.86039 0.0
C263 C 0.419 0.59099 0.78469 0.0
H264 H 0.46049 0.60236 0.7846 0.0
H265 H 0.40524 0.62787 0.70646 0.0
H266 H 0.53306 0.23674 0.86624 0.0
C267 C 0.53857 0.21563 0.82785 0.0
C268 C 0.54416 0.15932 0.82871 0.0
C269 C 0.53795 0.24404 0.77771 0.0
H270 H 0.55011 0.08753 0.77915 0.0
C271 C 0.54718 0.13114 0.77902 0.0
C272 C 0.54402 0.15793 0.72898 0.0
C273 C 0.54163 0.21447 0.72851 0.0
C274 C 0.53104 0.30397 0.77657 0.0
H275 H 0.54205 0.23517 0.68957 0.0
C276 C 0.54744 0.33588 0.82112 0.0
C277 C 0.53718 0.39152 0.82234 0.0
C278 C 0.50609 0.32975 0.73198 0.0
H279 H 0.49085 0.30709 0.69762 0.0
C280 C 0.49878 0.38557 0.73167 0.0
H281 H 0.56767 0.31769 0.85551 0.0
C282 C 0.51399 0.4164 0.77662 0.0
H283 H 0.50545 0.4593 0.77644 0.0
H284 H 0.47961 0.40479 0.69719 0.0
H285 H 0.80728 0.48132 0.86718 0.0
C286 C 0.82381 0.49408 0.82818 0.0
C287 C 0.87015 0.5228 0.82874 0.0
C288 C 0.79608 0.48431 0.77901 0.0
H289 H 0.9297 0.55776 0.77509 0.0
C290 C 0.89204 0.53687 0.77568 0.0
C291 C 0.86728 0.52311 0.72357 0.0
C292 C 0.8177 0.49728 0.727 0.0
C293 C 0.74221 0.46414 0.78723 0.0
H294 H 0.79602 0.48755 0.69009 0.0
C295 C 0.71166 0.49675 0.8224 0.0
C296 C 0.68904 0.4737 0.86888 0.0
C297 C 0.73531 0.40798 0.78836 0.0
H298 H 0.75868 0.38204 0.76182 0.0
C299 C 0.70413 0.3848 0.82948 0.0
H300 H 0.71662 0.54028 0.82115 0.0
C301 C 0.683 0.41736 0.87103 0.0
H302 H 0.66137 0.39862 0.90402 0.0
H303 H 0.6997 0.34139 0.8315 0.0
H304 H 0.48611 0.18738 0.24262 0.0
C305 C 0.49589 0.22503 0.22251 0.0
C306 C 0.51264 0.22393 0.1681 0.0
C307 C 0.49097 0.27447 0.25067 0.0
H308 H 0.5356 0.27182 0.09875 0.0
C309 C 0.52278 0.27246 0.14108 0.0
C310 C 0.51502 0.32193 0.16692 0.0
C311 C 0.5001 0.32299 0.22234 0.0
C312 C 0.47689 0.27448 0.30955 0.0
H313 H 0.49608 0.36129 0.24338 0.0
C314 C 0.49509 0.2322 0.34276 0.0
C315 C 0.47894 0.22806 0.3972 0.0
C316 C 0.44432 0.31481 0.33271 0.0
H317 H 0.42895 0.34761 0.30812 0.0
C318 C 0.43 0.31223 0.38794 0.0
H319 H 0.52179 0.20188 0.32616 0.0
C320 C 0.44692 0.26893 0.4201 0.0
H321 H 0.43374 0.26673 0.46229 0.0
H322 H 0.40467 0.34316 0.40551 0.0
H323 H 0.80875 0.52835 0.19266 0.0
C324 C 0.82956 0.52218 0.23081 0.0
C325 C 0.88446 0.51471 0.22871 0.0
C326 C 0.80174 0.5223 0.28139 0.0
H327 H 0.95484 0.50674 0.27917 0.0
C328 C 0.91204 0.5108 0.27967 0.0
C329 C 0.88554 0.51292 0.33138 0.0
C330 C 0.83016 0.51732 0.33107 0.0
C331 C 0.74276 0.52777 0.28209 0.0
H332 H 0.80926 0.51633 0.36981 0.0
C333 C 0.71255 0.50931 0.23748 0.0
C334 C 0.65764 0.51777 0.23566 0.0
C335 C 0.71618 0.55276 0.32631 0.0
H336 H 0.7377 0.56912 0.36075 0.0
C337 C 0.66104 0.55839 0.32604 0.0
H338 H 0.73146 0.48873 0.20348 0.0
C339 C 0.63182 0.5413 0.28093 0.0
H340 H 0.58937 0.54864 0.28066 0.0
H341 H 0.64106 0.57768 0.36018 0.0
H342 H 0.48973 0.80871 0.18828 0.0
C343 C 0.49628 0.8287 0.22712 0.0
C344 C 0.5092 0.88342 0.22755 0.0
C345 C 0.49026 0.80059 0.27676 0.0
H346 H 0.52716 0.95257 0.27654 0.0
C347 C 0.51549 0.91047 0.27662 0.0
C348 C 0.506 0.88483 0.32569 0.0
C349 C 0.49476 0.82929 0.3263 0.0
C350 C 0.47879 0.74191 0.27622 0.0
H351 H 0.48969 0.80868 0.365 0.0
C352 C 0.49961 0.70935 0.23409 0.0
C353 C 0.48627 0.65473 0.23029 0.0
C354 C 0.44607 0.71827 0.31632 0.0
H355 H 0.42845 0.7422 0.34876 0.0
C356 C 0.43454 0.6633 0.31414 0.0
H357 H 0.52609 0.72656 0.2038 0.0
C358 C 0.45416 0.63166 0.27133 0.0
H359 H 0.44311 0.58945 0.26989 0.0
H360 H 0.40936 0.64541 0.34511 0.0
H361 H 0.1856 0.51236 0.23464 0.0
C362 C 0.22317 0.50584 0.21398 0.0
C363 C 0.22268 0.50076 0.15733 0.0
C364 C 0.27133 0.50767 0.24318 0.0
H365 H 0.27262 0.49593 0.08484 0.0
C366 C 0.27237 0.49821 0.12911 0.0
C367 C 0.32177 0.49988 0.15719 0.0
C368 C 0.32023 0.50264 0.21454 0.0
C369 C 0.27003 0.52153 0.30253 0.0
H370 H 0.35739 0.50328 0.23665 0.0
C371 C 0.22546 0.50847 0.33537 0.0
C372 C 0.22097 0.52838 0.38883 0.0
C373 C 0.31098 0.55287 0.32547 0.0
H374 H 0.34488 0.56562 0.30153 0.0
C375 C 0.30769 0.57064 0.37935 0.0
H376 H 0.19397 0.48325 0.31957 0.0
C377 C 0.26302 0.559 0.41069 0.0
H378 H 0.26113 0.57523 0.45185 0.0
H379 H 0.33923 0.5949 0.3965 0.0
H380 H 0.8171 0.86809 0.52078 0.0
C381 C 0.83503 0.82873 0.5148 0.0
C382 C 0.88905 0.82673 0.50411 0.0
C383 C 0.8045 0.78117 0.52036 0.0
H384 H 0.95536 0.77119 0.49419 0.0
C385 C 0.91295 0.7735 0.50104 0.0
C386 C 0.88377 0.72343 0.50812 0.0
C387 C 0.8289 0.72907 0.51673 0.0
C388 C 0.74707 0.78721 0.53335 0.0
H389 H 0.8053 0.69285 0.52103 0.0
C390 C 0.71782 0.83227 0.51393 0.0
C391 C 0.66499 0.84 0.52988 0.0
C392 C 0.72194 0.74998 0.56827 0.0
H393 H 0.74336 0.71611 0.58548 0.0
C394 C 0.66897 0.75694 0.58303 0.0
H395 H 0.73551 0.861 0.48596 0.0
C396 C 0.64072 0.80144 0.56407 0.0
H397 H 0.59981 0.806 0.57695 0.0
H398 H 0.64992 0.72818 0.60998 0.0
H399 H 0.81961 0.17947 0.49647 0.0
C400 C 0.83669 0.21863 0.50505 0.0
C401 C 0.89021 0.22077 0.51865 0.0
C402 C 0.80499 0.26583 0.50195 0.0
H403 H 0.95427 0.27607 0.53643 0.0
C404 C 0.91241 0.27382 0.52693 0.0
C405 C 0.88212 0.32372 0.52258 0.0
C406 C 0.82793 0.31794 0.51033 0.0
C407 C 0.74746 0.25954 0.48912 0.0
H408 H 0.80347 0.3539 0.5083 0.0
C409 C 0.71878 0.21374 0.50751 0.0
C410 C 0.66526 0.20696 0.49357 0.0
C411 C 0.72123 0.29812 0.4567 0.0
H412 H 0.74209 0.33284 0.44062 0.0
C413 C 0.66783 0.2917 0.44339 0.0
H414 H 0.73734 0.18397 0.5337 0.0
C415 C 0.63998 0.24663 0.46172 0.0
H416 H 0.59861 0.24247 0.45039 0.0
H417 H 0.64802 0.32159 0.41835 0.0
H418 H 0.1896 0.79649 0.49777 0.0
C419 C 0.22695 0.81774 0.4938 0.0
C420 C 0.22532 0.87266 0.50204 0.0
C421 C 0.27615 0.78996 0.49318 0.0
H422 H 0.27252 0.94458 0.50705 0.0
C423 C 0.27387 0.90125 0.50114 0.0
C424 C 0.32393 0.87458 0.49583 0.0
C425 C 0.32426 0.8187 0.48966 0.0
C426 C 0.27581 0.73614 0.51811 0.0
H427 H 0.36184 0.79719 0.48981 0.0
C428 C 0.23042 0.70457 0.5106 0.0
C429 C 0.21077 0.67485 0.55404 0.0
C430 C 0.30822 0.72701 0.56424 0.0
H431 H 0.34365 0.75057 0.57159 0.0
C432 C 0.29137 0.69232 0.60542 0.0
H433 H 0.207 0.7085 0.47359 0.0
C434 C 0.24191 0.66783 0.60139 0.0
H435 H 0.2284 0.6424 0.6347 0.0
H436 H 0.31531 0.68681 0.64171 0.0
H437 H 0.18862 0.23833 0.55868 0.0
C438 C 0.22685 0.21988 0.56717 0.0
C439 C 0.22784 0.1655 0.57863 0.0
C440 C 0.27434 0.24879 0.5582 0.0
H441 H 0.28036 0.09767 0.59255 0.0
C442 C 0.27856 0.14076 0.58502 0.0
C443 C 0.32707 0.16943 0.5756 0.0
C444 C 0.32418 0.22413 0.56343 0.0
C445 C 0.26889 0.30073 0.53134 0.0
H446 H 0.3599 0.24604 0.55244 0.0
C447 C 0.22829 0.33389 0.55049 0.0
C448 C 0.20202 0.36694 0.51437 0.0
C449 C 0.29004 0.30847 0.47855 0.0
H450 H 0.3211 0.28235 0.46273 0.0
C451 C 0.2672 0.34684 0.44398 0.0
H452 H 0.21292 0.32899 0.59181 0.0
C453 C 0.22221 0.37526 0.46138 0.0
H454 H 0.20351 0.40385 0.43395 0.0
H455 H 0.28272 0.35266 0.40305 0.0
C456 C 0.02022 0.87154 0.63434 0.0
C457 C 0.045 0.9224 0.37328 0.0
C458 C 1.00309 0.12268 0.68227 0.0
C459 C 0.05576 0.17556 0.42681 0.0
C460 C 0.92321 0.16842 0.52424 0.0
C461 C 0.92204 0.87902 0.50093 0.0
C462 C 0.17826 0.13254 0.57097 0.0
C463 C 0.17481 0.89968 0.51964 0.0
C464 C 0.16762 1.00875 0.41218 0.0
C465 C 0.92899 0.05082 0.37807 0.0
C466 C 0.12833 1.00826 0.68458 0.0
C467 C 0.87401 1.00363 0.62627 0.0
Eu468 Eu 0.04099 0.92168 0.50904 0.0
O469 O 0.99726 0.98469 0.465 0.0
O470 O 0.07243 0.96285 0.57839 0.0
Eu471 Eu 0.93435 0.02456 0.50985 0.0
Eu472 Eu 0.13275 1.0158 0.54708 0.0
O473 O 0.98075 0.96663 0.55462 0.0
O474 O 0.08865 0.98458 0.48094 0.0
Eu475 Eu 1.01068 1.00217 0.62736 0.0
Eu476 Eu 0.05013 0.04329 0.4302 0.0
O477 O 0.98016 0.06302 0.57427 0.0
O478 O 0.99799 0.0794 0.48775 0.0
O479 O 0.0939 0.0773 0.4988 0.0
O480 O 0.07163 0.05463 0.59465 0.0
Eu481 Eu 0.04176 0.12187 0.55131 0.0
O482 O 0.03596 0.86588 0.58224 0.0
O483 O 0.04307 0.89495 0.4203 0.0
O484 O 0.02271 0.14881 0.63864 0.0
O485 O 0.05317 0.18092 0.48125 0.0
O486 O 0.90318 0.11786 0.51216 0.0
O487 O 0.90148 0.93096 0.5055 0.0
O488 O 0.18859 0.08217 0.55782 0.0
O489 O 0.18214 0.94271 0.55025 0.0
O490 O 0.13115 0.04297 0.3954 0.0
O491 O 0.98109 0.05888 0.37363 0.0
O492 O 0.07595 1.00284 0.68957 0.0
O493 O 0.92067 0.99559 0.65248 0.0
O494 O 0.12845 0.15441 0.5721 0.0
O495 O 0.97241 0.17741 0.54147 0.0
O496 O 0.12687 0.88462 0.50005 0.0
O497 O 0.9731 0.86807 0.49673 0.0
O498 O 0.04862 0.97579 0.36834 0.0
O499 O 0.05549 0.1289 0.39991 0.0
O500 O 1.00668 0.91758 0.65851 0.0
O501 O 0.9946 0.06992 0.68556 0.0
O502 O 0.87032 1.01704 0.57374 0.0
O503 O 0.90392 0.0346 0.42337 0.0
O504 O 0.1557 1.01174 0.63747 0.0
O505 O 0.17481 0.99469 0.46469 0.0
C506 C 0.51394 0.91485 0.17793 0.0
C507 C 0.51775 0.17329 0.13731 0.0
C508 C 0.53867 0.87358 0.92493 0.0
C509 C 0.54327 0.12816 0.8803 0.0
C510 C 0.67301 0.0194 0.92268 0.0
C511 C 0.63963 0.03235 0.18067 0.0
C512 C 0.41659 1.01127 0.88468 0.0
C513 C 0.39739 0.03306 0.1688 0.0
C514 C 0.41311 0.16778 1.0088 0.0
C515 C 0.66369 0.14212 0.04699 0.0
C516 C 0.40974 0.87924 0.03173 0.0
C517 C 0.66001 0.90034 0.03494 0.0
Eu518 Eu 0.51837 0.04056 0.13184 0.0
O519 O 0.57294 0.07939 0.07903 0.0
O520 O 0.47569 0.98464 0.08144 0.0
Eu521 Eu 0.62706 0.02128 0.04789 0.0
Eu522 Eu 0.42261 0.02356 0.02518 0.0
O523 O 0.57064 0.9808 0.0974 0.0
O524 O 0.47786 0.07792 0.06491 0.0
Eu525 Eu 0.52888 0.92374 0.04827 0.0
Eu526 Eu 0.53468 0.12218 1.01488 0.0
O527 O 0.58091 0.96816 0.99839 0.0
O528 O 0.5845 0.06101 0.98284 0.0
O529 O 0.48715 0.06013 0.97654 0.0
O530 O 0.48435 0.97108 0.99033 0.0
Eu531 Eu 0.54007 1.0062 0.93298 0.0
O532 O 0.50557 0.96762 0.18384 0.0
O533 O 0.51412 0.12639 0.16367 0.0
O534 O 0.54572 0.92079 0.89987 0.0
O535 O 0.5423 0.07493 0.87437 0.0
O536 O 0.68082 0.02583 0.97589 0.0
O537 O 0.66262 0.01976 0.13319 0.0
O538 O 0.39209 0.01985 0.93386 0.0
O539 O 0.38087 0.01934 0.11657 0.0
O540 O 0.4647 0.17488 1.00121 0.0
O541 O 0.61851 0.16079 0.02418 0.0
O542 O 0.45822 0.87163 0.0505 0.0
O543 O 0.60994 0.88214 0.03544 0.0
O544 O 0.46856 1.00286 0.87782 0.0
O545 O 0.62593 1.0092 0.89884 0.0
O546 O 0.44488 0.05252 0.17869 0.0
O547 O 0.58861 0.04463 0.18704 0.0
O548 O 0.52541 0.17925 0.084 0.0
O549 O 0.54238 0.15422 0.92808 0.0
O550 O 0.52759 0.8896 0.13223 0.0
O551 O 0.52831 0.86697 0.97772 0.0
O552 O 0.6757 0.94926 0.04643 0.0
O553 O 0.67317 0.09251 0.06191 0.0
O554 O 0.38909 0.92997 0.01983 0.0
O555 O 0.39016 0.11768 0.01882 0.0
C556 C 1.0173 0.36989 0.12781 0.0
C557 C 1.00747 0.41746 0.87524 0.0
C558 C 0.03905 0.62615 0.17803 0.0
C559 C 0.99302 0.67953 0.92863 0.0
C560 C 0.87641 0.63827 0.06278 0.0
C561 C 0.87387 0.4056 1.00617 0.0
C562 C 0.13387 0.66015 1.01251 0.0
C563 C 0.13312 0.3869 1.01191 0.0
C564 C 0.13551 0.54079 0.88045 0.0
C565 C 0.89814 0.53506 0.88329 0.0
C566 C 0.17115 0.50505 0.12673 0.0
C567 C 0.91435 0.51196 0.1746 0.0
Eu568 Eu 1.00911 0.42374 1.0049 0.0
O569 O 0.96463 0.48718 0.96916 0.0
O570 O 0.06699 0.46735 0.05295 0.0
Eu571 Eu 0.91665 0.52216 0.03067 0.0
Eu572 Eu 0.11697 0.52397 1.01067 0.0
O573 O 0.97319 0.46817 0.06911 0.0
O574 O 0.05812 0.48383 0.9623 0.0
Eu575 Eu 0.0337 0.50301 0.12318 0.0
Eu576 Eu 1.0116 0.54534 0.92484 0.0
O577 O 0.97644 0.55626 0.08402 0.0
O578 O 0.96427 0.58064 0.98981 0.0
O579 O 0.05891 0.582 0.98472 0.0
O580 O 0.07036 0.56373 0.07418 0.0
Eu581 Eu 1.01217 0.62374 0.04683 0.0
O582 O 1.00475 0.36542 0.07513 0.0
O583 O 1.0093 0.39067 0.92173 0.0
O584 O 0.02719 0.65299 0.13251 0.0
O585 O 0.99255 0.68442 0.98266 0.0
O586 O 0.86514 0.5916 0.04033 0.0
O587 O 0.86459 0.45255 0.0292 0.0
O588 O 0.15309 0.60987 1.00412 0.0
O589 O 0.15329 0.43728 1.01583 0.0
O590 O 0.08499 0.55474 0.87312 0.0
O591 O 0.94337 0.55865 0.87415 0.0
O592 O 0.12347 0.4951 0.15098 0.0
O593 O 0.96593 0.50321 0.1813 0.0
O594 O 0.08532 0.6729 0.03044 0.0
O595 O 0.92647 0.6574 0.0703 0.0
O596 O 0.08288 0.37438 1.00173 0.0
O597 O 0.92309 0.38718 0.99315 0.0
O598 O 1.00678 0.47139 0.86935 0.0
O599 O 1.00294 0.634 0.90062 0.0
O600 O 0.03212 0.4156 0.15273 0.0
O601 O 0.04352 0.57256 0.18238 0.0
O602 O 0.88982 0.51887 0.12504 0.0
O603 O 0.88239 0.51823 0.93521 0.0
O604 O 0.17698 0.5206 0.07558 0.0
O605 O 0.15624 0.52495 0.92763 0.0
C606 C 0.52022 0.37153 0.13433 0.0
C607 C 0.50312 0.62265 0.18224 0.0
C608 C 0.54503 0.42239 0.8732 0.0
C609 C 0.55578 0.67555 0.92681 0.0
C610 C 0.66762 0.50873 0.91218 0.0
C611 C 0.6283 0.50812 0.18454 0.0
C612 C 0.42898 0.55082 0.87808 0.0
C613 C 0.37401 0.50361 0.12626 0.0
C614 C 0.42323 0.66838 0.0242 0.0
C615 C 0.67826 0.6325 0.07098 0.0
C616 C 0.422 0.37897 1.00088 0.0
C617 C 0.67483 0.39965 0.01957 0.0
Eu618 Eu 0.51069 0.50218 0.12722 0.0
O619 O 0.57169 0.55463 0.09463 0.0
O620 O 0.48071 0.46646 0.05451 0.0
Eu621 Eu 0.63274 0.51579 0.04706 0.0
Eu622 Eu 0.43435 0.52453 1.00986 0.0
O623 O 0.57239 0.46279 0.07819 0.0
O624 O 0.48008 0.56308 0.07423 0.0
Eu625 Eu 0.54099 0.42152 1.00898 0.0
Eu626 Eu 0.54177 0.62182 0.05131 0.0
O627 O 0.58859 0.4845 0.98092 0.0
O628 O 0.59393 0.57728 0.99873 0.0
O629 O 0.49804 0.57929 0.98775 0.0
O630 O 0.49731 0.48463 0.965 0.0
Eu631 Eu 0.55014 0.54328 0.93016 0.0
O632 O 0.5067 0.4176 0.15846 0.0
O633 O 0.49461 0.56989 0.18548 0.0
O634 O 0.54864 0.47579 0.86829 0.0
O635 O 0.55549 0.6289 0.8999 0.0
O636 O 0.67482 0.49469 0.96469 0.0
O637 O 0.65569 0.51162 0.13745 0.0
O638 O 0.40392 0.53459 0.92337 0.0
O639 O 0.37031 0.51702 0.07373 0.0
O640 O 0.47243 0.67736 0.04143 0.0
O641 O 0.62846 0.65437 0.07212 0.0
O642 O 0.47305 0.36799 0.99663 0.0
O643 O 0.62689 0.38453 1.00003 0.0
O644 O 0.48109 0.5589 0.87363 0.0
O645 O 0.63117 0.54296 0.89539 0.0
O646 O 0.4207 0.49558 0.15243 0.0
O647 O 0.57591 0.50275 0.18949 0.0
O648 O 0.52275 0.64879 0.13862 0.0
O649 O 0.55319 0.6809 0.98126 0.0
O650 O 0.53596 0.36581 0.08224 0.0
O651 O 0.5431 0.39491 0.92021 0.0
O652 O 0.68215 0.44271 0.05016 0.0
O653 O 0.68859 0.58214 0.05781 0.0
O654 O 0.40146 0.43091 1.00552 0.0
O655 O 0.40318 0.61782 1.01214 0.0
C656 C 1.01385 0.41486 0.67791 0.0
C657 C 0.03847 0.37357 0.42493 0.0
C658 C 1.01784 0.67331 0.63732 0.0
C659 C 0.04332 0.62811 0.3803 0.0
C660 C 0.91317 0.66782 0.50883 0.0
C661 C 0.90966 0.37929 0.53178 0.0
C662 C 0.16387 0.64188 0.54675 0.0
C663 C 0.15978 0.40012 0.53514 0.0
C664 C 0.17298 0.51915 0.42269 0.0
C665 C 0.91656 0.51132 0.38465 0.0
C666 C 0.13961 0.53232 0.68072 0.0
C667 C 0.89731 0.53316 0.66877 0.0
Eu668 Eu 0.02873 0.42386 0.54821 0.0
O669 O 0.98417 0.47107 0.4902 0.0
O670 O 0.07051 0.48086 0.5975 0.0
Eu671 Eu 0.92257 0.5236 0.52514 0.0
Eu672 Eu 0.12702 0.52109 0.54791 0.0
O673 O 0.97564 0.48483 0.5815 0.0
O674 O 0.08093 0.46809 0.49832 0.0
Eu675 Eu 1.01832 0.54058 0.632 0.0
Eu676 Eu 0.04002 0.50615 0.43299 0.0
O677 O 0.97796 0.57785 0.56492 0.0
O678 O 0.98717 0.56017 0.47657 0.0
O679 O 0.08449 0.56092 0.4829 0.0
O680 O 0.07291 0.5793 0.57911 0.0
Eu681 Eu 0.03476 0.62215 0.51488 0.0
O682 O 0.02751 0.38966 0.63219 0.0
O683 O 0.02803 0.36701 0.47771 0.0
O684 O 0.02557 0.67924 0.58402 0.0
O685 O 0.04244 0.65417 0.42808 0.0
O686 O 0.89018 0.61772 0.51878 0.0
O687 O 0.88904 0.43001 0.5198 0.0
O688 O 0.17332 0.59225 0.56164 0.0
O689 O 0.17553 0.44895 0.54692 0.0
O690 O 0.12588 0.50912 0.39883 0.0
O691 O 0.96854 0.50289 0.3778 0.0
O692 O 0.0886 0.54456 0.68714 0.0
O693 O 0.94475 0.55272 0.67866 0.0
O694 O 0.11866 0.66063 0.52407 0.0
O695 O 0.96478 0.6749 0.50131 0.0
O696 O 0.10966 0.38209 0.53527 0.0
O697 O 0.95812 0.37172 0.55064 0.0
O698 O 0.04563 0.42077 0.39988 0.0
O699 O 0.04232 0.57488 0.37437 0.0
O700 O 1.00542 0.46761 0.68388 0.0
O701 O 1.01415 0.62643 0.66371 0.0
O702 O 0.88084 0.51935 0.61655 0.0
O703 O 0.89206 0.51991 0.43382 0.0
O704 O 0.16259 0.51976 0.63322 0.0
O705 O 0.18082 0.52542 0.47592 0.0
C706 C 0.51731 0.8699 0.62781 0.0
C707 C 0.50739 0.91746 0.37526 0.0
C708 C 0.53904 0.12616 0.67803 0.0
C709 C 0.493 0.17954 0.42863 0.0
C710 C 0.37642 0.1383 0.56274 0.0
C711 C 0.37385 0.90563 0.50617 0.0
C712 C 0.63387 0.16015 0.51249 0.0
C713 C 0.63313 0.88691 0.51187 0.0
C714 C 0.63549 0.04078 0.38042 0.0
C715 C 0.39813 0.03508 0.38331 0.0
C716 C 0.67114 1.00506 0.62672 0.0
C717 C 0.41438 1.01195 0.67463 0.0
Eu718 Eu 0.5091 0.92375 0.50491 0.0
O719 O 0.46463 0.98719 0.46918 0.0
O720 O 0.56699 0.96735 0.55295 0.0
Eu721 Eu 0.41665 0.02217 0.53069 0.0
Eu722 Eu 0.61696 0.02397 0.51065 0.0
O723 O 0.47319 0.96817 0.56912 0.0
O724 O 0.55811 0.98382 0.46229 0.0
Eu725 Eu 0.5337 1.00302 0.62318 0.0
Eu726 Eu 0.51158 0.04535 0.42484 0.0
O727 O 0.47644 0.05628 0.58403 0.0
O728 O 0.46427 0.08064 0.48982 0.0
O729 O 0.55891 0.08201 0.4847 0.0
O730 O 0.57036 0.06373 0.57417 0.0
Eu731 Eu 0.51217 0.12375 0.54683 0.0
O732 O 0.50476 0.86543 0.57513 0.0
O733 O 0.50926 0.89066 0.42174 0.0
O734 O 0.52719 0.15299 0.6325 0.0
O735 O 0.49255 0.18442 0.48265 0.0
O736 O 0.36514 0.09162 0.54034 0.0
O737 O 0.36458 0.95257 0.52922 0.0
O738 O 0.65309 0.10987 0.50409 0.0
O739 O 0.6533 0.93729 0.51578 0.0
O740 O 0.58496 0.05471 0.37309 0.0
O741 O 0.44335 0.0587 0.37418 0.0
O742 O 0.62347 0.99512 0.65097 0.0
O743 O 0.46595 1.00319 0.68131 0.0
O744 O 0.58532 0.17291 0.53042 0.0
O745 O 0.42647 0.15744 0.57024 0.0
O746 O 0.58288 0.87439 0.50172 0.0
O747 O 0.42307 0.88721 0.49314 0.0
O748 O 0.5067 0.97138 0.36937 0.0
O749 O 0.50293 0.13401 0.40061 0.0
O750 O 0.53213 0.91561 0.65272 0.0
O751 O 0.54352 0.07256 0.68238 0.0
O752 O 0.38984 0.01887 0.62506 0.0
O753 O 0.38239 1.01823 0.43523 0.0
O754 O 0.67698 0.0206 0.57557 0.0
O755 O 0.65623 0.02497 0.4276 0.0
loop_
_geom_bond_atom_site_label_1
_geom_bond_atom_site_label_2
_geom_bond_distance
_geom_bond_site_symmetry_2
_ccdc_geom_bond_type
H0 C1 0.948 1_655 S
C1 H0 0.948 1_455 S
C1 C2 1.395 . S
C1 C3 1.391 1_455 S
C2 C1 1.395 . S
C2 C5 1.390 . S
C3 C1 1.391 1_655 S
C3 C7 1.387 1_655 S
C3 C8 1.491 . S
H4 C5 0.950 . S
C5 C2 1.390 . S
C5 H4 0.950 . S
C5 C6 1.378 . S
C6 C5 1.378 . S
C6 C7 1.409 . S
C7 C3 1.387 1_455 S
C7 C6 1.409 . S
C7 H9 0.951 1_455 S
C8 C3 1.491 . S
C8 C10 1.382 1_655 S
C8 C12 1.404 . S
H9 C7 0.951 1_655 S
C10 C8 1.382 1_455 S
C10 C11 1.390 1_455 S
C10 H15 0.949 . S
C11 C10 1.390 1_655 S
C11 C16 1.399 . S
C12 C8 1.404 . S
C12 H13 0.950 . S
C12 C14 1.375 . S
H13 C12 0.950 . S
C14 C12 1.375 . S
C14 C16 1.382 . S
C14 H18 0.950 . S
H15 C10 0.949 . S
C16 C11 1.399 . S
C16 C14 1.382 . S
C16 H17 0.952 . S
H17 C16 0.952 . S
H18 C14 0.950 . S
H19 C20 0.949 . S
C20 H19 0.949 . S
C20 C21 1.395 . S
C20 C22 1.391 . S
C21 C20 1.395 . S
C21 C24 1.390 1_545 S
C22 C20 1.391 . S
C22 C26 1.387 . S
C22 C27 1.491 . S
H23 C24 0.950 . S
C24 C21 1.390 1_565 S
C24 H23 0.950 . S
C24 C25 1.378 1_565 S
C25 C24 1.378 1_545 S
C25 C26 1.409 . S
C26 C22 1.387 . S
C26 C25 1.409 . S
C26 H28 0.951 . S
C27 C22 1.491 . S
C27 C29 1.382 . S
C27 C31 1.404 . S
H28 C26 0.951 . S
C29 C27 1.382 . S
C29 C30 1.390 . S
C29 H34 0.949 1_545 S
C30 C29 1.390 . S
C30 C35 1.399 . S
C31 C27 1.404 . S
C31 H32 0.950 . S
C31 C33 1.375 . S
H32 C31 0.950 . S
C33 C31 1.375 . S
C33 C35 1.382 . S
C33 H37 0.950 . S
H34 C29 0.949 1_565 S
C35 C30 1.399 . S
C35 C33 1.382 . S
C35 H36 0.952 . S
H36 C35 0.952 . S
H37 C33 0.950 . S
H38 C39 0.950 . S
C39 H38 0.950 . S
C39 C40 1.395 . S
C39 C41 1.391 1_455 S
C40 C39 1.395 . S
C40 C43 1.390 . S
C41 C39 1.391 1_655 S
C41 C45 1.388 . S
C41 C46 1.491 . S
H42 C43 0.950 . S
C43 C40 1.390 . S
C43 H42 0.950 . S
C43 C44 1.378 . S
C44 C43 1.378 . S
C44 C45 1.409 1_455 S
C45 C41 1.388 . S
C45 C44 1.409 1_655 S
C45 H47 0.951 . S
C46 C41 1.491 . S
C46 C48 1.382 1_655 S
C46 C50 1.404 . S
H47 C45 0.951 . S
C48 C46 1.382 1_455 S
C48 C49 1.386 1_455 S
C48 H53 0.949 . S
C49 C48 1.386 1_655 S
C49 C54 1.412 . S
C50 C46 1.404 . S
C50 H51 0.950 . S
C50 C52 1.375 . S
H51 C50 0.950 . S
C52 C50 1.375 . S
C52 C54 1.382 . S
C52 H56 0.950 . S
H53 C48 0.949 . S
C54 C49 1.412 . S
C54 C52 1.382 . S
C54 H55 0.952 . S
H55 C54 0.952 . S
H56 C52 0.950 . S
H57 C58 0.949 . S
C58 H57 0.949 . S
C58 C59 1.395 1_565 S
C58 C60 1.391 . S
C59 C58 1.395 1_545 S
C59 C62 1.390 . S
C60 C58 1.391 . S
C60 C64 1.387 . S
C60 C65 1.491 . S
H61 C62 0.950 . S
C62 C59 1.390 . S
C62 H61 0.950 . S
C62 C63 1.379 . S
C63 C62 1.379 . S
C63 C64 1.408 1_545 S
C64 C60 1.387 . S
C64 C63 1.408 1_565 S
C64 H66 0.951 . S
C65 C60 1.491 . S
C65 C67 1.391 . S
C65 C69 1.404 . S
H66 C64 0.951 . S
C67 C65 1.391 . S
C67 C68 1.394 . S
C67 H72 0.936 1_565 S
C68 C67 1.394 . S
C68 C73 1.399 . S
C69 C65 1.404 . S
C69 H70 0.950 . S
C69 C71 1.375 . S
H70 C69 0.950 . S
C71 C69 1.375 . S
C71 C73 1.382 . S
C71 H75 0.950 . S
H72 C67 0.936 1_545 S
C73 C68 1.399 . S
C73 C71 1.382 . S
C73 H74 0.952 . S
H74 C73 0.952 . S
H75 C71 0.950 . S
H76 C77 0.949 1_655 S
C77 H76 0.949 1_455 S
C77 C78 1.395 . S
C77 C79 1.391 1_455 S
C78 C77 1.395 . S
C78 C81 1.390 . S
C79 C77 1.391 1_655 S
C79 C83 1.387 1_655 S
C79 C84 1.491 . S
H80 C81 0.950 . S
C81 C78 1.390 . S
C81 H80 0.950 . S
C81 C82 1.378 . S
C82 C81 1.378 . S
C82 C83 1.409 . S
C83 C79 1.387 1_455 S
C83 C82 1.409 . S
C83 H85 0.951 1_455 S
C84 C79 1.491 . S
C84 C86 1.382 1_655 S
C84 C88 1.404 . S
H85 C83 0.951 1_655 S
C86 C84 1.382 1_455 S
C86 C87 1.390 1_455 S
C86 H91 0.949 . S
C87 C86 1.390 1_655 S
C87 C92 1.399 . S
C88 C84 1.404 . S
C88 H89 0.950 . S
C88 C90 1.375 . S
H89 C88 0.950 . S
C90 C88 1.375 . S
C90 C92 1.382 . S
C90 H94 0.950 . S
H91 C86 0.949 . S
C92 C87 1.399 . S
C92 C90 1.382 . S
C92 H93 0.952 . S
H93 C92 0.952 . S
H94 C90 0.950 . S
H95 C96 0.949 . S
C96 H95 0.949 . S
C96 C97 1.395 . S
C96 C98 1.391 . S
C97 C96 1.395 . S
C97 C100 1.390 1_545 S
C98 C96 1.391 . S
C98 C102 1.387 . S
C98 C103 1.491 . S
H99 C100 0.950 . S
C100 C97 1.390 1_565 S
C100 H99 0.950 . S
C100 C101 1.378 1_565 S
C101 C100 1.378 1_545 S
C101 C102 1.409 . S
C102 C98 1.387 . S
C102 C101 1.409 . S
C102 H104 0.951 . S
C103 C98 1.491 . S
C103 C105 1.382 . S
C103 C107 1.404 . S
H104 C102 0.951 . S
C105 C103 1.382 . S
C105 C106 1.390 . S
C105 H110 0.949 1_545 S
C106 C105 1.390 . S
C106 C111 1.399 . S
C107 C103 1.404 . S
C107 H108 0.950 . S
C107 C109 1.375 . S
H108 C107 0.950 . S
C109 C107 1.375 . S
C109 C111 1.382 . S
C109 H113 0.950 . S
H110 C105 0.949 1_565 S
C111 C106 1.399 . S
C111 C109 1.382 . S
C111 H112 0.952 . S
H112 C111 0.952 . S
H113 C109 0.950 . S
H114 C115 0.950 . S
C115 H114 0.950 . S
C115 C116 1.395 . S
C115 C117 1.391 1_455 S
C116 C115 1.395 . S
C116 C119 1.390 . S
C117 C115 1.391 1_655 S
C117 C121 1.388 1_655 S
C117 C122 1.491 . S
H118 C119 0.950 . S
C119 C116 1.390 . S
C119 H118 0.950 . S
C119 C120 1.378 . S
C120 C119 1.378 . S
C120 C121 1.409 . S
C121 C117 1.388 1_455 S
C121 C120 1.409 . S
C121 H123 0.951 1_455 S
C122 C117 1.491 . S
C122 C124 1.382 1_655 S
C122 C126 1.404 . S
H123 C121 0.951 1_655 S
C124 C122 1.382 1_455 S
C124 C125 1.387 1_455 S
C124 H129 0.949 . S
C125 C124 1.387 1_655 S
C125 C130 1.407 . S
C126 C122 1.404 . S
C126 H127 0.950 . S
C126 C128 1.375 . S
H127 C126 0.950 . S
C128 C126 1.375 . S
C128 C130 1.382 . S
C128 H132 0.950 . S
H129 C124 0.949 . S
C130 C125 1.407 . S
C130 C128 1.382 . S
C130 H131 0.952 . S
H131 C130 0.952 . S
H132 C128 0.950 . S
H133 C134 0.949 . S
C134 H133 0.949 . S
C134 C135 1.397 . S
C134 C136 1.391 . S
C135 C134 1.397 . S
C135 C138 1.389 1_545 S
C136 C134 1.391 . S
C136 C140 1.387 . S
C136 C141 1.491 . S
H137 C138 0.950 . S
C138 C135 1.389 1_565 S
C138 H137 0.950 . S
C138 C139 1.378 1_565 S
C139 C138 1.378 1_545 S
C139 C140 1.409 . S
C140 C136 1.387 . S
C140 C139 1.409 . S
C140 H142 0.951 . S
C141 C136 1.491 . S
C141 C143 1.382 . S
C141 C145 1.404 . S
H142 C140 0.951 . S
C143 C141 1.382 . S
C143 C144 1.390 . S
C143 H148 0.949 1_545 S
C144 C143 1.390 . S
C144 C149 1.399 . S
C145 C141 1.404 . S
C145 H146 0.950 . S
C145 C147 1.375 . S
H146 C145 0.950 . S
C147 C145 1.375 . S
C147 C149 1.382 . S
C147 H151 0.950 . S
H148 C143 0.949 1_565 S
C149 C144 1.399 . S
C149 C147 1.382 . S
C149 H150 0.952 . S
H150 C149 0.952 . S
H151 C147 0.950 . S
H152 C153 0.949 . S
C153 H152 0.949 . S
C153 C154 1.395 . S
C153 C155 1.391 . S
C154 C153 1.395 . S
C154 C157 1.390 . S
C155 C153 1.391 . S
C155 C159 1.387 . S
C155 C160 1.491 . S
H156 C157 0.950 . S
C157 C154 1.390 . S
C157 H156 0.950 . S
C157 C158 1.378 . S
C158 C157 1.378 . S
C158 C159 1.409 . S
C159 C155 1.387 . S
C159 C158 1.409 . S
C159 H161 0.951 . S
C160 C155 1.491 . S
C160 C162 1.382 . S
C160 C164 1.404 . S
H161 C159 0.951 . S
C162 C160 1.382 . S
C162 C163 1.390 . S
C162 H167 0.949 1_554 S
C163 C162 1.390 . S
C163 C168 1.399 . S
C164 C160 1.404 . S
C164 H165 0.950 . S
C164 C166 1.375 . S
H165 C164 0.950 . S
C166 C164 1.375 . S
C166 C168 1.382 . S
C166 H170 0.950 . S
H167 C162 0.949 1_556 S
C168 C163 1.399 . S
C168 C166 1.382 . S
C168 H169 0.952 . S
H169 C168 0.952 . S
H170 C166 0.950 . S
H171 C172 0.950 . S
C172 H171 0.950 . S
C172 C173 1.395 . S
C172 C174 1.391 1_554 S
C173 C172 1.395 . S
C173 C176 1.390 . S
C174 C172 1.391 1_556 S
C174 C178 1.387 1_556 S
C174 C179 1.491 . S
H175 C176 0.950 . S
C176 C173 1.390 . S
C176 H175 0.950 . S
C176 C177 1.378 . S
C177 C176 1.378 . S
C177 C178 1.409 . S
C178 C174 1.387 1_554 S
C178 C177 1.409 . S
C178 H180 0.951 1_554 S
C179 C174 1.491 . S
C179 C181 1.382 1_556 S
C179 C183 1.404 . S
H180 C178 0.951 1_556 S
C181 C179 1.382 1_554 S
C181 C182 1.390 1_554 S
C181 H186 0.949 . S
C182 C181 1.390 1_556 S
C182 C187 1.399 . S
C183 C179 1.404 . S
C183 H184 0.950 . S
C183 C185 1.375 . S
H184 C183 0.950 . S
C185 C183 1.375 . S
C185 C187 1.382 . S
C185 H189 0.950 . S
H186 C181 0.949 . S
C187 C182 1.399 . S
C187 C185 1.382 . S
C187 H188 0.952 . S
H188 C187 0.952 . S
H189 C185 0.950 . S
H190 C191 0.949 . S
C191 H190 0.949 . S
C191 C192 1.395 . S
C191 C193 1.391 . S
C192 C191 1.395 . S
C192 C195 1.390 . S
C193 C191 1.391 . S
C193 C197 1.387 . S
C193 C198 1.491 . S
H194 C195 0.949 1_556 S
C195 C192 1.390 . S
C195 H194 0.949 1_554 S
C195 C196 1.378 . S
C196 C195 1.378 . S
C196 C197 1.409 . S
C197 C193 1.387 . S
C197 C196 1.409 . S
C197 H199 0.951 . S
C198 C193 1.491 . S
C198 C200 1.382 . S
C198 C202 1.404 . S
H199 C197 0.951 . S
C200 C198 1.382 . S
C200 C201 1.390 . S
C200 H205 0.949 1_554 S
C201 C200 1.390 . S
C201 C206 1.399 . S
C202 C198 1.404 . S
C202 H203 0.950 . S
C202 C204 1.375 . S
H203 C202 0.950 . S
C204 C202 1.375 . S
C204 C206 1.382 . S
C204 H208 0.950 . S
H205 C200 0.949 1_556 S
C206 C201 1.399 . S
C206 C204 1.382 . S
C206 H207 0.952 . S
H207 C206 0.952 . S
H208 C204 0.950 . S
H209 C210 0.949 . S
C210 H209 0.949 . S
C210 C211 1.395 . S
C210 C212 1.391 1_554 S
C211 C210 1.395 . S
C211 C214 1.390 . S
C212 C210 1.391 1_556 S
C212 C216 1.387 1_556 S
C212 C217 1.491 . S
H213 C214 0.950 . S
C214 C211 1.390 . S
C214 H213 0.950 . S
C214 C215 1.378 . S
C215 C214 1.378 . S
C215 C216 1.409 . S
C216 C212 1.387 1_554 S
C216 C215 1.409 . S
C216 H218 0.951 1_554 S
C217 C212 1.491 . S
C217 C219 1.382 1_556 S
C217 C221 1.404 . S
H218 C216 0.951 1_556 S
C219 C217 1.382 1_554 S
C219 C220 1.391 . S
C219 H224 0.949 . S
C220 C219 1.391 . S
C220 C225 1.396 1_554 S
C221 C217 1.404 . S
C221 H222 0.950 . S
C221 C223 1.375 . S
H222 C221 0.950 . S
C223 C221 1.375 . S
C223 C225 1.382 . S
C223 H227 0.950 . S
H224 C219 0.949 . S
C225 C220 1.396 1_556 S
C225 C223 1.382 . S
C225 H226 0.952 . S
H226 C225 0.952 . S
H227 C223 0.950 . S
H228 C229 0.949 . S
C229 H228 0.949 . S
C229 C230 1.395 . S
C229 C231 1.391 . S
C230 C229 1.395 . S
C230 C233 1.390 . S
C231 C229 1.391 . S
C231 C235 1.387 . S
C231 C236 1.491 . S
H232 C233 0.950 . S
C233 C230 1.390 . S
C233 H232 0.950 . S
C233 C234 1.378 . S
C234 C233 1.378 . S
C234 C235 1.409 . S
C235 C231 1.387 . S
C235 C234 1.409 . S
C235 H237 0.951 . S
C236 C231 1.491 . S
C236 C238 1.382 . S
C236 C240 1.404 . S
H237 C235 0.951 . S
C238 C236 1.382 . S
C238 C239 1.390 . S
C238 H243 0.949 . S
C239 C238 1.390 . S
C239 C244 1.399 . S
C240 C236 1.404 . S
C240 H241 0.950 . S
C240 C242 1.375 . S
H241 C240 0.950 . S
C242 C240 1.375 . S
C242 C244 1.382 . S
C242 H246 0.950 . S
H243 C238 0.949 . S
C244 C239 1.399 . S
C244 C242 1.382 . S
C244 H245 0.952 . S
H245 C244 0.952 . S
H246 C242 0.950 . S
H247 C248 0.949 . S
C248 H247 0.949 . S
C248 C249 1.395 . S
C248 C250 1.391 . S
C249 C248 1.395 . S
C249 C252 1.390 . S
C250 C248 1.391 . S
C250 C254 1.387 . S
C250 C255 1.491 . S
H251 C252 0.950 . S
C252 C249 1.390 . S
C252 H251 0.950 . S
C252 C253 1.378 . S
C253 C252 1.378 . S
C253 C254 1.409 . S
C254 C250 1.387 . S
C254 C253 1.409 . S
C254 H256 0.951 . S
C255 C250 1.491 . S
C255 C257 1.382 . S
C255 C259 1.404 . S
H256 C254 0.951 . S
C257 C255 1.382 . S
C257 C258 1.390 . S
C257 H262 0.949 . S
C258 C257 1.390 . S
C258 C263 1.399 . S
C259 C255 1.404 . S
C259 H260 0.950 . S
C259 C261 1.375 . S
H260 C259 0.950 . S
C261 C259 1.375 . S
C261 C263 1.382 . S
C261 H265 0.950 . S
H262 C257 0.949 . S
C263 C258 1.399 . S
C263 C261 1.382 . S
C263 H264 0.952 . S
H264 C263 0.952 . S
H265 C261 0.950 . S
H266 C267 0.949 . S
C267 H266 0.949 . S
C267 C268 1.395 . S
C267 C269 1.391 . S
C268 C267 1.395 . S
C268 C271 1.390 . S
C269 C267 1.391 . S
C269 C273 1.387 . S
C269 C274 1.491 . S
H270 C271 0.950 . S
C271 C268 1.390 . S
C271 H270 0.950 . S
C271 C272 1.378 . S
C272 C271 1.378 . S
C272 C273 1.409 . S
C273 C269 1.387 . S
C273 C272 1.409 . S
C273 H275 0.951 . S
C274 C269 1.491 . S
C274 C276 1.382 . S
C274 C278 1.404 . S
H275 C273 0.951 . S
C276 C274 1.382 . S
C276 C277 1.390 . S
C276 H281 0.949 . S
C277 C276 1.390 . S
C277 C282 1.399 . S
C278 C274 1.404 . S
C278 H279 0.950 . S
C278 C280 1.375 . S
H279 C278 0.950 . S
C280 C278 1.375 . S
C280 C282 1.382 . S
C280 H284 0.950 . S
H281 C276 0.949 . S
C282 C277 1.399 . S
C282 C280 1.382 . S
C282 H283 0.952 . S
H283 C282 0.952 . S
H284 C280 0.950 . S
H285 C286 0.949 . S
C286 H285 0.949 . S
C286 C287 1.395 . S
C286 C288 1.391 . S
C287 C286 1.395 . S
C287 C290 1.390 . S
C288 C286 1.391 . S
C288 C292 1.387 . S
C288 C293 1.491 . S
H289 C290 0.950 . S
C290 C287 1.390 . S
C290 H289 0.950 . S
C290 C291 1.378 . S
C291 C290 1.378 . S
C291 C292 1.409 . S
C292 C288 1.387 . S
C292 C291 1.409 . S
C292 H294 0.951 . S
C293 C288 1.491 . S
C293 C295 1.382 . S
C293 C297 1.404 . S
H294 C292 0.951 . S
C295 C293 1.382 . S
C295 C296 1.390 . S
C295 H300 0.949 . S
C296 C295 1.390 . S
C296 C301 1.399 . S
C297 C293 1.404 . S
C297 H298 0.950 . S
C297 C299 1.375 . S
H298 C297 0.950 . S
C299 C297 1.375 . S
C299 C301 1.382 . S
C299 H303 0.950 . S
H300 C295 0.949 . S
C301 C296 1.399 . S
C301 C299 1.382 . S
C301 H302 0.952 . S
H302 C301 0.952 . S
H303 C299 0.950 . S
H304 C305 0.949 . S
C305 H304 0.949 . S
C305 C306 1.395 . S
C305 C307 1.391 . S
C306 C305 1.395 . S
C306 C309 1.390 . S
C307 C305 1.391 . S
C307 C311 1.387 . S
C307 C312 1.491 . S
H308 C309 0.950 . S
C309 C306 1.390 . S
C309 H308 0.950 . S
C309 C310 1.378 . S
C310 C309 1.378 . S
C310 C311 1.409 . S
C311 C307 1.387 . S
C311 C310 1.409 . S
C311 H313 0.951 . S
C312 C307 1.491 . S
C312 C314 1.382 . S
C312 C316 1.404 . S
H313 C311 0.951 . S
C314 C312 1.382 . S
C314 C315 1.390 . S
C314 H319 0.949 . S
C315 C314 1.390 . S
C315 C320 1.399 . S
C316 C312 1.404 . S
C316 H317 0.950 . S
C316 C318 1.375 . S
H317 C316 0.950 . S
C318 C316 1.375 . S
C318 C320 1.382 . S
C318 H322 0.950 . S
H319 C314 0.949 . S
C320 C315 1.399 . S
C320 C318 1.382 . S
C320 H321 0.952 . S
H321 C320 0.952 . S
H322 C318 0.950 . S
H323 C324 0.949 . S
C324 H323 0.949 . S
C324 C325 1.395 . S
C324 C326 1.391 . S
C325 C324 1.395 . S
C325 C328 1.390 . S
C326 C324 1.391 . S
C326 C330 1.387 . S
C326 C331 1.491 . S
H327 C328 0.950 . S
C328 C325 1.390 . S
C328 H327 0.950 . S
C328 C329 1.378 . S
C329 C328 1.378 . S
C329 C330 1.409 . S
C330 C326 1.387 . S
C330 C329 1.409 . S
C330 H332 0.951 . S
C331 C326 1.491 . S
C331 C333 1.382 . S
C331 C335 1.404 . S
H332 C330 0.951 . S
C333 C331 1.382 . S
C333 C334 1.390 . S
C333 H338 0.949 . S
C334 C333 1.390 . S
C334 C339 1.399 . S
C335 C331 1.404 . S
C335 H336 0.950 . S
C335 C337 1.375 . S
H336 C335 0.950 . S
C337 C335 1.375 . S
C337 C339 1.382 . S
C337 H341 0.950 . S
H338 C333 0.949 . S
C339 C334 1.399 . S
C339 C337 1.382 . S
C339 H340 0.952 . S
H340 C339 0.952 . S
H341 C337 0.950 . S
H342 C343 0.949 . S
C343 H342 0.949 . S
C343 C344 1.395 . S
C343 C345 1.391 . S
C344 C343 1.395 . S
C344 C347 1.390 . S
C345 C343 1.391 . S
C345 C349 1.387 . S
C345 C350 1.491 . S
H346 C347 0.950 . S
C347 C344 1.390 . S
C347 H346 0.950 . S
C347 C348 1.378 . S
C348 C347 1.378 . S
C348 C349 1.409 . S
C349 C345 1.387 . S
C349 C348 1.409 . S
C349 H351 0.951 . S
C350 C345 1.491 . S
C350 C352 1.382 . S
C350 C354 1.404 . S
H351 C349 0.951 . S
C352 C350 1.382 . S
C352 C353 1.390 . S
C352 H357 0.949 . S
C353 C352 1.390 . S
C353 C358 1.399 . S
C354 C350 1.404 . S
C354 H355 0.950 . S
C354 C356 1.375 . S
H355 C354 0.950 . S
C356 C354 1.375 . S
C356 C358 1.382 . S
C356 H360 0.950 . S
H357 C352 0.949 . S
C358 C353 1.399 . S
C358 C356 1.382 . S
C358 H359 0.952 . S
H359 C358 0.952 . S
H360 C356 0.950 . S
H361 C362 0.949 . S
C362 H361 0.949 . S
C362 C363 1.395 . S
C362 C364 1.391 . S
C363 C362 1.395 . S
C363 C366 1.390 . S
C364 C362 1.391 . S
C364 C368 1.387 . S
C364 C369 1.491 . S
H365 C366 0.950 . S
C366 C363 1.390 . S
C366 H365 0.950 . S
C366 C367 1.378 . S
C367 C366 1.378 . S
C367 C368 1.409 . S
C368 C364 1.387 . S
C368 C367 1.409 . S
C368 H370 0.951 . S
C369 C364 1.491 . S
C369 C371 1.382 . S
C369 C373 1.404 . S
H370 C368 0.951 . S
C371 C369 1.382 . S
C371 C372 1.390 . S
C371 H376 0.949 . S
C372 C371 1.390 . S
C372 C377 1.399 . S
C373 C369 1.404 . S
C373 H374 0.950 . S
C373 C375 1.375 . S
H374 C373 0.950 . S
C375 C373 1.375 . S
C375 C377 1.382 . S
C375 H379 0.950 . S
H376 C371 0.949 . S
C377 C372 1.399 . S
C377 C375 1.382 . S
C377 H378 0.952 . S
H378 C377 0.952 . S
H379 C375 0.950 . S
H380 C381 0.949 . S
C381 H380 0.949 . S
C381 C382 1.395 . S
C381 C383 1.391 . S
C382 C381 1.395 . S
C382 C385 1.390 . S
C383 C381 1.391 . S
C383 C387 1.387 . S
C383 C388 1.491 . S
H384 C385 0.950 . S
C385 C382 1.390 . S
C385 H384 0.950 . S
C385 C386 1.378 . S
C386 C385 1.378 . S
C386 C387 1.409 . S
C387 C383 1.387 . S
C387 C386 1.409 . S
C387 H389 0.951 . S
C388 C383 1.491 . S
C388 C390 1.382 . S
C388 C392 1.404 . S
H389 C387 0.951 . S
C390 C388 1.382 . S
C390 C391 1.390 . S
C390 H395 0.949 . S
C391 C390 1.390 . S
C391 C396 1.399 . S
C392 C388 1.404 . S
C392 H393 0.950 . S
C392 C394 1.375 . S
H393 C392 0.950 . S
C394 C392 1.375 . S
C394 C396 1.382 . S
C394 H398 0.950 . S
H395 C390 0.949 . S
C396 C391 1.399 . S
C396 C394 1.382 . S
C396 H397 0.952 . S
H397 C396 0.952 . S
H398 C394 0.950 . S
H399 C400 0.949 . S
C400 H399 0.949 . S
C400 C401 1.395 . S
C400 C402 1.391 . S
C401 C400 1.395 . S
C401 C404 1.390 . S
C402 C400 1.391 . S
C402 C406 1.387 . S
C402 C407 1.491 . S
H403 C404 0.950 . S
C404 C401 1.390 . S
C404 H403 0.950 . S
C404 C405 1.378 . S
C405 C404 1.378 . S
C405 C406 1.409 . S
C406 C402 1.387 . S
C406 C405 1.409 . S
C406 H408 0.951 . S
C407 C402 1.491 . S
C407 C409 1.382 . S
C407 C411 1.404 . S
H408 C406 0.951 . S
C409 C407 1.382 . S
C409 C410 1.390 . S
C409 H414 0.949 . S
C410 C409 1.390 . S
C410 C415 1.399 . S
C411 C407 1.404 . S
C411 H412 0.950 . S
C411 C413 1.375 . S
H412 C411 0.950 . S
C413 C411 1.375 . S
C413 C415 1.382 . S
C413 H417 0.950 . S
H414 C409 0.949 . S
C415 C410 1.399 . S
C415 C413 1.382 . S
C415 H416 0.952 . S
H416 C415 0.952 . S
H417 C413 0.950 . S
H418 C419 0.949 . S
C419 H418 0.949 . S
C419 C420 1.395 . S
C419 C421 1.391 . S
C420 C419 1.395 . S
C420 C423 1.390 . S
C421 C419 1.391 . S
C421 C425 1.387 . S
C421 C426 1.491 . S
H422 C423 0.950 . S
C423 C420 1.390 . S
C423 H422 0.950 . S
C423 C424 1.378 . S
C424 C423 1.378 . S
C424 C425 1.409 . S
C425 C421 1.387 . S
C425 C424 1.409 . S
C425 H427 0.951 . S
C426 C421 1.491 . S
C426 C428 1.382 . S
C426 C430 1.404 . S
H427 C425 0.951 . S
C428 C426 1.382 . S
C428 C429 1.390 . S
C428 H433 0.949 . S
C429 C428 1.390 . S
C429 C434 1.399 . S
C430 C426 1.404 . S
C430 H431 0.950 . S
C430 C432 1.375 . S
H431 C430 0.950 . S
C432 C430 1.375 . S
C432 C434 1.382 . S
C432 H436 0.950 . S
H433 C428 0.949 . S
C434 C429 1.399 . S
C434 C432 1.382 . S
C434 H435 0.952 . S
H435 C434 0.952 . S
H436 C432 0.950 . S
H437 C438 0.949 . S
C438 H437 0.949 . S
C438 C439 1.395 . S
C438 C440 1.391 . S
C439 C438 1.395 . S
C439 C442 1.390 . S
C440 C438 1.391 . S
C440 C444 1.387 . S
C440 C445 1.491 . S
H441 C442 0.950 . S
C442 C439 1.390 . S
C442 H441 0.950 . S
C442 C443 1.378 . S
C443 C442 1.378 . S
C443 C444 1.409 . S
C444 C440 1.387 . S
C444 C443 1.409 . S
C444 H446 0.951 . S
C445 C440 1.491 . S
C445 C447 1.382 . S
C445 C449 1.404 . S
H446 C444 0.951 . S
C447 C445 1.382 . S
C447 C448 1.390 . S
C447 H452 0.949 . S
C448 C447 1.390 . S
C448 C453 1.399 . S
C449 C445 1.404 . S
C449 H450 0.950 . S
C449 C451 1.375 . S
H450 C449 0.950 . S
C451 C449 1.375 . S
C451 C453 1.382 . S
C451 H455 0.950 . S
H452 C447 0.949 . S
C453 C448 1.399 . S
C453 C451 1.382 . S
C453 H454 0.952 . S
H454 C453 0.952 . S
H455 C451 0.950 . S
C456 O482 1.283 . S
C456 O500 1.283 . S
C457 O483 1.283 . S
C457 O498 1.283 . S
C458 O484 1.283 . S
C458 O501 1.283 . S
C459 O485 1.283 . S
C459 O499 1.283 . S
C460 O486 1.283 . S
C460 O495 1.283 . S
C461 O487 1.283 . S
C461 O497 1.283 . S
C462 O488 1.283 . S
C462 O494 1.283 . S
C463 O489 1.283 . S
C463 O496 1.283 . S
C464 O490 1.283 . S
C464 O505 1.283 . S
C465 O491 1.283 . S
C465 O503 1.283 . S
C466 O492 1.283 . S
C466 O504 1.283 . S
C467 O493 1.283 . S
C467 O502 1.283 . S
Eu468 O469 2.370 1_455 S
Eu468 O470 2.370 . S
Eu468 O473 2.370 1_455 S
Eu468 O474 2.370 . S
Eu468 O482 2.363 . S
Eu468 O483 2.363 . S
Eu468 O496 2.363 . S
Eu468 O497 2.363 1_455 S
O469 Eu468 2.370 1_655 S
O469 Eu471 2.370 1_565 S
O469 Eu476 2.370 1_665 S
O470 Eu468 2.370 . S
O470 Eu472 2.370 1_565 S
O470 Eu475 2.370 1_565 S
Eu471 O469 2.370 1_545 S
Eu471 O473 2.370 1_545 S
Eu471 O477 2.370 . S
Eu471 O478 2.370 . S
Eu471 O486 2.363 . S
Eu471 O487 2.363 1_545 S
Eu471 O502 2.363 . S
Eu471 O503 2.363 . S
Eu472 O470 2.370 1_545 S
Eu472 O474 2.370 1_545 S
Eu472 O479 2.370 . S
Eu472 O480 2.370 . S
Eu472 O488 2.363 . S
Eu472 O489 2.363 1_545 S
Eu472 O504 2.363 . S
Eu472 O505 2.363 . S
O473 Eu468 2.370 1_655 S
O473 Eu471 2.370 1_565 S
O473 Eu475 2.370 1_665 S
O474 Eu468 2.370 . S
O474 Eu472 2.370 1_565 S
O474 Eu476 2.370 1_565 S
Eu475 O470 2.370 1_545 S
Eu475 O473 2.370 1_445 S
Eu475 O477 2.370 1_455 S
Eu475 O480 2.370 . S
Eu475 O492 2.363 . S
Eu475 O493 2.363 1_455 S
Eu475 O500 2.363 1_545 S
Eu475 O501 2.363 . S
Eu476 O469 2.370 1_445 S
Eu476 O474 2.370 1_545 S
Eu476 O478 2.370 1_455 S
Eu476 O479 2.370 . S
Eu476 O490 2.363 . S
Eu476 O491 2.363 1_455 S
Eu476 O498 2.363 1_545 S
Eu476 O499 2.363 . S
O477 Eu471 2.370 . S
O477 Eu475 2.370 1_655 S
O477 Eu481 2.370 1_655 S
O478 Eu471 2.370 . S
O478 Eu476 2.370 1_655 S
O478 Eu481 2.370 1_655 S
O479 Eu472 2.370 . S
O479 Eu476 2.370 . S
O479 Eu481 2.370 . S
O480 Eu472 2.370 . S
O480 Eu475 2.370 . S
O480 Eu481 2.370 . S
Eu481 O477 2.370 1_455 S
Eu481 O478 2.370 1_455 S
Eu481 O479 2.370 . S
Eu481 O480 2.370 . S
Eu481 O484 2.363 . S
Eu481 O485 2.363 . S
Eu481 O494 2.363 . S
Eu481 O495 2.363 1_455 S
O482 C456 1.283 . S
O482 Eu468 2.363 . S
O483 C457 1.283 . S
O483 Eu468 2.363 . S
O484 C458 1.283 . S
O484 Eu481 2.363 . S
O485 C459 1.283 . S
O485 Eu481 2.363 . S
O486 C460 1.283 . S
O486 Eu471 2.363 . S
O487 C461 1.283 . S
O487 Eu471 2.363 1_565 S
O488 C462 1.283 . S
O488 Eu472 2.363 . S
O489 C463 1.283 . S
O489 Eu472 2.363 1_565 S
O490 C464 1.283 . S
O490 Eu476 2.363 . S
O491 C465 1.283 . S
O491 Eu476 2.363 1_655 S
O492 C466 1.283 . S
O492 Eu475 2.363 . S
O493 C467 1.283 . S
O493 Eu475 2.363 1_655 S
O494 C462 1.283 . S
O494 Eu481 2.363 . S
O495 C460 1.283 . S
O495 Eu481 2.363 1_655 S
O496 C463 1.283 . S
O496 Eu468 2.363 . S
O497 C461 1.283 . S
O497 Eu468 2.363 1_655 S
O498 C457 1.283 . S
O498 Eu476 2.363 1_565 S
O499 C459 1.283 . S
O499 Eu476 2.363 . S
O500 C456 1.283 . S
O500 Eu475 2.363 1_565 S
O501 C458 1.283 . S
O501 Eu475 2.363 . S
O502 C467 1.283 . S
O502 Eu471 2.363 . S
O503 C465 1.283 . S
O503 Eu471 2.363 . S
O504 C466 1.283 . S
O504 Eu472 2.363 . S
O505 C464 1.283 . S
O505 Eu472 2.363 . S
C506 O532 1.283 . S
C506 O550 1.283 . S
C507 O533 1.283 . S
C507 O548 1.283 . S
C508 O534 1.283 . S
C508 O551 1.283 . S
C509 O535 1.283 . S
C509 O549 1.283 . S
C510 O536 1.283 . S
C510 O545 1.283 . S
C511 O537 1.283 . S
C511 O547 1.283 . S
C512 O538 1.283 . S
C512 O544 1.283 . S
C513 O539 1.283 . S
C513 O546 1.283 . S
C514 O540 1.283 . S
C514 O555 1.283 . S
C515 O541 1.283 . S
C515 O553 1.283 . S
C516 O542 1.283 . S
C516 O554 1.283 . S
C517 O543 1.283 . S
C517 O552 1.283 . S
Eu518 O519 2.370 . S
Eu518 O520 2.370 1_545 S
Eu518 O523 2.370 1_545 S
Eu518 O524 2.370 . S
Eu518 O532 2.363 1_545 S
Eu518 O533 2.363 . S
Eu518 O546 2.363 . S
Eu518 O547 2.363 . S
O519 Eu518 2.370 . S
O519 Eu521 2.370 . S
O519 Eu526 2.370 . S
O520 Eu518 2.370 1_565 S
O520 Eu522 2.370 1_565 S
O520 Eu525 2.370 . S
Eu521 O519 2.370 . S
Eu521 O523 2.370 1_545 S
Eu521 O527 2.370 1_544 S
Eu521 O528 2.370 1_554 S
Eu521 O536 2.363 1_544 S
Eu521 O537 2.363 . S
Eu521 O552 2.363 1_545 S
Eu521 O553 2.363 . S
Eu522 O520 2.370 1_545 S
Eu522 O524 2.370 . S
Eu522 O529 2.370 1_554 S
Eu522 O530 2.370 1_544 S
Eu522 O538 2.363 1_544 S
Eu522 O539 2.363 . S
Eu522 O554 2.363 1_545 S
Eu522 O555 2.363 . S
O523 Eu518 2.370 1_565 S
O523 Eu521 2.370 1_565 S
O523 Eu525 2.370 . S
O524 Eu518 2.370 . S
O524 Eu522 2.370 . S
O524 Eu526 2.370 . S
Eu525 O520 2.370 . S
Eu525 O523 2.370 . S
Eu525 O527 2.370 1_554 S
Eu525 O530 2.370 1_554 S
Eu525 O542 2.363 . S
Eu525 O543 2.363 . S
Eu525 O550 2.363 . S
Eu525 O551 2.363 1_554 S
Eu526 O519 2.370 . S
Eu526 O524 2.370 . S
Eu526 O528 2.370 1_554 S
Eu526 O529 2.370 1_554 S
Eu526 O540 2.363 . S
Eu526 O541 2.363 . S
Eu526 O548 2.363 . S
Eu526 O549 2.363 1_554 S
O527 Eu521 2.370 1_566 S
O527 Eu525 2.370 1_556 S
O527 Eu531 2.376 . S
O528 Eu521 2.370 1_556 S
O528 Eu526 2.370 1_556 S
O528 Eu531 2.364 1_545 S
O529 Eu522 2.370 1_556 S
O529 Eu526 2.370 1_556 S
O529 Eu531 2.364 1_545 S
O530 Eu522 2.370 1_566 S
O530 Eu525 2.370 1_556 S
O530 Eu531 2.376 . S
Eu531 O527 2.376 . S
Eu531 O528 2.364 1_565 S
Eu531 O529 2.364 1_565 S
Eu531 O530 2.376 . S
Eu531 O534 2.373 . S
Eu531 O535 2.353 1_565 S
Eu531 O544 2.363 . S
Eu531 O545 2.363 . S
O532 C506 1.283 . S
O532 Eu518 2.363 1_565 S
O533 C507 1.283 . S
O533 Eu518 2.363 . S
O534 C508 1.283 . S
O534 Eu531 2.373 . S
O535 C509 1.283 . S
O535 Eu531 2.353 1_545 S
O536 C510 1.283 . S
O536 Eu521 2.363 1_566 S
O537 C511 1.283 . S
O537 Eu521 2.363 . S
O538 C512 1.283 . S
O538 Eu522 2.363 1_566 S
O539 C513 1.283 . S
O539 Eu522 2.363 . S
O540 C514 1.283 . S
O540 Eu526 2.363 . S
O541 C515 1.283 . S
O541 Eu526 2.363 . S
O542 C516 1.283 . S
O542 Eu525 2.363 . S
O543 C517 1.283 . S
O543 Eu525 2.363 . S
O544 C512 1.283 . S
O544 Eu531 2.363 . S
O545 C510 1.283 . S
O545 Eu531 2.363 . S
O546 C513 1.283 . S
O546 Eu518 2.363 . S
O547 C511 1.283 . S
O547 Eu518 2.363 . S
O548 C507 1.283 . S
O548 Eu526 2.363 . S
O549 C509 1.283 . S
O549 Eu526 2.363 1_556 S
O550 C506 1.283 . S
O550 Eu525 2.363 . S
O551 C508 1.283 . S
O551 Eu525 2.363 1_556 S
O552 C517 1.283 . S
O552 Eu521 2.363 1_565 S
O553 C515 1.283 . S
O553 Eu521 2.363 . S
O554 C516 1.283 . S
O554 Eu522 2.363 1_565 S
O555 C514 1.283 . S
O555 Eu522 2.363 . S
C556 O582 1.283 . S
C556 O600 1.283 . S
C557 O583 1.283 . S
C557 O598 1.283 . S
C558 O584 1.283 . S
C558 O601 1.283 . S
C559 O585 1.283 . S
C559 O599 1.283 . S
C560 O586 1.283 . S
C560 O595 1.283 . S
C561 O587 1.283 . S
C561 O597 1.283 . S
C562 O588 1.283 . S
C562 O594 1.283 . S
C563 O589 1.283 . S
C563 O596 1.283 . S
C564 O590 1.283 . S
C564 O605 1.283 . S
C565 O591 1.283 . S
C565 O603 1.283 . S
C566 O592 1.283 . S
C566 O604 1.283 . S
C567 O593 1.283 . S
C567 O602 1.283 . S
Eu568 O569 2.370 1_454 S
Eu568 O570 2.370 . S
Eu568 O573 2.370 1_455 S
Eu568 O574 2.370 1_554 S
Eu568 O582 2.363 . S
Eu568 O583 2.363 1_554 S
Eu568 O596 2.363 . S
Eu568 O597 2.363 1_455 S
O569 Eu568 2.370 1_656 S
O569 Eu571 2.370 1_556 S
O569 Eu576 2.370 1_655 S
O570 Eu568 2.370 . S
O570 Eu572 2.370 . S
O570 Eu575 2.370 . S
Eu571 O569 2.370 1_554 S
Eu571 O573 2.370 . S
Eu571 O577 2.370 . S
Eu571 O578 2.370 1_554 S
Eu571 O586 2.363 . S
Eu571 O587 2.363 . S
Eu571 O602 2.363 . S
Eu571 O603 2.363 1_554 S
Eu572 O570 2.370 . S
Eu572 O574 2.370 1_554 S
Eu572 O579 2.370 1_554 S
Eu572 O580 2.370 . S
Eu572 O588 2.363 . S
Eu572 O589 2.363 . S
Eu572 O604 2.363 . S
Eu572 O605 2.363 1_554 S
O573 Eu568 2.370 1_655 S
O573 Eu571 2.370 . S
O573 Eu575 2.370 1_655 S
O574 Eu568 2.370 1_556 S
O574 Eu572 2.370 1_556 S
O574 Eu576 2.370 . S
Eu575 O570 2.370 . S
Eu575 O573 2.370 1_455 S
Eu575 O577 2.370 1_455 S
Eu575 O580 2.370 . S
Eu575 O592 2.363 . S
Eu575 O593 2.363 1_455 S
Eu575 O600 2.363 . S
Eu575 O601 2.363 . S
Eu576 O569 2.370 1_455 S
Eu576 O574 2.370 . S
Eu576 O578 2.370 1_455 S
Eu576 O579 2.370 . S
Eu576 O590 2.363 . S
Eu576 O591 2.363 1_455 S
Eu576 O598 2.363 . S
Eu576 O599 2.363 . S
O577 Eu571 2.370 . S
O577 Eu575 2.370 1_655 S
O577 Eu581 2.370 1_655 S
O578 Eu571 2.370 1_556 S
O578 Eu576 2.370 1_655 S
O578 Eu581 2.370 1_656 S
O579 Eu572 2.370 1_556 S
O579 Eu576 2.370 . S
O579 Eu581 2.370 1_556 S
O580 Eu572 2.370 . S
O580 Eu575 2.370 . S
O580 Eu581 2.370 . S
Eu581 O577 2.370 1_455 S
Eu581 O578 2.370 1_454 S
Eu581 O579 2.370 1_554 S
Eu581 O580 2.370 . S
Eu581 O584 2.363 . S
Eu581 O585 2.363 1_554 S
Eu581 O594 2.363 . S
Eu581 O595 2.363 1_455 S
O582 C556 1.283 . S
O582 Eu568 2.363 . S
O583 C557 1.283 . S
O583 Eu568 2.363 1_556 S
O584 C558 1.283 . S
O584 Eu581 2.363 . S
O585 C559 1.283 . S
O585 Eu581 2.363 1_556 S
O586 C560 1.283 . S
O586 Eu571 2.363 . S
O587 C561 1.283 . S
O587 Eu571 2.363 . S
O588 C562 1.283 . S
O588 Eu572 2.363 . S
O589 C563 1.283 . S
O589 Eu572 2.363 . S
O590 C564 1.283 . S
O590 Eu576 2.363 . S
O591 C565 1.283 . S
O591 Eu576 2.363 1_655 S
O592 C566 1.283 . S
O592 Eu575 2.363 . S
O593 C567 1.283 . S
O593 Eu575 2.363 1_655 S
O594 C562 1.283 . S
O594 Eu581 2.363 . S
O595 C560 1.283 . S
O595 Eu581 2.363 1_655 S
O596 C563 1.283 . S
O596 Eu568 2.363 . S
O597 C561 1.283 . S
O597 Eu568 2.363 1_655 S
O598 C557 1.283 . S
O598 Eu576 2.363 . S
O599 C559 1.283 . S
O599 Eu576 2.363 . S
O600 C556 1.283 . S
O600 Eu575 2.363 . S
O601 C558 1.283 . S
O601 Eu575 2.363 . S
O602 C567 1.283 . S
O602 Eu571 2.363 . S
O603 C565 1.283 . S
O603 Eu571 2.363 1_556 S
O604 C566 1.283 . S
O604 Eu572 2.363 . S
O605 C564 1.283 . S
O605 Eu572 2.363 1_556 S
C606 O632 1.283 . S
C606 O650 1.283 . S
C607 O633 1.283 . S
C607 O648 1.283 . S
C608 O634 1.283 . S
C608 O651 1.283 . S
C609 O635 1.283 . S
C609 O649 1.283 . S
C610 O636 1.283 . S
C610 O645 1.283 . S
C611 O637 1.283 . S
C611 O647 1.283 . S
C612 O638 1.283 . S
C612 O644 1.283 . S
C613 O639 1.283 . S
C613 O646 1.283 . S
C614 O640 1.283 . S
C614 O655 1.283 . S
C615 O641 1.283 . S
C615 O653 1.283 . S
C616 O642 1.283 . S
C616 O654 1.283 . S
C617 O643 1.283 . S
C617 O652 1.283 . S
Eu618 O619 2.370 . S
Eu618 O620 2.370 . S
Eu618 O623 2.370 . S
Eu618 O624 2.370 . S
Eu618 O632 2.363 . S
Eu618 O633 2.363 . S
Eu618 O646 2.363 . S
Eu618 O647 2.363 . S
O619 Eu618 2.370 . S
O619 Eu621 2.370 . S
O619 Eu626 2.370 . S
O620 Eu618 2.370 . S
O620 Eu622 2.370 . S
O620 Eu625 2.370 . S
Eu621 O619 2.370 . S
Eu621 O623 2.370 . S
Eu621 O627 2.370 1_554 S
Eu621 O628 2.370 1_554 S
Eu621 O636 2.363 1_554 S
Eu621 O637 2.363 . S
Eu621 O652 2.363 . S
Eu621 O653 2.363 . S
Eu622 O620 2.370 . S
Eu622 O624 2.370 . S
Eu622 O629 2.370 1_554 S
Eu622 O630 2.370 1_554 S
Eu622 O638 2.363 1_554 S
Eu622 O639 2.363 . S
Eu622 O654 2.363 . S
Eu622 O655 2.363 . S
O623 Eu618 2.370 . S
O623 Eu621 2.370 . S
O623 Eu625 2.370 . S
O624 Eu618 2.370 . S
O624 Eu622 2.370 . S
O624 Eu626 2.370 . S
Eu625 O620 2.370 . S
Eu625 O623 2.370 . S
Eu625 O627 2.370 1_554 S
Eu625 O630 2.370 1_554 S
Eu625 O642 2.363 . S
Eu625 O643 2.363 . S
Eu625 O650 2.363 . S
Eu625 O651 2.363 1_554 S
Eu626 O619 2.370 . S
Eu626 O624 2.370 . S
Eu626 O628 2.370 1_554 S
Eu626 O629 2.370 1_554 S
Eu626 O640 2.363 . S
Eu626 O641 2.363 . S
Eu626 O648 2.363 . S
Eu626 O649 2.363 1_554 S
O627 Eu621 2.370 1_556 S
O627 Eu625 2.370 1_556 S
O627 Eu631 2.370 . S
O628 Eu621 2.370 1_556 S
O628 Eu626 2.370 1_556 S
O628 Eu631 2.370 . S
O629 Eu622 2.370 1_556 S
O629 Eu626 2.370 1_556 S
O629 Eu631 2.370 . S
O630 Eu622 2.370 1_556 S
O630 Eu625 2.370 1_556 S
O630 Eu631 2.370 . S
Eu631 O627 2.370 . S
Eu631 O628 2.370 . S
Eu631 O629 2.370 . S
Eu631 O630 2.370 . S
Eu631 O634 2.363 . S
Eu631 O635 2.363 . S
Eu631 O644 2.363 . S
Eu631 O645 2.363 . S
O632 C606 1.283 . S
O632 Eu618 2.363 . S
O633 C607 1.283 . S
O633 Eu618 2.363 . S
O634 C608 1.283 . S
O634 Eu631 2.363 . S
O635 C609 1.283 . S
O635 Eu631 2.363 . S
O636 C610 1.283 . S
O636 Eu621 2.363 1_556 S
O637 C611 1.283 . S
O637 Eu621 2.363 . S
O638 C612 1.283 . S
O638 Eu622 2.363 1_556 S
O639 C613 1.283 . S
O639 Eu622 2.363 . S
O640 C614 1.283 . S
O640 Eu626 2.363 . S
O641 C615 1.283 . S
O641 Eu626 2.363 . S
O642 C616 1.283 . S
O642 Eu625 2.363 . S
O643 C617 1.283 . S
O643 Eu625 2.363 . S
O644 C612 1.283 . S
O644 Eu631 2.363 . S
O645 C610 1.283 . S
O645 Eu631 2.363 . S
O646 C613 1.283 . S
O646 Eu618 2.363 . S
O647 C611 1.283 . S
O647 Eu618 2.363 . S
O648 C607 1.283 . S
O648 Eu626 2.363 . S
O649 C609 1.283 . S
O649 Eu626 2.363 1_556 S
O650 C606 1.283 . S
O650 Eu625 2.363 . S
O651 C608 1.283 . S
O651 Eu625 2.363 1_556 S
O652 C617 1.283 . S
O652 Eu621 2.363 . S
O653 C615 1.283 . S
O653 Eu621 2.363 . S
O654 C616 1.283 . S
O654 Eu622 2.363 . S
O655 C614 1.283 . S
O655 Eu622 2.363 . S
C656 O682 1.283 . S
C656 O700 1.283 . S
C657 O683 1.283 . S
C657 O698 1.283 . S
C658 O684 1.283 . S
C658 O701 1.283 . S
C659 O685 1.283 . S
C659 O699 1.283 . S
C660 O686 1.283 . S
C660 O695 1.283 . S
C661 O687 1.283 . S
C661 O697 1.283 . S
C662 O688 1.283 . S
C662 O694 1.283 . S
C663 O689 1.283 . S
C663 O696 1.283 . S
C664 O690 1.283 . S
C664 O705 1.283 . S
C665 O691 1.283 . S
C665 O703 1.283 . S
C666 O692 1.283 . S
C666 O704 1.283 . S
C667 O693 1.283 . S
C667 O702 1.283 . S
Eu668 O669 2.370 1_455 S
Eu668 O670 2.370 . S
Eu668 O673 2.370 1_455 S
Eu668 O674 2.370 . S
Eu668 O682 2.363 . S
Eu668 O683 2.363 . S
Eu668 O696 2.363 . S
Eu668 O697 2.363 1_455 S
O669 Eu668 2.370 1_655 S
O669 Eu671 2.370 . S
O669 Eu676 2.370 1_655 S
O670 Eu668 2.370 . S
O670 Eu672 2.370 . S
O670 Eu675 2.370 . S
Eu671 O669 2.370 . S
Eu671 O673 2.370 . S
Eu671 O677 2.370 . S
Eu671 O678 2.370 . S
Eu671 O686 2.363 . S
Eu671 O687 2.363 . S
Eu671 O702 2.363 . S
Eu671 O703 2.363 . S
Eu672 O670 2.370 . S
Eu672 O674 2.370 . S
Eu672 O679 2.370 . S
Eu672 O680 2.370 . S
Eu672 O688 2.363 . S
Eu672 O689 2.363 . S
Eu672 O704 2.363 . S
Eu672 O705 2.363 . S
O673 Eu668 2.370 1_655 S
O673 Eu671 2.370 . S
O673 Eu675 2.370 1_655 S
O674 Eu668 2.370 . S
O674 Eu672 2.370 . S
O674 Eu676 2.370 . S
Eu675 O670 2.370 . S
Eu675 O673 2.370 1_455 S
Eu675 O677 2.370 1_455 S
Eu675 O680 2.370 . S
Eu675 O692 2.363 . S
Eu675 O693 2.363 1_455 S
Eu675 O700 2.363 . S
Eu675 O701 2.363 . S
Eu676 O669 2.370 1_455 S
Eu676 O674 2.370 . S
Eu676 O678 2.370 1_455 S
Eu676 O679 2.370 . S
Eu676 O690 2.363 . S
Eu676 O691 2.363 1_455 S
Eu676 O698 2.363 . S
Eu676 O699 2.363 . S
O677 Eu671 2.370 . S
O677 Eu675 2.370 1_655 S
O677 Eu681 2.370 1_655 S
O678 Eu671 2.370 . S
O678 Eu676 2.370 1_655 S
O678 Eu681 2.370 1_655 S
O679 Eu672 2.370 . S
O679 Eu676 2.370 . S
O679 Eu681 2.370 . S
O680 Eu672 2.370 . S
O680 Eu675 2.370 . S
O680 Eu681 2.370 . S
Eu681 O677 2.370 1_455 S
Eu681 O678 2.370 1_455 S
Eu681 O679 2.370 . S
Eu681 O680 2.370 . S
Eu681 O684 2.363 . S
Eu681 O685 2.363 . S
Eu681 O694 2.363 . S
Eu681 O695 2.363 1_455 S
O682 C656 1.283 . S
O682 Eu668 2.363 . S
O683 C657 1.283 . S
O683 Eu668 2.363 . S
O684 C658 1.283 . S
O684 Eu681 2.363 . S
O685 C659 1.283 . S
O685 Eu681 2.363 . S
O686 C660 1.283 . S
O686 Eu671 2.363 . S
O687 C661 1.283 . S
O687 Eu671 2.363 . S
O688 C662 1.283 . S
O688 Eu672 2.363 . S
O689 C663 1.283 . S
O689 Eu672 2.363 . S
O690 C664 1.283 . S
O690 Eu676 2.363 . S
O691 C665 1.283 . S
O691 Eu676 2.363 1_655 S
O692 C666 1.283 . S
O692 Eu675 2.363 . S
O693 C667 1.283 . S
O693 Eu675 2.363 1_655 S
O694 C662 1.283 . S
O694 Eu681 2.363 . S
O695 C660 1.283 . S
O695 Eu681 2.363 1_655 S
O696 C663 1.283 . S
O696 Eu668 2.363 . S
O697 C661 1.283 . S
O697 Eu668 2.363 1_655 S
O698 C657 1.283 . S
O698 Eu676 2.363 . S
O699 C659 1.283 . S
O699 Eu676 2.363 . S
O700 C656 1.283 . S
O700 Eu675 2.363 . S
O701 C658 1.283 . S
O701 Eu675 2.363 . S
O702 C667 1.283 . S
O702 Eu671 2.363 . S
O703 C665 1.283 . S
O703 Eu671 2.363 . S
O704 C666 1.283 . S
O704 Eu672 2.363 . S
O705 C664 1.283 . S
O705 Eu672 2.363 . S
C706 O732 1.283 . S
C706 O750 1.283 . S
C707 O733 1.283 . S
C707 O748 1.283 . S
C708 O734 1.283 . S
C708 O751 1.283 . S
C709 O735 1.283 . S
C709 O749 1.283 . S
C710 O736 1.283 . S
C710 O745 1.283 . S
C711 O737 1.283 . S
C711 O747 1.283 . S
C712 O738 1.283 . S
C712 O744 1.283 . S
C713 O739 1.283 . S
C713 O746 1.283 . S
C714 O740 1.283 . S
C714 O755 1.283 . S
C715 O741 1.283 . S
C715 O753 1.283 . S
C716 O742 1.283 . S
C716 O754 1.283 . S
C717 O743 1.283 . S
C717 O752 1.283 . S
Eu718 O719 2.370 . S
Eu718 O720 2.370 . S
Eu718 O723 2.370 . S
Eu718 O724 2.370 . S
Eu718 O732 2.363 . S
Eu718 O733 2.363 . S
Eu718 O746 2.363 . S
Eu718 O747 2.363 . S
O719 Eu718 2.370 . S
O719 Eu721 2.370 1_565 S
O719 Eu726 2.370 1_565 S
O720 Eu718 2.370 . S
O720 Eu722 2.370 1_565 S
O720 Eu725 2.358 1_565 S
Eu721 O719 2.370 1_545 S
Eu721 O723 2.370 1_545 S
Eu721 O727 2.370 . S
Eu721 O728 2.370 . S
Eu721 O736 2.363 . S
Eu721 O737 2.363 1_545 S
Eu721 O752 2.363 . S
Eu721 O753 2.363 . S
Eu722 O720 2.370 1_545 S
Eu722 O724 2.370 1_545 S
Eu722 O729 2.370 . S
Eu722 O730 2.370 . S
Eu722 O738 2.363 . S
Eu722 O739 2.363 1_545 S
Eu722 O754 2.363 . S
Eu722 O755 2.363 . S
O723 Eu718 2.370 . S
O723 Eu721 2.370 1_565 S
O723 Eu725 2.358 1_565 S
O724 Eu718 2.370 . S
O724 Eu722 2.370 1_565 S
O724 Eu726 2.370 1_565 S
Eu725 O720 2.358 1_545 S
Eu725 O723 2.358 1_545 S
Eu725 O727 2.383 . S
Eu725 O730 2.383 . S
Eu725 O742 2.363 . S
Eu725 O743 2.363 . S
Eu725 O750 2.342 1_545 S
Eu725 O751 2.384 . S
Eu726 O719 2.370 1_545 S
Eu726 O724 2.370 1_545 S
Eu726 O728 2.370 . S
Eu726 O729 2.370 . S
Eu726 O740 2.363 . S
Eu726 O741 2.363 . S
Eu726 O748 2.363 1_545 S
Eu726 O749 2.363 . S
O727 Eu721 2.370 . S
O727 Eu725 2.383 . S
O727 Eu731 2.370 . S
O728 Eu721 2.370 . S
O728 Eu726 2.370 . S
O728 Eu731 2.370 . S
O729 Eu722 2.370 . S
O729 Eu726 2.370 . S
O729 Eu731 2.370 . S
O730 Eu722 2.370 . S
O730 Eu725 2.383 . S
O730 Eu731 2.370 . S
Eu731 O727 2.370 . S
Eu731 O728 2.370 . S
Eu731 O729 2.370 . S
Eu731 O730 2.370 . S
Eu731 O734 2.363 . S
Eu731 O735 2.363 . S
Eu731 O744 2.363 . S
Eu731 O745 2.363 . S
O732 C706 1.283 . S
O732 Eu718 2.363 . S
O733 C707 1.283 . S
O733 Eu718 2.363 . S
O734 C708 1.283 . S
O734 Eu731 2.363 . S
O735 C709 1.283 . S
O735 Eu731 2.363 . S
O736 C710 1.283 . S
O736 Eu721 2.363 . S
O737 C711 1.283 . S
O737 Eu721 2.363 1_565 S
O738 C712 1.283 . S
O738 Eu722 2.363 . S
O739 C713 1.283 . S
O739 Eu722 2.363 1_565 S
O740 C714 1.283 . S
O740 Eu726 2.363 . S
O741 C715 1.283 . S
O741 Eu726 2.363 . S
O742 C716 1.283 . S
O742 Eu725 2.363 . S
O743 C717 1.283 . S
O743 Eu725 2.363 . S
O744 C712 1.283 . S
O744 Eu731 2.363 . S
O745 C710 1.283 . S
O745 Eu731 2.363 . S
O746 C713 1.283 . S
O746 Eu718 2.363 . S
O747 C711 1.283 . S
O747 Eu718 2.363 . S
O748 C707 1.283 . S
O748 Eu726 2.363 1_565 S
O749 C709 1.283 . S
O749 Eu726 2.363 . S
O750 C706 1.283 . S
O750 Eu725 2.342 1_565 S
O751 C708 1.283 . S
O751 Eu725 2.384 . S
O752 C717 1.283 . S
O752 Eu721 2.363 . S
O753 C715 1.283 . S
O753 Eu721 2.363 . S
O754 C716 1.283 . S
O754 Eu722 2.363 . S
O755 C714 1.283 . S
O755 Eu722 2.363 . S
C462 C439 2.271 . S
C401 C460 2.395 . S
C461 C382 2.395 . S
C420 C463 2.273 . S
C507 C306 2.346 . S
C567 C325 2.435 . S
C344 C506 2.192 . S
C566 C363 2.535 . S
C230 C508 2.376 . S
C564 C249 2.224 . S
C268 C509 2.431 . S
C287 C565 2.174 . S
C615 C211 2.271 . S
C173 C614 2.396 . S
C154 C616 2.395 . S
C617 C192 2.273 . S
C78 C658 2.346 . S
C97 C717 2.435 . S
C116 C656 2.192 . S
C135 C716 2.535 . S
C657 C2 2.376 . S
C714 C21 2.224 . S
C40 C659 2.431 . S
C715 C59 2.175 . S
C459 C6 1.603 . S
C30 C465 1.899 . S
C49 C457 1.968 1_655 S
C68 C464 1.943 1_565 S
C82 C456 1.559 . S
C466 C106 1.953 . S
C125 C458 1.960 1_655 S
C467 C139 1.938 . S
C513 C63 1.473 . S
C11 C556 1.946 1_655 S
C511 C25 1.466 . S
C558 C44 1.620 . S
C101 C512 1.641 1_545 S
C557 C120 1.348 . S
C510 C144 1.988 1_565 S
C559 C87 2.086 1_455 S
C563 C163 1.894 . S
C182 C562 1.867 1_556 S
C514 C158 1.733 . S
C561 C196 1.710 . S
C220 C517 2.044 . S
C215 C560 1.712 . S
C516 C177 1.744 . S
C515 C201 2.013 . S
C609 C234 1.603 . S
C612 C258 1.899 . S
C277 C608 1.973 . S
C610 C296 1.942 . S
C606 C310 1.559 . S
C334 C611 1.953 . S
C353 C607 1.962 . S
C613 C367 1.938 . S
C667 C291 1.472 . S
C239 C706 1.946 . S
C666 C253 1.466 . S
C708 C272 1.620 . S
C665 C329 1.641 . S
C348 C707 1.347 . S
C664 C372 1.992 . S
C709 C315 2.086 . S
C713 C391 1.894 . S
C410 C712 1.867 . S
C660 C386 1.733 . S
C424 C711 1.710 . S
C663 C448 2.043 . S
C710 C443 1.712 . S
C661 C405 1.744 . S
C429 C662 2.013 . S
