# Generated by pormake.
# Topology zzz, (3,6)-cn, num edge types: 1
# Building blocks:
#     Node 0, Type 0, BuildingBlock: VETTIZ_charged_linker_0, # of connection points: 3
#     Node 1, Type 0, BuildingBlock: VETTIZ_charged_linker_0, # of connection points: 3
#     Node 2, Type 0, BuildingBlock: VETTIZ_charged_linker_0, # of connection points: 3
#     Node 3, Type 0, BuildingBlock: VETTIZ_charged_linker_0, # of connection points: 3
#     Node 4, Type 0, BuildingBlock: VETTIZ_charged_linker_0, # of connection points: 3
#     Node 5, Type 0, BuildingBlock: VETTIZ_charged_linker_0, # of connection points: 3
#     Node 6, Type 0, BuildingBlock: VETTIZ_charged_linker_0, # of connection points: 3
#     Node 7, Type 0, BuildingBlock: VETTIZ_charged_linker_0, # of connection points: 3
#     Node 8, Type 1, BuildingBlock: NUHQIS_clean_sbu_0, # of connection points: 6
#     Node 9, Type 1, BuildingBlock: NUHQIS_clean_sbu_0, # of connection points: 6
#     Node 10, Type 1, BuildingBlock: NUHQIS_clean_sbu_0, # of connection points: 6
#     Node 11, Type 1, BuildingBlock: NUHQIS_clean_sbu_0, # of connection points: 6
#     Edge 12, Type (0, 1), BuildingBlock: ZUJKAS_clean_linker_0, # of connection points: 2
#     Edge 13, Type (0, 1), BuildingBlock: ZUJKAS_clean_linker_0, # of connection points: 2
#     Edge 14, Type (0, 1), BuildingBlock: ZUJKAS_clean_linker_0, # of connection points: 2
#     Edge 15, Type (0, 1), BuildingBlock: ZUJKAS_clean_linker_0, # of connection points: 2
#     Edge 16, Type (0, 1), BuildingBlock: ZUJKAS_clean_linker_0, # of connection points: 2
#     Edge 17, Type (0, 1), BuildingBlock: ZUJKAS_clean_linker_0, # of connection points: 2
#     Edge 18, Type (0, 1), BuildingBlock: ZUJKAS_clean_linker_0, # of connection points: 2
#     Edge 19, Type (0, 1), BuildingBlock: ZUJKAS_clean_linker_0, # of connection points: 2
#     Edge 20, Type (0, 1), BuildingBlock: ZUJKAS_clean_linker_0, # of connection points: 2
#     Edge 21, Type (0, 1), BuildingBlock: ZUJKAS_clean_linker_0, # of connection points: 2
#     Edge 22, Type (0, 1), BuildingBlock: ZUJKAS_clean_linker_0, # of connection points: 2
#     Edge 23, Type (0, 1), BuildingBlock: ZUJKAS_clean_linker_0, # of connection points: 2
#     Edge 24, Type (0, 1), BuildingBlock: ZUJKAS_clean_linker_0, # of connection points: 2
#     Edge 25, Type (0, 1), BuildingBlock: ZUJKAS_clean_linker_0, # of connection points: 2
#     Edge 26, Type (0, 1), BuildingBlock: ZUJKAS_clean_linker_0, # of connection points: 2
#     Edge 27, Type (0, 1), BuildingBlock: ZUJKAS_clean_linker_0, # of connection points: 2
#     Edge 28, Type (0, 1), BuildingBlock: ZUJKAS_clean_linker_0, # of connection points: 2
#     Edge 29, Type (0, 1), BuildingBlock: ZUJKAS_clean_linker_0, # of connection points: 2
#     Edge 30, Type (0, 1), BuildingBlock: ZUJKAS_clean_linker_0, # of connection points: 2
#     Edge 31, Type (0, 1), BuildingBlock: ZUJKAS_clean_linker_0, # of connection points: 2
#     Edge 32, Type (0, 1), BuildingBlock: ZUJKAS_clean_linker_0, # of connection points: 2
#     Edge 33, Type (0, 1), BuildingBlock: ZUJKAS_clean_linker_0, # of connection points: 2
#     Edge 34, Type (0, 1), BuildingBlock: ZUJKAS_clean_linker_0, # of connection points: 2
#     Edge 35, Type (0, 1), BuildingBlock: ZUJKAS_clean_linker_0, # of connection points: 2
# Relax obj value: 0.395
# Max RMSD: 0.261
# Mean RMSD: 0.233
data_MOF--net-zzz--node1-NUHQIS_clean_sbu_0--node2-VETTIZ_charged_linker_0--edge1-ZUJKAS_clean_linker_0
_symmetry_space_group_name_H-M    P1
_symmetry_Int_Tables_number       1
_symmetry_cell_setting            triclinic
loop_
_symmetry_equiv_pos_as_xyz
'x, y, z'
_cell_length_a     73.214004
_cell_length_b     73.097951
_cell_length_c     23.820237
_cell_angle_alpha  89.911737
_cell_angle_beta   89.875423
_cell_angle_gamma 89.929754
loop_
_atom_site_label
_atom_site_type_symbol
_atom_site_fract_x
_atom_site_fract_y
_atom_site_fract_z
_atom_type_partial_charge
C0 C 0.78908 0.50586 0.28727 0.0
C1 C 0.80658 0.49948 0.30326 0.0
C2 C 0.81425 0.48449 0.27499 0.0
C3 C 0.78751 0.48206 0.21604 0.0
C4 C 0.77971 0.49682 0.24334 0.0
C5 C 0.76094 0.50116 0.21949 0.0
H6 H 0.69383 0.47672 0.03273 0.0
C7 C 0.77461 0.47533 0.17333 0.0
C8 C 0.75877 0.48623 0.17496 0.0
H9 H 0.69261 0.52324 0.14402 0.0
H10 H 0.72264 0.51482 0.18033 0.0
H11 H 0.73367 0.48311 0.99257 0.0
H12 H 0.71076 0.4478 0.11877 0.0
H13 H 0.7278 0.43511 0.08435 0.0
H14 H 0.70843 0.44341 0.04504 0.0
H15 H 0.72135 0.46268 0.97538 0.0
H16 H 0.74562 0.4624 0.98789 0.0
C17 C 0.76161 0.52044 0.19304 0.0
C18 C 0.74666 0.49932 0.26685 0.0
C19 C 0.79506 0.42388 0.04551 0.0
C20 C 0.78676 0.41452 0.00068 0.0
C21 C 0.7681 0.41782 0.98978 0.0
C22 C 0.7583 0.43091 0.02076 0.0
C23 C 0.7672 0.44085 0.06326 0.0
C24 C 0.78509 0.43678 0.07605 0.0
C25 C 0.79236 0.44827 0.1231 0.0
C26 C 0.77611 0.46061 0.13487 0.0
C27 C 0.76151 0.45632 0.09953 0.0
C28 C 0.80899 0.45924 0.1005 0.0
C29 C 0.79663 0.43536 0.1733 0.0
C30 C 0.69981 0.48499 0.06562 0.0
C31 C 0.69066 0.50047 0.0861 0.0
C32 C 0.69934 0.51118 0.12758 0.0
C33 C 0.71675 0.50628 0.14858 0.0
C34 C 0.7257 0.49066 0.12724 0.0
C35 C 0.71709 0.48046 0.08614 0.0
C36 C 0.72854 0.46493 0.06524 0.0
C37 C 0.74544 0.46713 0.1008 0.0
C38 C 0.74394 0.48215 0.13775 0.0
C39 C 0.73248 0.46823 0.00195 0.0
C40 C 0.71841 0.4468 0.07848 0.0
H41 H 0.81173 0.46456 0.21213 0.0
H42 H 0.78291 0.51741 0.3085 0.0
H43 H 0.74868 0.48627 0.29013 0.0
H44 H 0.73254 0.49906 0.25088 0.0
H45 H 0.7479 0.51076 0.29726 0.0
H46 H 0.7743 0.52218 0.16783 0.0
H47 H 0.76146 0.53116 0.22604 0.0
H48 H 0.75021 0.52297 0.16386 0.0
H49 H 0.80939 0.42209 0.05512 0.0
H50 H 0.76115 0.41062 0.95641 0.0
H51 H 0.74429 0.43312 0.00939 0.0
H52 H 0.81149 0.47206 0.12366 0.0
H53 H 0.80667 0.46363 0.05633 0.0
H54 H 0.82162 0.45082 0.10128 0.0
H55 H 0.78854 0.4225 0.17132 0.0
H56 H 0.79286 0.44146 0.21426 0.0
H57 H 0.81128 0.43142 0.17404 0.0
H58 H 0.82766 0.47945 0.28659 0.0
C59 C 0.80489 0.47581 0.23177 0.0
C60 C 0.09981 0.78463 0.03908 0.0
C61 C 0.11186 0.79854 0.05669 0.0
C62 C 0.11213 0.80312 0.11436 0.0
C63 C 0.08572 0.78404 0.13118 0.0
C64 C 0.08718 0.77736 0.07735 0.0
C65 C 0.07359 0.76238 0.06635 0.0
H66 H 1.00215 0.71075 0.15285 0.0
C67 C 0.06941 0.77582 0.1575 0.0
C68 C 0.06262 0.7626 0.12078 0.0
H69 H 0.03605 0.70505 0.00493 0.0
H70 H 0.05306 0.73159 0.03071 0.0
H71 H 0.034 0.72394 0.24585 0.0
H72 H 1.0005 0.75799 0.13756 0.0
H73 H 1.00094 0.76633 0.20694 0.0
H74 H 0.99057 0.7445 0.19289 0.0
H75 H 0.00947 0.72382 0.25039 0.0
H76 H 0.02254 0.74165 0.28296 0.0
C77 C 0.08436 0.74422 0.05836 0.0
C78 C 0.06172 0.76802 0.01537 0.0
C79 C 0.04177 0.80866 0.3233 0.0
C80 C 0.02552 0.80696 0.35425 0.0
C81 C 0.01391 0.79201 0.34206 0.0
C82 C 0.01845 0.77924 0.29956 0.0
C83 C 0.03464 0.78155 0.26823 0.0
C84 C 0.04601 0.79605 0.28119 0.0
C85 C 0.06264 0.79688 0.24461 0.0
C86 C 0.05917 0.78094 0.20553 0.0
C87 C 0.04278 0.77177 0.21911 0.0
C88 C 0.07978 0.79378 0.28178 0.0
C89 C 0.06245 0.8155 0.21332 0.0
C90 C 0.01335 0.71529 0.12657 0.0
C91 C 0.01784 0.70571 0.07676 0.0
C92 C 0.03228 0.71216 0.04314 0.0
C93 C 0.04233 0.72752 0.05854 0.0
C94 C 0.038 0.73681 0.10822 0.0
C95 C 0.02354 0.73103 0.14116 0.0
C96 C 0.02061 0.74384 0.19059 0.0
C97 C 0.03677 0.75696 0.18434 0.0
C98 C 0.04666 0.75267 0.13536 0.0
C99 C 0.02162 0.73277 0.24565 0.0
C100 C 1.00214 0.75368 0.18209 0.0
H101 H 0.09938 0.80078 0.19397 0.0
H102 H 0.09934 0.78013 0.99591 0.0
H103 H 0.05782 0.78271 0.01825 0.0
H104 H 0.04871 0.76044 0.01297 0.0
H105 H 0.06927 0.76604 0.97535 0.0
H106 H 0.09856 0.74514 0.07468 0.0
H107 H 0.08536 0.74042 0.01333 0.0
H108 H 0.07817 0.73272 0.08203 0.0
H109 H 0.05096 0.82 0.33038 0.0
H110 H 1.00137 0.79011 0.36552 0.0
H111 H 1.00924 0.76806 0.29265 0.0
H112 H 0.07625 0.78774 0.32332 0.0
H113 H 0.08706 0.80683 0.28993 0.0
H114 H 0.08944 0.78387 0.26266 0.0
H115 H 0.04894 0.81786 0.19327 0.0
H116 H 0.07268 0.81649 0.17961 0.0
H117 H 0.06505 0.82696 0.24278 0.0
H118 H 0.12195 0.81279 0.13068 0.0
C119 C 0.09905 0.79607 0.15144 0.0
C120 C 0.80793 0.01408 0.13604 0.0
C121 C 0.81952 0.01953 0.09155 0.0
C122 C 0.81363 0.03315 0.05413 0.0
C123 C 0.78519 0.03618 0.10495 0.0
C124 C 0.7907 0.02267 0.14198 0.0
C125 C 0.77621 0.01915 0.1864 0.0
H126 H 0.69037 0.04014 0.28389 0.0
C127 C 0.76708 0.0429 0.12235 0.0
C128 C 0.76154 0.03315 0.17049 0.0
H129 H 0.72644 0.99894 0.35111 0.0
H130 H 0.75002 1.00774 0.28347 0.0
H131 H 0.71898 0.07059 0.27721 0.0
H132 H 0.69901 0.03313 0.15312 0.0
H133 H 0.69904 0.05519 0.1235 0.0
H134 H 0.68558 0.05087 0.1851 0.0
H135 H 0.6986 0.07535 0.2383 0.0
H136 H 0.72084 0.08244 0.21332 0.0
C137 C 0.78445 0.02312 0.24468 0.0
C138 C 0.76937 0.99931 0.17965 0.0
C139 C 0.73535 0.09067 0.0016 0.0
C140 C 0.71876 0.10011 0.00773 0.0
C141 C 0.70863 0.09807 0.05764 0.0
C142 C 0.71435 0.08593 0.0995 0.0
C143 C 0.73042 0.07573 0.0915 0.0
C144 C 0.74102 0.07879 0.0444 0.0
C145 C 0.75826 0.06763 0.04504 0.0
C146 C 0.75577 0.05671 0.09898 0.0
C147 C 0.73927 0.06122 0.12513 0.0
C148 C 0.77467 0.08105 0.04843 0.0
C149 C 0.75821 0.05511 0.99252 0.0
C150 C 0.7033 0.03289 0.28386 0.0
C151 C 0.70644 0.01864 0.32194 0.0
C152 C 0.72366 1.0099 0.32169 0.0
C153 C 0.73725 0.01495 0.28224 0.0
C154 C 0.7336 0.02899 0.24311 0.0
C155 C 0.71689 0.03784 0.24549 0.0
C156 C 0.71511 0.05275 0.20276 0.0
C157 C 0.73325 0.05118 0.17263 0.0
C158 C 0.74422 0.0372 0.19576 0.0
C159 C 0.71316 0.07127 0.23414 0.0
C160 C 0.69881 0.04792 0.16403 0.0
H161 H 0.79311 0.05167 0.03022 0.0
H162 H 0.81221 1.00358 0.16532 0.0
H163 H 0.76666 0.99625 0.1347 0.0
H164 H 0.75643 0.99677 0.202 0.0
H165 H 0.77976 0.98941 0.195 0.0
H166 H 0.7922 0.0362 0.24391 0.0
H167 H 0.79398 0.01205 0.25748 0.0
H168 H 0.77392 0.0247 0.2775 0.0
H169 H 0.74343 0.09213 0.9637 0.0
H170 H 0.6957 0.10511 0.06287 0.0
H171 H 0.70567 0.08447 0.13549 0.0
H172 H 0.77056 0.09462 0.06542 0.0
H173 H 0.78082 0.08346 0.0064 0.0
H174 H 0.78542 0.0762 0.07757 0.0
H175 H 0.74428 0.04962 0.98467 0.0
H176 H 0.76699 0.04292 0.99705 0.0
H177 H 0.76252 0.06279 0.95444 0.0
H178 H 0.82234 0.03744 0.01967 0.0
C179 C 0.79664 0.04145 0.06052 0.0
C180 C 0.50538 0.72364 0.26389 0.0
C181 C 0.50393 0.70432 0.26402 0.0
C182 C 0.49982 0.69529 0.21359 0.0
C183 C 0.49894 0.72413 0.16359 0.0
C184 C 0.50299 0.7333 0.21277 0.0
C185 C 0.50472 0.75377 0.20243 0.0
H186 H 0.49912 0.82367 0.00939 0.0
C187 C 0.49758 0.73757 0.11746 0.0
C188 C 0.50105 0.75514 0.13931 0.0
H189 H 0.51165 0.82987 0.18502 0.0
H190 H 0.50967 0.79662 0.19792 0.0
H191 H 0.5253 0.79134 0.98907 0.0
H192 H 0.46788 0.79494 0.02292 0.0
H193 H 0.4703 0.77815 0.97097 0.0
H194 H 0.4779 0.80112 0.95678 0.0
H195 H 0.50911 0.79676 0.93518 0.0
H196 H 0.51564 0.77343 0.95044 0.0
C197 C 0.52434 0.75972 0.21718 0.0
C198 C 0.48996 0.76371 0.23717 0.0
C199 C 0.48112 0.71524 0.92171 0.0
C200 C 0.47965 0.7241 0.86925 0.0
C201 C 0.48305 0.74304 0.86628 0.0
C202 C 0.4876 0.75297 0.91445 0.0
C203 C 0.48894 0.74391 0.96645 0.0
C204 C 0.48597 0.72533 0.96926 0.0
C205 C 0.4888 0.71787 0.02752 0.0
C206 C 0.49362 0.73518 0.05955 0.0
C207 C 0.49346 0.7503 0.02363 0.0
C208 C 0.50499 0.70411 0.02545 0.0
C209 C 0.47044 0.70959 0.04779 0.0
C210 C 0.50135 0.81793 0.05083 0.0
C211 C 0.50522 0.82931 0.09626 0.0
C212 C 0.50849 0.82128 0.14934 0.0
C213 C 0.5073 0.80205 0.15668 0.0
C214 C 0.50307 0.79084 0.11026 0.0
C215 C 0.50041 0.79907 0.0585 0.0
C216 C 0.4965 0.78576 0.01278 0.0
C217 C 0.49679 0.768 0.04501 0.0
C218 C 0.50061 0.77069 0.10245 0.0
C219 C 0.5123 0.78686 0.96921 0.0
C220 C 0.47723 0.79016 0.98906 0.0
H221 H 0.49413 0.69714 0.12723 0.0
H222 H 0.50863 0.73092 0.30214 0.0
H223 H 0.47643 0.75711 0.2311 0.0
H224 H 0.48832 0.77815 0.22467 0.0
H225 H 0.49327 0.76321 0.28265 0.0
H226 H 0.53445 0.7501 0.19855 0.0
H227 H 0.52638 0.75981 0.26339 0.0
H228 H 0.52772 0.77338 0.2005 0.0
H229 H 0.47842 0.70076 0.92612 0.0
H230 H 0.48239 0.75024 0.82657 0.0
H231 H 0.48985 0.76735 0.90912 0.0
H232 H 0.51431 0.70697 0.98953 0.0
H233 H 0.50009 0.68982 0.02086 0.0
H234 H 0.51388 0.70502 0.06288 0.0
H235 H 0.45876 0.71827 0.03419 0.0
H236 H 0.46926 0.70885 0.09394 0.0
H237 H 0.46836 0.6957 0.03009 0.0
H238 H 0.49853 0.68052 0.21277 0.0
C239 C 0.49727 0.70501 0.1638 0.0
C240 C 0.31062 0.51812 0.19801 0.0
C241 C 0.32267 0.52347 0.24149 0.0
C242 C 0.3163 0.53551 0.28315 0.0
C243 C 0.28691 0.53757 0.23795 0.0
C244 C 0.29269 0.52552 0.19689 0.0
C245 C 0.27769 0.52228 0.15391 0.0
H246 H 0.18972 0.54256 0.0733 0.0
C247 C 0.26803 0.54321 0.22581 0.0
C248 C 0.26224 0.53442 0.17639 0.0
H249 H 0.22696 0.50663 0.98582 0.0
H250 H 0.25019 0.51223 0.05725 0.0
H251 H 0.19827 0.52853 0.19361 0.0
H252 H 0.21797 0.57372 0.09561 0.0
H253 H 0.21577 0.58202 0.16431 0.0
H254 H 0.19584 0.57368 0.12805 0.0
H255 H 0.18502 0.54885 0.18226 0.0
H256 H 0.20051 0.54677 0.24075 0.0
C257 C 0.27251 0.50185 0.15514 0.0
C258 C 0.28455 0.52882 0.09601 0.0
C259 C 0.23663 0.5864 0.36243 0.0
C260 C 0.21882 0.59355 0.3652 0.0
C261 C 0.20666 0.58996 0.3206 0.0
C262 C 0.21195 0.57906 0.27515 0.0
C263 C 0.22956 0.57146 0.27406 0.0
C264 C 0.24161 0.57537 0.31685 0.0
C265 C 0.25959 0.5658 0.3093 0.0
C266 C 0.25625 0.55531 0.25516 0.0
C267 C 0.23869 0.55867 0.2349 0.0
C268 C 0.26232 0.55276 0.36021 0.0
C269 C 0.27453 0.58069 0.30209 0.0
C270 C 0.20293 0.53604 0.06849 0.0
C271 C 0.20648 0.5244 0.023 0.0
C272 C 0.22377 0.51573 0.0203 0.0
C273 C 0.23727 0.51906 0.06165 0.0
C274 C 0.23344 0.53111 0.10637 0.0
C275 C 0.21637 0.53925 0.10872 0.0
C276 C 0.21409 0.55162 0.1581 0.0
C277 C 0.23258 0.54986 0.18547 0.0
C278 C 0.24413 0.53778 0.15574 0.0
C279 C 0.19862 0.54374 0.19572 0.0
C280 C 0.2106 0.57129 0.13586 0.0
H281 H 0.29501 0.55166 0.31481 0.0
H282 H 0.31512 0.5088 0.16553 0.0
H283 H 0.27343 0.53009 0.06511 0.0
H284 H 0.29502 0.51929 0.07903 0.0
H285 H 0.29084 0.54262 0.09944 0.0
H286 H 0.27041 0.49716 0.19913 0.0
H287 H 0.28351 0.49337 0.1362 0.0
H288 H 0.25965 0.49905 0.13276 0.0
H289 H 0.24637 0.58892 0.39568 0.0
H290 H 0.19271 0.59488 0.32185 0.0
H291 H 0.20189 0.57662 0.24338 0.0
H292 H 0.249 0.54757 0.37626 0.0
H293 H 0.26923 0.55984 0.39547 0.0
H294 H 0.27006 0.54024 0.34948 0.0
H295 H 0.26889 0.5933 0.28242 0.0
H296 H 0.28567 0.57645 0.27346 0.0
H297 H 0.28045 0.58466 0.34319 0.0
H298 H 0.32508 0.53953 0.31759 0.0
C299 C 0.29869 0.54254 0.28158 0.0
C300 C 0.90886 0.23794 0.33971 0.0
C301 C 0.90211 0.21999 0.33393 0.0
C302 C 0.90787 0.20959 0.28714 0.0
C303 C 0.92832 0.23378 0.258 0.0
C304 C 0.92207 0.24441 0.30183 0.0
C305 C 0.93214 0.26229 0.30548 0.0
H306 H 1.00014 0.31838 0.21973 0.0
C307 C 0.94359 0.24355 0.2305 0.0
C308 C 0.94595 0.26023 0.25797 0.0
H309 H 0.95828 0.32713 0.34552 0.0
H310 H 0.94563 0.29782 0.32659 0.0
H311 H 0.01003 0.26284 0.18517 0.0
H312 H 0.97228 0.29737 0.12414 0.0
H313 H 0.98704 0.28021 0.09716 0.0
H314 H 0.99659 0.30099 0.12446 0.0
H315 H 1.00693 0.27299 0.25191 0.0
H316 H 0.01643 0.28635 0.19552 0.0
C317 C 0.94158 0.26314 0.36372 0.0
C318 C 0.91825 0.27792 0.29399 0.0
C319 C 0.97689 0.2113 0.0739 0.0
C320 C 0.9927 0.21475 0.04252 0.0
C321 C 1.0025 0.23105 0.05305 0.0
C322 C 0.99624 0.24381 0.09358 0.0
C323 C 0.98022 0.24005 0.12455 0.0
C324 C 0.97108 0.22382 0.11436 0.0
C325 C 0.95516 0.22094 0.15267 0.0
C326 C 0.95567 0.23832 0.18686 0.0
C327 C 0.97027 0.24976 0.17066 0.0
C328 C 0.9591 0.20367 0.18898 0.0
C329 C 0.93766 0.2198 0.11625 0.0
C330 C 0.98828 0.31382 0.24304 0.0
C331 C 0.98004 0.32533 0.28373 0.0
C332 C 0.96466 0.31886 0.31322 0.0
C333 C 0.95732 0.30168 0.30233 0.0
C334 C 0.96537 0.29045 0.26158 0.0
C335 C 0.98056 0.29641 0.23225 0.0
C336 C 0.98677 0.28216 0.18985 0.0
C337 C 0.97258 0.26703 0.19836 0.0
C338 C 0.96029 0.27212 0.24121 0.0
C339 C 1.00613 0.27572 0.20603 0.0
C340 C 0.98572 0.29057 0.13053 0.0
H341 H 0.92473 0.20756 0.2155 0.0
H342 H 0.90461 0.24654 0.37431 0.0
H343 H 0.92426 0.28924 0.26918 0.0
H344 H 0.91255 0.28348 0.33371 0.0
H345 H 0.90655 0.27311 0.26821 0.0
H346 H 0.94678 0.24942 0.37624 0.0
H347 H 0.93189 0.26775 0.39674 0.0
H348 H 0.95373 0.27206 0.36436 0.0
H349 H 0.96933 0.1987 0.06815 0.0
H350 H 0.01484 0.23397 0.0296 0.0
H351 H 1.00412 0.25602 0.0996 0.0
H352 H 0.97401 0.20099 0.19287 0.0
H353 H 0.95281 0.19126 0.17042 0.0
H354 H 0.95437 0.20514 0.23289 0.0
H355 H 0.93839 0.22953 0.08032 0.0
H356 H 0.92515 0.22372 0.13933 0.0
H357 H 0.93585 0.20585 0.09874 0.0
H358 H 0.90337 0.19563 0.28133 0.0
C359 C 0.92071 0.21643 0.24911 0.0
C360 C 0.29006 0.99899 0.05269 0.0
C361 C 0.30519 0.98978 0.02865 0.0
C362 C 0.30934 0.97195 0.04705 0.0
C363 C 0.28488 0.97317 0.11526 0.0
C364 C 0.27987 0.99024 0.09551 0.0
C365 C 0.26283 0.99712 0.1252 0.0
H366 H 0.20423 0.98637 0.34763 0.0
C367 C 0.2731 0.96844 0.16339 0.0
C368 C 0.25996 0.98234 0.16986 0.0
H369 H 0.19898 0.02578 0.21354 0.0
H370 H 0.22675 0.01388 0.16983 0.0
H371 H 0.21368 0.95215 0.26902 0.0
H372 H 0.24592 0.98993 0.36448 0.0
H373 H 0.25859 0.96955 0.36409 0.0
H374 H 0.23622 0.96994 0.39629 0.0
H375 H 0.21378 0.95338 0.34434 0.0
H376 H 0.23006 0.93954 0.30704 0.0
C377 C 0.24707 0.99747 0.08215 0.0
C378 C 0.26683 0.01597 0.15148 0.0
C379 C 0.29229 0.91527 0.28705 0.0
C380 C 0.28876 0.91121 0.34396 0.0
C381 C 0.27396 0.92019 0.37042 0.0
C382 C 0.26383 0.93363 0.34217 0.0
C383 C 0.26876 0.93864 0.28723 0.0
C384 C 0.28276 0.92946 0.26062 0.0
C385 C 0.28791 0.93821 0.20567 0.0
C386 C 0.27461 0.95418 0.20369 0.0
C387 C 0.26314 0.95405 0.25072 0.0
C388 C 0.284 0.92427 0.15832 0.0
C389 C 0.30819 0.94453 0.2094 0.0
C390 C 0.20909 0.99258 0.30908 0.0
C391 C 0.19951 1.00712 0.28435 0.0
C392 C 0.20614 0.01454 0.23343 0.0
C393 C 0.22217 1.00757 0.20804 0.0
C394 C 0.23144 0.9928 0.23326 0.0
C395 C 0.22467 0.98556 0.28284 0.0
C396 C 0.23552 0.96953 0.30338 0.0
C397 C 0.24947 0.96765 0.25681 0.0
C398 C 0.24749 0.98155 0.21616 0.0
C399 C 0.22268 0.95271 0.30656 0.0
C400 C 0.24448 0.97484 0.36012 0.0
H401 H 0.30345 0.95019 0.10226 0.0
H402 H 0.28631 0.01255 0.03842 0.0
H403 H 0.27952 0.01536 0.177 0.0
H404 H 0.25579 0.0206 0.17968 0.0
H405 H 0.26873 0.02652 0.11837 0.0
H406 H 0.24805 0.98565 0.05292 0.0
H407 H 0.24744 0.01018 0.05656 0.0
H408 H 0.23352 0.99619 0.1021 0.0
H409 H 0.30314 0.90852 0.26416 0.0
H410 H 0.27075 0.91777 0.41414 0.0
H411 H 0.25307 0.94018 0.36523 0.0
H412 H 0.27102 0.91682 0.16657 0.0
H413 H 0.2951 0.91395 0.15525 0.0
H414 H 0.28211 0.93084 0.1169 0.0
H415 H 0.31295 0.94563 0.2536 0.0
H416 H 0.31036 0.9584 0.19209 0.0
H417 H 0.31748 0.93481 0.1877 0.0
H418 H 0.32084 0.96456 0.02943 0.0
C419 C 0.2993 0.96364 0.08982 0.0
C420 C 0.52032 0.28942 0.00424 0.0
C421 C 0.53007 0.30401 0.97902 0.0
C422 C 0.54812 0.3074 0.9961 0.0
C423 C 0.54605 0.28353 0.06612 0.0
C424 C 0.5288 0.27906 0.04721 0.0
C425 C 0.52144 0.26241 0.07806 0.0
H426 H 0.53078 0.20521 0.30498 0.0
C427 C 0.55037 0.27203 0.11519 0.0
C428 C 0.53611 0.25938 0.12281 0.0
H429 H 0.49155 0.19954 0.17118 0.0
H430 H 0.50386 0.22684 0.1256 0.0
H431 H 0.56521 0.21345 0.22677 0.0
H432 H 0.5276 0.24723 0.31846 0.0
H433 H 0.54808 0.25966 0.31719 0.0
H434 H 0.54736 0.23759 0.35151 0.0
H435 H 0.56368 0.21429 0.30201 0.0
H436 H 0.57788 0.23 0.26374 0.0
C437 C 0.52068 0.24636 0.03598 0.0
C438 C 0.50273 0.2671 0.10421 0.0
C439 C 0.60292 0.29184 0.23903 0.0
C440 C 0.60655 0.28891 0.29641 0.0
C441 C 0.59739 0.27443 0.32396 0.0
C442 C 0.58408 0.2641 0.29611 0.0
C443 C 0.57943 0.26849 0.24046 0.0
C444 C 0.58889 0.28211 0.21286 0.0
C445 C 0.58061 0.28671 0.1569 0.0
C446 C 0.56447 0.27365 0.1557 0.0
C447 C 0.56418 0.2627 0.20388 0.0
C448 C 0.59479 0.28186 0.11087 0.0
C449 C 0.57464 0.30718 0.15771 0.0
C450 C 0.52468 0.20987 0.26608 0.0
C451 C 0.51009 0.20029 0.24199 0.0
C452 C 0.50284 0.20667 0.19059 0.0
C453 C 0.51006 0.22242 0.16409 0.0
C454 C 0.52492 0.23165 0.18863 0.0
C455 C 0.53194 0.22515 0.23878 0.0
C456 C 0.54804 0.23593 0.25871 0.0
C457 C 0.5503 0.2494 0.21096 0.0
C458 C 0.53649 0.24734 0.17028 0.0
C459 C 0.56463 0.22282 0.26349 0.0
C460 C 0.54266 0.24555 0.31448 0.0
H461 H 0.56975 0.30093 0.05085 0.0
H462 H 0.50656 0.28624 0.9909 0.0
H463 H 0.50368 0.27987 0.12934 0.0
H464 H 0.49777 0.25626 0.13268 0.0
H465 H 0.49229 0.26922 0.07105 0.0
H466 H 0.53264 0.24667 0.00711 0.0
H467 H 0.50812 0.24709 0.00995 0.0
H468 H 0.52133 0.23289 0.05678 0.0
H469 H 0.60985 0.30247 0.2156 0.0
H470 H 0.5996 0.27172 0.36809 0.0
H471 H 0.57735 0.25362 0.31991 0.0
H472 H 0.60203 0.26891 0.12134 0.0
H473 H 0.60524 0.29279 0.10669 0.0
H474 H 0.58847 0.27939 0.06947 0.0
H475 H 0.57364 0.31269 0.20112 0.0
H476 H 0.56082 0.30934 0.14028 0.0
H477 H 0.58448 0.31595 0.1345 0.0
H478 H 0.5559 0.31846 0.9774 0.0
C479 C 0.55612 0.29729 0.03918 0.0
Tb480 Tb 0.02292 1.00453 0.74058 0.0
Eu481 Eu 0.99494 0.01948 0.64435 0.0
C482 C 0.03792 0.01598 0.62168 0.0
C483 C 0.0104 0.04616 0.7396 0.0
C484 C 0.05936 0.97758 0.81022 0.0
C485 C 0.08253 0.95961 0.76188 0.0
C486 C 0.06979 0.97389 0.76191 0.0
C487 C 0.06181 0.96684 0.85824 0.0
C488 C 0.07439 0.9525 0.85812 0.0
C489 C 0.08495 0.94869 0.81 0.0
C490 C 0.04546 0.9921 0.81091 0.0
O491 O 0.99767 1.01005 0.78627 0.0
O492 O 0.97787 1.00667 0.71297 0.0
O493 O 1.00452 0.99192 0.61419 0.0
O494 O 0.01127 0.98009 0.70077 0.0
C495 C 0.98108 1.00734 0.76713 0.0
O496 O 0.96965 0.01597 0.59687 0.0
O497 O 0.98707 0.03936 0.58079 0.0
O498 O 0.02341 0.02624 0.61384 0.0
O499 O 0.03849 1.00388 0.66248 0.0
O500 O 0.02384 0.03445 0.74746 0.0
O501 O 0.99615 0.04187 0.70901 0.0
C502 C 1.00777 0.97786 0.64698 0.0
O503 O 0.04857 1.00629 0.77911 0.0
O504 O 0.02856 0.98663 0.80749 0.0
C505 C 0.95527 0.04405 0.57648 0.0
C506 C 0.92579 0.06891 0.57961 0.0
C507 C 0.92559 0.05389 0.5426 0.0
C508 C 0.94026 0.04162 0.54093 0.0
C509 C 0.95509 0.05838 0.61558 0.0
C510 C 0.94056 0.07075 0.6169 0.0
C511 C 0.97117 0.03182 0.57213 0.0
H512 H 0.09047 0.95715 0.72424 0.0
H513 H 0.06801 0.98196 0.72412 0.0
H514 H 0.05375 0.96937 0.89567 0.0
H515 H 0.07548 0.94412 0.89549 0.0
H516 H 0.91432 0.05186 0.51396 0.0
H517 H 0.94006 0.03045 0.51107 0.0
H518 H 0.96645 0.06037 0.644 0.0
H519 H 0.9414 0.08224 0.6454 0.0
Tb520 Tb 0.51025 0.02848 0.71291 0.0
Eu521 Eu 0.495 0.99882 0.62177 0.0
C522 C 0.49909 0.04122 0.59201 0.0
C523 C 0.46871 0.01573 0.71588 0.0
C524 C 0.53736 0.06649 0.76667 0.0
C525 C 0.56251 0.07789 0.71001 0.0
C526 C 0.54786 0.06589 0.71734 0.0
C527 C 0.54118 0.0796 0.80765 0.0
C528 C 0.5558 0.09164 0.80034 0.0
C529 C 0.56682 0.09071 0.75188 0.0
C530 C 0.52266 0.05321 0.77563 0.0
O531 O 0.50544 1.0042 0.76404 0.0
O532 O 0.50593 0.98233 0.69482 0.0
O533 O 0.52313 1.00664 0.59198 0.0
O534 O 0.53474 0.0159 0.67647 0.0
C535 C 0.50657 0.98701 0.74813 0.0
O536 O 0.49819 0.97328 0.57551 0.0
O537 O 0.47477 0.99075 0.55962 0.0
O538 O 0.4883 0.02697 0.58776 0.0
O539 O 0.51154 0.04192 0.63137 0.0
O540 O 0.48042 0.02928 0.72153 0.0
O541 O 0.47277 1.00111 0.6865 0.0
C542 C 0.53711 0.01068 0.62406 0.0
O543 O 0.50844 0.05532 0.74351 0.0
O544 O 0.52783 0.03615 0.77821 0.0
C545 C 0.47025 0.9591 0.55059 0.0
C546 C 0.44444 0.93047 0.55193 0.0
C547 C 0.45635 0.93301 0.59759 0.0
C548 C 0.46912 0.94728 0.59704 0.0
C549 C 0.45868 0.95641 0.50476 0.0
C550 C 0.44587 0.94234 0.50546 0.0
C551 C 0.48252 0.97498 0.55 0.0
H552 H 0.57067 0.07691 0.67216 0.0
H553 H 0.54496 0.05589 0.68504 0.0
H554 H 0.53315 0.08024 0.84586 0.0
H555 H 0.55896 0.10113 0.8338 0.0
H556 H 0.45572 0.92411 0.63391 0.0
H557 H 0.47787 0.94924 0.63315 0.0
H558 H 0.45922 0.96553 0.46887 0.0
H559 H 0.43665 0.94122 0.47017 0.0
Tb560 Tb 0.49553 0.5131 0.68186 0.0
Eu561 Eu 0.52623 0.50015 0.58994 0.0
C562 C 0.48374 0.50196 0.55775 0.0
C563 C 0.50842 0.47178 0.67972 0.0
C564 C 0.45728 0.53916 0.7334 0.0
C565 C 0.44094 0.55597 0.66097 0.0
C566 C 0.44993 0.54017 0.67903 0.0
C567 C 0.45431 0.55358 0.77078 0.0
C568 C 0.44557 0.56948 0.75261 0.0
C569 C 0.43949 0.5712 0.69664 0.0
C570 C 0.47137 0.52552 0.74652 0.0
O571 O 0.52215 0.51958 0.71927 0.0
O572 O 0.53983 0.49847 0.67406 0.0
O573 O 0.52554 0.53117 0.58751 0.0
O574 O 0.49658 0.53537 0.62106 0.0
C575 C 0.53722 0.50981 0.71577 0.0
O576 O 0.55384 0.50323 0.55673 0.0
O577 O 0.53524 0.4838 0.51872 0.0
O578 O 0.50054 0.50388 0.5394 0.0
O579 O 0.47985 0.50194 0.61174 0.0
O580 O 0.50269 0.48569 0.71004 0.0
O581 O 0.51533 0.47403 0.62905 0.0
C582 C 0.51104 0.54155 0.59461 0.0
O583 O 0.47003 0.50972 0.7215 0.0
O584 O 0.48793 0.53194 0.74391 0.0
C585 C 0.56634 0.47589 0.52204 0.0
C586 C 0.59263 0.44778 0.51903 0.0
C587 C 0.57914 0.44802 0.56118 0.0
C588 C 0.5661 0.46199 0.5627 0.0
C589 C 0.58018 0.47617 0.48145 0.0
C590 C 0.59325 0.46225 0.47999 0.0
C591 C 0.55199 0.48988 0.52094 0.0
H592 H 0.43615 0.55661 0.61804 0.0
H593 H 0.45229 0.5293 0.64915 0.0
H594 H 0.46013 0.55319 0.81257 0.0
H595 H 0.44505 0.58092 0.78136 0.0
H596 H 0.57814 0.43699 0.59145 0.0
H597 H 0.55554 0.46168 0.59464 0.0
H598 H 0.58064 0.48694 0.45017 0.0
H599 H 0.60362 0.46259 0.44751 0.0
Tb600 Tb 0.99402 0.50209 0.72692 0.0
Eu601 Eu 0.00974 0.53013 0.63099 0.0
C602 C 1.00429 0.48762 0.60388 0.0
C603 C 0.03594 0.51208 0.72331 0.0
C604 C 0.96982 0.46327 0.79164 0.0
C605 C 0.9603 0.43312 0.82295 0.0
C606 C 0.97238 0.44791 0.82597 0.0
C607 C 0.95554 0.46335 0.7525 0.0
C608 C 0.94336 0.44872 0.74989 0.0
C609 C 0.94535 0.43354 0.78582 0.0
C610 C 0.98194 0.47921 0.79703 0.0
O611 O 0.98848 0.52954 0.75992 0.0
O612 O 0.01106 0.54496 0.71357 0.0
O613 O 0.97903 0.53128 0.62353 0.0
O614 O 0.97171 0.50413 0.66641 0.0
C615 C 0.99912 0.54393 0.75452 0.0
O616 O 1.00829 0.55702 0.5918 0.0
O617 O 0.02879 0.53758 0.56413 0.0
O618 O 1.0042 0.50426 0.58301 0.0
O619 O 1.00358 0.48455 0.65837 0.0
O620 O 0.02146 0.50953 0.75514 0.0
O621 O 0.03428 0.51635 0.67002 0.0
C622 C 0.96733 0.51811 0.63426 0.0
O623 O 0.99785 0.47777 0.77286 0.0
O624 O 0.97445 0.49512 0.78754 0.0
C625 C 0.03763 0.5683 0.57124 0.0
C626 C 0.06808 0.59098 0.59021 0.0
C627 C 0.05577 0.58713 0.63398 0.0
C628 C 0.04074 0.57582 0.62463 0.0
C629 C 0.04941 0.57268 0.52695 0.0
C630 C 0.06452 0.58391 0.5363 0.0
C631 C 0.02328 0.55456 0.56302 0.0
H632 H 0.96246 0.42154 0.85056 0.0
H633 H 0.98352 0.44749 0.85581 0.0
H634 H 0.95345 0.47496 0.72499 0.0
H635 H 0.93191 0.44979 0.7214 0.0
H636 H 0.05801 0.59245 0.6758 0.0
H637 H 0.03186 0.57249 0.65955 0.0
H638 H 0.04733 0.56685 0.48567 0.0
H639 H 0.07389 0.58625 0.50182 0.0
H640 H 0.16581 0.01226 0.23657 0.0
H641 H 0.13673 0.01789 0.28557 0.0
H642 H 0.16545 0.02138 0.44302 0.0
H643 H 0.19438 0.01593 0.39442 0.0
H644 H 0.12261 0.99486 0.3692 0.0
H645 H 0.13064 0.06517 0.45153 0.0
H646 H 0.14461 0.05625 0.39526 0.0
H647 H 0.14977 0.05065 0.46707 0.0
C648 C 0.16594 0.01475 0.28138 0.0
C649 C 0.18238 0.01367 0.31163 0.0
C650 C 0.14932 0.01784 0.30941 0.0
C651 C 0.14888 0.02021 0.368 0.0
C652 C 0.16541 0.01991 0.39778 0.0
H653 H 0.06833 0.99416 0.61751 0.0
H654 H 0.09406 0.99598 0.55238 0.0
C655 C 0.18194 0.01669 0.36996 0.0
C656 C 0.1312 0.02127 0.39902 0.0
H657 H 0.10761 0.04666 0.4956 0.0
C658 C 0.11922 1.00631 0.39623 0.0
C659 C 0.12666 0.03624 0.43407 0.0
C660 C 0.1385 0.05308 0.43685 0.0
C661 C 0.10328 1.00556 0.42927 0.0
C662 C 0.09926 0.02008 0.46657 0.0
C663 C 0.11079 0.03542 0.46752 0.0
C664 C 0.08354 0.01923 0.50633 0.0
C665 C 0.09094 0.98914 0.42432 0.0
C666 C 0.06918 0.03195 0.50304 0.0
C667 C 0.05435 0.03095 0.54037 0.0
C668 C 0.05369 0.01733 0.58223 0.0
C669 C 0.06828 1.00481 0.58585 0.0
C670 C 0.083 1.00576 0.54837 0.0
H671 H 0.09318 0.98173 0.38419 0.0
H672 H 0.09385 0.97953 0.45929 0.0
H673 H 0.07635 0.99322 0.42709 0.0
H674 H 0.06935 0.04253 0.47116 0.0
H675 H 0.04342 0.04086 0.53642 0.0
H676 H 0.50163 0.19585 0.35277 0.0
H677 H 0.49617 0.16719 0.40309 0.0
H678 H 0.49813 0.13763 0.24673 0.0
H679 H 0.50387 0.16639 0.196 0.0
H680 H 0.46961 0.13904 0.39542 0.0
H681 H 0.53941 0.11441 0.34146 0.0
H682 H 0.53248 0.13789 0.33153 0.0
H683 H 0.52504 0.12059 0.2833 0.0
C684 C 0.50066 0.18328 0.32895 0.0
C685 C 0.50336 0.18338 0.27041 0.0
C686 C 0.49749 0.1669 0.35779 0.0
C687 C 0.49706 0.15018 0.32892 0.0
C688 C 0.49869 0.15032 0.27005 0.0
H689 H 0.4744 0.04593 0.50588 0.0
H690 H 0.47276 0.07138 0.43868 0.0
C691 C 0.50177 0.16678 0.24101 0.0
C692 C 0.49611 0.13272 0.36134 0.0
H693 H 0.52155 0.09543 0.39928 0.0
C694 C 0.48086 0.12938 0.39578 0.0
C695 C 0.51092 0.12024 0.36244 0.0
C696 C 0.52798 0.12343 0.32812 0.0
C697 C 0.48013 0.11406 0.43172 0.0
C698 C 0.495 0.10166 0.43306 0.0
C699 C 0.51011 0.10486 0.39799 0.0
C700 C 0.49577 0.08604 0.47338 0.0
C701 C 0.46378 0.11165 0.46965 0.0
C702 C 0.50941 0.08561 0.5147 0.0
C703 C 0.51039 0.07111 0.55304 0.0
C704 C 0.49783 0.05655 0.55082 0.0
C705 C 0.48425 0.05691 0.50902 0.0
C706 C 0.48324 0.07151 0.47069 0.0
H707 H 0.45514 0.12415 0.47124 0.0
H708 H 0.45529 0.10021 0.45384 0.0
H709 H 0.46817 0.10816 0.51297 0.0
H710 H 0.51926 0.09661 0.51759 0.0
H711 H 0.52107 0.07135 0.58443 0.0
H712 H 0.33597 0.48816 0.24623 0.0
H713 H 0.36611 0.47898 0.28227 0.0
H714 H 0.38206 0.53574 0.29001 0.0
H715 H 0.35277 0.54466 0.25073 0.0
H716 H 0.41053 0.51734 0.26958 0.0
H717 H 0.37505 0.48197 0.44518 0.0
H718 H 0.37109 0.47195 0.37769 0.0
H719 H 0.3628 0.49465 0.39252 0.0
C720 C 0.34623 0.49854 0.25356 0.0
C721 C 0.34194 0.51714 0.24632 0.0
C722 C 0.36334 0.49335 0.27535 0.0
C723 C 0.37621 0.5067 0.29141 0.0
C724 C 0.37245 0.5251 0.27891 0.0
H725 H 0.44739 0.50852 0.57513 0.0
H726 H 0.42274 0.50809 0.50671 0.0
C727 C 0.35563 0.53022 0.25629 0.0
C728 C 0.39291 0.50216 0.32508 0.0
H729 H 0.40689 0.48364 0.44987 0.0
C730 C 0.40973 0.50986 0.30887 0.0
C731 C 0.39197 0.49259 0.3769 0.0
C732 C 0.37426 0.48495 0.3995 0.0
C733 C 0.42522 0.50909 0.34377 0.0
C734 C 0.42428 0.49948 0.39551 0.0
C735 C 0.40772 0.49101 0.4104 0.0
C736 C 0.43966 0.49929 0.43702 0.0
C737 C 0.44202 0.51961 0.32611 0.0
C738 C 0.45755 0.49428 0.42156 0.0
C739 C 0.47188 0.49511 0.46059 0.0
C740 C 0.46855 0.50037 0.51651 0.0
C741 C 0.45053 0.50456 0.53247 0.0
C742 C 0.43634 0.50421 0.49321 0.0
H743 H 0.43875 0.53033 0.29454 0.0
H744 H 0.44862 0.52631 0.3626 0.0
H745 H 0.45197 0.51007 0.30664 0.0
H746 H 0.4605 0.48974 0.37929 0.0
H747 H 0.48554 0.49151 0.44702 0.0
H748 H 0.95993 0.35642 0.29388 0.0
H749 H 0.96889 0.38506 0.33724 0.0
H750 H 0.02453 0.36589 0.34823 0.0
H751 H 0.01523 0.33646 0.30716 0.0
H752 H 0.01511 0.37927 0.44431 0.0
H753 H 0.99333 0.43017 0.28827 0.0
H754 H 0.97431 0.41572 0.30438 0.0
H755 H 0.99445 0.40611 0.27181 0.0
C756 C 0.97417 0.35838 0.30456 0.0
C757 C 0.98684 0.34406 0.29738 0.0
C758 C 0.97935 0.37494 0.32891 0.0
C759 C 0.99749 0.37794 0.34556 0.0
C760 C 0.01045 0.36402 0.33565 0.0
H761 H 0.01689 0.48663 0.49521 0.0
H762 H 0.01809 0.46027 0.43189 0.0
C763 C 1.00519 0.34725 0.31161 0.0
C764 C 1.00219 0.39477 0.37835 0.0
H765 H 0.9938 0.44075 0.38529 0.0
C766 C 0.01074 0.39276 0.4308 0.0
C767 C 0.99694 0.41256 0.36081 0.0
C768 C 0.98945 0.41626 0.30292 0.0
C769 C 0.01323 0.40773 0.46715 0.0
C770 C 1.00632 0.42519 0.45186 0.0
C771 C 0.99874 0.42739 0.39807 0.0
C772 C 1.00631 0.44115 0.49134 0.0
C773 C 0.02337 0.40458 0.5214 0.0
C774 C 0.99913 0.43944 0.54594 0.0
C775 C 0.99878 0.45442 0.58257 0.0
C776 C 1.00511 0.47168 0.56508 0.0
C777 C 0.01192 0.47354 0.51008 0.0
C778 C 0.01261 0.45844 0.47378 0.0
H779 H 0.03337 0.39322 0.51713 0.0
H780 H 0.03078 0.41703 0.53507 0.0
H781 H 0.01349 0.40062 0.55466 0.0
H782 H 0.99349 0.42656 0.56016 0.0
H783 H 0.99315 0.45256 0.62428 0.0
H784 H 0.85176 0.03373 0.12563 0.0
H785 H 0.88155 0.02816 0.08145 0.0
H786 H 0.85835 0.98398 0.98566 0.0
H787 H 0.82852 0.98956 0.02997 0.0
H788 H 0.89809 0.97966 0.02585 0.0
H789 H 0.8818 0.04361 0.90906 0.0
H790 H 0.88056 0.04482 0.98441 0.0
H791 H 0.86465 0.03078 0.94683 0.0
C792 C 0.85327 0.02224 0.09728 0.0
C793 C 0.83797 0.01183 0.08195 0.0
C794 C 0.87023 0.0192 0.07159 0.0
C795 C 0.87212 1.00578 0.02985 0.0
C796 C 0.85722 0.99435 0.01793 0.0
H797 H 0.94463 1.0047 0.74266 0.0
H798 H 0.91894 1.00319 0.80812 0.0
C799 C 0.84022 0.99742 0.04359 0.0
C800 C 0.88864 1.00544 0.99332 0.0
H801 H 0.91003 0.02961 0.88931 0.0
C802 C 0.90078 0.99059 0.99615 0.0
C803 C 0.89197 0.0196 0.95401 0.0
C804 C 0.87904 0.03558 0.94779 0.0
C805 C 0.91628 0.98965 0.96098 0.0
C806 C 0.91971 1.00395 0.92215 0.0
C807 C 0.90746 0.0187 0.91922 0.0
C808 C 0.93561 1.00376 0.88295 0.0
C809 C 0.92866 0.97319 0.96468 0.0
C810 C 0.95361 1.00464 0.9031 0.0
C811 C 0.9684 1.00558 0.86565 0.0
C812 C 0.96551 1.00567 0.8072 0.0
C813 C 0.94745 1.00461 0.78728 0.0
C814 C 0.9327 1.00375 0.8247 0.0
H815 H 0.9221 0.96168 0.9876 0.0
H816 H 0.93264 0.96842 0.92212 0.0
H817 H 0.9413 0.977 0.98743 0.0
H818 H 0.9562 1.005 0.94783 0.0
H819 H 0.98209 1.00643 0.88257 0.0
H820 H 0.53439 0.85268 0.10348 0.0
H821 H 0.53666 0.88312 0.05968 0.0
H822 H 0.47969 0.88039 0.01469 0.0
H823 H 0.47739 0.85041 0.05922 0.0
H824 H 0.53226 0.88927 0.95042 0.0
H825 H 0.48253 0.93266 0.06246 0.0
H826 H 0.49034 0.91108 0.09056 0.0
H827 H 0.47202 0.91178 0.04015 0.0
C828 C 0.52221 0.85901 0.08647 0.0
C829 C 0.50565 0.84933 0.08546 0.0
C830 C 0.52354 0.8763 0.06084 0.0
C831 C 0.5083 0.88424 0.03415 0.0
C832 C 0.49154 0.87492 0.03605 0.0
H833 H 0.50455 0.94981 0.73369 0.0
H834 H 0.5063 0.92595 0.80534 0.0
C835 C 0.49023 0.85773 0.06154 0.0
C836 C 0.51022 0.90099 0.99848 0.0
H837 H 0.48973 0.94183 0.96717 0.0
C838 C 0.52315 0.90089 0.95475 0.0
C839 C 0.49852 0.91635 0.00412 0.0
C840 C 0.48522 0.91807 0.05227 0.0
C841 C 0.52411 0.9152 0.91524 0.0
C842 C 0.51151 0.92989 0.91848 0.0
C843 C 0.49919 0.93045 0.96381 0.0
C844 C 0.5106 0.94455 0.8747 0.0
C845 C 0.53868 0.91438 0.87041 0.0
C846 C 0.51185 0.9631 0.88963 0.0
C847 C 0.51063 0.97686 0.84866 0.0
C848 C 0.5081 0.9724 0.79169 0.0
C849 C 0.50672 0.95381 0.77693 0.0
C850 C 0.50784 0.94008 0.81795 0.0
H851 H 0.55054 0.90601 0.8842 0.0
H852 H 0.53295 0.90789 0.83225 0.0
H853 H 0.54362 0.92827 0.8591 0.0
H854 H 0.51385 0.96696 0.93307 0.0
H855 H 0.5117 0.991 0.86173 0.0
H856 H 0.66188 0.47761 0.06762 0.0
H857 H 0.63443 0.48367 0.0126 0.0
H858 H 0.65044 0.54012 0.99443 0.0
H859 H 0.67835 0.53397 0.04861 0.0
H860 H 0.60499 0.50704 0.02128 0.0
H861 H 0.64642 0.52318 0.83167 0.0
H862 H 0.65628 0.51323 0.89397 0.0
H863 H 0.65081 0.53719 0.89204 0.0
C864 C 0.6595 0.49138 0.05238 0.0
C865 C 0.67245 0.50525 0.06189 0.0
C866 C 0.64373 0.49484 0.02104 0.0
C867 C 0.64049 0.51225 0.99821 0.0
C868 C 0.6528 0.52647 0.01057 0.0
H869 H 0.53797 0.53225 0.8089 0.0
H870 H 0.5623 0.53485 0.87919 0.0
C871 C 0.66865 0.523 0.04213 0.0
C872 C 0.6248 0.51494 0.95898 0.0
H873 H 0.61454 0.5235 0.82135 0.0
C874 C 0.60704 0.51085 0.97771 0.0
C875 C 0.62748 0.51967 0.90184 0.0
C876 C 0.64626 0.52343 0.87831 0.0
C877 C 0.59201 0.51099 0.94081 0.0
C878 C 0.59472 0.51559 0.88361 0.0
C879 C 0.61241 0.52008 0.8652 0.0
C880 C 0.57977 0.5144 0.84115 0.0
C881 C 0.5735 0.5054 0.96285 0.0
C882 C 0.58157 0.50235 0.79563 0.0
C883 C 0.56777 0.50092 0.75531 0.0
C884 C 0.55178 0.51157 0.7592 0.0
C885 C 0.55003 0.52377 0.80463 0.0
C886 C 0.56391 0.5252 0.84509 0.0
H887 H 0.57445 0.49857 0.00445 0.0
H888 H 0.56481 0.51775 0.96761 0.0
H889 H 0.56662 0.49599 0.93311 0.0
H890 H 0.59365 0.49388 0.79148 0.0
H891 H 0.5697 0.49138 0.72105 0.0
H892 H 0.01393 0.67333 0.13402 0.0
H893 H 1.00591 0.6435 0.09305 0.0
H894 H 0.99379 0.66993 0.93546 0.0
H895 H 1.00142 0.69957 0.97644 0.0
H896 H 0.97044 0.64097 0.95667 0.0
H897 H 0.04296 0.62038 0.98611 0.0
H898 H 0.03074 0.62623 0.04906 0.0
H899 H 0.03522 0.64352 0.99716 0.0
C900 C 1.00892 0.67279 0.0913 0.0
C901 C 1.00836 0.68875 0.05836 0.0
C902 C 1.00459 0.65572 0.06762 0.0
C903 C 0.99968 0.65437 0.01063 0.0
C904 C 0.99765 0.67052 0.97931 0.0
H905 H 0.02014 0.57481 0.75746 0.0
H906 H 0.01875 0.6001 0.82368 0.0
C907 C 1.00198 0.68749 0.00283 0.0
C908 C 0.99829 0.63632 0.98156 0.0
H909 H 0.02406 0.59991 0.93793 0.0
C910 C 0.98207 0.63185 0.9532 0.0
C911 C 0.01358 0.62452 0.9762 0.0
C912 C 0.03168 0.62889 0.00328 0.0
C913 C 0.98086 0.61621 0.9188 0.0
C914 C 0.99621 0.60455 0.91303 0.0
C915 C 0.01225 0.60877 0.94255 0.0
C916 C 0.99657 0.58886 0.87288 0.0
C917 C 0.96344 0.61279 0.8868 0.0
C918 C 0.98461 0.5739 0.87834 0.0
C919 C 0.98533 0.55928 0.84005 0.0
C920 C 0.99806 0.5593 0.79562 0.0
C921 C 0.01007 0.57426 0.79075 0.0
C922 C 0.00934 0.58879 0.82885 0.0
H923 H 0.95429 0.62493 0.88696 0.0
H924 H 0.96647 0.60904 0.84259 0.0
H925 H 0.95599 0.60122 0.90649 0.0
H926 H 0.97484 0.57343 0.9125 0.0
H927 H 0.97594 0.54797 0.84538 0.0
H928 H 0.87597 0.19303 0.3253 0.0
H929 H 0.86812 0.17137 0.39816 0.0
H930 H 0.89404 0.20573 0.52172 0.0
H931 H 0.90406 0.22626 0.44789 0.0
H932 H 0.90954 0.17625 0.52553 0.0
H933 H 0.83751 0.15692 0.52328 0.0
H934 H 0.84493 0.15597 0.45184 0.0
H935 H 0.84522 0.17756 0.48894 0.0
C936 C 0.8799 0.19614 0.36801 0.0
C937 C 0.89147 0.21099 0.37986 0.0
C938 C 0.8749 0.18389 0.4103 0.0
C939 C 0.8806 0.18669 0.46592 0.0
C940 C 0.88967 0.20306 0.47909 0.0
H941 H 0.91057 0.08963 0.66437 0.0
H942 H 0.89423 0.11867 0.65315 0.0
C943 C 0.89529 0.21496 0.43648 0.0
C944 C 0.88128 0.17089 0.50547 0.0
H945 H 0.85962 0.1306 0.53498 0.0
C946 C 0.8983 0.16669 0.5296 0.0
C947 C 0.86674 0.15824 0.51154 0.0
C948 C 0.84756 0.1626 0.49292 0.0
C949 C 0.90173 0.14958 0.55368 0.0
C950 C 0.88783 0.13621 0.55339 0.0
C951 C 0.87032 0.14085 0.53432 0.0
C952 C 0.89256 0.11682 0.56277 0.0
C953 C 0.92074 0.1453 0.57455 0.0
C954 C 0.89629 0.10589 0.51584 0.0
C955 C 0.90594 0.08955 0.52183 0.0
C956 C 0.91195 0.08377 0.57507 0.0
C957 C 0.90655 0.0939 0.62263 0.0
C958 C 0.897 0.11037 0.61647 0.0
H959 H 0.93014 0.15715 0.57053 0.0
H960 H 0.92014 0.14122 0.61941 0.0
H961 H 0.92657 0.13364 0.5506 0.0
H962 H 0.89311 0.11077 0.47399 0.0
H963 H 0.90993 0.08229 0.48416 0.0
H964 H 0.32559 0.90653 0.32459 0.0
H965 H 0.3481 0.8939 0.38674 0.0
H966 H 0.30622 0.87983 0.5064 0.0
H967 H 0.28283 0.89097 0.44155 0.0
H968 H 0.33462 0.90793 0.53658 0.0
H969 H 0.36471 0.84337 0.45947 0.0
H970 H 0.35883 0.85898 0.40399 0.0
H971 H 0.34108 0.84966 0.44782 0.0
C972 C 0.3207 0.89989 0.36229 0.0
C973 C 0.30207 0.9001 0.37753 0.0
C974 C 0.33381 0.89268 0.39823 0.0
C975 C 0.32883 0.88584 0.45096 0.0
C976 C 0.3103 0.88493 0.46554 0.0
H977 H 0.42374 0.91909 0.64244 0.0
H978 H 0.39583 0.90082 0.63952 0.0
C979 C 0.29698 0.89165 0.42862 0.0
C980 C 0.34338 0.88371 0.49332 0.0
H981 H 0.38584 0.86494 0.50249 0.0
C982 C 0.34565 0.89816 0.5312 0.0
C983 C 0.35755 0.87085 0.48614 0.0
C984 C 0.35538 0.85471 0.44749 0.0
C985 C 0.36273 0.90178 0.55534 0.0
C986 C 0.37768 0.89006 0.54286 0.0
C987 C 0.37452 0.87407 0.51153 0.0
C988 C 0.39686 0.89633 0.54974 0.0
C989 C 0.36497 0.91933 0.58805 0.0
C990 C 0.40775 0.89823 0.50149 0.0
C991 C 0.42406 0.90799 0.50342 0.0
C992 C 0.42968 0.91647 0.55339 0.0
C993 C 0.41975 0.91297 0.60298 0.0
C994 C 0.4036 0.90273 0.60127 0.0
H995 H 0.35246 0.92795 0.58717 0.0
H996 H 0.36797 0.91608 0.63257 0.0
H997 H 0.37645 0.92753 0.57083 0.0
H998 H 0.40307 0.89321 0.46123 0.0
H999 H 0.43173 0.90974 0.46486 0.0
H1000 H 0.60983 0.32568 0.27581 0.0
H1001 H 0.62276 0.34879 0.33531 0.0
H1002 H 0.63907 0.30768 0.45498 0.0
H1003 H 0.62722 0.28375 0.39299 0.0
H1004 H 0.61393 0.33554 0.49422 0.0
H1005 H 0.67341 0.36688 0.38984 0.0
H1006 H 0.65579 0.36154 0.34027 0.0
H1007 H 0.66677 0.34332 0.37851 0.0
C1008 C 0.61696 0.32115 0.31302 0.0
C1009 C 0.61738 0.30258 0.32899 0.0
C1010 C 0.62435 0.33457 0.34741 0.0
C1011 C 0.63209 0.32995 0.39921 0.0
C1012 C 0.63332 0.31148 0.41476 0.0
H1013 H 0.6104 0.42794 0.60089 0.0
H1014 H 0.62676 0.39884 0.58876 0.0
C1015 C 0.62629 0.29786 0.3795 0.0
C1016 C 0.63544 0.34487 0.43969 0.0
H1017 H 0.65245 0.3882 0.43765 0.0
C1018 C 0.6229 0.34686 0.48383 0.0
C1019 C 0.64727 0.35947 0.42626 0.0
C1020 C 0.66171 0.35762 0.38144 0.0
C1021 C 0.61994 0.36397 0.50899 0.0
C1022 C 0.63015 0.37924 0.49006 0.0
C1023 C 0.64447 0.37654 0.45161 0.0
C1024 C 0.62334 0.39812 0.49857 0.0
C1025 C 0.60448 0.36597 0.55059 0.0
C1026 C 0.61674 0.40772 0.45176 0.0
C1027 C 0.60753 0.42424 0.45845 0.0
C1028 C 0.6047 0.43159 0.51222 0.0
C1029 C 0.61216 0.42246 0.55899 0.0
C1030 C 0.62151 0.40588 0.55217 0.0
H1031 H 0.59698 0.35294 0.55728 0.0
H1032 H 0.60998 0.37049 0.59163 0.0
H1033 H 0.59462 0.37648 0.53586 0.0
H1034 H 0.61788 0.40193 0.41002 0.0
H1035 H 0.60177 0.43074 0.42161 0.0
H1036 H 0.19524 0.62259 0.37231 0.0
H1037 H 0.17731 0.63113 0.45387 0.0
H1038 H 0.20971 0.59513 0.55745 0.0
H1039 H 0.22683 0.58545 0.47492 0.0
H1040 H 0.17701 0.58472 0.56014 0.0
H1041 H 0.1732 0.65845 0.59567 0.0
H1042 H 0.17039 0.65503 0.52187 0.0
H1043 H 0.19155 0.6484 0.55522 0.0
C1044 C 0.19883 0.61676 0.41264 0.0
C1045 C 0.21207 0.60289 0.41663 0.0
C1046 C 0.1888 0.622 0.45979 0.0
C1047 C 0.1921 0.6138 0.5122 0.0
C1048 C 0.20689 0.60165 0.51752 0.0
H1049 H 0.09027 0.58777 0.68247 0.0
H1050 H 0.12195 0.59784 0.69008 0.0
C1051 C 0.21672 0.59615 0.47011 0.0
C1052 C 0.17746 0.61416 0.55541 0.0
H1053 H 0.14306 0.64181 0.60182 0.0
C1054 C 0.16998 0.59726 0.57141 0.0
C1055 C 0.16833 0.63046 0.57093 0.0
C1056 C 0.17649 0.64907 0.5604 0.0
C1057 C 0.15249 0.59608 0.59494 0.0
C1058 C 0.14234 0.61234 0.60363 0.0
C1059 C 0.15074 0.62935 0.59431 0.0
C1060 C 0.12224 0.61161 0.60966 0.0
C1061 C 0.14432 0.57732 0.60415 0.0
C1062 C 0.11149 0.61744 0.56431 0.0
C1063 C 0.09328 0.61205 0.56032 0.0
C1064 C 0.08556 0.6006 0.60138 0.0
C1065 C 0.09578 0.59651 0.64987 0.0
C1066 C 0.11396 0.60215 0.65419 0.0
H1067 H 0.15348 0.56615 0.58959 0.0
H1068 H 0.14168 0.57519 0.64957 0.0
H1069 H 0.13113 0.57609 0.58155 0.0
H1070 H 0.11757 0.62489 0.52964 0.0
H1071 H 0.08561 0.6159 0.52329 0.0
H1072 H 0.12472 0.78895 0.95053 0.0
H1073 H 0.13303 0.81014 0.87521 0.0
H1074 H 0.13113 0.85503 0.99203 0.0
H1075 H 0.12156 0.83471 0.06572 0.0
H1076 H 0.10671 0.838 0.85274 0.0
H1077 H 0.17426 0.86888 0.88817 0.0
H1078 H 0.16832 0.84624 0.91309 0.0
H1079 H 0.16197 0.8662 0.95291 0.0
C1080 C 0.12623 0.80329 0.9606 0.0
C1081 C 0.12196 0.80997 0.01466 0.0
C1082 C 0.13132 0.81532 0.91747 0.0
C1083 C 0.13288 0.83411 0.92817 0.0
C1084 C 0.13045 0.84051 0.98305 0.0
H1085 H 0.10687 0.93703 0.89566 0.0
H1086 H 0.1229 0.90802 0.90265 0.0
C1087 C 0.12493 0.82868 0.0256 0.0
C1088 C 0.13268 0.84769 0.8821 0.0
H1089 H 0.15037 0.88976 0.8536 0.0
C1090 C 0.11655 0.84907 0.85079 0.0
C1091 C 0.14562 0.86195 0.87948 0.0
C1092 C 0.16361 0.86066 0.90984 0.0
C1093 C 0.11171 0.86547 0.82402 0.0
C1094 C 0.12375 0.88063 0.82718 0.0
C1095 C 0.14103 0.87827 0.85181 0.0
C1096 C 0.11711 0.89956 0.81738 0.0
C1097 C 0.09288 0.86699 0.79861 0.0
C1098 C 0.10918 0.90494 0.76633 0.0
C1099 C 0.09939 0.92137 0.76281 0.0
C1100 C 0.09774 0.93286 0.81 0.0
C1101 C 0.10729 0.92824 0.85913 0.0
C1102 C 0.11674 0.91173 0.8629 0.0
H1103 H 0.08447 0.85459 0.80634 0.0
H1104 H 0.08549 0.87898 0.81607 0.0
H1105 H 0.0941 0.86883 0.75253 0.0
H1106 H 0.10974 0.89603 0.73011 0.0
H1107 H 0.09231 0.92453 0.72412 0.0
H1108 H 0.70628 0.13537 0.00357 0.0
H1109 H 0.68479 0.14773 0.93421 0.0
H1110 H 0.68961 0.098 0.83788 0.0
H1111 H 0.71177 0.08617 0.90508 0.0
H1112 H 0.68077 0.12694 0.77047 0.0
H1113 H 0.63573 0.12491 0.95977 0.0
H1114 H 0.65436 0.14078 0.96199 0.0
H1115 H 0.65884 0.11656 0.96153 0.0
C1116 C 0.70326 0.12747 0.96628 0.0
C1117 C 0.7104 0.10976 0.95979 0.0
C1118 C 0.69094 0.13446 0.92693 0.0
C1119 C 0.68511 0.1235 0.88203 0.0
C1120 C 0.69381 0.10667 0.87238 0.0
H1121 H 0.60046 0.07904 0.7183 0.0
H1122 H 0.62947 0.0942 0.73446 0.0
C1123 C 0.70646 0.09988 0.91086 0.0
C1124 C 0.66787 0.12751 0.85188 0.0
H1125 H 0.62182 0.12682 0.87328 0.0
C1126 C 0.66786 0.12738 0.79287 0.0
C1127 C 0.65099 0.12811 0.88114 0.0
C1128 C 0.64985 0.12748 0.94451 0.0
C1129 C 0.65144 0.1265 0.76254 0.0
C1130 C 0.6347 0.12566 0.79209 0.0
C1131 C 0.63468 0.12752 0.85067 0.0
C1132 C 0.61752 0.11932 0.76581 0.0
C1133 C 0.65222 0.12566 0.69937 0.0
C1134 C 0.60103 0.12854 0.7765 0.0
C1135 C 0.58433 0.11976 0.76789 0.0
C1136 C 0.58387 0.10161 0.74846 0.0
C1137 C 0.60032 0.09307 0.73284 0.0
C1138 C 0.61699 0.10182 0.74169 0.0
H1139 H 0.66401 0.13362 0.68303 0.0
H1140 H 0.65414 0.11123 0.68614 0.0
H1141 H 0.63948 0.13098 0.68008 0.0
H1142 H 0.60112 0.14201 0.79541 0.0
H1143 H 0.57184 0.12677 0.77944 0.0
H1144 H 0.45882 0.73541 0.77905 0.0
H1145 H 0.4491 0.71716 0.69864 0.0
H1146 H 0.47803 0.67054 0.76573 0.0
H1147 H 0.48921 0.68901 0.84257 0.0
H1148 H 0.48083 0.67123 0.65559 0.0
H1149 H 0.40761 0.68278 0.71042 0.0
H1150 H 0.42115 0.70202 0.68898 0.0
H1151 H 0.42555 0.69105 0.75524 0.0
C1152 C 0.46349 0.72139 0.77598 0.0
C1153 C 0.47453 0.71359 0.81819 0.0
C1154 C 0.45767 0.7109 0.73025 0.0
C1155 C 0.46239 0.69233 0.72675 0.0
C1156 C 0.47408 0.68483 0.76745 0.0
H1157 H 0.42124 0.59889 0.75037 0.0
H1158 H 0.42333 0.63102 0.72745 0.0
C1159 C 0.48022 0.69535 0.81217 0.0
C1160 C 0.45437 0.67986 0.6843 0.0
H1161 H 0.41487 0.65647 0.66126 0.0
C1162 C 0.46635 0.66811 0.65569 0.0
C1163 C 0.43537 0.67635 0.68238 0.0
C1164 C 0.42161 0.68863 0.71088 0.0
C1165 C 0.46041 0.65118 0.63501 0.0
C1166 C 0.44169 0.64641 0.64084 0.0
C1167 C 0.42927 0.65987 0.65881 0.0
C1168 C 0.43583 0.62695 0.64557 0.0
C1169 C 0.47471 0.63795 0.61371 0.0
C1170 C 0.44071 0.61367 0.60574 0.0
C1171 C 0.44048 0.59512 0.62038 0.0
C1172 C 0.43455 0.58956 0.67416 0.0
C1173 C 0.42672 0.60271 0.70976 0.0
C1174 C 0.42765 0.62119 0.69609 0.0
H1175 H 0.48876 0.64362 0.61623 0.0
H1176 H 0.4744 0.62507 0.63845 0.0
H1177 H 0.47203 0.63468 0.56904 0.0
H1178 H 0.44606 0.61762 0.56516 0.0
H1179 H 0.44639 0.58543 0.59119 0.0
H1180 H 0.81657 0.39315 0.02671 0.0
H1181 H 0.84085 0.3847 0.96229 0.0
H1182 H 0.80675 0.39934 0.82178 0.0
H1183 H 0.7832 0.41006 0.88614 0.0
H1184 H 0.85062 0.36518 0.87655 0.0
H1185 H 0.84421 0.43758 0.80444 0.0
H1186 H 0.83057 0.4287 0.86097 0.0
H1187 H 0.82504 0.42326 0.7892 0.0
C1188 C 0.81416 0.39465 0.98211 0.0
C1189 C 0.7983 0.40334 0.96201 0.0
C1190 C 0.82801 0.38947 0.9451 0.0
C1191 C 0.82602 0.3923 0.88715 0.0
C1192 C 0.80896 0.39792 0.86649 0.0
H1193 H 0.92471 0.41947 0.69939 0.0
H1194 H 0.89577 0.40306 0.70874 0.0
C1195 C 0.79532 0.40378 0.9036 0.0
C1196 C 0.84262 0.39236 0.85108 0.0
H1197 H 0.87031 0.4219 0.77954 0.0
C1198 C 0.85476 0.37745 0.85428 0.0
C1199 C 0.84812 0.4084 0.82185 0.0
C1200 C 0.83641 0.42544 0.81912 0.0
C1201 C 0.87265 0.37871 0.83309 0.0
C1202 C 0.87836 0.39512 0.8073 0.0
C1203 C 0.86576 0.40929 0.7992 0.0
C1204 C 0.89784 0.39963 0.79864 0.0
C1205 C 0.88561 0.3629 0.84111 0.0
C1206 C 0.90882 0.40262 0.84589 0.0
C1207 C 0.92507 0.41246 0.84104 0.0
C1208 C 0.9307 0.41942 0.78868 0.0
C1209 C 0.92056 0.41475 0.74058 0.0
C1210 C 0.90414 0.40513 0.74564 0.0
H1211 H 0.87814 0.34976 0.84553 0.0
H1212 H 0.89533 0.36186 0.80537 0.0
H1213 H 0.89362 0.36511 0.88001 0.0
H1214 H 0.90401 0.39884 0.88737 0.0
H1215 H 0.93233 0.41588 0.87915 0.0
H1216 H 0.9722 0.1993 0.96016 0.0
H1217 H 0.97943 0.17227 0.904 0.0
H1218 H 0.03358 0.17094 0.97468 0.0
H1219 H 0.02626 0.19805 0.0318 0.0
H1220 H 1.00665 0.16376 0.82452 0.0
H1221 H 0.01266 0.12034 0.01562 0.0
H1222 H 1.00299 0.14305 0.01754 0.0
H1223 H 0.02729 0.14005 0.01271 0.0
C1224 C 0.98577 0.19343 0.96308 0.0
C1225 C 0.99863 0.20076 0.00067 0.0
C1226 C 0.98988 0.17795 0.93095 0.0
C1227 C 1.00692 0.16929 0.93582 0.0
C1228 C 0.02021 0.17717 0.97092 0.0
H1229 H 0.03774 0.06079 0.80485 0.0
H1230 H 0.03855 0.09094 0.84961 0.0
C1231 C 0.01611 0.1928 0.00302 0.0
C1232 C 0.01017 0.15158 0.90608 0.0
H1233 H 0.01606 0.10568 0.9285 0.0
C1234 C 1.00885 0.15108 0.84726 0.0
C1235 C 0.01303 0.13497 0.9356 0.0
C1236 C 0.01395 0.13447 -0.00114 0.0
C1237 C 0.01018 0.13452 0.81731 0.0
C1238 C 0.01245 0.11784 0.84694 0.0
C1239 C 0.01428 0.1184 0.90566 0.0
C1240 C 0.01222 0.09964 0.8182 0.0
C1241 C 1.00923 0.13511 0.75407 0.0
C1242 C 0.99708 0.09428 0.78603 0.0
C1243 C 0.99659 0.07706 0.76025 0.0
C1244 C 0.01117 0.06463 0.76635 0.0
C1245 C 0.02628 0.06997 0.79896 0.0
C1246 C 0.02676 0.08724 0.82469 0.0
H1247 H 0.01338 0.14871 0.73752 0.0
H1248 H 0.01811 0.12448 0.7349 0.0
H1249 H 0.99495 0.1326 0.74065 0.0
H1250 H 0.98545 0.10332 0.78149 0.0
H1251 H 0.98464 0.07345 0.73595 0.0
H1252 H 0.32323 0.02254 0.03567 0.0
H1253 H 0.34893 0.03271 0.97669 0.0
H1254 H 0.34164 0.98561 0.8703 0.0
H1255 H 0.31595 0.9757 0.92817 0.0
H1256 H 0.38042 0.0133 0.96399 0.0
H1257 H 0.35048 0.02469 0.75424 0.0
H1258 H 0.33665 0.0232 0.81693 0.0
H1259 H 0.3443 1.00274 0.78195 0.0
C1260 C 0.32671 0.01478 0.99843 0.0
C1261 C 0.31753 0.99837 0.98639 0.0
C1262 C 0.3415 0.02049 0.96505 0.0
C1263 C 0.34721 1.01003 0.91861 0.0
C1264 C 0.33736 0.99417 0.90499 0.0
H1265 H 0.4405 0.9912 0.70947 0.0
H1266 H 0.4112 0.99208 0.75859 0.0
C1267 C 0.32268 0.98846 0.93831 0.0
C1268 C 0.36454 0.01433 0.88809 0.0
H1269 H 0.3829 0.01866 0.75654 0.0
C1270 C 0.38092 0.01484 0.91872 0.0
C1271 C 0.36528 0.01626 0.82894 0.0
C1272 C 0.3482 0.01688 0.79369 0.0
C1273 C 0.398 0.01628 0.89175 0.0
C1274 C 0.39876 0.01751 0.83245 0.0
C1275 C 0.38236 0.01762 0.80194 0.0
C1276 C 0.41646 0.01762 0.80122 0.0
C1277 C 0.41513 0.01558 0.92678 0.0
C1278 C 0.42915 0.03186 0.80803 0.0
C1279 C 0.44601 0.03142 0.77986 0.0
C1280 C 0.45053 0.01674 0.74417 0.0
C1281 C 0.4376 1.00271 0.73668 0.0
C1282 C 0.42077 1.00319 0.76469 0.0
H1283 H 0.41235 0.01086 0.97033 0.0
H1284 H 0.42541 1.00631 0.90751 0.0
H1285 H 0.42118 0.02947 0.92903 0.0
H1286 H 0.42604 0.0433 0.83525 0.0
H1287 H 0.45556 0.0425 0.78655 0.0
H1288 H 0.54281 0.31258 0.87476 0.0
H1289 H 0.53468 0.33944 0.81847 0.0
H1290 H 0.49141 0.35223 0.93503 0.0
H1291 H 0.49958 0.32528 0.99167 0.0
H1292 H 0.50118 0.35376 0.76725 0.0
H1293 H 0.52746 0.39648 0.94245 0.0
H1294 H 0.53195 0.37225 0.93782 0.0
H1295 H 0.50992 0.38026 0.96018 0.0
C1296 C 0.53118 0.32079 0.88737 0.0
C1297 C 0.5218 0.31682 0.93757 0.0
C1298 C 0.52659 0.33619 0.85529 0.0
C1299 C 0.51265 0.34805 0.873 0.0
C1300 C 0.50237 0.34339 0.92089 0.0
H1301 H 0.49005 0.46089 0.77425 0.0
H1302 H 0.48964 0.43066 0.81796 0.0
C1303 C 0.50688 0.32787 0.95288 0.0
C1304 C 0.5102 0.36605 0.84435 0.0
H1305 H 0.51686 0.41194 0.86247 0.0
C1306 C 0.50449 0.36651 0.78809 0.0
C1307 C 0.51463 0.38268 0.87143 0.0
C1308 C 0.52147 0.38303 0.93115 0.0
C1309 C 0.50292 0.38316 0.75845 0.0
C1310 C 0.50766 0.39979 0.78527 0.0
C1311 C 0.51321 0.39927 0.84172 0.0
C1312 C 0.50712 0.41792 0.75595 0.0
C1313 C 0.49586 0.38274 0.69902 0.0
C1314 C 0.51712 0.42101 0.70629 0.0
C1315 C 0.51726 0.43834 0.68077 0.0
C1316 C 0.50764 0.45308 0.70482 0.0
C1317 C 0.49765 0.44992 0.75448 0.0
C1318 C 0.49739 0.43259 0.77962 0.0
H1319 H 0.48763 0.37026 0.69103 0.0
H1320 H 0.48733 0.39494 0.68972 0.0
H1321 H 0.50761 0.38261 0.66951 0.0
H1322 H 0.52518 0.41013 0.68787 0.0
H1323 H 0.52526 0.44028 0.64294 0.0
H1324 H 0.18347 0.55017 0.97895 0.0
H1325 H 0.15644 0.54546 0.92178 0.0
H1326 H 0.16951 0.48811 0.90768 0.0
H1327 H 0.19617 0.49256 0.96861 0.0
H1328 H 0.14939 0.5352 0.82104 0.0
H1329 H 0.11854 0.48386 0.96432 0.0
H1330 H 0.13885 0.49643 0.98241 0.0
H1331 H 0.14023 0.47701 0.93617 0.0
C1332 C 0.18059 0.53647 0.9642 0.0
C1333 C 0.19183 0.52166 0.97989 0.0
C1334 C 0.16512 0.53382 0.93089 0.0
C1335 C 0.16047 0.51632 0.91143 0.0
C1336 C 0.17236 0.50166 0.92362 0.0
H1337 H 0.06906 0.50895 0.66979 0.0
H1338 H 0.09952 0.50858 0.71184 0.0
C1339 C 0.18781 0.50427 0.95778 0.0
C1340 C 0.14295 0.51374 0.87983 0.0
H1341 H 0.10224 0.49074 0.88177 0.0
C1342 C 0.13912 0.52541 0.83429 0.0
C1343 C 0.12931 0.50118 0.89734 0.0
C1344 C 0.13181 0.48903 0.94803 0.0
C1345 C 0.1221 0.52518 0.80675 0.0
C1346 C 0.10859 0.51238 0.82359 0.0
C1347 C 0.11254 0.50048 0.86842 0.0
C1348 C 0.08998 0.51171 0.79743 0.0
C1349 C 0.11856 0.53928 0.76167 0.0
C1350 C 0.07424 0.51272 0.83131 0.0
C1351 C 0.05676 0.51246 0.8074 0.0
C1352 C 0.05452 0.51135 0.74885 0.0
C1353 C 0.07025 0.51003 0.71498 0.0
C1354 C 0.08774 0.50998 0.73902 0.0
H1355 H 0.12786 0.55122 0.76561 0.0
H1356 H 0.12101 0.53305 0.71988 0.0
H1357 H 0.10426 0.54432 0.76328 0.0
H1358 H 0.07547 0.514 0.87645 0.0
H1359 H 0.04499 0.51354 0.83483 0.0
H1360 H 0.0488 0.82509 0.42527 0.0
H1361 H 0.04259 0.85207 0.48111 0.0
H1362 H 0.98532 0.84811 0.4409 0.0
H1363 H 0.99177 0.82185 0.38015 0.0
H1364 H 0.99421 0.88126 0.43056 0.0
H1365 H 0.02396 0.86037 0.63223 0.0
H1366 H 0.04117 0.85837 0.5792 0.0
H1367 H 0.02092 0.84432 0.57568 0.0
C1368 C 0.03483 0.82989 0.42795 0.0
C1369 C 0.02086 0.82132 0.39703 0.0
C1370 C 0.03123 0.84524 0.46116 0.0
C1371 C 0.0134 0.85216 0.46654 0.0
C1372 C 0.99922 0.84312 0.43785 0.0
H1373 H 1.00001 0.94526 0.69929 0.0
H1374 H 0.99908 0.91467 0.65724 0.0
C1375 C 1.00289 0.82791 0.40349 0.0
C1376 C 0.01001 0.86962 0.49802 0.0
H1377 H 0.02228 0.89317 0.6161 0.0
C1378 C 1.00011 0.8837 0.47159 0.0
C1379 C 0.01724 0.87294 0.55231 0.0
C1380 C 0.02621 0.85808 0.58662 0.0
C1381 C 0.99798 0.90105 0.49643 0.0
C1382 C 1.00674 0.9049 0.5482 0.0
C1383 C 0.01589 0.89056 0.57587 0.0
C1384 C 1.00688 0.92365 0.57381 0.0
C1385 C 0.98607 0.9149 0.46695 0.0
C1386 C 0.01182 0.93905 0.54167 0.0
C1387 C 0.01188 0.95658 0.56535 0.0
C1388 C 1.00763 0.95916 0.62238 0.0
C1389 C 1.00331 0.94375 0.6552 0.0
C1390 C 1.0028 0.92623 0.63109 0.0
H1391 H 0.97527 0.90806 0.44192 0.0
H1392 H 0.97938 0.92435 0.49713 0.0
H1393 H 0.99454 0.92301 0.43736 0.0
H1394 H 0.01584 0.93755 0.49817 0.0
H1395 H 0.01561 0.96812 0.53913 0.0
H1396 H 0.70638 0.01714 0.43734 0.0
H1397 H 0.67965 0.01291 0.49918 0.0
H1398 H 0.64561 1.0044 0.35411 0.0
H1399 H 0.67208 1.00867 0.29273 0.0
H1400 H 0.64702 0.03536 0.49396 0.0
H1401 H 0.63104 0.96212 0.4606 0.0
H1402 H 0.6532 0.97178 0.44513 0.0
H1403 H 0.63461 0.97473 0.39676 0.0
C1404 C 0.69326 0.01391 0.41895 0.0
C1405 C 0.69131 0.01313 0.36029 0.0
C1406 C 0.67799 0.01163 0.45419 0.0
C1407 C 0.66062 1.00818 0.43135 0.0
C1408 C 0.65887 1.00676 0.37286 0.0
H1409 H 0.54701 1.00195 0.51641 0.0
H1410 H 0.5776 1.00124 0.47559 0.0
C1411 C 0.674 1.00924 0.33779 0.0
C1412 C 0.64398 1.00741 0.46755 0.0
H1413 H 0.60723 0.98052 0.49976 0.0
C1414 C 0.63844 0.02329 0.49608 0.0
C1415 C 0.63273 0.9917 0.46998 0.0
C1416 C 0.63824 0.97405 0.44192 0.0
C1417 C 0.62158 0.02416 0.52463 0.0
C1418 C 0.61008 1.00857 0.52586 0.0
C1419 C 0.61594 0.99251 0.49881 0.0
C1420 C 0.5915 1.00889 0.55209 0.0
C1421 C 0.61586 0.04208 0.55076 0.0
C1422 C 0.58898 0.01323 0.6091 0.0
C1423 C 0.57139 0.01377 0.63266 0.0
C1424 C 0.55591 1.00977 0.59989 0.0
C1425 C 0.55854 1.00512 0.54309 0.0
C1426 C 0.57608 1.00468 0.51959 0.0
H1427 H 0.62395 0.05375 0.53414 0.0
H1428 H 0.60116 0.04486 0.54315 0.0
H1429 H 0.61806 0.0414 0.59678 0.0
H1430 H 0.60063 0.01614 0.63553 0.0
H1431 H 0.56994 0.01733 0.67657 0.0
H1432 H 0.53081 0.67946 0.28134 0.0
H1433 H 0.53154 0.65515 0.35217 0.0
H1434 H 0.48341 0.6778 0.43029 0.0
H1435 H 0.48266 0.70223 0.35887 0.0
H1436 H 0.53233 0.65405 0.47227 0.0
H1437 H 0.46781 0.62543 0.38616 0.0
H1438 H 0.48078 0.64271 0.34945 0.0
H1439 H 0.46712 0.64883 0.40924 0.0
C1440 C 0.52071 0.67956 0.31465 0.0
C1441 C 0.50678 0.69282 0.31491 0.0
C1442 C 0.52107 0.6656 0.35496 0.0
C1443 C 0.50736 0.66439 0.39611 0.0
C1444 C 0.49399 0.67826 0.39851 0.0
H1445 H 0.48401 0.56749 0.60531 0.0
H1446 H 0.48291 0.59814 0.56414 0.0
C1447 C 0.49371 0.69236 0.3582 0.0
C1448 C 0.50656 0.64792 0.43342 0.0
H1449 H 0.48226 0.60869 0.45741 0.0
C1450 C 0.5213 0.64421 0.46936 0.0
C1451 C 0.49214 0.63506 0.43005 0.0
C1452 C 0.47609 0.63804 0.39145 0.0
C1453 C 0.52216 0.62794 0.50117 0.0
C1454 C 0.50816 0.61467 0.49574 0.0
C1455 C 0.49309 0.61871 0.46139 0.0
C1456 C 0.50925 0.59622 0.52314 0.0
C1457 C 0.53803 0.62525 0.54059 0.0
C1458 C 0.52432 0.58466 0.51362 0.0
C1459 C 0.52505 0.56708 0.53733 0.0
C1460 C 0.51059 0.56047 0.57069 0.0
C1461 C 0.49545 0.57205 0.58 0.0
C1462 C 0.49478 0.58965 0.55643 0.0
H1463 H 0.54378 0.63857 0.55433 0.0
H1464 H 0.53395 0.61733 0.57838 0.0
H1465 H 0.54903 0.61766 0.51851 0.0
H1466 H 0.53544 0.58908 0.48682 0.0
H1467 H 0.53684 0.55857 0.52875 0.0
H1468 H 0.83026 0.52809 0.29661 0.0
H1469 H 0.85553 0.53426 0.36175 0.0
H1470 H 0.83422 0.49371 0.47588 0.0
H1471 H 0.80907 0.48752 0.41071 0.0
H1472 H 0.85904 0.54288 0.48372 0.0
H1473 H 0.8853 0.47417 0.4245 0.0
H1474 H 0.86777 0.48579 0.38488 0.0
H1475 H 0.8622 0.47477 0.45013 0.0
C1476 C 0.83055 0.52113 0.33678 0.0
C1477 C 0.81752 0.5076 0.34921 0.0
C1478 C 0.84508 0.52451 0.37373 0.0
C1479 C 0.84694 0.51425 0.42336 0.0
C1480 C 0.83317 0.50169 0.43766 0.0
H1481 H 0.93855 0.49448 0.64961 0.0
H1482 H 0.90899 0.49458 0.60202 0.0
C1483 C 0.81866 0.49833 0.4008 0.0
C1484 C 0.86409 0.51525 0.45698 0.0
H1485 H 0.90188 0.49032 0.49292 0.0
C1486 C 0.86842 0.53141 0.48582 0.0
C1487 C 0.87637 0.50029 0.45962 0.0
C1488 C 0.87284 0.4828 0.42784 0.0
C1489 C 0.88451 0.53287 0.51804 0.0
C1490 C 0.89687 0.51792 0.5204 0.0
C1491 C 0.89246 0.50178 0.49147 0.0
C1492 C 0.91454 0.51866 0.55184 0.0
C1493 C 0.88787 0.55029 0.55026 0.0
C1494 C 0.92769 0.5321 0.53963 0.0
C1495 C 0.94462 0.53214 0.56712 0.0
C1496 C 0.94896 0.51859 0.60707 0.0
C1497 C 0.93576 0.50516 0.61927 0.0
C1498 C 0.9188 0.50519 0.59198 0.0
H1499 H 0.87495 0.55786 0.55819 0.0
H1500 H 0.89456 0.54745 0.59114 0.0
H1501 H 0.89696 0.55932 0.52527 0.0
H1502 H 0.92505 0.54236 0.50783 0.0
H1503 H 0.95445 0.54262 0.55613 0.0
loop_
_geom_bond_atom_site_label_1
_geom_bond_atom_site_label_2
_geom_bond_distance
_geom_bond_site_symmetry_2
_ccdc_geom_bond_type
C0 C1 1.391 . S
C0 C4 1.391 . S
C0 H42 0.948 . S
C1 C0 1.391 . S
C1 C2 1.391 . S
C2 C1 1.391 . S
C2 H58 0.947 . S
C2 C59 1.392 . S
C3 C4 1.391 . S
C3 C7 1.397 . S
C3 C59 1.419 . S
C4 C0 1.391 . S
C4 C3 1.391 . S
C4 C5 1.399 . S
C5 C4 1.399 . S
C5 C8 1.396 . S
C5 C17 1.453 . S
C5 C18 1.684 . S
H6 C30 0.948 . S
C7 C3 1.397 . S
C7 C8 1.394 . S
C7 C26 1.723 . S
C8 C5 1.396 . S
C8 C7 1.394 . S
C8 C38 1.723 . S
H9 C32 0.947 . S
H10 C33 0.948 . S
H11 C39 0.982 . S
H12 C40 0.979 . S
H13 C40 0.980 . S
H14 C40 0.983 . S
H15 C39 0.979 . S
H16 C39 0.977 . S
C17 C5 1.453 . S
C17 H46 0.982 . S
C17 H47 0.979 . S
C17 H48 0.977 . S
C18 C5 1.684 . S
C18 H43 0.979 . S
C18 H44 0.980 . S
C18 H45 0.983 . S
C19 C20 1.391 . S
C19 C24 1.391 . S
C19 H49 0.948 . S
C20 C19 1.391 . S
C20 C21 1.391 . S
C21 C20 1.391 . S
C21 C22 1.392 . S
C21 H50 0.947 . S
C22 C21 1.392 . S
C22 C23 1.419 . S
C22 H51 0.948 . S
C23 C22 1.419 . S
C23 C24 1.391 . S
C23 C27 1.397 . S
C24 C19 1.391 . S
C24 C23 1.391 . S
C24 C25 1.399 . S
C25 C24 1.399 . S
C25 C26 1.396 . S
C25 C28 1.453 . S
C25 C29 1.684 . S
C26 C7 1.723 . S
C26 C25 1.396 . S
C26 C27 1.394 . S
C27 C23 1.397 . S
C27 C26 1.394 . S
C27 C37 1.723 . S
C28 C25 1.453 . S
C28 H52 0.982 . S
C28 H53 0.979 . S
C28 H54 0.977 . S
C29 C25 1.684 . S
C29 H55 0.979 . S
C29 H56 0.980 . S
C29 H57 0.983 . S
C30 H6 0.948 . S
C30 C31 1.391 . S
C30 C35 1.391 . S
C31 C30 1.391 . S
C31 C32 1.391 . S
C32 H9 0.947 . S
C32 C31 1.391 . S
C32 C33 1.392 . S
C33 H10 0.948 . S
C33 C32 1.392 . S
C33 C34 1.419 . S
C34 C33 1.419 . S
C34 C35 1.391 . S
C34 C38 1.397 . S
C35 C30 1.391 . S
C35 C34 1.391 . S
C35 C36 1.399 . S
C36 C35 1.399 . S
C36 C37 1.396 . S
C36 C39 1.453 . S
C36 C40 1.684 . S
C37 C27 1.723 . S
C37 C36 1.396 . S
C37 C38 1.394 . S
C38 C8 1.723 . S
C38 C34 1.397 . S
C38 C37 1.394 . S
C39 H11 0.982 . S
C39 H15 0.979 . S
C39 H16 0.977 . S
C39 C36 1.453 . S
C40 H12 0.979 . S
C40 H13 0.980 . S
C40 H14 0.983 . S
C40 C36 1.684 . S
H41 C59 0.948 . S
H42 C0 0.948 . S
H43 C18 0.979 . S
H44 C18 0.980 . S
H45 C18 0.983 . S
H46 C17 0.982 . S
H47 C17 0.979 . S
H48 C17 0.977 . S
H49 C19 0.948 . S
H50 C21 0.947 . S
H51 C22 0.948 . S
H52 C28 0.982 . S
H53 C28 0.979 . S
H54 C28 0.977 . S
H55 C29 0.979 . S
H56 C29 0.980 . S
H57 C29 0.983 . S
H58 C2 0.947 . S
C59 C2 1.392 . S
C59 C3 1.419 . S
C59 H41 0.948 . S
C60 C61 1.391 . S
C60 C64 1.391 . S
C60 H102 0.948 . S
C61 C60 1.391 . S
C61 C62 1.391 . S
C62 C61 1.391 . S
C62 H118 0.947 . S
C62 C119 1.392 . S
C63 C64 1.400 . S
C63 C67 1.395 1_655 S
C63 C119 1.426 . S
C64 C60 1.391 . S
C64 C63 1.400 . S
C64 C65 1.399 . S
C65 C64 1.399 . S
C65 C68 1.388 1_655 S
C65 C77 1.453 1_655 S
C65 C78 1.684 . S
H66 C90 0.948 . S
C67 C63 1.395 1_455 S
C67 C68 1.393 . S
C67 C86 1.722 . S
C68 C65 1.388 1_455 S
C68 C67 1.393 . S
C68 C98 1.722 . S
H69 C92 0.947 . S
H70 C93 0.948 . S
H71 C99 0.982 . S
H72 C100 0.979 . S
H73 C100 0.980 . S
H74 C100 0.983 . S
H75 C99 0.979 . S
H76 C99 0.977 . S
C77 C65 1.453 1_455 S
C77 H106 0.982 . S
C77 H107 0.979 . S
C77 H108 0.977 . S
C78 C65 1.684 . S
C78 H103 0.979 . S
C78 H104 0.980 . S
C78 H105 0.983 . S
C79 C80 1.391 . S
C79 C84 1.391 . S
C79 H109 0.948 . S
C80 C79 1.391 . S
C80 C81 1.391 . S
C81 C80 1.391 . S
C81 C82 1.392 . S
C81 H110 0.947 . S
C82 C81 1.392 . S
C82 C83 1.425 . S
C82 H111 0.948 . S
C83 C82 1.425 . S
C83 C84 1.400 . S
C83 C87 1.395 1_655 S
C84 C79 1.391 . S
C84 C83 1.400 . S
C84 C85 1.399 . S
C85 C84 1.399 . S
C85 C86 1.388 1_655 S
C85 C88 1.453 1_655 S
C85 C89 1.684 . S
C86 C67 1.722 . S
C86 C85 1.388 1_455 S
C86 C87 1.393 . S
C87 C83 1.395 1_455 S
C87 C86 1.393 . S
C87 C97 1.722 . S
C88 C85 1.453 1_455 S
C88 H112 0.982 . S
C88 H113 0.979 . S
C88 H114 0.977 . S
C89 C85 1.684 . S
C89 H115 0.979 . S
C89 H116 0.980 . S
C89 H117 0.983 . S
C90 H66 0.948 . S
C90 C91 1.391 . S
C90 C95 1.391 . S
C91 C90 1.391 . S
C91 C92 1.391 . S
C92 H69 0.947 . S
C92 C91 1.391 . S
C92 C93 1.392 . S
C93 H70 0.948 . S
C93 C92 1.392 . S
C93 C94 1.426 . S
C94 C93 1.426 . S
C94 C95 1.400 . S
C94 C98 1.395 1_655 S
C95 C90 1.391 . S
C95 C94 1.400 . S
C95 C96 1.399 . S
C96 C95 1.399 . S
C96 C97 1.388 1_655 S
C96 C99 1.453 1_655 S
C96 C100 1.684 . S
C97 C87 1.722 . S
C97 C96 1.388 1_455 S
C97 C98 1.393 . S
C98 C68 1.722 . S
C98 C94 1.395 1_455 S
C98 C97 1.393 . S
C99 H71 0.982 . S
C99 H75 0.979 . S
C99 H76 0.977 . S
C99 C96 1.453 1_455 S
C100 H72 0.979 . S
C100 H73 0.980 . S
C100 H74 0.983 . S
C100 C96 1.684 . S
H101 C119 0.948 . S
H102 C60 0.948 . S
H103 C78 0.979 . S
H104 C78 0.980 . S
H105 C78 0.983 . S
H106 C77 0.982 . S
H107 C77 0.979 . S
H108 C77 0.977 . S
H109 C79 0.948 . S
H110 C81 0.947 . S
H111 C82 0.948 . S
H112 C88 0.982 . S
H113 C88 0.979 . S
H114 C88 0.977 . S
H115 C89 0.979 . S
H116 C89 0.980 . S
H117 C89 0.983 . S
H118 C62 0.947 . S
C119 C62 1.392 . S
C119 C63 1.426 . S
C119 H101 0.948 . S
C120 C121 1.391 . S
C120 C124 1.391 . S
C120 H162 0.948 . S
C121 C120 1.391 . S
C121 C122 1.391 . S
C122 C121 1.391 . S
C122 H178 0.947 . S
C122 C179 1.392 . S
C123 C124 1.400 . S
C123 C127 1.395 1_565 S
C123 C179 1.426 . S
C124 C120 1.391 . S
C124 C123 1.400 . S
C124 C125 1.399 . S
C125 C124 1.399 . S
C125 C128 1.388 1_565 S
C125 C137 1.453 1_565 S
C125 C138 1.684 . S
H126 C150 0.948 . S
C127 C123 1.395 1_545 S
C127 C128 1.393 . S
C127 C146 1.722 . S
C128 C125 1.388 1_545 S
C128 C127 1.393 . S
C128 C158 1.722 . S
H129 C152 0.947 . S
H130 C153 0.948 . S
H131 C159 0.982 . S
H132 C160 0.979 . S
H133 C160 0.980 . S
H134 C160 0.983 . S
H135 C159 0.979 . S
H136 C159 0.977 . S
C137 C125 1.453 1_545 S
C137 H166 0.982 . S
C137 H167 0.979 . S
C137 H168 0.977 . S
C138 C125 1.684 . S
C138 H163 0.979 . S
C138 H164 0.980 . S
C138 H165 0.983 . S
C139 C140 1.391 . S
C139 C144 1.391 . S
C139 H169 0.948 . S
C140 C139 1.391 . S
C140 C141 1.391 . S
C141 C140 1.391 . S
C141 C142 1.392 . S
C141 H170 0.947 . S
C142 C141 1.392 . S
C142 C143 1.426 . S
C142 H171 0.948 . S
C143 C142 1.426 . S
C143 C144 1.400 . S
C143 C147 1.395 1_565 S
C144 C139 1.391 . S
C144 C143 1.400 . S
C144 C145 1.399 . S
C145 C144 1.399 . S
C145 C146 1.388 1_565 S
C145 C148 1.453 1_565 S
C145 C149 1.684 . S
C146 C127 1.722 . S
C146 C145 1.388 1_545 S
C146 C147 1.393 . S
C147 C143 1.395 1_545 S
C147 C146 1.393 . S
C147 C157 1.722 . S
C148 C145 1.453 1_545 S
C148 H172 0.982 . S
C148 H173 0.979 . S
C148 H174 0.977 . S
C149 C145 1.684 . S
C149 H175 0.979 . S
C149 H176 0.980 . S
C149 H177 0.983 . S
C150 H126 0.948 . S
C150 C151 1.391 . S
C150 C155 1.391 . S
C151 C150 1.391 . S
C151 C152 1.391 . S
C152 H129 0.947 . S
C152 C151 1.391 . S
C152 C153 1.392 . S
C153 H130 0.948 . S
C153 C152 1.392 . S
C153 C154 1.425 . S
C154 C153 1.425 . S
C154 C155 1.400 . S
C154 C158 1.395 1_565 S
C155 C150 1.391 . S
C155 C154 1.400 . S
C155 C156 1.399 . S
C156 C155 1.399 . S
C156 C157 1.388 1_565 S
C156 C159 1.453 1_565 S
C156 C160 1.684 . S
C157 C147 1.722 . S
C157 C156 1.388 1_545 S
C157 C158 1.393 . S
C158 C128 1.722 . S
C158 C154 1.395 1_545 S
C158 C157 1.393 . S
C159 H131 0.982 . S
C159 H135 0.979 . S
C159 H136 0.977 . S
C159 C156 1.453 1_545 S
C160 H132 0.979 . S
C160 H133 0.980 . S
C160 H134 0.983 . S
C160 C156 1.684 . S
H161 C179 0.948 . S
H162 C120 0.948 . S
H163 C138 0.979 . S
H164 C138 0.980 . S
H165 C138 0.983 . S
H166 C137 0.982 . S
H167 C137 0.979 . S
H168 C137 0.977 . S
H169 C139 0.948 . S
H170 C141 0.947 . S
H171 C142 0.948 . S
H172 C148 0.982 . S
H173 C148 0.979 . S
H174 C148 0.977 . S
H175 C149 0.979 . S
H176 C149 0.980 . S
H177 C149 0.983 . S
H178 C122 0.947 . S
C179 C122 1.392 . S
C179 C123 1.426 . S
C179 H161 0.948 . S
C180 C181 1.391 . S
C180 C184 1.391 . S
C180 H222 0.948 . S
C181 C180 1.391 . S
C181 C182 1.391 . S
C182 C181 1.391 . S
C182 H238 0.947 . S
C182 C239 1.392 . S
C183 C184 1.391 . S
C183 C187 1.397 . S
C183 C239 1.419 . S
C184 C180 1.391 . S
C184 C183 1.391 . S
C184 C185 1.399 . S
C185 C184 1.399 . S
C185 C188 1.396 . S
C185 C197 1.453 . S
C185 C198 1.684 . S
H186 C210 0.948 . S
C187 C183 1.397 . S
C187 C188 1.394 . S
C187 C206 1.723 . S
C188 C185 1.396 . S
C188 C187 1.394 . S
C188 C218 1.723 . S
H189 C212 0.947 . S
H190 C213 0.948 . S
H191 C219 0.982 . S
H192 C220 0.979 . S
H193 C220 0.980 . S
H194 C220 0.983 . S
H195 C219 0.979 . S
H196 C219 0.977 . S
C197 C185 1.453 . S
C197 H226 0.982 . S
C197 H227 0.979 . S
C197 H228 0.977 . S
C198 C185 1.684 . S
C198 H223 0.979 . S
C198 H224 0.980 . S
C198 H225 0.983 . S
C199 C200 1.391 . S
C199 C204 1.391 . S
C199 H229 0.948 . S
C200 C199 1.391 . S
C200 C201 1.391 . S
C201 C200 1.391 . S
C201 C202 1.392 . S
C201 H230 0.947 . S
C202 C201 1.392 . S
C202 C203 1.419 . S
C202 H231 0.948 . S
C203 C202 1.419 . S
C203 C204 1.391 . S
C203 C207 1.397 . S
C204 C199 1.391 . S
C204 C203 1.391 . S
C204 C205 1.399 . S
C205 C204 1.399 . S
C205 C206 1.396 . S
C205 C208 1.453 . S
C205 C209 1.684 . S
C206 C187 1.723 . S
C206 C205 1.396 . S
C206 C207 1.394 . S
C207 C203 1.397 . S
C207 C206 1.394 . S
C207 C217 1.723 . S
C208 C205 1.453 . S
C208 H232 0.982 . S
C208 H233 0.979 . S
C208 H234 0.977 . S
C209 C205 1.684 . S
C209 H235 0.979 . S
C209 H236 0.980 . S
C209 H237 0.983 . S
C210 H186 0.948 . S
C210 C211 1.391 . S
C210 C215 1.391 . S
C211 C210 1.391 . S
C211 C212 1.391 . S
C212 H189 0.947 . S
C212 C211 1.391 . S
C212 C213 1.392 . S
C213 H190 0.948 . S
C213 C212 1.392 . S
C213 C214 1.419 . S
C214 C213 1.419 . S
C214 C215 1.391 . S
C214 C218 1.397 . S
C215 C210 1.391 . S
C215 C214 1.391 . S
C215 C216 1.399 . S
C216 C215 1.399 . S
C216 C217 1.396 . S
C216 C219 1.453 . S
C216 C220 1.684 . S
C217 C207 1.723 . S
C217 C216 1.396 . S
C217 C218 1.394 . S
C218 C188 1.723 . S
C218 C214 1.397 . S
C218 C217 1.394 . S
C219 H191 0.982 . S
C219 H195 0.979 . S
C219 H196 0.977 . S
C219 C216 1.453 . S
C220 H192 0.979 . S
C220 H193 0.980 . S
C220 H194 0.983 . S
C220 C216 1.684 . S
H221 C239 0.948 . S
H222 C180 0.948 . S
H223 C198 0.979 . S
H224 C198 0.980 . S
H225 C198 0.983 . S
H226 C197 0.982 . S
H227 C197 0.979 . S
H228 C197 0.977 . S
H229 C199 0.948 . S
H230 C201 0.947 . S
H231 C202 0.948 . S
H232 C208 0.982 . S
H233 C208 0.979 . S
H234 C208 0.977 . S
H235 C209 0.979 . S
H236 C209 0.980 . S
H237 C209 0.983 . S
H238 C182 0.947 . S
C239 C182 1.392 . S
C239 C183 1.419 . S
C239 H221 0.948 . S
C240 C241 1.391 . S
C240 C244 1.391 . S
C240 H282 0.948 . S
C241 C240 1.391 . S
C241 C242 1.391 . S
C242 C241 1.391 . S
C242 H298 0.947 . S
C242 C299 1.392 . S
C243 C244 1.391 . S
C243 C247 1.397 . S
C243 C299 1.419 . S
C244 C240 1.391 . S
C244 C243 1.391 . S
C244 C245 1.399 1_554 S
C245 C244 1.399 1_556 S
C245 C248 1.396 1_556 S
C245 C257 1.453 . S
C245 C258 1.684 . S
H246 C270 0.948 . S
C247 C243 1.397 . S
C247 C248 1.394 . S
C247 C266 1.723 . S
C248 C245 1.396 1_554 S
C248 C247 1.394 . S
C248 C278 1.723 1_554 S
H249 C272 0.947 . S
H250 C273 0.948 . S
H251 C279 0.982 . S
H252 C280 0.979 . S
H253 C280 0.980 1_554 S
H254 C280 0.983 . S
H255 C279 0.979 . S
H256 C279 0.977 1_554 S
C257 C245 1.453 . S
C257 H286 0.982 . S
C257 H287 0.979 . S
C257 H288 0.977 . S
C258 C245 1.684 . S
C258 H283 0.979 . S
C258 H284 0.980 . S
C258 H285 0.983 . S
C259 C260 1.391 . S
C259 C264 1.391 . S
C259 H289 0.948 . S
C260 C259 1.391 . S
C260 C261 1.391 . S
C261 C260 1.391 . S
C261 C262 1.392 . S
C261 H290 0.947 . S
C262 C261 1.392 . S
C262 C263 1.419 . S
C262 H291 0.948 . S
C263 C262 1.419 . S
C263 C264 1.391 . S
C263 C267 1.397 . S
C264 C259 1.391 . S
C264 C263 1.391 . S
C264 C265 1.399 . S
C265 C264 1.399 . S
C265 C266 1.396 . S
C265 C268 1.453 . S
C265 C269 1.684 . S
C266 C247 1.723 . S
C266 C265 1.396 . S
C266 C267 1.394 . S
C267 C263 1.397 . S
C267 C266 1.394 . S
C267 C277 1.723 . S
C268 C265 1.453 . S
C268 H292 0.982 . S
C268 H293 0.979 . S
C268 H294 0.977 . S
C269 C265 1.684 . S
C269 H295 0.979 . S
C269 H296 0.980 . S
C269 H297 0.983 . S
C270 H246 0.948 . S
C270 C271 1.391 . S
C270 C275 1.391 . S
C271 C270 1.391 . S
C271 C272 1.391 . S
C272 H249 0.947 . S
C272 C271 1.391 . S
C272 C273 1.392 . S
C273 H250 0.948 . S
C273 C272 1.392 . S
C273 C274 1.419 . S
C274 C273 1.419 . S
C274 C275 1.391 . S
C274 C278 1.397 . S
C275 C270 1.391 . S
C275 C274 1.391 . S
C275 C276 1.399 . S
C276 C275 1.399 . S
C276 C277 1.396 1_556 S
C276 C279 1.453 . S
C276 C280 1.684 . S
C277 C267 1.723 . S
C277 C276 1.396 1_554 S
C277 C278 1.394 1_554 S
C278 C248 1.723 1_556 S
C278 C274 1.397 . S
C278 C277 1.394 1_556 S
C279 H251 0.982 . S
C279 H255 0.979 . S
C279 H256 0.977 1_556 S
C279 C276 1.453 . S
C280 H252 0.979 . S
C280 H253 0.980 1_556 S
C280 H254 0.983 . S
C280 C276 1.684 . S
H281 C299 0.948 . S
H282 C240 0.948 . S
H283 C258 0.979 . S
H284 C258 0.980 . S
H285 C258 0.983 . S
H286 C257 0.982 . S
H287 C257 0.979 . S
H288 C257 0.977 . S
H289 C259 0.948 . S
H290 C261 0.947 . S
H291 C262 0.948 . S
H292 C268 0.982 . S
H293 C268 0.979 . S
H294 C268 0.977 . S
H295 C269 0.979 . S
H296 C269 0.980 . S
H297 C269 0.983 . S
H298 C242 0.947 . S
C299 C242 1.392 . S
C299 C243 1.419 . S
C299 H281 0.948 . S
C300 C301 1.391 . S
C300 C304 1.391 . S
C300 H342 0.948 . S
C301 C300 1.391 . S
C301 C302 1.391 . S
C302 C301 1.391 . S
C302 H358 0.947 . S
C302 C359 1.392 . S
C303 C304 1.398 . S
C303 C307 1.395 1_655 S
C303 C359 1.424 . S
C304 C300 1.391 . S
C304 C303 1.398 . S
C304 C305 1.399 . S
C305 C304 1.399 . S
C305 C308 1.396 1_655 S
C305 C317 1.453 1_655 S
C305 C318 1.684 . S
H306 C330 0.948 . S
C307 C303 1.395 1_455 S
C307 C308 1.395 . S
C307 C326 1.723 . S
C308 C305 1.396 1_455 S
C308 C307 1.395 . S
C308 C338 1.723 . S
H309 C332 0.947 . S
H310 C333 0.948 . S
H311 C339 0.982 . S
H312 C340 0.979 . S
H313 C340 0.980 . S
H314 C340 0.983 . S
H315 C339 0.979 . S
H316 C339 0.977 . S
C317 C305 1.453 1_455 S
C317 H346 0.982 . S
C317 H347 0.979 . S
C317 H348 0.977 . S
C318 C305 1.684 . S
C318 H343 0.979 . S
C318 H344 0.980 . S
C318 H345 0.983 . S
C319 C320 1.391 . S
C319 C324 1.391 . S
C319 H349 0.948 . S
C320 C319 1.391 . S
C320 C321 1.391 . S
C321 C320 1.391 . S
C321 C322 1.392 . S
C321 H350 0.947 . S
C322 C321 1.392 . S
C322 C323 1.424 . S
C322 H351 0.948 . S
C323 C322 1.424 . S
C323 C324 1.398 . S
C323 C327 1.395 1_655 S
C324 C319 1.391 . S
C324 C323 1.398 . S
C324 C325 1.399 . S
C325 C324 1.399 . S
C325 C326 1.396 1_656 S
C325 C328 1.453 1_655 S
C325 C329 1.684 . S
C326 C307 1.723 . S
C326 C325 1.396 1_454 S
C326 C327 1.395 1_554 S
C327 C323 1.395 1_455 S
C327 C326 1.395 1_556 S
C327 C337 1.723 1_556 S
C328 C325 1.453 1_455 S
C328 H352 0.982 . S
C328 H353 0.979 . S
C328 H354 0.977 1_556 S
C329 C325 1.684 . S
C329 H355 0.979 . S
C329 H356 0.980 1_556 S
C329 H357 0.983 . S
C330 H306 0.948 . S
C330 C331 1.391 . S
C330 C335 1.391 . S
C331 C330 1.391 . S
C331 C332 1.391 . S
C332 H309 0.947 . S
C332 C331 1.391 . S
C332 C333 1.392 . S
C333 H310 0.948 . S
C333 C332 1.392 . S
C333 C334 1.424 . S
C334 C333 1.424 . S
C334 C335 1.398 . S
C334 C338 1.395 1_655 S
C335 C330 1.391 . S
C335 C334 1.398 . S
C335 C336 1.399 1_554 S
C336 C335 1.399 1_556 S
C336 C337 1.396 1_656 S
C336 C339 1.453 1_655 S
C336 C340 1.684 . S
C337 C327 1.723 1_554 S
C337 C336 1.396 1_454 S
C337 C338 1.395 . S
C338 C308 1.723 . S
C338 C334 1.395 1_455 S
C338 C337 1.395 . S
C339 H311 0.982 . S
C339 H315 0.979 . S
C339 H316 0.977 . S
C339 C336 1.453 1_455 S
C340 H312 0.979 . S
C340 H313 0.980 . S
C340 H314 0.983 . S
C340 C336 1.684 . S
H341 C359 0.948 . S
H342 C300 0.948 . S
H343 C318 0.979 . S
H344 C318 0.980 . S
H345 C318 0.983 . S
H346 C317 0.982 . S
H347 C317 0.979 . S
H348 C317 0.977 . S
H349 C319 0.948 . S
H350 C321 0.947 . S
H351 C322 0.948 . S
H352 C328 0.982 . S
H353 C328 0.979 . S
H354 C328 0.977 1_554 S
H355 C329 0.979 . S
H356 C329 0.980 1_554 S
H357 C329 0.983 . S
H358 C302 0.947 . S
C359 C302 1.392 . S
C359 C303 1.424 . S
C359 H341 0.948 . S
C360 C361 1.391 . S
C360 C364 1.391 . S
C360 H402 0.948 . S
C361 C360 1.391 . S
C361 C362 1.391 . S
C362 C361 1.391 . S
C362 H418 0.947 . S
C362 C419 1.392 . S
C363 C364 1.400 . S
C363 C367 1.395 1_545 S
C363 C419 1.425 . S
C364 C360 1.391 . S
C364 C363 1.400 . S
C364 C365 1.399 . S
C365 C364 1.399 . S
C365 C368 1.388 1_545 S
C365 C377 1.453 1_545 S
C365 C378 1.684 . S
H366 C390 0.948 . S
C367 C363 1.395 1_565 S
C367 C368 1.393 . S
C367 C386 1.722 1_556 S
C368 C365 1.388 1_565 S
C368 C367 1.393 . S
C368 C398 1.722 1_556 S
H369 C392 0.947 . S
H370 C393 0.948 1_556 S
H371 C399 0.982 . S
H372 C400 0.979 . S
H373 C400 0.980 . S
H374 C400 0.983 . S
H375 C399 0.979 . S
H376 C399 0.977 . S
C377 C365 1.453 1_565 S
C377 H406 0.982 . S
C377 H407 0.979 . S
C377 H408 0.977 . S
C378 C365 1.684 . S
C378 H403 0.979 . S
C378 H404 0.980 . S
C378 H405 0.983 . S
C379 C380 1.391 . S
C379 C384 1.391 . S
C379 H409 0.948 . S
C380 C379 1.391 . S
C380 C381 1.391 . S
C381 C380 1.391 . S
C381 C382 1.392 . S
C381 H410 0.947 . S
C382 C381 1.392 . S
C382 C383 1.426 . S
C382 H411 0.948 . S
C383 C382 1.426 . S
C383 C384 1.400 . S
C383 C387 1.395 1_545 S
C384 C379 1.391 . S
C384 C383 1.400 . S
C384 C385 1.399 . S
C385 C384 1.399 . S
C385 C386 1.388 1_545 S
C385 C388 1.453 1_545 S
C385 C389 1.684 . S
C386 C367 1.722 1_554 S
C386 C385 1.388 1_565 S
C386 C387 1.393 . S
C387 C383 1.395 1_565 S
C387 C386 1.393 . S
C387 C397 1.722 . S
C388 C385 1.453 1_565 S
C388 H412 0.982 . S
C388 H413 0.979 . S
C388 H414 0.977 . S
C389 C385 1.684 . S
C389 H415 0.979 . S
C389 H416 0.978 . S
C389 H417 0.983 . S
C390 H366 0.948 . S
C390 C391 1.391 . S
C390 C395 1.391 . S
C391 C390 1.391 . S
C391 C392 1.391 . S
C392 H369 0.947 . S
C392 C391 1.391 . S
C392 C393 1.392 . S
C393 H370 0.948 1_554 S
C393 C392 1.392 . S
C393 C394 1.425 . S
C394 C393 1.425 . S
C394 C395 1.400 . S
C394 C398 1.395 1_545 S
C395 C390 1.391 . S
C395 C394 1.400 . S
C395 C396 1.399 . S
C396 C395 1.399 . S
C396 C397 1.388 1_545 S
C396 C399 1.453 1_545 S
C396 C400 1.684 . S
C397 C387 1.722 . S
C397 C396 1.388 1_565 S
C397 C398 1.393 . S
C398 C368 1.722 1_554 S
C398 C394 1.395 1_565 S
C398 C397 1.393 . S
C399 H371 0.982 . S
C399 H375 0.979 . S
C399 H376 0.977 . S
C399 C396 1.453 1_565 S
C400 H372 0.979 . S
C400 H373 0.980 . S
C400 H374 0.983 . S
C400 C396 1.684 . S
H401 C419 0.948 . S
H402 C360 0.948 . S
H403 C378 0.979 . S
H404 C378 0.980 . S
H405 C378 0.983 . S
H406 C377 0.982 . S
H407 C377 0.979 . S
H408 C377 0.977 . S
H409 C379 0.948 . S
H410 C381 0.947 . S
H411 C382 0.948 . S
H412 C388 0.982 . S
H413 C388 0.979 . S
H414 C388 0.977 . S
H415 C389 0.979 . S
H416 C389 0.978 . S
H417 C389 0.983 . S
H418 C362 0.947 . S
C419 C362 1.392 . S
C419 C363 1.425 . S
C419 H401 0.948 . S
C420 C421 1.391 . S
C420 C424 1.391 . S
C420 H462 0.948 . S
C421 C420 1.391 . S
C421 C422 1.391 . S
C422 C421 1.391 . S
C422 H478 0.947 . S
C422 C479 1.392 . S
C423 C424 1.391 . S
C423 C427 1.397 . S
C423 C479 1.419 . S
C424 C420 1.391 . S
C424 C423 1.391 . S
C424 C425 1.399 . S
C425 C424 1.399 . S
C425 C428 1.396 . S
C425 C437 1.453 . S
C425 C438 1.684 . S
H426 C450 0.948 . S
C427 C423 1.397 . S
C427 C428 1.394 . S
C427 C446 1.723 1_556 S
C428 C425 1.396 . S
C428 C427 1.394 . S
C428 C458 1.723 1_556 S
H429 C452 0.947 . S
H430 C453 0.948 1_556 S
H431 C459 0.982 . S
H432 C460 0.979 . S
H433 C460 0.980 . S
H434 C460 0.983 . S
H435 C459 0.979 . S
H436 C459 0.977 . S
C437 C425 1.453 . S
C437 H466 0.982 . S
C437 H467 0.979 . S
C437 H468 0.977 . S
C438 C425 1.684 . S
C438 H463 0.979 . S
C438 H464 0.980 . S
C438 H465 0.983 . S
C439 C440 1.391 . S
C439 C444 1.391 . S
C439 H469 0.948 . S
C440 C439 1.391 . S
C440 C441 1.391 . S
C441 C440 1.391 . S
C441 C442 1.392 . S
C441 H470 0.947 . S
C442 C441 1.392 . S
C442 C443 1.419 . S
C442 H471 0.948 . S
C443 C442 1.419 . S
C443 C444 1.391 . S
C443 C447 1.397 . S
C444 C439 1.391 . S
C444 C443 1.391 . S
C444 C445 1.399 . S
C445 C444 1.399 . S
C445 C446 1.396 . S
C445 C448 1.453 . S
C445 C449 1.684 . S
C446 C427 1.723 1_554 S
C446 C445 1.396 . S
C446 C447 1.394 . S
C447 C443 1.397 . S
C447 C446 1.394 . S
C447 C457 1.723 . S
C448 C445 1.453 . S
C448 H472 0.982 . S
C448 H473 0.979 . S
C448 H474 0.977 . S
C449 C445 1.684 . S
C449 H475 0.979 . S
C449 H476 0.974 1_554 S
C449 H477 0.983 . S
C450 H426 0.948 . S
C450 C451 1.391 . S
C450 C455 1.391 . S
C451 C450 1.391 . S
C451 C452 1.391 . S
C452 H429 0.947 . S
C452 C451 1.391 . S
C452 C453 1.392 . S
C453 H430 0.948 1_554 S
C453 C452 1.392 . S
C453 C454 1.419 . S
C454 C453 1.419 . S
C454 C455 1.391 . S
C454 C458 1.397 . S
C455 C450 1.391 . S
C455 C454 1.391 . S
C455 C456 1.399 . S
C456 C455 1.399 . S
C456 C457 1.396 . S
C456 C459 1.453 . S
C456 C460 1.684 . S
C457 C447 1.723 . S
C457 C456 1.396 . S
C457 C458 1.394 . S
C458 C428 1.723 1_554 S
C458 C454 1.397 . S
C458 C457 1.394 . S
C459 H431 0.982 . S
C459 H435 0.979 . S
C459 H436 0.977 . S
C459 C456 1.453 . S
C460 H432 0.979 . S
C460 H433 0.980 . S
C460 H434 0.983 . S
C460 C456 1.684 . S
H461 C479 0.948 . S
H462 C420 0.948 . S
H463 C438 0.979 . S
H464 C438 0.980 . S
H465 C438 0.983 . S
H466 C437 0.982 . S
H467 C437 0.979 . S
H468 C437 0.977 . S
H469 C439 0.948 . S
H470 C441 0.947 . S
H471 C442 0.948 . S
H472 C448 0.982 . S
H473 C448 0.979 . S
H474 C448 0.977 . S
H475 C449 0.979 . S
H476 C449 0.974 1_556 S
H477 C449 0.983 . S
H478 C422 0.947 . S
C479 C422 1.392 . S
C479 C423 1.419 . S
C479 H461 0.948 . S
Tb480 C490 2.825 . S
Tb480 O491 2.347 1_455 S
Tb480 O494 2.366 . S
Tb480 O499 2.418 . S
Tb480 O500 2.384 1_565 S
Tb480 O503 2.479 . S
Tb480 O504 2.471 . S
Eu481 O492 2.418 . S
Eu481 O493 2.384 1_545 S
Eu481 O496 2.479 . S
Eu481 O497 2.471 . S
Eu481 O498 2.347 1_655 S
Eu481 O501 2.366 . S
Eu481 C511 2.825 . S
C482 O498 1.259 1_565 S
C482 O499 1.265 . S
C483 O500 1.255 . S
C483 O501 1.265 1_455 S
C484 C486 1.380 . S
C484 C487 1.374 . S
C484 C490 1.507 . S
C485 C486 1.384 . S
C485 C489 1.387 . S
C485 H512 0.930 . S
C486 C484 1.380 . S
C486 C485 1.384 . S
C486 H513 0.931 . S
C487 C484 1.374 . S
C487 C488 1.390 . S
C487 H514 0.930 1_455 S
C488 C487 1.390 . S
C488 C489 1.391 . S
C488 H515 0.930 1_455 S
C489 C485 1.387 . S
C489 C488 1.391 . S
C490 Tb480 2.825 . S
C490 C484 1.507 . S
C490 O503 1.238 . S
C490 O504 1.247 . S
O491 Tb480 2.347 1_655 S
O491 C495 1.259 1_565 S
O492 Eu481 2.418 . S
O492 C495 1.265 . S
O493 Eu481 2.384 1_565 S
O493 C502 1.255 . S
O494 Tb480 2.366 . S
O494 C502 1.265 1_455 S
C495 O491 1.259 1_545 S
C495 O492 1.265 . S
O496 Eu481 2.479 . S
O496 C511 1.238 . S
O497 Eu481 2.471 . S
O497 C511 1.247 . S
O498 Eu481 2.347 1_455 S
O498 C482 1.259 1_545 S
O499 Tb480 2.418 . S
O499 C482 1.265 . S
O500 Tb480 2.384 1_545 S
O500 C483 1.255 . S
O501 Eu481 2.366 . S
O501 C483 1.265 1_655 S
C502 O493 1.255 . S
C502 O494 1.265 1_655 S
O503 Tb480 2.479 . S
O503 C490 1.238 . S
O504 Tb480 2.471 . S
O504 C490 1.247 . S
C505 C508 1.380 . S
C505 C509 1.374 . S
C505 C511 1.507 . S
C506 C507 1.387 . S
C506 C510 1.391 . S
C507 C506 1.387 . S
C507 C508 1.384 . S
C507 H516 0.930 . S
C508 C505 1.380 . S
C508 C507 1.384 . S
C508 H517 0.931 . S
C509 C505 1.374 . S
C509 C510 1.390 . S
C509 H518 0.930 1_655 S
C510 C506 1.391 . S
C510 C509 1.390 . S
C510 H519 0.930 1_655 S
C511 Eu481 2.825 . S
C511 O496 1.238 . S
C511 O497 1.247 . S
C511 C505 1.507 . S
H512 C485 0.930 . S
H513 C486 0.931 . S
H514 C487 0.930 1_655 S
H515 C488 0.930 1_655 S
H516 C507 0.930 . S
H517 C508 0.931 . S
H518 C509 0.930 1_455 S
H519 C510 0.930 1_455 S
Tb520 C530 2.825 . S
Tb520 O531 2.347 1_545 S
Tb520 O534 2.366 . S
Tb520 O539 2.418 . S
Tb520 O540 2.384 . S
Tb520 O543 2.479 . S
Tb520 O544 2.471 . S
Eu521 O532 2.418 . S
Eu521 O533 2.384 . S
Eu521 O536 2.479 . S
Eu521 O537 2.471 . S
Eu521 O538 2.347 1_565 S
Eu521 O541 2.366 . S
Eu521 C551 2.825 . S
C522 O538 1.259 . S
C522 O539 1.265 . S
C523 O540 1.255 . S
C523 O541 1.265 1_545 S
C524 C526 1.380 . S
C524 C527 1.374 . S
C524 C530 1.507 . S
C525 C526 1.384 . S
C525 C529 1.387 . S
C525 H552 0.930 . S
C526 C524 1.380 . S
C526 C525 1.384 . S
C526 H553 0.931 . S
C527 C524 1.374 . S
C527 C528 1.390 . S
C527 H554 0.930 1_545 S
C528 C527 1.390 . S
C528 C529 1.391 . S
C528 H555 0.930 1_545 S
C529 C525 1.387 . S
C529 C528 1.391 . S
C530 Tb520 2.825 . S
C530 C524 1.507 . S
C530 O543 1.238 . S
C530 O544 1.247 . S
O531 Tb520 2.347 1_565 S
O531 C535 1.259 . S
O532 Eu521 2.418 . S
O532 C535 1.265 . S
O533 Eu521 2.384 . S
O533 C542 1.255 . S
O534 Tb520 2.366 . S
O534 C542 1.265 1_545 S
C535 O531 1.259 . S
C535 O532 1.265 . S
O536 Eu521 2.479 . S
O536 C551 1.238 . S
O537 Eu521 2.471 . S
O537 C551 1.247 . S
O538 Eu521 2.347 1_545 S
O538 C522 1.259 . S
O539 Tb520 2.418 . S
O539 C522 1.265 . S
O540 Tb520 2.384 . S
O540 C523 1.255 . S
O541 Eu521 2.366 . S
O541 C523 1.265 1_565 S
C542 O533 1.255 . S
C542 O534 1.265 1_565 S
O543 Tb520 2.479 . S
O543 C530 1.238 . S
O544 Tb520 2.471 . S
O544 C530 1.247 . S
C545 C548 1.380 . S
C545 C549 1.374 . S
C545 C551 1.507 . S
C546 C547 1.387 . S
C546 C550 1.391 . S
C547 C546 1.387 . S
C547 C548 1.384 . S
C547 H556 0.930 . S
C548 C545 1.380 . S
C548 C547 1.384 . S
C548 H557 0.931 . S
C549 C545 1.374 . S
C549 C550 1.390 . S
C549 H558 0.930 1_565 S
C550 C546 1.391 . S
C550 C549 1.390 . S
C550 H559 0.930 1_565 S
C551 Eu521 2.825 . S
C551 O536 1.238 . S
C551 O537 1.247 . S
C551 C545 1.507 . S
H552 C525 0.930 . S
H553 C526 0.931 . S
H554 C527 0.930 1_565 S
H555 C528 0.930 1_565 S
H556 C547 0.930 . S
H557 C548 0.931 . S
H558 C549 0.930 1_545 S
H559 C550 0.930 1_545 S
Tb560 C570 2.825 . S
Tb560 O571 2.347 . S
Tb560 O574 2.366 . S
Tb560 O579 2.418 . S
Tb560 O580 2.384 . S
Tb560 O583 2.479 . S
Tb560 O584 2.471 . S
Eu561 O572 2.418 . S
Eu561 O573 2.384 . S
Eu561 O576 2.479 . S
Eu561 O577 2.471 . S
Eu561 O578 2.347 . S
Eu561 O581 2.366 . S
Eu561 C591 2.825 . S
C562 O578 1.259 . S
C562 O579 1.265 . S
C563 O580 1.255 . S
C563 O581 1.265 . S
C564 C566 1.380 . S
C564 C567 1.374 . S
C564 C570 1.507 . S
C565 C566 1.384 . S
C565 C569 1.387 . S
C565 H592 0.930 . S
C566 C564 1.380 . S
C566 C565 1.384 . S
C566 H593 0.931 . S
C567 C564 1.374 . S
C567 C568 1.390 . S
C567 H594 0.930 . S
C568 C567 1.390 . S
C568 C569 1.391 . S
C568 H595 0.930 . S
C569 C565 1.387 . S
C569 C568 1.391 . S
C570 Tb560 2.825 . S
C570 C564 1.507 . S
C570 O583 1.238 . S
C570 O584 1.247 . S
O571 Tb560 2.347 . S
O571 C575 1.259 . S
O572 Eu561 2.418 . S
O572 C575 1.265 . S
O573 Eu561 2.384 . S
O573 C582 1.255 . S
O574 Tb560 2.366 . S
O574 C582 1.265 . S
C575 O571 1.259 . S
C575 O572 1.265 . S
O576 Eu561 2.479 . S
O576 C591 1.238 . S
O577 Eu561 2.471 . S
O577 C591 1.247 . S
O578 Eu561 2.347 . S
O578 C562 1.259 . S
O579 Tb560 2.418 . S
O579 C562 1.265 . S
O580 Tb560 2.384 . S
O580 C563 1.255 . S
O581 Eu561 2.366 . S
O581 C563 1.265 . S
C582 O573 1.255 . S
C582 O574 1.265 . S
O583 Tb560 2.479 . S
O583 C570 1.238 . S
O584 Tb560 2.471 . S
O584 C570 1.247 . S
C585 C588 1.380 . S
C585 C589 1.374 . S
C585 C591 1.507 . S
C586 C587 1.387 . S
C586 C590 1.391 . S
C587 C586 1.387 . S
C587 C588 1.384 . S
C587 H596 0.930 . S
C588 C585 1.380 . S
C588 C587 1.384 . S
C588 H597 0.931 . S
C589 C585 1.374 . S
C589 C590 1.390 . S
C589 H598 0.930 . S
C590 C586 1.391 . S
C590 C589 1.390 . S
C590 H599 0.930 . S
C591 Eu561 2.825 . S
C591 O576 1.238 . S
C591 O577 1.247 . S
C591 C585 1.507 . S
H592 C565 0.930 . S
H593 C566 0.931 . S
H594 C567 0.930 . S
H595 C568 0.930 . S
H596 C587 0.930 . S
H597 C588 0.931 . S
H598 C589 0.930 . S
H599 C590 0.930 . S
Tb600 C610 2.825 . S
Tb600 O611 2.347 . S
Tb600 O614 2.366 . S
Tb600 O619 2.418 . S
Tb600 O620 2.384 1_655 S
Tb600 O623 2.479 . S
Tb600 O624 2.471 . S
Eu601 O612 2.418 . S
Eu601 O613 2.384 1_455 S
Eu601 O616 2.479 . S
Eu601 O617 2.471 . S
Eu601 O618 2.347 . S
Eu601 O621 2.366 . S
Eu601 C631 2.825 . S
C602 O618 1.259 1_655 S
C602 O619 1.265 . S
C603 O620 1.255 . S
C603 O621 1.265 . S
C604 C606 1.380 . S
C604 C607 1.374 . S
C604 C610 1.507 . S
C605 C606 1.384 . S
C605 C609 1.387 . S
C605 H632 0.930 . S
C606 C604 1.380 . S
C606 C605 1.384 . S
C606 H633 0.931 . S
C607 C604 1.374 . S
C607 C608 1.390 . S
C607 H634 0.930 . S
C608 C607 1.390 . S
C608 C609 1.391 . S
C608 H635 0.930 . S
C609 C605 1.387 . S
C609 C608 1.391 . S
C610 Tb600 2.825 . S
C610 C604 1.507 . S
C610 O623 1.238 . S
C610 O624 1.247 . S
O611 Tb600 2.347 . S
O611 C615 1.259 1_655 S
O612 Eu601 2.418 . S
O612 C615 1.265 . S
O613 Eu601 2.384 1_655 S
O613 C622 1.255 . S
O614 Tb600 2.366 . S
O614 C622 1.265 . S
C615 O611 1.259 1_455 S
C615 O612 1.265 . S
O616 Eu601 2.479 . S
O616 C631 1.238 . S
O617 Eu601 2.471 . S
O617 C631 1.247 . S
O618 Eu601 2.347 . S
O618 C602 1.259 1_455 S
O619 Tb600 2.418 . S
O619 C602 1.265 . S
O620 Tb600 2.384 1_455 S
O620 C603 1.255 . S
O621 Eu601 2.366 . S
O621 C603 1.265 . S
C622 O613 1.255 . S
C622 O614 1.265 . S
O623 Tb600 2.479 . S
O623 C610 1.238 . S
O624 Tb600 2.471 . S
O624 C610 1.247 . S
C625 C628 1.380 . S
C625 C629 1.374 . S
C625 C631 1.507 . S
C626 C627 1.387 . S
C626 C630 1.391 . S
C627 C626 1.387 . S
C627 C628 1.384 . S
C627 H636 0.930 . S
C628 C625 1.380 . S
C628 C627 1.384 . S
C628 H637 0.931 . S
C629 C625 1.374 . S
C629 C630 1.390 . S
C629 H638 0.930 . S
C630 C626 1.391 . S
C630 C629 1.390 . S
C630 H639 0.930 . S
C631 Eu601 2.825 . S
C631 O616 1.238 . S
C631 O617 1.247 . S
C631 C625 1.507 . S
H632 C605 0.930 . S
H633 C606 0.931 . S
H634 C607 0.930 . S
H635 C608 0.930 . S
H636 C627 0.930 . S
H637 C628 0.931 . S
H638 C629 0.930 . S
H639 C630 0.930 . S
H640 C648 0.929 . S
H641 C650 0.930 . S
H642 C652 0.930 . S
H643 C655 0.929 . S
H644 C658 0.930 . S
H645 C660 0.960 . S
H646 C660 0.960 . S
H647 C660 0.960 . S
C648 H640 0.929 . S
C648 C649 1.374 1_565 S
C648 C650 1.384 . S
C649 C648 1.374 1_545 S
C649 C655 1.394 . S
C650 H641 0.930 . S
C650 C648 1.384 . S
C650 C651 1.370 1_565 S
C651 C650 1.370 1_545 S
C651 C652 1.402 . S
C651 C656 1.489 1_545 S
C652 H642 0.930 . S
C652 C651 1.402 . S
C652 C655 1.386 . S
H653 C669 0.940 . S
H654 C670 0.928 1_545 S
C655 H643 0.929 . S
C655 C649 1.394 . S
C655 C652 1.386 . S
C656 C651 1.489 1_565 S
C656 C658 1.409 . S
C656 C659 1.389 1_565 S
H657 C663 0.930 . S
C658 H644 0.930 . S
C658 C656 1.409 . S
C658 C661 1.403 . S
C659 C656 1.389 1_545 S
C659 C660 1.524 . S
C659 C663 1.400 . S
C660 H645 0.960 . S
C660 H646 0.960 . S
C660 H647 0.960 . S
C660 C659 1.524 . S
C661 C658 1.403 . S
C661 C662 1.392 . S
C661 C665 1.495 . S
C662 C661 1.392 . S
C662 C663 1.385 1_565 S
C662 C664 1.478 . S
C663 H657 0.930 . S
C663 C659 1.400 . S
C663 C662 1.385 1_545 S
C664 C662 1.478 . S
C664 C666 1.381 . S
C664 C670 1.386 . S
C665 C661 1.495 . S
C665 H671 0.959 . S
C665 H672 0.961 . S
C665 H673 0.960 . S
C666 C664 1.381 . S
C666 C667 1.394 . S
C666 H674 0.930 . S
C667 C666 1.394 . S
C667 C668 1.389 . S
C667 H675 0.929 . S
C668 C667 1.389 . S
C668 C669 1.372 1_565 S
C669 H653 0.940 . S
C669 C668 1.372 1_545 S
C669 C670 1.376 1_545 S
C670 H654 0.928 1_565 S
C670 C664 1.386 . S
C670 C669 1.376 1_565 S
H671 C665 0.959 . S
H672 C665 0.961 . S
H673 C665 0.960 . S
H674 C666 0.930 . S
H675 C667 0.929 . S
H676 C684 0.929 . S
H677 C686 0.930 . S
H678 C688 0.930 . S
H679 C691 0.929 . S
H680 C694 0.930 . S
H681 C696 0.960 . S
H682 C696 0.960 . S
H683 C696 0.960 . S
C684 H676 0.929 . S
C684 C685 1.377 . S
C684 C686 1.384 . S
C685 C684 1.377 . S
C685 C691 1.390 . S
C686 H677 0.930 . S
C686 C684 1.384 . S
C686 C687 1.372 . S
C687 C686 1.372 . S
C687 C688 1.400 . S
C687 C692 1.490 . S
C688 H678 0.930 . S
C688 C687 1.400 . S
C688 C691 1.386 . S
H689 C705 0.930 . S
H690 C706 0.931 . S
C691 H679 0.929 . S
C691 C685 1.390 . S
C691 C688 1.386 . S
C692 C687 1.490 . S
C692 C694 1.395 . S
C692 C695 1.403 . S
H693 C699 0.930 . S
C694 H680 0.930 . S
C694 C692 1.395 . S
C694 C697 1.403 . S
C695 C692 1.403 . S
C695 C696 1.524 . S
C695 C699 1.400 . S
C696 H681 0.960 . S
C696 H682 0.960 . S
C696 H683 0.960 . S
C696 C695 1.524 . S
C697 C694 1.403 . S
C697 C698 1.392 . S
C697 C701 1.495 . S
C698 C697 1.392 . S
C698 C699 1.385 . S
C698 C700 1.478 . S
C699 H693 0.930 . S
C699 C695 1.400 . S
C699 C698 1.385 . S
C700 C698 1.478 . S
C700 C702 1.381 . S
C700 C706 1.383 . S
C701 C697 1.495 . S
C701 H707 0.959 . S
C701 H708 0.961 . S
C701 H709 0.960 . S
C702 C700 1.381 . S
C702 C703 1.394 . S
C702 H710 0.930 . S
C703 C702 1.394 . S
C703 C704 1.383 . S
C703 H711 0.929 . S
C704 C703 1.383 . S
C704 C705 1.377 . S
C705 H689 0.930 . S
C705 C704 1.377 . S
C705 C706 1.379 . S
C706 H690 0.931 . S
C706 C700 1.383 . S
C706 C705 1.379 . S
H707 C701 0.959 . S
H708 C701 0.961 . S
H709 C701 0.960 . S
H710 C702 0.930 . S
H711 C703 0.929 . S
H712 C720 0.929 . S
H713 C722 0.930 . S
H714 C724 0.930 . S
H715 C727 0.929 . S
H716 C730 0.930 . S
H717 C732 0.960 . S
H718 C732 0.960 . S
H719 C732 0.960 . S
C720 H712 0.929 . S
C720 C721 1.377 . S
C720 C722 1.384 . S
C721 C720 1.377 . S
C721 C727 1.390 . S
C722 H713 0.930 . S
C722 C720 1.384 . S
C722 C723 1.372 . S
C723 C722 1.372 . S
C723 C724 1.400 . S
C723 C728 1.490 . S
C724 H714 0.930 . S
C724 C723 1.400 . S
C724 C727 1.386 . S
H725 C741 0.930 . S
H726 C742 0.931 . S
C727 H715 0.929 . S
C727 C721 1.390 . S
C727 C724 1.386 . S
C728 C723 1.490 . S
C728 C730 1.395 . S
C728 C731 1.403 . S
H729 C735 0.930 . S
C730 H716 0.930 . S
C730 C728 1.395 . S
C730 C733 1.403 . S
C731 C728 1.403 . S
C731 C732 1.524 . S
C731 C735 1.400 . S
C732 H717 0.960 . S
C732 H718 0.960 . S
C732 H719 0.960 . S
C732 C731 1.524 . S
C733 C730 1.403 . S
C733 C734 1.392 . S
C733 C737 1.495 . S
C734 C733 1.392 . S
C734 C735 1.385 . S
C734 C736 1.478 . S
C735 H729 0.930 . S
C735 C731 1.400 . S
C735 C734 1.385 . S
C736 C734 1.478 . S
C736 C738 1.381 . S
C736 C742 1.383 . S
C737 C733 1.495 . S
C737 H743 0.959 . S
C737 H744 0.961 . S
C737 H745 0.960 . S
C738 C736 1.381 . S
C738 C739 1.394 . S
C738 H746 0.930 . S
C739 C738 1.394 . S
C739 C740 1.383 . S
C739 H747 0.929 . S
C740 C739 1.383 . S
C740 C741 1.377 . S
C741 H725 0.930 . S
C741 C740 1.377 . S
C741 C742 1.379 . S
C742 H726 0.931 . S
C742 C736 1.383 . S
C742 C741 1.379 . S
H743 C737 0.959 . S
H744 C737 0.961 . S
H745 C737 0.960 . S
H746 C738 0.930 . S
H747 C739 0.929 . S
H748 C756 0.929 . S
H749 C758 0.930 . S
H750 C760 0.930 . S
H751 C763 0.929 . S
H752 C766 0.930 . S
H753 C768 0.960 . S
H754 C768 0.960 . S
H755 C768 0.960 . S
C756 H748 0.929 . S
C756 C757 1.377 . S
C756 C758 1.384 . S
C757 C756 1.377 . S
C757 C763 1.390 1_655 S
C758 H749 0.930 . S
C758 C756 1.384 . S
C758 C759 1.374 . S
C759 C758 1.374 . S
C759 C760 1.397 1_655 S
C759 C764 1.490 1_655 S
C760 H750 0.930 . S
C760 C759 1.397 1_455 S
C760 C763 1.386 . S
H761 C777 0.930 . S
H762 C778 0.931 . S
C763 H751 0.929 . S
C763 C757 1.390 1_455 S
C763 C760 1.386 . S
C764 C759 1.490 1_455 S
C764 C766 1.403 . S
C764 C767 1.395 1_455 S
H765 C771 0.930 . S
C766 H752 0.930 . S
C766 C764 1.403 . S
C766 C769 1.403 . S
C767 C764 1.395 1_655 S
C767 C768 1.524 . S
C767 C771 1.400 . S
C768 H753 0.960 . S
C768 H754 0.960 . S
C768 H755 0.960 . S
C768 C767 1.524 . S
C769 C766 1.403 . S
C769 C770 1.392 . S
C769 C773 1.495 . S
C770 C769 1.392 . S
C770 C771 1.385 1_455 S
C770 C772 1.478 . S
C771 H765 0.930 . S
C771 C767 1.400 . S
C771 C770 1.385 1_655 S
C772 C770 1.478 . S
C772 C774 1.381 1_455 S
C772 C778 1.383 . S
C773 C769 1.495 . S
C773 H779 0.959 . S
C773 H780 0.961 . S
C773 H781 0.960 . S
C774 C772 1.381 1_655 S
C774 C775 1.394 . S
C774 H782 0.930 . S
C775 C774 1.394 . S
C775 C776 1.383 1_655 S
C775 H783 0.929 . S
C776 C775 1.383 1_455 S
C776 C777 1.377 . S
C777 H761 0.930 . S
C777 C776 1.377 . S
C777 C778 1.379 . S
C778 H762 0.931 . S
C778 C772 1.383 . S
C778 C777 1.379 . S
H779 C773 0.959 . S
H780 C773 0.961 . S
H781 C773 0.960 . S
H782 C774 0.930 . S
H783 C775 0.929 . S
H784 C792 0.929 . S
H785 C794 0.930 . S
H786 C796 0.930 . S
H787 C799 0.929 . S
H788 C802 0.930 . S
H789 C804 0.960 . S
H790 C804 0.960 . S
H791 C804 0.960 1_554 S
C792 H784 0.929 . S
C792 C793 1.384 . S
C792 C794 1.384 . S
C793 C792 1.384 . S
C793 C799 1.384 1_545 S
C794 H785 0.930 . S
C794 C792 1.384 . S
C794 C795 1.421 . S
C795 C794 1.421 . S
C795 C796 1.350 1_545 S
C795 C800 1.492 . S
C796 H786 0.930 . S
C796 C795 1.350 1_565 S
C796 C799 1.386 . S
H797 C813 0.930 . S
H798 C814 0.931 . S
C799 H787 0.929 . S
C799 C793 1.384 1_565 S
C799 C796 1.386 . S
C800 C795 1.492 . S
C800 C802 1.395 . S
C800 C803 1.403 1_544 S
H801 C807 0.930 . S
C802 H788 0.930 . S
C802 C800 1.395 . S
C802 C805 1.403 1_554 S
C803 C800 1.403 1_566 S
C803 C804 1.524 . S
C803 C807 1.400 . S
C804 H789 0.960 . S
C804 H790 0.960 . S
C804 H791 0.960 1_556 S
C804 C803 1.524 . S
C805 C802 1.403 1_556 S
C805 C806 1.392 . S
C805 C809 1.495 . S
C806 C805 1.392 . S
C806 C807 1.385 1_545 S
C806 C808 1.478 . S
C807 H801 0.930 . S
C807 C803 1.400 . S
C807 C806 1.385 1_565 S
C808 C806 1.478 . S
C808 C810 1.381 . S
C808 C814 1.383 1_545 S
C809 C805 1.495 . S
C809 H815 0.959 1_556 S
C809 H816 0.961 . S
C809 H817 0.960 . S
C810 C808 1.381 . S
C810 C811 1.394 . S
C810 H818 0.930 . S
C811 C810 1.394 . S
C811 C812 1.385 . S
C811 H819 0.929 . S
C812 C811 1.385 . S
C812 C813 1.375 1_545 S
C813 H797 0.930 . S
C813 C812 1.375 1_565 S
C813 C814 1.379 . S
C814 H798 0.931 . S
C814 C808 1.383 1_565 S
C814 C813 1.379 . S
H815 C809 0.959 1_554 S
H816 C809 0.961 . S
H817 C809 0.960 . S
H818 C810 0.930 . S
H819 C811 0.929 . S
H820 C828 0.929 . S
H821 C830 0.930 . S
H822 C832 0.930 . S
H823 C835 0.929 . S
H824 C838 0.930 . S
H825 C840 0.960 . S
H826 C840 0.960 . S
H827 C840 0.960 . S
C828 H820 0.929 . S
C828 C829 1.377 . S
C828 C830 1.384 . S
C829 C828 1.377 . S
C829 C835 1.390 . S
C830 H821 0.930 . S
C830 C828 1.384 . S
C830 C831 1.372 . S
C831 C830 1.372 . S
C831 C832 1.400 . S
C831 C836 1.490 . S
C832 H822 0.930 . S
C832 C831 1.400 . S
C832 C835 1.386 . S
H833 C849 0.930 . S
H834 C850 0.931 . S
C835 H823 0.929 . S
C835 C829 1.390 . S
C835 C832 1.386 . S
C836 C831 1.490 . S
C836 C838 1.395 . S
C836 C839 1.403 . S
H837 C843 0.930 . S
C838 H824 0.930 . S
C838 C836 1.395 . S
C838 C841 1.403 1_554 S
C839 C836 1.403 . S
C839 C840 1.524 . S
C839 C843 1.400 1_554 S
C840 H825 0.960 . S
C840 H826 0.960 . S
C840 H827 0.960 . S
C840 C839 1.524 . S
C841 C838 1.403 1_556 S
C841 C842 1.392 . S
C841 C845 1.495 . S
C842 C841 1.392 . S
C842 C843 1.385 . S
C842 C844 1.478 . S
C843 H837 0.930 . S
C843 C839 1.400 1_556 S
C843 C842 1.385 . S
C844 C842 1.478 . S
C844 C846 1.381 . S
C844 C850 1.383 . S
C845 C841 1.495 . S
C845 H851 0.959 . S
C845 H852 0.961 . S
C845 H853 0.960 . S
C846 C844 1.381 . S
C846 C847 1.394 . S
C846 H854 0.930 . S
C847 C846 1.394 . S
C847 C848 1.383 . S
C847 H855 0.929 . S
C848 C847 1.383 . S
C848 C849 1.377 . S
C849 H833 0.930 . S
C849 C848 1.377 . S
C849 C850 1.379 . S
C850 H834 0.931 . S
C850 C844 1.383 . S
C850 C849 1.379 . S
H851 C845 0.959 . S
H852 C845 0.961 . S
H853 C845 0.960 . S
H854 C846 0.930 . S
H855 C847 0.929 . S
H856 C864 0.929 . S
H857 C866 0.930 . S
H858 C868 0.930 . S
H859 C871 0.929 . S
H860 C874 0.930 . S
H861 C876 0.970 . S
H862 C876 0.960 . S
H863 C876 0.960 . S
C864 H856 0.929 . S
C864 C865 1.377 . S
C864 C866 1.384 . S
C865 C864 1.377 . S
C865 C871 1.390 . S
C866 H857 0.930 . S
C866 C864 1.384 . S
C866 C867 1.372 . S
C867 C866 1.372 . S
C867 C868 1.400 . S
C867 C872 1.490 . S
C868 H858 0.930 . S
C868 C867 1.400 . S
C868 C871 1.386 . S
H869 C885 0.930 . S
H870 C886 0.931 . S
C871 H859 0.929 . S
C871 C865 1.390 . S
C871 C868 1.386 . S
C872 C867 1.490 . S
C872 C874 1.395 . S
C872 C875 1.403 . S
H873 C879 0.930 . S
C874 H860 0.930 . S
C874 C872 1.395 . S
C874 C877 1.403 1_554 S
C875 C872 1.403 . S
C875 C876 1.524 . S
C875 C879 1.400 1_554 S
C876 H861 0.970 . S
C876 H862 0.960 . S
C876 H863 0.960 . S
C876 C875 1.524 . S
C877 C874 1.403 1_556 S
C877 C878 1.392 . S
C877 C881 1.495 . S
C878 C877 1.392 . S
C878 C879 1.385 . S
C878 C880 1.478 . S
C879 H873 0.930 . S
C879 C875 1.400 1_556 S
C879 C878 1.385 . S
C880 C878 1.478 . S
C880 C882 1.381 . S
C880 C886 1.383 . S
C881 C877 1.495 . S
C881 H887 0.959 . S
C881 H888 0.961 . S
C881 H889 0.960 . S
C882 C880 1.381 . S
C882 C883 1.394 . S
C882 H890 0.930 . S
C883 C882 1.394 . S
C883 C884 1.383 . S
C883 H891 0.929 . S
C884 C883 1.383 . S
C884 C885 1.377 . S
C885 H869 0.930 . S
C885 C884 1.377 . S
C885 C886 1.379 . S
C886 H870 0.931 . S
C886 C880 1.383 . S
C886 C885 1.379 . S
H887 C881 0.959 . S
H888 C881 0.961 . S
H889 C881 0.960 . S
H890 C882 0.930 . S
H891 C883 0.929 . S
H892 C900 0.929 . S
H893 C902 0.930 . S
H894 C904 0.930 . S
H895 C907 0.929 . S
H896 C910 0.930 . S
H897 C912 0.960 . S
H898 C912 0.960 1_554 S
H899 C912 0.960 . S
C900 H892 0.929 . S
C900 C901 1.378 . S
C900 C902 1.384 . S
C901 C900 1.378 . S
C901 C907 1.389 1_455 S
C902 H893 0.930 . S
C902 C900 1.384 . S
C902 C903 1.379 . S
C903 C902 1.379 . S
C903 C904 1.393 1_455 S
C903 C908 1.490 1_455 S
C904 H894 0.930 . S
C904 C903 1.393 1_655 S
C904 C907 1.386 . S
H905 C921 0.930 . S
H906 C922 0.931 . S
C907 H895 0.929 . S
C907 C901 1.389 1_655 S
C907 C904 1.386 . S
C908 C903 1.490 1_655 S
C908 C910 1.395 . S
C908 C911 1.402 1_654 S
H909 C915 0.930 . S
C910 H896 0.930 . S
C910 C908 1.395 . S
C910 C913 1.403 1_554 S
C911 C908 1.402 1_456 S
C911 C912 1.524 . S
C911 C915 1.400 . S
C912 H897 0.960 . S
C912 H898 0.960 1_556 S
C912 H899 0.960 . S
C912 C911 1.524 . S
C913 C910 1.403 1_556 S
C913 C914 1.392 . S
C913 C917 1.495 . S
C914 C913 1.392 . S
C914 C915 1.385 1_655 S
C914 C916 1.478 . S
C915 H909 0.930 . S
C915 C911 1.400 . S
C915 C914 1.385 1_455 S
C916 C914 1.478 . S
C916 C918 1.381 1_655 S
C916 C922 1.383 . S
C917 C913 1.495 . S
C917 H923 0.959 1_556 S
C917 H924 0.961 . S
C917 H925 0.960 . S
C918 C916 1.381 1_455 S
C918 C919 1.394 . S
C918 H926 0.930 . S
C919 C918 1.394 . S
C919 C920 1.383 1_455 S
C919 H927 0.929 . S
C920 C919 1.383 1_655 S
C920 C921 1.377 . S
C921 H905 0.930 . S
C921 C920 1.377 . S
C921 C922 1.379 . S
C922 H906 0.931 . S
C922 C916 1.383 . S
C922 C921 1.379 . S
H923 C917 0.959 1_554 S
H924 C917 0.961 . S
H925 C917 0.960 . S
H926 C918 0.930 . S
H927 C919 0.929 . S
H928 C936 0.929 . S
H929 C938 0.930 . S
H930 C940 0.930 . S
H931 C943 0.929 . S
H932 C946 0.939 . S
H933 C948 0.960 . S
H934 C948 0.960 . S
H935 C948 0.960 . S
C936 H928 0.929 . S
C936 C937 1.377 1_655 S
C936 C938 1.384 . S
C937 C936 1.377 1_455 S
C937 C943 1.390 . S
C938 H929 0.930 . S
C938 C936 1.384 . S
C938 C939 1.372 . S
C939 C938 1.372 . S
C939 C940 1.400 1_655 S
C939 C944 1.490 . S
C940 H930 0.930 . S
C940 C939 1.400 1_455 S
C940 C943 1.386 . S
H941 C957 0.930 . S
H942 C958 0.931 1_455 S
C943 H931 0.929 . S
C943 C937 1.390 . S
C943 C940 1.386 . S
C944 C939 1.490 . S
C944 C946 1.395 . S
C944 C947 1.403 . S
H945 C951 0.930 . S
C946 H932 0.939 . S
C946 C944 1.395 . S
C946 C949 1.403 . S
C947 C944 1.403 . S
C947 C948 1.524 . S
C947 C951 1.400 . S
C948 H933 0.960 . S
C948 H934 0.960 . S
C948 H935 0.960 . S
C948 C947 1.524 . S
C949 C946 1.403 . S
C949 C950 1.392 . S
C949 C953 1.495 . S
C950 C949 1.392 . S
C950 C951 1.385 . S
C950 C952 1.478 . S
C951 H945 0.930 . S
C951 C947 1.400 . S
C951 C950 1.385 . S
C952 C950 1.478 . S
C952 C954 1.381 . S
C952 C958 1.383 . S
C953 C949 1.495 . S
C953 H959 0.959 1_655 S
C953 H960 0.961 1_655 S
C953 H961 0.960 . S
C954 C952 1.381 . S
C954 C955 1.394 . S
C954 H962 0.930 . S
C955 C954 1.394 . S
C955 C956 1.383 . S
C955 H963 0.929 . S
C956 C955 1.383 . S
C956 C957 1.377 . S
C957 H941 0.930 . S
C957 C956 1.377 . S
C957 C958 1.379 . S
C958 H942 0.931 1_655 S
C958 C952 1.383 . S
C958 C957 1.379 . S
H959 C953 0.959 1_455 S
H960 C953 0.961 1_455 S
H961 C953 0.960 . S
H962 C954 0.930 . S
H963 C955 0.929 . S
H964 C972 0.929 . S
H965 C974 0.930 . S
H966 C976 0.930 . S
H967 C979 0.929 . S
H968 C982 0.930 . S
H969 C984 0.960 . S
H970 C984 0.960 . S
H971 C984 0.960 . S
C972 H964 0.929 . S
C972 C973 1.377 . S
C972 C974 1.384 . S
C973 C972 1.377 . S
C973 C979 1.390 1_545 S
C974 H965 0.930 . S
C974 C972 1.384 . S
C974 C975 1.372 1_545 S
C975 C974 1.372 1_565 S
C975 C976 1.400 . S
C975 C980 1.490 . S
C976 H966 0.930 . S
C976 C975 1.400 . S
C976 C979 1.386 . S
H977 C993 0.930 . S
H978 C994 0.931 . S
C979 H967 0.929 . S
C979 C973 1.390 1_565 S
C979 C976 1.386 . S
C980 C975 1.490 . S
C980 C982 1.395 1_565 S
C980 C983 1.403 . S
H981 C987 0.930 . S
C982 H968 0.930 . S
C982 C980 1.395 1_545 S
C982 C985 1.403 . S
C983 C980 1.403 . S
C983 C984 1.524 . S
C983 C987 1.400 . S
C984 H969 0.960 . S
C984 H970 0.960 . S
C984 H971 0.960 . S
C984 C983 1.524 . S
C985 C982 1.403 . S
C985 C986 1.395 1_545 S
C985 C989 1.493 . S
C986 C985 1.395 1_565 S
C986 C987 1.385 . S
C986 C988 1.478 . S
C987 H981 0.930 . S
C987 C983 1.400 . S
C987 C986 1.385 . S
C988 C986 1.478 . S
C988 C990 1.381 . S
C988 C994 1.383 . S
C989 C985 1.493 . S
C989 H995 0.959 . S
C989 H996 0.994 . S
C989 H997 0.960 . S
C990 C988 1.381 . S
C990 C991 1.394 . S
C990 H998 0.930 1_565 S
C991 C990 1.394 . S
C991 C992 1.383 . S
C991 H999 0.929 1_565 S
C992 C991 1.383 . S
C992 C993 1.377 . S
C993 H977 0.930 . S
C993 C992 1.377 . S
C993 C994 1.379 . S
C994 H978 0.931 . S
C994 C988 1.383 . S
C994 C993 1.379 . S
H995 C989 0.959 . S
H996 C989 0.994 . S
H997 C989 0.960 . S
H998 C990 0.930 1_545 S
H999 C991 0.929 1_545 S
H1000 C1008 0.929 . S
H1001 C1010 0.930 . S
H1002 C1012 0.930 . S
H1003 C1015 0.929 . S
H1004 C1018 0.930 . S
H1005 C1020 0.960 . S
H1006 C1020 0.960 . S
H1007 C1020 0.960 . S
C1008 H1000 0.929 . S
C1008 C1009 1.377 . S
C1008 C1010 1.384 . S
C1009 C1008 1.377 . S
C1009 C1015 1.390 . S
C1010 H1001 0.930 . S
C1010 C1008 1.384 . S
C1010 C1011 1.372 . S
C1011 C1010 1.372 . S
C1011 C1012 1.400 . S
C1011 C1016 1.490 . S
C1012 H1002 0.930 . S
C1012 C1011 1.400 . S
C1012 C1015 1.386 . S
H1013 C1029 0.930 . S
H1014 C1030 0.931 . S
C1015 H1003 0.929 . S
C1015 C1009 1.390 . S
C1015 C1012 1.386 . S
C1016 C1011 1.490 . S
C1016 C1018 1.395 . S
C1016 C1019 1.403 . S
H1017 C1023 0.930 . S
C1018 H1004 0.930 . S
C1018 C1016 1.395 . S
C1018 C1021 1.403 . S
C1019 C1016 1.403 . S
C1019 C1020 1.524 . S
C1019 C1023 1.400 . S
C1020 H1005 0.960 . S
C1020 H1006 0.960 . S
C1020 H1007 0.960 . S
C1020 C1019 1.524 . S
C1021 C1018 1.403 . S
C1021 C1022 1.392 . S
C1021 C1025 1.495 . S
C1022 C1021 1.392 . S
C1022 C1023 1.385 . S
C1022 C1024 1.478 . S
C1023 H1017 0.930 . S
C1023 C1019 1.400 . S
C1023 C1022 1.385 . S
C1024 C1022 1.478 . S
C1024 C1026 1.381 . S
C1024 C1030 1.383 . S
C1025 C1021 1.495 . S
C1025 H1031 0.959 . S
C1025 H1032 0.961 . S
C1025 H1033 0.960 . S
C1026 C1024 1.381 . S
C1026 C1027 1.394 . S
C1026 H1034 0.930 . S
C1027 C1026 1.394 . S
C1027 C1028 1.383 . S
C1027 H1035 0.929 . S
C1028 C1027 1.383 . S
C1028 C1029 1.377 . S
C1029 H1013 0.930 . S
C1029 C1028 1.377 . S
C1029 C1030 1.379 . S
C1030 H1014 0.931 . S
C1030 C1024 1.383 . S
C1030 C1029 1.379 . S
H1031 C1025 0.959 . S
H1032 C1025 0.961 . S
H1033 C1025 0.960 . S
H1034 C1026 0.930 . S
H1035 C1027 0.929 . S
H1036 C1044 0.929 . S
H1037 C1046 0.930 . S
H1038 C1048 0.930 . S
H1039 C1051 0.929 . S
H1040 C1054 0.930 . S
H1041 C1056 0.960 . S
H1042 C1056 0.960 . S
H1043 C1056 0.960 . S
C1044 H1036 0.929 . S
C1044 C1045 1.377 . S
C1044 C1046 1.384 . S
C1045 C1044 1.377 . S
C1045 C1051 1.390 . S
C1046 H1037 0.930 . S
C1046 C1044 1.384 . S
C1046 C1047 1.372 . S
C1047 C1046 1.372 . S
C1047 C1048 1.400 . S
C1047 C1052 1.490 . S
C1048 H1038 0.930 . S
C1048 C1047 1.400 . S
C1048 C1051 1.386 . S
H1049 C1065 0.930 . S
H1050 C1066 0.931 . S
C1051 H1039 0.929 . S
C1051 C1045 1.390 . S
C1051 C1048 1.386 . S
C1052 C1047 1.490 . S
C1052 C1054 1.395 . S
C1052 C1055 1.403 . S
H1053 C1059 0.930 . S
C1054 H1040 0.930 . S
C1054 C1052 1.395 . S
C1054 C1057 1.403 . S
C1055 C1052 1.403 . S
C1055 C1056 1.524 . S
C1055 C1059 1.400 . S
C1056 H1041 0.960 . S
C1056 H1042 0.960 . S
C1056 H1043 0.960 . S
C1056 C1055 1.524 . S
C1057 C1054 1.403 . S
C1057 C1058 1.392 . S
C1057 C1061 1.495 . S
C1058 C1057 1.392 . S
C1058 C1059 1.385 . S
C1058 C1060 1.478 . S
C1059 H1053 0.930 . S
C1059 C1055 1.400 . S
C1059 C1058 1.385 . S
C1060 C1058 1.478 . S
C1060 C1062 1.381 . S
C1060 C1066 1.383 . S
C1061 C1057 1.495 . S
C1061 H1067 0.959 . S
C1061 H1068 0.961 . S
C1061 H1069 0.960 . S
C1062 C1060 1.381 . S
C1062 C1063 1.394 . S
C1062 H1070 0.930 . S
C1063 C1062 1.394 . S
C1063 C1064 1.383 . S
C1063 H1071 0.929 . S
C1064 C1063 1.383 . S
C1064 C1065 1.377 . S
C1065 H1049 0.930 . S
C1065 C1064 1.377 . S
C1065 C1066 1.379 . S
C1066 H1050 0.931 . S
C1066 C1060 1.383 . S
C1066 C1065 1.379 . S
H1067 C1061 0.959 . S
H1068 C1061 0.961 . S
H1069 C1061 0.960 . S
H1070 C1062 0.930 . S
H1071 C1063 0.929 . S
H1072 C1080 0.929 . S
H1073 C1082 0.930 1_556 S
H1074 C1084 0.930 . S
H1075 C1087 0.929 . S
H1076 C1090 0.930 1_655 S
H1077 C1092 0.960 . S
H1078 C1092 0.960 . S
H1079 C1092 0.960 . S
C1080 H1072 0.929 . S
C1080 C1081 1.377 1_455 S
C1080 C1082 1.384 . S
C1081 C1080 1.377 1_655 S
C1081 C1087 1.390 . S
C1082 H1073 0.930 1_554 S
C1082 C1080 1.384 . S
C1082 C1083 1.372 . S
C1083 C1082 1.372 . S
C1083 C1084 1.400 1_455 S
C1083 C1088 1.490 . S
C1084 H1074 0.930 . S
C1084 C1083 1.400 1_655 S
C1084 C1087 1.386 . S
H1085 C1101 0.930 . S
H1086 C1102 0.930 . S
C1087 H1075 0.929 . S
C1087 C1081 1.390 . S
C1087 C1084 1.386 . S
C1088 C1083 1.490 . S
C1088 C1090 1.395 1_554 S
C1088 C1091 1.403 . S
H1089 C1095 0.930 1_554 S
C1090 H1076 0.930 1_455 S
C1090 C1088 1.395 1_556 S
C1090 C1093 1.403 . S
C1091 C1088 1.403 . S
C1091 C1092 1.524 . S
C1091 C1095 1.400 1_554 S
C1092 H1077 0.960 . S
C1092 H1078 0.960 . S
C1092 H1079 0.960 . S
C1092 C1091 1.524 . S
C1093 C1090 1.403 . S
C1093 C1094 1.392 . S
C1093 C1097 1.495 1_455 S
C1094 C1093 1.392 . S
C1094 C1095 1.385 . S
C1094 C1096 1.478 . S
C1095 H1089 0.930 1_556 S
C1095 C1091 1.400 1_556 S
C1095 C1094 1.385 . S
C1096 C1094 1.478 . S
C1096 C1098 1.381 . S
C1096 C1102 1.383 . S
C1097 C1093 1.495 1_655 S
C1097 H1103 0.959 . S
C1097 H1104 0.961 . S
C1097 H1105 0.960 1_655 S
C1098 C1096 1.381 . S
C1098 C1099 1.394 . S
C1098 H1106 0.930 . S
C1099 C1098 1.394 . S
C1099 C1100 1.383 . S
C1099 H1107 0.929 . S
C1100 C1099 1.383 . S
C1100 C1101 1.377 . S
C1101 H1085 0.930 . S
C1101 C1100 1.377 . S
C1101 C1102 1.379 . S
C1102 H1086 0.930 . S
C1102 C1096 1.383 . S
C1102 C1101 1.379 . S
H1103 C1097 0.959 . S
H1104 C1097 0.961 . S
H1105 C1097 0.960 1_455 S
H1106 C1098 0.930 . S
H1107 C1099 0.929 . S
H1108 C1116 0.929 . S
H1109 C1118 0.930 . S
H1110 C1120 0.930 . S
H1111 C1123 0.929 . S
H1112 C1126 0.930 . S
H1113 C1128 0.960 . S
H1114 C1128 0.960 . S
H1115 C1128 0.960 . S
C1116 H1108 0.929 . S
C1116 C1117 1.377 1_545 S
C1116 C1118 1.384 . S
C1117 C1116 1.377 1_565 S
C1117 C1123 1.390 . S
C1118 H1109 0.930 . S
C1118 C1116 1.384 . S
C1118 C1119 1.372 . S
C1119 C1118 1.372 . S
C1119 C1120 1.400 1_545 S
C1119 C1124 1.490 . S
C1120 H1110 0.930 . S
C1120 C1119 1.400 1_565 S
C1120 C1123 1.386 . S
H1121 C1137 0.930 . S
H1122 C1138 0.931 1_565 S
C1123 H1111 0.929 . S
C1123 C1117 1.390 . S
C1123 C1120 1.386 . S
C1124 C1119 1.490 . S
C1124 C1126 1.395 1_554 S
C1124 C1127 1.403 1_545 S
H1125 C1131 0.930 1_565 S
C1126 H1112 0.930 . S
C1126 C1124 1.395 1_556 S
C1126 C1129 1.403 . S
C1127 C1124 1.403 1_565 S
C1127 C1128 1.524 . S
C1127 C1131 1.400 1_564 S
C1128 H1113 0.960 . S
C1128 H1114 0.960 . S
C1128 H1115 0.960 . S
C1128 C1127 1.524 . S
C1129 C1126 1.403 . S
C1129 C1130 1.392 . S
C1129 C1133 1.495 . S
C1130 C1129 1.392 . S
C1130 C1131 1.385 . S
C1130 C1132 1.478 . S
C1131 H1125 0.930 1_545 S
C1131 C1127 1.400 1_546 S
C1131 C1130 1.385 . S
C1132 C1130 1.478 . S
C1132 C1134 1.381 . S
C1132 C1138 1.383 . S
C1133 C1129 1.495 . S
C1133 H1139 0.959 . S
C1133 H1140 0.961 . S
C1133 H1141 0.960 . S
C1134 C1132 1.381 . S
C1134 C1135 1.394 . S
C1134 H1142 0.930 . S
C1135 C1134 1.394 . S
C1135 C1136 1.383 . S
C1135 H1143 0.929 . S
C1136 C1135 1.383 . S
C1136 C1137 1.377 . S
C1137 H1121 0.930 . S
C1137 C1136 1.377 . S
C1137 C1138 1.379 . S
C1138 H1122 0.931 1_545 S
C1138 C1132 1.383 . S
C1138 C1137 1.379 . S
H1139 C1133 0.959 . S
H1140 C1133 0.961 . S
H1141 C1133 0.960 . S
H1142 C1134 0.930 . S
H1143 C1135 0.929 . S
H1144 C1152 0.929 . S
H1145 C1154 0.930 1_556 S
H1146 C1156 0.930 . S
H1147 C1159 0.929 . S
H1148 C1162 0.930 . S
H1149 C1164 0.960 . S
H1150 C1164 0.960 . S
H1151 C1164 0.960 . S
C1152 H1144 0.929 . S
C1152 C1153 1.377 . S
C1152 C1154 1.384 . S
C1153 C1152 1.377 . S
C1153 C1159 1.390 . S
C1154 H1145 0.930 1_554 S
C1154 C1152 1.384 . S
C1154 C1155 1.372 . S
C1155 C1154 1.372 . S
C1155 C1156 1.400 . S
C1155 C1160 1.490 . S
C1156 H1146 0.930 . S
C1156 C1155 1.400 . S
C1156 C1159 1.386 . S
H1157 C1173 0.930 . S
H1158 C1174 0.931 . S
C1159 H1147 0.929 . S
C1159 C1153 1.390 . S
C1159 C1156 1.386 . S
C1160 C1155 1.490 . S
C1160 C1162 1.395 1_554 S
C1160 C1163 1.403 . S
H1161 C1167 0.930 1_554 S
C1162 H1148 0.930 . S
C1162 C1160 1.395 1_556 S
C1162 C1165 1.403 . S
C1163 C1160 1.403 . S
C1163 C1164 1.524 . S
C1163 C1167 1.400 1_554 S
C1164 H1149 0.960 . S
C1164 H1150 0.960 . S
C1164 H1151 0.960 . S
C1164 C1163 1.524 . S
C1165 C1162 1.403 . S
C1165 C1166 1.392 . S
C1165 C1169 1.495 . S
C1166 C1165 1.392 . S
C1166 C1167 1.385 . S
C1166 C1168 1.478 . S
C1167 H1161 0.930 1_556 S
C1167 C1163 1.400 1_556 S
C1167 C1166 1.385 . S
C1168 C1166 1.478 . S
C1168 C1170 1.381 . S
C1168 C1174 1.383 . S
C1169 C1165 1.495 . S
C1169 H1175 0.959 . S
C1169 H1176 0.961 . S
C1169 H1177 0.960 . S
C1170 C1168 1.381 . S
C1170 C1171 1.394 . S
C1170 H1178 0.930 . S
C1171 C1170 1.394 . S
C1171 C1172 1.383 . S
C1171 H1179 0.929 . S
C1172 C1171 1.383 . S
C1172 C1173 1.377 . S
C1173 H1157 0.930 . S
C1173 C1172 1.377 . S
C1173 C1174 1.379 . S
C1174 H1158 0.931 . S
C1174 C1168 1.383 . S
C1174 C1173 1.379 . S
H1175 C1169 0.959 . S
H1176 C1169 0.961 . S
H1177 C1169 0.960 . S
H1178 C1170 0.930 . S
H1179 C1171 0.929 . S
H1180 C1188 0.929 . S
H1181 C1190 0.930 . S
H1182 C1192 0.930 . S
H1183 C1195 0.929 . S
H1184 C1198 0.930 . S
H1185 C1200 0.960 . S
H1186 C1200 0.960 . S
H1187 C1200 0.960 . S
C1188 H1180 0.929 . S
C1188 C1189 1.377 . S
C1188 C1190 1.384 . S
C1189 C1188 1.377 . S
C1189 C1195 1.390 . S
C1190 H1181 0.930 . S
C1190 C1188 1.384 . S
C1190 C1191 1.372 . S
C1191 C1190 1.372 . S
C1191 C1192 1.400 . S
C1191 C1196 1.490 . S
C1192 H1182 0.930 . S
C1192 C1191 1.400 . S
C1192 C1195 1.386 . S
H1193 C1209 0.930 . S
H1194 C1210 0.931 . S
C1195 H1183 0.929 . S
C1195 C1189 1.390 . S
C1195 C1192 1.386 . S
C1196 C1191 1.490 . S
C1196 C1198 1.395 1_554 S
C1196 C1199 1.403 . S
H1197 C1203 0.930 1_554 S
C1198 H1184 0.930 . S
C1198 C1196 1.395 1_556 S
C1198 C1201 1.403 . S
C1199 C1196 1.403 . S
C1199 C1200 1.524 . S
C1199 C1203 1.400 1_554 S
C1200 H1185 0.960 . S
C1200 H1186 0.960 . S
C1200 H1187 0.960 . S
C1200 C1199 1.524 . S
C1201 C1198 1.403 . S
C1201 C1202 1.392 . S
C1201 C1205 1.495 . S
C1202 C1201 1.392 . S
C1202 C1203 1.385 . S
C1202 C1204 1.478 . S
C1203 H1197 0.930 1_556 S
C1203 C1199 1.400 1_556 S
C1203 C1202 1.385 . S
C1204 C1202 1.478 . S
C1204 C1206 1.381 . S
C1204 C1210 1.383 . S
C1205 C1201 1.495 . S
C1205 H1211 0.959 . S
C1205 H1212 0.961 . S
C1205 H1213 0.960 . S
C1206 C1204 1.381 . S
C1206 C1207 1.394 . S
C1206 H1214 0.930 . S
C1207 C1206 1.394 . S
C1207 C1208 1.383 . S
C1207 H1215 0.929 . S
C1208 C1207 1.383 . S
C1208 C1209 1.377 . S
C1209 H1193 0.930 . S
C1209 C1208 1.377 . S
C1209 C1210 1.379 . S
C1210 H1194 0.931 . S
C1210 C1204 1.383 . S
C1210 C1209 1.379 . S
H1211 C1205 0.959 . S
H1212 C1205 0.961 . S
H1213 C1205 0.960 . S
H1214 C1206 0.930 . S
H1215 C1207 0.929 . S
H1216 C1224 0.929 . S
H1217 C1226 0.930 . S
H1218 C1228 0.930 . S
H1219 C1231 0.929 . S
H1220 C1234 0.930 . S
H1221 C1236 0.960 . S
H1222 C1236 0.960 . S
H1223 C1236 0.960 . S
C1224 H1216 0.929 . S
C1224 C1225 1.322 1_655 S
C1224 C1226 1.384 . S
C1225 C1224 1.322 1_455 S
C1225 C1231 1.447 . S
C1226 H1217 0.930 . S
C1226 C1224 1.384 . S
C1226 C1227 1.372 1_655 S
C1227 C1226 1.372 1_455 S
C1227 C1228 1.400 . S
C1227 C1232 1.490 . S
C1228 H1218 0.930 . S
C1228 C1227 1.400 . S
C1228 C1231 1.386 . S
H1229 C1245 0.930 . S
H1230 C1246 0.931 . S
C1231 H1219 0.929 . S
C1231 C1225 1.447 . S
C1231 C1228 1.386 . S
C1232 C1227 1.490 . S
C1232 C1234 1.395 1_455 S
C1232 C1235 1.403 . S
H1233 C1239 0.930 . S
C1234 H1220 0.930 . S
C1234 C1232 1.395 1_655 S
C1234 C1237 1.403 . S
C1235 C1232 1.403 . S
C1235 C1236 1.524 . S
C1235 C1239 1.400 . S
C1236 H1221 0.960 . S
C1236 H1222 0.960 . S
C1236 H1223 0.960 . S
C1236 C1235 1.524 . S
C1237 C1234 1.403 . S
C1237 C1238 1.392 1_655 S
C1237 C1241 1.495 . S
C1238 C1237 1.392 1_455 S
C1238 C1239 1.385 . S
C1238 C1240 1.478 . S
C1239 H1233 0.930 . S
C1239 C1235 1.400 . S
C1239 C1238 1.385 . S
C1240 C1238 1.478 . S
C1240 C1242 1.381 1_455 S
C1240 C1246 1.383 . S
C1241 C1237 1.495 . S
C1241 H1247 0.959 . S
C1241 H1248 0.961 . S
C1241 H1249 0.960 . S
C1242 C1240 1.381 1_655 S
C1242 C1243 1.394 . S
C1242 H1250 0.930 . S
C1243 C1242 1.394 . S
C1243 C1244 1.383 1_655 S
C1243 H1251 0.929 . S
C1244 C1243 1.383 1_455 S
C1244 C1245 1.377 . S
C1245 H1229 0.930 . S
C1245 C1244 1.377 . S
C1245 C1246 1.379 . S
C1246 H1230 0.931 . S
C1246 C1240 1.383 . S
C1246 C1245 1.379 . S
H1247 C1241 0.959 . S
H1248 C1241 0.961 . S
H1249 C1241 0.960 . S
H1250 C1242 0.930 . S
H1251 C1243 0.929 . S
H1252 C1260 0.929 . S
H1253 C1262 0.930 . S
H1254 C1264 0.930 . S
H1255 C1267 0.929 . S
H1256 C1270 0.930 . S
H1257 C1272 0.960 . S
H1258 C1272 0.960 . S
H1259 C1272 0.960 . S
C1260 H1252 0.929 . S
C1260 C1261 1.377 . S
C1260 C1262 1.384 . S
C1261 C1260 1.377 . S
C1261 C1267 1.390 1_545 S
C1262 H1253 0.930 . S
C1262 C1260 1.384 . S
C1262 C1263 1.372 . S
C1263 C1262 1.372 . S
C1263 C1264 1.400 1_545 S
C1263 C1268 1.490 . S
C1264 H1254 0.930 . S
C1264 C1263 1.400 1_565 S
C1264 C1267 1.386 . S
H1265 C1281 0.930 . S
H1266 C1282 0.931 . S
C1267 H1255 0.929 . S
C1267 C1261 1.390 1_565 S
C1267 C1264 1.386 . S
C1268 C1263 1.490 . S
C1268 C1270 1.395 . S
C1268 C1271 1.403 1_545 S
H1269 C1275 0.930 . S
C1270 H1256 0.930 . S
C1270 C1268 1.395 . S
C1270 C1273 1.403 . S
C1271 C1268 1.403 1_565 S
C1271 C1272 1.524 . S
C1271 C1275 1.400 . S
C1272 H1257 0.960 . S
C1272 H1258 0.960 . S
C1272 H1259 0.960 . S
C1272 C1271 1.524 . S
C1273 C1270 1.403 . S
C1273 C1274 1.392 . S
C1273 C1277 1.495 . S
C1274 C1273 1.392 . S
C1274 C1275 1.385 1_545 S
C1274 C1276 1.478 . S
C1275 H1269 0.930 . S
C1275 C1271 1.400 . S
C1275 C1274 1.385 1_565 S
C1276 C1274 1.478 . S
C1276 C1278 1.381 . S
C1276 C1282 1.383 1_545 S
C1277 C1273 1.495 . S
C1277 H1283 0.959 . S
C1277 H1284 0.961 . S
C1277 H1285 0.960 . S
C1278 C1276 1.381 . S
C1278 C1279 1.394 . S
C1278 H1286 0.930 . S
C1279 C1278 1.394 . S
C1279 C1280 1.383 . S
C1279 H1287 0.929 . S
C1280 C1279 1.383 . S
C1280 C1281 1.377 1_545 S
C1281 H1265 0.930 . S
C1281 C1280 1.377 1_565 S
C1281 C1282 1.379 . S
C1282 H1266 0.931 . S
C1282 C1276 1.383 1_565 S
C1282 C1281 1.379 . S
H1283 C1277 0.959 . S
H1284 C1277 0.961 . S
H1285 C1277 0.960 . S
H1286 C1278 0.930 . S
H1287 C1279 0.929 . S
H1288 C1296 0.929 . S
H1289 C1298 0.930 . S
H1290 C1300 0.930 . S
H1291 C1303 0.929 . S
H1292 C1306 0.930 . S
H1293 C1308 0.960 . S
H1294 C1308 0.960 . S
H1295 C1308 0.960 . S
C1296 H1288 0.929 . S
C1296 C1297 1.377 . S
C1296 C1298 1.384 . S
C1297 C1296 1.377 . S
C1297 C1303 1.390 . S
C1298 H1289 0.930 . S
C1298 C1296 1.384 . S
C1298 C1299 1.372 . S
C1299 C1298 1.372 . S
C1299 C1300 1.400 . S
C1299 C1304 1.490 . S
C1300 H1290 0.930 . S
C1300 C1299 1.400 . S
C1300 C1303 1.386 . S
H1301 C1317 0.930 . S
H1302 C1318 0.931 . S
C1303 H1291 0.929 . S
C1303 C1297 1.390 . S
C1303 C1300 1.386 . S
C1304 C1299 1.490 . S
C1304 C1306 1.395 . S
C1304 C1307 1.403 . S
H1305 C1311 0.930 . S
C1306 H1292 0.930 . S
C1306 C1304 1.395 . S
C1306 C1309 1.403 . S
C1307 C1304 1.403 . S
C1307 C1308 1.524 . S
C1307 C1311 1.400 . S
C1308 H1293 0.960 . S
C1308 H1294 0.960 . S
C1308 H1295 0.960 . S
C1308 C1307 1.524 . S
C1309 C1306 1.403 . S
C1309 C1310 1.392 . S
C1309 C1313 1.495 . S
C1310 C1309 1.392 . S
C1310 C1311 1.385 . S
C1310 C1312 1.478 . S
C1311 H1305 0.930 . S
C1311 C1307 1.400 . S
C1311 C1310 1.385 . S
C1312 C1310 1.478 . S
C1312 C1314 1.381 . S
C1312 C1318 1.383 . S
C1313 C1309 1.495 . S
C1313 H1319 0.959 . S
C1313 H1320 0.961 . S
C1313 H1321 0.960 . S
C1314 C1312 1.381 . S
C1314 C1315 1.394 . S
C1314 H1322 0.930 . S
C1315 C1314 1.394 . S
C1315 C1316 1.383 . S
C1315 H1323 0.929 . S
C1316 C1315 1.383 . S
C1316 C1317 1.377 . S
C1317 H1301 0.930 . S
C1317 C1316 1.377 . S
C1317 C1318 1.379 . S
C1318 H1302 0.931 . S
C1318 C1312 1.383 . S
C1318 C1317 1.379 . S
H1319 C1313 0.959 . S
H1320 C1313 0.961 . S
H1321 C1313 0.960 . S
H1322 C1314 0.930 . S
H1323 C1315 0.929 . S
H1324 C1332 0.929 . S
H1325 C1334 0.930 . S
H1326 C1336 0.930 . S
H1327 C1339 0.929 . S
H1328 C1342 0.930 . S
H1329 C1344 0.960 . S
H1330 C1344 0.960 . S
H1331 C1344 0.960 . S
C1332 H1324 0.929 . S
C1332 C1333 1.377 . S
C1332 C1334 1.384 . S
C1333 C1332 1.377 . S
C1333 C1339 1.390 . S
C1334 H1325 0.930 . S
C1334 C1332 1.384 . S
C1334 C1335 1.372 . S
C1335 C1334 1.372 . S
C1335 C1336 1.400 . S
C1335 C1340 1.490 . S
C1336 H1326 0.930 . S
C1336 C1335 1.400 . S
C1336 C1339 1.386 . S
H1337 C1353 0.930 . S
H1338 C1354 0.931 . S
C1339 H1327 0.929 . S
C1339 C1333 1.390 . S
C1339 C1336 1.386 . S
C1340 C1335 1.490 . S
C1340 C1342 1.395 . S
C1340 C1343 1.403 . S
H1341 C1347 0.930 . S
C1342 H1328 0.930 . S
C1342 C1340 1.395 . S
C1342 C1345 1.403 . S
C1343 C1340 1.403 . S
C1343 C1344 1.524 . S
C1343 C1347 1.400 . S
C1344 H1329 0.960 . S
C1344 H1330 0.960 . S
C1344 H1331 0.960 . S
C1344 C1343 1.524 . S
C1345 C1342 1.403 . S
C1345 C1346 1.392 . S
C1345 C1349 1.495 . S
C1346 C1345 1.392 . S
C1346 C1347 1.385 . S
C1346 C1348 1.478 . S
C1347 H1341 0.930 . S
C1347 C1343 1.400 . S
C1347 C1346 1.385 . S
C1348 C1346 1.478 . S
C1348 C1350 1.381 . S
C1348 C1354 1.383 . S
C1349 C1345 1.495 . S
C1349 H1355 0.959 . S
C1349 H1356 0.961 . S
C1349 H1357 0.960 . S
C1350 C1348 1.381 . S
C1350 C1351 1.394 . S
C1350 H1358 0.930 . S
C1351 C1350 1.394 . S
C1351 C1352 1.383 . S
C1351 H1359 0.929 . S
C1352 C1351 1.383 . S
C1352 C1353 1.377 . S
C1353 H1337 0.930 . S
C1353 C1352 1.377 . S
C1353 C1354 1.379 . S
C1354 H1338 0.931 . S
C1354 C1348 1.383 . S
C1354 C1353 1.379 . S
H1355 C1349 0.959 . S
H1356 C1349 0.961 . S
H1357 C1349 0.960 . S
H1358 C1350 0.930 . S
H1359 C1351 0.929 . S
H1360 C1368 0.940 . S
H1361 C1370 0.930 . S
H1362 C1372 0.930 . S
H1363 C1375 0.929 . S
H1364 C1378 0.930 . S
H1365 C1380 0.960 . S
H1366 C1380 0.960 . S
H1367 C1380 0.960 . S
C1368 H1360 0.940 . S
C1368 C1369 1.371 1_455 S
C1368 C1370 1.383 . S
C1369 C1368 1.371 1_655 S
C1369 C1375 1.398 . S
C1370 H1361 0.930 . S
C1370 C1368 1.383 . S
C1370 C1371 1.372 1_455 S
C1371 C1370 1.372 1_655 S
C1371 C1372 1.400 . S
C1371 C1376 1.490 . S
C1372 H1362 0.930 . S
C1372 C1371 1.400 . S
C1372 C1375 1.386 . S
H1373 C1389 0.930 . S
H1374 C1390 0.931 . S
C1375 H1363 0.929 . S
C1375 C1369 1.398 . S
C1375 C1372 1.386 . S
C1376 C1371 1.490 . S
C1376 C1378 1.395 . S
C1376 C1379 1.403 1_655 S
H1377 C1383 0.930 . S
C1378 H1364 0.930 . S
C1378 C1376 1.395 . S
C1378 C1381 1.403 . S
C1379 C1376 1.403 1_455 S
C1379 C1380 1.524 . S
C1379 C1383 1.400 . S
C1380 H1365 0.960 . S
C1380 H1366 0.960 . S
C1380 H1367 0.960 . S
C1380 C1379 1.524 . S
C1381 C1378 1.403 . S
C1381 C1382 1.392 . S
C1381 C1385 1.495 . S
C1382 C1381 1.392 . S
C1382 C1383 1.385 1_655 S
C1382 C1384 1.478 . S
C1383 H1377 0.930 . S
C1383 C1379 1.400 . S
C1383 C1382 1.385 1_455 S
C1384 C1382 1.478 . S
C1384 C1386 1.381 . S
C1384 C1390 1.383 . S
C1385 C1381 1.495 . S
C1385 H1391 0.959 . S
C1385 H1392 0.961 . S
C1385 H1393 0.960 . S
C1386 C1384 1.381 . S
C1386 C1387 1.394 . S
C1386 H1394 0.930 . S
C1387 C1386 1.394 . S
C1387 C1388 1.383 . S
C1387 H1395 0.929 . S
C1388 C1387 1.383 . S
C1388 C1389 1.377 . S
C1389 H1373 0.930 . S
C1389 C1388 1.377 . S
C1389 C1390 1.379 . S
C1390 H1374 0.931 . S
C1390 C1384 1.383 . S
C1390 C1389 1.379 . S
H1391 C1385 0.959 . S
H1392 C1385 0.961 . S
H1393 C1385 0.960 . S
H1394 C1386 0.930 . S
H1395 C1387 0.929 . S
H1396 C1404 0.929 . S
H1397 C1406 0.930 . S
H1398 C1408 0.930 . S
H1399 C1411 0.929 . S
H1400 C1414 0.930 . S
H1401 C1416 0.960 . S
H1402 C1416 0.960 . S
H1403 C1416 0.960 . S
C1404 H1396 0.929 . S
C1404 C1405 1.377 1_545 S
C1404 C1406 1.384 . S
C1405 C1404 1.377 1_565 S
C1405 C1411 1.390 . S
C1406 H1397 0.930 . S
C1406 C1404 1.384 . S
C1406 C1407 1.372 1_545 S
C1407 C1406 1.372 1_565 S
C1407 C1408 1.400 . S
C1407 C1412 1.490 . S
C1408 H1398 0.930 . S
C1408 C1407 1.400 . S
C1408 C1411 1.386 . S
H1409 C1425 0.930 . S
H1410 C1426 0.931 . S
C1411 H1399 0.929 . S
C1411 C1405 1.390 . S
C1411 C1408 1.386 . S
C1412 C1407 1.490 . S
C1412 C1414 1.395 1_565 S
C1412 C1415 1.403 . S
H1413 C1419 0.930 . S
C1414 H1400 0.930 . S
C1414 C1412 1.395 1_545 S
C1414 C1417 1.403 . S
C1415 C1412 1.403 . S
C1415 C1416 1.524 . S
C1415 C1419 1.400 . S
C1416 H1401 0.960 . S
C1416 H1402 0.960 . S
C1416 H1403 0.960 . S
C1416 C1415 1.524 . S
C1417 C1414 1.403 . S
C1417 C1418 1.336 1_545 S
C1417 C1421 1.495 . S
C1418 C1417 1.336 1_565 S
C1418 C1419 1.443 . S
C1418 C1420 1.481 . S
C1419 H1413 0.930 . S
C1419 C1415 1.400 . S
C1419 C1418 1.443 . S
C1420 C1418 1.481 . S
C1420 C1422 1.381 1_565 S
C1420 C1426 1.383 . S
C1421 C1417 1.495 . S
C1421 H1427 0.959 . S
C1421 H1428 0.961 . S
C1421 H1429 0.960 . S
C1422 C1420 1.381 1_545 S
C1422 C1423 1.395 . S
C1422 H1430 0.930 . S
C1423 C1422 1.395 . S
C1423 C1424 1.382 1_545 S
C1423 H1431 0.930 . S
C1424 C1423 1.382 1_565 S
C1424 C1425 1.377 . S
C1425 H1409 0.930 . S
C1425 C1424 1.377 . S
C1425 C1426 1.379 . S
C1426 H1410 0.931 . S
C1426 C1420 1.383 . S
C1426 C1425 1.379 . S
H1427 C1421 0.959 . S
H1428 C1421 0.961 . S
H1429 C1421 0.960 . S
H1430 C1422 0.930 . S
H1431 C1423 0.930 . S
H1432 C1440 0.929 . S
H1433 C1442 0.930 . S
H1434 C1444 0.930 . S
H1435 C1447 0.929 . S
H1436 C1450 0.930 . S
H1437 C1452 0.960 . S
H1438 C1452 0.960 . S
H1439 C1452 0.960 . S
C1440 H1432 0.929 . S
C1440 C1441 1.377 . S
C1440 C1442 1.384 . S
C1441 C1440 1.377 . S
C1441 C1447 1.390 . S
C1442 H1433 0.930 . S
C1442 C1440 1.384 . S
C1442 C1443 1.372 . S
C1443 C1442 1.372 . S
C1443 C1444 1.400 . S
C1443 C1448 1.490 . S
C1444 H1434 0.930 . S
C1444 C1443 1.400 . S
C1444 C1447 1.386 . S
H1445 C1461 0.930 . S
H1446 C1462 0.931 . S
C1447 H1435 0.929 . S
C1447 C1441 1.390 . S
C1447 C1444 1.386 . S
C1448 C1443 1.490 . S
C1448 C1450 1.395 . S
C1448 C1451 1.403 . S
H1449 C1455 0.930 . S
C1450 H1436 0.930 . S
C1450 C1448 1.395 . S
C1450 C1453 1.403 . S
C1451 C1448 1.403 . S
C1451 C1452 1.524 . S
C1451 C1455 1.400 . S
C1452 H1437 0.960 . S
C1452 H1438 0.960 . S
C1452 H1439 0.960 . S
C1452 C1451 1.524 . S
C1453 C1450 1.403 . S
C1453 C1454 1.392 . S
C1453 C1457 1.495 . S
C1454 C1453 1.392 . S
C1454 C1455 1.385 . S
C1454 C1456 1.478 . S
C1455 H1449 0.930 . S
C1455 C1451 1.400 . S
C1455 C1454 1.385 . S
C1456 C1454 1.478 . S
C1456 C1458 1.381 . S
C1456 C1462 1.383 . S
C1457 C1453 1.495 . S
C1457 H1463 0.959 . S
C1457 H1464 0.961 . S
C1457 H1465 0.960 . S
C1458 C1456 1.381 . S
C1458 C1459 1.394 . S
C1458 H1466 0.930 . S
C1459 C1458 1.394 . S
C1459 C1460 1.383 . S
C1459 H1467 0.929 . S
C1460 C1459 1.383 . S
C1460 C1461 1.377 . S
C1461 H1445 0.930 . S
C1461 C1460 1.377 . S
C1461 C1462 1.379 . S
C1462 H1446 0.931 . S
C1462 C1456 1.383 . S
C1462 C1461 1.379 . S
H1463 C1457 0.959 . S
H1464 C1457 0.961 . S
H1465 C1457 0.960 . S
H1466 C1458 0.930 . S
H1467 C1459 0.929 . S
H1468 C1476 0.929 . S
H1469 C1478 0.930 . S
H1470 C1480 0.930 . S
H1471 C1483 0.929 . S
H1472 C1486 0.930 . S
H1473 C1488 0.960 . S
H1474 C1488 0.960 . S
H1475 C1488 0.960 . S
C1476 H1468 0.929 . S
C1476 C1477 1.377 . S
C1476 C1478 1.384 . S
C1477 C1476 1.377 . S
C1477 C1483 1.390 . S
C1478 H1469 0.930 . S
C1478 C1476 1.384 . S
C1478 C1479 1.372 . S
C1479 C1478 1.372 . S
C1479 C1480 1.400 . S
C1479 C1484 1.490 . S
C1480 H1470 0.930 . S
C1480 C1479 1.400 . S
C1480 C1483 1.386 . S
H1481 C1497 0.930 . S
H1482 C1498 0.931 . S
C1483 H1471 0.929 . S
C1483 C1477 1.390 . S
C1483 C1480 1.386 . S
C1484 C1479 1.490 . S
C1484 C1486 1.395 . S
C1484 C1487 1.403 . S
H1485 C1491 0.930 . S
C1486 H1472 0.930 . S
C1486 C1484 1.395 . S
C1486 C1489 1.403 . S
C1487 C1484 1.403 . S
C1487 C1488 1.524 . S
C1487 C1491 1.400 . S
C1488 H1473 0.960 . S
C1488 H1474 0.960 . S
C1488 H1475 0.960 . S
C1488 C1487 1.524 . S
C1489 C1486 1.403 . S
C1489 C1490 1.392 . S
C1489 C1493 1.495 . S
C1490 C1489 1.392 . S
C1490 C1491 1.385 . S
C1490 C1492 1.478 . S
C1491 H1485 0.930 . S
C1491 C1487 1.400 . S
C1491 C1490 1.385 . S
C1492 C1490 1.478 . S
C1492 C1494 1.381 . S
C1492 C1498 1.383 . S
C1493 C1489 1.495 . S
C1493 H1499 0.959 . S
C1493 H1500 0.961 . S
C1493 H1501 0.960 . S
C1494 C1492 1.381 . S
C1494 C1495 1.394 . S
C1494 H1502 0.930 . S
C1495 C1494 1.394 . S
C1495 C1496 1.383 . S
C1495 H1503 0.929 . S
C1496 C1495 1.383 . S
C1496 C1497 1.377 . S
C1497 H1481 0.930 . S
C1497 C1496 1.377 . S
C1497 C1498 1.379 . S
C1498 H1482 0.931 . S
C1498 C1492 1.383 . S
C1498 C1497 1.379 . S
H1499 C1493 0.959 . S
H1500 C1493 0.961 . S
H1501 C1493 0.960 . S
H1502 C1494 0.930 . S
H1503 C1495 0.929 . S
C649 C391 2.019 . S
C668 C482 2.049 . S
C704 C522 2.065 . S
C685 C451 2.009 . S
C740 C562 2.055 . S
C721 C241 1.807 . S
C776 C602 2.067 1_455 S
C757 C331 1.798 . S
C812 C495 2.055 . S
C793 C121 1.802 1_545 S
C829 C211 2.022 . S
C848 C535 2.073 . S
C865 C31 2.018 . S
C884 C575 2.054 . S
C901 C91 1.804 1_455 S
C920 C615 2.064 1_655 S
C956 C506 0.134 . S
C937 C301 0.472 1_455 S
C992 C546 0.217 . S
C973 C380 0.112 . S
C1028 C586 0.230 . S
C1009 C440 0.113 . S
C1045 C260 0.472 . S
C1064 C626 0.152 . S
C1081 C61 0.418 . S
C1100 C489 0.212 . S
C1136 C529 0.289 . S
C1117 C140 0.394 . S
C1172 C569 0.200 . S
C1153 C200 0.238 . S
C1189 C20 0.250 . S
C1208 C609 0.287 . S
C1225 C320 2.651 1_455 S
C1244 C483 2.812 . S
C1261 C361 2.306 . S
C1280 C523 2.827 . S
C1316 C563 2.811 . S
C1297 C421 2.292 . S
C1352 C603 2.818 . S
C1333 C271 2.646 . S
C1369 C80 2.652 . S
C1388 C502 2.840 . S
C1424 C542 2.815 . S
C1405 C151 2.649 . S
C1460 C582 2.816 . S
C1441 C181 2.301 . S
C1477 C1 2.304 . S
C1496 C622 2.831 . S
