# Generated by pormake.
# Topology pto, (3,4)-cn, num edge types: 1
# Building blocks:
#     Node 0, Type 0, BuildingBlock: OLANEW_clean_sbu_2, # of connection points: 3
#     Node 1, Type 0, BuildingBlock: OLANEW_clean_sbu_2, # of connection points: 3
#     Node 2, Type 0, BuildingBlock: OLANEW_clean_sbu_2, # of connection points: 3
#     Node 3, Type 0, BuildingBlock: OLANEW_clean_sbu_2, # of connection points: 3
#     Node 4, Type 0, BuildingBlock: OLANEW_clean_sbu_2, # of connection points: 3
#     Node 5, Type 0, BuildingBlock: OLANEW_clean_sbu_2, # of connection points: 3
#     Node 6, Type 0, BuildingBlock: OLANEW_clean_sbu_2, # of connection points: 3
#     Node 7, Type 0, BuildingBlock: OLANEW_clean_sbu_2, # of connection points: 3
#     Node 8, Type 1, BuildingBlock: AZAVOO_clean_linker_0, # of connection points: 4
#     Node 9, Type 1, BuildingBlock: AZAVOO_clean_linker_0, # of connection points: 4
#     Node 10, Type 1, BuildingBlock: AZAVOO_clean_linker_0, # of connection points: 4
#     Node 11, Type 1, BuildingBlock: AZAVOO_clean_linker_0, # of connection points: 4
#     Node 12, Type 1, BuildingBlock: AZAVOO_clean_linker_0, # of connection points: 4
#     Node 13, Type 1, BuildingBlock: AZAVOO_clean_linker_0, # of connection points: 4
#     Edge 14, Type (0, 1), None
#     Edge 15, Type (0, 1), None
#     Edge 16, Type (0, 1), None
#     Edge 17, Type (0, 1), None
#     Edge 18, Type (0, 1), None
#     Edge 19, Type (0, 1), None
#     Edge 20, Type (0, 1), None
#     Edge 21, Type (0, 1), None
#     Edge 22, Type (0, 1), None
#     Edge 23, Type (0, 1), None
#     Edge 24, Type (0, 1), None
#     Edge 25, Type (0, 1), None
#     Edge 26, Type (0, 1), None
#     Edge 27, Type (0, 1), None
#     Edge 28, Type (0, 1), None
#     Edge 29, Type (0, 1), None
#     Edge 30, Type (0, 1), None
#     Edge 31, Type (0, 1), None
#     Edge 32, Type (0, 1), None
#     Edge 33, Type (0, 1), None
#     Edge 34, Type (0, 1), None
#     Edge 35, Type (0, 1), None
#     Edge 36, Type (0, 1), None
#     Edge 37, Type (0, 1), None
# Relax obj value: 0.089
# Max RMSD: 0.224
# Mean RMSD: 0.126
data_MOF--net-pto--node1-OLANEW_clean_sbu_2--node2-AZAVOO_clean_linker_0--edge1-none
_symmetry_space_group_name_H-M    P1
_symmetry_Int_Tables_number       1
_symmetry_cell_setting            triclinic
loop_
_symmetry_equiv_pos_as_xyz
'x, y, z'
_cell_length_a     24.771419
_cell_length_b     27.62399
_cell_length_c     27.64936
_cell_angle_alpha  93.090969
_cell_angle_beta   91.289389
_cell_angle_gamma 116.55172
loop_
_atom_site_label
_atom_site_type_symbol
_atom_site_fract_x
_atom_site_fract_y
_atom_site_fract_z
_atom_type_partial_charge
O0 O 0.27069 0.44852 0.20003 0.0
Cd1 Cd 0.2534 0.48164 0.2782 0.0
O2 O 0.35944 0.51883 0.19596 0.0
Cd3 Cd 0.33188 0.56481 0.24733 0.0
O4 O 0.2603 0.58523 0.26912 0.0
C5 C 0.22694 0.58764 0.23468 0.0
O6 O 0.2396 0.58053 0.18974 0.0
C7 C 0.32093 0.47142 0.18016 0.0
C8 C 0.29038 0.42876 0.3444 0.0
O9 O 0.23501 0.40944 0.32894 0.0
O10 O 0.32805 0.47458 0.33014 0.0
O11 O 0.35815 0.0636 0.86588 0.0
Cd12 Cd 0.28784 0.06201 0.80074 0.0
O13 O 0.30728 0.97715 0.88002 0.0
Cd14 Cd 0.24058 0.94577 0.81864 0.0
O15 O 0.17557 0.86924 0.78013 0.0
C16 C 0.13153 0.8387 0.80423 0.0
O17 O 0.12614 0.85643 0.84805 0.0
C18 C 0.35049 0.02401 0.89117 0.0
C19 C 0.3339 0.12309 0.72016 0.0
O20 O 0.33435 0.14633 0.76165 0.0
O21 O 0.31412 0.07145 0.71697 0.0
O22 O 0.9737 0.02573 0.38946 0.0
Cd23 Cd 0.04898 0.01724 0.33928 0.0
O24 O 0.91175 0.99678 0.32504 0.0
Cd25 Cd 0.83036 0.98496 0.28309 0.0
O26 O 0.76221 0.98768 0.23352 0.0
C27 C 0.77613 0.03165 0.21333 0.0
O28 O 0.82933 0.07283 0.22427 0.0
C29 C 0.92198 0.01323 0.36969 0.0
C30 C 0.02356 0.90886 0.32258 0.0
O31 O 0.05735 0.93796 0.35917 0.0
O32 O 0.00199 0.93123 0.2935 0.0
O33 O 0.71387 0.25884 0.79811 0.0
Cd34 Cd 0.6481 0.16441 0.81493 0.0
O35 O 0.67349 0.2568 0.72573 0.0
Cd36 Cd 0.58883 0.1907 0.7447 0.0
O37 O 0.52626 0.18929 0.79926 0.0
C38 C 0.54864 0.23421 0.82463 0.0
O39 O 0.60184 0.27189 0.81424 0.0
C40 C 0.7155 0.28082 0.75847 0.0
C41 C 0.65554 0.09911 0.73764 0.0
O42 O 0.60832 0.10638 0.74195 0.0
O43 O 0.69749 0.11997 0.77125 0.0
O44 O 0.7281 0.81747 0.57237 0.0
Cd45 Cd 0.70156 0.729 0.604 0.0
O46 O 0.74387 0.85967 0.64462 0.0
Cd47 Cd 0.74933 0.92568 0.69508 0.0
O48 O 0.73069 0.9674 0.75702 0.0
C49 C 0.70337 0.93724 0.79046 0.0
O50 O 0.68978 0.88543 0.78529 0.0
C51 C 0.7399 0.86042 0.5988 0.0
C52 C 0.79011 0.70915 0.65012 0.0
O53 O 0.78356 0.70573 0.60373 0.0
O54 O 0.75665 0.72459 0.6748 0.0
O55 O 0.65241 0.37402 0.28556 0.0
Cd56 Cd 0.56231 0.29234 0.2986 0.0
O57 O 0.64673 0.41345 0.35538 0.0
Cd58 Cd 0.54988 0.35938 0.35374 0.0
O59 O 0.48889 0.33717 0.28938 0.0
C60 C 0.50982 0.37248 0.25838 0.0
O61 O 0.55854 0.41784 0.27079 0.0
C62 C 0.67612 0.41265 0.31836 0.0
C63 C 0.59798 0.23109 0.35554 0.0
O64 O 0.58806 0.22019 0.3096 0.0
O65 O 0.58941 0.27012 0.37486 0.0
O66 O 0.32551 0.50842 0.86551 0.0
Cd67 Cd 0.33233 0.57165 0.80377 0.0
O68 O 0.23894 0.43567 0.84817 0.0
Cd69 Cd 0.23392 0.45532 0.77422 0.0
O70 O 0.25695 0.41184 0.71668 0.0
C71 C 0.30645 0.40879 0.72228 0.0
O72 O 0.34308 0.43496 0.76005 0.0
C73 C 0.2859 0.46187 0.87587 0.0
C74 C 0.22987 0.58642 0.78433 0.0
O75 O 0.26479 0.61075 0.82188 0.0
O76 O 0.24294 0.55475 0.7568 0.0
O77 O 0.51747 0.05264 0.27022 0.0
Cd78 Cd 0.47877 0.02148 0.3509 0.0
O79 O 0.42599 0.99651 0.24418 0.0
Cd80 Cd 0.34708 0.94621 0.19673 0.0
O81 O 0.25889 0.87721 0.1991 0.0
C82 C 0.25239 0.85254 0.23765 0.0
O83 O 0.29803 0.86986 0.2699 0.0
C84 C 0.47977 0.02849 0.23464 0.0
C85 C 0.44211 0.08445 0.41213 0.0
O86 O 0.49559 0.08867 0.41621 0.0
O87 O 0.40588 0.05094 0.3787 0.0
H88 H 0.92336 0.29398 0.30789 0.0
H89 H 0.63231 0.67179 0.30918 0.0
H90 H 0.08448 0.59551 0.33728 0.0
H91 H 0.17442 0.58284 0.32136 0.0
H92 H 0.15778 0.61071 0.17054 0.0
H93 H 0.06831 0.62382 0.18709 0.0
H94 H 0.94247 0.51038 0.35494 0.0
H95 H 0.93057 0.41733 0.34958 0.0
H96 H 0.95154 0.42464 0.19488 0.0
H97 H 0.96295 0.51748 0.20073 0.0
H98 H 0.85062 0.56481 0.3758 0.0
H99 H 0.75011 0.49115 0.38678 0.0
H100 H 0.73929 0.43415 0.23637 0.0
H101 H 0.8387 0.50865 0.22553 0.0
H102 H 0.90035 0.68894 0.37935 0.0
H103 H 0.81358 0.70596 0.39659 0.0
H104 H 0.73316 0.63419 0.25403 0.0
H105 H 0.82044 0.61796 0.23712 0.0
H106 H 0.04106 0.75588 0.36445 0.0
H107 H 0.06211 0.85085 0.37839 0.0
H108 H 0.95439 0.83634 0.24811 0.0
H109 H 0.93407 0.74109 0.23434 0.0
H110 H 0.12944 0.71617 0.33277 0.0
H111 H 0.22616 0.79129 0.31588 0.0
H112 H 0.14716 0.80944 0.18111 0.0
H113 H 0.05063 0.73384 0.19838 0.0
O114 O 0.92703 0.33042 0.30913 0.0
O115 O 0.93413 0.33503 0.22931 0.0
O116 O 0.71087 0.70293 0.37594 0.0
O117 O 0.66733 0.66588 0.30323 0.0
C118 C 0.01749 0.62058 0.27367 0.0
C119 C 0.961 0.57712 0.28163 0.0
C120 C 0.91157 0.58757 0.29269 0.0
C121 C 0.91899 0.64149 0.29663 0.0
C122 C 0.976 0.68487 0.28979 0.0
C123 C 0.0247 0.67426 0.27706 0.0
C124 C 0.07 0.61033 0.26326 0.0
C125 C 0.10028 0.59861 0.30082 0.0
C126 C 0.15176 0.59176 0.29171 0.0
C127 C 0.17329 0.59601 0.24473 0.0
C128 C 0.14231 0.60721 0.2071 0.0
C129 C 0.09121 0.61458 0.21638 0.0
C130 C 0.95371 0.52064 0.27826 0.0
C131 C 0.94435 0.49172 0.31994 0.0
C132 C 0.93766 0.43864 0.31677 0.0
C133 C 0.94019 0.41356 0.2718 0.0
C134 C 0.9494 0.44273 0.23007 0.0
C135 C 0.95611 0.4958 0.23332 0.0
C136 C 0.85176 0.54196 0.29987 0.0
C137 C 0.82628 0.53643 0.34528 0.0
C138 C 0.76902 0.49439 0.35147 0.0
C139 C 0.73689 0.45689 0.31246 0.0
C140 C 0.76305 0.46224 0.26721 0.0
C141 C 0.81984 0.50464 0.26091 0.0
C142 C 0.8667 0.65237 0.30697 0.0
C143 C 0.8641 0.67725 0.35182 0.0
C144 C 0.81442 0.68676 0.3616 0.0
C145 C 0.76639 0.6714 0.32666 0.0
C146 C 0.7693 0.64651 0.28173 0.0
C147 C 0.81907 0.63715 0.27198 0.0
C148 C 0.98615 0.7418 0.29841 0.0
C149 C 0.02202 0.77329 0.33898 0.0
C150 C 0.03396 0.8275 0.34684 0.0
C151 C 0.01007 0.85118 0.31426 0.0
C152 C 0.97352 0.81928 0.27382 0.0
C153 C 0.96169 0.76493 0.26594 0.0
C154 C 0.08334 0.71965 0.26672 0.0
C155 C 0.13328 0.73625 0.29952 0.0
C156 C 0.18836 0.7792 0.28979 0.0
C157 C 0.1943 0.80628 0.2471 0.0
C158 C 0.14405 0.78935 0.21424 0.0
C159 C 0.08895 0.74635 0.22405 0.0
C160 C 0.93354 0.35732 0.26859 0.0
C161 C 0.71334 0.68112 0.33694 0.0
H162 H 0.10819 0.35129 0.82317 0.0
H163 H 0.55409 0.45466 0.62943 0.0
H164 H 0.0716 0.62319 0.82997 0.0
H165 H 0.17103 0.62604 0.84561 0.0
H166 H 0.16486 0.56209 0.69834 0.0
H167 H 0.06681 0.56072 0.68286 0.0
H168 H 0.00469 0.50459 0.8316 0.0
H169 H 0.05075 0.44372 0.84287 0.0
H170 H 0.00348 0.38247 0.6928 0.0
H171 H 0.95836 0.44422 0.68185 0.0
H172 H 0.86978 0.44577 0.81951 0.0
H173 H 0.79593 0.35203 0.82784 0.0
H174 H 0.74355 0.3349 0.67523 0.0
H175 H 0.8193 0.42861 0.66699 0.0
H176 H 0.78071 0.50398 0.79058 0.0
H177 H 0.67263 0.47234 0.77194 0.0
H178 H 0.70881 0.50423 0.62164 0.0
H179 H 0.81661 0.53507 0.64068 0.0
H180 H 0.84186 0.63323 0.77786 0.0
H181 H 0.78936 0.68164 0.74371 0.0
H182 H 0.88074 0.69232 0.61044 0.0
H183 H 0.93357 0.64469 0.64521 0.0
H184 H 0.96358 0.67401 0.81812 0.0
H185 H 0.02869 0.76869 0.8441 0.0
H186 H 0.13998 0.78102 0.72266 0.0
H187 H 0.07369 0.68541 0.69664 0.0
O188 O 0.08832 0.374 0.81824 0.0
O189 O 0.06074 0.34215 0.74144 0.0
O190 O 0.58025 0.45019 0.7153 0.0
O191 O 0.59655 0.46692 0.63781 0.0
C192 C 0.99645 0.57544 0.74916 0.0
C193 C 0.9555 0.51951 0.74795 0.0
C194 C 0.89306 0.50211 0.73903 0.0
C195 C 0.87188 0.5403 0.72838 0.0
C196 C 0.91281 0.59619 0.72968 0.0
C197 C 0.97463 0.61409 0.74267 0.0
C198 C 0.06208 0.59172 0.75531 0.0
C199 C 0.09291 0.61184 0.80068 0.0
C200 C 0.14932 0.61285 0.80964 0.0
C201 C 0.17501 0.59314 0.77347 0.0
C202 C 0.14581 0.57674 0.72714 0.0
C203 C 0.09013 0.57653 0.71805 0.0
C204 C 0.97854 0.47903 0.75585 0.0
C205 C 0.00419 0.47787 0.80126 0.0
C206 C 0.03047 0.44306 0.80758 0.0
C207 C 0.03114 0.40844 0.76865 0.0
C208 C 0.00391 0.40872 0.7235 0.0
C209 C 0.97784 0.44373 0.71719 0.0
C210 C 0.84977 0.44413 0.74272 0.0
C211 C 0.84301 0.42153 0.78772 0.0
C212 C 0.80072 0.36793 0.79238 0.0
C213 C 0.76369 0.33603 0.75221 0.0
C214 C 0.77123 0.35849 0.7069 0.0
C215 C 0.81427 0.41201 0.70214 0.0
C216 C 0.80643 0.52188 0.717 0.0
C217 C 0.76514 0.50403 0.75366 0.0
C218 C 0.70347 0.48604 0.74291 0.0
C219 C 0.68204 0.48576 0.69525 0.0
C220 C 0.72373 0.50392 0.65868 0.0
C221 C 0.78535 0.52171 0.66947 0.0
C222 C 0.89119 0.63527 0.71387 0.0
C223 C 0.85181 0.64753 0.74187 0.0
C224 C 0.8219 0.67515 0.72226 0.0
C225 C 0.83044 0.69021 0.67416 0.0
C226 C 0.87297 0.68094 0.64747 0.0
C227 C 0.9034 0.65401 0.66733 0.0
C228 C 0.01393 0.67269 0.75559 0.0
C229 C 0.00167 0.69724 0.79679 0.0
C230 C 0.03907 0.75142 0.81164 0.0
C231 C 0.08971 0.78249 0.78556 0.0
C232 C 0.10125 0.75823 0.74349 0.0
C233 C 0.06367 0.70362 0.72868 0.0
C234 C 0.06077 0.37273 0.77511 0.0
C235 C 0.61654 0.46652 0.6836 0.0
H236 H 0.32786 0.14383 0.21298 0.0
H237 H 0.40529 0.61651 0.59012 0.0
H238 H 0.30009 0.13875 0.46574 0.0
H239 H 0.32831 0.07487 0.42197 0.0
H240 H 0.51404 0.17157 0.47412 0.0
H241 H 0.4852 0.23514 0.51791 0.0
H242 H 0.27689 0.21425 0.40256 0.0
H243 H 0.27994 0.17916 0.32007 0.0
H244 H 0.47307 0.23927 0.34056 0.0
H245 H 0.47024 0.27749 0.4217 0.0
H246 H 0.25114 0.28586 0.44107 0.0
H247 H 0.21951 0.33499 0.38535 0.0
H248 H 0.40591 0.45345 0.37687 0.0
H249 H 0.43712 0.40314 0.43257 0.0
H250 H 0.26373 0.3498 0.53108 0.0
H251 H 0.25916 0.43543 0.55037 0.0
H252 H 0.45432 0.51881 0.5664 0.0
H253 H 0.45811 0.4329 0.54701 0.0
H254 H 0.256 0.27117 0.60084 0.0
H255 H 0.2296 0.32049 0.66466 0.0
H256 H 0.41924 0.4226 0.7008 0.0
H257 H 0.44521 0.37428 0.63551 0.0
H258 H 0.29224 0.14795 0.56202 0.0
H259 H 0.27751 0.09187 0.63061 0.0
H260 H 0.42491 0.22494 0.7115 0.0
H261 H 0.44261 0.28001 0.64131 0.0
O262 O 0.32763 0.15869 0.24544 0.0
O263 O 0.42664 0.18871 0.2587 0.0
O264 O 0.30552 0.53742 0.5735 0.0
O265 O 0.40575 0.58217 0.58204 0.0
C266 C 0.37756 0.23816 0.5075 0.0
C267 C 0.37111 0.26747 0.46893 0.0
C268 C 0.36294 0.31412 0.47903 0.0
C269 C 0.36427 0.33328 0.52729 0.0
C270 C 0.36625 0.3024 0.56579 0.0
C271 C 0.37251 0.25415 0.55626 0.0
C272 C 0.39052 0.19149 0.49521 0.0
C273 C 0.34643 0.14494 0.46924 0.0
C274 C 0.36282 0.10894 0.44366 0.0
C275 C 0.42355 0.11863 0.44396 0.0
C276 C 0.46686 0.163 0.4731 0.0
C277 C 0.45039 0.19907 0.49865 0.0
C278 C 0.37347 0.24932 0.4178 0.0
C279 C 0.32009 0.22128 0.38864 0.0
C280 C 0.32188 0.2007 0.34172 0.0
C281 C 0.37699 0.20693 0.32352 0.0
C282 C 0.43023 0.23469 0.35312 0.0
C283 C 0.42863 0.25638 0.39954 0.0
C284 C 0.34645 0.34032 0.43987 0.0
C285 C 0.28524 0.32166 0.42617 0.0
C286 C 0.26723 0.35018 0.39481 0.0
C287 C 0.31015 0.39835 0.37698 0.0
C288 C 0.37175 0.4166 0.39021 0.0
C289 C 0.38977 0.38772 0.42151 0.0
C290 C 0.36124 0.38535 0.53764 0.0
C291 C 0.30538 0.3867 0.53854 0.0
C292 C 0.30294 0.4356 0.54967 0.0
C293 C 0.35642 0.48399 0.55998 0.0
C294 C 0.41231 0.48235 0.55866 0.0
C295 C 0.41465 0.43342 0.54753 0.0
C296 C 0.35252 0.31836 0.61421 0.0
C297 C 0.29181 0.30281 0.62375 0.0
C298 C 0.27683 0.33178 0.65945 0.0
C299 C 0.32241 0.3759 0.68702 0.0
C300 C 0.38324 0.38887 0.6799 0.0
C301 C 0.3982 0.3607 0.6433 0.0
C302 C 0.36836 0.21855 0.59632 0.0
C303 C 0.32286 0.16467 0.59377 0.0
C304 C 0.31425 0.13263 0.63312 0.0
C305 C 0.34979 0.15429 0.67643 0.0
C306 C 0.39661 0.20746 0.67859 0.0
C307 C 0.4064 0.23904 0.63863 0.0
C308 C 0.37882 0.18425 0.27402 0.0
C309 C 0.3541 0.536 0.5722 0.0
H310 H 0.44212 0.0563 0.72023 0.0
H311 H 0.9071 0.94223 0.04373 0.0
H312 H 0.53316 0.12234 0.97827 0.0
H313 H 0.44843 0.11733 0.92798 0.0
H314 H 0.35277 0.94533 0.94568 0.0
H315 H 0.43775 0.95076 0.99498 0.0
H316 H 0.59213 0.10834 0.89973 0.0
H317 H 0.53797 0.1024 0.82284 0.0
H318 H 0.44381 0.92807 0.82642 0.0
H319 H 0.49703 0.93464 0.90417 0.0
H320 H 0.69011 0.07645 0.88473 0.0
H321 H 0.72155 0.04178 0.8125 0.0
H322 H 0.64562 0.88224 0.86733 0.0
H323 H 0.61458 0.91714 0.93878 0.0
H324 H 0.76981 0.09068 0.97887 0.0
H325 H 0.86148 0.07818 0.98518 0.0
H326 H 0.76023 0.92514 0.04818 0.0
H327 H 0.66887 0.93789 0.04112 0.0
H328 H 0.73788 0.11505 0.08488 0.0
H329 H 0.80072 0.11341 0.15346 0.0
H330 H 0.65944 0.9579 0.18697 0.0
H331 H 0.59738 0.95945 0.11732 0.0
H332 H 0.61599 0.118 0.11903 0.0
H333 H 0.57525 0.1139 0.19922 0.0
H334 H 0.43265 0.95445 0.15642 0.0
H335 H 0.47284 0.95913 0.07658 0.0
O336 O 0.46335 0.05739 0.75039 0.0
O337 O 0.41668 0.96769 0.75331 0.0
O338 O 0.9215 0.02693 0.00788 0.0
O339 O 0.87153 0.94812 0.04063 0.0
C340 C 0.54988 0.03471 0.99861 0.0
C341 C 0.57703 0.02629 0.95634 0.0
C342 C 0.62938 0.01878 0.9603 0.0
C343 C 0.65751 0.02337 0.00622 0.0
C344 C 0.63193 0.03342 0.0486 0.0
C345 C 0.57672 0.03731 0.04526 0.0
C346 C 0.49159 0.03718 0.99141 0.0
C347 C 0.4923 0.08435 0.97409 0.0
C348 C 0.44425 0.08112 0.94417 0.0
C349 C 0.39458 0.03063 0.9314 0.0
C350 C 0.39066 0.98483 0.95407 0.0
C351 C 0.43882 0.98805 0.98357 0.0
C352 C 0.54815 0.02195 0.90753 0.0
C353 C 0.56009 0.06889 0.88365 0.0
C354 C 0.52913 0.06541 0.83976 0.0
C355 C 0.48671 0.01485 0.81841 0.0
C356 C 0.47617 0.96768 0.84187 0.0
C357 C 0.50664 0.97126 0.88612 0.0
C358 C 0.6503 0.99926 0.91695 0.0
C359 C 0.68052 0.03409 0.88099 0.0
C360 C 0.69836 0.01423 0.83985 0.0
C361 C 0.68598 0.95925 0.83414 0.0
C362 C 0.65591 0.92477 0.87052 0.0
C363 C 0.63823 0.9446 0.91145 0.0
C364 C 0.71294 0.01541 0.00989 0.0
C365 C 0.76759 0.05447 0.99393 0.0
C366 C 0.81984 0.04725 0.99765 0.0
C367 C 0.81822 0.00071 0.01735 0.0
C368 C 0.76313 0.9615 0.03299 0.0
C369 C 0.71093 0.96874 0.02914 0.0
C370 C 0.66311 0.03744 0.09621 0.0
C371 C 0.72001 0.08123 0.10773 0.0
C372 C 0.75597 0.08 0.14673 0.0
C373 C 0.73532 0.03521 0.17532 0.0
C374 C 0.67676 0.99281 0.16542 0.0
C375 C 0.64094 0.99388 0.12605 0.0
C376 C 0.5461 0.03984 0.0906 0.0
C377 C 0.57429 0.08325 0.12605 0.0
C378 C 0.55134 0.08057 0.17223 0.0
C379 C 0.49961 0.03443 0.18402 0.0
C380 C 0.4707 0.99166 0.14814 0.0
C381 C 0.49373 0.99432 0.10208 0.0
C382 C 0.45341 0.01165 0.77208 0.0
C383 C 0.87363 0.99292 0.02157 0.0
H384 H 0.68783 0.12155 0.22611 0.0
H385 H 0.52505 0.23262 0.67046 0.0
H386 H 0.72374 0.97213 0.40374 0.0
H387 H 0.79903 0.953 0.36169 0.0
H388 H 0.94215 0.09102 0.4418 0.0
H389 H 0.86662 0.10919 0.48425 0.0
H390 H 0.68571 0.03094 0.35844 0.0
H391 H 0.70372 0.0647 0.2775 0.0
H392 H 0.82787 0.22378 0.34071 0.0
H393 H 0.80868 0.18977 0.4217 0.0
H394 H 0.61411 0.07489 0.38536 0.0
H395 H 0.58153 0.12827 0.33556 0.0
H396 H 0.66378 0.26415 0.44199 0.0
H397 H 0.70356 0.21308 0.48867 0.0
H398 H 0.55132 0.06227 0.50272 0.0
H399 H 0.48766 0.09497 0.54631 0.0
H400 H 0.64553 0.21363 0.62998 0.0
H401 H 0.70844 0.18008 0.5866 0.0
H402 H 0.58783 0.0098 0.5859 0.0
H403 H 0.57094 0.02626 0.67107 0.0
H404 H 0.76312 0.12369 0.69878 0.0
H405 H 0.77893 0.11104 0.61351 0.0
H406 H 0.66256 0.93677 0.48905 0.0
H407 H 0.66802 0.85927 0.52334 0.0
H408 H 0.81391 0.96828 0.62295 0.0
H409 H 0.81047 0.04615 0.58646 0.0
O410 O 0.72757 0.14954 0.22031 0.0
O411 O 0.82124 0.20738 0.24535 0.0
O412 O 0.46874 0.15602 0.60957 0.0
O413 O 0.5489 0.2189 0.65238 0.0
C414 C 0.74551 0.05732 0.46897 0.0
C415 C 0.7256 0.0906 0.44489 0.0
C416 C 0.68682 0.10881 0.4678 0.0
C417 C 0.67245 0.09744 0.51636 0.0
C418 C 0.69363 0.06495 0.54083 0.0
C419 C 0.72741 0.04253 0.51612 0.0
C420 C 0.78998 0.04233 0.44652 0.0
C421 C 0.77137 0.99802 0.41219 0.0
C422 C 0.81433 0.98764 0.38784 0.0
C423 C 0.87633 0.02164 0.3974 0.0
C424 C 0.89465 0.06449 0.43344 0.0
C425 C 0.85172 0.07489 0.45768 0.0
C426 C 0.74603 0.10789 0.39588 0.0
C427 C 0.71801 0.07269 0.35467 0.0
C428 C 0.72768 0.0923 0.30851 0.0
C429 C 0.76661 0.14714 0.30282 0.0
C430 C 0.79764 0.18137 0.344 0.0
C431 C 0.78701 0.162 0.39021 0.0
C432 C 0.66189 0.14006 0.44055 0.0
C433 C 0.62658 0.11663 0.39743 0.0
C434 C 0.60751 0.14693 0.36916 0.0
C435 C 0.61956 0.19992 0.38519 0.0
C436 C 0.65316 0.22298 0.42917 0.0
C437 C 0.67537 0.19369 0.45608 0.0
C438 C 0.63439 0.11883 0.54153 0.0
C439 C 0.57201 0.09545 0.53035 0.0
C440 C 0.5358 0.11414 0.55536 0.0
C441 C 0.56155 0.15701 0.5916 0.0
C442 C 0.62423 0.18058 0.60235 0.0
C443 C 0.66029 0.16155 0.5776 0.0
C444 C 0.6847 0.05898 0.59348 0.0
C445 C 0.62638 0.03313 0.61079 0.0
C446 C 0.6168 0.04254 0.65934 0.0
C447 C 0.66575 0.07635 0.69134 0.0
C448 C 0.72464 0.09698 0.67507 0.0
C449 C 0.73388 0.08931 0.62631 0.0
C450 C 0.73502 0.99707 0.53608 0.0
C451 C 0.69614 0.94401 0.51795 0.0
C452 C 0.69935 0.89986 0.53751 0.0
C453 C 0.74067 0.90792 0.57632 0.0
C454 C 0.78075 0.9611 0.59376 0.0
C455 C 0.77858 0.0055 0.57318 0.0
C456 C 0.77361 0.16943 0.25443 0.0
C457 C 0.52339 0.17712 0.61825 0.0
H458 H 0.37494 0.29142 0.72816 0.0
H459 H 0.65177 0.16874 0.04906 0.0
H460 H 0.42418 0.44582 0.9797 0.0
H461 H 0.38981 0.49953 0.93269 0.0
H462 H 0.21577 0.35981 0.9052 0.0
H463 H 0.25041 0.30673 0.95423 0.0
H464 H 0.43052 0.36617 0.88256 0.0
H465 H 0.39284 0.34449 0.79764 0.0
H466 H 0.24397 0.19639 0.83727 0.0
H467 H 0.28166 0.21918 0.92218 0.0
H468 H 0.5364 0.34664 0.94926 0.0
H469 H 0.58971 0.32487 0.88567 0.0
H470 H 0.43465 0.16923 0.8537 0.0
H471 H 0.3819 0.19089 0.91948 0.0
H472 H 0.56226 0.36133 0.05083 0.0
H473 H 0.64125 0.33363 0.06762 0.0
H474 H 0.50849 0.16546 0.04951 0.0
H475 H 0.42953 0.19363 0.03254 0.0
H476 H 0.51874 0.41511 0.09815 0.0
H477 H 0.55374 0.4362 0.18321 0.0
H478 H 0.41177 0.28166 0.21825 0.0
H479 H 0.37673 0.26112 0.13231 0.0
H480 H 0.45101 0.45437 0.0699 0.0
H481 H 0.42354 0.5073 0.1293 0.0
H482 H 0.25202 0.3671 0.14346 0.0
H483 H 0.28048 0.31462 0.08435 0.0
O484 O 0.33177 0.27054 0.72265 0.0
O485 O 0.24031 0.22342 0.74892 0.0
O486 O 0.6799 0.26254 0.08148 0.0
O487 O 0.61989 0.17989 0.04818 0.0
C488 C 0.36623 0.33878 0.99097 0.0
C489 C 0.38214 0.30597 0.95941 0.0
C490 C 0.42343 0.28733 0.97574 0.0
C491 C 0.44385 0.29658 0.0251 0.0
C492 C 0.42369 0.32546 0.0576 0.0
C493 C 0.38614 0.34762 0.04018 0.0
C494 C 0.33982 0.37239 0.97034 0.0
C495 C 0.37782 0.42738 0.96518 0.0
C496 C 0.35809 0.45801 0.93806 0.0
C497 C 0.30025 0.43386 0.91463 0.0
C498 C 0.26067 0.37964 0.92268 0.0
C499 C 0.28034 0.34914 0.95049 0.0
C500 C 0.35885 0.29407 0.90819 0.0
C501 C 0.38978 0.32915 0.8727 0.0
C502 C 0.36843 0.31633 0.8242 0.0
C503 C 0.31594 0.2681 0.81058 0.0
C504 C 0.28452 0.23374 0.84661 0.0
C505 C 0.30596 0.24657 0.89501 0.0
C506 C 0.45565 0.27015 0.93935 0.0
C507 C 0.51432 0.30733 0.92926 0.0
C508 C 0.5445 0.29493 0.89257 0.0
C509 C 0.51631 0.24524 0.86463 0.0
C510 C 0.45751 0.20766 0.87489 0.0
C511 C 0.4274 0.21994 0.91228 0.0
C512 C 0.48995 0.27953 0.04124 0.0
C513 C 0.54991 0.31854 0.0518 0.0
C514 C 0.59509 0.30261 0.06094 0.0
C515 C 0.5812 0.24731 0.05907 0.0
C516 C 0.52075 0.20831 0.05005 0.0
C517 C 0.47552 0.2243 0.04097 0.0
C518 C 0.44557 0.33652 0.10917 0.0
C519 C 0.49521 0.38584 0.12421 0.0
C520 C 0.51488 0.39787 0.17291 0.0
C521 C 0.48542 0.36059 0.20755 0.0
C522 C 0.43534 0.31115 0.19241 0.0
C523 C 0.41551 0.29923 0.14345 0.0
C524 C 0.36794 0.38063 0.07352 0.0
C525 C 0.40747 0.43532 0.08582 0.0
C526 C 0.39161 0.46547 0.11958 0.0
C527 C 0.33576 0.44131 0.14129 0.0
C528 C 0.29544 0.3869 0.12747 0.0
C529 C 0.31151 0.35679 0.09382 0.0
C530 C 0.29376 0.25304 0.75903 0.0
C531 C 0.62993 0.23043 0.06412 0.0
loop_
_geom_bond_atom_site_label_1
_geom_bond_atom_site_label_2
_geom_bond_distance
_geom_bond_site_symmetry_2
_ccdc_geom_bond_type
O0 Cd1 2.300 . S
O0 C7 1.275 . S
Cd1 O0 2.300 . S
Cd1 O9 2.381 . S
Cd1 O10 2.378 . S
O2 Cd3 2.385 . S
O2 C7 1.255 . S
Cd3 O2 2.385 . S
Cd3 O4 2.317 . S
O4 Cd3 2.317 . S
O4 C5 1.232 . S
C5 O4 1.232 . S
C5 O6 1.218 . S
O6 C5 1.218 . S
C7 O0 1.275 . S
C7 O2 1.255 . S
C8 O9 1.258 . S
C8 O10 1.256 . S
O9 Cd1 2.381 . S
O9 C8 1.258 . S
O10 Cd1 2.378 . S
O10 C8 1.256 . S
O11 Cd12 2.300 . S
O11 C18 1.275 . S
Cd12 O11 2.300 . S
Cd12 O20 2.381 . S
Cd12 O21 2.378 . S
O13 Cd14 2.385 . S
O13 C18 1.255 1_565 S
Cd14 O13 2.385 . S
Cd14 O15 2.317 . S
O15 Cd14 2.317 . S
O15 C16 1.232 . S
C16 O15 1.232 . S
C16 O17 1.218 . S
O17 C16 1.218 . S
C18 O11 1.275 . S
C18 O13 1.255 1_545 S
C19 O20 1.258 . S
C19 O21 1.256 . S
O20 Cd12 2.381 . S
O20 C19 1.258 . S
O21 Cd12 2.378 . S
O21 C19 1.256 . S
O22 Cd23 2.300 . S
O22 C29 1.275 . S
Cd23 O22 2.300 . S
Cd23 O31 2.381 . S
Cd23 O32 2.378 . S
O24 Cd25 2.385 . S
O24 C29 1.255 . S
Cd25 O24 2.385 . S
Cd25 O26 2.317 . S
O26 Cd25 2.317 . S
O26 C27 1.232 . S
C27 O26 1.232 . S
C27 O28 1.218 . S
O28 C27 1.218 . S
C29 O22 1.275 . S
C29 O24 1.255 . S
C30 O31 1.258 . S
C30 O32 1.256 . S
O31 Cd23 2.381 . S
O31 C30 1.258 . S
O32 Cd23 2.378 . S
O32 C30 1.256 . S
O33 Cd34 2.300 . S
O33 C40 1.275 . S
Cd34 O33 2.300 . S
Cd34 O42 2.381 . S
Cd34 O43 2.378 . S
O35 Cd36 2.385 . S
O35 C40 1.255 . S
Cd36 O35 2.385 . S
Cd36 O37 2.317 . S
O37 Cd36 2.317 . S
O37 C38 1.232 . S
C38 O37 1.232 . S
C38 O39 1.218 . S
O39 C38 1.218 . S
C40 O33 1.275 . S
C40 O35 1.255 . S
C41 O42 1.258 . S
C41 O43 1.256 . S
O42 Cd34 2.381 . S
O42 C41 1.258 . S
O43 Cd34 2.378 . S
O43 C41 1.256 . S
O44 Cd45 2.300 . S
O44 C51 1.275 . S
Cd45 O44 2.300 . S
Cd45 O53 2.381 . S
Cd45 O54 2.378 . S
O46 Cd47 2.385 . S
O46 C51 1.255 . S
Cd47 O46 2.385 . S
Cd47 O48 2.317 . S
O48 Cd47 2.317 . S
O48 C49 1.232 . S
C49 O48 1.232 . S
C49 O50 1.218 . S
O50 C49 1.218 . S
C51 O44 1.275 . S
C51 O46 1.255 . S
C52 O53 1.258 . S
C52 O54 1.256 . S
O53 Cd45 2.381 . S
O53 C52 1.258 . S
O54 Cd45 2.378 . S
O54 C52 1.256 . S
O55 Cd56 2.300 . S
O55 C62 1.275 . S
Cd56 O55 2.300 . S
Cd56 O64 2.381 . S
Cd56 O65 2.378 . S
O57 Cd58 2.385 . S
O57 C62 1.255 . S
Cd58 O57 2.385 . S
Cd58 O59 2.317 . S
O59 Cd58 2.317 . S
O59 C60 1.232 . S
C60 O59 1.232 . S
C60 O61 1.218 . S
O61 C60 1.218 . S
C62 O55 1.275 . S
C62 O57 1.255 . S
C63 O64 1.258 . S
C63 O65 1.256 . S
O64 Cd56 2.381 . S
O64 C63 1.258 . S
O65 Cd56 2.378 . S
O65 C63 1.256 . S
O66 Cd67 2.300 . S
O66 C73 1.275 . S
Cd67 O66 2.300 . S
Cd67 O75 2.381 . S
Cd67 O76 2.378 . S
O68 Cd69 2.385 . S
O68 C73 1.255 . S
Cd69 O68 2.385 . S
Cd69 O70 2.317 . S
O70 Cd69 2.317 . S
O70 C71 1.232 . S
C71 O70 1.232 . S
C71 O72 1.218 . S
O72 C71 1.218 . S
C73 O66 1.275 . S
C73 O68 1.255 . S
C74 O75 1.258 . S
C74 O76 1.256 . S
O75 Cd67 2.381 . S
O75 C74 1.258 . S
O76 Cd67 2.378 . S
O76 C74 1.256 . S
O77 Cd78 2.300 . S
O77 C84 1.275 1_545 S
Cd78 O77 2.300 . S
Cd78 O86 2.381 . S
Cd78 O87 2.378 . S
O79 Cd80 2.385 . S
O79 C84 1.255 . S
Cd80 O79 2.385 . S
Cd80 O81 2.317 . S
O81 Cd80 2.317 . S
O81 C82 1.232 . S
C82 O81 1.232 . S
C82 O83 1.218 . S
O83 C82 1.218 . S
C84 O77 1.275 1_565 S
C84 O79 1.255 . S
C85 O86 1.258 . S
C85 O87 1.256 . S
O86 Cd78 2.381 . S
O86 C85 1.258 . S
O87 Cd78 2.378 . S
O87 C85 1.256 . S
H88 O114 0.856 . S
H89 O117 0.854 . S
H90 C125 0.930 . S
H91 C126 0.930 . S
H92 C128 0.930 . S
H93 C129 0.930 . S
H94 C131 0.931 . S
H95 C132 0.930 . S
H96 C134 0.930 . S
H97 C135 0.929 . S
H98 C137 0.930 . S
H99 C138 0.931 . S
H100 C140 0.930 . S
H101 C141 0.929 . S
H102 C143 0.931 . S
H103 C144 0.930 . S
H104 C146 0.930 . S
H105 C147 0.932 . S
H106 C149 0.930 . S
H107 C150 0.929 . S
H108 C152 0.931 . S
H109 C153 0.930 . S
H110 C155 0.929 . S
H111 C156 0.931 . S
H112 C158 0.930 . S
H113 C159 0.929 . S
O114 H88 0.856 . S
O114 C160 1.300 . S
O115 C160 1.209 . S
O116 C161 1.199 . S
O117 H89 0.854 . S
O117 C161 1.297 . S
C118 C119 1.404 . S
C118 C123 1.397 . S
C118 C124 1.492 1_655 S
C119 C118 1.404 . S
C119 C120 1.396 . S
C119 C130 1.492 . S
C120 C119 1.396 . S
C120 C121 1.397 . S
C120 C136 1.509 . S
C121 C120 1.397 . S
C121 C122 1.412 . S
C121 C142 1.485 . S
C122 C121 1.412 . S
C122 C123 1.388 . S
C122 C148 1.490 . S
C123 C118 1.397 . S
C123 C122 1.388 . S
C123 C154 1.519 1_655 S
C124 C118 1.492 1_455 S
C124 C125 1.363 . S
C124 C129 1.390 . S
C125 H90 0.930 . S
C125 C124 1.363 . S
C125 C126 1.372 . S
C126 H91 0.930 . S
C126 C125 1.372 . S
C126 C127 1.383 . S
C127 C126 1.383 . S
C127 C128 1.395 . S
C128 H92 0.930 . S
C128 C127 1.395 . S
C128 C129 1.362 . S
C129 H93 0.930 . S
C129 C124 1.390 . S
C129 C128 1.362 . S
C130 C119 1.492 . S
C130 C131 1.377 . S
C130 C135 1.397 . S
C131 H94 0.931 . S
C131 C130 1.377 . S
C131 C132 1.376 . S
C132 H95 0.930 . S
C132 C131 1.376 . S
C132 C133 1.376 . S
C133 C132 1.376 . S
C133 C134 1.378 . S
C133 C160 1.486 . S
C134 H96 0.930 . S
C134 C133 1.378 . S
C134 C135 1.376 . S
C135 H97 0.929 . S
C135 C130 1.397 . S
C135 C134 1.376 . S
C136 C120 1.509 . S
C136 C137 1.391 . S
C136 C141 1.386 . S
C137 H98 0.930 . S
C137 C136 1.391 . S
C137 C138 1.375 . S
C138 H99 0.931 . S
C138 C137 1.375 . S
C138 C139 1.375 . S
C139 C138 1.375 . S
C139 C140 1.361 . S
C140 H100 0.930 . S
C140 C139 1.361 . S
C140 C141 1.399 . S
C141 H101 0.929 . S
C141 C136 1.386 . S
C141 C140 1.399 . S
C142 C121 1.485 . S
C142 C143 1.394 . S
C142 C147 1.360 . S
C143 H102 0.931 . S
C143 C142 1.394 . S
C143 C144 1.372 . S
C144 H103 0.930 . S
C144 C143 1.372 . S
C144 C145 1.397 . S
C145 C144 1.397 . S
C145 C146 1.390 . S
C145 C161 1.476 . S
C146 H104 0.930 . S
C146 C145 1.390 . S
C146 C147 1.366 . S
C147 H105 0.932 . S
C147 C142 1.360 . S
C147 C146 1.366 . S
C148 C122 1.490 . S
C148 C149 1.380 . S
C148 C153 1.386 . S
C149 H106 0.930 . S
C149 C148 1.380 . S
C149 C150 1.381 . S
C150 H107 0.929 . S
C150 C149 1.381 . S
C150 C151 1.371 . S
C151 C150 1.371 . S
C151 C152 1.380 . S
C152 H108 0.931 . S
C152 C151 1.380 . S
C152 C153 1.387 . S
C153 H109 0.930 . S
C153 C148 1.386 . S
C153 C152 1.387 . S
C154 C123 1.519 1_455 S
C154 C155 1.377 . S
C154 C159 1.361 . S
C155 H110 0.929 . S
C155 C154 1.377 . S
C155 C156 1.386 . S
C156 H111 0.931 . S
C156 C155 1.386 . S
C156 C157 1.363 . S
C157 C156 1.363 . S
C157 C158 1.385 . S
C158 H112 0.930 . S
C158 C157 1.385 . S
C158 C159 1.396 . S
C159 H113 0.929 . S
C159 C154 1.361 . S
C159 C158 1.396 . S
C160 O114 1.300 . S
C160 O115 1.209 . S
C160 C133 1.486 . S
C161 O116 1.199 . S
C161 O117 1.297 . S
C161 C145 1.476 . S
H162 O188 0.856 . S
H163 O191 0.854 . S
H164 C199 0.930 . S
H165 C200 0.930 . S
H166 C202 0.930 . S
H167 C203 0.930 . S
H168 C205 0.931 . S
H169 C206 0.930 . S
H170 C208 0.930 . S
H171 C209 0.929 . S
H172 C211 0.930 . S
H173 C212 0.931 . S
H174 C214 0.930 . S
H175 C215 0.929 . S
H176 C217 0.931 . S
H177 C218 0.930 . S
H178 C220 0.930 . S
H179 C221 0.932 . S
H180 C223 0.930 . S
H181 C224 0.929 . S
H182 C226 0.931 . S
H183 C227 0.930 . S
H184 C229 0.929 . S
H185 C230 0.931 . S
H186 C232 0.930 . S
H187 C233 0.929 . S
O188 H162 0.856 . S
O188 C234 1.300 . S
O189 C234 1.209 . S
O190 C235 1.199 . S
O191 H163 0.854 . S
O191 C235 1.297 . S
C192 C193 1.404 1_455 S
C192 C197 1.397 . S
C192 C198 1.492 . S
C193 C192 1.404 1_655 S
C193 C194 1.396 . S
C193 C204 1.492 . S
C194 C193 1.396 . S
C194 C195 1.397 . S
C194 C210 1.509 . S
C195 C194 1.397 . S
C195 C196 1.412 . S
C195 C216 1.485 . S
C196 C195 1.412 . S
C196 C197 1.388 1_655 S
C196 C222 1.490 . S
C197 C192 1.397 . S
C197 C196 1.388 1_455 S
C197 C228 1.519 . S
C198 C192 1.492 . S
C198 C199 1.363 . S
C198 C203 1.390 . S
C199 H164 0.930 . S
C199 C198 1.363 . S
C199 C200 1.372 . S
C200 H165 0.930 . S
C200 C199 1.372 . S
C200 C201 1.383 . S
C201 C200 1.383 . S
C201 C202 1.395 . S
C202 H166 0.930 . S
C202 C201 1.395 . S
C202 C203 1.362 . S
C203 H167 0.930 . S
C203 C198 1.390 . S
C203 C202 1.362 . S
C204 C193 1.492 . S
C204 C205 1.377 . S
C204 C209 1.397 1_655 S
C205 H168 0.931 . S
C205 C204 1.377 . S
C205 C206 1.376 . S
C206 H169 0.930 . S
C206 C205 1.376 . S
C206 C207 1.376 1_655 S
C207 C206 1.376 1_455 S
C207 C208 1.378 . S
C207 C234 1.486 . S
C208 H170 0.930 . S
C208 C207 1.378 . S
C208 C209 1.376 . S
C209 H171 0.929 . S
C209 C204 1.397 1_455 S
C209 C208 1.376 . S
C210 C194 1.509 . S
C210 C211 1.391 . S
C210 C215 1.386 . S
C211 H172 0.930 . S
C211 C210 1.391 . S
C211 C212 1.375 . S
C212 H173 0.931 . S
C212 C211 1.375 . S
C212 C213 1.375 . S
C213 C212 1.375 . S
C213 C214 1.361 . S
C214 H174 0.930 . S
C214 C213 1.361 . S
C214 C215 1.399 . S
C215 H175 0.929 . S
C215 C210 1.386 . S
C215 C214 1.399 . S
C216 C195 1.485 . S
C216 C217 1.394 . S
C216 C221 1.360 . S
C217 H176 0.931 . S
C217 C216 1.394 . S
C217 C218 1.372 . S
C218 H177 0.930 . S
C218 C217 1.372 . S
C218 C219 1.397 . S
C219 C218 1.397 . S
C219 C220 1.390 . S
C219 C235 1.476 . S
C220 H178 0.930 . S
C220 C219 1.390 . S
C220 C221 1.366 . S
C221 H179 0.932 . S
C221 C216 1.360 . S
C221 C220 1.366 . S
C222 C196 1.490 . S
C222 C223 1.380 . S
C222 C227 1.386 . S
C223 H180 0.930 . S
C223 C222 1.380 . S
C223 C224 1.381 . S
C224 H181 0.929 . S
C224 C223 1.381 . S
C224 C225 1.371 . S
C225 C224 1.371 . S
C225 C226 1.380 . S
C226 H182 0.931 . S
C226 C225 1.380 . S
C226 C227 1.387 . S
C227 H183 0.930 . S
C227 C222 1.386 . S
C227 C226 1.387 . S
C228 C197 1.519 . S
C228 C229 1.377 . S
C228 C233 1.361 . S
C229 H184 0.929 . S
C229 C228 1.377 . S
C229 C230 1.386 . S
C230 H185 0.931 . S
C230 C229 1.386 . S
C230 C231 1.363 . S
C231 C230 1.363 . S
C231 C232 1.385 . S
C232 H186 0.930 . S
C232 C231 1.385 . S
C232 C233 1.396 . S
C233 H187 0.929 . S
C233 C228 1.361 . S
C233 C232 1.396 . S
C234 O188 1.300 . S
C234 O189 1.209 . S
C234 C207 1.486 . S
C235 O190 1.199 . S
C235 O191 1.297 . S
C235 C219 1.476 . S
H236 O262 0.856 . S
H237 O265 0.854 . S
H238 C273 0.930 . S
H239 C274 0.930 . S
H240 C276 0.930 . S
H241 C277 0.930 . S
H242 C279 0.931 . S
H243 C280 0.930 . S
H244 C282 0.930 . S
H245 C283 0.929 . S
H246 C285 0.930 . S
H247 C286 0.931 . S
H248 C288 0.930 . S
H249 C289 0.929 . S
H250 C291 0.931 . S
H251 C292 0.930 . S
H252 C294 0.930 . S
H253 C295 0.932 . S
H254 C297 0.930 . S
H255 C298 0.929 . S
H256 C300 0.931 . S
H257 C301 0.930 . S
H258 C303 0.929 . S
H259 C304 0.931 . S
H260 C306 0.930 . S
H261 C307 0.929 . S
O262 H236 0.856 . S
O262 C308 1.300 . S
O263 C308 1.209 . S
O264 C309 1.199 . S
O265 H237 0.854 . S
O265 C309 1.297 . S
C266 C267 1.404 . S
C266 C271 1.397 . S
C266 C272 1.492 . S
C267 C266 1.404 . S
C267 C268 1.396 . S
C267 C278 1.492 . S
C268 C267 1.396 . S
C268 C269 1.397 . S
C268 C284 1.509 . S
C269 C268 1.397 . S
C269 C270 1.412 . S
C269 C290 1.485 . S
C270 C269 1.412 . S
C270 C271 1.388 . S
C270 C296 1.490 . S
C271 C266 1.397 . S
C271 C270 1.388 . S
C271 C302 1.519 . S
C272 C266 1.492 . S
C272 C273 1.363 . S
C272 C277 1.390 . S
C273 H238 0.930 . S
C273 C272 1.363 . S
C273 C274 1.372 . S
C274 H239 0.930 . S
C274 C273 1.372 . S
C274 C275 1.383 . S
C275 C274 1.383 . S
C275 C276 1.395 . S
C276 H240 0.930 . S
C276 C275 1.395 . S
C276 C277 1.362 . S
C277 H241 0.930 . S
C277 C272 1.390 . S
C277 C276 1.362 . S
C278 C267 1.492 . S
C278 C279 1.377 . S
C278 C283 1.397 . S
C279 H242 0.931 . S
C279 C278 1.377 . S
C279 C280 1.376 . S
C280 H243 0.930 . S
C280 C279 1.376 . S
C280 C281 1.376 . S
C281 C280 1.376 . S
C281 C282 1.378 . S
C281 C308 1.486 . S
C282 H244 0.930 . S
C282 C281 1.378 . S
C282 C283 1.376 . S
C283 H245 0.929 . S
C283 C278 1.397 . S
C283 C282 1.376 . S
C284 C268 1.509 . S
C284 C285 1.391 . S
C284 C289 1.386 . S
C285 H246 0.930 . S
C285 C284 1.391 . S
C285 C286 1.375 . S
C286 H247 0.931 . S
C286 C285 1.375 . S
C286 C287 1.375 . S
C287 C286 1.375 . S
C287 C288 1.361 . S
C288 H248 0.930 . S
C288 C287 1.361 . S
C288 C289 1.399 . S
C289 H249 0.929 . S
C289 C284 1.386 . S
C289 C288 1.399 . S
C290 C269 1.485 . S
C290 C291 1.394 . S
C290 C295 1.360 . S
C291 H250 0.931 . S
C291 C290 1.394 . S
C291 C292 1.372 . S
C292 H251 0.930 . S
C292 C291 1.372 . S
C292 C293 1.397 . S
C293 C292 1.397 . S
C293 C294 1.390 . S
C293 C309 1.476 . S
C294 H252 0.930 . S
C294 C293 1.390 . S
C294 C295 1.366 . S
C295 H253 0.932 . S
C295 C290 1.360 . S
C295 C294 1.366 . S
C296 C270 1.490 . S
C296 C297 1.380 . S
C296 C301 1.386 . S
C297 H254 0.930 . S
C297 C296 1.380 . S
C297 C298 1.381 . S
C298 H255 0.929 . S
C298 C297 1.381 . S
C298 C299 1.371 . S
C299 C298 1.371 . S
C299 C300 1.380 . S
C300 H256 0.931 . S
C300 C299 1.380 . S
C300 C301 1.387 . S
C301 H257 0.930 . S
C301 C296 1.386 . S
C301 C300 1.387 . S
C302 C271 1.519 . S
C302 C303 1.377 . S
C302 C307 1.361 . S
C303 H258 0.929 . S
C303 C302 1.377 . S
C303 C304 1.386 . S
C304 H259 0.931 . S
C304 C303 1.386 . S
C304 C305 1.363 . S
C305 C304 1.363 . S
C305 C306 1.385 . S
C306 H260 0.930 . S
C306 C305 1.385 . S
C306 C307 1.396 . S
C307 H261 0.929 . S
C307 C302 1.361 . S
C307 C306 1.396 . S
C308 O262 1.300 . S
C308 O263 1.209 . S
C308 C281 1.486 . S
C309 O264 1.199 . S
C309 O265 1.297 . S
C309 C293 1.476 . S
H310 O336 0.856 1_565 S
H311 O339 0.854 . S
H312 C347 0.930 . S
H313 C348 0.930 . S
H314 C350 0.930 1_554 S
H315 C351 0.930 . S
H316 C353 0.931 . S
H317 C354 0.930 . S
H318 C356 0.930 . S
H319 C357 0.929 . S
H320 C359 0.915 1_545 S
H321 C360 0.931 1_545 S
H322 C362 0.930 . S
H323 C363 0.929 . S
H324 C365 0.931 . S
H325 C366 0.930 1_545 S
H326 C368 0.930 . S
H327 C369 0.924 1_556 S
H328 C371 0.930 . S
H329 C372 0.929 . S
H330 C374 0.931 . S
H331 C375 0.930 . S
H332 C377 0.929 . S
H333 C378 0.931 . S
H334 C380 0.930 . S
H335 C381 0.929 . S
O336 H310 0.856 1_545 S
O336 C382 1.300 1_545 S
O337 C382 1.209 . S
O338 C383 1.199 . S
O339 H311 0.854 . S
O339 C383 1.297 . S
C340 C341 1.404 1_554 S
C340 C345 1.397 . S
C340 C346 1.492 1_564 S
C341 C340 1.404 1_556 S
C341 C342 1.396 . S
C341 C352 1.492 . S
C342 C341 1.396 . S
C342 C343 1.397 1_556 S
C342 C358 1.509 . S
C343 C342 1.397 1_554 S
C343 C344 1.412 . S
C343 C364 1.485 . S
C344 C343 1.412 . S
C344 C345 1.388 . S
C344 C370 1.490 . S
C345 C340 1.397 . S
C345 C344 1.388 . S
C345 C376 1.519 1_565 S
C346 C340 1.492 1_546 S
C346 C347 1.363 . S
C346 C351 1.390 1_546 S
C347 H312 0.930 . S
C347 C346 1.363 . S
C347 C348 1.372 . S
C348 H313 0.930 . S
C348 C347 1.372 . S
C348 C349 1.383 . S
C349 C348 1.383 . S
C349 C350 1.395 1_545 S
C350 H314 0.930 1_556 S
C350 C349 1.395 1_565 S
C350 C351 1.362 1_556 S
C351 H315 0.930 . S
C351 C346 1.390 1_564 S
C351 C350 1.362 1_554 S
C352 C341 1.492 . S
C352 C353 1.377 1_565 S
C352 C357 1.397 . S
C353 H316 0.931 . S
C353 C352 1.377 1_545 S
C353 C354 1.376 . S
C354 H317 0.930 . S
C354 C353 1.376 . S
C354 C355 1.376 1_545 S
C355 C354 1.376 1_565 S
C355 C356 1.378 . S
C355 C382 1.486 . S
C356 H318 0.930 . S
C356 C355 1.378 . S
C356 C357 1.376 . S
C357 H319 0.929 . S
C357 C352 1.397 . S
C357 C356 1.376 . S
C358 C342 1.509 . S
C358 C359 1.398 . S
C358 C363 1.386 . S
C359 H320 0.915 1_565 S
C359 C358 1.398 . S
C359 C360 1.383 . S
C360 H321 0.931 1_565 S
C360 C359 1.383 . S
C360 C361 1.375 . S
C361 C360 1.375 . S
C361 C362 1.361 . S
C362 H322 0.930 . S
C362 C361 1.361 . S
C362 C363 1.399 . S
C363 H323 0.929 . S
C363 C358 1.386 . S
C363 C362 1.399 . S
C364 C343 1.485 . S
C364 C365 1.394 1_565 S
C364 C369 1.360 . S
C365 H324 0.931 . S
C365 C364 1.394 1_545 S
C365 C366 1.372 1_545 S
C366 H325 0.930 1_565 S
C366 C365 1.372 1_565 S
C366 C367 1.397 . S
C367 C366 1.397 . S
C367 C368 1.390 . S
C367 C383 1.476 . S
C368 H326 0.930 . S
C368 C367 1.390 . S
C368 C369 1.366 . S
C369 H327 0.924 1_554 S
C369 C364 1.360 . S
C369 C368 1.366 . S
C370 C344 1.490 . S
C370 C371 1.380 1_565 S
C370 C375 1.386 . S
C371 H328 0.930 . S
C371 C370 1.380 1_545 S
C371 C372 1.381 . S
C372 H329 0.929 . S
C372 C371 1.381 . S
C372 C373 1.371 . S
C373 C372 1.371 . S
C373 C374 1.380 1_545 S
C374 H330 0.931 . S
C374 C373 1.380 1_565 S
C374 C375 1.387 . S
C375 H331 0.930 . S
C375 C370 1.386 . S
C375 C374 1.387 . S
C376 C345 1.519 1_545 S
C376 C377 1.377 . S
C376 C381 1.361 1_545 S
C377 H332 0.929 . S
C377 C376 1.377 . S
C377 C378 1.386 . S
C378 H333 0.931 . S
C378 C377 1.386 . S
C378 C379 1.363 . S
C379 C378 1.363 . S
C379 C380 1.385 1_545 S
C380 H334 0.930 . S
C380 C379 1.385 1_565 S
C380 C381 1.396 . S
C381 H335 0.929 . S
C381 C376 1.361 1_565 S
C381 C380 1.396 . S
C382 O336 1.300 1_565 S
C382 O337 1.209 . S
C382 C355 1.486 . S
C383 O338 1.199 . S
C383 O339 1.297 . S
C383 C367 1.476 . S
H384 O410 0.856 . S
H385 O413 0.854 . S
H386 C421 0.930 . S
H387 C422 0.930 . S
H388 C424 0.930 . S
H389 C425 0.930 . S
H390 C427 0.931 . S
H391 C428 0.930 . S
H392 C430 0.930 . S
H393 C431 0.929 . S
H394 C433 0.930 . S
H395 C434 0.931 . S
H396 C436 0.930 . S
H397 C437 0.929 . S
H398 C439 0.931 . S
H399 C440 0.930 . S
H400 C442 0.930 . S
H401 C443 0.932 . S
H402 C445 0.930 . S
H403 C446 0.929 . S
H404 C448 0.931 . S
H405 C449 0.930 . S
H406 C451 0.929 . S
H407 C452 0.931 . S
H408 C454 0.930 . S
H409 C455 0.928 . S
O410 H384 0.856 . S
O410 C456 1.300 . S
O411 C456 1.209 . S
O412 C457 1.199 . S
O413 H385 0.854 . S
O413 C457 1.297 . S
C414 C415 1.404 . S
C414 C419 1.397 . S
C414 C420 1.492 1_545 S
C415 C414 1.404 . S
C415 C416 1.396 . S
C415 C426 1.492 . S
C416 C415 1.396 . S
C416 C417 1.397 . S
C416 C432 1.509 . S
C417 C416 1.397 . S
C417 C418 1.412 . S
C417 C438 1.485 . S
C418 C417 1.412 . S
C418 C419 1.388 . S
C418 C444 1.490 . S
C419 C414 1.397 . S
C419 C418 1.388 . S
C419 C450 1.519 1_545 S
C420 C414 1.492 1_565 S
C420 C421 1.363 . S
C420 C425 1.390 . S
C421 H386 0.930 . S
C421 C420 1.363 . S
C421 C422 1.372 . S
C422 H387 0.930 . S
C422 C421 1.372 . S
C422 C423 1.383 . S
C423 C422 1.383 . S
C423 C424 1.395 . S
C424 H388 0.930 . S
C424 C423 1.395 . S
C424 C425 1.362 . S
C425 H389 0.930 . S
C425 C420 1.390 . S
C425 C424 1.362 . S
C426 C415 1.492 . S
C426 C427 1.377 . S
C426 C431 1.397 . S
C427 H390 0.931 . S
C427 C426 1.377 . S
C427 C428 1.376 . S
C428 H391 0.930 . S
C428 C427 1.376 . S
C428 C429 1.376 . S
C429 C428 1.376 . S
C429 C430 1.378 . S
C429 C456 1.486 . S
C430 H392 0.930 . S
C430 C429 1.378 . S
C430 C431 1.376 . S
C431 H393 0.929 . S
C431 C426 1.397 . S
C431 C430 1.376 . S
C432 C416 1.509 . S
C432 C433 1.391 . S
C432 C437 1.386 . S
C433 H394 0.930 . S
C433 C432 1.391 . S
C433 C434 1.375 . S
C434 H395 0.931 . S
C434 C433 1.375 . S
C434 C435 1.375 . S
C435 C434 1.375 . S
C435 C436 1.361 . S
C436 H396 0.930 . S
C436 C435 1.361 . S
C436 C437 1.399 . S
C437 H397 0.929 . S
C437 C432 1.386 . S
C437 C436 1.399 . S
C438 C417 1.485 . S
C438 C439 1.394 . S
C438 C443 1.360 . S
C439 H398 0.931 . S
C439 C438 1.394 . S
C439 C440 1.372 . S
C440 H399 0.930 . S
C440 C439 1.372 . S
C440 C441 1.397 . S
C441 C440 1.397 . S
C441 C442 1.390 . S
C441 C457 1.476 . S
C442 H400 0.930 . S
C442 C441 1.390 . S
C442 C443 1.366 . S
C443 H401 0.932 . S
C443 C438 1.360 . S
C443 C442 1.366 . S
C444 C418 1.490 . S
C444 C445 1.380 1_545 S
C444 C449 1.386 . S
C445 H402 0.930 . S
C445 C444 1.380 1_565 S
C445 C446 1.381 . S
C446 H403 0.929 . S
C446 C445 1.381 . S
C446 C447 1.371 1_565 S
C447 C446 1.371 1_545 S
C447 C448 1.380 . S
C448 H404 0.931 . S
C448 C447 1.380 . S
C448 C449 1.387 . S
C449 H405 0.930 . S
C449 C444 1.386 . S
C449 C448 1.387 . S
C450 C419 1.519 1_565 S
C450 C451 1.377 . S
C450 C455 1.361 1_565 S
C451 H406 0.929 . S
C451 C450 1.377 . S
C451 C452 1.386 . S
C452 H407 0.931 . S
C452 C451 1.386 . S
C452 C453 1.363 . S
C453 C452 1.363 . S
C453 C454 1.385 . S
C454 H408 0.930 . S
C454 C453 1.385 . S
C454 C455 1.397 1_565 S
C455 H409 0.928 . S
C455 C450 1.361 1_545 S
C455 C454 1.397 1_545 S
C456 O410 1.300 . S
C456 O411 1.209 . S
C456 C429 1.486 . S
C457 O412 1.199 . S
C457 O413 1.297 . S
C457 C441 1.476 . S
H458 O484 0.856 . S
H459 O487 0.854 . S
H460 C495 0.930 . S
H461 C496 0.930 . S
H462 C498 0.930 . S
H463 C499 0.930 . S
H464 C501 0.931 . S
H465 C502 0.930 . S
H466 C504 0.930 . S
H467 C505 0.929 . S
H468 C507 0.930 . S
H469 C508 0.931 . S
H470 C510 0.930 . S
H471 C511 0.929 . S
H472 C513 0.931 . S
H473 C514 0.930 . S
H474 C516 0.930 . S
H475 C517 0.932 . S
H476 C519 0.930 . S
H477 C520 0.929 . S
H478 C522 0.931 . S
H479 C523 0.930 . S
H480 C525 0.929 . S
H481 C526 0.931 . S
H482 C528 0.930 . S
H483 C529 0.929 . S
O484 H458 0.856 . S
O484 C530 1.300 . S
O485 C530 1.209 . S
O486 C531 1.199 . S
O487 H459 0.854 . S
O487 C531 1.297 . S
C488 C489 1.404 . S
C488 C493 1.397 1_556 S
C488 C494 1.492 . S
C489 C488 1.404 . S
C489 C490 1.396 . S
C489 C500 1.492 . S
C490 C489 1.396 . S
C490 C491 1.397 1_556 S
C490 C506 1.509 . S
C491 C490 1.397 1_554 S
C491 C492 1.412 . S
C491 C512 1.485 . S
C492 C491 1.412 . S
C492 C493 1.388 . S
C492 C518 1.490 . S
C493 C488 1.397 1_554 S
C493 C492 1.388 . S
C493 C524 1.519 . S
C494 C488 1.492 . S
C494 C495 1.363 . S
C494 C499 1.390 . S
C495 H460 0.930 . S
C495 C494 1.363 . S
C495 C496 1.372 . S
C496 H461 0.930 . S
C496 C495 1.372 . S
C496 C497 1.383 . S
C497 C496 1.383 . S
C497 C498 1.395 . S
C498 H462 0.930 . S
C498 C497 1.395 . S
C498 C499 1.362 . S
C499 H463 0.930 . S
C499 C494 1.390 . S
C499 C498 1.362 . S
C500 C489 1.492 . S
C500 C501 1.377 . S
C500 C505 1.397 . S
C501 H464 0.931 . S
C501 C500 1.377 . S
C501 C502 1.376 . S
C502 H465 0.930 . S
C502 C501 1.376 . S
C502 C503 1.376 . S
C503 C502 1.376 . S
C503 C504 1.378 . S
C503 C530 1.486 . S
C504 H466 0.930 . S
C504 C503 1.378 . S
C504 C505 1.376 . S
C505 H467 0.929 . S
C505 C500 1.397 . S
C505 C504 1.376 . S
C506 C490 1.509 . S
C506 C507 1.391 . S
C506 C511 1.386 . S
C507 H468 0.930 . S
C507 C506 1.391 . S
C507 C508 1.375 . S
C508 H469 0.931 . S
C508 C507 1.375 . S
C508 C509 1.375 . S
C509 C508 1.375 . S
C509 C510 1.361 . S
C510 H470 0.930 . S
C510 C509 1.361 . S
C510 C511 1.399 . S
C511 H471 0.929 . S
C511 C506 1.386 . S
C511 C510 1.399 . S
C512 C491 1.485 . S
C512 C513 1.394 . S
C512 C517 1.360 . S
C513 H472 0.931 . S
C513 C512 1.394 . S
C513 C514 1.372 . S
C514 H473 0.930 . S
C514 C513 1.372 . S
C514 C515 1.397 . S
C515 C514 1.397 . S
C515 C516 1.390 . S
C515 C531 1.476 . S
C516 H474 0.930 . S
C516 C515 1.390 . S
C516 C517 1.366 . S
C517 H475 0.932 . S
C517 C512 1.360 . S
C517 C516 1.366 . S
C518 C492 1.490 . S
C518 C519 1.380 . S
C518 C523 1.386 . S
C519 H476 0.930 . S
C519 C518 1.380 . S
C519 C520 1.381 . S
C520 H477 0.929 . S
C520 C519 1.381 . S
C520 C521 1.371 . S
C521 C520 1.371 . S
C521 C522 1.380 . S
C522 H478 0.931 . S
C522 C521 1.380 . S
C522 C523 1.387 . S
C523 H479 0.930 . S
C523 C518 1.386 . S
C523 C522 1.387 . S
C524 C493 1.519 . S
C524 C525 1.377 . S
C524 C529 1.361 . S
C525 H480 0.929 . S
C525 C524 1.377 . S
C525 C526 1.386 . S
C526 H481 0.931 . S
C526 C525 1.386 . S
C526 C527 1.363 . S
C527 C526 1.363 . S
C527 C528 1.385 . S
C528 H482 0.930 . S
C528 C527 1.385 . S
C528 C529 1.396 . S
C529 H483 0.929 . S
C529 C524 1.361 . S
C529 C528 1.396 . S
C530 O484 1.300 . S
C530 O485 1.209 . S
C530 C503 1.486 . S
C531 O486 1.199 . S
C531 O487 1.297 . S
C531 C515 1.476 . S
C127 C5 2.221 . S
C231 C16 2.345 . S
C151 C30 1.819 . S
C213 C40 2.725 . S
C287 C8 2.347 . S
C349 C18 2.485 . S
C29 C423 2.988 . S
C509 C38 3.280 . S
C305 C19 3.409 . S
C27 C373 1.753 1_565 S
C447 C41 2.127 . S
C527 C7 3.142 . S
C52 C225 2.003 . S
C139 C62 3.621 . S
C74 C201 1.678 . S
C82 C157 2.263 . S
C453 C51 1.995 . S
C521 C60 1.480 . S
C299 C71 2.763 . S
C84 C379 2.838 1_565 S
C435 C63 1.767 . S
C497 C73 2.705 . S
C275 C85 2.230 . S
C49 C361 1.098 . S
