# Generated by pormake.
# Topology nom, (4,4)-cn, num edge types: 1
# Building blocks:
#     Node 0, Type 0, BuildingBlock: NAHDIM_clean_linker_0, # of connection points: 4
#     Node 1, Type 0, BuildingBlock: NAHDIM_clean_linker_0, # of connection points: 4
#     Node 2, Type 0, BuildingBlock: NAHDIM_clean_linker_0, # of connection points: 4
#     Node 3, Type 0, BuildingBlock: NAHDIM_clean_linker_0, # of connection points: 4
#     Node 4, Type 0, BuildingBlock: NAHDIM_clean_linker_0, # of connection points: 4
#     Node 5, Type 0, BuildingBlock: NAHDIM_clean_linker_0, # of connection points: 4
#     Node 6, Type 1, BuildingBlock: QUQFOY_clean_sbu_1, # of connection points: 4
#     Node 7, Type 1, BuildingBlock: QUQFOY_clean_sbu_1, # of connection points: 4
#     Node 8, Type 1, BuildingBlock: QUQFOY_clean_sbu_1, # of connection points: 4
#     Node 9, Type 1, BuildingBlock: QUQFOY_clean_sbu_1, # of connection points: 4
#     Node 10, Type 1, BuildingBlock: QUQFOY_clean_sbu_1, # of connection points: 4
#     Node 11, Type 1, BuildingBlock: QUQFOY_clean_sbu_1, # of connection points: 4
#     Edge 12, Type (0, 1), BuildingBlock: XUDNAN_clean_linker_2, # of connection points: 2
#     Edge 13, Type (0, 1), BuildingBlock: XUDNAN_clean_linker_2, # of connection points: 2
#     Edge 14, Type (0, 1), BuildingBlock: XUDNAN_clean_linker_2, # of connection points: 2
#     Edge 15, Type (0, 1), BuildingBlock: XUDNAN_clean_linker_2, # of connection points: 2
#     Edge 16, Type (0, 1), BuildingBlock: XUDNAN_clean_linker_2, # of connection points: 2
#     Edge 17, Type (0, 1), BuildingBlock: XUDNAN_clean_linker_2, # of connection points: 2
#     Edge 18, Type (0, 1), BuildingBlock: XUDNAN_clean_linker_2, # of connection points: 2
#     Edge 19, Type (0, 1), BuildingBlock: XUDNAN_clean_linker_2, # of connection points: 2
#     Edge 20, Type (0, 1), BuildingBlock: XUDNAN_clean_linker_2, # of connection points: 2
#     Edge 21, Type (0, 1), BuildingBlock: XUDNAN_clean_linker_2, # of connection points: 2
#     Edge 22, Type (0, 1), BuildingBlock: XUDNAN_clean_linker_2, # of connection points: 2
#     Edge 23, Type (0, 1), BuildingBlock: XUDNAN_clean_linker_2, # of connection points: 2
#     Edge 24, Type (0, 1), BuildingBlock: XUDNAN_clean_linker_2, # of connection points: 2
#     Edge 25, Type (0, 1), BuildingBlock: XUDNAN_clean_linker_2, # of connection points: 2
#     Edge 26, Type (0, 1), BuildingBlock: XUDNAN_clean_linker_2, # of connection points: 2
#     Edge 27, Type (0, 1), BuildingBlock: XUDNAN_clean_linker_2, # of connection points: 2
#     Edge 28, Type (0, 1), BuildingBlock: XUDNAN_clean_linker_2, # of connection points: 2
#     Edge 29, Type (0, 1), BuildingBlock: XUDNAN_clean_linker_2, # of connection points: 2
#     Edge 30, Type (0, 1), BuildingBlock: XUDNAN_clean_linker_2, # of connection points: 2
#     Edge 31, Type (0, 1), BuildingBlock: XUDNAN_clean_linker_2, # of connection points: 2
#     Edge 32, Type (0, 1), BuildingBlock: XUDNAN_clean_linker_2, # of connection points: 2
#     Edge 33, Type (0, 1), BuildingBlock: XUDNAN_clean_linker_2, # of connection points: 2
#     Edge 34, Type (0, 1), BuildingBlock: XUDNAN_clean_linker_2, # of connection points: 2
#     Edge 35, Type (0, 1), BuildingBlock: XUDNAN_clean_linker_2, # of connection points: 2
# Relax obj value: 0.085
# Max RMSD: 0.158
# Mean RMSD: 0.148
data_MOF--net-nom--node1-QUQFOY_clean_sbu_1--node2-NAHDIM_clean_linker_0--edge1-XUDNAN_clean_linker_2
_symmetry_space_group_name_H-M    P1
_symmetry_Int_Tables_number       1
_symmetry_cell_setting            triclinic
loop_
_symmetry_equiv_pos_as_xyz
'x, y, z'
_cell_length_a     59.943768
_cell_length_b     60.087029
_cell_length_c     67.198867
_cell_angle_alpha  90.074404
_cell_angle_beta   90.132642
_cell_angle_gamma 120.0199
loop_
_atom_site_label
_atom_site_type_symbol
_atom_site_fract_x
_atom_site_fract_y
_atom_site_fract_z
_atom_type_partial_charge
C0 C 0.1699 0.55641 0.23343 0.0
C1 C 0.17922 0.56617 0.25464 0.0
C2 C 0.13852 0.55791 0.27013 0.0
C3 C 0.12738 0.53109 0.27185 0.0
C4 C 0.10168 0.51575 0.27789 0.0
C5 C 0.08671 0.52735 0.28217 0.0
C6 C 0.09798 0.55436 0.28083 0.0
C7 C 0.12383 0.56929 0.27501 0.0
C8 C 0.09036 0.48702 0.27939 0.0
C9 C 0.08256 0.56739 0.28517 0.0
C10 C 0.90807 0.43405 0.18997 0.0
C11 C 0.9291 0.45267 0.20307 0.0
C12 C 0.96283 0.45493 0.22481 0.0
C13 C 0.96819 0.47815 0.234 0.0
C14 C 0.98571 0.4883 0.24987 0.0
C15 C 0.99791 0.47485 0.25684 0.0
C16 C 0.99295 0.45174 0.24743 0.0
C17 C 0.97551 0.44214 0.23144 0.0
C18 C 0.99094 0.51325 0.25938 0.0
C19 C 0.00576 0.43703 0.25448 0.0
C20 C 0.89556 0.41971 0.36427 0.0
C21 C 0.90607 0.44514 0.35766 0.0
C22 C 0.93271 0.46064 0.35461 0.0
C23 C 0.94907 0.45025 0.35776 0.0
C24 C 0.93852 0.42476 0.36481 0.0
C25 C 0.91192 0.40998 0.36831 0.0
C26 C 0.9433 0.4881 0.34796 0.0
C27 C 0.95527 0.41298 0.36837 0.0
C28 C 0.13517 0.54837 0.40955 0.0
C29 C 0.11838 0.5392 0.42829 0.0
C30 C 0.07674 0.52742 0.41268 0.0
C31 C 0.06161 0.53798 0.40688 0.0
C32 C 0.04256 0.5262 0.39215 0.0
C33 C 0.03823 0.50295 0.38338 0.0
C34 C 0.05222 0.4912 0.39019 0.0
C35 C 0.07151 0.50367 0.40465 0.0
C36 C 0.02777 0.53909 0.38541 0.0
C37 C 0.04738 0.46589 0.38171 0.0
C38 C 0.05893 0.51108 0.28698 0.0
C39 C 0.04164 0.50032 0.2711 0.0
C40 C 0.01525 0.48464 0.27439 0.0
C41 C 0.00564 0.4793 0.29404 0.0
C42 C 0.97923 0.46319 0.29784 0.0
C43 C 0.96987 0.45849 0.31721 0.0
C44 C 0.98651 0.46989 0.33354 0.0
C45 C 0.97707 0.46585 0.35328 0.0
C46 C 0.99431 0.47692 0.36919 0.0
C47 C 0.02081 0.49212 0.36592 0.0
C48 C 0.03052 0.49685 0.34627 0.0
C49 C 0.05704 0.51252 0.34244 0.0
C50 C 0.06643 0.51701 0.32307 0.0
C51 C 0.04966 0.50629 0.30675 0.0
C52 C 0.02288 0.49039 0.31027 0.0
C53 C 0.0133 0.48569 0.33005 0.0
C54 C 0.83827 0.37578 0.34476 0.0
C55 C 0.85036 0.40215 0.35498 0.0
O56 O 0.16305 0.57348 0.26364 0.0
O57 O 0.09636 0.541 0.42571 0.0
O58 O 0.86988 0.40433 0.36742 0.0
O59 O 0.94544 0.44417 0.20976 0.0
H60 H 0.17956 0.55073 0.26351 0.0
H61 H 0.15042 0.53911 0.23368 0.0
H62 H 0.16901 0.57147 0.22444 0.0
H63 H 0.18316 0.55107 0.2261 0.0
H64 H 0.13845 0.52189 0.26837 0.0
H65 H 0.13258 0.58997 0.27378 0.0
H66 H 0.0754 0.47738 0.2677 0.0
H67 H 0.10513 0.48119 0.27754 0.0
H68 H 0.08086 0.48009 0.29405 0.0
H69 H 0.09389 0.58849 0.28276 0.0
H70 H 0.06517 0.55919 0.2755 0.0
H71 H 0.07589 0.56377 0.30084 0.0
H72 H 0.93945 0.4729 0.19763 0.0
H73 H 0.91182 0.444 0.17514 0.0
H74 H 0.91385 0.4198 0.18477 0.0
H75 H 0.8739 0.42305 0.20681 0.0
H76 H 0.95871 0.48843 0.22894 0.0
H77 H 0.97135 0.42432 0.22423 0.0
H78 H 0.012 0.52697 0.25986 0.0
H79 H 0.98138 0.52234 0.25129 0.0
H80 H 0.9839 0.50964 0.27496 0.0
H81 H 0.99948 0.41909 0.24581 0.0
H82 H 0.02699 0.4493 0.25319 0.0
H83 H 0.00129 0.43201 0.27044 0.0
H84 H 0.85817 0.41671 0.34289 0.0
H85 H 0.89358 0.45307 0.35516 0.0
H86 H 0.90364 0.39045 0.37371 0.0
H87 H 0.94907 0.48987 0.33211 0.0
H88 H 0.92891 0.49449 0.34945 0.0
H89 H 0.96071 0.50121 0.35677 0.0
H90 H 0.94378 0.39218 0.37197 0.0
H91 H 0.96715 0.41541 0.35501 0.0
H92 H 0.96865 0.42303 0.38094 0.0
H93 H 0.11286 0.51893 0.43146 0.0
H94 H 0.15311 0.54755 0.41183 0.0
H95 H 0.12475 0.53586 0.39666 0.0
H96 H 0.14037 0.56843 0.40591 0.0
H97 H 0.06552 0.5561 0.41338 0.0
H98 H 0.08256 0.49487 0.40938 0.0
H99 H 0.03093 0.54341 0.36926 0.0
H100 H 0.00683 0.52588 0.38762 0.0
H101 H 0.03358 0.55724 0.39364 0.0
H102 H 0.05694 0.45742 0.39059 0.0
H103 H 0.02637 0.45195 0.38107 0.0
H104 H 0.05487 0.46886 0.36627 0.0
H105 H 0.04882 0.50433 0.25595 0.0
H106 H 0.96545 0.45403 0.28588 0.0
H107 H 0.94936 0.44589 0.3192 0.0
H108 H 0.98702 0.47365 0.3843 0.0
H109 H 0.07089 0.52156 0.35437 0.0
H110 H 0.087 0.52915 0.32105 0.0
H111 H 0.82783 0.36011 0.35572 0.0
H112 H 0.82495 0.37435 0.33267 0.0
H113 H 0.85362 0.37315 0.33784 0.0
C114 C 0.3341 0.87796 0.59713 0.0
C115 C 0.34767 0.86996 0.5818 0.0
C116 C 0.35701 0.89709 0.55288 0.0
C117 C 0.38335 0.90638 0.54993 0.0
C118 C 0.39906 0.93055 0.54128 0.0
C119 C 0.38817 0.9458 0.53564 0.0
C120 C 0.3613 0.93583 0.53771 0.0
C121 C 0.34597 0.91135 0.54606 0.0
C122 C 0.42744 0.94012 0.53881 0.0
C123 C 0.34898 0.95148 0.5319 0.0
C124 C 0.51828 0.11917 0.62408 0.0
C125 C 0.49672 0.10453 0.60997 0.0
C126 C 0.48423 0.0711 0.58448 0.0
C127 C 0.45877 0.06604 0.58221 0.0
C128 C 0.44209 0.04771 0.56832 0.0
C129 C 0.45106 0.03425 0.5566 0.0
C130 C 0.47639 0.03874 0.55937 0.0
C131 C 0.49265 0.05719 0.57325 0.0
C132 C 0.41514 0.04322 0.56574 0.0
C133 C 0.48652 0.0245 0.5473 0.0
C134 C 0.49364 0.13186 0.44865 0.0
C135 C 0.46692 0.12053 0.45137 0.0
C136 C 0.45158 0.09402 0.45476 0.0
C137 C 0.46317 0.07851 0.45524 0.0
C138 C 0.48988 0.08967 0.45154 0.0
C139 C 0.50474 0.11623 0.44812 0.0
C140 C 0.42304 0.08262 0.45817 0.0
C141 C 0.50279 0.07362 0.45168 0.0
C142 C 0.36585 0.94359 0.35829 0.0
C143 C 0.36679 0.92542 0.37382 0.0
C144 C 0.39643 0.95401 0.39988 0.0
C145 C 0.38018 0.96251 0.40761 0.0
C146 C 0.38818 0.97975 0.42374 0.0
C147 C 0.41271 0.98837 0.43236 0.0
C148 C 0.42902 0.97977 0.42463 0.0
C149 C 0.42065 0.96278 0.40844 0.0
C150 C 0.37049 0.9888 0.43157 0.0
C151 C 0.45534 0.98862 0.43344 0.0
C152 C 0.40521 0.973 0.52961 0.0
C153 C 0.41845 0.99092 0.54472 0.0
C154 C 0.43486 0.01686 0.54038 0.0
C155 C 0.43742 0.02556 0.52056 0.0
C156 C 0.45276 0.05177 0.51588 0.0
C157 C 0.45578 0.06015 0.4963 0.0
C158 C 0.44396 0.04259 0.48058 0.0
C159 C 0.44755 0.05088 0.46057 0.0
C160 C 0.43647 0.03282 0.44525 0.0
C161 C 0.4216 0.00655 0.44939 0.0
C162 C 0.41696 0.99796 0.46934 0.0
C163 C 0.40153 0.97174 0.47406 0.0
C164 C 0.39737 0.9635 0.49378 0.0
C165 C 0.40883 0.98112 0.50951 0.0
C166 C 0.42471 0.00759 0.50504 0.0
C167 C 0.4284 0.01606 0.48498 0.0
C168 C 0.52312 0.18189 0.47654 0.0
C169 C 0.50758 0.17641 0.45719 0.0
O170 O 0.34212 0.87478 0.56277 0.0
O171 O 0.38991 0.93767 0.38416 0.0
O172 O 0.50918 0.15763 0.44631 0.0
O173 O 0.50138 0.08929 0.59711 0.0
H174 H 0.3687 0.8818 0.58494 0.0
H175 H 0.34171 0.899 0.59619 0.0
H176 H 0.313 0.86798 0.59435 0.0
H177 H 0.33769 0.87343 0.61243 0.0
H178 H 0.39166 0.89485 0.55466 0.0
H179 H 0.32551 0.90378 0.54819 0.0
H180 H 0.43835 0.95473 0.55046 0.0
H181 H 0.43195 0.92437 0.54024 0.0
H182 H 0.43423 0.94945 0.52408 0.0
H183 H 0.32799 0.94131 0.53508 0.0
H184 H 0.35837 0.97006 0.54009 0.0
H185 H 0.35183 0.95591 0.51577 0.0
H186 H 0.48894 0.11578 0.60249 0.0
H187 H 0.50239 0.1031 0.65243 0.0
H188 H 0.5357 0.11913 0.6178 0.0
H189 H 0.52557 0.13997 0.62033 0.0
H190 H 0.45196 0.07656 0.59097 0.0
H191 H 0.51224 0.06111 0.57525 0.0
H192 H 0.40094 0.0225 0.56776 0.0
H193 H 0.41073 0.05458 0.57645 0.0
H194 H 0.41272 0.04848 0.55037 0.0
H195 H 0.5059 0.0287 0.55237 0.0
H196 H 0.47306 0.00347 0.54827 0.0
H197 H 0.48776 0.03001 0.5314 0.0
H198 H 0.48745 0.16978 0.46182 0.0
H199 H 0.45786 0.13221 0.45071 0.0
H200 H 0.52529 0.12506 0.44561 0.0
H201 H 0.41817 0.07471 0.47347 0.0
H202 H 0.4167 0.09698 0.45627 0.0
H203 H 0.41206 0.06645 0.44764 0.0
H204 H 0.52378 0.08523 0.44867 0.0
H205 H 0.49996 0.06413 0.46637 0.0
H206 H 0.49376 0.05825 0.44025 0.0
H207 H 0.35042 0.91911 0.38434 0.0
H208 H 0.34735 0.93373 0.34994 0.0
H209 H 0.36731 0.96084 0.36559 0.0
H210 H 0.38204 0.95 0.34761 0.0
H211 H 0.36138 0.95601 0.40112 0.0
H212 H 0.43305 0.95616 0.40233 0.0
H213 H 0.36584 0.98305 0.44739 0.0
H214 H 0.38037 0.01012 0.43101 0.0
H215 H 0.35222 0.98079 0.42296 0.0
H216 H 0.46526 0.97934 0.42619 0.0
H217 H 0.46749 0.00976 0.43177 0.0
H218 H 0.45362 0.98428 0.44961 0.0
H219 H 0.41641 0.98451 0.56004 0.0
H220 H 0.46255 0.06616 0.52733 0.0
H221 H 0.4678 0.08055 0.49363 0.0
H222 H 0.43982 0.03924 0.4299 0.0
H223 H 0.39241 0.9573 0.46254 0.0
H224 H 0.38532 0.94312 0.49655 0.0
H225 H 0.52388 0.19845 0.48455 0.0
H226 H 0.51371 0.16481 0.48639 0.0
H227 H 0.54304 0.18599 0.47357 0.0
C228 C 0.63251 0.46964 0.74328 0.0
C229 C 0.63 0.45951 0.72193 0.0
C230 C 0.5967 0.46852 0.70902 0.0
C231 C 0.61234 0.49538 0.70761 0.0
C232 C 0.60156 0.51086 0.7031 0.0
C233 C 0.57469 0.49927 0.6999 0.0
C234 C 0.55902 0.47222 0.70087 0.0
C235 C 0.57031 0.45722 0.70529 0.0
C236 C 0.61882 0.53963 0.70192 0.0
C237 C 0.53029 0.45918 0.69754 0.0
C238 C 0.48888 0.58375 0.80019 0.0
C239 C 0.4917 0.56596 0.78646 0.0
C240 C 0.52215 0.56634 0.7622 0.0
C241 C 0.50475 0.5423 0.75381 0.0
C242 C 0.51164 0.53295 0.73717 0.0
C243 C 0.53629 0.54803 0.72863 0.0
C244 C 0.55399 0.57202 0.73721 0.0
C245 C 0.54668 0.58081 0.75396 0.0
C246 C 0.49248 0.50708 0.72857 0.0
C247 C 0.58048 0.58848 0.72851 0.0
C248 C 0.47117 0.59058 0.61892 0.0
C249 C 0.45936 0.56429 0.6229 0.0
C250 C 0.47392 0.55276 0.62811 0.0
C251 C 0.50105 0.56801 0.62943 0.0
C252 C 0.51313 0.59479 0.6261 0.0
C253 C 0.49808 0.60587 0.62099 0.0
C254 C 0.46037 0.52417 0.63179 0.0
C255 C 0.54201 0.61161 0.62761 0.0
C256 C 0.53995 0.49097 0.52256 0.0
C257 C 0.55678 0.48483 0.53611 0.0
C258 C 0.56193 0.51116 0.56589 0.0
C259 C 0.53707 0.49555 0.57365 0.0
C260 C 0.52921 0.50284 0.59095 0.0
C261 C 0.54644 0.52624 0.60054 0.0
C262 C 0.57135 0.54208 0.59265 0.0
C263 C 0.57881 0.53418 0.57551 0.0
C264 C 0.50251 0.48553 0.59902 0.0
C265 C 0.59006 0.56738 0.60231 0.0
C266 C 0.56273 0.51539 0.6962 0.0
C267 C 0.55601 0.52494 0.7127 0.0
C268 C 0.5433 0.53895 0.71043 0.0
C269 C 0.53689 0.54351 0.69118 0.0
C270 C 0.52354 0.557 0.68838 0.0
C271 C 0.51684 0.56092 0.6694 0.0
C272 C 0.52359 0.55186 0.65247 0.0
C273 C 0.5168 0.55564 0.63311 0.0
C274 C 0.52449 0.54702 0.61658 0.0
C275 C 0.53843 0.53426 0.6188 0.0
C276 C 0.54472 0.52958 0.63805 0.0
C277 C 0.55804 0.51607 0.64084 0.0
C278 C 0.56403 0.51146 0.65985 0.0
C279 C 0.55705 0.52028 0.6768 0.0
C280 C 0.54387 0.5342 0.67431 0.0
C281 C 0.53744 0.5386 0.65493 0.0
C282 C 0.47497 0.62777 0.58468 0.0
C283 C 0.46349 0.62445 0.6056 0.0
O284 O 0.60599 0.45275 0.71409 0.0
O285 O 0.57056 0.50502 0.54923 0.0
O286 O 0.45588 0.60009 0.61288 0.0
O287 O 0.51594 0.5763 0.77801 0.0
H288 H 0.64532 0.47453 0.71246 0.0
H289 H 0.63109 0.48735 0.74356 0.0
H290 H 0.617 0.45498 0.75282 0.0
H291 H 0.65151 0.47444 0.74969 0.0
H292 H 0.63289 0.50443 0.7101 0.0
H293 H 0.55843 0.4365 0.70625 0.0
H294 H 0.61361 0.54895 0.71388 0.0
H295 H 0.63952 0.54561 0.7035 0.0
H296 H 0.61588 0.54675 0.68746 0.0
H297 H 0.5207 0.438 0.69939 0.0
H298 H 0.52165 0.46687 0.70818 0.0
H299 H 0.52628 0.46339 0.6823 0.0
H300 H 0.48407 0.54602 0.79214 0.0
H301 H 0.48519 0.57422 0.8152 0.0
H302 H 0.50899 0.59945 0.80414 0.0
H303 H 0.4616 0.59119 0.78555 0.0
H304 H 0.48574 0.53074 0.7601 0.0
H305 H 0.56 0.59926 0.76056 0.0
H306 H 0.50131 0.49469 0.72762 0.0
H307 H 0.47462 0.49706 0.73758 0.0
H308 H 0.4872 0.50958 0.71323 0.0
H309 H 0.59195 0.60677 0.73685 0.0
H310 H 0.59107 0.57771 0.72864 0.0
H311 H 0.57876 0.59302 0.71276 0.0
H312 H 0.47811 0.63917 0.61576 0.0
H313 H 0.4386 0.55268 0.62149 0.0
H314 H 0.50756 0.62634 0.61839 0.0
H315 H 0.46583 0.52033 0.64665 0.0
H316 H 0.43906 0.51519 0.63106 0.0
H317 H 0.46657 0.51486 0.62052 0.0
H318 H 0.54845 0.63227 0.62533 0.0
H319 H 0.54872 0.60926 0.64246 0.0
H320 H 0.55136 0.60553 0.61628 0.0
H321 H 0.54445 0.46686 0.54453 0.0
H322 H 0.52865 0.4748 0.5121 0.0
H323 H 0.52614 0.49395 0.53153 0.0
H324 H 0.55211 0.5087 0.51386 0.0
H325 H 0.52367 0.4777 0.56639 0.0
H326 H 0.5979 0.54611 0.56939 0.0
H327 H 0.50371 0.481 0.61487 0.0
H328 H 0.49129 0.49564 0.5984 0.0
H329 H 0.49192 0.46724 0.59053 0.0
H330 H 0.60813 0.57818 0.59364 0.0
H331 H 0.58098 0.57949 0.6039 0.0
H332 H 0.59501 0.56387 0.61747 0.0
H333 H 0.56039 0.5211 0.72755 0.0
H334 H 0.51793 0.56451 0.70086 0.0
H335 H 0.50639 0.57124 0.66814 0.0
H336 H 0.51946 0.55024 0.60175 0.0
H337 H 0.56385 0.50877 0.62834 0.0
H338 H 0.57424 0.5009 0.6611 0.0
H339 H 0.46091 0.61274 0.57441 0.0
H340 H 0.48024 0.647 0.57867 0.0
H341 H 0.49267 0.62627 0.58503 0.0
C342 C 0.15572 0.49081 0.92706 0.0
C343 C 0.16827 0.49887 0.90653 0.0
C344 C 0.1323 0.46995 0.88471 0.0
C345 C 0.12154 0.4858 0.88172 0.0
C346 C 0.09698 0.47598 0.87323 0.0
C347 C 0.08261 0.44968 0.86794 0.0
C348 C 0.09346 0.43371 0.87072 0.0
C349 C 0.11838 0.44421 0.87876 0.0
C350 C 0.08627 0.49374 0.87009 0.0
C351 C 0.07857 0.40549 0.86552 0.0
C352 C 0.90558 0.39764 0.95056 0.0
C353 C 0.9201 0.39162 0.93574 0.0
C354 C 0.95285 0.41412 0.91017 0.0
C355 C 0.95881 0.39449 0.90729 0.0
C356 C 0.97811 0.39772 0.89385 0.0
C357 C 0.99176 0.42106 0.88325 0.0
C358 C 0.98619 0.44104 0.8865 0.0
C359 C 0.96665 0.43719 0.89984 0.0
C360 C 0.98363 0.37608 0.89067 0.0
C361 C 0.00063 0.46633 0.87566 0.0
C362 C 0.90614 0.38005 0.77321 0.0
C363 C 0.91534 0.36297 0.77622 0.0
C364 C 0.94174 0.37215 0.77901 0.0
C365 C 0.95916 0.39896 0.77884 0.0
C366 C 0.95009 0.41608 0.77434 0.0
C367 C 0.92359 0.40632 0.77138 0.0
C368 C 0.95085 0.35332 0.78316 0.0
C369 C 0.9682 0.44473 0.77377 0.0
C370 C 0.16033 0.47265 0.73462 0.0
C371 C 0.13858 0.47717 0.72776 0.0
C372 C 0.0942 0.44707 0.73788 0.0
C373 C 0.07903 0.42142 0.74358 0.0
C374 C 0.05763 0.41367 0.756 0.0
C375 C 0.05117 0.43209 0.76261 0.0
C376 C 0.06539 0.45773 0.75575 0.0
C377 C 0.08674 0.46496 0.74336 0.0
C378 C 0.04251 0.38606 0.7627 0.0
C379 C 0.05847 0.47763 0.76204 0.0
C380 C 0.05588 0.4388 0.86029 0.0
C381 C 0.0364 0.43327 0.87413 0.0
C382 C 0.01101 0.42426 0.86802 0.0
C383 C 0.00455 0.41994 0.8476 0.0
C384 C 0.97907 0.41041 0.84104 0.0
C385 C 0.97296 0.40681 0.8209 0.0
C386 C 0.99208 0.41257 0.80649 0.0
C387 C 0.98603 0.40916 0.78594 0.0
C388 C 0.00555 0.41548 0.77197 0.0
C389 C 0.03112 0.42513 0.77804 0.0
C390 C 0.03748 0.42838 0.79854 0.0
C391 C 0.06299 0.43791 0.80515 0.0
C392 C 0.06908 0.4413 0.82534 0.0
C393 C 0.0499 0.43521 0.83973 0.0
C394 C 0.02409 0.4256 0.83339 0.0
C395 C 0.01787 0.4221 0.8128 0.0
C396 C 0.86105 0.3747 0.80291 0.0
C397 C 0.86375 0.35704 0.7878 0.0
O398 O 0.1559 0.47861 0.89318 0.0
O399 O 0.11578 0.45375 0.72712 0.0
O400 O 0.88052 0.37169 0.7728 0.0
O401 O 0.93397 0.41165 0.92264 0.0
H402 H 0.16697 0.51572 0.90139 0.0
H403 H 0.13525 0.48591 0.92621 0.0
H404 H 0.15642 0.47371 0.93252 0.0
H405 H 0.1658 0.50679 0.93792 0.0
H406 H 0.13212 0.5059 0.88572 0.0
H407 H 0.12685 0.43214 0.88098 0.0
H408 H 0.07043 0.48881 0.88083 0.0
H409 H 0.10111 0.51426 0.87227 0.0
H410 H 0.07811 0.49127 0.85486 0.0
H411 H 0.08909 0.39535 0.86976 0.0
H412 H 0.05963 0.39619 0.87316 0.0
H413 H 0.07478 0.40315 0.84926 0.0
H414 H 0.9091 0.37246 0.92837 0.0
H415 H 0.92379 0.39892 0.97825 0.0
H416 H 0.90434 0.41454 0.94461 0.0
H417 H 0.8847 0.38335 0.9474 0.0
H418 H 0.94827 0.37653 0.91526 0.0
H419 H 0.96199 0.45224 0.90226 0.0
H420 H 0.98047 0.37016 0.87478 0.0
H421 H 0.00414 0.38281 0.89421 0.0
H422 H 0.97127 0.35907 0.90001 0.0
H423 H 0.9955 0.48066 0.88111 0.0
H424 H 0.02171 0.47441 0.87746 0.0
H425 H 0.99618 0.46317 0.85951 0.0
H426 H 0.87166 0.34665 0.79638 0.0
H427 H 0.90179 0.34251 0.77688 0.0
H428 H 0.91625 0.41927 0.76871 0.0
H429 H 0.95674 0.35493 0.79901 0.0
H430 H 0.9356 0.33315 0.78017 0.0
H431 H 0.96796 0.35791 0.77392 0.0
H432 H 0.95833 0.45537 0.76912 0.0
H433 H 0.97678 0.45161 0.78875 0.0
H434 H 0.98422 0.4493 0.7633 0.0
H435 H 0.13756 0.49039 0.73887 0.0
H436 H 0.17887 0.49114 0.73529 0.0
H437 H 0.15603 0.46404 0.74974 0.0
H438 H 0.16241 0.45931 0.72433 0.0
H439 H 0.08461 0.40764 0.73885 0.0
H440 H 0.09757 0.48457 0.73808 0.0
H441 H 0.04448 0.38511 0.77907 0.0
H442 H 0.02174 0.37811 0.75935 0.0
H443 H 0.04915 0.3738 0.7554 0.0
H444 H 0.07014 0.49622 0.75421 0.0
H445 H 0.03775 0.47049 0.75903 0.0
H446 H 0.06161 0.48104 0.77831 0.0
H447 H 0.04119 0.43665 0.88984 0.0
H448 H 0.96352 0.40564 0.8514 0.0
H449 H 0.95301 0.39955 0.81681 0.0
H450 H 0.00082 0.41297 0.75624 0.0
H451 H 0.07859 0.44292 0.79479 0.0
H452 H 0.08904 0.44882 0.82952 0.0
H453 H 0.84603 0.36316 0.81408 0.0
H454 H 0.87964 0.38639 0.81087 0.0
H455 H 0.85609 0.38813 0.79544 0.0
C456 C 0.40116 0.85668 0.91147 0.0
C457 C 0.40708 0.85041 0.93227 0.0
C458 C 0.44025 0.89352 0.94375 0.0
C459 C 0.42353 0.90312 0.94754 0.0
C460 C 0.43327 0.929 0.95277 0.0
C461 C 0.46022 0.94569 0.9541 0.0
C462 C 0.47707 0.93604 0.95054 0.0
C463 C 0.46681 0.91001 0.94558 0.0
C464 C 0.41474 0.93861 0.95668 0.0
C465 C 0.50591 0.95332 0.95168 0.0
C466 C 0.46277 0.05649 0.84546 0.0
C467 C 0.48555 0.06952 0.85989 0.0
C468 C 0.4789 0.05758 0.89509 0.0
C469 C 0.50078 0.05524 0.89842 0.0
C470 C 0.50225 0.04191 0.91507 0.0
C471 C 0.48155 0.03101 0.9287 0.0
C472 C 0.45993 0.03418 0.92574 0.0
C473 C 0.45904 0.04769 0.90904 0.0
C474 C 0.52583 0.03938 0.9181 0.0
C475 C 0.43758 0.02297 0.94005 0.0
C476 C 0.54391 0.13908 0.03009 0.0
C477 C 0.56002 0.12869 0.02689 0.0
C478 C 0.54972 0.10201 0.02545 0.0
C479 C 0.52283 0.08545 0.02738 0.0
C480 C 0.50678 0.09582 0.03182 0.0
C481 C 0.51763 0.12258 0.03328 0.0
C482 C 0.56746 0.09152 0.02133 0.0
C483 C 0.4781 0.07867 0.0343 0.0
C484 C 0.44756 0.90269 0.08354 0.0
C485 C 0.45063 0.9203 0.10114 0.0
C486 C 0.47842 0.96188 0.08511 0.0
C487 C 0.50406 0.97789 0.07954 0.0
C488 C 0.51053 0.99568 0.06401 0.0
C489 C 0.49081 0.99791 0.05424 0.0
C490 C 0.46499 0.98295 0.06071 0.0
C491 C 0.45901 0.96485 0.07589 0.0
C492 C 0.53828 0.01149 0.05765 0.0
C493 C 0.44357 0.98566 0.0513 0.0
C494 C 0.47076 0.97342 0.95852 0.0
C495 C 0.47287 0.98951 0.94277 0.0
C496 C 0.48209 0.0157 0.94582 0.0
C497 C 0.49009 0.02644 0.96503 0.0
C498 C 0.5002 0.05285 0.96849 0.0
C499 C 0.50747 0.06313 0.98753 0.0
C500 C 0.50459 0.04734 0.00391 0.0
C501 C 0.51135 0.05752 0.02341 0.0
C502 C 0.50711 0.0411 0.03947 0.0
C503 C 0.49678 0.01468 0.03653 0.0
C504 C 0.49104 0.00435 0.01702 0.0
C505 C 0.48166 0.97804 0.01344 0.0
C506 C 0.47518 0.96788 0.9943 0.0
C507 C 0.47785 0.98363 0.97798 0.0
C508 C 0.48763 0.01027 0.98121 0.0
C509 C 0.49454 0.02068 0.00072 0.0
C510 C 0.55871 0.19245 0.00283 0.0
C511 C 0.57145 0.18222 0.01708 0.0
O512 O 0.43178 0.86876 0.93814 0.0
O513 O 0.47325 0.94372 0.09921 0.0
O514 O 0.55309 0.16483 0.03009 0.0
O515 O 0.47632 0.06945 0.8788 0.0
H516 H 0.39283 0.8499 0.9431 0.0
H517 H 0.40194 0.87552 0.91152 0.0
H518 H 0.4154 0.8575 0.9005 0.0
H519 H 0.38151 0.84181 0.90665 0.0
H520 H 0.40291 0.89068 0.94638 0.0
H521 H 0.47957 0.90246 0.94272 0.0
H522 H 0.41681 0.95241 0.94486 0.0
H523 H 0.39437 0.92278 0.95693 0.0
H524 H 0.41935 0.949 0.97112 0.0
H525 H 0.51643 0.94307 0.94778 0.0
H526 H 0.51205 0.96985 0.94142 0.0
H527 H 0.51153 0.96121 0.96698 0.0
H528 H 0.49542 0.05802 0.85938 0.0
H529 H 0.4697 0.05642 0.83014 0.0
H530 H 0.44985 0.03626 0.85007 0.0
H531 H 0.45148 0.06657 0.84534 0.0
H532 H 0.51681 0.06394 0.88817 0.0
H533 H 0.44246 0.05001 0.9065 0.0
H534 H 0.52027 0.01877 0.91748 0.0
H535 H 0.54082 0.05 0.90669 0.0
H536 H 0.53419 0.04675 0.93307 0.0
H537 H 0.42191 0.02659 0.93535 0.0
H538 H 0.4296 0.0019 0.9413 0.0
H539 H 0.44437 0.03141 0.95508 0.0
H540 H 0.57929 0.1727 0.0074 0.0
H541 H 0.5806 0.14139 0.0254 0.0
H542 H 0.50546 0.1308 0.03617 0.0
H543 H 0.56303 0.08228 0.00642 0.0
H544 H 0.58809 0.10674 0.02174 0.0
H545 H 0.56424 0.07654 0.03244 0.0
H546 H 0.46836 0.08967 0.03823 0.0
H547 H 0.46959 0.06795 0.02026 0.0
H548 H 0.47418 0.0643 0.04614 0.0
H549 H 0.43384 0.92337 0.10162 0.0
H550 H 0.42966 0.88378 0.08512 0.0
H551 H 0.44623 0.91141 0.06936 0.0
H552 H 0.46433 0.89959 0.08272 0.0
H553 H 0.51894 0.97572 0.08693 0.0
H554 H 0.43915 0.95317 0.08039 0.0
H555 H 0.53999 0.00862 0.04151 0.0
H556 H 0.54504 0.0322 0.06 0.0
H557 H 0.55114 0.00648 0.06606 0.0
H558 H 0.42569 0.97635 0.06033 0.0
H559 H 0.44959 0.00626 0.04932 0.0
H560 H 0.43908 0.9765 0.03636 0.0
H561 H 0.4668 0.98144 0.92796 0.0
H562 H 0.50263 0.06588 0.95649 0.0
H563 H 0.51508 0.0836 0.98928 0.0
H564 H 0.51165 0.04893 0.05444 0.0
H565 H 0.47915 0.96495 0.02541 0.0
H566 H 0.46787 0.94748 0.99247 0.0
H567 H 0.57335 0.20728 0.99286 0.0
H568 H 0.54423 0.17645 0.99347 0.0
H569 H 0.54867 0.20088 0.0111 0.0
C570 C 0.71631 0.54381 0.13101 0.0
C571 C 0.70327 0.53583 0.11052 0.0
C572 C 0.6664 0.54276 0.11569 0.0
C573 C 0.64025 0.53001 0.12039 0.0
C574 C 0.62755 0.54363 0.12482 0.0
C575 C 0.64141 0.57081 0.12432 0.0
C576 C 0.66785 0.58394 0.11927 0.0
C577 C 0.68014 0.56978 0.115 0.0
C578 C 0.59938 0.52894 0.13031 0.0
C579 C 0.6831 0.61291 0.11862 0.0
C580 C 0.52717 0.63047 0.03235 0.0
C581 C 0.55012 0.63531 0.04415 0.0
C582 C 0.56091 0.61149 0.06824 0.0
C583 C 0.58353 0.63277 0.07555 0.0
C584 C 0.59696 0.63006 0.09167 0.0
C585 C 0.58728 0.60573 0.1008 0.0
C586 C 0.56445 0.58436 0.09345 0.0
C587 C 0.55176 0.58753 0.07712 0.0
C588 C 0.62154 0.65309 0.09889 0.0
C589 C 0.55354 0.55805 0.10263 0.0
C590 C 0.53534 0.65206 0.2097 0.0
C591 C 0.56224 0.66797 0.20891 0.0
C592 C 0.57826 0.65756 0.20544 0.0
C593 C 0.56719 0.63069 0.20303 0.0
C594 C 0.54022 0.61451 0.20484 0.0
C595 C 0.52465 0.62545 0.20828 0.0
C596 C 0.60702 0.67529 0.20408 0.0
C597 C 0.52785 0.58574 0.20269 0.0
C598 C 0.6925 0.5602 0.25076 0.0
C599 C 0.66388 0.54872 0.25561 0.0
C600 C 0.64556 0.57637 0.25178 0.0
C601 C 0.65604 0.60268 0.24853 0.0
C602 C 0.64397 0.61175 0.23556 0.0
C603 C 0.62065 0.59397 0.22606 0.0
C604 C 0.60877 0.56753 0.23086 0.0
C605 C 0.62146 0.55898 0.24361 0.0
C606 C 0.65687 0.6401 0.23109 0.0
C607 C 0.58337 0.54814 0.22166 0.0
C608 C 0.62812 0.58531 0.12936 0.0
C609 C 0.61655 0.59148 0.11392 0.0
C610 C 0.6011 0.60232 0.11782 0.0
C611 C 0.59724 0.60747 0.13769 0.0
C612 C 0.5814 0.61785 0.14221 0.0
C613 C 0.57722 0.6222 0.16185 0.0
C614 C 0.58845 0.61602 0.17775 0.0
C615 C 0.58374 0.61967 0.1978 0.0
C616 C 0.59467 0.61267 0.21326 0.0
C617 C 0.61053 0.60233 0.20922 0.0
C618 C 0.61593 0.5991 0.18927 0.0
C619 C 0.63219 0.58919 0.18471 0.0
C620 C 0.63649 0.58498 0.16511 0.0
C621 C 0.62483 0.59067 0.14927 0.0
C622 C 0.60912 0.60153 0.15347 0.0
C623 C 0.60461 0.6057 0.17351 0.0
C624 C 0.50717 0.67609 0.18307 0.0
C625 C 0.52181 0.68348 0.20295 0.0
O626 O 0.67734 0.52809 0.11208 0.0
O627 O 0.65946 0.56809 0.26214 0.0
O628 O 0.51923 0.66165 0.21209 0.0
O629 O 0.5473 0.61309 0.0527 0.0
H630 H 0.71276 0.55224 0.1 0.0
H631 H 0.71494 0.56026 0.13707 0.0
H632 H 0.70695 0.52755 0.14164 0.0
H633 H 0.73707 0.54987 0.12985 0.0
H634 H 0.62984 0.50919 0.12084 0.0
H635 H 0.70037 0.57995 0.1112 0.0
H636 H 0.58826 0.53465 0.12043 0.0
H637 H 0.59112 0.5078 0.12917 0.0
H638 H 0.59692 0.53375 0.1458 0.0
H639 H 0.7036 0.62031 0.11466 0.0
H640 H 0.67438 0.62004 0.10755 0.0
H641 H 0.68228 0.62086 0.13336 0.0
H642 H 0.56913 0.64738 0.03685 0.0
H643 H 0.53444 0.63546 0.0166 0.0
H644 H 0.51577 0.60914 0.02932 0.0
H645 H 0.51161 0.65039 0.0483 0.0
H646 H 0.59089 0.65139 0.06862 0.0
H647 H 0.53435 0.57125 0.07128 0.0
H648 H 0.61888 0.65792 0.11432 0.0
H649 H 0.63734 0.6485 0.09921 0.0
H650 H 0.62748 0.67023 0.08935 0.0
H651 H 0.53363 0.54461 0.09736 0.0
H652 H 0.56591 0.5499 0.09853 0.0
H653 H 0.55339 0.55929 0.11911 0.0
H654 H 0.5422 0.69716 0.19907 0.0
H655 H 0.57086 0.68848 0.21114 0.0
H656 H 0.50392 0.61328 0.20933 0.0
H657 H 0.61385 0.67345 0.18915 0.0
H658 H 0.6127 0.69573 0.20658 0.0
H659 H 0.61692 0.66964 0.21526 0.0
H660 H 0.50677 0.57571 0.20544 0.0
H661 H 0.5312 0.58095 0.18742 0.0
H662 H 0.53686 0.57835 0.21327 0.0
H663 H 0.65342 0.54017 0.24139 0.0
H664 H 0.6966 0.5448 0.24627 0.0
H665 H 0.69772 0.57393 0.23821 0.0
H666 H 0.70481 0.57078 0.26372 0.0
H667 H 0.67444 0.61596 0.25527 0.0
H668 H 0.61295 0.53867 0.24679 0.0
H669 H 0.66223 0.64338 0.21511 0.0
H670 H 0.64323 0.64719 0.23389 0.0
H671 H 0.67447 0.65154 0.24024 0.0
H672 H 0.57463 0.52932 0.22942 0.0
H673 H 0.56959 0.5554 0.22202 0.0
H674 H 0.58643 0.54507 0.20584 0.0
H675 H 0.61878 0.58685 0.0987 0.0
H676 H 0.57196 0.62265 0.13062 0.0
H677 H 0.56481 0.63021 0.1644 0.0
H678 H 0.59063 0.61511 0.22858 0.0
H679 H 0.64167 0.58434 0.19624 0.0
H680 H 0.64897 0.57706 0.16253 0.0
H681 H 0.50682 0.69288 0.17651 0.0
H682 H 0.51701 0.66969 0.17244 0.0
H683 H 0.48714 0.65999 0.18495 0.0
O684 O 0.61958 0.41321 0.42519 0.0
Cd685 Cd 0.62122 0.39483 0.39968 0.0
Cd686 Cd 0.67251 0.43163 0.40321 0.0
O687 O 0.66116 0.43954 0.42988 0.0
O688 O 0.58587 0.36445 0.39824 0.0
O689 O 0.62052 0.36098 0.4026 0.0
C690 C 0.59575 0.35001 0.4012 0.0
C691 C 0.70872 0.42676 0.40188 0.0
C692 C 0.63798 0.43037 0.43548 0.0
C693 C 0.64421 0.43464 0.36742 0.0
O694 O 0.66443 0.44587 0.37808 0.0
O695 O 0.62539 0.41306 0.37266 0.0
O696 O 0.71075 0.44891 0.40483 0.0
O697 O 0.68588 0.40702 0.40003 0.0
O698 O 0.22962 0.58408 0.5995 0.0
Cd699 Cd 0.25519 0.60777 0.57846 0.0
Cd700 Cd 0.23551 0.63756 0.58987 0.0
O701 O 0.2186 0.61091 0.61269 0.0
O702 O 0.28152 0.59682 0.57541 0.0
O703 O 0.29054 0.6349 0.587 0.0
C704 C 0.2982 0.61886 0.58272 0.0
C705 C 0.2622 0.68154 0.5949 0.0
C706 C 0.2174 0.58914 0.61247 0.0
C707 C 0.22407 0.61574 0.54807 0.0
O708 O 0.21922 0.62723 0.56183 0.0
O709 O 0.23961 0.60748 0.55107 0.0
O710 O 0.23747 0.6711 0.59611 0.0
O711 O 0.27171 0.66673 0.59186 0.0
O712 O 0.61709 0.21304 0.7716 0.0
Cd713 Cd 0.63771 0.22885 0.74594 0.0
Cd714 Cd 0.60604 0.24794 0.74293 0.0
O715 O 0.59314 0.23134 0.7705 0.0
O716 O 0.66836 0.22448 0.74854 0.0
O717 O 0.67122 0.26253 0.74653 0.0
C718 C 0.68254 0.24915 0.7484 0.0
C719 C 0.61845 0.29104 0.73823 0.0
C720 C 0.59976 0.2167 0.77911 0.0
C721 C 0.60064 0.20972 0.71181 0.0
O722 O 0.59182 0.22346 0.71874 0.0
O723 O 0.61996 0.21008 0.71998 0.0
O724 O 0.59452 0.27354 0.73956 0.0
O725 O 0.63556 0.28403 0.73973 0.0
O726 O 0.4517 0.65928 0.94269 0.0
Cd727 Cd 0.4368 0.66555 0.91702 0.0
Cd728 Cd 0.40201 0.61395 0.91991 0.0
O729 O 0.42105 0.61895 0.94663 0.0
O730 O 0.44726 0.7026 0.91645 0.0
O731 O 0.40674 0.67129 0.91954 0.0
C732 C 0.42325 0.69562 0.91868 0.0
C733 C 0.35732 0.58689 0.91956 0.0
C734 C 0.44141 0.63868 0.95281 0.0
C735 C 0.43692 0.63304 0.8837 0.0
O736 O 0.41998 0.61425 0.89369 0.0
O737 O 0.44613 0.6559 0.89007 0.0
O738 O 0.37278 0.57792 0.92097 0.0
O739 O 0.36726 0.61154 0.91878 0.0
O740 O 0.80498 0.36284 0.0479 0.0
Cd741 Cd 0.78031 0.35152 0.0719 0.0
Cd742 Cd 0.79228 0.40119 0.0716 0.0
O743 O 0.81307 0.40289 0.04672 0.0
O744 O 0.75451 0.31426 0.06869 0.0
O745 O 0.74445 0.34513 0.06867 0.0
C746 C 0.73722 0.32101 0.06723 0.0
C747 C 0.76683 0.4205 0.07172 0.0
C748 C 0.81634 0.38497 0.03993 0.0
C749 C 0.8073 0.38167 0.10789 0.0
O750 O 0.80763 0.40037 0.0988 0.0
O751 O 0.79664 0.35944 0.09998 0.0
O752 O 0.79162 0.43406 0.07193 0.0
O753 O 0.75642 0.39583 0.07068 0.0
O754 O 0.42833 0.81821 0.23681 0.0
Cd755 Cd 0.41943 0.79583 0.26184 0.0
Cd756 Cd 0.37124 0.77566 0.24744 0.0
O757 O 0.38965 0.79872 0.22309 0.0
O758 O 0.45159 0.79577 0.2693 0.0
O759 O 0.41631 0.76127 0.25843 0.0
C760 C 0.44019 0.77197 0.26382 0.0
C761 C 0.34034 0.73236 0.24405 0.0
C762 C 0.41345 0.81564 0.22241 0.0
C763 C 0.38325 0.80387 0.28674 0.0
O764 O 0.36724 0.79283 0.27266 0.0
O765 O 0.40562 0.80645 0.28602 0.0
O766 O 0.33517 0.75019 0.23963 0.0
O767 O 0.36358 0.7392 0.2495 0.0
H768 H 0.19499 0.61736 0.24762 0.0
H769 H 0.22459 0.5658 0.25878 0.0
H770 H 0.26917 0.60229 0.25595 0.0
H771 H 0.2423 0.65721 0.21174 0.0
H772 H 0.24434 0.68656 0.22046 0.0
H773 H 0.21482 0.65642 0.22334 0.0
H774 H 0.21556 0.66441 0.26132 0.0
H775 H 0.24494 0.69468 0.25852 0.0
H776 H 0.24371 0.67102 0.27563 0.0
H777 H 0.31054 0.64469 0.25249 0.0
H778 H 0.34549 0.68986 0.24924 0.0
H779 H 0.2885 0.71331 0.24001 0.0
C780 C 0.21087 0.61382 0.24968 0.0
C781 C 0.2064 0.58886 0.25387 0.0
C782 C 0.22767 0.58488 0.25596 0.0
C783 C 0.253 0.60543 0.25428 0.0
C784 C 0.25673 0.62982 0.25034 0.0
C785 C 0.23625 0.6341 0.24811 0.0
C786 C 0.24545 0.66217 0.24417 0.0
C787 C 0.23618 0.66579 0.22371 0.0
C788 C 0.23691 0.67375 0.26091 0.0
C789 C 0.27432 0.67302 0.24448 0.0
C790 C 0.28047 0.65408 0.24806 0.0
C791 C 0.30596 0.65966 0.24959 0.0
C792 C 0.32567 0.68536 0.2477 0.0
C793 C 0.31974 0.70508 0.24424 0.0
C794 C 0.2937 0.69865 0.2424 0.0
H795 H 0.55772 0.21312 0.44632 0.0
H796 H 0.4779 0.19335 0.43908 0.0
H797 H 0.49193 0.23346 0.42032 0.0
H798 H 0.58164 0.27824 0.45637 0.0
H799 H 0.61168 0.28954 0.4434 0.0
H800 H 0.59536 0.25768 0.45371 0.0
H801 H 0.59518 0.23859 0.41907 0.0
H802 H 0.61151 0.27047 0.40862 0.0
H803 H 0.58142 0.24612 0.39805 0.0
H804 H 0.51436 0.27718 0.40547 0.0
H805 H 0.54365 0.32225 0.3962 0.0
H806 H 0.60929 0.31476 0.41393 0.0
C807 C 0.54316 0.21713 0.44073 0.0
C808 C 0.51668 0.20032 0.44457 0.0
C809 C 0.49829 0.20612 0.43658 0.0
C810 C 0.50606 0.22878 0.42582 0.0
C811 C 0.53232 0.24537 0.42298 0.0
C812 C 0.55062 0.23985 0.43016 0.0
C813 C 0.57766 0.26195 0.42645 0.0
C814 C 0.59244 0.27247 0.44615 0.0
C815 C 0.5923 0.25379 0.41219 0.0
C816 C 0.57166 0.28109 0.41668 0.0
C817 C 0.54538 0.2709 0.4145 0.0
C818 C 0.53498 0.28527 0.40687 0.0
C819 C 0.55182 0.31091 0.40167 0.0
C820 C 0.57879 0.32204 0.40428 0.0
C821 C 0.58881 0.30671 0.41152 0.0
H822 H 0.41431 0.59034 0.5923 0.0
H823 H 0.46103 0.66756 0.61571 0.0
H824 H 0.42403 0.67481 0.61224 0.0
H825 H 0.38068 0.60555 0.55591 0.0
H826 H 0.35047 0.57615 0.55914 0.0
H827 H 0.38033 0.5768 0.56406 0.0
H828 H 0.36494 0.55981 0.59975 0.0
H829 H 0.33494 0.55892 0.59489 0.0
H830 H 0.35449 0.57677 0.6159 0.0
H831 H 0.38196 0.67367 0.60578 0.0
H832 H 0.33787 0.66404 0.59732 0.0
H833 H 0.31896 0.58761 0.57787 0.0
C834 C 0.41661 0.60864 0.59694 0.0
C835 C 0.44036 0.62824 0.60465 0.0
C836 C 0.44286 0.65217 0.61011 0.0
C837 C 0.42201 0.65647 0.60812 0.0
C838 C 0.39886 0.63672 0.6005 0.0
C839 C 0.39604 0.61326 0.59505 0.0
C840 C 0.36926 0.59532 0.58704 0.0
C841 C 0.37026 0.58804 0.56524 0.0
C842 C 0.35507 0.57129 0.60018 0.0
C843 C 0.35744 0.61237 0.58878 0.0
C844 C 0.3748 0.63617 0.59658 0.0
C845 C 0.36821 0.6551 0.59965 0.0
C846 C 0.34313 0.64946 0.59477 0.0
C847 C 0.32498 0.62511 0.58687 0.0
C848 C 0.3324 0.60645 0.58377 0.0
H849 H 0.82416 0.36386 0.77257 0.0
H850 H 0.84569 0.30568 0.78243 0.0
H851 H 0.80295 0.27231 0.7703 0.0
H852 H 0.76127 0.32758 0.79077 0.0
H853 H 0.74694 0.33927 0.77306 0.0
H854 H 0.78028 0.35903 0.77995 0.0
H855 H 0.79349 0.36296 0.74287 0.0
H856 H 0.76013 0.34322 0.73584 0.0
H857 H 0.78341 0.33425 0.7283 0.0
H858 H 0.75704 0.24497 0.76012 0.0
H859 H 0.71068 0.22516 0.7528 0.0
H860 H 0.71815 0.30084 0.75069 0.0
C861 C 0.81998 0.34415 0.77213 0.0
C862 C 0.8381 0.33728 0.77892 0.0
C863 C 0.83196 0.31129 0.77762 0.0
C864 C 0.80779 0.29224 0.77068 0.0
C865 C 0.79003 0.29951 0.7649 0.0
C866 C 0.79581 0.32483 0.76549 0.0
C867 C 0.77261 0.32722 0.75979 0.0
C868 C 0.76482 0.33896 0.77692 0.0
C869 C 0.77772 0.34284 0.74056 0.0
C870 C 0.75269 0.29921 0.75647 0.0
C871 C 0.7633 0.28362 0.7592 0.0
C872 C 0.74856 0.25698 0.75775 0.0
C873 C 0.72221 0.24591 0.75362 0.0
C874 C 0.71076 0.26144 0.75115 0.0
C875 C 0.72636 0.28847 0.75236 0.0
H876 H 0.44412 0.83748 0.92248 0.0
H877 H 0.36415 0.80393 0.94012 0.0
H878 H 0.35903 0.76048 0.93792 0.0
H879 H 0.43525 0.78886 0.88749 0.0
H880 H 0.46492 0.78975 0.89388 0.0
H881 H 0.46223 0.81811 0.89688 0.0
H882 H 0.47518 0.82102 0.93403 0.0
H883 H 0.47809 0.79278 0.93111 0.0
H884 H 0.45722 0.79366 0.94998 0.0
H885 H 0.36269 0.72066 0.93339 0.0
H886 H 0.3753 0.68767 0.92818 0.0
H887 H 0.45313 0.74772 0.91423 0.0
C888 C 0.42563 0.82102 0.92614 0.0
C889 C 0.40465 0.82408 0.93193 0.0
C890 C 0.38057 0.80199 0.93605 0.0
C891 C 0.37747 0.77728 0.93475 0.0
C892 C 0.39861 0.77499 0.92921 0.0
C893 C 0.42225 0.79628 0.92506 0.0
C894 C 0.44197 0.78862 0.91958 0.0
C895 C 0.45165 0.79682 0.89819 0.0
C896 C 0.46443 0.79967 0.93457 0.0
C897 C 0.42574 0.75968 0.92128 0.0
C898 C 0.40075 0.75216 0.92673 0.0
C899 C 0.38223 0.72633 0.92915 0.0
C900 C 0.38955 0.70774 0.92611 0.0
C901 C 0.41519 0.7151 0.92082 0.0
C902 C 0.43338 0.74144 0.91829 0.0
H903 H 0.74536 0.53879 0.09203 0.0
H904 H 0.66855 0.48325 0.11216 0.0
H905 H 0.67498 0.44793 0.10066 0.0
H906 H 0.7476 0.50259 0.04838 0.0
H907 H 0.78086 0.51196 0.05263 0.0
H908 H 0.76906 0.53307 0.05997 0.0
H909 H 0.78504 0.53411 0.09602 0.0
H910 H 0.79691 0.5131 0.0888 0.0
H911 H 0.77444 0.5043 0.10908 0.0
H912 H 0.69046 0.41849 0.08873 0.0
H913 H 0.71536 0.39723 0.08016 0.0
H914 H 0.78287 0.47181 0.06951 0.0
C915 C 0.72971 0.51919 0.09356 0.0
C916 C 0.70619 0.51389 0.10237 0.0
C917 C 0.68648 0.48793 0.1049 0.0
C918 C 0.68993 0.46768 0.09843 0.0
C919 C 0.71332 0.47362 0.08973 0.0
C920 C 0.73297 0.49874 0.08745 0.0
C921 C 0.75712 0.49985 0.07948 0.0
C922 C 0.76406 0.51262 0.05889 0.0
C923 C 0.7797 0.51365 0.09423 0.0
C924 C 0.74813 0.47145 0.07805 0.0
C925 C 0.72267 0.45663 0.08366 0.0
C926 C 0.71036 0.42988 0.08417 0.0
C927 C 0.72465 0.41797 0.07924 0.0
C928 C 0.75103 0.43287 0.07417 0.0
C929 C 0.7627 0.45991 0.07325 0.0
H930 H 0.29902 0.82733 0.57706 0.0
H931 H 0.37794 0.84919 0.59163 0.0
H932 H 0.36464 0.80358 0.59714 0.0
H933 H 0.26949 0.77821 0.61406 0.0
H934 H 0.24242 0.75701 0.59864 0.0
H935 H 0.25825 0.79124 0.59491 0.0
H936 H 0.26609 0.78524 0.55788 0.0
H937 H 0.25007 0.75097 0.56146 0.0
H938 H 0.28237 0.76779 0.55171 0.0
H939 H 0.34282 0.75562 0.60093 0.0
H940 H 0.3139 0.70855 0.60268 0.0
H941 H 0.24879 0.71814 0.58757 0.0
C942 C 0.31347 0.82247 0.58137 0.0
C943 C 0.33951 0.84181 0.58398 0.0
C944 C 0.3579 0.8347 0.58954 0.0
C945 C 0.35053 0.80887 0.59275 0.0
C946 C 0.32465 0.79035 0.59044 0.0
C947 C 0.30639 0.7968 0.58487 0.0
C948 C 0.27977 0.77322 0.58374 0.0
C949 C 0.26141 0.77504 0.59874 0.0
C950 C 0.26895 0.76907 0.56243 0.0
C951 C 0.28592 0.75252 0.58959 0.0
C952 C 0.31194 0.76279 0.59326 0.0
C953 C 0.32238 0.74736 0.59821 0.0
C954 C 0.30582 0.72068 0.59921 0.0
C955 C 0.2791 0.70976 0.59549 0.0
C956 C 0.26907 0.72599 0.59084 0.0
H957 H 0.59306 0.40856 0.72804 0.0
H958 H 0.67484 0.4581 0.71761 0.0
H959 H 0.68119 0.4205 0.72034 0.0
H960 H 0.59813 0.36819 0.76375 0.0
H961 H 0.57023 0.33924 0.75502 0.0
H962 H 0.57216 0.36986 0.7516 0.0
H963 H 0.56522 0.36145 0.71363 0.0
H964 H 0.56308 0.33069 0.71694 0.0
H965 H 0.58625 0.35371 0.69987 0.0
H966 H 0.67849 0.37734 0.72542 0.0
H967 H 0.6668 0.33213 0.73136 0.0
H968 H 0.58661 0.31136 0.73762 0.0
C969 C 0.61224 0.41145 0.72595 0.0
C970 C 0.63341 0.43617 0.72213 0.0
C971 C 0.65832 0.43923 0.72013 0.0
C972 C 0.66209 0.41803 0.72172 0.0
C973 C 0.64075 0.39392 0.72536 0.0
C974 C 0.61629 0.39054 0.72732 0.0
C975 C 0.59658 0.36274 0.73138 0.0
C976 C 0.58352 0.35985 0.75164 0.0
C977 C 0.57661 0.35149 0.71444 0.0
C978 C 0.61377 0.35101 0.73162 0.0
C979 C 0.63919 0.36924 0.72815 0.0
C980 C 0.65861 0.36289 0.72804 0.0
C981 C 0.6518 0.33719 0.73148 0.0
C982 C 0.6258 0.3182 0.73491 0.0
C983 C 0.60665 0.32536 0.73497 0.0
H984 H 0.20929 0.5478 0.91057 0.0
H985 H 0.19072 0.46827 0.90685 0.0
H986 H 0.23701 0.48211 0.91026 0.0
H987 H 0.26805 0.57513 0.8827 0.0
H988 H 0.28426 0.60348 0.89809 0.0
H989 H 0.24975 0.58715 0.89541 0.0
H990 H 0.2448 0.58267 0.93375 0.0
H991 H 0.27931 0.59892 0.93654 0.0
H992 H 0.25964 0.56751 0.94722 0.0
H993 H 0.28528 0.50479 0.91397 0.0
H994 H 0.33203 0.53446 0.91737 0.0
H995 H 0.31896 0.5993 0.91865 0.0
C996 C 0.21502 0.53334 0.91029 0.0
C997 C 0.19654 0.50703 0.90798 0.0
C998 C 0.20466 0.48857 0.90819 0.0
C999 C 0.23085 0.49624 0.91021 0.0
C1000 C 0.24858 0.52239 0.91223 0.0
C1001 C 0.24101 0.54064 0.91231 0.0
C1002 C 0.26384 0.56749 0.91479 0.0
C1003 C 0.26663 0.5843 0.89667 0.0
C1004 C 0.26177 0.57987 0.93423 0.0
C1005 C 0.28555 0.56156 0.91584 0.0
C1006 C 0.27632 0.53542 0.91447 0.0
C1007 C 0.29271 0.52528 0.91508 0.0
C1008 C 0.31925 0.54232 0.91705 0.0
C1009 C 0.32917 0.56922 0.91828 0.0
C1010 C 0.31199 0.57887 0.91774 0.0
H1011 H 0.62225 0.19462 0.01863 0.0
H1012 H 0.56969 0.21799 0.04203 0.0
H1013 H 0.60617 0.25527 0.05857 0.0
H1014 H 0.66368 0.21291 0.06305 0.0
H1015 H 0.69253 0.22331 0.04861 0.0
H1016 H 0.66206 0.19799 0.03938 0.0
H1017 H 0.66844 0.22369 0.0069 0.0
H1018 H 0.69881 0.24913 0.01606 0.0
H1019 H 0.67412 0.25609 0.00836 0.0
H1020 H 0.64907 0.29241 0.06948 0.0
H1021 H 0.69465 0.32424 0.07686 0.0
H1022 H 0.71854 0.27468 0.04852 0.0
C1023 C 0.6184 0.20747 0.02737 0.0
C1024 C 0.59326 0.20379 0.02866 0.0
C1025 C 0.5889 0.22079 0.0405 0.0
C1026 C 0.60947 0.24193 0.05 0.0
C1027 C 0.63415 0.24542 0.04793 0.0
C1028 C 0.63861 0.2284 0.03721 0.0
C1029 C 0.66694 0.23655 0.03717 0.0
C1030 C 0.67157 0.2165 0.04769 0.0
C1031 C 0.6777 0.24167 0.01586 0.0
C1032 C 0.67782 0.26117 0.04914 0.0
C1033 C 0.65863 0.26604 0.05514 0.0
C1034 C 0.66422 0.28857 0.06519 0.0
C1035 C 0.69012 0.30656 0.06924 0.0
C1036 C 0.70999 0.30171 0.06348 0.0
C1037 C 0.70367 0.27862 0.05345 0.0
H1038 H 0.47164 0.67317 0.21088 0.0
H1039 H 0.55157 0.72415 0.22735 0.0
H1040 H 0.53828 0.74875 0.24894 0.0
H1041 H 0.45574 0.72105 0.20552 0.0
H1042 H 0.42347 0.70238 0.21509 0.0
H1043 H 0.43875 0.68648 0.20353 0.0
H1044 H 0.43091 0.65917 0.23532 0.0
H1045 H 0.4157 0.67515 0.24703 0.0
H1046 H 0.44257 0.67501 0.25899 0.0
H1047 H 0.51718 0.77063 0.26552 0.0
H1048 H 0.49019 0.78927 0.27478 0.0
H1049 H 0.42407 0.7248 0.24677 0.0
C1050 C 0.4864 0.6894 0.21906 0.0
C1051 C 0.51281 0.69716 0.217 0.0
C1052 C 0.5313 0.71818 0.22842 0.0
C1053 C 0.52392 0.73214 0.24082 0.0
C1054 C 0.49789 0.72464 0.24186 0.0
C1055 C 0.47939 0.70375 0.23131 0.0
C1056 C 0.45305 0.70117 0.23356 0.0
C1057 C 0.44213 0.70289 0.21322 0.0
C1058 C 0.43446 0.67613 0.24437 0.0
C1059 C 0.4598 0.72445 0.24641 0.0
C1060 C 0.48567 0.73742 0.25137 0.0
C1061 C 0.49683 0.76045 0.26198 0.0
C1062 C 0.48131 0.7709 0.26718 0.0
C1063 C 0.45498 0.75845 0.26159 0.0
C1064 C 0.44402 0.73457 0.25154 0.0
H1065 H 0.79568 0.37584 0.35375 0.0
H1066 H 0.86175 0.44035 0.38208 0.0
H1067 H 0.83253 0.45175 0.39917 0.0
H1068 H 0.76098 0.40706 0.34457 0.0
H1069 H 0.72983 0.37952 0.34953 0.0
H1070 H 0.75567 0.37506 0.34079 0.0
H1071 H 0.75024 0.34658 0.37138 0.0
H1072 H 0.72427 0.35088 0.38021 0.0
H1073 H 0.75162 0.359 0.39606 0.0
H1074 H 0.7967 0.45853 0.41077 0.0
H1075 H 0.75658 0.45956 0.41661 0.0
H1076 H 0.71382 0.38975 0.38182 0.0
C1077 C 0.8043 0.39206 0.36381 0.0
C1078 C 0.83137 0.40686 0.36677 0.0
C1079 C 0.84121 0.42837 0.37977 0.0
C1080 C 0.82474 0.43502 0.38958 0.0
C1081 C 0.79833 0.42 0.3863 0.0
C1082 C 0.78814 0.39887 0.37385 0.0
C1083 C 0.75912 0.38664 0.37213 0.0
C1084 C 0.75093 0.38712 0.35047 0.0
C1085 C 0.74551 0.35915 0.38045 0.0
C1086 C 0.75465 0.40454 0.38525 0.0
C1087 C 0.77754 0.42363 0.39331 0.0
C1088 C 0.77861 0.44345 0.40481 0.0
C1089 C 0.75574 0.44391 0.40801 0.0
C1090 C 0.73209 0.42459 0.39985 0.0
C1091 C 0.73154 0.40446 0.38858 0.0
H1092 H 0.15006 0.53131 0.45316 0.0
H1093 H 0.12256 0.58465 0.44217 0.0
H1094 H 0.14832 0.6112 0.47064 0.0
H1095 H 0.15021 0.53392 0.50608 0.0
H1096 H 0.1794 0.53253 0.50891 0.0
H1097 H 0.15905 0.51806 0.48751 0.0
H1098 H 0.19776 0.54535 0.46431 0.0
H1099 H 0.21821 0.56005 0.48566 0.0
H1100 H 0.21525 0.57985 0.46692 0.0
H1101 H 0.17494 0.63038 0.50154 0.0
H1102 H 0.20176 0.64166 0.53195 0.0
H1103 H 0.21387 0.57719 0.52153 0.0
C1104 C 0.14939 0.54852 0.45685 0.0
C1105 C 0.13372 0.5555 0.44586 0.0
C1106 C 0.13386 0.57854 0.45073 0.0
C1107 C 0.14857 0.59384 0.46678 0.0
C1108 C 0.16346 0.58614 0.4775 0.0
C1109 C 0.16416 0.56414 0.47265 0.0
C1110 C 0.18175 0.56014 0.48655 0.0
C1111 C 0.16669 0.53465 0.49794 0.0
C1112 C 0.2046 0.56143 0.47518 0.0
C1113 C 0.19045 0.58306 0.50023 0.0
C1114 C 0.17969 0.59782 0.49477 0.0
C1115 C 0.18374 0.61916 0.50583 0.0
C1116 C 0.19896 0.62539 0.52307 0.0
C1117 C 0.21009 0.61045 0.52896 0.0
C1118 C 0.20603 0.58926 0.51718 0.0
H1119 H 0.47124 0.12601 0.63728 0.0
H1120 H 0.50316 0.06088 0.62937 0.0
H1121 H 0.54814 0.09574 0.65275 0.0
H1122 H 0.5421 0.18828 0.63856 0.0
H1123 H 0.53541 0.20467 0.65808 0.0
H1124 H 0.50957 0.18156 0.64257 0.0
H1125 H 0.48483 0.15596 0.67393 0.0
H1126 H 0.51049 0.17944 0.68929 0.0
H1127 H 0.50087 0.14593 0.69147 0.0
H1128 H 0.58423 0.13855 0.67331 0.0
H1129 H 0.61099 0.17367 0.69651 0.0
H1130 H 0.55828 0.20306 0.69116 0.0
C1131 C 0.48486 0.11971 0.64066 0.0
C1132 C 0.48456 0.09205 0.62757 0.0
C1133 C 0.50516 0.07837 0.63566 0.0
C1134 C 0.53361 0.10074 0.64913 0.0
C1135 C 0.5376 0.13096 0.65698 0.0
C1136 C 0.51426 0.13986 0.65378 0.0
C1137 C 0.5234 0.1646 0.66476 0.0
C1138 C 0.52788 0.18604 0.65012 0.0
C1139 C 0.50375 0.16128 0.68081 0.0
C1140 C 0.54903 0.16928 0.67398 0.0
C1141 C 0.55653 0.1511 0.66933 0.0
C1142 C 0.57888 0.1528 0.67701 0.0
C1143 C 0.594 0.17289 0.69013 0.0
C1144 C 0.58663 0.19102 0.69566 0.0
C1145 C 0.56429 0.18941 0.68712 0.0
H1146 H 0.43438 0.53438 0.79342 0.0
H1147 H 0.50867 0.61468 0.75996 0.0
H1148 H 0.5046 0.64512 0.79193 0.0
H1149 H 0.40055 0.57362 0.81409 0.0
H1150 H 0.39073 0.55642 0.83729 0.0
H1151 H 0.39527 0.54137 0.81569 0.0
H1152 H 0.42783 0.53326 0.83549 0.0
H1153 H 0.42293 0.54816 0.85702 0.0
H1154 H 0.45498 0.55997 0.8475 0.0
H1155 H 0.49092 0.65856 0.82808 0.0
H1156 H 0.4757 0.66763 0.85953 0.0
H1157 H 0.41833 0.58693 0.86484 0.0
C1158 C 0.44643 0.55502 0.79223 0.0
C1159 C 0.47471 0.5704 0.77515 0.0
C1160 C 0.49378 0.60603 0.77114 0.0
C1161 C 0.49201 0.62451 0.79155 0.0
C1162 C 0.46951 0.60878 0.81125 0.0
C1163 C 0.44714 0.57598 0.81141 0.0
C1164 C 0.43113 0.57065 0.82964 0.0
C1165 C 0.40275 0.55989 0.82383 0.0
C1166 C 0.43442 0.55191 0.84321 0.0
C1167 C 0.44272 0.59756 0.83917 0.0
C1168 C 0.4633 0.61796 0.829 0.0
C1169 C 0.47515 0.64311 0.83611 0.0
C1170 C 0.46637 0.64808 0.85397 0.0
C1171 C 0.44591 0.62795 0.86462 0.0
C1172 C 0.4341 0.60264 0.857 0.0
H1173 H 0.90213 0.34508 0.96296 0.0
H1174 H 0.96345 0.44282 0.95432 0.0
H1175 H 0.92852 0.45085 0.97924 0.0
H1176 H 0.83803 0.34986 0.96661 0.0
H1177 H 0.82343 0.32668 0.98629 0.0
H1178 H 0.84658 0.3253 0.97002 0.0
H1179 H 0.87435 0.32782 0.0006 0.0
H1180 H 0.85089 0.32876 0.01672 0.0
H1181 H 0.88415 0.35382 0.01816 0.0
H1182 H 0.8858 0.44204 0.00103 0.0
H1183 H 0.85079 0.43199 0.02473 0.0
H1184 H 0.82505 0.35074 0.01934 0.0
C1185 C 0.9078 0.36479 0.9665 0.0
C1186 C 0.93396 0.39277 0.95284 0.0
C1187 C 0.94671 0.42686 0.96103 0.0
C1188 C 0.92423 0.4316 0.97549 0.0
C1189 C 0.89507 0.40453 0.98405 0.0
C1190 C 0.88744 0.37273 0.9806 0.0
C1191 C 0.86341 0.35627 0.99212 0.0
C1192 C 0.84158 0.33848 0.97791 0.0
C1193 C 0.86851 0.34076 0.00783 0.0
C1194 C 0.85793 0.37638 0.00177 0.0
C1195 C 0.87504 0.40229 0.99698 0.0
C1196 C 0.87239 0.42224 0.00487 0.0
C1197 C 0.85237 0.41632 0.01826 0.0
C1198 C 0.8353 0.39058 0.02389 0.0
C1199 C 0.83795 0.37057 0.01526 0.0
H1200 H 0.40904 0.88453 0.12209 0.0
H1201 H 0.49264 0.92571 0.12291 0.0
H1202 H 0.49204 0.90341 0.15391 0.0
H1203 H 0.39901 0.88384 0.17478 0.0
H1204 H 0.37169 0.85168 0.17486 0.0
H1205 H 0.37879 0.87138 0.153 0.0
H1206 H 0.38027 0.836 0.13189 0.0
H1207 H 0.37325 0.81622 0.1537 0.0
H1208 H 0.40156 0.82436 0.13919 0.0
H1209 H 0.48229 0.8773 0.18513 0.0
H1210 H 0.46423 0.84796 0.2137 0.0
H1211 H 0.38686 0.82225 0.19173 0.0
C1212 C 0.42719 0.88901 0.12894 0.0
C1213 C 0.45084 0.9074 0.12042 0.0
C1214 C 0.47427 0.91222 0.12943 0.0
C1215 C 0.47412 0.89955 0.14699 0.0
C1216 C 0.45044 0.88177 0.1551 0.0
C1217 C 0.4274 0.87633 0.14629 0.0
C1218 C 0.4046 0.85587 0.1577 0.0
C1219 C 0.38753 0.86633 0.16555 0.0
C1220 C 0.389 0.83168 0.14485 0.0
C1221 C 0.4184 0.85089 0.17449 0.0
C1222 C 0.44482 0.86605 0.17271 0.0
C1223 C 0.46163 0.86524 0.18663 0.0
C1224 C 0.45116 0.84852 0.20283 0.0
C1225 C 0.42411 0.83273 0.20494 0.0
C1226 C 0.4076 0.83392 0.19048 0.0
H1227 H 0.68255 0.55227 0.29389 0.0
H1228 H 0.62552 0.49821 0.25244 0.0
H1229 H 0.61296 0.46331 0.27695 0.0
H1230 H 0.70383 0.51039 0.31112 0.0
H1231 H 0.7088 0.52178 0.33647 0.0
H1232 H 0.71161 0.54292 0.31646 0.0
H1233 H 0.67742 0.5511 0.33317 0.0
H1234 H 0.67461 0.53009 0.35331 0.0
H1235 H 0.64638 0.52417 0.33943 0.0
H1236 H 0.60775 0.43402 0.30564 0.0
H1237 H 0.61084 0.41251 0.33604 0.0
H1238 H 0.67307 0.48548 0.35767 0.0
C1239 C 0.66737 0.53311 0.29001 0.0
C1240 C 0.65519 0.52786 0.27119 0.0
C1241 C 0.6352 0.50259 0.26674 0.0
C1242 C 0.62793 0.48267 0.28056 0.0
C1243 C 0.64085 0.48836 0.29875 0.0
C1244 C 0.66014 0.51296 0.30349 0.0
C1245 C 0.67187 0.51377 0.32363 0.0
C1246 C 0.70073 0.52274 0.3218 0.0
C1247 C 0.66729 0.53079 0.33825 0.0
C1248 C 0.65643 0.48571 0.32936 0.0
C1249 C 0.63839 0.4714 0.31495 0.0
C1250 C 0.6218 0.44503 0.31703 0.0
C1251 C 0.6237 0.43299 0.33432 0.0
C1252 C 0.64231 0.44728 0.34914 0.0
C1253 C 0.65883 0.47397 0.34652 0.0
H1254 H 0.40532 0.91917 0.35688 0.0
H1255 H 0.32274 0.8794 0.36649 0.0
H1256 H 0.31832 0.84181 0.34784 0.0
H1257 H 0.40346 0.89834 0.30805 0.0
H1258 H 0.43164 0.89508 0.31039 0.0
H1259 H 0.42834 0.91777 0.32577 0.0
H1260 H 0.43412 0.8964 0.35734 0.0
H1261 H 0.43736 0.87353 0.34203 0.0
H1262 H 0.41321 0.86242 0.36123 0.0
H1263 H 0.3226 0.81056 0.32559 0.0
H1264 H 0.33521 0.78779 0.30145 0.0
H1265 H 0.4153 0.84711 0.30797 0.0
C1266 C 0.38637 0.90232 0.35547 0.0
C1267 C 0.36439 0.90189 0.36354 0.0
C1268 C 0.33983 0.87984 0.36076 0.0
C1269 C 0.33717 0.85846 0.35023 0.0
C1270 C 0.35928 0.85945 0.34265 0.0
C1271 C 0.38342 0.88077 0.34522 0.0
C1272 C 0.40395 0.87755 0.33473 0.0
C1273 C 0.41764 0.89842 0.31879 0.0
C1274 C 0.4233 0.87746 0.34973 0.0
C1275 C 0.38753 0.8513 0.32543 0.0
C1276 C 0.36181 0.84115 0.33021 0.0
C1277 C 0.34271 0.81809 0.32203 0.0
C1278 C 0.35004 0.80533 0.30833 0.0
C1279 C 0.37624 0.81555 0.3031 0.0
C1280 C 0.39522 0.83854 0.31211 0.0
H1281 H 0.54609 0.44132 0.51542 0.0
H1282 H 0.60835 0.51882 0.52731 0.0
H1283 H 0.63696 0.51135 0.50551 0.0
H1284 H 0.58542 0.41025 0.5112 0.0
H1285 H 0.56646 0.3899 0.49088 0.0
H1286 H 0.55166 0.40016 0.50929 0.0
H1287 H 0.53605 0.41909 0.4815 0.0
H1288 H 0.5507 0.40882 0.46304 0.0
H1289 H 0.55918 0.44211 0.46438 0.0
H1290 H 0.65841 0.49616 0.48144 0.0
H1291 H 0.66977 0.47593 0.45431 0.0
H1292 H 0.59282 0.40932 0.45648 0.0
C1293 C 0.56591 0.4565 0.51372 0.0
C1294 C 0.57514 0.48032 0.52357 0.0
C1295 C 0.60095 0.50013 0.52042 0.0
C1296 C 0.61739 0.49609 0.50803 0.0
C1297 C 0.60767 0.47232 0.49866 0.0
C1298 C 0.58246 0.45294 0.50118 0.0
C1299 C 0.57613 0.43003 0.48802 0.0
C1300 C 0.56953 0.40618 0.50061 0.0
C1301 C 0.55423 0.42472 0.47337 0.0
C1302 C 0.60157 0.43979 0.47739 0.0
C1303 C 0.61966 0.464 0.48404 0.0
C1304 C 0.64444 0.47716 0.47616 0.0
C1305 C 0.65073 0.46548 0.46079 0.0
C1306 C 0.63217 0.44108 0.45325 0.0
C1307 C 0.60741 0.42799 0.46192 0.0
H1308 H 0.15958 0.52846 0.71864 0.0
H1309 H 0.13284 0.45383 0.69137 0.0
H1310 H 0.14691 0.47448 0.65851 0.0
H1311 H 0.14276 0.55747 0.67663 0.0
H1312 H 0.17123 0.58845 0.68008 0.0
H1313 H 0.15658 0.56759 0.70112 0.0
H1314 H 0.20007 0.57022 0.7094 0.0
H1315 H 0.2148 0.59093 0.68836 0.0
H1316 H 0.21584 0.56157 0.69063 0.0
H1317 H 0.16765 0.50301 0.62967 0.0
H1318 H 0.19287 0.5378 0.60591 0.0
H1319 H 0.20561 0.59453 0.65123 0.0
C1320 C 0.15613 0.51648 0.70564 0.0
C1321 C 0.14462 0.48951 0.70743 0.0
C1322 C 0.14112 0.47445 0.69022 0.0
C1323 C 0.14908 0.48601 0.67154 0.0
C1324 C 0.16052 0.51265 0.67031 0.0
C1325 C 0.16392 0.52773 0.68684 0.0
C1326 C 0.17822 0.55606 0.68155 0.0
C1327 C 0.16117 0.5681 0.68505 0.0
C1328 C 0.20375 0.57054 0.69317 0.0
C1329 C 0.18287 0.55456 0.65955 0.0
C1330 C 0.17239 0.52928 0.65343 0.0
C1331 C 0.17561 0.52285 0.63418 0.0
C1332 C 0.19008 0.54276 0.62084 0.0
C1333 C 0.20105 0.56882 0.62673 0.0
C1334 C 0.19706 0.57477 0.64627 0.0
H1335 H 0.5319 0.08795 0.84081 0.0
H1336 H 0.47933 0.11187 0.86307 0.0
H1337 H 0.5066 0.15499 0.8485 0.0
H1338 H 0.59235 0.15141 0.84701 0.0
H1339 H 0.60577 0.14709 0.82434 0.0
H1340 H 0.58421 0.11956 0.83902 0.0
H1341 H 0.55469 0.09926 0.80821 0.0
H1342 H 0.57608 0.12664 0.79349 0.0
H1343 H 0.54249 0.11723 0.79523 0.0
H1344 H 0.53615 0.19312 0.82759 0.0
H1345 H 0.56563 0.22312 0.80223 0.0
H1346 H 0.59956 0.17459 0.79454 0.0
C1347 C 0.52659 0.10254 0.84311 0.0
C1348 C 0.50379 0.09679 0.85333 0.0
C1349 C 0.49699 0.11609 0.85557 0.0
C1350 C 0.51236 0.1406 0.84736 0.0
C1351 C 0.53455 0.14554 0.8371 0.0
C1352 C 0.54177 0.12709 0.83511 0.0
C1353 C 0.5652 0.13643 0.82195 0.0
C1354 C 0.58825 0.13876 0.83379 0.0
C1355 C 0.55924 0.11885 0.80364 0.0
C1356 C 0.56944 0.16259 0.81619 0.0
C1357 C 0.55177 0.16766 0.82524 0.0
C1358 C 0.55043 0.18961 0.82073 0.0
C1359 C 0.56723 0.20653 0.80629 0.0
C1360 C 0.58508 0.20135 0.79653 0.0
C1361 C 0.58654 0.17942 0.80201 0.0
H1362 H 0.56451 0.69022 0.03472 0.0
H1363 H 0.50604 0.60813 0.0751 0.0
H1364 H 0.46533 0.59741 0.04671 0.0
H1365 H 0.50339 0.69956 0.01752 0.0
H1366 H 0.51591 0.71041 0.9929 0.0
H1367 H 0.53765 0.71562 0.01324 0.0
H1368 H 0.55692 0.69187 0.99362 0.0
H1369 H 0.53536 0.68723 0.9733 0.0
H1370 H 0.53557 0.65996 0.98419 0.0
H1371 H 0.44068 0.59789 0.01202 0.0
H1372 H 0.42085 0.60056 0.98066 0.0
H1373 H 0.4886 0.67401 0.96782 0.0
C1374 C 0.54572 0.67405 0.03807 0.0
C1375 C 0.54122 0.64836 0.05607 0.0
C1376 C 0.50864 0.62167 0.06348 0.0
C1377 C 0.48395 0.6146 0.04529 0.0
C1378 C 0.49035 0.6355 0.02457 0.0
C1379 C 0.51915 0.66427 0.0213 0.0
C1380 C 0.51659 0.67592 0.00239 0.0
C1381 C 0.5185 0.70191 0.00678 0.0
C1382 C 0.53733 0.67891 0.9875 0.0
C1383 C 0.48928 0.65582 0.9952 0.0
C1384 C 0.47537 0.63423 0.00749 0.0
C1385 C 0.45092 0.61443 0.00244 0.0
C1386 C 0.43987 0.6161 0.98457 0.0
C1387 C 0.45322 0.63751 0.97186 0.0
C1388 C 0.478 0.65751 0.97738 0.0
H1389 H 0.89876 0.47999 0.19988 0.0
H1390 H 0.90329 0.40274 0.22899 0.0
H1391 H 0.86746 0.37125 0.19793 0.0
H1392 H 0.82398 0.43545 0.18096 0.0
H1393 H 0.82909 0.45347 0.15837 0.0
H1394 H 0.84872 0.46885 0.17997 0.0
H1395 H 0.8901 0.48203 0.15925 0.0
H1396 H 0.87017 0.46701 0.13774 0.0
H1397 H 0.89295 0.45762 0.14576 0.0
H1398 H 0.83865 0.35711 0.16242 0.0
H1399 H 0.81454 0.34786 0.13076 0.0
H1400 H 0.8296 0.42631 0.12904 0.0
C1401 C 0.89167 0.45955 0.20069 0.0
C1402 C 0.90823 0.44595 0.21576 0.0
C1403 C 0.8948 0.4105 0.21893 0.0
C1404 C 0.87359 0.39146 0.19906 0.0
C1405 C 0.86315 0.40608 0.18092 0.0
C1406 C 0.87079 0.43813 0.18192 0.0
C1407 C 0.85845 0.44282 0.16438 0.0
C1408 C 0.8389 0.4506 0.17134 0.0
C1409 C 0.87914 0.46359 0.151 0.0
C1410 C 0.84499 0.41629 0.15408 0.0
C1411 C 0.84747 0.39659 0.16329 0.0
C1412 C 0.83645 0.37198 0.15517 0.0
C1413 C 0.82278 0.3669 0.13721 0.0
C1414 C 0.8203 0.3864 0.12747 0.0
C1415 C 0.83128 0.41107 0.1362 0.0
loop_
_geom_bond_atom_site_label_1
_geom_bond_atom_site_label_2
_geom_bond_distance
_geom_bond_site_symmetry_2
_ccdc_geom_bond_type
C0 C1 1.560 . S
C0 H61 0.959 . S
C0 H62 0.959 . S
C0 H63 0.960 . S
C1 C0 1.560 . S
C1 O56 1.426 . S
C1 H60 0.980 . S
C2 C3 1.407 . S
C2 C7 1.418 . S
C2 O56 1.334 . S
C3 C2 1.407 . S
C3 C4 1.360 . S
C3 H64 0.929 . S
C4 C3 1.360 . S
C4 C5 1.401 . S
C4 C8 1.527 . S
C5 C4 1.401 . S
C5 C6 1.405 . S
C5 C38 1.587 . S
C6 C5 1.405 . S
C6 C7 1.332 . S
C6 C9 1.496 . S
C7 C2 1.418 . S
C7 C6 1.332 . S
C7 H65 0.929 . S
C8 C4 1.527 . S
C8 H66 0.959 . S
C8 H67 0.961 . S
C8 H68 0.961 . S
C9 C6 1.496 . S
C9 H69 0.960 . S
C9 H70 0.960 . S
C9 H71 0.961 . S
C10 C11 1.517 . S
C10 H73 0.961 . S
C10 H74 0.960 . S
C10 H75 0.959 . S
C11 C10 1.517 . S
C11 O59 1.468 . S
C11 H72 0.980 . S
C12 C13 1.349 . S
C12 C17 1.367 . S
C12 O59 1.408 . S
C13 C12 1.349 . S
C13 C14 1.407 . S
C13 H76 0.930 . S
C14 C13 1.407 . S
C14 C15 1.458 . S
C14 C18 1.538 1_655 S
C15 C14 1.458 . S
C15 C16 1.382 . S
C15 C40 1.548 1_655 S
C16 C15 1.382 . S
C16 C17 1.364 . S
C16 C19 1.450 . S
C17 C12 1.367 . S
C17 C16 1.364 . S
C17 H77 0.931 . S
C18 C14 1.538 1_455 S
C18 H78 0.968 . S
C18 H79 0.962 . S
C18 H80 0.946 1_455 S
C19 C16 1.450 . S
C19 H81 0.960 . S
C19 H82 0.959 1_655 S
C19 H83 0.960 . S
C20 C21 1.309 . S
C20 C25 1.304 . S
C20 O58 1.435 . S
C21 C20 1.309 . S
C21 C22 1.476 . S
C21 H85 0.930 . S
C22 C21 1.476 . S
C22 C23 1.400 . S
C22 C26 1.567 . S
C23 C22 1.400 . S
C23 C24 1.373 . S
C23 C45 1.432 . S
C24 C23 1.373 . S
C24 C25 1.339 . S
C24 C27 1.530 . S
C25 C20 1.304 . S
C25 C24 1.339 . S
C25 H86 0.930 . S
C26 C22 1.567 . S
C26 H87 0.961 . S
C26 H88 0.960 . S
C26 H89 0.958 . S
C27 C24 1.530 . S
C27 H90 0.961 . S
C27 H91 0.960 . S
C27 H92 0.960 . S
C28 C29 1.530 . S
C28 H94 0.961 . S
C28 H95 0.961 . S
C28 H96 0.959 . S
C29 C28 1.530 . S
C29 O57 1.412 . S
C29 H93 0.980 . S
C30 C31 1.288 . S
C30 C35 1.377 . S
C30 O57 1.393 . S
C31 C30 1.288 . S
C31 C32 1.369 . S
C31 H97 0.932 . S
C32 C31 1.369 . S
C32 C33 1.398 . S
C32 C36 1.527 . S
C33 C32 1.398 . S
C33 C34 1.380 . S
C33 C47 1.497 . S
C34 C33 1.380 . S
C34 C35 1.383 . S
C34 C37 1.603 . S
C35 C30 1.377 . S
C35 C34 1.383 . S
C35 H98 0.929 . S
C36 C32 1.527 . S
C36 H99 0.961 . S
C36 H100 0.959 . S
C36 H101 0.959 . S
C37 C34 1.603 . S
C37 H102 0.960 . S
C37 H103 0.962 . S
C37 H104 0.961 . S
C38 C5 1.587 . S
C38 C39 1.360 . S
C38 C51 1.412 . S
C39 C38 1.360 . S
C39 C40 1.365 . S
C39 H105 0.929 . S
C40 C15 1.548 1_455 S
C40 C39 1.365 . S
C40 C41 1.404 . S
C41 C40 1.404 . S
C41 C42 1.395 1_455 S
C41 C52 1.451 . S
C42 C41 1.395 1_655 S
C42 C43 1.322 . S
C42 H106 0.930 . S
C43 C42 1.322 . S
C43 C44 1.459 . S
C43 H107 0.929 . S
C44 C43 1.459 . S
C44 C45 1.445 . S
C44 C53 1.395 1_655 S
C45 C23 1.432 . S
C45 C44 1.445 . S
C45 C46 1.370 . S
C46 C45 1.370 . S
C46 C47 1.438 1_655 S
C46 H108 0.930 . S
C47 C33 1.497 . S
C47 C46 1.438 1_455 S
C47 C48 1.360 . S
C48 C47 1.360 . S
C48 C49 1.401 . S
C48 C53 1.446 . S
C49 C48 1.401 . S
C49 C50 1.347 . S
C49 H109 0.929 . S
C50 C49 1.347 . S
C50 C51 1.455 . S
C50 H110 0.930 . S
C51 C38 1.412 . S
C51 C50 1.455 . S
C51 C52 1.331 . S
C52 C41 1.451 . S
C52 C51 1.331 . S
C52 C53 1.497 . S
C53 C44 1.395 1_455 S
C53 C48 1.446 . S
C53 C52 1.497 . S
C54 C55 1.582 . S
C54 H111 0.962 . S
C54 H112 0.959 . S
C54 H113 0.958 . S
C55 C54 1.582 . S
C55 O58 1.458 . S
C55 H84 0.980 . S
O56 C1 1.426 . S
O56 C2 1.334 . S
O57 C29 1.412 . S
O57 C30 1.393 . S
O58 C20 1.435 . S
O58 C55 1.458 . S
O59 C11 1.468 . S
O59 C12 1.408 . S
H60 C1 0.980 . S
H61 C0 0.959 . S
H62 C0 0.959 . S
H63 C0 0.960 . S
H64 C3 0.929 . S
H65 C7 0.929 . S
H66 C8 0.959 . S
H67 C8 0.961 . S
H68 C8 0.961 . S
H69 C9 0.960 . S
H70 C9 0.960 . S
H71 C9 0.961 . S
H72 C11 0.980 . S
H73 C10 0.961 . S
H74 C10 0.960 . S
H75 C10 0.959 . S
H76 C13 0.930 . S
H77 C17 0.931 . S
H78 C18 0.968 . S
H79 C18 0.962 . S
H80 C18 0.946 1_655 S
H81 C19 0.960 . S
H82 C19 0.959 1_455 S
H83 C19 0.960 . S
H84 C55 0.980 . S
H85 C21 0.930 . S
H86 C25 0.930 . S
H87 C26 0.961 . S
H88 C26 0.960 . S
H89 C26 0.958 . S
H90 C27 0.961 . S
H91 C27 0.960 . S
H92 C27 0.960 . S
H93 C29 0.980 . S
H94 C28 0.961 . S
H95 C28 0.961 . S
H96 C28 0.959 . S
H97 C31 0.932 . S
H98 C35 0.929 . S
H99 C36 0.961 . S
H100 C36 0.959 . S
H101 C36 0.959 . S
H102 C37 0.960 . S
H103 C37 0.962 . S
H104 C37 0.961 . S
H105 C39 0.929 . S
H106 C42 0.930 . S
H107 C43 0.929 . S
H108 C46 0.930 . S
H109 C49 0.929 . S
H110 C50 0.930 . S
H111 C54 0.962 . S
H112 C54 0.959 . S
H113 C54 0.958 . S
C114 C115 1.560 . S
C114 H175 0.959 . S
C114 H176 0.959 . S
C114 H177 0.960 . S
C115 C114 1.560 . S
C115 O170 1.426 . S
C115 H174 0.980 . S
C116 C117 1.407 . S
C116 C121 1.418 . S
C116 O170 1.334 . S
C117 C116 1.407 . S
C117 C118 1.360 . S
C117 H178 0.929 . S
C118 C117 1.360 . S
C118 C119 1.401 . S
C118 C122 1.527 . S
C119 C118 1.401 . S
C119 C120 1.405 . S
C119 C152 1.587 . S
C120 C119 1.405 . S
C120 C121 1.332 . S
C120 C123 1.496 . S
C121 C116 1.418 . S
C121 C120 1.332 . S
C121 H179 0.929 . S
C122 C118 1.527 . S
C122 H180 0.959 . S
C122 H181 0.961 . S
C122 H182 0.961 . S
C123 C120 1.496 . S
C123 H183 0.960 . S
C123 H184 0.960 . S
C123 H185 0.961 . S
C124 C125 1.517 . S
C124 H187 0.961 . S
C124 H188 0.960 . S
C124 H189 0.959 . S
C125 C124 1.517 . S
C125 O173 1.468 . S
C125 H186 0.980 . S
C126 C127 1.349 . S
C126 C131 1.367 . S
C126 O173 1.408 . S
C127 C126 1.349 . S
C127 C128 1.407 . S
C127 H190 0.930 . S
C128 C127 1.407 . S
C128 C129 1.449 . S
C128 C132 1.535 . S
C129 C128 1.449 . S
C129 C130 1.384 . S
C129 C154 1.553 . S
C130 C129 1.384 . S
C130 C131 1.364 . S
C130 C133 1.450 . S
C131 C126 1.367 . S
C131 C130 1.364 . S
C131 H191 0.931 . S
C132 C128 1.535 . S
C132 H192 0.959 . S
C132 H193 0.961 . S
C132 H194 0.959 . S
C133 C130 1.450 . S
C133 H195 0.960 . S
C133 H196 0.960 . S
C133 H197 0.960 . S
C134 C135 1.309 . S
C134 C139 1.304 . S
C134 O172 1.435 . S
C135 C134 1.309 . S
C135 C136 1.476 . S
C135 H199 0.930 . S
C136 C135 1.476 . S
C136 C137 1.400 . S
C136 C140 1.567 . S
C137 C136 1.400 . S
C137 C138 1.373 . S
C137 C159 1.432 . S
C138 C137 1.373 . S
C138 C139 1.339 . S
C138 C141 1.530 . S
C139 C134 1.304 . S
C139 C138 1.339 . S
C139 H200 0.930 . S
C140 C136 1.567 . S
C140 H201 0.961 . S
C140 H202 0.960 . S
C140 H203 0.958 . S
C141 C138 1.530 . S
C141 H204 0.961 . S
C141 H205 0.960 . S
C141 H206 0.960 . S
C142 C143 1.530 . S
C142 H208 0.961 . S
C142 H209 0.961 . S
C142 H210 0.959 . S
C143 C142 1.530 . S
C143 O171 1.412 . S
C143 H207 0.980 . S
C144 C145 1.288 . S
C144 C149 1.377 . S
C144 O171 1.393 . S
C145 C144 1.288 . S
C145 C146 1.369 . S
C145 H211 0.932 . S
C146 C145 1.369 . S
C146 C147 1.398 . S
C146 C150 1.527 1_565 S
C147 C146 1.398 . S
C147 C148 1.380 . S
C147 C161 1.497 1_565 S
C148 C147 1.380 . S
C148 C149 1.383 . S
C148 C151 1.603 . S
C149 C144 1.377 . S
C149 C148 1.383 . S
C149 H212 0.929 . S
C150 C146 1.527 1_545 S
C150 H213 0.961 . S
C150 H214 0.959 . S
C150 H215 0.959 1_545 S
C151 C148 1.603 . S
C151 H216 0.960 . S
C151 H217 0.962 . S
C151 H218 0.961 . S
C152 C119 1.587 . S
C152 C153 1.360 . S
C152 C165 1.412 . S
C153 C152 1.360 . S
C153 C154 1.365 1_565 S
C153 H219 0.929 . S
C154 C129 1.553 . S
C154 C153 1.365 1_545 S
C154 C155 1.404 . S
C155 C154 1.404 . S
C155 C156 1.395 . S
C155 C166 1.451 . S
C156 C155 1.395 . S
C156 C157 1.322 . S
C156 H220 0.930 . S
C157 C156 1.322 . S
C157 C158 1.459 . S
C157 H221 0.929 . S
C158 C157 1.459 . S
C158 C159 1.445 . S
C158 C167 1.395 . S
C159 C137 1.432 . S
C159 C158 1.445 . S
C159 C160 1.370 . S
C160 C159 1.370 . S
C160 C161 1.438 . S
C160 H222 0.930 . S
C161 C147 1.497 1_545 S
C161 C160 1.438 . S
C161 C162 1.343 1_545 S
C162 C161 1.343 1_565 S
C162 C163 1.439 . S
C162 C167 1.425 1_565 S
C163 C162 1.439 . S
C163 C164 1.347 . S
C163 H223 0.929 . S
C164 C163 1.347 . S
C164 C165 1.455 . S
C164 H224 0.930 . S
C165 C152 1.412 . S
C165 C164 1.455 . S
C165 C166 1.331 1_565 S
C166 C155 1.451 . S
C166 C165 1.331 1_545 S
C166 C167 1.497 . S
C167 C158 1.395 . S
C167 C162 1.425 1_545 S
C167 C166 1.497 . S
C168 C169 1.582 . S
C168 H225 0.962 . S
C168 H226 0.959 . S
C168 H227 0.958 . S
C169 C168 1.582 . S
C169 O172 1.458 . S
C169 H198 0.980 . S
O170 C115 1.426 . S
O170 C116 1.334 . S
O171 C143 1.412 . S
O171 C144 1.393 . S
O172 C134 1.435 . S
O172 C169 1.458 . S
O173 C125 1.468 . S
O173 C126 1.408 . S
H174 C115 0.980 . S
H175 C114 0.959 . S
H176 C114 0.959 . S
H177 C114 0.960 . S
H178 C117 0.929 . S
H179 C121 0.929 . S
H180 C122 0.959 . S
H181 C122 0.961 . S
H182 C122 0.961 . S
H183 C123 0.960 . S
H184 C123 0.960 . S
H185 C123 0.961 . S
H186 C125 0.980 . S
H187 C124 0.961 . S
H188 C124 0.960 . S
H189 C124 0.959 . S
H190 C127 0.930 . S
H191 C131 0.931 . S
H192 C132 0.959 . S
H193 C132 0.961 . S
H194 C132 0.959 . S
H195 C133 0.960 . S
H196 C133 0.960 . S
H197 C133 0.960 . S
H198 C169 0.980 . S
H199 C135 0.930 . S
H200 C139 0.930 . S
H201 C140 0.961 . S
H202 C140 0.960 . S
H203 C140 0.958 . S
H204 C141 0.961 . S
H205 C141 0.960 . S
H206 C141 0.960 . S
H207 C143 0.980 . S
H208 C142 0.961 . S
H209 C142 0.961 . S
H210 C142 0.959 . S
H211 C145 0.932 . S
H212 C149 0.929 . S
H213 C150 0.961 . S
H214 C150 0.959 . S
H215 C150 0.959 1_565 S
H216 C151 0.960 . S
H217 C151 0.962 . S
H218 C151 0.961 . S
H219 C153 0.929 . S
H220 C156 0.930 . S
H221 C157 0.929 . S
H222 C160 0.930 . S
H223 C163 0.929 . S
H224 C164 0.930 . S
H225 C168 0.962 . S
H226 C168 0.959 . S
H227 C168 0.958 . S
C228 C229 1.560 . S
C228 H289 0.959 . S
C228 H290 0.959 . S
C228 H291 0.960 . S
C229 C228 1.560 . S
C229 O284 1.426 . S
C229 H288 0.980 . S
C230 C231 1.407 . S
C230 C235 1.418 . S
C230 O284 1.334 . S
C231 C230 1.407 . S
C231 C232 1.360 . S
C231 H292 0.929 . S
C232 C231 1.360 . S
C232 C233 1.401 . S
C232 C236 1.527 . S
C233 C232 1.401 . S
C233 C234 1.405 . S
C233 C266 1.587 . S
C234 C233 1.405 . S
C234 C235 1.332 . S
C234 C237 1.496 . S
C235 C230 1.418 . S
C235 C234 1.332 . S
C235 H293 0.929 . S
C236 C232 1.527 . S
C236 H294 0.959 . S
C236 H295 0.961 . S
C236 H296 0.961 . S
C237 C234 1.496 . S
C237 H297 0.960 . S
C237 H298 0.960 . S
C237 H299 0.961 . S
C238 C239 1.517 . S
C238 H301 0.961 . S
C238 H302 0.960 . S
C238 H303 0.959 . S
C239 C238 1.517 . S
C239 O287 1.468 . S
C239 H300 0.980 . S
C240 C241 1.349 . S
C240 C245 1.367 . S
C240 O287 1.408 . S
C241 C240 1.349 . S
C241 C242 1.407 . S
C241 H304 0.930 . S
C242 C241 1.407 . S
C242 C243 1.449 . S
C242 C246 1.535 . S
C243 C242 1.449 . S
C243 C244 1.384 . S
C243 C268 1.553 . S
C244 C243 1.384 . S
C244 C245 1.364 . S
C244 C247 1.450 . S
C245 C240 1.367 . S
C245 C244 1.364 . S
C245 H305 0.931 . S
C246 C242 1.535 . S
C246 H306 0.959 . S
C246 H307 0.961 . S
C246 H308 0.959 . S
C247 C244 1.450 . S
C247 H309 0.960 . S
C247 H310 0.960 . S
C247 H311 0.960 . S
C248 C249 1.309 . S
C248 C253 1.304 . S
C248 O286 1.435 . S
C249 C248 1.309 . S
C249 C250 1.476 . S
C249 H313 0.930 . S
C250 C249 1.476 . S
C250 C251 1.400 . S
C250 C254 1.567 . S
C251 C250 1.400 . S
C251 C252 1.373 . S
C251 C273 1.432 . S
C252 C251 1.373 . S
C252 C253 1.339 . S
C252 C255 1.530 . S
C253 C248 1.304 . S
C253 C252 1.339 . S
C253 H314 0.930 . S
C254 C250 1.567 . S
C254 H315 0.961 . S
C254 H316 0.960 . S
C254 H317 0.958 . S
C255 C252 1.530 . S
C255 H318 0.961 . S
C255 H319 0.960 . S
C255 H320 0.960 . S
C256 C257 1.530 . S
C256 H322 0.961 . S
C256 H323 0.961 . S
C256 H324 0.959 . S
C257 C256 1.530 . S
C257 O285 1.412 . S
C257 H321 0.980 . S
C258 C259 1.288 . S
C258 C263 1.377 . S
C258 O285 1.393 . S
C259 C258 1.288 . S
C259 C260 1.369 . S
C259 H325 0.932 . S
C260 C259 1.369 . S
C260 C261 1.398 . S
C260 C264 1.527 . S
C261 C260 1.398 . S
C261 C262 1.380 . S
C261 C275 1.497 . S
C262 C261 1.380 . S
C262 C263 1.383 . S
C262 C265 1.603 . S
C263 C258 1.377 . S
C263 C262 1.383 . S
C263 H326 0.929 . S
C264 C260 1.527 . S
C264 H327 0.961 . S
C264 H328 0.959 . S
C264 H329 0.959 . S
C265 C262 1.603 . S
C265 H330 0.960 . S
C265 H331 0.962 . S
C265 H332 0.961 . S
C266 C233 1.587 . S
C266 C267 1.360 . S
C266 C279 1.412 . S
C267 C266 1.360 . S
C267 C268 1.365 . S
C267 H333 0.929 . S
C268 C243 1.553 . S
C268 C267 1.365 . S
C268 C269 1.404 . S
C269 C268 1.404 . S
C269 C270 1.395 . S
C269 C280 1.451 . S
C270 C269 1.395 . S
C270 C271 1.322 . S
C270 H334 0.930 . S
C271 C270 1.322 . S
C271 C272 1.459 . S
C271 H335 0.929 . S
C272 C271 1.459 . S
C272 C273 1.445 . S
C272 C281 1.395 . S
C273 C251 1.432 . S
C273 C272 1.445 . S
C273 C274 1.370 . S
C274 C273 1.370 . S
C274 C275 1.438 . S
C274 H336 0.930 . S
C275 C261 1.497 . S
C275 C274 1.438 . S
C275 C276 1.360 . S
C276 C275 1.360 . S
C276 C277 1.401 . S
C276 C281 1.446 . S
C277 C276 1.401 . S
C277 C278 1.347 . S
C277 H337 0.929 . S
C278 C277 1.347 . S
C278 C279 1.455 . S
C278 H338 0.930 . S
C279 C266 1.412 . S
C279 C278 1.455 . S
C279 C280 1.331 . S
C280 C269 1.451 . S
C280 C279 1.331 . S
C280 C281 1.497 . S
C281 C272 1.395 . S
C281 C276 1.446 . S
C281 C280 1.497 . S
C282 C283 1.582 . S
C282 H339 0.962 . S
C282 H340 0.959 . S
C282 H341 0.958 . S
C283 C282 1.582 . S
C283 O286 1.458 . S
C283 H312 0.980 . S
O284 C229 1.426 . S
O284 C230 1.334 . S
O285 C257 1.412 . S
O285 C258 1.393 . S
O286 C248 1.435 . S
O286 C283 1.458 . S
O287 C239 1.468 . S
O287 C240 1.408 . S
H288 C229 0.980 . S
H289 C228 0.959 . S
H290 C228 0.959 . S
H291 C228 0.960 . S
H292 C231 0.929 . S
H293 C235 0.929 . S
H294 C236 0.959 . S
H295 C236 0.961 . S
H296 C236 0.961 . S
H297 C237 0.960 . S
H298 C237 0.960 . S
H299 C237 0.961 . S
H300 C239 0.980 . S
H301 C238 0.961 . S
H302 C238 0.960 . S
H303 C238 0.959 . S
H304 C241 0.930 . S
H305 C245 0.931 . S
H306 C246 0.959 . S
H307 C246 0.961 . S
H308 C246 0.959 . S
H309 C247 0.960 . S
H310 C247 0.960 . S
H311 C247 0.960 . S
H312 C283 0.980 . S
H313 C249 0.930 . S
H314 C253 0.930 . S
H315 C254 0.961 . S
H316 C254 0.960 . S
H317 C254 0.958 . S
H318 C255 0.961 . S
H319 C255 0.960 . S
H320 C255 0.960 . S
H321 C257 0.980 . S
H322 C256 0.961 . S
H323 C256 0.961 . S
H324 C256 0.959 . S
H325 C259 0.932 . S
H326 C263 0.929 . S
H327 C264 0.961 . S
H328 C264 0.959 . S
H329 C264 0.959 . S
H330 C265 0.960 . S
H331 C265 0.962 . S
H332 C265 0.961 . S
H333 C267 0.929 . S
H334 C270 0.930 . S
H335 C271 0.929 . S
H336 C274 0.930 . S
H337 C277 0.929 . S
H338 C278 0.930 . S
H339 C282 0.962 . S
H340 C282 0.959 . S
H341 C282 0.958 . S
C342 C343 1.560 . S
C342 H403 0.959 . S
C342 H404 0.959 . S
C342 H405 0.960 . S
C343 C342 1.560 . S
C343 O398 1.426 . S
C343 H402 0.980 . S
C344 C345 1.407 . S
C344 C349 1.418 . S
C344 O398 1.334 . S
C345 C344 1.407 . S
C345 C346 1.360 . S
C345 H406 0.929 . S
C346 C345 1.360 . S
C346 C347 1.401 . S
C346 C350 1.527 . S
C347 C346 1.401 . S
C347 C348 1.405 . S
C347 C380 1.587 . S
C348 C347 1.405 . S
C348 C349 1.332 . S
C348 C351 1.496 . S
C349 C344 1.418 . S
C349 C348 1.332 . S
C349 H407 0.929 . S
C350 C346 1.527 . S
C350 H408 0.959 . S
C350 H409 0.961 . S
C350 H410 0.961 . S
C351 C348 1.496 . S
C351 H411 0.960 . S
C351 H412 0.960 . S
C351 H413 0.961 . S
C352 C353 1.517 . S
C352 H415 0.961 . S
C352 H416 0.960 . S
C352 H417 0.959 . S
C353 C352 1.517 . S
C353 O401 1.468 . S
C353 H414 0.980 . S
C354 C355 1.349 . S
C354 C359 1.367 . S
C354 O401 1.408 . S
C355 C354 1.349 . S
C355 C356 1.407 . S
C355 H418 0.930 . S
C356 C355 1.407 . S
C356 C357 1.449 . S
C356 C360 1.561 . S
C357 C356 1.449 . S
C357 C358 1.384 . S
C357 C382 1.553 1_655 S
C358 C357 1.384 . S
C358 C359 1.364 . S
C358 C361 1.450 . S
C359 C354 1.367 . S
C359 C358 1.364 . S
C359 H419 0.931 . S
C360 C356 1.561 . S
C360 H420 0.938 1_655 S
C360 H421 0.943 1_655 S
C360 H422 0.974 . S
C361 C358 1.450 . S
C361 H423 0.960 . S
C361 H424 0.960 1_655 S
C361 H425 0.960 . S
C362 C363 1.309 . S
C362 C367 1.304 . S
C362 O400 1.435 . S
C363 C362 1.309 . S
C363 C364 1.476 . S
C363 H427 0.930 . S
C364 C363 1.476 . S
C364 C365 1.400 . S
C364 C368 1.567 . S
C365 C364 1.400 . S
C365 C366 1.373 . S
C365 C387 1.432 . S
C366 C365 1.373 . S
C366 C367 1.339 . S
C366 C369 1.530 . S
C367 C362 1.304 . S
C367 C366 1.339 . S
C367 H428 0.930 . S
C368 C364 1.567 . S
C368 H429 0.961 . S
C368 H430 0.960 . S
C368 H431 0.958 . S
C369 C366 1.530 . S
C369 H432 0.961 . S
C369 H433 0.960 . S
C369 H434 0.960 . S
C370 C371 1.530 . S
C370 H436 0.961 . S
C370 H437 0.961 . S
C370 H438 0.959 . S
C371 C370 1.530 . S
C371 O399 1.412 . S
C371 H435 0.980 . S
C372 C373 1.288 . S
C372 C377 1.377 . S
C372 O399 1.393 . S
C373 C372 1.288 . S
C373 C374 1.369 . S
C373 H439 0.932 . S
C374 C373 1.369 . S
C374 C375 1.398 . S
C374 C378 1.527 . S
C375 C374 1.398 . S
C375 C376 1.380 . S
C375 C389 1.497 . S
C376 C375 1.380 . S
C376 C377 1.383 . S
C376 C379 1.603 . S
C377 C372 1.377 . S
C377 C376 1.383 . S
C377 H440 0.929 . S
C378 C374 1.527 . S
C378 H441 0.961 . S
C378 H442 0.959 . S
C378 H443 0.959 . S
C379 C376 1.603 . S
C379 H444 0.960 . S
C379 H445 0.962 . S
C379 H446 0.961 . S
C380 C347 1.587 . S
C380 C381 1.360 . S
C380 C393 1.412 . S
C381 C380 1.360 . S
C381 C382 1.365 . S
C381 H447 0.929 . S
C382 C357 1.553 1_455 S
C382 C381 1.365 . S
C382 C383 1.404 . S
C383 C382 1.404 . S
C383 C384 1.395 1_455 S
C383 C394 1.451 . S
C384 C383 1.395 1_655 S
C384 C385 1.322 . S
C384 H448 0.930 . S
C385 C384 1.322 . S
C385 C386 1.459 . S
C385 H449 0.929 . S
C386 C385 1.459 . S
C386 C387 1.445 . S
C386 C395 1.395 1_655 S
C387 C365 1.432 . S
C387 C386 1.445 . S
C387 C388 1.370 . S
C388 C387 1.370 . S
C388 C389 1.438 1_655 S
C388 H450 0.930 . S
C389 C375 1.497 . S
C389 C388 1.438 1_455 S
C389 C390 1.360 . S
C390 C389 1.360 . S
C390 C391 1.401 . S
C390 C395 1.446 . S
C391 C390 1.401 . S
C391 C392 1.347 . S
C391 H451 0.929 . S
C392 C391 1.347 . S
C392 C393 1.455 . S
C392 H452 0.930 . S
C393 C380 1.412 . S
C393 C392 1.455 . S
C393 C394 1.331 . S
C394 C383 1.451 . S
C394 C393 1.331 . S
C394 C395 1.497 . S
C395 C386 1.395 1_455 S
C395 C390 1.446 . S
C395 C394 1.497 . S
C396 C397 1.582 . S
C396 H453 0.962 . S
C396 H454 0.959 . S
C396 H455 0.958 . S
C397 C396 1.582 . S
C397 O400 1.458 . S
C397 H426 0.980 . S
O398 C343 1.426 . S
O398 C344 1.334 . S
O399 C371 1.412 . S
O399 C372 1.393 . S
O400 C362 1.435 . S
O400 C397 1.458 . S
O401 C353 1.468 . S
O401 C354 1.408 . S
H402 C343 0.980 . S
H403 C342 0.959 . S
H404 C342 0.959 . S
H405 C342 0.960 . S
H406 C345 0.929 . S
H407 C349 0.929 . S
H408 C350 0.959 . S
H409 C350 0.961 . S
H410 C350 0.961 . S
H411 C351 0.960 . S
H412 C351 0.960 . S
H413 C351 0.961 . S
H414 C353 0.980 . S
H415 C352 0.961 . S
H416 C352 0.960 . S
H417 C352 0.959 . S
H418 C355 0.930 . S
H419 C359 0.931 . S
H420 C360 0.938 1_455 S
H421 C360 0.943 1_455 S
H422 C360 0.974 . S
H423 C361 0.960 . S
H424 C361 0.960 1_455 S
H425 C361 0.960 . S
H426 C397 0.980 . S
H427 C363 0.930 . S
H428 C367 0.930 . S
H429 C368 0.961 . S
H430 C368 0.960 . S
H431 C368 0.958 . S
H432 C369 0.961 . S
H433 C369 0.960 . S
H434 C369 0.960 . S
H435 C371 0.980 . S
H436 C370 0.961 . S
H437 C370 0.961 . S
H438 C370 0.959 . S
H439 C373 0.932 . S
H440 C377 0.929 . S
H441 C378 0.961 . S
H442 C378 0.959 . S
H443 C378 0.959 . S
H444 C379 0.960 . S
H445 C379 0.962 . S
H446 C379 0.961 . S
H447 C381 0.929 . S
H448 C384 0.930 . S
H449 C385 0.929 . S
H450 C388 0.930 . S
H451 C391 0.929 . S
H452 C392 0.930 . S
H453 C396 0.962 . S
H454 C396 0.959 . S
H455 C396 0.958 . S
C456 C457 1.560 . S
C456 H517 0.959 . S
C456 H518 0.959 . S
C456 H519 0.960 . S
C457 C456 1.560 . S
C457 O512 1.426 . S
C457 H516 0.980 . S
C458 C459 1.407 . S
C458 C463 1.418 . S
C458 O512 1.334 . S
C459 C458 1.407 . S
C459 C460 1.360 . S
C459 H520 0.929 . S
C460 C459 1.360 . S
C460 C461 1.401 . S
C460 C464 1.527 . S
C461 C460 1.401 . S
C461 C462 1.405 . S
C461 C494 1.587 . S
C462 C461 1.405 . S
C462 C463 1.332 . S
C462 C465 1.496 . S
C463 C458 1.418 . S
C463 C462 1.332 . S
C463 H521 0.929 . S
C464 C460 1.527 . S
C464 H522 0.959 . S
C464 H523 0.961 . S
C464 H524 0.961 . S
C465 C462 1.496 . S
C465 H525 0.960 . S
C465 H526 0.960 . S
C465 H527 0.961 . S
C466 C467 1.517 . S
C466 H529 0.961 . S
C466 H530 0.960 . S
C466 H531 0.959 . S
C467 C466 1.517 . S
C467 O515 1.468 . S
C467 H528 0.980 . S
C468 C469 1.349 . S
C468 C473 1.367 . S
C468 O515 1.408 . S
C469 C468 1.349 . S
C469 C470 1.407 . S
C469 H532 0.930 . S
C470 C469 1.407 . S
C470 C471 1.449 . S
C470 C474 1.535 . S
C471 C470 1.449 . S
C471 C472 1.384 . S
C471 C496 1.553 . S
C472 C471 1.384 . S
C472 C473 1.364 . S
C472 C475 1.450 . S
C473 C468 1.367 . S
C473 C472 1.364 . S
C473 H533 0.931 . S
C474 C470 1.535 . S
C474 H534 0.959 . S
C474 H535 0.961 . S
C474 H536 0.959 . S
C475 C472 1.450 . S
C475 H537 0.960 . S
C475 H538 0.960 . S
C475 H539 0.960 . S
C476 C477 1.309 . S
C476 C481 1.304 . S
C476 O514 1.435 . S
C477 C476 1.309 . S
C477 C478 1.476 . S
C477 H541 0.930 . S
C478 C477 1.476 . S
C478 C479 1.400 . S
C478 C482 1.567 . S
C479 C478 1.400 . S
C479 C480 1.373 . S
C479 C501 1.432 . S
C480 C479 1.373 . S
C480 C481 1.339 . S
C480 C483 1.530 . S
C481 C476 1.304 . S
C481 C480 1.339 . S
C481 H542 0.930 . S
C482 C478 1.567 . S
C482 H543 0.961 . S
C482 H544 0.960 . S
C482 H545 0.958 . S
C483 C480 1.530 . S
C483 H546 0.961 . S
C483 H547 0.960 . S
C483 H548 0.960 . S
C484 C485 1.530 . S
C484 H550 0.961 . S
C484 H551 0.961 . S
C484 H552 0.959 . S
C485 C484 1.530 . S
C485 O513 1.412 . S
C485 H549 0.980 . S
C486 C487 1.288 . S
C486 C491 1.377 . S
C486 O513 1.393 . S
C487 C486 1.288 . S
C487 C488 1.369 . S
C487 H553 0.932 . S
C488 C487 1.369 . S
C488 C489 1.398 . S
C488 C492 1.527 1_565 S
C489 C488 1.398 . S
C489 C490 1.380 . S
C489 C503 1.497 1_565 S
C490 C489 1.380 . S
C490 C491 1.383 . S
C490 C493 1.603 . S
C491 C486 1.377 . S
C491 C490 1.383 . S
C491 H554 0.929 . S
C492 C488 1.527 1_545 S
C492 H555 0.961 . S
C492 H556 0.959 . S
C492 H557 0.942 1_545 S
C493 C490 1.603 . S
C493 H558 0.960 . S
C493 H559 0.962 . S
C493 H560 0.961 . S
C494 C461 1.587 . S
C494 C495 1.360 . S
C494 C507 1.412 . S
C495 C494 1.360 . S
C495 C496 1.365 1_565 S
C495 H561 0.929 . S
C496 C471 1.553 . S
C496 C495 1.365 1_545 S
C496 C497 1.404 . S
C497 C496 1.404 . S
C497 C498 1.395 . S
C497 C508 1.451 . S
C498 C497 1.395 . S
C498 C499 1.322 . S
C498 H562 0.930 . S
C499 C498 1.322 . S
C499 C500 1.459 1_556 S
C499 H563 0.929 . S
C500 C499 1.459 1_554 S
C500 C501 1.445 . S
C500 C509 1.399 . S
C501 C479 1.432 . S
C501 C500 1.445 . S
C501 C502 1.370 . S
C502 C501 1.370 . S
C502 C503 1.438 . S
C502 H564 0.930 . S
C503 C489 1.497 1_545 S
C503 C502 1.438 . S
C503 C504 1.353 1_545 S
C504 C503 1.353 1_565 S
C504 C505 1.422 . S
C504 C509 1.451 1_565 S
C505 C504 1.422 . S
C505 C506 1.347 1_554 S
C505 H565 0.929 . S
C506 C505 1.347 1_556 S
C506 C507 1.455 . S
C506 H566 0.930 . S
C507 C494 1.412 . S
C507 C506 1.455 . S
C507 C508 1.331 1_565 S
C508 C497 1.451 . S
C508 C507 1.331 1_545 S
C508 C509 1.474 1_556 S
C509 C500 1.399 . S
C509 C504 1.451 1_545 S
C509 C508 1.474 1_554 S
C510 C511 1.582 . S
C510 H567 0.962 . S
C510 H568 0.959 . S
C510 H569 0.958 . S
C511 C510 1.582 . S
C511 O514 1.458 . S
C511 H540 0.980 . S
O512 C457 1.426 . S
O512 C458 1.334 . S
O513 C485 1.412 . S
O513 C486 1.393 . S
O514 C476 1.435 . S
O514 C511 1.458 . S
O515 C467 1.468 . S
O515 C468 1.408 . S
H516 C457 0.980 . S
H517 C456 0.959 . S
H518 C456 0.959 . S
H519 C456 0.960 . S
H520 C459 0.929 . S
H521 C463 0.929 . S
H522 C464 0.959 . S
H523 C464 0.961 . S
H524 C464 0.961 . S
H525 C465 0.960 . S
H526 C465 0.960 . S
H527 C465 0.961 . S
H528 C467 0.980 . S
H529 C466 0.961 . S
H530 C466 0.960 . S
H531 C466 0.959 . S
H532 C469 0.930 . S
H533 C473 0.931 . S
H534 C474 0.959 . S
H535 C474 0.961 . S
H536 C474 0.959 . S
H537 C475 0.960 . S
H538 C475 0.960 . S
H539 C475 0.960 . S
H540 C511 0.980 . S
H541 C477 0.930 . S
H542 C481 0.930 . S
H543 C482 0.961 . S
H544 C482 0.960 . S
H545 C482 0.958 . S
H546 C483 0.961 . S
H547 C483 0.960 . S
H548 C483 0.960 . S
H549 C485 0.980 . S
H550 C484 0.961 . S
H551 C484 0.961 . S
H552 C484 0.959 . S
H553 C487 0.932 . S
H554 C491 0.929 . S
H555 C492 0.961 . S
H556 C492 0.959 . S
H557 C492 0.942 1_565 S
H558 C493 0.960 . S
H559 C493 0.962 . S
H560 C493 0.961 . S
H561 C495 0.929 . S
H562 C498 0.930 . S
H563 C499 0.929 . S
H564 C502 0.930 . S
H565 C505 0.929 . S
H566 C506 0.930 . S
H567 C510 0.962 . S
H568 C510 0.959 . S
H569 C510 0.958 . S
C570 C571 1.560 . S
C570 H631 0.959 . S
C570 H632 0.959 . S
C570 H633 0.960 . S
C571 C570 1.560 . S
C571 O626 1.426 . S
C571 H630 0.980 . S
C572 C573 1.407 . S
C572 C577 1.418 . S
C572 O626 1.334 . S
C573 C572 1.407 . S
C573 C574 1.360 . S
C573 H634 0.929 . S
C574 C573 1.360 . S
C574 C575 1.401 . S
C574 C578 1.527 . S
C575 C574 1.401 . S
C575 C576 1.405 . S
C575 C608 1.587 . S
C576 C575 1.405 . S
C576 C577 1.332 . S
C576 C579 1.496 . S
C577 C572 1.418 . S
C577 C576 1.332 . S
C577 H635 0.929 . S
C578 C574 1.527 . S
C578 H636 0.959 . S
C578 H637 0.961 . S
C578 H638 0.961 . S
C579 C576 1.496 . S
C579 H639 0.960 . S
C579 H640 0.960 . S
C579 H641 0.961 . S
C580 C581 1.517 . S
C580 H643 0.961 . S
C580 H644 0.960 . S
C580 H645 0.959 . S
C581 C580 1.517 . S
C581 O629 1.468 . S
C581 H642 0.980 . S
C582 C583 1.349 . S
C582 C587 1.367 . S
C582 O629 1.408 . S
C583 C582 1.349 . S
C583 C584 1.407 . S
C583 H646 0.930 . S
C584 C583 1.407 . S
C584 C585 1.449 . S
C584 C588 1.535 . S
C585 C584 1.449 . S
C585 C586 1.384 . S
C585 C610 1.553 . S
C586 C585 1.384 . S
C586 C587 1.364 . S
C586 C589 1.450 . S
C587 C582 1.367 . S
C587 C586 1.364 . S
C587 H647 0.931 . S
C588 C584 1.535 . S
C588 H648 0.959 . S
C588 H649 0.961 . S
C588 H650 0.959 . S
C589 C586 1.450 . S
C589 H651 0.960 . S
C589 H652 0.960 . S
C589 H653 0.960 . S
C590 C591 1.309 . S
C590 C595 1.304 . S
C590 O628 1.435 . S
C591 C590 1.309 . S
C591 C592 1.476 . S
C591 H655 0.930 . S
C592 C591 1.476 . S
C592 C593 1.400 . S
C592 C596 1.567 . S
C593 C592 1.400 . S
C593 C594 1.373 . S
C593 C615 1.432 . S
C594 C593 1.373 . S
C594 C595 1.339 . S
C594 C597 1.530 . S
C595 C590 1.304 . S
C595 C594 1.339 . S
C595 H656 0.930 . S
C596 C592 1.567 . S
C596 H657 0.961 . S
C596 H658 0.960 . S
C596 H659 0.958 . S
C597 C594 1.530 . S
C597 H660 0.961 . S
C597 H661 0.960 . S
C597 H662 0.960 . S
C598 C599 1.530 . S
C598 H664 0.961 . S
C598 H665 0.961 . S
C598 H666 0.959 . S
C599 C598 1.530 . S
C599 O627 1.412 . S
C599 H663 0.980 . S
C600 C601 1.288 . S
C600 C605 1.377 . S
C600 O627 1.393 . S
C601 C600 1.288 . S
C601 C602 1.369 . S
C601 H667 0.932 . S
C602 C601 1.369 . S
C602 C603 1.398 . S
C602 C606 1.527 . S
C603 C602 1.398 . S
C603 C604 1.380 . S
C603 C617 1.497 . S
C604 C603 1.380 . S
C604 C605 1.383 . S
C604 C607 1.603 . S
C605 C600 1.377 . S
C605 C604 1.383 . S
C605 H668 0.929 . S
C606 C602 1.527 . S
C606 H669 0.961 . S
C606 H670 0.959 . S
C606 H671 0.959 . S
C607 C604 1.603 . S
C607 H672 0.960 . S
C607 H673 0.962 . S
C607 H674 0.961 . S
C608 C575 1.587 . S
C608 C609 1.360 . S
C608 C621 1.412 . S
C609 C608 1.360 . S
C609 C610 1.365 . S
C609 H675 0.929 . S
C610 C585 1.553 . S
C610 C609 1.365 . S
C610 C611 1.404 . S
C611 C610 1.404 . S
C611 C612 1.395 . S
C611 C622 1.451 . S
C612 C611 1.395 . S
C612 C613 1.322 . S
C612 H676 0.930 . S
C613 C612 1.322 . S
C613 C614 1.459 . S
C613 H677 0.929 . S
C614 C613 1.459 . S
C614 C615 1.445 . S
C614 C623 1.395 . S
C615 C593 1.432 . S
C615 C614 1.445 . S
C615 C616 1.370 . S
C616 C615 1.370 . S
C616 C617 1.438 . S
C616 H678 0.930 . S
C617 C603 1.497 . S
C617 C616 1.438 . S
C617 C618 1.360 . S
C618 C617 1.360 . S
C618 C619 1.401 . S
C618 C623 1.446 . S
C619 C618 1.401 . S
C619 C620 1.347 . S
C619 H679 0.929 . S
C620 C619 1.347 . S
C620 C621 1.455 . S
C620 H680 0.930 . S
C621 C608 1.412 . S
C621 C620 1.455 . S
C621 C622 1.331 . S
C622 C611 1.451 . S
C622 C621 1.331 . S
C622 C623 1.497 . S
C623 C614 1.395 . S
C623 C618 1.446 . S
C623 C622 1.497 . S
C624 C625 1.582 . S
C624 H681 0.962 . S
C624 H682 0.959 . S
C624 H683 0.958 . S
C625 C624 1.582 . S
C625 O628 1.458 . S
C625 H654 0.980 . S
O626 C571 1.426 . S
O626 C572 1.334 . S
O627 C599 1.412 . S
O627 C600 1.393 . S
O628 C590 1.435 . S
O628 C625 1.458 . S
O629 C581 1.468 . S
O629 C582 1.408 . S
H630 C571 0.980 . S
H631 C570 0.959 . S
H632 C570 0.959 . S
H633 C570 0.960 . S
H634 C573 0.929 . S
H635 C577 0.929 . S
H636 C578 0.959 . S
H637 C578 0.961 . S
H638 C578 0.961 . S
H639 C579 0.960 . S
H640 C579 0.960 . S
H641 C579 0.961 . S
H642 C581 0.980 . S
H643 C580 0.961 . S
H644 C580 0.960 . S
H645 C580 0.959 . S
H646 C583 0.930 . S
H647 C587 0.931 . S
H648 C588 0.959 . S
H649 C588 0.961 . S
H650 C588 0.959 . S
H651 C589 0.960 . S
H652 C589 0.960 . S
H653 C589 0.960 . S
H654 C625 0.980 . S
H655 C591 0.930 . S
H656 C595 0.930 . S
H657 C596 0.961 . S
H658 C596 0.960 . S
H659 C596 0.958 . S
H660 C597 0.961 . S
H661 C597 0.960 . S
H662 C597 0.960 . S
H663 C599 0.980 . S
H664 C598 0.961 . S
H665 C598 0.961 . S
H666 C598 0.959 . S
H667 C601 0.932 . S
H668 C605 0.929 . S
H669 C606 0.961 . S
H670 C606 0.959 . S
H671 C606 0.959 . S
H672 C607 0.960 . S
H673 C607 0.962 . S
H674 C607 0.961 . S
H675 C609 0.929 . S
H676 C612 0.930 . S
H677 C613 0.929 . S
H678 C616 0.930 . S
H679 C619 0.929 . S
H680 C620 0.930 . S
H681 C624 0.962 . S
H682 C624 0.959 . S
H683 C624 0.958 . S
O684 Cd685 2.223 . S
O684 C692 1.315 . S
Cd685 O684 2.223 . S
Cd685 O688 2.297 . S
Cd685 O689 2.439 . S
Cd685 O695 2.240 . S
Cd686 O687 2.240 . S
Cd686 O694 2.223 . S
Cd686 O696 2.297 . S
Cd686 O697 2.439 . S
O687 Cd686 2.240 . S
O687 C692 1.279 . S
O688 Cd685 2.297 . S
O688 C690 1.247 . S
O689 Cd685 2.439 . S
O689 C690 1.208 . S
C690 O688 1.247 . S
C690 O689 1.208 . S
C691 O696 1.247 . S
C691 O697 1.208 . S
C692 O684 1.315 . S
C692 O687 1.279 . S
C693 O694 1.315 . S
C693 O695 1.279 . S
O694 Cd686 2.223 . S
O694 C693 1.315 . S
O695 Cd685 2.240 . S
O695 C693 1.279 . S
O696 Cd686 2.297 . S
O696 C691 1.247 . S
O697 Cd686 2.439 . S
O697 C691 1.208 . S
O698 Cd699 2.223 . S
O698 C706 1.315 . S
Cd699 O698 2.223 . S
Cd699 O702 2.297 . S
Cd699 O703 2.439 . S
Cd699 O709 2.240 . S
Cd700 O701 2.240 . S
Cd700 O708 2.223 . S
Cd700 O710 2.297 . S
Cd700 O711 2.439 . S
O701 Cd700 2.240 . S
O701 C706 1.279 . S
O702 Cd699 2.297 . S
O702 C704 1.247 . S
O703 Cd699 2.439 . S
O703 C704 1.208 . S
C704 O702 1.247 . S
C704 O703 1.208 . S
C705 O710 1.247 . S
C705 O711 1.208 . S
C706 O698 1.315 . S
C706 O701 1.279 . S
C707 O708 1.315 . S
C707 O709 1.279 . S
O708 Cd700 2.223 . S
O708 C707 1.315 . S
O709 Cd699 2.240 . S
O709 C707 1.279 . S
O710 Cd700 2.297 . S
O710 C705 1.247 . S
O711 Cd700 2.439 . S
O711 C705 1.208 . S
O712 Cd713 2.223 . S
O712 C720 1.315 . S
Cd713 O712 2.223 . S
Cd713 O716 2.297 . S
Cd713 O717 2.439 . S
Cd713 O723 2.240 . S
Cd714 O715 2.240 . S
Cd714 O722 2.223 . S
Cd714 O724 2.297 . S
Cd714 O725 2.439 . S
O715 Cd714 2.240 . S
O715 C720 1.279 . S
O716 Cd713 2.297 . S
O716 C718 1.247 . S
O717 Cd713 2.439 . S
O717 C718 1.208 . S
C718 O716 1.247 . S
C718 O717 1.208 . S
C719 O724 1.247 . S
C719 O725 1.208 . S
C720 O712 1.315 . S
C720 O715 1.279 . S
C721 O722 1.315 . S
C721 O723 1.279 . S
O722 Cd714 2.223 . S
O722 C721 1.315 . S
O723 Cd713 2.240 . S
O723 C721 1.279 . S
O724 Cd714 2.297 . S
O724 C719 1.247 . S
O725 Cd714 2.439 . S
O725 C719 1.208 . S
O726 Cd727 2.223 . S
O726 C734 1.315 . S
Cd727 O726 2.223 . S
Cd727 O730 2.297 . S
Cd727 O731 2.439 . S
Cd727 O737 2.240 . S
Cd728 O729 2.240 . S
Cd728 O736 2.223 . S
Cd728 O738 2.297 . S
Cd728 O739 2.439 . S
O729 Cd728 2.240 . S
O729 C734 1.279 . S
O730 Cd727 2.297 . S
O730 C732 1.247 . S
O731 Cd727 2.439 . S
O731 C732 1.208 . S
C732 O730 1.247 . S
C732 O731 1.208 . S
C733 O738 1.247 . S
C733 O739 1.208 . S
C734 O726 1.315 . S
C734 O729 1.279 . S
C735 O736 1.315 . S
C735 O737 1.279 . S
O736 Cd728 2.223 . S
O736 C735 1.315 . S
O737 Cd727 2.240 . S
O737 C735 1.279 . S
O738 Cd728 2.297 . S
O738 C733 1.247 . S
O739 Cd728 2.439 . S
O739 C733 1.208 . S
O740 Cd741 2.223 . S
O740 C748 1.315 . S
Cd741 O740 2.223 . S
Cd741 O744 2.297 . S
Cd741 O745 2.439 . S
Cd741 O751 2.240 . S
Cd742 O743 2.240 . S
Cd742 O750 2.223 . S
Cd742 O752 2.297 . S
Cd742 O753 2.439 . S
O743 Cd742 2.240 . S
O743 C748 1.279 . S
O744 Cd741 2.297 . S
O744 C746 1.247 . S
O745 Cd741 2.439 . S
O745 C746 1.208 . S
C746 O744 1.247 . S
C746 O745 1.208 . S
C747 O752 1.247 . S
C747 O753 1.208 . S
C748 O740 1.315 . S
C748 O743 1.279 . S
C749 O750 1.315 . S
C749 O751 1.279 . S
O750 Cd742 2.223 . S
O750 C749 1.315 . S
O751 Cd741 2.240 . S
O751 C749 1.279 . S
O752 Cd742 2.297 . S
O752 C747 1.247 . S
O753 Cd742 2.439 . S
O753 C747 1.208 . S
O754 Cd755 2.223 . S
O754 C762 1.315 . S
Cd755 O754 2.223 . S
Cd755 O758 2.297 . S
Cd755 O759 2.439 . S
Cd755 O765 2.240 . S
Cd756 O757 2.240 . S
Cd756 O764 2.223 . S
Cd756 O766 2.297 . S
Cd756 O767 2.439 . S
O757 Cd756 2.240 . S
O757 C762 1.279 . S
O758 Cd755 2.297 . S
O758 C760 1.247 . S
O759 Cd755 2.439 . S
O759 C760 1.208 . S
C760 O758 1.247 . S
C760 O759 1.208 . S
C761 O766 1.247 . S
C761 O767 1.208 . S
C762 O754 1.315 . S
C762 O757 1.279 . S
C763 O764 1.315 . S
C763 O765 1.279 . S
O764 Cd756 2.223 . S
O764 C763 1.315 . S
O765 Cd755 2.240 . S
O765 C763 1.279 . S
O766 Cd756 2.297 . S
O766 C761 1.247 . S
O767 Cd756 2.439 . S
O767 C761 1.208 . S
H768 C780 0.930 . S
H769 C782 0.930 . S
H770 C783 0.930 . S
H771 C787 0.959 . S
H772 C787 0.959 . S
H773 C787 0.961 . S
H774 C788 0.960 . S
H775 C788 0.961 . S
H776 C788 0.959 . S
H777 C791 0.929 . S
H778 C792 0.931 . S
H779 C794 0.930 . S
C780 H768 0.930 . S
C780 C781 1.399 . S
C780 C785 1.399 . S
C781 C780 1.399 . S
C781 C782 1.376 . S
C782 H769 0.930 . S
C782 C781 1.376 . S
C782 C783 1.388 . S
C783 H770 0.930 . S
C783 C782 1.388 . S
C783 C784 1.390 . S
C784 C783 1.390 . S
C784 C785 1.394 . S
C784 C790 1.465 . S
C785 C780 1.399 . S
C785 C784 1.394 . S
C785 C786 1.516 . S
C786 C785 1.516 . S
C786 C787 1.502 . S
C786 C788 1.561 . S
C786 C789 1.526 . S
C787 H771 0.959 . S
C787 H772 0.959 . S
C787 H773 0.961 . S
C787 C786 1.502 . S
C788 H774 0.960 . S
C788 H775 0.961 . S
C788 H776 0.959 . S
C788 C786 1.561 . S
C789 C786 1.526 . S
C789 C790 1.396 . S
C789 C794 1.390 . S
C790 C784 1.465 . S
C790 C789 1.396 . S
C790 C791 1.399 . S
C791 H777 0.929 . S
C791 C790 1.399 . S
C791 C792 1.385 . S
C792 H778 0.931 . S
C792 C791 1.385 . S
C792 C793 1.389 . S
C793 C792 1.389 . S
C793 C794 1.387 . S
C794 H779 0.930 . S
C794 C789 1.390 . S
C794 C793 1.387 . S
H795 C807 0.930 . S
H796 C809 0.930 . S
H797 C810 0.930 . S
H798 C814 0.959 . S
H799 C814 0.959 . S
H800 C814 0.961 . S
H801 C815 0.960 . S
H802 C815 0.961 . S
H803 C815 0.959 . S
H804 C818 0.929 . S
H805 C819 0.931 . S
H806 C821 0.930 . S
C807 H795 0.930 . S
C807 C808 1.399 . S
C807 C812 1.399 . S
C808 C807 1.399 . S
C808 C809 1.376 . S
C809 H796 0.930 . S
C809 C808 1.376 . S
C809 C810 1.388 . S
C810 H797 0.930 . S
C810 C809 1.388 . S
C810 C811 1.390 . S
C811 C810 1.390 . S
C811 C812 1.394 . S
C811 C817 1.465 . S
C812 C807 1.399 . S
C812 C811 1.394 . S
C812 C813 1.516 . S
C813 C812 1.516 . S
C813 C814 1.502 . S
C813 C815 1.561 . S
C813 C816 1.526 . S
C814 H798 0.959 . S
C814 H799 0.959 . S
C814 H800 0.961 . S
C814 C813 1.502 . S
C815 H801 0.960 . S
C815 H802 0.961 . S
C815 H803 0.959 . S
C815 C813 1.561 . S
C816 C813 1.526 . S
C816 C817 1.396 . S
C816 C821 1.390 . S
C817 C811 1.465 . S
C817 C816 1.396 . S
C817 C818 1.399 . S
C818 H804 0.929 . S
C818 C817 1.399 . S
C818 C819 1.385 . S
C819 H805 0.931 . S
C819 C818 1.385 . S
C819 C820 1.389 . S
C820 C819 1.389 . S
C820 C821 1.387 . S
C821 H806 0.930 . S
C821 C816 1.390 . S
C821 C820 1.387 . S
H822 C834 0.930 . S
H823 C836 0.930 . S
H824 C837 0.930 . S
H825 C841 0.959 . S
H826 C841 0.959 . S
H827 C841 0.961 . S
H828 C842 0.960 . S
H829 C842 0.961 . S
H830 C842 0.959 . S
H831 C845 0.929 . S
H832 C846 0.931 . S
H833 C848 0.930 . S
C834 H822 0.930 . S
C834 C835 1.399 . S
C834 C839 1.399 . S
C835 C834 1.399 . S
C835 C836 1.376 . S
C836 H823 0.930 . S
C836 C835 1.376 . S
C836 C837 1.388 . S
C837 H824 0.930 . S
C837 C836 1.388 . S
C837 C838 1.390 . S
C838 C837 1.390 . S
C838 C839 1.394 . S
C838 C844 1.465 . S
C839 C834 1.399 . S
C839 C838 1.394 . S
C839 C840 1.516 . S
C840 C839 1.516 . S
C840 C841 1.502 . S
C840 C842 1.561 . S
C840 C843 1.526 . S
C841 H825 0.959 . S
C841 H826 0.959 . S
C841 H827 0.961 . S
C841 C840 1.502 . S
C842 H828 0.960 . S
C842 H829 0.961 . S
C842 H830 0.959 . S
C842 C840 1.561 . S
C843 C840 1.526 . S
C843 C844 1.396 . S
C843 C848 1.390 . S
C844 C838 1.465 . S
C844 C843 1.396 . S
C844 C845 1.399 . S
C845 H831 0.929 . S
C845 C844 1.399 . S
C845 C846 1.385 . S
C846 H832 0.931 . S
C846 C845 1.385 . S
C846 C847 1.389 . S
C847 C846 1.389 . S
C847 C848 1.387 . S
C848 H833 0.930 . S
C848 C843 1.390 . S
C848 C847 1.387 . S
H849 C861 0.930 . S
H850 C863 0.930 . S
H851 C864 0.930 . S
H852 C868 0.959 . S
H853 C868 0.959 . S
H854 C868 0.961 . S
H855 C869 0.960 . S
H856 C869 0.961 . S
H857 C869 0.959 . S
H858 C872 0.929 . S
H859 C873 0.931 . S
H860 C875 0.930 . S
C861 H849 0.930 . S
C861 C862 1.399 . S
C861 C866 1.399 . S
C862 C861 1.399 . S
C862 C863 1.376 . S
C863 H850 0.930 . S
C863 C862 1.376 . S
C863 C864 1.388 . S
C864 H851 0.930 . S
C864 C863 1.388 . S
C864 C865 1.390 . S
C865 C864 1.390 . S
C865 C866 1.394 . S
C865 C871 1.465 . S
C866 C861 1.399 . S
C866 C865 1.394 . S
C866 C867 1.516 . S
C867 C866 1.516 . S
C867 C868 1.502 . S
C867 C869 1.561 . S
C867 C870 1.526 . S
C868 H852 0.959 . S
C868 H853 0.959 . S
C868 H854 0.961 . S
C868 C867 1.502 . S
C869 H855 0.960 . S
C869 H856 0.961 . S
C869 H857 0.959 . S
C869 C867 1.561 . S
C870 C867 1.526 . S
C870 C871 1.396 . S
C870 C875 1.390 . S
C871 C865 1.465 . S
C871 C870 1.396 . S
C871 C872 1.399 . S
C872 H858 0.929 . S
C872 C871 1.399 . S
C872 C873 1.385 . S
C873 H859 0.931 . S
C873 C872 1.385 . S
C873 C874 1.389 . S
C874 C873 1.389 . S
C874 C875 1.387 . S
C875 H860 0.930 . S
C875 C870 1.390 . S
C875 C874 1.387 . S
H876 C888 0.930 . S
H877 C890 0.930 . S
H878 C891 0.930 . S
H879 C895 0.959 . S
H880 C895 0.959 . S
H881 C895 0.961 . S
H882 C896 0.960 . S
H883 C896 0.961 . S
H884 C896 0.959 . S
H885 C899 0.929 . S
H886 C900 0.931 . S
H887 C902 0.930 . S
C888 H876 0.930 . S
C888 C889 1.399 . S
C888 C893 1.399 . S
C889 C888 1.399 . S
C889 C890 1.376 . S
C890 H877 0.930 . S
C890 C889 1.376 . S
C890 C891 1.388 . S
C891 H878 0.930 . S
C891 C890 1.388 . S
C891 C892 1.390 . S
C892 C891 1.390 . S
C892 C893 1.394 . S
C892 C898 1.465 . S
C893 C888 1.399 . S
C893 C892 1.394 . S
C893 C894 1.516 . S
C894 C893 1.516 . S
C894 C895 1.502 . S
C894 C896 1.561 . S
C894 C897 1.526 . S
C895 H879 0.959 . S
C895 H880 0.959 . S
C895 H881 0.961 . S
C895 C894 1.502 . S
C896 H882 0.960 . S
C896 H883 0.961 . S
C896 H884 0.959 . S
C896 C894 1.561 . S
C897 C894 1.526 . S
C897 C898 1.396 . S
C897 C902 1.390 . S
C898 C892 1.465 . S
C898 C897 1.396 . S
C898 C899 1.399 . S
C899 H885 0.929 . S
C899 C898 1.399 . S
C899 C900 1.385 . S
C900 H886 0.931 . S
C900 C899 1.385 . S
C900 C901 1.389 . S
C901 C900 1.389 . S
C901 C902 1.387 . S
C902 H887 0.930 . S
C902 C897 1.390 . S
C902 C901 1.387 . S
H903 C915 0.930 . S
H904 C917 0.930 . S
H905 C918 0.930 . S
H906 C922 0.959 . S
H907 C922 0.959 . S
H908 C922 0.961 . S
H909 C923 0.960 . S
H910 C923 0.961 . S
H911 C923 0.959 . S
H912 C926 0.929 . S
H913 C927 0.931 . S
H914 C929 0.930 . S
C915 H903 0.930 . S
C915 C916 1.399 . S
C915 C920 1.399 . S
C916 C915 1.399 . S
C916 C917 1.376 . S
C917 H904 0.930 . S
C917 C916 1.376 . S
C917 C918 1.388 . S
C918 H905 0.930 . S
C918 C917 1.388 . S
C918 C919 1.390 . S
C919 C918 1.390 . S
C919 C920 1.394 . S
C919 C925 1.465 . S
C920 C915 1.399 . S
C920 C919 1.394 . S
C920 C921 1.516 . S
C921 C920 1.516 . S
C921 C922 1.502 . S
C921 C923 1.561 . S
C921 C924 1.526 . S
C922 H906 0.959 . S
C922 H907 0.959 . S
C922 H908 0.961 . S
C922 C921 1.502 . S
C923 H909 0.960 . S
C923 H910 0.961 . S
C923 H911 0.959 . S
C923 C921 1.561 . S
C924 C921 1.526 . S
C924 C925 1.396 . S
C924 C929 1.390 . S
C925 C919 1.465 . S
C925 C924 1.396 . S
C925 C926 1.399 . S
C926 H912 0.929 . S
C926 C925 1.399 . S
C926 C927 1.385 . S
C927 H913 0.931 . S
C927 C926 1.385 . S
C927 C928 1.389 . S
C928 C927 1.389 . S
C928 C929 1.387 . S
C929 H914 0.930 . S
C929 C924 1.390 . S
C929 C928 1.387 . S
H930 C942 0.930 . S
H931 C944 0.930 . S
H932 C945 0.930 . S
H933 C949 0.959 . S
H934 C949 0.959 . S
H935 C949 0.961 . S
H936 C950 0.960 . S
H937 C950 0.961 . S
H938 C950 0.959 . S
H939 C953 0.929 . S
H940 C954 0.931 . S
H941 C956 0.930 . S
C942 H930 0.930 . S
C942 C943 1.399 . S
C942 C947 1.399 . S
C943 C942 1.399 . S
C943 C944 1.376 . S
C944 H931 0.930 . S
C944 C943 1.376 . S
C944 C945 1.388 . S
C945 H932 0.930 . S
C945 C944 1.388 . S
C945 C946 1.390 . S
C946 C945 1.390 . S
C946 C947 1.394 . S
C946 C952 1.465 . S
C947 C942 1.399 . S
C947 C946 1.394 . S
C947 C948 1.516 . S
C948 C947 1.516 . S
C948 C949 1.502 . S
C948 C950 1.561 . S
C948 C951 1.526 . S
C949 H933 0.959 . S
C949 H934 0.959 . S
C949 H935 0.961 . S
C949 C948 1.502 . S
C950 H936 0.960 . S
C950 H937 0.961 . S
C950 H938 0.959 . S
C950 C948 1.561 . S
C951 C948 1.526 . S
C951 C952 1.396 . S
C951 C956 1.390 . S
C952 C946 1.465 . S
C952 C951 1.396 . S
C952 C953 1.399 . S
C953 H939 0.929 . S
C953 C952 1.399 . S
C953 C954 1.385 . S
C954 H940 0.931 . S
C954 C953 1.385 . S
C954 C955 1.389 . S
C955 C954 1.389 . S
C955 C956 1.387 . S
C956 H941 0.930 . S
C956 C951 1.390 . S
C956 C955 1.387 . S
H957 C969 0.930 . S
H958 C971 0.930 . S
H959 C972 0.930 . S
H960 C976 0.959 . S
H961 C976 0.959 . S
H962 C976 0.961 . S
H963 C977 0.960 . S
H964 C977 0.961 . S
H965 C977 0.959 . S
H966 C980 0.929 . S
H967 C981 0.931 . S
H968 C983 0.930 . S
C969 H957 0.930 . S
C969 C970 1.399 . S
C969 C974 1.399 . S
C970 C969 1.399 . S
C970 C971 1.376 . S
C971 H958 0.930 . S
C971 C970 1.376 . S
C971 C972 1.388 . S
C972 H959 0.930 . S
C972 C971 1.388 . S
C972 C973 1.390 . S
C973 C972 1.390 . S
C973 C974 1.394 . S
C973 C979 1.465 . S
C974 C969 1.399 . S
C974 C973 1.394 . S
C974 C975 1.516 . S
C975 C974 1.516 . S
C975 C976 1.502 . S
C975 C977 1.561 . S
C975 C978 1.526 . S
C976 H960 0.959 . S
C976 H961 0.959 . S
C976 H962 0.961 . S
C976 C975 1.502 . S
C977 H963 0.960 . S
C977 H964 0.961 . S
C977 H965 0.959 . S
C977 C975 1.561 . S
C978 C975 1.526 . S
C978 C979 1.396 . S
C978 C983 1.390 . S
C979 C973 1.465 . S
C979 C978 1.396 . S
C979 C980 1.399 . S
C980 H966 0.929 . S
C980 C979 1.399 . S
C980 C981 1.385 . S
C981 H967 0.931 . S
C981 C980 1.385 . S
C981 C982 1.389 . S
C982 C981 1.389 . S
C982 C983 1.387 . S
C983 H968 0.930 . S
C983 C978 1.390 . S
C983 C982 1.387 . S
H984 C996 0.930 . S
H985 C998 0.930 . S
H986 C999 0.930 . S
H987 C1003 0.959 . S
H988 C1003 0.959 . S
H989 C1003 0.961 . S
H990 C1004 0.960 . S
H991 C1004 0.961 . S
H992 C1004 0.959 . S
H993 C1007 0.929 . S
H994 C1008 0.931 . S
H995 C1010 0.930 . S
C996 H984 0.930 . S
C996 C997 1.399 . S
C996 C1001 1.399 . S
C997 C996 1.399 . S
C997 C998 1.376 . S
C998 H985 0.930 . S
C998 C997 1.376 . S
C998 C999 1.388 . S
C999 H986 0.930 . S
C999 C998 1.388 . S
C999 C1000 1.390 . S
C1000 C999 1.390 . S
C1000 C1001 1.394 . S
C1000 C1006 1.465 . S
C1001 C996 1.399 . S
C1001 C1000 1.394 . S
C1001 C1002 1.516 . S
C1002 C1001 1.516 . S
C1002 C1003 1.502 . S
C1002 C1004 1.561 . S
C1002 C1005 1.526 . S
C1003 H987 0.959 . S
C1003 H988 0.959 . S
C1003 H989 0.961 . S
C1003 C1002 1.502 . S
C1004 H990 0.960 . S
C1004 H991 0.961 . S
C1004 H992 0.959 . S
C1004 C1002 1.561 . S
C1005 C1002 1.526 . S
C1005 C1006 1.396 . S
C1005 C1010 1.390 . S
C1006 C1000 1.465 . S
C1006 C1005 1.396 . S
C1006 C1007 1.399 . S
C1007 H993 0.929 . S
C1007 C1006 1.399 . S
C1007 C1008 1.385 . S
C1008 H994 0.931 . S
C1008 C1007 1.385 . S
C1008 C1009 1.389 . S
C1009 C1008 1.389 . S
C1009 C1010 1.387 . S
C1010 H995 0.930 . S
C1010 C1005 1.390 . S
C1010 C1009 1.387 . S
H1011 C1023 0.930 . S
H1012 C1025 0.930 . S
H1013 C1026 0.930 . S
H1014 C1030 0.959 . S
H1015 C1030 0.959 . S
H1016 C1030 0.961 . S
H1017 C1031 0.960 1_556 S
H1018 C1031 0.961 1_556 S
H1019 C1031 0.959 . S
H1020 C1034 0.929 . S
H1021 C1035 0.931 . S
H1022 C1037 0.930 . S
C1023 H1011 0.930 . S
C1023 C1024 1.399 . S
C1023 C1028 1.399 . S
C1024 C1023 1.399 . S
C1024 C1025 1.376 . S
C1025 H1012 0.930 . S
C1025 C1024 1.376 . S
C1025 C1026 1.388 . S
C1026 H1013 0.930 . S
C1026 C1025 1.388 . S
C1026 C1027 1.390 . S
C1027 C1026 1.390 . S
C1027 C1028 1.394 . S
C1027 C1033 1.465 . S
C1028 C1023 1.399 . S
C1028 C1027 1.394 . S
C1028 C1029 1.516 . S
C1029 C1028 1.516 . S
C1029 C1030 1.502 . S
C1029 C1031 1.561 . S
C1029 C1032 1.526 . S
C1030 H1014 0.959 . S
C1030 H1015 0.959 . S
C1030 H1016 0.961 . S
C1030 C1029 1.502 . S
C1031 H1017 0.960 1_554 S
C1031 H1018 0.961 1_554 S
C1031 H1019 0.959 . S
C1031 C1029 1.561 . S
C1032 C1029 1.526 . S
C1032 C1033 1.396 . S
C1032 C1037 1.390 . S
C1033 C1027 1.465 . S
C1033 C1032 1.396 . S
C1033 C1034 1.399 . S
C1034 H1020 0.929 . S
C1034 C1033 1.399 . S
C1034 C1035 1.385 . S
C1035 H1021 0.931 . S
C1035 C1034 1.385 . S
C1035 C1036 1.389 . S
C1036 C1035 1.389 . S
C1036 C1037 1.387 . S
C1037 H1022 0.930 . S
C1037 C1032 1.390 . S
C1037 C1036 1.387 . S
H1038 C1050 0.930 . S
H1039 C1052 0.930 . S
H1040 C1053 0.930 . S
H1041 C1057 0.959 . S
H1042 C1057 0.959 . S
H1043 C1057 0.961 . S
H1044 C1058 0.960 . S
H1045 C1058 0.961 . S
H1046 C1058 0.959 . S
H1047 C1061 0.929 . S
H1048 C1062 0.931 . S
H1049 C1064 0.930 . S
C1050 H1038 0.930 . S
C1050 C1051 1.399 . S
C1050 C1055 1.399 . S
C1051 C1050 1.399 . S
C1051 C1052 1.376 . S
C1052 H1039 0.930 . S
C1052 C1051 1.376 . S
C1052 C1053 1.388 . S
C1053 H1040 0.930 . S
C1053 C1052 1.388 . S
C1053 C1054 1.390 . S
C1054 C1053 1.390 . S
C1054 C1055 1.394 . S
C1054 C1060 1.465 . S
C1055 C1050 1.399 . S
C1055 C1054 1.394 . S
C1055 C1056 1.516 . S
C1056 C1055 1.516 . S
C1056 C1057 1.502 . S
C1056 C1058 1.561 . S
C1056 C1059 1.526 . S
C1057 H1041 0.959 . S
C1057 H1042 0.959 . S
C1057 H1043 0.961 . S
C1057 C1056 1.502 . S
C1058 H1044 0.960 . S
C1058 H1045 0.961 . S
C1058 H1046 0.959 . S
C1058 C1056 1.561 . S
C1059 C1056 1.526 . S
C1059 C1060 1.396 . S
C1059 C1064 1.390 . S
C1060 C1054 1.465 . S
C1060 C1059 1.396 . S
C1060 C1061 1.399 . S
C1061 H1047 0.929 . S
C1061 C1060 1.399 . S
C1061 C1062 1.385 . S
C1062 H1048 0.931 . S
C1062 C1061 1.385 . S
C1062 C1063 1.389 . S
C1063 C1062 1.389 . S
C1063 C1064 1.387 . S
C1064 H1049 0.930 . S
C1064 C1059 1.390 . S
C1064 C1063 1.387 . S
H1065 C1077 0.930 . S
H1066 C1079 0.930 . S
H1067 C1080 0.930 . S
H1068 C1084 0.959 . S
H1069 C1084 0.959 . S
H1070 C1084 0.961 . S
H1071 C1085 0.960 . S
H1072 C1085 0.961 . S
H1073 C1085 0.959 . S
H1074 C1088 0.929 . S
H1075 C1089 0.931 . S
H1076 C1091 0.930 . S
C1077 H1065 0.930 . S
C1077 C1078 1.399 . S
C1077 C1082 1.399 . S
C1078 C1077 1.399 . S
C1078 C1079 1.376 . S
C1079 H1066 0.930 . S
C1079 C1078 1.376 . S
C1079 C1080 1.388 . S
C1080 H1067 0.930 . S
C1080 C1079 1.388 . S
C1080 C1081 1.390 . S
C1081 C1080 1.390 . S
C1081 C1082 1.394 . S
C1081 C1087 1.465 . S
C1082 C1077 1.399 . S
C1082 C1081 1.394 . S
C1082 C1083 1.516 . S
C1083 C1082 1.516 . S
C1083 C1084 1.502 . S
C1083 C1085 1.561 . S
C1083 C1086 1.526 . S
C1084 H1068 0.959 . S
C1084 H1069 0.959 . S
C1084 H1070 0.961 . S
C1084 C1083 1.502 . S
C1085 H1071 0.960 . S
C1085 H1072 0.961 . S
C1085 H1073 0.959 . S
C1085 C1083 1.561 . S
C1086 C1083 1.526 . S
C1086 C1087 1.396 . S
C1086 C1091 1.390 . S
C1087 C1081 1.465 . S
C1087 C1086 1.396 . S
C1087 C1088 1.399 . S
C1088 H1074 0.929 . S
C1088 C1087 1.399 . S
C1088 C1089 1.385 . S
C1089 H1075 0.931 . S
C1089 C1088 1.385 . S
C1089 C1090 1.389 . S
C1090 C1089 1.389 . S
C1090 C1091 1.387 . S
C1091 H1076 0.930 . S
C1091 C1086 1.390 . S
C1091 C1090 1.387 . S
H1092 C1104 0.930 . S
H1093 C1106 0.930 . S
H1094 C1107 0.930 . S
H1095 C1111 0.959 . S
H1096 C1111 0.959 . S
H1097 C1111 0.961 . S
H1098 C1112 0.960 . S
H1099 C1112 0.961 . S
H1100 C1112 0.959 . S
H1101 C1115 0.929 . S
H1102 C1116 0.931 . S
H1103 C1118 0.930 . S
C1104 H1092 0.930 . S
C1104 C1105 1.399 . S
C1104 C1109 1.399 . S
C1105 C1104 1.399 . S
C1105 C1106 1.376 . S
C1106 H1093 0.930 . S
C1106 C1105 1.376 . S
C1106 C1107 1.388 . S
C1107 H1094 0.930 . S
C1107 C1106 1.388 . S
C1107 C1108 1.390 . S
C1108 C1107 1.390 . S
C1108 C1109 1.394 . S
C1108 C1114 1.465 . S
C1109 C1104 1.399 . S
C1109 C1108 1.394 . S
C1109 C1110 1.516 . S
C1110 C1109 1.516 . S
C1110 C1111 1.502 . S
C1110 C1112 1.561 . S
C1110 C1113 1.526 . S
C1111 H1095 0.959 . S
C1111 H1096 0.959 . S
C1111 H1097 0.961 . S
C1111 C1110 1.502 . S
C1112 H1098 0.960 . S
C1112 H1099 0.961 . S
C1112 H1100 0.959 . S
C1112 C1110 1.561 . S
C1113 C1110 1.526 . S
C1113 C1114 1.396 . S
C1113 C1118 1.390 . S
C1114 C1108 1.465 . S
C1114 C1113 1.396 . S
C1114 C1115 1.399 . S
C1115 H1101 0.929 . S
C1115 C1114 1.399 . S
C1115 C1116 1.385 . S
C1116 H1102 0.931 . S
C1116 C1115 1.385 . S
C1116 C1117 1.389 . S
C1117 C1116 1.389 . S
C1117 C1118 1.387 . S
C1118 H1103 0.930 . S
C1118 C1113 1.390 . S
C1118 C1117 1.387 . S
H1119 C1131 0.930 . S
H1120 C1133 0.930 . S
H1121 C1134 0.930 . S
H1122 C1138 0.959 . S
H1123 C1138 0.959 . S
H1124 C1138 0.961 . S
H1125 C1139 0.960 . S
H1126 C1139 0.961 . S
H1127 C1139 0.959 . S
H1128 C1142 0.929 . S
H1129 C1143 0.931 . S
H1130 C1145 0.930 . S
C1131 H1119 0.930 . S
C1131 C1132 1.399 . S
C1131 C1136 1.399 . S
C1132 C1131 1.399 . S
C1132 C1133 1.376 . S
C1133 H1120 0.930 . S
C1133 C1132 1.376 . S
C1133 C1134 1.388 . S
C1134 H1121 0.930 . S
C1134 C1133 1.388 . S
C1134 C1135 1.390 . S
C1135 C1134 1.390 . S
C1135 C1136 1.394 . S
C1135 C1141 1.465 . S
C1136 C1131 1.399 . S
C1136 C1135 1.394 . S
C1136 C1137 1.516 . S
C1137 C1136 1.516 . S
C1137 C1138 1.502 . S
C1137 C1139 1.561 . S
C1137 C1140 1.526 . S
C1138 H1122 0.959 . S
C1138 H1123 0.959 . S
C1138 H1124 0.961 . S
C1138 C1137 1.502 . S
C1139 H1125 0.960 . S
C1139 H1126 0.961 . S
C1139 H1127 0.959 . S
C1139 C1137 1.561 . S
C1140 C1137 1.526 . S
C1140 C1141 1.396 . S
C1140 C1145 1.390 . S
C1141 C1135 1.465 . S
C1141 C1140 1.396 . S
C1141 C1142 1.399 . S
C1142 H1128 0.929 . S
C1142 C1141 1.399 . S
C1142 C1143 1.385 . S
C1143 H1129 0.931 . S
C1143 C1142 1.385 . S
C1143 C1144 1.389 . S
C1144 C1143 1.389 . S
C1144 C1145 1.387 . S
C1145 H1130 0.930 . S
C1145 C1140 1.390 . S
C1145 C1144 1.387 . S
H1146 C1158 0.930 . S
H1147 C1160 0.930 . S
H1148 C1161 0.930 . S
H1149 C1165 0.959 . S
H1150 C1165 0.959 . S
H1151 C1165 0.961 . S
H1152 C1166 0.960 . S
H1153 C1166 0.961 . S
H1154 C1166 0.959 . S
H1155 C1169 0.929 . S
H1156 C1170 0.931 . S
H1157 C1172 0.930 . S
C1158 H1146 0.930 . S
C1158 C1159 1.399 . S
C1158 C1163 1.399 . S
C1159 C1158 1.399 . S
C1159 C1160 1.376 . S
C1160 H1147 0.930 . S
C1160 C1159 1.376 . S
C1160 C1161 1.388 . S
C1161 H1148 0.930 . S
C1161 C1160 1.388 . S
C1161 C1162 1.390 . S
C1162 C1161 1.390 . S
C1162 C1163 1.394 . S
C1162 C1168 1.465 . S
C1163 C1158 1.399 . S
C1163 C1162 1.394 . S
C1163 C1164 1.516 . S
C1164 C1163 1.516 . S
C1164 C1165 1.502 . S
C1164 C1166 1.561 . S
C1164 C1167 1.526 . S
C1165 H1149 0.959 . S
C1165 H1150 0.959 . S
C1165 H1151 0.961 . S
C1165 C1164 1.502 . S
C1166 H1152 0.960 . S
C1166 H1153 0.961 . S
C1166 H1154 0.959 . S
C1166 C1164 1.561 . S
C1167 C1164 1.526 . S
C1167 C1168 1.396 . S
C1167 C1172 1.390 . S
C1168 C1162 1.465 . S
C1168 C1167 1.396 . S
C1168 C1169 1.399 . S
C1169 H1155 0.929 . S
C1169 C1168 1.399 . S
C1169 C1170 1.385 . S
C1170 H1156 0.931 . S
C1170 C1169 1.385 . S
C1170 C1171 1.389 . S
C1171 C1170 1.389 . S
C1171 C1172 1.387 . S
C1172 H1157 0.930 . S
C1172 C1167 1.390 . S
C1172 C1171 1.387 . S
H1173 C1185 0.930 . S
H1174 C1187 0.930 . S
H1175 C1188 0.889 1_554 S
H1176 C1192 0.959 . S
H1177 C1192 0.959 . S
H1178 C1192 0.961 . S
H1179 C1193 0.960 . S
H1180 C1193 0.961 . S
H1181 C1193 0.959 . S
H1182 C1196 0.929 . S
H1183 C1197 0.931 . S
H1184 C1199 0.930 . S
C1185 H1173 0.930 . S
C1185 C1186 1.399 . S
C1185 C1190 1.399 . S
C1186 C1185 1.399 . S
C1186 C1187 1.376 . S
C1187 H1174 0.930 . S
C1187 C1186 1.376 . S
C1187 C1188 1.388 . S
C1188 H1175 0.889 1_556 S
C1188 C1187 1.388 . S
C1188 C1189 1.390 . S
C1189 C1188 1.390 . S
C1189 C1190 1.394 . S
C1189 C1195 1.465 1_556 S
C1190 C1185 1.399 . S
C1190 C1189 1.394 . S
C1190 C1191 1.516 . S
C1191 C1190 1.516 . S
C1191 C1192 1.502 . S
C1191 C1193 1.561 . S
C1191 C1194 1.494 1_556 S
C1192 H1176 0.959 . S
C1192 H1177 0.959 . S
C1192 H1178 0.961 . S
C1192 C1191 1.502 . S
C1193 H1179 0.960 . S
C1193 H1180 0.961 . S
C1193 H1181 0.959 . S
C1193 C1191 1.561 . S
C1194 C1191 1.494 1_554 S
C1194 C1195 1.407 . S
C1194 C1199 1.410 . S
C1195 C1189 1.465 1_554 S
C1195 C1194 1.407 . S
C1195 C1196 1.399 . S
C1196 H1182 0.929 . S
C1196 C1195 1.399 . S
C1196 C1197 1.385 . S
C1197 H1183 0.931 . S
C1197 C1196 1.385 . S
C1197 C1198 1.389 . S
C1198 C1197 1.389 . S
C1198 C1199 1.387 . S
C1199 H1184 0.930 . S
C1199 C1194 1.410 . S
C1199 C1198 1.387 . S
H1200 C1212 0.930 . S
H1201 C1214 0.930 . S
H1202 C1215 0.930 . S
H1203 C1219 0.959 . S
H1204 C1219 0.959 . S
H1205 C1219 0.961 . S
H1206 C1220 0.960 . S
H1207 C1220 0.961 . S
H1208 C1220 0.959 . S
H1209 C1223 0.929 . S
H1210 C1224 0.931 . S
H1211 C1226 0.930 . S
C1212 H1200 0.930 . S
C1212 C1213 1.399 . S
C1212 C1217 1.399 . S
C1213 C1212 1.399 . S
C1213 C1214 1.376 . S
C1214 H1201 0.930 . S
C1214 C1213 1.376 . S
C1214 C1215 1.388 . S
C1215 H1202 0.930 . S
C1215 C1214 1.388 . S
C1215 C1216 1.390 . S
C1216 C1215 1.390 . S
C1216 C1217 1.394 . S
C1216 C1222 1.465 . S
C1217 C1212 1.399 . S
C1217 C1216 1.394 . S
C1217 C1218 1.516 . S
C1218 C1217 1.516 . S
C1218 C1219 1.502 . S
C1218 C1220 1.561 . S
C1218 C1221 1.526 . S
C1219 H1203 0.959 . S
C1219 H1204 0.959 . S
C1219 H1205 0.961 . S
C1219 C1218 1.502 . S
C1220 H1206 0.960 . S
C1220 H1207 0.961 . S
C1220 H1208 0.959 . S
C1220 C1218 1.561 . S
C1221 C1218 1.526 . S
C1221 C1222 1.396 . S
C1221 C1226 1.390 . S
C1222 C1216 1.465 . S
C1222 C1221 1.396 . S
C1222 C1223 1.399 . S
C1223 H1209 0.929 . S
C1223 C1222 1.399 . S
C1223 C1224 1.385 . S
C1224 H1210 0.931 . S
C1224 C1223 1.385 . S
C1224 C1225 1.389 . S
C1225 C1224 1.389 . S
C1225 C1226 1.387 . S
C1226 H1211 0.930 . S
C1226 C1221 1.390 . S
C1226 C1225 1.387 . S
H1227 C1239 0.930 . S
H1228 C1241 0.930 . S
H1229 C1242 0.930 . S
H1230 C1246 0.959 . S
H1231 C1246 0.959 . S
H1232 C1246 0.961 . S
H1233 C1247 0.960 . S
H1234 C1247 0.961 . S
H1235 C1247 0.959 . S
H1236 C1250 0.929 . S
H1237 C1251 0.931 . S
H1238 C1253 0.930 . S
C1239 H1227 0.930 . S
C1239 C1240 1.399 . S
C1239 C1244 1.399 . S
C1240 C1239 1.399 . S
C1240 C1241 1.376 . S
C1241 H1228 0.930 . S
C1241 C1240 1.376 . S
C1241 C1242 1.388 . S
C1242 H1229 0.930 . S
C1242 C1241 1.388 . S
C1242 C1243 1.390 . S
C1243 C1242 1.390 . S
C1243 C1244 1.394 . S
C1243 C1249 1.465 . S
C1244 C1239 1.399 . S
C1244 C1243 1.394 . S
C1244 C1245 1.516 . S
C1245 C1244 1.516 . S
C1245 C1246 1.502 . S
C1245 C1247 1.561 . S
C1245 C1248 1.526 . S
C1246 H1230 0.959 . S
C1246 H1231 0.959 . S
C1246 H1232 0.961 . S
C1246 C1245 1.502 . S
C1247 H1233 0.960 . S
C1247 H1234 0.961 . S
C1247 H1235 0.959 . S
C1247 C1245 1.561 . S
C1248 C1245 1.526 . S
C1248 C1249 1.396 . S
C1248 C1253 1.390 . S
C1249 C1243 1.465 . S
C1249 C1248 1.396 . S
C1249 C1250 1.399 . S
C1250 H1236 0.929 . S
C1250 C1249 1.399 . S
C1250 C1251 1.385 . S
C1251 H1237 0.931 . S
C1251 C1250 1.385 . S
C1251 C1252 1.389 . S
C1252 C1251 1.389 . S
C1252 C1253 1.387 . S
C1253 H1238 0.930 . S
C1253 C1248 1.390 . S
C1253 C1252 1.387 . S
H1254 C1266 0.930 . S
H1255 C1268 0.930 . S
H1256 C1269 0.930 . S
H1257 C1273 0.959 . S
H1258 C1273 0.959 . S
H1259 C1273 0.961 . S
H1260 C1274 0.960 . S
H1261 C1274 0.961 . S
H1262 C1274 0.959 . S
H1263 C1277 0.929 . S
H1264 C1278 0.931 . S
H1265 C1280 0.930 . S
C1266 H1254 0.930 . S
C1266 C1267 1.399 . S
C1266 C1271 1.399 . S
C1267 C1266 1.399 . S
C1267 C1268 1.376 . S
C1268 H1255 0.930 . S
C1268 C1267 1.376 . S
C1268 C1269 1.388 . S
C1269 H1256 0.930 . S
C1269 C1268 1.388 . S
C1269 C1270 1.390 . S
C1270 C1269 1.390 . S
C1270 C1271 1.394 . S
C1270 C1276 1.465 . S
C1271 C1266 1.399 . S
C1271 C1270 1.394 . S
C1271 C1272 1.516 . S
C1272 C1271 1.516 . S
C1272 C1273 1.502 . S
C1272 C1274 1.561 . S
C1272 C1275 1.526 . S
C1273 H1257 0.959 . S
C1273 H1258 0.959 . S
C1273 H1259 0.961 . S
C1273 C1272 1.502 . S
C1274 H1260 0.960 . S
C1274 H1261 0.961 . S
C1274 H1262 0.959 . S
C1274 C1272 1.561 . S
C1275 C1272 1.526 . S
C1275 C1276 1.396 . S
C1275 C1280 1.390 . S
C1276 C1270 1.465 . S
C1276 C1275 1.396 . S
C1276 C1277 1.399 . S
C1277 H1263 0.929 . S
C1277 C1276 1.399 . S
C1277 C1278 1.385 . S
C1278 H1264 0.931 . S
C1278 C1277 1.385 . S
C1278 C1279 1.389 . S
C1279 C1278 1.389 . S
C1279 C1280 1.387 . S
C1280 H1265 0.930 . S
C1280 C1275 1.390 . S
C1280 C1279 1.387 . S
H1281 C1293 0.930 . S
H1282 C1295 0.930 . S
H1283 C1296 0.930 . S
H1284 C1300 0.959 . S
H1285 C1300 0.959 . S
H1286 C1300 0.961 . S
H1287 C1301 0.960 . S
H1288 C1301 0.961 . S
H1289 C1301 0.959 . S
H1290 C1304 0.929 . S
H1291 C1305 0.931 . S
H1292 C1307 0.930 . S
C1293 H1281 0.930 . S
C1293 C1294 1.399 . S
C1293 C1298 1.399 . S
C1294 C1293 1.399 . S
C1294 C1295 1.376 . S
C1295 H1282 0.930 . S
C1295 C1294 1.376 . S
C1295 C1296 1.388 . S
C1296 H1283 0.930 . S
C1296 C1295 1.388 . S
C1296 C1297 1.390 . S
C1297 C1296 1.390 . S
C1297 C1298 1.394 . S
C1297 C1303 1.465 . S
C1298 C1293 1.399 . S
C1298 C1297 1.394 . S
C1298 C1299 1.516 . S
C1299 C1298 1.516 . S
C1299 C1300 1.502 . S
C1299 C1301 1.561 . S
C1299 C1302 1.526 . S
C1300 H1284 0.959 . S
C1300 H1285 0.959 . S
C1300 H1286 0.961 . S
C1300 C1299 1.502 . S
C1301 H1287 0.960 . S
C1301 H1288 0.961 . S
C1301 H1289 0.959 . S
C1301 C1299 1.561 . S
C1302 C1299 1.526 . S
C1302 C1303 1.396 . S
C1302 C1307 1.390 . S
C1303 C1297 1.465 . S
C1303 C1302 1.396 . S
C1303 C1304 1.399 . S
C1304 H1290 0.929 . S
C1304 C1303 1.399 . S
C1304 C1305 1.385 . S
C1305 H1291 0.931 . S
C1305 C1304 1.385 . S
C1305 C1306 1.389 . S
C1306 C1305 1.389 . S
C1306 C1307 1.387 . S
C1307 H1292 0.930 . S
C1307 C1302 1.390 . S
C1307 C1306 1.387 . S
H1308 C1320 0.930 . S
H1309 C1322 0.930 . S
H1310 C1323 0.930 . S
H1311 C1327 0.959 . S
H1312 C1327 0.959 . S
H1313 C1327 0.961 . S
H1314 C1328 0.960 . S
H1315 C1328 0.961 . S
H1316 C1328 0.959 . S
H1317 C1331 0.929 . S
H1318 C1332 0.931 . S
H1319 C1334 0.930 . S
C1320 H1308 0.930 . S
C1320 C1321 1.399 . S
C1320 C1325 1.399 . S
C1321 C1320 1.399 . S
C1321 C1322 1.376 . S
C1322 H1309 0.930 . S
C1322 C1321 1.376 . S
C1322 C1323 1.388 . S
C1323 H1310 0.930 . S
C1323 C1322 1.388 . S
C1323 C1324 1.390 . S
C1324 C1323 1.390 . S
C1324 C1325 1.394 . S
C1324 C1330 1.465 . S
C1325 C1320 1.399 . S
C1325 C1324 1.394 . S
C1325 C1326 1.516 . S
C1326 C1325 1.516 . S
C1326 C1327 1.502 . S
C1326 C1328 1.561 . S
C1326 C1329 1.526 . S
C1327 H1311 0.959 . S
C1327 H1312 0.959 . S
C1327 H1313 0.961 . S
C1327 C1326 1.502 . S
C1328 H1314 0.960 . S
C1328 H1315 0.961 . S
C1328 H1316 0.959 . S
C1328 C1326 1.561 . S
C1329 C1326 1.526 . S
C1329 C1330 1.396 . S
C1329 C1334 1.390 . S
C1330 C1324 1.465 . S
C1330 C1329 1.396 . S
C1330 C1331 1.399 . S
C1331 H1317 0.929 . S
C1331 C1330 1.399 . S
C1331 C1332 1.385 . S
C1332 H1318 0.931 . S
C1332 C1331 1.385 . S
C1332 C1333 1.389 . S
C1333 C1332 1.389 . S
C1333 C1334 1.387 . S
C1334 H1319 0.930 . S
C1334 C1329 1.390 . S
C1334 C1333 1.387 . S
H1335 C1347 0.930 . S
H1336 C1349 0.930 . S
H1337 C1350 0.930 . S
H1338 C1354 0.959 . S
H1339 C1354 0.959 . S
H1340 C1354 0.961 . S
H1341 C1355 0.960 . S
H1342 C1355 0.961 . S
H1343 C1355 0.959 . S
H1344 C1358 0.929 . S
H1345 C1359 0.931 . S
H1346 C1361 0.930 . S
C1347 H1335 0.930 . S
C1347 C1348 1.399 . S
C1347 C1352 1.399 . S
C1348 C1347 1.399 . S
C1348 C1349 1.376 . S
C1349 H1336 0.930 . S
C1349 C1348 1.376 . S
C1349 C1350 1.388 . S
C1350 H1337 0.930 . S
C1350 C1349 1.388 . S
C1350 C1351 1.390 . S
C1351 C1350 1.390 . S
C1351 C1352 1.394 . S
C1351 C1357 1.465 . S
C1352 C1347 1.399 . S
C1352 C1351 1.394 . S
C1352 C1353 1.516 . S
C1353 C1352 1.516 . S
C1353 C1354 1.502 . S
C1353 C1355 1.561 . S
C1353 C1356 1.526 . S
C1354 H1338 0.959 . S
C1354 H1339 0.959 . S
C1354 H1340 0.961 . S
C1354 C1353 1.502 . S
C1355 H1341 0.960 . S
C1355 H1342 0.961 . S
C1355 H1343 0.959 . S
C1355 C1353 1.561 . S
C1356 C1353 1.526 . S
C1356 C1357 1.396 . S
C1356 C1361 1.390 . S
C1357 C1351 1.465 . S
C1357 C1356 1.396 . S
C1357 C1358 1.399 . S
C1358 H1344 0.929 . S
C1358 C1357 1.399 . S
C1358 C1359 1.385 . S
C1359 H1345 0.931 . S
C1359 C1358 1.385 . S
C1359 C1360 1.389 . S
C1360 C1359 1.389 . S
C1360 C1361 1.387 . S
C1361 H1346 0.930 . S
C1361 C1356 1.390 . S
C1361 C1360 1.387 . S
H1362 C1374 0.930 . S
H1363 C1376 0.930 . S
H1364 C1377 0.930 . S
H1365 C1381 0.959 . S
H1366 C1381 0.959 . S
H1367 C1381 0.961 . S
H1368 C1382 0.960 . S
H1369 C1382 0.961 . S
H1370 C1382 0.959 . S
H1371 C1385 0.929 . S
H1372 C1386 0.931 . S
H1373 C1388 0.930 . S
C1374 H1362 0.930 . S
C1374 C1375 1.399 . S
C1374 C1379 1.399 . S
C1375 C1374 1.399 . S
C1375 C1376 1.376 . S
C1376 H1363 0.930 . S
C1376 C1375 1.376 . S
C1376 C1377 1.388 . S
C1377 H1364 0.930 . S
C1377 C1376 1.388 . S
C1377 C1378 1.390 . S
C1378 C1377 1.390 . S
C1378 C1379 1.394 . S
C1378 C1384 1.465 1_554 S
C1379 C1374 1.399 . S
C1379 C1378 1.394 . S
C1379 C1380 1.506 1_554 S
C1380 C1379 1.506 1_556 S
C1380 C1381 1.488 1_556 S
C1380 C1382 1.573 . S
C1380 C1383 1.541 . S
C1381 H1365 0.959 . S
C1381 H1366 0.959 . S
C1381 H1367 0.961 . S
C1381 C1380 1.488 1_554 S
C1382 H1368 0.960 . S
C1382 H1369 0.961 . S
C1382 H1370 0.959 . S
C1382 C1380 1.573 . S
C1383 C1380 1.541 . S
C1383 C1384 1.396 . S
C1383 C1388 1.390 . S
C1384 C1378 1.465 1_556 S
C1384 C1383 1.396 . S
C1384 C1385 1.399 . S
C1385 H1371 0.929 . S
C1385 C1384 1.399 . S
C1385 C1386 1.385 . S
C1386 H1372 0.931 . S
C1386 C1385 1.385 . S
C1386 C1387 1.389 . S
C1387 C1386 1.389 . S
C1387 C1388 1.387 . S
C1388 H1373 0.930 . S
C1388 C1383 1.390 . S
C1388 C1387 1.387 . S
H1389 C1401 0.930 . S
H1390 C1403 0.930 . S
H1391 C1404 0.930 . S
H1392 C1408 0.959 . S
H1393 C1408 0.959 . S
H1394 C1408 0.961 . S
H1395 C1409 0.960 . S
H1396 C1409 0.961 . S
H1397 C1409 0.959 . S
H1398 C1412 0.929 . S
H1399 C1413 0.931 . S
H1400 C1415 0.930 . S
C1401 H1389 0.930 . S
C1401 C1402 1.399 . S
C1401 C1406 1.399 . S
C1402 C1401 1.399 . S
C1402 C1403 1.376 . S
C1403 H1390 0.930 . S
C1403 C1402 1.376 . S
C1403 C1404 1.388 . S
C1404 H1391 0.930 . S
C1404 C1403 1.388 . S
C1404 C1405 1.390 . S
C1405 C1404 1.390 . S
C1405 C1406 1.394 . S
C1405 C1411 1.465 . S
C1406 C1401 1.399 . S
C1406 C1405 1.394 . S
C1406 C1407 1.516 . S
C1407 C1406 1.516 . S
C1407 C1408 1.502 . S
C1407 C1409 1.561 . S
C1407 C1410 1.526 . S
C1408 H1392 0.959 . S
C1408 H1393 0.959 . S
C1408 H1394 0.961 . S
C1408 C1407 1.502 . S
C1409 H1395 0.960 . S
C1409 H1396 0.961 . S
C1409 H1397 0.959 . S
C1409 C1407 1.561 . S
C1410 C1407 1.526 . S
C1410 C1411 1.396 . S
C1410 C1415 1.390 . S
C1411 C1405 1.465 . S
C1411 C1410 1.396 . S
C1411 C1412 1.399 . S
C1412 H1398 0.929 . S
C1412 C1411 1.399 . S
C1412 C1413 1.385 . S
C1413 H1399 0.931 . S
C1413 C1412 1.385 . S
C1413 C1414 1.389 . S
C1414 C1413 1.389 . S
C1414 C1415 1.387 . S
C1415 H1400 0.930 . S
C1415 C1410 1.390 . S
C1415 C1414 1.387 . S
C793 C761 1.929 . S
C781 C1 1.446 . S
C808 C169 1.078 . S
C820 C690 1.495 . S
C835 C283 1.706 . S
C847 C704 2.055 . S
C862 C397 0.982 . S
C874 C718 1.376 . S
C901 C732 1.837 . S
C889 C457 1.443 . S
C916 C571 1.232 . S
C928 C747 1.339 . S
C943 C115 1.205 . S
C955 C705 1.388 . S
C970 C229 1.386 . S
C982 C719 1.805 . S
C997 C343 1.187 . S
C1009 C733 1.308 . S
C1036 C746 1.897 . S
C1024 C511 1.633 . S
C1063 C760 1.456 . S
C1051 C625 1.110 . S
C1090 C691 2.042 . S
C1078 C55 1.818 . S
C1105 C29 1.076 . S
C1117 C707 1.461 . S
C1132 C125 1.097 . S
C1144 C721 1.949 . S
C1171 C735 1.495 . S
C1159 C239 0.918 . S
C1186 C353 1.063 . S
C1198 C748 1.896 . S
C1225 C762 1.421 . S
C1213 C485 1.087 . S
C1252 C693 1.904 . S
C1240 C599 1.751 . S
C1279 C763 1.842 . S
C1267 C143 1.663 . S
C1294 C257 1.196 . S
C1306 C692 1.490 . S
C1333 C706 1.796 . S
C1321 C371 1.655 . S
C1348 C467 1.007 . S
C1360 C720 1.486 . S
C1375 C581 1.016 . S
C1387 C734 1.907 . S
C1402 C11 0.944 . S
C1414 C749 1.556 . S
