# Generated by pormake.
# Topology the, (3,8)-cn, num edge types: 1
# Building blocks:
#     Node 0, Type 0, BuildingBlock: BETDIP_clean_linker_0, # of connection points: 3
#     Node 1, Type 0, BuildingBlock: BETDIP_clean_linker_0, # of connection points: 3
#     Node 2, Type 0, BuildingBlock: BETDIP_clean_linker_0, # of connection points: 3
#     Node 3, Type 0, BuildingBlock: BETDIP_clean_linker_0, # of connection points: 3
#     Node 4, Type 0, BuildingBlock: BETDIP_clean_linker_0, # of connection points: 3
#     Node 5, Type 0, BuildingBlock: BETDIP_clean_linker_0, # of connection points: 3
#     Node 6, Type 0, BuildingBlock: BETDIP_clean_linker_0, # of connection points: 3
#     Node 7, Type 0, BuildingBlock: BETDIP_clean_linker_0, # of connection points: 3
#     Node 8, Type 1, BuildingBlock: GIZVER_clean_sbu_0, # of connection points: 8
#     Node 9, Type 1, BuildingBlock: GIZVER_clean_sbu_0, # of connection points: 8
#     Node 10, Type 1, BuildingBlock: GIZVER_clean_sbu_0, # of connection points: 8
#     Edge 11, Type (0, 1), BuildingBlock: KIFKEQ_clean_linker_1, # of connection points: 2
#     Edge 12, Type (0, 1), BuildingBlock: KIFKEQ_clean_linker_1, # of connection points: 2
#     Edge 13, Type (0, 1), BuildingBlock: KIFKEQ_clean_linker_1, # of connection points: 2
#     Edge 14, Type (0, 1), BuildingBlock: KIFKEQ_clean_linker_1, # of connection points: 2
#     Edge 15, Type (0, 1), BuildingBlock: KIFKEQ_clean_linker_1, # of connection points: 2
#     Edge 16, Type (0, 1), BuildingBlock: KIFKEQ_clean_linker_1, # of connection points: 2
#     Edge 17, Type (0, 1), BuildingBlock: KIFKEQ_clean_linker_1, # of connection points: 2
#     Edge 18, Type (0, 1), BuildingBlock: KIFKEQ_clean_linker_1, # of connection points: 2
#     Edge 19, Type (0, 1), BuildingBlock: KIFKEQ_clean_linker_1, # of connection points: 2
#     Edge 20, Type (0, 1), BuildingBlock: KIFKEQ_clean_linker_1, # of connection points: 2
#     Edge 21, Type (0, 1), BuildingBlock: KIFKEQ_clean_linker_1, # of connection points: 2
#     Edge 22, Type (0, 1), BuildingBlock: KIFKEQ_clean_linker_1, # of connection points: 2
#     Edge 23, Type (0, 1), BuildingBlock: KIFKEQ_clean_linker_1, # of connection points: 2
#     Edge 24, Type (0, 1), BuildingBlock: KIFKEQ_clean_linker_1, # of connection points: 2
#     Edge 25, Type (0, 1), BuildingBlock: KIFKEQ_clean_linker_1, # of connection points: 2
#     Edge 26, Type (0, 1), BuildingBlock: KIFKEQ_clean_linker_1, # of connection points: 2
#     Edge 27, Type (0, 1), BuildingBlock: KIFKEQ_clean_linker_1, # of connection points: 2
#     Edge 28, Type (0, 1), BuildingBlock: KIFKEQ_clean_linker_1, # of connection points: 2
#     Edge 29, Type (0, 1), BuildingBlock: KIFKEQ_clean_linker_1, # of connection points: 2
#     Edge 30, Type (0, 1), BuildingBlock: KIFKEQ_clean_linker_1, # of connection points: 2
#     Edge 31, Type (0, 1), BuildingBlock: KIFKEQ_clean_linker_1, # of connection points: 2
#     Edge 32, Type (0, 1), BuildingBlock: KIFKEQ_clean_linker_1, # of connection points: 2
#     Edge 33, Type (0, 1), BuildingBlock: KIFKEQ_clean_linker_1, # of connection points: 2
#     Edge 34, Type (0, 1), BuildingBlock: KIFKEQ_clean_linker_1, # of connection points: 2
# Relax obj value: 0.085
# Max RMSD: 0.191
# Mean RMSD: 0.139
data_MOF--net-the--node1-GIZVER_clean_sbu_0--node2-BETDIP_clean_linker_0--edge1-KIFKEQ_clean_linker_1
_symmetry_space_group_name_H-M    P1
_symmetry_Int_Tables_number       1
_symmetry_cell_setting            triclinic
loop_
_symmetry_equiv_pos_as_xyz
'x, y, z'
_cell_length_a     41.228945
_cell_length_b     38.428432
_cell_length_c     36.924357
_cell_angle_alpha  89.950572
_cell_angle_beta   91.438525
_cell_angle_gamma 109.52527
loop_
_atom_site_label
_atom_site_type_symbol
_atom_site_fract_x
_atom_site_fract_y
_atom_site_fract_z
_atom_type_partial_charge
H0 H 0.28444 0.32058 0.44703 0.0
H1 H 0.35578 0.33455 0.36096 0.0
H2 H 0.27739 0.38511 0.35365 0.0
H3 H 0.34652 0.27386 0.37654 0.0
C4 C 0.34944 0.27645 0.40586 0.0
C5 C 0.29397 0.3324 0.42111 0.0
C6 C 0.27749 0.35355 0.40198 0.0
C7 C 0.32152 0.32459 0.40599 0.0
C8 C 0.33393 0.33982 0.37239 0.0
C9 C 0.31808 0.36161 0.35325 0.0
C10 C 0.28962 0.36803 0.36807 0.0
N11 N 0.33561 0.30036 0.42445 0.0
H12 H 0.74886 0.39131 0.3085 0.0
H13 H 0.65803 0.29565 0.29674 0.0
H14 H 0.72462 0.30886 0.39133 0.0
H15 H 0.66555 0.31078 0.23694 0.0
C16 C 0.67057 0.34034 0.23886 0.0
C17 C 0.73224 0.36512 0.31867 0.0
C18 C 0.74063 0.35159 0.35167 0.0
C19 C 0.70225 0.34528 0.29889 0.0
C20 C 0.68086 0.31114 0.31221 0.0
C21 C 0.68848 0.29721 0.34557 0.0
C22 C 0.71838 0.31821 0.36524 0.0
N23 N 0.69319 0.36113 0.26684 0.0
H24 H 0.72325 0.68285 0.30341 0.0
H25 H 0.73268 0.76028 0.3906 0.0
H26 H 0.65308 0.74405 0.30882 0.0
H27 H 0.77981 0.74818 0.40702 0.0
C28 C 0.78014 0.72316 0.39372 0.0
C29 C 0.71484 0.70362 0.31623 0.0
C30 C 0.68627 0.71156 0.30176 0.0
C31 C 0.73191 0.72084 0.34812 0.0
C32 C 0.7205 0.74713 0.36559 0.0
C33 C 0.69189 0.75539 0.35153 0.0
C34 C 0.67502 0.73753 0.3197 0.0
N35 N 0.75888 0.70901 0.36247 0.0
H36 H 0.24678 0.68012 0.2784 0.0
H37 H 0.34323 0.76669 0.2986 0.0
H38 H 0.26074 0.75036 0.37234 0.0
H39 H 0.36107 0.74661 0.25058 0.0
C40 C 0.34303 0.72004 0.24211 0.0
C41 C 0.26246 0.70342 0.29468 0.0
C42 C 0.24949 0.71294 0.32659 0.0
C43 C 0.29609 0.72231 0.28425 0.0
C44 C 0.31684 0.75231 0.30548 0.0
C45 C 0.30411 0.76287 0.33716 0.0
C46 C 0.27034 0.74309 0.34741 0.0
N47 N 0.30864 0.70787 0.25423 0.0
H48 H 0.29897 0.64296 0.75371 0.0
H49 H 0.38815 0.73989 0.76446 0.0
H50 H 0.3138 0.73157 0.67792 0.0
H51 H 0.41273 0.69439 0.77419 0.0
C52 C 0.39521 0.67853 0.7944 0.0
C53 C 0.31396 0.67017 0.74429 0.0
C54 C 0.30176 0.68606 0.71484 0.0
C55 C 0.34588 0.6889 0.76117 0.0
C56 C 0.36486 0.72459 0.74954 0.0
C57 C 0.3542 0.74047 0.71906 0.0
C58 C 0.3223 0.7208 0.70208 0.0
N59 N 0.35916 0.67123 0.78903 0.0
H60 H 0.31868 0.35041 0.75032 0.0
H61 H 0.31244 0.27072 0.66711 0.0
H62 H 0.3927 0.29368 0.74978 0.0
H63 H 0.29315 0.31198 0.63367 0.0
C64 C 0.27704 0.31986 0.6526 0.0
C65 C 0.32891 0.33068 0.73829 0.0
C66 C 0.35761 0.32417 0.75441 0.0
C67 C 0.31345 0.31269 0.70619 0.0
C68 C 0.32559 0.286 0.69082 0.0
C69 C 0.35383 0.27811 0.70674 0.0
C70 C 0.36989 0.29789 0.73829 0.0
N71 N 0.28565 0.32209 0.69031 0.0
H72 H 0.70332 0.26827 0.76422 0.0
H73 H 0.80084 0.35525 0.77106 0.0
H74 H 0.78068 0.27363 0.68635 0.0
H75 H 0.783 0.37066 0.82268 0.0
C76 C 0.75509 0.36023 0.82077 0.0
C77 C 0.72912 0.28097 0.75432 0.0
C78 C 0.73923 0.2671 0.72298 0.0
C79 C 0.75114 0.31237 0.77211 0.0
C80 C 0.78427 0.32978 0.75887 0.0
C81 C 0.7954 0.31577 0.72813 0.0
C82 C 0.77277 0.28406 0.71063 0.0
N83 N 0.73744 0.32765 0.80055 0.0
H84 H 0.68696 0.70873 0.69328 0.0
H85 H 0.75467 0.71002 0.60626 0.0
H86 H 0.76228 0.6542 0.70518 0.0
H87 H 0.73952 0.75669 0.58575 0.0
C88 C 0.71436 0.75389 0.59602 0.0
C89 C 0.70785 0.70099 0.68257 0.0
C90 C 0.72326 0.68005 0.70363 0.0
C91 C 0.71934 0.7126 0.64782 0.0
C92 C 0.74637 0.70267 0.6336 0.0
C93 C 0.76192 0.68157 0.65423 0.0
C94 C 0.75041 0.67065 0.68928 0.0
N95 N 0.70235 0.73336 0.62789 0.0
Co96 Co 0.08813 0.4825 0.54116 0.0
Co97 Co 0.04836 0.46639 0.48184 0.0
Co98 Co 0.02323 0.51838 0.53102 0.0
O99 O 0.04055 0.47559 0.52995 0.0
H100 H 0.02498 0.45366 0.54073 0.0
O101 O 1.00537 0.56075 0.5324 0.0
Co102 Co 0.95793 0.55255 0.51856 0.0
Co103 Co 0.99454 0.56957 0.57976 0.0
H104 H 0.02109 0.58298 0.52209 0.0
O105 O 0.05383 0.42218 0.46716 0.0
O106 O 0.0945 0.47267 0.48994 0.0
O107 O 0.04707 0.50306 0.44645 0.0
O108 O 0.05151 0.54511 0.48923 0.0
O109 O 0.98485 0.49053 0.49635 0.0
O110 O 0.91557 0.54932 0.50435 0.0
O111 O 0.96326 0.59969 0.50557 0.0
O112 O 0.94603 0.50196 0.52916 0.0
O113 O 0.99505 0.4916 0.57276 0.0
O114 O 0.9941 0.53236 0.61515 0.0
O115 O 0.94858 0.56234 0.5687 0.0
O116 O 0.98676 0.61331 0.59341 0.0
C117 C 0.11611 0.44986 0.55883 0.0
C118 C 0.09337 0.55155 0.55749 0.0
C119 C 0.05493 0.5365 0.45647 0.0
C120 C 0.08587 0.4399 0.47561 0.0
C121 C 0.93042 0.58427 0.49791 0.0
C122 C 0.95344 0.48327 0.50447 0.0
C123 C 0.98896 0.49934 0.60499 0.0
C124 C 0.95544 0.59492 0.58292 0.0
O125 O 0.131 0.48478 0.55235 0.0
O126 O 0.08284 0.43501 0.55333 0.0
O127 O 0.06205 0.54618 0.56529 0.0
O128 O 0.09967 0.53307 0.53176 0.0
Co129 Co 0.55335 0.95118 0.49351 0.0
Co130 Co 0.57568 0.98009 0.55756 0.0
Co131 Co 0.5222 0.01593 0.52885 0.0
O132 O 0.56125 0.99873 0.51594 0.0
H133 H 0.58021 0.01803 0.50565 0.0
O134 O 0.48317 0.03301 0.542 0.0
Co135 Co 0.4906 0.08091 0.56335 0.0
Co136 Co 0.46901 0.0508 0.50029 0.0
H137 H 0.46421 0.01373 0.55239 0.0
O138 O 0.61806 0.97347 0.56133 0.0
O139 O 0.5683 0.93316 0.53915 0.0
O140 O 0.54745 0.97281 0.59932 0.0
O141 O 0.50285 0.976 0.56622 0.0
O142 O 0.55267 0.0495 0.56621 0.0
O143 O 0.49416 0.12348 0.58472 0.0
O144 O 0.44766 0.07185 0.58119 0.0
O145 O 0.53706 0.09681 0.54904 0.0
O146 O 0.54158 0.05596 0.4915 0.0
O147 O 0.49674 0.05764 0.45811 0.0
O148 O 0.47494 0.09784 0.51723 0.0
O149 O 0.42615 0.0545 0.496 0.0
C150 C 0.58164 0.92655 0.46408 0.0
C151 C 0.48601 0.94785 0.49129 0.0
C152 C 0.51529 0.96504 0.59432 0.0
C153 C 0.6004 0.94067 0.54935 0.0
C154 C 0.46224 0.10602 0.59225 0.0
C155 C 0.55797 0.08415 0.56598 0.0
C156 C 0.52897 0.06653 0.46329 0.0
C157 C 0.44283 0.08833 0.50599 0.0
O158 O 0.54962 0.90911 0.47131 0.0
O159 O 0.59632 0.96048 0.4757 0.0
O160 O 0.49156 0.98253 0.49134 0.0
O161 O 0.50691 0.93498 0.50782 0.0
Co162 Co 0.47875 0.52518 0.0984 0.0
Co163 Co 0.46239 0.45808 0.07446 0.0
Co164 Co 0.52456 0.5146 0.02905 0.0
O165 O 0.47894 0.50356 0.05215 0.0
H166 H 0.46167 0.5068 0.03557 0.0
O167 O 0.57013 0.52638 1.00627 0.0
Co168 Co 0.57373 0.50843 0.95945 0.0
Co169 Co 0.58655 0.5742 0.98777 0.0
H170 H 0.58711 0.52291 0.02305 0.0
O171 O 0.41591 0.4357 0.08637 0.0
O172 O 0.45764 0.47633 0.11985 0.0
O173 O 0.49536 0.43298 0.08075 0.0
O174 O 0.54024 0.47886 0.06013 0.0
O175 O 0.50133 0.47415 0.99257 0.0
O176 O 0.5813 0.49086 0.91727 0.0
O177 O 0.61678 0.50777 0.96634 0.0
O178 O 0.52872 0.50609 0.94656 0.0
O179 O 0.50881 0.54981 0.9977 0.0
O180 O 0.55348 0.59963 0.98484 0.0
O181 O 0.5901 0.55906 0.9407 0.0
O182 O 0.63253 0.59865 0.97401 0.0
C183 C 0.4475 0.54817 0.12398 0.0
C184 C 0.5465 0.54842 0.09913 0.0
C185 C 0.52755 0.44803 0.07664 0.0
C186 C 0.42624 0.4539 0.11647 0.0
C187 C 0.61036 0.49363 0.93377 0.0
C188 C 0.50337 0.48022 0.95855 0.0
C189 C 0.52129 0.58248 0.98498 0.0
C190 C 0.62101 0.58264 0.94314 0.0
O191 O 0.47562 0.54677 0.13968 0.0
O192 O 0.4378 0.5323 0.09239 0.0
O193 O 0.54805 0.55516 0.06529 0.0
O194 O 0.52169 0.52156 0.1103 0.0
H195 H 0.27091 0.37813 0.4698 0.0
H196 H 0.21611 0.34398 0.36765 0.0
H197 H 0.22237 0.39441 0.49233 0.0
H198 H 0.16786 0.36036 0.38997 0.0
H199 H 0.15524 0.47221 0.48486 0.0
H200 H 0.19974 0.44575 0.47227 0.0
H201 H 0.12196 0.34382 0.43789 0.0
H202 H 0.07704 0.37007 0.45109 0.0
C203 C 0.24828 0.37363 0.45245 0.0
C204 C 0.24724 0.36024 0.41692 0.0
C205 C 0.22068 0.38303 0.46523 0.0
C206 C 0.19153 0.37867 0.44279 0.0
C207 C 0.18992 0.36367 0.40788 0.0
C208 C 0.21761 0.35469 0.395 0.0
C209 C 0.1475 0.44398 0.47509 0.0
C210 C 0.11261 0.42323 0.46892 0.0
C211 C 0.17302 0.42879 0.4681 0.0
C212 C 0.1642 0.39277 0.45423 0.0
C213 C 0.12934 0.37174 0.44851 0.0
C214 C 0.10372 0.38679 0.45595 0.0
H215 H 0.61801 0.26497 0.33529 0.0
H216 H 0.70532 0.24671 0.38909 0.0
H217 H 0.58083 0.20683 0.35748 0.0
H218 H 0.66725 0.19107 0.41561 0.0
H219 H 0.59579 0.07814 0.44454 0.0
H220 H 0.634 0.13106 0.41253 0.0
H221 H 0.55204 0.17798 0.40511 0.0
H222 H 0.51376 0.12391 0.43382 0.0
C223 C 0.62954 0.24878 0.35187 0.0
C224 C 0.66514 0.26123 0.36009 0.0
C225 C 0.60777 0.21542 0.36553 0.0
C226 C 0.62048 0.19382 0.38909 0.0
C227 C 0.6561 0.2062 0.39728 0.0
C228 C 0.67808 0.23898 0.3826 0.0
C229 C 0.58597 0.09954 0.4352 0.0
C230 C 0.55168 0.09658 0.44114 0.0
C231 C 0.60799 0.13028 0.41726 0.0
C232 C 0.59656 0.15948 0.40596 0.0
C233 C 0.56202 0.15607 0.41207 0.0
C234 C 0.53985 0.12491 0.42886 0.0
H235 H 0.7874 0.65858 0.36969 0.0
H236 H 0.82542 0.74424 0.45102 0.0
H237 H 0.82475 0.62673 0.39497 0.0
H238 H 0.86277 0.71198 0.47674 0.0
H239 H 0.94947 0.65944 0.48808 0.0
H240 H 0.91404 0.69414 0.46286 0.0
H241 H 0.8282 0.59267 0.45009 0.0
H242 H 0.86336 0.5582 0.47471 0.0
C243 C 0.80377 0.67068 0.39297 0.0
C244 C 0.80344 0.70397 0.40842 0.0
C245 C 0.82508 0.65228 0.40761 0.0
C246 C 0.84667 0.6667 0.43801 0.0
C247 C 0.8467 0.7003 0.45314 0.0
C248 C 0.82521 0.71866 0.43855 0.0
C249 C 0.92307 0.6446 0.47978 0.0
C250 C 0.9094 0.60601 0.48313 0.0
C251 C 0.9027 0.66449 0.46556 0.0
C252 C 0.86835 0.64614 0.45416 0.0
C253 C 0.8547 0.60763 0.45797 0.0
C254 C 0.87489 0.58787 0.47232 0.0
H255 H 0.31223 0.76188 0.41078 0.0
H256 H 0.34847 0.83052 0.31752 0.0
H257 H 0.35288 0.80837 0.44967 0.0
H258 H 0.38982 0.87674 0.35643 0.0
H259 H 0.44189 0.96493 0.44307 0.0
H260 H 0.39494 0.92189 0.40694 0.0
H261 H 0.41608 0.83002 0.45734 0.0
H262 H 0.46257 0.87266 0.49341 0.0
C263 C 0.32854 0.78713 0.39864 0.0
C264 C 0.32715 0.7925 0.36104 0.0
C265 C 0.35207 0.8136 0.42088 0.0
C266 C 0.3747 0.84613 0.4061 0.0
C267 C 0.37256 0.85209 0.36867 0.0
C268 C 0.34913 0.82548 0.34636 0.0
C269 C 0.43627 0.93554 0.44665 0.0
C270 C 0.45604 0.92224 0.47106 0.0
C271 C 0.40953 0.91092 0.42582 0.0
C272 C 0.40181 0.87256 0.42929 0.0
C273 C 0.42108 0.85938 0.45433 0.0
C274 C 0.4479 0.88388 0.47486 0.0
H275 H 0.24997 0.71216 0.69417 0.0
H276 H 0.27892 0.61414 0.69177 0.0
H277 H 0.19775 0.68018 0.65807 0.0
H278 H 0.22686 0.58228 0.65572 0.0
H279 H 0.16145 0.56162 0.55007 0.0
H280 H 0.20927 0.59302 0.59093 0.0
H281 H 0.14045 0.62383 0.66023 0.0
H282 H 0.09171 0.59141 0.61933 0.0
C283 C 0.24501 0.68369 0.68616 0.0
C284 C 0.2686 0.66568 0.69569 0.0
C285 C 0.21503 0.66536 0.66574 0.0
C286 C 0.20833 0.62882 0.65392 0.0
C287 C 0.23149 0.61055 0.66423 0.0
C288 C 0.26117 0.62868 0.68507 0.0
C289 C 0.15621 0.57492 0.574 0.0
C290 C 0.1225 0.57357 0.58154 0.0
C291 C 0.18375 0.59282 0.59752 0.0
C292 C 0.17857 0.61045 0.62902 0.0
C293 C 0.14515 0.61035 0.63615 0.0
C294 C 0.11729 0.59183 0.61274 0.0
H295 H 0.35544 0.26 0.63443 0.0
H296 H 0.38173 0.23095 0.74176 0.0
H297 H 0.37767 0.2144 0.60832 0.0
H298 H 0.40547 0.18694 0.71523 0.0
H299 H 0.4868 0.15719 0.64539 0.0
H300 H 0.45795 0.19591 0.6736 0.0
H301 H 0.36604 0.14167 0.60927 0.0
H302 H 0.39486 0.10196 0.58154 0.0
C303 C 0.36554 0.24377 0.6526 0.0
C304 C 0.3668 0.24962 0.69041 0.0
C305 C 0.37838 0.21766 0.6375 0.0
C306 C 0.39334 0.19715 0.65973 0.0
C307 C 0.39434 0.20258 0.6974 0.0
C308 C 0.38097 0.22815 0.71256 0.0
C309 C 0.46024 0.15309 0.63769 0.0
C310 C 0.44294 0.1263 0.61158 0.0
C311 C 0.44373 0.17524 0.65386 0.0
C312 C 0.40974 0.17181 0.64368 0.0
C313 C 0.39226 0.1449 0.61762 0.0
C314 C 0.40859 0.12199 0.60203 0.0
H315 H 0.85695 0.35151 0.76373 0.0
H316 H 0.81002 0.32846 0.65644 0.0
H317 H 0.90987 0.39258 0.73761 0.0
H318 H 0.86296 0.36833 0.63061 0.0
H319 H 0.96722 0.42543 0.5896 0.0
H320 H 0.92525 0.37635 0.6222 0.0
H321 H 0.92352 0.45414 0.70579 0.0
H322 H 0.96566 0.50348 0.67335 0.0
C323 C 0.858 0.35482 0.73461 0.0
C324 C 0.8291 0.33673 0.71224 0.0
C325 C 0.88833 0.37821 0.71971 0.0
C326 C 0.89053 0.38357 0.68212 0.0
C327 C 0.86224 0.36425 0.65965 0.0
C328 C 0.83185 0.34125 0.67452 0.0
C329 C 0.95854 0.43206 0.61532 0.0
C330 C 0.96942 0.46861 0.62853 0.0
C331 C 0.93437 0.40389 0.6339 0.0
C332 C 0.92078 0.41155 0.66622 0.0
C333 C 0.93366 0.44741 0.68097 0.0
C334 C 0.95772 0.47571 0.66227 0.0
H335 H 0.64868 0.75105 0.60994 0.0
H336 H 0.73737 0.80918 0.54734 0.0
H337 H 0.62045 0.79445 0.59026 0.0
H338 H 0.70881 0.85277 0.52729 0.0
H339 H 0.66833 0.94932 0.56006 0.0
H340 H 0.69462 0.90131 0.56272 0.0
H341 H 0.59604 0.81891 0.5371 0.0
H342 H 0.56949 0.86702 0.53463 0.0
C343 C 0.66196 0.77284 0.59156 0.0
C344 C 0.69546 0.77721 0.58059 0.0
C345 C 0.64563 0.79749 0.58 0.0
C346 C 0.66253 0.82709 0.55741 0.0
C347 C 0.69537 0.83038 0.54499 0.0
C348 C 0.71163 0.80547 0.55636 0.0
C349 C 0.65227 0.92102 0.55468 0.0
C350 C 0.61672 0.91188 0.54776 0.0
C351 C 0.66743 0.89357 0.55579 0.0
C352 C 0.64732 0.85638 0.55029 0.0
C353 C 0.61205 0.84736 0.5418 0.0
C354 C 0.59689 0.87489 0.54042 0.0
H355 H 0.35924 0.21639 0.37789 0.0
H356 H 0.36866 0.27763 0.47791 0.0
H357 H 0.3793 0.1712 0.40924 0.0
H358 H 0.38941 0.23235 0.50933 0.0
H359 H 0.47002 0.1628 0.51983 0.0
H360 H 0.44515 0.20987 0.50105 0.0
H361 H 0.35325 0.12442 0.46221 0.0
H362 H 0.37756 0.0775 0.48096 0.0
C363 C 0.36566 0.22012 0.4066 0.0
C364 C 0.36225 0.25019 0.42557 0.0
C365 C 0.37692 0.19425 0.42452 0.0
C366 C 0.38548 0.19828 0.46167 0.0
C367 C 0.38279 0.22876 0.48068 0.0
C368 C 0.37089 0.25445 0.46277 0.0
C369 C 0.44424 0.15407 0.50795 0.0
C370 C 0.42609 0.11651 0.50104 0.0
C371 C 0.43002 0.18097 0.49742 0.0
C372 C 0.39763 0.17055 0.47972 0.0
C373 C 0.37849 0.133 0.47539 0.0
C374 C 0.3925 0.10621 0.48611 0.0
H375 H 0.80692 0.36759 0.33062 0.0
H376 H 0.74626 0.38091 0.41947 0.0
H377 H 0.85963 0.39613 0.36677 0.0
H378 H 0.79855 0.41176 0.455 0.0
H379 H 0.89243 0.43581 0.52589 0.0
H380 H 0.84227 0.40288 0.48834 0.0
H381 H 0.89897 0.44829 0.39239 0.0
H382 H 0.94988 0.47892 0.43041 0.0
C383 C 0.80504 0.37733 0.35775 0.0
C384 C 0.77266 0.37205 0.37237 0.0
C385 C 0.83524 0.39387 0.37854 0.0
C386 C 0.83378 0.40615 0.41426 0.0
C387 C 0.80109 0.40177 0.4282 0.0
C388 C 0.77097 0.38451 0.4077 0.0
C389 C 0.89424 0.43805 0.49669 0.0
C390 C 0.92502 0.45967 0.48102 0.0
C391 C 0.86528 0.41965 0.47503 0.0
C392 C 0.8659 0.42331 0.43703 0.0
C393 C 0.89725 0.44426 0.42137 0.0
C394 C 0.92657 0.46191 0.44313 0.0
H395 H 0.72614 0.82731 0.37163 0.0
H396 H 0.6269 0.74183 0.37454 0.0
H397 H 0.70167 0.87126 0.39798 0.0
H398 H 0.60273 0.78458 0.4025 0.0
H399 H 0.55667 0.87316 0.41323 0.0
H400 H 0.58512 0.8337 0.3868 0.0
H401 H 0.67823 0.89172 0.4483 0.0
H402 H 0.64991 0.93306 0.4729 0.0
C403 C 0.6992 0.81787 0.37847 0.0
C404 C 0.67827 0.78138 0.37064 0.0
C405 C 0.68515 0.84295 0.3937 0.0
C406 C 0.64993 0.83188 0.40186 0.0
C407 C 0.6296 0.79472 0.3955 0.0
C408 C 0.64347 0.76999 0.37975 0.0
C409 C 0.5834 0.87785 0.42069 0.0
C410 C 0.60104 0.90614 0.44515 0.0
C411 C 0.59968 0.85484 0.40591 0.0
C412 C 0.6339 0.85872 0.41592 0.0
C413 C 0.65197 0.88789 0.43968 0.0
C414 C 0.63578 0.91162 0.45385 0.0
H415 H 0.1988 0.73392 0.35746 0.0
H416 H 0.22419 0.63781 0.32688 0.0
H417 H 0.14541 0.6938 0.38365 0.0
H418 H 0.1714 0.59808 0.35287 0.0
H419 H 0.08791 0.60954 0.47236 0.0
H420 H 0.13035 0.65421 0.43615 0.0
H421 H 0.10948 0.57515 0.3481 0.0
H422 H 0.06761 0.52995 0.38473 0.0
C423 C 0.19288 0.70428 0.35612 0.0
C424 C 0.21568 0.68907 0.33998 0.0
C425 C 0.16232 0.68132 0.37106 0.0
C426 C 0.15401 0.6427 0.3702 0.0
C427 C 0.17649 0.62761 0.35328 0.0
C428 C 0.20689 0.65046 0.33839 0.0
C429 C 0.09178 0.60185 0.445 0.0
C430 C 0.07479 0.56587 0.43172 0.0
C431 C 0.11608 0.62762 0.42413 0.0
C432 C 0.12377 0.61805 0.38944 0.0
C433 C 0.10472 0.58309 0.37507 0.0
C434 C 0.08056 0.55724 0.396 0.0
H435 H 0.42517 0.76962 0.72374 0.0
H436 H 0.33677 0.79341 0.6792 0.0
H437 H 0.46257 0.82637 0.69998 0.0
H438 H 0.37496 0.84776 0.65041 0.0
H439 H 0.45055 0.95815 0.6172 0.0
H440 H 0.41168 0.90681 0.6508 0.0
H441 H 0.48815 0.85218 0.64993 0.0
H442 H 0.5273 0.90461 0.61989 0.0
C443 C 0.41336 0.78677 0.70898 0.0
C444 C 0.37737 0.77624 0.70392 0.0
C445 C 0.43527 0.81932 0.69422 0.0
C446 C 0.42231 0.84189 0.67225 0.0
C447 C 0.38632 0.83165 0.6673 0.0
C448 C 0.3642 0.79968 0.68333 0.0
C449 C 0.45904 0.93535 0.6251 0.0
C450 C 0.49214 0.93568 0.61668 0.0
C451 C 0.43663 0.90558 0.64395 0.0
C452 C 0.44643 0.87485 0.65364 0.0
C453 C 0.47963 0.87545 0.64454 0.0
C454 C 0.50226 0.90562 0.62694 0.0
H455 H 0.2689 0.33914 0.58316 0.0
H456 H 0.22566 0.33476 0.68902 0.0
H457 H 0.22805 0.36768 0.55888 0.0
H458 H 0.18441 0.36276 0.66455 0.0
H459 H 0.09599 0.38311 0.59396 0.0
H460 H 0.13301 0.34856 0.61603 0.0
H461 H 0.22144 0.43145 0.57193 0.0
H462 H 0.18501 0.4663 0.55096 0.0
C463 C 0.25044 0.34397 0.60113 0.0
C464 C 0.25064 0.33499 0.638 0.0
C465 C 0.22714 0.36035 0.58726 0.0
C466 C 0.20307 0.36746 0.60984 0.0
C467 C 0.20251 0.35735 0.64649 0.0
C468 C 0.22626 0.34156 0.66052 0.0
C469 C 0.12331 0.39381 0.58892 0.0
C470 C 0.13755 0.42749 0.57083 0.0
C471 C 0.14447 0.37414 0.60164 0.0
C472 C 0.18009 0.38733 0.59565 0.0
C473 C 0.19408 0.42048 0.57675 0.0
C474 C 0.17317 0.44052 0.5649 0.0
H475 H 0.67292 0.26154 0.70686 0.0
H476 H 0.74749 0.2072 0.68849 0.0
H477 H 0.63108 0.21613 0.66863 0.0
H478 H 0.70557 0.16209 0.64882 0.0
H479 H 0.60401 0.06752 0.61203 0.0
H480 H 0.64921 0.11056 0.65006 0.0
H481 H 0.62384 0.20192 0.60408 0.0
H482 H 0.57859 0.15927 0.56678 0.0
C483 C 0.6803 0.23963 0.69496 0.0
C484 C 0.71351 0.23787 0.70095 0.0
C485 C 0.65643 0.21388 0.67257 0.0
C486 C 0.66513 0.18576 0.65536 0.0
C487 C 0.6981 0.18341 0.6618 0.0
C488 C 0.72214 0.20935 0.68428 0.0
C489 C 0.6083 0.09683 0.60987 0.0
C490 C 0.58743 0.10993 0.58668 0.0
C491 C 0.63426 0.12145 0.63155 0.0
C492 C 0.63975 0.15957 0.63042 0.0
C493 C 0.61975 0.17265 0.60617 0.0
C494 C 0.59389 0.14816 0.58462 0.0
H495 H 0.81833 0.72352 0.6175 0.0
H496 H 0.76764 0.61314 0.65659 0.0
H497 H 0.86511 0.70422 0.5949 0.0
H498 H 0.81454 0.59423 0.63515 0.0
H499 H 0.8871 0.56088 0.56783 0.0
H500 H 0.84008 0.58376 0.57918 0.0
H501 H 0.91244 0.68542 0.62214 0.0
H502 H 0.95996 0.663 0.60955 0.0
C503 C 0.81712 0.69513 0.62102 0.0
C504 C 0.78955 0.66987 0.63902 0.0
C505 C 0.84395 0.68419 0.60838 0.0
C506 C 0.84347 0.64776 0.61329 0.0
C507 C 0.81547 0.62239 0.63057 0.0
C508 C 0.78881 0.63332 0.64326 0.0
C509 C 0.89316 0.58834 0.57923 0.0
C510 C 0.92729 0.61003 0.58806 0.0
C511 C 0.86613 0.60134 0.58591 0.0
C512 C 0.87254 0.63618 0.60195 0.0
C513 C 0.90675 0.65853 0.60955 0.0
C514 C 0.93391 0.64556 0.60265 0.0
H515 H 0.38497 0.39543 0.33559 0.0
H516 H 0.28119 0.36387 0.29107 0.0
H517 H 0.40732 0.42006 0.27717 0.0
H518 H 0.30361 0.38974 0.23256 0.0
H519 H 0.36616 0.39623 0.1259 0.0
H520 H 0.33721 0.37605 0.18301 0.0
H521 H 0.4092 0.47116 0.23739 0.0
H522 H 0.43857 0.49065 0.18104 0.0
C523 C 0.36694 0.39384 0.31329 0.0
C524 C 0.33136 0.37762 0.31785 0.0
C525 C 0.3797 0.40836 0.27993 0.0
C526 C 0.35718 0.40709 0.25033 0.0
C527 C 0.32155 0.39099 0.25486 0.0
C528 C 0.30874 0.37649 0.28838 0.0
C529 C 0.37541 0.41312 0.14994 0.0
C530 C 0.40493 0.44478 0.149 0.0
C531 C 0.35878 0.40163 0.18261 0.0
C532 C 0.37134 0.42171 0.21478 0.0
C533 C 0.39942 0.45465 0.21322 0.0
C534 C 0.41609 0.46597 0.18077 0.0
H535 H 0.36246 0.63496 0.85158 0.0
H536 H 0.46236 0.69031 0.80743 0.0
H537 H 0.38997 0.61327 0.90253 0.0
H538 H 0.48964 0.66847 0.8574 0.0
H539 H 0.53512 0.65403 0.96362 0.0
H540 H 0.50165 0.67798 0.92138 0.0
H541 H 0.42232 0.57085 0.91583 0.0
H542 H 0.45549 0.54701 0.95891 0.0
C543 C 0.39022 0.64246 0.85277 0.0
C544 C 0.41033 0.66442 0.82562 0.0
C545 C 0.40599 0.62998 0.88185 0.0
C546 C 0.4421 0.63947 0.88436 0.0
C547 C 0.46189 0.66129 0.85694 0.0
C548 C 0.44623 0.67357 0.82806 0.0
C549 C 0.51027 0.6357 0.95394 0.0
C550 C 0.49822 0.5985 0.96447 0.0
C551 C 0.49115 0.64937 0.92947 0.0
C552 C 0.45957 0.62617 0.91458 0.0
C553 C 0.44646 0.58954 0.9268 0.0
C554 C 0.46554 0.57587 0.95153 0.0
H555 H 0.36932 0.39732 0.76934 0.0
H556 H 0.38672 0.30079 0.81372 0.0
H557 H 0.39924 0.43348 0.82138 0.0
H558 H 0.41846 0.33777 0.8652 0.0
H559 H 0.45378 0.41154 0.96756 0.0
H560 H 0.41539 0.37276 0.92038 0.0
H561 H 0.45767 0.45827 0.84182 0.0
H562 H 0.49485 0.49668 0.88833 0.0
C563 C 0.37925 0.38362 0.79031 0.0
C564 C 0.3755 0.34597 0.78708 0.0
C565 C 0.39686 0.40457 0.82008 0.0
C566 C 0.41161 0.38872 0.84749 0.0
C567 C 0.40725 0.35088 0.8448 0.0
C568 C 0.38945 0.32978 0.81497 0.0
C569 C 0.4544 0.42212 0.94029 0.0
C570 C 0.47748 0.45721 0.9318 0.0
C571 C 0.43266 0.3998 0.91319 0.0
C572 C 0.43334 0.41233 0.87719 0.0
C573 C 0.4559 0.44777 0.86919 0.0
C574 C 0.47753 0.46981 0.89599 0.0
H575 H 0.78047 0.42375 0.86018 0.0
H576 H 0.68518 0.34426 0.81998 0.0
H577 H 0.74815 0.4603 0.88653 0.0
H578 H 0.65313 0.38022 0.84643 0.0
H579 H 0.60747 0.46921 0.8641 0.0
H580 H 0.64459 0.43962 0.83646 0.0
H581 H 0.7065 0.4563 0.93518 0.0
H582 H 0.66958 0.48651 0.96282 0.0
C583 C 0.75266 0.41404 0.8572 0.0
C584 C 0.73539 0.38125 0.83806 0.0
C585 C 0.73419 0.43487 0.87228 0.0
C586 C 0.69813 0.4233 0.86824 0.0
C587 C 0.68094 0.39025 0.8494 0.0
C588 C 0.69933 0.36945 0.8345 0.0
C589 C 0.62918 0.46691 0.87985 0.0
C590 C 0.63532 0.47977 0.91582 0.0
C591 C 0.65034 0.44979 0.86405 0.0
C592 C 0.67812 0.4451 0.88385 0.0
C593 C 0.68534 0.4596 0.91922 0.0
C594 C 0.66412 0.4768 0.93507 0.0
H595 H 0.76068 0.67842 0.76572 0.0
H596 H 0.65636 0.6514 0.72367 0.0
H597 H 0.73881 0.65324 0.82454 0.0
H598 H 0.63462 0.62763 0.78257 0.0
H599 H 0.60508 0.55125 0.87616 0.0
H600 H 0.63209 0.57445 0.81946 0.0
H601 H 0.70715 0.66526 0.87652 0.0
H602 H 0.6805 0.6413 0.93396 0.0
C603 C 0.73311 0.6672 0.76907 0.0
C604 C 0.71023 0.66678 0.74 0.0
C605 C 0.72062 0.6531 0.80282 0.0
C606 C 0.68502 0.63816 0.80811 0.0
C607 C 0.66221 0.63837 0.7792 0.0
C608 C 0.67466 0.65245 0.74556 0.0
C609 C 0.62766 0.57584 0.87688 0.0
C610 C 0.64048 0.59456 0.90964 0.0
C611 C 0.64295 0.58934 0.84423 0.0
C612 C 0.67133 0.62208 0.84341 0.0
C613 C 0.68531 0.63992 0.8763 0.0
C614 C 0.67002 0.62624 0.90918 0.0
H615 H 0.61655 0.68225 0.29115 0.0
H616 H 0.71223 0.69426 0.2389 0.0
H617 H 0.58466 0.64568 0.23991 0.0
H618 H 0.68006 0.65677 0.18767 0.0
H619 H 0.60122 0.61288 0.08856 0.0
H620 H 0.6364 0.6551 0.13564 0.0
H621 H 0.57896 0.58258 0.21831 0.0
H622 H 0.54438 0.54095 0.17221 0.0
C623 C 0.63081 0.6775 0.26853 0.0
C624 C 0.66698 0.69113 0.26925 0.0
C625 C 0.61252 0.65624 0.23927 0.0
C626 C 0.62986 0.64808 0.20985 0.0
C627 C 0.66599 0.66271 0.20987 0.0
C628 C 0.68437 0.68384 0.23936 0.0
C629 C 0.59632 0.60598 0.11679 0.0
C630 C 0.56976 0.57365 0.12648 0.0
C631 C 0.61645 0.63007 0.14371 0.0
C632 C 0.61008 0.62241 0.18069 0.0
C633 C 0.58408 0.58971 0.19013 0.0
C634 C 0.56434 0.56569 0.16352 0.0
H635 H 0.30608 0.65301 0.21092 0.0
H636 H 0.40935 0.72953 0.22747 0.0
H637 H 0.32904 0.60938 0.18167 0.0
H638 H 0.43227 0.68593 0.19829 0.0
H639 H 0.46158 0.58261 0.18967 0.0
H640 H 0.43457 0.62347 0.21625 0.0
H641 H 0.36237 0.60301 0.12556 0.0
H642 H 0.3896 0.56177 0.09851 0.0
C643 C 0.33366 0.66062 0.20807 0.0
C644 C 0.35605 0.69458 0.22167 0.0
C645 C 0.34674 0.63569 0.19121 0.0
C646 C 0.38242 0.64412 0.18806 0.0
C647 C 0.40466 0.67849 0.20083 0.0
C648 C 0.39158 0.70352 0.21731 0.0
C649 C 0.43978 0.58646 0.17538 0.0
C650 C 0.42795 0.56916 0.14174 0.0
C651 C 0.42446 0.61011 0.19058 0.0
C652 C 0.39677 0.61689 0.17268 0.0
C653 C 0.38376 0.59829 0.13988 0.0
C654 C 0.39932 0.57471 0.12444 0.0
H655 H 0.67347 0.41317 0.23417 0.0
H656 H 0.62791 0.30617 0.18342 0.0
H657 H 0.64101 0.43902 0.19184 0.0
H658 H 0.59597 0.33193 0.14085 0.0
H659 H 0.51122 0.37927 0.1064 0.0
H660 H 0.54785 0.35455 0.14346 0.0
H661 H 0.63404 0.45427 0.12771 0.0
H662 H 0.59712 0.47941 0.0908 0.0
C663 C 0.65682 0.39527 0.21374 0.0
C664 C 0.6531 0.35757 0.21218 0.0
C665 C 0.63834 0.41011 0.18934 0.0
C666 C 0.61568 0.38753 0.16299 0.0
C667 C 0.61273 0.35003 0.16107 0.0
C668 C 0.63118 0.33529 0.18535 0.0
C669 C 0.53807 0.39586 0.11042 0.0
C670 C 0.55113 0.43137 0.09548 0.0
C671 C 0.55917 0.38157 0.13163 0.0
C672 C 0.59395 0.4024 0.1387 0.0
C673 C 0.60729 0.43762 0.12314 0.0
C674 C 0.58618 0.45188 0.10164 0.0
loop_
_geom_bond_atom_site_label_1
_geom_bond_atom_site_label_2
_geom_bond_distance
_geom_bond_site_symmetry_2
_ccdc_geom_bond_type
H0 C5 0.930 . S
H1 C8 0.930 . S
H2 C10 0.930 . S
H3 C4 1.016 . S
C4 H3 1.016 . S
C4 N11 1.286 . S
C5 H0 0.930 . S
C5 C6 1.397 . S
C5 C7 1.361 . S
C6 C5 1.397 . S
C6 C10 1.390 . S
C7 C5 1.361 . S
C7 C8 1.393 . S
C7 N11 1.413 . S
C8 H1 0.930 . S
C8 C7 1.393 . S
C8 C9 1.399 . S
C9 C8 1.399 . S
C9 C10 1.381 . S
C10 H2 0.930 . S
C10 C6 1.390 . S
C10 C9 1.381 . S
N11 C4 1.286 . S
N11 C7 1.413 . S
H12 C17 0.930 . S
H13 C20 0.930 . S
H14 C22 0.930 . S
H15 C16 1.016 . S
C16 H15 1.016 . S
C16 N23 1.286 . S
C17 H12 0.930 . S
C17 C18 1.397 . S
C17 C19 1.361 . S
C18 C17 1.397 . S
C18 C22 1.390 . S
C19 C17 1.361 . S
C19 C20 1.393 . S
C19 N23 1.413 . S
C20 H13 0.930 . S
C20 C19 1.393 . S
C20 C21 1.399 . S
C21 C20 1.399 . S
C21 C22 1.381 . S
C22 H14 0.930 . S
C22 C18 1.390 . S
C22 C21 1.381 . S
N23 C16 1.286 . S
N23 C19 1.413 . S
H24 C29 0.930 . S
H25 C32 0.930 . S
H26 C34 0.930 . S
H27 C28 1.016 . S
C28 H27 1.016 . S
C28 N35 1.286 . S
C29 H24 0.930 . S
C29 C30 1.397 . S
C29 C31 1.361 . S
C30 C29 1.397 . S
C30 C34 1.390 . S
C31 C29 1.361 . S
C31 C32 1.393 . S
C31 N35 1.413 . S
C32 H25 0.930 . S
C32 C31 1.393 . S
C32 C33 1.399 . S
C33 C32 1.399 . S
C33 C34 1.381 . S
C34 H26 0.930 . S
C34 C30 1.390 . S
C34 C33 1.381 . S
N35 C28 1.286 . S
N35 C31 1.413 . S
H36 C41 0.930 . S
H37 C44 0.930 . S
H38 C46 0.930 . S
H39 C40 1.016 . S
C40 H39 1.016 . S
C40 N47 1.286 . S
C41 H36 0.930 . S
C41 C42 1.397 . S
C41 C43 1.361 . S
C42 C41 1.397 . S
C42 C46 1.390 . S
C43 C41 1.361 . S
C43 C44 1.393 . S
C43 N47 1.413 . S
C44 H37 0.930 . S
C44 C43 1.393 . S
C44 C45 1.399 . S
C45 C44 1.399 . S
C45 C46 1.381 . S
C46 H38 0.930 . S
C46 C42 1.390 . S
C46 C45 1.381 . S
N47 C40 1.286 . S
N47 C43 1.413 . S
H48 C53 0.930 . S
H49 C56 0.930 . S
H50 C58 0.930 . S
H51 C52 1.016 . S
C52 H51 1.016 . S
C52 N59 1.286 . S
C53 H48 0.930 . S
C53 C54 1.397 . S
C53 C55 1.361 . S
C54 C53 1.397 . S
C54 C58 1.390 . S
C55 C53 1.361 . S
C55 C56 1.393 . S
C55 N59 1.413 . S
C56 H49 0.930 . S
C56 C55 1.393 . S
C56 C57 1.399 . S
C57 C56 1.399 . S
C57 C58 1.381 . S
C58 H50 0.930 . S
C58 C54 1.390 . S
C58 C57 1.381 . S
N59 C52 1.286 . S
N59 C55 1.413 . S
H60 C65 0.930 . S
H61 C68 0.930 . S
H62 C70 0.930 . S
H63 C64 1.016 . S
C64 H63 1.016 . S
C64 N71 1.286 . S
C65 H60 0.930 . S
C65 C66 1.397 . S
C65 C67 1.361 . S
C66 C65 1.397 . S
C66 C70 1.390 . S
C67 C65 1.361 . S
C67 C68 1.393 . S
C67 N71 1.413 . S
C68 H61 0.930 . S
C68 C67 1.393 . S
C68 C69 1.399 . S
C69 C68 1.399 . S
C69 C70 1.381 . S
C70 H62 0.930 . S
C70 C66 1.390 . S
C70 C69 1.381 . S
N71 C64 1.286 . S
N71 C67 1.413 . S
H72 C77 0.930 . S
H73 C80 0.930 . S
H74 C82 0.930 . S
H75 C76 1.016 . S
C76 H75 1.016 . S
C76 N83 1.286 . S
C77 H72 0.930 . S
C77 C78 1.397 . S
C77 C79 1.361 . S
C78 C77 1.397 . S
C78 C82 1.390 . S
C79 C77 1.361 . S
C79 C80 1.393 . S
C79 N83 1.413 . S
C80 H73 0.930 . S
C80 C79 1.393 . S
C80 C81 1.399 . S
C81 C80 1.399 . S
C81 C82 1.381 . S
C82 H74 0.930 . S
C82 C78 1.390 . S
C82 C81 1.381 . S
N83 C76 1.286 . S
N83 C79 1.413 . S
H84 C89 0.930 . S
H85 C92 0.930 . S
H86 C94 0.930 . S
H87 C88 1.016 . S
C88 H87 1.016 . S
C88 N95 1.286 . S
C89 H84 0.930 . S
C89 C90 1.397 . S
C89 C91 1.361 . S
C90 C89 1.397 . S
C90 C94 1.390 . S
C91 C89 1.361 . S
C91 C92 1.393 . S
C91 N95 1.413 . S
C92 H85 0.930 . S
C92 C91 1.393 . S
C92 C93 1.399 . S
C93 C92 1.399 . S
C93 C94 1.381 . S
C94 H86 0.930 . S
C94 C90 1.390 . S
C94 C93 1.381 . S
N95 C88 1.286 . S
N95 C91 1.413 . S
Co96 O99 2.042 . S
Co96 O106 2.264 . S
Co96 O125 2.286 . S
Co96 O126 2.069 . S
Co96 O128 2.015 . S
Co97 O99 2.122 . S
Co97 O105 2.073 . S
Co97 O106 2.327 . S
Co97 O107 1.976 . S
Co98 O99 2.087 . S
Co98 O101 2.087 1_455 S
Co98 O108 2.111 . S
Co98 O109 2.143 1_455 S
Co98 O113 2.111 1_455 S
Co98 O127 2.143 . S
O99 Co96 2.042 . S
O99 Co97 2.122 . S
O99 Co98 2.087 . S
O99 H100 0.980 . S
H100 O99 0.980 . S
O101 Co98 2.087 1_655 S
O101 Co102 2.042 . S
O101 Co103 2.122 . S
O101 H104 0.980 1_655 S
Co102 O101 2.042 . S
Co102 O110 2.286 . S
Co102 O111 2.069 . S
Co102 O112 2.015 . S
Co102 O115 2.264 . S
Co103 O101 2.122 . S
Co103 O114 1.976 . S
Co103 O115 2.327 . S
Co103 O116 2.073 . S
H104 O101 0.980 1_455 S
O105 Co97 2.073 . S
O105 C120 1.245 . S
O106 Co96 2.264 . S
O106 Co97 2.327 . S
O106 C120 1.257 . S
O107 Co97 1.976 . S
O107 C119 1.251 . S
O108 Co98 2.111 . S
O108 C119 1.274 . S
O109 Co98 2.143 1_655 S
O109 C122 1.246 . S
O110 Co102 2.286 . S
O110 C121 1.259 . S
O111 Co102 2.069 . S
O111 C121 1.289 . S
O112 Co102 2.015 . S
O112 C122 1.257 . S
O113 Co98 2.111 1_655 S
O113 C123 1.274 . S
O114 Co103 1.976 . S
O114 C123 1.251 . S
O115 Co102 2.264 . S
O115 Co103 2.327 . S
O115 C124 1.257 . S
O116 Co103 2.073 . S
O116 C124 1.245 . S
C117 O125 1.259 . S
C117 O126 1.289 . S
C118 O127 1.246 . S
C118 O128 1.257 . S
C119 O107 1.251 . S
C119 O108 1.274 . S
C120 O105 1.245 . S
C120 O106 1.257 . S
C121 O110 1.259 . S
C121 O111 1.289 . S
C122 O109 1.246 . S
C122 O112 1.257 . S
C123 O113 1.274 . S
C123 O114 1.251 . S
C124 O115 1.257 . S
C124 O116 1.245 . S
O125 Co96 2.286 . S
O125 C117 1.259 . S
O126 Co96 2.069 . S
O126 C117 1.289 . S
O127 Co98 2.143 . S
O127 C118 1.246 . S
O128 Co96 2.015 . S
O128 C118 1.257 . S
Co129 O132 2.042 . S
Co129 O139 2.264 . S
Co129 O158 2.286 . S
Co129 O159 2.069 . S
Co129 O161 2.015 . S
Co130 O132 2.122 . S
Co130 O138 2.073 . S
Co130 O139 2.327 . S
Co130 O140 1.976 . S
Co131 O132 2.087 1_545 S
Co131 O134 2.087 . S
Co131 O141 2.111 1_545 S
Co131 O142 2.143 . S
Co131 O146 2.111 . S
Co131 O160 2.143 1_545 S
O132 Co129 2.042 . S
O132 Co130 2.122 . S
O132 Co131 2.087 1_565 S
O132 H133 0.983 . S
H133 O132 0.983 . S
O134 Co131 2.087 . S
O134 Co135 2.042 . S
O134 Co136 2.122 . S
O134 H137 0.980 . S
Co135 O134 2.042 . S
Co135 O143 2.286 . S
Co135 O144 2.069 . S
Co135 O145 2.015 . S
Co135 O148 2.264 . S
Co136 O134 2.122 . S
Co136 O147 1.976 . S
Co136 O148 2.327 . S
Co136 O149 2.073 . S
H137 O134 0.980 . S
O138 Co130 2.073 . S
O138 C153 1.245 . S
O139 Co129 2.264 . S
O139 Co130 2.327 . S
O139 C153 1.257 . S
O140 Co130 1.976 . S
O140 C152 1.251 . S
O141 Co131 2.111 1_565 S
O141 C152 1.274 . S
O142 Co131 2.143 . S
O142 C155 1.246 . S
O143 Co135 2.286 . S
O143 C154 1.259 . S
O144 Co135 2.069 . S
O144 C154 1.289 . S
O145 Co135 2.015 . S
O145 C155 1.257 . S
O146 Co131 2.111 . S
O146 C156 1.274 . S
O147 Co136 1.976 . S
O147 C156 1.251 . S
O148 Co135 2.264 . S
O148 Co136 2.327 . S
O148 C157 1.257 . S
O149 Co136 2.073 . S
O149 C157 1.245 . S
C150 O158 1.259 . S
C150 O159 1.289 . S
C151 O160 1.246 . S
C151 O161 1.257 . S
C152 O140 1.251 . S
C152 O141 1.274 . S
C153 O138 1.245 . S
C153 O139 1.257 . S
C154 O143 1.259 . S
C154 O144 1.289 . S
C155 O142 1.246 . S
C155 O145 1.257 . S
C156 O146 1.274 . S
C156 O147 1.251 . S
C157 O148 1.257 . S
C157 O149 1.245 . S
O158 Co129 2.286 . S
O158 C150 1.259 . S
O159 Co129 2.069 . S
O159 C150 1.289 . S
O160 Co131 2.143 1_565 S
O160 C151 1.246 . S
O161 Co129 2.015 . S
O161 C151 1.257 . S
Co162 O165 2.042 . S
Co162 O172 2.264 . S
Co162 O191 2.286 . S
Co162 O192 2.069 . S
Co162 O194 2.015 . S
Co163 O165 2.122 . S
Co163 O171 2.073 . S
Co163 O172 2.327 . S
Co163 O173 1.976 . S
Co164 O165 2.087 . S
Co164 O167 2.087 1_554 S
Co164 O174 2.111 . S
Co164 O175 2.143 1_554 S
Co164 O179 2.111 1_554 S
Co164 O193 2.143 . S
O165 Co162 2.042 . S
O165 Co163 2.122 . S
O165 Co164 2.087 . S
O165 H166 0.980 . S
H166 O165 0.980 . S
O167 Co164 2.087 1_556 S
O167 Co168 2.042 . S
O167 Co169 2.122 . S
O167 H170 0.980 . S
Co168 O167 2.042 . S
Co168 O176 2.286 . S
Co168 O177 2.069 . S
Co168 O178 2.015 . S
Co168 O181 2.264 . S
Co169 O167 2.122 . S
Co169 O180 1.976 . S
Co169 O181 2.327 . S
Co169 O182 2.073 . S
H170 O167 0.980 . S
O171 Co163 2.073 . S
O171 C186 1.245 . S
O172 Co162 2.264 . S
O172 Co163 2.327 . S
O172 C186 1.257 . S
O173 Co163 1.976 . S
O173 C185 1.251 . S
O174 Co164 2.111 . S
O174 C185 1.274 . S
O175 Co164 2.143 1_556 S
O175 C188 1.246 . S
O176 Co168 2.286 . S
O176 C187 1.259 . S
O177 Co168 2.069 . S
O177 C187 1.289 . S
O178 Co168 2.015 . S
O178 C188 1.257 . S
O179 Co164 2.111 1_556 S
O179 C189 1.274 . S
O180 Co169 1.976 . S
O180 C189 1.251 . S
O181 Co168 2.264 . S
O181 Co169 2.327 . S
O181 C190 1.257 . S
O182 Co169 2.073 . S
O182 C190 1.245 . S
C183 O191 1.259 . S
C183 O192 1.289 . S
C184 O193 1.246 . S
C184 O194 1.257 . S
C185 O173 1.251 . S
C185 O174 1.274 . S
C186 O171 1.245 . S
C186 O172 1.257 . S
C187 O176 1.259 . S
C187 O177 1.289 . S
C188 O175 1.246 . S
C188 O178 1.257 . S
C189 O179 1.274 . S
C189 O180 1.251 . S
C190 O181 1.257 . S
C190 O182 1.245 . S
O191 Co162 2.286 . S
O191 C183 1.259 . S
O192 Co162 2.069 . S
O192 C183 1.289 . S
O193 Co164 2.143 . S
O193 C184 1.246 . S
O194 Co162 2.015 . S
O194 C184 1.257 . S
H195 C203 0.950 . S
H196 C208 0.950 . S
H197 C205 0.950 . S
H198 C207 0.950 . S
H199 C209 0.950 . S
H200 C211 0.950 . S
H201 C213 0.950 . S
H202 C214 0.950 . S
C203 H195 0.950 . S
C203 C204 1.386 . S
C203 C205 1.391 . S
C204 C203 1.386 . S
C204 C208 1.393 . S
C205 H197 0.950 . S
C205 C203 1.391 . S
C205 C206 1.400 . S
C206 C205 1.400 . S
C206 C207 1.398 . S
C206 C212 1.491 . S
C207 H198 0.950 . S
C207 C206 1.398 . S
C207 C208 1.391 . S
C208 H196 0.950 . S
C208 C204 1.393 . S
C208 C207 1.391 . S
C209 H199 0.950 . S
C209 C210 1.386 . S
C209 C211 1.391 . S
C210 C209 1.386 . S
C210 C214 1.393 . S
C211 H200 0.950 . S
C211 C209 1.391 . S
C211 C212 1.400 . S
C212 C206 1.491 . S
C212 C211 1.400 . S
C212 C213 1.398 . S
C213 H201 0.950 . S
C213 C212 1.398 . S
C213 C214 1.391 . S
C214 H202 0.950 . S
C214 C210 1.393 . S
C214 C213 1.391 . S
H215 C223 0.950 . S
H216 C228 0.950 . S
H217 C225 0.950 . S
H218 C227 0.950 . S
H219 C229 0.950 . S
H220 C231 0.950 . S
H221 C233 0.950 . S
H222 C234 0.950 . S
C223 H215 0.950 . S
C223 C224 1.386 . S
C223 C225 1.391 . S
C224 C223 1.386 . S
C224 C228 1.393 . S
C225 H217 0.950 . S
C225 C223 1.391 . S
C225 C226 1.400 . S
C226 C225 1.400 . S
C226 C227 1.398 . S
C226 C232 1.491 . S
C227 H218 0.950 . S
C227 C226 1.398 . S
C227 C228 1.391 . S
C228 H216 0.950 . S
C228 C224 1.393 . S
C228 C227 1.391 . S
C229 H219 0.950 . S
C229 C230 1.386 . S
C229 C231 1.391 . S
C230 C229 1.386 . S
C230 C234 1.393 . S
C231 H220 0.950 . S
C231 C229 1.391 . S
C231 C232 1.400 . S
C232 C226 1.491 . S
C232 C231 1.400 . S
C232 C233 1.398 . S
C233 H221 0.950 . S
C233 C232 1.398 . S
C233 C234 1.391 . S
C234 H222 0.950 . S
C234 C230 1.393 . S
C234 C233 1.391 . S
H235 C243 0.950 . S
H236 C248 0.950 . S
H237 C245 0.950 . S
H238 C247 0.950 . S
H239 C249 0.950 . S
H240 C251 0.950 . S
H241 C253 0.950 . S
H242 C254 0.950 . S
C243 H235 0.950 . S
C243 C244 1.386 . S
C243 C245 1.391 . S
C244 C243 1.386 . S
C244 C248 1.393 . S
C245 H237 0.950 . S
C245 C243 1.391 . S
C245 C246 1.400 . S
C246 C245 1.400 . S
C246 C247 1.398 . S
C246 C252 1.491 . S
C247 H238 0.950 . S
C247 C246 1.398 . S
C247 C248 1.391 . S
C248 H236 0.950 . S
C248 C244 1.393 . S
C248 C247 1.391 . S
C249 H239 0.950 . S
C249 C250 1.386 . S
C249 C251 1.391 . S
C250 C249 1.386 . S
C250 C254 1.393 . S
C251 H240 0.950 . S
C251 C249 1.391 . S
C251 C252 1.400 . S
C252 C246 1.491 . S
C252 C251 1.400 . S
C252 C253 1.398 . S
C253 H241 0.950 . S
C253 C252 1.398 . S
C253 C254 1.391 . S
C254 H242 0.950 . S
C254 C250 1.393 . S
C254 C253 1.391 . S
H255 C263 0.950 . S
H256 C268 0.950 . S
H257 C265 0.950 . S
H258 C267 0.950 . S
H259 C269 0.950 . S
H260 C271 0.950 . S
H261 C273 0.950 . S
H262 C274 0.950 . S
C263 H255 0.950 . S
C263 C264 1.386 . S
C263 C265 1.391 . S
C264 C263 1.386 . S
C264 C268 1.393 . S
C265 H257 0.950 . S
C265 C263 1.391 . S
C265 C266 1.400 . S
C266 C265 1.400 . S
C266 C267 1.398 . S
C266 C272 1.491 . S
C267 H258 0.950 . S
C267 C266 1.398 . S
C267 C268 1.391 . S
C268 H256 0.950 . S
C268 C264 1.393 . S
C268 C267 1.391 . S
C269 H259 0.950 . S
C269 C270 1.386 . S
C269 C271 1.391 . S
C270 C269 1.386 . S
C270 C274 1.393 . S
C271 H260 0.950 . S
C271 C269 1.391 . S
C271 C272 1.400 . S
C272 C266 1.491 . S
C272 C271 1.400 . S
C272 C273 1.398 . S
C273 H261 0.950 . S
C273 C272 1.398 . S
C273 C274 1.391 . S
C274 H262 0.950 . S
C274 C270 1.393 . S
C274 C273 1.391 . S
H275 C283 0.950 . S
H276 C288 0.950 . S
H277 C285 0.950 . S
H278 C287 0.950 . S
H279 C289 0.950 . S
H280 C291 0.950 . S
H281 C293 0.950 . S
H282 C294 0.950 . S
C283 H275 0.950 . S
C283 C284 1.386 . S
C283 C285 1.391 . S
C284 C283 1.386 . S
C284 C288 1.393 . S
C285 H277 0.950 . S
C285 C283 1.391 . S
C285 C286 1.400 . S
C286 C285 1.400 . S
C286 C287 1.398 . S
C286 C292 1.491 . S
C287 H278 0.950 . S
C287 C286 1.398 . S
C287 C288 1.391 . S
C288 H276 0.950 . S
C288 C284 1.393 . S
C288 C287 1.391 . S
C289 H279 0.950 . S
C289 C290 1.386 . S
C289 C291 1.391 . S
C290 C289 1.386 . S
C290 C294 1.393 . S
C291 H280 0.950 . S
C291 C289 1.391 . S
C291 C292 1.400 . S
C292 C286 1.491 . S
C292 C291 1.400 . S
C292 C293 1.398 . S
C293 H281 0.950 . S
C293 C292 1.398 . S
C293 C294 1.391 . S
C294 H282 0.950 . S
C294 C290 1.393 . S
C294 C293 1.391 . S
H295 C303 0.950 . S
H296 C308 0.950 . S
H297 C305 0.950 . S
H298 C307 0.950 . S
H299 C309 0.950 . S
H300 C311 0.950 . S
H301 C313 0.950 . S
H302 C314 0.950 . S
C303 H295 0.950 . S
C303 C304 1.386 . S
C303 C305 1.391 . S
C304 C303 1.386 . S
C304 C308 1.393 . S
C305 H297 0.950 . S
C305 C303 1.391 . S
C305 C306 1.400 . S
C306 C305 1.400 . S
C306 C307 1.398 . S
C306 C312 1.491 . S
C307 H298 0.950 . S
C307 C306 1.398 . S
C307 C308 1.391 . S
C308 H296 0.950 . S
C308 C304 1.393 . S
C308 C307 1.391 . S
C309 H299 0.950 . S
C309 C310 1.386 . S
C309 C311 1.391 . S
C310 C309 1.386 . S
C310 C314 1.393 . S
C311 H300 0.950 . S
C311 C309 1.391 . S
C311 C312 1.400 . S
C312 C306 1.491 . S
C312 C311 1.400 . S
C312 C313 1.398 . S
C313 H301 0.950 . S
C313 C312 1.398 . S
C313 C314 1.391 . S
C314 H302 0.950 . S
C314 C310 1.393 . S
C314 C313 1.391 . S
H315 C323 0.950 . S
H316 C328 0.950 . S
H317 C325 0.950 . S
H318 C327 0.950 . S
H319 C329 0.950 . S
H320 C331 0.950 . S
H321 C333 0.950 . S
H322 C334 0.950 . S
C323 H315 0.950 . S
C323 C324 1.386 . S
C323 C325 1.391 . S
C324 C323 1.386 . S
C324 C328 1.393 . S
C325 H317 0.950 . S
C325 C323 1.391 . S
C325 C326 1.400 . S
C326 C325 1.400 . S
C326 C327 1.398 . S
C326 C332 1.491 . S
C327 H318 0.950 . S
C327 C326 1.398 . S
C327 C328 1.391 . S
C328 H316 0.950 . S
C328 C324 1.393 . S
C328 C327 1.391 . S
C329 H319 0.950 . S
C329 C330 1.386 . S
C329 C331 1.391 . S
C330 C329 1.386 . S
C330 C334 1.393 . S
C331 H320 0.950 . S
C331 C329 1.391 . S
C331 C332 1.400 . S
C332 C326 1.491 . S
C332 C331 1.400 . S
C332 C333 1.398 . S
C333 H321 0.950 . S
C333 C332 1.398 . S
C333 C334 1.391 . S
C334 H322 0.950 . S
C334 C330 1.393 . S
C334 C333 1.391 . S
H335 C343 0.950 . S
H336 C348 0.950 . S
H337 C345 0.950 . S
H338 C347 0.950 . S
H339 C349 0.950 . S
H340 C351 0.950 . S
H341 C353 0.950 . S
H342 C354 0.950 . S
C343 H335 0.950 . S
C343 C344 1.386 . S
C343 C345 1.391 . S
C344 C343 1.386 . S
C344 C348 1.393 . S
C345 H337 0.950 . S
C345 C343 1.391 . S
C345 C346 1.400 . S
C346 C345 1.400 . S
C346 C347 1.398 . S
C346 C352 1.491 . S
C347 H338 0.950 . S
C347 C346 1.398 . S
C347 C348 1.391 . S
C348 H336 0.950 . S
C348 C344 1.393 . S
C348 C347 1.391 . S
C349 H339 0.950 . S
C349 C350 1.386 . S
C349 C351 1.391 . S
C350 C349 1.386 . S
C350 C354 1.393 . S
C351 H340 0.950 . S
C351 C349 1.391 . S
C351 C352 1.400 . S
C352 C346 1.491 . S
C352 C351 1.400 . S
C352 C353 1.398 . S
C353 H341 0.950 . S
C353 C352 1.398 . S
C353 C354 1.391 . S
C354 H342 0.950 . S
C354 C350 1.393 . S
C354 C353 1.391 . S
H355 C363 0.950 . S
H356 C368 0.950 . S
H357 C365 0.950 . S
H358 C367 0.950 . S
H359 C369 0.950 . S
H360 C371 0.950 . S
H361 C373 0.950 . S
H362 C374 0.950 . S
C363 H355 0.950 . S
C363 C364 1.386 . S
C363 C365 1.391 . S
C364 C363 1.386 . S
C364 C368 1.393 . S
C365 H357 0.950 . S
C365 C363 1.391 . S
C365 C366 1.400 . S
C366 C365 1.400 . S
C366 C367 1.398 . S
C366 C372 1.491 . S
C367 H358 0.950 . S
C367 C366 1.398 . S
C367 C368 1.391 . S
C368 H356 0.950 . S
C368 C364 1.393 . S
C368 C367 1.391 . S
C369 H359 0.950 . S
C369 C370 1.386 . S
C369 C371 1.391 . S
C370 C369 1.386 . S
C370 C374 1.393 . S
C371 H360 0.950 . S
C371 C369 1.391 . S
C371 C372 1.400 . S
C372 C366 1.491 . S
C372 C371 1.400 . S
C372 C373 1.398 . S
C373 H361 0.950 . S
C373 C372 1.398 . S
C373 C374 1.391 . S
C374 H362 0.950 . S
C374 C370 1.393 . S
C374 C373 1.391 . S
H375 C383 0.950 . S
H376 C388 0.950 . S
H377 C385 0.950 . S
H378 C387 0.950 . S
H379 C389 0.950 . S
H380 C391 0.950 . S
H381 C393 0.950 . S
H382 C394 0.950 . S
C383 H375 0.950 . S
C383 C384 1.386 . S
C383 C385 1.391 . S
C384 C383 1.386 . S
C384 C388 1.393 . S
C385 H377 0.950 . S
C385 C383 1.391 . S
C385 C386 1.400 . S
C386 C385 1.400 . S
C386 C387 1.398 . S
C386 C392 1.491 . S
C387 H378 0.950 . S
C387 C386 1.398 . S
C387 C388 1.391 . S
C388 H376 0.950 . S
C388 C384 1.393 . S
C388 C387 1.391 . S
C389 H379 0.950 . S
C389 C390 1.386 . S
C389 C391 1.391 . S
C390 C389 1.386 . S
C390 C394 1.393 . S
C391 H380 0.950 . S
C391 C389 1.391 . S
C391 C392 1.400 . S
C392 C386 1.491 . S
C392 C391 1.400 . S
C392 C393 1.398 . S
C393 H381 0.950 . S
C393 C392 1.398 . S
C393 C394 1.391 . S
C394 H382 0.950 . S
C394 C390 1.393 . S
C394 C393 1.391 . S
H395 C403 0.950 . S
H396 C408 0.950 . S
H397 C405 0.950 . S
H398 C407 0.950 . S
H399 C409 0.950 . S
H400 C411 0.950 . S
H401 C413 0.950 . S
H402 C414 0.950 . S
C403 H395 0.950 . S
C403 C404 1.386 . S
C403 C405 1.391 . S
C404 C403 1.386 . S
C404 C408 1.393 . S
C405 H397 0.950 . S
C405 C403 1.391 . S
C405 C406 1.400 . S
C406 C405 1.400 . S
C406 C407 1.398 . S
C406 C412 1.491 . S
C407 H398 0.950 . S
C407 C406 1.398 . S
C407 C408 1.391 . S
C408 H396 0.950 . S
C408 C404 1.393 . S
C408 C407 1.391 . S
C409 H399 0.950 . S
C409 C410 1.386 . S
C409 C411 1.391 . S
C410 C409 1.386 . S
C410 C414 1.393 . S
C411 H400 0.950 . S
C411 C409 1.391 . S
C411 C412 1.400 . S
C412 C406 1.491 . S
C412 C411 1.400 . S
C412 C413 1.398 . S
C413 H401 0.950 . S
C413 C412 1.398 . S
C413 C414 1.391 . S
C414 H402 0.950 . S
C414 C410 1.393 . S
C414 C413 1.391 . S
H415 C423 0.950 . S
H416 C428 0.950 . S
H417 C425 0.950 . S
H418 C427 0.950 . S
H419 C429 0.950 . S
H420 C431 0.950 . S
H421 C433 0.950 . S
H422 C434 0.950 . S
C423 H415 0.950 . S
C423 C424 1.386 . S
C423 C425 1.391 . S
C424 C423 1.386 . S
C424 C428 1.393 . S
C425 H417 0.950 . S
C425 C423 1.391 . S
C425 C426 1.400 . S
C426 C425 1.400 . S
C426 C427 1.398 . S
C426 C432 1.491 . S
C427 H418 0.950 . S
C427 C426 1.398 . S
C427 C428 1.391 . S
C428 H416 0.950 . S
C428 C424 1.393 . S
C428 C427 1.391 . S
C429 H419 0.950 . S
C429 C430 1.386 . S
C429 C431 1.391 . S
C430 C429 1.386 . S
C430 C434 1.393 . S
C431 H420 0.950 . S
C431 C429 1.391 . S
C431 C432 1.400 . S
C432 C426 1.491 . S
C432 C431 1.400 . S
C432 C433 1.398 . S
C433 H421 0.950 . S
C433 C432 1.398 . S
C433 C434 1.391 . S
C434 H422 0.950 . S
C434 C430 1.393 . S
C434 C433 1.391 . S
H435 C443 0.950 . S
H436 C448 0.950 . S
H437 C445 0.950 . S
H438 C447 0.950 . S
H439 C449 0.950 . S
H440 C451 0.950 . S
H441 C453 0.950 . S
H442 C454 0.950 . S
C443 H435 0.950 . S
C443 C444 1.386 . S
C443 C445 1.391 . S
C444 C443 1.386 . S
C444 C448 1.393 . S
C445 H437 0.950 . S
C445 C443 1.391 . S
C445 C446 1.400 . S
C446 C445 1.400 . S
C446 C447 1.398 . S
C446 C452 1.491 . S
C447 H438 0.950 . S
C447 C446 1.398 . S
C447 C448 1.391 . S
C448 H436 0.950 . S
C448 C444 1.393 . S
C448 C447 1.391 . S
C449 H439 0.950 . S
C449 C450 1.386 . S
C449 C451 1.391 . S
C450 C449 1.386 . S
C450 C454 1.393 . S
C451 H440 0.950 . S
C451 C449 1.391 . S
C451 C452 1.400 . S
C452 C446 1.491 . S
C452 C451 1.400 . S
C452 C453 1.398 . S
C453 H441 0.950 . S
C453 C452 1.398 . S
C453 C454 1.391 . S
C454 H442 0.950 . S
C454 C450 1.393 . S
C454 C453 1.391 . S
H455 C463 0.950 . S
H456 C468 0.950 . S
H457 C465 0.950 . S
H458 C467 0.950 . S
H459 C469 0.950 . S
H460 C471 0.950 . S
H461 C473 0.950 . S
H462 C474 0.950 . S
C463 H455 0.950 . S
C463 C464 1.386 . S
C463 C465 1.391 . S
C464 C463 1.386 . S
C464 C468 1.393 . S
C465 H457 0.950 . S
C465 C463 1.391 . S
C465 C466 1.400 . S
C466 C465 1.400 . S
C466 C467 1.398 . S
C466 C472 1.491 . S
C467 H458 0.950 . S
C467 C466 1.398 . S
C467 C468 1.391 . S
C468 H456 0.950 . S
C468 C464 1.393 . S
C468 C467 1.391 . S
C469 H459 0.950 . S
C469 C470 1.386 . S
C469 C471 1.391 . S
C470 C469 1.386 . S
C470 C474 1.393 . S
C471 H460 0.950 . S
C471 C469 1.391 . S
C471 C472 1.400 . S
C472 C466 1.491 . S
C472 C471 1.400 . S
C472 C473 1.398 . S
C473 H461 0.950 . S
C473 C472 1.398 . S
C473 C474 1.391 . S
C474 H462 0.950 . S
C474 C470 1.393 . S
C474 C473 1.391 . S
H475 C483 0.950 . S
H476 C488 0.950 . S
H477 C485 0.950 . S
H478 C487 0.950 . S
H479 C489 0.950 . S
H480 C491 0.950 . S
H481 C493 0.950 . S
H482 C494 0.950 . S
C483 H475 0.950 . S
C483 C484 1.386 . S
C483 C485 1.391 . S
C484 C483 1.386 . S
C484 C488 1.393 . S
C485 H477 0.950 . S
C485 C483 1.391 . S
C485 C486 1.400 . S
C486 C485 1.400 . S
C486 C487 1.398 . S
C486 C492 1.491 . S
C487 H478 0.950 . S
C487 C486 1.398 . S
C487 C488 1.391 . S
C488 H476 0.950 . S
C488 C484 1.393 . S
C488 C487 1.391 . S
C489 H479 0.950 . S
C489 C490 1.386 . S
C489 C491 1.391 . S
C490 C489 1.386 . S
C490 C494 1.393 . S
C491 H480 0.950 . S
C491 C489 1.391 . S
C491 C492 1.400 . S
C492 C486 1.491 . S
C492 C491 1.400 . S
C492 C493 1.398 . S
C493 H481 0.950 . S
C493 C492 1.398 . S
C493 C494 1.391 . S
C494 H482 0.950 . S
C494 C490 1.393 . S
C494 C493 1.391 . S
H495 C503 0.950 . S
H496 C508 0.950 . S
H497 C505 0.950 . S
H498 C507 0.950 . S
H499 C509 0.950 . S
H500 C511 0.950 . S
H501 C513 0.950 . S
H502 C514 0.950 . S
C503 H495 0.950 . S
C503 C504 1.386 . S
C503 C505 1.391 . S
C504 C503 1.386 . S
C504 C508 1.393 . S
C505 H497 0.950 . S
C505 C503 1.391 . S
C505 C506 1.400 . S
C506 C505 1.400 . S
C506 C507 1.398 . S
C506 C512 1.491 . S
C507 H498 0.950 . S
C507 C506 1.398 . S
C507 C508 1.391 . S
C508 H496 0.950 . S
C508 C504 1.393 . S
C508 C507 1.391 . S
C509 H499 0.950 . S
C509 C510 1.386 . S
C509 C511 1.391 . S
C510 C509 1.386 . S
C510 C514 1.393 . S
C511 H500 0.950 . S
C511 C509 1.391 . S
C511 C512 1.400 . S
C512 C506 1.491 . S
C512 C511 1.400 . S
C512 C513 1.398 . S
C513 H501 0.950 . S
C513 C512 1.398 . S
C513 C514 1.391 . S
C514 H502 0.950 . S
C514 C510 1.393 . S
C514 C513 1.391 . S
H515 C523 0.950 . S
H516 C528 0.950 . S
H517 C525 0.950 . S
H518 C527 0.950 . S
H519 C529 0.950 . S
H520 C531 0.950 . S
H521 C533 0.950 . S
H522 C534 0.950 . S
C523 H515 0.950 . S
C523 C524 1.386 . S
C523 C525 1.391 . S
C524 C523 1.386 . S
C524 C528 1.393 . S
C525 H517 0.950 . S
C525 C523 1.391 . S
C525 C526 1.400 . S
C526 C525 1.400 . S
C526 C527 1.398 . S
C526 C532 1.491 . S
C527 H518 0.950 . S
C527 C526 1.398 . S
C527 C528 1.391 . S
C528 H516 0.950 . S
C528 C524 1.393 . S
C528 C527 1.391 . S
C529 H519 0.950 . S
C529 C530 1.386 . S
C529 C531 1.391 . S
C530 C529 1.386 . S
C530 C534 1.393 . S
C531 H520 0.950 . S
C531 C529 1.391 . S
C531 C532 1.400 . S
C532 C526 1.491 . S
C532 C531 1.400 . S
C532 C533 1.398 . S
C533 H521 0.950 . S
C533 C532 1.398 . S
C533 C534 1.391 . S
C534 H522 0.950 . S
C534 C530 1.393 . S
C534 C533 1.391 . S
H535 C543 0.950 . S
H536 C548 0.950 . S
H537 C545 0.950 . S
H538 C547 0.950 . S
H539 C549 0.950 . S
H540 C551 0.950 . S
H541 C553 0.950 . S
H542 C554 0.950 . S
C543 H535 0.950 . S
C543 C544 1.386 . S
C543 C545 1.391 . S
C544 C543 1.386 . S
C544 C548 1.393 . S
C545 H537 0.950 . S
C545 C543 1.391 . S
C545 C546 1.400 . S
C546 C545 1.400 . S
C546 C547 1.398 . S
C546 C552 1.491 . S
C547 H538 0.950 . S
C547 C546 1.398 . S
C547 C548 1.391 . S
C548 H536 0.950 . S
C548 C544 1.393 . S
C548 C547 1.391 . S
C549 H539 0.950 . S
C549 C550 1.386 . S
C549 C551 1.391 . S
C550 C549 1.386 . S
C550 C554 1.393 . S
C551 H540 0.950 . S
C551 C549 1.391 . S
C551 C552 1.400 . S
C552 C546 1.491 . S
C552 C551 1.400 . S
C552 C553 1.398 . S
C553 H541 0.950 . S
C553 C552 1.398 . S
C553 C554 1.391 . S
C554 H542 0.950 . S
C554 C550 1.393 . S
C554 C553 1.391 . S
H555 C563 0.950 . S
H556 C568 0.950 . S
H557 C565 0.950 . S
H558 C567 0.950 . S
H559 C569 0.950 . S
H560 C571 0.950 . S
H561 C573 0.950 . S
H562 C574 0.950 . S
C563 H555 0.950 . S
C563 C564 1.386 . S
C563 C565 1.391 . S
C564 C563 1.386 . S
C564 C568 1.393 . S
C565 H557 0.950 . S
C565 C563 1.391 . S
C565 C566 1.400 . S
C566 C565 1.400 . S
C566 C567 1.398 . S
C566 C572 1.491 . S
C567 H558 0.950 . S
C567 C566 1.398 . S
C567 C568 1.391 . S
C568 H556 0.950 . S
C568 C564 1.393 . S
C568 C567 1.391 . S
C569 H559 0.950 . S
C569 C570 1.386 . S
C569 C571 1.391 . S
C570 C569 1.386 . S
C570 C574 1.393 . S
C571 H560 0.950 . S
C571 C569 1.391 . S
C571 C572 1.400 . S
C572 C566 1.491 . S
C572 C571 1.400 . S
C572 C573 1.398 . S
C573 H561 0.950 . S
C573 C572 1.398 . S
C573 C574 1.391 . S
C574 H562 0.950 . S
C574 C570 1.393 . S
C574 C573 1.391 . S
H575 C583 0.950 . S
H576 C588 0.950 . S
H577 C585 0.950 . S
H578 C587 0.950 . S
H579 C589 0.950 . S
H580 C591 0.950 . S
H581 C593 0.950 . S
H582 C594 0.950 . S
C583 H575 0.950 . S
C583 C584 1.386 . S
C583 C585 1.391 . S
C584 C583 1.386 . S
C584 C588 1.393 . S
C585 H577 0.950 . S
C585 C583 1.391 . S
C585 C586 1.400 . S
C586 C585 1.400 . S
C586 C587 1.398 . S
C586 C592 1.491 . S
C587 H578 0.950 . S
C587 C586 1.398 . S
C587 C588 1.391 . S
C588 H576 0.950 . S
C588 C584 1.393 . S
C588 C587 1.391 . S
C589 H579 0.950 . S
C589 C590 1.386 . S
C589 C591 1.391 . S
C590 C589 1.386 . S
C590 C594 1.393 . S
C591 H580 0.950 . S
C591 C589 1.391 . S
C591 C592 1.400 . S
C592 C586 1.491 . S
C592 C591 1.400 . S
C592 C593 1.398 . S
C593 H581 0.950 . S
C593 C592 1.398 . S
C593 C594 1.391 . S
C594 H582 0.950 . S
C594 C590 1.393 . S
C594 C593 1.391 . S
H595 C603 0.950 . S
H596 C608 0.950 . S
H597 C605 0.950 . S
H598 C607 0.950 . S
H599 C609 0.950 . S
H600 C611 0.950 . S
H601 C613 0.950 . S
H602 C614 0.950 . S
C603 H595 0.950 . S
C603 C604 1.386 . S
C603 C605 1.391 . S
C604 C603 1.386 . S
C604 C608 1.393 . S
C605 H597 0.950 . S
C605 C603 1.391 . S
C605 C606 1.400 . S
C606 C605 1.400 . S
C606 C607 1.398 . S
C606 C612 1.491 . S
C607 H598 0.950 . S
C607 C606 1.398 . S
C607 C608 1.391 . S
C608 H596 0.950 . S
C608 C604 1.393 . S
C608 C607 1.391 . S
C609 H599 0.950 . S
C609 C610 1.386 . S
C609 C611 1.391 . S
C610 C609 1.386 . S
C610 C614 1.393 . S
C611 H600 0.950 . S
C611 C609 1.391 . S
C611 C612 1.400 . S
C612 C606 1.491 . S
C612 C611 1.400 . S
C612 C613 1.398 . S
C613 H601 0.950 . S
C613 C612 1.398 . S
C613 C614 1.391 . S
C614 H602 0.950 . S
C614 C610 1.393 . S
C614 C613 1.391 . S
H615 C623 0.950 . S
H616 C628 0.950 . S
H617 C625 0.950 . S
H618 C627 0.950 . S
H619 C629 0.950 . S
H620 C631 0.950 . S
H621 C633 0.950 . S
H622 C634 0.950 . S
C623 H615 0.950 . S
C623 C624 1.386 . S
C623 C625 1.391 . S
C624 C623 1.386 . S
C624 C628 1.393 . S
C625 H617 0.950 . S
C625 C623 1.391 . S
C625 C626 1.400 . S
C626 C625 1.400 . S
C626 C627 1.398 . S
C626 C632 1.491 . S
C627 H618 0.950 . S
C627 C626 1.398 . S
C627 C628 1.391 . S
C628 H616 0.950 . S
C628 C624 1.393 . S
C628 C627 1.391 . S
C629 H619 0.950 . S
C629 C630 1.386 . S
C629 C631 1.391 . S
C630 C629 1.386 . S
C630 C634 1.393 . S
C631 H620 0.950 . S
C631 C629 1.391 . S
C631 C632 1.400 . S
C632 C626 1.491 . S
C632 C631 1.400 . S
C632 C633 1.398 . S
C633 H621 0.950 . S
C633 C632 1.398 . S
C633 C634 1.391 . S
C634 H622 0.950 . S
C634 C630 1.393 . S
C634 C633 1.391 . S
H635 C643 0.950 . S
H636 C648 0.950 . S
H637 C645 0.950 . S
H638 C647 0.950 . S
H639 C649 0.950 . S
H640 C651 0.950 . S
H641 C653 0.950 . S
H642 C654 0.950 . S
C643 H635 0.950 . S
C643 C644 1.386 . S
C643 C645 1.391 . S
C644 C643 1.386 . S
C644 C648 1.393 . S
C645 H637 0.950 . S
C645 C643 1.391 . S
C645 C646 1.400 . S
C646 C645 1.400 . S
C646 C647 1.398 . S
C646 C652 1.491 . S
C647 H638 0.950 . S
C647 C646 1.398 . S
C647 C648 1.391 . S
C648 H636 0.950 . S
C648 C644 1.393 . S
C648 C647 1.391 . S
C649 H639 0.950 . S
C649 C650 1.386 . S
C649 C651 1.391 . S
C650 C649 1.386 . S
C650 C654 1.393 . S
C651 H640 0.950 . S
C651 C649 1.391 . S
C651 C652 1.400 . S
C652 C646 1.491 . S
C652 C651 1.400 . S
C652 C653 1.398 . S
C653 H641 0.950 . S
C653 C652 1.398 . S
C653 C654 1.391 . S
C654 H642 0.950 . S
C654 C650 1.393 . S
C654 C653 1.391 . S
H655 C663 0.950 . S
H656 C668 0.950 . S
H657 C665 0.950 . S
H658 C667 0.950 . S
H659 C669 0.950 . S
H660 C671 0.950 . S
H661 C673 0.950 . S
H662 C674 0.950 . S
C663 H655 0.950 . S
C663 C664 1.386 . S
C663 C665 1.391 . S
C664 C663 1.386 . S
C664 C668 1.393 . S
C665 H657 0.950 . S
C665 C663 1.391 . S
C665 C666 1.400 . S
C666 C665 1.400 . S
C666 C667 1.398 . S
C666 C672 1.491 . S
C667 H658 0.950 . S
C667 C666 1.398 . S
C667 C668 1.391 . S
C668 H656 0.950 . S
C668 C664 1.393 . S
C668 C667 1.391 . S
C669 H659 0.950 . S
C669 C670 1.386 . S
C669 C671 1.391 . S
C670 C669 1.386 . S
C670 C674 1.393 . S
C671 H660 0.950 . S
C671 C669 1.391 . S
C671 C672 1.400 . S
C672 C666 1.491 . S
C672 C671 1.400 . S
C672 C673 1.398 . S
C673 H661 0.950 . S
C673 C672 1.398 . S
C673 C674 1.391 . S
C674 H662 0.950 . S
C674 C670 1.393 . S
C674 C673 1.391 . S
C210 C120 1.460 . S
C204 C6 1.534 . S
C230 C156 1.767 . S
C224 C21 1.869 . S
C250 C121 1.361 . S
C244 C28 1.393 . S
C270 C151 1.095 . S
C264 C45 1.108 . S
C290 C118 1.525 . S
C284 C54 1.607 . S
C304 C69 1.998 . S
C310 C154 2.010 . S
C324 C81 0.628 . S
C330 C123 0.647 . S
C350 C153 1.462 . S
C344 C88 1.499 . S
C370 C157 1.408 . S
C364 C4 1.397 . S
C390 C122 1.549 . S
C384 C18 1.585 . S
C410 C150 1.902 . S
C404 C33 1.875 . S
C430 C119 0.705 . S
C424 C42 0.597 . S
C450 C152 1.802 . S
C444 C57 1.935 . S
C464 C64 1.434 . S
C470 C117 1.411 . S
C484 C78 1.081 . S
C490 C155 1.034 . S
C510 C124 1.458 . S
C504 C93 1.519 . S
C530 C186 1.944 . S
C524 C9 2.038 . S
C544 C52 1.982 . S
C550 C189 1.884 . S
C570 C188 1.912 . S
C564 C66 2.009 . S
C584 C76 1.291 . S
C590 C187 1.281 . S
C610 C190 1.846 . S
C604 C90 1.929 . S
C624 C30 1.929 . S
C630 C184 1.864 . S
C650 C183 1.278 . S
C644 C40 1.302 . S
C664 C16 1.940 . S
C670 C185 1.825 . S
