# Generated by pormake.
# Topology ctn, (3,4)-cn, num edge types: 1
# Building blocks:
#     Node 0, Type 0, BuildingBlock: ESEHIV_clean_linker_0, # of connection points: 3
#     Node 1, Type 0, BuildingBlock: ESEHIV_clean_linker_0, # of connection points: 3
#     Node 2, Type 0, BuildingBlock: ESEHIV_clean_linker_0, # of connection points: 3
#     Node 3, Type 0, BuildingBlock: ESEHIV_clean_linker_0, # of connection points: 3
#     Node 4, Type 0, BuildingBlock: ESEHIV_clean_linker_0, # of connection points: 3
#     Node 5, Type 0, BuildingBlock: ESEHIV_clean_linker_0, # of connection points: 3
#     Node 6, Type 0, BuildingBlock: ESEHIV_clean_linker_0, # of connection points: 3
#     Node 7, Type 0, BuildingBlock: ESEHIV_clean_linker_0, # of connection points: 3
#     Node 8, Type 0, BuildingBlock: ESEHIV_clean_linker_0, # of connection points: 3
#     Node 9, Type 0, BuildingBlock: ESEHIV_clean_linker_0, # of connection points: 3
#     Node 10, Type 0, BuildingBlock: ESEHIV_clean_linker_0, # of connection points: 3
#     Node 11, Type 0, BuildingBlock: ESEHIV_clean_linker_0, # of connection points: 3
#     Node 12, Type 0, BuildingBlock: ESEHIV_clean_linker_0, # of connection points: 3
#     Node 13, Type 0, BuildingBlock: ESEHIV_clean_linker_0, # of connection points: 3
#     Node 14, Type 0, BuildingBlock: ESEHIV_clean_linker_0, # of connection points: 3
#     Node 15, Type 0, BuildingBlock: ESEHIV_clean_linker_0, # of connection points: 3
#     Node 16, Type 1, BuildingBlock: QUQFOY_clean_sbu_1, # of connection points: 4
#     Node 17, Type 1, BuildingBlock: QUQFOY_clean_sbu_1, # of connection points: 4
#     Node 18, Type 1, BuildingBlock: QUQFOY_clean_sbu_1, # of connection points: 4
#     Node 19, Type 1, BuildingBlock: QUQFOY_clean_sbu_1, # of connection points: 4
#     Node 20, Type 1, BuildingBlock: QUQFOY_clean_sbu_1, # of connection points: 4
#     Node 21, Type 1, BuildingBlock: QUQFOY_clean_sbu_1, # of connection points: 4
#     Node 22, Type 1, BuildingBlock: QUQFOY_clean_sbu_1, # of connection points: 4
#     Node 23, Type 1, BuildingBlock: QUQFOY_clean_sbu_1, # of connection points: 4
#     Node 24, Type 1, BuildingBlock: QUQFOY_clean_sbu_1, # of connection points: 4
#     Node 25, Type 1, BuildingBlock: QUQFOY_clean_sbu_1, # of connection points: 4
#     Node 26, Type 1, BuildingBlock: QUQFOY_clean_sbu_1, # of connection points: 4
#     Node 27, Type 1, BuildingBlock: QUQFOY_clean_sbu_1, # of connection points: 4
#     Edge 28, Type (0, 1), BuildingBlock: TEMPAE_clean_linker_10, # of connection points: 2
#     Edge 29, Type (0, 1), BuildingBlock: TEMPAE_clean_linker_10, # of connection points: 2
#     Edge 30, Type (0, 1), BuildingBlock: TEMPAE_clean_linker_10, # of connection points: 2
#     Edge 31, Type (0, 1), BuildingBlock: TEMPAE_clean_linker_10, # of connection points: 2
#     Edge 32, Type (0, 1), BuildingBlock: TEMPAE_clean_linker_10, # of connection points: 2
#     Edge 33, Type (0, 1), BuildingBlock: TEMPAE_clean_linker_10, # of connection points: 2
#     Edge 34, Type (0, 1), BuildingBlock: TEMPAE_clean_linker_10, # of connection points: 2
#     Edge 35, Type (0, 1), BuildingBlock: TEMPAE_clean_linker_10, # of connection points: 2
#     Edge 36, Type (0, 1), BuildingBlock: TEMPAE_clean_linker_10, # of connection points: 2
#     Edge 37, Type (0, 1), BuildingBlock: TEMPAE_clean_linker_10, # of connection points: 2
#     Edge 38, Type (0, 1), BuildingBlock: TEMPAE_clean_linker_10, # of connection points: 2
#     Edge 39, Type (0, 1), BuildingBlock: TEMPAE_clean_linker_10, # of connection points: 2
#     Edge 40, Type (0, 1), BuildingBlock: TEMPAE_clean_linker_10, # of connection points: 2
#     Edge 41, Type (0, 1), BuildingBlock: TEMPAE_clean_linker_10, # of connection points: 2
#     Edge 42, Type (0, 1), BuildingBlock: TEMPAE_clean_linker_10, # of connection points: 2
#     Edge 43, Type (0, 1), BuildingBlock: TEMPAE_clean_linker_10, # of connection points: 2
#     Edge 44, Type (0, 1), BuildingBlock: TEMPAE_clean_linker_10, # of connection points: 2
#     Edge 45, Type (0, 1), BuildingBlock: TEMPAE_clean_linker_10, # of connection points: 2
#     Edge 46, Type (0, 1), BuildingBlock: TEMPAE_clean_linker_10, # of connection points: 2
#     Edge 47, Type (0, 1), BuildingBlock: TEMPAE_clean_linker_10, # of connection points: 2
#     Edge 48, Type (0, 1), BuildingBlock: TEMPAE_clean_linker_10, # of connection points: 2
#     Edge 49, Type (0, 1), BuildingBlock: TEMPAE_clean_linker_10, # of connection points: 2
#     Edge 50, Type (0, 1), BuildingBlock: TEMPAE_clean_linker_10, # of connection points: 2
#     Edge 51, Type (0, 1), BuildingBlock: TEMPAE_clean_linker_10, # of connection points: 2
#     Edge 52, Type (0, 1), BuildingBlock: TEMPAE_clean_linker_10, # of connection points: 2
#     Edge 53, Type (0, 1), BuildingBlock: TEMPAE_clean_linker_10, # of connection points: 2
#     Edge 54, Type (0, 1), BuildingBlock: TEMPAE_clean_linker_10, # of connection points: 2
#     Edge 55, Type (0, 1), BuildingBlock: TEMPAE_clean_linker_10, # of connection points: 2
#     Edge 56, Type (0, 1), BuildingBlock: TEMPAE_clean_linker_10, # of connection points: 2
#     Edge 57, Type (0, 1), BuildingBlock: TEMPAE_clean_linker_10, # of connection points: 2
#     Edge 58, Type (0, 1), BuildingBlock: TEMPAE_clean_linker_10, # of connection points: 2
#     Edge 59, Type (0, 1), BuildingBlock: TEMPAE_clean_linker_10, # of connection points: 2
#     Edge 60, Type (0, 1), BuildingBlock: TEMPAE_clean_linker_10, # of connection points: 2
#     Edge 61, Type (0, 1), BuildingBlock: TEMPAE_clean_linker_10, # of connection points: 2
#     Edge 62, Type (0, 1), BuildingBlock: TEMPAE_clean_linker_10, # of connection points: 2
#     Edge 63, Type (0, 1), BuildingBlock: TEMPAE_clean_linker_10, # of connection points: 2
#     Edge 64, Type (0, 1), BuildingBlock: TEMPAE_clean_linker_10, # of connection points: 2
#     Edge 65, Type (0, 1), BuildingBlock: TEMPAE_clean_linker_10, # of connection points: 2
#     Edge 66, Type (0, 1), BuildingBlock: TEMPAE_clean_linker_10, # of connection points: 2
#     Edge 67, Type (0, 1), BuildingBlock: TEMPAE_clean_linker_10, # of connection points: 2
#     Edge 68, Type (0, 1), BuildingBlock: TEMPAE_clean_linker_10, # of connection points: 2
#     Edge 69, Type (0, 1), BuildingBlock: TEMPAE_clean_linker_10, # of connection points: 2
#     Edge 70, Type (0, 1), BuildingBlock: TEMPAE_clean_linker_10, # of connection points: 2
#     Edge 71, Type (0, 1), BuildingBlock: TEMPAE_clean_linker_10, # of connection points: 2
#     Edge 72, Type (0, 1), BuildingBlock: TEMPAE_clean_linker_10, # of connection points: 2
#     Edge 73, Type (0, 1), BuildingBlock: TEMPAE_clean_linker_10, # of connection points: 2
#     Edge 74, Type (0, 1), BuildingBlock: TEMPAE_clean_linker_10, # of connection points: 2
#     Edge 75, Type (0, 1), BuildingBlock: TEMPAE_clean_linker_10, # of connection points: 2
# Relax obj value: 0.037
# Max RMSD: 0.144
# Mean RMSD: 0.066
data_MOF--net-ctn--node1-QUQFOY_clean_sbu_1--node2-ESEHIV_clean_linker_0--edge1-TEMPAE_clean_linker_10
_symmetry_space_group_name_H-M    P1
_symmetry_Int_Tables_number       1
_symmetry_cell_setting            triclinic
loop_
_symmetry_equiv_pos_as_xyz
'x, y, z'
_cell_length_a     52.507518
_cell_length_b     52.473292
_cell_length_c     52.524509
_cell_angle_alpha  92.911988
_cell_angle_beta   90.164406
_cell_angle_gamma 94.796141
loop_
_atom_site_label
_atom_site_type_symbol
_atom_site_fract_x
_atom_site_fract_y
_atom_site_fract_z
_atom_type_partial_charge
H0 H 0.99827 0.09717 0.0621 0.0
H1 H 0.03176 0.03008 0.08578 0.0
H2 H 0.05837 0.06601 0.01794 0.0
C3 C 0.01215 0.08314 0.05927 0.0
C4 C 0.02817 0.08393 0.03788 0.0
C5 C 0.0132 0.06364 0.07647 0.0
C6 C 0.03063 0.04499 0.07236 0.0
C7 C 0.04717 0.04593 0.05146 0.0
C8 C 0.04581 0.06541 0.03428 0.0
H9 H 0.30471 0.70149 0.23792 0.0
H10 H 0.3196 0.77193 0.20058 0.0
H11 H 0.24659 0.72793 0.1908 0.0
C12 C 0.2985 0.71539 0.22513 0.0
C13 C 0.27355 0.71265 0.21538 0.0
C14 C 0.31515 0.73659 0.21963 0.0
C15 C 0.30674 0.75529 0.20418 0.0
C16 C 0.28201 0.75238 0.19331 0.0
C17 C 0.26554 0.73091 0.19919 0.0
H18 H 0.95137 0.49551 0.11675 0.0
H19 H 0.98381 0.42528 0.09457 0.0
H20 H 0.93466 0.45953 0.04267 0.0
C21 C 0.95321 0.47971 0.10294 0.0
C22 C 0.94043 0.47923 0.07942 0.0
C23 C 0.96907 0.46039 0.10836 0.0
C24 C 0.97178 0.44031 0.09018 0.0
C25 C 0.9594 0.43969 0.06638 0.0
C26 C 0.9436 0.4592 0.06127 0.0
H27 H 0.7285 0.74345 0.24824 0.0
H28 H 0.79924 0.78944 0.2388 0.0
H29 H 0.74802 0.81026 0.2979 0.0
C30 C 0.74203 0.75904 0.25501 0.0
C31 C 0.73541 0.77567 0.27541 0.0
C32 C 0.76515 0.76362 0.24182 0.0
C33 C 0.78177 0.7851 0.24925 0.0
C34 C 0.77511 0.80212 0.26894 0.0
C35 C 0.75252 0.79695 0.28246 0.0
H36 H 0.00733 -0.0009 0.48879 0.0
H37 H 0.05611 0.06159 0.46143 0.0
H38 H 0.08431 0.01302 0.51692 0.0
C39 C 0.02569 0.01021 0.48878 0.0
C40 C 0.04532 0.00388 0.50488 0.0
C41 C 0.02948 0.0309 0.47292 0.0
C42 C 0.0531 0.04559 0.47362 0.0
C43 C 0.07302 0.03943 0.48954 0.0
C44 C 0.06891 0.0185 0.50511 0.0
H45 H 0.17142 0.75168 0.78339 0.0
H46 H 0.23815 0.71596 0.80448 0.0
H47 H 0.20155 0.69529 0.73189 0.0
C48 C 0.18539 0.73807 0.77886 0.0
C49 C 0.18391 0.72374 0.75552 0.0
C50 C 0.20485 0.73532 0.79645 0.0
C51 C 0.2235 0.71851 0.79046 0.0
C52 C 0.22256 0.70398 0.76718 0.0
C53 C 0.20266 0.7067 0.7497 0.0
H54 H 0.87466 0.61487 0.47804 0.0
H55 H 0.95159 0.63492 0.45408 0.0
H56 H 0.91776 0.55802 0.44058 0.0
C57 C 0.89207 0.60959 0.46891 0.0
C58 C 0.89357 0.58439 0.45912 0.0
C59 C 0.91311 0.62782 0.46775 0.0
C60 C 0.9353 0.62095 0.45515 0.0
C61 C 0.93707 0.59593 0.44485 0.0
C62 C 0.91613 0.57773 0.44714 0.0
H63 H 0.76897 0.84158 0.86404 0.0
H64 H 0.80431 0.86063 0.79271 0.0
H65 H 0.83671 0.80687 0.83969 0.0
C66 C 0.78382 0.83931 0.85002 0.0
C67 C 0.80278 0.82266 0.85443 0.0
C68 C 0.78444 0.8535 0.82796 0.0
C69 C 0.80389 0.85023 0.81004 0.0
C70 C 0.82289 0.83364 0.8143 0.0
C71 C 0.82238 0.82016 0.83664 0.0
H72 H 0.27419 0.34537 0.36375 0.0
H73 H 0.30324 0.37638 0.29386 0.0
H74 H 0.34211 0.31912 0.32978 0.0
C75 C 0.28831 0.3465 0.34878 0.0
C76 C 0.30883 0.33099 0.34953 0.0
C77 C 0.28597 0.36328 0.32892 0.0
C78 C 0.30425 0.36358 0.30929 0.0
C79 C 0.32437 0.34766 0.30957 0.0
C80 C 0.32679 0.33177 0.32988 0.0
H81 H 0.46354 -0.00168 0.58548 0.0
H82 H 0.49722 0.93076 0.55729 0.0
H83 H 0.4355 0.95934 0.51584 0.0
C84 C 0.46411 0.98253 0.5714 0.0
C85 C 0.44762 0.98103 0.55025 0.0
C86 C 0.48175 0.9642 0.57419 0.0
C87 C 0.483 0.94437 0.55544 0.0
C88 C 0.46634 0.94227 0.53426 0.0
C89 C 0.44845 0.96059 0.53204 0.0
H90 H 0.2205 0.22951 0.7594 0.0
H91 H 0.27682 0.28737 0.73453 0.0
H92 H 0.2289 0.30427 0.79781 0.0
C93 C 0.23031 0.2485 0.76166 0.0
C94 C 0.2225 0.26581 0.78086 0.0
C95 C 0.2503 0.25588 0.74505 0.0
C96 C 0.26224 0.28087 0.74785 0.0
C97 C 0.2548 0.29809 0.76705 0.0
C98 C 0.23528 0.29041 0.78372 0.0
H99 H 0.79889 0.22545 0.76017 0.0
H100 H 0.81501 0.28939 0.71333 0.0
H101 H 0.74434 0.24161 0.70327 0.0
C102 C 0.79312 0.23724 0.74515 0.0
C103 C 0.76987 0.23092 0.73233 0.0
C104 C 0.80924 0.25839 0.73847 0.0
C105 C 0.80209 0.27343 0.71881 0.0
C106 C 0.77853 0.2677 0.70606 0.0
C107 C 0.76243 0.24642 0.71307 0.0
H108 H 0.5116 0.61308 0.57449 0.0
H109 H 0.54502 0.54766 0.60177 0.0
H110 H 0.56697 0.57548 0.5289 0.0
C111 C 0.52466 0.59828 0.57167 0.0
C112 C 0.53934 0.59688 0.54932 0.0
C113 C 0.52652 0.58051 0.5905 0.0
C114 C 0.54375 0.56159 0.58736 0.0
C115 C 0.55864 0.55992 0.56535 0.0
C116 C 0.55633 0.57758 0.54642 0.0
H117 H 0.51569 0.46869 0.97265 0.0
H118 H 0.56808 0.52826 0.94455 0.0
H119 H 0.59124 0.48143 0.00404 0.0
C120 C 0.53412 0.47967 0.97315 0.0
C121 C 0.55283 0.47317 0.99014 0.0
C122 C 0.53935 0.49954 0.95645 0.0
C123 C 0.5638 0.5128 0.95715 0.0
C124 C 0.58282 0.5063 0.97399 0.0
C125 C 0.5771 0.48634 0.99044 0.0
H126 H 0.67669 0.26719 0.29102 0.0
H127 H 0.73758 0.2247 0.31502 0.0
H128 H 0.69193 0.19734 0.24926 0.0
C129 C 0.68789 0.25087 0.28807 0.0
C130 C 0.68219 0.23297 0.26761 0.0
C131 C 0.70724 0.24732 0.30553 0.0
C132 C 0.72208 0.22658 0.30176 0.0
C133 C 0.71696 0.20837 0.28143 0.0
C134 C 0.69687 0.21174 0.26436 0.0
H135 H 0.40055 0.07391 0.99484 0.0
H136 H 0.46179 0.10573 0.94935 0.0
H137 H 0.4266 0.03029 0.93 0.0
C138 C 0.41276 0.07241 0.97834 0.0
C139 C 0.41044 0.05011 0.96225 0.0
C140 C 0.43127 0.0925 0.97386 0.0
C141 C 0.44794 0.08996 0.95325 0.0
C142 C 0.44696 0.06729 0.93773 0.0
C143 C 0.42782 0.04764 0.94212 0.0
O144 O 0.2252 0.84501 0.97396 0.0
Cd145 Cd 0.23723 0.86897 0.00489 0.0
Cd146 Cd 0.2085 0.90101 0.98063 0.0
O147 O 0.20056 0.87053 0.95526 0.0
O148 O 0.25333 0.84473 0.02635 0.0
O149 O 0.22106 0.86649 0.0396 0.0
C150 C 0.23736 0.8501 0.04395 0.0
C151 C 0.17506 0.92275 0.99729 0.0
C152 C 0.21026 0.84923 0.95588 0.0
C153 C 0.26408 0.91727 0.98661 0.0
O154 O 0.24299 0.92173 0.97661 0.0
O155 O 0.26574 0.89771 -0.00039 0.0
O156 O 0.18217 0.92481 0.97397 0.0
O157 O 0.18689 0.90794 0.01133 0.0
O158 O 0.16041 0.56655 0.31028 0.0
Cd159 Cd 0.14055 0.53621 0.32705 0.0
Cd160 Cd 0.1065 0.54162 0.28888 0.0
O161 O 0.1368 0.56405 0.27545 0.0
O162 O 0.16714 0.51933 0.34517 0.0
O163 O 0.14415 0.50054 0.3128 0.0
C164 C 0.16226 0.49984 0.32942 0.0
C165 C 0.08072 0.52022 0.25698 0.0
C166 C 0.15634 0.57348 0.28792 0.0
C167 C 0.09074 0.55248 0.34359 0.0
O168 O 0.08681 0.55482 0.32 0.0
O169 O 0.11082 0.54321 0.35125 0.0
O170 O 0.08142 0.5446 0.26123 0.0
O171 O 0.09475 0.50752 0.27112 0.0
O172 O 0.78492 0.68758 0.0016 0.0
Cd173 Cd 0.77656 0.65937 0.02717 0.0
Cd174 Cd 0.80325 0.63279 0.99321 0.0
O175 O 0.80989 0.66675 0.97572 0.0
O176 O 0.75858 0.67768 0.05481 0.0
O177 O 0.79515 0.66093 0.06101 0.0
C178 C 0.77669 0.67329 0.07012 0.0
C179 C 0.83483 0.61218 0.01248 0.0
C180 C 0.79924 0.68695 0.98213 0.0
C181 C 0.74997 0.61267 -0.00103 0.0
O182 O 0.76945 0.61147 0.98487 0.0
O183 O 0.74989 0.62933 0.01738 0.0
O184 O 0.83201 0.61089 0.98798 0.0
O185 O 0.82023 0.62618 0.02595 0.0
O186 O 0.9151 0.03831 0.30995 0.0
Cd187 Cd 0.89714 0.02512 0.27623 0.0
Cd188 Cd 0.85647 0.03578 0.30436 0.0
O189 O 0.8818 0.04629 0.33361 0.0
O190 O 0.92663 0.02231 0.25298 0.0
O191 O 0.89572 0.04727 0.246 0.0
C192 C 0.91698 0.03849 0.23893 0.0
C193 C 0.82977 0.06494 0.28994 0.0
C194 C 0.9058 0.04564 0.33114 0.0
C195 C 0.85845 0.98134 0.28556 0.0
O196 O 0.84635 0.99731 0.29862 0.0
O197 O 0.87901 0.98857 0.27437 0.0
O198 O 0.82422 0.05235 0.30995 0.0
O199 O 0.8507 0.06105 0.27802 0.0
O200 O 0.29839 0.20366 0.50116 0.0
Cd201 Cd 0.28134 0.17796 0.52538 0.0
Cd202 Cd 0.30289 0.1439 0.4939 0.0
O203 O 0.31333 0.17571 0.47355 0.0
O204 O 0.26926 0.20078 0.55323 0.0
O205 O 0.29576 0.17114 0.55983 0.0
C206 C 0.28256 0.18915 0.5689 0.0
C207 C 0.33328 0.11749 0.50677 0.0
C208 C 0.30972 0.1987 0.48039 0.0
C209 C 0.24638 0.13663 0.49887 0.0
O210 O 0.26615 0.12738 0.48963 0.0
O211 O 0.24836 0.15711 0.51294 0.0
O212 O 0.32585 0.11717 0.48331 0.0
O213 O 0.32383 0.13346 0.52297 0.0
O214 O 0.41255 0.50868 0.79989 0.0
Cd215 Cd 0.39148 0.50882 0.76705 0.0
Cd216 Cd 0.35775 0.52792 0.79796 0.0
O217 O 0.38765 0.53141 0.82411 0.0
O218 O 0.41615 0.50417 0.73899 0.0
O219 O 0.39581 0.53923 0.74519 0.0
C220 C 0.41207 0.52677 0.73228 0.0
C221 C 0.33619 0.56323 0.78837 0.0
C222 C 0.40802 0.52016 0.82103 0.0
C223 C 0.3441 0.47529 0.7747 0.0
O224 O 0.33831 0.49217 0.79144 0.0
O225 O 0.36401 0.47907 0.7613 0.0
O226 O 0.33215 0.55184 0.80937 0.0
O227 O 0.35304 0.55478 0.77293 0.0
O228 O 0.74303 0.36229 0.47955 0.0
Cd229 Cd 0.7506 0.38599 0.51151 0.0
Cd230 Cd 0.71183 0.41012 0.49336 0.0
O231 O 0.70712 0.37809 0.46892 0.0
O232 O 0.77161 0.36676 0.53402 0.0
O233 O 0.7333 0.37827 0.54467 0.0
C234 C 0.75335 0.36694 0.55036 0.0
C235 C 0.67631 0.42753 0.51135 0.0
C236 C 0.72343 0.36175 0.46526 0.0
C237 C 0.76407 0.43826 0.49421 0.0
O238 O 0.74116 0.43734 0.4862 0.0
O239 O 0.77164 0.42002 0.50643 0.0
O240 O 0.68095 0.42831 0.48733 0.0
O241 O 0.69138 0.4157 0.52525 0.0
O242 O 0.66241 0.06017 0.79323 0.0
Cd243 Cd 0.64153 0.02657 0.80199 0.0
Cd244 Cd 0.6126 0.0374 0.76127 0.0
O245 O 0.64303 0.06372 0.75648 0.0
O246 O 0.66387 0.00839 0.8242 0.0
O247 O 0.6509 0.99315 0.78583 0.0
C248 C 0.66389 0.99058 0.80636 0.0
C249 C 0.59415 0.01826 0.72388 0.0
C250 C 0.66049 0.07134 0.77249 0.0
C251 C 0.58794 0.03803 0.81274 0.0
O252 O 0.58693 0.04444 0.78981 0.0
O253 O 0.60761 0.02865 0.8212 0.0
O254 O 0.59223 0.04199 0.73034 0.0
O255 O 0.60689 0.00504 0.73873 0.0
O256 O 0.98262 0.28809 0.92444 0.0
Cd257 Cd 0.98619 0.25779 0.89844 0.0
Cd258 Cd 0.01333 0.29416 0.87424 0.0
O259 O 0.00797 0.31729 0.90613 0.0
O260 O 0.97292 0.22755 0.91726 0.0
O261 O 0.01317 0.23391 0.90529 0.0
C262 C 0.99576 0.2203 0.91705 0.0
C263 C 0.05386 0.28474 0.86144 0.0
C264 C 0.99356 0.31062 0.92442 0.0
C265 C 0.96641 0.2715 0.84756 0.0
O266 O 0.9841 0.28956 0.84799 0.0
O267 O 0.96483 0.25567 0.86515 0.0
O268 O 0.04521 0.30639 0.85682 0.0
O269 O 0.03944 0.26852 0.8738 0.0
O270 O 0.47969 0.77907 0.40566 0.0
Cd271 Cd 0.48604 0.74488 0.38706 0.0
Cd272 Cd 0.51537 0.77464 0.35769 0.0
O273 O 0.50905 0.80276 0.38546 0.0
O274 O 0.47794 0.71791 0.41171 0.0
O275 O 0.51699 0.72772 0.397 0.0
C276 C 0.50196 0.71443 0.41164 0.0
C277 C 0.55682 0.76953 0.34428 0.0
C278 C 0.49224 0.80046 0.40276 0.0
C279 C 0.46793 0.74666 0.33399 0.0
O280 O 0.48644 0.76358 0.33171 0.0
O281 O 0.46498 0.73514 0.35459 0.0
O282 O 0.54423 0.78758 0.33613 0.0
O283 O 0.54605 0.75448 0.36051 0.0
O284 O 0.96425 0.78489 0.67505 0.0
Cd285 Cd 0.98975 0.77647 0.64649 0.0
Cd286 Cd 0.9709 0.81785 0.62512 0.0
O287 O 0.9535 0.82096 0.65989 0.0
O288 O 0.01032 0.75006 0.66012 0.0
O289 O 0.02699 0.7886 0.65083 0.0
C290 C 0.0301 0.76622 0.65894 0.0
C291 C 0.9904 0.85501 0.60919 0.0
C292 C 0.95218 0.8049 0.6772 0.0
C293 C 0.96203 0.76793 0.59597 0.0
O294 O 0.95598 0.79084 0.59813 0.0
O295 O 0.97619 0.75931 0.61258 0.0
O296 O 0.9659 0.8509 0.61011 0.0
O297 O 0.00412 0.83795 0.61774 0.0
O298 O 0.4558 0.2774 0.17609 0.0
Cd299 Cd 0.48172 0.26075 0.15271 0.0
Cd300 Cd 0.46807 0.29642 0.11959 0.0
O301 O 0.44591 0.30696 0.15015 0.0
O302 O 0.5024 0.24049 0.17454 0.0
O303 O 0.5188 0.27386 0.15407 0.0
C304 C 0.52208 0.25541 0.16884 0.0
C305 C 0.48865 0.32928 0.09737 0.0
C306 C 0.44345 0.29646 0.17137 0.0
C307 C 0.45937 0.24041 0.1028 0.0
O308 O 0.45778 0.26354 0.09745 0.0
O309 O 0.46827 0.23509 0.12417 0.0
O310 O 0.46449 0.32314 0.09481 0.0
O311 O 0.50135 0.31701 0.11314 0.0
C312 C 0.18314 0.74882 0.83644 0.0
C313 C 0.20516 0.74965 0.82139 0.0
C314 C 0.1827 0.76317 0.85964 0.0
C315 C 0.20467 0.77901 0.86766 0.0
C316 C 0.22711 0.77957 0.85271 0.0
C317 C 0.22715 0.76466 0.8298 0.0
C318 C 0.15861 0.76175 0.87532 0.0
C319 C 0.2508 0.79651 0.86052 0.0
C320 C 0.19679 0.8377 0.91092 0.0
C321 C 0.20613 0.83024 0.93421 0.0
C322 C 0.19575 0.82099 0.88922 0.0
C323 C 0.20384 0.79608 0.89097 0.0
C324 C 0.21214 0.78799 0.91468 0.0
C325 C 0.21339 0.80527 0.93601 0.0
C326 C 0.18698 0.83036 0.86419 0.0
C327 C 0.2204 0.76137 0.91733 0.0
H328 H 0.16625 0.73692 0.82999 0.0
H329 H 0.2441 0.76533 0.81803 0.0
H330 H 0.163 0.75715 0.89516 0.0
H331 H 0.1505 0.78063 0.87625 0.0
H332 H 0.14384 0.74712 0.86729 0.0
H333 H 0.26687 0.79416 0.84712 0.0
H334 H 0.24645 0.81687 0.86129 0.0
H335 H 0.25707 0.79216 0.87989 0.0
H336 H 0.19123 0.857 0.90935 0.0
H337 H 0.22048 0.79934 0.954 0.0
H338 H 0.17106 0.81724 0.856 0.0
H339 H 0.20288 0.83047 0.8503 0.0
H340 H 0.18051 0.84998 0.86625 0.0
H341 H 0.20544 0.74685 0.90953 0.0
H342 H 0.2243 0.75738 0.93748 0.0
H343 H 0.238 0.759 0.90612 0.0
C344 C 0.95996 0.57153 0.41093 0.0
C345 C 0.96104 0.58857 0.43246 0.0
C346 C 0.98231 0.56491 0.39865 0.0
C347 C 0.00631 0.57612 0.40766 0.0
C348 C 0.00764 0.59302 0.42956 0.0
C349 C 0.98502 0.59876 0.4419 0.0
C350 C 0.98016 0.54645 0.37557 0.0
C351 C 0.03288 0.60566 0.43946 0.0
C352 C 0.0654 0.54587 0.38323 0.0
C353 C 0.07117 0.56007 0.36181 0.0
C354 C 0.04456 0.55116 0.39876 0.0
C355 C 0.02975 0.57152 0.39301 0.0
C356 C 0.03644 0.58672 0.37217 0.0
C357 C 0.05686 0.58057 0.35661 0.0
C358 C 0.03762 0.5342 0.4205 0.0
C359 C 0.02155 0.60902 0.36583 0.0
H360 H 0.94159 0.56375 0.40328 0.0
H361 H 0.98618 0.61139 0.45891 0.0
H362 H 0.9861 0.55666 0.3583 0.0
H363 H 0.99314 0.53103 0.37765 0.0
H364 H 0.96037 0.53754 0.37252 0.0
H365 H 0.03073 0.61755 0.45731 0.0
H366 H 0.04629 0.59099 0.44312 0.0
H367 H 0.04175 0.61806 0.42485 0.0
H368 H 0.07638 0.52988 0.38709 0.0
H369 H 0.0615 0.59168 0.34014 0.0
H370 H 0.01889 0.52333 0.41643 0.0
H371 H 0.03557 0.54593 0.43843 0.0
H372 H 0.05209 0.52036 0.42355 0.0
H373 H 0.00192 0.6019 0.3596 0.0
H374 H 0.03064 0.62027 0.35043 0.0
H375 H 0.0198 0.62198 0.38299 0.0
C376 C 0.7796 0.7909 0.88164 0.0
C377 C 0.8017 0.80672 0.87688 0.0
C378 C 0.77945 0.77299 0.90058 0.0
C379 C 0.80183 0.77123 0.9153 0.0
C380 C 0.82374 0.78818 0.91149 0.0
C381 C 0.82348 0.80559 0.89212 0.0
C382 C 0.7558 0.75505 0.9039 0.0
C383 C 0.84777 0.78721 0.92713 0.0
C384 C 0.79417 0.73302 0.9747 0.0
C385 C 0.80198 0.70923 0.96588 0.0
C386 C 0.79474 0.75369 0.95869 0.0
C387 C 0.80292 0.75031 0.93319 0.0
C388 C 0.81134 0.72651 0.92436 0.0
C389 C 0.81097 0.70633 0.94088 0.0
C390 C 0.7861 0.77895 0.96889 0.0
C391 C 0.81999 0.7221 0.8972 0.0
H392 H 0.76284 0.79165 0.86967 0.0
H393 H 0.84051 0.81801 0.88851 0.0
H394 H 0.76004 0.73515 0.89843 0.0
H395 H 0.74993 0.75542 0.92417 0.0
H396 H 0.73951 0.76 0.89209 0.0
H397 H 0.86208 0.80347 0.92369 0.0
H398 H 0.84321 0.78747 0.94775 0.0
H399 H 0.85654 0.76908 0.9223 0.0
H400 H 0.78735 0.73545 0.99406 0.0
H401 H 0.81693 0.68798 0.93388 0.0
H402 H 0.76852 0.78315 0.9587 0.0
H403 H 0.80093 0.7947 0.96542 0.0
H404 H 0.78206 0.779 0.98964 0.0
H405 H 0.80407 0.72466 0.88387 0.0
H406 H 0.82641 0.70262 0.89348 0.0
H407 H 0.83594 0.73639 0.89282 0.0
C408 C 0.99599 0.01606 0.4404 0.0
C409 C 0.00926 0.0363 0.45463 0.0
C410 C 0.97802 0.0207 0.42182 0.0
C411 C 0.97327 0.04624 0.41724 0.0
C412 C 0.98606 0.06677 0.43197 0.0
C413 C 0.00394 0.06155 0.45053 0.0
C414 C 0.96476 -0.00174 0.40649 0.0
C415 C 0.98139 0.09422 0.42764 0.0
C416 C 0.94957 0.05252 0.3501 0.0
C417 C 0.92301 0.05072 0.3535 0.0
C418 C 0.96628 0.05281 0.37096 0.0
C419 C 0.95616 0.05118 0.39581 0.0
C420 C 0.92948 0.0512 0.39956 0.0
C421 C 0.91317 0.05103 0.37831 0.0
C422 C 0.99466 0.05309 0.36619 0.0
C423 C 0.91802 0.04959 0.42581 0.0
H424 H 0.00027 0.99654 0.44321 0.0
H425 H 0.01391 0.07725 0.46172 0.0
H426 H 0.94374 -0.0009 0.40726 0.0
H427 H 0.97044 -0.00085 0.3862 0.0
H428 H 0.96951 0.97956 0.41344 0.0
H429 H 0.99134 0.10783 0.44201 0.0
H430 H 0.98821 0.09926 0.40842 0.0
H431 H 0.96062 0.09671 0.42824 0.0
H432 H 0.95735 0.05263 0.331 0.0
H433 H 0.89267 0.04974 0.3811 0.0
H434 H 0.00124 0.03412 0.37015 0.0
H435 H 0.00535 0.06754 0.3792 0.0
H436 H -0.00039 0.05733 0.34621 0.0
H437 H 0.91951 0.03009 0.43262 0.0
H438 H 0.89756 0.05353 0.42591 0.0
H439 H 0.92865 0.06332 0.43957 0.0
C440 C 0.28283 0.23886 0.71532 0.0
C441 C 0.25727 0.23885 0.72311 0.0
C442 C 0.28921 0.22737 0.69178 0.0
C443 C 0.26959 0.21516 0.67586 0.0
C444 C 0.24408 0.21292 0.68471 0.0
C445 C 0.23818 0.22497 0.70816 0.0
C446 C 0.31663 0.23025 0.68306 0.0
C447 C 0.22268 0.19961 0.6685 0.0
C448 C 0.27511 0.22048 0.60451 0.0
C449 C 0.28173 0.19608 0.59644 0.0
C450 C 0.27193 0.22706 0.63039 0.0
C451 C 0.27493 0.20858 0.64866 0.0
C452 C 0.28217 0.18403 0.64071 0.0
C453 C 0.28574 0.17812 0.6146 0.0
C454 C 0.26475 0.25366 0.63808 0.0
C455 C 0.28518 0.16377 0.65962 0.0
H456 H 0.29778 0.24901 0.72708 0.0
H457 H 0.21837 0.22488 0.71392 0.0
H458 H 0.3224 0.21194 0.67434 0.0
H459 H 0.31857 0.24463 0.66825 0.0
H460 H 0.33 0.23668 0.69897 0.0
H461 H 0.20493 0.1958 0.67964 0.0
H462 H 0.21838 0.21182 0.65266 0.0
H463 H 0.22837 0.1812 0.65992 0.0
H464 H 0.27221 0.23446 0.59051 0.0
H465 H 0.29067 0.15916 0.60834 0.0
H466 H 0.2784 0.26282 0.65264 0.0
H467 H 0.24548 0.2525 0.64677 0.0
H468 H 0.26459 0.26617 0.62165 0.0
H469 H 0.29803 0.17142 0.67551 0.0
H470 H 0.29293 0.14643 0.65067 0.0
H471 H 0.26632 0.15808 0.66803 0.0
C472 C 0.4824 0.57897 0.60804 0.0
C473 C 0.50882 0.57997 0.61236 0.0
C474 C 0.46511 0.57387 0.6278 0.0
C475 C 0.47457 0.56995 0.65244 0.0
C476 C 0.50123 0.57289 0.65728 0.0
C477 C 0.51808 0.57765 0.63709 0.0
C478 C 0.43685 0.57068 0.62182 0.0
C479 C 0.51204 0.56933 0.68341 0.0
C480 C 0.42944 0.56471 0.70879 0.0
C481 C 0.42635 0.5381 0.71089 0.0
C482 C 0.44488 0.57552 0.68965 0.0
C483 C 0.45705 0.55924 0.67207 0.0
C484 C 0.4532 0.53234 0.67363 0.0
C485 C 0.43808 0.52212 0.69314 0.0
C486 C 0.44883 0.60428 0.68873 0.0
C487 C 0.46549 0.5143 0.65496 0.0
H488 H 0.47525 0.58059 0.58885 0.0
H489 H 0.53854 0.5787 0.64044 0.0
H490 H 0.43005 0.55008 0.62186 0.0
H491 H 0.42594 0.58095 0.63656 0.0
H492 H 0.43245 0.57781 0.60287 0.0
H493 H 0.53271 0.57581 0.68485 0.0
H494 H 0.50163 0.58004 0.69824 0.0
H495 H 0.50958 0.54877 0.68762 0.0
H496 H 0.42048 0.57711 0.72259 0.0
H497 H 0.43556 0.50153 0.69459 0.0
H498 H 0.44446 0.61032 0.66938 0.0
H499 H 0.46918 0.61066 0.69284 0.0
H500 H 0.43675 0.61421 0.70274 0.0
H501 H 0.46052 0.51844 0.63513 0.0
H502 H 0.45944 0.49389 0.65799 0.0
H503 H 0.48659 0.51717 0.65689 0.0
C504 C 0.76092 0.27137 0.66213 0.0
C505 C 0.77136 0.28331 0.68475 0.0
C506 C 0.75585 0.28569 0.64114 0.0
C507 C 0.76148 0.31259 0.64277 0.0
C508 C 0.77116 0.32486 0.66584 0.0
C509 C 0.77596 0.31006 0.68657 0.0
C510 C 0.74551 0.27191 0.61687 0.0
C511 C 0.77735 0.3535 0.66831 0.0
C512 C 0.77823 0.34356 0.58074 0.0
C513 C 0.75542 0.35404 0.5746 0.0
C514 C 0.7805 0.33039 0.60305 0.0
C515 C 0.7594 0.32751 0.61966 0.0
C516 C 0.7364 0.33833 0.61381 0.0
C517 C 0.73468 0.35154 0.59132 0.0
C518 C 0.80541 0.31924 0.60868 0.0
C519 C 0.71351 0.33558 0.63109 0.0
H520 H 0.75758 0.25069 0.66048 0.0
H521 H 0.78363 0.31943 0.70415 0.0
H522 H 0.72856 0.28091 0.61001 0.0
H523 H 0.7602 0.27348 0.60176 0.0
H524 H 0.74003 0.25129 0.61942 0.0
H525 H 0.78277 0.36029 0.68812 0.0
H526 H 0.79344 0.35906 0.65553 0.0
H527 H 0.76072 0.36352 0.66229 0.0
H528 H 0.79439 0.34549 0.56798 0.0
H529 H 0.71699 0.35958 0.58669 0.0
H530 H 0.80219 0.29812 0.60941 0.0
H531 H 0.81292 0.32673 0.62761 0.0
H532 H 0.8202 0.32374 0.59412 0.0
H533 H 0.70694 0.31502 0.63228 0.0
H534 H 0.69734 0.34586 0.62429 0.0
H535 H 0.71884 0.34308 0.65068 0.0
C536 C 0.52584 0.96521 0.59258 0.0
C537 C 0.49954 0.96653 0.59625 0.0
C538 C 0.54312 0.97008 0.61301 0.0
C539 C 0.53378 0.97634 0.6376 0.0
C540 C 0.50712 0.97623 0.64162 0.0
C541 C 0.49032 0.97142 0.62085 0.0
C542 C 0.57141 0.97008 0.60797 0.0
C543 C 0.4964 0.9826 0.66761 0.0
C544 C 0.57583 0.98026 0.69694 0.0
C545 C 0.58122 0.00682 0.70054 0.0
C546 C 0.56103 0.9698 0.676 0.0
C547 C 0.55172 0.98635 0.65832 0.0
C548 C 0.55818 0.01305 0.66129 0.0
C549 C 0.57274 0.02295 0.6824 0.0
C550 C 0.55447 0.94123 0.6734 0.0
C551 C 0.54888 0.03134 0.64268 0.0
H552 H 0.53301 0.96153 0.57353 0.0
H553 H 0.46993 0.97202 0.62375 0.0
H554 H 0.58025 0.99007 0.60921 0.0
H555 H 0.58083 0.95945 0.62257 0.0
H556 H 0.57537 0.96142 0.5888 0.0
H557 H 0.47527 0.97889 0.66809 0.0
H558 H 0.50488 0.97125 0.68222 0.0
H559 H 0.50144 0.00314 0.67298 0.0
H560 H 0.58235 0.96775 0.71095 0.0
H561 H 0.5771 0.04349 0.68494 0.0
H562 H 0.55845 0.93381 0.65379 0.0
H563 H 0.53373 0.93693 0.67677 0.0
H564 H 0.56529 0.93082 0.68717 0.0
H565 H 0.55402 0.02537 0.62293 0.0
H566 H 0.55701 0.05136 0.64683 0.0
H567 H 0.52773 0.03095 0.64346 0.0
C568 C 0.85681 0.26126 0.73897 0.0
C569 C 0.83386 0.26404 0.75188 0.0
C570 C 0.88016 0.2633 0.7523 0.0
C571 C 0.88036 0.26866 0.77901 0.0
C572 C 0.85724 0.27263 0.79186 0.0
C573 C 0.83419 0.26996 0.77814 0.0
C574 C 0.90438 0.25854 0.73806 0.0
C575 C 0.85672 0.27887 0.82024 0.0
C576 C 0.93118 0.24709 0.82239 0.0
C577 C 0.94637 0.27001 0.82763 0.0
C578 C 0.91041 0.2461 0.80544 0.0
C579 C 0.9044 0.2687 0.79394 0.0
C580 C 0.92019 0.29168 0.79847 0.0
C581 C 0.94119 0.292 0.8151 0.0
C582 C 0.8943 0.22108 0.80063 0.0
C583 C 0.91414 0.31624 0.78687 0.0
H584 H 0.85633 0.2564 0.71864 0.0
H585 H 0.81629 0.27206 0.78798 0.0
H586 H 0.91927 0.27447 0.74225 0.0
H587 H 0.91194 0.24081 0.74453 0.0
H588 H 0.90121 0.2564 0.71711 0.0
H589 H 0.83748 0.28343 0.8269 0.0
H590 H 0.86246 0.26234 0.83061 0.0
H591 H 0.87063 0.29543 0.82542 0.0
H592 H 0.93529 0.23 0.83186 0.0
H593 H 0.95282 0.3098 0.81919 0.0
H594 H 0.89151 0.21684 0.77985 0.0
H595 H 0.87513 0.22256 0.80913 0.0
H596 H 0.90303 0.20478 0.80893 0.0
H597 H 0.91122 0.31316 0.76599 0.0
H598 H 0.92949 0.3319 0.79053 0.0
H599 H 0.89606 0.3225 0.79499 0.0
C600 C 0.47438 0.8971 0.52064 0.0
C601 C 0.4684 0.92153 0.51412 0.0
C602 C 0.47802 0.87786 0.50183 0.0
C603 C 0.47484 0.88288 0.47586 0.0
C604 C 0.46801 0.90716 0.4691 0.0
C605 C 0.46522 0.92631 0.48828 0.0
C606 C 0.48563 0.85226 0.50976 0.0
C607 C 0.46387 0.913 0.44161 0.0
C608 C 0.50724 0.84128 0.42669 0.0
C609 C 0.48747 0.8225 0.4201 0.0
C610 C 0.50335 0.86121 0.44472 0.0
C611 C 0.47892 0.8627 0.4558 0.0
C612 C 0.45864 0.84431 0.44844 0.0
C613 C 0.46327 0.82419 0.43094 0.0
C614 C 0.52557 0.88014 0.45256 0.0
C615 C 0.43216 0.84569 0.4593 0.0
H616 H 0.47633 0.89296 0.54052 0.0
H617 H 0.46102 0.94519 0.48291 0.0
H618 H 0.47097 0.83683 0.50328 0.0
H619 H 0.5039 0.84798 0.50057 0.0
H620 H 0.48798 0.85167 0.53075 0.0
H621 H 0.4571 0.93231 0.43966 0.0
H622 H 0.48198 0.91192 0.43093 0.0
H623 H 0.44964 0.89851 0.43249 0.0
H624 H 0.52601 0.83985 0.41844 0.0
H625 H 0.4479 0.80978 0.42566 0.0
H626 H 0.52955 0.87904 0.47322 0.0
H627 H 0.52077 0.89994 0.44948 0.0
H628 H 0.54323 0.87656 0.44182 0.0
H629 H 0.43258 0.84286 0.48008 0.0
H630 H 0.4181 0.83099 0.45019 0.0
H631 H 0.42545 0.8649 0.45675 0.0
C632 C 0.17631 0.25048 0.7832 0.0
C633 C 0.19899 0.25995 0.79578 0.0
C634 C 0.15271 0.25054 0.79565 0.0
C635 C 0.15186 0.26032 0.82123 0.0
C636 C 0.17491 0.26775 0.83467 0.0
C637 C 0.19824 0.26749 0.82175 0.0
C638 C 0.12857 0.24231 0.78068 0.0
C639 C 0.17486 0.27801 0.86204 0.0
C640 C 0.09437 0.29647 0.83859 0.0
C641 C 0.07932 0.27856 0.85217 0.0
C642 C 0.11808 0.29075 0.8287 0.0
C643 C 0.12705 0.2665 0.83249 0.0
C644 C 0.11217 0.24842 0.8465 0.0
C645 C 0.08842 0.25466 0.85619 0.0
C646 C 0.13341 0.31062 0.8139 0.0
C647 C 0.12118 0.22243 0.85095 0.0
H648 H 0.17675 0.24478 0.76309 0.0
H649 H 0.2158 0.2745 0.83162 0.0
H650 H 0.11518 0.23008 0.79207 0.0
H651 H 0.1188 0.2595 0.77614 0.0
H652 H 0.13256 0.23164 0.76252 0.0
H653 H 0.19419 0.27903 0.87088 0.0
H654 H 0.16824 0.29758 0.86282 0.0
H655 H 0.16146 0.26592 0.87355 0.0
H656 H 0.08752 0.31498 0.83544 0.0
H657 H 0.07688 0.24072 0.86668 0.0
H658 H 0.13643 0.30296 0.79415 0.0
H659 H 0.15254 0.31517 0.82283 0.0
H660 H 0.12387 0.32866 0.81296 0.0
H661 H 0.12308 0.21165 0.83243 0.0
H662 H 0.10785 0.21095 0.86314 0.0
H663 H 0.14035 0.22459 0.86012 0.0
C664 C 0.55677 0.6232 0.51348 0.0
C665 C 0.53597 0.61464 0.5285 0.0
C666 C 0.55354 0.63914 0.49324 0.0
C667 C 0.52909 0.64732 0.48834 0.0
C668 C 0.50812 0.63915 0.50362 0.0
C669 C 0.51173 0.62262 0.52321 0.0
C670 C 0.57625 0.64713 0.47703 0.0
C671 C 0.4818 0.64783 0.49928 0.0
C672 C 0.52166 0.7076 0.45316 0.0
C673 C 0.51205 0.69737 0.42964 0.0
C674 C 0.52817 0.6915 0.47224 0.0
C675 C 0.52524 0.66462 0.46737 0.0
C676 C 0.51662 0.65431 0.44309 0.0
C677 C 0.50978 0.67088 0.42454 0.0
C678 C 0.53684 0.70323 0.49799 0.0
C679 C 0.51372 0.62577 0.43705 0.0
H680 H 0.57567 0.61753 0.51756 0.0
H681 H 0.49536 0.61571 0.53416 0.0
H682 H 0.57202 0.64148 0.45671 0.0
H683 H 0.58009 0.66826 0.47842 0.0
H684 H 0.5938 0.6384 0.4828 0.0
H685 H 0.46777 0.64058 0.51354 0.0
H686 H 0.48266 0.66906 0.5002 0.0
H687 H 0.47473 0.64107 0.47998 0.0
H688 H 0.52308 0.72818 0.45698 0.0
H689 H 0.50216 0.66317 0.40628 0.0
H690 H 0.55495 0.69568 0.50385 0.0
H691 H 0.5223 0.69791 0.51251 0.0
H692 H 0.53976 0.72445 0.4981 0.0
H693 H 0.53143 0.61706 0.44228 0.0
H694 H 0.50946 0.62101 0.41655 0.0
H695 H 0.49795 0.61687 0.44848 0.0
C696 C 0.8361 0.82382 0.76954 0.0
C697 C 0.8429 0.82974 0.79509 0.0
C698 C 0.85477 0.81936 0.7512 0.0
C699 C 0.88084 0.82123 0.75859 0.0
C700 C 0.88782 0.82737 0.78436 0.0
C701 C 0.8687 0.83137 0.80238 0.0
C702 C 0.84658 0.81255 0.72394 0.0
C703 C 0.91546 0.82994 0.79284 0.0
C704 C 0.92649 0.78889 0.71405 0.0
C705 C 0.93562 0.80928 0.69942 0.0
C706 C 0.90896 0.79258 0.73375 0.0
C707 C 0.90077 0.8173 0.73914 0.0
C708 C 0.91071 0.83813 0.72509 0.0
C709 C 0.92786 0.83383 0.70526 0.0
C710 C 0.89853 0.76987 0.74819 0.0
C711 C 0.90275 0.86486 0.73057 0.0
H712 H 0.8161 0.82225 0.76401 0.0
H713 H 0.87392 0.8361 0.82215 0.0
H714 H 0.85509 0.82723 0.71129 0.0
H715 H 0.85367 0.79397 0.71751 0.0
H716 H 0.82547 0.81115 0.72151 0.0
H717 H 0.91765 0.83473 0.81361 0.0
H718 H 0.92433 0.81181 0.78826 0.0
H719 H 0.92624 0.84513 0.78234 0.0
H720 H 0.93236 0.76987 0.70954 0.0
H721 H 0.93506 0.84972 0.69417 0.0
H722 H 0.87764 0.76638 0.74475 0.0
H723 H 0.90141 0.77387 0.76899 0.0
H724 H 0.90771 0.75216 0.74245 0.0
H725 H 0.88208 0.8653 0.72632 0.0
H726 H 0.91359 0.87924 0.71909 0.0
H727 H 0.90564 0.87056 0.75108 0.0
C728 C 0.04797 0.98433 0.54716 0.0
C729 C 0.04119 0.9818 0.52126 0.0
C730 C 0.04264 0.964 0.56319 0.0
C731 C 0.03039 0.94064 0.55296 0.0
C732 C 0.02446 0.93769 0.52661 0.0
C733 C 0.02985 0.95836 0.51109 0.0
C734 C 0.04909 0.96787 0.59122 0.0
C735 C 0.0116 0.91299 0.51496 0.0
C736 C 0.02726 0.87941 0.58879 0.0
C737 C 0.00199 0.87815 0.59749 0.0
C738 C 0.03721 0.90015 0.57495 0.0
C739 C 0.02155 0.92007 0.57003 0.0
C740 C 0.99649 0.91947 0.57992 0.0
C741 C 0.98699 0.89846 0.59342 0.0
C742 C 0.064 0.90017 0.5646 0.0
C743 C 0.97931 0.94051 0.57535 0.0
H744 H 0.05666 0.0025 0.55505 0.0
H745 H 0.02501 0.95628 0.49096 0.0
H746 H 0.03119 0.96791 0.60239 0.0
H747 H 0.05964 0.95189 0.59764 0.0
H748 H 0.06078 0.9862 0.59567 0.0
H749 H 0.01016 0.91314 0.49386 0.0
H750 H 0.02229 0.89657 0.51999 0.0
H751 H 0.99204 0.90975 0.52274 0.0
H752 H 0.0389 0.86372 0.59188 0.0
H753 H 0.96752 0.8977 0.60035 0.0
H754 H 0.07495 0.91881 0.56937 0.0
H755 H 0.06319 0.8976 0.54351 0.0
H756 H 0.07451 0.88463 0.57216 0.0
H757 H 0.98918 0.95947 0.58106 0.0
H758 H 0.96109 0.93813 0.58602 0.0
H759 H 0.97473 0.94062 0.55472 0.0
C760 C 0.16637 0.72909 0.71163 0.0
C761 C 0.16235 0.7267 0.73783 0.0
C762 C 0.14633 0.73455 0.69547 0.0
C763 C 0.12191 0.73794 0.70588 0.0
C764 C 0.11762 0.73472 0.73214 0.0
C765 C 0.13777 0.72884 0.74768 0.0
C766 C 0.15142 0.73731 0.66744 0.0
C767 C 0.09187 0.73815 0.74405 0.0
C768 C 0.07412 0.77817 0.67626 0.0
C769 C 0.05527 0.75925 0.66756 0.0
C770 C 0.09673 0.77149 0.68759 0.0
C771 C 0.10068 0.74529 0.68975 0.0
C772 C 0.08248 0.72616 0.67933 0.0
C773 C 0.05985 0.73337 0.66862 0.0
C774 C 0.11554 0.79244 0.69877 0.0
C775 C 0.08624 0.69805 0.68074 0.0
H776 H 0.18533 0.72752 0.70393 0.0
H777 H 0.13438 0.72638 0.76779 0.0
H778 H 0.13695 0.72518 0.65584 0.0
H779 H 0.14978 0.75744 0.66259 0.0
H780 H 0.17075 0.73192 0.66198 0.0
H781 H 0.0918 0.73513 0.76483 0.0
H782 H 0.08636 0.75776 0.74112 0.0
H783 H 0.07703 0.7245 0.73472 0.0
H784 H 0.07064 0.79818 0.67543 0.0
H785 H 0.04545 0.71868 0.66155 0.0
H786 H 0.13524 0.78926 0.69252 0.0
H787 H 0.11529 0.79209 0.71988 0.0
H788 H 0.111 0.81173 0.69327 0.0
H789 H 0.10588 0.69417 0.67486 0.0
H790 H 0.07233 0.68582 0.66851 0.0
H791 H 0.0838 0.69237 0.70071 0.0
C792 C 0.92648 0.67489 0.47346 0.0
C793 C 0.91332 0.65279 0.48247 0.0
C794 C 0.93165 0.69689 0.48955 0.0
C795 C 0.9231 0.69681 0.51507 0.0
C796 C 0.90759 0.67557 0.52344 0.0
C797 C 0.90308 0.65372 0.50713 0.0
C798 C 0.94819 0.71923 0.47991 0.0
C799 C 0.89774 0.67491 0.55041 0.0
C800 C 0.96539 0.72911 0.56749 0.0
C801 C 0.95273 0.75094 0.57406 0.0
C802 C 0.95641 0.71196 0.54761 0.0
C803 C 0.93397 0.71655 0.53417 0.0
C804 C 0.92141 0.73888 0.54024 0.0
C805 C 0.93106 0.75597 0.56008 0.0
C806 C 0.97061 0.68853 0.54147 0.0
C807 C 0.8973 0.74419 0.52647 0.0
H808 H 0.93388 0.67457 0.45422 0.0
H809 H 0.89304 0.63677 0.51445 0.0
H810 H 0.94081 0.73767 0.48634 0.0
H811 H 0.9678 0.7191 0.4878 0.0
H812 H 0.94938 0.71831 0.45877 0.0
H813 H 0.88259 0.65909 0.55259 0.0
H814 H 0.91373 0.67212 0.56357 0.0
H815 H 0.88996 0.69329 0.55636 0.0
H816 H 0.98234 0.72532 0.57802 0.0
H817 H 0.92122 0.77285 0.56514 0.0
H818 H 0.97526 0.6872 0.52088 0.0
H819 H 0.95833 0.67102 0.54567 0.0
H820 H 0.98864 0.6887 0.55261 0.0
H821 H 0.89989 0.74219 0.50553 0.0
H822 H 0.89144 0.76366 0.53151 0.0
H823 H 0.88154 0.72994 0.53147 0.0
C824 C 0.81394 0.83057 0.28233 0.0
C825 C 0.78915 0.82753 0.27224 0.0
C826 C 0.82708 0.85502 0.28513 0.0
C827 C 0.81522 0.87654 0.27699 0.0
C828 C 0.79032 0.87329 0.26631 0.0
C829 C 0.77748 0.84882 0.26432 0.0
C830 C 0.85341 0.8579 0.29706 0.0
C831 C 0.77721 0.89565 0.25696 0.0
C832 C 0.83346 0.94404 0.30342 0.0
C833 C 0.84868 0.95413 0.28385 0.0
C834 C 0.82351 0.91839 0.30198 0.0
C835 C 0.82837 0.90267 0.28014 0.0
C836 C 0.84405 0.91263 0.26048 0.0
C837 C 0.8543 0.93822 0.26273 0.0
C838 C 0.80729 0.90829 0.32356 0.0
C839 C 0.84913 0.89659 0.23665 0.0
H840 H 0.82283 0.81392 0.28832 0.0
H841 H 0.75835 0.84619 0.25622 0.0
H842 H 0.86739 0.86684 0.28371 0.0
H843 H 0.85342 0.87082 0.31446 0.0
H844 H 0.85994 0.83925 0.30231 0.0
H845 H 0.75831 0.88961 0.24803 0.0
H846 H 0.77436 0.90958 0.27309 0.0
H847 H 0.78938 0.90579 0.24279 0.0
H848 H 0.82938 0.95621 0.31995 0.0
H849 H 0.86604 0.94602 0.24756 0.0
H850 H 0.81422 0.89021 0.32987 0.0
H851 H 0.78726 0.90388 0.3169 0.0
H852 H 0.80738 0.92223 0.34021 0.0
H853 H 0.85679 0.87841 0.24165 0.0
H854 H 0.86287 0.90674 0.2238 0.0
H855 H 0.83094 0.8915 0.22606 0.0
C856 C 0.74077 0.1747 0.30102 0.0
C857 C 0.73205 0.1855 0.27901 0.0
C858 C 0.7567 0.15462 0.29947 0.0
C859 C 0.76317 0.14403 0.27529 0.0
C860 C 0.75347 0.15384 0.25294 0.0
C861 C 0.73836 0.17475 0.25503 0.0
C862 C 0.76692 0.14501 0.32384 0.0
C863 C 0.75919 0.14236 0.22686 0.0
C864 C 0.82313 0.10856 0.27619 0.0
C865 C 0.8129 0.08402 0.28178 0.0
C866 C 0.80705 0.1282 0.27268 0.0
C867 C 0.78019 0.12274 0.27386 0.0
C868 C 0.76985 0.09738 0.27736 0.0
C869 C 0.78638 0.07842 0.28189 0.0
C870 C 0.81886 0.15513 0.26982 0.0
C871 C 0.74135 0.09055 0.27775 0.0
H872 H 0.73527 0.18202 0.31968 0.0
H873 H 0.73186 0.1829 0.23787 0.0
H874 H 0.75967 0.12476 0.32587 0.0
H875 H 0.78809 0.14572 0.32324 0.0
H876 H 0.76132 0.15641 0.34102 0.0
H877 H 0.74845 0.15074 0.21153 0.0
H878 H 0.77992 0.14556 0.22293 0.0
H879 H 0.75429 0.12134 0.22613 0.0
H880 H 0.8437 0.11282 0.27629 0.0
H881 H 0.77855 0.05929 0.28598 0.0
H882 H 0.8153 0.167 0.28734 0.0
H883 H 0.80995 0.16398 0.25366 0.0
H884 H 0.83982 0.15573 0.26672 0.0
H885 H 0.7334 0.09801 0.29592 0.0
H886 H 0.73654 0.0695 0.27605 0.0
H887 H 0.73181 0.09946 0.26198 0.0
C888 C 0.36576 0.03585 0.97515 0.0
C889 C 0.38985 0.02952 0.96658 0.0
C890 C 0.3461 0.01684 0.97933 0.0
C891 C 0.35027 0.99085 0.97392 0.0
C892 C 0.37439 0.98422 0.9651 0.0
C893 C 0.39403 0.0036 0.96195 0.0
C894 C 0.32075 0.02462 0.98928 0.0
C895 C 0.3793 0.9567 0.95858 0.0
C896 C 0.3049 0.94019 0.00266 0.0
C897 C 0.28679 0.93507 0.98305 0.0
C898 C 0.32583 0.95827 -6e-05 0.0
C899 C 0.32903 0.97076 0.97675 0.0
C900 C 0.31125 0.96489 0.95656 0.0
C901 C 0.29007 0.94741 0.96013 0.0
C902 C 0.34399 0.96463 0.02213 0.0
C903 C 0.31446 0.97727 0.9313 0.0
H904 H 0.36205 0.05576 0.97832 0.0
H905 H 0.41266 -0.00165 0.95587 0.0
H906 H 0.30564 0.01973 0.97463 0.0
H907 H 0.31518 0.01392 0.00637 0.0
H908 H 0.32129 0.04546 0.99442 0.0
H909 H 0.39904 0.95479 0.95162 0.0
H910 H 0.37618 0.94514 0.97556 0.0
H911 H 0.36561 0.94843 0.94364 0.0
H912 H 0.30221 0.93072 0.02044 0.0
H913 H 0.27616 0.94319 0.94488 0.0
H914 H 0.34353 0.98512 0.02836 0.0
H915 H 0.36386 0.96175 0.01628 0.0
H916 H 0.33911 0.95278 0.03865 0.0
H917 H 0.31263 0.99814 0.93395 0.0
H918 H 0.30004 0.96912 0.91694 0.0
H919 H 0.33382 0.97481 0.92363 0.0
C920 C 0.25524 0.39077 0.35187 0.0
C921 C 0.26483 0.3807 0.32885 0.0
C922 C 0.23625 0.40805 0.35208 0.0
C923 C 0.22736 0.41646 0.32875 0.0
C924 C 0.23655 0.40619 0.30545 0.0
C925 C 0.25469 0.38804 0.30578 0.0
C926 C 0.22633 0.41796 0.37734 0.0
C927 C 0.22809 0.41523 0.28016 0.0
C928 C 0.16775 0.45291 0.32639 0.0
C929 C 0.1784 0.47825 0.32935 0.0
C930 C 0.18339 0.43244 0.32666 0.0
C931 C 0.21026 0.43766 0.32881 0.0
C932 C 0.22102 0.46333 0.33117 0.0
C933 C 0.20489 0.48329 0.33196 0.0
C934 C 0.1712 0.40532 0.32516 0.0
C935 C 0.2496 0.46976 0.33258 0.0
H936 H 0.26302 0.38579 0.36989 0.0
H937 H 0.26118 0.37992 0.28782 0.0
H938 H 0.23363 0.43826 0.38105 0.0
H939 H 0.20514 0.41723 0.37693 0.0
H940 H 0.23232 0.40682 0.39343 0.0
H941 H 0.23648 0.40479 0.26371 0.0
H942 H 0.20698 0.41277 0.27838 0.0
H943 H 0.2339 0.43597 0.27907 0.0
H944 H 0.1472 0.44914 0.3245 0.0
H945 H 0.21306 0.50297 0.33395 0.0
H946 H 0.1768 0.39522 0.3421 0.0
H947 H 0.17812 0.39468 0.30812 0.0
H948 H 0.15001 0.40454 0.3242 0.0
H949 H 0.25746 0.4622 0.35003 0.0
H950 H 0.25489 0.49072 0.33284 0.0
H951 H 0.25891 0.46052 0.31599 0.0
C952 C 0.11207 0.0598 0.51236 0.0
C953 C 0.0983 0.05442 0.48952 0.0
C954 C 0.13629 0.07319 0.51258 0.0
C955 C 0.14676 0.08191 0.48949 0.0
C956 C 0.13286 0.07695 0.46642 0.0
C957 C 0.1089 0.06302 0.46667 0.0
C958 C 0.15071 0.07791 0.53754 0.0
C959 C 0.14333 0.08631 0.4415 0.0
C960 C 0.1989 0.13611 0.49732 0.0
C961 C 0.22096 0.12299 0.49428 0.0
C962 C 0.17455 0.12309 0.49478 0.0
C963 C 0.1723 0.09627 0.48963 0.0
C964 C 0.19449 0.083 0.48599 0.0
C965 C 0.21861 0.0966 0.48811 0.0
C966 C 0.15126 0.13794 0.49823 0.0
C967 C 0.19279 0.05432 0.48087 0.0
H968 H 0.10386 0.05363 0.53016 0.0
H969 H 0.09863 0.05858 0.44886 0.0
H970 H 0.16959 0.06992 0.53599 0.0
H971 H 0.15432 0.09879 0.542 0.0
H972 H 0.14017 0.06917 0.55367 0.0
H973 H 0.12972 0.08159 0.42539 0.0
H974 H 0.14784 0.10737 0.44313 0.0
H975 H 0.16142 0.0776 0.43697 0.0
H976 H 0.20066 0.15657 0.50185 0.0
H977 H 0.23565 0.08638 0.48587 0.0
H978 H 0.14081 0.13197 0.51555 0.0
H979 H 0.138 0.13372 0.48178 0.0
H980 H 0.15628 0.15894 0.50014 0.0
H981 H 0.18399 0.04473 0.49743 0.0
H982 H 0.21182 0.04707 0.47739 0.0
H983 H 0.18034 0.04872 0.46408 0.0
C984 C 0.72801 0.20832 0.74394 0.0
C985 C 0.75401 0.20746 0.7385 0.0
C986 C 0.71306 0.18615 0.75031 0.0
C987 C 0.72439 0.1626 0.7508 0.0
C988 C 0.75062 0.16165 0.74513 0.0
C989 C 0.76516 0.18415 0.7392 0.0
C990 C 0.68519 0.18791 0.75653 0.0
C991 C 0.76325 0.13681 0.74501 0.0
C992 C 0.6914 0.10827 0.78673 0.0
C993 C 0.67795 0.09394 0.76701 0.0
C994 C 0.70657 0.13077 0.78176 0.0
C995 C 0.70862 0.13878 0.75645 0.0
C996 C 0.69558 0.12403 0.73641 0.0
C997 C 0.68026 0.10189 0.74196 0.0
C998 C 0.72004 0.14621 0.80362 0.0
C999 C 0.69768 0.13171 0.70911 0.0
H1000 H 0.71949 0.22643 0.74358 0.0
H1001 H 0.78525 0.18347 0.73472 0.0
H1002 H 0.67309 0.17565 0.74264 0.0
H1003 H 0.68107 0.18069 0.77571 0.0
H1004 H 0.67954 0.20783 0.75615 0.0
H1005 H 0.78391 0.13942 0.7404 0.0
H1006 H 0.76117 0.12836 0.7639 0.0
H1007 H 0.7537 0.1228 0.73078 0.0
H1008 H 0.68954 0.10229 0.80613 0.0
H1009 H 0.67004 0.09078 0.72661 0.0
H1010 H 0.71347 0.16579 0.80491 0.0
H1011 H 0.74093 0.14823 0.80023 0.0
H1012 H 0.71652 0.13733 0.82218 0.0
H1013 H 0.69026 0.15072 0.70733 0.0
H1014 H 0.68691 0.11771 0.69567 0.0
H1015 H 0.71803 0.13348 0.7033 0.0
C1016 C 0.40472 0.99574 0.54028 0.0
C1017 C 0.43058 0.00165 0.54643 0.0
C1018 C 0.38878 0.01516 0.5355 0.0
C1019 C 0.3991 0.04102 0.53653 0.0
C1020 C 0.42513 0.04709 0.54311 0.0
C1021 C 0.44053 0.02732 0.54812 0.0
C1022 C 0.36102 0.00798 0.52888 0.0
C1023 C 0.43693 0.07438 0.54403 0.0
C1024 C 0.36534 0.08613 0.49643 0.0
C1025 C 0.35131 0.09921 0.5148 0.0
C1026 C 0.38133 0.06751 0.50336 0.0
C1027 C 0.38304 0.06154 0.52925 0.0
C1028 C 0.36919 0.0749 0.54796 0.0
C1029 C 0.35361 0.09376 0.54052 0.0
C1030 C 0.39614 0.05398 0.4829 0.0
C1031 C 0.37036 0.06884 0.57571 0.0
H1032 H 0.39699 0.97589 0.53919 0.0
H1033 H 0.46062 0.03188 0.55261 0.0
H1034 H 0.34858 0.019 0.54157 0.0
H1035 H 0.35715 0.01298 0.50904 0.0
H1036 H 0.35559 0.98722 0.53056 0.0
H1037 H 0.45714 0.07598 0.55066 0.0
H1038 H 0.43623 0.08206 0.52476 0.0
H1039 H 0.42589 0.08666 0.55692 0.0
H1040 H 0.36374 0.09037 0.47653 0.0
H1041 H 0.34268 0.10371 0.55476 0.0
H1042 H 0.38992 0.03322 0.48183 0.0
H1043 H 0.41683 0.05597 0.4877 0.0
H1044 H 0.39349 0.06161 0.46381 0.0
H1045 H 0.36318 0.04859 0.57796 0.0
H1046 H 0.35885 0.08134 0.58795 0.0
H1047 H 0.39044 0.0711 0.58263 0.0
C1048 C 0.60042 0.54389 0.5523 0.0
C1049 C 0.57554 0.53883 0.56134 0.0
C1050 C 0.61606 0.52396 0.54685 0.0
C1051 C 0.60648 0.49833 0.55035 0.0
C1052 C 0.58164 0.49316 0.56023 0.0
C1053 C 0.56646 0.51351 0.56564 0.0
C1054 C 0.64254 0.53026 0.53655 0.0
C1055 C 0.57073 0.4661 0.56407 0.0
C1056 C 0.63712 0.45046 0.50661 0.0
C1057 C 0.65576 0.44197 0.52257 0.0
C1058 C 0.62003 0.46777 0.51583 0.0
C1059 C 0.62176 0.47701 0.54161 0.0
C1060 C 0.63956 0.4674 0.55821 0.0
C1061 C 0.65632 0.44984 0.54849 0.0
C1062 C 0.60106 0.47726 0.4976 0.0
C1063 C 0.64193 0.47681 0.58582 0.0
H1064 H 0.60757 0.56349 0.54928 0.0
H1065 H 0.54712 0.50951 0.57241 0.0
H1066 H 0.6569 0.52138 0.54798 0.0
H1067 H 0.64364 0.52224 0.51667 0.0
H1068 H 0.64776 0.55123 0.53668 0.0
H1069 H 0.55216 0.46551 0.57419 0.0
H1070 H 0.56779 0.45561 0.54527 0.0
H1071 H 0.5843 0.45577 0.57508 0.0
H1072 H 0.63646 0.44424 0.4866 0.0
H1073 H 0.67075 0.44338 0.56089 0.0
H1074 H 0.60623 0.49778 0.4944 0.0
H1075 H 0.58159 0.47573 0.50582 0.0
H1076 H 0.60053 0.46641 0.47886 0.0
H1077 H 0.65006 0.49705 0.58699 0.0
H1078 H 0.65448 0.46532 0.59686 0.0
H1079 H 0.62286 0.47623 0.59491 0.0
C1080 C 0.71412 0.29051 0.32799 0.0
C1081 C 0.71038 0.26388 0.32908 0.0
C1082 C 0.7164 0.30624 0.35043 0.0
C1083 C 0.71428 0.29496 0.37437 0.0
C1084 C 0.71027 0.26805 0.37549 0.0
C1085 C 0.70861 0.2528 0.35278 0.0
C1086 C 0.72115 0.33485 0.34856 0.0
C1087 C 0.70742 0.25539 0.40063 0.0
C1088 C 0.7422 0.33252 0.43289 0.0
C1089 C 0.72065 0.34333 0.44304 0.0
C1090 C 0.7404 0.31678 0.41048 0.0
C1091 C 0.71637 0.31131 0.39828 0.0
C1092 C 0.6944 0.32155 0.40883 0.0
C1093 C 0.69685 0.33769 0.43098 0.0
C1094 C 0.7643 0.3065 0.39955 0.0
C1095 C 0.66836 0.31562 0.39662 0.0
H1096 H 0.71548 0.29897 0.30958 0.0
H1097 H 0.70535 0.23217 0.35351 0.0
H1098 H 0.70526 0.34458 0.35759 0.0
H1099 H 0.73893 0.34192 0.35906 0.0
H1100 H 0.72295 0.3405 0.3285 0.0
H1101 H 0.70395 0.23424 0.39813 0.0
H1102 H 0.7249 0.26003 0.41243 0.0
H1103 H 0.69126 0.26288 0.41143 0.0
H1104 H 0.76069 0.33701 0.44201 0.0
H1105 H 0.68013 0.34593 0.43883 0.0
H1106 H 0.76753 0.31325 0.38004 0.0
H1107 H 0.76203 0.28528 0.39793 0.0
H1108 H 0.78152 0.3126 0.41138 0.0
H1109 H 0.66839 0.32298 0.37719 0.0
H1110 H 0.65304 0.32423 0.40784 0.0
H1111 H 0.66373 0.29459 0.39458 0.0
C1112 C 0.49209 0.0736 0.92234 0.0
C1113 C 0.46669 0.06374 0.91783 0.0
C1114 C 0.51116 0.06987 0.90429 0.0
C1115 C 0.50494 0.05516 0.88149 0.0
C1116 C 0.47945 0.04505 0.87673 0.0
C1117 C 0.46054 0.0498 0.89478 0.0
C1118 C 0.53807 0.08141 0.90981 0.0
C1119 C 0.47225 0.02884 0.85281 0.0
C1120 C 0.55083 0.06197 0.82619 0.0
C1121 C 0.56617 0.04182 0.82973 0.0
C1122 C 0.53067 0.06647 0.84282 0.0
C1123 C 0.52536 0.04994 0.86296 0.0
C1124 C 0.54031 0.02907 0.86611 0.0
C1125 C 0.56084 0.0255 0.84966 0.0
C1126 C 0.51559 0.08935 0.83934 0.0
C1127 C 0.53477 0.01066 0.88696 0.0
H1128 H 0.49729 0.08388 0.94026 0.0
H1129 H 0.44096 0.04248 0.89081 0.0
H1130 H 0.55103 0.06597 0.91174 0.0
H1131 H 0.54516 0.09291 0.89373 0.0
H1132 H 0.53933 0.09389 0.92758 0.0
H1133 H 0.4516 0.02218 0.8521 0.0
H1134 H 0.47694 0.03986 0.83573 0.0
H1135 H 0.48352 0.01184 0.85167 0.0
H1136 H 0.55507 0.0747 0.81085 0.0
H1137 H 0.57256 0.00975 0.85222 0.0
H1138 H 0.51784 0.10259 0.85651 0.0
H1139 H 0.49495 0.08317 0.83724 0.0
H1140 H 0.52184 0.10003 0.82241 0.0
H1141 H 0.53794 0.02085 0.90587 0.0
H1142 H 0.54703 0.99439 0.88566 0.0
H1143 H 0.51444 0.00293 0.88601 0.0
C1144 C 0.28983 0.29748 0.37767 0.0
C1145 C 0.31114 0.31316 0.37026 0.0
C1146 C 0.29202 0.27959 0.39632 0.0
C1147 C 0.3161 0.27739 0.40786 0.0
C1148 C 0.33763 0.29342 0.40072 0.0
C1149 C 0.3349 0.31111 0.38195 0.0
C1150 C 0.26863 0.26275 0.40338 0.0
C1151 C 0.36354 0.29174 0.41277 0.0
C1152 C 0.31226 0.24497 0.47065 0.0
C1153 C 0.31579 0.21953 0.46283 0.0
C1154 C 0.31363 0.26433 0.45315 0.0
C1155 C 0.31858 0.25808 0.42722 0.0
C1156 C 0.32373 0.2328 0.4195 0.0
C1157 C 0.32235 0.21381 0.43743 0.0
C1158 C 0.30835 0.29116 0.46216 0.0
C1159 C 0.32919 0.22545 0.392 0.0
H1160 H 0.27153 0.29878 0.36843 0.0
H1161 H 0.35136 0.32339 0.37641 0.0
H1162 H 0.27189 0.24233 0.3993 0.0
H1163 H 0.26497 0.26526 0.42411 0.0
H1164 H 0.25127 0.26707 0.39281 0.0
H1165 H 0.37824 0.30596 0.40545 0.0
H1166 H 0.36235 0.29493 0.43376 0.0
H1167 H 0.36991 0.27229 0.40897 0.0
H1168 H 0.30741 0.24963 0.49029 0.0
H1169 H 0.32518 0.19424 0.43122 0.0
H1170 H 0.28974 0.29574 0.45427 0.0
H1171 H 0.32323 0.30531 0.45515 0.0
H1172 H 0.30762 0.29348 0.48328 0.0
H1173 H 0.31176 0.2267 0.38029 0.0
H1174 H 0.33521 0.20568 0.38956 0.0
H1175 H 0.34439 0.23893 0.38445 0.0
C1176 C 0.49349 0.50374 0.94445 0.0
C1177 C 0.51951 0.50597 0.93798 0.0
C1178 C 0.47451 0.50767 0.92655 0.0
C1179 C 0.48172 0.51491 0.90185 0.0
C1180 C 0.50791 0.51857 0.89558 0.0
C1181 C 0.52644 0.51361 0.91352 0.0
C1182 C 0.44675 0.50298 0.93375 0.0
C1183 C 0.51636 0.52685 0.86958 0.0
C1184 C 0.43765 0.49633 0.84563 0.0
C1185 C 0.42607 0.51903 0.84233 0.0
C1186 C 0.45517 0.49457 0.86545 0.0
C1187 C 0.46196 0.51636 0.88181 0.0
C1188 C 0.45037 0.53942 0.87853 0.0
C1189 C 0.43213 0.54035 0.85902 0.0
C1190 C 0.4665 0.4694 0.86879 0.0
C1191 C 0.45777 0.56324 0.8951 0.0
H1192 H 0.48784 0.49853 0.96343 0.0
H1193 H 0.54635 0.51503 0.908 0.0
H1194 H 0.43631 0.51994 0.93003 0.0
H1195 H 0.43768 0.48664 0.92179 0.0
H1196 H 0.44433 0.4986 0.95411 0.0
H1197 H 0.53729 0.53204 0.86885 0.0
H1198 H 0.51141 0.51108 0.85509 0.0
H1199 H 0.50626 0.54355 0.86419 0.0
H1200 H 0.43269 0.47976 0.83284 0.0
H1201 H 0.42323 0.55793 0.85629 0.0
H1202 H 0.46366 0.46346 0.88864 0.0
H1203 H 0.48739 0.4716 0.86541 0.0
H1204 H 0.45787 0.45386 0.85553 0.0
H1205 H 0.45477 0.55937 0.91548 0.0
H1206 H 0.44668 0.57951 0.89035 0.0
H1207 H 0.47842 0.56902 0.89276 0.0
C1208 C 0.76494 0.72116 0.21737 0.0
C1209 C 0.77042 0.74783 0.21843 0.0
C1210 C 0.7677 0.70649 0.19457 0.0
C1211 C 0.77616 0.71883 0.1724 0.0
C1212 C 0.78269 0.74557 0.17363 0.0
C1213 C 0.7796 0.75974 0.19656 0.0
C1214 C 0.76055 0.678 0.19395 0.0
C1215 C 0.79174 0.75947 0.15039 0.0
C1216 C 0.79782 0.68273 0.11285 0.0
C1217 C 0.77622 0.68274 0.09709 0.0
C1218 C 0.79786 0.69357 0.13788 0.0
C1219 C 0.77573 0.70447 0.14727 0.0
C1220 C 0.75356 0.70353 0.13177 0.0
C1221 C 0.75411 0.69276 0.10687 0.0
C1222 C 0.82185 0.69429 0.15389 0.0
C1223 C 0.72951 0.71479 0.14113 0.0
H1224 H 0.75809 0.71181 0.23428 0.0
H1225 H 0.78342 0.78038 0.19702 0.0
H1226 H 0.74307 0.67335 0.18214 0.0
H1227 H 0.77596 0.66748 0.18501 0.0
H1228 H 0.75685 0.67097 0.2133 0.0
H1229 H 0.79827 0.77985 0.15509 0.0
H1230 H 0.80768 0.74996 0.14119 0.0
H1231 H 0.77593 0.75877 0.13624 0.0
H1232 H 0.81494 0.67494 0.10539 0.0
H1233 H 0.73724 0.69259 0.0949 0.0
H1234 H 0.81737 0.68696 0.17294 0.0
H1235 H 0.83009 0.71439 0.15691 0.0
H1236 H 0.83652 0.68284 0.14477 0.0
H1237 H 0.72364 0.70696 0.15965 0.0
H1238 H 0.71337 0.71084 0.12739 0.0
H1239 H 0.73321 0.73584 0.14431 0.0
C1240 C 0.99491 0.08425 0.11548 0.0
C1241 C 0.99618 0.06266 0.09886 0.0
C1242 C 0.98053 0.08288 0.13794 0.0
C1243 C 0.96691 0.05943 0.14361 0.0
C1244 C 0.96719 0.03793 0.12623 0.0
C1245 C 0.982 0.03975 0.10414 0.0
C1246 C 0.98096 0.1061 0.15617 0.0
C1247 C 0.95263 0.01269 0.13142 0.0
C1248 C 0.95581 0.0421 0.21197 0.0
C1249 C 0.92994 0.0461 0.21525 0.0
C1250 C 0.96827 0.04738 0.18907 0.0
C1251 C 0.95441 0.0565 0.16876 0.0
C1252 C 0.92844 0.06125 0.17214 0.0
C1253 C 0.91653 0.05617 0.1955 0.0
C1254 C 0.99611 0.04248 0.18638 0.0
C1255 C 0.91302 0.07072 0.1508 0.0
H1256 H 0.00598 0.10194 0.11141 0.0
H1257 H 0.98275 0.02316 0.09108 0.0
H1258 H 0.96124 0.11 0.16173 0.0
H1259 H 0.99138 0.10239 0.17383 0.0
H1260 H 0.99044 0.12347 0.14786 0.0
H1261 H 0.95286 -0.00136 0.11489 0.0
H1262 H 0.96119 0.00436 0.1481 0.0
H1263 H 0.93248 0.01564 0.13617 0.0
H1264 H 0.96634 0.03458 0.22729 0.0
H1265 H 0.8965 0.05924 0.19797 0.0
H1266 H 0.00729 0.05974 0.17976 0.0
H1267 H 0.99812 0.0267 0.17183 0.0
H1268 H 0.00459 0.03717 0.20458 0.0
H1269 H 0.92302 0.08813 0.14315 0.0
H1270 H 0.89363 0.0752 0.15706 0.0
H1271 H 0.91102 0.0559 0.13493 0.0
C1272 C 0.29129 0.78226 0.15797 0.0
C1273 C 0.27372 0.77095 0.17501 0.0
C1274 C 0.28339 0.79781 0.13904 0.0
C1275 C 0.25714 0.8015 0.13644 0.0
C1276 C 0.2394 0.79103 0.15408 0.0
C1277 C 0.24796 0.77625 0.17341 0.0
C1278 C 0.30304 0.80921 0.12097 0.0
C1279 C 0.21118 0.79418 0.15167 0.0
C1280 C 0.2406 0.85218 0.09135 0.0
C1281 C 0.23824 0.83763 0.06827 0.0
C1282 C 0.24595 0.8406 0.1141 0.0
C1283 C 0.24817 0.81385 0.11361 0.0
C1284 C 0.24403 0.79895 0.0905 0.0
C1285 C 0.23961 0.81113 0.068 0.0
C1286 C 0.25091 0.8572 0.13821 0.0
C1287 C 0.24543 0.77027 0.08928 0.0
H1288 H 0.31115 0.77818 0.15865 0.0
H1289 H 0.23427 0.76832 0.18688 0.0
H1290 H 0.30056 0.79918 0.1019 0.0
H1291 H 0.30041 0.82973 0.11866 0.0
H1292 H 0.32289 0.80753 0.12765 0.0
H1293 H 0.20024 0.78707 0.16832 0.0
H1294 H 0.20787 0.81458 0.14963 0.0
H1295 H 0.20351 0.78336 0.13422 0.0
H1296 H 0.23981 0.87277 0.09133 0.0
H1297 H 0.23769 0.79998 0.05004 0.0
H1298 H 0.27158 0.85824 0.14302 0.0
H1299 H 0.24037 0.8488 0.15445 0.0
H1300 H 0.24538 0.87698 0.13616 0.0
H1301 H 0.26545 0.76583 0.0924 0.0
H1302 H 0.23875 0.76124 0.07059 0.0
H1303 H 0.23368 0.76146 0.10456 0.0
C1304 C 0.97364 0.46858 0.15556 0.0
C1305 C 0.98466 0.46256 0.132 0.0
C1306 C 0.98889 0.47396 0.17746 0.0
C1307 C 0.01577 0.4737 0.17553 0.0
C1308 C 0.02681 0.46618 0.15207 0.0
C1309 C 0.01108 0.46059 0.13058 0.0
C1310 C 0.97639 0.48149 0.20225 0.0
C1311 C 0.0554 0.46598 0.14914 0.0
C1312 C 0.05493 0.52277 0.21769 0.0
C1313 C 0.06442 0.50771 0.23624 0.0
C1314 C 0.0392 0.51181 0.19785 0.0
C1315 C 0.03245 0.48511 0.19669 0.0
C1316 C 0.04185 0.46971 0.2154 0.0
C1317 C 0.05797 0.4812 0.23492 0.0
C1318 C 0.02989 0.52888 0.17806 0.0
C1319 C 0.03472 0.44122 0.21486 0.0
H1320 H 0.95316 0.46978 0.1567 0.0
H1321 H 0.01966 0.45611 0.11232 0.0
H1322 H 0.9844 0.47162 0.21826 0.0
H1323 H 0.98033 0.5024 0.20639 0.0
H1324 H 0.95535 0.47692 0.20157 0.0
H1325 H 0.06065 0.45651 0.13072 0.0
H1326 H 0.06423 0.48597 0.15003 0.0
H1327 H 0.06372 0.45603 0.16491 0.0
H1328 H 0.06 0.54326 0.2185 0.0
H1329 H 0.06519 0.46953 0.24932 0.0
H1330 H 0.0087 0.52783 0.178 0.0
H1331 H 0.03593 0.52223 0.1588 0.0
H1332 H 0.0373 0.54922 0.18152 0.0
H1333 H 0.01365 0.43745 0.21582 0.0
H1334 H 0.04349 0.43198 0.2309 0.0
H1335 H 0.0409 0.43209 0.19665 0.0
C1336 C 0.34856 0.76088 0.24704 0.0
C1337 C 0.34093 0.73935 0.23119 0.0
C1338 C 0.3712 0.76185 0.26141 0.0
C1339 C 0.38664 0.74095 0.25945 0.0
C1340 C 0.37979 0.71991 0.24218 0.0
C1341 C 0.35682 0.71924 0.22842 0.0
C1342 C 0.37775 0.78451 0.27982 0.0
C1343 C 0.39603 0.69753 0.23919 0.0
C1344 C 0.45259 0.75256 0.28967 0.0
C1345 C 0.44831 0.74237 0.31363 0.0
C1346 C 0.43296 0.75134 0.27134 0.0
C1347 C 0.40845 0.74003 0.27732 0.0
C1348 C 0.40429 0.72887 0.30109 0.0
C1349 C 0.42433 0.72999 0.31888 0.0
C1350 C 0.43821 0.76289 0.24594 0.0
C1351 C 0.37834 0.71675 0.30823 0.0
H1352 H 0.3361 0.7763 0.24926 0.0
H1353 H 0.35088 0.70267 0.21598 0.0
H1354 H 0.37635 0.77821 0.29966 0.0
H1355 H 0.39771 0.79249 0.27699 0.0
H1356 H 0.3648 0.79997 0.27768 0.0
H1357 H 0.38986 0.68442 0.22263 0.0
H1358 H 0.41641 0.70437 0.23676 0.0
H1359 H 0.39472 0.68648 0.25665 0.0
H1360 H 0.47113 0.762 0.28542 0.0
H1361 H 0.42085 0.72211 0.33735 0.0
H1362 H 0.42746 0.78009 0.24449 0.0
H1363 H 0.43152 0.7491 0.23014 0.0
H1364 H 0.45884 0.7686 0.24329 0.0
H1365 H 0.36424 0.73139 0.30868 0.0
H1366 H 0.37851 0.70821 0.32715 0.0
H1367 H 0.37163 0.70157 0.29372 0.0
C1368 C 0.94441 0.40939 0.02982 0.0
C1369 C 0.96414 0.41962 0.04634 0.0
C1370 C 0.94903 0.39145 0.01001 0.0
C1371 C 0.97386 0.38317 0.00697 0.0
C1372 C 0.99373 0.39295 0.02389 0.0
C1373 C 0.98871 0.41125 0.04318 0.0
C1374 C 0.92743 0.38162 0.99213 0.0
C1375 C 0.02037 0.38429 0.02143 0.0
C1376 C 0.98024 0.32056 0.96916 0.0
C1377 C 0.98906 0.32919 0.94566 0.0
C1378 C 0.97549 0.33794 0.9894 0.0
C1379 C 0.97916 0.36454 0.98586 0.0
C1380 C 0.98795 0.37337 0.96215 0.0
C1381 C 0.99305 0.35556 0.94239 0.0
C1382 C 0.96664 0.32784 0.01459 0.0
C1383 C 0.99168 0.40162 0.95757 0.0
H1384 H 0.9253 0.41543 0.03233 0.0
H1385 H 0.00423 0.41938 0.05547 0.0
H1386 H 0.93259 0.38602 0.97226 0.0
H1387 H 0.92415 0.36051 0.99271 0.0
H1388 H 0.90929 0.39017 0.99697 0.0
H1389 H 0.03334 0.39278 0.03694 0.0
H1390 H 0.01971 0.36312 0.02177 0.0
H1391 H 0.02864 0.38976 0.00288 0.0
H1392 H 0.97729 0.30018 0.97182 0.0
H1393 H -0.00032 0.3623 0.9242 0.0
H1394 H 0.94764 0.33445 0.01942 0.0
H1395 H 0.98008 0.33549 0.03001 0.0
H1396 H 0.96524 0.30659 0.01437 0.0
H1397 H 0.97346 0.41055 0.96082 0.0
H1398 H 0.99826 0.40531 0.93791 0.0
H1399 H 0.00593 0.41125 0.97128 0.0
C1400 C 0.69719 0.74786 0.2901 0.0
C1401 C 0.70975 0.77233 0.28764 0.0
C1402 C 0.67231 0.7448 0.29992 0.0
C1403 C 0.66004 0.76667 0.30838 0.0
C1404 C 0.67292 0.7913 0.30694 0.0
C1405 C 0.69726 0.79386 0.29607 0.0
C1406 C 0.65884 0.71826 0.30046 0.0
C1407 C 0.66074 0.81512 0.31627 0.0
C1408 C 0.58823 0.76908 0.30916 0.0
C1409 C 0.58277 0.76627 0.33497 0.0
C1410 C 0.61311 0.76755 0.29999 0.0
C1411 C 0.63315 0.76422 0.31729 0.0
C1412 C 0.62761 0.76091 0.34337 0.0
C1413 C 0.6023 0.76149 0.35183 0.0
C1414 C 0.61806 0.77029 0.2719 0.0
C1415 C 0.64857 0.75823 0.36254 0.0
H1416 H 0.70664 0.73101 0.28408 0.0
H1417 H 0.70611 0.81296 0.29366 0.0
H1418 H 0.6523 0.71434 0.32004 0.0
H1419 H 0.64158 0.71696 0.28806 0.0
H1420 H 0.67126 0.70316 0.29383 0.0
H1421 H 0.67439 0.83249 0.3165 0.0
H1422 H 0.64437 0.81822 0.30373 0.0
H1423 H 0.65319 0.81284 0.33582 0.0
H1424 H 0.57297 0.77249 0.29612 0.0
H1425 H 0.59797 0.75947 0.37184 0.0
H1426 H 0.62969 0.75492 0.26436 0.0
H1427 H 0.62908 0.78887 0.26898 0.0
H1428 H 0.60005 0.7695 0.26062 0.0
H1429 H 0.66065 0.74285 0.35605 0.0
H1430 H 0.6409 0.75393 0.38168 0.0
H1431 H 0.66114 0.77634 0.36429 0.0
C1432 C 0.02387 0.12921 0.02674 0.0
C1433 C 0.02589 0.10355 0.01884 0.0
C1434 C 0.02056 0.14771 0.00894 0.0
C1435 C 0.0191 0.14031 0.98263 0.0
C1436 C 0.02167 0.11454 0.9745 0.0
C1437 C 0.02506 0.09646 0.99272 0.0
C1438 C 0.01807 0.17507 0.01832 0.0
C1439 C 0.02005 0.10591 0.94663 0.0
C1440 C 0.98221 0.18254 0.9422 0.0
C1441 C 0.00193 0.1981 0.93145 0.0
C1442 C 0.9876 0.16313 0.95826 0.0
C1443 C 0.01333 0.15929 0.96383 0.0
C1444 C 0.03336 0.17432 0.95235 0.0
C1445 C 0.02741 0.19354 0.9362 0.0
C1446 C 0.96571 0.1473 0.96993 0.0
C1447 C 0.06103 0.17075 0.95788 0.0
H1448 H 0.02483 0.13479 0.0469 0.0
H1449 H 0.02633 0.07658 0.98655 0.0
H1450 H 0.03219 0.18816 0.00867 0.0
H1451 H -0.00122 0.18065 0.01351 0.0
H1452 H 0.021 0.17793 0.03926 0.0
H1453 H 0.02406 0.08555 0.94335 0.0
H1454 H 0.00064 0.10826 0.93916 0.0
H1455 H 0.03379 0.11797 0.93544 0.0
H1456 H 0.96247 0.18586 0.9385 0.0
H1457 H 0.04273 0.20555 0.92799 0.0
H1458 H 0.96596 0.15097 0.99092 0.0
H1459 H 0.96783 0.1266 0.96611 0.0
H1460 H 0.94683 0.15169 0.96246 0.0
H1461 H 0.06532 0.17581 0.9783 0.0
H1462 H 0.07429 0.18279 0.94613 0.0
H1463 H 0.0648 0.15039 0.95429 0.0
C1464 C 0.36846 0.34903 0.29191 0.0
C1465 C 0.342 0.346 0.28783 0.0
C1466 C 0.38538 0.34385 0.27208 0.0
C1467 C 0.37548 0.33483 0.24787 0.0
C1468 C 0.34875 0.33277 0.24342 0.0
C1469 C 0.3323 0.33863 0.26347 0.0
C1470 C 0.41378 0.34685 0.27738 0.0
C1471 C 0.33745 0.32281 0.21801 0.0
C1472 C 0.4195 0.33179 0.19072 0.0
C1473 C 0.42599 0.3064 0.19076 0.0
C1474 C 0.40326 0.34148 0.20936 0.0
C1475 C 0.39287 0.32518 0.22805 0.0
C1476 C 0.39911 0.29944 0.22794 0.0
C1477 C 0.41583 0.29045 0.20947 0.0
C1478 C 0.39745 0.36917 0.20925 0.0
C1479 C 0.38802 0.28133 0.24729 0.0
H1480 H 0.37585 0.35483 0.31081 0.0
H1481 H 0.31178 0.33607 0.26048 0.0
H1482 H 0.42126 0.3277 0.27737 0.0
H1483 H 0.42391 0.35754 0.2622 0.0
H1484 H 0.41842 0.35703 0.29609 0.0
H1485 H 0.31652 0.32442 0.21701 0.0
H1486 H 0.34673 0.33339 0.2023 0.0
H1487 H 0.34105 0.30236 0.21472 0.0
H1488 H 0.42749 0.34423 0.17638 0.0
H1489 H 0.42066 0.27076 0.20945 0.0
H1490 H 0.40345 0.3792 0.22767 0.0
H1491 H 0.37656 0.37043 0.20724 0.0
H1492 H 0.40728 0.37938 0.19355 0.0
H1493 H 0.39398 0.28857 0.26679 0.0
H1494 H 0.39417 0.26168 0.24406 0.0
H1495 H 0.36683 0.28028 0.24652 0.0
C1496 C 0.52851 0.45561 0.02669 0.0
C1497 C 0.54682 0.45261 0.00775 0.0
C1498 C 0.52154 0.43574 0.04279 0.0
C1499 C 0.53271 0.41217 0.0393 0.0
C1500 C 0.55167 0.4093 0.02047 0.0
C1501 C 0.55872 0.42976 0.00504 0.0
C1502 C 0.50163 0.4397 0.06297 0.0
C1503 C 0.56357 0.38429 0.0158 0.0
C1504 C 0.52323 0.36418 0.09103 0.0
C1505 C 0.50111 0.34958 0.08219 0.0
C1506 C 0.53402 0.38456 0.07715 0.0
C1507 C 0.52271 0.38988 0.05369 0.0
C1508 C 0.50094 0.37452 0.0443 0.0
C1509 C 0.49023 0.35478 0.05883 0.0
C1510 C 0.55693 0.40089 0.08795 0.0
C1511 C 0.48868 0.37919 0.01908 0.0
H1512 H 0.51953 0.47347 0.02874 0.0
H1513 H 0.57286 0.42761 0.99025 0.0
H1514 H 0.48388 0.42747 0.058 0.0
H1515 H 0.50842 0.43392 0.08168 0.0
H1516 H 0.49688 0.45994 0.06499 0.0
H1517 H 0.57935 0.38581 0.00177 0.0
H1518 H 0.57111 0.37773 0.03388 0.0
H1519 H 0.54878 0.36935 0.00849 0.0
H1520 H 0.53158 0.3602 0.10915 0.0
H1521 H 0.47329 0.34329 0.05182 0.0
H1522 H 0.55177 0.42078 0.0919 0.0
H1523 H 0.57265 0.40173 0.07388 0.0
H1524 H 0.56409 0.39357 0.10588 0.0
H1525 H 0.48079 0.39818 0.02009 0.0
H1526 H 0.47296 0.36438 0.0137 0.0
H1527 H 0.50317 0.37946 0.00374 0.0
C1528 C 0.63725 0.2441 0.26138 0.0
C1529 C 0.65984 0.23581 0.25081 0.0
C1530 C 0.61611 0.24757 0.24605 0.0
C1531 C 0.61726 0.24207 0.21946 0.0
C1532 C 0.63982 0.23337 0.20859 0.0
C1533 C 0.66093 0.23045 0.2244 0.0
C1534 C 0.59241 0.25693 0.25841 0.0
C1535 C 0.64156 0.22698 0.18034 0.0
C1536 C 0.55182 0.22782 0.18918 0.0
C1537 C 0.54748 0.25146 0.17939 0.0
C1538 C 0.57508 0.22406 0.20097 0.0
C1539 C 0.59432 0.2446 0.20343 0.0
C1540 C 0.59042 0.26826 0.19279 0.0
C1541 C 0.56706 0.27134 0.18067 0.0
C1542 C 0.57865 0.19842 0.21171 0.0
C1543 C 0.61038 0.29069 0.19534 0.0
H1544 H 0.63594 0.24766 0.28182 0.0
H1545 H 0.67835 0.2242 0.21606 0.0
H1546 H 0.58701 0.27432 0.24924 0.0
H1547 H 0.57618 0.24209 0.25569 0.0
H1548 H 0.5951 0.26156 0.27917 0.0
H1549 H 0.66052 0.22059 0.17485 0.0
H1550 H 0.62659 0.21159 0.17451 0.0
H1551 H 0.63801 0.24396 0.16952 0.0
H1552 H 0.53685 0.21226 0.18793 0.0
H1553 H 0.56378 0.28963 0.1731 0.0
H1554 H 0.57911 0.20043 0.23283 0.0
H1555 H 0.59716 0.19154 0.20545 0.0
H1556 H 0.56305 0.18368 0.20579 0.0
H1557 H 0.61235 0.29744 0.21567 0.0
H1558 H 0.60541 0.30695 0.18406 0.0
H1559 H 0.62927 0.28483 0.18905 0.0
C1560 C 0.45817 0.1265 -0.00095 0.0
C1561 C 0.43386 0.11567 0.9914 0.0
C1562 C 0.46101 0.14768 0.01644 0.0
C1563 C 0.439 0.15806 0.0267 0.0
C1564 C 0.4144 0.14748 0.01885 0.0
C1565 C 0.41212 0.12647 0.00116 0.0
C1566 C 0.48758 0.1586 0.02426 0.0
C1567 C 0.39052 0.158 0.02953 0.0
C1568 C 0.44933 0.19405 0.09066 0.0
C1569 C 0.45197 0.21954 0.08359 0.0
C1570 C 0.44417 0.17388 0.07239 0.0
C1571 C 0.44189 0.17935 0.04642 0.0
C1572 C 0.44383 0.20505 0.03922 0.0
C1573 C 0.44871 0.22489 0.05795 0.0
C1574 C 0.44187 0.14668 0.08079 0.0
C1575 C 0.44172 0.21155 0.01165 0.0
H1576 H 0.47506 0.11803 0.99192 0.0
H1577 H 0.39328 0.11842 0.99503 0.0
H1578 H 0.48986 0.17944 0.02128 0.0
H1579 H 0.49061 0.15614 0.04487 0.0
H1580 H 0.50268 0.14922 0.01341 0.0
H1581 H 0.37283 0.14806 0.02088 0.0
H1582 H 0.38989 0.15597 0.05045 0.0
H1583 H 0.39073 0.17874 0.02626 0.0
H1584 H 0.45162 0.1898 0.11048 0.0
H1585 H 0.45078 0.24455 0.05235 0.0
H1586 H 0.45778 0.13628 0.0727 0.0
H1587 H 0.42376 0.13644 0.07349 0.0
H1588 H 0.44238 0.14578 0.10187 0.0
H1589 H 0.45781 0.2041 0.00072 0.0
H1590 H 0.44211 0.23252 0.00941 0.0
H1591 H 0.42377 0.20222 0.00305 0.0
C1592 C 0.26385 0.34003 0.74746 0.0
C1593 C 0.26606 0.32482 0.76837 0.0
C1594 C 0.27461 0.36541 0.74821 0.0
C1595 C 0.28838 0.3755 0.77018 0.0
C1596 C 0.29042 0.36021 0.79146 0.0
C1597 C 0.27892 0.33507 0.79039 0.0
C1598 C 0.27157 0.3813 0.72539 0.0
C1599 C 0.3054 0.37014 0.815 0.0
C1600 C 0.3402 0.4289 0.76146 0.0
C1601 C 0.32897 0.45026 0.77215 0.0
C1602 C 0.32713 0.4045 0.76068 0.0
C1603 C 0.30199 0.40145 0.77031 0.0
C1604 C 0.29021 0.42303 0.78041 0.0
C1605 C 0.30397 0.4472 0.78149 0.0
C1606 C 0.34051 0.38187 0.75015 0.0
C1607 C 0.26318 0.42054 0.79027 0.0
H1608 H 0.25356 0.33204 0.73057 0.0
H1609 H 0.28053 0.32315 0.8065 0.0
H1610 H 0.26388 0.39972 0.7314 0.0
H1611 H 0.29048 0.38594 0.71663 0.0
H1612 H 0.25862 0.37126 0.71066 0.0
H1613 H 0.30459 0.35603 0.83011 0.0
H1614 H 0.32571 0.37481 0.80994 0.0
H1615 H 0.29796 0.38806 0.82285 0.0
H1616 H 0.3596 0.43109 0.7544 0.0
H1617 H 0.29519 0.46368 0.78966 0.0
H1618 H 0.32938 0.37209 0.73396 0.0
H1619 H 0.34174 0.36774 0.76503 0.0
H1620 H 0.36013 0.38753 0.74347 0.0
H1621 H 0.25009 0.41113 0.77536 0.0
H1622 H 0.25631 0.43938 0.79622 0.0
H1623 H 0.26206 0.40823 0.80685 0.0
C1624 C 0.26713 0.69067 0.76919 0.0
C1625 C 0.24134 0.68464 0.76258 0.0
C1626 C 0.28417 0.67153 0.76997 0.0
C1627 C 0.27521 0.64575 0.76385 0.0
C1628 C 0.24973 0.63984 0.75517 0.0
C1629 C 0.23305 0.65939 0.75468 0.0
C1630 C 0.31121 0.67868 0.77919 0.0
C1631 C 0.23952 0.61262 0.74824 0.0
C1632 C 0.323 0.59508 0.75786 0.0
C1633 C 0.32135 0.58487 0.78205 0.0
C1634 C 0.30809 0.61492 0.75153 0.0
C1635 C 0.29131 0.62481 0.76988 0.0
C1636 C 0.28984 0.61476 0.79439 0.0
C1637 C 0.3048 0.59489 0.80014 0.0
C1638 C 0.31008 0.62513 0.7252 0.0
C1639 C 0.27234 0.62492 0.81459 0.0
H1640 H 0.27372 0.71027 0.7749 0.0
H1641 H 0.21312 0.65458 0.74966 0.0
H1642 H 0.31351 0.67181 0.79864 0.0
H1643 H 0.32505 0.66934 0.76668 0.0
H1644 H 0.31612 0.69971 0.7799 0.0
H1645 H 0.22068 0.61167 0.73841 0.0
H1646 H 0.25312 0.6029 0.73575 0.0
H1647 H 0.23727 0.60181 0.76583 0.0
H1648 H 0.33569 0.58736 0.74376 0.0
H1649 H 0.30345 0.58716 0.81888 0.0
H1650 H 0.31558 0.64604 0.72654 0.0
H1651 H 0.29119 0.62227 0.71547 0.0
H1652 H 0.3243 0.61562 0.71323 0.0
H1653 H 0.27719 0.64574 0.81847 0.0
H1654 H 0.27363 0.61516 0.83278 0.0
H1655 H 0.25224 0.62235 0.80773 0.0
C1656 C 0.86531 0.54574 0.44394 0.0
C1657 C 0.87243 0.56448 0.4632 0.0
C1658 C 0.84675 0.52568 0.44832 0.0
C1659 C 0.83494 0.52451 0.47247 0.0
C1660 C 0.84146 0.54379 0.49173 0.0
C1661 C 0.86024 0.56348 0.48691 0.0
C1662 C 0.84027 0.50537 0.42736 0.0
C1663 C 0.82916 0.54321 0.51768 0.0
C1664 C 0.77328 0.48228 0.47856 0.0
C1665 C 0.78211 0.46048 0.4889 0.0
C1666 C 0.79026 0.50335 0.47316 0.0
C1667 C 0.81667 0.50245 0.47803 0.0
C1668 C 0.82571 0.48051 0.48841 0.0
C1669 C 0.8083 0.45982 0.49383 0.0
C1670 C 0.77996 0.52658 0.46233 0.0
C1671 C 0.8538 0.47885 0.49371 0.0
H1672 H 0.87445 0.54662 0.42549 0.0
H1673 H 0.86594 0.57765 0.50202 0.0
H1674 H 0.84543 0.48654 0.43351 0.0
H1675 H 0.81941 0.50357 0.42348 0.0
H1676 H 0.85047 0.50962 0.40937 0.0
H1677 H 0.8351 0.56058 0.52994 0.0
H1678 H 0.80804 0.54158 0.51569 0.0
H1679 H 0.83444 0.52615 0.52748 0.0
H1680 H 0.75305 0.48297 0.47478 0.0
H1681 H 0.81528 0.443 0.50171 0.0
H1682 H 0.78889 0.53033 0.44363 0.0
H1683 H 0.78496 0.54372 0.47518 0.0
H1684 H 0.75887 0.52425 0.45974 0.0
H1685 H 0.86486 0.48124 0.4759 0.0
H1686 H 0.85773 0.4603 0.50158 0.0
H1687 H 0.86094 0.49456 0.50749 0.0
C1688 C 0.73928 0.86604 0.82907 0.0
C1689 C 0.7652 0.87211 0.82379 0.0
C1690 C 0.72114 0.88381 0.82566 0.0
C1691 C 0.72914 0.90819 0.81674 0.0
C1692 C 0.7552 0.91428 0.81104 0.0
C1693 C 0.7729 0.89622 0.81471 0.0
C1694 C 0.69351 0.87665 0.83193 0.0
C1695 C 0.76451 0.94011 0.80157 0.0
C1696 C 0.68193 0.95054 0.7889 0.0
C1697 C 0.67902 0.96832 0.80932 0.0
C1698 C 0.69764 0.93037 0.79122 0.0
C1699 C 0.71062 0.92792 0.81453 0.0
C1700 C 0.7071 0.94534 0.83543 0.0
C1701 C 0.69139 0.96533 0.83255 0.0
C1702 C 0.70097 0.91215 0.76852 0.0
C1703 C 0.72051 0.9433 0.86064 0.0
H1704 H 0.73316 0.84733 0.83579 0.0
H1705 H 0.79294 0.9012 0.81094 0.0
H1706 H 0.68735 0.88961 0.84766 0.0
H1707 H 0.68118 0.87909 0.81519 0.0
H1708 H 0.69024 0.85658 0.83773 0.0
H1709 H 0.78518 0.94139 0.7969 0.0
H1710 H 0.75359 0.94407 0.7843 0.0
H1711 H 0.7612 0.95536 0.81632 0.0
H1712 H 0.67239 0.95271 0.7709 0.0
H1713 H 0.68912 0.97888 0.8485 0.0
H1714 H 0.69697 0.89206 0.77394 0.0
H1715 H 0.72108 0.91431 0.76199 0.0
H1716 H 0.68825 0.9156 0.75234 0.0
H1717 H 0.71649 0.9238 0.86768 0.0
H1718 H 0.71459 0.95746 0.87544 0.0
H1719 H 0.74149 0.94647 0.8581 0.0
C1720 C 0.63052 0.50798 0.97872 0.0
C1721 C 0.60845 0.5207 0.97489 0.0
C1722 C 0.65461 0.52158 0.98129 0.0
C1723 C 0.65672 0.54847 0.97947 0.0
C1724 C 0.63472 0.56132 0.97457 0.0
C1725 C 0.61081 0.54733 0.97265 0.0
C1726 C 0.67765 0.5073 0.98682 0.0
C1727 C 0.63629 0.58997 0.97217 0.0
C1728 C 0.71001 0.58947 0.01391 0.0
C1729 C 0.72702 0.59493 0.99403 0.0
C1730 C 0.68747 0.57364 0.00952 0.0
C1731 C 0.68156 0.56349 0.98453 0.0
C1732 C 0.69882 0.56863 0.96441 0.0
C1733 C 0.72156 0.58411 0.96948 0.0
C1734 C 0.66978 0.56814 0.03157 0.0
C1735 C 0.69287 0.55848 0.93745 0.0
H1736 H 0.62897 0.48736 0.97996 0.0
H1737 H 0.59389 0.55743 0.97008 0.0
H1738 H 0.69291 0.51163 0.97275 0.0
H1739 H 0.68553 0.5137 0.00593 0.0
H1740 H 0.67297 0.48624 0.98641 0.0
H1741 H 0.61786 0.59667 0.96595 0.0
H1742 H 0.64177 0.5998 0.99083 0.0
H1743 H 0.65126 0.59589 0.95829 0.0
H1744 H 0.71433 0.5976 0.03298 0.0
H1745 H 0.73466 0.58843 0.95406 0.0
H1746 H 0.66553 0.54717 0.03283 0.0
H1747 H 0.65135 0.57645 0.02844 0.0
H1748 H 0.67799 0.57616 0.05008 0.0
H1749 H 0.68874 0.53739 0.93686 0.0
H1750 H 0.70881 0.56328 0.9242 0.0
H1751 H 0.67549 0.56668 0.93049 0.0
C1752 C 0.23146 0.69619 0.23257 0.0
C1753 C 0.25562 0.69127 0.22323 0.0
C1754 C 0.21518 0.67663 0.24245 0.0
C1755 C 0.22322 0.65156 0.24273 0.0
C1756 C 0.24729 0.64632 0.23259 0.0
C1757 C 0.26328 0.66631 0.22305 0.0
C1758 C 0.18969 0.68294 0.25325 0.0
C1759 C 0.25632 0.61973 0.23225 0.0
C1760 C 0.19287 0.60735 0.29112 0.0
C1761 C 0.17409 0.59288 0.2763 0.0
C1762 C 0.20911 0.62645 0.28038 0.0
C1763 C 0.20666 0.63095 0.25417 0.0
C1764 C 0.18808 0.6161 0.23901 0.0
C1765 C 0.17193 0.59732 0.25028 0.0
C1766 C 0.22863 0.64209 0.29716 0.0
C1767 C 0.18512 0.62018 0.21093 0.0
H1768 H 0.22567 0.71557 0.23298 0.0
H1769 H 0.2819 0.66249 0.21563 0.0
H1770 H 0.17402 0.67046 0.24373 0.0
H1771 H 0.18903 0.67918 0.27385 0.0
H1772 H 0.18603 0.70324 0.25095 0.0
H1773 H 0.27505 0.61865 0.22264 0.0
H1774 H 0.25818 0.61368 0.25206 0.0
H1775 H 0.24207 0.60584 0.22233 0.0
H1776 H 0.1946 0.60407 0.31124 0.0
H1777 H 0.15758 0.5861 0.23865 0.0
H1778 H 0.22501 0.66263 0.29728 0.0
H1779 H 0.2481 0.64038 0.28945 0.0
H1780 H 0.22827 0.63601 0.31712 0.0
H1781 H 0.17984 0.63991 0.20824 0.0
H1782 H 0.17028 0.60642 0.20164 0.0
H1783 H 0.20355 0.61816 0.20106 0.0
C1784 C 0.93512 0.52595 0.07653 0.0
C1785 C 0.92499 0.50043 0.07299 0.0
C1786 C 0.92151 0.54608 0.06856 0.0
C1787 C 0.89715 0.54049 0.05704 0.0
C1788 C 0.8865 0.51479 0.05424 0.0
C1789 C 0.90063 0.49505 0.06212 0.0
C1790 C 0.93358 0.57321 0.07163 0.0
C1791 C 0.86043 0.50807 0.04233 0.0
C1792 C 0.85085 0.59171 0.05072 0.0
C1793 C 0.85297 0.59643 0.02473 0.0
C1794 C 0.86572 0.57411 0.06178 0.0
C1795 C 0.88329 0.56123 0.04653 0.0
C1796 C 0.88642 0.56692 0.02061 0.0
C1797 C 0.87111 0.58434 0.00999 0.0
C1798 C 0.86174 0.56842 0.08945 0.0
C1799 C 0.90525 0.55386 0.00382 0.0
H1800 H 0.95408 0.53011 0.0847 0.0
H1801 H 0.89272 0.47532 0.0596 0.0
H1802 H 0.93736 0.58085 0.05256 0.0
H1803 H 0.92034 0.58572 0.08156 0.0
H1804 H 0.95187 0.57449 0.08249 0.0
H1805 H 0.85424 0.48735 0.04303 0.0
H1806 H 0.84601 0.5192 0.05225 0.0
H1807 H 0.86071 0.51326 0.02211 0.0
H1808 H 0.83681 0.60095 0.06221 0.0
H1809 H 0.87297 0.58805 0.98993 0.0
H1810 H 0.88031 0.56994 0.09977 0.0
H1811 H 0.85321 0.54846 0.09078 0.0
H1812 H 0.84893 0.58156 0.09921 0.0
H1813 H 0.92444 0.55564 0.01296 0.0
H1814 H 0.90689 0.56197 0.98471 0.0
H1815 H 0.89913 0.53313 0.00128 0.0
C1816 C 0.09135 0.03404 0.04216 0.0
C1817 C 0.06575 0.02645 0.04728 0.0
C1818 C 0.10886 0.01586 0.0365 0.0
C1819 C 0.10045 0.98948 0.03563 0.0
C1820 C 0.07478 0.98168 0.04158 0.0
C1821 C 0.05773 0.00031 0.04748 0.0
C1822 C 0.13616 0.02493 0.03059 0.0
C1823 C 0.06506 0.95374 0.04058 0.0
C1824 C 0.13822 0.94864 0.99071 0.0
C1825 C 0.15448 0.93777 0.00755 0.0
C1826 C 0.11988 0.9647 -0.00025 0.0
C1827 C 0.11799 0.97034 0.02627 0.0
C1828 C 0.13385 0.95886 0.04346 0.0
C1829 C 0.15184 0.94252 0.03388 0.0
C1830 C 0.10306 0.97627 0.98081 0.0
C1831 C 0.1325 0.96463 0.07185 0.0
H1832 H 0.09761 0.05428 0.04236 0.0
H1833 H 0.03788 0.99445 0.05134 0.0
H1834 H 0.14956 0.01499 0.04222 0.0
H1835 H 0.14019 0.02016 0.01026 0.0
H1836 H 0.14014 0.04593 0.03427 0.0
H1837 H 0.04525 0.95077 0.04788 0.0
H1838 H 0.06533 0.94584 0.02059 0.0
H1839 H 0.07769 0.94264 0.0519 0.0
H1840 H 0.14002 0.94483 0.97034 0.0
H1841 H 0.16444 0.93421 0.04695 0.0
H1842 H 0.10749 0.99734 0.98131 0.0
H1843 H 0.08266 0.97259 0.98596 0.0
H1844 H 0.1057 0.96852 0.961 0.0
H1845 H 0.13872 0.98512 0.07627 0.0
H1846 H 0.14479 0.95275 0.08274 0.0
H1847 H 0.11253 0.96134 0.07852 0.0
loop_
_geom_bond_atom_site_label_1
_geom_bond_atom_site_label_2
_geom_bond_distance
_geom_bond_site_symmetry_2
_ccdc_geom_bond_type
H0 C3 0.931 . S
H1 C6 0.928 . S
H2 C8 0.930 . S
C3 H0 0.931 . S
C3 C4 1.413 . S
C3 C5 1.360 . S
C4 C3 1.413 . S
C4 C8 1.429 . S
C5 C3 1.360 . S
C5 C6 1.372 . S
C6 H1 0.928 . S
C6 C5 1.372 . S
C6 C7 1.404 . S
C7 C6 1.404 . S
C7 C8 1.391 . S
C8 H2 0.930 . S
C8 C4 1.429 . S
C8 C7 1.391 . S
H9 C12 0.931 . S
H10 C15 0.928 . S
H11 C17 0.930 . S
C12 H9 0.931 . S
C12 C13 1.413 . S
C12 C14 1.360 . S
C13 C12 1.413 . S
C13 C17 1.429 . S
C14 C12 1.360 . S
C14 C15 1.372 . S
C15 H10 0.928 . S
C15 C14 1.372 . S
C15 C16 1.404 . S
C16 C15 1.404 . S
C16 C17 1.391 . S
C17 H11 0.930 . S
C17 C13 1.429 . S
C17 C16 1.391 . S
H18 C21 0.931 . S
H19 C24 0.928 . S
H20 C26 0.930 . S
C21 H18 0.931 . S
C21 C22 1.413 . S
C21 C23 1.360 . S
C22 C21 1.413 . S
C22 C26 1.429 . S
C23 C21 1.360 . S
C23 C24 1.372 . S
C24 H19 0.928 . S
C24 C23 1.372 . S
C24 C25 1.404 . S
C25 C24 1.404 . S
C25 C26 1.391 . S
C26 H20 0.930 . S
C26 C22 1.429 . S
C26 C25 1.391 . S
H27 C30 0.931 . S
H28 C33 0.928 . S
H29 C35 0.930 . S
C30 H27 0.931 . S
C30 C31 1.413 . S
C30 C32 1.360 . S
C31 C30 1.413 . S
C31 C35 1.429 . S
C32 C30 1.360 . S
C32 C33 1.372 . S
C33 H28 0.928 . S
C33 C32 1.372 . S
C33 C34 1.404 . S
C34 C33 1.404 . S
C34 C35 1.391 . S
C35 H29 0.930 . S
C35 C31 1.429 . S
C35 C34 1.391 . S
H36 C39 0.931 . S
H37 C42 0.928 . S
H38 C44 0.930 . S
C39 H36 0.931 . S
C39 C40 1.413 . S
C39 C41 1.360 . S
C40 C39 1.413 . S
C40 C44 1.429 . S
C41 C39 1.360 . S
C41 C42 1.372 . S
C42 H37 0.928 . S
C42 C41 1.372 . S
C42 C43 1.404 . S
C43 C42 1.404 . S
C43 C44 1.391 . S
C44 H38 0.930 . S
C44 C40 1.429 . S
C44 C43 1.391 . S
H45 C48 0.931 . S
H46 C51 0.928 . S
H47 C53 0.930 . S
C48 H45 0.931 . S
C48 C49 1.413 . S
C48 C50 1.360 . S
C49 C48 1.413 . S
C49 C53 1.429 . S
C50 C48 1.360 . S
C50 C51 1.372 . S
C51 H46 0.928 . S
C51 C50 1.372 . S
C51 C52 1.404 . S
C52 C51 1.404 . S
C52 C53 1.391 . S
C53 H47 0.930 . S
C53 C49 1.429 . S
C53 C52 1.391 . S
H54 C57 0.931 . S
H55 C60 0.928 . S
H56 C62 0.930 . S
C57 H54 0.931 . S
C57 C58 1.413 . S
C57 C59 1.360 . S
C58 C57 1.413 . S
C58 C62 1.429 . S
C59 C57 1.360 . S
C59 C60 1.372 . S
C60 H55 0.928 . S
C60 C59 1.372 . S
C60 C61 1.404 . S
C61 C60 1.404 . S
C61 C62 1.391 . S
C62 H56 0.930 . S
C62 C58 1.429 . S
C62 C61 1.391 . S
H63 C66 0.931 . S
H64 C69 0.928 . S
H65 C71 0.930 . S
C66 H63 0.931 . S
C66 C67 1.413 . S
C66 C68 1.360 . S
C67 C66 1.413 . S
C67 C71 1.429 . S
C68 C66 1.360 . S
C68 C69 1.372 . S
C69 H64 0.928 . S
C69 C68 1.372 . S
C69 C70 1.404 . S
C70 C69 1.404 . S
C70 C71 1.391 . S
C71 H65 0.930 . S
C71 C67 1.429 . S
C71 C70 1.391 . S
H72 C75 0.931 . S
H73 C78 0.928 . S
H74 C80 0.930 . S
C75 H72 0.931 . S
C75 C76 1.413 . S
C75 C77 1.360 . S
C76 C75 1.413 . S
C76 C80 1.429 . S
C77 C75 1.360 . S
C77 C78 1.372 . S
C78 H73 0.928 . S
C78 C77 1.372 . S
C78 C79 1.404 . S
C79 C78 1.404 . S
C79 C80 1.391 . S
C80 H74 0.930 . S
C80 C76 1.429 . S
C80 C79 1.391 . S
H81 C84 0.931 . S
H82 C87 0.928 . S
H83 C89 0.930 . S
C84 H81 0.931 . S
C84 C85 1.413 . S
C84 C86 1.360 . S
C85 C84 1.413 . S
C85 C89 1.429 . S
C86 C84 1.360 . S
C86 C87 1.372 . S
C87 H82 0.928 . S
C87 C86 1.372 . S
C87 C88 1.404 . S
C88 C87 1.404 . S
C88 C89 1.391 . S
C89 H83 0.930 . S
C89 C85 1.429 . S
C89 C88 1.391 . S
H90 C93 0.931 . S
H91 C96 0.928 . S
H92 C98 0.930 . S
C93 H90 0.931 . S
C93 C94 1.413 . S
C93 C95 1.360 . S
C94 C93 1.413 . S
C94 C98 1.429 . S
C95 C93 1.360 . S
C95 C96 1.372 . S
C96 H91 0.928 . S
C96 C95 1.372 . S
C96 C97 1.404 . S
C97 C96 1.404 . S
C97 C98 1.391 . S
C98 H92 0.930 . S
C98 C94 1.429 . S
C98 C97 1.391 . S
H99 C102 0.931 . S
H100 C105 0.928 . S
H101 C107 0.930 . S
C102 H99 0.931 . S
C102 C103 1.413 . S
C102 C104 1.360 . S
C103 C102 1.413 . S
C103 C107 1.429 . S
C104 C102 1.360 . S
C104 C105 1.372 . S
C105 H100 0.928 . S
C105 C104 1.372 . S
C105 C106 1.404 . S
C106 C105 1.404 . S
C106 C107 1.391 . S
C107 H101 0.930 . S
C107 C103 1.429 . S
C107 C106 1.391 . S
H108 C111 0.931 . S
H109 C114 0.928 . S
H110 C116 0.930 . S
C111 H108 0.931 . S
C111 C112 1.413 . S
C111 C113 1.360 . S
C112 C111 1.413 . S
C112 C116 1.429 . S
C113 C111 1.360 . S
C113 C114 1.372 . S
C114 H109 0.928 . S
C114 C113 1.372 . S
C114 C115 1.404 . S
C115 C114 1.404 . S
C115 C116 1.391 . S
C116 H110 0.930 . S
C116 C112 1.429 . S
C116 C115 1.391 . S
H117 C120 0.931 . S
H118 C123 0.928 . S
H119 C125 0.930 . S
C120 H117 0.931 . S
C120 C121 1.413 . S
C120 C122 1.360 . S
C121 C120 1.413 . S
C121 C125 1.429 . S
C122 C120 1.360 . S
C122 C123 1.372 . S
C123 H118 0.928 . S
C123 C122 1.372 . S
C123 C124 1.404 . S
C124 C123 1.404 . S
C124 C125 1.391 . S
C125 H119 0.930 . S
C125 C121 1.429 . S
C125 C124 1.391 . S
H126 C129 0.931 . S
H127 C132 0.928 . S
H128 C134 0.930 . S
C129 H126 0.931 . S
C129 C130 1.413 . S
C129 C131 1.360 . S
C130 C129 1.413 . S
C130 C134 1.429 . S
C131 C129 1.360 . S
C131 C132 1.372 . S
C132 H127 0.928 . S
C132 C131 1.372 . S
C132 C133 1.404 . S
C133 C132 1.404 . S
C133 C134 1.391 . S
C134 H128 0.930 . S
C134 C130 1.429 . S
C134 C133 1.391 . S
H135 C138 0.931 . S
H136 C141 0.928 . S
H137 C143 0.930 . S
C138 H135 0.931 . S
C138 C139 1.413 . S
C138 C140 1.360 . S
C139 C138 1.413 . S
C139 C143 1.429 . S
C140 C138 1.360 . S
C140 C141 1.372 . S
C141 H136 0.928 . S
C141 C140 1.372 . S
C141 C142 1.404 . S
C142 C141 1.404 . S
C142 C143 1.391 . S
C143 H137 0.930 . S
C143 C139 1.429 . S
C143 C142 1.391 . S
O144 Cd145 2.223 . S
O144 C152 1.315 . S
Cd145 O144 2.223 . S
Cd145 O148 2.297 . S
Cd145 O149 2.439 . S
Cd145 O155 2.240 . S
Cd146 O147 2.240 . S
Cd146 O154 2.223 . S
Cd146 O156 2.297 . S
Cd146 O157 2.439 . S
O147 Cd146 2.240 . S
O147 C152 1.279 . S
O148 Cd145 2.297 . S
O148 C150 1.247 . S
O149 Cd145 2.439 . S
O149 C150 1.208 . S
C150 O148 1.247 . S
C150 O149 1.208 . S
C151 O156 1.247 . S
C151 O157 1.208 . S
C152 O144 1.315 . S
C152 O147 1.279 . S
C153 O154 1.315 . S
C153 O155 1.279 . S
O154 Cd146 2.223 . S
O154 C153 1.315 . S
O155 Cd145 2.240 . S
O155 C153 1.279 . S
O156 Cd146 2.297 . S
O156 C151 1.247 . S
O157 Cd146 2.439 . S
O157 C151 1.208 . S
O158 Cd159 2.223 . S
O158 C166 1.315 . S
Cd159 O158 2.223 . S
Cd159 O162 2.297 . S
Cd159 O163 2.439 . S
Cd159 O169 2.240 . S
Cd160 O161 2.240 . S
Cd160 O168 2.223 . S
Cd160 O170 2.297 . S
Cd160 O171 2.439 . S
O161 Cd160 2.240 . S
O161 C166 1.279 . S
O162 Cd159 2.297 . S
O162 C164 1.247 . S
O163 Cd159 2.439 . S
O163 C164 1.208 . S
C164 O162 1.247 . S
C164 O163 1.208 . S
C165 O170 1.247 . S
C165 O171 1.208 . S
C166 O158 1.315 . S
C166 O161 1.279 . S
C167 O168 1.315 . S
C167 O169 1.279 . S
O168 Cd160 2.223 . S
O168 C167 1.315 . S
O169 Cd159 2.240 . S
O169 C167 1.279 . S
O170 Cd160 2.297 . S
O170 C165 1.247 . S
O171 Cd160 2.439 . S
O171 C165 1.208 . S
O172 Cd173 2.223 1_556 S
O172 C180 1.315 . S
Cd173 O172 2.223 1_554 S
Cd173 O176 2.297 . S
Cd173 O177 2.439 . S
Cd173 O183 2.240 . S
Cd174 O175 2.240 . S
Cd174 O182 2.223 . S
Cd174 O184 2.297 1_556 S
Cd174 O185 2.439 1_556 S
O175 Cd174 2.240 . S
O175 C180 1.279 . S
O176 Cd173 2.297 . S
O176 C178 1.247 . S
O177 Cd173 2.439 . S
O177 C178 1.208 . S
C178 O176 1.247 . S
C178 O177 1.208 . S
C179 O184 1.247 . S
C179 O185 1.208 . S
C180 O172 1.315 . S
C180 O175 1.279 . S
C181 O182 1.315 . S
C181 O183 1.279 1_556 S
O182 Cd174 2.223 . S
O182 C181 1.315 . S
O183 Cd173 2.240 . S
O183 C181 1.279 1_554 S
O184 Cd174 2.297 1_554 S
O184 C179 1.247 . S
O185 Cd174 2.439 1_554 S
O185 C179 1.208 . S
O186 Cd187 2.223 . S
O186 C194 1.315 . S
Cd187 O186 2.223 . S
Cd187 O190 2.297 . S
Cd187 O191 2.439 . S
Cd187 O197 2.240 . S
Cd188 O189 2.240 . S
Cd188 O196 2.223 . S
Cd188 O198 2.297 . S
Cd188 O199 2.439 . S
O189 Cd188 2.240 . S
O189 C194 1.279 . S
O190 Cd187 2.297 . S
O190 C192 1.247 . S
O191 Cd187 2.439 . S
O191 C192 1.208 . S
C192 O190 1.247 . S
C192 O191 1.208 . S
C193 O198 1.247 . S
C193 O199 1.208 . S
C194 O186 1.315 . S
C194 O189 1.279 . S
C195 O196 1.315 . S
C195 O197 1.279 . S
O196 Cd188 2.223 . S
O196 C195 1.315 . S
O197 Cd187 2.240 . S
O197 C195 1.279 . S
O198 Cd188 2.297 . S
O198 C193 1.247 . S
O199 Cd188 2.439 . S
O199 C193 1.208 . S
O200 Cd201 2.223 . S
O200 C208 1.315 . S
Cd201 O200 2.223 . S
Cd201 O204 2.297 . S
Cd201 O205 2.439 . S
Cd201 O211 2.240 . S
Cd202 O203 2.240 . S
Cd202 O210 2.223 . S
Cd202 O212 2.297 . S
Cd202 O213 2.439 . S
O203 Cd202 2.240 . S
O203 C208 1.279 . S
O204 Cd201 2.297 . S
O204 C206 1.247 . S
O205 Cd201 2.439 . S
O205 C206 1.208 . S
C206 O204 1.247 . S
C206 O205 1.208 . S
C207 O212 1.247 . S
C207 O213 1.208 . S
C208 O200 1.315 . S
C208 O203 1.279 . S
C209 O210 1.315 . S
C209 O211 1.279 . S
O210 Cd202 2.223 . S
O210 C209 1.315 . S
O211 Cd201 2.240 . S
O211 C209 1.279 . S
O212 Cd202 2.297 . S
O212 C207 1.247 . S
O213 Cd202 2.439 . S
O213 C207 1.208 . S
O214 Cd215 2.223 . S
O214 C222 1.315 . S
Cd215 O214 2.223 . S
Cd215 O218 2.297 . S
Cd215 O219 2.439 . S
Cd215 O225 2.240 . S
Cd216 O217 2.240 . S
Cd216 O224 2.223 . S
Cd216 O226 2.297 . S
Cd216 O227 2.439 . S
O217 Cd216 2.240 . S
O217 C222 1.279 . S
O218 Cd215 2.297 . S
O218 C220 1.247 . S
O219 Cd215 2.439 . S
O219 C220 1.208 . S
C220 O218 1.247 . S
C220 O219 1.208 . S
C221 O226 1.247 . S
C221 O227 1.208 . S
C222 O214 1.315 . S
C222 O217 1.279 . S
C223 O224 1.315 . S
C223 O225 1.279 . S
O224 Cd216 2.223 . S
O224 C223 1.315 . S
O225 Cd215 2.240 . S
O225 C223 1.279 . S
O226 Cd216 2.297 . S
O226 C221 1.247 . S
O227 Cd216 2.439 . S
O227 C221 1.208 . S
O228 Cd229 2.223 . S
O228 C236 1.315 . S
Cd229 O228 2.223 . S
Cd229 O232 2.297 . S
Cd229 O233 2.439 . S
Cd229 O239 2.240 . S
Cd230 O231 2.240 . S
Cd230 O238 2.223 . S
Cd230 O240 2.297 . S
Cd230 O241 2.439 . S
O231 Cd230 2.240 . S
O231 C236 1.279 . S
O232 Cd229 2.297 . S
O232 C234 1.247 . S
O233 Cd229 2.439 . S
O233 C234 1.208 . S
C234 O232 1.247 . S
C234 O233 1.208 . S
C235 O240 1.247 . S
C235 O241 1.208 . S
C236 O228 1.315 . S
C236 O231 1.279 . S
C237 O238 1.315 . S
C237 O239 1.279 . S
O238 Cd230 2.223 . S
O238 C237 1.315 . S
O239 Cd229 2.240 . S
O239 C237 1.279 . S
O240 Cd230 2.297 . S
O240 C235 1.247 . S
O241 Cd230 2.439 . S
O241 C235 1.208 . S
O242 Cd243 2.223 1_545 S
O242 C250 1.315 . S
Cd243 O242 2.223 1_565 S
Cd243 O246 2.297 . S
Cd243 O247 2.439 . S
Cd243 O253 2.240 1_565 S
Cd244 O245 2.240 . S
Cd244 O252 2.223 . S
Cd244 O254 2.297 . S
Cd244 O255 2.439 1_545 S
O245 Cd244 2.240 . S
O245 C250 1.279 . S
O246 Cd243 2.297 . S
O246 C248 1.247 . S
O247 Cd243 2.439 . S
O247 C248 1.208 . S
C248 O246 1.247 . S
C248 O247 1.208 . S
C249 O254 1.247 1_565 S
C249 O255 1.208 . S
C250 O242 1.315 . S
C250 O245 1.279 . S
C251 O252 1.315 . S
C251 O253 1.279 . S
O252 Cd244 2.223 . S
O252 C251 1.315 . S
O253 Cd243 2.240 1_545 S
O253 C251 1.279 . S
O254 Cd244 2.297 . S
O254 C249 1.247 1_545 S
O255 Cd244 2.439 1_565 S
O255 C249 1.208 . S
O256 Cd257 2.223 . S
O256 C264 1.315 . S
Cd257 O256 2.223 . S
Cd257 O260 2.297 1_655 S
Cd257 O261 2.439 1_655 S
Cd257 O267 2.240 . S
Cd258 O259 2.240 . S
Cd258 O266 2.223 1_455 S
Cd258 O268 2.297 . S
Cd258 O269 2.439 . S
O259 Cd258 2.240 . S
O259 C264 1.279 1_455 S
O260 Cd257 2.297 1_455 S
O260 C262 1.247 . S
O261 Cd257 2.439 1_455 S
O261 C262 1.208 . S
C262 O260 1.247 . S
C262 O261 1.208 . S
C263 O268 1.247 . S
C263 O269 1.208 . S
C264 O256 1.315 . S
C264 O259 1.279 1_655 S
C265 O266 1.315 . S
C265 O267 1.279 . S
O266 Cd258 2.223 1_655 S
O266 C265 1.315 . S
O267 Cd257 2.240 . S
O267 C265 1.279 . S
O268 Cd258 2.297 . S
O268 C263 1.247 . S
O269 Cd258 2.439 . S
O269 C263 1.208 . S
O270 Cd271 2.223 . S
O270 C278 1.315 . S
Cd271 O270 2.223 . S
Cd271 O274 2.297 . S
Cd271 O275 2.439 . S
Cd271 O281 2.240 . S
Cd272 O273 2.240 . S
Cd272 O280 2.223 . S
Cd272 O282 2.297 . S
Cd272 O283 2.439 . S
O273 Cd272 2.240 . S
O273 C278 1.279 . S
O274 Cd271 2.297 . S
O274 C276 1.247 . S
O275 Cd271 2.439 . S
O275 C276 1.208 . S
C276 O274 1.247 . S
C276 O275 1.208 . S
C277 O282 1.247 . S
C277 O283 1.208 . S
C278 O270 1.315 . S
C278 O273 1.279 . S
C279 O280 1.315 . S
C279 O281 1.279 . S
O280 Cd272 2.223 . S
O280 C279 1.315 . S
O281 Cd271 2.240 . S
O281 C279 1.279 . S
O282 Cd272 2.297 . S
O282 C277 1.247 . S
O283 Cd272 2.439 . S
O283 C277 1.208 . S
O284 Cd285 2.223 1_655 S
O284 C292 1.315 . S
Cd285 O284 2.223 1_455 S
Cd285 O288 2.297 . S
Cd285 O289 2.439 . S
Cd285 O295 2.240 . S
Cd286 O287 2.240 . S
Cd286 O294 2.223 . S
Cd286 O296 2.297 1_655 S
Cd286 O297 2.439 1_655 S
O287 Cd286 2.240 . S
O287 C292 1.279 . S
O288 Cd285 2.297 . S
O288 C290 1.247 . S
O289 Cd285 2.439 . S
O289 C290 1.208 . S
C290 O288 1.247 . S
C290 O289 1.208 . S
C291 O296 1.247 . S
C291 O297 1.208 . S
C292 O284 1.315 . S
C292 O287 1.279 . S
C293 O294 1.315 . S
C293 O295 1.279 1_655 S
O294 Cd286 2.223 . S
O294 C293 1.315 . S
O295 Cd285 2.240 . S
O295 C293 1.279 1_455 S
O296 Cd286 2.297 1_455 S
O296 C291 1.247 . S
O297 Cd286 2.439 1_455 S
O297 C291 1.208 . S
O298 Cd299 2.223 . S
O298 C306 1.315 . S
Cd299 O298 2.223 . S
Cd299 O302 2.297 . S
Cd299 O303 2.439 . S
Cd299 O309 2.240 . S
Cd300 O301 2.240 . S
Cd300 O308 2.223 . S
Cd300 O310 2.297 . S
Cd300 O311 2.439 . S
O301 Cd300 2.240 . S
O301 C306 1.279 . S
O302 Cd299 2.297 . S
O302 C304 1.247 . S
O303 Cd299 2.439 . S
O303 C304 1.208 . S
C304 O302 1.247 . S
C304 O303 1.208 . S
C305 O310 1.247 . S
C305 O311 1.208 . S
C306 O298 1.315 . S
C306 O301 1.279 . S
C307 O308 1.315 . S
C307 O309 1.279 . S
O308 Cd300 2.223 . S
O308 C307 1.315 . S
O309 Cd299 2.240 . S
O309 C307 1.279 . S
O310 Cd300 2.297 . S
O310 C305 1.247 . S
O311 Cd300 2.439 . S
O311 C305 1.208 . S
C312 C313 1.391 . S
C312 C314 1.394 . S
C312 H328 0.931 . S
C313 C312 1.391 . S
C313 C317 1.376 . S
C314 C312 1.394 . S
C314 C315 1.369 . S
C314 C318 1.531 . S
C315 C314 1.369 . S
C315 C316 1.410 . S
C315 C323 1.503 . S
C316 C315 1.410 . S
C316 C317 1.392 . S
C316 C319 1.511 . S
C317 C313 1.376 . S
C317 C316 1.392 . S
C317 H329 0.929 . S
C318 C314 1.531 . S
C318 H330 0.960 . S
C318 H331 0.962 . S
C318 H332 0.960 . S
C319 C316 1.511 . S
C319 H333 0.961 . S
C319 H334 0.961 . S
C319 H335 0.961 . S
C320 C321 1.370 . S
C320 C322 1.363 . S
C320 H336 0.931 . S
C321 C320 1.370 . S
C321 C325 1.408 . S
C322 C320 1.363 . S
C322 C323 1.370 . S
C322 C326 1.524 . S
C323 C315 1.503 . S
C323 C322 1.370 . S
C323 C324 1.403 . S
C324 C323 1.403 . S
C324 C325 1.404 . S
C324 C327 1.539 . S
C325 C321 1.408 . S
C325 C324 1.404 . S
C325 H337 0.930 1_556 S
C326 C322 1.524 . S
C326 H338 0.956 . S
C326 H339 0.961 . S
C326 H340 0.961 . S
C327 C324 1.539 . S
C327 H341 0.958 . S
C327 H342 0.961 . S
C327 H343 0.960 . S
H328 C312 0.931 . S
H329 C317 0.929 . S
H330 C318 0.960 . S
H331 C318 0.962 . S
H332 C318 0.960 . S
H333 C319 0.961 . S
H334 C319 0.961 . S
H335 C319 0.961 . S
H336 C320 0.931 . S
H337 C325 0.930 1_554 S
H338 C326 0.956 . S
H339 C326 0.961 . S
H340 C326 0.961 . S
H341 C327 0.958 . S
H342 C327 0.961 . S
H343 C327 0.960 . S
C344 C345 1.391 . S
C344 C346 1.394 . S
C344 H360 0.931 . S
C345 C344 1.391 . S
C345 C349 1.376 . S
C346 C344 1.394 . S
C346 C347 1.369 . S
C346 C350 1.531 . S
C347 C346 1.369 . S
C347 C348 1.409 1_655 S
C347 C355 1.503 1_655 S
C348 C347 1.409 1_455 S
C348 C349 1.367 1_455 S
C348 C351 1.537 . S
C349 C345 1.376 . S
C349 C348 1.367 1_655 S
C349 H361 0.929 . S
C350 C346 1.531 . S
C350 H362 0.960 . S
C350 H363 0.962 . S
C350 H364 0.960 . S
C351 C348 1.537 . S
C351 H365 0.961 . S
C351 H366 0.961 . S
C351 H367 0.961 . S
C352 C353 1.370 . S
C352 C354 1.363 . S
C352 H368 0.931 . S
C353 C352 1.370 . S
C353 C357 1.408 . S
C354 C352 1.363 . S
C354 C355 1.370 . S
C354 C358 1.524 . S
C355 C347 1.503 1_455 S
C355 C354 1.370 . S
C355 C356 1.403 . S
C356 C355 1.403 . S
C356 C357 1.404 . S
C356 C359 1.539 . S
C357 C353 1.408 . S
C357 C356 1.404 . S
C357 H369 0.930 . S
C358 C354 1.524 . S
C358 H370 0.956 . S
C358 H371 0.961 . S
C358 H372 0.961 . S
C359 C356 1.539 . S
C359 H373 0.958 1_455 S
C359 H374 0.961 . S
C359 H375 0.960 1_455 S
H360 C344 0.931 . S
H361 C349 0.929 . S
H362 C350 0.960 . S
H363 C350 0.962 . S
H364 C350 0.960 . S
H365 C351 0.961 . S
H366 C351 0.961 . S
H367 C351 0.961 . S
H368 C352 0.931 . S
H369 C357 0.930 . S
H370 C358 0.956 . S
H371 C358 0.961 . S
H372 C358 0.961 . S
H373 C359 0.958 1_655 S
H374 C359 0.961 . S
H375 C359 0.960 1_655 S
C376 C377 1.391 . S
C376 C378 1.394 . S
C376 H392 0.931 . S
C377 C376 1.391 . S
C377 C381 1.376 . S
C378 C376 1.394 . S
C378 C379 1.369 . S
C378 C382 1.531 . S
C379 C378 1.369 . S
C379 C380 1.410 . S
C379 C387 1.503 . S
C380 C379 1.410 . S
C380 C381 1.392 . S
C380 C383 1.511 . S
C381 C377 1.376 . S
C381 C380 1.392 . S
C381 H393 0.929 . S
C382 C378 1.531 . S
C382 H394 0.960 . S
C382 H395 0.962 . S
C382 H396 0.960 . S
C383 C380 1.511 . S
C383 H397 0.961 . S
C383 H398 0.961 . S
C383 H399 0.961 . S
C384 C385 1.370 . S
C384 C386 1.363 . S
C384 H400 0.931 . S
C385 C384 1.370 . S
C385 C389 1.408 . S
C386 C384 1.363 . S
C386 C387 1.370 . S
C386 C390 1.524 . S
C387 C379 1.503 . S
C387 C386 1.370 . S
C387 C388 1.403 . S
C388 C387 1.403 . S
C388 C389 1.404 . S
C388 C391 1.539 . S
C389 C385 1.408 . S
C389 C388 1.404 . S
C389 H401 0.930 . S
C390 C386 1.524 . S
C390 H402 0.956 . S
C390 H403 0.961 . S
C390 H404 0.961 . S
C391 C388 1.539 . S
C391 H405 0.958 . S
C391 H406 0.961 . S
C391 H407 0.960 . S
H392 C376 0.931 . S
H393 C381 0.929 . S
H394 C382 0.960 . S
H395 C382 0.962 . S
H396 C382 0.960 . S
H397 C383 0.961 . S
H398 C383 0.961 . S
H399 C383 0.961 . S
H400 C384 0.931 . S
H401 C389 0.930 . S
H402 C390 0.956 . S
H403 C390 0.961 . S
H404 C390 0.961 . S
H405 C391 0.958 . S
H406 C391 0.961 . S
H407 C391 0.960 . S
C408 C409 1.391 . S
C408 C410 1.394 . S
C408 H424 0.931 . S
C409 C408 1.391 . S
C409 C413 1.376 . S
C410 C408 1.394 . S
C410 C411 1.369 1_455 S
C410 C414 1.531 1_455 S
C411 C410 1.369 1_655 S
C411 C412 1.410 1_665 S
C411 C419 1.503 . S
C412 C411 1.410 1_445 S
C412 C413 1.392 1_545 S
C412 C415 1.511 . S
C413 C409 1.376 . S
C413 C412 1.392 1_565 S
C413 H425 0.929 1_565 S
C414 C410 1.531 1_655 S
C414 H426 0.960 . S
C414 H427 0.962 . S
C414 H428 0.960 . S
C415 C412 1.511 . S
C415 H429 0.961 . S
C415 H430 0.978 . S
C415 H431 0.961 1_455 S
C416 C417 1.370 . S
C416 C418 1.363 . S
C416 H432 0.931 . S
C417 C416 1.370 . S
C417 C421 1.408 . S
C418 C416 1.363 . S
C418 C419 1.370 1_545 S
C418 C422 1.524 1_655 S
C419 C411 1.503 . S
C419 C418 1.370 1_565 S
C419 C420 1.403 . S
C420 C419 1.403 . S
C420 C421 1.404 1_565 S
C420 C423 1.539 . S
C421 C417 1.408 . S
C421 C420 1.404 1_545 S
C421 H433 0.930 . S
C422 C418 1.524 1_455 S
C422 H434 0.956 1_545 S
C422 H435 0.961 . S
C422 H436 0.961 . S
C423 C420 1.539 . S
C423 H437 0.958 . S
C423 H438 0.961 . S
C423 H439 0.960 . S
H424 C408 0.931 . S
H425 C413 0.929 1_545 S
H426 C414 0.960 . S
H427 C414 0.962 . S
H428 C414 0.960 . S
H429 C415 0.961 . S
H430 C415 0.978 . S
H431 C415 0.961 1_655 S
H432 C416 0.931 . S
H433 C421 0.930 . S
H434 C422 0.956 1_565 S
H435 C422 0.961 . S
H436 C422 0.961 . S
H437 C423 0.958 . S
H438 C423 0.961 . S
H439 C423 0.960 . S
C440 C441 1.391 . S
C440 C442 1.394 . S
C440 H456 0.931 . S
C441 C440 1.391 . S
C441 C445 1.376 . S
C442 C440 1.394 . S
C442 C443 1.369 . S
C442 C446 1.531 . S
C443 C442 1.369 . S
C443 C444 1.410 . S
C443 C451 1.503 . S
C444 C443 1.410 . S
C444 C445 1.392 . S
C444 C447 1.511 . S
C445 C441 1.376 . S
C445 C444 1.392 . S
C445 H457 0.929 . S
C446 C442 1.531 . S
C446 H458 0.960 . S
C446 H459 0.962 . S
C446 H460 0.960 . S
C447 C444 1.511 . S
C447 H461 0.961 . S
C447 H462 0.961 . S
C447 H463 0.961 . S
C448 C449 1.370 . S
C448 C450 1.363 . S
C448 H464 0.931 . S
C449 C448 1.370 . S
C449 C453 1.408 . S
C450 C448 1.363 . S
C450 C451 1.370 . S
C450 C454 1.524 . S
C451 C443 1.503 . S
C451 C450 1.370 . S
C451 C452 1.403 . S
C452 C451 1.403 . S
C452 C453 1.404 . S
C452 C455 1.539 . S
C453 C449 1.408 . S
C453 C452 1.404 . S
C453 H465 0.930 . S
C454 C450 1.524 . S
C454 H466 0.956 . S
C454 H467 0.961 . S
C454 H468 0.961 . S
C455 C452 1.539 . S
C455 H469 0.958 . S
C455 H470 0.961 . S
C455 H471 0.960 . S
H456 C440 0.931 . S
H457 C445 0.929 . S
H458 C446 0.960 . S
H459 C446 0.962 . S
H460 C446 0.960 . S
H461 C447 0.961 . S
H462 C447 0.961 . S
H463 C447 0.961 . S
H464 C448 0.931 . S
H465 C453 0.930 . S
H466 C454 0.956 . S
H467 C454 0.961 . S
H468 C454 0.961 . S
H469 C455 0.958 . S
H470 C455 0.961 . S
H471 C455 0.960 . S
C472 C473 1.391 . S
C472 C474 1.394 . S
C472 H488 0.931 . S
C473 C472 1.391 . S
C473 C477 1.376 . S
C474 C472 1.394 . S
C474 C475 1.369 . S
C474 C478 1.531 . S
C475 C474 1.369 . S
C475 C476 1.410 . S
C475 C483 1.503 . S
C476 C475 1.410 . S
C476 C477 1.392 . S
C476 C479 1.511 . S
C477 C473 1.376 . S
C477 C476 1.392 . S
C477 H489 0.929 . S
C478 C474 1.531 . S
C478 H490 0.960 . S
C478 H491 0.962 . S
C478 H492 0.960 . S
C479 C476 1.511 . S
C479 H493 0.961 . S
C479 H494 0.961 . S
C479 H495 0.961 . S
C480 C481 1.370 . S
C480 C482 1.363 . S
C480 H496 0.931 . S
C481 C480 1.370 . S
C481 C485 1.408 . S
C482 C480 1.363 . S
C482 C483 1.370 . S
C482 C486 1.524 . S
C483 C475 1.503 . S
C483 C482 1.370 . S
C483 C484 1.403 . S
C484 C483 1.403 . S
C484 C485 1.404 . S
C484 C487 1.539 . S
C485 C481 1.408 . S
C485 C484 1.404 . S
C485 H497 0.930 . S
C486 C482 1.524 . S
C486 H498 0.956 . S
C486 H499 0.961 . S
C486 H500 0.961 . S
C487 C484 1.539 . S
C487 H501 0.958 . S
C487 H502 0.961 . S
C487 H503 0.960 . S
H488 C472 0.931 . S
H489 C477 0.929 . S
H490 C478 0.960 . S
H491 C478 0.962 . S
H492 C478 0.960 . S
H493 C479 0.961 . S
H494 C479 0.961 . S
H495 C479 0.961 . S
H496 C480 0.931 . S
H497 C485 0.930 . S
H498 C486 0.956 . S
H499 C486 0.961 . S
H500 C486 0.961 . S
H501 C487 0.958 . S
H502 C487 0.961 . S
H503 C487 0.960 . S
C504 C505 1.391 . S
C504 C506 1.394 . S
C504 H520 0.931 . S
C505 C504 1.391 . S
C505 C509 1.376 . S
C506 C504 1.394 . S
C506 C507 1.369 . S
C506 C510 1.531 . S
C507 C506 1.369 . S
C507 C508 1.410 . S
C507 C515 1.503 . S
C508 C507 1.410 . S
C508 C509 1.392 . S
C508 C511 1.511 . S
C509 C505 1.376 . S
C509 C508 1.392 . S
C509 H521 0.929 . S
C510 C506 1.531 . S
C510 H522 0.960 . S
C510 H523 0.962 . S
C510 H524 0.960 . S
C511 C508 1.511 . S
C511 H525 0.961 . S
C511 H526 0.961 . S
C511 H527 0.961 . S
C512 C513 1.370 . S
C512 C514 1.363 . S
C512 H528 0.931 . S
C513 C512 1.370 . S
C513 C517 1.408 . S
C514 C512 1.363 . S
C514 C515 1.370 . S
C514 C518 1.524 . S
C515 C507 1.503 . S
C515 C514 1.370 . S
C515 C516 1.403 . S
C516 C515 1.403 . S
C516 C517 1.404 . S
C516 C519 1.539 . S
C517 C513 1.408 . S
C517 C516 1.404 . S
C517 H529 0.930 . S
C518 C514 1.524 . S
C518 H530 0.956 . S
C518 H531 0.961 . S
C518 H532 0.961 . S
C519 C516 1.539 . S
C519 H533 0.958 . S
C519 H534 0.961 . S
C519 H535 0.960 . S
H520 C504 0.931 . S
H521 C509 0.929 . S
H522 C510 0.960 . S
H523 C510 0.962 . S
H524 C510 0.960 . S
H525 C511 0.961 . S
H526 C511 0.961 . S
H527 C511 0.961 . S
H528 C512 0.931 . S
H529 C517 0.930 . S
H530 C518 0.956 . S
H531 C518 0.961 . S
H532 C518 0.961 . S
H533 C519 0.958 . S
H534 C519 0.961 . S
H535 C519 0.960 . S
C536 C537 1.391 . S
C536 C538 1.394 . S
C536 H552 0.931 . S
C537 C536 1.391 . S
C537 C541 1.376 . S
C538 C536 1.394 . S
C538 C539 1.369 . S
C538 C542 1.531 . S
C539 C538 1.369 . S
C539 C540 1.410 . S
C539 C547 1.503 . S
C540 C539 1.410 . S
C540 C541 1.392 . S
C540 C543 1.511 . S
C541 C537 1.376 . S
C541 C540 1.392 . S
C541 H553 0.929 . S
C542 C538 1.531 . S
C542 H554 0.960 . S
C542 H555 0.962 . S
C542 H556 0.960 . S
C543 C540 1.511 . S
C543 H557 0.961 . S
C543 H558 0.961 . S
C543 H559 0.961 1_565 S
C544 C545 1.370 . S
C544 C546 1.363 . S
C544 H560 0.931 . S
C545 C544 1.370 . S
C545 C549 1.408 . S
C546 C544 1.363 . S
C546 C547 1.370 . S
C546 C550 1.524 . S
C547 C539 1.503 . S
C547 C546 1.370 . S
C547 C548 1.403 . S
C548 C547 1.403 . S
C548 C549 1.404 . S
C548 C551 1.539 . S
C549 C545 1.408 . S
C549 C548 1.404 . S
C549 H561 0.930 1_565 S
C550 C546 1.524 . S
C550 H562 0.956 . S
C550 H563 0.961 . S
C550 H564 0.961 . S
C551 C548 1.539 . S
C551 H565 0.958 . S
C551 H566 0.961 1_565 S
C551 H567 0.960 . S
H552 C536 0.931 . S
H553 C541 0.929 . S
H554 C542 0.960 . S
H555 C542 0.962 . S
H556 C542 0.960 . S
H557 C543 0.961 . S
H558 C543 0.961 . S
H559 C543 0.961 1_545 S
H560 C544 0.931 . S
H561 C549 0.930 1_545 S
H562 C550 0.956 . S
H563 C550 0.961 . S
H564 C550 0.961 . S
H565 C551 0.958 . S
H566 C551 0.961 1_545 S
H567 C551 0.960 . S
C568 C569 1.391 . S
C568 C570 1.394 . S
C568 H584 0.931 . S
C569 C568 1.391 . S
C569 C573 1.376 . S
C570 C568 1.394 . S
C570 C571 1.369 . S
C570 C574 1.531 . S
C571 C570 1.369 . S
C571 C572 1.410 . S
C571 C579 1.503 . S
C572 C571 1.410 . S
C572 C573 1.392 . S
C572 C575 1.511 . S
C573 C569 1.376 . S
C573 C572 1.392 . S
C573 H585 0.929 . S
C574 C570 1.531 . S
C574 H586 0.960 . S
C574 H587 0.962 . S
C574 H588 0.960 . S
C575 C572 1.511 . S
C575 H589 0.961 . S
C575 H590 0.961 . S
C575 H591 0.961 . S
C576 C577 1.370 . S
C576 C578 1.363 . S
C576 H592 0.931 . S
C577 C576 1.370 . S
C577 C581 1.408 . S
C578 C576 1.363 . S
C578 C579 1.370 . S
C578 C582 1.524 . S
C579 C571 1.503 . S
C579 C578 1.370 . S
C579 C580 1.403 . S
C580 C579 1.403 . S
C580 C581 1.404 . S
C580 C583 1.539 . S
C581 C577 1.408 . S
C581 C580 1.404 . S
C581 H593 0.930 . S
C582 C578 1.524 . S
C582 H594 0.956 . S
C582 H595 0.961 . S
C582 H596 0.961 . S
C583 C580 1.539 . S
C583 H597 0.958 . S
C583 H598 0.961 . S
C583 H599 0.960 . S
H584 C568 0.931 . S
H585 C573 0.929 . S
H586 C574 0.960 . S
H587 C574 0.962 . S
H588 C574 0.960 . S
H589 C575 0.961 . S
H590 C575 0.961 . S
H591 C575 0.961 . S
H592 C576 0.931 . S
H593 C581 0.930 . S
H594 C582 0.956 . S
H595 C582 0.961 . S
H596 C582 0.961 . S
H597 C583 0.958 . S
H598 C583 0.961 . S
H599 C583 0.960 . S
C600 C601 1.391 . S
C600 C602 1.394 . S
C600 H616 0.931 . S
C601 C600 1.391 . S
C601 C605 1.376 . S
C602 C600 1.394 . S
C602 C603 1.369 . S
C602 C606 1.531 . S
C603 C602 1.369 . S
C603 C604 1.410 . S
C603 C611 1.503 . S
C604 C603 1.410 . S
C604 C605 1.392 . S
C604 C607 1.511 . S
C605 C601 1.376 . S
C605 C604 1.392 . S
C605 H617 0.929 . S
C606 C602 1.531 . S
C606 H618 0.960 . S
C606 H619 0.962 . S
C606 H620 0.960 . S
C607 C604 1.511 . S
C607 H621 0.961 . S
C607 H622 0.961 . S
C607 H623 0.961 . S
C608 C609 1.370 . S
C608 C610 1.363 . S
C608 H624 0.931 . S
C609 C608 1.370 . S
C609 C613 1.408 . S
C610 C608 1.363 . S
C610 C611 1.370 . S
C610 C614 1.524 . S
C611 C603 1.503 . S
C611 C610 1.370 . S
C611 C612 1.403 . S
C612 C611 1.403 . S
C612 C613 1.404 . S
C612 C615 1.539 . S
C613 C609 1.408 . S
C613 C612 1.404 . S
C613 H625 0.930 . S
C614 C610 1.524 . S
C614 H626 0.956 . S
C614 H627 0.961 . S
C614 H628 0.961 . S
C615 C612 1.539 . S
C615 H629 0.958 . S
C615 H630 0.961 . S
C615 H631 0.960 . S
H616 C600 0.931 . S
H617 C605 0.929 . S
H618 C606 0.960 . S
H619 C606 0.962 . S
H620 C606 0.960 . S
H621 C607 0.961 . S
H622 C607 0.961 . S
H623 C607 0.961 . S
H624 C608 0.931 . S
H625 C613 0.930 . S
H626 C614 0.956 . S
H627 C614 0.961 . S
H628 C614 0.961 . S
H629 C615 0.958 . S
H630 C615 0.961 . S
H631 C615 0.960 . S
C632 C633 1.391 . S
C632 C634 1.394 . S
C632 H648 0.931 . S
C633 C632 1.391 . S
C633 C637 1.376 . S
C634 C632 1.394 . S
C634 C635 1.369 . S
C634 C638 1.531 . S
C635 C634 1.369 . S
C635 C636 1.410 . S
C635 C643 1.503 . S
C636 C635 1.410 . S
C636 C637 1.392 . S
C636 C639 1.511 . S
C637 C633 1.376 . S
C637 C636 1.392 . S
C637 H649 0.929 . S
C638 C634 1.531 . S
C638 H650 0.960 . S
C638 H651 0.962 . S
C638 H652 0.960 . S
C639 C636 1.511 . S
C639 H653 0.961 . S
C639 H654 0.961 . S
C639 H655 0.961 . S
C640 C641 1.370 . S
C640 C642 1.363 . S
C640 H656 0.931 . S
C641 C640 1.370 . S
C641 C645 1.408 . S
C642 C640 1.363 . S
C642 C643 1.370 . S
C642 C646 1.524 . S
C643 C635 1.503 . S
C643 C642 1.370 . S
C643 C644 1.403 . S
C644 C643 1.403 . S
C644 C645 1.404 . S
C644 C647 1.539 . S
C645 C641 1.408 . S
C645 C644 1.404 . S
C645 H657 0.930 . S
C646 C642 1.524 . S
C646 H658 0.956 . S
C646 H659 0.961 . S
C646 H660 0.961 . S
C647 C644 1.539 . S
C647 H661 0.958 . S
C647 H662 0.961 . S
C647 H663 0.960 . S
H648 C632 0.931 . S
H649 C637 0.929 . S
H650 C638 0.960 . S
H651 C638 0.962 . S
H652 C638 0.960 . S
H653 C639 0.961 . S
H654 C639 0.961 . S
H655 C639 0.961 . S
H656 C640 0.931 . S
H657 C645 0.930 . S
H658 C646 0.956 . S
H659 C646 0.961 . S
H660 C646 0.961 . S
H661 C647 0.958 . S
H662 C647 0.961 . S
H663 C647 0.960 . S
C664 C665 1.391 . S
C664 C666 1.394 . S
C664 H680 0.931 . S
C665 C664 1.391 . S
C665 C669 1.376 . S
C666 C664 1.394 . S
C666 C667 1.369 . S
C666 C670 1.531 . S
C667 C666 1.369 . S
C667 C668 1.410 . S
C667 C675 1.503 . S
C668 C667 1.410 . S
C668 C669 1.392 . S
C668 C671 1.511 . S
C669 C665 1.376 . S
C669 C668 1.392 . S
C669 H681 0.929 . S
C670 C666 1.531 . S
C670 H682 0.960 . S
C670 H683 0.962 . S
C670 H684 0.960 . S
C671 C668 1.511 . S
C671 H685 0.961 . S
C671 H686 0.961 . S
C671 H687 0.961 . S
C672 C673 1.370 . S
C672 C674 1.363 . S
C672 H688 0.931 . S
C673 C672 1.370 . S
C673 C677 1.408 . S
C674 C672 1.363 . S
C674 C675 1.370 . S
C674 C678 1.524 . S
C675 C667 1.503 . S
C675 C674 1.370 . S
C675 C676 1.403 . S
C676 C675 1.403 . S
C676 C677 1.404 . S
C676 C679 1.539 . S
C677 C673 1.408 . S
C677 C676 1.404 . S
C677 H689 0.930 . S
C678 C674 1.524 . S
C678 H690 0.956 . S
C678 H691 0.961 . S
C678 H692 0.961 . S
C679 C676 1.539 . S
C679 H693 0.958 . S
C679 H694 0.961 . S
C679 H695 0.960 . S
H680 C664 0.931 . S
H681 C669 0.929 . S
H682 C670 0.960 . S
H683 C670 0.962 . S
H684 C670 0.960 . S
H685 C671 0.961 . S
H686 C671 0.961 . S
H687 C671 0.961 . S
H688 C672 0.931 . S
H689 C677 0.930 . S
H690 C678 0.956 . S
H691 C678 0.961 . S
H692 C678 0.961 . S
H693 C679 0.958 . S
H694 C679 0.961 . S
H695 C679 0.960 . S
C696 C697 1.391 . S
C696 C698 1.394 . S
C696 H712 0.931 . S
C697 C696 1.391 . S
C697 C701 1.376 . S
C698 C696 1.394 . S
C698 C699 1.369 . S
C698 C702 1.531 . S
C699 C698 1.369 . S
C699 C700 1.410 . S
C699 C707 1.503 . S
C700 C699 1.410 . S
C700 C701 1.392 . S
C700 C703 1.511 . S
C701 C697 1.376 . S
C701 C700 1.392 . S
C701 H713 0.929 . S
C702 C698 1.531 . S
C702 H714 0.960 . S
C702 H715 0.962 . S
C702 H716 0.960 . S
C703 C700 1.511 . S
C703 H717 0.961 . S
C703 H718 0.961 . S
C703 H719 0.961 . S
C704 C705 1.370 . S
C704 C706 1.363 . S
C704 H720 0.931 . S
C705 C704 1.370 . S
C705 C709 1.408 . S
C706 C704 1.363 . S
C706 C707 1.370 . S
C706 C710 1.524 . S
C707 C699 1.503 . S
C707 C706 1.370 . S
C707 C708 1.403 . S
C708 C707 1.403 . S
C708 C709 1.404 . S
C708 C711 1.539 . S
C709 C705 1.408 . S
C709 C708 1.404 . S
C709 H721 0.930 . S
C710 C706 1.524 . S
C710 H722 0.956 . S
C710 H723 0.961 . S
C710 H724 0.961 . S
C711 C708 1.539 . S
C711 H725 0.958 . S
C711 H726 0.961 . S
C711 H727 0.960 . S
H712 C696 0.931 . S
H713 C701 0.929 . S
H714 C702 0.960 . S
H715 C702 0.962 . S
H716 C702 0.960 . S
H717 C703 0.961 . S
H718 C703 0.961 . S
H719 C703 0.961 . S
H720 C704 0.931 . S
H721 C709 0.930 . S
H722 C710 0.956 . S
H723 C710 0.961 . S
H724 C710 0.961 . S
H725 C711 0.958 . S
H726 C711 0.961 . S
H727 C711 0.960 . S
C728 C729 1.391 . S
C728 C730 1.394 . S
C728 H744 0.931 . S
C729 C728 1.391 . S
C729 C733 1.376 . S
C730 C728 1.394 . S
C730 C731 1.369 . S
C730 C734 1.531 . S
C731 C730 1.369 . S
C731 C732 1.410 . S
C731 C739 1.503 . S
C732 C731 1.410 . S
C732 C733 1.392 . S
C732 C735 1.511 . S
C733 C729 1.376 . S
C733 C732 1.392 . S
C733 H745 0.929 . S
C734 C730 1.531 . S
C734 H746 0.960 . S
C734 H747 0.962 . S
C734 H748 0.960 1_455 S
C735 C732 1.511 . S
C735 H749 0.961 . S
C735 H750 0.961 . S
C735 H751 0.961 . S
C736 C737 1.370 . S
C736 C738 1.363 . S
C736 H752 0.931 . S
C737 C736 1.370 . S
C737 C741 1.408 . S
C738 C736 1.363 . S
C738 C739 1.370 . S
C738 C742 1.524 . S
C739 C731 1.503 . S
C739 C738 1.370 . S
C739 C740 1.403 . S
C740 C739 1.403 . S
C740 C741 1.404 . S
C740 C743 1.539 . S
C741 C737 1.408 . S
C741 C740 1.404 . S
C741 H753 0.930 . S
C742 C738 1.524 . S
C742 H754 0.956 . S
C742 H755 0.961 . S
C742 H756 0.961 . S
C743 C740 1.539 . S
C743 H757 0.958 . S
C743 H758 0.961 . S
C743 H759 0.960 . S
H744 C728 0.931 . S
H745 C733 0.929 . S
H746 C734 0.960 . S
H747 C734 0.962 . S
H748 C734 0.960 1_655 S
H749 C735 0.961 . S
H750 C735 0.961 . S
H751 C735 0.961 . S
H752 C736 0.931 . S
H753 C741 0.930 . S
H754 C742 0.956 . S
H755 C742 0.961 . S
H756 C742 0.961 . S
H757 C743 0.958 . S
H758 C743 0.961 . S
H759 C743 0.960 . S
C760 C761 1.391 . S
C760 C762 1.394 . S
C760 H776 0.931 . S
C761 C760 1.391 . S
C761 C765 1.376 . S
C762 C760 1.394 . S
C762 C763 1.369 . S
C762 C766 1.531 . S
C763 C762 1.369 . S
C763 C764 1.410 . S
C763 C771 1.503 . S
C764 C763 1.410 . S
C764 C765 1.392 . S
C764 C767 1.511 . S
C765 C761 1.376 . S
C765 C764 1.392 . S
C765 H777 0.929 . S
C766 C762 1.531 . S
C766 H778 0.960 . S
C766 H779 0.962 . S
C766 H780 0.960 . S
C767 C764 1.511 . S
C767 H781 0.961 . S
C767 H782 0.961 . S
C767 H783 0.961 . S
C768 C769 1.370 . S
C768 C770 1.363 . S
C768 H784 0.931 . S
C769 C768 1.370 . S
C769 C773 1.408 . S
C770 C768 1.363 . S
C770 C771 1.370 . S
C770 C774 1.524 . S
C771 C763 1.503 . S
C771 C770 1.370 . S
C771 C772 1.403 . S
C772 C771 1.403 . S
C772 C773 1.404 . S
C772 C775 1.539 . S
C773 C769 1.408 . S
C773 C772 1.404 . S
C773 H785 0.930 . S
C774 C770 1.524 . S
C774 H786 0.956 . S
C774 H787 0.961 . S
C774 H788 0.961 . S
C775 C772 1.539 . S
C775 H789 0.958 . S
C775 H790 0.961 . S
C775 H791 0.960 . S
H776 C760 0.931 . S
H777 C765 0.929 . S
H778 C766 0.960 . S
H779 C766 0.962 . S
H780 C766 0.960 . S
H781 C767 0.961 . S
H782 C767 0.961 . S
H783 C767 0.961 . S
H784 C768 0.931 . S
H785 C773 0.930 . S
H786 C774 0.956 . S
H787 C774 0.961 . S
H788 C774 0.961 . S
H789 C775 0.958 . S
H790 C775 0.961 . S
H791 C775 0.960 . S
C792 C793 1.391 . S
C792 C794 1.394 . S
C792 H808 0.931 . S
C793 C792 1.391 . S
C793 C797 1.376 . S
C794 C792 1.394 . S
C794 C795 1.369 . S
C794 C798 1.531 . S
C795 C794 1.369 . S
C795 C796 1.410 . S
C795 C803 1.503 . S
C796 C795 1.410 . S
C796 C797 1.392 . S
C796 C799 1.511 . S
C797 C793 1.376 . S
C797 C796 1.392 . S
C797 H809 0.929 . S
C798 C794 1.531 . S
C798 H810 0.960 . S
C798 H811 0.962 . S
C798 H812 0.960 . S
C799 C796 1.511 . S
C799 H813 0.961 . S
C799 H814 0.961 . S
C799 H815 0.961 . S
C800 C801 1.370 . S
C800 C802 1.363 . S
C800 H816 0.931 1_655 S
C801 C800 1.370 . S
C801 C805 1.408 . S
C802 C800 1.363 . S
C802 C803 1.370 . S
C802 C806 1.521 1_655 S
C803 C795 1.503 . S
C803 C802 1.370 . S
C803 C804 1.403 . S
C804 C803 1.403 . S
C804 C805 1.404 . S
C804 C807 1.539 . S
C805 C801 1.408 . S
C805 C804 1.404 . S
C805 H817 0.930 . S
C806 C802 1.521 1_455 S
C806 H818 0.956 . S
C806 H819 0.960 1_455 S
C806 H820 0.965 . S
C807 C804 1.539 . S
C807 H821 0.958 . S
C807 H822 0.961 . S
C807 H823 0.960 . S
H808 C792 0.931 . S
H809 C797 0.929 . S
H810 C798 0.960 . S
H811 C798 0.962 . S
H812 C798 0.960 . S
H813 C799 0.961 . S
H814 C799 0.961 . S
H815 C799 0.961 . S
H816 C800 0.931 1_455 S
H817 C805 0.930 . S
H818 C806 0.956 . S
H819 C806 0.960 1_655 S
H820 C806 0.965 . S
H821 C807 0.958 . S
H822 C807 0.961 . S
H823 C807 0.960 . S
C824 C825 1.391 . S
C824 C826 1.394 . S
C824 H840 0.931 . S
C825 C824 1.391 . S
C825 C829 1.376 . S
C826 C824 1.394 . S
C826 C827 1.369 . S
C826 C830 1.531 . S
C827 C826 1.369 . S
C827 C828 1.410 . S
C827 C835 1.503 . S
C828 C827 1.410 . S
C828 C829 1.392 . S
C828 C831 1.511 . S
C829 C825 1.376 . S
C829 C828 1.392 . S
C829 H841 0.929 . S
C830 C826 1.531 . S
C830 H842 0.960 . S
C830 H843 0.962 . S
C830 H844 0.960 . S
C831 C828 1.511 . S
C831 H845 0.961 . S
C831 H846 0.961 . S
C831 H847 0.961 . S
C832 C833 1.370 . S
C832 C834 1.363 . S
C832 H848 0.931 . S
C833 C832 1.370 . S
C833 C837 1.408 . S
C834 C832 1.363 . S
C834 C835 1.370 . S
C834 C838 1.524 . S
C835 C827 1.503 . S
C835 C834 1.370 . S
C835 C836 1.403 . S
C836 C835 1.403 . S
C836 C837 1.404 . S
C836 C839 1.539 . S
C837 C833 1.408 . S
C837 C836 1.404 . S
C837 H849 0.930 1_565 S
C838 C834 1.524 . S
C838 H850 0.956 . S
C838 H851 0.961 . S
C838 H852 0.961 . S
C839 C836 1.539 . S
C839 H853 0.958 . S
C839 H854 0.961 . S
C839 H855 0.960 . S
H840 C824 0.931 . S
H841 C829 0.929 . S
H842 C830 0.960 . S
H843 C830 0.962 . S
H844 C830 0.960 . S
H845 C831 0.961 . S
H846 C831 0.961 . S
H847 C831 0.961 . S
H848 C832 0.931 . S
H849 C837 0.930 1_545 S
H850 C838 0.956 . S
H851 C838 0.961 . S
H852 C838 0.961 . S
H853 C839 0.958 . S
H854 C839 0.961 . S
H855 C839 0.960 . S
C856 C857 1.391 . S
C856 C858 1.394 . S
C856 H872 0.931 . S
C857 C856 1.391 . S
C857 C861 1.376 . S
C858 C856 1.394 . S
C858 C859 1.369 . S
C858 C862 1.531 . S
C859 C858 1.369 . S
C859 C860 1.410 . S
C859 C867 1.503 . S
C860 C859 1.410 . S
C860 C861 1.392 . S
C860 C863 1.511 . S
C861 C857 1.376 . S
C861 C860 1.392 . S
C861 H873 0.929 . S
C862 C858 1.531 . S
C862 H874 0.960 . S
C862 H875 0.962 . S
C862 H876 0.960 . S
C863 C860 1.511 . S
C863 H877 0.961 . S
C863 H878 0.961 . S
C863 H879 0.961 . S
C864 C865 1.370 . S
C864 C866 1.363 . S
C864 H880 0.931 . S
C865 C864 1.370 . S
C865 C869 1.408 . S
C866 C864 1.363 . S
C866 C867 1.370 . S
C866 C870 1.524 . S
C867 C859 1.503 . S
C867 C866 1.370 . S
C867 C868 1.403 . S
C868 C867 1.403 . S
C868 C869 1.404 . S
C868 C871 1.539 . S
C869 C865 1.408 . S
C869 C868 1.404 . S
C869 H881 0.930 . S
C870 C866 1.524 . S
C870 H882 0.956 . S
C870 H883 0.961 . S
C870 H884 0.961 . S
C871 C868 1.539 . S
C871 H885 0.958 . S
C871 H886 0.961 . S
C871 H887 0.960 . S
H872 C856 0.931 . S
H873 C861 0.929 . S
H874 C862 0.960 . S
H875 C862 0.962 . S
H876 C862 0.960 . S
H877 C863 0.961 . S
H878 C863 0.961 . S
H879 C863 0.961 . S
H880 C864 0.931 . S
H881 C869 0.930 . S
H882 C870 0.956 . S
H883 C870 0.961 . S
H884 C870 0.961 . S
H885 C871 0.958 . S
H886 C871 0.961 . S
H887 C871 0.960 . S
C888 C889 1.391 . S
C888 C890 1.394 . S
C888 H904 0.931 . S
C889 C888 1.391 . S
C889 C893 1.376 . S
C890 C888 1.394 . S
C890 C891 1.369 . S
C890 C894 1.531 . S
C891 C890 1.369 . S
C891 C892 1.410 . S
C891 C899 1.530 . S
C892 C891 1.410 . S
C892 C893 1.392 . S
C892 C895 1.511 1_545 S
C893 C889 1.376 . S
C893 C892 1.392 . S
C893 H905 0.929 . S
C894 C890 1.531 . S
C894 H906 0.960 . S
C894 H907 0.962 . S
C894 H908 0.960 . S
C895 C892 1.511 1_565 S
C895 H909 0.961 1_565 S
C895 H910 0.961 1_556 S
C895 H911 0.961 . S
C896 C897 1.370 . S
C896 C898 1.363 1_565 S
C896 H912 0.931 . S
C897 C896 1.370 . S
C897 C901 1.408 1_554 S
C898 C896 1.363 1_545 S
C898 C899 1.378 1_554 S
C898 C902 1.524 . S
C899 C891 1.530 . S
C899 C898 1.378 1_556 S
C899 C900 1.370 1_545 S
C900 C899 1.370 1_565 S
C900 C901 1.404 . S
C900 C903 1.539 . S
C901 C897 1.408 1_556 S
C901 C900 1.404 . S
C901 H913 0.930 . S
C902 C898 1.524 . S
C902 H914 0.956 . S
C902 H915 0.961 . S
C902 H916 0.961 . S
C903 C900 1.539 . S
C903 H917 0.958 . S
C903 H918 0.961 . S
C903 H919 0.960 . S
H904 C888 0.931 . S
H905 C893 0.929 . S
H906 C894 0.960 . S
H907 C894 0.962 . S
H908 C894 0.960 . S
H909 C895 0.961 1_545 S
H910 C895 0.961 1_554 S
H911 C895 0.961 . S
H912 C896 0.931 . S
H913 C901 0.930 . S
H914 C902 0.956 . S
H915 C902 0.961 . S
H916 C902 0.961 . S
H917 C903 0.958 . S
H918 C903 0.961 . S
H919 C903 0.960 . S
C920 C921 1.391 . S
C920 C922 1.394 . S
C920 H936 0.931 . S
C921 C920 1.391 . S
C921 C925 1.376 . S
C922 C920 1.394 . S
C922 C923 1.369 . S
C922 C926 1.531 . S
C923 C922 1.369 . S
C923 C924 1.410 . S
C923 C931 1.503 . S
C924 C923 1.410 . S
C924 C925 1.392 . S
C924 C927 1.511 . S
C925 C921 1.376 . S
C925 C924 1.392 . S
C925 H937 0.929 . S
C926 C922 1.531 . S
C926 H938 0.960 . S
C926 H939 0.962 . S
C926 H940 0.960 . S
C927 C924 1.511 . S
C927 H941 0.961 . S
C927 H942 0.961 . S
C927 H943 0.961 . S
C928 C929 1.370 . S
C928 C930 1.363 . S
C928 H944 0.931 . S
C929 C928 1.370 . S
C929 C933 1.408 . S
C930 C928 1.363 . S
C930 C931 1.370 . S
C930 C934 1.524 . S
C931 C923 1.503 . S
C931 C930 1.370 . S
C931 C932 1.403 . S
C932 C931 1.403 . S
C932 C933 1.404 . S
C932 C935 1.539 . S
C933 C929 1.408 . S
C933 C932 1.404 . S
C933 H945 0.930 . S
C934 C930 1.524 . S
C934 H946 0.956 . S
C934 H947 0.961 . S
C934 H948 0.961 . S
C935 C932 1.539 . S
C935 H949 0.958 . S
C935 H950 0.961 . S
C935 H951 0.960 . S
H936 C920 0.931 . S
H937 C925 0.929 . S
H938 C926 0.960 . S
H939 C926 0.962 . S
H940 C926 0.960 . S
H941 C927 0.961 . S
H942 C927 0.961 . S
H943 C927 0.961 . S
H944 C928 0.931 . S
H945 C933 0.930 . S
H946 C934 0.956 . S
H947 C934 0.961 . S
H948 C934 0.961 . S
H949 C935 0.958 . S
H950 C935 0.961 . S
H951 C935 0.960 . S
C952 C953 1.391 1_545 S
C952 C954 1.394 . S
C952 H968 0.931 . S
C953 C952 1.391 1_565 S
C953 C957 1.376 . S
C954 C952 1.394 . S
C954 C955 1.369 . S
C954 C958 1.531 . S
C955 C954 1.369 . S
C955 C956 1.410 . S
C955 C963 1.503 . S
C956 C955 1.410 . S
C956 C957 1.392 1_545 S
C956 C959 1.511 . S
C957 C953 1.376 . S
C957 C956 1.392 1_565 S
C957 H969 0.929 . S
C958 C954 1.531 . S
C958 H970 0.960 . S
C958 H971 0.962 . S
C958 H972 0.960 . S
C959 C956 1.511 . S
C959 H973 0.961 . S
C959 H974 0.961 . S
C959 H975 0.985 . S
C960 C961 1.370 . S
C960 C962 1.363 . S
C960 H976 0.931 . S
C961 C960 1.370 . S
C961 C965 1.408 . S
C962 C960 1.363 . S
C962 C963 1.370 . S
C962 C966 1.524 . S
C963 C955 1.503 . S
C963 C962 1.370 . S
C963 C964 1.403 . S
C964 C963 1.403 . S
C964 C965 1.404 . S
C964 C967 1.539 . S
C965 C961 1.408 . S
C965 C964 1.404 . S
C965 H977 0.930 . S
C966 C962 1.524 . S
C966 H978 0.956 . S
C966 H979 0.961 . S
C966 H980 0.961 . S
C967 C964 1.539 . S
C967 H981 0.958 . S
C967 H982 0.961 . S
C967 H983 0.960 . S
H968 C952 0.931 . S
H969 C957 0.929 . S
H970 C958 0.960 . S
H971 C958 0.962 . S
H972 C958 0.960 . S
H973 C959 0.961 . S
H974 C959 0.961 . S
H975 C959 0.985 . S
H976 C960 0.931 . S
H977 C965 0.930 . S
H978 C966 0.956 . S
H979 C966 0.961 . S
H980 C966 0.961 . S
H981 C967 0.958 . S
H982 C967 0.961 . S
H983 C967 0.960 . S
C984 C985 1.391 . S
C984 C986 1.394 . S
C984 H1000 0.931 . S
C985 C984 1.391 . S
C985 C989 1.376 . S
C986 C984 1.394 . S
C986 C987 1.369 . S
C986 C990 1.531 . S
C987 C986 1.369 . S
C987 C988 1.410 . S
C987 C995 1.503 . S
C988 C987 1.410 . S
C988 C989 1.392 . S
C988 C991 1.511 . S
C989 C985 1.376 . S
C989 C988 1.392 . S
C989 H1001 0.929 . S
C990 C986 1.531 . S
C990 H1002 0.960 . S
C990 H1003 0.962 . S
C990 H1004 0.960 . S
C991 C988 1.511 . S
C991 H1005 0.961 . S
C991 H1006 0.961 . S
C991 H1007 0.961 . S
C992 C993 1.370 . S
C992 C994 1.363 . S
C992 H1008 0.931 . S
C993 C992 1.370 . S
C993 C997 1.408 . S
C994 C992 1.363 . S
C994 C995 1.370 . S
C994 C998 1.524 . S
C995 C987 1.503 . S
C995 C994 1.370 . S
C995 C996 1.403 . S
C996 C995 1.403 . S
C996 C997 1.404 . S
C996 C999 1.539 . S
C997 C993 1.408 . S
C997 C996 1.404 . S
C997 H1009 0.930 . S
C998 C994 1.524 . S
C998 H1010 0.956 . S
C998 H1011 0.961 . S
C998 H1012 0.961 . S
C999 C996 1.539 . S
C999 H1013 0.958 . S
C999 H1014 0.961 . S
C999 H1015 0.960 . S
H1000 C984 0.931 . S
H1001 C989 0.929 . S
H1002 C990 0.960 . S
H1003 C990 0.962 . S
H1004 C990 0.960 . S
H1005 C991 0.961 . S
H1006 C991 0.961 . S
H1007 C991 0.961 . S
H1008 C992 0.931 . S
H1009 C997 0.930 . S
H1010 C998 0.956 . S
H1011 C998 0.961 . S
H1012 C998 0.961 . S
H1013 C999 0.958 . S
H1014 C999 0.961 . S
H1015 C999 0.960 . S
C1016 C1017 1.391 . S
C1016 C1018 1.394 . S
C1016 H1032 0.931 . S
C1017 C1016 1.391 . S
C1017 C1021 1.376 . S
C1018 C1016 1.394 . S
C1018 C1019 1.369 1_565 S
C1018 C1022 1.527 1_565 S
C1019 C1018 1.369 1_545 S
C1019 C1020 1.410 . S
C1019 C1027 1.503 . S
C1020 C1019 1.410 . S
C1020 C1021 1.392 1_545 S
C1020 C1023 1.511 . S
C1021 C1017 1.376 . S
C1021 C1020 1.392 1_565 S
C1021 H1033 0.929 . S
C1022 C1018 1.527 1_545 S
C1022 H1034 0.973 . S
C1022 H1035 0.958 1_545 S
C1022 H1036 0.955 1_545 S
C1023 C1020 1.511 . S
C1023 H1037 0.961 . S
C1023 H1038 0.961 . S
C1023 H1039 0.961 . S
C1024 C1025 1.370 . S
C1024 C1026 1.363 . S
C1024 H1040 0.931 . S
C1025 C1024 1.370 . S
C1025 C1029 1.408 . S
C1026 C1024 1.363 . S
C1026 C1027 1.370 . S
C1026 C1030 1.524 . S
C1027 C1019 1.503 . S
C1027 C1026 1.370 . S
C1027 C1028 1.403 . S
C1028 C1027 1.403 . S
C1028 C1029 1.404 . S
C1028 C1031 1.539 . S
C1029 C1025 1.408 . S
C1029 C1028 1.404 . S
C1029 H1041 0.930 . S
C1030 C1026 1.524 . S
C1030 H1042 0.956 1_545 S
C1030 H1043 0.961 1_545 S
C1030 H1044 0.961 . S
C1031 C1028 1.539 . S
C1031 H1045 0.958 . S
C1031 H1046 0.961 . S
C1031 H1047 0.960 . S
H1032 C1016 0.931 . S
H1033 C1021 0.929 . S
H1034 C1022 0.973 . S
H1035 C1022 0.958 1_565 S
H1036 C1022 0.955 1_565 S
H1037 C1023 0.961 . S
H1038 C1023 0.961 . S
H1039 C1023 0.961 . S
H1040 C1024 0.931 . S
H1041 C1029 0.930 . S
H1042 C1030 0.956 1_565 S
H1043 C1030 0.961 1_565 S
H1044 C1030 0.961 . S
H1045 C1031 0.958 . S
H1046 C1031 0.961 . S
H1047 C1031 0.960 . S
C1048 C1049 1.391 . S
C1048 C1050 1.394 . S
C1048 H1064 0.931 . S
C1049 C1048 1.391 . S
C1049 C1053 1.376 . S
C1050 C1048 1.394 . S
C1050 C1051 1.369 . S
C1050 C1054 1.531 . S
C1051 C1050 1.369 . S
C1051 C1052 1.410 . S
C1051 C1059 1.503 . S
C1052 C1051 1.410 . S
C1052 C1053 1.392 . S
C1052 C1055 1.511 . S
C1053 C1049 1.376 . S
C1053 C1052 1.392 . S
C1053 H1065 0.929 . S
C1054 C1050 1.531 . S
C1054 H1066 0.960 . S
C1054 H1067 0.962 . S
C1054 H1068 0.960 . S
C1055 C1052 1.511 . S
C1055 H1069 0.961 . S
C1055 H1070 0.961 . S
C1055 H1071 0.961 . S
C1056 C1057 1.370 . S
C1056 C1058 1.363 . S
C1056 H1072 0.931 . S
C1057 C1056 1.370 . S
C1057 C1061 1.408 . S
C1058 C1056 1.363 . S
C1058 C1059 1.370 . S
C1058 C1062 1.524 . S
C1059 C1051 1.503 . S
C1059 C1058 1.370 . S
C1059 C1060 1.403 . S
C1060 C1059 1.403 . S
C1060 C1061 1.404 . S
C1060 C1063 1.539 . S
C1061 C1057 1.408 . S
C1061 C1060 1.404 . S
C1061 H1073 0.930 . S
C1062 C1058 1.524 . S
C1062 H1074 0.956 . S
C1062 H1075 0.961 . S
C1062 H1076 0.961 . S
C1063 C1060 1.539 . S
C1063 H1077 0.958 . S
C1063 H1078 0.961 . S
C1063 H1079 0.960 . S
H1064 C1048 0.931 . S
H1065 C1053 0.929 . S
H1066 C1054 0.960 . S
H1067 C1054 0.962 . S
H1068 C1054 0.960 . S
H1069 C1055 0.961 . S
H1070 C1055 0.961 . S
H1071 C1055 0.961 . S
H1072 C1056 0.931 . S
H1073 C1061 0.930 . S
H1074 C1062 0.956 . S
H1075 C1062 0.961 . S
H1076 C1062 0.961 . S
H1077 C1063 0.958 . S
H1078 C1063 0.961 . S
H1079 C1063 0.960 . S
C1080 C1081 1.391 . S
C1080 C1082 1.394 . S
C1080 H1096 0.931 . S
C1081 C1080 1.391 . S
C1081 C1085 1.376 . S
C1082 C1080 1.394 . S
C1082 C1083 1.369 . S
C1082 C1086 1.531 . S
C1083 C1082 1.369 . S
C1083 C1084 1.410 . S
C1083 C1091 1.503 . S
C1084 C1083 1.410 . S
C1084 C1085 1.392 . S
C1084 C1087 1.511 . S
C1085 C1081 1.376 . S
C1085 C1084 1.392 . S
C1085 H1097 0.929 . S
C1086 C1082 1.531 . S
C1086 H1098 0.960 . S
C1086 H1099 0.962 . S
C1086 H1100 0.960 . S
C1087 C1084 1.511 . S
C1087 H1101 0.961 . S
C1087 H1102 0.961 . S
C1087 H1103 0.961 . S
C1088 C1089 1.370 . S
C1088 C1090 1.363 . S
C1088 H1104 0.931 . S
C1089 C1088 1.370 . S
C1089 C1093 1.408 . S
C1090 C1088 1.363 . S
C1090 C1091 1.370 . S
C1090 C1094 1.524 . S
C1091 C1083 1.503 . S
C1091 C1090 1.370 . S
C1091 C1092 1.403 . S
C1092 C1091 1.403 . S
C1092 C1093 1.404 . S
C1092 C1095 1.539 . S
C1093 C1089 1.408 . S
C1093 C1092 1.404 . S
C1093 H1105 0.930 . S
C1094 C1090 1.524 . S
C1094 H1106 0.956 . S
C1094 H1107 0.961 . S
C1094 H1108 0.961 . S
C1095 C1092 1.539 . S
C1095 H1109 0.958 . S
C1095 H1110 0.961 . S
C1095 H1111 0.960 . S
H1096 C1080 0.931 . S
H1097 C1085 0.929 . S
H1098 C1086 0.960 . S
H1099 C1086 0.962 . S
H1100 C1086 0.960 . S
H1101 C1087 0.961 . S
H1102 C1087 0.961 . S
H1103 C1087 0.961 . S
H1104 C1088 0.931 . S
H1105 C1093 0.930 . S
H1106 C1094 0.956 . S
H1107 C1094 0.961 . S
H1108 C1094 0.961 . S
H1109 C1095 0.958 . S
H1110 C1095 0.961 . S
H1111 C1095 0.960 . S
C1112 C1113 1.391 . S
C1112 C1114 1.394 . S
C1112 H1128 0.931 . S
C1113 C1112 1.391 . S
C1113 C1117 1.376 . S
C1114 C1112 1.394 . S
C1114 C1115 1.369 . S
C1114 C1118 1.531 . S
C1115 C1114 1.369 . S
C1115 C1116 1.410 . S
C1115 C1123 1.503 . S
C1116 C1115 1.410 . S
C1116 C1117 1.392 . S
C1116 C1119 1.511 . S
C1117 C1113 1.376 . S
C1117 C1116 1.392 . S
C1117 H1129 0.929 . S
C1118 C1114 1.531 . S
C1118 H1130 0.960 . S
C1118 H1131 0.962 . S
C1118 H1132 0.960 . S
C1119 C1116 1.511 . S
C1119 H1133 0.961 . S
C1119 H1134 0.961 . S
C1119 H1135 0.961 . S
C1120 C1121 1.370 . S
C1120 C1122 1.363 . S
C1120 H1136 0.931 . S
C1121 C1120 1.370 . S
C1121 C1125 1.408 . S
C1122 C1120 1.363 . S
C1122 C1123 1.370 . S
C1122 C1126 1.524 . S
C1123 C1115 1.503 . S
C1123 C1122 1.370 . S
C1123 C1124 1.403 . S
C1124 C1123 1.403 . S
C1124 C1125 1.404 . S
C1124 C1127 1.539 . S
C1125 C1121 1.408 . S
C1125 C1124 1.404 . S
C1125 H1137 0.930 . S
C1126 C1122 1.524 . S
C1126 H1138 0.956 . S
C1126 H1139 0.961 . S
C1126 H1140 0.961 . S
C1127 C1124 1.539 . S
C1127 H1141 0.958 . S
C1127 H1142 0.961 1_545 S
C1127 H1143 0.960 . S
H1128 C1112 0.931 . S
H1129 C1117 0.929 . S
H1130 C1118 0.960 . S
H1131 C1118 0.962 . S
H1132 C1118 0.960 . S
H1133 C1119 0.961 . S
H1134 C1119 0.961 . S
H1135 C1119 0.961 . S
H1136 C1120 0.931 . S
H1137 C1125 0.930 . S
H1138 C1126 0.956 . S
H1139 C1126 0.961 . S
H1140 C1126 0.961 . S
H1141 C1127 0.958 . S
H1142 C1127 0.961 1_565 S
H1143 C1127 0.960 . S
C1144 C1145 1.391 . S
C1144 C1146 1.394 . S
C1144 H1160 0.931 . S
C1145 C1144 1.391 . S
C1145 C1149 1.376 . S
C1146 C1144 1.394 . S
C1146 C1147 1.369 . S
C1146 C1150 1.531 . S
C1147 C1146 1.369 . S
C1147 C1148 1.410 . S
C1147 C1155 1.503 . S
C1148 C1147 1.410 . S
C1148 C1149 1.392 . S
C1148 C1151 1.511 . S
C1149 C1145 1.376 . S
C1149 C1148 1.392 . S
C1149 H1161 0.929 . S
C1150 C1146 1.531 . S
C1150 H1162 0.960 . S
C1150 H1163 0.962 . S
C1150 H1164 0.960 . S
C1151 C1148 1.511 . S
C1151 H1165 0.961 . S
C1151 H1166 0.961 . S
C1151 H1167 0.961 . S
C1152 C1153 1.370 . S
C1152 C1154 1.363 . S
C1152 H1168 0.931 . S
C1153 C1152 1.370 . S
C1153 C1157 1.408 . S
C1154 C1152 1.363 . S
C1154 C1155 1.370 . S
C1154 C1158 1.524 . S
C1155 C1147 1.503 . S
C1155 C1154 1.370 . S
C1155 C1156 1.403 . S
C1156 C1155 1.403 . S
C1156 C1157 1.404 . S
C1156 C1159 1.539 . S
C1157 C1153 1.408 . S
C1157 C1156 1.404 . S
C1157 H1169 0.930 . S
C1158 C1154 1.524 . S
C1158 H1170 0.956 . S
C1158 H1171 0.961 . S
C1158 H1172 0.961 . S
C1159 C1156 1.539 . S
C1159 H1173 0.958 . S
C1159 H1174 0.961 . S
C1159 H1175 0.960 . S
H1160 C1144 0.931 . S
H1161 C1149 0.929 . S
H1162 C1150 0.960 . S
H1163 C1150 0.962 . S
H1164 C1150 0.960 . S
H1165 C1151 0.961 . S
H1166 C1151 0.961 . S
H1167 C1151 0.961 . S
H1168 C1152 0.931 . S
H1169 C1157 0.930 . S
H1170 C1158 0.956 . S
H1171 C1158 0.961 . S
H1172 C1158 0.961 . S
H1173 C1159 0.958 . S
H1174 C1159 0.961 . S
H1175 C1159 0.960 . S
C1176 C1177 1.391 . S
C1176 C1178 1.394 . S
C1176 H1192 0.931 . S
C1177 C1176 1.391 . S
C1177 C1181 1.376 . S
C1178 C1176 1.394 . S
C1178 C1179 1.369 . S
C1178 C1182 1.531 . S
C1179 C1178 1.369 . S
C1179 C1180 1.410 . S
C1179 C1187 1.503 . S
C1180 C1179 1.410 . S
C1180 C1181 1.392 . S
C1180 C1183 1.511 . S
C1181 C1177 1.376 . S
C1181 C1180 1.392 . S
C1181 H1193 0.929 . S
C1182 C1178 1.531 . S
C1182 H1194 0.960 . S
C1182 H1195 0.962 . S
C1182 H1196 0.960 . S
C1183 C1180 1.511 . S
C1183 H1197 0.961 . S
C1183 H1198 0.961 . S
C1183 H1199 0.961 . S
C1184 C1185 1.370 . S
C1184 C1186 1.363 . S
C1184 H1200 0.931 . S
C1185 C1184 1.370 . S
C1185 C1189 1.408 . S
C1186 C1184 1.363 . S
C1186 C1187 1.370 . S
C1186 C1190 1.524 . S
C1187 C1179 1.503 . S
C1187 C1186 1.370 . S
C1187 C1188 1.403 . S
C1188 C1187 1.403 . S
C1188 C1189 1.404 . S
C1188 C1191 1.539 . S
C1189 C1185 1.408 . S
C1189 C1188 1.404 . S
C1189 H1201 0.930 . S
C1190 C1186 1.524 . S
C1190 H1202 0.956 . S
C1190 H1203 0.961 . S
C1190 H1204 0.961 . S
C1191 C1188 1.539 . S
C1191 H1205 0.958 . S
C1191 H1206 0.961 . S
C1191 H1207 0.960 . S
H1192 C1176 0.931 . S
H1193 C1181 0.929 . S
H1194 C1182 0.960 . S
H1195 C1182 0.962 . S
H1196 C1182 0.960 . S
H1197 C1183 0.961 . S
H1198 C1183 0.961 . S
H1199 C1183 0.961 . S
H1200 C1184 0.931 . S
H1201 C1189 0.930 . S
H1202 C1190 0.956 . S
H1203 C1190 0.961 . S
H1204 C1190 0.961 . S
H1205 C1191 0.958 . S
H1206 C1191 0.961 . S
H1207 C1191 0.960 . S
C1208 C1209 1.391 . S
C1208 C1210 1.394 . S
C1208 H1224 0.931 . S
C1209 C1208 1.391 . S
C1209 C1213 1.376 . S
C1210 C1208 1.394 . S
C1210 C1211 1.369 . S
C1210 C1214 1.531 . S
C1211 C1210 1.369 . S
C1211 C1212 1.410 . S
C1211 C1219 1.503 . S
C1212 C1211 1.410 . S
C1212 C1213 1.392 . S
C1212 C1215 1.511 . S
C1213 C1209 1.376 . S
C1213 C1212 1.392 . S
C1213 H1225 0.929 . S
C1214 C1210 1.531 . S
C1214 H1226 0.960 . S
C1214 H1227 0.962 . S
C1214 H1228 0.960 . S
C1215 C1212 1.511 . S
C1215 H1229 0.961 . S
C1215 H1230 0.961 . S
C1215 H1231 0.961 . S
C1216 C1217 1.370 . S
C1216 C1218 1.363 . S
C1216 H1232 0.931 . S
C1217 C1216 1.370 . S
C1217 C1221 1.408 . S
C1218 C1216 1.363 . S
C1218 C1219 1.370 . S
C1218 C1222 1.524 . S
C1219 C1211 1.503 . S
C1219 C1218 1.370 . S
C1219 C1220 1.403 . S
C1220 C1219 1.403 . S
C1220 C1221 1.404 . S
C1220 C1223 1.539 . S
C1221 C1217 1.408 . S
C1221 C1220 1.404 . S
C1221 H1233 0.930 . S
C1222 C1218 1.524 . S
C1222 H1234 0.956 . S
C1222 H1235 0.961 . S
C1222 H1236 0.961 . S
C1223 C1220 1.539 . S
C1223 H1237 0.958 . S
C1223 H1238 0.961 . S
C1223 H1239 0.960 . S
H1224 C1208 0.931 . S
H1225 C1213 0.929 . S
H1226 C1214 0.960 . S
H1227 C1214 0.962 . S
H1228 C1214 0.960 . S
H1229 C1215 0.961 . S
H1230 C1215 0.961 . S
H1231 C1215 0.961 . S
H1232 C1216 0.931 . S
H1233 C1221 0.930 . S
H1234 C1222 0.956 . S
H1235 C1222 0.961 . S
H1236 C1222 0.961 . S
H1237 C1223 0.958 . S
H1238 C1223 0.961 . S
H1239 C1223 0.960 . S
C1240 C1241 1.391 . S
C1240 C1242 1.394 . S
C1240 H1256 0.931 . S
C1241 C1240 1.391 . S
C1241 C1245 1.376 . S
C1242 C1240 1.394 . S
C1242 C1243 1.369 . S
C1242 C1246 1.531 . S
C1243 C1242 1.369 . S
C1243 C1244 1.410 . S
C1243 C1251 1.503 . S
C1244 C1243 1.410 . S
C1244 C1245 1.392 . S
C1244 C1247 1.511 . S
C1245 C1241 1.376 . S
C1245 C1244 1.392 . S
C1245 H1257 0.929 . S
C1246 C1242 1.531 . S
C1246 H1258 0.960 1_455 S
C1246 H1259 0.962 . S
C1246 H1260 0.960 . S
C1247 C1244 1.511 . S
C1247 H1261 0.961 . S
C1247 H1262 0.961 . S
C1247 H1263 0.961 . S
C1248 C1249 1.370 . S
C1248 C1250 1.363 1_655 S
C1248 H1264 0.931 . S
C1249 C1248 1.370 . S
C1249 C1253 1.408 . S
C1250 C1248 1.363 1_455 S
C1250 C1251 1.370 . S
C1250 C1254 1.524 . S
C1251 C1243 1.503 . S
C1251 C1250 1.370 . S
C1251 C1252 1.403 1_455 S
C1252 C1251 1.403 1_655 S
C1252 C1253 1.404 . S
C1252 C1255 1.539 . S
C1253 C1249 1.408 . S
C1253 C1252 1.404 . S
C1253 H1265 0.930 . S
C1254 C1250 1.524 . S
C1254 H1266 0.956 . S
C1254 H1267 0.961 . S
C1254 H1268 0.961 . S
C1255 C1252 1.539 . S
C1255 H1269 0.958 . S
C1255 H1270 0.961 . S
C1255 H1271 0.960 . S
H1256 C1240 0.931 . S
H1257 C1245 0.929 . S
H1258 C1246 0.960 1_655 S
H1259 C1246 0.962 . S
H1260 C1246 0.960 . S
H1261 C1247 0.961 . S
H1262 C1247 0.961 . S
H1263 C1247 0.961 . S
H1264 C1248 0.931 . S
H1265 C1253 0.930 . S
H1266 C1254 0.956 . S
H1267 C1254 0.961 . S
H1268 C1254 0.961 . S
H1269 C1255 0.958 . S
H1270 C1255 0.961 . S
H1271 C1255 0.960 . S
C1272 C1273 1.391 . S
C1272 C1274 1.394 . S
C1272 H1288 0.931 . S
C1273 C1272 1.391 . S
C1273 C1277 1.376 . S
C1274 C1272 1.394 . S
C1274 C1275 1.369 . S
C1274 C1278 1.531 . S
C1275 C1274 1.369 . S
C1275 C1276 1.410 . S
C1275 C1283 1.503 . S
C1276 C1275 1.410 . S
C1276 C1277 1.392 . S
C1276 C1279 1.511 . S
C1277 C1273 1.376 . S
C1277 C1276 1.392 . S
C1277 H1289 0.929 . S
C1278 C1274 1.531 . S
C1278 H1290 0.960 . S
C1278 H1291 0.962 . S
C1278 H1292 0.960 . S
C1279 C1276 1.511 . S
C1279 H1293 0.961 . S
C1279 H1294 0.961 . S
C1279 H1295 0.961 . S
C1280 C1281 1.370 . S
C1280 C1282 1.363 . S
C1280 H1296 0.931 . S
C1281 C1280 1.370 . S
C1281 C1285 1.408 . S
C1282 C1280 1.363 . S
C1282 C1283 1.370 . S
C1282 C1286 1.524 . S
C1283 C1275 1.503 . S
C1283 C1282 1.370 . S
C1283 C1284 1.403 . S
C1284 C1283 1.403 . S
C1284 C1285 1.404 . S
C1284 C1287 1.539 . S
C1285 C1281 1.408 . S
C1285 C1284 1.404 . S
C1285 H1297 0.930 . S
C1286 C1282 1.524 . S
C1286 H1298 0.956 . S
C1286 H1299 0.961 . S
C1286 H1300 0.961 . S
C1287 C1284 1.539 . S
C1287 H1301 0.958 . S
C1287 H1302 0.961 . S
C1287 H1303 0.960 . S
H1288 C1272 0.931 . S
H1289 C1277 0.929 . S
H1290 C1278 0.960 . S
H1291 C1278 0.962 . S
H1292 C1278 0.960 . S
H1293 C1279 0.961 . S
H1294 C1279 0.961 . S
H1295 C1279 0.961 . S
H1296 C1280 0.931 . S
H1297 C1285 0.930 . S
H1298 C1286 0.956 . S
H1299 C1286 0.961 . S
H1300 C1286 0.961 . S
H1301 C1287 0.958 . S
H1302 C1287 0.961 . S
H1303 C1287 0.960 . S
C1304 C1305 1.391 . S
C1304 C1306 1.394 . S
C1304 H1320 0.931 . S
C1305 C1304 1.391 . S
C1305 C1309 1.376 . S
C1306 C1304 1.394 . S
C1306 C1307 1.369 . S
C1306 C1310 1.531 . S
C1307 C1306 1.369 . S
C1307 C1308 1.410 . S
C1307 C1315 1.485 1_655 S
C1308 C1307 1.410 . S
C1308 C1309 1.392 . S
C1308 C1311 1.511 1_655 S
C1309 C1305 1.376 . S
C1309 C1308 1.392 . S
C1309 H1321 0.929 . S
C1310 C1306 1.531 . S
C1310 H1322 0.960 . S
C1310 H1323 0.962 . S
C1310 H1324 0.960 . S
C1311 C1308 1.511 1_455 S
C1311 H1325 0.961 . S
C1311 H1326 0.961 . S
C1311 H1327 0.961 . S
C1312 C1313 1.370 . S
C1312 C1314 1.374 . S
C1312 H1328 0.931 . S
C1313 C1312 1.370 . S
C1313 C1317 1.408 . S
C1314 C1312 1.374 . S
C1314 C1315 1.370 . S
C1314 C1318 1.512 1_455 S
C1315 C1307 1.485 1_455 S
C1315 C1314 1.370 . S
C1315 C1316 1.423 . S
C1316 C1315 1.423 . S
C1316 C1317 1.404 . S
C1316 C1319 1.539 . S
C1317 C1313 1.408 . S
C1317 C1316 1.404 . S
C1317 H1329 0.930 . S
C1318 C1314 1.512 1_655 S
C1318 H1330 0.956 . S
C1318 H1331 0.961 . S
C1318 H1332 0.961 . S
C1319 C1316 1.539 . S
C1319 H1333 0.958 . S
C1319 H1334 0.961 . S
C1319 H1335 0.960 . S
H1320 C1304 0.931 . S
H1321 C1309 0.929 . S
H1322 C1310 0.960 . S
H1323 C1310 0.962 . S
H1324 C1310 0.960 . S
H1325 C1311 0.961 . S
H1326 C1311 0.961 . S
H1327 C1311 0.961 . S
H1328 C1312 0.931 . S
H1329 C1317 0.930 . S
H1330 C1318 0.956 . S
H1331 C1318 0.961 . S
H1332 C1318 0.961 . S
H1333 C1319 0.958 . S
H1334 C1319 0.961 . S
H1335 C1319 0.960 . S
C1336 C1337 1.391 . S
C1336 C1338 1.394 . S
C1336 H1352 0.931 . S
C1337 C1336 1.391 . S
C1337 C1341 1.376 . S
C1338 C1336 1.394 . S
C1338 C1339 1.369 . S
C1338 C1342 1.531 . S
C1339 C1338 1.369 . S
C1339 C1340 1.410 . S
C1339 C1347 1.503 . S
C1340 C1339 1.410 . S
C1340 C1341 1.392 . S
C1340 C1343 1.511 . S
C1341 C1337 1.376 . S
C1341 C1340 1.392 . S
C1341 H1353 0.929 . S
C1342 C1338 1.531 . S
C1342 H1354 0.960 . S
C1342 H1355 0.962 . S
C1342 H1356 0.960 . S
C1343 C1340 1.511 . S
C1343 H1357 0.961 . S
C1343 H1358 0.961 . S
C1343 H1359 0.961 . S
C1344 C1345 1.370 . S
C1344 C1346 1.363 . S
C1344 H1360 0.931 . S
C1345 C1344 1.370 . S
C1345 C1349 1.408 . S
C1346 C1344 1.363 . S
C1346 C1347 1.370 . S
C1346 C1350 1.524 . S
C1347 C1339 1.503 . S
C1347 C1346 1.370 . S
C1347 C1348 1.403 . S
C1348 C1347 1.403 . S
C1348 C1349 1.404 . S
C1348 C1351 1.539 . S
C1349 C1345 1.408 . S
C1349 C1348 1.404 . S
C1349 H1361 0.930 . S
C1350 C1346 1.524 . S
C1350 H1362 0.956 . S
C1350 H1363 0.961 . S
C1350 H1364 0.961 . S
C1351 C1348 1.539 . S
C1351 H1365 0.958 . S
C1351 H1366 0.961 . S
C1351 H1367 0.960 . S
H1352 C1336 0.931 . S
H1353 C1341 0.929 . S
H1354 C1342 0.960 . S
H1355 C1342 0.962 . S
H1356 C1342 0.960 . S
H1357 C1343 0.961 . S
H1358 C1343 0.961 . S
H1359 C1343 0.961 . S
H1360 C1344 0.931 . S
H1361 C1349 0.930 . S
H1362 C1350 0.956 . S
H1363 C1350 0.961 . S
H1364 C1350 0.961 . S
H1365 C1351 0.958 . S
H1366 C1351 0.961 . S
H1367 C1351 0.960 . S
C1368 C1369 1.391 . S
C1368 C1370 1.394 . S
C1368 H1384 0.931 . S
C1369 C1368 1.391 . S
C1369 C1373 1.376 . S
C1370 C1368 1.394 . S
C1370 C1371 1.369 . S
C1370 C1374 1.531 1_554 S
C1371 C1370 1.369 . S
C1371 C1372 1.410 . S
C1371 C1379 1.503 1_554 S
C1372 C1371 1.410 . S
C1372 C1373 1.392 . S
C1372 C1375 1.511 . S
C1373 C1369 1.376 . S
C1373 C1372 1.392 . S
C1373 H1385 0.929 . S
C1374 C1370 1.531 1_556 S
C1374 H1386 0.960 . S
C1374 H1387 0.962 . S
C1374 H1388 0.960 . S
C1375 C1372 1.511 . S
C1375 H1389 0.961 . S
C1375 H1390 0.961 . S
C1375 H1391 0.961 . S
C1376 C1377 1.370 . S
C1376 C1378 1.363 . S
C1376 H1392 0.931 . S
C1377 C1376 1.370 . S
C1377 C1381 1.408 . S
C1378 C1376 1.363 . S
C1378 C1379 1.370 . S
C1378 C1382 1.524 1_556 S
C1379 C1371 1.503 1_556 S
C1379 C1378 1.370 . S
C1379 C1380 1.403 . S
C1380 C1379 1.403 . S
C1380 C1381 1.404 . S
C1380 C1383 1.539 . S
C1381 C1377 1.408 . S
C1381 C1380 1.404 . S
C1381 H1393 0.930 . S
C1382 C1378 1.524 1_554 S
C1382 H1394 0.956 . S
C1382 H1395 0.961 . S
C1382 H1396 0.961 . S
C1383 C1380 1.539 . S
C1383 H1397 0.958 . S
C1383 H1398 0.961 . S
C1383 H1399 0.960 . S
H1384 C1368 0.931 . S
H1385 C1373 0.929 . S
H1386 C1374 0.960 . S
H1387 C1374 0.962 . S
H1388 C1374 0.960 . S
H1389 C1375 0.961 . S
H1390 C1375 0.961 . S
H1391 C1375 0.961 . S
H1392 C1376 0.931 . S
H1393 C1381 0.930 . S
H1394 C1382 0.956 . S
H1395 C1382 0.961 . S
H1396 C1382 0.961 . S
H1397 C1383 0.958 . S
H1398 C1383 0.961 . S
H1399 C1383 0.960 . S
C1400 C1401 1.391 . S
C1400 C1402 1.394 . S
C1400 H1416 0.931 . S
C1401 C1400 1.391 . S
C1401 C1405 1.376 . S
C1402 C1400 1.394 . S
C1402 C1403 1.369 . S
C1402 C1406 1.531 . S
C1403 C1402 1.369 . S
C1403 C1404 1.410 . S
C1403 C1411 1.503 . S
C1404 C1403 1.410 . S
C1404 C1405 1.392 . S
C1404 C1407 1.511 . S
C1405 C1401 1.376 . S
C1405 C1404 1.392 . S
C1405 H1417 0.929 . S
C1406 C1402 1.531 . S
C1406 H1418 0.960 . S
C1406 H1419 0.962 . S
C1406 H1420 0.960 . S
C1407 C1404 1.511 . S
C1407 H1421 0.961 . S
C1407 H1422 0.961 . S
C1407 H1423 0.961 . S
C1408 C1409 1.370 . S
C1408 C1410 1.363 . S
C1408 H1424 0.931 . S
C1409 C1408 1.370 . S
C1409 C1413 1.408 . S
C1410 C1408 1.363 . S
C1410 C1411 1.370 . S
C1410 C1414 1.524 . S
C1411 C1403 1.503 . S
C1411 C1410 1.370 . S
C1411 C1412 1.403 . S
C1412 C1411 1.403 . S
C1412 C1413 1.404 . S
C1412 C1415 1.539 . S
C1413 C1409 1.408 . S
C1413 C1412 1.404 . S
C1413 H1425 0.930 . S
C1414 C1410 1.524 . S
C1414 H1426 0.956 . S
C1414 H1427 0.961 . S
C1414 H1428 0.961 . S
C1415 C1412 1.539 . S
C1415 H1429 0.958 . S
C1415 H1430 0.961 . S
C1415 H1431 0.960 . S
H1416 C1400 0.931 . S
H1417 C1405 0.929 . S
H1418 C1406 0.960 . S
H1419 C1406 0.962 . S
H1420 C1406 0.960 . S
H1421 C1407 0.961 . S
H1422 C1407 0.961 . S
H1423 C1407 0.961 . S
H1424 C1408 0.931 . S
H1425 C1413 0.930 . S
H1426 C1414 0.956 . S
H1427 C1414 0.961 . S
H1428 C1414 0.961 . S
H1429 C1415 0.958 . S
H1430 C1415 0.961 . S
H1431 C1415 0.960 . S
C1432 C1433 1.391 . S
C1432 C1434 1.394 . S
C1432 H1448 0.931 . S
C1433 C1432 1.391 . S
C1433 C1437 1.376 . S
C1434 C1432 1.394 . S
C1434 C1435 1.369 . S
C1434 C1438 1.531 . S
C1435 C1434 1.369 . S
C1435 C1436 1.410 . S
C1435 C1443 1.503 . S
C1436 C1435 1.410 . S
C1436 C1437 1.392 . S
C1436 C1439 1.511 . S
C1437 C1433 1.376 . S
C1437 C1436 1.392 . S
C1437 H1449 0.929 . S
C1438 C1434 1.531 . S
C1438 H1450 0.960 . S
C1438 H1451 0.962 . S
C1438 H1452 0.960 . S
C1439 C1436 1.511 . S
C1439 H1453 0.961 . S
C1439 H1454 0.961 . S
C1439 H1455 0.961 . S
C1440 C1441 1.370 . S
C1440 C1442 1.363 1_556 S
C1440 H1456 0.931 . S
C1441 C1440 1.370 . S
C1441 C1445 1.408 . S
C1442 C1440 1.363 1_554 S
C1442 C1443 1.370 . S
C1442 C1446 1.524 . S
C1443 C1435 1.503 . S
C1443 C1442 1.370 . S
C1443 C1444 1.403 1_554 S
C1444 C1443 1.403 1_556 S
C1444 C1445 1.404 . S
C1444 C1447 1.539 . S
C1445 C1441 1.408 . S
C1445 C1444 1.404 . S
C1445 H1457 0.930 . S
C1446 C1442 1.524 . S
C1446 H1458 0.956 . S
C1446 H1459 0.961 . S
C1446 H1460 0.961 . S
C1447 C1444 1.539 . S
C1447 H1461 0.958 . S
C1447 H1462 0.961 . S
C1447 H1463 0.960 . S
H1448 C1432 0.931 . S
H1449 C1437 0.929 . S
H1450 C1438 0.960 . S
H1451 C1438 0.962 . S
H1452 C1438 0.960 . S
H1453 C1439 0.961 . S
H1454 C1439 0.961 . S
H1455 C1439 0.961 . S
H1456 C1440 0.931 . S
H1457 C1445 0.930 . S
H1458 C1446 0.956 . S
H1459 C1446 0.961 . S
H1460 C1446 0.961 . S
H1461 C1447 0.958 . S
H1462 C1447 0.961 . S
H1463 C1447 0.960 . S
C1464 C1465 1.391 . S
C1464 C1466 1.394 . S
C1464 H1480 0.931 . S
C1465 C1464 1.391 . S
C1465 C1469 1.376 . S
C1466 C1464 1.394 . S
C1466 C1467 1.369 . S
C1466 C1470 1.531 . S
C1467 C1466 1.369 . S
C1467 C1468 1.410 . S
C1467 C1475 1.503 . S
C1468 C1467 1.410 . S
C1468 C1469 1.392 . S
C1468 C1471 1.511 . S
C1469 C1465 1.376 . S
C1469 C1468 1.392 . S
C1469 H1481 0.929 . S
C1470 C1466 1.531 . S
C1470 H1482 0.960 . S
C1470 H1483 0.962 . S
C1470 H1484 0.960 . S
C1471 C1468 1.511 . S
C1471 H1485 0.961 . S
C1471 H1486 0.961 . S
C1471 H1487 0.961 . S
C1472 C1473 1.370 . S
C1472 C1474 1.363 . S
C1472 H1488 0.931 . S
C1473 C1472 1.370 . S
C1473 C1477 1.408 . S
C1474 C1472 1.363 . S
C1474 C1475 1.370 . S
C1474 C1478 1.524 . S
C1475 C1467 1.503 . S
C1475 C1474 1.370 . S
C1475 C1476 1.403 . S
C1476 C1475 1.403 . S
C1476 C1477 1.404 . S
C1476 C1479 1.539 . S
C1477 C1473 1.408 . S
C1477 C1476 1.404 . S
C1477 H1489 0.930 . S
C1478 C1474 1.524 . S
C1478 H1490 0.956 . S
C1478 H1491 0.961 . S
C1478 H1492 0.961 . S
C1479 C1476 1.539 . S
C1479 H1493 0.958 . S
C1479 H1494 0.961 . S
C1479 H1495 0.960 . S
H1480 C1464 0.931 . S
H1481 C1469 0.929 . S
H1482 C1470 0.960 . S
H1483 C1470 0.962 . S
H1484 C1470 0.960 . S
H1485 C1471 0.961 . S
H1486 C1471 0.961 . S
H1487 C1471 0.961 . S
H1488 C1472 0.931 . S
H1489 C1477 0.930 . S
H1490 C1478 0.956 . S
H1491 C1478 0.961 . S
H1492 C1478 0.961 . S
H1493 C1479 0.958 . S
H1494 C1479 0.961 . S
H1495 C1479 0.960 . S
C1496 C1497 1.391 . S
C1496 C1498 1.394 . S
C1496 H1512 0.931 . S
C1497 C1496 1.391 . S
C1497 C1501 1.376 . S
C1498 C1496 1.394 . S
C1498 C1499 1.369 . S
C1498 C1502 1.531 . S
C1499 C1498 1.369 . S
C1499 C1500 1.410 . S
C1499 C1507 1.503 1_556 S
C1500 C1499 1.410 . S
C1500 C1501 1.392 . S
C1500 C1503 1.511 1_556 S
C1501 C1497 1.376 . S
C1501 C1500 1.392 . S
C1501 H1513 0.929 . S
C1502 C1498 1.531 . S
C1502 H1514 0.960 . S
C1502 H1515 0.962 . S
C1502 H1516 0.960 . S
C1503 C1500 1.511 1_554 S
C1503 H1517 0.961 . S
C1503 H1518 0.961 . S
C1503 H1519 0.961 . S
C1504 C1505 1.370 . S
C1504 C1506 1.363 . S
C1504 H1520 0.931 . S
C1505 C1504 1.370 . S
C1505 C1509 1.408 . S
C1506 C1504 1.363 . S
C1506 C1507 1.370 . S
C1506 C1510 1.524 . S
C1507 C1499 1.503 1_554 S
C1507 C1506 1.370 . S
C1507 C1508 1.403 . S
C1508 C1507 1.403 . S
C1508 C1509 1.404 . S
C1508 C1511 1.539 1_554 S
C1509 C1505 1.408 . S
C1509 C1508 1.404 . S
C1509 H1521 0.930 . S
C1510 C1506 1.524 . S
C1510 H1522 0.956 . S
C1510 H1523 0.961 . S
C1510 H1524 0.961 . S
C1511 C1508 1.539 1_556 S
C1511 H1525 0.958 . S
C1511 H1526 0.961 1_556 S
C1511 H1527 0.960 . S
H1512 C1496 0.931 . S
H1513 C1501 0.929 . S
H1514 C1502 0.960 . S
H1515 C1502 0.962 . S
H1516 C1502 0.960 . S
H1517 C1503 0.961 . S
H1518 C1503 0.961 . S
H1519 C1503 0.961 . S
H1520 C1504 0.931 . S
H1521 C1509 0.930 . S
H1522 C1510 0.956 . S
H1523 C1510 0.961 . S
H1524 C1510 0.961 . S
H1525 C1511 0.958 . S
H1526 C1511 0.961 1_554 S
H1527 C1511 0.960 . S
C1528 C1529 1.391 . S
C1528 C1530 1.394 . S
C1528 H1544 0.931 . S
C1529 C1528 1.391 . S
C1529 C1533 1.376 . S
C1530 C1528 1.394 . S
C1530 C1531 1.369 . S
C1530 C1534 1.531 . S
C1531 C1530 1.369 . S
C1531 C1532 1.410 . S
C1531 C1539 1.503 . S
C1532 C1531 1.410 . S
C1532 C1533 1.392 . S
C1532 C1535 1.511 . S
C1533 C1529 1.376 . S
C1533 C1532 1.392 . S
C1533 H1545 0.929 . S
C1534 C1530 1.531 . S
C1534 H1546 0.960 . S
C1534 H1547 0.962 . S
C1534 H1548 0.960 . S
C1535 C1532 1.511 . S
C1535 H1549 0.961 . S
C1535 H1550 0.961 . S
C1535 H1551 0.961 . S
C1536 C1537 1.370 . S
C1536 C1538 1.363 . S
C1536 H1552 0.931 . S
C1537 C1536 1.370 . S
C1537 C1541 1.408 . S
C1538 C1536 1.363 . S
C1538 C1539 1.370 . S
C1538 C1542 1.524 . S
C1539 C1531 1.503 . S
C1539 C1538 1.370 . S
C1539 C1540 1.403 . S
C1540 C1539 1.403 . S
C1540 C1541 1.404 . S
C1540 C1543 1.539 . S
C1541 C1537 1.408 . S
C1541 C1540 1.404 . S
C1541 H1553 0.930 . S
C1542 C1538 1.524 . S
C1542 H1554 0.956 . S
C1542 H1555 0.961 . S
C1542 H1556 0.961 . S
C1543 C1540 1.539 . S
C1543 H1557 0.958 . S
C1543 H1558 0.961 . S
C1543 H1559 0.960 . S
H1544 C1528 0.931 . S
H1545 C1533 0.929 . S
H1546 C1534 0.960 . S
H1547 C1534 0.962 . S
H1548 C1534 0.960 . S
H1549 C1535 0.961 . S
H1550 C1535 0.961 . S
H1551 C1535 0.961 . S
H1552 C1536 0.931 . S
H1553 C1541 0.930 . S
H1554 C1542 0.956 . S
H1555 C1542 0.961 . S
H1556 C1542 0.961 . S
H1557 C1543 0.958 . S
H1558 C1543 0.961 . S
H1559 C1543 0.960 . S
C1560 C1561 1.391 . S
C1560 C1562 1.394 1_556 S
C1560 H1576 0.931 . S
C1561 C1560 1.391 . S
C1561 C1565 1.376 . S
C1562 C1560 1.394 1_554 S
C1562 C1563 1.369 . S
C1562 C1566 1.531 . S
C1563 C1562 1.369 . S
C1563 C1564 1.410 1_554 S
C1563 C1571 1.503 . S
C1564 C1563 1.410 1_556 S
C1564 C1565 1.392 . S
C1564 C1567 1.511 . S
C1565 C1561 1.376 . S
C1565 C1564 1.392 . S
C1565 H1577 0.929 . S
C1566 C1562 1.531 . S
C1566 H1578 0.960 . S
C1566 H1579 0.962 . S
C1566 H1580 0.960 . S
C1567 C1564 1.511 . S
C1567 H1581 0.961 . S
C1567 H1582 0.961 1_556 S
C1567 H1583 0.961 . S
C1568 C1569 1.370 . S
C1568 C1570 1.363 . S
C1568 H1584 0.931 . S
C1569 C1568 1.370 . S
C1569 C1573 1.408 . S
C1570 C1568 1.363 . S
C1570 C1571 1.370 . S
C1570 C1574 1.524 . S
C1571 C1563 1.503 . S
C1571 C1570 1.370 . S
C1571 C1572 1.403 . S
C1572 C1571 1.403 . S
C1572 C1573 1.404 . S
C1572 C1575 1.539 . S
C1573 C1569 1.408 . S
C1573 C1572 1.404 . S
C1573 H1585 0.930 . S
C1574 C1570 1.524 . S
C1574 H1586 0.956 . S
C1574 H1587 0.961 . S
C1574 H1588 0.961 . S
C1575 C1572 1.539 . S
C1575 H1589 0.958 . S
C1575 H1590 0.961 . S
C1575 H1591 0.960 1_554 S
H1576 C1560 0.931 . S
H1577 C1565 0.929 . S
H1578 C1566 0.960 . S
H1579 C1566 0.962 . S
H1580 C1566 0.960 . S
H1581 C1567 0.961 . S
H1582 C1567 0.961 1_554 S
H1583 C1567 0.961 . S
H1584 C1568 0.931 . S
H1585 C1573 0.930 . S
H1586 C1574 0.956 . S
H1587 C1574 0.961 . S
H1588 C1574 0.961 . S
H1589 C1575 0.958 . S
H1590 C1575 0.961 . S
H1591 C1575 0.960 1_556 S
C1592 C1593 1.391 . S
C1592 C1594 1.394 . S
C1592 H1608 0.931 . S
C1593 C1592 1.391 . S
C1593 C1597 1.376 . S
C1594 C1592 1.394 . S
C1594 C1595 1.369 . S
C1594 C1598 1.531 . S
C1595 C1594 1.369 . S
C1595 C1596 1.410 . S
C1595 C1603 1.503 . S
C1596 C1595 1.410 . S
C1596 C1597 1.392 . S
C1596 C1599 1.511 . S
C1597 C1593 1.376 . S
C1597 C1596 1.392 . S
C1597 H1609 0.929 . S
C1598 C1594 1.531 . S
C1598 H1610 0.960 . S
C1598 H1611 0.962 . S
C1598 H1612 0.960 . S
C1599 C1596 1.511 . S
C1599 H1613 0.961 . S
C1599 H1614 0.961 . S
C1599 H1615 0.961 . S
C1600 C1601 1.370 . S
C1600 C1602 1.363 . S
C1600 H1616 0.931 . S
C1601 C1600 1.370 . S
C1601 C1605 1.408 . S
C1602 C1600 1.363 . S
C1602 C1603 1.370 . S
C1602 C1606 1.524 . S
C1603 C1595 1.503 . S
C1603 C1602 1.370 . S
C1603 C1604 1.403 . S
C1604 C1603 1.403 . S
C1604 C1605 1.404 . S
C1604 C1607 1.539 . S
C1605 C1601 1.408 . S
C1605 C1604 1.404 . S
C1605 H1617 0.930 . S
C1606 C1602 1.524 . S
C1606 H1618 0.956 . S
C1606 H1619 0.961 . S
C1606 H1620 0.961 . S
C1607 C1604 1.539 . S
C1607 H1621 0.958 . S
C1607 H1622 0.961 . S
C1607 H1623 0.960 . S
H1608 C1592 0.931 . S
H1609 C1597 0.929 . S
H1610 C1598 0.960 . S
H1611 C1598 0.962 . S
H1612 C1598 0.960 . S
H1613 C1599 0.961 . S
H1614 C1599 0.961 . S
H1615 C1599 0.961 . S
H1616 C1600 0.931 . S
H1617 C1605 0.930 . S
H1618 C1606 0.956 . S
H1619 C1606 0.961 . S
H1620 C1606 0.961 . S
H1621 C1607 0.958 . S
H1622 C1607 0.961 . S
H1623 C1607 0.960 . S
C1624 C1625 1.391 . S
C1624 C1626 1.394 . S
C1624 H1640 0.931 . S
C1625 C1624 1.391 . S
C1625 C1629 1.376 . S
C1626 C1624 1.394 . S
C1626 C1627 1.369 . S
C1626 C1630 1.531 . S
C1627 C1626 1.369 . S
C1627 C1628 1.410 . S
C1627 C1635 1.503 . S
C1628 C1627 1.410 . S
C1628 C1629 1.392 . S
C1628 C1631 1.511 . S
C1629 C1625 1.376 . S
C1629 C1628 1.392 . S
C1629 H1641 0.929 . S
C1630 C1626 1.531 . S
C1630 H1642 0.960 . S
C1630 H1643 0.962 . S
C1630 H1644 0.960 . S
C1631 C1628 1.511 . S
C1631 H1645 0.961 . S
C1631 H1646 0.961 . S
C1631 H1647 0.961 . S
C1632 C1633 1.370 . S
C1632 C1634 1.363 . S
C1632 H1648 0.931 . S
C1633 C1632 1.370 . S
C1633 C1637 1.408 . S
C1634 C1632 1.363 . S
C1634 C1635 1.370 . S
C1634 C1638 1.524 . S
C1635 C1627 1.503 . S
C1635 C1634 1.370 . S
C1635 C1636 1.403 . S
C1636 C1635 1.403 . S
C1636 C1637 1.404 . S
C1636 C1639 1.539 . S
C1637 C1633 1.408 . S
C1637 C1636 1.404 . S
C1637 H1649 0.930 . S
C1638 C1634 1.524 . S
C1638 H1650 0.956 . S
C1638 H1651 0.961 . S
C1638 H1652 0.961 . S
C1639 C1636 1.539 . S
C1639 H1653 0.958 . S
C1639 H1654 0.961 . S
C1639 H1655 0.960 . S
H1640 C1624 0.931 . S
H1641 C1629 0.929 . S
H1642 C1630 0.960 . S
H1643 C1630 0.962 . S
H1644 C1630 0.960 . S
H1645 C1631 0.961 . S
H1646 C1631 0.961 . S
H1647 C1631 0.961 . S
H1648 C1632 0.931 . S
H1649 C1637 0.930 . S
H1650 C1638 0.956 . S
H1651 C1638 0.961 . S
H1652 C1638 0.961 . S
H1653 C1639 0.958 . S
H1654 C1639 0.961 . S
H1655 C1639 0.960 . S
C1656 C1657 1.391 . S
C1656 C1658 1.394 . S
C1656 H1672 0.931 . S
C1657 C1656 1.391 . S
C1657 C1661 1.376 . S
C1658 C1656 1.394 . S
C1658 C1659 1.369 . S
C1658 C1662 1.531 . S
C1659 C1658 1.369 . S
C1659 C1660 1.410 . S
C1659 C1667 1.503 . S
C1660 C1659 1.410 . S
C1660 C1661 1.392 . S
C1660 C1663 1.511 . S
C1661 C1657 1.376 . S
C1661 C1660 1.392 . S
C1661 H1673 0.929 . S
C1662 C1658 1.531 . S
C1662 H1674 0.960 . S
C1662 H1675 0.962 . S
C1662 H1676 0.960 . S
C1663 C1660 1.511 . S
C1663 H1677 0.961 . S
C1663 H1678 0.961 . S
C1663 H1679 0.961 . S
C1664 C1665 1.370 . S
C1664 C1666 1.363 . S
C1664 H1680 0.931 . S
C1665 C1664 1.370 . S
C1665 C1669 1.408 . S
C1666 C1664 1.363 . S
C1666 C1667 1.370 . S
C1666 C1670 1.524 . S
C1667 C1659 1.503 . S
C1667 C1666 1.370 . S
C1667 C1668 1.403 . S
C1668 C1667 1.403 . S
C1668 C1669 1.404 . S
C1668 C1671 1.539 . S
C1669 C1665 1.408 . S
C1669 C1668 1.404 . S
C1669 H1681 0.930 . S
C1670 C1666 1.524 . S
C1670 H1682 0.956 . S
C1670 H1683 0.961 . S
C1670 H1684 0.961 . S
C1671 C1668 1.539 . S
C1671 H1685 0.958 . S
C1671 H1686 0.961 . S
C1671 H1687 0.960 . S
H1672 C1656 0.931 . S
H1673 C1661 0.929 . S
H1674 C1662 0.960 . S
H1675 C1662 0.962 . S
H1676 C1662 0.960 . S
H1677 C1663 0.961 . S
H1678 C1663 0.961 . S
H1679 C1663 0.961 . S
H1680 C1664 0.931 . S
H1681 C1669 0.930 . S
H1682 C1670 0.956 . S
H1683 C1670 0.961 . S
H1684 C1670 0.961 . S
H1685 C1671 0.958 . S
H1686 C1671 0.961 . S
H1687 C1671 0.960 . S
C1688 C1689 1.391 . S
C1688 C1690 1.394 . S
C1688 H1704 0.931 . S
C1689 C1688 1.391 . S
C1689 C1693 1.376 . S
C1690 C1688 1.394 . S
C1690 C1691 1.369 . S
C1690 C1694 1.531 . S
C1691 C1690 1.369 . S
C1691 C1692 1.410 . S
C1691 C1699 1.503 . S
C1692 C1691 1.410 . S
C1692 C1693 1.392 . S
C1692 C1695 1.511 . S
C1693 C1689 1.376 . S
C1693 C1692 1.392 . S
C1693 H1705 0.929 . S
C1694 C1690 1.531 . S
C1694 H1706 0.960 . S
C1694 H1707 0.962 . S
C1694 H1708 0.960 . S
C1695 C1692 1.511 . S
C1695 H1709 0.961 . S
C1695 H1710 0.961 . S
C1695 H1711 0.961 . S
C1696 C1697 1.370 . S
C1696 C1698 1.363 . S
C1696 H1712 0.931 . S
C1697 C1696 1.370 . S
C1697 C1701 1.408 . S
C1698 C1696 1.363 . S
C1698 C1699 1.370 . S
C1698 C1702 1.524 . S
C1699 C1691 1.503 . S
C1699 C1698 1.370 . S
C1699 C1700 1.403 . S
C1700 C1699 1.403 . S
C1700 C1701 1.404 . S
C1700 C1703 1.539 . S
C1701 C1697 1.408 . S
C1701 C1700 1.404 . S
C1701 H1713 0.930 . S
C1702 C1698 1.524 . S
C1702 H1714 0.956 . S
C1702 H1715 0.961 . S
C1702 H1716 0.961 . S
C1703 C1700 1.539 . S
C1703 H1717 0.958 . S
C1703 H1718 0.961 . S
C1703 H1719 0.960 . S
H1704 C1688 0.931 . S
H1705 C1693 0.929 . S
H1706 C1694 0.960 . S
H1707 C1694 0.962 . S
H1708 C1694 0.960 . S
H1709 C1695 0.961 . S
H1710 C1695 0.961 . S
H1711 C1695 0.961 . S
H1712 C1696 0.931 . S
H1713 C1701 0.930 . S
H1714 C1702 0.956 . S
H1715 C1702 0.961 . S
H1716 C1702 0.961 . S
H1717 C1703 0.958 . S
H1718 C1703 0.961 . S
H1719 C1703 0.960 . S
C1720 C1721 1.391 . S
C1720 C1722 1.394 . S
C1720 H1736 0.931 . S
C1721 C1720 1.391 . S
C1721 C1725 1.376 . S
C1722 C1720 1.394 . S
C1722 C1723 1.369 . S
C1722 C1726 1.531 . S
C1723 C1722 1.369 . S
C1723 C1724 1.410 . S
C1723 C1731 1.503 . S
C1724 C1723 1.410 . S
C1724 C1725 1.392 . S
C1724 C1727 1.511 . S
C1725 C1721 1.376 . S
C1725 C1724 1.392 . S
C1725 H1737 0.929 . S
C1726 C1722 1.531 . S
C1726 H1738 0.960 . S
C1726 H1739 0.962 . S
C1726 H1740 0.960 . S
C1727 C1724 1.511 . S
C1727 H1741 0.961 . S
C1727 H1742 0.961 . S
C1727 H1743 0.961 . S
C1728 C1729 1.370 . S
C1728 C1730 1.363 . S
C1728 H1744 0.931 . S
C1729 C1728 1.370 . S
C1729 C1733 1.408 . S
C1730 C1728 1.363 . S
C1730 C1731 1.370 . S
C1730 C1734 1.524 . S
C1731 C1723 1.503 . S
C1731 C1730 1.370 . S
C1731 C1732 1.403 . S
C1732 C1731 1.403 . S
C1732 C1733 1.404 . S
C1732 C1735 1.539 . S
C1733 C1729 1.408 . S
C1733 C1732 1.404 . S
C1733 H1745 0.930 . S
C1734 C1730 1.524 . S
C1734 H1746 0.956 . S
C1734 H1747 0.961 . S
C1734 H1748 0.961 1_556 S
C1735 C1732 1.539 . S
C1735 H1749 0.958 . S
C1735 H1750 0.961 . S
C1735 H1751 0.960 . S
H1736 C1720 0.931 . S
H1737 C1725 0.929 . S
H1738 C1726 0.960 . S
H1739 C1726 0.962 . S
H1740 C1726 0.960 . S
H1741 C1727 0.961 . S
H1742 C1727 0.961 . S
H1743 C1727 0.961 . S
H1744 C1728 0.931 . S
H1745 C1733 0.930 . S
H1746 C1734 0.956 . S
H1747 C1734 0.961 . S
H1748 C1734 0.961 1_554 S
H1749 C1735 0.958 . S
H1750 C1735 0.961 . S
H1751 C1735 0.960 . S
C1752 C1753 1.391 . S
C1752 C1754 1.394 . S
C1752 H1768 0.931 . S
C1753 C1752 1.391 . S
C1753 C1757 1.376 . S
C1754 C1752 1.394 . S
C1754 C1755 1.369 . S
C1754 C1758 1.531 . S
C1755 C1754 1.369 . S
C1755 C1756 1.410 . S
C1755 C1763 1.503 . S
C1756 C1755 1.410 . S
C1756 C1757 1.392 . S
C1756 C1759 1.511 . S
C1757 C1753 1.376 . S
C1757 C1756 1.392 . S
C1757 H1769 0.929 . S
C1758 C1754 1.531 . S
C1758 H1770 0.960 . S
C1758 H1771 0.962 . S
C1758 H1772 0.960 . S
C1759 C1756 1.511 . S
C1759 H1773 0.961 . S
C1759 H1774 0.961 . S
C1759 H1775 0.961 . S
C1760 C1761 1.370 . S
C1760 C1762 1.363 . S
C1760 H1776 0.931 . S
C1761 C1760 1.370 . S
C1761 C1765 1.408 . S
C1762 C1760 1.363 . S
C1762 C1763 1.370 . S
C1762 C1766 1.524 . S
C1763 C1755 1.503 . S
C1763 C1762 1.370 . S
C1763 C1764 1.403 . S
C1764 C1763 1.403 . S
C1764 C1765 1.404 . S
C1764 C1767 1.539 . S
C1765 C1761 1.408 . S
C1765 C1764 1.404 . S
C1765 H1777 0.930 . S
C1766 C1762 1.524 . S
C1766 H1778 0.956 . S
C1766 H1779 0.961 . S
C1766 H1780 0.961 . S
C1767 C1764 1.539 . S
C1767 H1781 0.958 . S
C1767 H1782 0.961 . S
C1767 H1783 0.960 . S
H1768 C1752 0.931 . S
H1769 C1757 0.929 . S
H1770 C1758 0.960 . S
H1771 C1758 0.962 . S
H1772 C1758 0.960 . S
H1773 C1759 0.961 . S
H1774 C1759 0.961 . S
H1775 C1759 0.961 . S
H1776 C1760 0.931 . S
H1777 C1765 0.930 . S
H1778 C1766 0.956 . S
H1779 C1766 0.961 . S
H1780 C1766 0.961 . S
H1781 C1767 0.958 . S
H1782 C1767 0.961 . S
H1783 C1767 0.960 . S
C1784 C1785 1.391 . S
C1784 C1786 1.394 . S
C1784 H1800 0.931 . S
C1785 C1784 1.391 . S
C1785 C1789 1.376 . S
C1786 C1784 1.394 . S
C1786 C1787 1.369 . S
C1786 C1790 1.531 . S
C1787 C1786 1.369 . S
C1787 C1788 1.410 . S
C1787 C1795 1.503 . S
C1788 C1787 1.410 . S
C1788 C1789 1.392 . S
C1788 C1791 1.511 . S
C1789 C1785 1.376 . S
C1789 C1788 1.392 . S
C1789 H1801 0.929 . S
C1790 C1786 1.531 . S
C1790 H1802 0.960 . S
C1790 H1803 0.962 . S
C1790 H1804 0.960 . S
C1791 C1788 1.511 . S
C1791 H1805 0.961 . S
C1791 H1806 0.961 . S
C1791 H1807 0.961 . S
C1792 C1793 1.370 . S
C1792 C1794 1.363 . S
C1792 H1808 0.931 . S
C1793 C1792 1.370 . S
C1793 C1797 1.408 . S
C1794 C1792 1.363 . S
C1794 C1795 1.370 . S
C1794 C1798 1.524 . S
C1795 C1787 1.503 . S
C1795 C1794 1.370 . S
C1795 C1796 1.403 . S
C1796 C1795 1.403 . S
C1796 C1797 1.404 . S
C1796 C1799 1.573 . S
C1797 C1793 1.408 . S
C1797 C1796 1.404 . S
C1797 H1809 0.936 . S
C1798 C1794 1.524 . S
C1798 H1810 0.956 . S
C1798 H1811 0.961 . S
C1798 H1812 0.961 . S
C1799 C1796 1.573 . S
C1799 H1813 0.950 1_554 S
C1799 H1814 0.922 1_554 S
C1799 H1815 0.973 . S
H1800 C1784 0.931 . S
H1801 C1789 0.929 . S
H1802 C1790 0.960 . S
H1803 C1790 0.962 . S
H1804 C1790 0.960 . S
H1805 C1791 0.961 . S
H1806 C1791 0.961 . S
H1807 C1791 0.961 . S
H1808 C1792 0.931 . S
H1809 C1797 0.936 . S
H1810 C1798 0.956 . S
H1811 C1798 0.961 . S
H1812 C1798 0.961 . S
H1813 C1799 0.950 1_556 S
H1814 C1799 0.922 1_556 S
H1815 C1799 0.973 . S
C1816 C1817 1.391 . S
C1816 C1818 1.394 . S
C1816 H1832 0.931 . S
C1817 C1816 1.391 . S
C1817 C1821 1.376 . S
C1818 C1816 1.394 . S
C1818 C1819 1.369 . S
C1818 C1822 1.531 . S
C1819 C1818 1.369 . S
C1819 C1820 1.410 . S
C1819 C1827 1.503 . S
C1820 C1819 1.410 . S
C1820 C1821 1.392 . S
C1820 C1823 1.511 . S
C1821 C1817 1.376 . S
C1821 C1820 1.392 . S
C1821 H1833 0.929 . S
C1822 C1818 1.531 . S
C1822 H1834 0.960 . S
C1822 H1835 0.962 . S
C1822 H1836 0.960 . S
C1823 C1820 1.511 . S
C1823 H1837 0.961 . S
C1823 H1838 0.961 . S
C1823 H1839 0.961 . S
C1824 C1825 1.370 1_545 S
C1824 C1826 1.363 . S
C1824 H1840 0.931 . S
C1825 C1824 1.370 1_565 S
C1825 C1829 1.408 . S
C1826 C1824 1.363 . S
C1826 C1827 1.370 . S
C1826 C1830 1.524 . S
C1827 C1819 1.503 . S
C1827 C1826 1.370 . S
C1827 C1828 1.403 . S
C1828 C1827 1.403 . S
C1828 C1829 1.404 1_545 S
C1828 C1831 1.539 . S
C1829 C1825 1.408 . S
C1829 C1828 1.404 1_565 S
C1829 H1841 0.930 . S
C1830 C1826 1.524 . S
C1830 H1842 0.956 . S
C1830 H1843 0.961 . S
C1830 H1844 0.961 . S
C1831 C1828 1.539 . S
C1831 H1845 0.958 . S
C1831 H1846 0.961 1_545 S
C1831 H1847 0.960 . S
H1832 C1816 0.931 . S
H1833 C1821 0.929 . S
H1834 C1822 0.960 . S
H1835 C1822 0.962 . S
H1836 C1822 0.960 . S
H1837 C1823 0.961 . S
H1838 C1823 0.961 . S
H1839 C1823 0.961 . S
H1840 C1824 0.931 . S
H1841 C1829 0.930 . S
H1842 C1830 0.956 . S
H1843 C1830 0.961 . S
H1844 C1830 0.961 . S
H1845 C1831 0.958 . S
H1846 C1831 0.961 1_565 S
H1847 C1831 0.960 . S
C321 C152 1.583 1_556 S
C313 C50 1.587 . S
C353 C167 1.632 . S
C345 C61 1.680 . S
C377 C67 1.668 . S
C385 C180 1.662 . S
C417 C194 1.486 . S
C409 C41 1.493 . S
C449 C206 1.597 . S
C441 C95 1.656 . S
C481 C220 1.259 . S
C473 C113 1.270 . S
C505 C106 1.702 . S
C513 C234 1.673 . S
C545 C249 1.412 . S
C537 C86 1.417 . S
C569 C104 1.619 . S
C577 C265 1.609 . S
C609 C278 1.455 . S
C601 C88 1.487 . S
C633 C94 1.578 . S
C641 C263 1.548 . S
C673 C276 1.416 . S
C665 C112 1.395 . S
C697 C70 1.768 . S
C705 C292 1.761 . S
C729 C40 1.520 . S
C737 C291 1.483 . S
C761 C49 1.699 . S
C769 C290 1.632 . S
C793 C59 1.590 . S
C801 C293 1.572 . S
C825 C34 1.649 . S
C833 C195 1.636 1_565 S
C857 C133 1.493 . S
C865 C193 1.470 . S
C897 C153 1.501 . S
C889 C139 1.517 . S
C929 C164 1.693 . S
C921 C77 1.707 . S
C953 C43 1.548 . S
C961 C209 1.524 . S
C993 C250 1.818 . S
C985 C103 1.820 . S
C1025 C207 1.451 . S
C1017 C85 1.439 . S
C1057 C235 1.412 . S
C1049 C115 1.430 . S
C1089 C236 1.590 . S
C1081 C131 1.596 . S
C1113 C142 1.658 . S
C1121 C251 1.643 . S
C1145 C76 1.669 . S
C1153 C208 1.662 . S
C1185 C222 1.478 . S
C1177 C122 1.488 . S
C1209 C32 1.661 . S
C1217 C178 1.589 . S
C1249 C192 1.263 . S
C1241 C5 1.263 . S
C1281 C150 1.670 . S
C1273 C16 1.699 . S
C1313 C165 1.431 . S
C1305 C23 1.432 . S
C1337 C14 1.625 . S
C1345 C279 1.619 . S
C1369 C25 1.453 . S
C1377 C264 1.471 . S
C1401 C31 1.584 . S
C1409 C277 1.532 . S
C1433 C4 1.417 . S
C1441 C262 1.423 . S
C1473 C306 1.763 . S
C1465 C79 1.773 . S
C1505 C305 1.488 . S
C1497 C121 1.518 . S
C1537 C304 1.648 . S
C1529 C130 1.694 . S
C1561 C140 1.594 . S
C1569 C307 1.562 . S
C1593 C97 1.642 . S
C1601 C223 1.634 . S
C1633 C221 1.460 . S
C1625 C52 1.493 . S
C1665 C237 1.504 . S
C1657 C58 1.501 . S
C1697 C248 1.683 . S
C1689 C68 1.717 . S
C1721 C124 1.544 . S
C1729 C181 1.539 . S
C1761 C166 1.818 . S
C1753 C13 1.821 . S
C1785 C22 1.438 . S
C1793 C179 1.433 . S
C1825 C151 1.410 . S
C1817 C7 1.408 . S
