# Generated by pormake.
# Topology zzz, (3,6)-cn, num edge types: 1
# Building blocks:
#     Node 0, Type 0, BuildingBlock: BELTOD_clean_linker_0, # of connection points: 3
#     Node 1, Type 0, BuildingBlock: BELTOD_clean_linker_0, # of connection points: 3
#     Node 2, Type 0, BuildingBlock: BELTOD_clean_linker_0, # of connection points: 3
#     Node 3, Type 0, BuildingBlock: BELTOD_clean_linker_0, # of connection points: 3
#     Node 4, Type 0, BuildingBlock: BELTOD_clean_linker_0, # of connection points: 3
#     Node 5, Type 0, BuildingBlock: BELTOD_clean_linker_0, # of connection points: 3
#     Node 6, Type 0, BuildingBlock: BELTOD_clean_linker_0, # of connection points: 3
#     Node 7, Type 0, BuildingBlock: BELTOD_clean_linker_0, # of connection points: 3
#     Node 8, Type 1, BuildingBlock: BETFEN_clean_sbu_0, # of connection points: 6
#     Node 9, Type 1, BuildingBlock: BETFEN_clean_sbu_0, # of connection points: 6
#     Node 10, Type 1, BuildingBlock: BETFEN_clean_sbu_0, # of connection points: 6
#     Node 11, Type 1, BuildingBlock: BETFEN_clean_sbu_0, # of connection points: 6
#     Edge 12, Type (0, 1), BuildingBlock: OJICUG_clean_linker_0, # of connection points: 2
#     Edge 13, Type (0, 1), BuildingBlock: OJICUG_clean_linker_0, # of connection points: 2
#     Edge 14, Type (0, 1), BuildingBlock: OJICUG_clean_linker_0, # of connection points: 2
#     Edge 15, Type (0, 1), BuildingBlock: OJICUG_clean_linker_0, # of connection points: 2
#     Edge 16, Type (0, 1), BuildingBlock: OJICUG_clean_linker_0, # of connection points: 2
#     Edge 17, Type (0, 1), BuildingBlock: OJICUG_clean_linker_0, # of connection points: 2
#     Edge 18, Type (0, 1), BuildingBlock: OJICUG_clean_linker_0, # of connection points: 2
#     Edge 19, Type (0, 1), BuildingBlock: OJICUG_clean_linker_0, # of connection points: 2
#     Edge 20, Type (0, 1), BuildingBlock: OJICUG_clean_linker_0, # of connection points: 2
#     Edge 21, Type (0, 1), BuildingBlock: OJICUG_clean_linker_0, # of connection points: 2
#     Edge 22, Type (0, 1), BuildingBlock: OJICUG_clean_linker_0, # of connection points: 2
#     Edge 23, Type (0, 1), BuildingBlock: OJICUG_clean_linker_0, # of connection points: 2
#     Edge 24, Type (0, 1), BuildingBlock: OJICUG_clean_linker_0, # of connection points: 2
#     Edge 25, Type (0, 1), BuildingBlock: OJICUG_clean_linker_0, # of connection points: 2
#     Edge 26, Type (0, 1), BuildingBlock: OJICUG_clean_linker_0, # of connection points: 2
#     Edge 27, Type (0, 1), BuildingBlock: OJICUG_clean_linker_0, # of connection points: 2
#     Edge 28, Type (0, 1), BuildingBlock: OJICUG_clean_linker_0, # of connection points: 2
#     Edge 29, Type (0, 1), BuildingBlock: OJICUG_clean_linker_0, # of connection points: 2
#     Edge 30, Type (0, 1), BuildingBlock: OJICUG_clean_linker_0, # of connection points: 2
#     Edge 31, Type (0, 1), BuildingBlock: OJICUG_clean_linker_0, # of connection points: 2
#     Edge 32, Type (0, 1), BuildingBlock: OJICUG_clean_linker_0, # of connection points: 2
#     Edge 33, Type (0, 1), BuildingBlock: OJICUG_clean_linker_0, # of connection points: 2
#     Edge 34, Type (0, 1), BuildingBlock: OJICUG_clean_linker_0, # of connection points: 2
#     Edge 35, Type (0, 1), BuildingBlock: OJICUG_clean_linker_0, # of connection points: 2
# Relax obj value: 0.509
# Max RMSD: 0.249
# Mean RMSD: 0.245
data_MOF--net-zzz--node1-BETFEN_clean_sbu_0--node2-BELTOD_clean_linker_0--edge1-OJICUG_clean_linker_0
_symmetry_space_group_name_H-M    P1
_symmetry_Int_Tables_number       1
_symmetry_cell_setting            triclinic
loop_
_symmetry_equiv_pos_as_xyz
'x, y, z'
_cell_length_a     42.462357
_cell_length_b     42.520927
_cell_length_c     13.251958
_cell_angle_alpha  89.657387
_cell_angle_beta   89.91146
_cell_angle_gamma 90.08161
loop_
_atom_site_label
_atom_site_type_symbol
_atom_site_fract_x
_atom_site_fract_y
_atom_site_fract_z
_atom_type_partial_charge
P0 P 0.70699 0.47721 0.50737 0.0
H1 H 0.74593 0.45108 0.66928 0.0
H2 H 0.80004 0.46086 0.71925 0.0
H3 H 0.79984 0.54776 0.55136 0.0
H4 H 0.74515 0.53743 0.49726 0.0
H5 H 0.66112 0.43808 0.41373 0.0
H6 H 0.6208 0.44574 0.28935 0.0
H7 H 0.63505 0.5462 0.30456 0.0
H8 H 0.67471 0.53807 0.43826 0.0
H9 H 0.74332 0.42238 0.44568 0.0
H10 H 0.72123 0.51519 0.3316 0.0
O11 O 0.69792 0.44347 0.56595 0.0
H12 H 0.78352 0.41714 0.31439 0.0
H13 H 0.76055 0.50955 0.2002 0.0
C14 C 0.74021 0.49376 0.58027 0.0
C15 C 0.75658 0.47304 0.64552 0.0
C16 C 0.78809 0.47837 0.67359 0.0
C17 C 0.80458 0.505 0.63925 0.0
C18 C 0.78786 0.52702 0.57975 0.0
C19 C 0.75624 0.52134 0.54979 0.0
C20 C 0.67055 0.48744 0.43999 0.0
C21 C 0.65472 0.46206 0.39491 0.0
C22 C 0.63195 0.46646 0.32022 0.0
C23 C 0.62476 0.49662 0.28296 0.0
C24 C 0.63956 0.5225 0.33081 0.0
C25 C 0.66226 0.51797 0.40829 0.0
C26 C 0.72913 0.4689 0.39712 0.0
C27 C 0.74601 0.44088 0.38982 0.0
C28 C 0.76868 0.43785 0.31491 0.0
C29 C 0.77439 0.46288 0.24782 0.0
C30 C 0.75573 0.4898 0.25003 0.0
C31 C 0.73337 0.49295 0.32531 0.0
P32 P 0.03128 0.70597 0.50666 0.0
H33 H 0.05166 0.73935 0.6899 0.0
H34 H 0.04364 0.79227 0.74676 0.0
H35 H 0.96779 0.80311 0.53189 0.0
H36 H 0.97488 0.7488 0.48046 0.0
H37 H 0.07147 0.65858 0.42459 0.0
H38 H 0.0656 0.61804 0.30162 0.0
H39 H 0.96516 0.63434 0.29682 0.0
H40 H 0.9713 0.67326 0.43199 0.0
H41 H 0.08483 0.74397 0.44109 0.0
H42 H 0.99275 0.71791 0.33033 0.0
O43 O 0.06553 0.69839 0.56373 0.0
H44 H 0.08883 0.78328 0.30596 0.0
H45 H 0.9973 0.75617 0.19548 0.0
C46 C 0.01405 0.73897 0.57955 0.0
C47 C 0.03238 0.75244 0.65688 0.0
C48 C 0.02824 0.78385 0.68803 0.0
C49 C 1.00581 0.80396 0.64215 0.0
C50 C 0.98571 0.78959 0.57015 0.0
C51 C 0.9896 0.75779 0.54026 0.0
C52 C 0.02183 0.66869 0.44266 0.0
C53 C 0.04775 0.65229 0.40274 0.0
C54 C 0.04442 0.62954 0.3276 0.0
C55 C 0.01496 0.62301 0.28381 0.0
C56 C 0.98844 0.63821 0.32723 0.0
C57 C 0.99182 0.66058 0.4059 0.0
C58 C 0.03889 0.72757 0.39424 0.0
C59 C 0.06632 0.7455 0.38519 0.0
C60 C 0.06866 0.76765 0.30816 0.0
C61 C 0.04359 0.77173 0.2406 0.0
C62 C 0.01717 0.75238 0.24537 0.0
C63 C 0.01472 0.7305 0.32252 0.0
P64 P 0.81253 0.03252 0.51434 0.0
H65 H 0.7772 0.05572 0.68877 0.0
H66 H 0.72309 0.04726 0.73906 0.0
H67 H 0.71935 0.96355 0.55786 0.0
H68 H 0.77422 0.97256 0.50461 0.0
H69 H 0.85581 0.07357 0.41605 0.0
H70 H 0.89517 0.06803 0.29216 0.0
H71 H 0.89013 0.96657 0.32652 0.0
H72 H 0.84943 0.97337 0.45496 0.0
H73 H 0.76794 0.08117 0.4554 0.0
H74 H 0.80349 0.99348 0.3378 0.0
O75 O 0.81914 0.06766 0.56602 0.0
H76 H 0.72875 0.08246 0.31992 0.0
H77 H 0.76527 0.99548 0.2021 0.0
C78 C 0.78085 0.01485 0.59203 0.0
C79 C 0.76563 0.03472 0.66178 0.0
C80 C 0.73399 0.03019 0.68974 0.0
C81 C 0.71611 1.00518 0.65076 0.0
C82 C 0.73207 0.98328 0.58918 0.0
C83 C 0.76388 0.98817 0.55963 0.0
C84 C 0.84985 0.02408 0.44922 0.0
C85 C 0.864 0.04995 0.40087 0.0
C86 C 0.88687 0.04649 0.32593 0.0
C87 C 0.89684 0.0166 0.29282 0.0
C88 C 0.88366 0.99031 0.34558 0.0
C89 C 0.8604 0.994 0.42195 0.0
C90 C 0.78938 0.03797 0.40412 0.0
C91 C 0.76838 0.06315 0.39802 0.0
C92 C 0.74621 0.0639 0.32111 0.0
C93 C 0.74518 0.03951 0.25053 0.0
C94 C 0.76671 0.01488 0.25459 0.0
C95 C 0.7886 0.01397 0.33175 0.0
P96 P 0.47461 0.81349 0.50832 0.0
H97 H 0.45324 0.77629 0.6822 0.0
H98 H 0.46371 0.72286 0.73348 0.0
H99 H 0.54577 0.72146 0.54064 0.0
H100 H 0.53403 0.77533 0.48571 0.0
H101 H 0.43692 0.86036 0.41031 0.0
H102 H 0.4476 0.90012 0.28226 0.0
H103 H 0.54714 0.88536 0.32069 0.0
H104 H 0.53632 0.84576 0.45383 0.0
H105 H 0.42312 0.77148 0.45571 0.0
H106 H 0.51035 0.80458 0.32371 0.0
O107 O 0.44065 0.82154 0.56644 0.0
H108 H 0.42079 0.73015 0.32808 0.0
H109 H 0.50737 0.76424 0.19635 0.0
C110 C 0.49302 0.78103 0.58057 0.0
C111 C 0.47433 0.76529 0.65316 0.0
C112 C 0.48032 0.73397 0.68257 0.0
C113 C 0.50557 0.71669 0.64136 0.0
C114 C 0.52563 0.73314 0.57343 0.0
C115 C 0.51939 0.76462 0.54338 0.0
C116 C 0.48576 0.85049 0.44572 0.0
C117 C 0.46124 0.8668 0.39635 0.0
C118 C 0.46728 0.88954 0.32181 0.0
C119 C 0.49819 0.89628 0.29185 0.0
C120 C 0.52303 0.88108 0.34361 0.0
C121 C 0.51691 0.85858 0.42049 0.0
C122 C 0.46641 0.79154 0.39775 0.0
C123 C 0.4407 0.77104 0.39645 0.0
C124 C 0.43937 0.74762 0.32397 0.0
C125 C 0.4637 0.74489 0.25295 0.0
C126 C 0.48808 0.76679 0.24933 0.0
C127 C 0.48958 0.78992 0.32213 0.0
P128 P 0.30641 0.48425 0.05224 0.0
H129 H 0.28098 0.45832 0.86317 0.0
H130 H 0.22805 0.46346 0.79498 0.0
H131 H 0.2149 0.54859 0.9648 0.0
H132 H 0.26814 0.54326 0.03369 0.0
H133 H 0.35658 0.44363 0.12045 0.0
H134 H 0.3978 0.45213 0.23875 0.0
H135 H 0.38978 0.55254 0.19365 0.0
H136 H 0.34639 0.54346 0.07429 0.0
H137 H 0.24467 0.4631 0.11219 0.0
H138 H 0.3178 0.52126 0.24143 0.0
O139 O 0.30546 0.44543 0.03408 0.0
H140 H 0.20685 0.48629 0.22899 0.0
H141 H 0.28022 0.54384 0.35612 0.0
C142 C 0.27915 0.50001 0.95597 0.0
C143 C 0.26747 0.47893 0.88325 0.0
C144 C 0.23657 0.48151 0.84538 0.0
C145 C 0.21629 0.50578 0.87683 0.0
C146 C 0.22939 0.5293 0.9391 0.0
C147 C 0.26039 0.52655 0.97757 0.0
C148 C 0.34746 0.49275 0.08758 0.0
C149 C 0.3642 0.46765 0.13137 0.0
C150 C 0.38835 0.47265 0.20104 0.0
C151 C 0.39741 0.50317 0.22955 0.0
C152 C 0.38326 0.52856 0.17647 0.0
C153 C 0.35878 0.52341 0.10546 0.0
C154 C 0.28404 0.49085 0.1651 0.0
C155 C 0.253 0.47973 0.16778 0.0
C156 C 0.23141 0.49306 0.23371 0.0
C157 C 0.24104 0.5169 0.29928 0.0
C158 C 0.27263 0.52551 0.30507 0.0
C159 C 0.29411 0.51255 0.23812 0.0
P160 P 0.04665 0.30829 0.04754 0.0
H161 H 0.06957 0.27984 0.85741 0.0
H162 H 0.0624 0.22645 0.79355 0.0
H163 H 0.98271 0.21385 0.99098 0.0
H164 H 0.98895 0.26781 0.05165 0.0
H165 H 0.08404 0.36069 0.11787 0.0
H166 H 0.07157 0.40198 0.23622 0.0
H167 H 0.97259 0.38541 0.19006 0.0
H168 H 0.98523 0.34422 0.06598 0.0
H169 H 0.07738 0.25218 0.12152 0.0
H170 H 1.00606 0.31612 0.23056 0.0
O171 O 0.085 0.30986 0.0198 0.0
H172 H 0.05638 0.21158 0.23343 0.0
H173 H 0.98497 0.2759 0.33751 0.0
C174 C 0.03002 0.27863 0.96083 0.0
C175 C 0.04947 0.26644 0.88383 0.0
C176 C 0.04564 0.23542 0.84791 0.0
C177 C 0.02246 0.21527 0.8887 0.0
C178 C 1.00119 0.22835 0.95875 0.0
C179 C 1.00447 0.25969 0.99246 0.0
C180 C 0.0357 0.34867 0.08204 0.0
C181 C 0.05951 0.36688 0.12739 0.0
C182 C 0.05239 0.3906 0.19675 0.0
C183 C 0.02112 0.39676 0.22428 0.0
C184 C 0.997 0.38113 0.17084 0.0
C185 C 1.00422 0.35784 0.0983 0.0
C186 C 0.04309 0.28718 0.16466 0.0
C187 C 0.05837 0.25816 0.1725 0.0
C188 C 0.04607 0.23487 0.23525 0.0
C189 C 0.01855 0.24062 0.2911 0.0
C190 C 1.00608 0.27092 0.29438 0.0
C191 C 0.01833 0.29411 0.23165 0.0
P192 P 0.21306 0.04667 0.04893 0.0
H193 H 0.24115 0.07199 0.86178 0.0
H194 H 0.29418 0.06485 0.79628 0.0
H195 H 0.30312 0.97919 0.96925 0.0
H196 H 0.24984 0.98671 0.03655 0.0
H197 H 0.16256 0.08601 0.11915 0.0
H198 H 0.12197 0.07667 0.23899 0.0
H199 H 0.13111 0.97637 0.19362 0.0
H200 H 0.1746 0.98649 0.07517 0.0
H201 H 0.27429 0.07022 0.10398 0.0
H202 H 0.20282 0.01179 0.24392 0.0
O203 O 0.21265 0.0852 0.02382 0.0
H204 H 0.3133 0.04775 0.21825 0.0
H205 H 0.2416 0.98978 0.3563 0.0
C206 C 0.24078 0.03014 0.95585 0.0
C207 C 0.25371 0.05087 0.88325 0.0
C208 C 0.28466 0.0471 0.84678 0.0
C209 C 0.30371 0.02195 0.87946 0.0
C210 C 0.28948 0.99903 0.94242 0.0
C211 C 0.25848 1.00303 0.97987 0.0
C212 C 0.17247 0.03714 0.08716 0.0
C213 C 0.15539 0.06184 0.13098 0.0
C214 C 0.13155 0.05629 0.20171 0.0
C215 C 0.12293 0.02555 0.23096 0.0
C216 C 0.13738 1.00053 0.17731 0.0
C217 C 0.16188 1.00624 0.10635 0.0
C218 C 0.23572 0.0421 0.16216 0.0
C219 C 0.26658 0.05372 0.16159 0.0
C220 C 0.28886 0.04074 0.22606 0.0
C221 C 0.28015 0.01671 0.29342 0.0
C222 C 0.2486 1.00813 0.30372 0.0
C223 C 0.22642 0.02073 0.23809 0.0
P224 P 0.4862 0.21149 0.04138 0.0
H225 H 0.46036 0.23859 0.85321 0.0
H226 H 0.46493 0.29205 0.78874 0.0
H227 H 0.54847 0.30557 0.96842 0.0
H228 H 0.54438 0.25156 0.02972 0.0
H229 H 0.44518 0.16005 0.1008 0.0
H230 H 0.45303 0.11956 0.22573 0.0
H231 H 0.55351 0.13071 0.19994 0.0
H232 H 0.54562 0.17169 0.06923 0.0
H233 H 0.45606 0.26663 0.1217 0.0
H234 H 0.53337 0.20598 0.20731 0.0
O235 O 0.44735 0.21213 0.02199 0.0
H236 H 0.4766 0.30674 0.23457 0.0
H237 H 0.55293 0.24526 0.31945 0.0
C238 C 0.50158 0.24039 0.94895 0.0
C239 C 0.48055 0.25238 0.87602 0.0
C240 C 0.48274 0.28367 0.84062 0.0
C241 C 0.50631 0.30428 0.87592 0.0
C242 C 0.52966 0.29105 0.9393 0.0
C243 C 0.52754 0.25958 0.97407 0.0
C244 C 0.4947 0.17037 0.07661 0.0
C245 C 0.46918 0.15321 0.11682 0.0
C246 C 0.47361 0.1299 0.19012 0.0
C247 C 0.50378 0.12258 0.22588 0.0
C248 C 0.52983 0.13603 0.17499 0.0
C249 C 0.52528 0.15938 0.09924 0.0
C250 C 0.4927 0.23287 0.15561 0.0
C251 C 0.47625 0.26106 0.16833 0.0
C252 C 0.48816 0.28406 0.23181 0.0
C253 C 0.51641 0.27882 0.28401 0.0
C254 C 0.53098 0.24951 0.28008 0.0
C255 C 0.51938 0.22676 0.21543 0.0
Pr256 Pr 0.04296 1.00551 0.82578 0.0
Pr257 Pr 0.98035 0.01617 0.70235 0.0
C258 C 0.07831 0.9824 0.97169 0.0
C259 C 0.07034 0.95155 0.01276 0.0
C260 C 0.09379 0.92873 0.02424 0.0
C261 C 0.08534 0.89751 0.04188 0.0
C262 C 0.05345 0.88908 0.04753 0.0
C263 C 0.02999 0.91166 0.03481 0.0
C264 C 0.03837 0.94272 0.0171 0.0
C265 C 0.06052 0.01479 0.62322 0.0
C266 C 1.00426 0.94199 0.72475 0.0
C267 C 0.94234 0.03949 0.56216 0.0
C268 C 0.94791 0.07011 0.51483 0.0
C269 C 0.9234 0.092 0.5051 0.0
C270 C 0.92979 0.12257 0.4716 0.0
C271 C 0.96093 0.13148 0.45177 0.0
C272 C 0.98557 0.11021 0.46682 0.0
C273 C 0.97911 0.07974 0.49795 0.0
C274 C 0.96308 1.00679 0.90549 0.0
C275 C 0.02007 0.0792 0.80163 0.0
O276 O 0.05788 1.00479 0.98974 0.0
O277 O 0.08739 0.98131 0.87756 0.0
O278 O 0.03259 0.01513 0.6578 0.0
O279 O 0.08052 0.01129 0.69624 0.0
O280 O 0.98396 0.96097 0.67867 0.0
O281 O 0.02609 0.95337 0.78637 0.0
O282 O 0.96286 0.01738 0.5411 0.0
O283 O 0.93577 0.04142 0.65816 0.0
O284 O 0.99082 1.0065 0.86979 0.0
O285 O 0.94299 0.01028 0.83297 0.0
O286 O 0.03851 0.05993 0.85331 0.0
O287 O 0.99952 0.06835 0.73464 0.0
H288 H 0.11845 0.93495 0.01736 0.0
H289 H 0.10358 0.88011 0.05409 0.0
H290 H 1.00531 0.90532 0.04059 0.0
H291 H 0.01975 0.95967 1.00413 0.0
H292 H 0.89959 0.08572 0.52593 0.0
H293 H 0.91066 0.13908 0.46099 0.0
H294 H 1.00981 0.11715 0.45338 0.0
H295 H 0.99862 0.06392 0.51134 0.0
Pr296 Pr 0.51382 0.03964 0.81965 0.0
Pr297 Pr 0.50532 0.98096 0.70212 0.0
C298 C 0.53668 0.0741 0.96833 0.0
C299 C 0.56759 0.06643 0.00923 0.0
C300 C 0.58947 0.09028 0.02868 0.0
C301 C 0.62078 0.08252 0.04795 0.0
C302 C 0.63032 0.05094 0.04677 0.0
C303 C 0.60868 0.02719 0.0252 0.0
C304 C 0.57751 0.03487 1.00668 0.0
C305 C 0.50765 0.06147 0.6224 0.0
C306 C 0.57883 1.00306 0.72311 0.0
C307 C 0.4822 0.94546 0.55571 0.0
C308 C 0.45072 0.95031 0.51344 0.0
C309 C 0.42872 0.92565 0.5152 0.0
C310 C 0.3975 0.9311 0.48768 0.0
C311 C 0.38786 0.96163 0.46348 0.0
C312 C 0.40934 0.98658 0.46592 0.0
C313 C 0.4406 0.98099 0.49029 0.0
C314 C 0.51102 0.9589 0.89954 0.0
C315 C 0.44032 0.01816 0.79622 0.0
O316 O 0.51458 0.05315 0.98483 0.0
O317 O 0.53788 0.08371 0.87477 0.0
O318 O 0.50683 0.03245 0.64691 0.0
O319 O 0.50757 0.07944 0.70098 0.0
O320 O 0.56046 0.98135 0.68358 0.0
O321 O 0.56672 0.02625 0.77682 0.0
O322 O 0.5031 0.96748 0.53713 0.0
O323 O 0.48191 0.93629 0.64974 0.0
O324 O 0.51191 0.98804 0.87576 0.0
O325 O 0.51106 0.9412 0.82043 0.0
O326 O 0.45887 0.03929 0.83795 0.0
O327 O 0.45229 0.99526 0.74083 0.0
H328 H 0.58248 0.11476 0.02682 0.0
H329 H 0.63736 0.10102 0.06624 0.0
H330 H 0.61584 1.00273 0.02424 0.0
H331 H 0.56135 0.01611 0.9875 0.0
H332 H 0.4355 0.90244 0.54078 0.0
H333 H 0.38092 0.91173 0.48607 0.0
H334 H 0.40193 0.01032 0.44749 0.0
H335 H 0.45657 1.00085 0.49369 0.0
Pr336 Pr 0.47781 0.51425 0.82414 0.0
Pr337 Pr 0.53974 0.50669 0.69757 0.0
C338 C 0.44185 0.53305 0.9752 0.0
C339 C 0.44749 0.56309 0.02493 0.0
C340 C 0.42349 0.58564 0.02642 0.0
C341 C 0.43044 0.61667 0.05063 0.0
C342 C 0.46144 0.62532 0.07372 0.0
C343 C 0.48547 0.60292 0.07306 0.0
C344 C 0.47859 0.57201 0.04801 0.0
C345 C 0.45959 0.50869 0.62126 0.0
C346 C 0.51429 0.57959 0.72574 0.0
C347 C 0.57594 0.48397 0.55281 0.0
C348 C 0.57237 0.45163 0.51704 0.0
C349 C 0.59786 0.43069 0.52003 0.0
C350 C 0.59389 0.39951 0.49002 0.0
C351 C 0.56394 0.38892 0.4625 0.0
C352 C 0.53794 0.40894 0.46885 0.0
C353 C 0.54213 0.4401 0.49549 0.0
C354 C 0.55855 0.51291 0.8992 0.0
C355 C 0.50298 0.44129 0.7947 0.0
O356 O 0.4634 0.51134 0.98847 0.0
O357 O 0.43299 0.53619 0.88133 0.0
O358 O 0.48755 0.50798 0.65503 0.0
O359 O 0.43978 0.5112 0.69527 0.0
O360 O 0.53382 0.56145 0.67399 0.0
O361 O 0.49423 0.56734 0.7925 0.0
O362 O 0.55265 0.50321 0.53237 0.0
O363 O 0.58594 0.48604 0.64554 0.0
O364 O 0.53021 0.51345 0.86795 0.0
O365 O 0.57789 0.51189 0.82358 0.0
O366 O 0.48112 0.45897 0.83745 0.0
O367 O 0.52552 0.45384 0.73796 0.0
H368 H 0.39964 0.57947 1.00524 0.0
H369 H 0.41161 0.63382 0.05263 0.0
H370 H 0.50949 0.60942 0.0912 0.0
H371 H 0.49783 0.55542 0.04312 0.0
H372 H 0.62067 0.43843 0.54616 0.0
H373 H 0.61405 0.38397 0.48654 0.0
H374 H 0.51453 0.40067 0.44982 0.0
H375 H 0.52164 0.45506 0.49999 0.0
Pr376 Pr 1.00677 0.47733 0.81736 0.0
Pr377 Pr 0.01378 0.53827 0.69523 0.0
C378 C 0.98722 0.44169 0.96901 0.0
C379 C 0.95644 0.44719 0.01434 0.0
C380 C 0.93528 0.42212 0.02486 0.0
C381 C 0.90385 0.42805 0.04732 0.0
C382 C 0.89343 0.45907 0.05866 0.0
C383 C 0.91428 0.48422 0.04733 0.0
C384 C 0.94564 0.47834 0.02454 0.0
C385 C 0.01342 0.45735 0.6178 0.0
C386 C 0.94087 0.51235 0.71998 0.0
C387 C 0.03532 0.57597 0.55032 0.0
C388 C 0.06757 0.57396 0.51065 0.0
C389 C 0.0885 0.59929 0.52256 0.0
C390 C 0.12028 0.59597 0.49767 0.0
C391 C 0.13151 0.56678 0.46588 0.0
C392 C 0.11103 0.54121 0.45697 0.0
C393 C 0.07934 0.54481 0.47888 0.0
C394 C 1.00569 0.55729 0.89631 0.0
C395 C 0.07969 0.50305 0.79097 0.0
O396 O 1.00831 0.46378 0.98276 0.0
O397 O 0.98548 0.43214 0.87576 0.0
O398 O 0.01354 0.48612 0.64522 0.0
O399 O 0.01223 0.43867 0.6953 0.0
O400 O 0.95875 0.53372 0.67477 0.0
O401 O 0.95329 0.49047 0.77952 0.0
O402 O 0.01651 0.55233 0.53031 0.0
O403 O 0.03376 0.58496 0.64409 0.0
O404 O 1.00607 0.529 0.86577 0.0
O405 O 1.00746 0.57655 0.8205 0.0
O406 O 0.06192 0.48106 0.83329 0.0
O407 O 0.06706 0.52544 0.73414 0.0
H408 H 0.94291 0.39811 0.01317 0.0
H409 H 0.88777 0.40849 0.05813 0.0
H410 H 0.90641 0.50823 0.05778 0.0
H411 H 0.96121 0.49821 0.01241 0.0
H412 H 0.08045 0.62127 0.55407 0.0
H413 H 0.13611 0.61582 0.50503 0.0
H414 H 0.11961 0.51846 0.43265 0.0
H415 H 0.06438 0.52442 0.47454 0.0
C416 C 0.10401 0.99277 0.38252 0.0
C417 C 0.10187 0.02041 0.32318 0.0
H418 H 0.09225 0.96931 0.52196 0.0
C419 C 0.08186 0.04452 0.35998 0.0
H420 H 0.1189 0.97347 0.35964 0.0
C421 C 0.06684 0.04211 0.45464 0.0
C422 C 0.07052 0.01522 0.51502 0.0
H423 H 0.07824 0.06598 0.31753 0.0
H424 H 0.05377 0.06205 0.48285 0.0
C425 C 0.08874 0.99034 0.47677 0.0
C426 C 0.52348 0.07783 0.3407 0.0
C427 C 0.50649 0.10599 0.32611 0.0
H428 H 0.5365 0.04075 0.44533 0.0
C429 C 0.48998 0.11838 0.40895 0.0
H430 H 0.53656 0.0677 0.27865 0.0
C431 C 0.49016 0.10332 0.50303 0.0
C432 C 0.50633 0.0749 0.5179 0.0
H433 H 0.47687 0.1401 0.40104 0.0
H434 H 0.47739 0.11404 0.56475 0.0
C435 C 0.52311 0.06221 0.43562 0.0
C436 C 0.41478 0.53373 0.38558 0.0
C437 C 0.4185 0.50765 0.3212 0.0
H438 H 0.42511 0.5545 0.52952 0.0
C439 C 0.43986 0.48395 0.35274 0.0
H440 H 0.39872 0.55254 0.36624 0.0
C441 C 0.4548 0.48507 0.44753 0.0
C442 C 0.44947 0.51018 0.51335 0.0
H443 H 0.44437 0.46371 0.3059 0.0
H444 H 0.46895 0.4653 0.47166 0.0
C445 C 0.42985 0.53482 0.48019 0.0
C446 C 0.02742 0.44549 0.33369 0.0
C447 C 0.01474 0.41516 0.31876 0.0
H448 H 0.03566 0.48332 0.43768 0.0
C449 C 0.99963 0.40045 0.40083 0.0
H450 H 0.03945 0.45743 0.27234 0.0
C451 C 0.99868 0.4148 0.49603 0.0
C452 C 0.01211 0.44472 0.51217 0.0
H453 H 0.99002 0.37698 0.39287 0.0
H454 H 0.98787 0.40203 0.55804 0.0
C455 C 0.0255 0.46033 0.4287 0.0
C456 C 0.93114 0.04022 0.1492 0.0
C457 C 0.91868 0.01343 0.20048 0.0
H458 H 0.95485 0.05898 0.01844 0.0
C459 C 0.92594 0.98385 0.15721 0.0
H460 H 0.92775 0.0638 0.17618 0.0
C461 C 0.94278 0.98142 0.06549 0.0
C462 C 0.95339 1.00833 0.01373 0.0
H463 H 0.91775 0.96219 0.19089 0.0
H464 H 0.9462 0.95843 0.03251 0.0
C465 C 0.94769 0.03767 0.05758 0.0
C466 C 0.51269 0.89735 0.10913 0.0
C467 C 0.50378 0.91409 0.19536 0.0
H468 H 0.52171 0.89821 0.95055 0.0
C469 C 0.4977 0.94661 0.18503 0.0
H470 H 0.51665 0.87222 0.11383 0.0
C471 C 0.50113 0.96197 0.09037 0.0
C472 C 0.50988 0.94489 1.00383 0.0
H473 H 0.49009 0.96003 0.24985 0.0
H474 H 0.49607 0.98687 0.08436 0.0
C475 C 0.51547 0.91239 0.01519 0.0
C476 C 0.6046 0.47665 0.11433 0.0
C477 C 0.6043 0.50012 0.1895 0.0
H478 H 0.58985 0.4622 0.96698 0.0
C479 C 0.58542 0.52693 0.17117 0.0
H480 H 0.6191 0.45589 0.12232 0.0
C481 C 0.56843 0.5305 0.07989 0.0
C482 C 0.5698 0.50732 1.00466 0.0
H483 H 0.58418 0.5455 0.2265 0.0
H484 H 0.55555 0.55205 0.06622 0.0
C485 C 0.58776 0.48025 0.02405 0.0
C486 C 0.9849 0.58688 0.16079 0.0
C487 C 0.01288 0.60265 0.18935 0.0
H488 H 0.96061 0.55975 0.04737 0.0
C489 C 0.03895 0.59995 0.12301 0.0
H490 H 0.96424 0.58778 0.20847 0.0
C491 C 0.03688 0.58327 0.03201 0.0
C492 C 1.0088 0.56847 1.00279 0.0
H493 H 0.06088 0.61197 0.13789 0.0
H494 H 0.05711 0.58303 0.98201 0.0
C495 C 0.98287 0.57019 0.06878 0.0
C496 C 0.98751 0.21492 0.42924 0.0
C497 C 1.00017 0.21425 0.33132 0.0
H498 H 0.96414 0.18824 0.54541 0.0
C499 C 0.99465 0.18827 0.26912 0.0
H500 H 0.99102 0.23513 0.47735 0.0
C501 C 0.979 0.16217 0.3069 0.0
C502 C 0.96857 0.16181 0.40697 0.0
H503 H 1.00316 0.18782 0.19202 0.0
H504 H 0.97666 0.1415 0.25993 0.0
C505 C 0.97188 0.18852 0.46745 0.0
C506 C 0.3263 0.98226 0.27831 0.0
C507 C 0.30453 0.99758 0.3405 0.0
H508 H 0.36999 0.95752 0.27145 0.0
C509 C 0.30726 0.99571 0.44566 0.0
H510 H 0.32402 0.9831 0.19684 0.0
C511 C 0.33354 0.98114 0.48813 0.0
C512 C 0.35645 0.96788 0.4251 0.0
H513 H 0.29027 1.00719 0.49411 0.0
H514 H 0.337 0.98198 0.56907 0.0
C515 C 0.35215 0.96735 0.3206 0.0
C516 C 0.53854 0.33208 0.26932 0.0
C517 C 0.53307 0.30528 0.32877 0.0
H518 H 0.55394 0.37984 0.26699 0.0
C519 C 0.5433 0.30425 0.42935 0.0
H520 H 0.53165 0.33283 0.19059 0.0
C521 C 0.55624 0.33113 0.47284 0.0
C522 C 0.55936 0.3586 0.41477 0.0
H523 H 0.53969 0.28337 0.47522 0.0
H524 H 0.56189 0.33109 0.55254 0.0
C525 C 0.55167 0.35861 0.31218 0.0
C526 C 0.19859 0.55591 0.29224 0.0
C527 C 0.21734 0.53562 0.35012 0.0
H528 H 0.15623 0.58298 0.28728 0.0
C529 C 0.21107 0.5309 0.45269 0.0
H530 H 0.20344 0.55964 0.2127 0.0
C531 C 0.18419 0.54415 0.49505 0.0
C532 C 0.16406 0.56245 0.43488 0.0
H533 H 0.22559 0.51524 0.49756 0.0
H534 H 0.17782 0.5382 0.57207 0.0
C535 C 0.17202 0.56944 0.33478 0.0
C536 C 0.04732 0.80192 0.0806 0.0
C537 C 0.04151 0.80084 0.18447 0.0
H538 H 0.05574 0.83221 0.95306 0.0
C539 C 0.03509 0.82824 0.23847 0.0
H540 H 0.05171 0.78056 0.03873 0.0
C541 C 0.03676 0.85707 0.19031 0.0
C542 C 0.04508 0.85855 0.08833 0.0
H543 H 0.03015 0.82736 0.31877 0.0
H544 H 0.0335 0.8783 0.23398 0.0
C545 C 0.04946 0.83104 0.03227 0.0
C546 C 0.7172 0.05237 0.0927 0.0
C547 C 0.71798 0.03688 0.18597 0.0
H548 H 0.68763 0.06876 0.97243 0.0
C549 C 0.69114 0.02215 0.22508 0.0
H550 H 0.73812 0.06364 0.06252 0.0
C551 C 0.66282 0.02483 0.17436 0.0
C552 C 0.66127 0.04246 0.08491 0.0
H553 H 0.69171 0.01033 0.29782 0.0
H554 H 0.64172 0.01513 0.20872 0.0
C555 C 0.68867 0.05528 0.04196 0.0
C556 C 0.45975 0.71293 0.09814 0.0
C557 C 0.4675 0.71549 0.20019 0.0
H558 H 0.45185 0.68103 0.97604 0.0
C559 C 0.4776 0.68928 0.25553 0.0
H560 H 0.45243 0.73338 0.05505 0.0
C561 C 0.47787 0.65997 0.21083 0.0
C562 C 0.46771 0.65679 0.11104 0.0
H563 H 0.484 0.69135 0.33443 0.0
H564 H 0.48402 0.63956 0.25601 0.0
C565 C 0.45957 0.68337 0.05352 0.0
C566 C 0.80605 0.46581 0.08999 0.0
C567 C 0.80433 0.4643 0.19549 0.0
H568 H 0.83701 0.46519 0.96152 0.0
C569 C 0.8317 0.46493 0.25411 0.0
H570 H 0.78483 0.46614 0.04467 0.0
C571 C 0.86081 0.46506 0.20775 0.0
C572 C 0.86273 0.46443 0.10264 0.0
H573 H 0.83049 0.46475 0.33587 0.0
H574 H 0.88188 0.46435 0.25383 0.0
C575 C 0.83548 0.4655 0.04313 0.0
C576 C 0.02216 0.15778 0.94299 0.0
C577 C 0.02196 0.18041 0.86468 0.0
H578 H 0.02262 0.10874 0.98479 0.0
C579 C 0.02195 0.16924 0.76451 0.0
H580 H 0.02256 0.16528 0.02093 0.0
C581 C 0.0211 0.1366 0.74374 0.0
C582 C 0.02148 0.11407 0.82235 0.0
H583 H 0.02202 0.18578 0.70204 0.0
H584 H 0.02056 0.12897 0.66593 0.0
C585 C 0.02243 0.12525 0.9222 0.0
C586 C 0.35392 0.99271 0.829 0.0
C587 C 0.33858 0.02103 0.85385 0.0
H588 H 0.39732 0.96969 0.7895 0.0
C589 C 0.3572 0.0486 0.85713 0.0
H590 H 0.34064 0.971 0.82504 0.0
C591 C 0.38994 0.04774 0.83857 0.0
C592 C 0.40521 0.01942 0.81378 0.0
H593 H 0.34658 0.07089 0.8767 0.0
H594 H 0.40331 0.0694 0.84336 0.0
C595 C 0.38655 0.992 0.80808 0.0
C596 C 0.47655 0.35562 0.83912 0.0
C597 C 0.50544 0.3394 0.85155 0.0
H598 H 0.45294 0.39984 0.813 0.0
C599 C 0.53327 0.35751 0.84391 0.0
H600 H 0.45441 0.34312 0.84546 0.0
C601 C 0.53228 0.39017 0.82435 0.0
C602 C 0.50346 0.40625 0.81346 0.0
H603 H 0.55606 0.34645 0.85212 0.0
H604 H 0.55428 0.40303 0.81954 0.0
C605 C 0.47559 0.38844 0.8214 0.0
C606 C 0.16427 0.47656 0.8518 0.0
C607 C 0.18141 0.50512 0.85081 0.0
H608 H 0.11939 0.45342 0.83561 0.0
C609 C 0.16452 0.53282 0.82807 0.0
H610 H 0.17602 0.45467 0.86993 0.0
C611 C 0.13193 0.53196 0.8067 0.0
C612 C 0.11479 0.5035 0.8097 0.0
H613 H 0.17655 0.55528 0.82601 0.0
H614 H 0.11998 0.55385 0.7898 0.0
C615 C 0.13155 0.47582 0.83275 0.0
C616 C 0.97847 0.85869 0.63966 0.0
C617 C 1.00451 0.83945 0.66631 0.0
H618 H 0.9578 0.90506 0.63525 0.0
C619 C 0.02994 0.85508 0.71418 0.0
H620 H 0.95788 0.84863 0.60456 0.0
C621 C 0.02934 0.88765 0.7344 0.0
C622 C 1.00366 0.90672 0.70585 0.0
H623 H 0.05111 0.84259 0.73491 0.0
H624 H 0.04962 0.89805 0.77089 0.0
C625 C 0.9782 0.89155 0.65809 0.0
C626 C 0.66475 0.9754 0.69041 0.0
C627 C 0.68077 1.00381 0.66887 0.0
H628 H 0.6204 0.9527 0.72478 0.0
C629 C 0.66252 0.03153 0.66438 0.0
H630 H 0.6778 0.9536 0.69582 0.0
C631 C 0.62981 0.03104 0.68221 0.0
C632 C 0.61384 1.00277 0.70379 0.0
H633 H 0.67352 0.05383 0.64582 0.0
H634 H 0.61685 0.05293 0.67746 0.0
C635 C 0.63178 0.97488 0.70718 0.0
C636 C 0.5235 0.66065 0.59588 0.0
C637 C 0.50969 0.68164 0.6656 0.0
H638 H 0.53609 0.61295 0.5596 0.0
C639 C 0.49856 0.66829 0.75719 0.0
H640 H 0.53188 0.66915 0.52356 0.0
C641 C 0.50034 0.63563 0.77677 0.0
C642 C 0.51391 0.61481 0.70669 0.0
H643 H 0.48837 0.68303 0.81487 0.0
H644 H 0.49104 0.6267 0.8475 0.0
C645 C 0.52578 0.62801 0.61636 0.0
C646 C 0.85199 0.53061 0.72522 0.0
C647 C 0.83957 0.50796 0.6588 0.0
H648 H 0.89341 0.5497 0.79736 0.0
C649 C 0.86093 0.48698 0.61326 0.0
H650 H 0.83627 0.54675 0.7631 0.0
C651 C 0.89357 0.48868 0.63281 0.0
C652 C 0.90603 0.51134 0.69878 0.0
H653 H 0.85231 0.46919 0.56199 0.0
H654 H 0.90918 0.47219 0.59597 0.0
C655 C 0.88475 0.53226 0.74498 0.0
loop_
_geom_bond_atom_site_label_1
_geom_bond_atom_site_label_2
_geom_bond_distance
_geom_bond_site_symmetry_2
_ccdc_geom_bond_type
P0 O11 1.490 . S
P0 C14 1.812 . S
P0 C20 1.803 . S
P0 C26 1.819 . S
H1 C15 0.941 . S
H2 C16 0.939 . S
H3 C18 0.940 . S
H4 C19 0.940 . S
H5 C21 0.939 . S
H6 C22 0.942 . S
H7 C24 0.940 . S
H8 C25 0.939 . S
H9 C27 0.941 . S
H10 C31 0.939 . S
O11 P0 1.490 . S
H12 C28 0.939 . S
H13 C30 0.940 . S
C14 P0 1.812 . S
C14 C15 1.389 . S
C14 C19 1.391 . S
C15 H1 0.941 . S
C15 C14 1.389 . S
C15 C16 1.397 . S
C16 H2 0.939 . S
C16 C15 1.397 . S
C16 C17 1.378 . S
C17 C16 1.378 . S
C17 C18 1.378 . S
C18 H3 0.940 . S
C18 C17 1.378 . S
C18 C19 1.396 . S
C19 H4 0.940 . S
C19 C14 1.391 . S
C19 C18 1.396 . S
C20 P0 1.803 . S
C20 C21 1.378 . S
C20 C25 1.400 . S
C21 H5 0.939 . S
C21 C20 1.378 . S
C21 C22 1.361 . S
C22 H6 0.942 . S
C22 C21 1.361 . S
C22 C23 1.369 . S
C23 C22 1.369 . S
C23 C24 1.404 . S
C24 H7 0.940 . S
C24 C23 1.404 . S
C24 C25 1.389 . S
C25 H8 0.939 . S
C25 C20 1.400 . S
C25 C24 1.389 . S
C26 P0 1.819 . S
C26 C27 1.391 . S
C26 C31 1.391 . S
C27 H9 0.941 . S
C27 C26 1.391 . S
C27 C28 1.396 . S
C28 H12 0.939 . S
C28 C27 1.396 . S
C28 C29 1.397 . S
C29 C28 1.397 . S
C29 C30 1.385 . S
C30 H13 0.940 . S
C30 C29 1.385 . S
C30 C31 1.388 . S
C31 H10 0.939 . S
C31 C26 1.391 . S
C31 C30 1.388 . S
P32 O43 1.490 . S
P32 C46 1.812 . S
P32 C52 1.803 . S
P32 C58 1.819 . S
H33 C47 0.941 . S
H34 C48 0.939 . S
H35 C50 0.940 . S
H36 C51 0.950 . S
H37 C53 0.939 . S
H38 C54 0.942 . S
H39 C56 0.940 . S
H40 C57 0.959 . S
H41 C59 0.941 . S
H42 C63 0.929 1_655 S
O43 P32 1.490 . S
H44 C60 0.939 . S
H45 C62 0.940 . S
C46 P32 1.812 . S
C46 C47 1.389 . S
C46 C51 1.375 1_455 S
C47 H33 0.941 . S
C47 C46 1.389 . S
C47 C48 1.397 . S
C48 H34 0.939 . S
C48 C47 1.397 . S
C48 C49 1.378 . S
C49 C48 1.378 . S
C49 C50 1.378 1_455 S
C50 H35 0.940 . S
C50 C49 1.378 1_655 S
C50 C51 1.403 . S
C51 H36 0.950 . S
C51 C46 1.375 1_655 S
C51 C50 1.403 . S
C52 P32 1.803 . S
C52 C53 1.378 . S
C52 C57 1.368 1_455 S
C53 H37 0.939 . S
C53 C52 1.378 . S
C53 C54 1.361 . S
C54 H38 0.942 . S
C54 C53 1.361 . S
C54 C55 1.369 . S
C55 C54 1.369 . S
C55 C56 1.404 1_455 S
C56 H39 0.940 . S
C56 C55 1.404 1_655 S
C56 C57 1.402 . S
C57 H40 0.959 . S
C57 C52 1.368 1_655 S
C57 C56 1.402 . S
C58 P32 1.819 . S
C58 C59 1.391 . S
C58 C63 1.391 . S
C59 H41 0.941 . S
C59 C58 1.391 . S
C59 C60 1.396 . S
C60 H44 0.939 . S
C60 C59 1.396 . S
C60 C61 1.397 . S
C61 C60 1.397 . S
C61 C62 1.385 1_455 S
C62 H45 0.940 . S
C62 C61 1.385 1_655 S
C62 C63 1.388 1_655 S
C63 H42 0.929 1_455 S
C63 C58 1.391 . S
C63 C62 1.388 1_455 S
P64 O75 1.490 . S
P64 C78 1.812 . S
P64 C84 1.803 . S
P64 C90 1.819 . S
H65 C79 0.941 . S
H66 C80 0.939 . S
H67 C82 0.940 . S
H68 C83 0.950 . S
H69 C85 0.939 . S
H70 C86 0.942 . S
H71 C88 0.940 . S
H72 C89 0.959 . S
H73 C91 0.941 . S
H74 C95 0.929 1_565 S
O75 P64 1.490 . S
H76 C92 0.939 . S
H77 C94 0.940 . S
C78 P64 1.812 . S
C78 C79 1.389 . S
C78 C83 1.375 1_545 S
C79 H65 0.941 . S
C79 C78 1.389 . S
C79 C80 1.397 . S
C80 H66 0.939 . S
C80 C79 1.397 . S
C80 C81 1.378 . S
C81 C80 1.378 . S
C81 C82 1.378 1_545 S
C82 H67 0.940 . S
C82 C81 1.378 1_565 S
C82 C83 1.402 . S
C83 H68 0.950 . S
C83 C78 1.375 1_565 S
C83 C82 1.402 . S
C84 P64 1.803 . S
C84 C85 1.378 . S
C84 C89 1.368 1_545 S
C85 H69 0.939 . S
C85 C84 1.378 . S
C85 C86 1.361 . S
C86 H70 0.942 . S
C86 C85 1.361 . S
C86 C87 1.369 . S
C87 C86 1.369 . S
C87 C88 1.404 1_545 S
C88 H71 0.940 . S
C88 C87 1.404 1_565 S
C88 C89 1.402 . S
C89 H72 0.959 . S
C89 C84 1.368 1_565 S
C89 C88 1.402 . S
C90 P64 1.819 . S
C90 C91 1.391 . S
C90 C95 1.391 . S
C91 H73 0.941 . S
C91 C90 1.391 . S
C91 C92 1.396 . S
C92 H76 0.939 . S
C92 C91 1.396 . S
C92 C93 1.397 . S
C93 C92 1.397 . S
C93 C94 1.385 1_545 S
C94 H77 0.940 . S
C94 C93 1.385 1_565 S
C94 C95 1.388 1_565 S
C95 H74 0.929 1_545 S
C95 C90 1.391 . S
C95 C94 1.388 1_545 S
P96 O107 1.490 . S
P96 C110 1.812 . S
P96 C116 1.803 . S
P96 C122 1.819 . S
H97 C111 0.941 . S
H98 C112 0.939 . S
H99 C114 0.940 . S
H100 C115 0.940 . S
H101 C117 0.939 . S
H102 C118 0.942 . S
H103 C120 0.940 . S
H104 C121 0.939 . S
H105 C123 0.941 . S
H106 C127 0.939 . S
O107 P96 1.490 . S
H108 C124 0.939 . S
H109 C126 0.940 . S
C110 P96 1.812 . S
C110 C111 1.389 . S
C110 C115 1.391 . S
C111 H97 0.941 . S
C111 C110 1.389 . S
C111 C112 1.397 . S
C112 H98 0.939 . S
C112 C111 1.397 . S
C112 C113 1.378 . S
C113 C112 1.378 . S
C113 C114 1.378 . S
C114 H99 0.940 . S
C114 C113 1.378 . S
C114 C115 1.396 . S
C115 H100 0.940 . S
C115 C110 1.391 . S
C115 C114 1.396 . S
C116 P96 1.803 . S
C116 C117 1.378 . S
C116 C121 1.400 . S
C117 H101 0.939 . S
C117 C116 1.378 . S
C117 C118 1.361 . S
C118 H102 0.942 . S
C118 C117 1.361 . S
C118 C119 1.369 . S
C119 C118 1.369 . S
C119 C120 1.404 . S
C120 H103 0.940 . S
C120 C119 1.404 . S
C120 C121 1.389 . S
C121 H104 0.939 . S
C121 C116 1.400 . S
C121 C120 1.389 . S
C122 P96 1.819 . S
C122 C123 1.391 . S
C122 C127 1.391 . S
C123 H105 0.941 . S
C123 C122 1.391 . S
C123 C124 1.396 . S
C124 H108 0.939 . S
C124 C123 1.396 . S
C124 C125 1.397 . S
C125 C124 1.397 . S
C125 C126 1.385 . S
C126 H109 0.940 . S
C126 C125 1.385 . S
C126 C127 1.388 . S
C127 H106 0.939 . S
C127 C122 1.391 . S
C127 C126 1.388 . S
P128 O139 1.490 . S
P128 C142 1.812 1_554 S
P128 C148 1.803 . S
P128 C154 1.819 . S
H129 C143 0.941 . S
H130 C144 0.939 . S
H131 C146 0.940 . S
H132 C147 0.940 . S
H133 C149 0.939 . S
H134 C150 0.942 . S
H135 C152 0.940 . S
H136 C153 0.939 . S
H137 C155 0.941 . S
H138 C159 0.939 . S
O139 P128 1.490 . S
H140 C156 0.939 . S
H141 C158 0.940 . S
C142 P128 1.812 1_556 S
C142 C143 1.389 . S
C142 C147 1.391 . S
C143 H129 0.941 . S
C143 C142 1.389 . S
C143 C144 1.397 . S
C144 H130 0.939 . S
C144 C143 1.397 . S
C144 C145 1.378 . S
C145 C144 1.378 . S
C145 C146 1.378 . S
C146 H131 0.940 . S
C146 C145 1.378 . S
C146 C147 1.396 . S
C147 H132 0.940 . S
C147 C142 1.391 . S
C147 C146 1.396 . S
C148 P128 1.803 . S
C148 C149 1.378 . S
C148 C153 1.400 . S
C149 H133 0.939 . S
C149 C148 1.378 . S
C149 C150 1.361 . S
C150 H134 0.942 . S
C150 C149 1.361 . S
C150 C151 1.369 . S
C151 C150 1.369 . S
C151 C152 1.404 . S
C152 H135 0.940 . S
C152 C151 1.404 . S
C152 C153 1.389 . S
C153 H136 0.939 . S
C153 C148 1.400 . S
C153 C152 1.389 . S
C154 P128 1.819 . S
C154 C155 1.391 . S
C154 C159 1.391 . S
C155 H137 0.941 . S
C155 C154 1.391 . S
C155 C156 1.396 . S
C156 H140 0.939 . S
C156 C155 1.396 . S
C156 C157 1.397 . S
C157 C156 1.397 . S
C157 C158 1.385 . S
C158 H141 0.940 . S
C158 C157 1.385 . S
C158 C159 1.388 . S
C159 H138 0.939 . S
C159 C154 1.391 . S
C159 C158 1.388 . S
P160 O171 1.490 . S
P160 C174 1.812 1_554 S
P160 C180 1.803 . S
P160 C186 1.819 . S
H161 C175 0.941 . S
H162 C176 0.939 . S
H163 C178 0.940 . S
H164 C179 0.945 . S
H165 C181 0.939 . S
H166 C182 0.942 . S
H167 C184 0.940 . S
H168 C185 0.954 . S
H169 C187 0.941 . S
H170 C191 0.932 1_655 S
O171 P160 1.490 . S
H172 C188 0.939 . S
H173 C190 0.940 . S
C174 P160 1.812 1_556 S
C174 C175 1.389 . S
C174 C179 1.383 1_455 S
C175 H161 0.941 . S
C175 C174 1.389 . S
C175 C176 1.397 . S
C176 H162 0.939 . S
C176 C175 1.397 . S
C176 C177 1.378 . S
C177 C176 1.378 . S
C177 C178 1.378 1_455 S
C178 H163 0.940 . S
C178 C177 1.378 1_655 S
C178 C179 1.400 . S
C179 H164 0.945 . S
C179 C174 1.383 1_655 S
C179 C178 1.400 . S
C180 P160 1.803 . S
C180 C181 1.378 . S
C180 C185 1.376 1_455 S
C181 H165 0.939 . S
C181 C180 1.378 . S
C181 C182 1.361 . S
C182 H166 0.942 . S
C182 C181 1.361 . S
C182 C183 1.369 . S
C183 C182 1.369 . S
C183 C184 1.404 1_455 S
C184 H167 0.940 . S
C184 C183 1.404 1_655 S
C184 C185 1.399 . S
C185 H168 0.954 . S
C185 C180 1.376 1_655 S
C185 C184 1.399 . S
C186 P160 1.819 . S
C186 C187 1.391 . S
C186 C191 1.391 . S
C187 H169 0.941 . S
C187 C186 1.391 . S
C187 C188 1.396 . S
C188 H172 0.939 . S
C188 C187 1.396 . S
C188 C189 1.397 . S
C189 C188 1.397 . S
C189 C190 1.385 1_455 S
C190 H173 0.940 . S
C190 C189 1.385 1_655 S
C190 C191 1.388 1_655 S
C191 H170 0.932 1_455 S
C191 C186 1.391 . S
C191 C190 1.388 1_455 S
P192 O203 1.490 . S
P192 C206 1.812 1_554 S
P192 C212 1.803 . S
P192 C218 1.819 . S
H193 C207 0.941 . S
H194 C208 0.939 . S
H195 C210 0.940 . S
H196 C211 0.945 . S
H197 C213 0.939 . S
H198 C214 0.942 . S
H199 C216 0.940 . S
H200 C217 0.954 . S
H201 C219 0.941 . S
H202 C223 0.932 1_565 S
O203 P192 1.490 . S
H204 C220 0.939 . S
H205 C222 0.940 . S
C206 P192 1.812 1_556 S
C206 C207 1.389 . S
C206 C211 1.383 1_545 S
C207 H193 0.941 . S
C207 C206 1.389 . S
C207 C208 1.397 . S
C208 H194 0.939 . S
C208 C207 1.397 . S
C208 C209 1.378 . S
C209 C208 1.378 . S
C209 C210 1.378 1_545 S
C210 H195 0.940 . S
C210 C209 1.378 1_565 S
C210 C211 1.400 . S
C211 H196 0.945 . S
C211 C206 1.383 1_565 S
C211 C210 1.400 . S
C212 P192 1.803 . S
C212 C213 1.378 . S
C212 C217 1.376 1_545 S
C213 H197 0.939 . S
C213 C212 1.378 . S
C213 C214 1.361 . S
C214 H198 0.942 . S
C214 C213 1.361 . S
C214 C215 1.369 . S
C215 C214 1.369 . S
C215 C216 1.404 1_545 S
C216 H199 0.940 . S
C216 C215 1.404 1_565 S
C216 C217 1.398 . S
C217 H200 0.954 . S
C217 C212 1.376 1_565 S
C217 C216 1.398 . S
C218 P192 1.819 . S
C218 C219 1.391 . S
C218 C223 1.391 . S
C219 H201 0.941 . S
C219 C218 1.391 . S
C219 C220 1.396 . S
C220 H204 0.939 . S
C220 C219 1.396 . S
C220 C221 1.397 . S
C221 C220 1.397 . S
C221 C222 1.385 1_545 S
C222 H205 0.940 . S
C222 C221 1.385 1_565 S
C222 C223 1.388 1_565 S
C223 H202 0.932 1_545 S
C223 C218 1.391 . S
C223 C222 1.388 1_545 S
P224 O235 1.490 . S
P224 C238 1.812 1_554 S
P224 C244 1.803 . S
P224 C250 1.819 . S
H225 C239 0.941 . S
H226 C240 0.939 . S
H227 C242 0.940 . S
H228 C243 0.940 . S
H229 C245 0.939 . S
H230 C246 0.942 . S
H231 C248 0.940 . S
H232 C249 0.939 . S
H233 C251 0.941 . S
H234 C255 0.939 . S
O235 P224 1.490 . S
H236 C252 0.939 . S
H237 C254 0.940 . S
C238 P224 1.812 1_556 S
C238 C239 1.389 . S
C238 C243 1.391 . S
C239 H225 0.941 . S
C239 C238 1.389 . S
C239 C240 1.397 . S
C240 H226 0.939 . S
C240 C239 1.397 . S
C240 C241 1.378 . S
C241 C240 1.378 . S
C241 C242 1.378 . S
C242 H227 0.940 . S
C242 C241 1.378 . S
C242 C243 1.396 . S
C243 H228 0.940 . S
C243 C238 1.391 . S
C243 C242 1.396 . S
C244 P224 1.803 . S
C244 C245 1.378 . S
C244 C249 1.400 . S
C245 H229 0.939 . S
C245 C244 1.378 . S
C245 C246 1.361 . S
C246 H230 0.942 . S
C246 C245 1.361 . S
C246 C247 1.369 . S
C247 C246 1.369 . S
C247 C248 1.404 . S
C248 H231 0.940 . S
C248 C247 1.404 . S
C248 C249 1.389 . S
C249 H232 0.939 . S
C249 C244 1.400 . S
C249 C248 1.389 . S
C250 P224 1.819 . S
C250 C251 1.391 . S
C250 C255 1.391 . S
C251 H233 0.941 . S
C251 C250 1.391 . S
C251 C252 1.396 . S
C252 H236 0.939 . S
C252 C251 1.396 . S
C252 C253 1.397 . S
C253 C252 1.397 . S
C253 C254 1.385 . S
C254 H237 0.940 . S
C254 C253 1.385 . S
C254 C255 1.388 . S
C255 H234 0.939 . S
C255 C250 1.391 . S
C255 C254 1.388 . S
Pr256 C258 2.880 . S
Pr256 O276 2.562 . S
Pr256 O277 2.490 . S
Pr256 O278 2.695 1_565 S
Pr256 O279 2.512 . S
Pr256 O281 2.437 . S
Pr256 O284 2.436 1_455 S
Pr256 O286 2.438 1_565 S
Pr257 C267 2.880 . S
Pr257 O278 2.436 1_655 S
Pr257 O280 2.438 1_545 S
Pr257 O282 2.562 . S
Pr257 O283 2.490 . S
Pr257 O284 2.695 1_545 S
Pr257 O285 2.512 . S
Pr257 O287 2.437 . S
C258 Pr256 2.880 . S
C258 C259 1.491 1_556 S
C258 O276 1.254 . S
C258 O277 1.225 . S
C259 C258 1.491 1_554 S
C259 C260 1.392 . S
C259 C264 1.356 . S
C260 C259 1.392 . S
C260 C261 1.368 . S
C260 H288 0.929 1_554 S
C261 C260 1.368 . S
C261 C262 1.386 . S
C261 H289 0.929 . S
C262 C261 1.386 . S
C262 C263 1.373 . S
C263 C262 1.373 . S
C263 C264 1.409 . S
C263 H290 0.931 . S
C264 C259 1.356 . S
C264 C263 1.409 . S
C264 H291 0.930 1_455 S
C265 O278 1.270 1_565 S
C265 O279 1.248 . S
C266 O280 1.267 . S
C266 O281 1.278 1_655 S
C267 Pr257 2.880 . S
C267 C268 1.491 . S
C267 O282 1.254 . S
C267 O283 1.225 . S
C268 C267 1.491 . S
C268 C269 1.392 . S
C268 C273 1.356 . S
C269 C268 1.392 . S
C269 C270 1.368 . S
C269 H292 0.929 . S
C270 C269 1.368 . S
C270 C271 1.386 . S
C270 H293 0.929 . S
C271 C270 1.386 . S
C271 C272 1.373 . S
C272 C271 1.373 . S
C272 C273 1.409 . S
C272 H294 0.931 . S
C273 C268 1.356 . S
C273 C272 1.409 . S
C273 H295 0.930 1_655 S
C274 O284 1.270 1_545 S
C274 O285 1.248 . S
C275 O286 1.267 . S
C275 O287 1.278 1_455 S
O276 Pr256 2.562 . S
O276 C258 1.254 . S
O277 Pr256 2.490 . S
O277 C258 1.225 . S
O278 Pr256 2.695 1_545 S
O278 Pr257 2.436 1_455 S
O278 C265 1.270 1_545 S
O279 Pr256 2.512 . S
O279 C265 1.248 . S
O280 Pr257 2.438 1_565 S
O280 C266 1.267 . S
O281 Pr256 2.437 . S
O281 C266 1.278 1_455 S
O282 Pr257 2.562 . S
O282 C267 1.254 . S
O283 Pr257 2.490 . S
O283 C267 1.225 . S
O284 Pr256 2.436 1_655 S
O284 Pr257 2.695 1_565 S
O284 C274 1.270 1_565 S
O285 Pr257 2.512 . S
O285 C274 1.248 . S
O286 Pr256 2.438 1_545 S
O286 C275 1.267 . S
O287 Pr257 2.437 . S
O287 C275 1.278 1_655 S
H288 C260 0.929 1_556 S
H289 C261 0.929 . S
H290 C263 0.931 . S
H291 C264 0.930 1_655 S
H292 C269 0.929 . S
H293 C270 0.929 . S
H294 C272 0.931 . S
H295 C273 0.930 1_455 S
Pr296 C298 2.880 . S
Pr296 O316 2.562 . S
Pr296 O317 2.490 . S
Pr296 O318 2.695 . S
Pr296 O319 2.512 . S
Pr296 O321 2.437 . S
Pr296 O324 2.436 1_545 S
Pr296 O326 2.438 . S
Pr297 C307 2.880 . S
Pr297 O318 2.436 1_565 S
Pr297 O320 2.438 . S
Pr297 O322 2.562 . S
Pr297 O323 2.490 . S
Pr297 O324 2.695 . S
Pr297 O325 2.512 . S
Pr297 O327 2.437 . S
C298 Pr296 2.880 . S
C298 C299 1.491 1_556 S
C298 O316 1.254 . S
C298 O317 1.225 . S
C299 C298 1.491 1_554 S
C299 C300 1.392 . S
C299 C304 1.356 . S
C300 C299 1.392 . S
C300 C301 1.368 . S
C300 H328 0.929 1_554 S
C301 C300 1.368 . S
C301 C302 1.386 . S
C301 H329 0.929 . S
C302 C301 1.386 . S
C302 C303 1.373 . S
C303 C302 1.373 . S
C303 C304 1.409 . S
C303 H330 0.931 . S
C304 C299 1.356 . S
C304 C303 1.409 . S
C304 H331 0.930 1_545 S
C305 O318 1.270 . S
C305 O319 1.248 . S
C306 O320 1.267 . S
C306 O321 1.278 1_565 S
C307 Pr297 2.880 . S
C307 C308 1.491 . S
C307 O322 1.254 . S
C307 O323 1.225 . S
C308 C307 1.491 . S
C308 C309 1.392 . S
C308 C313 1.356 . S
C309 C308 1.392 . S
C309 C310 1.368 . S
C309 H332 0.929 . S
C310 C309 1.368 . S
C310 C311 1.386 . S
C310 H333 0.929 . S
C311 C310 1.386 . S
C311 C312 1.373 . S
C312 C311 1.373 . S
C312 C313 1.409 . S
C312 H334 0.931 . S
C313 C308 1.356 . S
C313 C312 1.409 . S
C313 H335 0.930 1_565 S
C314 O324 1.270 . S
C314 O325 1.248 . S
C315 O326 1.267 . S
C315 O327 1.278 1_545 S
O316 Pr296 2.562 . S
O316 C298 1.254 . S
O317 Pr296 2.490 . S
O317 C298 1.225 . S
O318 Pr296 2.695 . S
O318 Pr297 2.436 1_545 S
O318 C305 1.270 . S
O319 Pr296 2.512 . S
O319 C305 1.248 . S
O320 Pr297 2.438 . S
O320 C306 1.267 . S
O321 Pr296 2.437 . S
O321 C306 1.278 1_545 S
O322 Pr297 2.562 . S
O322 C307 1.254 . S
O323 Pr297 2.490 . S
O323 C307 1.225 . S
O324 Pr296 2.436 1_565 S
O324 Pr297 2.695 . S
O324 C314 1.270 . S
O325 Pr297 2.512 . S
O325 C314 1.248 . S
O326 Pr296 2.438 . S
O326 C315 1.267 . S
O327 Pr297 2.437 . S
O327 C315 1.278 1_565 S
H328 C300 0.929 1_556 S
H329 C301 0.929 . S
H330 C303 0.931 . S
H331 C304 0.930 1_565 S
H332 C309 0.929 . S
H333 C310 0.929 . S
H334 C312 0.931 . S
H335 C313 0.930 1_545 S
Pr336 C338 2.880 . S
Pr336 O356 2.562 . S
Pr336 O357 2.490 . S
Pr336 O358 2.695 . S
Pr336 O359 2.512 . S
Pr336 O361 2.437 . S
Pr336 O364 2.436 . S
Pr336 O366 2.438 . S
Pr337 C347 2.880 . S
Pr337 O358 2.436 . S
Pr337 O360 2.438 . S
Pr337 O362 2.562 . S
Pr337 O363 2.490 . S
Pr337 O364 2.695 . S
Pr337 O365 2.512 . S
Pr337 O367 2.437 . S
C338 Pr336 2.880 . S
C338 C339 1.491 1_556 S
C338 O356 1.254 . S
C338 O357 1.225 . S
C339 C338 1.491 1_554 S
C339 C340 1.392 . S
C339 C344 1.356 . S
C340 C339 1.392 . S
C340 C341 1.368 . S
C340 H368 0.929 1_554 S
C341 C340 1.368 . S
C341 C342 1.386 . S
C341 H369 0.929 . S
C342 C341 1.386 . S
C342 C343 1.373 . S
C343 C342 1.373 . S
C343 C344 1.409 . S
C343 H370 0.931 . S
C344 C339 1.356 . S
C344 C343 1.409 . S
C344 H371 0.930 . S
C345 O358 1.270 . S
C345 O359 1.248 . S
C346 O360 1.267 . S
C346 O361 1.278 . S
C347 Pr337 2.880 . S
C347 C348 1.491 . S
C347 O362 1.254 . S
C347 O363 1.225 . S
C348 C347 1.491 . S
C348 C349 1.392 . S
C348 C353 1.356 . S
C349 C348 1.392 . S
C349 C350 1.368 . S
C349 H372 0.929 . S
C350 C349 1.368 . S
C350 C351 1.386 . S
C350 H373 0.929 . S
C351 C350 1.386 . S
C351 C352 1.373 . S
C352 C351 1.373 . S
C352 C353 1.409 . S
C352 H374 0.931 . S
C353 C348 1.356 . S
C353 C352 1.409 . S
C353 H375 0.930 . S
C354 O364 1.270 . S
C354 O365 1.248 . S
C355 O366 1.267 . S
C355 O367 1.278 . S
O356 Pr336 2.562 . S
O356 C338 1.254 . S
O357 Pr336 2.490 . S
O357 C338 1.225 . S
O358 Pr336 2.695 . S
O358 Pr337 2.436 . S
O358 C345 1.270 . S
O359 Pr336 2.512 . S
O359 C345 1.248 . S
O360 Pr337 2.438 . S
O360 C346 1.267 . S
O361 Pr336 2.437 . S
O361 C346 1.278 . S
O362 Pr337 2.562 . S
O362 C347 1.254 . S
O363 Pr337 2.490 . S
O363 C347 1.225 . S
O364 Pr336 2.436 . S
O364 Pr337 2.695 . S
O364 C354 1.270 . S
O365 Pr337 2.512 . S
O365 C354 1.248 . S
O366 Pr336 2.438 . S
O366 C355 1.267 . S
O367 Pr337 2.437 . S
O367 C355 1.278 . S
H368 C340 0.929 1_556 S
H369 C341 0.929 . S
H370 C343 0.931 . S
H371 C344 0.930 . S
H372 C349 0.929 . S
H373 C350 0.929 . S
H374 C352 0.931 . S
H375 C353 0.930 . S
Pr376 C378 2.880 . S
Pr376 O396 2.562 . S
Pr376 O397 2.490 . S
Pr376 O398 2.695 1_655 S
Pr376 O399 2.512 . S
Pr376 O401 2.437 . S
Pr376 O404 2.436 . S
Pr376 O406 2.438 1_655 S
Pr377 C387 2.880 . S
Pr377 O398 2.436 . S
Pr377 O400 2.438 1_455 S
Pr377 O402 2.562 . S
Pr377 O403 2.490 . S
Pr377 O404 2.695 1_455 S
Pr377 O405 2.512 . S
Pr377 O407 2.437 . S
C378 Pr376 2.880 . S
C378 C379 1.491 1_556 S
C378 O396 1.254 . S
C378 O397 1.225 . S
C379 C378 1.491 1_554 S
C379 C380 1.392 . S
C379 C384 1.356 . S
C380 C379 1.392 . S
C380 C381 1.368 . S
C380 H408 0.929 1_554 S
C381 C380 1.368 . S
C381 C382 1.386 . S
C381 H409 0.929 . S
C382 C381 1.386 . S
C382 C383 1.373 . S
C383 C382 1.373 . S
C383 C384 1.409 . S
C383 H410 0.931 . S
C384 C379 1.356 . S
C384 C383 1.409 . S
C384 H411 0.930 . S
C385 O398 1.267 1_655 S
C385 O399 1.254 . S
C386 O400 1.267 . S
C386 O401 1.278 . S
C387 Pr377 2.880 . S
C387 C388 1.491 . S
C387 O402 1.254 . S
C387 O403 1.225 . S
C388 C387 1.491 . S
C388 C389 1.392 . S
C388 C393 1.356 . S
C389 C388 1.392 . S
C389 C390 1.368 . S
C389 H412 0.929 . S
C390 C389 1.368 . S
C390 C391 1.386 . S
C390 H413 0.929 . S
C391 C390 1.386 . S
C391 C392 1.373 . S
C392 C391 1.373 . S
C392 C393 1.409 . S
C392 H414 0.931 . S
C393 C388 1.356 . S
C393 C392 1.409 . S
C393 H415 0.930 . S
C394 O404 1.264 1_455 S
C394 O405 1.258 . S
C395 O406 1.267 . S
C395 O407 1.278 . S
O396 Pr376 2.562 . S
O396 C378 1.254 . S
O397 Pr376 2.490 . S
O397 C378 1.225 . S
O398 Pr376 2.695 1_455 S
O398 Pr377 2.436 . S
O398 C385 1.267 1_455 S
O399 Pr376 2.512 . S
O399 C385 1.254 . S
O400 Pr377 2.438 1_655 S
O400 C386 1.267 . S
O401 Pr376 2.437 . S
O401 C386 1.278 . S
O402 Pr377 2.562 . S
O402 C387 1.254 . S
O403 Pr377 2.490 . S
O403 C387 1.225 . S
O404 Pr376 2.436 . S
O404 Pr377 2.695 1_655 S
O404 C394 1.264 1_655 S
O405 Pr377 2.512 . S
O405 C394 1.258 . S
O406 Pr376 2.438 1_455 S
O406 C395 1.267 . S
O407 Pr377 2.437 . S
O407 C395 1.278 . S
H408 C380 0.929 1_556 S
H409 C381 0.929 . S
H410 C383 0.931 . S
H411 C384 0.930 . S
H412 C389 0.929 . S
H413 C390 0.929 . S
H414 C392 0.931 . S
H415 C393 0.930 . S
C416 C417 1.379 1_565 S
C416 H420 0.950 . S
C416 C425 1.390 . S
C417 C416 1.379 1_545 S
C417 C419 1.396 . S
H418 C425 0.950 . S
C419 C417 1.396 . S
C419 C421 1.390 . S
C419 H423 0.950 . S
H420 C416 0.950 . S
C421 C419 1.390 . S
C421 C422 1.409 . S
C421 H424 0.950 . S
C422 C421 1.409 . S
C422 C425 1.366 1_545 S
H423 C419 0.950 . S
H424 C421 0.950 . S
C425 C416 1.390 . S
C425 H418 0.950 . S
C425 C422 1.366 1_565 S
C426 C427 1.387 . S
C426 H430 0.950 . S
C426 C435 1.390 . S
C427 C426 1.387 . S
C427 C429 1.387 . S
H428 C435 0.950 . S
C429 C427 1.387 . S
C429 C431 1.390 . S
C429 H433 0.950 . S
H430 C426 0.950 . S
C431 C429 1.390 . S
C431 C432 1.387 . S
C431 H434 0.950 . S
C432 C431 1.387 . S
C432 C435 1.387 . S
H433 C429 0.950 . S
H434 C431 0.950 . S
C435 C426 1.390 . S
C435 H428 0.950 . S
C435 C432 1.387 . S
C436 C437 1.387 . S
C436 H440 0.950 . S
C436 C445 1.390 . S
C437 C436 1.387 . S
C437 C439 1.387 . S
H438 C445 0.950 . S
C439 C437 1.387 . S
C439 C441 1.390 . S
C439 H443 0.950 . S
H440 C436 0.950 . S
C441 C439 1.390 . S
C441 C442 1.387 . S
C441 H444 0.950 . S
C442 C441 1.387 . S
C442 C445 1.387 . S
H443 C439 0.950 . S
H444 C441 0.950 . S
C445 C436 1.390 . S
C445 H438 0.950 . S
C445 C442 1.387 . S
C446 C447 1.402 . S
C446 H450 0.950 . S
C446 C455 1.390 . S
C447 C446 1.402 . S
C447 C449 1.375 1_455 S
H448 C455 0.950 . S
C449 C447 1.375 1_655 S
C449 C451 1.390 . S
C449 H453 0.950 . S
H450 C446 0.950 . S
C451 C449 1.390 . S
C451 C452 1.387 1_655 S
C451 H454 0.950 . S
C452 C451 1.387 1_455 S
C452 C455 1.387 . S
H453 C449 0.950 . S
H454 C451 0.950 . S
C455 C446 1.390 . S
C455 H448 0.950 . S
C455 C452 1.387 . S
C456 C457 1.386 1_545 S
C456 H460 0.950 . S
C456 C465 1.390 . S
C457 C456 1.386 1_565 S
C457 C459 1.389 . S
H458 C465 0.950 . S
C459 C457 1.389 . S
C459 C461 1.390 . S
C459 H463 0.950 . S
H460 C456 0.950 . S
C461 C459 1.390 . S
C461 C462 1.401 . S
C461 H464 0.950 . S
C462 C461 1.401 . S
C462 C465 1.374 1_565 S
H463 C459 0.950 . S
H464 C461 0.950 . S
C465 C456 1.390 . S
C465 H458 0.950 . S
C465 C462 1.374 1_545 S
C466 C467 1.387 . S
C466 H470 0.950 . S
C466 C475 1.390 . S
C467 C466 1.387 . S
C467 C469 1.387 . S
H468 C475 0.950 . S
C469 C467 1.387 . S
C469 C471 1.390 . S
C469 H473 0.950 . S
H470 C466 0.950 . S
C471 C469 1.390 . S
C471 C472 1.387 . S
C471 H474 0.950 . S
C472 C471 1.387 . S
C472 C475 1.387 . S
H473 C469 0.950 . S
H474 C471 0.950 . S
C475 C466 1.390 . S
C475 H468 0.950 . S
C475 C472 1.387 . S
C476 C477 1.387 . S
C476 H480 0.950 . S
C476 C485 1.390 . S
C477 C476 1.387 . S
C477 C479 1.387 . S
H478 C485 0.950 . S
C479 C477 1.387 . S
C479 C481 1.390 . S
C479 H483 0.950 . S
H480 C476 0.950 . S
C481 C479 1.390 . S
C481 C482 1.387 . S
C481 H484 0.950 . S
C482 C481 1.387 . S
C482 C485 1.387 . S
H483 C479 0.950 . S
H484 C481 0.950 . S
C485 C476 1.390 . S
C485 H478 0.950 . S
C485 C482 1.387 . S
C486 C487 1.416 . S
C486 H490 0.950 . S
C486 C495 1.390 . S
C487 C486 1.416 . S
C487 C489 1.360 1_655 S
H488 C495 0.950 . S
C489 C487 1.360 1_455 S
C489 C491 1.390 . S
C489 H493 0.950 . S
H490 C486 0.950 . S
C491 C489 1.390 . S
C491 C492 1.387 1_455 S
C491 H494 0.950 . S
C492 C491 1.387 1_655 S
C492 C495 1.387 . S
H493 C489 0.950 . S
H494 C491 0.950 . S
C495 C486 1.390 . S
C495 H488 0.950 . S
C495 C492 1.387 . S
C496 C497 1.387 . S
C496 H500 0.950 . S
C496 C505 1.390 . S
C497 C496 1.387 . S
C497 C499 1.387 . S
H498 C505 0.950 . S
C499 C497 1.387 . S
C499 C501 1.390 . S
C499 H503 0.950 1_655 S
H500 C496 0.950 . S
C501 C499 1.390 . S
C501 C502 1.387 . S
C501 H504 0.950 . S
C502 C501 1.387 . S
C502 C505 1.387 . S
H503 C499 0.950 1_455 S
H504 C501 0.950 . S
C505 C496 1.390 . S
C505 H498 0.950 . S
C505 C502 1.387 . S
C506 C507 1.387 . S
C506 H510 0.950 . S
C506 C515 1.390 . S
C507 C506 1.387 . S
C507 C509 1.387 . S
H508 C515 0.950 . S
C509 C507 1.387 . S
C509 C511 1.390 . S
C509 H513 0.956 . S
H510 C506 0.950 . S
C511 C509 1.390 . S
C511 C512 1.387 . S
C511 H514 0.950 . S
C512 C511 1.387 . S
C512 C515 1.387 . S
H513 C509 0.956 . S
H514 C511 0.950 . S
C515 C506 1.390 . S
C515 H508 0.950 . S
C515 C512 1.387 . S
C516 C517 1.387 . S
C516 H520 0.950 . S
C516 C525 1.390 . S
C517 C516 1.387 . S
C517 C519 1.387 . S
H518 C525 0.950 . S
C519 C517 1.387 . S
C519 C521 1.390 . S
C519 H523 0.950 . S
H520 C516 0.950 . S
C521 C519 1.390 . S
C521 C522 1.387 . S
C521 H524 0.950 . S
C522 C521 1.387 . S
C522 C525 1.387 . S
H523 C519 0.950 . S
H524 C521 0.950 . S
C525 C516 1.390 . S
C525 H518 0.950 . S
C525 C522 1.387 . S
C526 C527 1.387 . S
C526 H530 0.950 . S
C526 C535 1.390 . S
C527 C526 1.387 . S
C527 C529 1.387 . S
H528 C535 0.950 . S
C529 C527 1.387 . S
C529 C531 1.390 . S
C529 H533 0.950 . S
H530 C526 0.950 . S
C531 C529 1.390 . S
C531 C532 1.387 . S
C531 H534 0.950 . S
C532 C531 1.387 . S
C532 C535 1.387 . S
H533 C529 0.950 . S
H534 C531 0.950 . S
C535 C526 1.390 . S
C535 H528 0.950 . S
C535 C532 1.387 . S
C536 C537 1.387 . S
C536 H540 0.950 1_455 S
C536 C545 1.390 . S
C537 C536 1.387 . S
C537 C539 1.387 . S
H538 C545 0.950 1_556 S
C539 C537 1.387 . S
C539 C541 1.390 . S
C539 H543 0.950 . S
H540 C536 0.950 1_655 S
C541 C539 1.390 . S
C541 C542 1.387 . S
C541 H544 0.950 . S
C542 C541 1.387 . S
C542 C545 1.387 . S
H543 C539 0.950 . S
H544 C541 0.950 . S
C545 C536 1.390 . S
C545 H538 0.950 1_554 S
C545 C542 1.387 . S
C546 C547 1.387 . S
C546 H550 0.950 . S
C546 C555 1.390 . S
C547 C546 1.387 . S
C547 C549 1.387 . S
H548 C555 0.950 . S
C549 C547 1.387 . S
C549 C551 1.390 . S
C549 H553 0.950 1_545 S
H550 C546 0.950 . S
C551 C549 1.390 . S
C551 C552 1.387 . S
C551 H554 0.950 . S
C552 C551 1.387 . S
C552 C555 1.387 . S
H553 C549 0.950 1_565 S
H554 C551 0.950 . S
C555 C546 1.390 . S
C555 H548 0.950 . S
C555 C552 1.387 . S
C556 C557 1.387 . S
C556 H560 0.950 . S
C556 C565 1.390 . S
C557 C556 1.387 . S
C557 C559 1.387 . S
H558 C565 0.950 1_556 S
C559 C557 1.387 . S
C559 C561 1.390 . S
C559 H563 0.950 . S
H560 C556 0.950 . S
C561 C559 1.390 . S
C561 C562 1.387 . S
C561 H564 0.950 . S
C562 C561 1.387 . S
C562 C565 1.387 . S
H563 C559 0.950 . S
H564 C561 0.950 . S
C565 C556 1.390 . S
C565 H558 0.950 1_554 S
C565 C562 1.387 . S
C566 C567 1.387 . S
C566 H570 0.950 . S
C566 C575 1.390 . S
C567 C566 1.387 . S
C567 C569 1.387 . S
H568 C575 0.950 . S
C569 C567 1.387 . S
C569 C571 1.390 . S
C569 H573 0.950 . S
H570 C566 0.950 . S
C571 C569 1.390 . S
C571 C572 1.387 . S
C571 H574 0.950 . S
C572 C571 1.387 . S
C572 C575 1.387 . S
H573 C569 0.950 . S
H574 C571 0.950 . S
C575 C566 1.390 . S
C575 H568 0.950 . S
C575 C572 1.387 . S
C576 C577 1.387 . S
C576 H580 0.950 . S
C576 C585 1.390 . S
C577 C576 1.387 . S
C577 C579 1.387 . S
H578 C585 0.950 . S
C579 C577 1.387 . S
C579 C581 1.390 . S
C579 H583 0.950 . S
H580 C576 0.950 . S
C581 C579 1.390 . S
C581 C582 1.387 . S
C581 H584 0.950 . S
C582 C581 1.387 . S
C582 C585 1.387 . S
H583 C579 0.950 . S
H584 C581 0.950 . S
C585 C576 1.390 . S
C585 H578 0.950 . S
C585 C582 1.387 . S
C586 C587 1.387 1_565 S
C586 H590 0.950 . S
C586 C595 1.390 . S
C587 C586 1.387 1_545 S
C587 C589 1.387 . S
H588 C595 0.950 . S
C589 C587 1.387 . S
C589 C591 1.390 . S
C589 H593 0.950 . S
H590 C586 0.950 . S
C591 C589 1.390 . S
C591 C592 1.387 . S
C591 H594 0.950 . S
C592 C591 1.387 . S
C592 C595 1.387 1_545 S
H593 C589 0.950 . S
H594 C591 0.950 . S
C595 C586 1.390 . S
C595 H588 0.950 . S
C595 C592 1.387 1_565 S
C596 C597 1.387 . S
C596 H600 0.950 . S
C596 C605 1.390 . S
C597 C596 1.387 . S
C597 C599 1.387 . S
H598 C605 0.950 . S
C599 C597 1.387 . S
C599 C601 1.390 . S
C599 H603 0.950 . S
H600 C596 0.950 . S
C601 C599 1.390 . S
C601 C602 1.387 . S
C601 H604 0.950 . S
C602 C601 1.387 . S
C602 C605 1.387 . S
H603 C599 0.950 . S
H604 C601 0.950 . S
C605 C596 1.390 . S
C605 H598 0.950 . S
C605 C602 1.387 . S
C606 C607 1.387 . S
C606 H610 0.950 . S
C606 C615 1.390 . S
C607 C606 1.387 . S
C607 C609 1.387 . S
H608 C615 0.950 . S
C609 C607 1.387 . S
C609 C611 1.390 . S
C609 H613 0.950 . S
H610 C606 0.950 . S
C611 C609 1.390 . S
C611 C612 1.387 . S
C611 H614 0.950 . S
C612 C611 1.387 . S
C612 C615 1.387 . S
H613 C609 0.950 . S
H614 C611 0.950 . S
C615 C606 1.390 . S
C615 H608 0.950 . S
C615 C612 1.387 . S
C616 C617 1.387 . S
C616 H620 0.950 . S
C616 C625 1.390 . S
C617 C616 1.387 . S
C617 C619 1.387 1_655 S
H618 C625 0.950 . S
C619 C617 1.387 1_455 S
C619 C621 1.390 . S
C619 H623 0.950 . S
H620 C616 0.950 . S
C621 C619 1.390 . S
C621 C622 1.387 1_455 S
C621 H624 0.950 . S
C622 C621 1.387 1_655 S
C622 C625 1.387 . S
H623 C619 0.950 . S
H624 C621 0.950 . S
C625 C616 1.390 . S
C625 H618 0.950 . S
C625 C622 1.387 . S
C626 C627 1.387 . S
C626 H630 0.950 . S
C626 C635 1.390 . S
C627 C626 1.387 . S
C627 C629 1.387 1_565 S
H628 C635 0.950 . S
C629 C627 1.387 1_545 S
C629 C631 1.390 . S
C629 H633 0.950 . S
H630 C626 0.950 . S
C631 C629 1.390 . S
C631 C632 1.387 1_545 S
C631 H634 0.950 . S
C632 C631 1.387 1_565 S
C632 C635 1.387 . S
H633 C629 0.950 . S
H634 C631 0.950 . S
C635 C626 1.390 . S
C635 H628 0.950 . S
C635 C632 1.387 . S
C636 C637 1.387 . S
C636 H640 0.950 . S
C636 C645 1.390 . S
C637 C636 1.387 . S
C637 C639 1.387 . S
H638 C645 0.950 . S
C639 C637 1.387 . S
C639 C641 1.390 . S
C639 H643 0.950 . S
H640 C636 0.950 . S
C641 C639 1.390 . S
C641 C642 1.387 . S
C641 H644 0.950 . S
C642 C641 1.387 . S
C642 C645 1.387 . S
H643 C639 0.950 . S
H644 C641 0.950 . S
C645 C636 1.390 . S
C645 H638 0.950 . S
C645 C642 1.387 . S
C646 C647 1.387 . S
C646 H650 0.950 . S
C646 C655 1.390 . S
C647 C646 1.387 . S
C647 C649 1.387 . S
H648 C655 0.950 . S
C649 C647 1.387 . S
C649 C651 1.390 . S
C649 H653 0.950 . S
H650 C646 0.950 . S
C651 C649 1.390 . S
C651 C652 1.387 . S
C651 H654 0.950 . S
C652 C651 1.387 . S
C652 C655 1.387 . S
H653 C649 0.950 . S
H654 C651 0.950 . S
C655 C646 1.390 . S
C655 H648 0.950 . S
C655 C652 1.387 . S
C417 C215 2.315 . S
C422 C265 2.607 1_545 S
C432 C305 2.628 . S
C427 C247 2.316 . S
C442 C345 2.636 . S
C437 C151 2.327 . S
C452 C385 2.615 1_455 S
C447 C183 2.322 . S
C462 C274 2.608 1_564 S
C457 C87 2.314 1_565 S
C467 C119 2.358 . S
C472 C314 2.630 1_554 S
C477 C23 2.368 . S
C482 C354 2.635 1_554 S
C487 C55 2.324 1_655 S
C492 C394 2.615 1_654 S
C502 C271 0.835 . S
C497 C189 0.886 1_655 S
C512 C311 0.821 . S
C507 C221 0.870 1_565 S
C522 C351 0.792 . S
C517 C253 0.821 . S
C527 C157 0.833 . S
C532 C391 0.794 . S
C537 C61 0.798 . S
C542 C262 0.831 . S
C552 C302 0.821 . S
C547 C93 0.792 . S
C562 C342 0.792 . S
C557 C125 0.778 . S
C567 C29 0.783 . S
C572 C382 0.801 . S
C577 C177 2.849 . S
C582 C275 3.281 . S
C587 C209 2.807 . S
C592 C315 3.246 . S
C602 C355 3.236 . S
C597 C241 2.785 . S
C612 C395 3.276 . S
C607 C145 2.821 . S
C617 C49 2.893 1_655 S
C622 C266 3.290 . S
C632 C306 3.246 . S
C627 C81 2.855 1_565 S
C642 C346 3.236 . S
C637 C113 2.861 . S
C647 C17 2.899 . S
C652 C386 3.279 . S
