# Generated by pormake.
# Topology nom, (4,4)-cn, num edge types: 1
# Building blocks:
#     Node 0, Type 0, BuildingBlock: KUFVIS_clean_linker_0, # of connection points: 4
#     Node 1, Type 0, BuildingBlock: KUFVIS_clean_linker_0, # of connection points: 4
#     Node 2, Type 0, BuildingBlock: KUFVIS_clean_linker_0, # of connection points: 4
#     Node 3, Type 0, BuildingBlock: KUFVIS_clean_linker_0, # of connection points: 4
#     Node 4, Type 0, BuildingBlock: KUFVIS_clean_linker_0, # of connection points: 4
#     Node 5, Type 0, BuildingBlock: KUFVIS_clean_linker_0, # of connection points: 4
#     Node 6, Type 1, BuildingBlock: QUQFOY_clean_sbu_3, # of connection points: 4
#     Node 7, Type 1, BuildingBlock: QUQFOY_clean_sbu_3, # of connection points: 4
#     Node 8, Type 1, BuildingBlock: QUQFOY_clean_sbu_3, # of connection points: 4
#     Node 9, Type 1, BuildingBlock: QUQFOY_clean_sbu_3, # of connection points: 4
#     Node 10, Type 1, BuildingBlock: QUQFOY_clean_sbu_3, # of connection points: 4
#     Node 11, Type 1, BuildingBlock: QUQFOY_clean_sbu_3, # of connection points: 4
#     Edge 12, Type (0, 1), BuildingBlock: MIFKUJ_clean_linker_0, # of connection points: 2
#     Edge 13, Type (0, 1), BuildingBlock: MIFKUJ_clean_linker_0, # of connection points: 2
#     Edge 14, Type (0, 1), BuildingBlock: MIFKUJ_clean_linker_0, # of connection points: 2
#     Edge 15, Type (0, 1), BuildingBlock: MIFKUJ_clean_linker_0, # of connection points: 2
#     Edge 16, Type (0, 1), BuildingBlock: MIFKUJ_clean_linker_0, # of connection points: 2
#     Edge 17, Type (0, 1), BuildingBlock: MIFKUJ_clean_linker_0, # of connection points: 2
#     Edge 18, Type (0, 1), BuildingBlock: MIFKUJ_clean_linker_0, # of connection points: 2
#     Edge 19, Type (0, 1), BuildingBlock: MIFKUJ_clean_linker_0, # of connection points: 2
#     Edge 20, Type (0, 1), BuildingBlock: MIFKUJ_clean_linker_0, # of connection points: 2
#     Edge 21, Type (0, 1), BuildingBlock: MIFKUJ_clean_linker_0, # of connection points: 2
#     Edge 22, Type (0, 1), BuildingBlock: MIFKUJ_clean_linker_0, # of connection points: 2
#     Edge 23, Type (0, 1), BuildingBlock: MIFKUJ_clean_linker_0, # of connection points: 2
#     Edge 24, Type (0, 1), BuildingBlock: MIFKUJ_clean_linker_0, # of connection points: 2
#     Edge 25, Type (0, 1), BuildingBlock: MIFKUJ_clean_linker_0, # of connection points: 2
#     Edge 26, Type (0, 1), BuildingBlock: MIFKUJ_clean_linker_0, # of connection points: 2
#     Edge 27, Type (0, 1), BuildingBlock: MIFKUJ_clean_linker_0, # of connection points: 2
#     Edge 28, Type (0, 1), BuildingBlock: MIFKUJ_clean_linker_0, # of connection points: 2
#     Edge 29, Type (0, 1), BuildingBlock: MIFKUJ_clean_linker_0, # of connection points: 2
#     Edge 30, Type (0, 1), BuildingBlock: MIFKUJ_clean_linker_0, # of connection points: 2
#     Edge 31, Type (0, 1), BuildingBlock: MIFKUJ_clean_linker_0, # of connection points: 2
#     Edge 32, Type (0, 1), BuildingBlock: MIFKUJ_clean_linker_0, # of connection points: 2
#     Edge 33, Type (0, 1), BuildingBlock: MIFKUJ_clean_linker_0, # of connection points: 2
#     Edge 34, Type (0, 1), BuildingBlock: MIFKUJ_clean_linker_0, # of connection points: 2
#     Edge 35, Type (0, 1), BuildingBlock: MIFKUJ_clean_linker_0, # of connection points: 2
# Relax obj value: 0.003
# Max RMSD: 0.046
# Mean RMSD: 0.035
data_MOF--net-nom--node1-QUQFOY_clean_sbu_3--node2-KUFVIS_clean_linker_0--edge1-MIFKUJ_clean_linker_0
_symmetry_space_group_name_H-M    P1
_symmetry_Int_Tables_number       1
_symmetry_cell_setting            triclinic
loop_
_symmetry_equiv_pos_as_xyz
'x, y, z'
_cell_length_a     59.803101
_cell_length_b     61.180577
_cell_length_c     59.798567
_cell_angle_alpha  89.989954
_cell_angle_beta   90.0214
_cell_angle_gamma 120.02381
loop_
_atom_site_label
_atom_site_type_symbol
_atom_site_fract_x
_atom_site_fract_y
_atom_site_fract_z
_atom_type_partial_charge
H0 H 0.09206 0.56588 0.33858 0.0
H1 H 0.03267 0.54383 0.28907 0.0
H2 H 0.0144 0.5106 0.35533 0.0
H3 H 0.97617 0.50927 0.34716 0.0
H4 H 0.92015 0.46404 0.29774 0.0
H5 H 1.00037 0.50389 0.28008 0.0
C6 C 0.07194 0.55459 0.33368 0.0
C7 C 0.05399 0.53827 0.34926 0.0
C8 C 0.06446 0.55676 0.31203 0.0
C9 C 0.03839 0.54178 0.30577 0.0
C10 C 0.01978 0.52492 0.32125 0.0
C11 C 0.02796 0.52353 0.34315 0.0
C12 C 0.99204 0.50852 0.3146 0.0
C13 C 0.97191 0.50175 0.33033 0.0
C14 C 0.94607 0.48516 0.3244 0.0
C15 C 0.94022 0.47596 0.30253 0.0
C16 C 0.95959 0.48301 0.28643 0.0
C17 C 0.98548 0.49913 0.29252 0.0
H18 H 0.53623 0.09264 0.49751 0.0
H19 H 0.49448 0.03392 0.44992 0.0
H20 H 0.50515 0.0159 0.51801 0.0
H21 H 0.47123 0.97883 0.5109 0.0
H22 H 0.45599 0.92179 0.46227 0.0
H23 H 0.49451 0.99901 0.44166 0.0
C24 C 0.52557 0.07264 0.49353 0.0
C25 C 0.52099 0.05496 0.51023 0.0
C26 C 0.51638 0.0651 0.47184 0.0
C27 C 0.50196 0.03925 0.46671 0.0
C28 C 0.49776 0.02074 0.4831 0.0
C29 C 0.50733 0.02912 0.50502 0.0
C30 C 0.48482 0.99306 0.47718 0.0
C31 C 0.47288 0.97404 0.49381 0.0
C32 C 0.4633 0.94848 0.48853 0.0
C33 C 0.46422 0.94162 0.46643 0.0
C34 C 0.4748 0.9597 0.44952 0.0
C35 C 0.48533 0.98534 0.4549 0.0
H36 H 0.54218 0.45337 0.64847 0.0
H37 H 0.50386 0.47561 0.69597 0.0
H38 H 0.51136 0.49955 0.62665 0.0
H39 H 0.47613 0.50203 0.63467 0.0
H40 H 0.466 0.54999 0.68063 0.0
H41 H 0.50713 0.51316 0.70199 0.0
C42 C 0.53212 0.46357 0.65224 0.0
C43 C 0.52709 0.47599 0.63511 0.0
C44 C 0.52407 0.46365 0.6741 0.0
C45 C 0.51043 0.47624 0.679 0.0
C46 C 0.50575 0.48977 0.66208 0.0
C47 C 0.51407 0.48916 0.64001 0.0
C48 C 0.49354 0.50549 0.6675 0.0
C49 C 0.47967 0.51064 0.65106 0.0
C50 C 0.47048 0.5273 0.65561 0.0
C51 C 0.47403 0.53794 0.67689 0.0
C52 C 0.48663 0.53239 0.69371 0.0
C53 C 0.49657 0.51641 0.68897 0.0
H54 H 0.10214 0.54211 0.80507 0.0
H55 H 0.03791 0.50742 0.84968 0.0
H56 H 0.02576 0.51088 0.77843 0.0
H57 H 0.98754 0.47787 0.78517 0.0
H58 H 0.92448 0.46384 0.82787 0.0
H59 H 1.00151 0.50753 0.85289 0.0
C60 C 0.08138 0.5323 0.80761 0.0
C61 C 0.06489 0.52604 0.78923 0.0
C62 C 0.07168 0.52604 0.82928 0.0
C63 C 0.04489 0.51302 0.83279 0.0
C64 C 0.02757 0.50748 0.81461 0.0
C65 C 0.03812 0.51446 0.79279 0.0
C66 C 0.99882 0.49489 0.81836 0.0
C67 C 0.98101 0.48091 0.80112 0.0
C68 C 0.95434 0.47058 0.80437 0.0
C69 C 0.94517 0.47294 0.82516 0.0
C70 C 0.96207 0.48556 0.84279 0.0
C71 C 0.9888 0.49691 0.83926 0.0
H72 H 0.482 0.92825 -0.00194 0.0
H73 H 0.52879 0.98919 0.95407 0.0
H74 H 0.51706 0.00374 0.02299 0.0
H75 H 0.55248 0.03965 0.01862 0.0
H76 H 0.58051 0.10154 0.97304 0.0
H77 H 0.53406 0.02667 0.94775 0.0
C78 C 0.49373 0.94842 0.99525 0.0
C79 C 0.49901 0.96511 0.01301 0.0
C80 C 0.504 0.95709 0.97403 0.0
C81 C 0.52026 0.98308 0.97045 0.0
C82 C 0.52517 1.00074 0.98787 0.0
C83 C 0.51432 0.99119 0.00923 0.0
C84 C 0.54104 0.02884 0.98377 0.0
C85 C 0.55337 0.04612 0.00165 0.0
C86 C 0.56696 0.07225 -0.00227 0.0
C87 C 0.56977 0.08132 0.97595 0.0
C88 C 0.5586 0.06492 0.95794 0.0
C89 C 0.54358 0.03885 0.96188 0.0
H90 H 0.48921 0.57887 0.1477 0.0
H91 H 0.51447 0.5431 0.19441 0.0
H92 H 0.51601 0.53047 0.12302 0.0
H93 H 0.54539 0.52081 0.13132 0.0
H94 H 0.55158 0.46896 0.17503 0.0
H95 H 0.51189 0.50661 0.19787 0.0
C96 C 0.49734 0.56679 0.15081 0.0
C97 C 0.50362 0.5563 0.13285 0.0
C98 C 0.50076 0.56162 0.17282 0.0
C99 C 0.51112 0.54592 0.17717 0.0
C100 C 0.51686 0.53412 0.15936 0.0
C101 C 0.51255 0.53938 0.13715 0.0
C102 C 0.52679 0.51615 0.16382 0.0
C103 C 0.54057 0.51108 0.14721 0.0
C104 C 0.54841 0.49324 0.15097 0.0
C105 C 0.54405 0.48154 0.17181 0.0
C106 C 0.53163 0.48691 0.18892 0.0
C107 C 0.5225 0.5037 0.18472 0.0
C108 C 0.69587 0.41703 0.40846 0.0
O109 O 0.69299 0.43443 0.41708 0.0
Cd110 Cd 0.65318 0.43043 0.42955 0.0
O111 O 0.67643 0.39492 0.40571 0.0
Cd112 Cd 0.62845 0.37262 0.41329 0.0
C113 C 0.61829 0.41231 0.3805 0.0
O114 O 0.63157 0.39189 0.44988 0.0
O115 O 0.59331 0.37088 0.43632 0.0
O116 O 0.63136 0.33474 0.42149 0.0
C117 C 0.60767 0.38378 0.45237 0.0
O118 O 0.62893 0.4284 0.39614 0.0
C119 C 0.61098 0.31943 0.41102 0.0
O120 O 0.6172 0.39095 0.38141 0.0
O121 O 0.59897 0.32884 0.40111 0.0
C122 C 0.29447 0.59731 0.56443 0.0
O123 O 0.27355 0.58016 0.55589 0.0
Cd124 Cd 0.238 0.58455 0.54324 0.0
O125 O 0.29824 0.61964 0.56708 0.0
Cd126 Cd 0.27363 0.64243 0.55965 0.0
C127 C 0.22272 0.60337 0.59237 0.0
O128 O 0.25537 0.62316 0.52336 0.0
O129 O 0.23931 0.64414 0.53831 0.0
O130 O 0.31437 0.68027 0.54934 0.0
C131 C 0.23958 0.63118 0.52192 0.0
O132 O 0.21619 0.58754 0.57642 0.0
C133 C 0.31068 0.69563 0.56084 0.0
O134 O 0.24416 0.62416 0.59191 0.0
O135 O 0.29014 0.68621 0.57243 0.0
C136 C 0.7051 0.28789 0.72823 0.0
O137 O 0.70202 0.26738 0.72013 0.0
Cd138 Cd 0.66181 0.23143 0.70982 0.0
O139 O 0.68565 0.29088 0.7314 0.0
Cd140 Cd 0.63731 0.2653 0.7256 0.0
C141 C 0.63003 0.21805 0.76034 0.0
O142 O 0.63797 0.24649 0.68956 0.0
O143 O 0.60084 0.23061 0.70534 0.0
O144 O 0.63813 0.30445 0.71465 0.0
C145 C 0.61399 0.23079 0.68868 0.0
O146 O 0.64005 0.21173 0.74465 0.0
C147 C 0.61935 0.3011 0.72694 0.0
O148 O 0.62826 0.23793 0.75873 0.0
O149 O 0.6092 0.28138 0.73902 0.0
C150 C 0.32195 0.60566 0.91278 0.0
O151 O 0.32567 0.58905 0.92199 0.0
Cd152 Cd 0.36635 0.59369 0.93234 0.0
O153 O 0.34099 0.62761 0.90851 0.0
Cd154 Cd 0.38946 0.65067 0.91391 0.0
C155 C 0.39711 0.60962 0.88105 0.0
O156 O 0.39037 0.63332 0.95067 0.0
O157 O 0.42648 0.6521 0.93296 0.0
O158 O 0.38785 0.68881 0.92397 0.0
C159 C 0.41435 0.64091 0.95054 0.0
O160 O 0.38755 0.59427 0.89737 0.0
C161 C 0.40665 0.70384 0.91172 0.0
O162 O 0.39851 0.63113 0.88165 0.0
O163 O 0.41711 0.69413 0.89993 0.0
C164 C 0.72687 0.42416 0.06664 0.0
O165 O 0.74763 0.44163 0.05817 0.0
Cd166 Cd 0.78367 0.43842 0.04556 0.0
O167 O 0.72359 0.40197 0.06911 0.0
Cd168 Cd 0.74944 0.3804 0.06091 0.0
C169 C 0.8001 0.41973 0.09413 0.0
O170 O 0.76669 0.40034 0.02466 0.0
O171 O 0.78415 0.38021 0.03877 0.0
O172 O 0.70978 0.34157 0.04995 0.0
C173 C 0.78282 0.39283 0.02255 0.0
O174 O 0.80585 0.43619 0.07884 0.0
C175 C 0.71391 0.32676 0.06186 0.0
O176 O 0.7795 0.39826 0.09285 0.0
O177 O 0.7341 0.33692 0.07393 0.0
C178 C 0.31169 0.72908 0.22384 0.0
O179 O 0.31527 0.74901 0.21406 0.0
Cd180 Cd 0.35602 0.7855 0.20627 0.0
O181 O 0.33087 0.72661 0.2297 0.0
Cd182 Cd 0.37951 0.75143 0.22559 0.0
C183 C 0.38508 0.7993 0.25846 0.0
O184 O 0.38119 0.77012 0.18912 0.0
O185 O 0.41738 0.78597 0.2065 0.0
O186 O 0.37876 0.71228 0.21513 0.0
C187 C 0.40515 0.78591 0.18918 0.0
O188 O 0.37539 0.80506 0.24207 0.0
C189 C 0.39642 0.71492 0.22854 0.0
O190 O 0.38741 0.77968 0.25772 0.0
O191 O 0.40588 0.73426 0.2411 0.0
H192 H 0.09907 0.60602 0.31996 0.0
H193 H 0.13777 0.6335 0.29859 0.0
H194 H 0.11472 0.57614 0.24771 0.0
H195 H 0.07602 0.54804 0.2697 0.0
H196 H 0.16327 0.59317 0.25847 0.0
H197 H 0.11558 0.63246 0.23732 0.0
H198 H 0.08774 0.65119 0.24219 0.0
H199 H 0.14558 0.70967 0.28336 0.0
H200 H 0.17363 0.6911 0.27901 0.0
H201 H 0.2679 0.72154 0.20301 0.0
H202 H 0.22334 0.68997 0.21139 0.0
H203 H 0.24963 0.65993 0.264 0.0
H204 H 0.29452 0.69098 0.25499 0.0
H205 H 0.1961 0.68426 0.24519 0.0
H206 H 0.20649 0.59906 0.27481 0.0
H207 H 0.23262 0.57927 0.26592 0.0
H208 H 0.24623 0.61058 0.19973 0.0
H209 H 0.21991 0.63027 0.20812 0.0
C210 C 0.102 0.59943 0.30401 0.0
C211 C 0.08459 0.57488 0.29651 0.0
C212 C 0.1241 0.61521 0.29172 0.0
C213 C 0.1292 0.60702 0.27143 0.0
C214 C 0.11121 0.58289 0.26333 0.0
C215 C 0.08899 0.56696 0.27573 0.0
C216 C 0.15425 0.62311 0.25982 0.0
C217 C 0.17037 0.61304 0.25536 0.0
C218 C 0.16341 0.64894 0.2553 0.0
C219 C 0.14666 0.66029 0.25792 0.0
C220 C 0.1223 0.64923 0.24753 0.0
C221 C 0.10649 0.65983 0.25019 0.0
C222 C 0.11487 0.68159 0.2631 0.0
C223 C 0.13911 0.69282 0.27335 0.0
C224 C 0.15499 0.68228 0.27077 0.0
C225 C 0.26425 0.70806 0.21624 0.0
C226 C 0.28479 0.70882 0.22838 0.0
C227 C 0.23869 0.69 0.22104 0.0
C228 C 0.23294 0.67237 0.23827 0.0
C229 C 0.25346 0.67292 0.25031 0.0
C230 C 0.27915 0.69078 0.24524 0.0
C231 C 0.20549 0.65453 0.2444 0.0
C232 C 0.18894 0.66431 0.24795 0.0
C233 C 0.19574 0.62832 0.24745 0.0
C234 C 0.21139 0.61632 0.24218 0.0
C235 C 0.21496 0.60163 0.25833 0.0
C236 C 0.22983 0.59045 0.25338 0.0
C237 C 0.24114 0.59373 0.2323 0.0
C238 C 0.23754 0.60813 0.21608 0.0
C239 C 0.22267 0.61934 0.22094 0.0
H240 H 0.25265 0.58507 0.22851 0.0
H241 H 0.1026 0.68977 0.26513 0.0
H242 H 0.48539 0.08143 0.45361 0.0
H243 H 0.50045 0.1228 0.43588 0.0
H244 H 0.57853 0.13646 0.43667 0.0
H245 H 0.56351 0.0953 0.45423 0.0
H246 H 0.57165 0.17174 0.46051 0.0
H247 H 0.5502 0.13184 0.38804 0.0
H248 H 0.52128 0.1013 0.35991 0.0
H249 H 0.47095 0.1323 0.36416 0.0
H250 H 0.49938 0.16282 0.39258 0.0
H251 H 0.6379 0.2952 0.41971 0.0
H252 H 0.62091 0.24979 0.42328 0.0
H253 H 0.54434 0.23594 0.40807 0.0
H254 H 0.56158 0.28135 0.40329 0.0
H255 H 0.54899 0.19988 0.39063 0.0
H256 H 0.56612 0.23698 0.4634 0.0
H257 H 0.5917 0.26664 0.49345 0.0
H258 H 0.64558 0.23968 0.49146 0.0
H259 H 0.6205 0.21007 0.46118 0.0
C260 C 0.50553 0.09283 0.449 0.0
C261 C 0.5233 0.08519 0.45501 0.0
C262 C 0.51417 0.1165 0.43902 0.0
C263 C 0.54066 0.13277 0.43507 0.0
C264 C 0.55804 0.12423 0.43957 0.0
C265 C 0.54944 0.10066 0.44942 0.0
C266 C 0.55082 0.15978 0.42941 0.0
C267 C 0.56704 0.17791 0.44504 0.0
C268 C 0.54387 0.16776 0.40972 0.0
C269 C 0.5268 0.14945 0.39261 0.0
C270 C 0.53284 0.132 0.38314 0.0
C271 C 0.51656 0.11472 0.3671 0.0
C272 C 0.49425 0.11481 0.36029 0.0
C273 C 0.48821 0.13223 0.36947 0.0
C274 C 0.50442 0.14954 0.38552 0.0
C275 C 0.61749 0.28245 0.4169 0.0
C276 C 0.60103 0.29185 0.41143 0.0
C277 C 0.60774 0.25647 0.41906 0.0
C278 C 0.58116 0.23934 0.41656 0.0
C279 C 0.56487 0.24867 0.41021 0.0
C280 C 0.57474 0.27466 0.40754 0.0
C281 C 0.5703 0.21195 0.42158 0.0
C282 C 0.55376 0.19375 0.40602 0.0
C283 C 0.57646 0.20375 0.44163 0.0
C284 C 0.59157 0.22149 0.45987 0.0
C285 C 0.58352 0.2375 0.46927 0.0
C286 C 0.59792 0.25428 0.48636 0.0
C287 C 0.62029 0.25509 0.49432 0.0
C288 C 0.62827 0.23906 0.48525 0.0
C289 C 0.61396 0.22226 0.46814 0.0
H290 H 0.6314 0.26809 0.50755 0.0
H291 H 0.48167 0.10142 0.34788 0.0
H292 H 0.42538 0.49563 0.63382 0.0
H293 H 0.39769 0.50809 0.61363 0.0
H294 H 0.4563 0.58645 0.62047 0.0
H295 H 0.48366 0.57404 0.64082 0.0
H296 H 0.41133 0.57849 0.63617 0.0
H297 H 0.44012 0.55687 0.56914 0.0
H298 H 0.44815 0.52942 0.54422 0.0
H299 H 0.3671 0.47498 0.54347 0.0
H300 H 0.35861 0.50195 0.56864 0.0
H301 H 0.34466 0.6295 0.5774 0.0
H302 H 0.37701 0.6183 0.58872 0.0
H303 H 0.32146 0.53943 0.57899 0.0
H304 H 0.2894 0.55047 0.56707 0.0
H305 H 0.36608 0.54846 0.56354 0.0
H306 H 0.33719 0.5676 0.63192 0.0
H307 H 0.32812 0.59356 0.65785 0.0
H308 H 0.40823 0.65087 0.65722 0.0
H309 H 0.41772 0.62537 0.63105 0.0
C310 C 0.43261 0.51542 0.6303 0.0
C311 C 0.4566 0.53389 0.63879 0.0
C312 C 0.41678 0.52256 0.61885 0.0
C313 C 0.42486 0.54826 0.6156 0.0
C314 C 0.44956 0.56656 0.62287 0.0
C315 C 0.46525 0.55946 0.63435 0.0
C316 C 0.40682 0.55629 0.60676 0.0
C317 C 0.4018 0.57227 0.62008 0.0
C318 C 0.39371 0.54755 0.58613 0.0
C319 C 0.39876 0.53134 0.57095 0.0
C320 C 0.42403 0.53895 0.56381 0.0
C321 C 0.42866 0.5235 0.54961 0.0
C322 C 0.40816 0.50044 0.54231 0.0
C323 C 0.38297 0.49283 0.54916 0.0
C324 C 0.37823 0.50821 0.56337 0.0
C325 C 0.33935 0.60978 0.57766 0.0
C326 C 0.31437 0.59091 0.5714 0.0
C327 C 0.35785 0.60337 0.5842 0.0
C328 C 0.35163 0.57795 0.58498 0.0
C329 C 0.32681 0.55916 0.57849 0.0
C330 C 0.30843 0.56554 0.57176 0.0
C331 C 0.37071 0.57076 0.59292 0.0
C332 C 0.3758 0.55485 0.57952 0.0
C333 C 0.38376 0.57936 0.6136 0.0
C334 C 0.3781 0.5947 0.62935 0.0
C335 C 0.35283 0.58582 0.63718 0.0
C336 C 0.34762 0.60044 0.65194 0.0
C337 C 0.36757 0.62388 0.65912 0.0
C338 C 0.39279 0.63273 0.65161 0.0
C339 C 0.3981 0.6182 0.63683 0.0
H340 H 0.3635 0.63517 0.67055 0.0
H341 H 0.41178 0.48851 0.53132 0.0
H342 H 0.92106 0.4827 0.78518 0.0
H343 H 0.88051 0.4535 0.76651 0.0
H344 H 0.90196 0.39588 0.76729 0.0
H345 H 0.9428 0.4253 0.78595 0.0
H346 H 0.8719 0.39438 0.72857 0.0
H347 H 0.87003 0.39746 0.80917 0.0
H348 H 0.87882 0.42005 0.84512 0.0
H349 H 0.82905 0.44876 0.82635 0.0
H350 H 0.82038 0.42674 0.79006 0.0
H351 H 0.74903 0.28476 0.72927 0.0
H352 H 0.79283 0.31788 0.73788 0.0
H353 H 0.76583 0.37062 0.74816 0.0
H354 H 0.72151 0.33717 0.74006 0.0
H355 H 0.79922 0.37621 0.77974 0.0
H356 H 0.79907 0.37142 0.69987 0.0
H357 H 0.79181 0.3506 0.66314 0.0
H358 H 0.84557 0.326 0.67984 0.0
H359 H 0.85289 0.34639 0.71679 0.0
C360 C 0.91758 0.46415 0.78049 0.0
C361 C 0.93497 0.45618 0.78691 0.0
C362 C 0.89436 0.44744 0.76998 0.0
C363 C 0.88805 0.42241 0.76591 0.0
C364 C 0.90649 0.41513 0.77032 0.0
C365 C 0.92984 0.43194 0.78085 0.0
C366 C 0.86109 0.40321 0.76012 0.0
C367 C 0.856 0.39019 0.7398 0.0
C368 C 0.84033 0.39815 0.77465 0.0
C369 C 0.84474 0.41063 0.7968 0.0
C370 C 0.86106 0.40869 0.81266 0.0
C371 C 0.86602 0.42139 0.8331 0.0
C372 C 0.85455 0.43588 0.838 0.0
C373 C 0.83796 0.43757 0.82251 0.0
C374 C 0.833 0.42497 0.80201 0.0
C375 C 0.7523 0.30339 0.73331 0.0
C376 C 0.73168 0.3083 0.73383 0.0
C377 C 0.77748 0.3224 0.73812 0.0
C378 C 0.78282 0.34694 0.74323 0.0
C379 C 0.76224 0.35187 0.74413 0.0
C380 C 0.73691 0.33274 0.73947 0.0
C381 C 0.80981 0.36719 0.74805 0.0
C382 C 0.81498 0.38042 0.76834 0.0
C383 C 0.83061 0.37243 0.73344 0.0
C384 C 0.82636 0.36026 0.71118 0.0
C385 C 0.80921 0.36142 0.69577 0.0
C386 C 0.80511 0.34972 0.6749 0.0
C387 C 0.81818 0.33694 0.66918 0.0
C388 C 0.83544 0.33589 0.6843 0.0
C389 C 0.8396 0.34754 0.7052 0.0
H390 H 0.81497 0.32788 0.65302 0.0
H391 H 0.85848 0.44576 0.8538 0.0
H392 H 0.4569 0.9278 0.95583 0.0
H393 H 0.44187 0.88715 0.93733 0.0
H394 H 0.51999 0.90106 0.93539 0.0
H395 H 0.5351 0.94194 0.95407 0.0
H396 H 0.48407 0.87049 0.89675 0.0
H397 H 0.49167 0.87475 0.97767 0.0
H398 H 0.48424 0.88806 0.01443 0.0
H399 H 0.40229 0.84407 0.00441 0.0
H400 H 0.40924 0.83122 0.96711 0.0
H401 H 0.45428 0.7417 0.89866 0.0
H402 H 0.4721 0.7872 0.90293 0.0
H403 H 0.39914 0.77386 0.92935 0.0
H404 H 0.38177 0.72837 0.92617 0.0
H405 H 0.43411 0.80565 0.95427 0.0
H406 H 0.42432 0.80008 0.87464 0.0
H407 H 0.42961 0.78872 0.83623 0.0
H408 H 0.51199 0.83454 0.84226 0.0
H409 H 0.50721 0.84593 0.88083 0.0
C410 C 0.471 0.9227 0.95048 0.0
C411 C 0.49714 0.93796 0.95624 0.0
C412 C 0.4624 0.89945 0.94001 0.0
C413 C 0.47978 0.89099 0.93523 0.0
C414 C 0.50631 0.90732 0.93886 0.0
C415 C 0.51495 0.93068 0.94943 0.0
C416 C 0.46966 0.86382 0.93045 0.0
C417 C 0.47339 0.85623 0.90932 0.0
C418 C 0.45523 0.84528 0.94675 0.0
C419 C 0.45099 0.85223 0.9695 0.0
C420 C 0.47206 0.86805 0.98322 0.0
C421 C 0.46794 0.87547 0.00419 0.0
C422 C 0.44282 0.86685 0.01183 0.0
C423 C 0.42175 0.85075 -0.00152 0.0
C424 C 0.42577 0.84342 0.9774 0.0
C425 C 0.44197 0.74851 0.90514 0.0
C426 C 0.41663 0.73144 0.91212 0.0
C427 C 0.45214 0.77459 0.90746 0.0
C428 C 0.43696 0.78419 0.91626 0.0
C429 C 0.41137 0.76707 0.9226 0.0
C430 C 0.40139 0.74102 0.92071 0.0
C431 C 0.44807 0.81184 0.92027 0.0
C432 C 0.44467 0.81966 0.94148 0.0
C433 C 0.46247 0.83046 0.90389 0.0
C434 C 0.46541 0.82365 0.88071 0.0
C435 C 0.44357 0.80758 0.86784 0.0
C436 C 0.44648 0.80117 0.84603 0.0
C437 C 0.47113 0.81085 0.83683 0.0
C438 C 0.49292 0.82702 0.84941 0.0
C439 C 0.49012 0.83349 0.87124 0.0
H440 H 0.47334 0.80586 0.81994 0.0
H441 H 0.43969 0.87264 0.02808 0.0
H442 H 0.53446 0.44692 0.13455 0.0
H443 H 0.56226 0.43444 0.11504 0.0
H444 H 0.62217 0.51252 0.11068 0.0
H445 H 0.59418 0.52512 0.13021 0.0
H446 H 0.6195 0.48218 0.07267 0.0
H447 H 0.62317 0.4812 0.15329 0.0
H448 H 0.60317 0.46921 0.19064 0.0
H449 H 0.5713 0.39082 0.17435 0.0
H450 H 0.59066 0.40235 0.13669 0.0
H451 H 0.73046 0.47037 0.06751 0.0
H452 H 0.69746 0.48065 0.07779 0.0
H453 H 0.64393 0.40203 0.09105 0.0
H454 H 0.67729 0.39153 0.08114 0.0
H455 H 0.6412 0.43089 0.12301 0.0
H456 H 0.63912 0.43125 0.04325 0.0
H457 H 0.65696 0.44255 0.00511 0.0
H458 H 0.68449 0.52082 0.01894 0.0
H459 H 0.66713 0.51003 0.05728 0.0
C460 C 0.55325 0.46147 0.12876 0.0
C461 C 0.5623 0.48695 0.13396 0.0
C462 C 0.56913 0.45432 0.11771 0.0
C463 C 0.59443 0.47251 0.11182 0.0
C464 C 0.60271 0.4982 0.11515 0.0
C465 C 0.58672 0.5054 0.12621 0.0
C466 C 0.61303 0.46444 0.10489 0.0
C467 C 0.62448 0.47119 0.0837 0.0
C468 C 0.61901 0.44958 0.11917 0.0
C469 C 0.60816 0.44263 0.14209 0.0
C470 C 0.61178 0.4614 0.15763 0.0
C471 C 0.60055 0.4547 0.17885 0.0
C472 C 0.58592 0.42927 0.18485 0.0
C473 C 0.5826 0.41051 0.16966 0.0
C474 C 0.5937 0.41712 0.14837 0.0
C475 C 0.71168 0.45515 0.07257 0.0
C476 C 0.70653 0.43005 0.07336 0.0
C477 C 0.69274 0.4611 0.07833 0.0
C478 C 0.668 0.44209 0.08478 0.0
C479 C 0.66283 0.41702 0.08598 0.0
C480 C 0.68191 0.41103 0.0803 0.0
C481 C 0.6479 0.44867 0.09069 0.0
C482 C 0.63617 0.44171 0.11181 0.0
C483 C 0.64161 0.46326 0.07629 0.0
C484 C 0.652 0.46984 0.05321 0.0
C485 C 0.64915 0.45089 0.03822 0.0
C486 C 0.65915 0.45721 0.01655 0.0
C487 C 0.6719 0.4824 0.00962 0.0
C488 C 0.67463 0.50132 0.02433 0.0
C489 C 0.66468 0.49511 0.04603 0.0
H490 H 0.67963 0.48724 0.99284 0.0
H491 H 0.5772 0.42412 0.20127 0.0
H492 H 0.42028 0.93341 0.51461 0.0
H493 H 0.39606 0.89255 0.53401 0.0
H494 H 0.45655 0.87613 0.51847 0.0
H495 H 0.48062 0.91668 0.49928 0.0
H496 H 0.40836 0.84115 0.50142 0.0
H497 H 0.44561 0.88348 0.57114 0.0
H498 H 0.45554 0.91528 0.60056 0.0
H499 H 0.37453 0.88579 0.61185 0.0
H500 H 0.3641 0.85402 0.58225 0.0
H501 H 0.3601 0.72022 0.54497 0.0
H502 H 0.38798 0.76555 0.53917 0.0
H503 H 0.32927 0.77891 0.56688 0.0
H504 H 0.30168 0.73355 0.57359 0.0
H505 H 0.37496 0.81625 0.57865 0.0
H506 H 0.33656 0.77586 0.50953 0.0
H507 H 0.32431 0.74474 0.47908 0.0
H508 H 0.40433 0.77167 0.465 0.0
H509 H 0.41707 0.80274 0.49559 0.0
C510 C 0.42878 0.92146 0.51618 0.0
C511 C 0.45225 0.92809 0.50549 0.0
C512 C 0.41491 0.8981 0.52714 0.0
C513 C 0.42443 0.88121 0.52751 0.0
C514 C 0.4488 0.8888 0.51831 0.0
C515 C 0.46259 0.912 0.50747 0.0
C516 C 0.40784 0.85452 0.5346 0.0
C517 C 0.40138 0.8357 0.51841 0.0
C518 C 0.39783 0.84748 0.55649 0.0
C519 C 0.40408 0.86654 0.57431 0.0
C520 C 0.42991 0.88392 0.57974 0.0
C521 C 0.43563 0.90191 0.59649 0.0
C522 C 0.41568 0.90261 0.60803 0.0
C523 C 0.38996 0.88526 0.60288 0.0
C524 C 0.38414 0.86724 0.58613 0.0
C525 C 0.35325 0.73283 0.55009 0.0
C526 C 0.32858 0.72327 0.55952 0.0
C527 C 0.36917 0.75877 0.54668 0.0
C528 C 0.36052 0.77569 0.55205 0.0
C529 C 0.33637 0.76629 0.56248 0.0
C530 C 0.32058 0.74033 0.56626 0.0
C531 C 0.37603 0.80282 0.54556 0.0
C532 C 0.38203 0.82169 0.5617 0.0
C533 C 0.38533 0.81007 0.52344 0.0
C534 C 0.37776 0.79146 0.50499 0.0
C535 C 0.35154 0.77503 0.50004 0.0
C536 C 0.34451 0.75742 0.48274 0.0
C537 C 0.36353 0.75619 0.47015 0.0
C538 C 0.38962 0.77262 0.47479 0.0
C539 C 0.39676 0.79025 0.49209 0.0
H540 H 0.35805 0.74254 0.45676 0.0
H541 H 0.42015 0.91654 0.62099 0.0
H542 H 0.57169 0.47834 0.68995 0.0
H543 H 0.58589 0.45059 0.70613 0.0
H544 H 0.50669 0.39068 0.71095 0.0
H545 H 0.49241 0.41852 0.69444 0.0
H546 H 0.54716 0.39557 0.74799 0.0
H547 H 0.52758 0.38607 0.66811 0.0
H548 H 0.53 0.40372 0.6305 0.0
H549 H 0.6128 0.44103 0.6327 0.0
H550 H 0.61085 0.4239 0.6705 0.0
H551 H 0.57313 0.29345 0.74309 0.0
H552 H 0.55524 0.32156 0.73984 0.0
H553 H 0.62499 0.37717 0.70701 0.0
H554 H 0.64246 0.34869 0.7094 0.0
H555 H 0.58672 0.37359 0.6853 0.0
H556 H 0.60783 0.38256 0.76342 0.0
H557 H 0.60751 0.36826 0.80204 0.0
H558 H 0.52507 0.33508 0.80464 0.0
H559 H 0.52486 0.3489 0.76591 0.0
C560 C 0.55726 0.45966 0.69551 0.0
C561 C 0.53098 0.45057 0.69117 0.0
C562 C 0.56538 0.44379 0.70462 0.0
C563 C 0.54734 0.41857 0.70955 0.0
C564 C 0.52086 0.41016 0.70738 0.0
C565 C 0.51271 0.42607 0.69808 0.0
C566 C 0.55649 0.40032 0.71297 0.0
C567 C 0.55548 0.39038 0.7343 0.0
C568 C 0.56787 0.39413 0.69516 0.0
C569 C 0.56907 0.40388 0.67219 0.0
C570 C 0.5463 0.39817 0.66062 0.0
C571 C 0.54758 0.40804 0.63926 0.0
C572 C 0.57154 0.42351 0.62923 0.0
C573 C 0.59425 0.42906 0.6405 0.0
C574 C 0.59307 0.41924 0.66188 0.0
C575 C 0.58473 0.31177 0.73535 0.0
C576 C 0.60922 0.31884 0.72649 0.0
C577 C 0.57452 0.32791 0.73359 0.0
C578 C 0.58882 0.35172 0.72339 0.0
C579 C 0.61349 0.35893 0.71491 0.0
C580 C 0.62352 0.34265 0.71634 0.0
C581 C 0.57774 0.36868 0.72055 0.0
C582 C 0.57835 0.37849 0.69915 0.0
C583 C 0.56624 0.37486 0.73841 0.0
C584 C 0.56631 0.36654 0.76168 0.0
C585 C 0.58961 0.37204 0.77217 0.0
C586 C 0.58953 0.36405 0.79409 0.0
C587 C 0.56627 0.35071 0.80576 0.0
C588 C 0.54306 0.34538 0.79556 0.0
C589 C 0.54303 0.35331 0.77363 0.0
H590 H 0.56625 0.34454 0.82274 0.0
H591 H 0.57249 0.43115 0.6127 0.0
H592 H 0.1013 0.57296 0.84595 0.0
H593 H 0.14196 0.58821 0.86635 0.0
H594 H 0.12695 0.51176 0.87227 0.0
H595 H 0.08607 0.4965 0.85196 0.0
H596 H 0.15389 0.54266 0.90963 0.0
H597 H 0.15896 0.54413 0.82893 0.0
H598 H 0.15132 0.55546 0.79123 0.0
H599 H 0.19588 0.63415 0.80789 0.0
H600 H 0.20344 0.62328 0.84583 0.0
H601 H 0.27891 0.55893 0.9134 0.0
H602 H 0.23474 0.54738 0.90417 0.0
H603 H 0.25928 0.62539 0.89028 0.0
H604 H 0.30402 0.6371 0.89895 0.0
H605 H 0.22704 0.5963 0.85917 0.0
H606 H 0.22534 0.59492 0.93907 0.0
H607 H 0.2325 0.58343 0.97685 0.0
H608 H 0.1817 0.50498 0.96221 0.0
H609 H 0.1745 0.51597 0.92423 0.0
C610 C 0.10617 0.55937 0.85254 0.0
C611 C 0.09057 0.53358 0.84767 0.0
C612 C 0.12947 0.56808 0.86399 0.0
C613 C 0.13767 0.55115 0.87047 0.0
C614 C 0.12097 0.52512 0.86742 0.0
C615 C 0.09757 0.51639 0.85596 0.0
C616 C 0.16484 0.56079 0.87751 0.0
C617 C 0.16992 0.55426 0.8986 0.0
C618 C 0.18574 0.57632 0.86322 0.0
C619 C 0.18156 0.58289 0.84029 0.0
C620 C 0.16699 0.56385 0.8246 0.0
C621 C 0.16268 0.57018 0.80319 0.0
C622 C 0.17307 0.5955 0.7972 0.0
C623 C 0.18782 0.61455 0.81258 0.0
C624 C 0.19214 0.60831 0.83403 0.0
C625 C 0.27501 0.57374 0.90847 0.0
C626 C 0.29509 0.59902 0.90704 0.0
C627 C 0.24961 0.56708 0.90332 0.0
C628 C 0.24348 0.58555 0.89698 0.0
C629 C 0.26348 0.6108 0.89528 0.0
C630 C 0.28906 0.61748 0.90025 0.0
C631 C 0.21631 0.57819 0.8914 0.0
C632 C 0.21115 0.58502 0.87043 0.0
C633 C 0.19538 0.56295 0.90584 0.0
C634 C 0.19953 0.55627 0.92874 0.0
C635 C 0.21582 0.57521 0.94386 0.0
C636 C 0.21987 0.56878 0.96531 0.0
C637 C 0.2076 0.54349 0.97191 0.0
C638 C 0.1912 0.52457 0.95708 0.0
C639 C 0.1871 0.53089 0.93559 0.0
H640 H 0.21076 0.53856 0.98853 0.0
H641 H 0.16978 0.60039 0.78062 0.0
H642 H 0.54684 0.09977 0.01382 0.0
H643 H 0.57114 0.14095 0.03206 0.0
H644 H 0.63681 0.13027 0.03869 0.0
H645 H 0.61252 0.08902 0.02 0.0
H646 H 0.62435 0.16017 0.07668 0.0
H647 H 0.64363 0.15731 -0.0025 0.0
H648 H 0.62992 0.14339 0.95867 0.0
H649 H 0.58445 0.17984 0.95893 0.0
H650 H 0.59765 0.19368 -0.0021 0.0
H651 H 0.72306 0.29027 0.0785 0.0
H652 H 0.69669 0.24458 0.07362 0.0
H653 H 0.63959 0.25456 0.0381 0.0
H654 H 0.66635 0.3003 0.04225 0.0
H655 H 0.64801 0.22349 0.01609 0.0
H656 H 0.63066 0.22971 0.09331 0.0
H657 H 0.64107 0.24209 0.13285 0.0
H658 H 0.67959 0.19895 0.13762 0.0
H659 H 0.66971 0.18658 0.098 0.0
C660 C 0.566 0.10567 0.02021 0.0
C661 C 0.57776 0.09119 0.01582 0.0
C662 C 0.57991 0.12923 0.03049 0.0
C663 C 0.60577 0.13866 0.0366 0.0
C664 C 0.61678 0.12318 0.03425 0.0
C665 C 0.60289 0.0996 0.02372 0.0
C666 C 0.62221 0.16595 0.04147 0.0
C667 C 0.62992 0.17411 0.06348 0.0
C668 C 0.62882 0.18401 0.02426 0.0
C669 C 0.62142 0.17631 0.00066 0.0
C670 C 0.63057 0.16221 0.98931 0.0
C671 C 0.62294 0.15438 0.96728 0.0
C672 C 0.60626 0.16065 0.95636 0.0
C673 C 0.59733 0.17494 0.96742 0.0
C674 C 0.60491 0.18282 0.98947 0.0
C675 C 0.70475 0.28271 0.06986 0.0
C676 C 0.69682 0.29894 0.06075 0.0
C677 C 0.68959 0.25652 0.06716 0.0
C678 C 0.66593 0.24594 0.05566 0.0
C679 C 0.65775 0.26216 0.047 0.0
C680 C 0.67304 0.28835 0.04945 0.0
C681 C 0.65037 0.21818 0.05153 0.0
C682 C 0.64269 0.2098 0.02948 0.0
C683 C 0.64369 0.20002 0.0688 0.0
C684 C 0.64967 0.20743 0.09262 0.0
C685 C 0.64153 0.22303 0.10274 0.0
C686 C 0.64731 0.23002 0.12518 0.0
C687 C 0.66105 0.22137 0.13772 0.0
C688 C 0.66899 0.20567 0.12787 0.0
C689 C 0.66328 0.19864 0.10543 0.0
H690 H 0.66549 0.2268 0.1551 0.0
H691 H 0.60028 0.15448 0.93934 0.0
H692 H 0.45194 0.54332 0.1872 0.0
H693 H 0.43483 0.56821 0.20446 0.0
H694 H 0.5123 0.63028 0.21351 0.0
H695 H 0.52948 0.60541 0.19585 0.0
H696 H 0.46711 0.61888 0.24991 0.0
H697 H 0.49559 0.64071 0.17171 0.0
H698 H 0.49838 0.62855 0.13292 0.0
H699 H 0.41567 0.58402 0.12958 0.0
H700 H 0.41245 0.59596 0.16841 0.0
H701 H 0.4405 0.72083 0.24822 0.0
H702 H 0.45863 0.69288 0.24524 0.0
H703 H 0.39261 0.64032 0.20635 0.0
H704 H 0.37493 0.66861 0.20861 0.0
H705 H 0.43345 0.64675 0.18676 0.0
H706 H 0.40393 0.62925 0.26261 0.0
H707 H 0.3997 0.6391 0.30183 0.0
H708 H 0.48154 0.67228 0.31106 0.0
H709 H 0.48631 0.66292 0.27179 0.0
C710 C 0.46533 0.56176 0.19397 0.0
C711 C 0.492 0.57236 0.19058 0.0
C712 C 0.45555 0.57602 0.20368 0.0
C713 C 0.47231 0.60106 0.2102 0.0
C714 C 0.4991 0.61088 0.2088 0.0
C715 C 0.50891 0.59665 0.19886 0.0
C716 C 0.46173 0.61803 0.21432 0.0
C717 C 0.46003 0.62533 0.23618 0.0
C718 C 0.45198 0.62585 0.1964 0.0
C719 C 0.4538 0.61905 0.17296 0.0
C720 C 0.47802 0.62823 0.16272 0.0
C721 C 0.47968 0.62143 0.14072 0.0
C722 C 0.45722 0.60542 0.12881 0.0
C723 C 0.43305 0.59637 0.13883 0.0
C724 C 0.4313 0.60322 0.1608 0.0
C725 C 0.42972 0.70318 0.23924 0.0
C726 C 0.4063 0.69698 0.2286 0.0
C727 C 0.44005 0.68712 0.23764 0.0
C728 C 0.42694 0.66428 0.22572 0.0
C729 C 0.4032 0.65782 0.21559 0.0
C730 C 0.39304 0.674 0.21694 0.0
C731 C 0.43855 0.64784 0.22257 0.0
C732 C 0.44048 0.64052 0.2007 0.0
C733 C 0.44831 0.63994 0.24059 0.0
C734 C 0.44551 0.64561 0.26419 0.0
C735 C 0.42105 0.63883 0.27295 0.0
C736 C 0.41855 0.64429 0.2952 0.0
C737 C 0.44034 0.65637 0.30891 0.0
C738 C 0.46468 0.66296 0.30041 0.0
C739 C 0.46729 0.65756 0.27817 0.0
H740 H 0.43837 0.66058 0.32613 0.0
H741 H 0.45855 0.60009 0.11182 0.0
H742 H 0.93313 0.51581 0.34753 0.0
H743 H 0.89182 0.5029 0.36625 0.0
H744 H 0.86843 0.42469 0.35474 0.0
H745 H 0.90939 0.4376 0.33575 0.0
H746 H 0.83314 0.43456 0.3395 0.0
H747 H 0.88062 0.45078 0.40803 0.0
H748 H 0.91582 0.47582 0.43464 0.0
H749 H 0.89286 0.53197 0.43725 0.0
H750 H 0.85772 0.50744 0.41042 0.0
H751 H 0.71187 0.3841 0.39477 0.0
H752 H 0.75567 0.39426 0.38442 0.0
H753 H 0.78312 0.47322 0.39643 0.0
H754 H 0.73976 0.46321 0.40729 0.0
H755 H 0.81646 0.46148 0.41282 0.0
H756 H 0.7716 0.44762 0.3428 0.0
H757 H 0.73691 0.42386 0.3154 0.0
H758 H 0.75568 0.36468 0.31479 0.0
H759 H 0.79029 0.38796 0.34242 0.0
C760 C 0.91946 0.49588 0.34968 0.0
C761 C 0.92437 0.47768 0.34025 0.0
C762 C 0.89584 0.48849 0.36031 0.0
C763 C 0.87692 0.46278 0.36187 0.0
C764 C 0.8826 0.44461 0.35364 0.0
C765 C 0.90605 0.45198 0.34293 0.0
C766 C 0.8504 0.45482 0.36999 0.0
C767 C 0.82949 0.44008 0.35573 0.0
C768 C 0.84561 0.46261 0.39086 0.0
C769 C 0.86667 0.47736 0.40706 0.0
C770 C 0.8832 0.46856 0.41414 0.0
C771 C 0.90312 0.48265 0.42929 0.0
C772 C 0.90661 0.5055 0.43759 0.0
C773 C 0.89015 0.51428 0.4308 0.0
C774 C 0.87021 0.50028 0.41564 0.0
C775 C 0.72723 0.40362 0.39518 0.0
C776 C 0.72222 0.42282 0.40179 0.0
C777 C 0.75228 0.40943 0.38922 0.0
C778 C 0.77273 0.43458 0.38943 0.0
C779 C 0.76776 0.45369 0.39619 0.0
C780 C 0.74285 0.4479 0.4023 0.0
C781 C 0.79926 0.44119 0.38233 0.0
C782 C 0.82014 0.45577 0.3967 0.0
C783 C 0.80411 0.4334 0.36148 0.0
C784 C 0.78333 0.4194 0.34485 0.0
C785 C 0.7682 0.42945 0.33695 0.0
C786 C 0.74857 0.41609 0.32135 0.0
C787 C 0.74404 0.39274 0.31341 0.0
C788 C 0.75918 0.38274 0.32099 0.0
C789 C 0.77881 0.39602 0.3366 0.0
H790 H 0.72884 0.38242 0.30133 0.0
H791 H 0.92205 0.51638 0.44931 0.0
H792 H 0.087 0.52228 0.36143 0.0
H793 H 0.11248 0.53339 0.39582 0.0
H794 H 0.0692 0.56675 0.42209 0.0
H795 H 0.04362 0.55555 0.38749 0.0
H796 H 0.12055 0.5999 0.42094 0.0
H797 H 0.06686 0.5165 0.4483 0.0
H798 H 0.04291 0.46998 0.44714 0.0
H799 H 0.11382 0.46957 0.43732 0.0
H800 H 0.13819 0.51611 0.43808 0.0
H801 H 0.19909 0.63986 0.5188 0.0
H802 H 0.16256 0.62031 0.493 0.0
H803 H 0.19594 0.58 0.46121 0.0
H804 H 0.23234 0.59911 0.48728 0.0
H805 H 0.14544 0.54922 0.4687 0.0
H806 H 0.19811 0.63171 0.43664 0.0
H807 H 0.22266 0.67826 0.43649 0.0
H808 H 0.15398 0.68013 0.45387 0.0
H809 H 0.12907 0.63356 0.45441 0.0
C810 C 0.08225 0.53102 0.37497 0.0
C811 C 0.0633 0.53789 0.37203 0.0
C812 C 0.09682 0.53742 0.39459 0.0
C813 C 0.09275 0.55091 0.41155 0.0
C814 C 0.07259 0.55628 0.40923 0.0
C815 C 0.05785 0.54969 0.38961 0.0
C816 C 0.11184 0.56234 0.42995 0.0
C817 C 0.12556 0.58876 0.43178 0.0
C818 C 0.11892 0.54787 0.44356 0.0
C819 C 0.10434 0.51984 0.4431 0.0
C820 C 0.07734 0.50651 0.44571 0.0
C821 C 0.06369 0.48013 0.44516 0.0
C822 C 0.07683 0.46683 0.44212 0.0
C823 C 0.10366 0.47989 0.43967 0.0
C824 C 0.11741 0.50628 0.44019 0.0
C825 C 0.19879 0.62699 0.5062 0.0
C826 C 0.21866 0.62108 0.50505 0.0
C827 C 0.17788 0.61584 0.49145 0.0
C828 C 0.17655 0.59877 0.47509 0.0
C829 C 0.19651 0.59304 0.47375 0.0
C830 C 0.21739 0.60412 0.48856 0.0
C831 C 0.15431 0.58675 0.45944 0.0
C832 C 0.14011 0.56028 0.4581 0.0
C833 C 0.14686 0.60117 0.44613 0.0
C834 C 0.1618 0.62916 0.44582 0.0
C835 C 0.18829 0.64205 0.44062 0.0
C836 C 0.20226 0.66844 0.44043 0.0
C837 C 0.1899 0.68215 0.44524 0.0
C838 C 0.16353 0.66949 0.45019 0.0
C839 C 0.14948 0.6431 0.45043 0.0
H840 H 0.20075 0.70257 0.44507 0.0
H841 H 0.06622 0.4464 0.4417 0.0
H842 H 0.57024 0.08798 0.52266 0.0
H843 H 0.58424 0.1119 0.55751 0.0
H844 H 0.50695 0.06826 0.58384 0.0
H845 H 0.49283 0.04435 0.54865 0.0
H846 H 0.52414 0.11808 0.58582 0.0
H847 H 0.55706 0.06486 0.60793 0.0
H848 H 0.58097 0.04193 0.60391 0.0
H849 H 0.65175 0.11209 0.59512 0.0
H850 H 0.62822 0.13544 0.59876 0.0
H851 H 0.56465 0.19087 0.68625 0.0
H852 H 0.54731 0.15604 0.65943 0.0
H853 H 0.62087 0.19007 0.62562 0.0
H854 H 0.6385 0.22472 0.65266 0.0
H855 H 0.60222 0.14058 0.63113 0.0
H856 H 0.56895 0.19298 0.60409 0.0
H857 H 0.54552 0.2165 0.60682 0.0
H858 H 0.47586 0.14816 0.6238 0.0
H859 H 0.49899 0.12427 0.62144 0.0
C860 C 0.55646 0.08297 0.53618 0.0
C861 C 0.53049 0.06435 0.53306 0.0
C862 C 0.56446 0.09661 0.55611 0.0
C863 C 0.54666 0.09187 0.57335 0.0
C864 C 0.52101 0.0722 0.57078 0.0
C865 C 0.51301 0.05841 0.5508 0.0
C866 C 0.5543 0.10949 0.59264 0.0
C867 C 0.54085 0.12254 0.59611 0.0
C868 C 0.57654 0.11586 0.60562 0.0
C869 C 0.59082 0.1019 0.60349 0.0
C870 C 0.5777 0.0754 0.60498 0.0
C871 C 0.59119 0.06233 0.60279 0.0
C872 C 0.61786 0.07554 0.59923 0.0
C873 C 0.63109 0.10188 0.59788 0.0
C874 C 0.61769 0.11504 0.60004 0.0
C875 C 0.5771 0.19104 0.67301 0.0
C876 C 0.60295 0.21061 0.67154 0.0
C877 C 0.56714 0.17111 0.65768 0.0
C878 C 0.58273 0.17049 0.64041 0.0
C879 C 0.60849 0.1901 0.63884 0.0
C880 C 0.6185 0.20998 0.65422 0.0
C881 C 0.5723 0.14939 0.62402 0.0
C882 C 0.58527 0.13578 0.62108 0.0
C883 C 0.54969 0.14257 0.61142 0.0
C884 C 0.53577 0.1569 0.61285 0.0
C885 C 0.54869 0.18301 0.60859 0.0
C886 C 0.53545 0.1964 0.61003 0.0
C887 C 0.50924 0.18385 0.61555 0.0
C888 C 0.49618 0.15786 0.61957 0.0
C889 C 0.50934 0.14439 0.61817 0.0
H890 H 0.49902 0.19425 0.61665 0.0
H891 H 0.62827 0.06539 0.59753 0.0
H892 H 0.46914 0.50559 0.73236 0.0
H893 H 0.45898 0.5202 0.76705 0.0
H894 H 0.49425 0.59579 0.74046 0.0
H895 H 0.50452 0.58128 0.70586 0.0
H896 H 0.50076 0.59509 0.78691 0.0
H897 H 0.43339 0.55938 0.73173 0.0
H898 H 0.40401 0.52659 0.70532 0.0
H899 H 0.3696 0.4741 0.75953 0.0
H900 H 0.39916 0.50649 0.78623 0.0
H901 H 0.42794 0.63984 0.84696 0.0
H902 H 0.44739 0.62793 0.81667 0.0
H903 H 0.40988 0.55149 0.84145 0.0
H904 H 0.39037 0.5631 0.87157 0.0
H905 H 0.40564 0.55313 0.79626 0.0
H906 H 0.47274 0.59064 0.85182 0.0
H907 H 0.5025 0.62425 0.87744 0.0
H908 H 0.53723 0.67456 0.82186 0.0
H909 H 0.5074 0.64134 0.79592 0.0
C910 C 0.47561 0.52549 0.73431 0.0
C911 C 0.48741 0.5423 0.71645 0.0
C912 C 0.46965 0.53379 0.75403 0.0
C913 C 0.47545 0.55898 0.75611 0.0
C914 C 0.48953 0.57628 0.73916 0.0
C915 C 0.49535 0.56797 0.71942 0.0
C916 C 0.46385 0.5665 0.77432 0.0
C917 C 0.47998 0.58605 0.78891 0.0
C918 C 0.43672 0.55467 0.77689 0.0
C919 C 0.41867 0.53526 0.76094 0.0
C920 C 0.41969 0.54079 0.738 0.0
C921 C 0.403 0.52228 0.72298 0.0
C922 C 0.38499 0.49825 0.73073 0.0
C923 C 0.3836 0.49271 0.75354 0.0
C924 C 0.40032 0.51113 0.76863 0.0
C925 C 0.42368 0.62046 0.84585 0.0
C926 C 0.40764 0.60245 0.86174 0.0
C927 C 0.43495 0.61373 0.82863 0.0
C928 C 0.43031 0.58888 0.82698 0.0
C929 C 0.41379 0.57078 0.84245 0.0
C930 C 0.40269 0.57749 0.8597 0.0
C931 C 0.44252 0.58154 0.80913 0.0
C932 C 0.42644 0.56208 0.79443 0.0
C933 C 0.46966 0.59362 0.80641 0.0
C934 C 0.48765 0.61359 0.82196 0.0
C935 C 0.48657 0.60894 0.84508 0.0
C936 C 0.50348 0.6279 0.85966 0.0
C937 C 0.5217 0.65155 0.85129 0.0
C938 C 0.52308 0.65625 0.82832 0.0
C939 C 0.50619 0.63735 0.81367 0.0
H940 H 0.53478 0.6662 0.86261 0.0
H941 H 0.37207 0.48395 0.71908 0.0
H942 H 0.92443 0.49655 0.8533 0.0
H943 H 0.89871 0.48484 0.8875 0.0
H944 H 0.94802 0.45979 0.91675 0.0
H945 H 0.97365 0.47117 0.88227 0.0
H946 H 0.89748 0.42334 0.91747 0.0
H947 H 0.94645 0.51007 0.93863 0.0
H948 H 0.96648 0.5561 0.9337 0.0
H949 H 0.8917 0.54827 0.9237 0.0
H950 H 0.87123 0.50213 0.92825 0.0
H951 H 0.82546 0.3876 0.01886 0.0
H952 H 0.85986 0.4068 0.99102 0.0
H953 H 0.81943 0.43963 0.95806 0.0
H954 H 0.78525 0.421 0.98623 0.0
H955 H 0.86903 0.47355 0.96182 0.0
H956 H 0.82051 0.38747 0.93664 0.0
H957 H 0.79963 0.34118 0.9401 0.0
H958 H 0.87272 0.34769 0.95614 0.0
H959 H 0.89399 0.39407 0.95306 0.0
C960 C 0.93021 0.4892 0.86727 0.0
C961 C 0.95098 0.4847 0.86515 0.0
C962 C 0.91555 0.48258 0.88683 0.0
C963 C 0.92145 0.47145 0.90469 0.0
C964 C 0.94316 0.46838 0.90315 0.0
C965 C 0.95793 0.47511 0.88356 0.0
C966 C 0.90323 0.4605 0.92372 0.0
C967 C 0.89168 0.43443 0.92753 0.0
C968 C 0.89508 0.47482 0.93631 0.0
C969 C 0.90732 0.50259 0.93363 0.0
C970 C 0.93428 0.51813 0.93521 0.0
C971 C 0.94571 0.54425 0.93252 0.0
C972 C 0.93038 0.5551 0.92835 0.0
C973 C 0.90356 0.53984 0.92692 0.0
C974 C 0.89203 0.5137 0.92959 0.0
C975 C 0.82378 0.39874 0.00559 0.0
C976 C 0.8026 0.40274 0.00471 0.0
C977 C 0.84346 0.40968 0.98965 0.0
C978 C 0.84216 0.42452 0.97233 0.0
C979 C 0.82089 0.42832 0.97131 0.0
C980 C 0.80129 0.41754 0.98733 0.0
C981 C 0.8631 0.43635 0.95543 0.0
C982 C 0.87508 0.46254 0.95197 0.0
C983 C 0.87153 0.42212 0.94301 0.0
C984 C 0.85878 0.39425 0.94487 0.0
C985 C 0.83209 0.37904 0.94109 0.0
C986 C 0.8202 0.35279 0.94294 0.0
C987 C 0.83483 0.34151 0.9484 0.0
C988 C 0.8614 0.35646 0.95196 0.0
C989 C 0.87339 0.38272 0.95014 0.0
H990 H 0.82558 0.32118 0.94983 0.0
H991 H 0.93927 0.57533 0.92627 0.0
H992 H 0.52609 0.97641 0.05225 0.0
H993 H 0.5122 0.95194 0.08708 0.0
H994 H 0.43655 0.90438 0.05879 0.0
H995 H 0.45012 0.92906 0.02435 0.0
H996 H 0.433 0.91151 0.10262 0.0
H997 H 0.48445 0.88825 0.05542 0.0
H998 H 0.52398 0.89704 0.03487 0.0
H999 H 0.56801 0.9227 0.09556 0.0
H1000 H 0.52882 0.91427 0.11635 0.0
H1001 H 0.3825 0.79201 0.15188 0.0
H1002 H 0.40061 0.82773 0.12606 0.0
H1003 H 0.47194 0.86273 0.16338 0.0
H1004 H 0.4541 0.82675 0.18906 0.0
H1005 H 0.48156 0.86739 0.11993 0.0
H1006 H 0.42877 0.88372 0.16851 0.0
H1007 H 0.38938 0.87435 0.18933 0.0
H1008 H 0.3482 0.8625 0.12757 0.0
H1009 H 0.38725 0.87141 0.10637 0.0
C1010 C 0.50627 0.96126 0.05379 0.0
C1011 C 0.48924 0.95447 0.03556 0.0
C1012 C 0.49843 0.94712 0.07358 0.0
C1013 C 0.4735 0.92598 0.07535 0.0
C1014 C 0.45591 0.9205 0.05779 0.0
C1015 C 0.4637 0.93458 0.03809 0.0
C1016 C 0.46616 0.90809 0.0944 0.0
C1017 C 0.44357 0.90181 0.1064 0.0
C1018 C 0.48034 0.89592 0.09978 0.0
C1019 C 0.50384 0.90095 0.08732 0.0
C1020 C 0.50263 0.89595 0.06428 0.0
C1021 C 0.52493 0.90083 0.05262 0.0
C1022 C 0.54848 0.91053 0.06388 0.0
C1023 C 0.54977 0.91526 0.08684 0.0
C1024 C 0.52753 0.91043 0.09857 0.0
C1025 C 0.4021 0.80723 0.15452 0.0
C1026 C 0.41682 0.8066 0.17258 0.0
C1027 C 0.41237 0.82775 0.13985 0.0
C1028 C 0.43745 0.84819 0.14306 0.0
C1029 C 0.45248 0.84727 0.16068 0.0
C1030 C 0.44226 0.82668 0.17532 0.0
C1031 C 0.448 0.87031 0.1278 0.0
C1032 C 0.47119 0.87737 0.11651 0.0
C1033 C 0.43443 0.88327 0.12319 0.0
C1034 C 0.41092 0.87807 0.13585 0.0
C1035 C 0.41127 0.87895 0.15937 0.0
C1036 C 0.38901 0.87374 0.17124 0.0
C1037 C 0.36629 0.86779 0.15978 0.0
C1038 C 0.36581 0.86709 0.13642 0.0
C1039 C 0.38802 0.87226 0.12446 0.0
H1040 H 0.34907 0.86376 0.169 0.0
H1041 H 0.56572 0.91429 0.05483 0.0
H1042 H 0.51792 0.43842 0.19996 0.0
H1043 H 0.52741 0.42419 0.23497 0.0
H1044 H 0.55318 0.49754 0.26407 0.0
H1045 H 0.54447 0.51213 0.22873 0.0
H1046 H 0.58928 0.4845 0.26737 0.0
H1047 H 0.49884 0.44397 0.28343 0.0
H1048 H 0.45232 0.41675 0.27593 0.0
H1049 H 0.46276 0.35261 0.26845 0.0
H1050 H 0.50943 0.37952 0.2756 0.0
H1051 H 0.61676 0.45571 0.37414 0.0
H1052 H 0.59734 0.4663 0.3433 0.0
H1053 H 0.57391 0.39422 0.31261 0.0
H1054 H 0.59309 0.38318 0.34377 0.0
H1055 H 0.53552 0.40626 0.31085 0.0
H1056 H 0.6255 0.4465 0.29272 0.0
H1057 H 0.67227 0.4733 0.29938 0.0
H1058 H 0.66268 0.53759 0.30969 0.0
H1059 H 0.61577 0.51108 0.3034 0.0
C1060 C 0.52503 0.45133 0.21401 0.0
C1061 C 0.53068 0.47647 0.21155 0.0
C1062 C 0.53032 0.44313 0.23407 0.0
C1063 C 0.54105 0.4598 0.25217 0.0
C1064 C 0.54494 0.48436 0.25029 0.0
C1065 C 0.53971 0.49261 0.23017 0.0
C1066 C 0.55106 0.45258 0.27189 0.0
C1067 C 0.57735 0.46766 0.27717 0.0
C1068 C 0.53578 0.43009 0.28412 0.0
C1069 C 0.50769 0.41383 0.27987 0.0
C1070 C 0.49126 0.4241 0.28001 0.0
C1071 C 0.46485 0.40872 0.27586 0.0
C1072 C 0.4546 0.38298 0.27167 0.0
C1073 C 0.47073 0.37256 0.27168 0.0
C1074 C 0.49716 0.38787 0.27581 0.0
C1075 C 0.60754 0.44203 0.36086 0.0
C1076 C 0.60667 0.41862 0.3614 0.0
C1077 C 0.59646 0.44818 0.34319 0.0
C1078 C 0.58443 0.43118 0.32552 0.0
C1079 C 0.58314 0.40763 0.32608 0.0
C1080 C 0.59423 0.40141 0.34384 0.0
C1081 C 0.5736 0.43834 0.30638 0.0
C1082 C 0.5473 0.4232 0.30114 0.0
C1083 C 0.58886 0.46074 0.29405 0.0
C1084 C 0.61708 0.47675 0.29781 0.0
C1085 C 0.63333 0.46631 0.29659 0.0
C1086 C 0.65987 0.48145 0.30027 0.0
C1087 C 0.67043 0.50712 0.30502 0.0
C1088 C 0.65447 0.5177 0.30605 0.0
C1089 C 0.62791 0.50263 0.30241 0.0
H1090 H 0.69098 0.51881 0.30785 0.0
H1091 H 0.43415 0.3711 0.26845 0.0
H1092 H 0.49204 0.92907 0.43382 0.0
H1093 H 0.48053 0.90616 0.39836 0.0
H1094 H 0.44202 0.94647 0.37752 0.0
H1095 H 0.45341 0.96934 0.41325 0.0
H1096 H 0.41056 0.89598 0.37509 0.0
H1097 H 0.49555 0.9548 0.35012 0.0
H1098 H 0.54305 0.98002 0.35198 0.0
H1099 H 0.54747 0.91215 0.35447 0.0
H1100 H 0.49996 0.88648 0.35295 0.0
H1101 H 0.37748 0.83879 0.26783 0.0
H1102 H 0.39571 0.86896 0.2985 0.0
H1103 H 0.43345 0.8297 0.32392 0.0
H1104 H 0.4153 0.7993 0.2931 0.0
H1105 H 0.46606 0.88161 0.32249 0.0
H1106 H 0.38152 0.82311 0.34997 0.0
H1107 H 0.334 0.79753 0.34869 0.0
H1108 H 0.329 0.86484 0.34204 0.0
H1109 H 0.37654 0.89083 0.34296 0.0
C1110 C 0.48178 0.93355 0.42138 0.0
C1111 C 0.47357 0.95091 0.42622 0.0
C1112 C 0.47524 0.92049 0.4011 0.0
C1113 C 0.46038 0.92457 0.38526 0.0
C1114 C 0.4535 0.94304 0.38951 0.0
C1115 C 0.46019 0.95625 0.4098 0.0
C1116 C 0.4497 0.90755 0.36561 0.0
C1117 C 0.42274 0.89326 0.3633 0.0
C1118 C 0.46554 0.90335 0.35069 0.0
C1119 C 0.49415 0.91871 0.35161 0.0
C1120 C 0.50663 0.94524 0.35126 0.0
C1121 C 0.53357 0.95962 0.35221 0.0
C1122 C 0.54827 0.94769 0.35339 0.0
C1123 C 0.53606 0.92136 0.35357 0.0
C1124 C 0.50912 0.90688 0.35264 0.0
C1125 C 0.38953 0.83641 0.27998 0.0
C1126 C 0.39486 0.81654 0.27801 0.0
C1127 C 0.39991 0.8537 0.29754 0.0
C1128 C 0.41585 0.85154 0.31354 0.0
C1129 C 0.4212 0.83172 0.31171 0.0
C1130 C 0.41067 0.81427 0.29419 0.0
C1131 C 0.427 0.87012 0.33205 0.0
C1132 C 0.45396 0.88458 0.33418 0.0
C1133 C 0.41119 0.87446 0.34687 0.0
C1134 C 0.3826 0.85889 0.34628 0.0
C1135 C 0.3703 0.83245 0.34802 0.0
C1136 C 0.34336 0.81788 0.34741 0.0
C1137 C 0.3285 0.82955 0.34522 0.0
C1138 C 0.34054 0.85583 0.3437 0.0
C1139 C 0.36748 0.87049 0.34428 0.0
H1140 H 0.30764 0.81824 0.34476 0.0
H1141 H 0.56912 0.95886 0.35412 0.0
H1142 H 0.57536 0.48868 0.62151 0.0
H1143 H 0.58725 0.47644 0.58659 0.0
H1144 H 0.50917 0.44569 0.56251 0.0
H1145 H 0.49717 0.4579 0.59773 0.0
H1146 H 0.52562 0.41152 0.56083 0.0
H1147 H 0.55801 0.49642 0.53681 0.0
H1148 H 0.58261 0.54283 0.53977 0.0
H1149 H 0.65325 0.54112 0.54598 0.0
H1150 H 0.62904 0.49466 0.54338 0.0
H1151 H 0.55858 0.3753 0.458 0.0
H1152 H 0.54336 0.39369 0.48625 0.0
H1153 H 0.61929 0.43197 0.51597 0.0
H1154 H 0.63478 0.41406 0.48748 0.0
H1155 H 0.60084 0.46338 0.51185 0.0
H1156 H 0.56868 0.3792 0.54016 0.0
H1157 H 0.54472 0.33268 0.53855 0.0
H1158 H 0.47433 0.33311 0.52549 0.0
H1159 H 0.49795 0.37968 0.52674 0.0
C1160 C 0.56095 0.48002 0.60846 0.0
C1161 C 0.53539 0.47428 0.61219 0.0
C1162 C 0.56775 0.47306 0.58851 0.0
C1163 C 0.54911 0.4602 0.57191 0.0
C1164 C 0.52385 0.45564 0.57511 0.0
C1165 C 0.51706 0.46281 0.59508 0.0
C1166 C 0.55553 0.44923 0.55251 0.0
C1167 C 0.54169 0.42292 0.54976 0.0
C1168 C 0.57699 0.46403 0.53855 0.0
C1169 C 0.59166 0.49201 0.54004 0.0
C1170 C 0.57877 0.50592 0.53897 0.0
C1171 C 0.59265 0.53224 0.54056 0.0
C1172 C 0.61947 0.54491 0.5431 0.0
C1173 C 0.63247 0.53128 0.54401 0.0
C1174 C 0.61868 0.50495 0.54245 0.0
C1175 C 0.57199 0.38747 0.47066 0.0
C1176 C 0.59789 0.3932 0.47052 0.0
C1177 C 0.56324 0.39794 0.48682 0.0
C1178 C 0.58014 0.41412 0.50332 0.0
C1179 C 0.60592 0.41962 0.50337 0.0
C1180 C 0.61471 0.40924 0.48715 0.0
C1181 C 0.57112 0.42564 0.52036 0.0
C1182 C 0.58453 0.45203 0.5227 0.0
C1183 C 0.54935 0.41091 0.53405 0.0
C1184 C 0.53513 0.38292 0.53329 0.0
C1185 C 0.54813 0.36938 0.53676 0.0
C1186 C 0.53461 0.343 0.53595 0.0
C1187 C 0.50804 0.32995 0.53185 0.0
C1188 C 0.49492 0.34325 0.52862 0.0
C1189 C 0.50836 0.36963 0.52939 0.0
H1190 H 0.4976 0.30953 0.53123 0.0
H1191 H 0.63018 0.5653 0.54433 0.0
H1192 H 0.10065 0.51518 0.77338 0.0
H1193 H 0.1244 0.52876 0.73833 0.0
H1194 H 0.07886 0.56222 0.71823 0.0
H1195 H 0.05539 0.54924 0.75398 0.0
H1196 H 0.1126 0.51935 0.69627 0.0
H1197 H 0.11929 0.61656 0.68789 0.0
H1198 H 0.11773 0.64859 0.71191 0.0
H1199 H 0.14459 0.62396 0.76781 0.0
H1200 H 0.14662 0.59204 0.74403 0.0
H1201 H 0.17127 0.56931 0.59305 0.0
H1202 H 0.14166 0.55725 0.62459 0.0
H1203 H 0.20362 0.61083 0.66657 0.0
H1204 H 0.23335 0.62369 0.63467 0.0
H1205 H 0.16033 0.61041 0.67679 0.0
H1206 H 0.18485 0.54749 0.66698 0.0
H1207 H 0.19114 0.5161 0.64629 0.0
H1208 H 0.10981 0.47312 0.6326 0.0
H1209 H 0.10309 0.50444 0.65298 0.0
C1210 C 0.09558 0.52534 0.76146 0.0
C1211 C 0.07638 0.53142 0.7665 0.0
C1212 C 0.10908 0.53296 0.74136 0.0
C1213 C 0.10364 0.54677 0.72574 0.0
C1214 C 0.0836 0.55187 0.7302 0.0
C1215 C 0.07005 0.54426 0.75048 0.0
C1216 C 0.11983 0.55641 0.70532 0.0
C1217 C 0.12282 0.53923 0.69191 0.0
C1218 C 0.13368 0.58243 0.6999 0.0
C1219 C 0.1328 0.60173 0.71425 0.0
C1220 C 0.12492 0.61804 0.70529 0.0
C1221 C 0.12396 0.63617 0.71886 0.0
C1222 C 0.13097 0.63824 0.74139 0.0
C1223 C 0.13907 0.62227 0.75038 0.0
C1224 C 0.14011 0.60415 0.73687 0.0
C1225 C 0.17864 0.57863 0.60897 0.0
C1226 C 0.20477 0.59722 0.61145 0.0
C1227 C 0.16165 0.5717 0.627 0.0
C1228 C 0.1705 0.58275 0.64808 0.0
C1229 C 0.19637 0.60198 0.65046 0.0
C1230 C 0.21336 0.60924 0.63227 0.0
C1231 C 0.15303 0.57331 0.66776 0.0
C1232 C 0.1498 0.59049 0.681 0.0
C1233 C 0.13955 0.54735 0.67349 0.0
C1234 C 0.14351 0.52844 0.6613 0.0
C1235 C 0.16833 0.53143 0.65942 0.0
C1236 C 0.17197 0.51364 0.64777 0.0
C1237 C 0.15089 0.49267 0.63809 0.0
C1238 C 0.12612 0.4894 0.64009 0.0
C1239 C 0.12238 0.50715 0.6517 0.0
H1240 H 0.15375 0.47891 0.62907 0.0
H1241 H 0.13018 0.65226 0.75186 0.0
H1242 H 0.52275 0.05917 0.92634 0.0
H1243 H 0.53103 0.08358 0.89157 0.0
H1244 H 0.613 0.12025 0.90429 0.0
H1245 H 0.60476 0.09627 0.93888 0.0
H1246 H 0.59966 0.15414 0.89499 0.0
H1247 H 0.58338 0.0749 0.86326 0.0
H1248 H 0.55779 0.02907 0.85626 0.0
H1249 H 0.49742 0.03823 0.82694 0.0
H1250 H 0.52254 0.08409 0.83404 0.0
H1251 H 0.63343 0.17617 0.76962 0.0
H1252 H 0.61735 0.14889 0.80227 0.0
H1253 H 0.58736 0.19456 0.82906 0.0
H1254 H 0.60389 0.22244 0.7964 0.0
H1255 H 0.57064 0.11942 0.8188 0.0
H1256 H 0.59192 0.194 0.88683 0.0
H1257 H 0.62116 0.2394 0.89391 0.0
H1258 H 0.67792 0.23885 0.85031 0.0
H1259 H 0.64916 0.1934 0.84323 0.0
C1260 C 0.54249 0.07204 0.92135 0.0
C1261 C 0.56313 0.0759 0.9352 0.0
C1262 C 0.54722 0.08605 0.90159 0.0
C1263 C 0.57266 0.10386 0.89539 0.0
C1264 C 0.59323 0.10682 0.90882 0.0
C1265 C 0.58852 0.09301 0.92849 0.0
C1266 C 0.57818 0.12027 0.87545 0.0
C1267 C 0.59315 0.14653 0.87835 0.0
C1268 C 0.56977 0.1104 0.85373 0.0
C1269 C 0.5547 0.08286 0.84941 0.0
C1270 C 0.56456 0.0671 0.85548 0.0
C1271 C 0.55016 0.04113 0.85147 0.0
C1272 C 0.52596 0.03073 0.84122 0.0
C1273 C 0.51615 0.0463 0.83491 0.0
C1274 C 0.53046 0.07228 0.83891 0.0
C1275 C 0.62344 0.18053 0.78242 0.0
C1276 C 0.62011 0.20165 0.78041 0.0
C1277 C 0.61409 0.16475 0.80105 0.0
C1278 C 0.60121 0.16967 0.81817 0.0
C1279 C 0.59748 0.19053 0.81615 0.0
C1280 C 0.60695 0.20645 0.79748 0.0
C1281 C 0.59252 0.15325 0.83832 0.0
C1282 C 0.57682 0.12703 0.83549 0.0
C1283 C 0.60071 0.1631 0.86009 0.0
C1284 C 0.61823 0.1904 0.86426 0.0
C1285 C 0.61065 0.20358 0.87878 0.0
C1286 C 0.62715 0.22931 0.8828 0.0
C1287 C 0.65134 0.24203 0.87248 0.0
C1288 C 0.65913 0.22901 0.8582 0.0
C1289 C 0.64273 0.20327 0.85416 0.0
H1290 H 0.66407 0.26195 0.8756 0.0
H1291 H 0.51484 0.01062 0.83812 0.0
H1292 H 0.48073 0.52517 0.09663 0.0
H1293 H 0.46983 0.53686 0.06064 0.0
H1294 H 0.50613 0.61453 0.08228 0.0
H1295 H 0.5184 0.60325 0.11725 0.0
H1296 H 0.43887 0.55312 0.05274 0.0
H1297 H 0.52635 0.65567 0.04163 0.0
H1298 H 0.57361 0.67824 0.04663 0.0
H1299 H 0.5738 0.6084 0.04062 0.0
H1300 H 0.52659 0.58544 0.03526 0.0
H1301 H 0.39801 0.62545 0.99323 0.0
H1302 H 0.41632 0.60888 0.02044 0.0
H1303 H 0.47435 0.61814 0.97242 0.0
H1304 H 0.457 0.63605 0.94573 0.0
H1305 H 0.49614 0.63048 0.00948 0.0
H1306 H 0.41912 0.55846 0.98553 0.0
H1307 H 0.37279 0.53221 0.97672 0.0
H1308 H 0.35368 0.53411 0.04563 0.0
H1309 H 0.39989 0.56069 0.05481 0.0
C1310 C 0.48706 0.54482 0.09333 0.0
C1311 C 0.50022 0.56326 0.10981 0.0
C1312 C 0.48061 0.55147 0.07288 0.0
C1313 C 0.48726 0.57664 0.0686 0.0
C1314 C 0.50122 0.5951 0.08482 0.0
C1315 C 0.50794 0.58856 0.10499 0.0
C1316 C 0.47792 0.58356 0.04821 0.0
C1317 C 0.45146 0.56989 0.04313 0.0
C1318 C 0.49438 0.60504 0.0352 0.0
C1319 C 0.52286 0.6188 0.03817 0.0
C1320 C 0.53648 0.64513 0.04123 0.0
C1321 C 0.56326 0.65799 0.04417 0.0
C1322 C 0.57669 0.64475 0.04399 0.0
C1323 C 0.56337 0.61862 0.04082 0.0
C1324 C 0.53658 0.60567 0.03787 0.0
C1325 C 0.41478 0.6241 0.98859 0.0
C1326 C 0.42607 0.63204 0.9674 0.0
C1327 C 0.4251 0.61438 0.00405 0.0
C1328 C 0.4464 0.61165 -0.00164 0.0
C1329 C 0.4579 0.61996 0.97727 0.0
C1330 C 0.44797 0.63022 0.96201 0.0
C1331 C 0.45693 0.60055 0.01453 0.0
C1332 C 0.4836 0.61348 0.01883 0.0
C1333 C 0.44082 0.57781 0.0262 0.0
C1334 C 0.41298 0.56172 0.02082 0.0
C1335 C 0.40503 0.55341 -0.00122 0.0
C1336 C 0.37879 0.53846 0.99373 0.0
C1337 C 0.3603 0.53153 0.0106 0.0
C1338 C 0.36802 0.5395 0.03258 0.0
C1339 C 0.39424 0.55448 0.03772 0.0
H1340 H 0.33999 0.51996 0.00665 0.0
H1341 H 0.59743 0.65475 0.04629 0.0
H1342 H 0.97372 0.5123 0.24891 0.0
H1343 H 0.95158 0.50064 0.21268 0.0
H1344 H 0.90457 0.42385 0.23542 0.0
H1345 H 0.92697 0.43531 0.27141 0.0
H1346 H 0.91396 0.42573 0.19037 0.0
H1347 H 0.88405 0.46441 0.2436 0.0
H1348 H 0.88917 0.49778 0.26974 0.0
H1349 H 0.91551 0.5515 0.21596 0.0
H1350 H 0.91096 0.5185 0.18956 0.0
H1351 H 0.79841 0.38808 0.1276 0.0
H1352 H 0.82965 0.39808 0.15793 0.0
H1353 H 0.87418 0.4745 0.13366 0.0
H1354 H 0.84314 0.46483 0.10355 0.0
H1355 H 0.86776 0.47325 0.1783 0.0
H1356 H 0.89417 0.43235 0.12436 0.0
H1357 H 0.88813 0.39797 0.09908 0.0
H1358 H 0.86666 0.34711 0.15481 0.0
H1359 H 0.87223 0.38112 0.1804 0.0
C1360 C 0.95939 0.49275 0.24583 0.0
C1361 C 0.9518 0.47477 0.26301 0.0
C1362 C 0.9466 0.48614 0.22522 0.0
C1363 C 0.92602 0.4615 0.22158 0.0
C1364 C 0.92026 0.44298 0.23791 0.0
C1365 C 0.93301 0.44957 0.25848 0.0
C1366 C 0.90829 0.4558 0.20232 0.0
C1367 C 0.90376 0.43602 0.18775 0.0
C1368 C 0.89504 0.46929 0.19889 0.0
C1369 C 0.89744 0.48907 0.21466 0.0
C1370 C 0.8911 0.48338 0.23738 0.0
C1371 C 0.89389 0.50222 0.25224 0.0
C1372 C 0.90272 0.52676 0.24453 0.0
C1373 C 0.90871 0.53249 0.22192 0.0
C1374 C 0.90604 0.51373 0.207 0.0
C1375 C 0.8148 0.40703 0.12877 0.0
C1376 C 0.81824 0.42563 0.11311 0.0
C1377 C 0.83273 0.41267 0.14602 0.0
C1378 C 0.85441 0.43697 0.14789 0.0
C1379 C 0.85765 0.45561 0.1325 0.0
C1380 C 0.83984 0.45001 0.11526 0.0
C1381 C 0.87353 0.44328 0.16614 0.0
C1382 C 0.87815 0.4631 0.18069 0.0
C1383 C 0.88665 0.42967 0.1696 0.0
C1384 C 0.88337 0.40922 0.15426 0.0
C1385 C 0.88795 0.41378 0.1312 0.0
C1386 C 0.88466 0.39437 0.11682 0.0
C1387 C 0.87695 0.37036 0.12532 0.0
C1388 C 0.8726 0.36572 0.14824 0.0
C1389 C 0.87584 0.38506 0.16269 0.0
H1390 H 0.87441 0.35535 0.11416 0.0
H1391 H 0.90486 0.54132 0.25605 0.0
loop_
_geom_bond_atom_site_label_1
_geom_bond_atom_site_label_2
_geom_bond_distance
_geom_bond_site_symmetry_2
_ccdc_geom_bond_type
H0 C6 0.930 . S
H1 C9 0.931 . S
H2 C11 0.931 . S
H3 C13 0.930 . S
H4 C15 0.930 . S
H5 C17 0.931 1_455 S
C6 H0 0.930 . S
C6 C7 1.380 . S
C6 C8 1.394 . S
C7 C6 1.380 . S
C7 C11 1.382 . S
C8 C6 1.394 . S
C8 C9 1.400 . S
C9 H1 0.931 . S
C9 C8 1.400 . S
C9 C10 1.375 . S
C10 C9 1.375 . S
C10 C11 1.415 . S
C10 C12 1.501 1_455 S
C11 H2 0.931 . S
C11 C7 1.382 . S
C11 C10 1.415 . S
C12 C10 1.501 1_655 S
C12 C13 1.384 . S
C12 C17 1.408 . S
C13 H3 0.930 . S
C13 C12 1.384 . S
C13 C14 1.389 . S
C14 C13 1.389 . S
C14 C15 1.405 . S
C15 H4 0.930 . S
C15 C14 1.405 . S
C15 C16 1.364 . S
C16 C15 1.364 . S
C16 C17 1.400 . S
C17 H5 0.931 1_655 S
C17 C12 1.408 . S
C17 C16 1.400 . S
H18 C24 0.930 . S
H19 C27 0.931 . S
H20 C29 0.931 . S
H21 C31 0.930 . S
H22 C33 0.930 . S
H23 C35 0.931 1_545 S
C24 H18 0.930 . S
C24 C25 1.380 . S
C24 C26 1.394 . S
C25 C24 1.380 . S
C25 C29 1.382 . S
C26 C24 1.394 . S
C26 C27 1.400 . S
C27 H19 0.931 . S
C27 C26 1.400 . S
C27 C28 1.375 . S
C28 C27 1.375 . S
C28 C29 1.415 . S
C28 C30 1.501 1_545 S
C29 H20 0.931 . S
C29 C25 1.382 . S
C29 C28 1.415 . S
C30 C28 1.501 1_565 S
C30 C31 1.384 . S
C30 C35 1.408 . S
C31 H21 0.930 . S
C31 C30 1.384 . S
C31 C32 1.389 . S
C32 C31 1.389 . S
C32 C33 1.405 . S
C33 H22 0.930 . S
C33 C32 1.405 . S
C33 C34 1.364 . S
C34 C33 1.364 . S
C34 C35 1.400 . S
C35 H23 0.931 1_565 S
C35 C30 1.408 . S
C35 C34 1.400 . S
H36 C42 0.930 . S
H37 C45 0.931 . S
H38 C47 0.931 . S
H39 C49 0.930 . S
H40 C51 0.930 . S
H41 C53 0.931 . S
C42 H36 0.930 . S
C42 C43 1.380 . S
C42 C44 1.394 . S
C43 C42 1.380 . S
C43 C47 1.382 . S
C44 C42 1.394 . S
C44 C45 1.400 . S
C45 H37 0.931 . S
C45 C44 1.400 . S
C45 C46 1.375 . S
C46 C45 1.375 . S
C46 C47 1.415 . S
C46 C48 1.501 . S
C47 H38 0.931 . S
C47 C43 1.382 . S
C47 C46 1.415 . S
C48 C46 1.501 . S
C48 C49 1.384 . S
C48 C53 1.408 . S
C49 H39 0.930 . S
C49 C48 1.384 . S
C49 C50 1.389 . S
C50 C49 1.389 . S
C50 C51 1.405 . S
C51 H40 0.930 . S
C51 C50 1.405 . S
C51 C52 1.364 . S
C52 C51 1.364 . S
C52 C53 1.400 . S
C53 H41 0.931 . S
C53 C48 1.408 . S
C53 C52 1.400 . S
H54 C60 0.930 . S
H55 C63 0.931 . S
H56 C65 0.931 . S
H57 C67 0.930 . S
H58 C69 0.930 . S
H59 C71 0.935 . S
C60 H54 0.930 . S
C60 C61 1.380 . S
C60 C62 1.394 . S
C61 C60 1.380 . S
C61 C65 1.382 . S
C62 C60 1.394 . S
C62 C63 1.400 . S
C63 H55 0.931 . S
C63 C62 1.400 . S
C63 C64 1.375 . S
C64 C63 1.375 . S
C64 C65 1.415 . S
C64 C66 1.501 1_455 S
C65 H56 0.931 . S
C65 C61 1.382 . S
C65 C64 1.415 . S
C66 C64 1.501 1_655 S
C66 C67 1.384 . S
C66 C71 1.408 . S
C67 H57 0.930 . S
C67 C66 1.384 . S
C67 C68 1.389 . S
C68 C67 1.389 . S
C68 C69 1.405 . S
C69 H58 0.930 . S
C69 C68 1.405 . S
C69 C70 1.364 . S
C70 C69 1.364 . S
C70 C71 1.400 . S
C71 H59 0.935 . S
C71 C66 1.408 . S
C71 C70 1.400 . S
H72 C78 0.930 . S
H73 C81 0.931 . S
H74 C83 0.932 1_545 S
H75 C85 0.930 . S
H76 C87 0.930 . S
H77 C89 0.931 . S
C78 H72 0.930 . S
C78 C79 1.380 . S
C78 C80 1.394 1_554 S
C79 C78 1.380 . S
C79 C83 1.382 . S
C80 C78 1.394 1_556 S
C80 C81 1.400 . S
C81 H73 0.931 . S
C81 C80 1.400 . S
C81 C82 1.375 . S
C82 C81 1.375 . S
C82 C83 1.415 1_556 S
C82 C84 1.501 1_565 S
C83 H74 0.932 1_565 S
C83 C79 1.382 . S
C83 C82 1.415 1_554 S
C84 C82 1.501 1_545 S
C84 C85 1.384 1_556 S
C84 C89 1.408 . S
C85 H75 0.930 . S
C85 C84 1.384 1_554 S
C85 C86 1.389 1_554 S
C86 C85 1.389 1_556 S
C86 C87 1.405 . S
C87 H76 0.930 . S
C87 C86 1.405 . S
C87 C88 1.364 . S
C88 C87 1.364 . S
C88 C89 1.400 . S
C89 H77 0.931 . S
C89 C84 1.408 . S
C89 C88 1.400 . S
H90 C96 0.930 . S
H91 C99 0.931 . S
H92 C101 0.931 . S
H93 C103 0.930 . S
H94 C105 0.930 . S
H95 C107 0.931 . S
C96 H90 0.930 . S
C96 C97 1.380 . S
C96 C98 1.394 . S
C97 C96 1.380 . S
C97 C101 1.382 . S
C98 C96 1.394 . S
C98 C99 1.400 . S
C99 H91 0.931 . S
C99 C98 1.400 . S
C99 C100 1.375 . S
C100 C99 1.375 . S
C100 C101 1.415 . S
C100 C102 1.501 . S
C101 H92 0.931 . S
C101 C97 1.382 . S
C101 C100 1.415 . S
C102 C100 1.501 . S
C102 C103 1.384 . S
C102 C107 1.408 . S
C103 H93 0.930 . S
C103 C102 1.384 . S
C103 C104 1.389 . S
C104 C103 1.389 . S
C104 C105 1.405 . S
C105 H94 0.930 . S
C105 C104 1.405 . S
C105 C106 1.364 . S
C106 C105 1.364 . S
C106 C107 1.400 . S
C107 H95 0.931 . S
C107 C102 1.408 . S
C107 C106 1.400 . S
C108 O109 1.306 . S
C108 O111 1.160 . S
O109 C108 1.306 . S
O109 Cd110 2.228 . S
Cd110 O109 2.228 . S
Cd110 O114 2.273 . S
Cd110 O118 2.277 . S
O111 C108 1.160 . S
O111 Cd112 2.203 . S
Cd112 O111 2.203 . S
Cd112 O114 2.411 . S
Cd112 O115 2.333 . S
Cd112 O116 2.352 . S
Cd112 O120 2.277 . S
Cd112 O121 2.356 . S
C113 O118 1.209 . S
C113 O120 1.226 . S
O114 Cd110 2.273 . S
O114 Cd112 2.411 . S
O114 C117 1.320 . S
O115 Cd112 2.333 . S
O115 C117 1.214 . S
O116 Cd112 2.352 . S
O116 C119 1.258 . S
C117 O114 1.320 . S
C117 O115 1.214 . S
O118 Cd110 2.277 . S
O118 C113 1.209 . S
C119 O116 1.258 . S
C119 O121 1.282 . S
O120 Cd112 2.277 . S
O120 C113 1.226 . S
O121 Cd112 2.356 . S
O121 C119 1.282 . S
C122 O123 1.306 . S
C122 O125 1.160 . S
O123 C122 1.306 . S
O123 Cd124 2.228 . S
Cd124 O123 2.228 . S
Cd124 O128 2.273 . S
Cd124 O132 2.277 . S
O125 C122 1.160 . S
O125 Cd126 2.203 . S
Cd126 O125 2.203 . S
Cd126 O128 2.411 . S
Cd126 O129 2.333 . S
Cd126 O130 2.352 . S
Cd126 O134 2.277 . S
Cd126 O135 2.356 . S
C127 O132 1.209 . S
C127 O134 1.226 . S
O128 Cd124 2.273 . S
O128 Cd126 2.411 . S
O128 C131 1.320 . S
O129 Cd126 2.333 . S
O129 C131 1.214 . S
O130 Cd126 2.352 . S
O130 C133 1.258 . S
C131 O128 1.320 . S
C131 O129 1.214 . S
O132 Cd124 2.277 . S
O132 C127 1.209 . S
C133 O130 1.258 . S
C133 O135 1.282 . S
O134 Cd126 2.277 . S
O134 C127 1.226 . S
O135 Cd126 2.356 . S
O135 C133 1.282 . S
C136 O137 1.306 . S
C136 O139 1.160 . S
O137 C136 1.306 . S
O137 Cd138 2.228 . S
Cd138 O137 2.228 . S
Cd138 O142 2.273 . S
Cd138 O146 2.277 . S
O139 C136 1.160 . S
O139 Cd140 2.203 . S
Cd140 O139 2.203 . S
Cd140 O142 2.411 . S
Cd140 O143 2.333 . S
Cd140 O144 2.352 . S
Cd140 O148 2.277 . S
Cd140 O149 2.356 . S
C141 O146 1.209 . S
C141 O148 1.226 . S
O142 Cd138 2.273 . S
O142 Cd140 2.411 . S
O142 C145 1.320 . S
O143 Cd140 2.333 . S
O143 C145 1.214 . S
O144 Cd140 2.352 . S
O144 C147 1.258 . S
C145 O142 1.320 . S
C145 O143 1.214 . S
O146 Cd138 2.277 . S
O146 C141 1.209 . S
C147 O144 1.258 . S
C147 O149 1.282 . S
O148 Cd140 2.277 . S
O148 C141 1.226 . S
O149 Cd140 2.356 . S
O149 C147 1.282 . S
C150 O151 1.306 . S
C150 O153 1.160 . S
O151 C150 1.306 . S
O151 Cd152 2.228 . S
Cd152 O151 2.228 . S
Cd152 O156 2.273 . S
Cd152 O160 2.277 . S
O153 C150 1.160 . S
O153 Cd154 2.203 . S
Cd154 O153 2.203 . S
Cd154 O156 2.411 . S
Cd154 O157 2.333 . S
Cd154 O158 2.352 . S
Cd154 O162 2.277 . S
Cd154 O163 2.356 . S
C155 O160 1.209 . S
C155 O162 1.226 . S
O156 Cd152 2.273 . S
O156 Cd154 2.411 . S
O156 C159 1.320 . S
O157 Cd154 2.333 . S
O157 C159 1.214 . S
O158 Cd154 2.352 . S
O158 C161 1.258 . S
C159 O156 1.320 . S
C159 O157 1.214 . S
O160 Cd152 2.277 . S
O160 C155 1.209 . S
C161 O158 1.258 . S
C161 O163 1.282 . S
O162 Cd154 2.277 . S
O162 C155 1.226 . S
O163 Cd154 2.356 . S
O163 C161 1.282 . S
C164 O165 1.306 . S
C164 O167 1.160 . S
O165 C164 1.306 . S
O165 Cd166 2.228 . S
Cd166 O165 2.228 . S
Cd166 O170 2.273 . S
Cd166 O174 2.277 . S
O167 C164 1.160 . S
O167 Cd168 2.203 . S
Cd168 O167 2.203 . S
Cd168 O170 2.411 . S
Cd168 O171 2.333 . S
Cd168 O172 2.352 . S
Cd168 O176 2.277 . S
Cd168 O177 2.356 . S
C169 O174 1.209 . S
C169 O176 1.226 . S
O170 Cd166 2.273 . S
O170 Cd168 2.411 . S
O170 C173 1.320 . S
O171 Cd168 2.333 . S
O171 C173 1.214 . S
O172 Cd168 2.352 . S
O172 C175 1.258 . S
C173 O170 1.320 . S
C173 O171 1.214 . S
O174 Cd166 2.277 . S
O174 C169 1.209 . S
C175 O172 1.258 . S
C175 O177 1.282 . S
O176 Cd168 2.277 . S
O176 C169 1.226 . S
O177 Cd168 2.356 . S
O177 C175 1.282 . S
C178 O179 1.306 . S
C178 O181 1.160 . S
O179 C178 1.306 . S
O179 Cd180 2.228 . S
Cd180 O179 2.228 . S
Cd180 O184 2.273 . S
Cd180 O188 2.277 . S
O181 C178 1.160 . S
O181 Cd182 2.203 . S
Cd182 O181 2.203 . S
Cd182 O184 2.411 . S
Cd182 O185 2.333 . S
Cd182 O186 2.352 . S
Cd182 O190 2.277 . S
Cd182 O191 2.356 . S
C183 O188 1.209 . S
C183 O190 1.226 . S
O184 Cd180 2.273 . S
O184 Cd182 2.411 . S
O184 C187 1.320 . S
O185 Cd182 2.333 . S
O185 C187 1.214 . S
O186 Cd182 2.352 . S
O186 C189 1.258 . S
C187 O184 1.320 . S
C187 O185 1.214 . S
O188 Cd180 2.277 . S
O188 C183 1.209 . S
C189 O186 1.258 . S
C189 O191 1.282 . S
O190 Cd182 2.277 . S
O190 C183 1.226 . S
O191 Cd182 2.356 . S
O191 C189 1.282 . S
H192 C210 0.951 . S
H193 C212 0.951 . S
H194 C214 0.950 . S
H195 C215 0.950 . S
H196 C217 0.950 . S
H197 C220 0.950 . S
H198 C221 0.950 . S
H199 C223 0.950 . S
H200 C224 0.950 . S
H201 C225 0.951 . S
H202 C227 0.951 . S
H203 C229 0.950 . S
H204 C230 0.950 . S
H205 C232 0.950 . S
H206 C235 0.950 . S
H207 C236 0.950 . S
H208 C238 0.950 . S
H209 C239 0.950 . S
C210 H192 0.951 . S
C210 C211 1.366 . S
C210 C212 1.388 . S
C211 C210 1.366 . S
C211 C215 1.385 . S
C212 H193 0.951 . S
C212 C210 1.388 . S
C212 C213 1.366 . S
C213 C212 1.366 . S
C213 C214 1.414 . S
C213 C216 1.499 . S
C214 H194 0.950 . S
C214 C213 1.414 . S
C214 C215 1.374 . S
C215 H195 0.950 . S
C215 C211 1.385 . S
C215 C214 1.374 . S
C216 C213 1.499 . S
C216 C217 1.373 . S
C216 C218 1.389 . S
C217 H196 0.950 . S
C217 C216 1.373 . S
C217 C233 1.377 . S
C218 C216 1.389 . S
C218 C219 1.524 . S
C218 C232 1.377 . S
C219 C218 1.524 . S
C219 C220 1.397 . S
C219 C224 1.363 . S
C220 H197 0.950 . S
C220 C219 1.397 . S
C220 C221 1.334 . S
C221 H198 0.950 . S
C221 C220 1.334 . S
C221 C222 1.287 . S
C222 C221 1.287 . S
C222 C223 1.524 . S
C222 H241 0.913 . S
C223 H199 0.950 . S
C223 C222 1.524 . S
C223 C224 1.415 . S
C224 H200 0.950 . S
C224 C219 1.363 . S
C224 C223 1.415 . S
C225 H201 0.951 . S
C225 C226 1.366 . S
C225 C227 1.388 . S
C226 C225 1.366 . S
C226 C230 1.385 . S
C227 H202 0.951 . S
C227 C225 1.388 . S
C227 C228 1.366 . S
C228 C227 1.366 . S
C228 C229 1.414 . S
C228 C231 1.499 . S
C229 H203 0.950 . S
C229 C228 1.414 . S
C229 C230 1.374 . S
C230 H204 0.950 . S
C230 C226 1.385 . S
C230 C229 1.374 . S
C231 C228 1.499 . S
C231 C232 1.373 . S
C231 C233 1.389 . S
C232 H205 0.950 . S
C232 C218 1.377 . S
C232 C231 1.373 . S
C233 C217 1.377 . S
C233 C231 1.389 . S
C233 C234 1.524 . S
C234 C233 1.524 . S
C234 C235 1.397 . S
C234 C239 1.363 . S
C235 H206 0.950 . S
C235 C234 1.397 . S
C235 C236 1.334 . S
C236 H207 0.950 . S
C236 C235 1.334 . S
C236 C237 1.287 . S
C237 C236 1.287 . S
C237 C238 1.524 . S
C237 H240 0.999 . S
C238 H208 0.950 . S
C238 C237 1.524 . S
C238 C239 1.415 . S
C239 H209 0.950 . S
C239 C234 1.363 . S
C239 C238 1.415 . S
H240 C237 0.999 . S
H241 C222 0.913 . S
H242 C260 0.951 . S
H243 C262 0.951 . S
H244 C264 0.950 . S
H245 C265 0.950 . S
H246 C267 0.950 . S
H247 C270 0.950 . S
H248 C271 0.950 . S
H249 C273 0.950 . S
H250 C274 0.950 . S
H251 C275 0.951 . S
H252 C277 0.951 . S
H253 C279 0.950 . S
H254 C280 0.950 . S
H255 C282 0.950 . S
H256 C285 0.950 . S
H257 C286 0.950 . S
H258 C288 0.950 . S
H259 C289 0.950 . S
C260 H242 0.951 . S
C260 C261 1.366 . S
C260 C262 1.388 . S
C261 C260 1.366 . S
C261 C265 1.385 . S
C262 H243 0.951 . S
C262 C260 1.388 . S
C262 C263 1.366 . S
C263 C262 1.366 . S
C263 C264 1.414 . S
C263 C266 1.499 . S
C264 H244 0.950 . S
C264 C263 1.414 . S
C264 C265 1.374 . S
C265 H245 0.950 . S
C265 C261 1.385 . S
C265 C264 1.374 . S
C266 C263 1.499 . S
C266 C267 1.373 . S
C266 C268 1.389 . S
C267 H246 0.950 . S
C267 C266 1.373 . S
C267 C283 1.377 . S
C268 C266 1.389 . S
C268 C269 1.524 . S
C268 C282 1.377 . S
C269 C268 1.524 . S
C269 C270 1.397 . S
C269 C274 1.363 . S
C270 H247 0.950 . S
C270 C269 1.397 . S
C270 C271 1.334 . S
C271 H248 0.950 . S
C271 C270 1.334 . S
C271 C272 1.287 . S
C272 C271 1.287 . S
C272 C273 1.524 . S
C272 H291 0.913 . S
C273 H249 0.950 . S
C273 C272 1.524 . S
C273 C274 1.415 . S
C274 H250 0.950 . S
C274 C269 1.363 . S
C274 C273 1.415 . S
C275 H251 0.951 . S
C275 C276 1.366 . S
C275 C277 1.388 . S
C276 C275 1.366 . S
C276 C280 1.385 . S
C277 H252 0.951 . S
C277 C275 1.388 . S
C277 C278 1.366 . S
C278 C277 1.366 . S
C278 C279 1.414 . S
C278 C281 1.499 . S
C279 H253 0.950 . S
C279 C278 1.414 . S
C279 C280 1.374 . S
C280 H254 0.950 . S
C280 C276 1.385 . S
C280 C279 1.374 . S
C281 C278 1.499 . S
C281 C282 1.373 . S
C281 C283 1.389 . S
C282 H255 0.950 . S
C282 C268 1.377 . S
C282 C281 1.373 . S
C283 C267 1.377 . S
C283 C281 1.389 . S
C283 C284 1.524 . S
C284 C283 1.524 . S
C284 C285 1.397 . S
C284 C289 1.363 . S
C285 H256 0.950 . S
C285 C284 1.397 . S
C285 C286 1.334 . S
C286 H257 0.950 . S
C286 C285 1.334 . S
C286 C287 1.287 . S
C287 C286 1.287 . S
C287 C288 1.524 . S
C287 H290 0.999 . S
C288 H258 0.950 . S
C288 C287 1.524 . S
C288 C289 1.415 . S
C289 H259 0.950 . S
C289 C284 1.363 . S
C289 C288 1.415 . S
H290 C287 0.999 . S
H291 C272 0.913 . S
H292 C310 0.951 . S
H293 C312 0.951 . S
H294 C314 0.950 . S
H295 C315 0.950 . S
H296 C317 0.950 . S
H297 C320 0.950 . S
H298 C321 0.950 . S
H299 C323 0.950 . S
H300 C324 0.950 . S
H301 C325 0.951 . S
H302 C327 0.951 . S
H303 C329 0.950 . S
H304 C330 0.950 . S
H305 C332 0.950 . S
H306 C335 0.950 . S
H307 C336 0.950 . S
H308 C338 0.950 . S
H309 C339 0.950 . S
C310 H292 0.951 . S
C310 C311 1.366 . S
C310 C312 1.388 . S
C311 C310 1.366 . S
C311 C315 1.385 . S
C312 H293 0.951 . S
C312 C310 1.388 . S
C312 C313 1.366 . S
C313 C312 1.366 . S
C313 C314 1.414 . S
C313 C316 1.499 . S
C314 H294 0.950 . S
C314 C313 1.414 . S
C314 C315 1.374 . S
C315 H295 0.950 . S
C315 C311 1.385 . S
C315 C314 1.374 . S
C316 C313 1.499 . S
C316 C317 1.373 . S
C316 C318 1.389 . S
C317 H296 0.950 . S
C317 C316 1.373 . S
C317 C333 1.377 . S
C318 C316 1.389 . S
C318 C319 1.524 . S
C318 C332 1.377 . S
C319 C318 1.524 . S
C319 C320 1.397 . S
C319 C324 1.363 . S
C320 H297 0.950 . S
C320 C319 1.397 . S
C320 C321 1.334 . S
C321 H298 0.950 . S
C321 C320 1.334 . S
C321 C322 1.287 . S
C322 C321 1.287 . S
C322 C323 1.524 . S
C322 H341 0.913 . S
C323 H299 0.950 . S
C323 C322 1.524 . S
C323 C324 1.415 . S
C324 H300 0.950 . S
C324 C319 1.363 . S
C324 C323 1.415 . S
C325 H301 0.951 . S
C325 C326 1.366 . S
C325 C327 1.388 . S
C326 C325 1.366 . S
C326 C330 1.385 . S
C327 H302 0.951 . S
C327 C325 1.388 . S
C327 C328 1.366 . S
C328 C327 1.366 . S
C328 C329 1.414 . S
C328 C331 1.499 . S
C329 H303 0.950 . S
C329 C328 1.414 . S
C329 C330 1.374 . S
C330 H304 0.950 . S
C330 C326 1.385 . S
C330 C329 1.374 . S
C331 C328 1.499 . S
C331 C332 1.373 . S
C331 C333 1.389 . S
C332 H305 0.950 . S
C332 C318 1.377 . S
C332 C331 1.373 . S
C333 C317 1.377 . S
C333 C331 1.389 . S
C333 C334 1.524 . S
C334 C333 1.524 . S
C334 C335 1.397 . S
C334 C339 1.363 . S
C335 H306 0.950 . S
C335 C334 1.397 . S
C335 C336 1.334 . S
C336 H307 0.950 . S
C336 C335 1.334 . S
C336 C337 1.287 . S
C337 C336 1.287 . S
C337 C338 1.524 . S
C337 H340 0.999 . S
C338 H308 0.950 . S
C338 C337 1.524 . S
C338 C339 1.415 . S
C339 H309 0.950 . S
C339 C334 1.363 . S
C339 C338 1.415 . S
H340 C337 0.999 . S
H341 C322 0.913 . S
H342 C360 0.951 . S
H343 C362 0.951 . S
H344 C364 0.950 . S
H345 C365 0.950 . S
H346 C367 0.950 . S
H347 C370 0.950 . S
H348 C371 0.950 . S
H349 C373 0.950 . S
H350 C374 0.950 . S
H351 C375 0.951 . S
H352 C377 0.951 . S
H353 C379 0.950 . S
H354 C380 0.950 . S
H355 C382 0.950 . S
H356 C385 0.950 . S
H357 C386 0.950 . S
H358 C388 0.950 . S
H359 C389 0.950 . S
C360 H342 0.951 . S
C360 C361 1.366 . S
C360 C362 1.388 . S
C361 C360 1.366 . S
C361 C365 1.385 . S
C362 H343 0.951 . S
C362 C360 1.388 . S
C362 C363 1.366 . S
C363 C362 1.366 . S
C363 C364 1.414 . S
C363 C366 1.499 . S
C364 H344 0.950 . S
C364 C363 1.414 . S
C364 C365 1.374 . S
C365 H345 0.950 . S
C365 C361 1.385 . S
C365 C364 1.374 . S
C366 C363 1.499 . S
C366 C367 1.373 . S
C366 C368 1.389 . S
C367 H346 0.950 . S
C367 C366 1.373 . S
C367 C383 1.377 . S
C368 C366 1.389 . S
C368 C369 1.524 . S
C368 C382 1.377 . S
C369 C368 1.524 . S
C369 C370 1.397 . S
C369 C374 1.363 . S
C370 H347 0.950 . S
C370 C369 1.397 . S
C370 C371 1.334 . S
C371 H348 0.950 . S
C371 C370 1.334 . S
C371 C372 1.287 . S
C372 C371 1.287 . S
C372 C373 1.524 . S
C372 H391 0.913 . S
C373 H349 0.950 . S
C373 C372 1.524 . S
C373 C374 1.415 . S
C374 H350 0.950 . S
C374 C369 1.363 . S
C374 C373 1.415 . S
C375 H351 0.951 . S
C375 C376 1.366 . S
C375 C377 1.388 . S
C376 C375 1.366 . S
C376 C380 1.385 . S
C377 H352 0.951 . S
C377 C375 1.388 . S
C377 C378 1.366 . S
C378 C377 1.366 . S
C378 C379 1.414 . S
C378 C381 1.499 . S
C379 H353 0.950 . S
C379 C378 1.414 . S
C379 C380 1.374 . S
C380 H354 0.950 . S
C380 C376 1.385 . S
C380 C379 1.374 . S
C381 C378 1.499 . S
C381 C382 1.373 . S
C381 C383 1.389 . S
C382 H355 0.950 . S
C382 C368 1.377 . S
C382 C381 1.373 . S
C383 C367 1.377 . S
C383 C381 1.389 . S
C383 C384 1.524 . S
C384 C383 1.524 . S
C384 C385 1.397 . S
C384 C389 1.363 . S
C385 H356 0.950 . S
C385 C384 1.397 . S
C385 C386 1.334 . S
C386 H357 0.950 . S
C386 C385 1.334 . S
C386 C387 1.287 . S
C387 C386 1.287 . S
C387 C388 1.524 . S
C387 H390 0.999 . S
C388 H358 0.950 . S
C388 C387 1.524 . S
C388 C389 1.415 . S
C389 H359 0.950 . S
C389 C384 1.363 . S
C389 C388 1.415 . S
H390 C387 0.999 . S
H391 C372 0.913 . S
H392 C410 0.951 . S
H393 C412 0.951 . S
H394 C414 0.950 . S
H395 C415 0.950 . S
H396 C417 0.950 . S
H397 C420 0.950 . S
H398 C421 0.950 1_554 S
H399 C423 0.950 . S
H400 C424 0.950 . S
H401 C425 0.951 . S
H402 C427 0.951 . S
H403 C429 0.950 . S
H404 C430 0.950 . S
H405 C432 0.950 . S
H406 C435 0.950 . S
H407 C436 0.950 . S
H408 C438 0.950 . S
H409 C439 0.950 . S
C410 H392 0.951 . S
C410 C411 1.366 . S
C410 C412 1.388 . S
C411 C410 1.366 . S
C411 C415 1.385 . S
C412 H393 0.951 . S
C412 C410 1.388 . S
C412 C413 1.366 . S
C413 C412 1.366 . S
C413 C414 1.414 . S
C413 C416 1.499 . S
C414 H394 0.950 . S
C414 C413 1.414 . S
C414 C415 1.374 . S
C415 H395 0.950 . S
C415 C411 1.385 . S
C415 C414 1.374 . S
C416 C413 1.499 . S
C416 C417 1.373 . S
C416 C418 1.389 . S
C417 H396 0.950 . S
C417 C416 1.373 . S
C417 C433 1.377 . S
C418 C416 1.389 . S
C418 C419 1.524 . S
C418 C432 1.377 . S
C419 C418 1.524 . S
C419 C420 1.397 . S
C419 C424 1.363 . S
C420 H397 0.950 . S
C420 C419 1.397 . S
C420 C421 1.334 . S
C421 H398 0.950 1_556 S
C421 C420 1.334 . S
C421 C422 1.287 . S
C422 C421 1.287 . S
C422 C423 1.524 . S
C422 H441 0.913 . S
C423 H399 0.950 . S
C423 C422 1.524 . S
C423 C424 1.415 . S
C424 H400 0.950 . S
C424 C419 1.363 . S
C424 C423 1.415 . S
C425 H401 0.951 . S
C425 C426 1.366 . S
C425 C427 1.388 . S
C426 C425 1.366 . S
C426 C430 1.385 . S
C427 H402 0.951 . S
C427 C425 1.388 . S
C427 C428 1.366 . S
C428 C427 1.366 . S
C428 C429 1.414 . S
C428 C431 1.499 . S
C429 H403 0.950 . S
C429 C428 1.414 . S
C429 C430 1.374 . S
C430 H404 0.950 . S
C430 C426 1.385 . S
C430 C429 1.374 . S
C431 C428 1.499 . S
C431 C432 1.373 . S
C431 C433 1.389 . S
C432 H405 0.950 . S
C432 C418 1.377 . S
C432 C431 1.373 . S
C433 C417 1.377 . S
C433 C431 1.389 . S
C433 C434 1.524 . S
C434 C433 1.524 . S
C434 C435 1.397 . S
C434 C439 1.363 . S
C435 H406 0.950 . S
C435 C434 1.397 . S
C435 C436 1.334 . S
C436 H407 0.950 . S
C436 C435 1.334 . S
C436 C437 1.287 . S
C437 C436 1.287 . S
C437 C438 1.524 . S
C437 H440 0.999 . S
C438 H408 0.950 . S
C438 C437 1.524 . S
C438 C439 1.415 . S
C439 H409 0.950 . S
C439 C434 1.363 . S
C439 C438 1.415 . S
H440 C437 0.999 . S
H441 C422 0.913 . S
H442 C460 0.951 . S
H443 C462 0.951 . S
H444 C464 0.950 . S
H445 C465 0.950 . S
H446 C467 0.950 . S
H447 C470 0.950 . S
H448 C471 0.950 . S
H449 C473 0.950 . S
H450 C474 0.950 . S
H451 C475 0.951 . S
H452 C477 0.951 . S
H453 C479 0.950 . S
H454 C480 0.950 . S
H455 C482 0.950 . S
H456 C485 0.950 . S
H457 C486 0.950 . S
H458 C488 0.950 . S
H459 C489 0.950 . S
C460 H442 0.951 . S
C460 C461 1.366 . S
C460 C462 1.388 . S
C461 C460 1.366 . S
C461 C465 1.385 . S
C462 H443 0.951 . S
C462 C460 1.388 . S
C462 C463 1.366 . S
C463 C462 1.366 . S
C463 C464 1.414 . S
C463 C466 1.499 . S
C464 H444 0.950 . S
C464 C463 1.414 . S
C464 C465 1.374 . S
C465 H445 0.950 . S
C465 C461 1.385 . S
C465 C464 1.374 . S
C466 C463 1.499 . S
C466 C467 1.373 . S
C466 C468 1.389 . S
C467 H446 0.950 . S
C467 C466 1.373 . S
C467 C483 1.377 . S
C468 C466 1.389 . S
C468 C469 1.524 . S
C468 C482 1.377 . S
C469 C468 1.524 . S
C469 C470 1.397 . S
C469 C474 1.363 . S
C470 H447 0.950 . S
C470 C469 1.397 . S
C470 C471 1.334 . S
C471 H448 0.950 . S
C471 C470 1.334 . S
C471 C472 1.287 . S
C472 C471 1.287 . S
C472 C473 1.524 . S
C472 H491 0.913 . S
C473 H449 0.950 . S
C473 C472 1.524 . S
C473 C474 1.415 . S
C474 H450 0.950 . S
C474 C469 1.363 . S
C474 C473 1.415 . S
C475 H451 0.951 . S
C475 C476 1.366 . S
C475 C477 1.388 . S
C476 C475 1.366 . S
C476 C480 1.385 . S
C477 H452 0.951 . S
C477 C475 1.388 . S
C477 C478 1.366 . S
C478 C477 1.366 . S
C478 C479 1.414 . S
C478 C481 1.499 . S
C479 H453 0.950 . S
C479 C478 1.414 . S
C479 C480 1.374 . S
C480 H454 0.950 . S
C480 C476 1.385 . S
C480 C479 1.374 . S
C481 C478 1.499 . S
C481 C482 1.373 . S
C481 C483 1.389 . S
C482 H455 0.950 . S
C482 C468 1.377 . S
C482 C481 1.373 . S
C483 C467 1.377 . S
C483 C481 1.389 . S
C483 C484 1.524 . S
C484 C483 1.524 . S
C484 C485 1.397 . S
C484 C489 1.363 . S
C485 H456 0.950 . S
C485 C484 1.397 . S
C485 C486 1.334 . S
C486 H457 0.950 . S
C486 C485 1.334 . S
C486 C487 1.287 . S
C487 C486 1.287 . S
C487 C488 1.524 . S
C487 H490 0.999 . S
C488 H458 0.950 . S
C488 C487 1.524 . S
C488 C489 1.415 . S
C489 H459 0.950 . S
C489 C484 1.363 . S
C489 C488 1.415 . S
H490 C487 0.999 . S
H491 C472 0.913 . S
H492 C510 0.951 . S
H493 C512 0.951 . S
H494 C514 0.950 . S
H495 C515 0.950 . S
H496 C517 0.950 . S
H497 C520 0.950 . S
H498 C521 0.950 . S
H499 C523 0.950 . S
H500 C524 0.950 . S
H501 C525 0.951 . S
H502 C527 0.951 . S
H503 C529 0.950 . S
H504 C530 0.950 . S
H505 C532 0.950 . S
H506 C535 0.950 . S
H507 C536 0.950 . S
H508 C538 0.950 . S
H509 C539 0.950 . S
C510 H492 0.951 . S
C510 C511 1.366 . S
C510 C512 1.388 . S
C511 C510 1.366 . S
C511 C515 1.385 . S
C512 H493 0.951 . S
C512 C510 1.388 . S
C512 C513 1.366 . S
C513 C512 1.366 . S
C513 C514 1.414 . S
C513 C516 1.499 . S
C514 H494 0.950 . S
C514 C513 1.414 . S
C514 C515 1.374 . S
C515 H495 0.950 . S
C515 C511 1.385 . S
C515 C514 1.374 . S
C516 C513 1.499 . S
C516 C517 1.373 . S
C516 C518 1.389 . S
C517 H496 0.950 . S
C517 C516 1.373 . S
C517 C533 1.377 . S
C518 C516 1.389 . S
C518 C519 1.524 . S
C518 C532 1.377 . S
C519 C518 1.524 . S
C519 C520 1.397 . S
C519 C524 1.363 . S
C520 H497 0.950 . S
C520 C519 1.397 . S
C520 C521 1.334 . S
C521 H498 0.950 . S
C521 C520 1.334 . S
C521 C522 1.287 . S
C522 C521 1.287 . S
C522 C523 1.524 . S
C522 H541 0.913 . S
C523 H499 0.950 . S
C523 C522 1.524 . S
C523 C524 1.415 . S
C524 H500 0.950 . S
C524 C519 1.363 . S
C524 C523 1.415 . S
C525 H501 0.951 . S
C525 C526 1.366 . S
C525 C527 1.388 . S
C526 C525 1.366 . S
C526 C530 1.385 . S
C527 H502 0.951 . S
C527 C525 1.388 . S
C527 C528 1.366 . S
C528 C527 1.366 . S
C528 C529 1.414 . S
C528 C531 1.499 . S
C529 H503 0.950 . S
C529 C528 1.414 . S
C529 C530 1.374 . S
C530 H504 0.950 . S
C530 C526 1.385 . S
C530 C529 1.374 . S
C531 C528 1.499 . S
C531 C532 1.373 . S
C531 C533 1.389 . S
C532 H505 0.950 . S
C532 C518 1.377 . S
C532 C531 1.373 . S
C533 C517 1.377 . S
C533 C531 1.389 . S
C533 C534 1.524 . S
C534 C533 1.524 . S
C534 C535 1.397 . S
C534 C539 1.363 . S
C535 H506 0.950 . S
C535 C534 1.397 . S
C535 C536 1.334 . S
C536 H507 0.950 . S
C536 C535 1.334 . S
C536 C537 1.287 . S
C537 C536 1.287 . S
C537 C538 1.524 . S
C537 H540 0.999 . S
C538 H508 0.950 . S
C538 C537 1.524 . S
C538 C539 1.415 . S
C539 H509 0.950 . S
C539 C534 1.363 . S
C539 C538 1.415 . S
H540 C537 0.999 . S
H541 C522 0.913 . S
H542 C560 0.951 . S
H543 C562 0.951 . S
H544 C564 0.950 . S
H545 C565 0.950 . S
H546 C567 0.950 . S
H547 C570 0.950 . S
H548 C571 0.950 . S
H549 C573 0.950 . S
H550 C574 0.950 . S
H551 C575 0.951 . S
H552 C577 0.951 . S
H553 C579 0.950 . S
H554 C580 0.950 . S
H555 C582 0.950 . S
H556 C585 0.950 . S
H557 C586 0.950 . S
H558 C588 0.950 . S
H559 C589 0.950 . S
C560 H542 0.951 . S
C560 C561 1.366 . S
C560 C562 1.388 . S
C561 C560 1.366 . S
C561 C565 1.385 . S
C562 H543 0.951 . S
C562 C560 1.388 . S
C562 C563 1.366 . S
C563 C562 1.366 . S
C563 C564 1.414 . S
C563 C566 1.499 . S
C564 H544 0.950 . S
C564 C563 1.414 . S
C564 C565 1.374 . S
C565 H545 0.950 . S
C565 C561 1.385 . S
C565 C564 1.374 . S
C566 C563 1.499 . S
C566 C567 1.373 . S
C566 C568 1.389 . S
C567 H546 0.950 . S
C567 C566 1.373 . S
C567 C583 1.377 . S
C568 C566 1.389 . S
C568 C569 1.524 . S
C568 C582 1.377 . S
C569 C568 1.524 . S
C569 C570 1.397 . S
C569 C574 1.363 . S
C570 H547 0.950 . S
C570 C569 1.397 . S
C570 C571 1.334 . S
C571 H548 0.950 . S
C571 C570 1.334 . S
C571 C572 1.287 . S
C572 C571 1.287 . S
C572 C573 1.524 . S
C572 H591 0.913 . S
C573 H549 0.950 . S
C573 C572 1.524 . S
C573 C574 1.415 . S
C574 H550 0.950 . S
C574 C569 1.363 . S
C574 C573 1.415 . S
C575 H551 0.951 . S
C575 C576 1.366 . S
C575 C577 1.388 . S
C576 C575 1.366 . S
C576 C580 1.385 . S
C577 H552 0.951 . S
C577 C575 1.388 . S
C577 C578 1.366 . S
C578 C577 1.366 . S
C578 C579 1.414 . S
C578 C581 1.499 . S
C579 H553 0.950 . S
C579 C578 1.414 . S
C579 C580 1.374 . S
C580 H554 0.950 . S
C580 C576 1.385 . S
C580 C579 1.374 . S
C581 C578 1.499 . S
C581 C582 1.373 . S
C581 C583 1.389 . S
C582 H555 0.950 . S
C582 C568 1.377 . S
C582 C581 1.373 . S
C583 C567 1.377 . S
C583 C581 1.389 . S
C583 C584 1.524 . S
C584 C583 1.524 . S
C584 C585 1.397 . S
C584 C589 1.363 . S
C585 H556 0.950 . S
C585 C584 1.397 . S
C585 C586 1.334 . S
C586 H557 0.950 . S
C586 C585 1.334 . S
C586 C587 1.287 . S
C587 C586 1.287 . S
C587 C588 1.524 . S
C587 H590 0.999 . S
C588 H558 0.950 . S
C588 C587 1.524 . S
C588 C589 1.415 . S
C589 H559 0.950 . S
C589 C584 1.363 . S
C589 C588 1.415 . S
H590 C587 0.999 . S
H591 C572 0.913 . S
H592 C610 0.951 . S
H593 C612 0.951 . S
H594 C614 0.950 . S
H595 C615 0.950 . S
H596 C617 0.950 . S
H597 C620 0.950 . S
H598 C621 0.950 . S
H599 C623 0.950 . S
H600 C624 0.950 . S
H601 C625 0.951 . S
H602 C627 0.951 . S
H603 C629 0.950 . S
H604 C630 0.950 . S
H605 C632 0.950 . S
H606 C635 0.950 . S
H607 C636 0.950 . S
H608 C638 0.950 . S
H609 C639 0.950 . S
C610 H592 0.951 . S
C610 C611 1.366 . S
C610 C612 1.388 . S
C611 C610 1.366 . S
C611 C615 1.385 . S
C612 H593 0.951 . S
C612 C610 1.388 . S
C612 C613 1.366 . S
C613 C612 1.366 . S
C613 C614 1.414 . S
C613 C616 1.499 . S
C614 H594 0.950 . S
C614 C613 1.414 . S
C614 C615 1.374 . S
C615 H595 0.950 . S
C615 C611 1.385 . S
C615 C614 1.374 . S
C616 C613 1.499 . S
C616 C617 1.373 . S
C616 C618 1.389 . S
C617 H596 0.950 . S
C617 C616 1.373 . S
C617 C633 1.377 . S
C618 C616 1.389 . S
C618 C619 1.524 . S
C618 C632 1.377 . S
C619 C618 1.524 . S
C619 C620 1.397 . S
C619 C624 1.363 . S
C620 H597 0.950 . S
C620 C619 1.397 . S
C620 C621 1.334 . S
C621 H598 0.950 . S
C621 C620 1.334 . S
C621 C622 1.287 . S
C622 C621 1.287 . S
C622 C623 1.524 . S
C622 H641 0.913 . S
C623 H599 0.950 . S
C623 C622 1.524 . S
C623 C624 1.415 . S
C624 H600 0.950 . S
C624 C619 1.363 . S
C624 C623 1.415 . S
C625 H601 0.951 . S
C625 C626 1.366 . S
C625 C627 1.388 . S
C626 C625 1.366 . S
C626 C630 1.385 . S
C627 H602 0.951 . S
C627 C625 1.388 . S
C627 C628 1.366 . S
C628 C627 1.366 . S
C628 C629 1.414 . S
C628 C631 1.499 . S
C629 H603 0.950 . S
C629 C628 1.414 . S
C629 C630 1.374 . S
C630 H604 0.950 . S
C630 C626 1.385 . S
C630 C629 1.374 . S
C631 C628 1.499 . S
C631 C632 1.373 . S
C631 C633 1.389 . S
C632 H605 0.950 . S
C632 C618 1.377 . S
C632 C631 1.373 . S
C633 C617 1.377 . S
C633 C631 1.389 . S
C633 C634 1.524 . S
C634 C633 1.524 . S
C634 C635 1.397 . S
C634 C639 1.363 . S
C635 H606 0.950 . S
C635 C634 1.397 . S
C635 C636 1.334 . S
C636 H607 0.950 . S
C636 C635 1.334 . S
C636 C637 1.287 . S
C637 C636 1.287 . S
C637 C638 1.524 . S
C637 H640 0.999 . S
C638 H608 0.950 . S
C638 C637 1.524 . S
C638 C639 1.415 . S
C639 H609 0.950 . S
C639 C634 1.363 . S
C639 C638 1.415 . S
H640 C637 0.999 . S
H641 C622 0.913 . S
H642 C660 0.951 1_556 S
H643 C662 0.951 . S
H644 C664 0.950 . S
H645 C665 0.950 . S
H646 C667 0.950 . S
H647 C670 0.950 . S
H648 C671 0.950 . S
H649 C673 0.950 . S
H650 C674 0.950 . S
H651 C675 0.951 . S
H652 C677 0.951 . S
H653 C679 0.950 . S
H654 C680 0.950 . S
H655 C682 0.950 . S
H656 C685 0.950 . S
H657 C686 0.950 . S
H658 C688 0.950 . S
H659 C689 0.950 . S
C660 H642 0.951 1_554 S
C660 C661 1.366 . S
C660 C662 1.388 . S
C661 C660 1.366 . S
C661 C665 1.385 . S
C662 H643 0.951 . S
C662 C660 1.388 . S
C662 C663 1.366 . S
C663 C662 1.366 . S
C663 C664 1.414 . S
C663 C666 1.499 . S
C664 H644 0.950 . S
C664 C663 1.414 . S
C664 C665 1.374 . S
C665 H645 0.950 . S
C665 C661 1.385 . S
C665 C664 1.374 . S
C666 C663 1.499 . S
C666 C667 1.373 . S
C666 C668 1.389 . S
C667 H646 0.950 . S
C667 C666 1.373 . S
C667 C683 1.377 . S
C668 C666 1.389 . S
C668 C669 1.524 1_554 S
C668 C682 1.377 . S
C669 C668 1.524 1_556 S
C669 C670 1.397 . S
C669 C674 1.363 . S
C670 H647 0.950 . S
C670 C669 1.397 . S
C670 C671 1.334 . S
C671 H648 0.950 . S
C671 C670 1.334 . S
C671 C672 1.287 . S
C672 C671 1.287 . S
C672 C673 1.524 . S
C672 H691 0.913 . S
C673 H649 0.950 . S
C673 C672 1.524 . S
C673 C674 1.415 . S
C674 H650 0.950 . S
C674 C669 1.363 . S
C674 C673 1.415 . S
C675 H651 0.951 . S
C675 C676 1.366 . S
C675 C677 1.388 . S
C676 C675 1.366 . S
C676 C680 1.385 . S
C677 H652 0.951 . S
C677 C675 1.388 . S
C677 C678 1.366 . S
C678 C677 1.366 . S
C678 C679 1.414 . S
C678 C681 1.499 . S
C679 H653 0.950 . S
C679 C678 1.414 . S
C679 C680 1.374 . S
C680 H654 0.950 . S
C680 C676 1.385 . S
C680 C679 1.374 . S
C681 C678 1.499 . S
C681 C682 1.373 . S
C681 C683 1.389 . S
C682 H655 0.950 . S
C682 C668 1.377 . S
C682 C681 1.373 . S
C683 C667 1.377 . S
C683 C681 1.389 . S
C683 C684 1.524 . S
C684 C683 1.524 . S
C684 C685 1.397 . S
C684 C689 1.363 . S
C685 H656 0.950 . S
C685 C684 1.397 . S
C685 C686 1.334 . S
C686 H657 0.950 . S
C686 C685 1.334 . S
C686 C687 1.287 . S
C687 C686 1.287 . S
C687 C688 1.524 . S
C687 H690 0.999 . S
C688 H658 0.950 . S
C688 C687 1.524 . S
C688 C689 1.415 . S
C689 H659 0.950 . S
C689 C684 1.363 . S
C689 C688 1.415 . S
H690 C687 0.999 . S
H691 C672 0.913 . S
H692 C710 0.951 . S
H693 C712 0.951 . S
H694 C714 0.950 . S
H695 C715 0.950 . S
H696 C717 0.950 . S
H697 C720 0.950 . S
H698 C721 0.950 . S
H699 C723 0.950 . S
H700 C724 0.950 . S
H701 C725 0.951 . S
H702 C727 0.951 . S
H703 C729 0.950 . S
H704 C730 0.950 . S
H705 C732 0.950 . S
H706 C735 0.950 . S
H707 C736 0.950 . S
H708 C738 0.950 . S
H709 C739 0.950 . S
C710 H692 0.951 . S
C710 C711 1.366 . S
C710 C712 1.388 . S
C711 C710 1.366 . S
C711 C715 1.385 . S
C712 H693 0.951 . S
C712 C710 1.388 . S
C712 C713 1.366 . S
C713 C712 1.366 . S
C713 C714 1.414 . S
C713 C716 1.499 . S
C714 H694 0.950 . S
C714 C713 1.414 . S
C714 C715 1.374 . S
C715 H695 0.950 . S
C715 C711 1.385 . S
C715 C714 1.374 . S
C716 C713 1.499 . S
C716 C717 1.373 . S
C716 C718 1.389 . S
C717 H696 0.950 . S
C717 C716 1.373 . S
C717 C733 1.377 . S
C718 C716 1.389 . S
C718 C719 1.524 . S
C718 C732 1.377 . S
C719 C718 1.524 . S
C719 C720 1.397 . S
C719 C724 1.363 . S
C720 H697 0.950 . S
C720 C719 1.397 . S
C720 C721 1.334 . S
C721 H698 0.950 . S
C721 C720 1.334 . S
C721 C722 1.287 . S
C722 C721 1.287 . S
C722 C723 1.524 . S
C722 H741 0.913 . S
C723 H699 0.950 . S
C723 C722 1.524 . S
C723 C724 1.415 . S
C724 H700 0.950 . S
C724 C719 1.363 . S
C724 C723 1.415 . S
C725 H701 0.951 . S
C725 C726 1.366 . S
C725 C727 1.388 . S
C726 C725 1.366 . S
C726 C730 1.385 . S
C727 H702 0.951 . S
C727 C725 1.388 . S
C727 C728 1.366 . S
C728 C727 1.366 . S
C728 C729 1.414 . S
C728 C731 1.499 . S
C729 H703 0.950 . S
C729 C728 1.414 . S
C729 C730 1.374 . S
C730 H704 0.950 . S
C730 C726 1.385 . S
C730 C729 1.374 . S
C731 C728 1.499 . S
C731 C732 1.373 . S
C731 C733 1.389 . S
C732 H705 0.950 . S
C732 C718 1.377 . S
C732 C731 1.373 . S
C733 C717 1.377 . S
C733 C731 1.389 . S
C733 C734 1.524 . S
C734 C733 1.524 . S
C734 C735 1.397 . S
C734 C739 1.363 . S
C735 H706 0.950 . S
C735 C734 1.397 . S
C735 C736 1.334 . S
C736 H707 0.950 . S
C736 C735 1.334 . S
C736 C737 1.287 . S
C737 C736 1.287 . S
C737 C738 1.524 . S
C737 H740 0.999 . S
C738 H708 0.950 . S
C738 C737 1.524 . S
C738 C739 1.415 . S
C739 H709 0.950 . S
C739 C734 1.363 . S
C739 C738 1.415 . S
H740 C737 0.999 . S
H741 C722 0.913 . S
H742 C760 0.951 . S
H743 C762 0.951 . S
H744 C764 0.950 . S
H745 C765 0.950 . S
H746 C767 0.950 . S
H747 C770 0.950 . S
H748 C771 0.950 . S
H749 C773 0.950 . S
H750 C774 0.950 . S
H751 C775 0.951 . S
H752 C777 0.951 . S
H753 C779 0.950 . S
H754 C780 0.950 . S
H755 C782 0.950 . S
H756 C785 0.950 . S
H757 C786 0.950 . S
H758 C788 0.950 . S
H759 C789 0.950 . S
C760 H742 0.951 . S
C760 C761 1.366 . S
C760 C762 1.388 . S
C761 C760 1.366 . S
C761 C765 1.385 . S
C762 H743 0.951 . S
C762 C760 1.388 . S
C762 C763 1.366 . S
C763 C762 1.366 . S
C763 C764 1.414 . S
C763 C766 1.499 . S
C764 H744 0.950 . S
C764 C763 1.414 . S
C764 C765 1.374 . S
C765 H745 0.950 . S
C765 C761 1.385 . S
C765 C764 1.374 . S
C766 C763 1.499 . S
C766 C767 1.373 . S
C766 C768 1.389 . S
C767 H746 0.950 . S
C767 C766 1.373 . S
C767 C783 1.377 . S
C768 C766 1.389 . S
C768 C769 1.524 . S
C768 C782 1.377 . S
C769 C768 1.524 . S
C769 C770 1.397 . S
C769 C774 1.363 . S
C770 H747 0.950 . S
C770 C769 1.397 . S
C770 C771 1.334 . S
C771 H748 0.950 . S
C771 C770 1.334 . S
C771 C772 1.287 . S
C772 C771 1.287 . S
C772 C773 1.524 . S
C772 H791 0.913 . S
C773 H749 0.950 . S
C773 C772 1.524 . S
C773 C774 1.415 . S
C774 H750 0.950 . S
C774 C769 1.363 . S
C774 C773 1.415 . S
C775 H751 0.951 . S
C775 C776 1.366 . S
C775 C777 1.388 . S
C776 C775 1.366 . S
C776 C780 1.385 . S
C777 H752 0.951 . S
C777 C775 1.388 . S
C777 C778 1.366 . S
C778 C777 1.366 . S
C778 C779 1.414 . S
C778 C781 1.499 . S
C779 H753 0.950 . S
C779 C778 1.414 . S
C779 C780 1.374 . S
C780 H754 0.950 . S
C780 C776 1.385 . S
C780 C779 1.374 . S
C781 C778 1.499 . S
C781 C782 1.373 . S
C781 C783 1.389 . S
C782 H755 0.950 . S
C782 C768 1.377 . S
C782 C781 1.373 . S
C783 C767 1.377 . S
C783 C781 1.389 . S
C783 C784 1.524 . S
C784 C783 1.524 . S
C784 C785 1.397 . S
C784 C789 1.363 . S
C785 H756 0.950 . S
C785 C784 1.397 . S
C785 C786 1.334 . S
C786 H757 0.950 . S
C786 C785 1.334 . S
C786 C787 1.287 . S
C787 C786 1.287 . S
C787 C788 1.524 . S
C787 H790 0.999 . S
C788 H758 0.950 . S
C788 C787 1.524 . S
C788 C789 1.415 . S
C789 H759 0.950 . S
C789 C784 1.363 . S
C789 C788 1.415 . S
H790 C787 0.999 . S
H791 C772 0.913 . S
H792 C810 0.951 . S
H793 C812 0.951 . S
H794 C814 0.950 . S
H795 C815 0.950 . S
H796 C817 0.950 . S
H797 C820 0.950 . S
H798 C821 0.950 . S
H799 C823 0.950 . S
H800 C824 0.950 . S
H801 C825 0.951 . S
H802 C827 0.951 . S
H803 C829 0.950 . S
H804 C830 0.950 . S
H805 C832 0.950 . S
H806 C835 0.950 . S
H807 C836 0.950 . S
H808 C838 0.950 . S
H809 C839 0.950 . S
C810 H792 0.951 . S
C810 C811 1.366 . S
C810 C812 1.388 . S
C811 C810 1.366 . S
C811 C815 1.385 . S
C812 H793 0.951 . S
C812 C810 1.388 . S
C812 C813 1.366 . S
C813 C812 1.366 . S
C813 C814 1.414 . S
C813 C816 1.499 . S
C814 H794 0.950 . S
C814 C813 1.414 . S
C814 C815 1.374 . S
C815 H795 0.950 . S
C815 C811 1.385 . S
C815 C814 1.374 . S
C816 C813 1.499 . S
C816 C817 1.373 . S
C816 C818 1.389 . S
C817 H796 0.950 . S
C817 C816 1.373 . S
C817 C833 1.377 . S
C818 C816 1.389 . S
C818 C819 1.524 . S
C818 C832 1.377 . S
C819 C818 1.524 . S
C819 C820 1.397 . S
C819 C824 1.363 . S
C820 H797 0.950 . S
C820 C819 1.397 . S
C820 C821 1.334 . S
C821 H798 0.950 . S
C821 C820 1.334 . S
C821 C822 1.287 . S
C822 C821 1.287 . S
C822 C823 1.524 . S
C822 H841 0.913 . S
C823 H799 0.950 . S
C823 C822 1.524 . S
C823 C824 1.415 . S
C824 H800 0.950 . S
C824 C819 1.363 . S
C824 C823 1.415 . S
C825 H801 0.951 . S
C825 C826 1.366 . S
C825 C827 1.388 . S
C826 C825 1.366 . S
C826 C830 1.385 . S
C827 H802 0.951 . S
C827 C825 1.388 . S
C827 C828 1.366 . S
C828 C827 1.366 . S
C828 C829 1.414 . S
C828 C831 1.499 . S
C829 H803 0.950 . S
C829 C828 1.414 . S
C829 C830 1.374 . S
C830 H804 0.950 . S
C830 C826 1.385 . S
C830 C829 1.374 . S
C831 C828 1.499 . S
C831 C832 1.373 . S
C831 C833 1.389 . S
C832 H805 0.950 . S
C832 C818 1.377 . S
C832 C831 1.373 . S
C833 C817 1.377 . S
C833 C831 1.389 . S
C833 C834 1.524 . S
C834 C833 1.524 . S
C834 C835 1.397 . S
C834 C839 1.363 . S
C835 H806 0.950 . S
C835 C834 1.397 . S
C835 C836 1.334 . S
C836 H807 0.950 . S
C836 C835 1.334 . S
C836 C837 1.287 . S
C837 C836 1.287 . S
C837 C838 1.524 . S
C837 H840 0.999 . S
C838 H808 0.950 . S
C838 C837 1.524 . S
C838 C839 1.415 . S
C839 H809 0.950 . S
C839 C834 1.363 . S
C839 C838 1.415 . S
H840 C837 0.999 . S
H841 C822 0.913 . S
H842 C860 0.951 . S
H843 C862 0.951 . S
H844 C864 0.950 . S
H845 C865 0.950 . S
H846 C867 0.950 . S
H847 C870 0.950 . S
H848 C871 0.950 . S
H849 C873 0.950 . S
H850 C874 0.950 . S
H851 C875 0.951 . S
H852 C877 0.951 . S
H853 C879 0.950 . S
H854 C880 0.950 . S
H855 C882 0.950 . S
H856 C885 0.950 . S
H857 C886 0.950 . S
H858 C888 0.950 . S
H859 C889 0.950 . S
C860 H842 0.951 . S
C860 C861 1.366 . S
C860 C862 1.388 . S
C861 C860 1.366 . S
C861 C865 1.385 . S
C862 H843 0.951 . S
C862 C860 1.388 . S
C862 C863 1.366 . S
C863 C862 1.366 . S
C863 C864 1.414 . S
C863 C866 1.499 . S
C864 H844 0.950 . S
C864 C863 1.414 . S
C864 C865 1.374 . S
C865 H845 0.950 . S
C865 C861 1.385 . S
C865 C864 1.374 . S
C866 C863 1.499 . S
C866 C867 1.373 . S
C866 C868 1.389 . S
C867 H846 0.950 . S
C867 C866 1.373 . S
C867 C883 1.377 . S
C868 C866 1.389 . S
C868 C869 1.524 . S
C868 C882 1.377 . S
C869 C868 1.524 . S
C869 C870 1.397 . S
C869 C874 1.363 . S
C870 H847 0.950 . S
C870 C869 1.397 . S
C870 C871 1.334 . S
C871 H848 0.950 . S
C871 C870 1.334 . S
C871 C872 1.287 . S
C872 C871 1.287 . S
C872 C873 1.524 . S
C872 H891 0.913 . S
C873 H849 0.950 . S
C873 C872 1.524 . S
C873 C874 1.415 . S
C874 H850 0.950 . S
C874 C869 1.363 . S
C874 C873 1.415 . S
C875 H851 0.951 . S
C875 C876 1.366 . S
C875 C877 1.388 . S
C876 C875 1.366 . S
C876 C880 1.385 . S
C877 H852 0.951 . S
C877 C875 1.388 . S
C877 C878 1.366 . S
C878 C877 1.366 . S
C878 C879 1.414 . S
C878 C881 1.499 . S
C879 H853 0.950 . S
C879 C878 1.414 . S
C879 C880 1.374 . S
C880 H854 0.950 . S
C880 C876 1.385 . S
C880 C879 1.374 . S
C881 C878 1.499 . S
C881 C882 1.373 . S
C881 C883 1.389 . S
C882 H855 0.950 . S
C882 C868 1.377 . S
C882 C881 1.373 . S
C883 C867 1.377 . S
C883 C881 1.389 . S
C883 C884 1.524 . S
C884 C883 1.524 . S
C884 C885 1.397 . S
C884 C889 1.363 . S
C885 H856 0.950 . S
C885 C884 1.397 . S
C885 C886 1.334 . S
C886 H857 0.950 . S
C886 C885 1.334 . S
C886 C887 1.287 . S
C887 C886 1.287 . S
C887 C888 1.524 . S
C887 H890 0.999 . S
C888 H858 0.950 . S
C888 C887 1.524 . S
C888 C889 1.415 . S
C889 H859 0.950 . S
C889 C884 1.363 . S
C889 C888 1.415 . S
H890 C887 0.999 . S
H891 C872 0.913 . S
H892 C910 0.951 . S
H893 C912 0.951 . S
H894 C914 0.950 . S
H895 C915 0.950 . S
H896 C917 0.950 . S
H897 C920 0.950 . S
H898 C921 0.950 . S
H899 C923 0.950 . S
H900 C924 0.950 . S
H901 C925 0.951 . S
H902 C927 0.951 . S
H903 C929 0.950 . S
H904 C930 0.950 . S
H905 C932 0.950 . S
H906 C935 0.950 . S
H907 C936 0.950 . S
H908 C938 0.950 . S
H909 C939 0.950 . S
C910 H892 0.951 . S
C910 C911 1.366 . S
C910 C912 1.388 . S
C911 C910 1.366 . S
C911 C915 1.385 . S
C912 H893 0.951 . S
C912 C910 1.388 . S
C912 C913 1.366 . S
C913 C912 1.366 . S
C913 C914 1.414 . S
C913 C916 1.499 . S
C914 H894 0.950 . S
C914 C913 1.414 . S
C914 C915 1.374 . S
C915 H895 0.950 . S
C915 C911 1.385 . S
C915 C914 1.374 . S
C916 C913 1.499 . S
C916 C917 1.373 . S
C916 C918 1.389 . S
C917 H896 0.950 . S
C917 C916 1.373 . S
C917 C933 1.377 . S
C918 C916 1.389 . S
C918 C919 1.524 . S
C918 C932 1.377 . S
C919 C918 1.524 . S
C919 C920 1.397 . S
C919 C924 1.363 . S
C920 H897 0.950 . S
C920 C919 1.397 . S
C920 C921 1.334 . S
C921 H898 0.950 . S
C921 C920 1.334 . S
C921 C922 1.287 . S
C922 C921 1.287 . S
C922 C923 1.524 . S
C922 H941 0.913 . S
C923 H899 0.950 . S
C923 C922 1.524 . S
C923 C924 1.415 . S
C924 H900 0.950 . S
C924 C919 1.363 . S
C924 C923 1.415 . S
C925 H901 0.951 . S
C925 C926 1.366 . S
C925 C927 1.388 . S
C926 C925 1.366 . S
C926 C930 1.385 . S
C927 H902 0.951 . S
C927 C925 1.388 . S
C927 C928 1.366 . S
C928 C927 1.366 . S
C928 C929 1.414 . S
C928 C931 1.499 . S
C929 H903 0.950 . S
C929 C928 1.414 . S
C929 C930 1.374 . S
C930 H904 0.950 . S
C930 C926 1.385 . S
C930 C929 1.374 . S
C931 C928 1.499 . S
C931 C932 1.373 . S
C931 C933 1.389 . S
C932 H905 0.950 . S
C932 C918 1.377 . S
C932 C931 1.373 . S
C933 C917 1.377 . S
C933 C931 1.389 . S
C933 C934 1.524 . S
C934 C933 1.524 . S
C934 C935 1.397 . S
C934 C939 1.363 . S
C935 H906 0.950 . S
C935 C934 1.397 . S
C935 C936 1.334 . S
C936 H907 0.950 . S
C936 C935 1.334 . S
C936 C937 1.287 . S
C937 C936 1.287 . S
C937 C938 1.524 . S
C937 H940 0.999 . S
C938 H908 0.950 . S
C938 C937 1.524 . S
C938 C939 1.415 . S
C939 H909 0.950 . S
C939 C934 1.363 . S
C939 C938 1.415 . S
H940 C937 0.999 . S
H941 C922 0.913 . S
H942 C960 0.951 . S
H943 C962 0.951 . S
H944 C964 0.950 . S
H945 C965 0.950 . S
H946 C967 0.950 . S
H947 C970 0.950 . S
H948 C971 0.950 . S
H949 C973 0.950 . S
H950 C974 0.950 . S
H951 C975 0.951 . S
H952 C977 0.951 . S
H953 C979 0.950 . S
H954 C980 0.949 1_556 S
H955 C982 0.950 . S
H956 C985 0.950 . S
H957 C986 0.950 . S
H958 C988 0.950 . S
H959 C989 0.950 . S
C960 H942 0.951 . S
C960 C961 1.366 . S
C960 C962 1.388 . S
C961 C960 1.366 . S
C961 C965 1.385 . S
C962 H943 0.951 . S
C962 C960 1.388 . S
C962 C963 1.366 . S
C963 C962 1.366 . S
C963 C964 1.414 . S
C963 C966 1.499 . S
C964 H944 0.950 . S
C964 C963 1.414 . S
C964 C965 1.374 . S
C965 H945 0.950 . S
C965 C961 1.385 . S
C965 C964 1.374 . S
C966 C963 1.499 . S
C966 C967 1.373 . S
C966 C968 1.389 . S
C967 H946 0.950 . S
C967 C966 1.373 . S
C967 C983 1.377 . S
C968 C966 1.389 . S
C968 C969 1.524 . S
C968 C982 1.377 . S
C969 C968 1.524 . S
C969 C970 1.397 . S
C969 C974 1.363 . S
C970 H947 0.950 . S
C970 C969 1.397 . S
C970 C971 1.334 . S
C971 H948 0.950 . S
C971 C970 1.334 . S
C971 C972 1.287 . S
C972 C971 1.287 . S
C972 C973 1.524 . S
C972 H991 0.913 . S
C973 H949 0.950 . S
C973 C972 1.524 . S
C973 C974 1.415 . S
C974 H950 0.950 . S
C974 C969 1.363 . S
C974 C973 1.415 . S
C975 H951 0.951 . S
C975 C976 1.366 . S
C975 C977 1.388 . S
C976 C975 1.366 . S
C976 C980 1.385 . S
C977 H952 0.951 . S
C977 C975 1.388 . S
C977 C978 1.366 1_554 S
C978 C977 1.366 1_556 S
C978 C979 1.414 . S
C978 C981 1.499 . S
C979 H953 0.950 . S
C979 C978 1.414 . S
C979 C980 1.374 1_556 S
C980 H954 0.949 1_554 S
C980 C976 1.385 . S
C980 C979 1.374 1_554 S
C981 C978 1.499 . S
C981 C982 1.373 . S
C981 C983 1.389 . S
C982 H955 0.950 . S
C982 C968 1.377 . S
C982 C981 1.373 . S
C983 C967 1.377 . S
C983 C981 1.389 . S
C983 C984 1.524 . S
C984 C983 1.524 . S
C984 C985 1.397 . S
C984 C989 1.363 . S
C985 H956 0.950 . S
C985 C984 1.397 . S
C985 C986 1.334 . S
C986 H957 0.950 . S
C986 C985 1.334 . S
C986 C987 1.287 . S
C987 C986 1.287 . S
C987 C988 1.524 . S
C987 H990 0.999 . S
C988 H958 0.950 . S
C988 C987 1.524 . S
C988 C989 1.415 . S
C989 H959 0.950 . S
C989 C984 1.363 . S
C989 C988 1.415 . S
H990 C987 0.999 . S
H991 C972 0.913 . S
H992 C1010 0.951 . S
H993 C1012 0.951 . S
H994 C1014 0.950 . S
H995 C1015 0.950 . S
H996 C1017 0.950 . S
H997 C1020 0.950 . S
H998 C1021 0.950 . S
H999 C1023 0.950 . S
H1000 C1024 0.950 . S
H1001 C1025 0.951 . S
H1002 C1027 0.951 . S
H1003 C1029 0.950 . S
H1004 C1030 0.950 . S
H1005 C1032 0.950 . S
H1006 C1035 0.950 . S
H1007 C1036 0.950 . S
H1008 C1038 0.950 . S
H1009 C1039 0.950 . S
C1010 H992 0.951 . S
C1010 C1011 1.366 . S
C1010 C1012 1.388 . S
C1011 C1010 1.366 . S
C1011 C1015 1.385 . S
C1012 H993 0.951 . S
C1012 C1010 1.388 . S
C1012 C1013 1.366 . S
C1013 C1012 1.366 . S
C1013 C1014 1.414 . S
C1013 C1016 1.499 . S
C1014 H994 0.950 . S
C1014 C1013 1.414 . S
C1014 C1015 1.374 . S
C1015 H995 0.950 . S
C1015 C1011 1.385 . S
C1015 C1014 1.374 . S
C1016 C1013 1.499 . S
C1016 C1017 1.373 . S
C1016 C1018 1.389 . S
C1017 H996 0.950 . S
C1017 C1016 1.373 . S
C1017 C1033 1.377 . S
C1018 C1016 1.389 . S
C1018 C1019 1.524 . S
C1018 C1032 1.377 . S
C1019 C1018 1.524 . S
C1019 C1020 1.397 . S
C1019 C1024 1.363 . S
C1020 H997 0.950 . S
C1020 C1019 1.397 . S
C1020 C1021 1.334 . S
C1021 H998 0.950 . S
C1021 C1020 1.334 . S
C1021 C1022 1.287 . S
C1022 C1021 1.287 . S
C1022 C1023 1.524 . S
C1022 H1041 0.913 . S
C1023 H999 0.950 . S
C1023 C1022 1.524 . S
C1023 C1024 1.415 . S
C1024 H1000 0.950 . S
C1024 C1019 1.363 . S
C1024 C1023 1.415 . S
C1025 H1001 0.951 . S
C1025 C1026 1.366 . S
C1025 C1027 1.388 . S
C1026 C1025 1.366 . S
C1026 C1030 1.385 . S
C1027 H1002 0.951 . S
C1027 C1025 1.388 . S
C1027 C1028 1.366 . S
C1028 C1027 1.366 . S
C1028 C1029 1.414 . S
C1028 C1031 1.499 . S
C1029 H1003 0.950 . S
C1029 C1028 1.414 . S
C1029 C1030 1.374 . S
C1030 H1004 0.950 . S
C1030 C1026 1.385 . S
C1030 C1029 1.374 . S
C1031 C1028 1.499 . S
C1031 C1032 1.373 . S
C1031 C1033 1.389 . S
C1032 H1005 0.950 . S
C1032 C1018 1.377 . S
C1032 C1031 1.373 . S
C1033 C1017 1.377 . S
C1033 C1031 1.389 . S
C1033 C1034 1.524 . S
C1034 C1033 1.524 . S
C1034 C1035 1.397 . S
C1034 C1039 1.363 . S
C1035 H1006 0.950 . S
C1035 C1034 1.397 . S
C1035 C1036 1.334 . S
C1036 H1007 0.950 . S
C1036 C1035 1.334 . S
C1036 C1037 1.287 . S
C1037 C1036 1.287 . S
C1037 C1038 1.524 . S
C1037 H1040 0.999 . S
C1038 H1008 0.950 . S
C1038 C1037 1.524 . S
C1038 C1039 1.415 . S
C1039 H1009 0.950 . S
C1039 C1034 1.363 . S
C1039 C1038 1.415 . S
H1040 C1037 0.999 . S
H1041 C1022 0.913 . S
H1042 C1060 0.951 . S
H1043 C1062 0.951 . S
H1044 C1064 0.950 . S
H1045 C1065 0.950 . S
H1046 C1067 0.950 . S
H1047 C1070 0.950 . S
H1048 C1071 0.950 . S
H1049 C1073 0.950 . S
H1050 C1074 0.950 . S
H1051 C1075 0.951 . S
H1052 C1077 0.951 . S
H1053 C1079 0.950 . S
H1054 C1080 0.950 . S
H1055 C1082 0.950 . S
H1056 C1085 0.950 . S
H1057 C1086 0.950 . S
H1058 C1088 0.950 . S
H1059 C1089 0.950 . S
C1060 H1042 0.951 . S
C1060 C1061 1.366 . S
C1060 C1062 1.388 . S
C1061 C1060 1.366 . S
C1061 C1065 1.385 . S
C1062 H1043 0.951 . S
C1062 C1060 1.388 . S
C1062 C1063 1.366 . S
C1063 C1062 1.366 . S
C1063 C1064 1.414 . S
C1063 C1066 1.499 . S
C1064 H1044 0.950 . S
C1064 C1063 1.414 . S
C1064 C1065 1.374 . S
C1065 H1045 0.950 . S
C1065 C1061 1.385 . S
C1065 C1064 1.374 . S
C1066 C1063 1.499 . S
C1066 C1067 1.373 . S
C1066 C1068 1.389 . S
C1067 H1046 0.950 . S
C1067 C1066 1.373 . S
C1067 C1083 1.377 . S
C1068 C1066 1.389 . S
C1068 C1069 1.524 . S
C1068 C1082 1.377 . S
C1069 C1068 1.524 . S
C1069 C1070 1.397 . S
C1069 C1074 1.363 . S
C1070 H1047 0.950 . S
C1070 C1069 1.397 . S
C1070 C1071 1.334 . S
C1071 H1048 0.950 . S
C1071 C1070 1.334 . S
C1071 C1072 1.287 . S
C1072 C1071 1.287 . S
C1072 C1073 1.524 . S
C1072 H1091 0.913 . S
C1073 H1049 0.950 . S
C1073 C1072 1.524 . S
C1073 C1074 1.415 . S
C1074 H1050 0.950 . S
C1074 C1069 1.363 . S
C1074 C1073 1.415 . S
C1075 H1051 0.951 . S
C1075 C1076 1.366 . S
C1075 C1077 1.388 . S
C1076 C1075 1.366 . S
C1076 C1080 1.385 . S
C1077 H1052 0.951 . S
C1077 C1075 1.388 . S
C1077 C1078 1.366 . S
C1078 C1077 1.366 . S
C1078 C1079 1.414 . S
C1078 C1081 1.499 . S
C1079 H1053 0.950 . S
C1079 C1078 1.414 . S
C1079 C1080 1.374 . S
C1080 H1054 0.950 . S
C1080 C1076 1.385 . S
C1080 C1079 1.374 . S
C1081 C1078 1.499 . S
C1081 C1082 1.373 . S
C1081 C1083 1.389 . S
C1082 H1055 0.950 . S
C1082 C1068 1.377 . S
C1082 C1081 1.373 . S
C1083 C1067 1.377 . S
C1083 C1081 1.389 . S
C1083 C1084 1.524 . S
C1084 C1083 1.524 . S
C1084 C1085 1.397 . S
C1084 C1089 1.363 . S
C1085 H1056 0.950 . S
C1085 C1084 1.397 . S
C1085 C1086 1.334 . S
C1086 H1057 0.950 . S
C1086 C1085 1.334 . S
C1086 C1087 1.287 . S
C1087 C1086 1.287 . S
C1087 C1088 1.524 . S
C1087 H1090 0.999 . S
C1088 H1058 0.950 . S
C1088 C1087 1.524 . S
C1088 C1089 1.415 . S
C1089 H1059 0.950 . S
C1089 C1084 1.363 . S
C1089 C1088 1.415 . S
H1090 C1087 0.999 . S
H1091 C1072 0.913 . S
H1092 C1110 0.951 . S
H1093 C1112 0.951 . S
H1094 C1114 0.950 . S
H1095 C1115 0.950 . S
H1096 C1117 0.950 . S
H1097 C1120 0.950 . S
H1098 C1121 0.950 . S
H1099 C1123 0.950 . S
H1100 C1124 0.950 . S
H1101 C1125 0.951 . S
H1102 C1127 0.951 . S
H1103 C1129 0.950 . S
H1104 C1130 0.950 . S
H1105 C1132 0.950 . S
H1106 C1135 0.950 . S
H1107 C1136 0.950 . S
H1108 C1138 0.950 . S
H1109 C1139 0.950 . S
C1110 H1092 0.951 . S
C1110 C1111 1.366 . S
C1110 C1112 1.388 . S
C1111 C1110 1.366 . S
C1111 C1115 1.385 . S
C1112 H1093 0.951 . S
C1112 C1110 1.388 . S
C1112 C1113 1.366 . S
C1113 C1112 1.366 . S
C1113 C1114 1.414 . S
C1113 C1116 1.499 . S
C1114 H1094 0.950 . S
C1114 C1113 1.414 . S
C1114 C1115 1.374 . S
C1115 H1095 0.950 . S
C1115 C1111 1.385 . S
C1115 C1114 1.374 . S
C1116 C1113 1.499 . S
C1116 C1117 1.373 . S
C1116 C1118 1.389 . S
C1117 H1096 0.950 . S
C1117 C1116 1.373 . S
C1117 C1133 1.377 . S
C1118 C1116 1.389 . S
C1118 C1119 1.524 . S
C1118 C1132 1.377 . S
C1119 C1118 1.524 . S
C1119 C1120 1.397 . S
C1119 C1124 1.363 . S
C1120 H1097 0.950 . S
C1120 C1119 1.397 . S
C1120 C1121 1.334 . S
C1121 H1098 0.950 . S
C1121 C1120 1.334 . S
C1121 C1122 1.287 . S
C1122 C1121 1.287 . S
C1122 C1123 1.524 . S
C1122 H1141 0.913 . S
C1123 H1099 0.950 . S
C1123 C1122 1.524 . S
C1123 C1124 1.415 . S
C1124 H1100 0.950 . S
C1124 C1119 1.363 . S
C1124 C1123 1.415 . S
C1125 H1101 0.951 . S
C1125 C1126 1.366 . S
C1125 C1127 1.388 . S
C1126 C1125 1.366 . S
C1126 C1130 1.385 . S
C1127 H1102 0.951 . S
C1127 C1125 1.388 . S
C1127 C1128 1.366 . S
C1128 C1127 1.366 . S
C1128 C1129 1.414 . S
C1128 C1131 1.499 . S
C1129 H1103 0.950 . S
C1129 C1128 1.414 . S
C1129 C1130 1.374 . S
C1130 H1104 0.950 . S
C1130 C1126 1.385 . S
C1130 C1129 1.374 . S
C1131 C1128 1.499 . S
C1131 C1132 1.373 . S
C1131 C1133 1.389 . S
C1132 H1105 0.950 . S
C1132 C1118 1.377 . S
C1132 C1131 1.373 . S
C1133 C1117 1.377 . S
C1133 C1131 1.389 . S
C1133 C1134 1.524 . S
C1134 C1133 1.524 . S
C1134 C1135 1.397 . S
C1134 C1139 1.363 . S
C1135 H1106 0.950 . S
C1135 C1134 1.397 . S
C1135 C1136 1.334 . S
C1136 H1107 0.950 . S
C1136 C1135 1.334 . S
C1136 C1137 1.287 . S
C1137 C1136 1.287 . S
C1137 C1138 1.524 . S
C1137 H1140 0.999 . S
C1138 H1108 0.950 . S
C1138 C1137 1.524 . S
C1138 C1139 1.415 . S
C1139 H1109 0.950 . S
C1139 C1134 1.363 . S
C1139 C1138 1.415 . S
H1140 C1137 0.999 . S
H1141 C1122 0.913 . S
H1142 C1160 0.951 . S
H1143 C1162 0.951 . S
H1144 C1164 0.950 . S
H1145 C1165 0.950 . S
H1146 C1167 0.950 . S
H1147 C1170 0.950 . S
H1148 C1171 0.950 . S
H1149 C1173 0.950 . S
H1150 C1174 0.950 . S
H1151 C1175 0.951 . S
H1152 C1177 0.951 . S
H1153 C1179 0.950 . S
H1154 C1180 0.950 . S
H1155 C1182 0.950 . S
H1156 C1185 0.950 . S
H1157 C1186 0.950 . S
H1158 C1188 0.950 . S
H1159 C1189 0.950 . S
C1160 H1142 0.951 . S
C1160 C1161 1.366 . S
C1160 C1162 1.388 . S
C1161 C1160 1.366 . S
C1161 C1165 1.385 . S
C1162 H1143 0.951 . S
C1162 C1160 1.388 . S
C1162 C1163 1.366 . S
C1163 C1162 1.366 . S
C1163 C1164 1.414 . S
C1163 C1166 1.499 . S
C1164 H1144 0.950 . S
C1164 C1163 1.414 . S
C1164 C1165 1.374 . S
C1165 H1145 0.950 . S
C1165 C1161 1.385 . S
C1165 C1164 1.374 . S
C1166 C1163 1.499 . S
C1166 C1167 1.373 . S
C1166 C1168 1.389 . S
C1167 H1146 0.950 . S
C1167 C1166 1.373 . S
C1167 C1183 1.377 . S
C1168 C1166 1.389 . S
C1168 C1169 1.524 . S
C1168 C1182 1.377 . S
C1169 C1168 1.524 . S
C1169 C1170 1.397 . S
C1169 C1174 1.363 . S
C1170 H1147 0.950 . S
C1170 C1169 1.397 . S
C1170 C1171 1.334 . S
C1171 H1148 0.950 . S
C1171 C1170 1.334 . S
C1171 C1172 1.287 . S
C1172 C1171 1.287 . S
C1172 C1173 1.524 . S
C1172 H1191 0.913 . S
C1173 H1149 0.950 . S
C1173 C1172 1.524 . S
C1173 C1174 1.415 . S
C1174 H1150 0.950 . S
C1174 C1169 1.363 . S
C1174 C1173 1.415 . S
C1175 H1151 0.951 . S
C1175 C1176 1.366 . S
C1175 C1177 1.388 . S
C1176 C1175 1.366 . S
C1176 C1180 1.385 . S
C1177 H1152 0.951 . S
C1177 C1175 1.388 . S
C1177 C1178 1.366 . S
C1178 C1177 1.366 . S
C1178 C1179 1.414 . S
C1178 C1181 1.499 . S
C1179 H1153 0.950 . S
C1179 C1178 1.414 . S
C1179 C1180 1.374 . S
C1180 H1154 0.950 . S
C1180 C1176 1.385 . S
C1180 C1179 1.374 . S
C1181 C1178 1.499 . S
C1181 C1182 1.373 . S
C1181 C1183 1.389 . S
C1182 H1155 0.950 . S
C1182 C1168 1.377 . S
C1182 C1181 1.373 . S
C1183 C1167 1.377 . S
C1183 C1181 1.389 . S
C1183 C1184 1.524 . S
C1184 C1183 1.524 . S
C1184 C1185 1.397 . S
C1184 C1189 1.363 . S
C1185 H1156 0.950 . S
C1185 C1184 1.397 . S
C1185 C1186 1.334 . S
C1186 H1157 0.950 . S
C1186 C1185 1.334 . S
C1186 C1187 1.287 . S
C1187 C1186 1.287 . S
C1187 C1188 1.524 . S
C1187 H1190 0.999 . S
C1188 H1158 0.950 . S
C1188 C1187 1.524 . S
C1188 C1189 1.415 . S
C1189 H1159 0.950 . S
C1189 C1184 1.363 . S
C1189 C1188 1.415 . S
H1190 C1187 0.999 . S
H1191 C1172 0.913 . S
H1192 C1210 0.951 . S
H1193 C1212 0.951 . S
H1194 C1214 0.950 . S
H1195 C1215 0.950 . S
H1196 C1217 0.950 . S
H1197 C1220 0.950 . S
H1198 C1221 0.950 . S
H1199 C1223 0.950 . S
H1200 C1224 0.950 . S
H1201 C1225 0.951 . S
H1202 C1227 0.951 . S
H1203 C1229 0.950 . S
H1204 C1230 0.950 . S
H1205 C1232 0.950 . S
H1206 C1235 0.950 . S
H1207 C1236 0.950 . S
H1208 C1238 0.950 . S
H1209 C1239 0.950 . S
C1210 H1192 0.951 . S
C1210 C1211 1.366 . S
C1210 C1212 1.388 . S
C1211 C1210 1.366 . S
C1211 C1215 1.385 . S
C1212 H1193 0.951 . S
C1212 C1210 1.388 . S
C1212 C1213 1.366 . S
C1213 C1212 1.366 . S
C1213 C1214 1.414 . S
C1213 C1216 1.499 . S
C1214 H1194 0.950 . S
C1214 C1213 1.414 . S
C1214 C1215 1.374 . S
C1215 H1195 0.950 . S
C1215 C1211 1.385 . S
C1215 C1214 1.374 . S
C1216 C1213 1.499 . S
C1216 C1217 1.373 . S
C1216 C1218 1.389 . S
C1217 H1196 0.950 . S
C1217 C1216 1.373 . S
C1217 C1233 1.377 . S
C1218 C1216 1.389 . S
C1218 C1219 1.524 . S
C1218 C1232 1.377 . S
C1219 C1218 1.524 . S
C1219 C1220 1.397 . S
C1219 C1224 1.363 . S
C1220 H1197 0.950 . S
C1220 C1219 1.397 . S
C1220 C1221 1.334 . S
C1221 H1198 0.950 . S
C1221 C1220 1.334 . S
C1221 C1222 1.287 . S
C1222 C1221 1.287 . S
C1222 C1223 1.524 . S
C1222 H1241 0.913 . S
C1223 H1199 0.950 . S
C1223 C1222 1.524 . S
C1223 C1224 1.415 . S
C1224 H1200 0.950 . S
C1224 C1219 1.363 . S
C1224 C1223 1.415 . S
C1225 H1201 0.951 . S
C1225 C1226 1.366 . S
C1225 C1227 1.388 . S
C1226 C1225 1.366 . S
C1226 C1230 1.385 . S
C1227 H1202 0.951 . S
C1227 C1225 1.388 . S
C1227 C1228 1.366 . S
C1228 C1227 1.366 . S
C1228 C1229 1.414 . S
C1228 C1231 1.499 . S
C1229 H1203 0.950 . S
C1229 C1228 1.414 . S
C1229 C1230 1.374 . S
C1230 H1204 0.950 . S
C1230 C1226 1.385 . S
C1230 C1229 1.374 . S
C1231 C1228 1.499 . S
C1231 C1232 1.373 . S
C1231 C1233 1.389 . S
C1232 H1205 0.950 . S
C1232 C1218 1.377 . S
C1232 C1231 1.373 . S
C1233 C1217 1.377 . S
C1233 C1231 1.389 . S
C1233 C1234 1.524 . S
C1234 C1233 1.524 . S
C1234 C1235 1.397 . S
C1234 C1239 1.363 . S
C1235 H1206 0.950 . S
C1235 C1234 1.397 . S
C1235 C1236 1.334 . S
C1236 H1207 0.950 . S
C1236 C1235 1.334 . S
C1236 C1237 1.287 . S
C1237 C1236 1.287 . S
C1237 C1238 1.524 . S
C1237 H1240 0.999 . S
C1238 H1208 0.950 . S
C1238 C1237 1.524 . S
C1238 C1239 1.415 . S
C1239 H1209 0.950 . S
C1239 C1234 1.363 . S
C1239 C1238 1.415 . S
H1240 C1237 0.999 . S
H1241 C1222 0.913 . S
H1242 C1260 0.951 . S
H1243 C1262 0.951 . S
H1244 C1264 0.950 . S
H1245 C1265 0.950 . S
H1246 C1267 0.950 . S
H1247 C1270 0.950 . S
H1248 C1271 0.950 . S
H1249 C1273 0.950 . S
H1250 C1274 0.950 . S
H1251 C1275 0.951 . S
H1252 C1277 0.951 . S
H1253 C1279 0.950 . S
H1254 C1280 0.950 . S
H1255 C1282 0.950 . S
H1256 C1285 0.950 . S
H1257 C1286 0.950 . S
H1258 C1288 0.950 . S
H1259 C1289 0.950 . S
C1260 H1242 0.951 . S
C1260 C1261 1.366 . S
C1260 C1262 1.388 . S
C1261 C1260 1.366 . S
C1261 C1265 1.385 . S
C1262 H1243 0.951 . S
C1262 C1260 1.388 . S
C1262 C1263 1.366 . S
C1263 C1262 1.366 . S
C1263 C1264 1.414 . S
C1263 C1266 1.499 . S
C1264 H1244 0.950 . S
C1264 C1263 1.414 . S
C1264 C1265 1.374 . S
C1265 H1245 0.950 . S
C1265 C1261 1.385 . S
C1265 C1264 1.374 . S
C1266 C1263 1.499 . S
C1266 C1267 1.373 . S
C1266 C1268 1.389 . S
C1267 H1246 0.950 . S
C1267 C1266 1.373 . S
C1267 C1283 1.377 . S
C1268 C1266 1.389 . S
C1268 C1269 1.524 . S
C1268 C1282 1.377 . S
C1269 C1268 1.524 . S
C1269 C1270 1.397 . S
C1269 C1274 1.363 . S
C1270 H1247 0.950 . S
C1270 C1269 1.397 . S
C1270 C1271 1.334 . S
C1271 H1248 0.950 . S
C1271 C1270 1.334 . S
C1271 C1272 1.287 . S
C1272 C1271 1.287 . S
C1272 C1273 1.524 . S
C1272 H1291 0.913 . S
C1273 H1249 0.950 . S
C1273 C1272 1.524 . S
C1273 C1274 1.415 . S
C1274 H1250 0.950 . S
C1274 C1269 1.363 . S
C1274 C1273 1.415 . S
C1275 H1251 0.951 . S
C1275 C1276 1.366 . S
C1275 C1277 1.388 . S
C1276 C1275 1.366 . S
C1276 C1280 1.385 . S
C1277 H1252 0.951 . S
C1277 C1275 1.388 . S
C1277 C1278 1.366 . S
C1278 C1277 1.366 . S
C1278 C1279 1.414 . S
C1278 C1281 1.499 . S
C1279 H1253 0.950 . S
C1279 C1278 1.414 . S
C1279 C1280 1.374 . S
C1280 H1254 0.950 . S
C1280 C1276 1.385 . S
C1280 C1279 1.374 . S
C1281 C1278 1.499 . S
C1281 C1282 1.373 . S
C1281 C1283 1.389 . S
C1282 H1255 0.950 . S
C1282 C1268 1.377 . S
C1282 C1281 1.373 . S
C1283 C1267 1.377 . S
C1283 C1281 1.389 . S
C1283 C1284 1.524 . S
C1284 C1283 1.524 . S
C1284 C1285 1.397 . S
C1284 C1289 1.363 . S
C1285 H1256 0.950 . S
C1285 C1284 1.397 . S
C1285 C1286 1.334 . S
C1286 H1257 0.950 . S
C1286 C1285 1.334 . S
C1286 C1287 1.287 . S
C1287 C1286 1.287 . S
C1287 C1288 1.524 . S
C1287 H1290 0.999 . S
C1288 H1258 0.950 . S
C1288 C1287 1.524 . S
C1288 C1289 1.415 . S
C1289 H1259 0.950 . S
C1289 C1284 1.363 . S
C1289 C1288 1.415 . S
H1290 C1287 0.999 . S
H1291 C1272 0.913 . S
H1292 C1310 0.951 . S
H1293 C1312 0.951 . S
H1294 C1314 0.950 . S
H1295 C1315 0.950 . S
H1296 C1317 0.950 . S
H1297 C1320 0.950 . S
H1298 C1321 0.950 . S
H1299 C1323 0.950 . S
H1300 C1324 0.950 . S
H1301 C1325 0.951 . S
H1302 C1327 0.951 1_554 S
H1303 C1329 0.950 . S
H1304 C1330 0.950 . S
H1305 C1332 0.950 1_556 S
H1306 C1335 0.950 . S
H1307 C1336 0.950 . S
H1308 C1338 0.950 . S
H1309 C1339 0.950 . S
C1310 H1292 0.951 . S
C1310 C1311 1.366 . S
C1310 C1312 1.388 . S
C1311 C1310 1.366 . S
C1311 C1315 1.385 . S
C1312 H1293 0.951 . S
C1312 C1310 1.388 . S
C1312 C1313 1.366 . S
C1313 C1312 1.366 . S
C1313 C1314 1.414 . S
C1313 C1316 1.499 . S
C1314 H1294 0.950 . S
C1314 C1313 1.414 . S
C1314 C1315 1.374 . S
C1315 H1295 0.950 . S
C1315 C1311 1.385 . S
C1315 C1314 1.374 . S
C1316 C1313 1.499 . S
C1316 C1317 1.373 . S
C1316 C1318 1.389 . S
C1317 H1296 0.950 . S
C1317 C1316 1.373 . S
C1317 C1333 1.377 . S
C1318 C1316 1.389 . S
C1318 C1319 1.524 . S
C1318 C1332 1.377 . S
C1319 C1318 1.524 . S
C1319 C1320 1.397 . S
C1319 C1324 1.363 1_554 S
C1320 H1297 0.950 . S
C1320 C1319 1.397 . S
C1320 C1321 1.334 . S
C1321 H1298 0.950 . S
C1321 C1320 1.334 . S
C1321 C1322 1.287 . S
C1322 C1321 1.287 . S
C1322 C1323 1.524 1_554 S
C1322 H1341 0.913 . S
C1323 H1299 0.950 . S
C1323 C1322 1.524 1_556 S
C1323 C1324 1.415 . S
C1324 H1300 0.950 . S
C1324 C1319 1.363 1_556 S
C1324 C1323 1.415 . S
C1325 H1301 0.951 . S
C1325 C1326 1.366 . S
C1325 C1327 1.388 . S
C1326 C1325 1.366 . S
C1326 C1330 1.385 . S
C1327 H1302 0.951 1_556 S
C1327 C1325 1.388 . S
C1327 C1328 1.366 . S
C1328 C1327 1.366 . S
C1328 C1329 1.414 . S
C1328 C1331 1.499 1_556 S
C1329 H1303 0.950 . S
C1329 C1328 1.414 . S
C1329 C1330 1.374 . S
C1330 H1304 0.950 . S
C1330 C1326 1.385 . S
C1330 C1329 1.374 . S
C1331 C1328 1.499 1_554 S
C1331 C1332 1.373 . S
C1331 C1333 1.389 . S
C1332 H1305 0.950 1_554 S
C1332 C1318 1.377 . S
C1332 C1331 1.373 . S
C1333 C1317 1.377 . S
C1333 C1331 1.389 . S
C1333 C1334 1.524 . S
C1334 C1333 1.524 . S
C1334 C1335 1.397 . S
C1334 C1339 1.363 . S
C1335 H1306 0.950 . S
C1335 C1334 1.397 . S
C1335 C1336 1.334 . S
C1336 H1307 0.950 . S
C1336 C1335 1.334 . S
C1336 C1337 1.287 . S
C1337 C1336 1.287 . S
C1337 C1338 1.524 . S
C1337 H1340 0.999 . S
C1338 H1308 0.950 . S
C1338 C1337 1.524 . S
C1338 C1339 1.415 . S
C1339 H1309 0.950 . S
C1339 C1334 1.363 . S
C1339 C1338 1.415 . S
H1340 C1337 0.999 . S
H1341 C1322 0.913 . S
H1342 C1360 0.951 . S
H1343 C1362 0.951 . S
H1344 C1364 0.950 . S
H1345 C1365 0.950 . S
H1346 C1367 0.950 . S
H1347 C1370 0.950 . S
H1348 C1371 0.950 . S
H1349 C1373 0.950 . S
H1350 C1374 0.950 . S
H1351 C1375 0.951 . S
H1352 C1377 0.951 . S
H1353 C1379 0.950 . S
H1354 C1380 0.950 . S
H1355 C1382 0.950 . S
H1356 C1385 0.950 . S
H1357 C1386 0.950 . S
H1358 C1388 0.950 . S
H1359 C1389 0.950 . S
C1360 H1342 0.951 . S
C1360 C1361 1.366 . S
C1360 C1362 1.388 . S
C1361 C1360 1.366 . S
C1361 C1365 1.385 . S
C1362 H1343 0.951 . S
C1362 C1360 1.388 . S
C1362 C1363 1.366 . S
C1363 C1362 1.366 . S
C1363 C1364 1.414 . S
C1363 C1366 1.499 . S
C1364 H1344 0.950 . S
C1364 C1363 1.414 . S
C1364 C1365 1.374 . S
C1365 H1345 0.950 . S
C1365 C1361 1.385 . S
C1365 C1364 1.374 . S
C1366 C1363 1.499 . S
C1366 C1367 1.373 . S
C1366 C1368 1.389 . S
C1367 H1346 0.950 . S
C1367 C1366 1.373 . S
C1367 C1383 1.377 . S
C1368 C1366 1.389 . S
C1368 C1369 1.524 . S
C1368 C1382 1.377 . S
C1369 C1368 1.524 . S
C1369 C1370 1.397 . S
C1369 C1374 1.363 . S
C1370 H1347 0.950 . S
C1370 C1369 1.397 . S
C1370 C1371 1.334 . S
C1371 H1348 0.950 . S
C1371 C1370 1.334 . S
C1371 C1372 1.287 . S
C1372 C1371 1.287 . S
C1372 C1373 1.524 . S
C1372 H1391 0.913 . S
C1373 H1349 0.950 . S
C1373 C1372 1.524 . S
C1373 C1374 1.415 . S
C1374 H1350 0.950 . S
C1374 C1369 1.363 . S
C1374 C1373 1.415 . S
C1375 H1351 0.951 . S
C1375 C1376 1.366 . S
C1375 C1377 1.388 . S
C1376 C1375 1.366 . S
C1376 C1380 1.385 . S
C1377 H1352 0.951 . S
C1377 C1375 1.388 . S
C1377 C1378 1.366 . S
C1378 C1377 1.366 . S
C1378 C1379 1.414 . S
C1378 C1381 1.499 . S
C1379 H1353 0.950 . S
C1379 C1378 1.414 . S
C1379 C1380 1.374 . S
C1380 H1354 0.950 . S
C1380 C1376 1.385 . S
C1380 C1379 1.374 . S
C1381 C1378 1.499 . S
C1381 C1382 1.373 . S
C1381 C1383 1.389 . S
C1382 H1355 0.950 . S
C1382 C1368 1.377 . S
C1382 C1381 1.373 . S
C1383 C1367 1.377 . S
C1383 C1381 1.389 . S
C1383 C1384 1.524 . S
C1384 C1383 1.524 . S
C1384 C1385 1.397 . S
C1384 C1389 1.363 . S
C1385 H1356 0.950 . S
C1385 C1384 1.397 . S
C1385 C1386 1.334 . S
C1386 H1357 0.950 . S
C1386 C1385 1.334 . S
C1386 C1387 1.287 . S
C1387 C1386 1.287 . S
C1387 C1388 1.524 . S
C1387 H1390 0.999 . S
C1388 H1358 0.950 . S
C1388 C1387 1.524 . S
C1388 C1389 1.415 . S
C1389 H1359 0.950 . S
C1389 C1384 1.363 . S
C1389 C1388 1.415 . S
H1390 C1387 0.999 . S
H1391 C1372 0.913 . S
C226 C178 1.607 . S
C211 C8 1.564 . S
C261 C26 1.554 . S
C276 C119 1.603 . S
C311 C50 1.547 . S
C326 C122 1.597 . S
C361 C68 1.563 . S
C376 C136 1.611 . S
C426 C161 1.602 . S
C411 C80 1.553 . S
C461 C104 1.541 . S
C476 C164 1.591 . S
C511 C32 1.528 . S
C526 C133 1.581 . S
C561 C44 1.545 . S
C576 C147 1.591 . S
C611 C62 1.531 . S
C626 C150 1.574 . S
C676 C175 1.575 . S
C661 C86 1.523 1_554 S
C726 C189 1.589 . S
C711 C98 1.544 . S
C776 C108 1.578 . S
C761 C14 1.531 . S
C811 C7 1.452 . S
C826 C131 1.500 . S
C861 C25 1.466 . S
C876 C145 1.517 . S
C926 C155 1.516 . S
C911 C52 1.467 . S
C961 C70 1.454 . S
C976 C173 1.500 . S
C1026 C187 1.516 . S
C1011 C79 1.466 . S
C1076 C113 1.517 . S
C1061 C106 1.467 . S
C1126 C183 1.545 . S
C1111 C34 1.491 . S
C1161 C43 1.473 . S
C1176 C117 1.525 . S
C1226 C127 1.532 . S
C1211 C61 1.480 . S
C1261 C88 1.492 . S
C1276 C141 1.546 . S
C1311 C97 1.472 . S
C1326 C159 1.524 . S
C1361 C16 1.481 . S
C1376 C169 1.532 . S
