# Generated by pormake.
# Topology wbl, (4,4)-cn, num edge types: 1
# Building blocks:
#     Node 0, Type 0, BuildingBlock: NAWXER_clean_linker_0, # of connection points: 4
#     Node 1, Type 0, BuildingBlock: NAWXER_clean_linker_0, # of connection points: 4
#     Node 2, Type 0, BuildingBlock: NAWXER_clean_linker_0, # of connection points: 4
#     Node 3, Type 0, BuildingBlock: NAWXER_clean_linker_0, # of connection points: 4
#     Node 4, Type 0, BuildingBlock: NAWXER_clean_linker_0, # of connection points: 4
#     Node 5, Type 0, BuildingBlock: NAWXER_clean_linker_0, # of connection points: 4
#     Node 6, Type 0, BuildingBlock: NAWXER_clean_linker_0, # of connection points: 4
#     Node 7, Type 0, BuildingBlock: NAWXER_clean_linker_0, # of connection points: 4
#     Node 8, Type 1, BuildingBlock: GALJAG_clean_sbu_0, # of connection points: 4
#     Node 9, Type 1, BuildingBlock: GALJAG_clean_sbu_0, # of connection points: 4
#     Node 10, Type 1, BuildingBlock: GALJAG_clean_sbu_0, # of connection points: 4
#     Node 11, Type 1, BuildingBlock: GALJAG_clean_sbu_0, # of connection points: 4
#     Node 12, Type 1, BuildingBlock: GALJAG_clean_sbu_0, # of connection points: 4
#     Node 13, Type 1, BuildingBlock: GALJAG_clean_sbu_0, # of connection points: 4
#     Node 14, Type 1, BuildingBlock: GALJAG_clean_sbu_0, # of connection points: 4
#     Node 15, Type 1, BuildingBlock: GALJAG_clean_sbu_0, # of connection points: 4
#     Edge 16, Type (0, 1), BuildingBlock: UVAHIK_clean_linker_0, # of connection points: 2
#     Edge 17, Type (0, 1), BuildingBlock: UVAHIK_clean_linker_0, # of connection points: 2
#     Edge 18, Type (0, 1), BuildingBlock: UVAHIK_clean_linker_0, # of connection points: 2
#     Edge 19, Type (0, 1), BuildingBlock: UVAHIK_clean_linker_0, # of connection points: 2
#     Edge 20, Type (0, 1), BuildingBlock: UVAHIK_clean_linker_0, # of connection points: 2
#     Edge 21, Type (0, 1), BuildingBlock: UVAHIK_clean_linker_0, # of connection points: 2
#     Edge 22, Type (0, 1), BuildingBlock: UVAHIK_clean_linker_0, # of connection points: 2
#     Edge 23, Type (0, 1), BuildingBlock: UVAHIK_clean_linker_0, # of connection points: 2
#     Edge 24, Type (0, 1), BuildingBlock: UVAHIK_clean_linker_0, # of connection points: 2
#     Edge 25, Type (0, 1), BuildingBlock: UVAHIK_clean_linker_0, # of connection points: 2
#     Edge 26, Type (0, 1), BuildingBlock: UVAHIK_clean_linker_0, # of connection points: 2
#     Edge 27, Type (0, 1), BuildingBlock: UVAHIK_clean_linker_0, # of connection points: 2
#     Edge 28, Type (0, 1), BuildingBlock: UVAHIK_clean_linker_0, # of connection points: 2
#     Edge 29, Type (0, 1), BuildingBlock: UVAHIK_clean_linker_0, # of connection points: 2
#     Edge 30, Type (0, 1), BuildingBlock: UVAHIK_clean_linker_0, # of connection points: 2
#     Edge 31, Type (0, 1), BuildingBlock: UVAHIK_clean_linker_0, # of connection points: 2
#     Edge 32, Type (0, 1), BuildingBlock: UVAHIK_clean_linker_0, # of connection points: 2
#     Edge 33, Type (0, 1), BuildingBlock: UVAHIK_clean_linker_0, # of connection points: 2
#     Edge 34, Type (0, 1), BuildingBlock: UVAHIK_clean_linker_0, # of connection points: 2
#     Edge 35, Type (0, 1), BuildingBlock: UVAHIK_clean_linker_0, # of connection points: 2
#     Edge 36, Type (0, 1), BuildingBlock: UVAHIK_clean_linker_0, # of connection points: 2
#     Edge 37, Type (0, 1), BuildingBlock: UVAHIK_clean_linker_0, # of connection points: 2
#     Edge 38, Type (0, 1), BuildingBlock: UVAHIK_clean_linker_0, # of connection points: 2
#     Edge 39, Type (0, 1), BuildingBlock: UVAHIK_clean_linker_0, # of connection points: 2
#     Edge 40, Type (0, 1), BuildingBlock: UVAHIK_clean_linker_0, # of connection points: 2
#     Edge 41, Type (0, 1), BuildingBlock: UVAHIK_clean_linker_0, # of connection points: 2
#     Edge 42, Type (0, 1), BuildingBlock: UVAHIK_clean_linker_0, # of connection points: 2
#     Edge 43, Type (0, 1), BuildingBlock: UVAHIK_clean_linker_0, # of connection points: 2
#     Edge 44, Type (0, 1), BuildingBlock: UVAHIK_clean_linker_0, # of connection points: 2
#     Edge 45, Type (0, 1), BuildingBlock: UVAHIK_clean_linker_0, # of connection points: 2
#     Edge 46, Type (0, 1), BuildingBlock: UVAHIK_clean_linker_0, # of connection points: 2
#     Edge 47, Type (0, 1), BuildingBlock: UVAHIK_clean_linker_0, # of connection points: 2
# Relax obj value: 0.140
# Max RMSD: 0.149
# Mean RMSD: 0.132
data_MOF--net-wbl--node1-GALJAG_clean_sbu_0--node2-NAWXER_clean_linker_0--edge1-UVAHIK_clean_linker_0
_symmetry_space_group_name_H-M    P1
_symmetry_Int_Tables_number       1
_symmetry_cell_setting            triclinic
loop_
_symmetry_equiv_pos_as_xyz
'x, y, z'
_cell_length_a     54.34331
_cell_length_b     54.453086
_cell_length_c     105.77399
_cell_angle_alpha  90.056071
_cell_angle_beta   90.0357
_cell_angle_gamma 89.979536
loop_
_atom_site_label
_atom_site_type_symbol
_atom_site_fract_x
_atom_site_fract_y
_atom_site_fract_z
_atom_type_partial_charge
C0 C 0.05438 0.94003 0.36877 0.0
C1 C 0.06817 0.95266 0.37796 0.0
C2 C 0.03981 0.95293 0.36013 0.0
C3 C 0.03892 0.97871 0.36048 0.0
C4 C 0.06766 0.97849 0.37806 0.0
C5 C 0.05303 0.99135 0.36947 0.0
C6 C 0.02177 0.99255 0.35231 0.0
C7 C 0.07775 0.96189 0.32514 0.0
C8 C 0.06811 0.94358 0.31719 0.0
C9 C 0.0621 0.97622 0.33256 0.0
C10 C 0.03656 0.97259 0.33205 0.0
C11 C 0.04258 0.93969 0.31685 0.0
C12 C 0.02689 0.95432 0.32411 0.0
C13 C 0.01986 0.98883 0.33916 0.0
C14 C 0.95343 0.07204 0.32327 0.0
C15 C 0.94108 0.06041 0.31322 0.0
C16 C 0.96859 0.05859 0.33138 0.0
C17 C 0.97121 0.03309 0.32983 0.0
C18 C 0.94435 0.035 0.31149 0.0
C19 C 0.95921 0.02151 0.31971 0.0
C20 C 0.9877 0.01858 0.33811 0.0
C21 C 0.93064 0.04827 0.36519 0.0
C22 C 0.94007 0.06449 0.37433 0.0
C23 C 0.94655 0.03489 0.35741 0.0
C24 C 0.97215 0.03753 0.35865 0.0
C25 C 0.96569 0.0674 0.37539 0.0
C26 C 0.98156 0.05389 0.36769 0.0
C27 C 0.98922 0.02187 0.35135 0.0
H28 H 0.05406 0.92015 0.36856 0.0
H29 H 0.02857 0.94273 0.3535 0.0
H30 H 0.07835 0.9888 0.38489 0.0
H31 H 0.05255 0.01122 0.36993 0.0
H32 H 0.0974 0.96514 0.32558 0.0
H33 H 0.06988 0.9905 0.33847 0.0
H34 H 0.03477 0.92578 0.31071 0.0
H35 H 0.00719 0.95143 0.32354 0.0
H36 H 0.95127 0.09153 0.32497 0.0
H37 H 0.97844 0.06826 0.33876 0.0
H38 H 0.93563 0.02549 0.30369 0.0
H39 H 0.96132 0.00195 0.31815 0.0
H40 H 0.91098 0.04571 0.36416 0.0
H41 H 0.93887 0.02199 0.35068 0.0
H42 H 0.97349 0.07947 0.38248 0.0
H43 H 0.00126 0.05599 0.36889 0.0
N44 N 0.00635 0.00891 0.35789 0.0
N45 N 0.00295 0.00199 0.33256 0.0
C46 C 0.93069 0.44849 0.61612 0.0
C47 C 0.94196 0.43536 0.62601 0.0
C48 C 0.94463 0.46358 0.6082 0.0
C49 C 0.97024 0.46543 0.60981 0.0
C50 C 0.96758 0.4374 0.62763 0.0
C51 C 0.98152 0.45225 0.61963 0.0
C52 C 0.98525 0.48231 0.602 0.0
C53 C 0.95457 0.4278 0.57417 0.0
C54 C 0.93772 0.4381 0.56559 0.0
C55 C 0.96898 0.44288 0.58186 0.0
C56 C 0.96677 0.4685 0.5811 0.0
C57 C 0.93546 0.46375 0.56489 0.0
C58 C 0.95008 0.47885 0.5725 0.0
C59 C 0.98277 0.48457 0.58876 0.0
C60 C 0.07048 0.54466 0.57435 0.0
C61 C 0.06011 0.56043 0.56527 0.0
C62 C 0.05544 0.53027 0.58206 0.0
C63 C 0.02974 0.53145 0.58087 0.0
C64 C 0.03434 0.56139 0.56406 0.0
C65 C 0.01932 0.54689 0.57172 0.0
C66 C 0.01372 0.51556 0.58862 0.0
C67 C 0.04552 0.5699 0.61634 0.0
C68 C 0.06105 0.55933 0.62546 0.0
C69 C 0.03134 0.55503 0.60839 0.0
C70 C 0.03243 0.52935 0.60947 0.0
C71 C 0.06236 0.53361 0.62638 0.0
C72 C 0.048 0.51878 0.61853 0.0
C73 C 0.01608 0.51348 0.60185 0.0
H74 H 0.91104 0.44727 0.61454 0.0
H75 H 0.93526 0.47417 0.60101 0.0
H76 H 0.97686 0.42804 0.6353 0.0
H77 H 0.00118 0.45363 0.62119 0.0
H78 H 0.95657 0.40806 0.57494 0.0
H79 H 0.9821 0.43453 0.58827 0.0
H80 H 0.92278 0.47213 0.55827 0.0
H81 H 0.94832 0.4986 0.5717 0.0
H82 H 0.09025 0.54311 0.57536 0.0
H83 H 0.06392 0.51791 0.58879 0.0
H84 H 0.02571 0.57358 0.55729 0.0
H85 H -0.00047 0.5479 0.5706 0.0
H86 H 0.0442 0.58967 0.61542 0.0
H87 H 0.01906 0.56362 0.60165 0.0
H88 H 0.07391 0.52498 0.63345 0.0
H89 H 0.04892 0.49901 0.6196 0.0
N90 N 0.00188 0.49685 0.60802 0.0
N91 N 0.99703 0.50116 0.58258 0.0
C92 C 0.54822 0.43533 0.87058 0.0
C93 C 0.55965 0.44733 0.88079 0.0
C94 C 0.53428 0.44866 0.86184 0.0
C95 C 0.53192 0.47427 0.86305 0.0
C96 C 0.5576 0.47297 0.88183 0.0
C97 C 0.54381 0.48627 0.87307 0.0
C98 C 0.5154 0.48854 0.85469 0.0
C99 C 0.57466 0.46034 0.82897 0.0
C100 C 0.56632 0.44344 0.81988 0.0
C101 C 0.55792 0.47393 0.83612 0.0
C102 C 0.53253 0.4708 0.83433 0.0
C103 C 0.54089 0.44024 0.81814 0.0
C104 C 0.52412 0.45402 0.82522 0.0
C105 C 0.51479 0.48601 0.84142 0.0
C106 C 0.44911 0.56998 0.82578 0.0
C107 C 0.43666 0.55878 0.81563 0.0
C108 C 0.46417 0.55615 0.83375 0.0
C109 C 0.46658 0.53069 0.83199 0.0
C110 C 0.43988 0.53343 0.81361 0.0
C111 C 0.45465 0.51956 0.82171 0.0
C112 C 0.48253 0.5157 0.8403 0.0
C113 C 0.42493 0.54701 0.86679 0.0
C114 C 0.43459 0.56187 0.87649 0.0
C115 C 0.44059 0.53312 0.8591 0.0
C116 C 0.46619 0.53403 0.8609 0.0
C117 C 0.46024 0.56282 0.87818 0.0
C118 C 0.47583 0.54898 0.8705 0.0
C119 C 0.48305 0.51809 0.85361 0.0
H120 H 0.54924 0.41554 0.86966 0.0
H121 H 0.52469 0.43884 0.85442 0.0
H122 H 0.56644 0.48273 0.88952 0.0
H123 H 0.54219 0.50598 0.87423 0.0
H124 H 0.59417 0.46306 0.83056 0.0
H125 H 0.56482 0.48716 0.8429 0.0
H126 H 0.534 0.4275 0.81111 0.0
H127 H 0.50458 0.45157 0.82362 0.0
H128 H 0.44701 0.58941 0.82769 0.0
H129 H 0.47398 0.56545 0.84128 0.0
H130 H 0.43111 0.52426 0.80572 0.0
H131 H 0.45664 0.50005 0.81998 0.0
H132 H 0.40526 0.54594 0.86523 0.0
H133 H 0.43267 0.52128 0.85194 0.0
H134 H 0.46828 0.57367 0.88571 0.0
H135 H 0.49549 0.54973 0.87217 0.0
N136 N 0.49955 0.50452 0.86023 0.0
N137 N 0.49832 0.4996 0.83475 0.0
C138 C 0.44778 0.92928 0.07159 0.0
C139 C 0.42755 0.93999 0.06545 0.0
C140 C 0.46279 0.94341 0.07944 0.0
C141 C 0.45797 0.96851 0.08111 0.0
C142 C 0.42243 0.96499 0.0673 0.0
C143 C 0.43779 0.97927 0.07495 0.0
C144 C 0.4749 0.98373 0.08863 0.0
C145 C 0.42952 0.94278 0.11759 0.0
C146 C 0.44328 0.92653 0.12515 0.0
C147 C 0.44135 0.95932 0.10952 0.0
C148 C 0.46714 0.95988 0.10886 0.0
C149 C 0.46909 0.92669 0.12413 0.0
C150 C 0.48088 0.94335 0.11616 0.0
C151 C 0.48003 0.97891 0.10145 0.0
C152 C 0.5395 0.06637 0.11687 0.0
C153 C 0.55619 0.05521 0.12524 0.0
C154 C 0.52483 0.05206 0.10891 0.0
C155 C 0.52664 0.02633 0.10915 0.0
C156 C 0.55823 0.02948 0.12532 0.0
C157 C 0.54343 0.01517 0.11742 0.0
C158 C 0.50981 0.01099 0.10151 0.0
C159 C 0.56042 0.04593 0.07363 0.0
C160 C 0.54923 0.06358 0.06581 0.0
C161 C 0.54614 0.03037 0.08109 0.0
C162 C 0.52038 0.03213 0.0809 0.0
C163 C 0.52337 0.06507 0.06554 0.0
C164 C 0.50908 0.04932 0.07294 0.0
C165 C 0.50529 0.0152 0.08855 0.0
H166 H 0.45197 0.90999 0.07029 0.0
H167 H 0.47849 0.93489 0.08399 0.0
H168 H 0.40695 0.97355 0.06258 0.0
H169 H 0.43397 0.99867 0.07608 0.0
H170 H 0.40965 0.94344 0.11827 0.0
H171 H 0.43038 0.97229 0.10419 0.0
H172 H 0.48026 0.91414 0.12962 0.0
H173 H 0.50081 0.9435 0.11579 0.0
H174 H 0.5376 0.08617 0.11659 0.0
H175 H 0.51161 0.06109 0.10282 0.0
H176 H 0.57071 0.02038 0.13179 0.0
H177 H 0.54494 0.99534 0.11785 0.0
H178 H 0.58023 0.04388 0.07387 0.0
H179 H 0.55524 0.0167 0.08688 0.0
H180 H 0.51414 0.07862 0.05974 0.0
H181 H 0.48921 0.0508 0.07259 0.0
N182 N 0.4878 0.0016 0.08261 0.0
N183 N 0.49721 0.99282 0.10744 0.0
C184 C 0.04901 0.56959 0.88529 0.0
C185 C 0.06488 0.55839 0.87651 0.0
C186 C 0.03528 0.55527 0.8937 0.0
C187 C 0.03744 0.52954 0.89356 0.0
C188 C 0.06769 0.53274 0.87676 0.0
C189 C 0.05403 0.51848 0.88514 0.0
C190 C 0.02059 0.51381 0.90096 0.0
C191 C 0.06645 0.55092 0.93063 0.0
C192 C 0.05336 0.56729 0.93839 0.0
C193 C 0.05399 0.53527 0.92238 0.0
C194 C 0.02821 0.53568 0.92177 0.0
C195 C 0.02757 0.568 0.93762 0.0
C196 C 0.01506 0.55207 0.92947 0.0
C197 C 0.01499 0.5177 0.91384 0.0
C198 C 0.95953 0.42664 0.92767 0.0
C199 C 0.9397 0.4364 0.93455 0.0
C200 C 0.9749 0.44208 0.9207 0.0
C201 C 0.97073 0.46753 0.92054 0.0
C202 C 0.93576 0.46191 0.9345 0.0
C203 C 0.95132 0.47737 0.92765 0.0
C204 C 0.98703 0.48397 0.9133 0.0
C205 C 0.94342 0.44345 0.88341 0.0
C206 C 0.9577 0.4297 0.87486 0.0
C207 C 0.95469 0.45923 0.89209 0.0
C208 C 0.98045 0.46133 0.89247 0.0
C209 C 0.98348 0.43132 0.87554 0.0
C210 C 0.99471 0.44708 0.8842 0.0
C211 C 0.99259 0.48011 0.90042 0.0
H212 H 0.04627 0.58929 0.88523 0.0
H213 H 0.02215 0.56424 0.89987 0.0
H214 H 0.08005 0.52362 0.87023 0.0
H215 H 0.05598 0.49869 0.88485 0.0
H216 H 0.08636 0.55012 0.93101 0.0
H217 H 0.06449 0.52241 0.91672 0.0
H218 H 0.01709 0.58036 0.94358 0.0
H219 H 0.99514 0.55245 0.92921 0.0
H220 H 0.96291 0.40703 0.92752 0.0
H221 H 0.99011 0.43416 0.91549 0.0
H222 H 0.92076 0.46991 0.93984 0.0
H223 H 0.94799 0.49699 0.92775 0.0
H224 H 0.92352 0.44289 0.883 0.0
H225 H 0.94323 0.47054 0.89811 0.0
H226 H 0.99499 0.42073 0.8692 0.0
H227 H 0.01461 0.44848 0.88429 0.0
N228 N 0.00919 0.49514 0.89479 0.0
N229 N -0.00166 0.50269 0.91952 0.0
C230 C 0.43082 0.55129 0.13717 0.0
C231 C 0.44171 0.56636 0.12793 0.0
C232 C 0.44536 0.5364 0.14493 0.0
C233 C 0.47113 0.53664 0.1438 0.0
C234 C 0.46751 0.56654 0.12685 0.0
C235 C 0.48201 0.55186 0.13469 0.0
C236 C 0.48689 0.51974 0.15123 0.0
C237 C 0.45136 0.56734 0.18093 0.0
C238 C 0.43436 0.55461 0.18848 0.0
C239 C 0.46707 0.55456 0.17283 0.0
C240 C 0.46611 0.52885 0.1722 0.0
C241 C 0.43321 0.52889 0.18774 0.0
C242 C 0.44921 0.51608 0.17976 0.0
C243 C 0.48373 0.5152 0.16427 0.0
C244 C 0.57521 0.45918 0.17773 0.0
C245 C 0.56544 0.44227 0.18641 0.0
C246 C 0.5596 0.47361 0.17032 0.0
C247 C 0.53394 0.47112 0.17131 0.0
C248 C 0.53975 0.44008 0.18751 0.0
C249 C 0.52416 0.45445 0.18006 0.0
C250 C 0.51719 0.48687 0.16385 0.0
C251 C 0.55582 0.44018 0.13469 0.0
C252 C 0.57078 0.45354 0.1263 0.0
C253 C 0.53973 0.45235 0.14288 0.0
C254 C 0.53839 0.4781 0.14288 0.0
C255 C 0.56963 0.47935 0.1265 0.0
C256 C 0.55344 0.49147 0.13462 0.0
C257 C 0.5202 0.49118 0.15078 0.0
H258 H 0.41104 0.55077 0.13832 0.0
H259 H 0.43634 0.52423 0.15155 0.0
H260 H 0.47657 0.57745 0.11968 0.0
H261 H 0.50181 0.55216 0.1335 0.0
H262 H 0.45249 0.58719 0.18131 0.0
H263 H 0.48027 0.56472 0.16722 0.0
H264 H 0.42036 0.51871 0.19354 0.0
H265 H 0.44841 0.4962 0.17948 0.0
H266 H 0.59491 0.46159 0.17683 0.0
H267 H 0.56763 0.48699 0.16398 0.0
H268 H 0.53167 0.42704 0.19402 0.0
H269 H 0.50443 0.45241 0.18108 0.0
H270 H 0.55591 0.42029 0.13464 0.0
H271 H 0.52786 0.44162 0.14897 0.0
H272 H 0.58116 0.49024 0.12032 0.0
H273 H 0.55264 0.51135 0.13445 0.0
N274 N 0.50505 0.50754 0.14502 0.0
N275 N 0.49894 0.49891 0.17007 0.0
C276 C 0.44946 0.93879 0.384 0.0
C277 C 0.43488 0.9506 0.37484 0.0
C278 C 0.46389 0.95251 0.39238 0.0
C279 C 0.46389 0.97827 0.39178 0.0
C280 C 0.4345 0.97642 0.37451 0.0
C281 C 0.44902 0.99008 0.38282 0.0
C282 C 0.4807 0.99305 0.39971 0.0
C283 C 0.42577 0.9626 0.42744 0.0
C284 C 0.43596 0.94487 0.43554 0.0
C285 C 0.44095 0.97693 0.4198 0.0
C286 C 0.46656 0.97388 0.42023 0.0
C287 C 0.46157 0.94149 0.43578 0.0
C288 C 0.4768 0.95616 0.42829 0.0
C289 C 0.48269 0.99026 0.4129 0.0
C290 C 0.54455 0.07799 0.42743 0.0
C291 C 0.55653 0.06799 0.43805 0.0
C292 C 0.53036 0.06315 0.4195 0.0
C293 C 0.5286 0.03776 0.42167 0.0
C294 C 0.55389 0.0427 0.44047 0.0
C295 C 0.54022 0.02779 0.43235 0.0
C296 C 0.51325 0.0217 0.41354 0.0
C297 C 0.56849 0.05412 0.38631 0.0
C298 C 0.55805 0.06854 0.37666 0.0
C299 C 0.55352 0.03996 0.3942 0.0
C300 C 0.52785 0.04014 0.39265 0.0
C301 C 0.53233 0.06878 0.37522 0.0
C302 C 0.51742 0.05463 0.38309 0.0
C303 C 0.5118 0.02393 0.40023 0.0
H304 H 0.45046 0.91894 0.3844 0.0
H305 H 0.47567 0.94296 0.39901 0.0
H306 H 0.42317 0.98612 0.36773 0.0
H307 H 0.44877 0.00994 0.38219 0.0
H308 H 0.40604 0.96544 0.42709 0.0
H309 H 0.43274 0.99078 0.41378 0.0
H310 H 0.46978 0.92802 0.44202 0.0
H311 H 0.49657 0.95373 0.42879 0.0
H312 H 0.54619 0.09729 0.42514 0.0
H313 H 0.52063 0.0717 0.41173 0.0
H314 H 0.56217 0.03435 0.44872 0.0
H315 H 0.5387 0.00837 0.43445 0.0
H316 H 0.58823 0.05361 0.38767 0.0
H317 H 0.56204 0.02848 0.40132 0.0
H318 H 0.52372 0.0793 0.36774 0.0
H319 H 0.49768 0.05482 0.38163 0.0
N320 N 0.49537 0.00972 0.39388 0.0
N321 N 0.49879 0.00471 0.41931 0.0
C322 C 0.06778 0.95638 0.63731 0.0
C323 C 0.05856 0.93856 0.62892 0.0
C324 C 0.05185 0.96917 0.64534 0.0
C325 C 0.02647 0.9643 0.64511 0.0
C326 C 0.03316 0.93374 0.62875 0.0
C327 C 0.01726 0.94663 0.6367 0.0
C328 C 0.00917 0.97833 0.65309 0.0
C329 C 0.05528 0.93179 0.67825 0.0
C330 C 0.06849 0.94466 0.68752 0.0
C331 C 0.0364 0.94332 0.67158 0.0
C332 C 0.03103 0.96823 0.67372 0.0
C333 C 0.06239 0.96916 0.69015 0.0
C334 C 0.04384 0.98091 0.68325 0.0
C335 C 0.01171 0.98095 0.66631 0.0
C336 C 0.91675 0.03145 0.68062 0.0
C337 C 0.9257 0.04741 0.69 0.0
C338 C 0.93304 0.01811 0.67304 0.0
C339 C 0.95859 0.02084 0.67456 0.0
C340 C 0.95126 0.04965 0.69169 0.0
C341 C 0.96753 0.03643 0.68408 0.0
C342 C 0.97617 0.00678 0.6667 0.0
C343 C 0.93773 0.05564 0.63801 0.0
C344 C 0.92581 0.0429 0.6282 0.0
C345 C 0.95254 0.04302 0.64667 0.0
C346 C 0.95539 0.01743 0.64573 0.0
C347 C 0.928 0.01721 0.62759 0.0
C348 C 0.94274 0.00464 0.63623 0.0
C349 C 0.9738 0.00422 0.65346 0.0
H350 H 0.08728 0.96046 0.63763 0.0
H351 H 0.05928 0.98307 0.6516 0.0
H352 H 0.02548 0.92043 0.62224 0.0
H353 H 0.99771 0.94281 0.63629 0.0
H354 H 0.05935 0.91268 0.6763 0.0
H355 H 0.02603 0.93268 0.66477 0.0
H356 H 0.07226 0.97929 0.69737 0.0
H357 H 0.03973 -0.0 0.68524 0.0
H358 H 0.89714 0.02906 0.67924 0.0
H359 H 0.92564 0.00552 0.66609 0.0
H360 H 0.95872 0.06199 0.69876 0.0
H361 H 0.98715 0.03867 0.68551 0.0
H362 H 0.93661 0.07546 0.63862 0.0
H363 H 0.96263 0.0534 0.65371 0.0
H364 H 0.91875 0.00685 0.62025 0.0
H365 H 0.94476 0.98493 0.63529 0.0
N366 N 0.99029 0.98996 0.64722 0.0
N367 N 0.99516 0.99518 0.67259 0.0
In368 In 0.29408 0.69651 0.00266 0.0
O369 O 0.28734 0.73346 0.01229 0.0
O370 O 0.31317 0.73202 0.99722 0.0
C371 C 0.24617 0.68474 8e-05 0.0
C372 C 0.31492 0.67947 0.02414 0.0
C373 C 0.31359 0.67639 0.98152 0.0
O374 O 0.25394 0.70636 0.99851 0.0
O375 O 0.26246 0.66935 0.00312 0.0
O376 O 0.31889 0.66902 0.99247 0.0
O377 O 0.29856 0.694 0.9812 0.0
C378 C 0.30278 0.74488 0.00559 0.0
O379 O 0.32662 0.6918 0.01605 0.0
O380 O 0.29265 0.67562 0.0214 0.0
In381 In 0.30518 0.7949 0.25185 0.0
O382 O 0.29463 0.75587 0.24594 0.0
O383 O 0.329 0.76123 0.25509 0.0
C384 C 0.25873 0.81126 0.25496 0.0
C385 C 0.32591 0.80897 0.22986 0.0
C386 C 0.32432 0.81663 0.27258 0.0
O387 O 0.26601 0.79112 0.25953 0.0
O388 O 0.27462 0.82258 0.24854 0.0
O389 O 0.32509 0.82615 0.26173 0.0
O390 O 0.31404 0.79587 0.27302 0.0
C391 C 0.31436 0.74637 0.2499 0.0
O392 O 0.33738 0.80885 0.24022 0.0
O393 O 0.30383 0.8019 0.23053 0.0
In394 In 0.19765 0.80332 0.50302 0.0
O395 O 0.16584 0.81944 0.51425 0.0
O396 O 0.1995 0.81312 0.52398 0.0
C397 C 0.17835 0.82406 0.4821 0.0
C398 C 0.18697 0.7553 0.50616 0.0
C399 C 0.24456 0.81799 0.49947 0.0
O400 O 0.1762 0.83329 0.49298 0.0
O401 O 0.1901 0.80406 0.48173 0.0
O402 O 0.2369 0.79741 0.49565 0.0
O403 O 0.22881 0.83062 0.50529 0.0
C404 C 0.17762 0.82084 0.52451 0.0
O405 O 0.20471 0.7656 0.51172 0.0
O406 O 0.17506 0.76905 0.49878 0.0
In407 In 0.19489 0.70309 0.7506 0.0
O408 O 0.1671 0.67839 0.76038 0.0
O409 O 0.18614 0.7043 0.77177 0.0
C410 C 0.17625 0.68549 0.72874 0.0
C411 C 0.23985 0.68483 0.75588 0.0
C412 C 0.19212 0.7517 0.74595 0.0
O413 O 0.16313 0.69618 0.73691 0.0
O414 O 0.19873 0.68382 0.73157 0.0
O415 O 0.2073 0.73782 0.74044 0.0
O416 O 0.17877 0.74117 0.75404 0.0
C417 C 0.17068 0.68703 0.77129 0.0
O418 O 0.23526 0.70753 0.7565 0.0
O419 O 0.22194 0.67168 0.75252 0.0
In420 In 0.80107 0.19339 0.50205 0.0
O421 O 0.79448 0.23358 0.50729 0.0
O422 O 0.831 0.22229 0.50296 0.0
C423 C 0.75232 0.18603 0.49916 0.0
C424 C 0.81932 0.17153 0.52295 0.0
C425 C 0.81738 0.17489 0.47985 0.0
O426 O 0.76333 0.20378 0.494 0.0
O427 O 0.76575 0.17261 0.50598 0.0
O428 O 0.80867 0.16169 0.48853 0.0
O429 O 0.81792 0.19754 0.48232 0.0
C430 C 0.81685 0.23952 0.50624 0.0
O431 O 0.82739 0.1672 0.512 0.0
O432 O 0.80204 0.18698 0.5234 0.0
In433 In 0.80602 0.29595 0.75156 0.0
O434 O 0.83667 0.3011 0.73708 0.0
O435 O 0.80169 0.31664 0.73296 0.0
C436 C 0.83306 0.31121 0.77151 0.0
C437 C 0.80742 0.24689 0.74784 0.0
C438 C 0.7621 0.31616 0.75723 0.0
O439 O 0.83869 0.31614 0.76024 0.0
O440 O 0.81398 0.29826 0.77274 0.0
O441 O 0.76538 0.29319 0.75727 0.0
O442 O 0.78071 0.32856 0.75412 0.0
C443 C 0.82363 0.31331 0.72946 0.0
O444 O 0.79499 0.26107 0.74091 0.0
O445 O 0.81839 0.25736 0.75685 0.0
In446 In 0.70175 0.30218 0.00353 0.0
O447 O 0.70481 0.26382 0.01216 0.0
O448 O 0.67358 0.27169 0.00082 0.0
C449 C 0.74992 0.30952 0.99835 0.0
C450 C 0.69009 0.32687 0.02482 0.0
C451 C 0.67808 0.32021 0.98313 0.0
O452 O 0.73814 0.29128 0.99421 0.0
O453 O 0.73764 0.32355 0.0054 0.0
O454 O 0.6708 0.32383 0.9943 0.0
O455 O 0.69717 0.30713 0.9822 0.0
C456 C 0.68475 0.25628 0.00759 0.0
O457 O 0.6888 0.33633 0.01396 0.0
O458 O 0.69767 0.30496 0.025 0.0
In459 In 0.69718 0.1976 0.24889 0.0
O460 O 0.66968 0.1735 0.25934 0.0
O461 O 0.69219 0.19723 0.27033 0.0
C462 C 0.67722 0.17895 0.22759 0.0
C463 C 0.74326 0.18093 0.25272 0.0
C464 C 0.69101 0.24617 0.24492 0.0
O465 O 0.70001 0.1783 0.22981 0.0
O466 O 0.66447 0.18906 0.23609 0.0
O467 O 0.70499 0.23315 0.23817 0.0
O468 O 0.6808 0.23485 0.25388 0.0
C469 C 0.67559 0.18104 0.2702 0.0
O470 O 0.73821 0.20357 0.2529 0.0
O471 O 0.72523 0.16707 0.25046 0.0
C472 C 0.08397 0.90338 0.30906 0.0
C473 C 0.08471 0.92914 0.30901 0.0
C474 C 0.10057 0.88986 0.30174 0.0
C475 C 0.16089 0.89683 0.28579 0.0
H476 H 0.14432 0.83402 0.27069 0.0
C477 C 0.22932 0.84632 0.25421 0.0
C478 C 0.2347 0.82226 0.25812 0.0
C479 C 0.20858 0.85844 0.25883 0.0
C480 C 0.14912 0.85154 0.27487 0.0
H481 H 0.1023 0.96107 0.30086 0.0
H482 H 0.13067 0.93766 0.28773 0.0
H483 H 0.11261 0.85751 0.28184 0.0
H484 H 0.22176 0.79141 0.26921 0.0
H485 H 0.18524 0.81265 0.27723 0.0
H486 H 0.19726 0.89099 0.27875 0.0
C487 C 0.11799 0.92774 0.29374 0.0
C488 C 0.13105 0.86494 0.28131 0.0
C489 C 0.10169 0.94119 0.30121 0.0
C490 C 0.21808 0.80998 0.26607 0.0
C491 C 0.19717 0.82208 0.27063 0.0
C492 C 0.17876 0.88363 0.27924 0.0
C493 C 0.11799 0.9019 0.29408 0.0
C494 C 0.13676 0.88774 0.28689 0.0
C495 C 0.19272 0.84668 0.26736 0.0
C496 C 0.17311 0.86085 0.27376 0.0
H497 H 0.07103 0.89373 0.31506 0.0
H498 H 0.1002 0.87003 0.30237 0.0
H499 H 0.16621 0.91395 0.29023 0.0
H500 H 0.24172 0.85622 0.24802 0.0
H501 H 0.20536 0.87732 0.25605 0.0
C502 C 0.09709 0.58742 0.56221 0.0
C503 C 0.07606 0.57599 0.55716 0.0
C504 C 0.11148 0.60292 0.55475 0.0
C505 C 0.10638 0.64375 0.52769 0.0
H506 H 0.17767 0.64485 0.52919 0.0
C507 C 0.16028 0.71889 0.50198 0.0
C508 C 0.179 0.73007 0.50909 0.0
C509 C 0.15018 0.69655 0.50584 0.0
C510 C 0.15777 0.64485 0.52871 0.0
H511 H 0.05432 0.5711 0.54012 0.0
H512 H 0.0792 0.59861 0.52718 0.0
H513 H 0.15504 0.6123 0.54001 0.0
H514 H 0.20277 0.72612 0.52542 0.0
H515 H 0.18475 0.68754 0.53238 0.0
H516 H 0.10881 0.67677 0.51694 0.0
C517 C 0.08439 0.59565 0.53695 0.0
C518 C 0.14484 0.62619 0.53488 0.0
C519 C 0.07009 0.58001 0.54439 0.0
C520 C 0.18836 0.71789 0.51974 0.0
C521 C 0.17809 0.69567 0.52369 0.0
C522 C 0.11925 0.66249 0.52162 0.0
C523 C 0.10507 0.60745 0.5421 0.0
C524 C 0.119 0.6257 0.53459 0.0
C525 C 0.1584 0.68508 0.51698 0.0
C526 C 0.14509 0.66352 0.52222 0.0
H527 H 0.10204 0.58501 0.57205 0.0
H528 H 0.12712 0.61206 0.55902 0.0
H529 H 0.08645 0.64402 0.52744 0.0
H530 H 0.15288 0.72779 0.49364 0.0
H531 H 0.13544 0.68863 0.50028 0.0
C532 C 0.3981 0.56294 0.80273 0.0
C533 C 0.42005 0.57333 0.80733 0.0
C534 C 0.38211 0.57667 0.79522 0.0
C535 C 0.36174 0.6389 0.78958 0.0
H536 H 0.33182 0.61108 0.75951 0.0
C537 C 0.28369 0.68908 0.76296 0.0
C538 C 0.26383 0.67412 0.75938 0.0
C539 C 0.30582 0.67854 0.767 0.0
C540 C 0.33991 0.61908 0.76792 0.0
H541 H 0.44255 0.6063 0.80735 0.0
H542 H 0.41402 0.63054 0.79457 0.0
H543 H 0.36492 0.58899 0.77016 0.0
H544 H 0.25164 0.63648 0.75696 0.0
H545 H 0.28975 0.61817 0.76426 0.0
H546 H 0.33596 0.66836 0.78778 0.0
C547 C 0.40941 0.61167 0.79679 0.0
C548 C 0.3589 0.60646 0.77397 0.0
C549 C 0.42563 0.59781 0.80417 0.0
C550 C 0.26666 0.6485 0.75963 0.0
C551 C 0.28863 0.63799 0.76372 0.0
C552 C 0.34253 0.65141 0.78361 0.0
C553 C 0.38751 0.60121 0.79228 0.0
C554 C 0.3696 0.616 0.78501 0.0
C555 C 0.30843 0.65284 0.76758 0.0
C556 C 0.33097 0.64134 0.77289 0.0
H557 H 0.3929 0.54435 0.80517 0.0
H558 H 0.36512 0.56831 0.79203 0.0
H559 H 0.3696 0.64655 0.79813 0.0
H560 H 0.28203 0.7089 0.7628 0.0
H561 H 0.32081 0.6905 0.76977 0.0
C562 C 0.38721 0.92154 0.05926 0.0
C563 C 0.41233 0.92502 0.05687 0.0
C564 C 0.37344 0.90546 0.05175 0.0
C565 C 0.38285 0.85235 0.03039 0.0
H566 H 0.31288 0.85963 0.02419 0.0
C567 C 0.33046 0.7806 0.0018 0.0
C568 C 0.31049 0.7703 0.00834 0.0
C569 C 0.34071 0.80277 0.0058 0.0
C570 C 0.33243 0.85747 0.02584 0.0
H571 H 0.44259 0.91595 0.04444 0.0
H572 H 0.41848 0.88878 0.03094 0.0
H573 H 0.33554 0.89272 0.0347 0.0
H574 H 0.28437 0.77597 0.02355 0.0
H575 H 0.30228 0.81491 0.03051 0.0
H576 H 0.37977 0.81721 0.02155 0.0
C577 C 0.40946 0.89755 0.03887 0.0
C578 C 0.34541 0.87631 0.03191 0.0
C579 C 0.42327 0.91321 0.04652 0.0
C580 C 0.29982 0.78346 0.01837 0.0
C581 C 0.30999 0.80577 0.02232 0.0
C582 C 0.37 0.83378 0.02419 0.0
C583 C 0.38453 0.8929 0.04159 0.0
C584 C 0.37076 0.87385 0.03439 0.0
C585 C 0.33107 0.81514 0.01634 0.0
C586 C 0.34464 0.83602 0.02196 0.0
H587 H 0.3785 0.93049 0.06725 0.0
H588 H 0.35441 0.90217 0.05424 0.0
H589 H 0.40216 0.84941 0.0324 0.0
H590 H 0.33898 0.77095 0.99398 0.0
H591 H 0.35679 0.80978 0.00095 0.0
C592 C 0.06246 0.60833 0.94812 0.0
C593 C 0.06673 0.58291 0.94754 0.0
C594 C 0.0765 0.62313 0.95619 0.0
C595 C 0.11785 0.62123 0.98393 0.0
H596 H 0.15231 0.67471 0.96749 0.0
C597 C 0.21337 0.65286 0.99922 0.0
C598 C 0.22049 0.67741 0.99757 0.0
C599 C 0.19006 0.64502 0.99547 0.0
C600 C 0.14245 0.66028 0.97237 0.0
H601 H 0.08799 0.55281 0.95529 0.0
H602 H 0.1124 0.57854 0.96939 0.0
H603 H 0.11884 0.65401 0.95649 0.0
H604 H 0.2084 0.71337 0.99135 0.0
H605 H 0.16742 0.69968 0.98486 0.0
H606 H 0.14195 0.62694 -0.00034 0.0
C607 C 0.09829 0.5871 0.96365 0.0
C608 C 0.12328 0.64839 0.96604 0.0
C609 C 0.08453 0.57241 0.95549 0.0
C610 C 0.20342 0.69429 0.99267 0.0
C611 C 0.18002 0.68643 0.9889 0.0
C612 C 0.13689 0.63322 0.9903 0.0
C613 C 0.0947 0.61264 0.96394 0.0
C614 C 0.11144 0.62817 0.97158 0.0
C615 C 0.17329 0.66158 0.99 0.0
C616 C 0.15004 0.65224 0.98439 0.0
H617 H 0.04884 0.61682 0.94206 0.0
H618 H 0.07337 0.64277 0.95627 0.0
H619 H 0.10873 0.60593 0.98849 0.0
H620 H 0.22612 0.63943 0.00299 0.0
H621 H 0.18568 0.62569 0.99629 0.0
C622 C 0.4285 0.58562 0.20559 0.0
C623 C 0.41829 0.56825 0.1973 0.0
C624 C 0.41339 0.59942 0.21353 0.0
C625 C 0.35269 0.62588 0.21471 0.0
H626 H 0.36988 0.64065 0.24949 0.0
C627 C 0.30487 0.70474 0.24108 0.0
C628 C 0.32111 0.72056 0.24744 0.0
C629 C 0.31272 0.68148 0.23717 0.0
C630 C 0.36483 0.63676 0.23979 0.0
H631 H 0.38444 0.55126 0.19092 0.0
H632 H 0.35777 0.57596 0.20469 0.0
H633 H 0.39181 0.60821 0.23821 0.0
H634 H 0.35779 0.72401 0.25531 0.0
H635 H 0.37167 0.68396 0.24825 0.0
H636 H 0.3269 0.65536 0.21592 0.0
C637 C 0.37751 0.57865 0.20509 0.0
C638 C 0.37732 0.61813 0.23337 0.0
C639 C 0.39271 0.56453 0.19727 0.0
C640 C 0.34485 0.71223 0.25042 0.0
C641 C 0.35275 0.68911 0.24644 0.0
C642 C 0.3404 0.64472 0.22108 0.0
C643 C 0.38773 0.59634 0.21322 0.0
C644 C 0.37185 0.61302 0.22066 0.0
C645 C 0.33701 0.67368 0.23947 0.0
C646 C 0.34686 0.65091 0.23357 0.0
H647 H 0.4482 0.58865 0.20584 0.0
H648 H 0.42172 0.61314 0.2196 0.0
H649 H 0.34826 0.62243 0.20489 0.0
H650 H 0.28639 0.71065 0.23874 0.0
H651 H 0.29998 0.6699 0.23202 0.0
C652 C 0.40323 0.94292 0.45194 0.0
C653 C 0.41982 0.93063 0.44401 0.0
C654 C 0.38705 0.92971 0.45955 0.0
C655 C 0.37321 0.86726 0.47208 0.0
H656 H 0.30746 0.89449 0.47467 0.0
C657 C 0.28501 0.81484 0.48821 0.0
C658 C 0.26893 0.82797 0.49613 0.0
C659 C 0.3062 0.8261 0.48345 0.0
C660 C 0.32583 0.88679 0.47417 0.0
H661 H 0.43308 0.89506 0.43793 0.0
H662 H 0.40405 0.87173 0.45088 0.0
H663 H 0.33874 0.91661 0.46298 0.0
H664 H 0.26325 0.86246 0.506 0.0
H665 H 0.30008 0.88205 0.49763 0.0
H666 H 0.35954 0.83684 0.48293 0.0
C667 C 0.40389 0.89158 0.45149 0.0
C668 C 0.34383 0.89951 0.4675 0.0
C669 C 0.42041 0.90487 0.44401 0.0
C670 C 0.27518 0.85194 0.49983 0.0
C671 C 0.2962 0.8632 0.49502 0.0
C672 C 0.35499 0.85432 0.47865 0.0
C673 C 0.38675 0.90387 0.45921 0.0
C674 C 0.36782 0.89004 0.46643 0.0
C675 C 0.31147 0.85067 0.48648 0.0
C676 C 0.33119 0.86411 0.4798 0.0
H677 H 0.40277 0.96281 0.45223 0.0
H678 H 0.37461 0.93981 0.46563 0.0
H679 H 0.39153 0.85951 0.47155 0.0
H680 H 0.28065 0.7963 0.48524 0.0
H681 H 0.31768 0.81609 0.47685 0.0
C682 C 0.08653 0.92859 0.70757 0.0
C683 C 0.08831 0.93209 0.69448 0.0
C684 C 0.10355 0.91366 0.71385 0.0
C685 C 0.14578 0.86236 0.70667 0.0
H686 H 0.16233 0.86834 0.74221 0.0
C687 C 0.20039 0.78695 0.73149 0.0
C688 C 0.18821 0.77746 0.74213 0.0
C689 C 0.19364 0.80973 0.72653 0.0
C690 C 0.15794 0.86655 0.73226 0.0
H691 H 0.1099 0.92451 0.67776 0.0
H692 H 0.14034 0.89941 0.68873 0.0
H693 H 0.14067 0.90188 0.73158 0.0
H694 H 0.16081 0.78511 0.75649 0.0
H695 H 0.14904 0.82495 0.74782 0.0
H696 H 0.16271 0.82699 0.70737 0.0
C697 C 0.12539 0.90728 0.69415 0.0
C698 C 0.14544 0.88567 0.72618 0.0
C699 C 0.10811 0.92177 0.68786 0.0
C700 C 0.17043 0.79193 0.74825 0.0
C701 C 0.16379 0.8148 0.74333 0.0
C702 C 0.1585 0.84348 0.71269 0.0
C703 C 0.12285 0.9023 0.70714 0.0
C704 C 0.13872 0.88357 0.71336 0.0
C705 C 0.17472 0.8235 0.73217 0.0
C706 C 0.16428 0.84514 0.72559 0.0
H707 H 0.07127 0.93633 0.71282 0.0
H708 H 0.10077 0.91008 0.72381 0.0
H709 H 0.1405 0.85971 0.69689 0.0
H710 H 0.21428 0.77626 0.72662 0.0
H711 H 0.20255 0.81616 0.71799 0.0
C712 C 0.58179 0.40419 0.81028 0.0
C713 C 0.58424 0.42964 0.81209 0.0
C714 C 0.59951 0.39114 0.80343 0.0
C715 C 0.6644 0.39606 0.79341 0.0
H716 H 0.64814 0.34248 0.7707 0.0
C717 C 0.73721 0.35371 0.76128 0.0
C718 C 0.73907 0.32799 0.76141 0.0
C719 C 0.71679 0.36537 0.76652 0.0
C720 C 0.6529 0.35731 0.77708 0.0
H721 H 0.60632 0.4616 0.80763 0.0
H722 H 0.63695 0.43902 0.79552 0.0
H723 H 0.61517 0.36451 0.7817 0.0
H724 H 0.72051 0.29422 0.76656 0.0
H725 H 0.68459 0.31475 0.77578 0.0
H726 H 0.702 0.38906 0.78878 0.0
C727 C 0.62182 0.42895 0.79968 0.0
C728 C 0.63407 0.36988 0.7834 0.0
C729 C 0.60426 0.44191 0.8066 0.0
C730 C 0.71955 0.31408 0.76636 0.0
C731 C 0.69899 0.32581 0.77159 0.0
C732 C 0.6831 0.38365 0.78707 0.0
C733 C 0.61991 0.40335 0.79819 0.0
C734 C 0.63964 0.38953 0.79156 0.0
C735 C 0.69776 0.35158 0.772 0.0
C736 C 0.67757 0.36428 0.77877 0.0
H737 H 0.56657 0.39428 0.81447 0.0
H738 H 0.59761 0.37142 0.80255 0.0
H739 H 0.66941 0.41066 0.79988 0.0
H740 H 0.75187 0.36492 0.75744 0.0
H741 H 0.71611 0.38525 0.7665 0.0
C742 C 0.55714 0.08718 0.04579 0.0
C743 C 0.56452 0.08044 0.05806 0.0
C744 C 0.5713 0.10347 0.03865 0.0
C745 C 0.63339 0.1298 0.03567 0.0
H746 H 0.59962 0.18553 0.02089 0.0
C747 C 0.6835 0.21844 0.02089 0.0
C748 C 0.674 0.23224 0.01081 0.0
C749 C 0.6714 0.19727 0.02499 0.0
C750 C 0.60936 0.16985 0.0247 0.0
H751 H 0.59263 0.08565 0.07241 0.0
H752 H 0.61747 0.11372 0.05986 0.0
H753 H 0.57591 0.15334 0.03113 0.0
H754 H 0.64536 0.23399 0.99657 0.0
H755 H 0.62463 0.19664 0.00344 0.0
H756 H 0.66688 0.14633 0.02931 0.0
C757 C 0.60084 0.10619 0.05574 0.0
C758 C 0.59573 0.15144 0.03061 0.0
C759 C 0.58659 0.09009 0.06293 0.0
C760 C 0.65295 0.22381 0.00446 0.0
C761 C 0.64099 0.2025 0.00846 0.0
C762 C 0.64704 0.14811 0.02965 0.0
C763 C 0.59324 0.11318 0.04358 0.0
C764 C 0.60763 0.13146 0.03634 0.0
C765 C 0.64967 0.18934 0.01899 0.0
C766 C 0.63521 0.16859 0.02428 0.0
H767 H 0.54049 0.07976 0.04166 0.0
H768 H 0.56514 0.10841 0.02925 0.0
H769 H 0.643 0.11441 0.03988 0.0
H770 H 0.69968 0.22457 0.02598 0.0
H771 H 0.67848 0.18779 0.03321 0.0
C772 C 0.90284 0.06405 0.30003 0.0
C773 C 0.92466 0.07463 0.30468 0.0
C774 C 0.88713 0.07743 0.2922 0.0
C775 C 0.86688 0.13925 0.28561 0.0
H776 H 0.83778 0.1098 0.25574 0.0
C777 C 0.78752 0.18667 0.25877 0.0
C778 C 0.76787 0.17104 0.25567 0.0
C779 C 0.81014 0.17688 0.26261 0.0
C780 C 0.84567 0.11827 0.26408 0.0
H781 H 0.94722 0.10756 0.30444 0.0
H782 H 0.91914 0.1312 0.29112 0.0
H783 H 0.87095 0.08855 0.26679 0.0
H784 H 0.75663 0.13301 0.25375 0.0
H785 H 0.79559 0.11601 0.26066 0.0
H786 H 0.84077 0.1683 0.28338 0.0
C787 C 0.91444 0.11246 0.29354 0.0
C788 C 0.8647 0.10613 0.27035 0.0
C789 C 0.93038 0.09895 0.30124 0.0
C790 C 0.77145 0.14553 0.25607 0.0
C791 C 0.79392 0.13578 0.25993 0.0
C792 C 0.84763 0.15128 0.27941 0.0
C793 C 0.89268 0.10179 0.28897 0.0
C794 C 0.87503 0.11621 0.28136 0.0
C795 C 0.81345 0.15129 0.26343 0.0
C796 C 0.83634 0.14058 0.26878 0.0
H797 H 0.89753 0.0456 0.30266 0.0
H798 H 0.87023 0.06893 0.28898 0.0
H799 H 0.87447 0.14732 0.29413 0.0
H800 H 0.78528 0.20643 0.25849 0.0
H801 H 0.82491 0.18933 0.26509 0.0
C802 C 0.89745 0.42565 0.55594 0.0
C803 C 0.92292 0.42202 0.55726 0.0
C804 C 0.88343 0.4097 0.54848 0.0
C805 C 0.88806 0.36358 0.52302 0.0
H806 H 0.83115 0.3338 0.53891 0.0
C807 C 0.85146 0.26919 0.50851 0.0
C808 C 0.82617 0.26425 0.50933 0.0
C809 C 0.8608 0.29178 0.51244 0.0
C810 C 0.84664 0.34229 0.53419 0.0
H811 H 0.95387 0.39957 0.55148 0.0
H812 H 0.92945 0.37174 0.53846 0.0
H813 H 0.85213 0.36776 0.54936 0.0
H814 H 0.79062 0.2794 0.51441 0.0
H815 H 0.80695 0.31914 0.52119 0.0
H816 H 0.88294 0.33782 0.50798 0.0
C817 C 0.92029 0.38687 0.54317 0.0
C818 C 0.85868 0.36172 0.5402 0.0
C819 C 0.93422 0.40261 0.55072 0.0
C820 C 0.81023 0.28268 0.51373 0.0
C821 C 0.81959 0.30537 0.51767 0.0
C822 C 0.87593 0.34428 0.51697 0.0
C823 C 0.89473 0.39009 0.54207 0.0
C824 C 0.87993 0.37206 0.53485 0.0
C825 C 0.84504 0.31001 0.51726 0.0
C826 C 0.85553 0.33291 0.52267 0.0
H827 H 0.88829 0.44044 0.56093 0.0
H828 H 0.86376 0.41262 0.54776 0.0
H829 H 0.90417 0.37152 0.51859 0.0
H830 H 0.8642 0.25534 0.50515 0.0
H831 H 0.88052 0.29455 0.51218 0.0
C832 C 0.56597 0.10861 0.44853 0.0
C833 C 0.57192 0.08372 0.44646 0.0
C834 C 0.58108 0.12349 0.45602 0.0
C835 C 0.62406 0.12367 0.48184 0.0
H836 H 0.66139 0.17381 0.46431 0.0
C837 C 0.71751 0.15642 0.49974 0.0
C838 C 0.72654 0.17962 0.49633 0.0
C839 C 0.69451 0.14859 0.49552 0.0
C840 C 0.65072 0.16044 0.46951 0.0
H841 H 0.59866 0.0552 0.4508 0.0
H842 H 0.62409 0.08092 0.46433 0.0
H843 H 0.62804 0.1527 0.45339 0.0
H844 H 0.71795 0.21357 0.48662 0.0
H845 H 0.67719 0.20032 0.47966 0.0
H846 H 0.64645 0.13122 0.49798 0.0
C847 C 0.60775 0.08876 0.46006 0.0
C848 C 0.63171 0.14827 0.4632 0.0
C849 C 0.59304 0.07403 0.45235 0.0
C850 C 0.71149 0.19549 0.48929 0.0
C851 C 0.68822 0.18779 0.48522 0.0
C852 C 0.64269 0.13619 0.48826 0.0
C853 C 0.60201 0.11361 0.46183 0.0
C854 C 0.61885 0.12927 0.46919 0.0
C855 C 0.67975 0.16394 0.48796 0.0
C856 C 0.65694 0.15406 0.48202 0.0
H857 H 0.54963 0.11668 0.44441 0.0
H858 H 0.57639 0.14267 0.45731 0.0
H859 H 0.61416 0.10914 0.48663 0.0
H860 H 0.72873 0.14375 0.50513 0.0
H861 H 0.68897 0.12997 0.49768 0.0
C862 C 0.88862 0.07447 0.69222 0.0
C863 C 0.90856 0.06217 0.69783 0.0
C864 C 0.87375 0.0901 0.6994 0.0
C865 C 0.87721 0.12843 0.72782 0.0
H866 H 0.80735 0.13763 0.72197 0.0
C867 C 0.82584 0.20601 0.75276 0.0
C868 C 0.81164 0.22082 0.7447 0.0
C869 C 0.83367 0.18282 0.74882 0.0
C870 C 0.82685 0.13526 0.7237 0.0
H871 H 0.92766 0.05541 0.71548 0.0
H872 H 0.90164 0.08259 0.72804 0.0
H873 H 0.82893 0.10372 0.71161 0.0
H874 H 0.79306 0.22237 0.72658 0.0
H875 H 0.80706 0.18206 0.71959 0.0
H876 H 0.87548 0.1603 0.73953 0.0
C877 C 0.89779 0.08056 0.71804 0.0
C878 C 0.8392 0.11588 0.71776 0.0
C879 C 0.9127 0.06501 0.71086 0.0
C880 C 0.80401 0.21135 0.73299 0.0
C881 C 0.81196 0.18819 0.72901 0.0
C882 C 0.8649 0.14775 0.73373 0.0
C883 C 0.87847 0.09369 0.71234 0.0
C884 C 0.86462 0.11252 0.71959 0.0
C885 C 0.8276 0.17403 0.73671 0.0
C886 C 0.83968 0.15167 0.73158 0.0
H887 H 0.88511 0.07281 0.68217 0.0
H888 H 0.85923 0.10018 0.69467 0.0
H889 H 0.89686 0.12667 0.72927 0.0
H890 H 0.8318 0.21276 0.7619 0.0
H891 H 0.84527 0.17215 0.75507 0.0
C892 C 0.93234 0.40153 0.94954 0.0
C893 C 0.92294 0.41998 0.94161 0.0
C894 C 0.91639 0.38609 0.95619 0.0
C895 C 0.85365 0.36163 0.95556 0.0
H896 H 0.86131 0.35297 0.99175 0.0
C897 C 0.78546 0.30314 0.98374 0.0
C898 C 0.77488 0.31583 0.99395 0.0
C899 C 0.80699 0.31185 0.9781 0.0
C900 C 0.85909 0.35509 0.98164 0.0
H901 H 0.88965 0.43658 0.93424 0.0
H902 H 0.86178 0.40951 0.94578 0.0
H903 H 0.89188 0.37674 0.97994 0.0
H904 H 0.77938 0.34648 0.00684 0.0
H905 H 0.81703 0.36161 0.99703 0.0
H906 H 0.82058 0.34066 0.95724 0.0
C907 C 0.88145 0.407 0.94687 0.0
C908 C 0.8766 0.36855 0.97488 0.0
C909 C 0.89736 0.42262 0.94037 0.0
C910 C 0.7871 0.33637 0.99896 0.0
C911 C 0.80873 0.34497 0.99338 0.0
C912 C 0.83632 0.34798 0.96227 0.0
C913 C 0.8908 0.38861 0.95485 0.0
C914 C 0.87372 0.37239 0.96183 0.0
C915 C 0.81841 0.33328 0.98263 0.0
C916 C 0.83859 0.34498 0.97542 0.0
H917 H 0.95201 0.39924 0.95071 0.0
H918 H 0.92404 0.37201 0.96226 0.0
H919 H 0.85114 0.36413 0.94548 0.0
H920 H 0.77647 0.28721 0.97971 0.0
H921 H 0.81424 0.30234 0.96991 0.0
C922 C 0.6027 0.41552 0.18885 0.0
C923 C 0.58194 0.42681 0.19424 0.0
C924 C 0.61748 0.39987 0.19605 0.0
C925 C 0.61386 0.35973 0.22377 0.0
H926 H 0.68465 0.35541 0.21967 0.0
C927 C 0.66849 0.28515 0.24944 0.0
C928 C 0.68461 0.27174 0.24169 0.0
C929 C 0.65912 0.3077 0.2454 0.0
C930 C 0.66489 0.35639 0.2209 0.0
H931 H 0.56108 0.43151 0.21154 0.0
H932 H 0.58688 0.40419 0.22412 0.0
H933 H 0.66186 0.38828 0.20915 0.0
H934 H 0.70482 0.27203 0.22403 0.0
H935 H 0.68818 0.31119 0.21687 0.0
H936 H 0.61662 0.32751 0.23516 0.0
C937 C 0.59149 0.4071 0.21427 0.0
C938 C 0.65185 0.37518 0.21487 0.0
C939 C 0.57669 0.4227 0.20707 0.0
C940 C 0.6924 0.28198 0.23019 0.0
C941 C 0.68294 0.30449 0.22612 0.0
C942 C 0.62685 0.34098 0.22978 0.0
C943 C 0.61183 0.39521 0.2088 0.0
C944 C 0.62613 0.3768 0.21608 0.0
C945 C 0.66559 0.31721 0.2335 0.0
C946 C 0.65246 0.33884 0.22825 0.0
H947 H 0.60708 0.41813 0.17896 0.0
H948 H 0.6328 0.39072 0.1915 0.0
H949 H 0.59402 0.36019 0.22474 0.0
H950 H 0.66233 0.27779 0.25841 0.0
H951 H 0.64616 0.31729 0.25141 0.0
C952 C 0.08154 0.94728 0.40045 0.0
C953 C 0.08195 0.93903 0.38786 0.0
C954 C 0.09392 0.93437 0.40989 0.0
C955 C 0.11785 0.87331 0.41792 0.0
H956 H 0.153 0.90935 0.44391 0.0
C957 C 0.1714 0.82572 0.45868 0.0
C958 C 0.16831 0.83616 0.47073 0.0
C959 C 0.16231 0.8377 0.44794 0.0
C960 C 0.14311 0.89902 0.43677 0.0
H961 H 0.09589 0.91075 0.3753 0.0
H962 H 0.11749 0.88802 0.39188 0.0
H963 H 0.1349 0.93143 0.42618 0.0
H964 H 0.15309 0.86709 0.48103 0.0
H965 H 0.1371 0.88779 0.46238 0.0
H966 H 0.12581 0.84091 0.42866 0.0
C967 C 0.1074 0.90446 0.39441 0.0
C968 C 0.13277 0.91167 0.42662 0.0
C969 C 0.09503 0.91747 0.38493 0.0
C970 C 0.15585 0.85863 0.47186 0.0
C971 C 0.14683 0.87059 0.46116 0.0
C972 C 0.12822 0.86062 0.42811 0.0
C973 C 0.10698 0.91281 0.40699 0.0
C974 C 0.11966 0.89902 0.41719 0.0
C975 C 0.15008 0.86036 0.44907 0.0
C976 C 0.14059 0.87341 0.43776 0.0
H977 H 0.07118 0.96349 0.4031 0.0
H978 H 0.09282 0.94101 0.41953 0.0
H979 H 0.10768 0.86307 0.41086 0.0
H980 H 0.18098 0.80842 0.45753 0.0
H981 H 0.16523 0.82943 0.43875 0.0
C982 C 0.0996 0.56983 0.63731 0.0
C983 C 0.07489 0.57497 0.63446 0.0
C984 C 0.11212 0.58356 0.64644 0.0
C985 C 0.10867 0.64117 0.66539 0.0
H986 H 0.15112 0.60518 0.68832 0.0
C987 C 0.14128 0.67907 0.7137 0.0
C988 C 0.166 0.67503 0.71698 0.0
C989 C 0.13138 0.66834 0.70282 0.0
C990 C 0.13956 0.61554 0.6819 0.0
H991 H 0.04394 0.59857 0.63884 0.0
H992 H 0.06554 0.62222 0.65495 0.0
H993 H 0.13172 0.5838 0.67072 0.0
H994 H 0.19985 0.65693 0.71139 0.0
H995 H 0.18246 0.63802 0.69244 0.0
H996 H 0.11604 0.67276 0.6769 0.0
C997 C 0.07551 0.608 0.64995 0.0
C998 C 0.12849 0.60332 0.67178 0.0
C999 C 0.06308 0.59441 0.64074 0.0
C1000 C 0.18072 0.66033 0.7091 0.0
C1001 C 0.17075 0.64943 0.6983 0.0
C1002 C 0.1196 0.65335 0.6756 0.0
C1003 C 0.10011 0.60256 0.65303 0.0
C1004 C 0.11279 0.61594 0.66343 0.0
C1005 C 0.14594 0.65318 0.69509 0.0
C1006 C 0.13506 0.64061 0.68398 0.0
H1007 H 0.10923 0.55513 0.63249 0.0
H1008 H 0.13119 0.57918 0.64838 0.0
H1009 H 0.09703 0.65156 0.65904 0.0
H1010 H 0.12952 0.69034 0.71959 0.0
H1011 H 0.11214 0.67137 0.70064 0.0
C1012 C 0.39698 0.56394 0.89023 0.0
C1013 C 0.41815 0.5753 0.88533 0.0
C1014 C 0.38297 0.57554 0.89956 0.0
C1015 C 0.37212 0.63549 0.91544 0.0
H1016 H 0.35261 0.59453 0.94368 0.0
C1017 C 0.31673 0.6733 0.95796 0.0
C1018 C 0.32399 0.66513 0.96999 0.0
C1019 C 0.32647 0.66247 0.94707 0.0
C1020 C 0.35803 0.60625 0.9359 0.0
H1021 H 0.4404 0.60834 0.8859 0.0
H1022 H 0.41632 0.62832 0.90237 0.0
H1023 H 0.37236 0.57592 0.92538 0.0
H1024 H 0.3472 0.63936 0.98008 0.0
H1025 H 0.36447 0.6207 0.96111 0.0
H1026 H 0.35859 0.66596 0.92619 0.0
C1027 C 0.41041 0.61053 0.89895 0.0
C1028 C 0.36904 0.59553 0.92532 0.0
C1029 C 0.42439 0.59895 0.88961 0.0
C1030 C 0.34119 0.64598 0.97093 0.0
C1031 C 0.35095 0.63518 0.96005 0.0
C1032 C 0.36112 0.64623 0.92604 0.0
C1033 C 0.3898 0.59876 0.90421 0.0
C1034 C 0.37646 0.61004 0.91502 0.0
C1035 C 0.34367 0.64325 0.94799 0.0
C1036 C 0.35422 0.63176 0.93645 0.0
H1037 H 0.39175 0.54566 0.88721 0.0
H1038 H 0.36699 0.56613 0.90329 0.0
H1039 H 0.37738 0.64716 0.90761 0.0
H1040 H 0.30343 0.68799 0.95695 0.0
H1041 H 0.32028 0.66894 0.93792 0.0
C1042 C 0.44155 0.90708 0.14661 0.0
C1043 C 0.43093 0.91053 0.13461 0.0
C1044 C 0.42974 0.89288 0.15573 0.0
C1045 C 0.36891 0.87176 0.16554 0.0
H1046 H 0.40642 0.8278 0.187 0.0
C1047 C 0.3241 0.81745 0.20658 0.0
C1048 C 0.33742 0.8173 0.21797 0.0
C1049 C 0.33498 0.82607 0.19545 0.0
C1050 C 0.39571 0.84011 0.18114 0.0
H1051 H 0.39963 0.90133 0.12277 0.0
H1052 H 0.37876 0.87675 0.13886 0.0
H1053 H 0.42647 0.84782 0.16916 0.0
H1054 H 0.37257 0.82583 0.22664 0.0
H1055 H 0.39138 0.84113 0.20734 0.0
H1056 H 0.33831 0.86462 0.17773 0.0
C1057 C 0.39626 0.88518 0.14115 0.0
C1058 C 0.40718 0.85152 0.17091 0.0
C1059 C 0.40819 0.89929 0.13196 0.0
C1060 C 0.36186 0.82564 0.218 0.0
C1061 C 0.3727 0.83425 0.2069 0.0
C1062 C 0.35743 0.8604 0.17581 0.0
C1063 C 0.40691 0.88188 0.15314 0.0
C1064 C 0.39404 0.86784 0.16315 0.0
C1065 C 0.35939 0.83466 0.1955 0.0
C1066 C 0.37084 0.84483 0.18388 0.0
H1067 H 0.45874 0.9159 0.1491 0.0
H1068 H 0.43818 0.89107 0.16496 0.0
H1069 H 0.35836 0.88441 0.15979 0.0
H1070 H 0.30524 0.81106 0.20628 0.0
H1071 H 0.32431 0.82593 0.1868 0.0
C1072 C 0.08829 0.59566 0.86917 0.0
C1073 C 0.07701 0.57302 0.86647 0.0
C1074 C 0.09948 0.60926 0.85952 0.0
C1075 C 0.12422 0.60223 0.82703 0.0
H1076 H 0.11594 0.67287 0.82502 0.0
C1077 C 0.14447 0.65525 0.78156 0.0
C1078 C 0.15895 0.6765 0.78264 0.0
C1079 C 0.13499 0.6439 0.79232 0.0
C1080 C 0.11858 0.65318 0.82555 0.0
H1081 H 0.06778 0.54738 0.85151 0.0
H1082 H 0.08695 0.57102 0.83476 0.0
H1083 H 0.09887 0.6504 0.84304 0.0
H1084 H 0.17418 0.70305 0.79578 0.0
H1085 H 0.15728 0.68323 0.81467 0.0
H1086 H 0.1434 0.60488 0.80945 0.0
C1087 C 0.08787 0.57802 0.84434 0.0
C1088 C 0.1089 0.64032 0.83587 0.0
C1089 C 0.07685 0.56445 0.85394 0.0
C1090 C 0.16308 0.68666 0.79468 0.0
C1091 C 0.15339 0.67538 0.80547 0.0
C1092 C 0.1337 0.61501 0.81672 0.0
C1093 C 0.09948 0.60051 0.84699 0.0
C1094 C 0.11127 0.61463 0.83661 0.0
C1095 C 0.13962 0.65364 0.80439 0.0
C1096 C 0.13066 0.64055 0.81577 0.0
H1097 H 0.08876 0.60267 0.87875 0.0
H1098 H 0.10842 0.62643 0.86189 0.0
H1099 H 0.12694 0.58254 0.82746 0.0
H1100 H 0.1409 0.64702 0.77241 0.0
H1101 H 0.12412 0.62736 0.7912 0.0
C1102 C 0.40428 0.57112 0.11411 0.0
C1103 C 0.42634 0.58086 0.11897 0.0
C1104 C 0.39094 0.58383 0.10491 0.0
C1105 C 0.40011 0.62669 0.07909 0.0
H1106 H 0.32928 0.63506 0.07997 0.0
C1107 C 0.34954 0.67904 0.03965 0.0
C1108 C 0.32653 0.67007 0.03578 0.0
C1109 C 0.36088 0.6698 0.0505 0.0
C1110 C 0.34903 0.63261 0.07948 0.0
H1111 H 0.45087 0.61231 0.11838 0.0
H1112 H 0.42791 0.63407 0.10204 0.0
H1113 H 0.3503 0.61587 0.09783 0.0
H1114 H 0.29723 0.64451 0.0402 0.0
H1115 H 0.31739 0.62766 0.05887 0.0
H1116 H 0.39901 0.64241 0.06062 0.0
C1117 C 0.4211 0.61652 0.10534 0.0
C1118 C 0.36104 0.62174 0.08975 0.0
C1119 C 0.43429 0.60398 0.11466 0.0
C1120 C 0.31495 0.65183 0.04301 0.0
C1121 C 0.32646 0.64231 0.05377 0.0
C1122 C 0.38811 0.63723 0.06876 0.0
C1123 C 0.3995 0.6064 0.10026 0.0
C1124 C 0.38669 0.61868 0.08964 0.0
C1125 C 0.34965 0.65108 0.05763 0.0
C1126 C 0.3624 0.64032 0.0688 0.0
H1127 H 0.39775 0.55323 0.11705 0.0
H1128 H 0.37444 0.57553 0.10105 0.0
H1129 H 0.41988 0.62419 0.07867 0.0
H1130 H 0.35877 0.69329 0.03432 0.0
H1131 H 0.37846 0.67741 0.05331 0.0
C1132 C 0.42046 0.9441 0.35259 0.0
C1133 C 0.42112 0.93616 0.36523 0.0
C1134 C 0.40795 0.93056 0.34343 0.0
C1135 C 0.38593 0.86865 0.33593 0.0
H1136 H 0.34733 0.90302 0.31067 0.0
C1137 C 0.33252 0.81852 0.2959 0.0
C1138 C 0.33425 0.82921 0.28385 0.0
C1139 C 0.34154 0.83091 0.30654 0.0
C1140 C 0.35818 0.89316 0.3176 0.0
H1141 H 0.40899 0.90769 0.37813 0.0
H1142 H 0.38725 0.88381 0.36201 0.0
H1143 H 0.36565 0.92593 0.32808 0.0
H1144 H 0.34699 0.86107 0.27345 0.0
H1145 H 0.3629 0.88248 0.29191 0.0
H1146 H 0.37879 0.83591 0.32528 0.0
C1147 C 0.39656 0.90055 0.35925 0.0
C1148 C 0.36864 0.90628 0.32758 0.0
C1149 C 0.40903 0.9142 0.36846 0.0
C1150 C 0.34529 0.85239 0.28262 0.0
C1151 C 0.35425 0.86475 0.29321 0.0
C1152 C 0.37548 0.85549 0.32591 0.0
C1153 C 0.39585 0.90865 0.34664 0.0
C1154 C 0.383 0.89426 0.33672 0.0
C1155 C 0.35237 0.85424 0.30531 0.0
C1156 C 0.36187 0.8677 0.31651 0.0
H1157 H 0.43005 0.96059 0.34969 0.0
H1158 H 0.40817 0.93703 0.33375 0.0
H1159 H 0.39706 0.85891 0.34279 0.0
H1160 H 0.32406 0.80067 0.29712 0.0
H1161 H 0.33968 0.8224 0.31574 0.0
C1162 C 0.09232 0.93912 0.61281 0.0
C1163 C 0.07505 0.92578 0.6199 0.0
C1164 C 0.1061 0.92752 0.60339 0.0
C1165 C 0.12642 0.86716 0.59136 0.0
H1166 H 0.12651 0.89991 0.55881 0.0
C1167 C 0.17997 0.83139 0.54752 0.0
C1168 C 0.16691 0.83166 0.53606 0.0
C1169 C 0.17012 0.84255 0.55831 0.0
C1170 C 0.1266 0.89054 0.56784 0.0
H1171 H 0.05954 0.88967 0.62316 0.0
H1172 H 0.08357 0.86941 0.60666 0.0
H1173 H 0.10782 0.9201 0.57702 0.0
H1174 H 0.13324 0.84352 0.52689 0.0
H1175 H 0.11612 0.86307 0.54568 0.0
H1176 H 0.14488 0.83739 0.58207 0.0
C1177 C 0.08646 0.88881 0.60839 0.0
C1178 C 0.11616 0.9022 0.57829 0.0
C1179 C 0.07256 0.90044 0.61775 0.0
C1180 C 0.14374 0.84305 0.53559 0.0
C1181 C 0.13401 0.85437 0.54633 0.0
C1182 C 0.13709 0.85556 0.58091 0.0
C1183 C 0.103 0.90234 0.60094 0.0
C1184 C 0.11571 0.89054 0.59013 0.0
C1185 C 0.14717 0.85439 0.55777 0.0
C1186 C 0.13698 0.86702 0.56902 0.0
H1187 H 0.09452 0.9587 0.61421 0.0
H1188 H 0.11889 0.93835 0.59786 0.0
H1189 H 0.12645 0.85781 0.6004 0.0
H1190 H 0.19788 0.82273 0.54814 0.0
H1191 H 0.1807 0.8424 0.56699 0.0
C1192 C 0.58905 0.41423 0.88762 0.0
C1193 C 0.57256 0.43317 0.89074 0.0
C1194 C 0.60132 0.40124 0.89714 0.0
C1195 C 0.61846 0.40613 0.93098 0.0
H1196 H 0.62773 0.33564 0.92868 0.0
C1197 C 0.64661 0.34827 0.97387 0.0
C1198 C 0.66577 0.33131 0.97209 0.0
C1199 C 0.6358 0.35992 0.96352 0.0
C1200 C 0.62545 0.35535 0.92938 0.0
H1201 H 0.55523 0.4527 0.90622 0.0
H1202 H 0.57623 0.42993 0.92277 0.0
H1203 H 0.60789 0.35761 0.91128 0.0
H1204 H 0.68825 0.31275 0.9581 0.0
H1205 H 0.6691 0.33306 0.93994 0.0
H1206 H 0.63555 0.40382 0.94915 0.0
C1207 C 0.58033 0.42552 0.91301 0.0
C1208 C 0.61417 0.36795 0.91941 0.0
C1209 C 0.56824 0.43856 0.90353 0.0
C1210 C 0.67352 0.32577 0.95974 0.0
C1211 C 0.66252 0.3373 0.94936 0.0
C1212 C 0.62953 0.39354 0.94094 0.0
C1213 C 0.59718 0.40685 0.90995 0.0
C1214 C 0.61029 0.39346 0.92017 0.0
C1215 C 0.64379 0.35474 0.95118 0.0
C1216 C 0.6329 0.36801 0.94031 0.0
H1217 H 0.59279 0.40979 0.87782 0.0
H1218 H 0.61434 0.38711 0.89445 0.0
H1219 H 0.61632 0.42584 0.93175 0.0
H1220 H 0.64021 0.35286 0.98327 0.0
H1221 H 0.62116 0.37304 0.96518 0.0
C1222 C 0.55886 0.08885 0.14131 0.0
C1223 C 0.5705 0.07024 0.13432 0.0
C1224 C 0.57186 0.10204 0.15045 0.0
C1225 C 0.627 0.09752 0.17078 0.0
H1226 H 0.61334 0.16634 0.17717 0.0
C1227 C 0.68077 0.15427 0.20774 0.0
C1228 C 0.66629 0.16827 0.21606 0.0
C1229 C 0.67024 0.14343 0.19705 0.0
C1230 C 0.61725 0.1471 0.17551 0.0
H1231 H 0.60506 0.05141 0.13108 0.0
H1232 H 0.62797 0.07477 0.1469 0.0
H1233 H 0.59329 0.14562 0.15948 0.0
H1234 H 0.6296 0.18231 0.21962 0.0
H1235 H 0.61123 0.16346 0.20089 0.0
H1236 H 0.65101 0.0991 0.18681 0.0
C1237 C 0.60863 0.0788 0.14553 0.0
C1238 C 0.60574 0.13519 0.1654 0.0
C1239 C 0.59556 0.06547 0.13645 0.0
C1240 C 0.64119 0.17159 0.21337 0.0
C1241 C 0.63072 0.16094 0.20263 0.0
C1242 C 0.63866 0.10949 0.18081 0.0
C1243 C 0.59686 0.09705 0.15276 0.0
C1244 C 0.61025 0.11017 0.163 0.0
C1245 C 0.64509 0.14657 0.19442 0.0
C1246 C 0.63369 0.13431 0.18336 0.0
H1247 H 0.53947 0.09269 0.13999 0.0
H1248 H 0.56207 0.11564 0.15598 0.0
H1249 H 0.63061 0.07816 0.16935 0.0
H1250 H 0.70018 0.15143 0.20956 0.0
H1251 H 0.68179 0.13262 0.19082 0.0
C1252 C 0.90464 0.06403 0.38945 0.0
C1253 C 0.92345 0.07715 0.38335 0.0
C1254 C 0.89057 0.07516 0.39889 0.0
C1255 C 0.87204 0.1347 0.41246 0.0
H1256 H 0.86673 0.0978 0.44367 0.0
C1257 C 0.84053 0.17891 0.45951 0.0
C1258 C 0.82673 0.16447 0.4679 0.0
C1259 C 0.8504 0.16859 0.44851 0.0
C1260 C 0.8676 0.10824 0.43498 0.0
H1261 H 0.94152 0.11252 0.38191 0.0
H1262 H 0.91687 0.13202 0.39845 0.0
H1263 H 0.88666 0.07928 0.42544 0.0
H1264 H 0.81165 0.12819 0.47118 0.0
H1265 H 0.82822 0.11034 0.45187 0.0
H1266 H 0.8529 0.16367 0.422 0.0
C1267 C 0.91304 0.11313 0.39592 0.0
C1268 C 0.87909 0.09761 0.42453 0.0
C1269 C 0.92726 0.10192 0.38654 0.0
C1270 C 0.82242 0.13971 0.46494 0.0
C1271 C 0.83206 0.12945 0.4539 0.0
C1272 C 0.86032 0.1453 0.4229 0.0
C1273 C 0.8949 0.0997 0.40237 0.0
C1274 C 0.88157 0.11076 0.41319 0.0
C1275 C 0.84648 0.14365 0.44563 0.0
C1276 C 0.8581 0.13224 0.43432 0.0
H1277 H 0.90141 0.04486 0.38726 0.0
H1278 H 0.87654 0.06446 0.40363 0.0
H1279 H 0.87353 0.14518 0.4038 0.0
H1280 H 0.84418 0.19806 0.46158 0.0
H1281 H 0.86166 0.18001 0.44246 0.0
C1282 C 0.93636 0.39846 0.64002 0.0
C1283 C 0.92705 0.4205 0.63499 0.0
C1284 C 0.92322 0.38553 0.64919 0.0
C1285 C 0.87462 0.39487 0.67323 0.0
H1286 H 0.87732 0.32385 0.67567 0.0
C1287 C 0.81973 0.34071 0.71063 0.0
C1288 C 0.8335 0.32359 0.7176 0.0
C1289 C 0.82958 0.35143 0.69976 0.0
C1290 C 0.87648 0.3437 0.6751 0.0
H1291 H 0.89615 0.44577 0.6355 0.0
H1292 H 0.8728 0.42266 0.65103 0.0
H1293 H 0.89677 0.34447 0.65778 0.0
H1294 H 0.86804 0.30373 0.71852 0.0
H1295 H 0.88516 0.32231 0.69942 0.0
H1296 H 0.85417 0.394 0.69052 0.0
C1297 C 0.89058 0.41569 0.64813 0.0
C1298 C 0.88768 0.35554 0.66489 0.0
C1299 C 0.90384 0.42877 0.63905 0.0
C1300 C 0.85704 0.31692 0.71333 0.0
C1301 C 0.86678 0.32743 0.70238 0.0
C1302 C 0.8632 0.38301 0.68335 0.0
C1303 C 0.9003 0.39414 0.65349 0.0
C1304 C 0.88713 0.38131 0.6639 0.0
C1305 C 0.85326 0.34501 0.69558 0.0
C1306 C 0.86424 0.35734 0.68445 0.0
H1307 H 0.95397 0.3913 0.63697 0.0
H1308 H 0.93143 0.36914 0.65317 0.0
H1309 H 0.8742 0.41474 0.67295 0.0
H1310 H 0.80152 0.34618 0.7137 0.0
H1311 H 0.8187 0.3648 0.69463 0.0
C1312 C 0.59497 0.07118 0.36251 0.0
C1313 C 0.5738 0.08221 0.36762 0.0
C1314 C 0.60835 0.08294 0.35301 0.0
C1315 C 0.61773 0.14277 0.33695 0.0
H1316 H 0.63576 0.10176 0.30843 0.0
C1317 C 0.67237 0.17923 0.2938 0.0
C1318 C 0.66453 0.17104 0.28185 0.0
C1319 C 0.66252 0.169 0.30481 0.0
C1320 C 0.63074 0.11349 0.31629 0.0
H1321 H 0.55087 0.1148 0.36726 0.0
H1322 H 0.57393 0.13511 0.35051 0.0
H1323 H 0.61704 0.08317 0.32699 0.0
H1324 H 0.64 0.14605 0.27205 0.0
H1325 H 0.62263 0.12841 0.29123 0.0
H1326 H 0.63078 0.17321 0.32604 0.0
C1327 C 0.58029 0.11745 0.35389 0.0
C1328 C 0.62032 0.10279 0.32701 0.0
C1329 C 0.56691 0.10569 0.36339 0.0
C1330 C 0.64647 0.15267 0.28112 0.0
C1331 C 0.63664 0.14245 0.29211 0.0
C1332 C 0.6282 0.15349 0.32622 0.0
C1333 C 0.60087 0.10599 0.34841 0.0
C1334 C 0.61348 0.11732 0.33742 0.0
C1335 C 0.64468 0.15035 0.30408 0.0
C1336 C 0.63455 0.13899 0.31571 0.0
H1337 H 0.60068 0.05303 0.36549 0.0
H1338 H 0.62433 0.07378 0.3491 0.0
H1339 H 0.61285 0.15444 0.34486 0.0
H1340 H 0.68632 0.19334 0.29464 0.0
H1341 H 0.66922 0.17535 0.31388 0.0
C1342 C 0.89701 0.07617 0.62081 0.0
C1343 C 0.91271 0.05637 0.61803 0.0
C1344 C 0.88512 0.0889 0.61107 0.0
C1345 C 0.8677 0.08281 0.57727 0.0
H1346 H 0.86367 0.1539 0.57818 0.0
C1347 C 0.84624 0.14 0.53305 0.0
C1348 C 0.82906 0.15912 0.5343 0.0
C1349 C 0.85508 0.12778 0.54371 0.0
C1350 C 0.86443 0.13403 0.57787 0.0
H1351 H 0.92886 0.03492 0.60287 0.0
H1352 H 0.90843 0.05712 0.58596 0.0
H1353 H 0.88137 0.13182 0.59612 0.0
H1354 H 0.80791 0.1807 0.54768 0.0
H1355 H 0.82358 0.15935 0.56638 0.0
H1356 H 0.8513 0.08505 0.55892 0.0
C1357 C 0.90468 0.06245 0.59564 0.0
C1358 C 0.8745 0.12137 0.58815 0.0
C1359 C 0.91643 0.04972 0.60534 0.0
C1360 C 0.82113 0.166 0.54644 0.0
C1361 C 0.83015 0.15387 0.55714 0.0
C1362 C 0.85781 0.09545 0.56699 0.0
C1363 C 0.88881 0.08214 0.59836 0.0
C1364 C 0.87656 0.09562 0.58789 0.0
C1365 C 0.84707 0.13451 0.55586 0.0
C1366 C 0.85636 0.12119 0.56711 0.0
H1367 H 0.89371 0.08162 0.63051 0.0
H1368 H 0.87285 0.10385 0.61349 0.0
H1369 H 0.8685 0.06295 0.57687 0.0
H1370 H 0.85273 0.13434 0.52381 0.0
H1371 H 0.86837 0.11314 0.54246 0.0
C1372 C 0.955 0.41611 0.8523 0.0
C1373 C 0.94578 0.41512 0.8647 0.0
C1374 C 0.94323 0.40355 0.84252 0.0
C1375 C 0.89994 0.35327 0.83561 0.0
H1376 H 0.89095 0.38825 0.80402 0.0
C1377 C 0.83867 0.31697 0.79481 0.0
C1378 C 0.84706 0.32081 0.78241 0.0
C1379 C 0.85114 0.32735 0.80507 0.0
C1380 C 0.8936 0.37808 0.81271 0.0
H1381 H 0.91724 0.39972 0.87661 0.0
H1382 H 0.89645 0.37788 0.85943 0.0
H1383 H 0.91179 0.40836 0.82156 0.0
H1384 H 0.87543 0.3379 0.77103 0.0
H1385 H 0.89743 0.35567 0.78891 0.0
H1386 H 0.88173 0.32295 0.82671 0.0
C1387 C 0.91292 0.38829 0.85733 0.0
C1388 C 0.90551 0.38964 0.82278 0.0
C1389 C 0.92468 0.40096 0.86713 0.0
C1390 C 0.86846 0.33474 0.78048 0.0
C1391 C 0.88096 0.34505 0.79072 0.0
C1392 C 0.88805 0.34166 0.82551 0.0
C1393 C 0.92193 0.3897 0.84489 0.0
C1394 C 0.90892 0.37734 0.83432 0.0
C1395 C 0.87227 0.34175 0.80313 0.0
C1396 C 0.88484 0.35392 0.81393 0.0
H1397 H 0.97103 0.4271 0.85007 0.0
H1398 H 0.95079 0.40476 0.83307 0.0
H1399 H 0.9025 0.34326 0.84436 0.0
H1400 H 0.82217 0.30635 0.79658 0.0
H1401 H 0.84383 0.32465 0.81449 0.0
C1402 C 0.58885 0.4497 0.10457 0.0
C1403 C 0.58669 0.44066 0.11697 0.0
C1404 C 0.60321 0.43741 0.09565 0.0
C1405 C 0.62758 0.37672 0.08778 0.0
H1406 H 0.66862 0.41334 0.06449 0.0
C1407 C 0.68329 0.32883 0.04823 0.0
C1408 C 0.68227 0.34015 0.03631 0.0
C1409 C 0.67454 0.34105 0.05896 0.0
C1410 C 0.65713 0.40286 0.07087 0.0
H1411 H 0.59831 0.41171 0.12973 0.0
H1412 H 0.62315 0.39 0.11403 0.0
H1413 H 0.6478 0.43478 0.08167 0.0
H1414 H 0.67171 0.37325 0.0263 0.0
H1415 H 0.65618 0.3944 0.04492 0.0
H1416 H 0.6363 0.3449 0.07677 0.0
C1417 C 0.61359 0.40661 0.11126 0.0
C1418 C 0.64525 0.41513 0.08072 0.0
C1419 C 0.59933 0.41901 0.12023 0.0
C1420 C 0.67281 0.36407 0.03536 0.0
C1421 C 0.66405 0.37626 0.04606 0.0
C1422 C 0.63938 0.36443 0.07788 0.0
C1423 C 0.61565 0.41568 0.09887 0.0
C1424 C 0.63001 0.40227 0.08915 0.0
C1425 C 0.66462 0.36484 0.05798 0.0
C1426 C 0.65395 0.37744 0.06918 0.0
H1427 H 0.57897 0.46599 0.10163 0.0
H1428 H 0.60406 0.44461 0.08612 0.0
H1429 H 0.61576 0.36636 0.09406 0.0
H1430 H 0.69055 0.3104 0.04924 0.0
H1431 H 0.6755 0.33185 0.06802 0.0
loop_
_geom_bond_atom_site_label_1
_geom_bond_atom_site_label_2
_geom_bond_distance
_geom_bond_site_symmetry_2
_ccdc_geom_bond_type
C0 C1 1.384 . S
C0 C2 1.384 . S
C0 H28 0.931 . S
C1 C0 1.384 . S
C1 C4 1.382 . S
C2 C0 1.384 . S
C2 C3 1.381 . S
C2 H29 0.930 . S
C3 C2 1.381 . S
C3 C5 1.381 . S
C3 C6 1.487 . S
C4 C1 1.382 . S
C4 C5 1.387 . S
C4 H30 0.930 . S
C5 C3 1.381 . S
C5 C4 1.387 . S
C5 H31 0.931 1_565 S
C6 C3 1.487 . S
C6 C13 1.399 . S
C6 N44 1.343 1_565 S
C7 C8 1.384 . S
C7 C9 1.384 . S
C7 H32 0.931 . S
C8 C7 1.384 . S
C8 C11 1.382 . S
C9 C7 1.384 . S
C9 C10 1.381 . S
C9 H33 0.930 . S
C10 C9 1.381 . S
C10 C12 1.381 . S
C10 C13 1.487 . S
C11 C8 1.382 . S
C11 C12 1.387 . S
C11 H34 0.930 . S
C12 C10 1.381 . S
C12 C11 1.387 . S
C12 H35 0.931 . S
C13 C6 1.399 . S
C13 C10 1.487 . S
C13 N45 1.357 1_455 S
C14 C15 1.384 . S
C14 C16 1.384 . S
C14 H36 0.931 . S
C15 C14 1.384 . S
C15 C18 1.382 . S
C16 C14 1.384 . S
C16 C17 1.381 . S
C16 H37 0.930 . S
C17 C16 1.381 . S
C17 C19 1.381 . S
C17 C20 1.487 . S
C18 C15 1.382 . S
C18 C19 1.387 . S
C18 H38 0.930 . S
C19 C17 1.381 . S
C19 C18 1.387 . S
C19 H39 0.931 1_545 S
C20 C17 1.487 . S
C20 C27 1.399 . S
C20 N45 1.326 1_545 S
C21 C22 1.384 . S
C21 C23 1.384 . S
C21 H40 0.931 . S
C22 C21 1.384 . S
C22 C25 1.382 . S
C23 C21 1.384 . S
C23 C24 1.381 . S
C23 H41 0.930 . S
C24 C23 1.381 . S
C24 C26 1.381 . S
C24 C27 1.487 . S
C25 C22 1.382 . S
C25 C26 1.387 . S
C25 H42 0.930 . S
C26 C24 1.381 . S
C26 C25 1.387 . S
C26 H43 0.931 . S
C27 C20 1.399 . S
C27 C24 1.487 . S
C27 N44 1.343 1_655 S
H28 C0 0.931 . S
H29 C2 0.930 . S
H30 C4 0.930 . S
H31 C5 0.931 1_545 S
H32 C7 0.931 . S
H33 C9 0.930 . S
H34 C11 0.930 . S
H35 C12 0.931 . S
H36 C14 0.931 . S
H37 C16 0.930 . S
H38 C18 0.930 . S
H39 C19 0.931 1_565 S
H40 C21 0.931 . S
H41 C23 0.930 . S
H42 C25 0.930 . S
H43 C26 0.931 . S
N44 C6 1.343 1_545 S
N44 C27 1.343 1_455 S
N45 C13 1.357 1_655 S
N45 C20 1.326 1_565 S
C46 C47 1.384 . S
C46 C48 1.384 . S
C46 H74 0.931 . S
C47 C46 1.384 . S
C47 C50 1.382 . S
C48 C46 1.384 . S
C48 C49 1.381 . S
C48 H75 0.930 . S
C49 C48 1.381 . S
C49 C51 1.381 . S
C49 C52 1.487 . S
C50 C47 1.382 . S
C50 C51 1.387 . S
C50 H76 0.930 . S
C51 C49 1.381 . S
C51 C50 1.387 . S
C51 H77 0.931 1_655 S
C52 C49 1.487 . S
C52 C59 1.399 . S
C52 N90 1.343 1_655 S
C53 C54 1.384 . S
C53 C55 1.384 . S
C53 H78 0.931 . S
C54 C53 1.384 . S
C54 C57 1.382 . S
C55 C53 1.384 . S
C55 C56 1.381 . S
C55 H79 0.930 . S
C56 C55 1.381 . S
C56 C58 1.381 . S
C56 C59 1.487 . S
C57 C54 1.382 . S
C57 C58 1.387 . S
C57 H80 0.930 . S
C58 C56 1.381 . S
C58 C57 1.387 . S
C58 H81 0.931 . S
C59 C52 1.399 . S
C59 C56 1.487 . S
C59 N91 1.366 . S
C60 C61 1.384 . S
C60 C62 1.384 . S
C60 H82 0.931 . S
C61 C60 1.384 . S
C61 C64 1.382 . S
C62 C60 1.384 . S
C62 C63 1.381 . S
C62 H83 0.930 . S
C63 C62 1.381 . S
C63 C65 1.381 . S
C63 C66 1.487 . S
C64 C61 1.382 . S
C64 C65 1.387 . S
C64 H84 0.930 . S
C65 C63 1.381 . S
C65 C64 1.387 . S
C65 H85 0.931 1_455 S
C66 C63 1.487 . S
C66 C73 1.399 . S
C66 N91 1.316 1_455 S
C67 C68 1.384 . S
C67 C69 1.384 . S
C67 H86 0.931 . S
C68 C67 1.384 . S
C68 C71 1.382 . S
C69 C67 1.384 . S
C69 C70 1.381 . S
C69 H87 0.930 . S
C70 C69 1.381 . S
C70 C72 1.381 . S
C70 C73 1.487 . S
C71 C68 1.382 . S
C71 C72 1.387 . S
C71 H88 0.930 . S
C72 C70 1.381 . S
C72 C71 1.387 . S
C72 H89 0.931 . S
C73 C66 1.399 . S
C73 C70 1.487 . S
C73 N90 1.343 . S
H74 C46 0.931 . S
H75 C48 0.930 . S
H76 C50 0.930 . S
H77 C51 0.931 1_455 S
H78 C53 0.931 . S
H79 C55 0.930 . S
H80 C57 0.930 . S
H81 C58 0.931 . S
H82 C60 0.931 . S
H83 C62 0.930 . S
H84 C64 0.930 . S
H85 C65 0.931 1_655 S
H86 C67 0.931 . S
H87 C69 0.930 . S
H88 C71 0.930 . S
H89 C72 0.931 . S
N90 C52 1.343 1_455 S
N90 C73 1.343 . S
N91 C59 1.366 . S
N91 C66 1.316 1_655 S
C92 C93 1.384 . S
C92 C94 1.384 . S
C92 H120 0.931 . S
C93 C92 1.384 . S
C93 C96 1.382 . S
C94 C92 1.384 . S
C94 C95 1.381 . S
C94 H121 0.930 . S
C95 C94 1.381 . S
C95 C97 1.381 . S
C95 C98 1.487 . S
C96 C93 1.382 . S
C96 C97 1.387 . S
C96 H122 0.930 . S
C97 C95 1.381 . S
C97 C96 1.387 . S
C97 H123 0.931 . S
C98 C95 1.487 . S
C98 C105 1.399 . S
C98 N136 1.343 . S
C99 C100 1.384 . S
C99 C101 1.384 . S
C99 H124 0.931 . S
C100 C99 1.384 . S
C100 C103 1.382 . S
C101 C99 1.384 . S
C101 C102 1.381 . S
C101 H125 0.930 . S
C102 C101 1.381 . S
C102 C104 1.381 . S
C102 C105 1.487 . S
C103 C100 1.382 . S
C103 C104 1.387 . S
C103 H126 0.930 . S
C104 C102 1.381 . S
C104 C103 1.387 . S
C104 H127 0.931 . S
C105 C98 1.399 . S
C105 C102 1.487 . S
C105 N137 1.343 . S
C106 C107 1.384 . S
C106 C108 1.384 . S
C106 H128 0.931 . S
C107 C106 1.384 . S
C107 C110 1.382 . S
C108 C106 1.384 . S
C108 C109 1.381 . S
C108 H129 0.930 . S
C109 C108 1.381 . S
C109 C111 1.381 . S
C109 C112 1.487 . S
C110 C107 1.382 . S
C110 C111 1.387 . S
C110 H130 0.930 . S
C111 C109 1.381 . S
C111 C110 1.387 . S
C111 H131 0.931 . S
C112 C109 1.487 . S
C112 C119 1.399 . S
C112 N137 1.343 . S
C113 C114 1.384 . S
C113 C115 1.384 . S
C113 H132 0.931 . S
C114 C113 1.384 . S
C114 C117 1.382 . S
C115 C113 1.384 . S
C115 C116 1.381 . S
C115 H133 0.930 . S
C116 C115 1.381 . S
C116 C118 1.381 . S
C116 C119 1.487 . S
C117 C114 1.382 . S
C117 C118 1.387 . S
C117 H134 0.930 . S
C118 C116 1.381 . S
C118 C117 1.387 . S
C118 H135 0.931 . S
C119 C112 1.399 . S
C119 C116 1.487 . S
C119 N136 1.343 . S
H120 C92 0.931 . S
H121 C94 0.930 . S
H122 C96 0.930 . S
H123 C97 0.931 . S
H124 C99 0.931 . S
H125 C101 0.930 . S
H126 C103 0.930 . S
H127 C104 0.931 . S
H128 C106 0.931 . S
H129 C108 0.930 . S
H130 C110 0.930 . S
H131 C111 0.931 . S
H132 C113 0.931 . S
H133 C115 0.930 . S
H134 C117 0.930 . S
H135 C118 0.931 . S
N136 C98 1.343 . S
N136 C119 1.343 . S
N137 C105 1.343 . S
N137 C112 1.343 . S
C138 C139 1.384 . S
C138 C140 1.384 . S
C138 H166 0.931 . S
C139 C138 1.384 . S
C139 C142 1.382 . S
C140 C138 1.384 . S
C140 C141 1.381 . S
C140 H167 0.930 . S
C141 C140 1.381 . S
C141 C143 1.381 . S
C141 C144 1.487 . S
C142 C139 1.382 . S
C142 C143 1.387 . S
C142 H168 0.930 . S
C143 C141 1.381 . S
C143 C142 1.387 . S
C143 H169 0.931 . S
C144 C141 1.487 . S
C144 C151 1.399 . S
C144 N182 1.343 1_565 S
C145 C146 1.384 . S
C145 C147 1.384 . S
C145 H170 0.931 . S
C146 C145 1.384 . S
C146 C149 1.382 . S
C147 C145 1.384 . S
C147 C148 1.381 . S
C147 H171 0.930 . S
C148 C147 1.381 . S
C148 C150 1.381 . S
C148 C151 1.487 . S
C149 C146 1.382 . S
C149 C150 1.387 . S
C149 H172 0.930 . S
C150 C148 1.381 . S
C150 C149 1.387 . S
C150 H173 0.931 . S
C151 C144 1.399 . S
C151 C148 1.487 . S
C151 N183 1.337 1_565 S
C152 C153 1.384 . S
C152 C154 1.384 . S
C152 H174 0.931 . S
C153 C152 1.384 . S
C153 C156 1.382 . S
C154 C152 1.384 . S
C154 C155 1.381 . S
C154 H175 0.930 . S
C155 C154 1.381 . S
C155 C157 1.381 . S
C155 C158 1.487 . S
C156 C153 1.382 . S
C156 C157 1.387 . S
C156 H176 0.930 . S
C157 C155 1.381 . S
C157 C156 1.387 . S
C157 H177 0.931 . S
C158 C155 1.487 . S
C158 C165 1.399 . S
C158 N183 1.350 . S
C159 C160 1.384 . S
C159 C161 1.384 . S
C159 H178 0.931 . S
C160 C159 1.384 . S
C160 C163 1.382 . S
C161 C159 1.384 . S
C161 C162 1.381 . S
C161 H179 0.930 . S
C162 C161 1.381 . S
C162 C164 1.381 . S
C162 C165 1.487 . S
C163 C160 1.382 . S
C163 C164 1.387 . S
C163 H180 0.930 . S
C164 C162 1.381 . S
C164 C163 1.387 . S
C164 H181 0.931 . S
C165 C158 1.399 . S
C165 C162 1.487 . S
C165 N182 1.343 . S
H166 C138 0.931 . S
H167 C140 0.930 . S
H168 C142 0.930 . S
H169 C143 0.931 . S
H170 C145 0.931 . S
H171 C147 0.930 . S
H172 C149 0.930 . S
H173 C150 0.931 . S
H174 C152 0.931 . S
H175 C154 0.930 . S
H176 C156 0.930 . S
H177 C157 0.931 . S
H178 C159 0.931 . S
H179 C161 0.930 . S
H180 C163 0.930 . S
H181 C164 0.931 . S
N182 C144 1.343 1_545 S
N182 C165 1.343 . S
N183 C151 1.337 1_545 S
N183 C158 1.350 . S
C184 C185 1.384 . S
C184 C186 1.384 . S
C184 H212 0.931 . S
C185 C184 1.384 . S
C185 C188 1.382 . S
C186 C184 1.384 . S
C186 C187 1.381 . S
C186 H213 0.930 . S
C187 C186 1.381 . S
C187 C189 1.381 . S
C187 C190 1.487 . S
C188 C185 1.382 . S
C188 C189 1.387 . S
C188 H214 0.930 . S
C189 C187 1.381 . S
C189 C188 1.387 . S
C189 H215 0.931 . S
C190 C187 1.487 . S
C190 C197 1.399 . S
C190 N228 1.343 . S
C191 C192 1.384 . S
C191 C193 1.384 . S
C191 H216 0.931 . S
C192 C191 1.384 . S
C192 C195 1.382 . S
C193 C191 1.384 . S
C193 C194 1.381 . S
C193 H217 0.930 . S
C194 C193 1.381 . S
C194 C196 1.381 . S
C194 C197 1.487 . S
C195 C192 1.382 . S
C195 C196 1.387 . S
C195 H218 0.930 . S
C196 C194 1.381 . S
C196 C195 1.387 . S
C196 H219 0.931 . S
C197 C190 1.399 . S
C197 C194 1.487 . S
C197 N229 1.321 1_455 S
C198 C199 1.384 . S
C198 C200 1.384 . S
C198 H220 0.931 . S
C199 C198 1.384 . S
C199 C202 1.382 . S
C200 C198 1.384 . S
C200 C201 1.381 . S
C200 H221 0.930 . S
C201 C200 1.381 . S
C201 C203 1.381 . S
C201 C204 1.487 . S
C202 C199 1.382 . S
C202 C203 1.387 . S
C202 H222 0.930 . S
C203 C201 1.381 . S
C203 C202 1.387 . S
C203 H223 0.931 . S
C204 C201 1.487 . S
C204 C211 1.399 . S
C204 N229 1.363 . S
C205 C206 1.384 . S
C205 C207 1.384 . S
C205 H224 0.931 . S
C206 C205 1.384 . S
C206 C209 1.382 . S
C207 C205 1.384 . S
C207 C208 1.381 . S
C207 H225 0.930 . S
C208 C207 1.381 . S
C208 C210 1.381 . S
C208 C211 1.487 . S
C209 C206 1.382 . S
C209 C210 1.387 . S
C209 H226 0.930 . S
C210 C208 1.381 . S
C210 C209 1.387 . S
C210 H227 0.931 . S
C211 C204 1.399 . S
C211 C208 1.487 . S
C211 N228 1.343 1_655 S
H212 C184 0.931 . S
H213 C186 0.930 . S
H214 C188 0.930 . S
H215 C189 0.931 . S
H216 C191 0.931 . S
H217 C193 0.930 . S
H218 C195 0.930 . S
H219 C196 0.931 . S
H220 C198 0.931 . S
H221 C200 0.930 . S
H222 C202 0.930 . S
H223 C203 0.931 . S
H224 C205 0.931 . S
H225 C207 0.930 . S
H226 C209 0.930 . S
H227 C210 0.931 . S
N228 C190 1.343 . S
N228 C211 1.343 1_455 S
N229 C197 1.321 1_655 S
N229 C204 1.363 . S
C230 C231 1.384 . S
C230 C232 1.384 . S
C230 H258 0.931 . S
C231 C230 1.384 . S
C231 C234 1.382 . S
C232 C230 1.384 . S
C232 C233 1.381 . S
C232 H259 0.930 . S
C233 C232 1.381 . S
C233 C235 1.381 . S
C233 C236 1.487 . S
C234 C231 1.382 . S
C234 C235 1.387 . S
C234 H260 0.930 . S
C235 C233 1.381 . S
C235 C234 1.387 . S
C235 H261 0.931 . S
C236 C233 1.487 . S
C236 C243 1.399 . S
C236 N274 1.343 . S
C237 C238 1.384 . S
C237 C239 1.384 . S
C237 H262 0.931 . S
C238 C237 1.384 . S
C238 C241 1.382 . S
C239 C237 1.384 . S
C239 C240 1.381 . S
C239 H263 0.930 . S
C240 C239 1.381 . S
C240 C242 1.381 . S
C240 C243 1.487 . S
C241 C238 1.382 . S
C241 C242 1.387 . S
C241 H264 0.930 . S
C242 C240 1.381 . S
C242 C241 1.387 . S
C242 H265 0.931 . S
C243 C236 1.399 . S
C243 C240 1.487 . S
C243 N275 1.343 . S
C244 C245 1.384 . S
C244 C246 1.384 . S
C244 H266 0.931 . S
C245 C244 1.384 . S
C245 C248 1.382 . S
C246 C244 1.384 . S
C246 C247 1.381 . S
C246 H267 0.930 . S
C247 C246 1.381 . S
C247 C249 1.381 . S
C247 C250 1.487 . S
C248 C245 1.382 . S
C248 C249 1.387 . S
C248 H268 0.930 . S
C249 C247 1.381 . S
C249 C248 1.387 . S
C249 H269 0.931 . S
C250 C247 1.487 . S
C250 C257 1.399 . S
C250 N275 1.343 . S
C251 C252 1.384 . S
C251 C253 1.384 . S
C251 H270 0.931 . S
C252 C251 1.384 . S
C252 C255 1.382 . S
C253 C251 1.384 . S
C253 C254 1.381 . S
C253 H271 0.930 . S
C254 C253 1.381 . S
C254 C256 1.381 . S
C254 C257 1.487 . S
C255 C252 1.382 . S
C255 C256 1.387 . S
C255 H272 0.930 . S
C256 C254 1.381 . S
C256 C255 1.387 . S
C256 H273 0.931 . S
C257 C250 1.399 . S
C257 C254 1.487 . S
C257 N274 1.343 . S
H258 C230 0.931 . S
H259 C232 0.930 . S
H260 C234 0.930 . S
H261 C235 0.931 . S
H262 C237 0.931 . S
H263 C239 0.930 . S
H264 C241 0.930 . S
H265 C242 0.931 . S
H266 C244 0.931 . S
H267 C246 0.930 . S
H268 C248 0.930 . S
H269 C249 0.931 . S
H270 C251 0.931 . S
H271 C253 0.930 . S
H272 C255 0.930 . S
H273 C256 0.931 . S
N274 C236 1.343 . S
N274 C257 1.343 . S
N275 C243 1.343 . S
N275 C250 1.343 . S
C276 C277 1.384 . S
C276 C278 1.384 . S
C276 H304 0.931 . S
C277 C276 1.384 . S
C277 C280 1.382 . S
C278 C276 1.384 . S
C278 C279 1.381 . S
C278 H305 0.930 . S
C279 C278 1.381 . S
C279 C281 1.381 . S
C279 C282 1.487 . S
C280 C277 1.382 . S
C280 C281 1.387 . S
C280 H306 0.930 . S
C281 C279 1.381 . S
C281 C280 1.387 . S
C281 H307 0.931 1_565 S
C282 C279 1.487 . S
C282 C289 1.399 . S
C282 N320 1.343 1_565 S
C283 C284 1.384 . S
C283 C285 1.384 . S
C283 H308 0.931 . S
C284 C283 1.384 . S
C284 C287 1.382 . S
C285 C283 1.384 . S
C285 C286 1.381 . S
C285 H309 0.930 . S
C286 C285 1.381 . S
C286 C288 1.381 . S
C286 C289 1.487 . S
C287 C284 1.382 . S
C287 C288 1.387 . S
C287 H310 0.930 . S
C288 C286 1.381 . S
C288 C287 1.387 . S
C288 H311 0.931 . S
C289 C282 1.399 . S
C289 C286 1.487 . S
C289 N321 1.351 . S
C290 C291 1.384 . S
C290 C292 1.384 . S
C290 H312 0.931 . S
C291 C290 1.384 . S
C291 C294 1.382 . S
C292 C290 1.384 . S
C292 C293 1.381 . S
C292 H313 0.930 . S
C293 C292 1.381 . S
C293 C295 1.381 . S
C293 C296 1.487 . S
C294 C291 1.382 . S
C294 C295 1.387 . S
C294 H314 0.930 . S
C295 C293 1.381 . S
C295 C294 1.387 . S
C295 H315 0.884 1_545 S
C296 C293 1.487 . S
C296 C303 1.399 . S
C296 N321 1.333 1_545 S
C297 C298 1.384 . S
C297 C299 1.384 . S
C297 H316 0.931 . S
C298 C297 1.384 . S
C298 C301 1.382 . S
C299 C297 1.384 . S
C299 C300 1.381 . S
C299 H317 0.930 . S
C300 C299 1.381 . S
C300 C302 1.381 . S
C300 C303 1.487 . S
C301 C298 1.382 . S
C301 C302 1.387 . S
C301 H318 0.930 . S
C302 C300 1.381 . S
C302 C301 1.387 . S
C302 H319 0.931 . S
C303 C296 1.399 . S
C303 C300 1.487 . S
C303 N320 1.343 . S
H304 C276 0.931 . S
H305 C278 0.930 . S
H306 C280 0.930 . S
H307 C281 0.931 1_545 S
H308 C283 0.931 . S
H309 C285 0.930 . S
H310 C287 0.930 . S
H311 C288 0.931 . S
H312 C290 0.931 . S
H313 C292 0.930 . S
H314 C294 0.930 . S
H315 C295 0.884 1_565 S
H316 C297 0.931 . S
H317 C299 0.930 . S
H318 C301 0.930 . S
H319 C302 0.931 . S
N320 C282 1.343 1_545 S
N320 C303 1.343 . S
N321 C289 1.351 . S
N321 C296 1.333 1_565 S
C322 C323 1.384 . S
C322 C324 1.384 . S
C322 H350 0.931 . S
C323 C322 1.384 . S
C323 C326 1.382 . S
C324 C322 1.384 . S
C324 C325 1.381 . S
C324 H351 0.930 . S
C325 C324 1.381 . S
C325 C327 1.381 . S
C325 C328 1.487 . S
C326 C323 1.382 . S
C326 C327 1.387 . S
C326 H352 0.930 . S
C327 C325 1.381 . S
C327 C326 1.387 . S
C327 H353 0.931 1_455 S
C328 C325 1.487 . S
C328 C335 1.399 . S
C328 N366 1.369 1_455 S
C329 C330 1.384 . S
C329 C331 1.384 . S
C329 H354 0.931 . S
C330 C329 1.384 . S
C330 C333 1.382 . S
C331 C329 1.384 . S
C331 C332 1.381 . S
C331 H355 0.930 . S
C332 C331 1.381 . S
C332 C334 1.381 . S
C332 C335 1.487 . S
C333 C330 1.382 . S
C333 C334 1.387 . S
C333 H356 0.930 . S
C334 C332 1.381 . S
C334 C333 1.387 . S
C334 H357 0.931 . S
C335 C328 1.399 . S
C335 C332 1.487 . S
C335 N367 1.343 1_565 S
C336 C337 1.384 . S
C336 C338 1.384 . S
C336 H358 0.931 . S
C337 C336 1.384 . S
C337 C340 1.382 . S
C338 C336 1.384 . S
C338 C339 1.381 . S
C338 H359 0.930 . S
C339 C338 1.381 . S
C339 C341 1.381 . S
C339 C342 1.487 . S
C340 C337 1.382 . S
C340 C341 1.387 . S
C340 H360 0.930 . S
C341 C339 1.381 . S
C341 C340 1.387 . S
C341 H361 0.931 1_655 S
C342 C339 1.487 . S
C342 C349 1.399 . S
C342 N367 1.343 1_655 S
C343 C344 1.384 . S
C343 C345 1.384 . S
C343 H362 0.931 . S
C344 C343 1.384 . S
C344 C347 1.382 . S
C345 C343 1.384 . S
C345 C346 1.381 . S
C345 H363 0.930 . S
C346 C345 1.381 . S
C346 C348 1.381 . S
C346 C349 1.487 . S
C347 C344 1.382 . S
C347 C348 1.387 . S
C347 H364 0.930 . S
C348 C346 1.381 . S
C348 C347 1.387 . S
C348 H365 0.931 . S
C349 C342 1.399 . S
C349 C346 1.487 . S
C349 N366 1.315 1_545 S
H350 C322 0.931 . S
H351 C324 0.930 . S
H352 C326 0.930 . S
H353 C327 0.931 1_655 S
H354 C329 0.931 . S
H355 C331 0.930 . S
H356 C333 0.930 . S
H357 C334 0.931 . S
H358 C336 0.931 . S
H359 C338 0.930 . S
H360 C340 0.930 . S
H361 C341 0.931 1_455 S
H362 C343 0.931 . S
H363 C345 0.930 . S
H364 C347 0.930 . S
H365 C348 0.931 . S
N366 C328 1.369 1_655 S
N366 C349 1.315 1_565 S
N367 C335 1.343 1_545 S
N367 C342 1.343 1_455 S
In368 O369 2.294 . S
In368 O370 2.326 . S
In368 O374 2.266 1_554 S
In368 O375 2.326 1_554 S
In368 O376 2.266 1_554 S
In368 O377 2.326 1_554 S
In368 O379 2.294 . S
In368 O380 2.326 . S
O369 In368 2.294 . S
O369 C378 1.240 . S
O370 In368 2.326 . S
O370 C378 1.252 . S
C371 O374 1.252 . S
C371 O375 1.260 . S
C372 O379 1.240 . S
C372 O380 1.252 . S
C373 O376 1.252 . S
C373 O377 1.260 . S
O374 In368 2.266 1_556 S
O374 C371 1.252 . S
O375 In368 2.326 1_556 S
O375 C371 1.260 . S
O376 In368 2.266 1_556 S
O376 C373 1.252 . S
O377 In368 2.326 1_556 S
O377 C373 1.260 . S
C378 O369 1.240 . S
C378 O370 1.252 . S
O379 In368 2.294 . S
O379 C372 1.240 . S
O380 In368 2.326 . S
O380 C372 1.252 . S
In381 O382 2.294 . S
In381 O383 2.326 . S
In381 O387 2.266 . S
In381 O388 2.326 . S
In381 O389 2.266 . S
In381 O390 2.326 . S
In381 O392 2.294 . S
In381 O393 2.326 . S
O382 In381 2.294 . S
O382 C391 1.240 . S
O383 In381 2.326 . S
O383 C391 1.252 . S
C384 O387 1.252 . S
C384 O388 1.260 . S
C385 O392 1.240 . S
C385 O393 1.252 . S
C386 O389 1.252 . S
C386 O390 1.260 . S
O387 In381 2.266 . S
O387 C384 1.252 . S
O388 In381 2.326 . S
O388 C384 1.260 . S
O389 In381 2.266 . S
O389 C386 1.252 . S
O390 In381 2.326 . S
O390 C386 1.260 . S
C391 O382 1.240 . S
C391 O383 1.252 . S
O392 In381 2.294 . S
O392 C385 1.240 . S
O393 In381 2.326 . S
O393 C385 1.252 . S
In394 O395 2.294 . S
In394 O396 2.326 . S
In394 O400 2.266 . S
In394 O401 2.326 . S
In394 O402 2.266 . S
In394 O403 2.326 . S
In394 O405 2.294 . S
In394 O406 2.326 . S
O395 In394 2.294 . S
O395 C404 1.240 . S
O396 In394 2.326 . S
O396 C404 1.252 . S
C397 O400 1.252 . S
C397 O401 1.260 . S
C398 O405 1.240 . S
C398 O406 1.252 . S
C399 O402 1.252 . S
C399 O403 1.260 . S
O400 In394 2.266 . S
O400 C397 1.252 . S
O401 In394 2.326 . S
O401 C397 1.260 . S
O402 In394 2.266 . S
O402 C399 1.252 . S
O403 In394 2.326 . S
O403 C399 1.260 . S
C404 O395 1.240 . S
C404 O396 1.252 . S
O405 In394 2.294 . S
O405 C398 1.240 . S
O406 In394 2.326 . S
O406 C398 1.252 . S
In407 O408 2.294 . S
In407 O409 2.326 . S
In407 O413 2.266 . S
In407 O414 2.326 . S
In407 O415 2.266 . S
In407 O416 2.326 . S
In407 O418 2.294 . S
In407 O419 2.326 . S
O408 In407 2.294 . S
O408 C417 1.240 . S
O409 In407 2.326 . S
O409 C417 1.252 . S
C410 O413 1.252 . S
C410 O414 1.260 . S
C411 O418 1.240 . S
C411 O419 1.252 . S
C412 O415 1.252 . S
C412 O416 1.260 . S
O413 In407 2.266 . S
O413 C410 1.252 . S
O414 In407 2.326 . S
O414 C410 1.260 . S
O415 In407 2.266 . S
O415 C412 1.252 . S
O416 In407 2.326 . S
O416 C412 1.260 . S
C417 O408 1.240 . S
C417 O409 1.252 . S
O418 In407 2.294 . S
O418 C411 1.240 . S
O419 In407 2.326 . S
O419 C411 1.252 . S
In420 O421 2.294 . S
In420 O422 2.326 . S
In420 O426 2.266 . S
In420 O427 2.326 . S
In420 O428 2.266 . S
In420 O429 2.326 . S
In420 O431 2.294 . S
In420 O432 2.326 . S
O421 In420 2.294 . S
O421 C430 1.240 . S
O422 In420 2.326 . S
O422 C430 1.252 . S
C423 O426 1.252 . S
C423 O427 1.260 . S
C424 O431 1.240 . S
C424 O432 1.252 . S
C425 O428 1.252 . S
C425 O429 1.260 . S
O426 In420 2.266 . S
O426 C423 1.252 . S
O427 In420 2.326 . S
O427 C423 1.260 . S
O428 In420 2.266 . S
O428 C425 1.252 . S
O429 In420 2.326 . S
O429 C425 1.260 . S
C430 O421 1.240 . S
C430 O422 1.252 . S
O431 In420 2.294 . S
O431 C424 1.240 . S
O432 In420 2.326 . S
O432 C424 1.252 . S
In433 O434 2.294 . S
In433 O435 2.326 . S
In433 O439 2.266 . S
In433 O440 2.326 . S
In433 O441 2.266 . S
In433 O442 2.326 . S
In433 O444 2.294 . S
In433 O445 2.326 . S
O434 In433 2.294 . S
O434 C443 1.240 . S
O435 In433 2.326 . S
O435 C443 1.252 . S
C436 O439 1.252 . S
C436 O440 1.260 . S
C437 O444 1.240 . S
C437 O445 1.252 . S
C438 O441 1.252 . S
C438 O442 1.260 . S
O439 In433 2.266 . S
O439 C436 1.252 . S
O440 In433 2.326 . S
O440 C436 1.260 . S
O441 In433 2.266 . S
O441 C438 1.252 . S
O442 In433 2.326 . S
O442 C438 1.260 . S
C443 O434 1.240 . S
C443 O435 1.252 . S
O444 In433 2.294 . S
O444 C437 1.240 . S
O445 In433 2.326 . S
O445 C437 1.252 . S
In446 O447 2.294 . S
In446 O448 2.326 . S
In446 O452 2.266 1_554 S
In446 O453 2.326 1_554 S
In446 O454 2.266 1_554 S
In446 O455 2.326 1_554 S
In446 O457 2.294 . S
In446 O458 2.326 . S
O447 In446 2.294 . S
O447 C456 1.240 . S
O448 In446 2.326 . S
O448 C456 1.252 . S
C449 O452 1.252 . S
C449 O453 1.260 . S
C450 O457 1.240 . S
C450 O458 1.252 . S
C451 O454 1.252 . S
C451 O455 1.260 . S
O452 In446 2.266 1_556 S
O452 C449 1.252 . S
O453 In446 2.326 1_556 S
O453 C449 1.260 . S
O454 In446 2.266 1_556 S
O454 C451 1.252 . S
O455 In446 2.326 1_556 S
O455 C451 1.260 . S
C456 O447 1.240 . S
C456 O448 1.252 . S
O457 In446 2.294 . S
O457 C450 1.240 . S
O458 In446 2.326 . S
O458 C450 1.252 . S
In459 O460 2.294 . S
In459 O461 2.326 . S
In459 O465 2.266 . S
In459 O466 2.326 . S
In459 O467 2.266 . S
In459 O468 2.326 . S
In459 O470 2.294 . S
In459 O471 2.326 . S
O460 In459 2.294 . S
O460 C469 1.240 . S
O461 In459 2.326 . S
O461 C469 1.252 . S
C462 O465 1.252 . S
C462 O466 1.260 . S
C463 O470 1.240 . S
C463 O471 1.252 . S
C464 O467 1.252 . S
C464 O468 1.260 . S
O465 In459 2.266 . S
O465 C462 1.252 . S
O466 In459 2.326 . S
O466 C462 1.260 . S
O467 In459 2.266 . S
O467 C464 1.252 . S
O468 In459 2.326 . S
O468 C464 1.260 . S
C469 O460 1.240 . S
C469 O461 1.252 . S
O470 In459 2.294 . S
O470 C463 1.240 . S
O471 In459 2.326 . S
O471 C463 1.252 . S
C472 C473 1.349 . S
C472 C474 1.327 . S
C472 H497 0.950 . S
C473 C472 1.349 . S
C473 C489 1.349 . S
C474 C472 1.327 . S
C474 C493 1.429 . S
C474 H498 0.950 . S
C475 C492 1.574 . S
C475 C494 1.368 . S
C475 H499 0.949 . S
H476 C480 0.949 . S
C477 C478 1.349 . S
C477 C479 1.327 . S
C477 H500 0.950 . S
C478 C477 1.349 . S
C478 C490 1.349 . S
C479 C477 1.327 . S
C479 C495 1.429 . S
C479 H501 0.950 . S
C480 H476 0.949 . S
C480 C488 1.574 . S
C480 C496 1.368 . S
H481 C489 0.950 . S
H482 C487 0.950 . S
H483 C488 0.949 . S
H484 C490 0.950 . S
H485 C491 0.950 . S
H486 C492 0.949 . S
C487 H482 0.950 . S
C487 C489 1.327 . S
C487 C493 1.429 . S
C488 C480 1.574 . S
C488 H483 0.949 . S
C488 C494 1.368 . S
C489 C473 1.349 . S
C489 H481 0.950 . S
C489 C487 1.327 . S
C490 C478 1.349 . S
C490 H484 0.950 . S
C490 C491 1.327 . S
C491 H485 0.950 . S
C491 C490 1.327 . S
C491 C495 1.429 . S
C492 C475 1.574 . S
C492 H486 0.949 . S
C492 C496 1.368 . S
C493 C474 1.429 . S
C493 C487 1.429 . S
C493 C494 1.523 . S
C494 C475 1.368 . S
C494 C488 1.368 . S
C494 C493 1.523 . S
C495 C479 1.429 . S
C495 C491 1.429 . S
C495 C496 1.523 . S
C496 C480 1.368 . S
C496 C492 1.368 . S
C496 C495 1.523 . S
H497 C472 0.950 . S
H498 C474 0.950 . S
H499 C475 0.949 . S
H500 C477 0.950 . S
H501 C479 0.950 . S
C502 C503 1.349 . S
C502 C504 1.327 . S
C502 H527 0.950 . S
C503 C502 1.349 . S
C503 C519 1.349 . S
C504 C502 1.327 . S
C504 C523 1.429 . S
C504 H528 0.950 . S
C505 C522 1.574 . S
C505 C524 1.368 . S
C505 H529 0.949 . S
H506 C510 0.949 . S
C507 C508 1.349 . S
C507 C509 1.327 . S
C507 H530 0.950 . S
C508 C507 1.349 . S
C508 C520 1.349 . S
C509 C507 1.327 . S
C509 C525 1.429 . S
C509 H531 0.950 . S
C510 H506 0.949 . S
C510 C518 1.574 . S
C510 C526 1.368 . S
H511 C519 0.950 . S
H512 C517 0.950 . S
H513 C518 0.949 . S
H514 C520 0.950 . S
H515 C521 0.950 . S
H516 C522 0.949 . S
C517 H512 0.950 . S
C517 C519 1.327 . S
C517 C523 1.429 . S
C518 C510 1.574 . S
C518 H513 0.949 . S
C518 C524 1.368 . S
C519 C503 1.349 . S
C519 H511 0.950 . S
C519 C517 1.327 . S
C520 C508 1.349 . S
C520 H514 0.950 . S
C520 C521 1.327 . S
C521 H515 0.950 . S
C521 C520 1.327 . S
C521 C525 1.429 . S
C522 C505 1.574 . S
C522 H516 0.949 . S
C522 C526 1.368 . S
C523 C504 1.429 . S
C523 C517 1.429 . S
C523 C524 1.523 . S
C524 C505 1.368 . S
C524 C518 1.368 . S
C524 C523 1.523 . S
C525 C509 1.429 . S
C525 C521 1.429 . S
C525 C526 1.523 . S
C526 C510 1.368 . S
C526 C522 1.368 . S
C526 C525 1.523 . S
H527 C502 0.950 . S
H528 C504 0.950 . S
H529 C505 0.949 . S
H530 C507 0.950 . S
H531 C509 0.950 . S
C532 C533 1.349 . S
C532 C534 1.327 . S
C532 H557 0.950 . S
C533 C532 1.349 . S
C533 C549 1.349 . S
C534 C532 1.327 . S
C534 C553 1.429 . S
C534 H558 0.950 . S
C535 C552 1.574 . S
C535 C554 1.368 . S
C535 H559 0.949 . S
H536 C540 0.949 . S
C537 C538 1.349 . S
C537 C539 1.327 . S
C537 H560 0.950 . S
C538 C537 1.349 . S
C538 C550 1.349 . S
C539 C537 1.327 . S
C539 C555 1.429 . S
C539 H561 0.950 . S
C540 H536 0.949 . S
C540 C548 1.574 . S
C540 C556 1.368 . S
H541 C549 0.950 . S
H542 C547 0.950 . S
H543 C548 0.949 . S
H544 C550 0.950 . S
H545 C551 0.950 . S
H546 C552 0.949 . S
C547 H542 0.950 . S
C547 C549 1.327 . S
C547 C553 1.429 . S
C548 C540 1.574 . S
C548 H543 0.949 . S
C548 C554 1.368 . S
C549 C533 1.349 . S
C549 H541 0.950 . S
C549 C547 1.327 . S
C550 C538 1.349 . S
C550 H544 0.950 . S
C550 C551 1.327 . S
C551 H545 0.950 . S
C551 C550 1.327 . S
C551 C555 1.429 . S
C552 C535 1.574 . S
C552 H546 0.949 . S
C552 C556 1.368 . S
C553 C534 1.429 . S
C553 C547 1.429 . S
C553 C554 1.523 . S
C554 C535 1.368 . S
C554 C548 1.368 . S
C554 C553 1.523 . S
C555 C539 1.429 . S
C555 C551 1.429 . S
C555 C556 1.523 . S
C556 C540 1.368 . S
C556 C552 1.368 . S
C556 C555 1.523 . S
H557 C532 0.950 . S
H558 C534 0.950 . S
H559 C535 0.949 . S
H560 C537 0.950 . S
H561 C539 0.950 . S
C562 C563 1.349 . S
C562 C564 1.327 . S
C562 H587 0.950 . S
C563 C562 1.349 . S
C563 C579 1.349 . S
C564 C562 1.327 . S
C564 C583 1.429 . S
C564 H588 0.950 . S
C565 C582 1.574 . S
C565 C584 1.368 . S
C565 H589 0.949 . S
H566 C570 0.949 . S
C567 C568 1.349 . S
C567 C569 1.327 . S
C567 H590 0.950 . S
C568 C567 1.349 . S
C568 C580 1.349 . S
C569 C567 1.327 . S
C569 C585 1.429 . S
C569 H591 0.950 . S
C570 H566 0.949 . S
C570 C578 1.574 . S
C570 C586 1.368 . S
H571 C579 0.950 . S
H572 C577 0.950 . S
H573 C578 0.949 . S
H574 C580 0.950 . S
H575 C581 0.950 . S
H576 C582 0.949 . S
C577 H572 0.950 . S
C577 C579 1.327 . S
C577 C583 1.429 . S
C578 C570 1.574 . S
C578 H573 0.949 . S
C578 C584 1.368 . S
C579 C563 1.349 . S
C579 H571 0.950 . S
C579 C577 1.327 . S
C580 C568 1.349 . S
C580 H574 0.950 . S
C580 C581 1.327 . S
C581 H575 0.950 . S
C581 C580 1.327 . S
C581 C585 1.429 . S
C582 C565 1.574 . S
C582 H576 0.949 . S
C582 C586 1.368 . S
C583 C564 1.429 . S
C583 C577 1.429 . S
C583 C584 1.523 . S
C584 C565 1.368 . S
C584 C578 1.368 . S
C584 C583 1.523 . S
C585 C569 1.429 . S
C585 C581 1.429 . S
C585 C586 1.523 . S
C586 C570 1.368 . S
C586 C582 1.368 . S
C586 C585 1.523 . S
H587 C562 0.950 . S
H588 C564 0.950 . S
H589 C565 0.949 . S
H590 C567 0.950 . S
H591 C569 0.950 . S
C592 C593 1.349 . S
C592 C594 1.327 . S
C592 H617 0.950 . S
C593 C592 1.349 . S
C593 C609 1.349 . S
C594 C592 1.327 . S
C594 C613 1.429 . S
C594 H618 0.950 . S
C595 C612 1.574 . S
C595 C614 1.368 . S
C595 H619 0.949 . S
H596 C600 0.949 . S
C597 C598 1.349 . S
C597 C599 1.327 . S
C597 H620 0.950 1_556 S
C598 C597 1.349 . S
C598 C610 1.349 . S
C599 C597 1.327 . S
C599 C615 1.429 . S
C599 H621 0.950 . S
C600 H596 0.949 . S
C600 C608 1.574 . S
C600 C616 1.368 . S
H601 C609 0.950 . S
H602 C607 0.950 . S
H603 C608 0.949 . S
H604 C610 0.950 . S
H605 C611 0.950 . S
H606 C612 0.949 . S
C607 H602 0.950 . S
C607 C609 1.327 . S
C607 C613 1.429 . S
C608 C600 1.574 . S
C608 H603 0.949 . S
C608 C614 1.368 . S
C609 C593 1.349 . S
C609 H601 0.950 . S
C609 C607 1.327 . S
C610 C598 1.349 . S
C610 H604 0.950 . S
C610 C611 1.327 . S
C611 H605 0.950 . S
C611 C610 1.327 . S
C611 C615 1.429 . S
C612 C595 1.574 . S
C612 H606 0.949 . S
C612 C616 1.368 . S
C613 C594 1.429 . S
C613 C607 1.429 . S
C613 C614 1.523 . S
C614 C595 1.368 . S
C614 C608 1.368 . S
C614 C613 1.523 . S
C615 C599 1.429 . S
C615 C611 1.429 . S
C615 C616 1.523 . S
C616 C600 1.368 . S
C616 C612 1.368 . S
C616 C615 1.523 . S
H617 C592 0.950 . S
H618 C594 0.950 . S
H619 C595 0.949 . S
H620 C597 0.950 1_554 S
H621 C599 0.950 . S
C622 C623 1.349 . S
C622 C624 1.327 . S
C622 H647 0.950 . S
C623 C622 1.349 . S
C623 C639 1.349 . S
C624 C622 1.327 . S
C624 C643 1.429 . S
C624 H648 0.950 . S
C625 C642 1.574 . S
C625 C644 1.368 . S
C625 H649 0.949 . S
H626 C630 0.949 . S
C627 C628 1.349 . S
C627 C629 1.327 . S
C627 H650 0.950 . S
C628 C627 1.349 . S
C628 C640 1.349 . S
C629 C627 1.327 . S
C629 C645 1.429 . S
C629 H651 0.950 . S
C630 H626 0.949 . S
C630 C638 1.574 . S
C630 C646 1.368 . S
H631 C639 0.950 . S
H632 C637 0.950 . S
H633 C638 0.949 . S
H634 C640 0.950 . S
H635 C641 0.950 . S
H636 C642 0.949 . S
C637 H632 0.950 . S
C637 C639 1.327 . S
C637 C643 1.429 . S
C638 C630 1.574 . S
C638 H633 0.949 . S
C638 C644 1.368 . S
C639 C623 1.349 . S
C639 H631 0.950 . S
C639 C637 1.327 . S
C640 C628 1.349 . S
C640 H634 0.950 . S
C640 C641 1.327 . S
C641 H635 0.950 . S
C641 C640 1.327 . S
C641 C645 1.429 . S
C642 C625 1.574 . S
C642 H636 0.949 . S
C642 C646 1.368 . S
C643 C624 1.429 . S
C643 C637 1.429 . S
C643 C644 1.523 . S
C644 C625 1.368 . S
C644 C638 1.368 . S
C644 C643 1.523 . S
C645 C629 1.429 . S
C645 C641 1.429 . S
C645 C646 1.523 . S
C646 C630 1.368 . S
C646 C642 1.368 . S
C646 C645 1.523 . S
H647 C622 0.950 . S
H648 C624 0.950 . S
H649 C625 0.949 . S
H650 C627 0.950 . S
H651 C629 0.950 . S
C652 C653 1.349 . S
C652 C654 1.327 . S
C652 H677 0.950 . S
C653 C652 1.349 . S
C653 C669 1.349 . S
C654 C652 1.327 . S
C654 C673 1.429 . S
C654 H678 0.950 . S
C655 C672 1.574 . S
C655 C674 1.368 . S
C655 H679 0.949 . S
H656 C660 0.949 . S
C657 C658 1.349 . S
C657 C659 1.327 . S
C657 H680 0.950 . S
C658 C657 1.349 . S
C658 C670 1.349 . S
C659 C657 1.327 . S
C659 C675 1.429 . S
C659 H681 0.950 . S
C660 H656 0.949 . S
C660 C668 1.574 . S
C660 C676 1.368 . S
H661 C669 0.950 . S
H662 C667 0.950 . S
H663 C668 0.949 . S
H664 C670 0.950 . S
H665 C671 0.950 . S
H666 C672 0.949 . S
C667 H662 0.950 . S
C667 C669 1.327 . S
C667 C673 1.429 . S
C668 C660 1.574 . S
C668 H663 0.949 . S
C668 C674 1.368 . S
C669 C653 1.349 . S
C669 H661 0.950 . S
C669 C667 1.327 . S
C670 C658 1.349 . S
C670 H664 0.950 . S
C670 C671 1.327 . S
C671 H665 0.950 . S
C671 C670 1.327 . S
C671 C675 1.429 . S
C672 C655 1.574 . S
C672 H666 0.949 . S
C672 C676 1.368 . S
C673 C654 1.429 . S
C673 C667 1.429 . S
C673 C674 1.523 . S
C674 C655 1.368 . S
C674 C668 1.368 . S
C674 C673 1.523 . S
C675 C659 1.429 . S
C675 C671 1.429 . S
C675 C676 1.523 . S
C676 C660 1.368 . S
C676 C672 1.368 . S
C676 C675 1.523 . S
H677 C652 0.950 . S
H678 C654 0.950 . S
H679 C655 0.949 . S
H680 C657 0.950 . S
H681 C659 0.950 . S
C682 C683 1.349 . S
C682 C684 1.327 . S
C682 H707 0.950 . S
C683 C682 1.349 . S
C683 C699 1.349 . S
C684 C682 1.327 . S
C684 C703 1.429 . S
C684 H708 0.950 . S
C685 C702 1.574 . S
C685 C704 1.368 . S
C685 H709 0.949 . S
H686 C690 0.949 . S
C687 C688 1.349 . S
C687 C689 1.327 . S
C687 H710 0.950 . S
C688 C687 1.349 . S
C688 C700 1.349 . S
C689 C687 1.327 . S
C689 C705 1.429 . S
C689 H711 0.950 . S
C690 H686 0.949 . S
C690 C698 1.574 . S
C690 C706 1.368 . S
H691 C699 0.950 . S
H692 C697 0.950 . S
H693 C698 0.949 . S
H694 C700 0.950 . S
H695 C701 0.950 . S
H696 C702 0.949 . S
C697 H692 0.950 . S
C697 C699 1.327 . S
C697 C703 1.429 . S
C698 C690 1.574 . S
C698 H693 0.949 . S
C698 C704 1.368 . S
C699 C683 1.349 . S
C699 H691 0.950 . S
C699 C697 1.327 . S
C700 C688 1.349 . S
C700 H694 0.950 . S
C700 C701 1.327 . S
C701 H695 0.950 . S
C701 C700 1.327 . S
C701 C705 1.429 . S
C702 C685 1.574 . S
C702 H696 0.949 . S
C702 C706 1.368 . S
C703 C684 1.429 . S
C703 C697 1.429 . S
C703 C704 1.523 . S
C704 C685 1.368 . S
C704 C698 1.368 . S
C704 C703 1.523 . S
C705 C689 1.429 . S
C705 C701 1.429 . S
C705 C706 1.523 . S
C706 C690 1.368 . S
C706 C702 1.368 . S
C706 C705 1.523 . S
H707 C682 0.950 . S
H708 C684 0.950 . S
H709 C685 0.949 . S
H710 C687 0.950 . S
H711 C689 0.950 . S
C712 C713 1.349 . S
C712 C714 1.327 . S
C712 H737 0.950 . S
C713 C712 1.349 . S
C713 C729 1.349 . S
C714 C712 1.327 . S
C714 C733 1.429 . S
C714 H738 0.950 . S
C715 C732 1.574 . S
C715 C734 1.368 . S
C715 H739 0.949 . S
H716 C720 0.949 . S
C717 C718 1.349 . S
C717 C719 1.327 . S
C717 H740 0.950 . S
C718 C717 1.349 . S
C718 C730 1.349 . S
C719 C717 1.327 . S
C719 C735 1.429 . S
C719 H741 0.950 . S
C720 H716 0.949 . S
C720 C728 1.574 . S
C720 C736 1.368 . S
H721 C729 0.950 . S
H722 C727 0.950 . S
H723 C728 0.949 . S
H724 C730 0.950 . S
H725 C731 0.950 . S
H726 C732 0.949 . S
C727 H722 0.950 . S
C727 C729 1.327 . S
C727 C733 1.429 . S
C728 C720 1.574 . S
C728 H723 0.949 . S
C728 C734 1.368 . S
C729 C713 1.349 . S
C729 H721 0.950 . S
C729 C727 1.327 . S
C730 C718 1.349 . S
C730 H724 0.950 . S
C730 C731 1.327 . S
C731 H725 0.950 . S
C731 C730 1.327 . S
C731 C735 1.429 . S
C732 C715 1.574 . S
C732 H726 0.949 . S
C732 C736 1.368 . S
C733 C714 1.429 . S
C733 C727 1.429 . S
C733 C734 1.523 . S
C734 C715 1.368 . S
C734 C728 1.368 . S
C734 C733 1.523 . S
C735 C719 1.429 . S
C735 C731 1.429 . S
C735 C736 1.523 . S
C736 C720 1.368 . S
C736 C732 1.368 . S
C736 C735 1.523 . S
H737 C712 0.950 . S
H738 C714 0.950 . S
H739 C715 0.949 . S
H740 C717 0.950 . S
H741 C719 0.950 . S
C742 C743 1.349 . S
C742 C744 1.327 . S
C742 H767 0.950 . S
C743 C742 1.349 . S
C743 C759 1.349 . S
C744 C742 1.327 . S
C744 C763 1.429 . S
C744 H768 0.950 . S
C745 C762 1.574 . S
C745 C764 1.368 . S
C745 H769 0.949 . S
H746 C750 0.949 . S
C747 C748 1.349 . S
C747 C749 1.327 . S
C747 H770 0.950 . S
C748 C747 1.349 . S
C748 C760 1.349 . S
C749 C747 1.327 . S
C749 C765 1.429 . S
C749 H771 0.950 . S
C750 H746 0.949 . S
C750 C758 1.574 . S
C750 C766 1.368 . S
H751 C759 0.950 . S
H752 C757 0.950 . S
H753 C758 0.949 . S
H754 C760 0.950 1_556 S
H755 C761 0.950 . S
H756 C762 0.949 . S
C757 H752 0.950 . S
C757 C759 1.327 . S
C757 C763 1.429 . S
C758 C750 1.574 . S
C758 H753 0.949 . S
C758 C764 1.368 . S
C759 C743 1.349 . S
C759 H751 0.950 . S
C759 C757 1.327 . S
C760 C748 1.349 . S
C760 H754 0.950 1_554 S
C760 C761 1.327 . S
C761 H755 0.950 . S
C761 C760 1.327 . S
C761 C765 1.429 . S
C762 C745 1.574 . S
C762 H756 0.949 . S
C762 C766 1.368 . S
C763 C744 1.429 . S
C763 C757 1.429 . S
C763 C764 1.523 . S
C764 C745 1.368 . S
C764 C758 1.368 . S
C764 C763 1.523 . S
C765 C749 1.429 . S
C765 C761 1.429 . S
C765 C766 1.523 . S
C766 C750 1.368 . S
C766 C762 1.368 . S
C766 C765 1.523 . S
H767 C742 0.950 . S
H768 C744 0.950 . S
H769 C745 0.949 . S
H770 C747 0.950 . S
H771 C749 0.950 . S
C772 C773 1.349 . S
C772 C774 1.327 . S
C772 H797 0.950 . S
C773 C772 1.349 . S
C773 C789 1.349 . S
C774 C772 1.327 . S
C774 C793 1.429 . S
C774 H798 0.950 . S
C775 C792 1.574 . S
C775 C794 1.368 . S
C775 H799 0.949 . S
H776 C780 0.949 . S
C777 C778 1.349 . S
C777 C779 1.327 . S
C777 H800 0.950 . S
C778 C777 1.349 . S
C778 C790 1.349 . S
C779 C777 1.327 . S
C779 C795 1.429 . S
C779 H801 0.950 . S
C780 H776 0.949 . S
C780 C788 1.574 . S
C780 C796 1.368 . S
H781 C789 0.950 . S
H782 C787 0.950 . S
H783 C788 0.949 . S
H784 C790 0.950 . S
H785 C791 0.950 . S
H786 C792 0.949 . S
C787 H782 0.950 . S
C787 C789 1.327 . S
C787 C793 1.429 . S
C788 C780 1.574 . S
C788 H783 0.949 . S
C788 C794 1.368 . S
C789 C773 1.349 . S
C789 H781 0.950 . S
C789 C787 1.327 . S
C790 C778 1.349 . S
C790 H784 0.950 . S
C790 C791 1.327 . S
C791 H785 0.950 . S
C791 C790 1.327 . S
C791 C795 1.429 . S
C792 C775 1.574 . S
C792 H786 0.949 . S
C792 C796 1.368 . S
C793 C774 1.429 . S
C793 C787 1.429 . S
C793 C794 1.523 . S
C794 C775 1.368 . S
C794 C788 1.368 . S
C794 C793 1.523 . S
C795 C779 1.429 . S
C795 C791 1.429 . S
C795 C796 1.523 . S
C796 C780 1.368 . S
C796 C792 1.368 . S
C796 C795 1.523 . S
H797 C772 0.950 . S
H798 C774 0.950 . S
H799 C775 0.949 . S
H800 C777 0.950 . S
H801 C779 0.950 . S
C802 C803 1.349 . S
C802 C804 1.327 . S
C802 H827 0.950 . S
C803 C802 1.349 . S
C803 C819 1.349 . S
C804 C802 1.327 . S
C804 C823 1.429 . S
C804 H828 0.950 . S
C805 C822 1.574 . S
C805 C824 1.368 . S
C805 H829 0.949 . S
H806 C810 0.949 . S
C807 C808 1.349 . S
C807 C809 1.327 . S
C807 H830 0.950 . S
C808 C807 1.349 . S
C808 C820 1.349 . S
C809 C807 1.327 . S
C809 C825 1.429 . S
C809 H831 0.950 . S
C810 H806 0.949 . S
C810 C818 1.574 . S
C810 C826 1.368 . S
H811 C819 0.950 . S
H812 C817 0.950 . S
H813 C818 0.949 . S
H814 C820 0.950 . S
H815 C821 0.950 . S
H816 C822 0.949 . S
C817 H812 0.950 . S
C817 C819 1.327 . S
C817 C823 1.429 . S
C818 C810 1.574 . S
C818 H813 0.949 . S
C818 C824 1.368 . S
C819 C803 1.349 . S
C819 H811 0.950 . S
C819 C817 1.327 . S
C820 C808 1.349 . S
C820 H814 0.950 . S
C820 C821 1.327 . S
C821 H815 0.950 . S
C821 C820 1.327 . S
C821 C825 1.429 . S
C822 C805 1.574 . S
C822 H816 0.949 . S
C822 C826 1.368 . S
C823 C804 1.429 . S
C823 C817 1.429 . S
C823 C824 1.523 . S
C824 C805 1.368 . S
C824 C818 1.368 . S
C824 C823 1.523 . S
C825 C809 1.429 . S
C825 C821 1.429 . S
C825 C826 1.523 . S
C826 C810 1.368 . S
C826 C822 1.368 . S
C826 C825 1.523 . S
H827 C802 0.950 . S
H828 C804 0.950 . S
H829 C805 0.949 . S
H830 C807 0.950 . S
H831 C809 0.950 . S
C832 C833 1.349 . S
C832 C834 1.327 . S
C832 H857 0.950 . S
C833 C832 1.349 . S
C833 C849 1.349 . S
C834 C832 1.327 . S
C834 C853 1.429 . S
C834 H858 0.950 . S
C835 C852 1.574 . S
C835 C854 1.368 . S
C835 H859 0.949 . S
H836 C840 0.949 . S
C837 C838 1.349 . S
C837 C839 1.327 . S
C837 H860 0.950 . S
C838 C837 1.349 . S
C838 C850 1.349 . S
C839 C837 1.327 . S
C839 C855 1.429 . S
C839 H861 0.950 . S
C840 H836 0.949 . S
C840 C848 1.574 . S
C840 C856 1.368 . S
H841 C849 0.950 . S
H842 C847 0.950 . S
H843 C848 0.949 . S
H844 C850 0.950 . S
H845 C851 0.950 . S
H846 C852 0.949 . S
C847 H842 0.950 . S
C847 C849 1.327 . S
C847 C853 1.429 . S
C848 C840 1.574 . S
C848 H843 0.949 . S
C848 C854 1.368 . S
C849 C833 1.349 . S
C849 H841 0.950 . S
C849 C847 1.327 . S
C850 C838 1.349 . S
C850 H844 0.950 . S
C850 C851 1.327 . S
C851 H845 0.950 . S
C851 C850 1.327 . S
C851 C855 1.429 . S
C852 C835 1.574 . S
C852 H846 0.949 . S
C852 C856 1.368 . S
C853 C834 1.429 . S
C853 C847 1.429 . S
C853 C854 1.523 . S
C854 C835 1.368 . S
C854 C848 1.368 . S
C854 C853 1.523 . S
C855 C839 1.429 . S
C855 C851 1.429 . S
C855 C856 1.523 . S
C856 C840 1.368 . S
C856 C852 1.368 . S
C856 C855 1.523 . S
H857 C832 0.950 . S
H858 C834 0.950 . S
H859 C835 0.949 . S
H860 C837 0.950 . S
H861 C839 0.950 . S
C862 C863 1.349 . S
C862 C864 1.327 . S
C862 H887 0.950 . S
C863 C862 1.349 . S
C863 C879 1.349 . S
C864 C862 1.327 . S
C864 C883 1.429 . S
C864 H888 0.950 . S
C865 C882 1.574 . S
C865 C884 1.368 . S
C865 H889 0.949 . S
H866 C870 0.949 . S
C867 C868 1.349 . S
C867 C869 1.327 . S
C867 H890 0.950 . S
C868 C867 1.349 . S
C868 C880 1.349 . S
C869 C867 1.327 . S
C869 C885 1.429 . S
C869 H891 0.950 . S
C870 H866 0.949 . S
C870 C878 1.574 . S
C870 C886 1.368 . S
H871 C879 0.950 . S
H872 C877 0.950 . S
H873 C878 0.949 . S
H874 C880 0.950 . S
H875 C881 0.950 . S
H876 C882 0.949 . S
C877 H872 0.950 . S
C877 C879 1.327 . S
C877 C883 1.429 . S
C878 C870 1.574 . S
C878 H873 0.949 . S
C878 C884 1.368 . S
C879 C863 1.349 . S
C879 H871 0.950 . S
C879 C877 1.327 . S
C880 C868 1.349 . S
C880 H874 0.950 . S
C880 C881 1.327 . S
C881 H875 0.950 . S
C881 C880 1.327 . S
C881 C885 1.429 . S
C882 C865 1.574 . S
C882 H876 0.949 . S
C882 C886 1.368 . S
C883 C864 1.429 . S
C883 C877 1.429 . S
C883 C884 1.523 . S
C884 C865 1.368 . S
C884 C878 1.368 . S
C884 C883 1.523 . S
C885 C869 1.429 . S
C885 C881 1.429 . S
C885 C886 1.523 . S
C886 C870 1.368 . S
C886 C882 1.368 . S
C886 C885 1.523 . S
H887 C862 0.950 . S
H888 C864 0.950 . S
H889 C865 0.949 . S
H890 C867 0.950 . S
H891 C869 0.950 . S
C892 C893 1.349 . S
C892 C894 1.327 . S
C892 H917 0.950 . S
C893 C892 1.349 . S
C893 C909 1.349 . S
C894 C892 1.327 . S
C894 C913 1.429 . S
C894 H918 0.950 . S
C895 C912 1.574 . S
C895 C914 1.368 . S
C895 H919 0.949 . S
H896 C900 0.949 . S
C897 C898 1.349 . S
C897 C899 1.327 . S
C897 H920 0.950 . S
C898 C897 1.349 . S
C898 C910 1.349 . S
C899 C897 1.327 . S
C899 C915 1.429 . S
C899 H921 0.950 . S
C900 H896 0.949 . S
C900 C908 1.574 . S
C900 C916 1.368 . S
H901 C909 0.950 . S
H902 C907 0.950 . S
H903 C908 0.949 . S
H904 C910 0.950 1_554 S
H905 C911 0.967 . S
H906 C912 0.949 . S
C907 H902 0.950 . S
C907 C909 1.327 . S
C907 C913 1.429 . S
C908 C900 1.574 . S
C908 H903 0.949 . S
C908 C914 1.368 . S
C909 C893 1.349 . S
C909 H901 0.950 . S
C909 C907 1.327 . S
C910 C898 1.349 . S
C910 H904 0.950 1_556 S
C910 C911 1.327 . S
C911 H905 0.967 . S
C911 C910 1.327 . S
C911 C915 1.429 . S
C912 C895 1.574 . S
C912 H906 0.949 . S
C912 C916 1.368 . S
C913 C894 1.429 . S
C913 C907 1.429 . S
C913 C914 1.523 . S
C914 C895 1.368 . S
C914 C908 1.368 . S
C914 C913 1.523 . S
C915 C899 1.429 . S
C915 C911 1.429 . S
C915 C916 1.523 . S
C916 C900 1.368 . S
C916 C912 1.368 . S
C916 C915 1.523 . S
H917 C892 0.950 . S
H918 C894 0.950 . S
H919 C895 0.949 . S
H920 C897 0.950 . S
H921 C899 0.950 . S
C922 C923 1.349 . S
C922 C924 1.327 . S
C922 H947 0.950 . S
C923 C922 1.349 . S
C923 C939 1.349 . S
C924 C922 1.327 . S
C924 C943 1.429 . S
C924 H948 0.950 . S
C925 C942 1.574 . S
C925 C944 1.368 . S
C925 H949 0.949 . S
H926 C930 0.949 . S
C927 C928 1.349 . S
C927 C929 1.327 . S
C927 H950 0.950 . S
C928 C927 1.349 . S
C928 C940 1.349 . S
C929 C927 1.327 . S
C929 C945 1.429 . S
C929 H951 0.950 . S
C930 H926 0.949 . S
C930 C938 1.574 . S
C930 C946 1.368 . S
H931 C939 0.950 . S
H932 C937 0.950 . S
H933 C938 0.949 . S
H934 C940 0.950 . S
H935 C941 0.950 . S
H936 C942 0.949 . S
C937 H932 0.950 . S
C937 C939 1.327 . S
C937 C943 1.429 . S
C938 C930 1.574 . S
C938 H933 0.949 . S
C938 C944 1.368 . S
C939 C923 1.349 . S
C939 H931 0.950 . S
C939 C937 1.327 . S
C940 C928 1.349 . S
C940 H934 0.950 . S
C940 C941 1.327 . S
C941 H935 0.950 . S
C941 C940 1.327 . S
C941 C945 1.429 . S
C942 C925 1.574 . S
C942 H936 0.949 . S
C942 C946 1.368 . S
C943 C924 1.429 . S
C943 C937 1.429 . S
C943 C944 1.523 . S
C944 C925 1.368 . S
C944 C938 1.368 . S
C944 C943 1.523 . S
C945 C929 1.429 . S
C945 C941 1.429 . S
C945 C946 1.523 . S
C946 C930 1.368 . S
C946 C942 1.368 . S
C946 C945 1.523 . S
H947 C922 0.950 . S
H948 C924 0.950 . S
H949 C925 0.949 . S
H950 C927 0.950 . S
H951 C929 0.950 . S
C952 C953 1.349 . S
C952 C954 1.327 . S
C952 H977 0.950 . S
C953 C952 1.349 . S
C953 C969 1.349 . S
C954 C952 1.327 . S
C954 C973 1.429 . S
C954 H978 0.950 . S
C955 C972 1.574 . S
C955 C974 1.368 . S
C955 H979 0.949 . S
H956 C960 0.949 . S
C957 C958 1.349 . S
C957 C959 1.327 . S
C957 H980 0.950 . S
C958 C957 1.349 . S
C958 C970 1.349 . S
C959 C957 1.327 . S
C959 C975 1.429 . S
C959 H981 0.950 . S
C960 H956 0.949 . S
C960 C968 1.574 . S
C960 C976 1.368 . S
H961 C969 0.950 . S
H962 C967 0.950 . S
H963 C968 0.949 . S
H964 C970 0.950 . S
H965 C971 0.950 . S
H966 C972 0.949 . S
C967 H962 0.950 . S
C967 C969 1.327 . S
C967 C973 1.429 . S
C968 C960 1.574 . S
C968 H963 0.949 . S
C968 C974 1.368 . S
C969 C953 1.349 . S
C969 H961 0.950 . S
C969 C967 1.327 . S
C970 C958 1.349 . S
C970 H964 0.950 . S
C970 C971 1.327 . S
C971 H965 0.950 . S
C971 C970 1.327 . S
C971 C975 1.429 . S
C972 C955 1.574 . S
C972 H966 0.949 . S
C972 C976 1.368 . S
C973 C954 1.429 . S
C973 C967 1.429 . S
C973 C974 1.523 . S
C974 C955 1.368 . S
C974 C968 1.368 . S
C974 C973 1.523 . S
C975 C959 1.429 . S
C975 C971 1.429 . S
C975 C976 1.523 . S
C976 C960 1.368 . S
C976 C972 1.368 . S
C976 C975 1.523 . S
H977 C952 0.950 . S
H978 C954 0.950 . S
H979 C955 0.949 . S
H980 C957 0.950 . S
H981 C959 0.950 . S
C982 C983 1.349 . S
C982 C984 1.327 . S
C982 H1007 0.950 . S
C983 C982 1.349 . S
C983 C999 1.349 . S
C984 C982 1.327 . S
C984 C1003 1.429 . S
C984 H1008 0.950 . S
C985 C1002 1.574 . S
C985 C1004 1.368 . S
C985 H1009 0.949 . S
H986 C990 0.949 . S
C987 C988 1.349 . S
C987 C989 1.327 . S
C987 H1010 0.950 . S
C988 C987 1.349 . S
C988 C1000 1.349 . S
C989 C987 1.327 . S
C989 C1005 1.429 . S
C989 H1011 0.950 . S
C990 H986 0.949 . S
C990 C998 1.574 . S
C990 C1006 1.368 . S
H991 C999 0.950 . S
H992 C997 0.950 . S
H993 C998 0.949 . S
H994 C1000 0.950 . S
H995 C1001 0.950 . S
H996 C1002 0.949 . S
C997 H992 0.950 . S
C997 C999 1.327 . S
C997 C1003 1.429 . S
C998 C990 1.574 . S
C998 H993 0.949 . S
C998 C1004 1.368 . S
C999 C983 1.349 . S
C999 H991 0.950 . S
C999 C997 1.327 . S
C1000 C988 1.349 . S
C1000 H994 0.950 . S
C1000 C1001 1.327 . S
C1001 H995 0.950 . S
C1001 C1000 1.327 . S
C1001 C1005 1.429 . S
C1002 C985 1.574 . S
C1002 H996 0.949 . S
C1002 C1006 1.368 . S
C1003 C984 1.429 . S
C1003 C997 1.429 . S
C1003 C1004 1.523 . S
C1004 C985 1.368 . S
C1004 C998 1.368 . S
C1004 C1003 1.523 . S
C1005 C989 1.429 . S
C1005 C1001 1.429 . S
C1005 C1006 1.523 . S
C1006 C990 1.368 . S
C1006 C1002 1.368 . S
C1006 C1005 1.523 . S
H1007 C982 0.950 . S
H1008 C984 0.950 . S
H1009 C985 0.949 . S
H1010 C987 0.950 . S
H1011 C989 0.950 . S
C1012 C1013 1.349 . S
C1012 C1014 1.327 . S
C1012 H1037 0.950 . S
C1013 C1012 1.349 . S
C1013 C1029 1.349 . S
C1014 C1012 1.327 . S
C1014 C1033 1.429 . S
C1014 H1038 0.950 . S
C1015 C1032 1.574 . S
C1015 C1034 1.368 . S
C1015 H1039 0.949 . S
H1016 C1020 0.949 . S
C1017 C1018 1.349 . S
C1017 C1019 1.327 . S
C1017 H1040 0.950 . S
C1018 C1017 1.349 . S
C1018 C1030 1.349 . S
C1019 C1017 1.327 . S
C1019 C1035 1.429 . S
C1019 H1041 0.950 . S
C1020 H1016 0.949 . S
C1020 C1028 1.574 . S
C1020 C1036 1.368 . S
H1021 C1029 0.950 . S
H1022 C1027 0.950 . S
H1023 C1028 0.949 . S
H1024 C1030 0.950 . S
H1025 C1031 0.950 . S
H1026 C1032 0.949 . S
C1027 H1022 0.950 . S
C1027 C1029 1.327 . S
C1027 C1033 1.429 . S
C1028 C1020 1.574 . S
C1028 H1023 0.949 . S
C1028 C1034 1.368 . S
C1029 C1013 1.349 . S
C1029 H1021 0.950 . S
C1029 C1027 1.327 . S
C1030 C1018 1.349 . S
C1030 H1024 0.950 . S
C1030 C1031 1.327 . S
C1031 H1025 0.950 . S
C1031 C1030 1.327 . S
C1031 C1035 1.429 . S
C1032 C1015 1.574 . S
C1032 H1026 0.949 . S
C1032 C1036 1.368 . S
C1033 C1014 1.429 . S
C1033 C1027 1.429 . S
C1033 C1034 1.523 . S
C1034 C1015 1.368 . S
C1034 C1028 1.368 . S
C1034 C1033 1.523 . S
C1035 C1019 1.429 . S
C1035 C1031 1.429 . S
C1035 C1036 1.523 . S
C1036 C1020 1.368 . S
C1036 C1032 1.368 . S
C1036 C1035 1.523 . S
H1037 C1012 0.950 . S
H1038 C1014 0.950 . S
H1039 C1015 0.949 . S
H1040 C1017 0.950 . S
H1041 C1019 0.950 . S
C1042 C1043 1.349 . S
C1042 C1044 1.327 . S
C1042 H1067 0.950 . S
C1043 C1042 1.349 . S
C1043 C1059 1.349 . S
C1044 C1042 1.327 . S
C1044 C1063 1.429 . S
C1044 H1068 0.950 . S
C1045 C1062 1.574 . S
C1045 C1064 1.368 . S
C1045 H1069 0.949 . S
H1046 C1050 0.949 . S
C1047 C1048 1.349 . S
C1047 C1049 1.327 . S
C1047 H1070 0.950 . S
C1048 C1047 1.349 . S
C1048 C1060 1.349 . S
C1049 C1047 1.327 . S
C1049 C1065 1.429 . S
C1049 H1071 0.950 . S
C1050 H1046 0.949 . S
C1050 C1058 1.574 . S
C1050 C1066 1.368 . S
H1051 C1059 0.950 . S
H1052 C1057 0.950 . S
H1053 C1058 0.949 . S
H1054 C1060 0.950 . S
H1055 C1061 0.950 . S
H1056 C1062 0.949 . S
C1057 H1052 0.950 . S
C1057 C1059 1.327 . S
C1057 C1063 1.429 . S
C1058 C1050 1.574 . S
C1058 H1053 0.949 . S
C1058 C1064 1.368 . S
C1059 C1043 1.349 . S
C1059 H1051 0.950 . S
C1059 C1057 1.327 . S
C1060 C1048 1.349 . S
C1060 H1054 0.950 . S
C1060 C1061 1.327 . S
C1061 H1055 0.950 . S
C1061 C1060 1.327 . S
C1061 C1065 1.429 . S
C1062 C1045 1.574 . S
C1062 H1056 0.949 . S
C1062 C1066 1.368 . S
C1063 C1044 1.429 . S
C1063 C1057 1.429 . S
C1063 C1064 1.523 . S
C1064 C1045 1.368 . S
C1064 C1058 1.368 . S
C1064 C1063 1.523 . S
C1065 C1049 1.429 . S
C1065 C1061 1.429 . S
C1065 C1066 1.523 . S
C1066 C1050 1.368 . S
C1066 C1062 1.368 . S
C1066 C1065 1.523 . S
H1067 C1042 0.950 . S
H1068 C1044 0.950 . S
H1069 C1045 0.949 . S
H1070 C1047 0.950 . S
H1071 C1049 0.950 . S
C1072 C1073 1.349 . S
C1072 C1074 1.327 . S
C1072 H1097 0.950 . S
C1073 C1072 1.349 . S
C1073 C1089 1.349 . S
C1074 C1072 1.327 . S
C1074 C1093 1.429 . S
C1074 H1098 0.950 . S
C1075 C1092 1.574 . S
C1075 C1094 1.368 . S
C1075 H1099 0.949 . S
H1076 C1080 0.949 . S
C1077 C1078 1.349 . S
C1077 C1079 1.327 . S
C1077 H1100 0.950 . S
C1078 C1077 1.349 . S
C1078 C1090 1.349 . S
C1079 C1077 1.327 . S
C1079 C1095 1.429 . S
C1079 H1101 0.950 . S
C1080 H1076 0.949 . S
C1080 C1088 1.574 . S
C1080 C1096 1.368 . S
H1081 C1089 0.950 . S
H1082 C1087 0.950 . S
H1083 C1088 0.949 . S
H1084 C1090 0.950 . S
H1085 C1091 0.950 . S
H1086 C1092 0.949 . S
C1087 H1082 0.950 . S
C1087 C1089 1.327 . S
C1087 C1093 1.429 . S
C1088 C1080 1.574 . S
C1088 H1083 0.949 . S
C1088 C1094 1.368 . S
C1089 C1073 1.349 . S
C1089 H1081 0.950 . S
C1089 C1087 1.327 . S
C1090 C1078 1.349 . S
C1090 H1084 0.950 . S
C1090 C1091 1.327 . S
C1091 H1085 0.950 . S
C1091 C1090 1.327 . S
C1091 C1095 1.429 . S
C1092 C1075 1.574 . S
C1092 H1086 0.949 . S
C1092 C1096 1.368 . S
C1093 C1074 1.429 . S
C1093 C1087 1.429 . S
C1093 C1094 1.523 . S
C1094 C1075 1.368 . S
C1094 C1088 1.368 . S
C1094 C1093 1.523 . S
C1095 C1079 1.429 . S
C1095 C1091 1.429 . S
C1095 C1096 1.523 . S
C1096 C1080 1.368 . S
C1096 C1092 1.368 . S
C1096 C1095 1.523 . S
H1097 C1072 0.950 . S
H1098 C1074 0.950 . S
H1099 C1075 0.949 . S
H1100 C1077 0.950 . S
H1101 C1079 0.950 . S
C1102 C1103 1.349 . S
C1102 C1104 1.327 . S
C1102 H1127 0.950 . S
C1103 C1102 1.349 . S
C1103 C1119 1.349 . S
C1104 C1102 1.327 . S
C1104 C1123 1.429 . S
C1104 H1128 0.950 . S
C1105 C1122 1.574 . S
C1105 C1124 1.368 . S
C1105 H1129 0.949 . S
H1106 C1110 0.949 . S
C1107 C1108 1.349 . S
C1107 C1109 1.327 . S
C1107 H1130 0.950 . S
C1108 C1107 1.349 . S
C1108 C1120 1.349 . S
C1109 C1107 1.327 . S
C1109 C1125 1.429 . S
C1109 H1131 0.950 . S
C1110 H1106 0.949 . S
C1110 C1118 1.574 . S
C1110 C1126 1.368 . S
H1111 C1119 0.950 . S
H1112 C1117 0.950 . S
H1113 C1118 0.949 . S
H1114 C1120 0.950 . S
H1115 C1121 0.950 . S
H1116 C1122 0.949 . S
C1117 H1112 0.950 . S
C1117 C1119 1.327 . S
C1117 C1123 1.429 . S
C1118 C1110 1.574 . S
C1118 H1113 0.949 . S
C1118 C1124 1.368 . S
C1119 C1103 1.349 . S
C1119 H1111 0.950 . S
C1119 C1117 1.327 . S
C1120 C1108 1.349 . S
C1120 H1114 0.950 . S
C1120 C1121 1.327 . S
C1121 H1115 0.950 . S
C1121 C1120 1.327 . S
C1121 C1125 1.429 . S
C1122 C1105 1.574 . S
C1122 H1116 0.949 . S
C1122 C1126 1.368 . S
C1123 C1104 1.429 . S
C1123 C1117 1.429 . S
C1123 C1124 1.523 . S
C1124 C1105 1.368 . S
C1124 C1118 1.368 . S
C1124 C1123 1.523 . S
C1125 C1109 1.429 . S
C1125 C1121 1.429 . S
C1125 C1126 1.523 . S
C1126 C1110 1.368 . S
C1126 C1122 1.368 . S
C1126 C1125 1.523 . S
H1127 C1102 0.950 . S
H1128 C1104 0.950 . S
H1129 C1105 0.949 . S
H1130 C1107 0.950 . S
H1131 C1109 0.950 . S
C1132 C1133 1.349 . S
C1132 C1134 1.327 . S
C1132 H1157 0.950 . S
C1133 C1132 1.349 . S
C1133 C1149 1.349 . S
C1134 C1132 1.327 . S
C1134 C1153 1.429 . S
C1134 H1158 0.950 . S
C1135 C1152 1.574 . S
C1135 C1154 1.368 . S
C1135 H1159 0.949 . S
H1136 C1140 0.949 . S
C1137 C1138 1.349 . S
C1137 C1139 1.327 . S
C1137 H1160 0.950 . S
C1138 C1137 1.349 . S
C1138 C1150 1.349 . S
C1139 C1137 1.327 . S
C1139 C1155 1.429 . S
C1139 H1161 0.950 . S
C1140 H1136 0.949 . S
C1140 C1148 1.574 . S
C1140 C1156 1.368 . S
H1141 C1149 0.950 . S
H1142 C1147 0.950 . S
H1143 C1148 0.949 . S
H1144 C1150 0.950 . S
H1145 C1151 0.950 . S
H1146 C1152 0.949 . S
C1147 H1142 0.950 . S
C1147 C1149 1.327 . S
C1147 C1153 1.429 . S
C1148 C1140 1.574 . S
C1148 H1143 0.949 . S
C1148 C1154 1.368 . S
C1149 C1133 1.349 . S
C1149 H1141 0.950 . S
C1149 C1147 1.327 . S
C1150 C1138 1.349 . S
C1150 H1144 0.950 . S
C1150 C1151 1.327 . S
C1151 H1145 0.950 . S
C1151 C1150 1.327 . S
C1151 C1155 1.429 . S
C1152 C1135 1.574 . S
C1152 H1146 0.949 . S
C1152 C1156 1.368 . S
C1153 C1134 1.429 . S
C1153 C1147 1.429 . S
C1153 C1154 1.523 . S
C1154 C1135 1.368 . S
C1154 C1148 1.368 . S
C1154 C1153 1.523 . S
C1155 C1139 1.429 . S
C1155 C1151 1.429 . S
C1155 C1156 1.523 . S
C1156 C1140 1.368 . S
C1156 C1152 1.368 . S
C1156 C1155 1.523 . S
H1157 C1132 0.950 . S
H1158 C1134 0.950 . S
H1159 C1135 0.949 . S
H1160 C1137 0.950 . S
H1161 C1139 0.950 . S
C1162 C1163 1.349 . S
C1162 C1164 1.327 . S
C1162 H1187 0.950 . S
C1163 C1162 1.349 . S
C1163 C1179 1.349 . S
C1164 C1162 1.327 . S
C1164 C1183 1.429 . S
C1164 H1188 0.950 . S
C1165 C1182 1.574 . S
C1165 C1184 1.368 . S
C1165 H1189 0.949 . S
H1166 C1170 0.949 . S
C1167 C1168 1.349 . S
C1167 C1169 1.327 . S
C1167 H1190 0.950 . S
C1168 C1167 1.349 . S
C1168 C1180 1.349 . S
C1169 C1167 1.327 . S
C1169 C1185 1.429 . S
C1169 H1191 0.950 . S
C1170 H1166 0.949 . S
C1170 C1178 1.574 . S
C1170 C1186 1.368 . S
H1171 C1179 0.950 . S
H1172 C1177 0.950 . S
H1173 C1178 0.949 . S
H1174 C1180 0.950 . S
H1175 C1181 0.950 . S
H1176 C1182 0.949 . S
C1177 H1172 0.950 . S
C1177 C1179 1.327 . S
C1177 C1183 1.429 . S
C1178 C1170 1.574 . S
C1178 H1173 0.949 . S
C1178 C1184 1.368 . S
C1179 C1163 1.349 . S
C1179 H1171 0.950 . S
C1179 C1177 1.327 . S
C1180 C1168 1.349 . S
C1180 H1174 0.950 . S
C1180 C1181 1.327 . S
C1181 H1175 0.950 . S
C1181 C1180 1.327 . S
C1181 C1185 1.429 . S
C1182 C1165 1.574 . S
C1182 H1176 0.949 . S
C1182 C1186 1.368 . S
C1183 C1164 1.429 . S
C1183 C1177 1.429 . S
C1183 C1184 1.523 . S
C1184 C1165 1.368 . S
C1184 C1178 1.368 . S
C1184 C1183 1.523 . S
C1185 C1169 1.429 . S
C1185 C1181 1.429 . S
C1185 C1186 1.523 . S
C1186 C1170 1.368 . S
C1186 C1182 1.368 . S
C1186 C1185 1.523 . S
H1187 C1162 0.950 . S
H1188 C1164 0.950 . S
H1189 C1165 0.949 . S
H1190 C1167 0.950 . S
H1191 C1169 0.950 . S
C1192 C1193 1.349 . S
C1192 C1194 1.327 . S
C1192 H1217 0.950 . S
C1193 C1192 1.349 . S
C1193 C1209 1.349 . S
C1194 C1192 1.327 . S
C1194 C1213 1.429 . S
C1194 H1218 0.950 . S
C1195 C1212 1.574 . S
C1195 C1214 1.368 . S
C1195 H1219 0.949 . S
H1196 C1200 0.949 . S
C1197 C1198 1.349 . S
C1197 C1199 1.327 . S
C1197 H1220 0.950 . S
C1198 C1197 1.349 . S
C1198 C1210 1.349 . S
C1199 C1197 1.327 . S
C1199 C1215 1.429 . S
C1199 H1221 0.950 . S
C1200 H1196 0.949 . S
C1200 C1208 1.574 . S
C1200 C1216 1.368 . S
H1201 C1209 0.950 . S
H1202 C1207 0.950 . S
H1203 C1208 0.949 . S
H1204 C1210 0.950 . S
H1205 C1211 0.950 . S
H1206 C1212 0.949 . S
C1207 H1202 0.950 . S
C1207 C1209 1.327 . S
C1207 C1213 1.429 . S
C1208 C1200 1.574 . S
C1208 H1203 0.949 . S
C1208 C1214 1.368 . S
C1209 C1193 1.349 . S
C1209 H1201 0.950 . S
C1209 C1207 1.327 . S
C1210 C1198 1.349 . S
C1210 H1204 0.950 . S
C1210 C1211 1.327 . S
C1211 H1205 0.950 . S
C1211 C1210 1.327 . S
C1211 C1215 1.429 . S
C1212 C1195 1.574 . S
C1212 H1206 0.949 . S
C1212 C1216 1.368 . S
C1213 C1194 1.429 . S
C1213 C1207 1.429 . S
C1213 C1214 1.523 . S
C1214 C1195 1.368 . S
C1214 C1208 1.368 . S
C1214 C1213 1.523 . S
C1215 C1199 1.429 . S
C1215 C1211 1.429 . S
C1215 C1216 1.523 . S
C1216 C1200 1.368 . S
C1216 C1212 1.368 . S
C1216 C1215 1.523 . S
H1217 C1192 0.950 . S
H1218 C1194 0.950 . S
H1219 C1195 0.949 . S
H1220 C1197 0.950 . S
H1221 C1199 0.950 . S
C1222 C1223 1.349 . S
C1222 C1224 1.327 . S
C1222 H1247 0.950 . S
C1223 C1222 1.349 . S
C1223 C1239 1.349 . S
C1224 C1222 1.327 . S
C1224 C1243 1.429 . S
C1224 H1248 0.950 . S
C1225 C1242 1.574 . S
C1225 C1244 1.368 . S
C1225 H1249 0.949 . S
H1226 C1230 0.949 . S
C1227 C1228 1.349 . S
C1227 C1229 1.327 . S
C1227 H1250 0.950 . S
C1228 C1227 1.349 . S
C1228 C1240 1.349 . S
C1229 C1227 1.327 . S
C1229 C1245 1.429 . S
C1229 H1251 0.950 . S
C1230 H1226 0.949 . S
C1230 C1238 1.574 . S
C1230 C1246 1.368 . S
H1231 C1239 0.950 . S
H1232 C1237 0.950 . S
H1233 C1238 0.949 . S
H1234 C1240 0.950 . S
H1235 C1241 0.950 . S
H1236 C1242 0.949 . S
C1237 H1232 0.950 . S
C1237 C1239 1.327 . S
C1237 C1243 1.429 . S
C1238 C1230 1.574 . S
C1238 H1233 0.949 . S
C1238 C1244 1.368 . S
C1239 C1223 1.349 . S
C1239 H1231 0.950 . S
C1239 C1237 1.327 . S
C1240 C1228 1.349 . S
C1240 H1234 0.950 . S
C1240 C1241 1.327 . S
C1241 H1235 0.950 . S
C1241 C1240 1.327 . S
C1241 C1245 1.429 . S
C1242 C1225 1.574 . S
C1242 H1236 0.949 . S
C1242 C1246 1.368 . S
C1243 C1224 1.429 . S
C1243 C1237 1.429 . S
C1243 C1244 1.523 . S
C1244 C1225 1.368 . S
C1244 C1238 1.368 . S
C1244 C1243 1.523 . S
C1245 C1229 1.429 . S
C1245 C1241 1.429 . S
C1245 C1246 1.523 . S
C1246 C1230 1.368 . S
C1246 C1242 1.368 . S
C1246 C1245 1.523 . S
H1247 C1222 0.950 . S
H1248 C1224 0.950 . S
H1249 C1225 0.949 . S
H1250 C1227 0.950 . S
H1251 C1229 0.950 . S
C1252 C1253 1.349 . S
C1252 C1254 1.327 . S
C1252 H1277 0.950 . S
C1253 C1252 1.349 . S
C1253 C1269 1.349 . S
C1254 C1252 1.327 . S
C1254 C1273 1.429 . S
C1254 H1278 0.950 . S
C1255 C1272 1.574 . S
C1255 C1274 1.368 . S
C1255 H1279 0.949 . S
H1256 C1260 0.949 . S
C1257 C1258 1.349 . S
C1257 C1259 1.327 . S
C1257 H1280 0.950 . S
C1258 C1257 1.349 . S
C1258 C1270 1.349 . S
C1259 C1257 1.327 . S
C1259 C1275 1.429 . S
C1259 H1281 0.950 . S
C1260 H1256 0.949 . S
C1260 C1268 1.574 . S
C1260 C1276 1.368 . S
H1261 C1269 0.950 . S
H1262 C1267 0.950 . S
H1263 C1268 0.949 . S
H1264 C1270 0.950 . S
H1265 C1271 0.950 . S
H1266 C1272 0.949 . S
C1267 H1262 0.950 . S
C1267 C1269 1.327 . S
C1267 C1273 1.429 . S
C1268 C1260 1.574 . S
C1268 H1263 0.949 . S
C1268 C1274 1.368 . S
C1269 C1253 1.349 . S
C1269 H1261 0.950 . S
C1269 C1267 1.327 . S
C1270 C1258 1.349 . S
C1270 H1264 0.950 . S
C1270 C1271 1.327 . S
C1271 H1265 0.950 . S
C1271 C1270 1.327 . S
C1271 C1275 1.429 . S
C1272 C1255 1.574 . S
C1272 H1266 0.949 . S
C1272 C1276 1.368 . S
C1273 C1254 1.429 . S
C1273 C1267 1.429 . S
C1273 C1274 1.523 . S
C1274 C1255 1.368 . S
C1274 C1268 1.368 . S
C1274 C1273 1.523 . S
C1275 C1259 1.429 . S
C1275 C1271 1.429 . S
C1275 C1276 1.523 . S
C1276 C1260 1.368 . S
C1276 C1272 1.368 . S
C1276 C1275 1.523 . S
H1277 C1252 0.950 . S
H1278 C1254 0.950 . S
H1279 C1255 0.949 . S
H1280 C1257 0.950 . S
H1281 C1259 0.950 . S
C1282 C1283 1.349 . S
C1282 C1284 1.327 . S
C1282 H1307 0.950 . S
C1283 C1282 1.349 . S
C1283 C1299 1.349 . S
C1284 C1282 1.327 . S
C1284 C1303 1.429 . S
C1284 H1308 0.950 . S
C1285 C1302 1.574 . S
C1285 C1304 1.368 . S
C1285 H1309 0.949 . S
H1286 C1290 0.949 . S
C1287 C1288 1.349 . S
C1287 C1289 1.327 . S
C1287 H1310 0.950 . S
C1288 C1287 1.349 . S
C1288 C1300 1.349 . S
C1289 C1287 1.327 . S
C1289 C1305 1.429 . S
C1289 H1311 0.950 . S
C1290 H1286 0.949 . S
C1290 C1298 1.574 . S
C1290 C1306 1.368 . S
H1291 C1299 0.950 . S
H1292 C1297 0.950 . S
H1293 C1298 0.949 . S
H1294 C1300 0.950 . S
H1295 C1301 0.950 . S
H1296 C1302 0.949 . S
C1297 H1292 0.950 . S
C1297 C1299 1.327 . S
C1297 C1303 1.429 . S
C1298 C1290 1.574 . S
C1298 H1293 0.949 . S
C1298 C1304 1.368 . S
C1299 C1283 1.349 . S
C1299 H1291 0.950 . S
C1299 C1297 1.327 . S
C1300 C1288 1.349 . S
C1300 H1294 0.950 . S
C1300 C1301 1.327 . S
C1301 H1295 0.950 . S
C1301 C1300 1.327 . S
C1301 C1305 1.429 . S
C1302 C1285 1.574 . S
C1302 H1296 0.949 . S
C1302 C1306 1.368 . S
C1303 C1284 1.429 . S
C1303 C1297 1.429 . S
C1303 C1304 1.523 . S
C1304 C1285 1.368 . S
C1304 C1298 1.368 . S
C1304 C1303 1.523 . S
C1305 C1289 1.429 . S
C1305 C1301 1.429 . S
C1305 C1306 1.523 . S
C1306 C1290 1.368 . S
C1306 C1302 1.368 . S
C1306 C1305 1.523 . S
H1307 C1282 0.950 . S
H1308 C1284 0.950 . S
H1309 C1285 0.949 . S
H1310 C1287 0.950 . S
H1311 C1289 0.950 . S
C1312 C1313 1.349 . S
C1312 C1314 1.327 . S
C1312 H1337 0.950 . S
C1313 C1312 1.349 . S
C1313 C1329 1.349 . S
C1314 C1312 1.327 . S
C1314 C1333 1.429 . S
C1314 H1338 0.950 . S
C1315 C1332 1.574 . S
C1315 C1334 1.368 . S
C1315 H1339 0.949 . S
H1316 C1320 0.949 . S
C1317 C1318 1.349 . S
C1317 C1319 1.327 . S
C1317 H1340 0.950 . S
C1318 C1317 1.349 . S
C1318 C1330 1.349 . S
C1319 C1317 1.327 . S
C1319 C1335 1.429 . S
C1319 H1341 0.950 . S
C1320 H1316 0.949 . S
C1320 C1328 1.574 . S
C1320 C1336 1.368 . S
H1321 C1329 0.950 . S
H1322 C1327 0.950 . S
H1323 C1328 0.949 . S
H1324 C1330 0.950 . S
H1325 C1331 0.950 . S
H1326 C1332 0.949 . S
C1327 H1322 0.950 . S
C1327 C1329 1.327 . S
C1327 C1333 1.429 . S
C1328 C1320 1.574 . S
C1328 H1323 0.949 . S
C1328 C1334 1.368 . S
C1329 C1313 1.349 . S
C1329 H1321 0.950 . S
C1329 C1327 1.327 . S
C1330 C1318 1.349 . S
C1330 H1324 0.950 . S
C1330 C1331 1.327 . S
C1331 H1325 0.950 . S
C1331 C1330 1.327 . S
C1331 C1335 1.429 . S
C1332 C1315 1.574 . S
C1332 H1326 0.949 . S
C1332 C1336 1.368 . S
C1333 C1314 1.429 . S
C1333 C1327 1.429 . S
C1333 C1334 1.523 . S
C1334 C1315 1.368 . S
C1334 C1328 1.368 . S
C1334 C1333 1.523 . S
C1335 C1319 1.429 . S
C1335 C1331 1.429 . S
C1335 C1336 1.523 . S
C1336 C1320 1.368 . S
C1336 C1332 1.368 . S
C1336 C1335 1.523 . S
H1337 C1312 0.950 . S
H1338 C1314 0.950 . S
H1339 C1315 0.949 . S
H1340 C1317 0.950 . S
H1341 C1319 0.950 . S
C1342 C1343 1.349 . S
C1342 C1344 1.327 . S
C1342 H1367 0.950 . S
C1343 C1342 1.349 . S
C1343 C1359 1.349 . S
C1344 C1342 1.327 . S
C1344 C1363 1.429 . S
C1344 H1368 0.950 . S
C1345 C1362 1.574 . S
C1345 C1364 1.368 . S
C1345 H1369 0.949 . S
H1346 C1350 0.949 . S
C1347 C1348 1.349 . S
C1347 C1349 1.327 . S
C1347 H1370 0.950 . S
C1348 C1347 1.349 . S
C1348 C1360 1.349 . S
C1349 C1347 1.327 . S
C1349 C1365 1.429 . S
C1349 H1371 0.950 . S
C1350 H1346 0.949 . S
C1350 C1358 1.574 . S
C1350 C1366 1.368 . S
H1351 C1359 0.950 . S
H1352 C1357 0.950 . S
H1353 C1358 0.949 . S
H1354 C1360 0.950 . S
H1355 C1361 0.950 . S
H1356 C1362 0.949 . S
C1357 H1352 0.950 . S
C1357 C1359 1.327 . S
C1357 C1363 1.429 . S
C1358 C1350 1.574 . S
C1358 H1353 0.949 . S
C1358 C1364 1.368 . S
C1359 C1343 1.349 . S
C1359 H1351 0.950 . S
C1359 C1357 1.327 . S
C1360 C1348 1.349 . S
C1360 H1354 0.950 . S
C1360 C1361 1.327 . S
C1361 H1355 0.950 . S
C1361 C1360 1.327 . S
C1361 C1365 1.429 . S
C1362 C1345 1.574 . S
C1362 H1356 0.949 . S
C1362 C1366 1.368 . S
C1363 C1344 1.429 . S
C1363 C1357 1.429 . S
C1363 C1364 1.523 . S
C1364 C1345 1.368 . S
C1364 C1358 1.368 . S
C1364 C1363 1.523 . S
C1365 C1349 1.429 . S
C1365 C1361 1.429 . S
C1365 C1366 1.523 . S
C1366 C1350 1.368 . S
C1366 C1362 1.368 . S
C1366 C1365 1.523 . S
H1367 C1342 0.950 . S
H1368 C1344 0.950 . S
H1369 C1345 0.949 . S
H1370 C1347 0.950 . S
H1371 C1349 0.950 . S
C1372 C1373 1.349 . S
C1372 C1374 1.327 . S
C1372 H1397 0.950 . S
C1373 C1372 1.349 . S
C1373 C1389 1.349 . S
C1374 C1372 1.327 . S
C1374 C1393 1.429 . S
C1374 H1398 0.950 . S
C1375 C1392 1.574 . S
C1375 C1394 1.368 . S
C1375 H1399 0.949 . S
H1376 C1380 0.949 . S
C1377 C1378 1.349 . S
C1377 C1379 1.327 . S
C1377 H1400 0.950 . S
C1378 C1377 1.349 . S
C1378 C1390 1.349 . S
C1379 C1377 1.327 . S
C1379 C1395 1.429 . S
C1379 H1401 0.950 . S
C1380 H1376 0.949 . S
C1380 C1388 1.574 . S
C1380 C1396 1.368 . S
H1381 C1389 0.950 . S
H1382 C1387 0.950 . S
H1383 C1388 0.949 . S
H1384 C1390 0.950 . S
H1385 C1391 0.950 . S
H1386 C1392 0.949 . S
C1387 H1382 0.950 . S
C1387 C1389 1.327 . S
C1387 C1393 1.429 . S
C1388 C1380 1.574 . S
C1388 H1383 0.949 . S
C1388 C1394 1.368 . S
C1389 C1373 1.349 . S
C1389 H1381 0.950 . S
C1389 C1387 1.327 . S
C1390 C1378 1.349 . S
C1390 H1384 0.950 . S
C1390 C1391 1.327 . S
C1391 H1385 0.950 . S
C1391 C1390 1.327 . S
C1391 C1395 1.429 . S
C1392 C1375 1.574 . S
C1392 H1386 0.949 . S
C1392 C1396 1.368 . S
C1393 C1374 1.429 . S
C1393 C1387 1.429 . S
C1393 C1394 1.523 . S
C1394 C1375 1.368 . S
C1394 C1388 1.368 . S
C1394 C1393 1.523 . S
C1395 C1379 1.429 . S
C1395 C1391 1.429 . S
C1395 C1396 1.523 . S
C1396 C1380 1.368 . S
C1396 C1392 1.368 . S
C1396 C1395 1.523 . S
H1397 C1372 0.950 . S
H1398 C1374 0.950 . S
H1399 C1375 0.949 . S
H1400 C1377 0.950 . S
H1401 C1379 0.950 . S
C1402 C1403 1.349 . S
C1402 C1404 1.327 . S
C1402 H1427 0.950 . S
C1403 C1402 1.349 . S
C1403 C1419 1.349 . S
C1404 C1402 1.327 . S
C1404 C1423 1.429 . S
C1404 H1428 0.950 . S
C1405 C1422 1.574 . S
C1405 C1424 1.368 . S
C1405 H1429 0.949 . S
H1406 C1410 0.949 . S
C1407 C1408 1.349 . S
C1407 C1409 1.327 . S
C1407 H1430 0.950 . S
C1408 C1407 1.349 . S
C1408 C1420 1.349 . S
C1409 C1407 1.327 . S
C1409 C1425 1.429 . S
C1409 H1431 0.950 . S
C1410 H1406 0.949 . S
C1410 C1418 1.574 . S
C1410 C1426 1.368 . S
H1411 C1419 0.950 . S
H1412 C1417 0.950 . S
H1413 C1418 0.949 . S
H1414 C1420 0.950 . S
H1415 C1421 0.950 . S
H1416 C1422 0.949 . S
C1417 H1412 0.950 . S
C1417 C1419 1.327 . S
C1417 C1423 1.429 . S
C1418 C1410 1.574 . S
C1418 H1413 0.949 . S
C1418 C1424 1.368 . S
C1419 C1403 1.349 . S
C1419 H1411 0.950 . S
C1419 C1417 1.327 . S
C1420 C1408 1.349 . S
C1420 H1414 0.950 . S
C1420 C1421 1.327 . S
C1421 H1415 0.950 . S
C1421 C1420 1.327 . S
C1421 C1425 1.429 . S
C1422 C1405 1.574 . S
C1422 H1416 0.949 . S
C1422 C1426 1.368 . S
C1423 C1404 1.429 . S
C1423 C1417 1.429 . S
C1423 C1424 1.523 . S
C1424 C1405 1.368 . S
C1424 C1418 1.368 . S
C1424 C1423 1.523 . S
C1425 C1409 1.429 . S
C1425 C1421 1.429 . S
C1425 C1426 1.523 . S
C1426 C1410 1.368 . S
C1426 C1422 1.368 . S
C1426 C1425 1.523 . S
H1427 C1402 0.950 . S
H1428 C1404 0.950 . S
H1429 C1405 0.949 . S
H1430 C1407 0.950 . S
H1431 C1409 0.950 . S
C478 C384 1.254 . S
C473 C8 1.248 . S
C508 C398 1.247 . S
C503 C61 1.239 . S
C538 C411 1.254 . S
C533 C107 1.245 . S
C563 C139 1.251 . S
C568 C378 1.257 . S
C593 C192 1.258 . S
C598 C371 1.265 . S
C623 C238 1.252 . S
C628 C391 1.259 . S
C658 C399 1.255 . S
C653 C284 1.249 . S
C688 C412 1.259 . S
C683 C330 1.252 . S
C713 C100 1.248 . S
C718 C438 1.254 . S
C748 C456 1.248 . S
C743 C160 1.239 . S
C773 C15 1.245 . S
C778 C463 1.254 . S
C808 C430 1.258 . S
C803 C54 1.251 . S
C833 C291 1.255 . S
C838 C423 1.265 . S
C863 C337 1.250 . S
C868 C437 1.259 . S
C898 C449 1.256 . S
C893 C199 1.247 . S
C923 C245 1.249 . S
C928 C464 1.258 . S
C958 C397 1.736 . S
C953 C1 1.752 . S
C988 C410 1.740 . S
C983 C68 1.749 . S
C1013 C114 1.741 . S
C1018 C373 1.732 . S
C1043 C146 1.744 . S
C1048 C385 1.722 . S
C1073 C185 1.737 . S
C1078 C417 1.716 . S
C1108 C372 1.719 . S
C1103 C231 1.740 . S
C1138 C386 1.733 . S
C1133 C277 1.748 . S
C1168 C404 1.723 . S
C1163 C323 1.745 . S
C1198 C451 1.737 . S
C1193 C93 1.752 . S
C1228 C462 1.740 . S
C1223 C153 1.749 . S
C1253 C22 1.742 . S
C1258 C425 1.732 . S
C1288 C443 1.723 . S
C1283 C47 1.744 . S
C1318 C469 1.715 . S
C1313 C298 1.731 . S
C1343 C344 1.734 . S
C1348 C424 1.718 . S
C1378 C436 1.732 . S
C1373 C206 1.741 . S
C1408 C450 1.723 . S
C1403 C252 1.738 . S
