# Generated by pormake.
# Topology anh, (6,3)-cn, num edge types: 1
# Building blocks:
#     Node 0, Type 0, BuildingBlock: MIFKUJ_clean_sbu_0, # of connection points: 6
#     Node 1, Type 0, BuildingBlock: MIFKUJ_clean_sbu_0, # of connection points: 6
#     Node 2, Type 0, BuildingBlock: MIFKUJ_clean_sbu_0, # of connection points: 6
#     Node 3, Type 1, BuildingBlock: INOVEN_clean_linker_0, # of connection points: 3
#     Node 4, Type 1, BuildingBlock: INOVEN_clean_linker_0, # of connection points: 3
#     Node 5, Type 1, BuildingBlock: INOVEN_clean_linker_0, # of connection points: 3
#     Node 6, Type 1, BuildingBlock: INOVEN_clean_linker_0, # of connection points: 3
#     Node 7, Type 1, BuildingBlock: INOVEN_clean_linker_0, # of connection points: 3
#     Node 8, Type 1, BuildingBlock: INOVEN_clean_linker_0, # of connection points: 3
#     Edge 9, Type (0, 1), BuildingBlock: UVAHIK_clean_linker_0, # of connection points: 2
#     Edge 10, Type (0, 1), BuildingBlock: UVAHIK_clean_linker_0, # of connection points: 2
#     Edge 11, Type (0, 1), BuildingBlock: UVAHIK_clean_linker_0, # of connection points: 2
#     Edge 12, Type (0, 1), BuildingBlock: UVAHIK_clean_linker_0, # of connection points: 2
#     Edge 13, Type (0, 1), BuildingBlock: UVAHIK_clean_linker_0, # of connection points: 2
#     Edge 14, Type (0, 1), BuildingBlock: UVAHIK_clean_linker_0, # of connection points: 2
#     Edge 15, Type (0, 1), BuildingBlock: UVAHIK_clean_linker_0, # of connection points: 2
#     Edge 16, Type (0, 1), BuildingBlock: UVAHIK_clean_linker_0, # of connection points: 2
#     Edge 17, Type (0, 1), BuildingBlock: UVAHIK_clean_linker_0, # of connection points: 2
#     Edge 18, Type (0, 1), BuildingBlock: UVAHIK_clean_linker_0, # of connection points: 2
#     Edge 19, Type (0, 1), BuildingBlock: UVAHIK_clean_linker_0, # of connection points: 2
#     Edge 20, Type (0, 1), BuildingBlock: UVAHIK_clean_linker_0, # of connection points: 2
#     Edge 21, Type (0, 1), BuildingBlock: UVAHIK_clean_linker_0, # of connection points: 2
#     Edge 22, Type (0, 1), BuildingBlock: UVAHIK_clean_linker_0, # of connection points: 2
#     Edge 23, Type (0, 1), BuildingBlock: UVAHIK_clean_linker_0, # of connection points: 2
#     Edge 24, Type (0, 1), BuildingBlock: UVAHIK_clean_linker_0, # of connection points: 2
#     Edge 25, Type (0, 1), BuildingBlock: UVAHIK_clean_linker_0, # of connection points: 2
#     Edge 26, Type (0, 1), BuildingBlock: UVAHIK_clean_linker_0, # of connection points: 2
# Relax obj value: 0.068
# Max RMSD: 0.134
# Mean RMSD: 0.092
data_MOF--net-anh--node1-MIFKUJ_clean_sbu_0--node2-INOVEN_clean_linker_0--edge1-UVAHIK_clean_linker_0
_symmetry_space_group_name_H-M    P1
_symmetry_Int_Tables_number       1
_symmetry_cell_setting            triclinic
loop_
_symmetry_equiv_pos_as_xyz
'x, y, z'
_cell_length_a     40.237417
_cell_length_b     40.086139
_cell_length_c     61.277318
_cell_angle_alpha  96.377
_cell_angle_beta   93.260757
_cell_angle_gamma 119.82939
loop_
_atom_site_label
_atom_site_type_symbol
_atom_site_fract_x
_atom_site_fract_y
_atom_site_fract_z
_atom_type_partial_charge
Zn0 Zn 0.08208 0.61202 0.16813 0.0
Zn1 Zn 0.96595 0.52921 0.17032 0.0
C2 C 0.15157 0.61483 0.18229 0.0
O3 O 0.1544 0.6435 0.19649 0.0
C4 C 0.9401 0.58573 0.17155 0.0
O5 O 0.96675 0.60279 0.15867 0.0
O6 O 0.1069 0.66613 0.16046 0.0
O7 O 0.03454 0.57391 0.14523 0.0
O8 O 0.97237 0.52932 0.13793 0.0
C9 C 0.10717 0.67288 0.14066 0.0
O10 O 0.08864 0.64357 0.12432 0.0
O11 O 0.12193 0.59579 0.1678 0.0
C12 C 0.91506 0.46676 0.19124 0.0
O13 O 0.91743 0.49587 0.20479 0.0
O14 O 0.93577 0.47401 0.17557 0.0
O15 O 0.01983 0.55941 0.18455 0.0
O16 O 0.06916 0.61394 0.19981 0.0
O17 O 0.93609 0.55553 0.17865 0.0
C18 C 0.00494 0.55024 0.13126 0.0
C19 C 0.03683 0.58488 0.20163 0.0
Zn20 Zn 0.53349 0.07371 0.4953 0.0
Zn21 Zn 0.50897 0.9689 0.49663 0.0
C22 C 0.60543 0.14269 0.5129 0.0
O23 O 0.58178 0.1508 0.52303 0.0
C24 C 0.43438 0.90469 0.48953 0.0
O25 O 0.45092 0.89782 0.47311 0.0
O26 O 0.51268 0.10889 0.49018 0.0
O27 O 0.52064 0.03855 0.46622 0.0
O28 O 0.50823 0.97801 0.46516 0.0
C29 C 0.5227 0.12594 0.4734 0.0
O30 O 0.54405 0.11839 0.46064 0.0
O31 O 0.59164 0.10967 0.50071 0.0
C32 C 0.52947 0.91937 0.51528 0.0
O33 O 0.51448 0.92825 0.53187 0.0
O34 O 0.53086 0.934 0.49779 0.0
O35 O 0.54192 0.01503 0.52071 0.0
O36 O 0.51476 0.05091 0.5229 0.0
O37 O 0.45377 0.93652 0.50299 0.0
C38 C 0.51233 0.00587 0.45541 0.0
C39 C 0.52695 0.03138 0.53198 0.0
Zn40 Zn 0.6111 0.52886 0.83903 0.0
Zn41 Zn 0.52697 0.53047 0.82981 0.0
C42 C 0.59295 0.45445 0.8497 0.0
O43 O 0.60918 0.47672 0.86905 0.0
C44 C 0.54356 0.601 0.81446 0.0
O45 O 0.52246 0.57486 0.79699 0.0
O46 O 0.66839 0.55009 0.84186 0.0
O47 O 0.60141 0.54917 0.81235 0.0
O48 O 0.53987 0.50626 0.80338 0.0
C49 C 0.67974 0.53779 0.82553 0.0
O50 O 0.65403 0.5132 0.80886 0.0
O51 O 0.58812 0.46972 0.83352 0.0
C52 C 0.45856 0.53126 0.83562 0.0
O53 O 0.48281 0.55855 0.85188 0.0
O54 O 0.47036 0.51245 0.82351 0.0
O55 O 0.53416 0.51775 0.8601 0.0
O56 O 0.59761 0.54446 0.86802 0.0
O57 O 0.55276 0.58959 0.83117 0.0
C58 C 0.57329 0.52588 0.79774 0.0
C59 C 0.56417 0.53095 0.87409 0.0
H60 H 0.48713 0.02935 0.16116 0.0
H61 H 0.43279 0.95663 0.21005 0.0
H62 H 0.54313 0.06115 0.22814 0.0
N63 N 0.54965 0.0836 0.18831 0.0
N64 N 0.57216 0.11101 0.20322 0.0
C65 C 0.48747 0.02323 0.17793 0.0
C66 C 0.45662 0.98948 0.18362 0.0
C67 C 0.51861 0.04933 0.19399 0.0
C68 C 0.51875 0.0414 0.21575 0.0
C69 C 0.48797 0.00819 0.22176 0.0
C70 C 0.45717 0.982 0.2055 0.0
H71 H 0.5924 0.53005 0.50446 0.0
H72 H 0.59903 0.46704 0.55547 0.0
H73 H 0.61786 0.58224 0.57309 0.0
N74 N 0.60613 0.59331 0.53139 0.0
N75 N 0.6108 0.62064 0.54554 0.0
C76 C 0.59771 0.52874 0.5218 0.0
C77 C 0.59569 0.49522 0.52807 0.0
C78 C 0.60614 0.56044 0.53792 0.0
C79 C 0.61239 0.55832 0.56044 0.0
C80 C 0.60957 0.52465 0.56687 0.0
C81 C 0.60159 0.49334 0.55059 0.0
H82 H 0.05269 0.53767 0.83639 0.0
H83 H 0.00391 0.55171 0.89492 0.0
H84 H 0.0808 0.50645 0.89688 0.0
N85 N 0.09569 0.51114 0.85607 0.0
N86 N 0.10596 0.51827 0.8375 0.0
C87 C 0.04973 0.53513 0.85368 0.0
C88 C 0.02604 0.54639 0.86434 0.0
C89 C 0.06985 0.52106 0.8656 0.0
C90 C 0.06545 0.51761 0.88791 0.0
C91 C 0.04163 0.52849 0.89864 0.0
C92 C 0.02224 0.54302 0.88673 0.0
H93 H 0.03416 0.55765 0.49305 0.0
H94 H 0.06708 0.61607 0.4364 0.0
H95 H 0.963 0.50502 0.42981 0.0
N96 N 0.96945 0.49499 0.47238 0.0
N97 N 0.93937 0.46762 0.46114 0.0
C98 C 0.02862 0.55859 0.47568 0.0
C99 C 0.05414 0.59117 0.46638 0.0
C100 C 0.99552 0.52739 0.46263 0.0
C101 C 0.9885 0.52876 0.44001 0.0
C102 C 0.01398 0.56077 0.43045 0.0
C103 C 0.0466 0.59177 0.4438 0.0
H104 H 0.57475 0.05694 0.8328 0.0
H105 H 0.57325 0.11037 0.77573 0.0
H106 H 0.56183 0.99762 0.7668 0.0
N107 N 0.56714 0.99117 0.80997 0.0
N108 N 0.55921 0.96094 0.79714 0.0
C109 C 0.57273 0.056 0.81502 0.0
C110 C 0.57459 0.08761 0.80582 0.0
C111 C 0.56828 0.02317 0.80103 0.0
C112 C 0.56518 0.02242 0.77789 0.0
C113 C 0.56715 0.05372 0.76876 0.0
C114 C 0.57218 0.08626 0.78279 0.0
H115 H 0.56885 0.59496 0.17261 0.0
H116 H 0.61029 0.57608 0.11188 0.0
H117 H 0.49381 0.55223 0.11056 0.0
N118 N 0.49789 0.57362 0.15437 0.0
N119 N 0.46392 0.55651 0.14504 0.0
C120 C 0.56383 0.58562 0.15485 0.0
C121 C 0.59379 0.58683 0.14358 0.0
C122 C 0.52753 0.57301 0.14306 0.0
C123 C 0.52149 0.56153 0.11991 0.0
C124 C 0.55113 0.56239 0.10863 0.0
C125 C 0.58709 0.57493 0.12058 0.0
C126 C 0.18054 0.57562 0.16747 0.0
C127 C 0.18303 0.60578 0.18282 0.0
C128 C 0.21095 0.56814 0.16746 0.0
C129 C 0.31571 0.6159 0.184 0.0
H130 H 0.29667 0.51051 0.17085 0.0
C131 C 0.44012 0.58453 0.17388 0.0
C132 C 0.43349 0.55824 0.15466 0.0
C133 C 0.40959 0.58825 0.18122 0.0
C134 C 0.30245 0.54012 0.17453 0.0
H135 H 0.21904 0.65114 0.21059 0.0
H136 H 0.27199 0.63791 0.21062 0.0
H137 H 0.24276 0.52106 0.17621 0.0
H138 H 0.39064 0.51494 0.1285 0.0
H139 H 0.33726 0.52114 0.1412 0.0
H140 H 0.37524 0.63497 0.18175 0.0
C141 C 0.24671 0.62035 0.19842 0.0
C142 C 0.27157 0.54616 0.17755 0.0
C143 C 0.21628 0.62781 0.19845 0.0
C144 C 0.39605 0.53505 0.14344 0.0
C145 C 0.36559 0.53854 0.15079 0.0
C146 C 0.3466 0.60985 0.18099 0.0
C147 C 0.24453 0.59064 0.18281 0.0
C148 C 0.27773 0.58412 0.18183 0.0
C149 C 0.37208 0.56564 0.16955 0.0
C150 C 0.34019 0.5719 0.17573 0.0
H151 H 0.15533 0.55811 0.15521 0.0
H152 H 0.20854 0.54537 0.15502 0.0
H153 H 0.32141 0.64552 0.18706 0.0
H154 H 0.4689 0.60295 0.18278 0.0
H155 H 0.41541 0.6092 0.19581 0.0
C156 C 0.65871 0.21236 0.52213 0.0
C157 C 0.64626 0.17356 0.51316 0.0
C158 C 0.69562 0.24245 0.51994 0.0
C159 C 0.77157 0.26435 0.48346 0.0
H160 H 0.82659 0.36142 0.52469 0.0
C161 C 0.87881 0.40671 0.45541 0.0
C162 C 0.91193 0.43447 0.46964 0.0
C163 C 0.85054 0.37363 0.46273 0.0
C164 C 0.81198 0.33435 0.51313 0.0
H165 H 0.66381 0.13566 0.49609 0.0
H166 H 0.72863 0.18797 0.49281 0.0
H167 H 0.77106 0.30527 0.53517 0.0
H168 H 0.9421 0.4497 0.5029 0.0
H169 H 0.89261 0.39125 0.51585 0.0
H170 H 0.81257 0.29314 0.46152 0.0
C171 C 0.70946 0.19537 0.50099 0.0
C172 C 0.77977 0.30223 0.51902 0.0
C173 C 0.67235 0.16529 0.50299 0.0
C174 C 0.91666 0.42865 0.49156 0.0
C175 C 0.88826 0.39529 0.49896 0.0
C176 C 0.80383 0.29627 0.47765 0.0
C177 C 0.72124 0.2345 0.5089 0.0
C178 C 0.7585 0.26709 0.50402 0.0
C179 C 0.85484 0.3673 0.48457 0.0
C180 C 0.82379 0.33206 0.49212 0.0
H181 H 0.63937 0.21983 0.53005 0.0
H182 H 0.70326 0.27211 0.52601 0.0
H183 H 0.75593 0.23805 0.47134 0.0
H184 H 0.8747 0.41093 0.43852 0.0
H185 H 0.8249 0.35334 0.4513 0.0
C186 C 0.56661 0.6685 0.83532 0.0
C187 C 0.55122 0.64155 0.81549 0.0
C188 C 0.56918 0.70498 0.8365 0.0
C189 C 0.52291 0.75164 0.8089 0.0
H190 H 0.61231 0.8504 0.83581 0.0
C191 C 0.54477 0.89496 0.78706 0.0
C192 C 0.55809 0.92741 0.80355 0.0
C193 C 0.54391 0.8613 0.79166 0.0
C194 C 0.58689 0.82298 0.82857 0.0
H195 H 0.52827 0.63284 0.7811 0.0
H196 H 0.53291 0.69588 0.78314 0.0
H197 H 0.61234 0.78946 0.83764 0.0
H198 H 0.58188 0.9508 0.83805 0.0
H199 H 0.58054 0.8912 0.84632 0.0
H200 H 0.49756 0.78464 0.79952 0.0
C201 C 0.54237 0.68873 0.79792 0.0
C202 C 0.58694 0.7881 0.82956 0.0
C203 C 0.53995 0.65258 0.79672 0.0
C204 C 0.57107 0.9259 0.82505 0.0
C205 C 0.57052 0.89196 0.8297 0.0
C206 C 0.52282 0.78623 0.80797 0.0
C207 C 0.55616 0.71509 0.81791 0.0
C208 C 0.55533 0.7521 0.81915 0.0
C209 C 0.55661 0.85914 0.81301 0.0
C210 C 0.55519 0.82246 0.8172 0.0
H211 H 0.57551 0.66095 0.85011 0.0
H212 H 0.57999 0.72463 0.85214 0.0
H213 H 0.49765 0.7244 0.80125 0.0
H214 H 0.53513 0.89585 0.77037 0.0
H215 H 0.5338 0.83705 0.77829 0.0
C216 C 0.88121 0.57743 0.1877 0.0
C217 C 0.9115 0.59802 0.17539 0.0
C218 C 0.85118 0.58531 0.18891 0.0
C219 C 0.80211 0.62343 0.15634 0.0
H220 H 0.74484 0.61186 0.20655 0.0
C221 C 0.66487 0.63166 0.14841 0.0
C222 C 0.63265 0.60068 0.15516 0.0
C223 C 0.70205 0.63946 0.15522 0.0
C224 C 0.76055 0.61515 0.1924 0.0
H225 H 0.93534 0.64487 0.15594 0.0
H226 H 0.8832 0.65907 0.15833 0.0
H227 H 0.80547 0.61141 0.21048 0.0
H228 H 0.61373 0.55504 0.17532 0.0
H229 H 0.67895 0.56824 0.18711 0.0
H230 H 0.75699 0.62607 0.13806 0.0
C231 C 0.88225 0.6362 0.16666 0.0
C232 C 0.79524 0.61487 0.19463 0.0
C233 C 0.91226 0.62823 0.16539 0.0
C234 C 0.63828 0.57931 0.1701 0.0
C235 C 0.6756 0.58691 0.1768 0.0
C236 C 0.76762 0.6238 0.15414 0.0
C237 C 0.85079 0.61409 0.17791 0.0
C238 C 0.81615 0.61847 0.17652 0.0
C239 C 0.70774 0.61608 0.16869 0.0
C240 C 0.74615 0.61921 0.17204 0.0
H241 H 0.87981 0.55407 0.19572 0.0
H242 H 0.82733 0.56747 0.19756 0.0
H243 H 0.81689 0.62538 0.14189 0.0
H244 H 0.66109 0.64857 0.13692 0.0
H245 H 0.72623 0.66269 0.14908 0.0
C246 C 0.37757 0.87869 0.5113 0.0
C247 C 0.39491 0.87449 0.4927 0.0
C248 C 0.34091 0.84877 0.51438 0.0
C249 C 0.27286 0.74282 0.49644 0.0
H250 H 0.19349 0.7656 0.51214 0.0
C251 C 0.1163 0.61836 0.49171 0.0
C252 C 0.08976 0.62447 0.47949 0.0
C253 C 0.15328 0.64972 0.50006 0.0
C254 C 0.21538 0.75873 0.50785 0.0
H255 H 0.38694 0.83585 0.46257 0.0
H256 H 0.32349 0.78445 0.46778 0.0
H257 H 0.25956 0.81905 0.51256 0.0
H258 H 0.07966 0.66839 0.46821 0.0
H259 H 0.14389 0.72274 0.48239 0.0
H260 H 0.22863 0.68282 0.49047 0.0
C261 C 0.3383 0.81033 0.48026 0.0
C262 C 0.25333 0.78938 0.50827 0.0
C263 C 0.37466 0.84007 0.47717 0.0
C264 C 0.09974 0.66279 0.47736 0.0
C265 C 0.13653 0.69404 0.48569 0.0
C266 C 0.23503 0.71226 0.49599 0.0
C267 C 0.32107 0.81406 0.49898 0.0
C268 C 0.28221 0.78179 0.50184 0.0
C269 C 0.16432 0.68777 0.4964 0.0
C270 C 0.20551 0.71983 0.50101 0.0
H271 H 0.39246 0.90483 0.52359 0.0
H272 H 0.32842 0.85253 0.52899 0.0
H273 H 0.2946 0.73592 0.49183 0.0
H274 H 0.10938 0.58913 0.49361 0.0
H275 H 0.17376 0.64393 0.50857 0.0
C276 C 0.57772 0.39226 0.82534 0.0
C277 C 0.58465 0.41354 0.8466 0.0
C278 C 0.57427 0.35539 0.82271 0.0
C279 C 0.55757 0.27304 0.85232 0.0
H280 H 0.61345 0.25354 0.80799 0.0
C281 C 0.5451 0.12233 0.82551 0.0
C282 C 0.57827 0.12259 0.8193 0.0
C283 C 0.54575 0.15746 0.83169 0.0
C284 C 0.59798 0.2586 0.82062 0.0
H285 H 0.59176 0.41187 0.88175 0.0
H286 H 0.58563 0.34784 0.87716 0.0
H287 H 0.61253 0.31414 0.81198 0.0
H288 H 0.63845 0.15936 0.81564 0.0
H289 H 0.64014 0.22062 0.82711 0.0
H290 H 0.54336 0.21744 0.86105 0.0
C291 C 0.58279 0.35949 0.8625 0.0
C292 C 0.59696 0.29318 0.82267 0.0
C293 C 0.58652 0.39639 0.86512 0.0
C294 C 0.61269 0.15843 0.82073 0.0
C295 C 0.61341 0.19347 0.82693 0.0
C296 C 0.55839 0.23823 0.85017 0.0
C297 C 0.57735 0.33877 0.84127 0.0
C298 C 0.57686 0.30099 0.83858 0.0
C299 C 0.57956 0.1935 0.8316 0.0
C300 C 0.57887 0.23068 0.83439 0.0
H301 H 0.57615 0.40457 0.81072 0.0
H302 H 0.56957 0.34004 0.80611 0.0
H303 H 0.54157 0.27794 0.86466 0.0
H304 H 0.51797 0.09505 0.82398 0.0
H305 H 0.5191 0.15631 0.83506 0.0
C306 C 0.54768 0.88054 0.53708 0.0
C307 C 0.54344 0.89185 0.51671 0.0
C308 C 0.56022 0.85396 0.53839 0.0
C309 C 0.56137 0.77319 0.50606 0.0
H310 H 0.6397 0.79198 0.55343 0.0
C311 C 0.60554 0.65888 0.51797 0.0
C312 C 0.60972 0.65345 0.54001 0.0
C313 C 0.60253 0.69077 0.5134 0.0
C314 C 0.6176 0.78616 0.54019 0.0
H315 H 0.54895 0.88425 0.48173 0.0
H316 H 0.57041 0.83726 0.48406 0.0
H317 H 0.62407 0.84249 0.54891 0.0
H318 H 0.61451 0.67634 0.57429 0.0
H319 H 0.60824 0.73144 0.56651 0.0
H320 H 0.55355 0.71627 0.49789 0.0
C321 C 0.56416 0.84918 0.49896 0.0
C322 C 0.60879 0.81513 0.53759 0.0
C323 C 0.55205 0.87614 0.49767 0.0
C324 C 0.6115 0.6804 0.55725 0.0
C325 C 0.60821 0.71199 0.55274 0.0
C326 C 0.56987 0.74399 0.50881 0.0
C327 C 0.56836 0.83791 0.51933 0.0
C328 C 0.58013 0.80863 0.52076 0.0
C329 C 0.60343 0.71747 0.53076 0.0
C330 C 0.59754 0.74988 0.5262 0.0
H331 H 0.54126 0.89215 0.55202 0.0
H332 H 0.5628 0.84535 0.55426 0.0
H333 H 0.53896 0.76743 0.49303 0.0
H334 H 0.60424 0.63843 0.50434 0.0
H335 H 0.59932 0.69441 0.4963 0.0
C336 C 0.74961 0.58046 0.84102 0.0
C337 C 0.72082 0.54941 0.82553 0.0
C338 C 0.78816 0.59 0.84156 0.0
C339 C 0.85563 0.56991 0.81053 0.0
H340 H 0.90906 0.5916 0.86954 0.0
C341 C 0.97567 0.53614 0.83431 0.0
C342 C 0.00351 0.56032 0.85245 0.0
C343 C 0.94717 0.54419 0.82705 0.0
C344 C 0.895 0.58642 0.85289 0.0
H345 H 0.70993 0.50465 0.79807 0.0
H346 H 0.77664 0.52019 0.79955 0.0
H347 H 0.84698 0.58756 0.86508 0.0
H348 H 0.02641 0.61398 0.87558 0.0
H349 H 0.97711 0.62842 0.86271 0.0
H350 H 0.90322 0.5666 0.79858 0.0
C351 C 0.76988 0.53796 0.81094 0.0
C352 C 0.85926 0.58414 0.85032 0.0
C353 C 0.73147 0.52877 0.81022 0.0
C354 C 0.00491 0.59471 0.8617 0.0
C355 C 0.97663 0.60284 0.85441 0.0
C356 C 0.89136 0.57182 0.81314 0.0
C357 C 0.79868 0.56833 0.82682 0.0
C358 C 0.83872 0.57516 0.82914 0.0
C359 C 0.9463 0.57658 0.83783 0.0
C360 C 0.91111 0.57952 0.83439 0.0
H361 H 0.74235 0.59722 0.85285 0.0
H362 H 0.80964 0.61409 0.85373 0.0
H363 H 0.84094 0.56361 0.79394 0.0
H364 H 0.97398 0.50936 0.82701 0.0
H365 H 0.92411 0.52337 0.81426 0.0
C366 C 0.15112 0.74416 0.15353 0.0
C367 C 0.13339 0.71254 0.13609 0.0
C368 C 0.18114 0.78018 0.15019 0.0
C369 C 0.26017 0.81572 0.11763 0.0
H370 H 0.28678 0.91489 0.15198 0.0
C371 C 0.40097 0.97671 0.15669 0.0
C372 C 0.42241 0.96281 0.16731 0.0
C373 C 0.36477 0.95053 0.14457 0.0
C374 C 0.27965 0.88775 0.1418 0.0
H375 H 0.13098 0.69471 0.101 0.0
H376 H 0.18389 0.75774 0.09524 0.0
H377 H 0.21983 0.86152 0.14612 0.0
H378 H 0.42465 0.91137 0.17238 0.0
H379 H 0.3618 0.86566 0.15111 0.0
H380 H 0.32037 0.84124 0.11445 0.0
C381 C 0.17461 0.7545 0.11151 0.0
C382 C 0.24136 0.8571 0.13861 0.0
C383 C 0.14427 0.71847 0.11482 0.0
C384 C 0.40851 0.92266 0.16434 0.0
C385 C 0.37269 0.89658 0.15202 0.0
C386 C 0.29847 0.8463 0.12089 0.0
C387 C 0.19423 0.78528 0.12935 0.0
C388 C 0.23161 0.82023 0.12744 0.0
C389 C 0.34985 0.91016 0.14266 0.0
C390 C 0.30885 0.88197 0.13394 0.0
H391 H 0.14314 0.74061 0.17007 0.0
H392 H 0.19586 0.80316 0.16434 0.0
H393 H 0.25364 0.78764 0.109 0.0
H394 H 0.41113 0.00762 0.15888 0.0
H395 H 0.34777 0.96173 0.13748 0.0
C396 C 0.50261 0.17371 0.48673 0.0
C397 C 0.51556 0.15784 0.47002 0.0
C398 C 0.50223 0.20799 0.48508 0.0
C399 C 0.55658 0.29582 0.46093 0.0
H400 H 0.48933 0.32537 0.48936 0.0
C401 C 0.54945 0.44132 0.49812 0.0
C402 C 0.58535 0.4609 0.5115 0.0
C403 C 0.53657 0.40473 0.4856 0.0
C404 C 0.50794 0.31749 0.48088 0.0
H405 H 0.53485 0.16328 0.43757 0.0
H406 H 0.53372 0.22284 0.43459 0.0
H407 H 0.46973 0.25663 0.48094 0.0
H408 H 0.63707 0.45951 0.52136 0.0
H409 H 0.61502 0.39601 0.49937 0.0
H410 H 0.59547 0.35673 0.46171 0.0
C411 C 0.52471 0.20932 0.44918 0.0
C412 C 0.49691 0.27817 0.47629 0.0
C413 C 0.52528 0.17518 0.45088 0.0
C414 C 0.60929 0.44481 0.51109 0.0
C415 C 0.59672 0.40862 0.49841 0.0
C416 C 0.56759 0.33506 0.46553 0.0
C417 C 0.51458 0.2269 0.46663 0.0
C418 C 0.52184 0.26707 0.46709 0.0
C419 C 0.55973 0.38763 0.48611 0.0
C420 C 0.54413 0.34637 0.47639 0.0
H421 H 0.49485 0.16096 0.50166 0.0
H422 H 0.49463 0.22093 0.49893 0.0
H423 H 0.57662 0.28836 0.45396 0.0
H424 H 0.53046 0.45323 0.49836 0.0
H425 H 0.508 0.38918 0.47621 0.0
C426 C 0.40928 0.5506 0.84176 0.0
C427 C 0.41929 0.52499 0.83056 0.0
C428 C 0.37291 0.54604 0.83663 0.0
C429 C 0.27324 0.47408 0.81458 0.0
H430 H 0.26464 0.56597 0.81281 0.0
C431 C 0.15242 0.52685 0.81169 0.0
C432 C 0.13342 0.50938 0.82925 0.0
C433 C 0.18373 0.52342 0.80558 0.0
C434 C 0.26639 0.53986 0.81279 0.0
H435 H 0.39881 0.47429 0.80523 0.0
H436 H 0.33467 0.46598 0.79647 0.0
H437 H 0.32797 0.57178 0.81427 0.0
H438 H 0.12992 0.47185 0.85308 0.0
H439 H 0.18425 0.46586 0.84251 0.0
H440 H 0.2117 0.44241 0.81386 0.0
C441 C 0.35525 0.48967 0.80917 0.0
C442 C 0.30273 0.54329 0.8139 0.0
C443 C 0.39192 0.49445 0.81418 0.0
C444 C 0.14432 0.48604 0.8396 0.0
C445 C 0.17527 0.4823 0.83339 0.0
C446 C 0.23684 0.47068 0.8136 0.0
C447 C 0.34553 0.51563 0.82026 0.0
C448 C 0.30664 0.51069 0.81554 0.0
C449 C 0.19613 0.50197 0.81681 0.0
C450 C 0.23319 0.50377 0.8134 0.0
H451 H 0.42965 0.57446 0.85445 0.0
H452 H 0.36601 0.56607 0.84574 0.0
H453 H 0.27539 0.44846 0.81582 0.0
H454 H 0.14425 0.54476 0.80348 0.0
H455 H 0.19905 0.5386 0.7926 0.0
C456 C 0.86517 0.41788 0.21094 0.0
C457 C 0.88447 0.42651 0.19216 0.0
C458 C 0.83325 0.38102 0.21094 0.0
C459 C 0.75453 0.29877 0.1737 0.0
H460 H 0.74027 0.24599 0.22468 0.0
C461 C 0.61907 0.14885 0.17864 0.0
C462 C 0.60512 0.14523 0.19928 0.0
C463 C 0.654 0.18189 0.17633 0.0
C464 C 0.74365 0.26053 0.21039 0.0
H465 H 0.88609 0.4031 0.15881 0.0
H466 H 0.82994 0.3386 0.1588 0.0
H467 H 0.80114 0.30552 0.22371 0.0
H468 H 0.61515 0.1727 0.23317 0.0
H469 H 0.67545 0.23085 0.22917 0.0
H470 H 0.69655 0.25432 0.16067 0.0
C471 C 0.83962 0.36045 0.17348 0.0
C472 C 0.77856 0.29449 0.20982 0.0
C473 C 0.8719 0.39722 0.17358 0.0
C474 C 0.6257 0.1752 0.21721 0.0
C475 C 0.6603 0.20814 0.21492 0.0
C476 C 0.7194 0.26483 0.17433 0.0
C477 C 0.81977 0.35219 0.19207 0.0
C478 C 0.78412 0.31428 0.19165 0.0
C479 C 0.67529 0.21156 0.1946 0.0
C480 C 0.71336 0.24578 0.19289 0.0
H481 H 0.87419 0.43988 0.22548 0.0
H482 H 0.81825 0.37551 0.22543 0.0
H483 H 0.75801 0.3137 0.15957 0.0
H484 H 0.60368 0.12584 0.16457 0.0
H485 H 0.66489 0.18366 0.16049 0.0
C486 C 0.9755 0.52992 0.09152 0.0
C487 C 0.00844 0.5463 0.10734 0.0
C488 C 0.97875 0.52596 0.06892 0.0
C489 C 0.04318 0.52218 0.02926 0.0
H490 H 0.98447 0.54831 0.98935 0.0
C491 C 0.06974 0.53884 0.93812 0.0
C492 C 0.03728 0.52552 0.92234 0.0
C493 C 0.06583 0.53894 0.96066 0.0
C494 C 0.00067 0.54037 0.00021 0.0
H495 H 0.07039 0.56997 0.1119 0.0
H496 H 0.07623 0.56401 0.07244 0.0
H497 H 0.97846 0.55361 0.0287 0.0
H498 H 0.97506 0.49995 0.91765 0.0
H499 H 0.96818 0.49986 0.95691 0.0
H500 H 0.06554 0.50915 0.0007 0.0
C501 C 0.04786 0.55411 0.07749 0.0
C502 C 0.99724 0.54345 0.02278 0.0
C503 C 0.0446 0.55805 0.10009 0.0
C504 C 0.0007 0.51107 0.92948 0.0
C505 C 0.99678 0.51109 0.95196 0.0
C506 C 0.04661 0.51908 0.00664 0.0
C507 C 0.01499 0.53812 0.06163 0.0
C508 C 0.01847 0.53444 0.03759 0.0
C509 C 0.02936 0.52563 0.96786 0.0
C510 C 0.02539 0.52817 0.99186 0.0
H511 H 0.94719 0.52032 0.0966 0.0
H512 H 0.95278 0.513 0.05715 0.0
H513 H 0.05953 0.5145 0.04018 0.0
H514 H 0.09834 0.55047 0.93313 0.0
H515 H 0.09155 0.55067 0.97249 0.0
C516 C 0.49588 0.96432 0.41802 0.0
C517 C 0.50878 0.00091 0.4309 0.0
C518 C 0.49349 0.96035 0.39488 0.0
C519 C 0.53332 0.01834 0.35054 0.0
H520 H 0.44119 0.93767 0.3125 0.0
C521 C 0.49991 0.03409 0.26216 0.0
C522 C 0.48779 0.00222 0.24524 0.0
C523 C 0.50233 0.02973 0.28431 0.0
C524 C 0.46731 0.95997 0.32292 0.0
H525 H 0.52893 0.06178 0.42943 0.0
H526 H 0.52466 0.05484 0.38944 0.0
H527 H 0.44625 0.93753 0.35256 0.0
H528 H 0.46729 0.94035 0.23832 0.0
H529 H 0.47113 0.9326 0.27741 0.0
H530 H 0.55411 0.04137 0.32117 0.0
C531 C 0.51677 0.0293 0.39716 0.0
C532 C 0.47022 0.95988 0.3458 0.0
C533 C 0.51893 0.03322 0.42014 0.0
C534 C 0.47668 0.96542 0.25102 0.0
C535 C 0.47893 0.96099 0.27333 0.0
C536 C 0.53042 0.01844 0.3278 0.0
C537 C 0.50433 0.99295 0.38428 0.0
C538 C 0.50283 0.98974 0.35987 0.0
C539 C 0.49248 0.99333 0.29015 0.0
C540 C 0.49697 0.98993 0.31382 0.0
H541 H 0.48773 0.93879 0.42578 0.0
H542 H 0.48384 0.93198 0.38533 0.0
H543 H 0.55918 0.04119 0.36093 0.0
H544 H 0.50768 0.0626 0.25828 0.0
H545 H 0.51191 0.05496 0.29692 0.0
C546 C 0.61526 0.5497 0.76791 0.0
C547 C 0.57944 0.52342 0.77421 0.0
C548 C 0.62122 0.54815 0.74572 0.0
C549 C 0.58729 0.48456 0.69198 0.0
H550 H 0.62897 0.58107 0.66797 0.0
C551 C 0.58203 0.4889 0.59817 0.0
C552 C 0.61163 0.52119 0.59062 0.0
C553 C 0.58126 0.48764 0.62082 0.0
C554 C 0.61806 0.55396 0.67444 0.0
H555 H 0.52211 0.47432 0.76219 0.0
H556 H 0.53277 0.47149 0.72327 0.0
H557 H 0.62126 0.58161 0.70706 0.0
H558 H 0.66474 0.57643 0.60057 0.0
H559 H 0.66423 0.57379 0.64017 0.0
H560 H 0.58439 0.45686 0.65943 0.0
C561 C 0.5561 0.49326 0.73562 0.0
C562 C 0.61345 0.55429 0.69683 0.0
C563 C 0.54995 0.49506 0.75785 0.0
C564 C 0.6414 0.5514 0.60604 0.0
C565 C 0.64092 0.54994 0.62869 0.0
C566 C 0.59233 0.48427 0.66959 0.0
C567 C 0.59168 0.52005 0.72936 0.0
C568 C 0.59769 0.51957 0.70576 0.0
C569 C 0.61033 0.51848 0.63639 0.0
C570 C 0.60742 0.51893 0.66049 0.0
H571 H 0.63867 0.57179 0.78011 0.0
H572 H 0.64904 0.5689 0.74134 0.0
H573 H 0.5755 0.45746 0.69856 0.0
H574 H 0.55847 0.46545 0.5866 0.0
H575 H 0.55696 0.46323 0.62609 0.0
C576 C 0.51596 0.05374 0.5694 0.0
C577 C 0.53016 0.03365 0.55638 0.0
C578 C 0.51997 0.05662 0.59246 0.0
C579 C 0.57838 0.05207 0.63911 0.0
H580 H 0.49174 0.03345 0.67104 0.0
C581 C 0.53227 0.01982 0.73081 0.0
C582 C 0.56335 0.05217 0.74445 0.0
C583 C 0.52825 0.01856 0.70789 0.0
C584 C 0.51612 0.03867 0.66229 0.0
H585 H 0.55962 1.00075 0.55748 0.0
H586 H 0.56623 0.00553 0.59762 0.0
H587 H 0.48436 0.02923 0.63075 0.0
H588 H 0.61485 0.10828 0.74499 0.0
H589 H 0.60823 0.10571 0.70472 0.0
H590 H 0.61009 0.0615 0.67071 0.0
C591 C 0.55235 0.01936 0.58999 0.0
C592 C 0.51201 0.03655 0.6393 0.0
C593 C 0.54826 0.01637 0.56695 0.0
C594 C 0.59056 0.0831 0.73479 0.0
C595 C 0.58689 0.08154 0.71182 0.0
C596 C 0.58262 0.05468 0.66213 0.0
C597 C 0.53837 0.03961 0.60299 0.0
C598 C 0.54301 0.04293 0.62746 0.0
C599 C 0.55558 0.04935 0.6982 0.0
C600 C 0.55144 0.04771 0.6739 0.0
H601 H 0.50196 0.06749 0.56182 0.0
H602 H 0.50921 0.07271 0.60209 0.0
H603 H 0.60287 0.05747 0.63044 0.0
H604 H 0.51081 0.99574 0.73791 0.0
H605 H 0.50401 0.99331 0.69771 0.0
C606 C 0.5927 0.55046 0.91401 0.0
C607 C 0.56001 0.53039 0.89792 0.0
C608 C 0.58878 0.55014 0.9365 0.0
C609 C 0.57579 0.52873 0.98215 0.0
H610 H 0.48997 0.5338 0.00456 0.0
C611 C 0.55638 0.52631 0.07424 0.0
C612 C 0.54541 0.55196 0.08424 0.0
C613 C 0.55411 0.51904 0.05122 0.0
C614 C 0.51426 0.53263 0.99862 0.0
H615 H 0.49753 0.49371 0.89284 0.0
H616 H 0.49079 0.49229 0.932 0.0
H617 H 0.49531 0.53183 0.96515 0.0
H618 H 0.52286 0.5896 0.07818 0.0
H619 H 0.5199 0.57794 0.03803 0.0
H620 H 0.5959 0.53163 0.01567 0.0
C621 C 0.51942 0.50907 0.92731 0.0
C622 C 0.51704 0.53095 0.97593 0.0
C623 C 0.52332 0.50972 0.90482 0.0
C624 C 0.53114 0.5694 0.07083 0.0
C625 C 0.52933 0.56256 0.04781 0.0
C626 C 0.57323 0.53082 0.00483 0.0
C627 C 0.5521 0.52937 0.94344 0.0
C628 C 0.54807 0.52937 0.96744 0.0
C629 C 0.54136 0.53775 0.03773 0.0
C630 C 0.5426 0.53311 0.0134 0.0
H631 H 0.62138 0.56686 0.90929 0.0
H632 H 0.61454 0.56674 0.94844 0.0
H633 H 0.59971 0.52683 0.97618 0.0
H634 H 0.56707 0.51216 0.08427 0.0
H635 H 0.56276 0.49908 0.04404 0.0
C636 C 0.03001 0.61466 0.23776 0.0
C637 C 0.02077 0.5812 0.22284 0.0
C638 C 0.02169 0.61189 0.25953 0.0
C639 C 0.97098 0.54191 0.2983 0.0
H640 H 0.05492 0.62275 0.34125 0.0
C641 C 0.99502 0.52834 0.39055 0.0
C642 C 0.00732 0.56173 0.40643 0.0
C643 C 0.99152 0.53014 0.36792 0.0
C644 C 0.03094 0.60022 0.32951 0.0
H645 H 0.99477 0.51855 0.21866 0.0
H646 H 0.98079 0.51354 0.25677 0.0
H647 H 0.05689 0.62702 0.30212 0.0
H648 H 0.02361 0.62264 0.41093 0.0
H649 H 0.01793 0.62585 0.37151 0.0
H650 H 0.9459 0.51453 0.32598 0.0
C651 C 0.99353 0.5419 0.25163 0.0
C652 C 0.03195 0.60271 0.307 0.0
C653 C 0.00141 0.54469 0.22974 0.0
C654 C 0.01484 0.59659 0.39915 0.0
C655 C 0.01152 0.59843 0.37656 0.0
C656 C 0.97014 0.53926 0.32089 0.0
C657 C 0.00474 0.57565 0.26701 0.0
C658 C 0.00205 0.5736 0.29105 0.0
C659 C 1.0004 0.5654 0.36068 0.0
C660 C 1.00018 0.56839 0.33673 0.0
H661 H 0.04493 0.64317 0.2328 0.0
H662 H 0.02981 0.63839 0.27072 0.0
H663 H 0.94728 0.51913 0.28653 0.0
H664 H 0.9894 0.50113 0.39558 0.0
H665 H 0.98327 0.5043 0.35608 0.0
loop_
_geom_bond_atom_site_label_1
_geom_bond_atom_site_label_2
_geom_bond_distance
_geom_bond_site_symmetry_2
_ccdc_geom_bond_type
Zn0 O6 1.969 . S
Zn0 O7 1.965 . S
Zn0 O11 2.024 . S
Zn0 O16 1.969 . S
Zn1 O8 1.969 . S
Zn1 O14 1.969 . S
Zn1 O15 1.942 1_655 S
Zn1 O17 2.024 . S
C2 O3 1.229 . S
C2 O11 1.058 . S
O3 C2 1.229 . S
C4 O5 1.229 . S
C4 O17 1.058 . S
O5 C4 1.229 . S
O6 Zn0 1.969 . S
O6 C9 1.267 . S
O7 Zn0 1.965 . S
O7 C18 1.260 . S
O8 Zn1 1.969 . S
O8 C18 1.258 1_655 S
C9 O6 1.267 . S
C9 O10 1.228 . S
O10 C9 1.228 . S
O11 Zn0 2.024 . S
O11 C2 1.058 . S
C12 O13 1.228 . S
C12 O14 1.267 . S
O13 C12 1.228 . S
O14 Zn1 1.969 . S
O14 C12 1.267 . S
O15 Zn1 1.942 1_455 S
O15 C19 1.271 . S
O16 Zn0 1.969 . S
O16 C19 1.258 . S
O17 Zn1 2.024 . S
O17 C4 1.058 . S
C18 O7 1.260 . S
C18 O8 1.258 1_455 S
C19 O15 1.271 . S
C19 O16 1.258 . S
Zn20 O26 1.969 . S
Zn20 O27 1.965 . S
Zn20 O31 2.024 . S
Zn20 O36 1.969 . S
Zn21 O28 1.969 . S
Zn21 O34 1.969 . S
Zn21 O35 1.965 1_565 S
Zn21 O37 2.024 . S
C22 O23 1.229 . S
C22 O31 1.058 . S
O23 C22 1.229 . S
C24 O25 1.229 . S
C24 O37 1.058 . S
O25 C24 1.229 . S
O26 Zn20 1.969 . S
O26 C29 1.267 . S
O27 Zn20 1.965 . S
O27 C38 1.260 . S
O28 Zn21 1.969 . S
O28 C38 1.258 1_565 S
C29 O26 1.267 . S
C29 O30 1.228 . S
O30 C29 1.228 . S
O31 Zn20 2.024 . S
O31 C22 1.058 . S
C32 O33 1.228 . S
C32 O34 1.267 . S
O33 C32 1.228 . S
O34 Zn21 1.969 . S
O34 C32 1.267 . S
O35 Zn21 1.965 1_545 S
O35 C39 1.260 . S
O36 Zn20 1.969 . S
O36 C39 1.258 . S
O37 Zn21 2.024 . S
O37 C24 1.058 . S
C38 O27 1.260 . S
C38 O28 1.258 1_545 S
C39 O35 1.260 . S
C39 O36 1.258 . S
Zn40 O46 1.969 . S
Zn40 O47 1.965 . S
Zn40 O51 2.024 . S
Zn40 O56 1.969 . S
Zn41 O48 1.969 . S
Zn41 O54 1.969 . S
Zn41 O55 1.965 . S
Zn41 O57 2.024 . S
C42 O43 1.229 . S
C42 O51 1.058 . S
O43 C42 1.229 . S
C44 O45 1.229 . S
C44 O57 1.058 . S
O45 C44 1.229 . S
O46 Zn40 1.969 . S
O46 C49 1.267 . S
O47 Zn40 1.965 . S
O47 C58 1.260 . S
O48 Zn41 1.969 . S
O48 C58 1.258 . S
C49 O46 1.267 . S
C49 O50 1.228 . S
O50 C49 1.228 . S
O51 Zn40 2.024 . S
O51 C42 1.058 . S
C52 O53 1.228 . S
C52 O54 1.267 . S
O53 C52 1.228 . S
O54 Zn41 1.969 . S
O54 C52 1.267 . S
O55 Zn41 1.965 . S
O55 C59 1.260 . S
O56 Zn40 1.969 . S
O56 C59 1.258 . S
O57 Zn41 2.024 . S
O57 C44 1.058 . S
C58 O47 1.260 . S
C58 O48 1.258 . S
C59 O55 1.260 . S
C59 O56 1.258 . S
H60 C65 0.929 . S
H61 C70 0.931 . S
H62 C68 0.930 . S
N63 N64 1.234 . S
N63 C67 1.453 . S
N64 N63 1.234 . S
C65 H60 0.929 . S
C65 C66 1.373 . S
C65 C67 1.368 . S
C66 C65 1.373 . S
C66 C70 1.397 . S
C67 N63 1.453 . S
C67 C65 1.368 . S
C67 C68 1.373 . S
C68 H62 0.930 . S
C68 C67 1.373 . S
C68 C69 1.371 . S
C69 C68 1.371 . S
C69 C70 1.383 . S
C70 H61 0.931 . S
C70 C66 1.397 . S
C70 C69 1.383 . S
H71 C76 0.929 . S
H72 C81 0.931 . S
H73 C79 0.930 . S
N74 N75 1.234 . S
N74 C78 1.453 . S
N75 N74 1.234 . S
C76 H71 0.929 . S
C76 C77 1.373 . S
C76 C78 1.368 . S
C77 C76 1.373 . S
C77 C81 1.397 . S
C78 N74 1.453 . S
C78 C76 1.368 . S
C78 C79 1.373 . S
C79 H73 0.930 . S
C79 C78 1.373 . S
C79 C80 1.371 . S
C80 C79 1.371 . S
C80 C81 1.383 . S
C81 H72 0.931 . S
C81 C77 1.397 . S
C81 C80 1.383 . S
H82 C87 0.929 . S
H83 C92 0.931 . S
H84 C90 0.930 . S
N85 N86 1.234 . S
N85 C89 1.453 . S
N86 N85 1.234 . S
C87 H82 0.929 . S
C87 C88 1.373 . S
C87 C89 1.368 . S
C88 C87 1.373 . S
C88 C92 1.397 . S
C89 N85 1.453 . S
C89 C87 1.368 . S
C89 C90 1.373 . S
C90 H84 0.930 . S
C90 C89 1.373 . S
C90 C91 1.371 . S
C91 C90 1.371 . S
C91 C92 1.383 . S
C92 H83 0.931 . S
C92 C88 1.397 . S
C92 C91 1.383 . S
H93 C98 0.929 . S
H94 C103 0.931 . S
H95 C101 0.930 1_655 S
N96 N97 1.234 . S
N96 C100 1.453 1_655 S
N97 N96 1.234 . S
C98 H93 0.929 . S
C98 C99 1.373 . S
C98 C100 1.368 . S
C99 C98 1.373 . S
C99 C103 1.397 . S
C100 N96 1.453 1_455 S
C100 C98 1.368 . S
C100 C101 1.373 . S
C101 H95 0.930 1_455 S
C101 C100 1.373 . S
C101 C102 1.371 . S
C102 C101 1.371 . S
C102 C103 1.383 . S
C103 H94 0.931 . S
C103 C99 1.397 . S
C103 C102 1.383 . S
H104 C109 0.929 . S
H105 C114 0.931 . S
H106 C112 0.930 1_565 S
N107 N108 1.234 1_545 S
N107 C111 1.453 . S
N108 N107 1.234 1_565 S
C109 H104 0.929 . S
C109 C110 1.373 . S
C109 C111 1.368 . S
C110 C109 1.373 . S
C110 C114 1.397 . S
C111 N107 1.453 . S
C111 C109 1.368 . S
C111 C112 1.373 . S
C112 H106 0.930 1_545 S
C112 C111 1.373 . S
C112 C113 1.371 . S
C113 C112 1.371 . S
C113 C114 1.383 . S
C114 H105 0.931 . S
C114 C110 1.397 . S
C114 C113 1.383 . S
H115 C120 0.929 . S
H116 C125 0.931 . S
H117 C123 0.930 . S
N118 N119 1.234 . S
N118 C122 1.453 . S
N119 N118 1.234 . S
C120 H115 0.929 . S
C120 C121 1.373 . S
C120 C122 1.368 . S
C121 C120 1.373 . S
C121 C125 1.397 . S
C122 N118 1.453 . S
C122 C120 1.368 . S
C122 C123 1.373 . S
C123 H117 0.930 . S
C123 C122 1.373 . S
C123 C124 1.371 . S
C124 C123 1.371 . S
C124 C125 1.383 . S
C125 H116 0.931 . S
C125 C121 1.397 . S
C125 C124 1.383 . S
C126 C127 1.349 . S
C126 C128 1.327 . S
C126 H151 0.950 . S
C127 C126 1.349 . S
C127 C143 1.349 . S
C128 C126 1.327 . S
C128 C147 1.429 . S
C128 H152 0.950 . S
C129 C146 1.574 . S
C129 C148 1.368 . S
C129 H153 0.949 . S
H130 C134 0.949 . S
C131 C132 1.349 . S
C131 C133 1.327 . S
C131 H154 0.950 . S
C132 C131 1.349 . S
C132 C144 1.349 . S
C133 C131 1.327 . S
C133 C149 1.429 . S
C133 H155 0.950 . S
C134 H130 0.949 . S
C134 C142 1.574 . S
C134 C150 1.368 . S
H135 C143 0.950 . S
H136 C141 0.950 . S
H137 C142 0.949 . S
H138 C144 0.950 . S
H139 C145 0.950 . S
H140 C146 0.949 . S
C141 H136 0.950 . S
C141 C143 1.327 . S
C141 C147 1.429 . S
C142 C134 1.574 . S
C142 H137 0.949 . S
C142 C148 1.368 . S
C143 C127 1.349 . S
C143 H135 0.950 . S
C143 C141 1.327 . S
C144 C132 1.349 . S
C144 H138 0.950 . S
C144 C145 1.327 . S
C145 H139 0.950 . S
C145 C144 1.327 . S
C145 C149 1.429 . S
C146 C129 1.574 . S
C146 H140 0.949 . S
C146 C150 1.368 . S
C147 C128 1.429 . S
C147 C141 1.429 . S
C147 C148 1.523 . S
C148 C129 1.368 . S
C148 C142 1.368 . S
C148 C147 1.523 . S
C149 C133 1.429 . S
C149 C145 1.429 . S
C149 C150 1.523 . S
C150 C134 1.368 . S
C150 C146 1.368 . S
C150 C149 1.523 . S
H151 C126 0.950 . S
H152 C128 0.950 . S
H153 C129 0.949 . S
H154 C131 0.950 . S
H155 C133 0.950 . S
C156 C157 1.349 . S
C156 C158 1.327 . S
C156 H181 0.950 . S
C157 C156 1.349 . S
C157 C173 1.349 . S
C158 C156 1.327 . S
C158 C177 1.429 . S
C158 H182 0.950 . S
C159 C176 1.574 . S
C159 C178 1.368 . S
C159 H183 0.949 . S
H160 C164 0.949 . S
C161 C162 1.349 . S
C161 C163 1.327 . S
C161 H184 0.950 . S
C162 C161 1.349 . S
C162 C174 1.349 . S
C163 C161 1.327 . S
C163 C179 1.429 . S
C163 H185 0.950 . S
C164 H160 0.949 . S
C164 C172 1.574 . S
C164 C180 1.368 . S
H165 C173 0.950 . S
H166 C171 0.950 . S
H167 C172 0.949 . S
H168 C174 0.950 . S
H169 C175 0.950 . S
H170 C176 0.949 . S
C171 H166 0.950 . S
C171 C173 1.327 . S
C171 C177 1.429 . S
C172 C164 1.574 . S
C172 H167 0.949 . S
C172 C178 1.368 . S
C173 C157 1.349 . S
C173 H165 0.950 . S
C173 C171 1.327 . S
C174 C162 1.349 . S
C174 H168 0.950 . S
C174 C175 1.327 . S
C175 H169 0.950 . S
C175 C174 1.327 . S
C175 C179 1.429 . S
C176 C159 1.574 . S
C176 H170 0.949 . S
C176 C180 1.368 . S
C177 C158 1.429 . S
C177 C171 1.429 . S
C177 C178 1.523 . S
C178 C159 1.368 . S
C178 C172 1.368 . S
C178 C177 1.523 . S
C179 C163 1.429 . S
C179 C175 1.429 . S
C179 C180 1.523 . S
C180 C164 1.368 . S
C180 C176 1.368 . S
C180 C179 1.523 . S
H181 C156 0.950 . S
H182 C158 0.950 . S
H183 C159 0.949 . S
H184 C161 0.950 . S
H185 C163 0.950 . S
C186 C187 1.349 . S
C186 C188 1.327 . S
C186 H211 0.950 . S
C187 C186 1.349 . S
C187 C203 1.349 . S
C188 C186 1.327 . S
C188 C207 1.429 . S
C188 H212 0.950 . S
C189 C206 1.574 . S
C189 C208 1.368 . S
C189 H213 0.949 . S
H190 C194 0.949 . S
C191 C192 1.349 . S
C191 C193 1.327 . S
C191 H214 0.950 . S
C192 C191 1.349 . S
C192 C204 1.349 . S
C193 C191 1.327 . S
C193 C209 1.429 . S
C193 H215 0.950 . S
C194 H190 0.949 . S
C194 C202 1.574 . S
C194 C210 1.368 . S
H195 C203 0.950 . S
H196 C201 0.950 . S
H197 C202 0.949 . S
H198 C204 0.950 . S
H199 C205 0.950 . S
H200 C206 0.949 . S
C201 H196 0.950 . S
C201 C203 1.327 . S
C201 C207 1.429 . S
C202 C194 1.574 . S
C202 H197 0.949 . S
C202 C208 1.368 . S
C203 C187 1.349 . S
C203 H195 0.950 . S
C203 C201 1.327 . S
C204 C192 1.349 . S
C204 H198 0.950 . S
C204 C205 1.327 . S
C205 H199 0.950 . S
C205 C204 1.327 . S
C205 C209 1.429 . S
C206 C189 1.574 . S
C206 H200 0.949 . S
C206 C210 1.368 . S
C207 C188 1.429 . S
C207 C201 1.429 . S
C207 C208 1.523 . S
C208 C189 1.368 . S
C208 C202 1.368 . S
C208 C207 1.523 . S
C209 C193 1.429 . S
C209 C205 1.429 . S
C209 C210 1.523 . S
C210 C194 1.368 . S
C210 C206 1.368 . S
C210 C209 1.523 . S
H211 C186 0.950 . S
H212 C188 0.950 . S
H213 C189 0.949 . S
H214 C191 0.950 . S
H215 C193 0.950 . S
C216 C217 1.349 . S
C216 C218 1.327 . S
C216 H241 0.950 . S
C217 C216 1.349 . S
C217 C233 1.349 . S
C218 C216 1.327 . S
C218 C237 1.429 . S
C218 H242 0.950 . S
C219 C236 1.574 . S
C219 C238 1.368 . S
C219 H243 0.949 . S
H220 C224 0.949 . S
C221 C222 1.349 . S
C221 C223 1.327 . S
C221 H244 0.950 . S
C222 C221 1.349 . S
C222 C234 1.349 . S
C223 C221 1.327 . S
C223 C239 1.429 . S
C223 H245 0.950 . S
C224 H220 0.949 . S
C224 C232 1.574 . S
C224 C240 1.368 . S
H225 C233 0.950 . S
H226 C231 0.950 . S
H227 C232 0.949 . S
H228 C234 0.950 . S
H229 C235 0.950 . S
H230 C236 0.949 . S
C231 H226 0.950 . S
C231 C233 1.327 . S
C231 C237 1.429 . S
C232 C224 1.574 . S
C232 H227 0.949 . S
C232 C238 1.368 . S
C233 C217 1.349 . S
C233 H225 0.950 . S
C233 C231 1.327 . S
C234 C222 1.349 . S
C234 H228 0.950 . S
C234 C235 1.327 . S
C235 H229 0.950 . S
C235 C234 1.327 . S
C235 C239 1.429 . S
C236 C219 1.574 . S
C236 H230 0.949 . S
C236 C240 1.368 . S
C237 C218 1.429 . S
C237 C231 1.429 . S
C237 C238 1.523 . S
C238 C219 1.368 . S
C238 C232 1.368 . S
C238 C237 1.523 . S
C239 C223 1.429 . S
C239 C235 1.429 . S
C239 C240 1.523 . S
C240 C224 1.368 . S
C240 C236 1.368 . S
C240 C239 1.523 . S
H241 C216 0.950 . S
H242 C218 0.950 . S
H243 C219 0.949 . S
H244 C221 0.950 . S
H245 C223 0.950 . S
C246 C247 1.349 . S
C246 C248 1.327 . S
C246 H271 0.950 . S
C247 C246 1.349 . S
C247 C263 1.349 . S
C248 C246 1.327 . S
C248 C267 1.429 . S
C248 H272 0.950 . S
C249 C266 1.574 . S
C249 C268 1.368 . S
C249 H273 0.949 . S
H250 C254 0.949 . S
C251 C252 1.349 . S
C251 C253 1.327 . S
C251 H274 0.950 . S
C252 C251 1.349 . S
C252 C264 1.349 . S
C253 C251 1.327 . S
C253 C269 1.429 . S
C253 H275 0.950 . S
C254 H250 0.949 . S
C254 C262 1.574 . S
C254 C270 1.368 . S
H255 C263 0.950 . S
H256 C261 0.950 . S
H257 C262 0.949 . S
H258 C264 0.950 . S
H259 C265 0.950 . S
H260 C266 0.949 . S
C261 H256 0.950 . S
C261 C263 1.327 . S
C261 C267 1.429 . S
C262 C254 1.574 . S
C262 H257 0.949 . S
C262 C268 1.368 . S
C263 C247 1.349 . S
C263 H255 0.950 . S
C263 C261 1.327 . S
C264 C252 1.349 . S
C264 H258 0.950 . S
C264 C265 1.327 . S
C265 H259 0.950 . S
C265 C264 1.327 . S
C265 C269 1.429 . S
C266 C249 1.574 . S
C266 H260 0.949 . S
C266 C270 1.368 . S
C267 C248 1.429 . S
C267 C261 1.429 . S
C267 C268 1.523 . S
C268 C249 1.368 . S
C268 C262 1.368 . S
C268 C267 1.523 . S
C269 C253 1.429 . S
C269 C265 1.429 . S
C269 C270 1.523 . S
C270 C254 1.368 . S
C270 C266 1.368 . S
C270 C269 1.523 . S
H271 C246 0.950 . S
H272 C248 0.950 . S
H273 C249 0.949 . S
H274 C251 0.950 . S
H275 C253 0.950 . S
C276 C277 1.349 . S
C276 C278 1.327 . S
C276 H301 0.950 . S
C277 C276 1.349 . S
C277 C293 1.349 . S
C278 C276 1.327 . S
C278 C297 1.429 . S
C278 H302 0.950 . S
C279 C296 1.574 . S
C279 C298 1.368 . S
C279 H303 0.949 . S
H280 C284 0.949 . S
C281 C282 1.349 . S
C281 C283 1.327 . S
C281 H304 0.950 . S
C282 C281 1.349 . S
C282 C294 1.349 . S
C283 C281 1.327 . S
C283 C299 1.429 . S
C283 H305 0.950 . S
C284 H280 0.949 . S
C284 C292 1.574 . S
C284 C300 1.368 . S
H285 C293 0.950 . S
H286 C291 0.950 . S
H287 C292 0.949 . S
H288 C294 0.950 . S
H289 C295 0.950 . S
H290 C296 0.949 . S
C291 H286 0.950 . S
C291 C293 1.327 . S
C291 C297 1.429 . S
C292 C284 1.574 . S
C292 H287 0.949 . S
C292 C298 1.368 . S
C293 C277 1.349 . S
C293 H285 0.950 . S
C293 C291 1.327 . S
C294 C282 1.349 . S
C294 H288 0.950 . S
C294 C295 1.327 . S
C295 H289 0.950 . S
C295 C294 1.327 . S
C295 C299 1.429 . S
C296 C279 1.574 . S
C296 H290 0.949 . S
C296 C300 1.368 . S
C297 C278 1.429 . S
C297 C291 1.429 . S
C297 C298 1.523 . S
C298 C279 1.368 . S
C298 C292 1.368 . S
C298 C297 1.523 . S
C299 C283 1.429 . S
C299 C295 1.429 . S
C299 C300 1.523 . S
C300 C284 1.368 . S
C300 C296 1.368 . S
C300 C299 1.523 . S
H301 C276 0.950 . S
H302 C278 0.950 . S
H303 C279 0.949 . S
H304 C281 0.950 . S
H305 C283 0.950 . S
C306 C307 1.349 . S
C306 C308 1.327 . S
C306 H331 0.950 . S
C307 C306 1.349 . S
C307 C323 1.349 . S
C308 C306 1.327 . S
C308 C327 1.429 . S
C308 H332 0.950 . S
C309 C326 1.574 . S
C309 C328 1.368 . S
C309 H333 0.949 . S
H310 C314 0.949 . S
C311 C312 1.349 . S
C311 C313 1.327 . S
C311 H334 0.950 . S
C312 C311 1.349 . S
C312 C324 1.349 . S
C313 C311 1.327 . S
C313 C329 1.429 . S
C313 H335 0.950 . S
C314 H310 0.949 . S
C314 C322 1.574 . S
C314 C330 1.368 . S
H315 C323 0.950 . S
H316 C321 0.950 . S
H317 C322 0.949 . S
H318 C324 0.950 . S
H319 C325 0.950 . S
H320 C326 0.949 . S
C321 H316 0.950 . S
C321 C323 1.327 . S
C321 C327 1.429 . S
C322 C314 1.574 . S
C322 H317 0.949 . S
C322 C328 1.368 . S
C323 C307 1.349 . S
C323 H315 0.950 . S
C323 C321 1.327 . S
C324 C312 1.349 . S
C324 H318 0.950 . S
C324 C325 1.327 . S
C325 H319 0.950 . S
C325 C324 1.327 . S
C325 C329 1.429 . S
C326 C309 1.574 . S
C326 H320 0.949 . S
C326 C330 1.368 . S
C327 C308 1.429 . S
C327 C321 1.429 . S
C327 C328 1.523 . S
C328 C309 1.368 . S
C328 C322 1.368 . S
C328 C327 1.523 . S
C329 C313 1.429 . S
C329 C325 1.429 . S
C329 C330 1.523 . S
C330 C314 1.368 . S
C330 C326 1.368 . S
C330 C329 1.523 . S
H331 C306 0.950 . S
H332 C308 0.950 . S
H333 C309 0.949 . S
H334 C311 0.950 . S
H335 C313 0.950 . S
C336 C337 1.349 . S
C336 C338 1.327 . S
C336 H361 0.950 . S
C337 C336 1.349 . S
C337 C353 1.349 . S
C338 C336 1.327 . S
C338 C357 1.429 . S
C338 H362 0.950 . S
C339 C356 1.574 . S
C339 C358 1.368 . S
C339 H363 0.949 . S
H340 C344 0.949 . S
C341 C342 1.349 . S
C341 C343 1.327 . S
C341 H364 0.950 . S
C342 C341 1.349 . S
C342 C354 1.349 . S
C343 C341 1.327 . S
C343 C359 1.429 . S
C343 H365 0.950 . S
C344 H340 0.949 . S
C344 C352 1.574 . S
C344 C360 1.368 . S
H345 C353 0.950 . S
H346 C351 0.950 . S
H347 C352 0.949 . S
H348 C354 0.950 . S
H349 C355 0.950 . S
H350 C356 0.949 . S
C351 H346 0.950 . S
C351 C353 1.327 . S
C351 C357 1.429 . S
C352 C344 1.574 . S
C352 H347 0.949 . S
C352 C358 1.368 . S
C353 C337 1.349 . S
C353 H345 0.950 . S
C353 C351 1.327 . S
C354 C342 1.349 . S
C354 H348 0.950 . S
C354 C355 1.327 . S
C355 H349 0.950 . S
C355 C354 1.327 . S
C355 C359 1.429 . S
C356 C339 1.574 . S
C356 H350 0.949 . S
C356 C360 1.368 . S
C357 C338 1.429 . S
C357 C351 1.429 . S
C357 C358 1.523 . S
C358 C339 1.368 . S
C358 C352 1.368 . S
C358 C357 1.523 . S
C359 C343 1.429 . S
C359 C355 1.429 . S
C359 C360 1.523 . S
C360 C344 1.368 . S
C360 C356 1.368 . S
C360 C359 1.523 . S
H361 C336 0.950 . S
H362 C338 0.950 . S
H363 C339 0.949 . S
H364 C341 0.950 . S
H365 C343 0.950 . S
C366 C367 1.349 . S
C366 C368 1.327 . S
C366 H391 0.950 . S
C367 C366 1.349 . S
C367 C383 1.349 . S
C368 C366 1.327 . S
C368 C387 1.429 . S
C368 H392 0.950 . S
C369 C386 1.574 . S
C369 C388 1.368 . S
C369 H393 0.949 . S
H370 C374 0.949 . S
C371 C372 1.349 . S
C371 C373 1.327 . S
C371 H394 0.950 . S
C372 C371 1.349 . S
C372 C384 1.349 . S
C373 C371 1.327 . S
C373 C389 1.429 . S
C373 H395 0.950 . S
C374 H370 0.949 . S
C374 C382 1.574 . S
C374 C390 1.368 . S
H375 C383 0.950 . S
H376 C381 0.950 . S
H377 C382 0.949 . S
H378 C384 0.950 . S
H379 C385 0.950 . S
H380 C386 0.949 . S
C381 H376 0.950 . S
C381 C383 1.327 . S
C381 C387 1.429 . S
C382 C374 1.574 . S
C382 H377 0.949 . S
C382 C388 1.368 . S
C383 C367 1.349 . S
C383 H375 0.950 . S
C383 C381 1.327 . S
C384 C372 1.349 . S
C384 H378 0.950 . S
C384 C385 1.327 . S
C385 H379 0.950 . S
C385 C384 1.327 . S
C385 C389 1.429 . S
C386 C369 1.574 . S
C386 H380 0.949 . S
C386 C390 1.368 . S
C387 C368 1.429 . S
C387 C381 1.429 . S
C387 C388 1.523 . S
C388 C369 1.368 . S
C388 C382 1.368 . S
C388 C387 1.523 . S
C389 C373 1.429 . S
C389 C385 1.429 . S
C389 C390 1.523 . S
C390 C374 1.368 . S
C390 C386 1.368 . S
C390 C389 1.523 . S
H391 C366 0.950 . S
H392 C368 0.950 . S
H393 C369 0.949 . S
H394 C371 0.950 . S
H395 C373 0.950 . S
C396 C397 1.349 . S
C396 C398 1.327 . S
C396 H421 0.950 . S
C397 C396 1.349 . S
C397 C413 1.349 . S
C398 C396 1.327 . S
C398 C417 1.429 . S
C398 H422 0.950 . S
C399 C416 1.574 . S
C399 C418 1.368 . S
C399 H423 0.949 . S
H400 C404 0.949 . S
C401 C402 1.349 . S
C401 C403 1.327 . S
C401 H424 0.950 . S
C402 C401 1.349 . S
C402 C414 1.349 . S
C403 C401 1.327 . S
C403 C419 1.429 . S
C403 H425 0.950 . S
C404 H400 0.949 . S
C404 C412 1.574 . S
C404 C420 1.368 . S
H405 C413 0.950 . S
H406 C411 0.950 . S
H407 C412 0.949 . S
H408 C414 0.950 . S
H409 C415 0.950 . S
H410 C416 0.949 . S
C411 H406 0.950 . S
C411 C413 1.327 . S
C411 C417 1.429 . S
C412 C404 1.574 . S
C412 H407 0.949 . S
C412 C418 1.368 . S
C413 C397 1.349 . S
C413 H405 0.950 . S
C413 C411 1.327 . S
C414 C402 1.349 . S
C414 H408 0.950 . S
C414 C415 1.327 . S
C415 H409 0.950 . S
C415 C414 1.327 . S
C415 C419 1.429 . S
C416 C399 1.574 . S
C416 H410 0.949 . S
C416 C420 1.368 . S
C417 C398 1.429 . S
C417 C411 1.429 . S
C417 C418 1.523 . S
C418 C399 1.368 . S
C418 C412 1.368 . S
C418 C417 1.523 . S
C419 C403 1.429 . S
C419 C415 1.429 . S
C419 C420 1.523 . S
C420 C404 1.368 . S
C420 C416 1.368 . S
C420 C419 1.523 . S
H421 C396 0.950 . S
H422 C398 0.950 . S
H423 C399 0.949 . S
H424 C401 0.950 . S
H425 C403 0.950 . S
C426 C427 1.349 . S
C426 C428 1.327 . S
C426 H451 0.950 . S
C427 C426 1.349 . S
C427 C443 1.349 . S
C428 C426 1.327 . S
C428 C447 1.429 . S
C428 H452 0.950 . S
C429 C446 1.574 . S
C429 C448 1.368 . S
C429 H453 0.949 . S
H430 C434 0.949 . S
C431 C432 1.349 . S
C431 C433 1.327 . S
C431 H454 0.950 . S
C432 C431 1.349 . S
C432 C444 1.349 . S
C433 C431 1.327 . S
C433 C449 1.429 . S
C433 H455 0.950 . S
C434 H430 0.949 . S
C434 C442 1.574 . S
C434 C450 1.368 . S
H435 C443 0.950 . S
H436 C441 0.950 . S
H437 C442 0.949 . S
H438 C444 0.950 . S
H439 C445 0.950 . S
H440 C446 0.949 . S
C441 H436 0.950 . S
C441 C443 1.327 . S
C441 C447 1.429 . S
C442 C434 1.574 . S
C442 H437 0.949 . S
C442 C448 1.368 . S
C443 C427 1.349 . S
C443 H435 0.950 . S
C443 C441 1.327 . S
C444 C432 1.349 . S
C444 H438 0.950 . S
C444 C445 1.327 . S
C445 H439 0.950 . S
C445 C444 1.327 . S
C445 C449 1.429 . S
C446 C429 1.574 . S
C446 H440 0.949 . S
C446 C450 1.368 . S
C447 C428 1.429 . S
C447 C441 1.429 . S
C447 C448 1.523 . S
C448 C429 1.368 . S
C448 C442 1.368 . S
C448 C447 1.523 . S
C449 C433 1.429 . S
C449 C445 1.429 . S
C449 C450 1.523 . S
C450 C434 1.368 . S
C450 C446 1.368 . S
C450 C449 1.523 . S
H451 C426 0.950 . S
H452 C428 0.950 . S
H453 C429 0.949 . S
H454 C431 0.950 . S
H455 C433 0.950 . S
C456 C457 1.349 . S
C456 C458 1.327 . S
C456 H481 0.950 . S
C457 C456 1.349 . S
C457 C473 1.349 . S
C458 C456 1.327 . S
C458 C477 1.429 . S
C458 H482 0.950 . S
C459 C476 1.574 . S
C459 C478 1.368 . S
C459 H483 0.949 . S
H460 C464 0.949 . S
C461 C462 1.349 . S
C461 C463 1.327 . S
C461 H484 0.950 . S
C462 C461 1.349 . S
C462 C474 1.349 . S
C463 C461 1.327 . S
C463 C479 1.429 . S
C463 H485 0.950 . S
C464 H460 0.949 . S
C464 C472 1.574 . S
C464 C480 1.368 . S
H465 C473 0.950 . S
H466 C471 0.950 . S
H467 C472 0.949 . S
H468 C474 0.950 . S
H469 C475 0.950 . S
H470 C476 0.949 . S
C471 H466 0.950 . S
C471 C473 1.327 . S
C471 C477 1.429 . S
C472 C464 1.574 . S
C472 H467 0.949 . S
C472 C478 1.368 . S
C473 C457 1.349 . S
C473 H465 0.950 . S
C473 C471 1.327 . S
C474 C462 1.349 . S
C474 H468 0.950 . S
C474 C475 1.327 . S
C475 H469 0.950 . S
C475 C474 1.327 . S
C475 C479 1.429 . S
C476 C459 1.574 . S
C476 H470 0.949 . S
C476 C480 1.368 . S
C477 C458 1.429 . S
C477 C471 1.429 . S
C477 C478 1.523 . S
C478 C459 1.368 . S
C478 C472 1.368 . S
C478 C477 1.523 . S
C479 C463 1.429 . S
C479 C475 1.429 . S
C479 C480 1.523 . S
C480 C464 1.368 . S
C480 C476 1.368 . S
C480 C479 1.523 . S
H481 C456 0.950 . S
H482 C458 0.950 . S
H483 C459 0.949 . S
H484 C461 0.950 . S
H485 C463 0.950 . S
C486 C487 1.349 1_655 S
C486 C488 1.327 . S
C486 H511 0.950 . S
C487 C486 1.349 1_455 S
C487 C503 1.349 . S
C488 C486 1.327 . S
C488 C507 1.429 1_655 S
C488 H512 0.950 . S
C489 C506 1.574 . S
C489 C508 1.368 . S
C489 H513 0.949 . S
H490 C494 0.949 1_656 S
C491 C492 1.349 . S
C491 C493 1.327 . S
C491 H514 0.950 . S
C492 C491 1.349 . S
C492 C504 1.349 . S
C493 C491 1.327 . S
C493 C509 1.429 . S
C493 H515 0.950 . S
C494 H490 0.949 1_454 S
C494 C502 1.574 1_455 S
C494 C510 1.368 1_554 S
H495 C503 0.950 . S
H496 C501 0.950 . S
H497 C502 0.949 . S
H498 C504 0.950 1_655 S
H499 C505 0.950 1_655 S
H500 C506 0.949 . S
C501 H496 0.950 . S
C501 C503 1.327 . S
C501 C507 1.429 . S
C502 C494 1.574 1_655 S
C502 H497 0.949 . S
C502 C508 1.368 1_655 S
C503 C487 1.349 . S
C503 H495 0.950 . S
C503 C501 1.327 . S
C504 C492 1.349 . S
C504 H498 0.950 1_455 S
C504 C505 1.327 . S
C505 H499 0.950 1_455 S
C505 C504 1.327 . S
C505 C509 1.429 . S
C506 C489 1.574 . S
C506 H500 0.949 . S
C506 C510 1.368 1_554 S
C507 C488 1.429 1_455 S
C507 C501 1.429 . S
C507 C508 1.523 . S
C508 C489 1.368 . S
C508 C502 1.368 1_455 S
C508 C507 1.523 . S
C509 C493 1.429 . S
C509 C505 1.429 . S
C509 C510 1.523 . S
C510 C494 1.368 1_556 S
C510 C506 1.368 1_556 S
C510 C509 1.523 . S
H511 C486 0.950 . S
H512 C488 0.950 . S
H513 C489 0.949 . S
H514 C491 0.950 . S
H515 C493 0.950 . S
C516 C517 1.349 . S
C516 C518 1.327 . S
C516 H541 0.950 1_545 S
C517 C516 1.349 . S
C517 C533 1.349 . S
C518 C516 1.327 . S
C518 C537 1.429 . S
C518 H542 0.950 1_545 S
C519 C536 1.574 . S
C519 C538 1.368 . S
C519 H543 0.949 . S
H520 C524 0.949 1_565 S
C521 C522 1.349 . S
C521 C523 1.327 . S
C521 H544 0.950 . S
C522 C521 1.349 . S
C522 C534 1.349 . S
C523 C521 1.327 . S
C523 C539 1.429 . S
C523 H545 0.950 . S
C524 H520 0.949 1_545 S
C524 C532 1.574 . S
C524 C540 1.368 . S
H525 C533 0.950 . S
H526 C531 0.950 . S
H527 C532 0.949 1_565 S
H528 C534 0.950 . S
H529 C535 0.942 1_565 S
H530 C536 0.949 . S
C531 H526 0.950 . S
C531 C533 1.327 . S
C531 C537 1.429 . S
C532 C524 1.574 . S
C532 H527 0.949 1_545 S
C532 C538 1.368 . S
C533 C517 1.349 . S
C533 H525 0.950 . S
C533 C531 1.327 . S
C534 C522 1.349 . S
C534 H528 0.950 . S
C534 C535 1.327 . S
C535 H529 0.942 1_545 S
C535 C534 1.327 . S
C535 C539 1.429 . S
C536 C519 1.574 . S
C536 H530 0.949 . S
C536 C540 1.368 . S
C537 C518 1.429 . S
C537 C531 1.429 . S
C537 C538 1.523 . S
C538 C519 1.368 . S
C538 C532 1.368 . S
C538 C537 1.523 . S
C539 C523 1.429 . S
C539 C535 1.429 . S
C539 C540 1.523 . S
C540 C524 1.368 . S
C540 C536 1.368 . S
C540 C539 1.523 . S
H541 C516 0.950 1_565 S
H542 C518 0.950 1_565 S
H543 C519 0.949 . S
H544 C521 0.950 . S
H545 C523 0.950 . S
C546 C547 1.349 . S
C546 C548 1.327 . S
C546 H571 0.950 . S
C547 C546 1.349 . S
C547 C563 1.349 . S
C548 C546 1.327 . S
C548 C567 1.429 . S
C548 H572 0.950 . S
C549 C566 1.574 . S
C549 C568 1.368 . S
C549 H573 0.949 . S
H550 C554 0.949 . S
C551 C552 1.349 . S
C551 C553 1.327 . S
C551 H574 0.950 . S
C552 C551 1.349 . S
C552 C564 1.349 . S
C553 C551 1.327 . S
C553 C569 1.429 . S
C553 H575 0.950 . S
C554 H550 0.949 . S
C554 C562 1.574 . S
C554 C570 1.368 . S
H555 C563 0.950 . S
H556 C561 0.950 . S
H557 C562 0.949 . S
H558 C564 0.950 . S
H559 C565 0.950 . S
H560 C566 0.949 . S
C561 H556 0.950 . S
C561 C563 1.327 . S
C561 C567 1.429 . S
C562 C554 1.574 . S
C562 H557 0.949 . S
C562 C568 1.368 . S
C563 C547 1.349 . S
C563 H555 0.950 . S
C563 C561 1.327 . S
C564 C552 1.349 . S
C564 H558 0.950 . S
C564 C565 1.327 . S
C565 H559 0.950 . S
C565 C564 1.327 . S
C565 C569 1.429 . S
C566 C549 1.574 . S
C566 H560 0.949 . S
C566 C570 1.368 . S
C567 C548 1.429 . S
C567 C561 1.429 . S
C567 C568 1.523 . S
C568 C549 1.368 . S
C568 C562 1.368 . S
C568 C567 1.523 . S
C569 C553 1.429 . S
C569 C565 1.429 . S
C569 C570 1.523 . S
C570 C554 1.368 . S
C570 C566 1.368 . S
C570 C569 1.523 . S
H571 C546 0.950 . S
H572 C548 0.950 . S
H573 C549 0.949 . S
H574 C551 0.950 . S
H575 C553 0.950 . S
C576 C577 1.349 . S
C576 C578 1.327 . S
C576 H601 0.950 . S
C577 C576 1.349 . S
C577 C593 1.349 . S
C578 C576 1.327 . S
C578 C597 1.429 . S
C578 H602 0.950 . S
C579 C596 1.574 . S
C579 C598 1.368 . S
C579 H603 0.949 1_545 S
H580 C584 0.949 . S
C581 C582 1.349 . S
C581 C583 1.327 . S
C581 H604 0.950 1_545 S
C582 C581 1.349 . S
C582 C594 1.349 . S
C583 C581 1.327 . S
C583 C599 1.429 . S
C583 H605 0.950 1_545 S
C584 H580 0.949 . S
C584 C592 1.574 . S
C584 C600 1.368 . S
H585 C593 0.950 1_565 S
H586 C591 0.950 1_565 S
H587 C592 0.949 . S
H588 C594 0.950 . S
H589 C595 0.950 . S
H590 C596 0.949 1_565 S
C591 H586 0.950 1_545 S
C591 C593 1.327 . S
C591 C597 1.429 . S
C592 C584 1.574 . S
C592 H587 0.949 . S
C592 C598 1.368 . S
C593 C577 1.349 . S
C593 H585 0.950 1_545 S
C593 C591 1.327 . S
C594 C582 1.349 . S
C594 H588 0.950 . S
C594 C595 1.327 . S
C595 H589 0.950 . S
C595 C594 1.327 . S
C595 C599 1.429 . S
C596 C579 1.574 . S
C596 H590 0.949 1_545 S
C596 C600 1.368 . S
C597 C578 1.429 . S
C597 C591 1.429 . S
C597 C598 1.523 . S
C598 C579 1.368 . S
C598 C592 1.368 . S
C598 C597 1.523 . S
C599 C583 1.429 . S
C599 C595 1.429 . S
C599 C600 1.523 . S
C600 C584 1.368 . S
C600 C596 1.368 . S
C600 C599 1.523 . S
H601 C576 0.950 . S
H602 C578 0.950 . S
H603 C579 0.949 1_565 S
H604 C581 0.950 1_565 S
H605 C583 0.950 1_565 S
C606 C607 1.349 . S
C606 C608 1.327 . S
C606 H631 0.950 . S
C607 C606 1.349 . S
C607 C623 1.349 . S
C608 C606 1.327 . S
C608 C627 1.429 . S
C608 H632 0.950 . S
C609 C626 1.574 . S
C609 C628 1.368 . S
C609 H633 0.949 . S
H610 C614 0.949 1_554 S
C611 C612 1.349 . S
C611 C613 1.327 . S
C611 H634 0.950 . S
C612 C611 1.349 . S
C612 C624 1.349 . S
C613 C611 1.327 . S
C613 C629 1.429 . S
C613 H635 0.950 . S
C614 H610 0.949 1_556 S
C614 C622 1.574 . S
C614 C630 1.368 1_556 S
H615 C623 0.950 . S
H616 C621 0.950 . S
H617 C622 0.949 . S
H618 C624 0.950 . S
H619 C625 0.950 . S
H620 C626 0.949 1_554 S
C621 H616 0.950 . S
C621 C623 1.327 . S
C621 C627 1.429 . S
C622 C614 1.574 . S
C622 H617 0.949 . S
C622 C628 1.368 . S
C623 C607 1.349 . S
C623 H615 0.950 . S
C623 C621 1.327 . S
C624 C612 1.349 . S
C624 H618 0.950 . S
C624 C625 1.327 . S
C625 H619 0.950 . S
C625 C624 1.327 . S
C625 C629 1.429 . S
C626 C609 1.574 . S
C626 H620 0.949 1_556 S
C626 C630 1.368 1_556 S
C627 C608 1.429 . S
C627 C621 1.429 . S
C627 C628 1.523 . S
C628 C609 1.368 . S
C628 C622 1.368 . S
C628 C627 1.523 . S
C629 C613 1.429 . S
C629 C625 1.429 . S
C629 C630 1.523 . S
C630 C614 1.368 1_554 S
C630 C626 1.368 1_554 S
C630 C629 1.523 . S
H631 C606 0.950 . S
H632 C608 0.950 . S
H633 C609 0.949 . S
H634 C611 0.950 . S
H635 C613 0.950 . S
C636 C637 1.349 . S
C636 C638 1.327 . S
C636 H661 0.950 . S
C637 C636 1.349 . S
C637 C653 1.349 . S
C638 C636 1.327 . S
C638 C657 1.429 . S
C638 H662 0.950 . S
C639 C656 1.574 . S
C639 C658 1.368 . S
C639 H663 0.949 . S
H640 C644 0.949 . S
C641 C642 1.349 . S
C641 C643 1.327 . S
C641 H664 0.950 . S
C642 C641 1.349 . S
C642 C654 1.349 . S
C643 C641 1.327 . S
C643 C659 1.429 . S
C643 H665 0.950 . S
C644 H640 0.949 . S
C644 C652 1.574 . S
C644 C660 1.368 . S
H645 C653 0.950 . S
H646 C651 0.950 . S
H647 C652 0.949 . S
H648 C654 0.950 . S
H649 C655 0.950 . S
H650 C656 0.949 . S
C651 H646 0.950 . S
C651 C653 1.327 . S
C651 C657 1.429 . S
C652 C644 1.574 . S
C652 H647 0.949 . S
C652 C658 1.368 . S
C653 C637 1.349 . S
C653 H645 0.950 . S
C653 C651 1.327 . S
C654 C642 1.349 . S
C654 H648 0.950 . S
C654 C655 1.327 . S
C655 H649 0.950 . S
C655 C654 1.327 . S
C655 C659 1.429 . S
C656 C639 1.574 . S
C656 H650 0.949 . S
C656 C660 1.368 . S
C657 C638 1.429 . S
C657 C651 1.429 . S
C657 C658 1.523 . S
C658 C639 1.368 . S
C658 C652 1.368 . S
C658 C657 1.523 . S
C659 C643 1.429 . S
C659 C655 1.429 . S
C659 C660 1.523 . S
C660 C644 1.368 . S
C660 C656 1.368 . S
C660 C659 1.523 . S
H661 C636 0.950 . S
H662 C638 0.950 . S
H663 C639 0.949 . S
H664 C641 0.950 . S
H665 C643 0.950 . S
C127 C2 1.401 . S
C132 N119 1.445 . S
C157 C22 1.388 . S
C162 N97 1.440 . S
C187 C44 1.406 . S
C192 N108 1.460 . S
C217 C4 1.397 . S
C222 C121 1.488 . S
C252 C99 1.493 . S
C247 C24 1.415 . S
C282 C110 1.455 . S
C277 C42 1.373 . S
C307 C32 1.386 . S
C312 N75 1.372 . S
C337 C49 1.112 . S
C342 C88 1.126 1_655 S
C367 C9 1.095 . S
C372 C66 1.114 1_565 S
C402 C77 1.122 . S
C397 C29 1.088 . S
C432 N86 1.296 . S
C427 C52 1.277 . S
C457 C12 1.289 . S
C462 N64 1.300 . S
C492 C91 1.495 . S
C487 C18 1.500 . S
C517 C38 1.470 . S
C522 C69 1.468 . S
C547 C58 1.464 . S
C552 C80 1.495 . S
C582 C113 1.511 . S
C577 C39 1.502 . S
C612 C124 1.523 . S
C607 C59 1.516 . S
C637 C19 1.512 . S
C642 C102 1.533 . S
