# Generated by pormake.
# Topology anh, (6,3)-cn, num edge types: 1
# Building blocks:
#     Node 0, Type 0, BuildingBlock: BETFAJ_clean_sbu_0, # of connection points: 6
#     Node 1, Type 0, BuildingBlock: BETFAJ_clean_sbu_0, # of connection points: 6
#     Node 2, Type 0, BuildingBlock: BETFAJ_clean_sbu_0, # of connection points: 6
#     Node 3, Type 1, BuildingBlock: BETDIP_clean_linker_0, # of connection points: 3
#     Node 4, Type 1, BuildingBlock: BETDIP_clean_linker_0, # of connection points: 3
#     Node 5, Type 1, BuildingBlock: BETDIP_clean_linker_0, # of connection points: 3
#     Node 6, Type 1, BuildingBlock: BETDIP_clean_linker_0, # of connection points: 3
#     Node 7, Type 1, BuildingBlock: BETDIP_clean_linker_0, # of connection points: 3
#     Node 8, Type 1, BuildingBlock: BETDIP_clean_linker_0, # of connection points: 3
#     Edge 9, Type (0, 1), BuildingBlock: MIFKUJ_clean_linker_0, # of connection points: 2
#     Edge 10, Type (0, 1), BuildingBlock: MIFKUJ_clean_linker_0, # of connection points: 2
#     Edge 11, Type (0, 1), BuildingBlock: MIFKUJ_clean_linker_0, # of connection points: 2
#     Edge 12, Type (0, 1), BuildingBlock: MIFKUJ_clean_linker_0, # of connection points: 2
#     Edge 13, Type (0, 1), BuildingBlock: MIFKUJ_clean_linker_0, # of connection points: 2
#     Edge 14, Type (0, 1), BuildingBlock: MIFKUJ_clean_linker_0, # of connection points: 2
#     Edge 15, Type (0, 1), BuildingBlock: MIFKUJ_clean_linker_0, # of connection points: 2
#     Edge 16, Type (0, 1), BuildingBlock: MIFKUJ_clean_linker_0, # of connection points: 2
#     Edge 17, Type (0, 1), BuildingBlock: MIFKUJ_clean_linker_0, # of connection points: 2
#     Edge 18, Type (0, 1), BuildingBlock: MIFKUJ_clean_linker_0, # of connection points: 2
#     Edge 19, Type (0, 1), BuildingBlock: MIFKUJ_clean_linker_0, # of connection points: 2
#     Edge 20, Type (0, 1), BuildingBlock: MIFKUJ_clean_linker_0, # of connection points: 2
#     Edge 21, Type (0, 1), BuildingBlock: MIFKUJ_clean_linker_0, # of connection points: 2
#     Edge 22, Type (0, 1), BuildingBlock: MIFKUJ_clean_linker_0, # of connection points: 2
#     Edge 23, Type (0, 1), BuildingBlock: MIFKUJ_clean_linker_0, # of connection points: 2
#     Edge 24, Type (0, 1), BuildingBlock: MIFKUJ_clean_linker_0, # of connection points: 2
#     Edge 25, Type (0, 1), BuildingBlock: MIFKUJ_clean_linker_0, # of connection points: 2
#     Edge 26, Type (0, 1), BuildingBlock: MIFKUJ_clean_linker_0, # of connection points: 2
# Relax obj value: 0.128
# Max RMSD: 0.169
# Mean RMSD: 0.122
data_MOF--net-anh--node1-BETFAJ_clean_sbu_0--node2-BETDIP_clean_linker_0--edge1-MIFKUJ_clean_linker_0
_symmetry_space_group_name_H-M    P1
_symmetry_Int_Tables_number       1
_symmetry_cell_setting            triclinic
loop_
_symmetry_equiv_pos_as_xyz
'x, y, z'
_cell_length_a     40.03488
_cell_length_b     47.334323
_cell_length_c     64.576641
_cell_angle_alpha  94.789092
_cell_angle_beta   89.741679
_cell_angle_gamma 128.11396
loop_
_atom_site_label
_atom_site_type_symbol
_atom_site_fract_x
_atom_site_fract_y
_atom_site_fract_z
_atom_type_partial_charge
Sm0 Sm 0.14606 0.5423 0.16099 0.0
Sm1 Sm 0.1038 0.57557 0.16524 0.0
C2 C 0.19555 0.52493 0.15362 0.0
C3 C 0.24161 0.54996 0.15645 0.0
C4 C 0.26472 0.58355 0.14834 0.0
C5 C 0.30798 0.60941 0.1535 0.0
C6 C 0.3287 0.602 0.16675 0.0
C7 C 0.30481 0.56891 0.17562 0.0
C8 C 0.2617 0.54311 0.17043 0.0
C9 C 0.12233 0.54538 0.2004 0.0
C10 C 0.2052 0.63186 0.1663 0.0
C11 C 0.06498 0.59833 0.18336 0.0
C12 C 1.01908 0.57794 0.18304 0.0
C13 C 0.99728 0.55795 0.19982 0.0
C14 C 0.95377 0.53056 0.1976 0.0
C15 C 0.93152 0.52347 0.17878 0.0
C16 C 0.95293 0.54427 0.16228 0.0
C17 C 0.99645 0.57143 0.1644 0.0
C18 C 0.10673 0.56406 0.12268 0.0
C19 C 1.04492 0.48738 0.15755 0.0
O20 O 0.1786 0.53007 0.13857 0.0
O21 O 0.17659 0.51932 0.17102 0.0
O22 O 0.14106 0.57099 0.18892 0.0
O23 O 0.11429 0.51646 0.19081 0.0
O24 O 0.20493 0.60366 0.16359 0.0
O25 O 0.16995 0.62782 0.16759 0.0
O26 O 0.07843 0.58382 0.19331 0.0
O27 O 0.08253 0.60908 0.16559 0.0
O28 O 0.12101 0.55615 0.13655 0.0
O29 O 0.09045 0.57859 0.13106 0.0
O30 O 1.04676 0.51496 0.16557 0.0
O31 O 0.07895 0.49215 0.15081 0.0
H32 H 0.24951 0.58995 0.13802 0.0
H33 H 0.32566 0.63447 0.14634 0.0
H34 H 0.31969 0.56171 0.18555 0.0
H35 H 0.24399 0.51781 0.17737 0.0
H36 H 1.01418 0.56234 0.21429 0.0
H37 H 0.93731 0.51527 0.21063 0.0
H38 H 0.93584 0.54018 0.14794 0.0
H39 H 1.01239 0.58636 0.15119 0.0
Sm40 Sm 0.58078 0.01391 0.4865 0.0
Sm41 Sm 0.52391 0.04355 0.48204 0.0
C42 C 0.61111 0.9829 0.50054 0.0
C43 C 0.59525 0.94512 0.49826 0.0
C44 C 0.57589 0.92411 0.51494 0.0
C45 C 0.56118 0.88857 0.51331 0.0
C46 C 0.56586 0.87337 0.49504 0.0
C47 C 0.58337 0.89366 0.47795 0.0
C48 C 0.59802 0.92933 0.47954 0.0
C49 C 0.56032 0.01291 0.44544 0.0
C50 C 0.4747 0.95633 0.47993 0.0
C51 C 0.4952 0.07621 0.46854 0.0
C52 C 0.50752 0.11259 0.47423 0.0
C53 C 0.53397 0.14041 0.46153 0.0
C54 C 0.54718 0.17523 0.46711 0.0
C55 C 0.53376 0.18279 0.48537 0.0
C56 C 0.50773 0.15518 0.4982 0.0
C57 C 0.49483 0.12045 0.49274 0.0
C58 C 0.54281 0.04221 0.52307 0.0
C59 C 0.63048 0.10099 0.48719 0.0
O60 O 0.58826 0.98899 0.51157 0.0
O61 O 0.62512 1.00061 0.48399 0.0
O62 O 0.55044 0.02234 0.46159 0.0
O63 O 0.58215 1.00258 0.45093 0.0
O64 O 0.51091 0.96275 0.48545 0.0
O65 O 0.47172 0.98189 0.47605 0.0
O66 O 0.52368 0.07547 0.45904 0.0
O67 O 0.47585 0.05278 0.48239 0.0
O68 O 0.55333 0.03429 0.50662 0.0
O69 O 0.52135 0.05313 0.51806 0.0
O70 O 0.59377 0.09424 0.48257 0.0
O71 O 0.63379 0.07562 0.49104 0.0
H72 H 0.57268 0.93535 0.52942 0.0
H73 H 0.54731 0.87324 0.52661 0.0
H74 H 0.58754 0.88253 0.46373 0.0
H75 H 0.61221 0.94464 0.46628 0.0
H76 H 0.54446 0.13525 0.44723 0.0
H77 H 0.56694 0.19598 0.45686 0.0
H78 H 0.49727 0.16047 0.51246 0.0
H79 H 0.47493 0.09984 0.50303 0.0
Sm80 Sm 0.62505 0.54929 0.82664 0.0
Sm81 Sm 0.56711 0.47012 0.83006 0.0
C82 C 0.6583 0.61473 0.81731 0.0
C83 C 0.64466 0.63754 0.82007 0.0
C84 C 0.61507 0.63324 0.80576 0.0
C85 C 0.60265 0.65509 0.80844 0.0
C86 C 0.61974 0.68178 0.8254 0.0
C87 C 0.64842 0.68547 0.83998 0.0
C88 C 0.66084 0.66365 0.83732 0.0
C89 C 0.61351 0.53081 0.86641 0.0
C90 C 0.5201 0.50671 0.83094 0.0
C91 C 0.5316 0.40365 0.83852 0.0
C92 C 0.5412 0.3782 0.83427 0.0
C93 C 0.55985 0.37257 0.85012 0.0
C94 C 0.56862 0.34831 0.84631 0.0
C95 C 0.55871 0.32903 0.82659 0.0
C96 C 0.5406 0.33502 0.81066 0.0
C97 C 0.53188 0.35929 0.81445 0.0
C98 C 0.57517 0.48794 0.7902 0.0
C99 C 0.67296 0.51412 0.82944 0.0
O100 O 0.63578 0.58615 0.80372 0.0
O101 O 0.66965 0.60866 0.8343 0.0
O102 O 0.58478 0.51656 0.8522 0.0
O103 O 0.65031 0.55689 0.86029 0.0
O104 O 0.5569 0.53465 0.82453 0.0
O105 O 0.51694 0.47905 0.83693 0.0
O106 O 0.55777 0.43204 0.85178 0.0
O107 O 0.51923 0.41101 0.82253 0.0
O108 O 0.60576 0.50276 0.80363 0.0
O109 O 0.53965 0.46183 0.79724 0.0
O110 O 0.63535 0.48589 0.8349 0.0
O111 O 0.67679 0.54154 0.82253 0.0
H112 H 0.60184 0.6133 0.79234 0.0
H113 H 0.58088 0.65198 0.79681 0.0
H114 H 0.66176 0.70564 0.8533 0.0
H115 H 0.68345 0.66748 0.8487 0.0
H116 H 0.56736 0.38673 0.86553 0.0
H117 H 0.58216 0.34398 0.85897 0.0
H118 H 0.53313 0.32092 0.79522 0.0
H119 H 0.51769 0.36305 0.80183 0.0
H120 H 0.59761 0.02915 0.16841 0.0
H121 H 0.6503 0.09911 0.22593 0.0
H122 H 0.54104 0.98783 0.22608 0.0
H123 H 0.64314 0.13232 0.19609 0.0
C124 C 0.66679 0.13122 0.18862 0.0
C125 C 0.59725 0.03322 0.18515 0.0
C126 C 0.56538 0.00458 0.19607 0.0
C127 C 0.62733 0.06771 0.19584 0.0
C128 C 0.62649 0.07284 0.21759 0.0
C129 C 0.59609 0.04384 0.22862 0.0
C130 C 0.56537 0.01012 0.21768 0.0
N131 N 0.65828 0.09725 0.18477 0.0
H132 H 0.59064 0.53173 0.51354 0.0
H133 H 0.6001 0.58254 0.57412 0.0
H134 H 0.58217 0.48283 0.56859 0.0
H135 H 0.55406 0.55552 0.50697 0.0
C136 C 0.57443 0.58208 0.51566 0.0
C137 C 0.59045 0.53195 0.53033 0.0
C138 C 0.58624 0.50433 0.53968 0.0
C139 C 0.59496 0.56002 0.54285 0.0
C140 C 0.59647 0.56078 0.56451 0.0
C141 C 0.59114 0.53271 0.57376 0.0
C142 C 0.5859 0.50446 0.56136 0.0
N143 N 0.59728 0.58759 0.53423 0.0
H144 H 0.06076 0.50993 0.83719 0.0
H145 H 0.13208 0.52246 0.89203 0.0
H146 H 1.03128 0.52981 0.89863 0.0
H147 H 0.18825 0.55517 0.86748 0.0
C148 C 0.17237 0.53063 0.85689 0.0
C149 C 0.06699 0.51501 0.85392 0.0
C150 C 1.04059 0.51918 0.86675 0.0
C151 C 0.10127 0.51702 0.86294 0.0
C152 C 0.10755 0.52222 0.88478 0.0
C153 C 0.08247 0.52676 0.89754 0.0
C154 C 1.05008 0.52596 0.88847 0.0
N155 N 0.12826 0.51239 0.85059 0.0
H156 H 0.08942 0.55532 0.48269 0.0
H157 H 1.02226 0.49612 0.42375 0.0
H158 H 0.14095 0.60366 0.426 0.0
H159 H 0.9656 0.47914 0.44864 0.0
C160 C 0.97704 0.46916 0.45878 0.0
C161 C 0.0871 0.55373 0.46586 0.0
C162 C 0.11866 0.58337 0.4555 0.0
C163 C 1.05227 0.52204 0.45444 0.0
C164 C 1.04919 0.52042 0.43252 0.0
C165 C 0.08088 0.54991 0.42196 0.0
C166 C 0.11564 0.5809 0.43374 0.0
N167 N 1.02108 0.49176 0.46507 0.0
H168 H 0.60832 0.035 0.80128 0.0
H169 H 0.60563 0.98516 0.74203 0.0
H170 H 0.57821 0.06042 0.74571 0.0
H171 H 0.54671 0.93612 0.77242 0.0
C172 C 0.57637 0.94626 0.78068 0.0
C173 C 0.60435 0.03205 0.78444 0.0
C174 C 0.59397 0.0511 0.77458 0.0
C175 C 0.60661 0.0072 0.77264 0.0
C176 C 0.60195 1.0035 0.75078 0.0
C177 C 0.59316 0.02361 0.74055 0.0
C178 C 0.58748 0.04616 0.75288 0.0
N179 N 0.61019 0.98389 0.78291 0.0
H180 H 0.60542 0.55561 0.13828 0.0
H181 H 0.65661 0.57099 0.07835 0.0
H182 H 0.53944 0.46831 0.0894 0.0
H183 H 0.71564 0.63079 0.14502 0.0
C184 C 0.69702 0.60502 0.13551 0.0
C185 C 0.6042 0.54411 0.12279 0.0
C186 C 0.56801 0.50958 0.11514 0.0
C187 C 0.63622 0.56616 0.10954 0.0
C188 C 0.63259 0.55325 0.08877 0.0
C189 C 0.5986 0.51732 0.08168 0.0
C190 C 0.56757 0.49501 0.0953 0.0
N191 N 0.67343 0.60059 0.11744 0.0
H192 H 0.3849 0.62124 0.19933 0.0
H193 H 0.43038 0.60428 0.1933 0.0
H194 H 0.42621 0.61468 0.12772 0.0
H195 H 0.37767 0.62835 0.13349 0.0
H196 H 0.38636 0.54636 0.13407 0.0
H197 H 0.52037 0.66011 0.1579 0.0
H198 H 0.56067 0.71359 0.18376 0.0
H199 H 0.53966 0.64692 0.23137 0.0
H200 H 0.49852 0.59289 0.20584 0.0
H201 H 0.50913 0.50436 0.09249 0.0
H202 H 0.46888 0.52218 0.10605 0.0
H203 H 0.49181 0.50847 0.16843 0.0
H204 H 0.53925 0.49586 0.15472 0.0
H205 H 0.51406 0.57115 0.16804 0.0
H206 H 0.38575 0.45614 0.13927 0.0
H207 H 0.34868 0.40674 0.11075 0.0
H208 H 0.361 0.47876 0.06941 0.0
H209 H 0.3986 0.5287 0.09753 0.0
C210 C 0.39587 0.62215 0.18384 0.0
C211 C 0.37504 0.62272 0.16666 0.0
C212 C 0.42167 0.61211 0.18035 0.0
C213 C 0.42987 0.6066 0.15987 0.0
C214 C 0.41874 0.61753 0.14353 0.0
C215 C 0.39167 0.62621 0.14699 0.0
C216 C 0.44182 0.58314 0.1551 0.0
C217 C 0.41451 0.55186 0.14129 0.0
C218 C 0.47734 0.58968 0.16527 0.0
C219 C 0.50649 0.62248 0.17997 0.0
C220 C 0.52473 0.65691 0.17385 0.0
C221 C 0.54748 0.68729 0.18846 0.0
C222 C 0.55274 0.68365 0.20919 0.0
C223 C 0.53565 0.64968 0.21529 0.0
C224 C 0.51272 0.61917 0.20074 0.0
C225 C 0.50389 0.50296 0.10898 0.0
C226 C 0.52747 0.49886 0.12261 0.0
C227 C 0.48029 0.51311 0.11681 0.0
C228 C 0.47617 0.51586 0.13829 0.0
C229 C 0.49455 0.50642 0.15177 0.0
C230 C 0.52083 0.49849 0.14397 0.0
C231 C 0.4594 0.53467 0.14635 0.0
C232 C 0.48545 0.56507 0.16101 0.0
C233 C 0.42279 0.52746 0.13669 0.0
C234 C 0.3948 0.49621 0.12065 0.0
C235 C 0.38001 0.46135 0.12419 0.0
C236 C 0.35916 0.43329 0.10804 0.0
C237 C 0.35244 0.4396 0.0883 0.0
C238 C 0.36603 0.47386 0.08474 0.0
C239 C 0.3869 0.50202 0.10083 0.0
H240 H 0.33677 0.41796 0.07575 0.0
H241 H 0.57003 0.70716 0.22053 0.0
H242 H 0.71433 0.13025 0.49604 0.0
H243 H 0.77772 0.19309 0.49417 0.0
H244 H 0.69787 0.22055 0.47666 0.0
H245 H 0.63506 0.15864 0.47838 0.0
H246 H 0.76158 0.24523 0.45105 0.0
H247 H 0.74509 0.24723 0.52479 0.0
H248 H 0.73722 0.2252 0.55915 0.0
H249 H 0.85902 0.24841 0.55601 0.0
H250 H 0.86737 0.2702 0.52149 0.0
H251 H 0.89221 0.43182 0.45805 0.0
H252 H 0.83803 0.3703 0.46664 0.0
H253 H 0.93584 0.36241 0.48377 0.0
H254 H 0.99062 0.42507 0.47596 0.0
H255 H 0.86842 0.32611 0.50931 0.0
H256 H 0.88422 0.32736 0.43495 0.0
H257 H 0.88876 0.34935 0.40092 0.0
H258 H 0.76386 0.3195 0.40585 0.0
H259 H 0.75873 0.2976 0.43998 0.0
C260 C 0.7103 0.14973 0.49192 0.0
C261 C 0.66945 0.13915 0.4873 0.0
C262 C 0.74655 0.18567 0.49092 0.0
C263 C 0.74255 0.21156 0.48526 0.0
C264 C 0.70183 0.20108 0.48096 0.0
C265 C 0.66581 0.16548 0.48202 0.0
C266 C 0.7804 0.2494 0.48302 0.0
C267 C 0.78478 0.26291 0.46384 0.0
C268 C 0.81116 0.27235 0.49957 0.0
C269 C 0.80671 0.26006 0.52049 0.0
C270 C 0.7701 0.24746 0.53138 0.0
C271 C 0.76556 0.23504 0.55089 0.0
C272 C 0.79757 0.23534 0.55973 0.0
C273 C 0.83425 0.24819 0.54912 0.0
C274 C 0.83893 0.26062 0.5296 0.0
C275 C 0.90222 0.41717 0.46393 0.0
C276 C 0.94555 0.43311 0.46616 0.0
C277 C 0.87122 0.38192 0.46876 0.0
C278 C 0.8827 0.36127 0.47536 0.0
C279 C 0.92614 0.37769 0.47859 0.0
C280 C 0.9574 0.41343 0.47408 0.0
C281 C 0.84907 0.32206 0.4774 0.0
C282 C 0.84551 0.30827 0.49646 0.0
C283 C 0.81858 0.29872 0.46079 0.0
C284 C 0.82118 0.31099 0.44003 0.0
C285 C 0.85777 0.32556 0.42878 0.0
C286 C 0.86045 0.338 0.40948 0.0
C287 C 0.82664 0.33586 0.40124 0.0
C288 C 0.79 0.32112 0.41224 0.0
C289 C 0.78715 0.3086 0.43153 0.0
H290 H 0.82882 0.3456 0.38633 0.0
H291 H 0.79403 0.2257 0.57482 0.0
H292 H 0.54271 0.66792 0.82039 0.0
H293 H 0.53029 0.71233 0.81857 0.0
H294 H 0.66474 0.79869 0.83079 0.0
H295 H 0.677 0.75464 0.83319 0.0
H296 H 0.6234 0.81818 0.84896 0.0
H297 H 0.61525 0.76419 0.78044 0.0
H298 H 0.58767 0.71482 0.7524 0.0
H299 H 0.46357 0.68725 0.75497 0.0
H300 H 0.49027 0.73609 0.78327 0.0
H301 H 0.64744 0.95765 0.79725 0.0
H302 H 0.65093 0.91242 0.81044 0.0
H303 H 0.5148 0.83246 0.79963 0.0
H304 H 0.5115 0.87721 0.78579 0.0
H305 H 0.55294 0.80832 0.7828 0.0
H306 H 0.56616 0.86866 0.85 0.0
H307 H 0.59802 0.92082 0.87653 0.0
H308 H 0.71768 0.93997 0.87465 0.0
H309 H 0.68668 0.88819 0.84793 0.0
C310 C 0.56943 0.69641 0.82293 0.0
C311 C 0.61085 0.7079 0.82675 0.0
C312 C 0.56236 0.72173 0.82187 0.0
C313 C 0.59675 0.75885 0.8241 0.0
C314 C 0.63773 0.77023 0.829 0.0
C315 C 0.6447 0.74501 0.83036 0.0
C316 C 0.59102 0.78595 0.81984 0.0
C317 C 0.6081 0.81612 0.83447 0.0
C318 C 0.57075 0.78312 0.801 0.0
C319 C 0.55462 0.75348 0.78416 0.0
C320 C 0.58199 0.74737 0.77516 0.0
C321 C 0.56653 0.71952 0.7592 0.0
C322 C 0.52386 0.69784 0.75195 0.0
C323 C 0.49658 0.70399 0.76064 0.0
C324 C 0.51184 0.73173 0.77664 0.0
C325 C 0.61827 0.93052 0.79794 0.0
C326 C 0.57917 0.92068 0.79042 0.0
C327 C 0.62024 0.90477 0.80561 0.0
C328 C 0.58304 0.8691 0.80618 0.0
C329 C 0.54388 0.85979 0.79932 0.0
C330 C 0.54201 0.8853 0.79142 0.0
C331 C 0.58506 0.84052 0.81195 0.0
C332 C 0.56759 0.81016 0.79747 0.0
C333 C 0.60552 0.84354 0.83075 0.0
C334 C 0.62415 0.87469 0.84683 0.0
C335 C 0.59934 0.88415 0.85513 0.0
C336 C 0.61724 0.91362 0.87023 0.0
C337 C 0.65987 0.93374 0.87724 0.0
C338 C 0.68467 0.92438 0.8692 0.0
C339 C 0.66693 0.89494 0.8541 0.0
H340 H 0.67365 0.95654 0.88892 0.0
H341 H 0.51198 0.67634 0.73957 0.0
H342 H 0.88509 0.52908 0.20568 0.0
H343 H 0.81657 0.51256 0.19713 0.0
H344 H 0.80443 0.45019 0.14066 0.0
H345 H 0.87608 0.46955 0.14863 0.0
H346 H 0.804 0.50361 0.13346 0.0
H347 H 0.7288 0.41128 0.17948 0.0
H348 H 0.73222 0.39108 0.2128 0.0
H349 H 0.73975 0.47732 0.24622 0.0
H350 H 0.7373 0.49855 0.21316 0.0
H351 H 0.6867 0.5507 0.10922 0.0
H352 H 0.68703 0.50289 0.11809 0.0
H353 H 0.72675 0.55194 0.18151 0.0
H354 H 0.7157 0.59566 0.1736 0.0
H355 H 0.69239 0.48158 0.17983 0.0
H356 H 0.79624 0.58433 0.14363 0.0
H357 H 0.81793 0.62398 0.11565 0.0
H358 H 0.77963 0.53629 0.06993 0.0
H359 H 0.75667 0.49583 0.09764 0.0
C360 C 0.86688 0.51008 0.19208 0.0
C361 C 0.8854 0.50052 0.17775 0.0
C362 C 0.82733 0.50035 0.18722 0.0
C363 C 0.80487 0.47939 0.16847 0.0
C364 C 0.82119 0.46598 0.15532 0.0
C365 C 0.86172 0.47679 0.1599 0.0
C366 C 0.77053 0.47952 0.16085 0.0
C367 C 0.77818 0.49717 0.14302 0.0
C368 C 0.73836 0.47259 0.17399 0.0
C369 C 0.73214 0.45618 0.19374 0.0
C370 C 0.7303 0.42552 0.19393 0.0
C371 C 0.73253 0.41411 0.21279 0.0
C372 C 0.73601 0.43281 0.23162 0.0
C373 C 0.73673 0.4627 0.23162 0.0
C374 C 0.73466 0.47432 0.21281 0.0
C375 C 0.69097 0.54956 0.12549 0.0
C376 C 0.69858 0.57602 0.14093 0.0
C377 C 0.69236 0.52245 0.13046 0.0
C378 C 0.70778 0.52435 0.15028 0.0
C379 C 0.71455 0.54998 0.16607 0.0
C380 C 0.70933 0.57543 0.16144 0.0
C381 C 0.72676 0.5063 0.15278 0.0
C382 C 0.71627 0.48573 0.16957 0.0
C383 C 0.75812 0.51209 0.1393 0.0
C384 C 0.77414 0.5369 0.12268 0.0
C385 C 0.79236 0.57348 0.1276 0.0
C386 C 0.80476 0.59607 0.11179 0.0
C387 C 0.79998 0.58262 0.09101 0.0
C388 C 0.78311 0.54661 0.08603 0.0
C389 C 0.77033 0.52381 0.10178 0.0
H390 H 0.80948 0.60011 0.07879 0.0
H391 H 0.73828 0.42422 0.2462 0.0
H392 H 0.46959 0.89669 0.47036 0.0
H393 H 0.4067 0.83345 0.46893 0.0
H394 H 0.32915 0.86582 0.48458 0.0
H395 H 0.39226 0.92963 0.48572 0.0
H396 H 0.31582 0.81098 0.50842 0.0
H397 H 0.32106 0.83527 0.43762 0.0
H398 H 0.35283 0.85621 0.40406 0.0
H399 H 0.37624 0.77885 0.39809 0.0
H400 H 0.34544 0.75795 0.43184 0.0
H401 H 0.11668 0.63256 0.47939 0.0
H402 H 0.17698 0.69678 0.4877 0.0
H403 H 0.2622 0.67708 0.46334 0.0
H404 H 0.202 0.61328 0.4548 0.0
H405 H 0.26879 0.72722 0.44418 0.0
H406 H 0.26608 0.7037 0.515 0.0
H407 H 0.23596 0.68291 0.54886 0.0
H408 H 0.20922 0.7581 0.55523 0.0
H409 H 0.23841 0.77886 0.52119 0.0
C410 C 0.43914 0.89044 0.47341 0.0
C411 C 0.43584 0.91816 0.47811 0.0
C412 C 0.40322 0.85425 0.47255 0.0
C413 C 0.36326 0.84494 0.47661 0.0
C414 C 0.35974 0.87248 0.48139 0.0
C415 C 0.39569 0.90885 0.48189 0.0
C416 C 0.3255 0.80631 0.47591 0.0
C417 C 0.30494 0.79265 0.49432 0.0
C418 C 0.31218 0.78239 0.45761 0.0
C419 C 0.33135 0.79532 0.43742 0.0
C420 C 0.33347 0.82303 0.4293 0.0
C421 C 0.35122 0.83484 0.41021 0.0
C422 C 0.36665 0.81895 0.39898 0.0
C423 C 0.36436 0.7912 0.40682 0.0
C424 C 0.34677 0.77937 0.42594 0.0
C425 C 0.14857 0.6418 0.47668 0.0
C426 C 0.15491 0.61808 0.46663 0.0
C427 C 0.18299 0.67851 0.4813 0.0
C428 C 0.22418 0.69189 0.476 0.0
C429 C 0.23076 0.6675 0.46747 0.0
C430 C 0.19646 0.631 0.46279 0.0
C431 C 0.25937 0.73144 0.47684 0.0
C432 C 0.27942 0.74538 0.45835 0.0
C433 C 0.27226 0.75546 0.49509 0.0
C434 C 0.2539 0.74248 0.51538 0.0
C435 C 0.25325 0.71547 0.52347 0.0
C436 C 0.23645 0.70376 0.54273 0.0
C437 C 0.22054 0.71908 0.55415 0.0
C438 C 0.22143 0.74617 0.54634 0.0
C439 C 0.23808 0.75791 0.52705 0.0
H440 H 0.20765 0.71004 0.56909 0.0
H441 H 0.38028 0.82807 0.38417 0.0
H442 H 0.50505 0.26188 0.80551 0.0
H443 H 0.51476 0.21572 0.80052 0.0
H444 H 0.63665 0.28734 0.8347 0.0
H445 H 0.62768 0.33421 0.83933 0.0
H446 H 0.63736 0.25111 0.7985 0.0
H447 H 0.55234 0.22141 0.8585 0.0
H448 H 0.49111 0.20767 0.87755 0.0
H449 H 0.40539 0.11718 0.83252 0.0
H450 H 0.46607 0.13066 0.81306 0.0
H451 H 0.65358 0.11033 0.80093 0.0
H452 H 0.65101 0.15896 0.81464 0.0
H453 H 0.52296 0.09809 0.78758 0.0
H454 H 0.52535 0.04959 0.77423 0.0
H455 H 0.5306 0.13165 0.82407 0.0
H456 H 0.60766 0.16109 0.76215 0.0
H457 H 0.6641 0.1727 0.73972 0.0
H458 H 0.75907 0.26127 0.78343 0.0
H459 H 0.70317 0.24972 0.80633 0.0
C460 C 0.53418 0.26803 0.81175 0.0
C461 C 0.56554 0.30164 0.8229 0.0
C462 C 0.53948 0.2415 0.80906 0.0
C463 C 0.57608 0.24798 0.81756 0.0
C464 C 0.60802 0.28179 0.82819 0.0
C465 C 0.60272 0.30839 0.83093 0.0
C466 C 0.5807 0.21923 0.81536 0.0
C467 C 0.61456 0.22521 0.80445 0.0
C468 C 0.55016 0.18516 0.82259 0.0
C469 C 0.51373 0.17719 0.83427 0.0
C470 C 0.52042 0.19875 0.85259 0.0
C471 C 0.48581 0.19098 0.86347 0.0
C472 C 0.44439 0.16161 0.85624 0.0
C473 C 0.43748 0.13993 0.83811 0.0
C474 C 0.47196 0.1476 0.82717 0.0
C475 C 0.62458 0.10708 0.7985 0.0
C476 C 0.58973 0.07656 0.78648 0.0
C477 C 0.62326 0.13489 0.80612 0.0
C478 C 0.58708 0.13235 0.80176 0.0
C479 C 0.55124 0.10066 0.79103 0.0
C480 C 0.5526 0.07303 0.7834 0.0
C481 C 0.58701 0.16332 0.80703 0.0
C482 C 0.55393 0.15776 0.81846 0.0
C483 C 0.61763 0.19743 0.79978 0.0
C484 C 0.65128 0.20418 0.78612 0.0
C485 C 0.6406 0.18277 0.7671 0.0
C486 C 0.67249 0.18939 0.75428 0.0
C487 C 0.71516 0.21762 0.76019 0.0
C488 C 0.72602 0.23933 0.77891 0.0
C489 C 0.69425 0.23274 0.79183 0.0
H490 H 0.73981 0.22275 0.75022 0.0
H491 H 0.41764 0.15561 0.8647 0.0
H492 H 0.59393 0.85401 0.52431 0.0
H493 H 0.58678 0.79897 0.52364 0.0
H494 H 0.51383 0.75913 0.46487 0.0
H495 H 0.5211 0.81488 0.46536 0.0
H496 H 0.48669 0.70862 0.50346 0.0
H497 H 0.59515 0.78087 0.45443 0.0
H498 H 0.65776 0.83925 0.44427 0.0
H499 H 0.72908 0.85374 0.49913 0.0
H500 H 0.66668 0.79555 0.5097 0.0
H501 H 0.51738 0.57447 0.48842 0.0
H502 H 0.50908 0.62019 0.48166 0.0
H503 H 0.61486 0.69771 0.52556 0.0
H504 H 0.62345 0.65251 0.53225 0.0
H505 H 0.62012 0.72598 0.48961 0.0
H506 H 0.51788 0.66216 0.54091 0.0
H507 H 0.4578 0.60781 0.55584 0.0
H508 H 0.37751 0.5803 0.50166 0.0
H509 H 0.43725 0.63452 0.4864 0.0
C510 C 0.57558 0.83325 0.51145 0.0
C511 C 0.55782 0.83848 0.49495 0.0
C512 C 0.57163 0.80194 0.51108 0.0
C513 C 0.54969 0.77524 0.49427 0.0
C514 C 0.53064 0.7796 0.47801 0.0
C515 C 0.53502 0.81134 0.47824 0.0
C516 C 0.55034 0.74448 0.49332 0.0
C517 C 0.51528 0.71183 0.49982 0.0
C518 C 0.58837 0.74958 0.48943 0.0
C519 C 0.62628 0.784 0.48286 0.0
C520 C 0.62416 0.7966 0.46435 0.0
C521 C 0.65959 0.82962 0.45852 0.0
C522 C 0.69737 0.85021 0.47106 0.0
C523 C 0.69982 0.83774 0.48942 0.0
C524 C 0.66446 0.80471 0.49531 0.0
C525 C 0.53898 0.60139 0.49646 0.0
C526 C 0.57099 0.61003 0.51079 0.0
C527 C 0.53406 0.6273 0.49271 0.0
C528 C 0.56126 0.66214 0.50321 0.0
C529 C 0.59365 0.67094 0.51729 0.0
C530 C 0.59843 0.64506 0.52111 0.0
C531 C 0.55623 0.68968 0.49954 0.0
C532 C 0.59086 0.72206 0.49253 0.0
C533 C 0.51804 0.68447 0.5033 0.0
C534 C 0.48202 0.65212 0.51245 0.0
C535 C 0.48744 0.64439 0.53215 0.0
C536 C 0.45346 0.61368 0.54069 0.0
C537 C 0.41389 0.59056 0.52968 0.0
C538 C 0.40818 0.59822 0.51016 0.0
C539 C 0.44204 0.62898 0.50158 0.0
H540 H 0.38763 0.56675 0.53629 0.0
H541 H 0.72475 0.87581 0.46654 0.0
H542 H 0.75018 0.55574 0.8107 0.0
H543 H 0.81195 0.55665 0.81473 0.0
H544 H 0.74599 0.47638 0.858 0.0
H545 H 0.68398 0.47475 0.85366 0.0
H546 H 0.82847 0.53014 0.87262 0.0
H547 H 0.75977 0.45409 0.80892 0.0
H548 H 0.72854 0.43675 0.77294 0.0
H549 H 0.84796 0.52567 0.75205 0.0
H550 H 0.87978 0.54381 0.788 0.0
H551 H 0.9614 0.48104 0.88229 0.0
H552 H 0.90252 0.48169 0.87455 0.0
H553 H 0.97113 0.55013 0.8259 0.0
H554 H 1.03095 0.54937 0.83367 0.0
H555 H 0.89003 0.5064 0.81339 0.0
H556 H 0.95935 0.58244 0.87692 0.0
H557 H 0.99052 0.60058 0.91297 0.0
H558 H 0.87042 0.51348 0.93434 0.0
H559 H 0.83863 0.49463 0.89838 0.0
C560 C 0.74862 0.53811 0.82102 0.0
C561 C 0.71143 0.515 0.83172 0.0
C562 C 0.78418 0.53856 0.82328 0.0
C563 C 0.78428 0.51641 0.83663 0.0
C564 C 0.74737 0.49377 0.84755 0.0
C565 C 0.71156 0.49277 0.84497 0.0
C566 C 0.82266 0.51708 0.83951 0.0
C567 C 0.84146 0.5245 0.85962 0.0
C568 C 0.84121 0.51087 0.8227 0.0
C569 C 0.82201 0.50056 0.80118 0.0
C570 C 0.77924 0.47019 0.7967 0.0
C571 C 0.76147 0.46015 0.7763 0.0
C572 C 0.78621 0.48016 0.76023 0.0
C573 C 0.8288 0.51025 0.76453 0.0
C574 C 0.84674 0.52041 0.78491 0.0
C575 C 0.96432 0.49629 0.86984 0.0
C576 C 1.00193 0.51557 0.85889 0.0
C577 C 0.93028 0.49688 0.8655 0.0
C578 C 0.93199 0.51698 0.85003 0.0
C579 C 0.96849 0.5347 0.83816 0.0
C580 C 1.0029 0.53408 0.84253 0.0
C581 C 0.89579 0.51919 0.84659 0.0
C582 C 0.87731 0.51228 0.8264 0.0
C583 C 0.87759 0.5261 0.86334 0.0
C584 C 0.89675 0.53692 0.88492 0.0
C585 C 0.9397 0.56697 0.88928 0.0
C586 C 0.95744 0.57743 0.90971 0.0
C587 C 0.9325 0.55813 0.92593 0.0
C588 C 0.88972 0.52837 0.92176 0.0
C589 C 0.87181 0.51781 0.90136 0.0
H590 H 0.94629 0.5663 0.94173 0.0
H591 H 0.77242 0.47229 0.74444 0.0
H592 H 0.28773 0.65689 0.16135 0.0
H593 H 0.35207 0.72025 0.16316 0.0
H594 H 0.27649 0.75497 0.17784 0.0
H595 H 0.21305 0.69278 0.17585 0.0
H596 H 0.32814 0.7924 0.14909 0.0
H597 H 0.33898 0.76133 0.21544 0.0
H598 H 0.33937 0.72413 0.23984 0.0
H599 H 0.4496 0.74445 0.2127 0.0
H600 H 0.44961 0.78157 0.18799 0.0
H601 H 0.48169 0.97303 0.19407 0.0
H602 H 0.42281 0.90898 0.18549 0.0
H603 H 0.51178 0.88981 0.1676 0.0
H604 H 0.57112 0.9543 0.17662 0.0
H605 H 0.45595 0.84369 0.19538 0.0
H606 H 0.44286 0.88305 0.13045 0.0
H607 H 0.43654 0.9217 0.11021 0.0
H608 H 0.32325 0.88767 0.14059 0.0
H609 H 0.32905 0.84901 0.16108 0.0
C610 C 0.28503 0.67806 0.16498 0.0
C611 C 0.24518 0.66957 0.16822 0.0
C612 C 0.32172 0.71424 0.16606 0.0
C613 C 0.31902 0.74238 0.17053 0.0
C614 C 0.27937 0.73383 0.17412 0.0
C615 C 0.24301 0.698 0.17301 0.0
C616 C 0.3571 0.78091 0.17142 0.0
C617 C 0.35609 0.8036 0.15922 0.0
C618 C 0.39341 0.79561 0.18471 0.0
C619 C 0.39408 0.77392 0.19975 0.0
C620 C 0.36318 0.75771 0.21461 0.0
C621 C 0.36334 0.73668 0.2285 0.0
C622 C 0.39442 0.73185 0.22778 0.0
C623 C 0.42552 0.7482 0.21322 0.0
C624 C 0.42551 0.76928 0.19929 0.0
C625 C 0.4885 0.95529 0.18765 0.0
C626 C 0.53073 0.9685 0.18568 0.0
C627 C 0.45489 0.91869 0.18281 0.0
C628 C 0.4628 0.89455 0.17577 0.0
C629 C 0.50497 0.90799 0.17295 0.0
C630 C 0.53875 0.94479 0.17781 0.0
C631 C 0.42722 0.85512 0.17282 0.0
C632 C 0.42847 0.83231 0.18485 0.0
C633 C 0.39037 0.84052 0.15993 0.0
C634 C 0.38648 0.86324 0.14731 0.0
C635 C 0.41667 0.8839 0.13283 0.0
C636 C 0.41316 0.90578 0.12132 0.0
C637 C 0.37953 0.90716 0.12412 0.0
C638 C 0.34925 0.88655 0.1384 0.0
C639 C 0.35256 0.86457 0.14992 0.0
H640 H 0.37693 0.92417 0.11522 0.0
H641 H 0.39447 0.71551 0.23853 0.0
H642 H 0.47943 0.19704 0.49559 0.0
H643 H 0.49534 0.25601 0.50168 0.0
H644 H 0.62772 0.30858 0.49224 0.0
H645 H 0.61188 0.24929 0.48591 0.0
H646 H 0.6075 0.33831 0.52879 0.0
H647 H 0.58248 0.30972 0.45451 0.0
H648 H 0.54351 0.27012 0.42215 0.0
H649 H 0.43236 0.25866 0.43958 0.0
H650 H 0.4706 0.29794 0.47217 0.0
H651 H 0.65146 0.50697 0.52536 0.0
H652 H 0.64825 0.45521 0.51187 0.0
H653 H 0.51153 0.38511 0.51384 0.0
H654 H 0.5149 0.43685 0.52751 0.0
H655 H 0.54155 0.36773 0.47883 0.0
H656 H 0.56499 0.39452 0.55325 0.0
H657 H 0.60309 0.43474 0.58547 0.0
H658 H 0.71567 0.44796 0.569 0.0
H659 H 0.67875 0.40898 0.53617 0.0
C660 C 0.51201 0.22116 0.49506 0.0
C661 C 0.54443 0.2187 0.4903 0.0
C662 C 0.52099 0.25474 0.49844 0.0
C663 C 0.5626 0.28644 0.49728 0.0
C664 C 0.59542 0.28427 0.49315 0.0
C665 C 0.58632 0.25054 0.48947 0.0
C666 C 0.57094 0.3216 0.49973 0.0
C667 C 0.59396 0.34522 0.51768 0.0
C668 C 0.55237 0.33 0.48541 0.0
C669 C 0.5293 0.30655 0.46582 0.0
C670 C 0.54964 0.29854 0.4515 0.0
C671 C 0.52771 0.27621 0.4331 0.0
C672 C 0.48546 0.26183 0.42882 0.0
C673 C 0.46509 0.26982 0.44291 0.0
C674 C 0.4869 0.29217 0.46133 0.0
C675 C 0.62077 0.48064 0.52224 0.0
C676 C 0.58338 0.4755 0.52725 0.0
C677 C 0.61895 0.45121 0.51467 0.0
C678 C 0.57969 0.41645 0.51207 0.0
C679 C 0.54206 0.4118 0.51569 0.0
C680 C 0.54393 0.44119 0.52345 0.0
C681 C 0.57806 0.38449 0.5079 0.0
C682 C 0.55592 0.36127 0.48974 0.0
C683 C 0.59732 0.37644 0.5221 0.0
C684 C 0.61926 0.39919 0.54209 0.0
C685 C 0.598 0.40629 0.55637 0.0
C686 C 0.61936 0.42883 0.57477 0.0
C687 C 0.66173 0.44383 0.57932 0.0
C688 C 0.68285 0.43635 0.56544 0.0
C689 C 0.66176 0.41413 0.54689 0.0
H690 H 0.67818 0.46122 0.5936 0.0
H691 H 0.46853 0.24454 0.41457 0.0
H692 H 0.5154 0.56006 0.82117 0.0
H693 H 0.45537 0.56136 0.82322 0.0
H694 H 0.37913 0.45662 0.84609 0.0
H695 H 0.43889 0.45477 0.84342 0.0
H696 H 0.32971 0.45764 0.82132 0.0
H697 H 0.42837 0.54527 0.87822 0.0
H698 H 0.49765 0.59973 0.89358 0.0
H699 H 0.49225 0.66422 0.85285 0.0
H700 H 0.42315 0.61011 0.83714 0.0
H701 H 0.16176 0.46612 0.85432 0.0
H702 H 0.21708 0.45894 0.84871 0.0
H703 H 0.3045 0.56985 0.83523 0.0
H704 H 0.25039 0.5773 0.84233 0.0
H705 H 0.3484 0.5643 0.85588 0.0
H706 H 0.25385 0.48138 0.79798 0.0
H707 H 0.18817 0.42871 0.77879 0.0
H708 H 0.18788 0.35785 0.81634 0.0
H709 H 0.25332 0.41014 0.83589 0.0
C710 C 0.48593 0.53719 0.82665 0.0
C711 C 0.48266 0.50737 0.83221 0.0
C712 C 0.45132 0.53809 0.82803 0.0
C713 C 0.41207 0.50946 0.83532 0.0
C714 C 0.4086 0.47937 0.84053 0.0
C715 C 0.44317 0.47837 0.83906 0.0
C716 C 0.37484 0.51066 0.83735 0.0
C717 C 0.33383 0.48088 0.82913 0.0
C718 C 0.3794 0.54115 0.84688 0.0
C719 C 0.42078 0.57363 0.85643 0.0
C720 C 0.44208 0.57105 0.87249 0.0
C721 C 0.4813 0.60186 0.88126 0.0
C722 C 0.4994 0.63539 0.87415 0.0
C723 C 0.47824 0.63823 0.85832 0.0
C724 C 0.43903 0.60753 0.84951 0.0
C725 C 0.1924 0.48861 0.84955 0.0
C726 C 0.20097 0.52215 0.84831 0.0
C727 C 0.22452 0.48457 0.84632 0.0
C728 C 0.26613 0.51372 0.84129 0.0
C729 C 0.27359 0.54665 0.83926 0.0
C730 C 0.24207 0.55086 0.84301 0.0
C731 C 0.30275 0.51142 0.83945 0.0
C732 C 0.34384 0.54097 0.8479 0.0
C733 C 0.29835 0.48101 0.82969 0.0
C734 C 0.2581 0.44971 0.81859 0.0
C735 C 0.23946 0.4546 0.80231 0.0
C736 C 0.20237 0.4248 0.79133 0.0
C737 C 0.18377 0.38997 0.7964 0.0
C738 C 0.20223 0.38485 0.81247 0.0
C739 C 0.23931 0.41455 0.82351 0.0
H740 H 0.15512 0.36693 0.78784 0.0
H741 H 0.52978 0.65919 0.88094 0.0
H742 H 0.96295 0.46352 0.16066 0.0
H743 H 0.89947 0.4019 0.16459 0.0
H744 H 0.97599 0.36608 0.16299 0.0
H745 H 1.03864 0.42683 0.15779 0.0
H746 H 0.90768 0.3178 0.14255 0.0
H747 H 0.93672 0.38179 0.21047 0.0
H748 H 0.94988 0.43029 0.23569 0.0
H749 H 0.82859 0.40134 0.21721 0.0
H750 H 0.81484 0.35281 0.19181 0.0
H751 H 0.74487 0.14771 0.18155 0.0
H752 H 0.81077 0.20698 0.17535 0.0
H753 H 0.74186 0.24987 0.17503 0.0
H754 H 0.67705 0.19152 0.18239 0.0
H755 H 0.80922 0.29409 0.19767 0.0
H756 H 0.78208 0.22974 0.12889 0.0
H757 H 0.77147 0.18202 0.10395 0.0
H758 H 0.89186 0.21184 0.12518 0.0
H759 H 0.903 0.25952 0.15036 0.0
C760 C 0.96603 0.44235 0.16091 0.0
C761 C 1.00571 0.45 0.15871 0.0
C762 C 0.92981 0.40717 0.16342 0.0
C763 C 0.93285 0.37922 0.16452 0.0
C764 C 0.97253 0.38694 0.16215 0.0
C765 C 1.00843 0.42179 0.15913 0.0
C766 C 0.89487 0.34187 0.16792 0.0
C767 C 0.88645 0.31264 0.15479 0.0
C768 C 0.86675 0.33484 0.18374 0.0
C769 C 0.87489 0.36384 0.19914 0.0
C770 C 0.91295 0.38588 0.21173 0.0
C771 C 0.92049 0.41334 0.22608 0.0
C772 C 0.89012 0.41893 0.22803 0.0
C773 C 0.85208 0.39698 0.21569 0.0
C774 C 0.84436 0.36945 0.20136 0.0
C775 C 0.74387 0.16976 0.17987 0.0
C776 C 0.70593 0.16514 0.18239 0.0
C777 C 0.78152 0.20364 0.17625 0.0
C778 C 0.78149 0.23312 0.17454 0.0
C779 C 0.74304 0.22784 0.1764 0.0
C780 C 0.70589 0.19441 0.18049 0.0
C781 C 0.82137 0.27003 0.17196 0.0
C782 C 0.8304 0.29922 0.18541 0.0
C783 C 0.85024 0.27694 0.15657 0.0
C784 C 0.84313 0.24791 0.14164 0.0
C785 C 0.8061 0.2259 0.12835 0.0
C786 C 0.80005 0.19892 0.11414 0.0
C787 C 0.83092 0.19383 0.11302 0.0
C788 C 0.86794 0.21576 0.12608 0.0
C789 C 0.87416 0.24278 0.1403 0.0
H790 H 0.82619 0.17296 0.102 0.0
H791 H 0.89604 0.44023 0.23912 0.0
H792 H 0.12522 0.61211 0.09574 0.0
H793 H 0.12943 0.6071 0.05806 0.0
H794 H 0.1013 0.50351 0.06007 0.0
H795 H 0.10046 0.51003 0.09833 0.0
H796 H 0.15298 0.53657 0.02949 0.0
H797 H 1.02128 0.51288 0.04811 0.0
H798 H 0.98004 0.528 0.06745 0.0
H799 H 1.04298 0.62589 0.03801 0.0
H800 H 0.08487 0.61149 0.01867 0.0
H801 H 0.08087 0.48161 0.92193 0.0
H802 H 0.08861 0.48713 0.95995 0.0
H803 H 0.10872 0.58817 0.96311 0.0
H804 H 0.09838 0.58136 0.92512 0.0
H805 H 0.06034 0.55355 0.99118 0.0
H806 H 0.19151 0.57787 0.97187 0.0
H807 H 0.23436 0.56427 0.9528 0.0
H808 H 0.17481 0.46729 0.98278 0.0
H809 H 0.13121 0.48009 0.00184 0.0
C810 C 0.12034 0.58841 0.08818 0.0
C811 C 0.1118 0.56119 0.09994 0.0
C812 C 0.12255 0.58543 0.06656 0.0
C813 C 0.1141 0.55427 0.05589 0.0
C814 C 0.1075 0.52769 0.06775 0.0
C815 C 0.1068 0.53131 0.08962 0.0
C816 C 0.10936 0.54875 0.03249 0.0
C817 C 0.13237 0.53989 0.02113 0.0
C818 C 0.08299 0.55349 0.02129 0.0
C819 C 1.05623 0.56117 0.03203 0.0
C820 C 1.0262 0.53757 0.04575 0.0
C821 C 1.0028 0.54605 0.05673 0.0
C822 C 1.00892 0.57791 0.05398 0.0
C823 C 1.03825 0.60122 0.04012 0.0
C824 C 0.06175 0.59288 0.0291 0.0
C825 C 0.08719 0.50507 0.9308 0.0
C826 C 0.08917 0.53112 0.92061 0.0
C827 C 0.09195 0.5084 0.95258 0.0
C828 C 0.10018 0.53849 0.96466 0.0
C829 C 0.10245 0.56467 0.95433 0.0
C830 C 0.09665 0.56087 0.9326 0.0
C831 C 0.10465 0.54215 0.98802 0.0
C832 C 0.0812 0.55036 -0.00057 0.0
C833 C 0.13077 0.53697 -0.00088 0.0
C834 C 0.15794 0.52984 0.9882 0.0
C835 C 0.18751 0.55361 0.97436 0.0
C836 C 0.2119 0.54603 0.96354 0.0
C837 C 0.20727 0.51491 0.96656 0.0
C838 C 0.17836 0.49139 0.98047 0.0
C839 C 0.15385 0.49882 0.99131 0.0
H840 H 0.22611 0.50905 0.95813 0.0
H841 H 0.99092 0.58451 0.06257 0.0
H842 H 0.55448 0.06199 0.4295 0.0
H843 H 0.55721 0.07255 0.39266 0.0
H844 H 0.55612 0.98191 0.37561 0.0
H845 H 0.55285 0.97116 0.41212 0.0
H846 H 0.6257 0.04607 0.36241 0.0
H847 H 0.47371 0.9755 0.36224 0.0
H848 H 0.4055 0.95964 0.37332 0.0
H849 H 0.44166 0.0605 0.35622 0.0
H850 H 0.51047 0.07724 0.34536 0.0
H851 H 0.59202 1.00048 0.25507 0.0
H852 H 0.5855 1.00256 0.29262 0.0
H853 H 0.59345 0.09761 0.29185 0.0
H854 H 0.59952 0.09534 0.25385 0.0
H855 H 0.52599 0.04307 0.31514 0.0
H856 H 0.67629 0.10888 0.31122 0.0
H857 H 0.74068 0.11936 0.29812 0.0
H858 H 0.70425 0.02236 0.32183 0.0
H859 H 0.63931 0.011 0.3348 0.0
C860 C 0.55303 0.04354 0.4178 0.0
C861 C 0.55313 0.01564 0.42359 0.0
C862 C 0.55503 0.04977 0.39679 0.0
C863 C 0.55722 0.02816 0.38145 0.0
C864 C 0.55478 0.99905 0.38721 0.0
C865 C 0.55279 0.99289 0.40805 0.0
C866 C 0.56637 0.03751 0.35973 0.0
C867 C 0.60384 0.04538 0.35208 0.0
C868 C 0.53846 0.0376 0.34644 0.0
C869 C 0.49753 0.0279 0.35334 0.0
C870 C 0.46739 0.99454 0.36113 0.0
C871 C 0.42855 0.98532 0.3673 0.0
C872 C 0.41933 0.00912 0.36557 0.0
C873 C 0.44891 0.04216 0.35763 0.0
C874 C 0.48784 0.05153 0.35147 0.0
C875 C 0.59253 0.02191 0.2629 0.0
C876 C 0.59617 0.04771 0.2516 0.0
C877 C 0.58894 0.02314 0.28434 0.0
C878 C 0.58916 0.05032 0.295 0.0
C879 C 0.59323 0.07644 0.28386 0.0
C880 C 0.59708 0.07533 0.26227 0.0
C881 C 0.58471 0.05063 0.31778 0.0
C882 C 0.5483 0.04465 0.32564 0.0
C883 C 0.61335 0.05188 0.3313 0.0
C884 C 0.65287 0.05905 0.32392 0.0
C885 C 0.68193 0.08971 0.31357 0.0
C886 C 0.71852 0.0958 0.30616 0.0
C887 C 0.72654 0.07153 0.30913 0.0
C888 C 0.69803 0.04116 0.31956 0.0
C889 C 0.66136 0.03491 0.32697 0.0
H890 H 0.75487 0.07627 0.30336 0.0
H891 H 0.3892 1.00191 0.37031 0.0
H892 H 0.64731 0.53646 0.77033 0.0
H893 H 0.65098 0.54941 0.73394 0.0
H894 H 0.51389 0.47566 0.7264 0.0
H895 H 0.51015 0.46221 0.76229 0.0
H896 H 0.54725 0.46115 0.69647 0.0
H897 H 0.5698 0.56667 0.72894 0.0
H898 H 0.60436 0.62257 0.7526 0.0
H899 H 0.72114 0.67043 0.72219 0.0
H900 H 0.6875 0.61457 0.69855 0.0
H901 H 0.52118 0.4938 0.59572 0.0
H902 H 0.51862 0.49099 0.63349 0.0
H903 H 0.65585 0.56681 0.63993 0.0
H904 H 0.65804 0.57069 0.60219 0.0
H905 H 0.62293 0.58126 0.67052 0.0
H906 H 0.5983 0.47262 0.63879 0.0
H907 H 0.56102 0.41609 0.61538 0.0
H908 H 0.44447 0.37412 0.64471 0.0
H909 H 0.48094 0.4304 0.66828 0.0
C910 C 0.61809 0.52326 0.76086 0.0
C911 C 0.57849 0.498 0.76894 0.0
C912 C 0.62017 0.53081 0.74018 0.0
C913 C 0.58265 0.51346 0.72751 0.0
C914 C 0.54319 0.48916 0.73587 0.0
C915 C 0.54112 0.48148 0.75637 0.0
C916 C 0.58408 0.51836 0.70512 0.0
C917 C 0.56339 0.48741 0.69082 0.0
C918 C 0.60583 0.55268 0.69778 0.0
C919 C 0.62625 0.5862 0.71214 0.0
C920 C 0.60299 0.58893 0.72745 0.0
C921 C 0.6224 0.62065 0.74084 0.0
C922 C 0.66498 0.64997 0.73897 0.0
C923 C 0.6882 0.64766 0.72366 0.0
C924 C 0.66897 0.61597 0.71026 0.0
C925 C 0.5506 0.50998 0.60535 0.0
C926 C 0.5898 0.53226 0.59639 0.0
C927 C 0.54922 0.50828 0.62681 0.0
C928 C 0.58712 0.52813 0.63945 0.0
C929 C 0.62628 0.55118 0.63044 0.0
C930 C 0.62759 0.55331 0.609 0.0
C931 C 0.58605 0.52404 0.66195 0.0
C932 C 0.60687 0.55507 0.67624 0.0
C933 C 0.5641 0.48973 0.66935 0.0
C934 C 0.54229 0.45586 0.65518 0.0
C935 C 0.56467 0.45143 0.64016 0.0
C936 C 0.54369 0.41944 0.62687 0.0
C937 C 0.5004 0.39165 0.62846 0.0
C938 C 0.47799 0.3957 0.64345 0.0
C939 C 0.49881 0.4276 0.65681 0.0
H940 H 0.48425 0.36692 0.61814 0.0
H941 H 0.67992 0.67452 0.74933 0.0
H942 H 0.55442 0.08325 0.55829 0.0
H943 H 0.56437 0.07545 0.59414 0.0
H944 H 0.55623 0.98262 0.57218 0.0
H945 H 0.54313 0.98908 0.53645 0.0
H946 H 0.51272 0.97049 0.60648 0.0
H947 H 0.65445 0.06769 0.58712 0.0
H948 H 0.70763 0.12647 0.57373 0.0
H949 H 0.68459 0.17919 0.62234 0.0
H950 H 0.63096 0.12074 0.63584 0.0
H951 H 0.57046 0.96752 0.71067 0.0
H952 H 0.56724 0.96671 0.67297 0.0
H953 H 0.6005 0.07302 0.67992 0.0
H954 H 0.61104 0.07664 0.71683 0.0
H955 H 0.63718 0.07331 0.65076 0.0
H956 H 0.49034 0.98101 0.66761 0.0
H957 H 0.43299 0.92429 0.68173 0.0
H958 H 0.45866 0.86528 0.63982 0.0
H959 H 0.51649 0.92173 0.62563 0.0
C960 C 0.55509 0.06136 0.56113 0.0
C961 C 0.55029 0.03783 0.54451 0.0
C962 C 0.56095 0.05699 0.5816 0.0
C963 C 0.56242 0.02911 0.58584 0.0
C964 C 0.55619 0.00482 0.56927 0.0
C965 C 0.54991 0.00905 0.54879 0.0
C966 C 0.57018 0.02538 0.6076 0.0
C967 C 0.54013 0.99283 0.61616 0.0
C968 C 0.60561 0.0546 0.62033 0.0
C969 C 0.63858 0.08981 0.61242 0.0
C970 C 0.66066 0.09181 0.5949 0.0
C971 C 0.69087 0.12507 0.58729 0.0
C972 C 0.69943 0.15652 0.59716 0.0
C973 C 0.67794 0.15482 0.61471 0.0
C974 C 0.6477 0.12165 0.62236 0.0
C975 C 0.57815 0.99115 0.70424 0.0
C976 C 0.59022 0.02189 0.71728 0.0
C977 C 0.57529 0.99028 0.68251 0.0
C978 C 0.58242 0.01939 0.67333 0.0
C979 C 0.59462 0.04999 0.68634 0.0
C980 C 0.59959 0.05162 0.7078 0.0
C981 C 0.57822 0.01918 0.6503 0.0
C982 C 0.6095 0.05085 0.64127 0.0
C983 C 0.54317 0.98955 0.63742 0.0
C984 C 0.50798 0.9556 0.64572 0.0
C985 C 0.48383 0.95594 0.66147 0.0
C986 C 0.45126 0.92385 0.66949 0.0
C987 C 0.44227 0.89122 0.66172 0.0
C988 C 0.46571 0.89058 0.64585 0.0
C989 C 0.49837 0.9226 0.63781 0.0
H990 H 0.41708 0.86642 0.66796 0.0
H991 H 0.72271 0.18222 0.59122 0.0
H992 H 0.67134 0.54788 0.89697 0.0
H993 H 0.65688 0.5311 0.9327 0.0
H994 H 0.52279 0.47356 0.91896 0.0
H995 H 0.53683 0.48952 0.88314 0.0
H996 H 0.56498 0.52995 0.95483 0.0
H997 H 0.54385 0.4229 0.92585 0.0
H998 H 0.56261 0.38882 0.90517 0.0
H999 H 0.67657 0.4411 0.94428 0.0
H1000 H 0.65871 0.47579 0.96507 0.0
H1001 H 0.52598 0.48517 0.05765 0.0
H1002 H 0.51731 0.4739 0.01978 0.0
H1003 H 0.64712 0.51288 0.01742 0.0
H1004 H 0.65567 0.5234 0.05548 0.0
H1005 H 0.59466 0.45629 0.98831 0.0
H1006 H 0.624 0.56848 0.01392 0.0
H1007 H 0.61274 0.60856 0.03366 0.0
H1008 H 0.49207 0.554 0.00021 0.0
H1009 H 0.50221 0.51305 0.98055 0.0
C1010 C 0.63883 0.53145 0.90159 0.0
C1011 C 0.60522 0.52015 0.88754 0.0
C1012 C 0.6306 0.52171 0.92183 0.0
C1013 C 0.5888 0.50098 0.92818 0.0
C1014 C 0.55514 0.48938 0.91412 0.0
C1015 C 0.56325 0.49857 0.8938 0.0
C1016 C 0.581 0.49416 0.95003 0.0
C1017 C 0.57033 0.51313 0.96217 0.0
C1018 C 0.58933 0.47303 0.95935 0.0
C1019 C 0.60008 0.45213 0.94692 0.0
C1020 C 0.57309 0.42736 0.92993 0.0
C1021 C 0.58353 0.40788 0.91821 0.0
C1022 C 0.62083 0.41288 0.92336 0.0
C1023 C 0.6477 0.43727 0.94029 0.0
C1024 C 0.63739 0.45679 0.95208 0.0
C1025 C 0.55224 0.49026 0.0491 0.0
C1026 C 0.59162 0.50526 0.05934 0.0
C1027 C 0.5473 0.48407 0.02751 0.0
C1028 C 0.58177 0.4931 0.01596 0.0
C1029 C 0.62025 0.50587 0.02619 0.0
C1030 C 0.62521 0.51206 0.04781 0.0
C1031 C 0.57925 0.49255 0.99325 0.0
C1032 C 0.58815 0.47235 0.98095 0.0
C1033 C 0.57012 0.5132 0.9838 0.0
C1034 C 0.56352 0.53725 -0.00398 0.0
C1035 C 0.59477 0.56465 0.01098 0.0
C1036 C 0.58865 0.58761 0.02212 0.0
C1037 C 0.55163 0.58373 0.01826 0.0
C1038 C 0.52065 0.55687 0.00325 0.0
C1039 C 0.52653 0.53375 0.99213 0.0
H1040 H 0.54702 0.60162 0.02684 0.0
H1041 H 0.62887 0.39778 0.91426 0.0
H1042 H 0.15694 0.60641 0.22766 0.0
H1043 H 0.14664 0.60901 0.26518 0.0
H1044 H 1.05822 0.49271 0.26052 0.0
H1045 H 0.06859 0.49003 0.2233 0.0
H1046 H 1.02977 0.52133 0.28559 0.0
H1047 H 0.1595 0.53753 0.27777 0.0
H1048 H 0.23199 0.56566 0.26673 0.0
H1049 H 0.27796 0.66506 0.30269 0.0
H1050 H 0.2055 0.63772 0.3136 0.0
H1051 H 1.04995 0.49215 0.39228 0.0
H1052 H 1.05242 0.49281 0.35437 0.0
H1053 H 0.11194 0.60633 0.36109 0.0
H1054 H 0.10693 0.60561 0.39866 0.0
H1055 H 0.15491 0.5813 0.33554 0.0
H1056 H 1.02427 0.56367 0.3439 0.0
H1057 H 0.95259 0.53321 0.35672 0.0
H1058 H 0.9092 0.43441 0.3209 0.0
H1059 H 0.981 0.46414 0.30821 0.0
C1060 C 0.13505 0.58148 0.23465 0.0
C1061 C 0.11389 0.54801 0.2226 0.0
C1062 C 0.12929 0.58296 0.25609 0.0
C1063 C 0.10198 0.551 0.26577 0.0
C1064 C 0.07952 0.51771 0.25349 0.0
C1065 C 0.08563 0.51623 0.23221 0.0
C1066 C 0.09784 0.55185 0.28876 0.0
C1067 C 1.05718 0.5343 0.29646 0.0
C1068 C 0.13352 0.56904 0.30309 0.0
C1069 C 0.17693 0.58576 0.29621 0.0
C1070 C 0.18494 0.56554 0.28308 0.0
C1071 C 0.22605 0.58131 0.2769 0.0
C1072 C 0.25953 0.61718 0.28393 0.0
C1073 C 0.25197 0.63733 0.29718 0.0
C1074 C 0.21087 0.62172 0.30335 0.0
C1075 C 0.06268 0.51711 0.38574 0.0
C1076 C 0.07883 0.54895 0.39875 0.0
C1077 C 0.06442 0.51748 0.36405 0.0
C1078 C 0.08284 0.54974 0.35499 0.0
C1079 C 0.09811 0.58128 0.3678 0.0
C1080 C 0.09546 0.58077 0.38935 0.0
C1081 C 0.0871 0.55091 0.33218 0.0
C1082 C 0.1277 0.56869 0.32458 0.0
C1083 C 1.05145 0.53384 0.31798 0.0
C1084 C 1.00813 0.516 0.32531 0.0
C1085 C 0.99958 0.53534 0.33893 0.0
C1086 C 0.95891 0.51823 0.34615 0.0
C1087 C 0.92639 0.48186 0.33968 0.0
C1088 C 0.93446 0.46256 0.32593 0.0
C1089 C 0.97514 0.47953 0.31872 0.0
H1090 H 0.8949 0.46865 0.34528 0.0
H1091 H 0.29137 0.62931 0.27916 0.0
loop_
_geom_bond_atom_site_label_1
_geom_bond_atom_site_label_2
_geom_bond_distance
_geom_bond_site_symmetry_2
_ccdc_geom_bond_type
Sm0 C2 2.846 . S
Sm0 O20 2.543 . S
Sm0 O21 2.450 . S
Sm0 O22 2.681 . S
Sm0 O23 2.464 . S
Sm0 O24 2.396 . S
Sm0 O28 2.386 . S
Sm0 O31 2.408 . S
Sm1 C11 2.846 1_455 S
Sm1 O22 2.386 . S
Sm1 O25 2.408 . S
Sm1 O26 2.543 1_455 S
Sm1 O27 2.450 1_455 S
Sm1 O28 2.681 . S
Sm1 O29 2.464 . S
Sm1 O30 2.396 1_455 S
C2 Sm0 2.846 . S
C2 C3 1.506 . S
C2 O20 1.261 . S
C2 O21 1.242 . S
C3 C2 1.506 . S
C3 C4 1.358 . S
C3 C8 1.382 . S
C4 C3 1.358 . S
C4 C5 1.385 . S
C4 H32 0.930 . S
C5 C4 1.385 . S
C5 C6 1.395 . S
C5 H33 0.929 . S
C6 C5 1.395 . S
C6 C7 1.335 . S
C7 C6 1.335 . S
C7 C8 1.398 . S
C7 H34 0.930 . S
C8 C3 1.382 . S
C8 C7 1.398 . S
C8 H35 0.929 . S
C9 O22 1.271 . S
C9 O23 1.251 . S
C10 O24 1.252 . S
C10 O25 1.272 . S
C11 Sm1 2.846 1_655 S
C11 C12 1.506 . S
C11 O26 1.261 . S
C11 O27 1.242 . S
C12 C11 1.506 . S
C12 C13 1.358 . S
C12 C17 1.382 . S
C13 C12 1.358 . S
C13 C14 1.385 . S
C13 H36 0.930 . S
C14 C13 1.385 . S
C14 C15 1.395 . S
C14 H37 0.929 . S
C15 C14 1.395 . S
C15 C16 1.335 . S
C16 C15 1.335 . S
C16 C17 1.398 . S
C16 H38 0.930 . S
C17 C12 1.382 . S
C17 C16 1.398 . S
C17 H39 0.929 . S
C18 O28 1.271 . S
C18 O29 1.251 . S
C19 O30 1.252 . S
C19 O31 1.272 1_655 S
O20 Sm0 2.543 . S
O20 C2 1.261 . S
O21 Sm0 2.450 . S
O21 C2 1.242 . S
O22 Sm0 2.681 . S
O22 Sm1 2.386 . S
O22 C9 1.271 . S
O23 Sm0 2.464 . S
O23 C9 1.251 . S
O24 Sm0 2.396 . S
O24 C10 1.252 . S
O25 Sm1 2.408 . S
O25 C10 1.272 . S
O26 Sm1 2.543 1_655 S
O26 C11 1.261 . S
O27 Sm1 2.450 1_655 S
O27 C11 1.242 . S
O28 Sm0 2.386 . S
O28 Sm1 2.681 . S
O28 C18 1.271 . S
O29 Sm1 2.464 . S
O29 C18 1.251 . S
O30 Sm1 2.396 1_655 S
O30 C19 1.252 . S
O31 Sm0 2.408 . S
O31 C19 1.272 1_455 S
H32 C4 0.930 . S
H33 C5 0.929 . S
H34 C7 0.930 . S
H35 C8 0.929 . S
H36 C13 0.930 . S
H37 C14 0.929 . S
H38 C16 0.930 . S
H39 C17 0.929 . S
Sm40 C42 2.846 1_545 S
Sm40 O60 2.543 1_545 S
Sm40 O61 2.450 1_545 S
Sm40 O62 2.681 . S
Sm40 O63 2.464 . S
Sm40 O64 2.396 1_545 S
Sm40 O68 2.386 . S
Sm40 O71 2.408 . S
Sm41 C51 2.846 . S
Sm41 O62 2.386 . S
Sm41 O65 2.408 1_545 S
Sm41 O66 2.543 . S
Sm41 O67 2.450 . S
Sm41 O68 2.681 . S
Sm41 O69 2.464 . S
Sm41 O70 2.396 . S
C42 Sm40 2.846 1_565 S
C42 C43 1.506 . S
C42 O60 1.261 . S
C42 O61 1.242 . S
C43 C42 1.506 . S
C43 C44 1.358 . S
C43 C48 1.382 . S
C44 C43 1.358 . S
C44 C45 1.385 . S
C44 H72 0.930 . S
C45 C44 1.385 . S
C45 C46 1.395 . S
C45 H73 0.929 . S
C46 C45 1.395 . S
C46 C47 1.335 . S
C47 C46 1.335 . S
C47 C48 1.398 . S
C47 H74 0.930 . S
C48 C43 1.382 . S
C48 C47 1.398 . S
C48 H75 0.929 . S
C49 O62 1.271 . S
C49 O63 1.251 . S
C50 O64 1.252 . S
C50 O65 1.272 . S
C51 Sm41 2.846 . S
C51 C52 1.506 . S
C51 O66 1.261 . S
C51 O67 1.242 . S
C52 C51 1.506 . S
C52 C53 1.358 . S
C52 C57 1.382 . S
C53 C52 1.358 . S
C53 C54 1.385 . S
C53 H76 0.930 . S
C54 C53 1.385 . S
C54 C55 1.395 . S
C54 H77 0.929 . S
C55 C54 1.395 . S
C55 C56 1.335 . S
C56 C55 1.335 . S
C56 C57 1.398 . S
C56 H78 0.930 . S
C57 C52 1.382 . S
C57 C56 1.398 . S
C57 H79 0.929 . S
C58 O68 1.271 . S
C58 O69 1.251 . S
C59 O70 1.252 . S
C59 O71 1.272 . S
O60 Sm40 2.543 1_565 S
O60 C42 1.261 . S
O61 Sm40 2.450 1_565 S
O61 C42 1.242 . S
O62 Sm40 2.681 . S
O62 Sm41 2.386 . S
O62 C49 1.271 . S
O63 Sm40 2.464 . S
O63 C49 1.251 . S
O64 Sm40 2.396 1_565 S
O64 C50 1.252 . S
O65 Sm41 2.408 1_565 S
O65 C50 1.272 . S
O66 Sm41 2.543 . S
O66 C51 1.261 . S
O67 Sm41 2.450 . S
O67 C51 1.242 . S
O68 Sm40 2.386 . S
O68 Sm41 2.681 . S
O68 C58 1.271 . S
O69 Sm41 2.464 . S
O69 C58 1.251 . S
O70 Sm41 2.396 . S
O70 C59 1.252 . S
O71 Sm40 2.408 . S
O71 C59 1.272 . S
H72 C44 0.930 . S
H73 C45 0.929 . S
H74 C47 0.930 . S
H75 C48 0.929 . S
H76 C53 0.930 . S
H77 C54 0.929 . S
H78 C56 0.930 . S
H79 C57 0.929 . S
Sm80 C82 2.846 . S
Sm80 O100 2.543 . S
Sm80 O101 2.450 . S
Sm80 O102 2.681 . S
Sm80 O103 2.464 . S
Sm80 O104 2.396 . S
Sm80 O108 2.386 . S
Sm80 O111 2.408 . S
Sm81 C91 2.846 . S
Sm81 O102 2.386 . S
Sm81 O105 2.408 . S
Sm81 O106 2.543 . S
Sm81 O107 2.450 . S
Sm81 O108 2.681 . S
Sm81 O109 2.464 . S
Sm81 O110 2.396 . S
C82 Sm80 2.846 . S
C82 C83 1.506 . S
C82 O100 1.261 . S
C82 O101 1.242 . S
C83 C82 1.506 . S
C83 C84 1.358 . S
C83 C88 1.382 . S
C84 C83 1.358 . S
C84 C85 1.385 . S
C84 H112 0.930 . S
C85 C84 1.385 . S
C85 C86 1.395 . S
C85 H113 0.929 . S
C86 C85 1.395 . S
C86 C87 1.335 . S
C87 C86 1.335 . S
C87 C88 1.398 . S
C87 H114 0.930 . S
C88 C83 1.382 . S
C88 C87 1.398 . S
C88 H115 0.929 . S
C89 O102 1.271 . S
C89 O103 1.251 . S
C90 O104 1.252 . S
C90 O105 1.272 . S
C91 Sm81 2.846 . S
C91 C92 1.506 . S
C91 O106 1.261 . S
C91 O107 1.242 . S
C92 C91 1.506 . S
C92 C93 1.358 . S
C92 C97 1.382 . S
C93 C92 1.358 . S
C93 C94 1.385 . S
C93 H116 0.930 . S
C94 C93 1.385 . S
C94 C95 1.395 . S
C94 H117 0.929 . S
C95 C94 1.395 . S
C95 C96 1.335 . S
C96 C95 1.335 . S
C96 C97 1.398 . S
C96 H118 0.930 . S
C97 C92 1.382 . S
C97 C96 1.398 . S
C97 H119 0.929 . S
C98 O108 1.271 . S
C98 O109 1.251 . S
C99 O110 1.252 . S
C99 O111 1.272 . S
O100 Sm80 2.543 . S
O100 C82 1.261 . S
O101 Sm80 2.450 . S
O101 C82 1.242 . S
O102 Sm80 2.681 . S
O102 Sm81 2.386 . S
O102 C89 1.271 . S
O103 Sm80 2.464 . S
O103 C89 1.251 . S
O104 Sm80 2.396 . S
O104 C90 1.252 . S
O105 Sm81 2.408 . S
O105 C90 1.272 . S
O106 Sm81 2.543 . S
O106 C91 1.261 . S
O107 Sm81 2.450 . S
O107 C91 1.242 . S
O108 Sm80 2.386 . S
O108 Sm81 2.681 . S
O108 C98 1.271 . S
O109 Sm81 2.464 . S
O109 C98 1.251 . S
O110 Sm81 2.396 . S
O110 C99 1.252 . S
O111 Sm80 2.408 . S
O111 C99 1.272 . S
H112 C84 0.930 . S
H113 C85 0.929 . S
H114 C87 0.930 . S
H115 C88 0.929 . S
H116 C93 0.930 . S
H117 C94 0.929 . S
H118 C96 0.930 . S
H119 C97 0.929 . S
H120 C125 0.930 . S
H121 C128 0.930 . S
H122 C130 0.930 1_565 S
H123 C124 1.016 . S
C124 H123 1.016 . S
C124 N131 1.286 . S
C125 H120 0.930 . S
C125 C126 1.397 . S
C125 C127 1.361 . S
C126 C125 1.397 . S
C126 C130 1.390 . S
C127 C125 1.361 . S
C127 C128 1.393 . S
C127 N131 1.413 . S
C128 H121 0.930 . S
C128 C127 1.393 . S
C128 C129 1.399 . S
C129 C128 1.399 . S
C129 C130 1.381 . S
C130 H122 0.930 1_545 S
C130 C126 1.390 . S
C130 C129 1.381 . S
N131 C124 1.286 . S
N131 C127 1.413 . S
H132 C137 0.930 . S
H133 C140 0.930 . S
H134 C142 0.930 . S
H135 C136 1.016 . S
C136 H135 1.016 . S
C136 N143 1.286 . S
C137 H132 0.930 . S
C137 C138 1.397 . S
C137 C139 1.361 . S
C138 C137 1.397 . S
C138 C142 1.390 . S
C139 C137 1.361 . S
C139 C140 1.393 . S
C139 N143 1.413 . S
C140 H133 0.930 . S
C140 C139 1.393 . S
C140 C141 1.399 . S
C141 C140 1.399 . S
C141 C142 1.381 . S
C142 H134 0.930 . S
C142 C138 1.390 . S
C142 C141 1.381 . S
N143 C136 1.286 . S
N143 C139 1.413 . S
H144 C149 0.930 . S
H145 C152 0.930 . S
H146 C154 0.930 . S
H147 C148 1.016 . S
C148 H147 1.016 . S
C148 N155 1.286 . S
C149 H144 0.930 . S
C149 C150 1.397 . S
C149 C151 1.361 . S
C150 C149 1.397 . S
C150 C154 1.390 . S
C151 C149 1.361 . S
C151 C152 1.393 . S
C151 N155 1.413 . S
C152 H145 0.930 . S
C152 C151 1.393 . S
C152 C153 1.399 . S
C153 C152 1.399 . S
C153 C154 1.381 . S
C154 H146 0.930 . S
C154 C150 1.390 . S
C154 C153 1.381 . S
N155 C148 1.286 . S
N155 C151 1.413 . S
H156 C161 0.930 . S
H157 C164 0.930 . S
H158 C166 0.930 . S
H159 C160 1.016 . S
C160 H159 1.016 . S
C160 N167 1.286 . S
C161 H156 0.930 . S
C161 C162 1.397 . S
C161 C163 1.361 1_455 S
C162 C161 1.397 . S
C162 C166 1.390 . S
C163 C161 1.361 1_655 S
C163 C164 1.393 . S
C163 N167 1.413 . S
C164 H157 0.930 . S
C164 C163 1.393 . S
C164 C165 1.399 1_655 S
C165 C164 1.399 1_455 S
C165 C166 1.381 . S
C166 H158 0.930 . S
C166 C162 1.390 . S
C166 C165 1.381 . S
N167 C160 1.286 . S
N167 C163 1.413 . S
H168 C173 0.930 . S
H169 C176 0.930 . S
H170 C178 0.930 . S
H171 C172 1.016 . S
C172 H171 1.016 . S
C172 N179 1.286 . S
C173 H168 0.930 . S
C173 C174 1.397 . S
C173 C175 1.361 . S
C174 C173 1.397 . S
C174 C178 1.390 . S
C175 C173 1.361 . S
C175 C176 1.393 1_545 S
C175 N179 1.413 1_545 S
C176 H169 0.930 . S
C176 C175 1.393 1_565 S
C176 C177 1.399 1_565 S
C177 C176 1.399 1_545 S
C177 C178 1.381 . S
C178 H170 0.930 . S
C178 C174 1.390 . S
C178 C177 1.381 . S
N179 C172 1.286 . S
N179 C175 1.413 1_565 S
H180 C185 0.930 . S
H181 C188 0.930 . S
H182 C190 0.930 . S
H183 C184 1.016 . S
C184 H183 1.016 . S
C184 N191 1.286 . S
C185 H180 0.930 . S
C185 C186 1.397 . S
C185 C187 1.361 . S
C186 C185 1.397 . S
C186 C190 1.390 . S
C187 C185 1.361 . S
C187 C188 1.393 . S
C187 N191 1.413 . S
C188 H181 0.930 . S
C188 C187 1.393 . S
C188 C189 1.399 . S
C189 C188 1.399 . S
C189 C190 1.381 . S
C190 H182 0.930 . S
C190 C186 1.390 . S
C190 C189 1.381 . S
N191 C184 1.286 . S
N191 C187 1.413 . S
H192 C210 0.951 . S
H193 C212 0.951 . S
H194 C214 0.950 . S
H195 C215 0.950 . S
H196 C217 0.950 . S
H197 C220 0.950 . S
H198 C221 0.950 . S
H199 C223 0.950 . S
H200 C224 0.950 . S
H201 C225 0.951 . S
H202 C227 0.951 . S
H203 C229 0.950 . S
H204 C230 0.950 . S
H205 C232 0.950 . S
H206 C235 0.950 . S
H207 C236 0.950 . S
H208 C238 0.950 . S
H209 C239 0.950 . S
C210 H192 0.951 . S
C210 C211 1.366 . S
C210 C212 1.388 . S
C211 C210 1.366 . S
C211 C215 1.385 . S
C212 H193 0.951 . S
C212 C210 1.388 . S
C212 C213 1.366 . S
C213 C212 1.366 . S
C213 C214 1.414 . S
C213 C216 1.499 . S
C214 H194 0.950 . S
C214 C213 1.414 . S
C214 C215 1.374 . S
C215 H195 0.950 . S
C215 C211 1.385 . S
C215 C214 1.374 . S
C216 C213 1.499 . S
C216 C217 1.373 . S
C216 C218 1.389 . S
C217 H196 0.950 . S
C217 C216 1.373 . S
C217 C233 1.377 . S
C218 C216 1.389 . S
C218 C219 1.524 . S
C218 C232 1.377 . S
C219 C218 1.524 . S
C219 C220 1.397 . S
C219 C224 1.363 . S
C220 H197 0.950 . S
C220 C219 1.397 . S
C220 C221 1.334 . S
C221 H198 0.950 . S
C221 C220 1.334 . S
C221 C222 1.287 . S
C222 C221 1.287 . S
C222 C223 1.524 . S
C222 H241 0.913 . S
C223 H199 0.950 . S
C223 C222 1.524 . S
C223 C224 1.415 . S
C224 H200 0.950 . S
C224 C219 1.363 . S
C224 C223 1.415 . S
C225 H201 0.951 . S
C225 C226 1.366 . S
C225 C227 1.388 . S
C226 C225 1.366 . S
C226 C230 1.385 . S
C227 H202 0.951 . S
C227 C225 1.388 . S
C227 C228 1.366 . S
C228 C227 1.366 . S
C228 C229 1.414 . S
C228 C231 1.499 . S
C229 H203 0.950 . S
C229 C228 1.414 . S
C229 C230 1.374 . S
C230 H204 0.950 . S
C230 C226 1.385 . S
C230 C229 1.374 . S
C231 C228 1.499 . S
C231 C232 1.373 . S
C231 C233 1.389 . S
C232 H205 0.950 . S
C232 C218 1.377 . S
C232 C231 1.373 . S
C233 C217 1.377 . S
C233 C231 1.389 . S
C233 C234 1.524 . S
C234 C233 1.524 . S
C234 C235 1.397 . S
C234 C239 1.363 . S
C235 H206 0.950 . S
C235 C234 1.397 . S
C235 C236 1.334 . S
C236 H207 0.950 . S
C236 C235 1.334 . S
C236 C237 1.287 . S
C237 C236 1.287 . S
C237 C238 1.524 . S
C237 H240 0.999 . S
C238 H208 0.950 . S
C238 C237 1.524 . S
C238 C239 1.415 . S
C239 H209 0.950 . S
C239 C234 1.363 . S
C239 C238 1.415 . S
H240 C237 0.999 . S
H241 C222 0.913 . S
H242 C260 0.951 . S
H243 C262 0.951 . S
H244 C264 0.950 . S
H245 C265 0.950 . S
H246 C267 0.950 . S
H247 C270 0.950 . S
H248 C271 0.950 . S
H249 C273 0.950 . S
H250 C274 0.950 . S
H251 C275 0.951 . S
H252 C277 0.951 . S
H253 C279 0.950 . S
H254 C280 0.950 . S
H255 C282 0.950 . S
H256 C285 0.950 . S
H257 C286 0.950 . S
H258 C288 0.950 . S
H259 C289 0.950 . S
C260 H242 0.951 . S
C260 C261 1.366 . S
C260 C262 1.388 . S
C261 C260 1.366 . S
C261 C265 1.385 . S
C262 H243 0.951 . S
C262 C260 1.388 . S
C262 C263 1.366 . S
C263 C262 1.366 . S
C263 C264 1.414 . S
C263 C266 1.499 . S
C264 H244 0.950 . S
C264 C263 1.414 . S
C264 C265 1.374 . S
C265 H245 0.950 . S
C265 C261 1.385 . S
C265 C264 1.374 . S
C266 C263 1.499 . S
C266 C267 1.373 . S
C266 C268 1.389 . S
C267 H246 0.950 . S
C267 C266 1.373 . S
C267 C283 1.377 . S
C268 C266 1.389 . S
C268 C269 1.524 . S
C268 C282 1.377 . S
C269 C268 1.524 . S
C269 C270 1.397 . S
C269 C274 1.363 . S
C270 H247 0.950 . S
C270 C269 1.397 . S
C270 C271 1.334 . S
C271 H248 0.950 . S
C271 C270 1.334 . S
C271 C272 1.287 . S
C272 C271 1.287 . S
C272 C273 1.524 . S
C272 H291 0.913 . S
C273 H249 0.950 . S
C273 C272 1.524 . S
C273 C274 1.415 . S
C274 H250 0.950 . S
C274 C269 1.363 . S
C274 C273 1.415 . S
C275 H251 0.951 . S
C275 C276 1.366 . S
C275 C277 1.388 . S
C276 C275 1.366 . S
C276 C280 1.385 . S
C277 H252 0.951 . S
C277 C275 1.388 . S
C277 C278 1.366 . S
C278 C277 1.366 . S
C278 C279 1.414 . S
C278 C281 1.499 . S
C279 H253 0.950 . S
C279 C278 1.414 . S
C279 C280 1.374 . S
C280 H254 0.950 . S
C280 C276 1.385 . S
C280 C279 1.374 . S
C281 C278 1.499 . S
C281 C282 1.373 . S
C281 C283 1.389 . S
C282 H255 0.950 . S
C282 C268 1.377 . S
C282 C281 1.373 . S
C283 C267 1.377 . S
C283 C281 1.389 . S
C283 C284 1.524 . S
C284 C283 1.524 . S
C284 C285 1.397 . S
C284 C289 1.363 . S
C285 H256 0.950 . S
C285 C284 1.397 . S
C285 C286 1.334 . S
C286 H257 0.950 . S
C286 C285 1.334 . S
C286 C287 1.287 . S
C287 C286 1.287 . S
C287 C288 1.524 . S
C287 H290 0.999 . S
C288 H258 0.950 . S
C288 C287 1.524 . S
C288 C289 1.415 . S
C289 H259 0.950 . S
C289 C284 1.363 . S
C289 C288 1.415 . S
H290 C287 0.999 . S
H291 C272 0.913 . S
H292 C310 0.951 . S
H293 C312 0.951 . S
H294 C314 0.950 . S
H295 C315 0.950 . S
H296 C317 0.950 . S
H297 C320 0.950 . S
H298 C321 0.950 . S
H299 C323 0.950 . S
H300 C324 0.950 . S
H301 C325 0.951 . S
H302 C327 0.951 . S
H303 C329 0.950 . S
H304 C330 0.950 . S
H305 C332 0.950 . S
H306 C335 0.950 . S
H307 C336 0.950 . S
H308 C338 0.950 . S
H309 C339 0.950 . S
C310 H292 0.951 . S
C310 C311 1.366 . S
C310 C312 1.388 . S
C311 C310 1.366 . S
C311 C315 1.385 . S
C312 H293 0.951 . S
C312 C310 1.388 . S
C312 C313 1.366 . S
C313 C312 1.366 . S
C313 C314 1.414 . S
C313 C316 1.499 . S
C314 H294 0.950 . S
C314 C313 1.414 . S
C314 C315 1.374 . S
C315 H295 0.950 . S
C315 C311 1.385 . S
C315 C314 1.374 . S
C316 C313 1.499 . S
C316 C317 1.373 . S
C316 C318 1.389 . S
C317 H296 0.950 . S
C317 C316 1.373 . S
C317 C333 1.377 . S
C318 C316 1.389 . S
C318 C319 1.524 . S
C318 C332 1.377 . S
C319 C318 1.524 . S
C319 C320 1.397 . S
C319 C324 1.363 . S
C320 H297 0.950 . S
C320 C319 1.397 . S
C320 C321 1.334 . S
C321 H298 0.950 . S
C321 C320 1.334 . S
C321 C322 1.287 . S
C322 C321 1.287 . S
C322 C323 1.524 . S
C322 H341 0.913 . S
C323 H299 0.950 . S
C323 C322 1.524 . S
C323 C324 1.415 . S
C324 H300 0.950 . S
C324 C319 1.363 . S
C324 C323 1.415 . S
C325 H301 0.951 . S
C325 C326 1.366 . S
C325 C327 1.388 . S
C326 C325 1.366 . S
C326 C330 1.385 . S
C327 H302 0.951 . S
C327 C325 1.388 . S
C327 C328 1.366 . S
C328 C327 1.366 . S
C328 C329 1.414 . S
C328 C331 1.499 . S
C329 H303 0.950 . S
C329 C328 1.414 . S
C329 C330 1.374 . S
C330 H304 0.950 . S
C330 C326 1.385 . S
C330 C329 1.374 . S
C331 C328 1.499 . S
C331 C332 1.373 . S
C331 C333 1.389 . S
C332 H305 0.950 . S
C332 C318 1.377 . S
C332 C331 1.373 . S
C333 C317 1.377 . S
C333 C331 1.389 . S
C333 C334 1.524 . S
C334 C333 1.524 . S
C334 C335 1.397 . S
C334 C339 1.363 . S
C335 H306 0.950 . S
C335 C334 1.397 . S
C335 C336 1.334 . S
C336 H307 0.950 . S
C336 C335 1.334 . S
C336 C337 1.287 . S
C337 C336 1.287 . S
C337 C338 1.524 . S
C337 H340 0.999 . S
C338 H308 0.950 . S
C338 C337 1.524 . S
C338 C339 1.415 . S
C339 H309 0.950 . S
C339 C334 1.363 . S
C339 C338 1.415 . S
H340 C337 0.999 . S
H341 C322 0.913 . S
H342 C360 0.951 . S
H343 C362 0.951 . S
H344 C364 0.950 . S
H345 C365 0.950 . S
H346 C367 0.950 . S
H347 C370 0.950 . S
H348 C371 0.950 . S
H349 C373 0.950 . S
H350 C374 0.950 . S
H351 C375 0.951 . S
H352 C377 0.951 . S
H353 C379 0.950 . S
H354 C380 0.950 . S
H355 C382 0.950 . S
H356 C385 0.950 . S
H357 C386 0.950 . S
H358 C388 0.950 . S
H359 C389 0.950 . S
C360 H342 0.951 . S
C360 C361 1.366 . S
C360 C362 1.388 . S
C361 C360 1.366 . S
C361 C365 1.385 . S
C362 H343 0.951 . S
C362 C360 1.388 . S
C362 C363 1.366 . S
C363 C362 1.366 . S
C363 C364 1.414 . S
C363 C366 1.499 . S
C364 H344 0.950 . S
C364 C363 1.414 . S
C364 C365 1.374 . S
C365 H345 0.950 . S
C365 C361 1.385 . S
C365 C364 1.374 . S
C366 C363 1.499 . S
C366 C367 1.373 . S
C366 C368 1.389 . S
C367 H346 0.950 . S
C367 C366 1.373 . S
C367 C383 1.377 . S
C368 C366 1.389 . S
C368 C369 1.524 . S
C368 C382 1.377 . S
C369 C368 1.524 . S
C369 C370 1.397 . S
C369 C374 1.363 . S
C370 H347 0.950 . S
C370 C369 1.397 . S
C370 C371 1.334 . S
C371 H348 0.950 . S
C371 C370 1.334 . S
C371 C372 1.287 . S
C372 C371 1.287 . S
C372 C373 1.524 . S
C372 H391 0.913 . S
C373 H349 0.950 . S
C373 C372 1.524 . S
C373 C374 1.415 . S
C374 H350 0.950 . S
C374 C369 1.363 . S
C374 C373 1.415 . S
C375 H351 0.951 . S
C375 C376 1.366 . S
C375 C377 1.388 . S
C376 C375 1.366 . S
C376 C380 1.385 . S
C377 H352 0.951 . S
C377 C375 1.388 . S
C377 C378 1.366 . S
C378 C377 1.366 . S
C378 C379 1.414 . S
C378 C381 1.499 . S
C379 H353 0.950 . S
C379 C378 1.414 . S
C379 C380 1.374 . S
C380 H354 0.950 . S
C380 C376 1.385 . S
C380 C379 1.374 . S
C381 C378 1.499 . S
C381 C382 1.373 . S
C381 C383 1.389 . S
C382 H355 0.950 . S
C382 C368 1.377 . S
C382 C381 1.373 . S
C383 C367 1.377 . S
C383 C381 1.389 . S
C383 C384 1.524 . S
C384 C383 1.524 . S
C384 C385 1.397 . S
C384 C389 1.363 . S
C385 H356 0.950 . S
C385 C384 1.397 . S
C385 C386 1.334 . S
C386 H357 0.950 . S
C386 C385 1.334 . S
C386 C387 1.287 . S
C387 C386 1.287 . S
C387 C388 1.524 . S
C387 H390 0.999 . S
C388 H358 0.950 . S
C388 C387 1.524 . S
C388 C389 1.415 . S
C389 H359 0.950 . S
C389 C384 1.363 . S
C389 C388 1.415 . S
H390 C387 0.999 . S
H391 C372 0.913 . S
H392 C410 0.951 . S
H393 C412 0.951 . S
H394 C414 0.950 . S
H395 C415 0.950 . S
H396 C417 0.950 . S
H397 C420 0.950 . S
H398 C421 0.950 . S
H399 C423 0.950 . S
H400 C424 0.950 . S
H401 C425 0.951 . S
H402 C427 0.951 . S
H403 C429 0.950 . S
H404 C430 0.950 . S
H405 C432 0.950 . S
H406 C435 0.950 . S
H407 C436 0.950 . S
H408 C438 0.950 . S
H409 C439 0.950 . S
C410 H392 0.951 . S
C410 C411 1.366 . S
C410 C412 1.388 . S
C411 C410 1.366 . S
C411 C415 1.385 . S
C412 H393 0.951 . S
C412 C410 1.388 . S
C412 C413 1.366 . S
C413 C412 1.366 . S
C413 C414 1.414 . S
C413 C416 1.499 . S
C414 H394 0.950 . S
C414 C413 1.414 . S
C414 C415 1.374 . S
C415 H395 0.950 . S
C415 C411 1.385 . S
C415 C414 1.374 . S
C416 C413 1.499 . S
C416 C417 1.373 . S
C416 C418 1.389 . S
C417 H396 0.950 . S
C417 C416 1.373 . S
C417 C433 1.377 . S
C418 C416 1.389 . S
C418 C419 1.524 . S
C418 C432 1.377 . S
C419 C418 1.524 . S
C419 C420 1.397 . S
C419 C424 1.363 . S
C420 H397 0.950 . S
C420 C419 1.397 . S
C420 C421 1.334 . S
C421 H398 0.950 . S
C421 C420 1.334 . S
C421 C422 1.287 . S
C422 C421 1.287 . S
C422 C423 1.524 . S
C422 H441 0.913 . S
C423 H399 0.950 . S
C423 C422 1.524 . S
C423 C424 1.415 . S
C424 H400 0.950 . S
C424 C419 1.363 . S
C424 C423 1.415 . S
C425 H401 0.951 . S
C425 C426 1.366 . S
C425 C427 1.388 . S
C426 C425 1.366 . S
C426 C430 1.385 . S
C427 H402 0.951 . S
C427 C425 1.388 . S
C427 C428 1.366 . S
C428 C427 1.366 . S
C428 C429 1.414 . S
C428 C431 1.499 . S
C429 H403 0.950 . S
C429 C428 1.414 . S
C429 C430 1.374 . S
C430 H404 0.950 . S
C430 C426 1.385 . S
C430 C429 1.374 . S
C431 C428 1.499 . S
C431 C432 1.373 . S
C431 C433 1.389 . S
C432 H405 0.950 . S
C432 C418 1.377 . S
C432 C431 1.373 . S
C433 C417 1.377 . S
C433 C431 1.389 . S
C433 C434 1.524 . S
C434 C433 1.524 . S
C434 C435 1.397 . S
C434 C439 1.363 . S
C435 H406 0.950 . S
C435 C434 1.397 . S
C435 C436 1.334 . S
C436 H407 0.950 . S
C436 C435 1.334 . S
C436 C437 1.287 . S
C437 C436 1.287 . S
C437 C438 1.524 . S
C437 H440 0.999 . S
C438 H408 0.950 . S
C438 C437 1.524 . S
C438 C439 1.415 . S
C439 H409 0.950 . S
C439 C434 1.363 . S
C439 C438 1.415 . S
H440 C437 0.999 . S
H441 C422 0.913 . S
H442 C460 0.951 . S
H443 C462 0.951 . S
H444 C464 0.950 . S
H445 C465 0.950 . S
H446 C467 0.950 . S
H447 C470 0.950 . S
H448 C471 0.950 . S
H449 C473 0.950 . S
H450 C474 0.950 . S
H451 C475 0.951 . S
H452 C477 0.951 . S
H453 C479 0.950 . S
H454 C480 0.950 . S
H455 C482 0.950 . S
H456 C485 0.950 . S
H457 C486 0.950 . S
H458 C488 0.950 . S
H459 C489 0.950 . S
C460 H442 0.951 . S
C460 C461 1.366 . S
C460 C462 1.388 . S
C461 C460 1.366 . S
C461 C465 1.385 . S
C462 H443 0.951 . S
C462 C460 1.388 . S
C462 C463 1.366 . S
C463 C462 1.366 . S
C463 C464 1.414 . S
C463 C466 1.499 . S
C464 H444 0.950 . S
C464 C463 1.414 . S
C464 C465 1.374 . S
C465 H445 0.950 . S
C465 C461 1.385 . S
C465 C464 1.374 . S
C466 C463 1.499 . S
C466 C467 1.373 . S
C466 C468 1.389 . S
C467 H446 0.950 . S
C467 C466 1.373 . S
C467 C483 1.377 . S
C468 C466 1.389 . S
C468 C469 1.524 . S
C468 C482 1.377 . S
C469 C468 1.524 . S
C469 C470 1.397 . S
C469 C474 1.363 . S
C470 H447 0.950 . S
C470 C469 1.397 . S
C470 C471 1.334 . S
C471 H448 0.950 . S
C471 C470 1.334 . S
C471 C472 1.287 . S
C472 C471 1.287 . S
C472 C473 1.524 . S
C472 H491 0.913 . S
C473 H449 0.950 . S
C473 C472 1.524 . S
C473 C474 1.415 . S
C474 H450 0.950 . S
C474 C469 1.363 . S
C474 C473 1.415 . S
C475 H451 0.951 . S
C475 C476 1.366 . S
C475 C477 1.388 . S
C476 C475 1.366 . S
C476 C480 1.385 . S
C477 H452 0.951 . S
C477 C475 1.388 . S
C477 C478 1.366 . S
C478 C477 1.366 . S
C478 C479 1.414 . S
C478 C481 1.499 . S
C479 H453 0.950 . S
C479 C478 1.414 . S
C479 C480 1.374 . S
C480 H454 0.950 . S
C480 C476 1.385 . S
C480 C479 1.374 . S
C481 C478 1.499 . S
C481 C482 1.373 . S
C481 C483 1.389 . S
C482 H455 0.950 . S
C482 C468 1.377 . S
C482 C481 1.373 . S
C483 C467 1.377 . S
C483 C481 1.389 . S
C483 C484 1.524 . S
C484 C483 1.524 . S
C484 C485 1.397 . S
C484 C489 1.363 . S
C485 H456 0.950 . S
C485 C484 1.397 . S
C485 C486 1.334 . S
C486 H457 0.950 . S
C486 C485 1.334 . S
C486 C487 1.287 . S
C487 C486 1.287 . S
C487 C488 1.524 . S
C487 H490 0.999 . S
C488 H458 0.950 . S
C488 C487 1.524 . S
C488 C489 1.415 . S
C489 H459 0.950 . S
C489 C484 1.363 . S
C489 C488 1.415 . S
H490 C487 0.999 . S
H491 C472 0.913 . S
H492 C510 0.951 . S
H493 C512 0.951 . S
H494 C514 0.950 . S
H495 C515 0.950 . S
H496 C517 0.950 . S
H497 C520 0.950 . S
H498 C521 0.950 . S
H499 C523 0.950 . S
H500 C524 0.950 . S
H501 C525 0.951 . S
H502 C527 0.951 . S
H503 C529 0.950 . S
H504 C530 0.950 . S
H505 C532 0.950 . S
H506 C535 0.950 . S
H507 C536 0.950 . S
H508 C538 0.950 . S
H509 C539 0.950 . S
C510 H492 0.951 . S
C510 C511 1.366 . S
C510 C512 1.388 . S
C511 C510 1.366 . S
C511 C515 1.385 . S
C512 H493 0.951 . S
C512 C510 1.388 . S
C512 C513 1.366 . S
C513 C512 1.366 . S
C513 C514 1.414 . S
C513 C516 1.499 . S
C514 H494 0.950 . S
C514 C513 1.414 . S
C514 C515 1.374 . S
C515 H495 0.950 . S
C515 C511 1.385 . S
C515 C514 1.374 . S
C516 C513 1.499 . S
C516 C517 1.373 . S
C516 C518 1.389 . S
C517 H496 0.950 . S
C517 C516 1.373 . S
C517 C533 1.377 . S
C518 C516 1.389 . S
C518 C519 1.524 . S
C518 C532 1.377 . S
C519 C518 1.524 . S
C519 C520 1.397 . S
C519 C524 1.363 . S
C520 H497 0.950 . S
C520 C519 1.397 . S
C520 C521 1.334 . S
C521 H498 0.950 . S
C521 C520 1.334 . S
C521 C522 1.287 . S
C522 C521 1.287 . S
C522 C523 1.524 . S
C522 H541 0.913 . S
C523 H499 0.950 . S
C523 C522 1.524 . S
C523 C524 1.415 . S
C524 H500 0.950 . S
C524 C519 1.363 . S
C524 C523 1.415 . S
C525 H501 0.951 . S
C525 C526 1.366 . S
C525 C527 1.388 . S
C526 C525 1.366 . S
C526 C530 1.385 . S
C527 H502 0.951 . S
C527 C525 1.388 . S
C527 C528 1.366 . S
C528 C527 1.366 . S
C528 C529 1.414 . S
C528 C531 1.499 . S
C529 H503 0.950 . S
C529 C528 1.414 . S
C529 C530 1.374 . S
C530 H504 0.950 . S
C530 C526 1.385 . S
C530 C529 1.374 . S
C531 C528 1.499 . S
C531 C532 1.373 . S
C531 C533 1.389 . S
C532 H505 0.950 . S
C532 C518 1.377 . S
C532 C531 1.373 . S
C533 C517 1.377 . S
C533 C531 1.389 . S
C533 C534 1.524 . S
C534 C533 1.524 . S
C534 C535 1.397 . S
C534 C539 1.363 . S
C535 H506 0.950 . S
C535 C534 1.397 . S
C535 C536 1.334 . S
C536 H507 0.950 . S
C536 C535 1.334 . S
C536 C537 1.287 . S
C537 C536 1.287 . S
C537 C538 1.524 . S
C537 H540 0.999 . S
C538 H508 0.950 . S
C538 C537 1.524 . S
C538 C539 1.415 . S
C539 H509 0.950 . S
C539 C534 1.363 . S
C539 C538 1.415 . S
H540 C537 0.999 . S
H541 C522 0.913 . S
H542 C560 0.951 . S
H543 C562 0.951 . S
H544 C564 0.950 . S
H545 C565 0.950 . S
H546 C567 0.950 . S
H547 C570 0.950 . S
H548 C571 0.950 . S
H549 C573 0.950 . S
H550 C574 0.950 . S
H551 C575 0.951 . S
H552 C577 0.951 . S
H553 C579 0.950 . S
H554 C580 0.950 . S
H555 C582 0.950 . S
H556 C585 0.950 . S
H557 C586 0.950 . S
H558 C588 0.950 . S
H559 C589 0.950 . S
C560 H542 0.951 . S
C560 C561 1.366 . S
C560 C562 1.388 . S
C561 C560 1.366 . S
C561 C565 1.385 . S
C562 H543 0.951 . S
C562 C560 1.388 . S
C562 C563 1.366 . S
C563 C562 1.366 . S
C563 C564 1.414 . S
C563 C566 1.499 . S
C564 H544 0.950 . S
C564 C563 1.414 . S
C564 C565 1.374 . S
C565 H545 0.950 . S
C565 C561 1.385 . S
C565 C564 1.374 . S
C566 C563 1.499 . S
C566 C567 1.373 . S
C566 C568 1.389 . S
C567 H546 0.950 . S
C567 C566 1.373 . S
C567 C583 1.377 . S
C568 C566 1.389 . S
C568 C569 1.524 . S
C568 C582 1.377 . S
C569 C568 1.524 . S
C569 C570 1.397 . S
C569 C574 1.363 . S
C570 H547 0.950 . S
C570 C569 1.397 . S
C570 C571 1.334 . S
C571 H548 0.950 . S
C571 C570 1.334 . S
C571 C572 1.287 . S
C572 C571 1.287 . S
C572 C573 1.524 . S
C572 H591 0.913 . S
C573 H549 0.950 . S
C573 C572 1.524 . S
C573 C574 1.415 . S
C574 H550 0.950 . S
C574 C569 1.363 . S
C574 C573 1.415 . S
C575 H551 0.951 . S
C575 C576 1.366 . S
C575 C577 1.388 . S
C576 C575 1.366 . S
C576 C580 1.385 . S
C577 H552 0.951 . S
C577 C575 1.388 . S
C577 C578 1.366 . S
C578 C577 1.366 . S
C578 C579 1.414 . S
C578 C581 1.499 . S
C579 H553 0.950 . S
C579 C578 1.414 . S
C579 C580 1.374 . S
C580 H554 0.950 . S
C580 C576 1.385 . S
C580 C579 1.374 . S
C581 C578 1.499 . S
C581 C582 1.373 . S
C581 C583 1.389 . S
C582 H555 0.950 . S
C582 C568 1.377 . S
C582 C581 1.373 . S
C583 C567 1.377 . S
C583 C581 1.389 . S
C583 C584 1.524 . S
C584 C583 1.524 . S
C584 C585 1.397 . S
C584 C589 1.363 . S
C585 H556 0.950 . S
C585 C584 1.397 . S
C585 C586 1.334 . S
C586 H557 0.950 . S
C586 C585 1.334 . S
C586 C587 1.287 . S
C587 C586 1.287 . S
C587 C588 1.524 . S
C587 H590 0.999 . S
C588 H558 0.950 . S
C588 C587 1.524 . S
C588 C589 1.415 . S
C589 H559 0.950 . S
C589 C584 1.363 . S
C589 C588 1.415 . S
H590 C587 0.999 . S
H591 C572 0.913 . S
H592 C610 0.951 . S
H593 C612 0.951 . S
H594 C614 0.950 . S
H595 C615 0.950 . S
H596 C617 0.950 . S
H597 C620 0.950 . S
H598 C621 0.950 . S
H599 C623 0.950 . S
H600 C624 0.950 . S
H601 C625 0.951 . S
H602 C627 0.951 . S
H603 C629 0.950 . S
H604 C630 0.950 . S
H605 C632 0.950 . S
H606 C635 0.950 . S
H607 C636 0.950 . S
H608 C638 0.950 . S
H609 C639 0.950 . S
C610 H592 0.951 . S
C610 C611 1.366 . S
C610 C612 1.388 . S
C611 C610 1.366 . S
C611 C615 1.385 . S
C612 H593 0.951 . S
C612 C610 1.388 . S
C612 C613 1.366 . S
C613 C612 1.366 . S
C613 C614 1.414 . S
C613 C616 1.499 . S
C614 H594 0.950 . S
C614 C613 1.414 . S
C614 C615 1.374 . S
C615 H595 0.950 . S
C615 C611 1.385 . S
C615 C614 1.374 . S
C616 C613 1.499 . S
C616 C617 1.373 . S
C616 C618 1.389 . S
C617 H596 0.950 . S
C617 C616 1.373 . S
C617 C633 1.377 . S
C618 C616 1.389 . S
C618 C619 1.524 . S
C618 C632 1.377 . S
C619 C618 1.524 . S
C619 C620 1.397 . S
C619 C624 1.363 . S
C620 H597 0.950 . S
C620 C619 1.397 . S
C620 C621 1.334 . S
C621 H598 0.950 . S
C621 C620 1.334 . S
C621 C622 1.287 . S
C622 C621 1.287 . S
C622 C623 1.524 . S
C622 H641 0.913 . S
C623 H599 0.950 . S
C623 C622 1.524 . S
C623 C624 1.415 . S
C624 H600 0.950 . S
C624 C619 1.363 . S
C624 C623 1.415 . S
C625 H601 0.951 . S
C625 C626 1.366 . S
C625 C627 1.388 . S
C626 C625 1.366 . S
C626 C630 1.385 . S
C627 H602 0.951 . S
C627 C625 1.388 . S
C627 C628 1.366 . S
C628 C627 1.366 . S
C628 C629 1.414 . S
C628 C631 1.499 . S
C629 H603 0.950 . S
C629 C628 1.414 . S
C629 C630 1.374 . S
C630 H604 0.950 . S
C630 C626 1.385 . S
C630 C629 1.374 . S
C631 C628 1.499 . S
C631 C632 1.373 . S
C631 C633 1.389 . S
C632 H605 0.950 . S
C632 C618 1.377 . S
C632 C631 1.373 . S
C633 C617 1.377 . S
C633 C631 1.389 . S
C633 C634 1.524 . S
C634 C633 1.524 . S
C634 C635 1.397 . S
C634 C639 1.363 . S
C635 H606 0.950 . S
C635 C634 1.397 . S
C635 C636 1.334 . S
C636 H607 0.950 . S
C636 C635 1.334 . S
C636 C637 1.287 . S
C637 C636 1.287 . S
C637 C638 1.524 . S
C637 H640 0.999 . S
C638 H608 0.950 . S
C638 C637 1.524 . S
C638 C639 1.415 . S
C639 H609 0.950 . S
C639 C634 1.363 . S
C639 C638 1.415 . S
H640 C637 0.999 . S
H641 C622 0.913 . S
H642 C660 0.951 . S
H643 C662 0.951 . S
H644 C664 0.950 . S
H645 C665 0.950 . S
H646 C667 0.950 . S
H647 C670 0.950 . S
H648 C671 0.950 . S
H649 C673 0.950 . S
H650 C674 0.950 . S
H651 C675 0.951 . S
H652 C677 0.951 . S
H653 C679 0.950 . S
H654 C680 0.950 . S
H655 C682 0.950 . S
H656 C685 0.950 . S
H657 C686 0.950 . S
H658 C688 0.950 . S
H659 C689 0.950 . S
C660 H642 0.951 . S
C660 C661 1.366 . S
C660 C662 1.388 . S
C661 C660 1.366 . S
C661 C665 1.385 . S
C662 H643 0.951 . S
C662 C660 1.388 . S
C662 C663 1.366 . S
C663 C662 1.366 . S
C663 C664 1.414 . S
C663 C666 1.499 . S
C664 H644 0.950 . S
C664 C663 1.414 . S
C664 C665 1.374 . S
C665 H645 0.950 . S
C665 C661 1.385 . S
C665 C664 1.374 . S
C666 C663 1.499 . S
C666 C667 1.373 . S
C666 C668 1.389 . S
C667 H646 0.950 . S
C667 C666 1.373 . S
C667 C683 1.377 . S
C668 C666 1.389 . S
C668 C669 1.524 . S
C668 C682 1.377 . S
C669 C668 1.524 . S
C669 C670 1.397 . S
C669 C674 1.363 . S
C670 H647 0.950 . S
C670 C669 1.397 . S
C670 C671 1.334 . S
C671 H648 0.950 . S
C671 C670 1.334 . S
C671 C672 1.287 . S
C672 C671 1.287 . S
C672 C673 1.524 . S
C672 H691 0.913 . S
C673 H649 0.950 . S
C673 C672 1.524 . S
C673 C674 1.415 . S
C674 H650 0.950 . S
C674 C669 1.363 . S
C674 C673 1.415 . S
C675 H651 0.951 . S
C675 C676 1.366 . S
C675 C677 1.388 . S
C676 C675 1.366 . S
C676 C680 1.385 . S
C677 H652 0.951 . S
C677 C675 1.388 . S
C677 C678 1.366 . S
C678 C677 1.366 . S
C678 C679 1.414 . S
C678 C681 1.499 . S
C679 H653 0.950 . S
C679 C678 1.414 . S
C679 C680 1.374 . S
C680 H654 0.950 . S
C680 C676 1.385 . S
C680 C679 1.374 . S
C681 C678 1.499 . S
C681 C682 1.373 . S
C681 C683 1.389 . S
C682 H655 0.950 . S
C682 C668 1.377 . S
C682 C681 1.373 . S
C683 C667 1.377 . S
C683 C681 1.389 . S
C683 C684 1.524 . S
C684 C683 1.524 . S
C684 C685 1.397 . S
C684 C689 1.363 . S
C685 H656 0.950 . S
C685 C684 1.397 . S
C685 C686 1.334 . S
C686 H657 0.950 . S
C686 C685 1.334 . S
C686 C687 1.287 . S
C687 C686 1.287 . S
C687 C688 1.524 . S
C687 H690 0.999 . S
C688 H658 0.950 . S
C688 C687 1.524 . S
C688 C689 1.415 . S
C689 H659 0.950 . S
C689 C684 1.363 . S
C689 C688 1.415 . S
H690 C687 0.999 . S
H691 C672 0.913 . S
H692 C710 0.951 . S
H693 C712 0.951 . S
H694 C714 0.950 . S
H695 C715 0.950 . S
H696 C717 0.950 . S
H697 C720 0.950 . S
H698 C721 0.950 . S
H699 C723 0.950 . S
H700 C724 0.950 . S
H701 C725 0.951 . S
H702 C727 0.951 . S
H703 C729 0.950 . S
H704 C730 0.950 . S
H705 C732 0.950 . S
H706 C735 0.950 . S
H707 C736 0.950 . S
H708 C738 0.950 . S
H709 C739 0.950 . S
C710 H692 0.951 . S
C710 C711 1.366 . S
C710 C712 1.388 . S
C711 C710 1.366 . S
C711 C715 1.385 . S
C712 H693 0.951 . S
C712 C710 1.388 . S
C712 C713 1.366 . S
C713 C712 1.366 . S
C713 C714 1.414 . S
C713 C716 1.499 . S
C714 H694 0.950 . S
C714 C713 1.414 . S
C714 C715 1.374 . S
C715 H695 0.950 . S
C715 C711 1.385 . S
C715 C714 1.374 . S
C716 C713 1.499 . S
C716 C717 1.373 . S
C716 C718 1.389 . S
C717 H696 0.950 . S
C717 C716 1.373 . S
C717 C733 1.377 . S
C718 C716 1.389 . S
C718 C719 1.524 . S
C718 C732 1.377 . S
C719 C718 1.524 . S
C719 C720 1.397 . S
C719 C724 1.363 . S
C720 H697 0.950 . S
C720 C719 1.397 . S
C720 C721 1.334 . S
C721 H698 0.950 . S
C721 C720 1.334 . S
C721 C722 1.287 . S
C722 C721 1.287 . S
C722 C723 1.524 . S
C722 H741 0.913 . S
C723 H699 0.950 . S
C723 C722 1.524 . S
C723 C724 1.415 . S
C724 H700 0.950 . S
C724 C719 1.363 . S
C724 C723 1.415 . S
C725 H701 0.951 . S
C725 C726 1.366 . S
C725 C727 1.388 . S
C726 C725 1.366 . S
C726 C730 1.385 . S
C727 H702 0.951 . S
C727 C725 1.388 . S
C727 C728 1.366 . S
C728 C727 1.366 . S
C728 C729 1.414 . S
C728 C731 1.499 . S
C729 H703 0.950 . S
C729 C728 1.414 . S
C729 C730 1.374 . S
C730 H704 0.950 . S
C730 C726 1.385 . S
C730 C729 1.374 . S
C731 C728 1.499 . S
C731 C732 1.373 . S
C731 C733 1.389 . S
C732 H705 0.950 . S
C732 C718 1.377 . S
C732 C731 1.373 . S
C733 C717 1.377 . S
C733 C731 1.389 . S
C733 C734 1.524 . S
C734 C733 1.524 . S
C734 C735 1.397 . S
C734 C739 1.363 . S
C735 H706 0.950 . S
C735 C734 1.397 . S
C735 C736 1.334 . S
C736 H707 0.950 . S
C736 C735 1.334 . S
C736 C737 1.287 . S
C737 C736 1.287 . S
C737 C738 1.524 . S
C737 H740 0.999 . S
C738 H708 0.950 . S
C738 C737 1.524 . S
C738 C739 1.415 . S
C739 H709 0.950 . S
C739 C734 1.363 . S
C739 C738 1.415 . S
H740 C737 0.999 . S
H741 C722 0.913 . S
H742 C760 0.951 . S
H743 C762 0.951 . S
H744 C764 0.950 . S
H745 C765 0.950 . S
H746 C767 0.950 . S
H747 C770 0.950 . S
H748 C771 0.950 . S
H749 C773 0.950 . S
H750 C774 0.950 . S
H751 C775 0.951 . S
H752 C777 0.951 . S
H753 C779 0.950 . S
H754 C780 0.950 . S
H755 C782 0.950 . S
H756 C785 0.950 . S
H757 C786 0.950 . S
H758 C788 0.950 . S
H759 C789 0.950 . S
C760 H742 0.951 . S
C760 C761 1.366 . S
C760 C762 1.388 . S
C761 C760 1.366 . S
C761 C765 1.385 . S
C762 H743 0.951 . S
C762 C760 1.388 . S
C762 C763 1.366 . S
C763 C762 1.366 . S
C763 C764 1.414 . S
C763 C766 1.499 . S
C764 H744 0.950 . S
C764 C763 1.414 . S
C764 C765 1.374 . S
C765 H745 0.950 . S
C765 C761 1.385 . S
C765 C764 1.374 . S
C766 C763 1.499 . S
C766 C767 1.373 . S
C766 C768 1.389 . S
C767 H746 0.950 . S
C767 C766 1.373 . S
C767 C783 1.377 . S
C768 C766 1.389 . S
C768 C769 1.524 . S
C768 C782 1.377 . S
C769 C768 1.524 . S
C769 C770 1.397 . S
C769 C774 1.363 . S
C770 H747 0.950 . S
C770 C769 1.397 . S
C770 C771 1.334 . S
C771 H748 0.950 . S
C771 C770 1.334 . S
C771 C772 1.287 . S
C772 C771 1.287 . S
C772 C773 1.524 . S
C772 H791 0.913 . S
C773 H749 0.950 . S
C773 C772 1.524 . S
C773 C774 1.415 . S
C774 H750 0.950 . S
C774 C769 1.363 . S
C774 C773 1.415 . S
C775 H751 0.951 . S
C775 C776 1.366 . S
C775 C777 1.388 . S
C776 C775 1.366 . S
C776 C780 1.385 . S
C777 H752 0.951 . S
C777 C775 1.388 . S
C777 C778 1.366 . S
C778 C777 1.366 . S
C778 C779 1.414 . S
C778 C781 1.499 . S
C779 H753 0.950 . S
C779 C778 1.414 . S
C779 C780 1.374 . S
C780 H754 0.950 . S
C780 C776 1.385 . S
C780 C779 1.374 . S
C781 C778 1.499 . S
C781 C782 1.373 . S
C781 C783 1.389 . S
C782 H755 0.950 . S
C782 C768 1.377 . S
C782 C781 1.373 . S
C783 C767 1.377 . S
C783 C781 1.389 . S
C783 C784 1.524 . S
C784 C783 1.524 . S
C784 C785 1.397 . S
C784 C789 1.363 . S
C785 H756 0.950 . S
C785 C784 1.397 . S
C785 C786 1.334 . S
C786 H757 0.950 . S
C786 C785 1.334 . S
C786 C787 1.287 . S
C787 C786 1.287 . S
C787 C788 1.524 . S
C787 H790 0.999 . S
C788 H758 0.950 . S
C788 C787 1.524 . S
C788 C789 1.415 . S
C789 H759 0.950 . S
C789 C784 1.363 . S
C789 C788 1.415 . S
H790 C787 0.999 . S
H791 C772 0.913 . S
H792 C810 0.951 . S
H793 C812 0.951 . S
H794 C814 0.950 . S
H795 C815 0.950 . S
H796 C817 0.950 . S
H797 C820 0.950 . S
H798 C821 0.950 . S
H799 C823 0.938 . S
H800 C824 0.950 . S
H801 C825 0.951 . S
H802 C827 0.951 . S
H803 C829 0.950 . S
H804 C830 0.950 . S
H805 C832 0.930 1_556 S
H806 C835 0.950 . S
H807 C836 0.950 . S
H808 C838 0.950 . S
H809 C839 0.950 1_554 S
C810 H792 0.951 . S
C810 C811 1.366 . S
C810 C812 1.388 . S
C811 C810 1.366 . S
C811 C815 1.385 . S
C812 H793 0.951 . S
C812 C810 1.388 . S
C812 C813 1.366 . S
C813 C812 1.366 . S
C813 C814 1.414 . S
C813 C816 1.499 . S
C814 H794 0.950 . S
C814 C813 1.414 . S
C814 C815 1.374 . S
C815 H795 0.950 . S
C815 C811 1.385 . S
C815 C814 1.374 . S
C816 C813 1.499 . S
C816 C817 1.373 . S
C816 C818 1.389 . S
C817 H796 0.950 . S
C817 C816 1.373 . S
C817 C833 1.377 . S
C818 C816 1.389 . S
C818 C819 1.524 . S
C818 C832 1.377 . S
C819 C818 1.524 . S
C819 C820 1.397 1_455 S
C819 C824 1.363 . S
C820 H797 0.950 . S
C820 C819 1.397 1_655 S
C820 C821 1.334 . S
C821 H798 0.950 . S
C821 C820 1.334 . S
C821 C822 1.287 . S
C822 C821 1.287 . S
C822 C823 1.524 . S
C822 H841 0.913 . S
C823 H799 0.938 . S
C823 C822 1.524 . S
C823 C824 1.415 1_655 S
C824 H800 0.950 . S
C824 C819 1.363 . S
C824 C823 1.415 1_455 S
C825 H801 0.951 . S
C825 C826 1.366 . S
C825 C827 1.388 . S
C826 C825 1.366 . S
C826 C830 1.385 . S
C827 H802 0.951 . S
C827 C825 1.388 . S
C827 C828 1.366 . S
C828 C827 1.366 . S
C828 C829 1.414 . S
C828 C831 1.499 . S
C829 H803 0.950 . S
C829 C828 1.414 . S
C829 C830 1.374 . S
C830 H804 0.950 . S
C830 C826 1.385 . S
C830 C829 1.374 . S
C831 C828 1.499 . S
C831 C832 1.373 1_556 S
C831 C833 1.389 1_556 S
C832 H805 0.930 1_554 S
C832 C818 1.377 . S
C832 C831 1.373 1_554 S
C833 C817 1.377 . S
C833 C831 1.389 1_554 S
C833 C834 1.524 1_554 S
C834 C833 1.524 1_556 S
C834 C835 1.397 . S
C834 C839 1.363 . S
C835 H806 0.950 . S
C835 C834 1.397 . S
C835 C836 1.334 . S
C836 H807 0.950 . S
C836 C835 1.334 . S
C836 C837 1.287 . S
C837 C836 1.287 . S
C837 C838 1.524 . S
C837 H840 0.999 . S
C838 H808 0.950 . S
C838 C837 1.524 . S
C838 C839 1.415 . S
C839 H809 0.950 1_556 S
C839 C834 1.363 . S
C839 C838 1.415 . S
H840 C837 0.999 . S
H841 C822 0.913 . S
H842 C860 0.951 . S
H843 C862 0.951 . S
H844 C864 0.950 1_565 S
H845 C865 0.950 1_565 S
H846 C867 0.950 . S
H847 C870 0.950 . S
H848 C871 0.950 . S
H849 C873 0.950 . S
H850 C874 0.950 . S
H851 C875 0.951 . S
H852 C877 0.984 . S
H853 C879 0.950 . S
H854 C880 0.950 . S
H855 C882 0.950 . S
H856 C885 0.950 . S
H857 C886 0.950 . S
H858 C888 0.950 . S
H859 C889 0.950 . S
C860 H842 0.951 . S
C860 C861 1.366 . S
C860 C862 1.388 . S
C861 C860 1.366 . S
C861 C865 1.385 . S
C862 H843 0.951 . S
C862 C860 1.388 . S
C862 C863 1.366 . S
C863 C862 1.366 . S
C863 C864 1.414 . S
C863 C866 1.499 . S
C864 H844 0.950 1_545 S
C864 C863 1.414 . S
C864 C865 1.374 . S
C865 H845 0.950 1_545 S
C865 C861 1.385 . S
C865 C864 1.374 . S
C866 C863 1.499 . S
C866 C867 1.373 . S
C866 C868 1.389 . S
C867 H846 0.950 . S
C867 C866 1.373 . S
C867 C883 1.377 . S
C868 C866 1.389 . S
C868 C869 1.524 . S
C868 C882 1.377 . S
C869 C868 1.524 . S
C869 C870 1.397 1_545 S
C869 C874 1.363 . S
C870 H847 0.950 . S
C870 C869 1.397 1_565 S
C870 C871 1.334 . S
C871 H848 0.950 . S
C871 C870 1.334 . S
C871 C872 1.287 1_565 S
C872 C871 1.287 1_545 S
C872 C873 1.524 . S
C872 H891 0.913 1_545 S
C873 H849 0.950 . S
C873 C872 1.524 . S
C873 C874 1.415 . S
C874 H850 0.950 . S
C874 C869 1.363 . S
C874 C873 1.415 . S
C875 H851 0.951 . S
C875 C876 1.366 . S
C875 C877 1.388 . S
C876 C875 1.366 . S
C876 C880 1.385 . S
C877 H852 0.984 . S
C877 C875 1.388 . S
C877 C878 1.366 . S
C878 C877 1.366 . S
C878 C879 1.414 . S
C878 C881 1.499 . S
C879 H853 0.950 . S
C879 C878 1.414 . S
C879 C880 1.374 . S
C880 H854 0.950 . S
C880 C876 1.385 . S
C880 C879 1.374 . S
C881 C878 1.499 . S
C881 C882 1.373 . S
C881 C883 1.389 . S
C882 H855 0.950 . S
C882 C868 1.377 . S
C882 C881 1.373 . S
C883 C867 1.377 . S
C883 C881 1.389 . S
C883 C884 1.524 . S
C884 C883 1.524 . S
C884 C885 1.397 . S
C884 C889 1.363 . S
C885 H856 0.950 . S
C885 C884 1.397 . S
C885 C886 1.334 . S
C886 H857 0.950 . S
C886 C885 1.334 . S
C886 C887 1.287 . S
C887 C886 1.287 . S
C887 C888 1.524 . S
C887 H890 0.999 . S
C888 H858 0.950 . S
C888 C887 1.524 . S
C888 C889 1.415 . S
C889 H859 0.950 . S
C889 C884 1.363 . S
C889 C888 1.415 . S
H890 C887 0.999 . S
H891 C872 0.913 1_565 S
H892 C910 0.951 . S
H893 C912 0.951 . S
H894 C914 0.950 . S
H895 C915 0.950 . S
H896 C917 0.950 . S
H897 C920 0.950 . S
H898 C921 0.950 . S
H899 C923 0.950 . S
H900 C924 0.950 . S
H901 C925 0.951 . S
H902 C927 0.951 . S
H903 C929 0.950 . S
H904 C930 0.950 . S
H905 C932 0.950 . S
H906 C935 0.950 . S
H907 C936 0.950 . S
H908 C938 0.950 . S
H909 C939 0.950 . S
C910 H892 0.951 . S
C910 C911 1.366 . S
C910 C912 1.388 . S
C911 C910 1.366 . S
C911 C915 1.385 . S
C912 H893 0.951 . S
C912 C910 1.388 . S
C912 C913 1.366 . S
C913 C912 1.366 . S
C913 C914 1.414 . S
C913 C916 1.499 . S
C914 H894 0.950 . S
C914 C913 1.414 . S
C914 C915 1.374 . S
C915 H895 0.950 . S
C915 C911 1.385 . S
C915 C914 1.374 . S
C916 C913 1.499 . S
C916 C917 1.373 . S
C916 C918 1.389 . S
C917 H896 0.950 . S
C917 C916 1.373 . S
C917 C933 1.377 . S
C918 C916 1.389 . S
C918 C919 1.524 . S
C918 C932 1.377 . S
C919 C918 1.524 . S
C919 C920 1.397 . S
C919 C924 1.363 . S
C920 H897 0.950 . S
C920 C919 1.397 . S
C920 C921 1.334 . S
C921 H898 0.950 . S
C921 C920 1.334 . S
C921 C922 1.287 . S
C922 C921 1.287 . S
C922 C923 1.524 . S
C922 H941 0.913 . S
C923 H899 0.950 . S
C923 C922 1.524 . S
C923 C924 1.415 . S
C924 H900 0.950 . S
C924 C919 1.363 . S
C924 C923 1.415 . S
C925 H901 0.951 . S
C925 C926 1.366 . S
C925 C927 1.388 . S
C926 C925 1.366 . S
C926 C930 1.385 . S
C927 H902 0.951 . S
C927 C925 1.388 . S
C927 C928 1.366 . S
C928 C927 1.366 . S
C928 C929 1.414 . S
C928 C931 1.499 . S
C929 H903 0.950 . S
C929 C928 1.414 . S
C929 C930 1.374 . S
C930 H904 0.950 . S
C930 C926 1.385 . S
C930 C929 1.374 . S
C931 C928 1.499 . S
C931 C932 1.373 . S
C931 C933 1.389 . S
C932 H905 0.950 . S
C932 C918 1.377 . S
C932 C931 1.373 . S
C933 C917 1.377 . S
C933 C931 1.389 . S
C933 C934 1.524 . S
C934 C933 1.524 . S
C934 C935 1.397 . S
C934 C939 1.363 . S
C935 H906 0.950 . S
C935 C934 1.397 . S
C935 C936 1.334 . S
C936 H907 0.950 . S
C936 C935 1.334 . S
C936 C937 1.287 . S
C937 C936 1.287 . S
C937 C938 1.524 . S
C937 H940 0.999 . S
C938 H908 0.950 . S
C938 C937 1.524 . S
C938 C939 1.415 . S
C939 H909 0.950 . S
C939 C934 1.363 . S
C939 C938 1.415 . S
H940 C937 0.999 . S
H941 C922 0.913 . S
H942 C960 0.951 . S
H943 C962 0.951 . S
H944 C964 0.950 . S
H945 C965 0.950 . S
H946 C967 0.950 . S
H947 C970 0.950 . S
H948 C971 0.950 . S
H949 C973 0.950 . S
H950 C974 0.950 . S
H951 C975 0.951 . S
H952 C977 0.951 . S
H953 C979 0.950 . S
H954 C980 0.950 . S
H955 C982 0.950 . S
H956 C985 0.950 . S
H957 C986 0.950 . S
H958 C988 0.950 . S
H959 C989 0.950 . S
C960 H942 0.951 . S
C960 C961 1.366 . S
C960 C962 1.388 . S
C961 C960 1.366 . S
C961 C965 1.385 1_545 S
C962 H943 0.951 . S
C962 C960 1.388 . S
C962 C963 1.366 . S
C963 C962 1.366 . S
C963 C964 1.414 1_545 S
C963 C966 1.499 . S
C964 H944 0.950 . S
C964 C963 1.414 1_565 S
C964 C965 1.374 . S
C965 H945 0.950 . S
C965 C961 1.385 1_565 S
C965 C964 1.374 . S
C966 C963 1.499 . S
C966 C967 1.373 1_545 S
C966 C968 1.389 . S
C967 H946 0.950 . S
C967 C966 1.373 1_565 S
C967 C983 1.377 . S
C968 C966 1.389 . S
C968 C969 1.524 . S
C968 C982 1.377 . S
C969 C968 1.524 . S
C969 C970 1.397 . S
C969 C974 1.363 . S
C970 H947 0.950 . S
C970 C969 1.397 . S
C970 C971 1.334 . S
C971 H948 0.950 . S
C971 C970 1.334 . S
C971 C972 1.287 . S
C972 C971 1.287 . S
C972 C973 1.524 . S
C972 H991 0.913 . S
C973 H949 0.950 . S
C973 C972 1.524 . S
C973 C974 1.415 . S
C974 H950 0.950 . S
C974 C969 1.363 . S
C974 C973 1.415 . S
C975 H951 0.951 . S
C975 C976 1.366 1_565 S
C975 C977 1.388 . S
C976 C975 1.366 1_545 S
C976 C980 1.385 . S
C977 H952 0.951 . S
C977 C975 1.388 . S
C977 C978 1.366 1_565 S
C978 C977 1.366 1_545 S
C978 C979 1.414 . S
C978 C981 1.499 . S
C979 H953 0.950 . S
C979 C978 1.414 . S
C979 C980 1.374 . S
C980 H954 0.950 . S
C980 C976 1.385 . S
C980 C979 1.374 . S
C981 C978 1.499 . S
C981 C982 1.373 . S
C981 C983 1.389 1_545 S
C982 H955 0.950 . S
C982 C968 1.377 . S
C982 C981 1.373 . S
C983 C967 1.377 . S
C983 C981 1.389 1_565 S
C983 C984 1.524 . S
C984 C983 1.524 . S
C984 C985 1.397 . S
C984 C989 1.363 . S
C985 H956 0.950 . S
C985 C984 1.397 . S
C985 C986 1.334 . S
C986 H957 0.950 . S
C986 C985 1.334 . S
C986 C987 1.287 . S
C987 C986 1.287 . S
C987 C988 1.524 . S
C987 H990 0.999 . S
C988 H958 0.950 . S
C988 C987 1.524 . S
C988 C989 1.415 . S
C989 H959 0.950 . S
C989 C984 1.363 . S
C989 C988 1.415 . S
H990 C987 0.999 . S
H991 C972 0.913 . S
H992 C1010 0.951 . S
H993 C1012 0.951 . S
H994 C1014 0.950 . S
H995 C1015 0.950 . S
H996 C1017 0.950 . S
H997 C1020 0.950 . S
H998 C1021 0.950 . S
H999 C1023 0.950 . S
H1000 C1024 0.950 . S
H1001 C1025 0.951 . S
H1002 C1027 0.951 . S
H1003 C1029 0.950 . S
H1004 C1030 0.950 . S
H1005 C1032 0.954 . S
H1006 C1035 0.950 . S
H1007 C1036 0.950 . S
H1008 C1038 0.950 . S
H1009 C1039 0.950 . S
C1010 H992 0.951 . S
C1010 C1011 1.366 . S
C1010 C1012 1.388 . S
C1011 C1010 1.366 . S
C1011 C1015 1.385 . S
C1012 H993 0.951 . S
C1012 C1010 1.388 . S
C1012 C1013 1.366 . S
C1013 C1012 1.366 . S
C1013 C1014 1.414 . S
C1013 C1016 1.499 . S
C1014 H994 0.950 . S
C1014 C1013 1.414 . S
C1014 C1015 1.374 . S
C1015 H995 0.950 . S
C1015 C1011 1.385 . S
C1015 C1014 1.374 . S
C1016 C1013 1.499 . S
C1016 C1017 1.373 . S
C1016 C1018 1.389 . S
C1017 H996 0.950 . S
C1017 C1016 1.373 . S
C1017 C1033 1.377 . S
C1018 C1016 1.389 . S
C1018 C1019 1.524 . S
C1018 C1032 1.377 . S
C1019 C1018 1.524 . S
C1019 C1020 1.397 . S
C1019 C1024 1.363 . S
C1020 H997 0.950 . S
C1020 C1019 1.397 . S
C1020 C1021 1.334 . S
C1021 H998 0.950 . S
C1021 C1020 1.334 . S
C1021 C1022 1.287 . S
C1022 C1021 1.287 . S
C1022 C1023 1.524 . S
C1022 H1041 0.913 . S
C1023 H999 0.950 . S
C1023 C1022 1.524 . S
C1023 C1024 1.415 . S
C1024 H1000 0.950 . S
C1024 C1019 1.363 . S
C1024 C1023 1.415 . S
C1025 H1001 0.951 . S
C1025 C1026 1.366 . S
C1025 C1027 1.388 . S
C1026 C1025 1.366 . S
C1026 C1030 1.385 . S
C1027 H1002 0.951 . S
C1027 C1025 1.388 . S
C1027 C1028 1.366 . S
C1028 C1027 1.366 . S
C1028 C1029 1.414 . S
C1028 C1031 1.499 . S
C1029 H1003 0.950 . S
C1029 C1028 1.414 . S
C1029 C1030 1.374 . S
C1030 H1004 0.950 . S
C1030 C1026 1.385 . S
C1030 C1029 1.374 . S
C1031 C1028 1.499 . S
C1031 C1032 1.373 1_554 S
C1031 C1033 1.389 1_554 S
C1032 H1005 0.954 . S
C1032 C1018 1.377 . S
C1032 C1031 1.373 1_556 S
C1033 C1017 1.377 . S
C1033 C1031 1.389 1_556 S
C1033 C1034 1.524 1_556 S
C1034 C1033 1.524 1_554 S
C1034 C1035 1.397 . S
C1034 C1039 1.363 1_554 S
C1035 H1006 0.950 . S
C1035 C1034 1.397 . S
C1035 C1036 1.334 . S
C1036 H1007 0.950 . S
C1036 C1035 1.334 . S
C1036 C1037 1.287 . S
C1037 C1036 1.287 . S
C1037 C1038 1.524 . S
C1037 H1040 0.999 . S
C1038 H1008 0.950 . S
C1038 C1037 1.524 . S
C1038 C1039 1.415 1_554 S
C1039 H1009 0.950 . S
C1039 C1034 1.363 1_556 S
C1039 C1038 1.415 1_556 S
H1040 C1037 0.999 . S
H1041 C1022 0.913 . S
H1042 C1060 0.951 . S
H1043 C1062 0.951 . S
H1044 C1064 0.950 . S
H1045 C1065 0.950 . S
H1046 C1067 0.950 1_655 S
H1047 C1070 0.950 . S
H1048 C1071 0.950 . S
H1049 C1073 0.950 . S
H1050 C1074 0.950 . S
H1051 C1075 0.951 . S
H1052 C1077 0.951 . S
H1053 C1079 0.950 . S
H1054 C1080 0.950 . S
H1055 C1082 0.950 . S
H1056 C1085 0.950 . S
H1057 C1086 0.950 . S
H1058 C1088 0.950 . S
H1059 C1089 0.950 . S
C1060 H1042 0.951 . S
C1060 C1061 1.366 . S
C1060 C1062 1.388 . S
C1061 C1060 1.366 . S
C1061 C1065 1.385 . S
C1062 H1043 0.951 . S
C1062 C1060 1.388 . S
C1062 C1063 1.366 . S
C1063 C1062 1.366 . S
C1063 C1064 1.414 . S
C1063 C1066 1.499 . S
C1064 H1044 0.950 . S
C1064 C1063 1.414 . S
C1064 C1065 1.374 . S
C1065 H1045 0.950 . S
C1065 C1061 1.385 . S
C1065 C1064 1.374 . S
C1066 C1063 1.499 . S
C1066 C1067 1.373 . S
C1066 C1068 1.389 . S
C1067 H1046 0.950 1_455 S
C1067 C1066 1.373 . S
C1067 C1083 1.377 . S
C1068 C1066 1.389 . S
C1068 C1069 1.524 . S
C1068 C1082 1.377 . S
C1069 C1068 1.524 . S
C1069 C1070 1.397 . S
C1069 C1074 1.363 . S
C1070 H1047 0.950 . S
C1070 C1069 1.397 . S
C1070 C1071 1.334 . S
C1071 H1048 0.950 . S
C1071 C1070 1.334 . S
C1071 C1072 1.287 . S
C1072 C1071 1.287 . S
C1072 C1073 1.524 . S
C1072 H1091 0.913 . S
C1073 H1049 0.950 . S
C1073 C1072 1.524 . S
C1073 C1074 1.415 . S
C1074 H1050 0.950 . S
C1074 C1069 1.363 . S
C1074 C1073 1.415 . S
C1075 H1051 0.951 . S
C1075 C1076 1.366 1_655 S
C1075 C1077 1.388 . S
C1076 C1075 1.366 1_455 S
C1076 C1080 1.385 . S
C1077 H1052 0.951 . S
C1077 C1075 1.388 . S
C1077 C1078 1.366 1_655 S
C1078 C1077 1.366 1_455 S
C1078 C1079 1.414 . S
C1078 C1081 1.499 . S
C1079 H1053 0.950 . S
C1079 C1078 1.414 . S
C1079 C1080 1.374 . S
C1080 H1054 0.950 . S
C1080 C1076 1.385 . S
C1080 C1079 1.374 . S
C1081 C1078 1.499 . S
C1081 C1082 1.373 . S
C1081 C1083 1.389 . S
C1082 H1055 0.950 . S
C1082 C1068 1.377 . S
C1082 C1081 1.373 . S
C1083 C1067 1.377 . S
C1083 C1081 1.389 . S
C1083 C1084 1.524 1_455 S
C1084 C1083 1.524 1_655 S
C1084 C1085 1.397 . S
C1084 C1089 1.363 . S
C1085 H1056 0.950 . S
C1085 C1084 1.397 . S
C1085 C1086 1.334 . S
C1086 H1057 0.950 . S
C1086 C1085 1.334 . S
C1086 C1087 1.287 . S
C1087 C1086 1.287 . S
C1087 C1088 1.524 . S
C1087 H1090 0.999 . S
C1088 H1058 0.950 . S
C1088 C1087 1.524 . S
C1088 C1089 1.415 . S
C1089 H1059 0.950 . S
C1089 C1084 1.363 . S
C1089 C1088 1.415 . S
H1090 C1087 0.999 . S
H1091 C1072 0.913 . S
C211 C6 0.730 . S
C226 C186 0.730 . S
C261 C59 1.934 . S
C276 C160 1.875 . S
C311 C86 1.239 . S
C326 C172 1.219 . S
C361 C15 0.301 . S
C376 C184 0.394 . S
C426 C162 1.810 . S
C411 C50 1.832 . S
C476 C174 1.096 . S
C461 C95 1.102 . S
C511 C46 1.267 . S
C526 C136 1.248 . S
C561 C99 3.390 . S
C576 C150 3.365 1_655 S
C611 C10 1.844 . S
C626 C126 1.833 1_565 S
C676 C138 1.099 . S
C661 C55 1.101 . S
C726 C148 2.588 . S
C711 C90 2.673 . S
C761 C19 1.934 . S
C776 C124 1.881 . S
C826 C153 1.747 . S
C811 C18 1.676 . S
C861 C49 1.425 . S
C876 C129 1.487 . S
C911 C98 1.506 . S
C926 C141 1.530 . S
C976 C177 1.538 . S
C961 C58 1.521 . S
C1026 C189 1.283 . S
C1011 C89 1.242 . S
C1061 C9 1.412 . S
C1076 C165 1.454 . S
