# Generated by pormake.
# Topology ptr, (4,4)-cn, num edge types: 1
# Building blocks:
#     Node 0, Type 0, BuildingBlock: QUQFOY_clean_sbu_1, # of connection points: 4
#     Node 1, Type 0, BuildingBlock: QUQFOY_clean_sbu_1, # of connection points: 4
#     Node 2, Type 0, BuildingBlock: QUQFOY_clean_sbu_1, # of connection points: 4
#     Node 3, Type 0, BuildingBlock: QUQFOY_clean_sbu_1, # of connection points: 4
#     Node 4, Type 0, BuildingBlock: QUQFOY_clean_sbu_1, # of connection points: 4
#     Node 5, Type 0, BuildingBlock: QUQFOY_clean_sbu_1, # of connection points: 4
#     Node 6, Type 0, BuildingBlock: QUQFOY_clean_sbu_1, # of connection points: 4
#     Node 7, Type 0, BuildingBlock: QUQFOY_clean_sbu_1, # of connection points: 4
#     Node 8, Type 0, BuildingBlock: QUQFOY_clean_sbu_1, # of connection points: 4
#     Node 9, Type 0, BuildingBlock: QUQFOY_clean_sbu_1, # of connection points: 4
#     Node 10, Type 0, BuildingBlock: QUQFOY_clean_sbu_1, # of connection points: 4
#     Node 11, Type 0, BuildingBlock: QUQFOY_clean_sbu_1, # of connection points: 4
#     Node 12, Type 0, BuildingBlock: QUQFOY_clean_sbu_1, # of connection points: 4
#     Node 13, Type 0, BuildingBlock: QUQFOY_clean_sbu_1, # of connection points: 4
#     Node 14, Type 0, BuildingBlock: QUQFOY_clean_sbu_1, # of connection points: 4
#     Node 15, Type 0, BuildingBlock: QUQFOY_clean_sbu_1, # of connection points: 4
#     Node 16, Type 0, BuildingBlock: QUQFOY_clean_sbu_1, # of connection points: 4
#     Node 17, Type 0, BuildingBlock: QUQFOY_clean_sbu_1, # of connection points: 4
#     Node 18, Type 1, BuildingBlock: KUFVIS_clean_linker_0, # of connection points: 4
#     Node 19, Type 1, BuildingBlock: KUFVIS_clean_linker_0, # of connection points: 4
#     Node 20, Type 1, BuildingBlock: KUFVIS_clean_linker_0, # of connection points: 4
#     Node 21, Type 1, BuildingBlock: KUFVIS_clean_linker_0, # of connection points: 4
#     Node 22, Type 1, BuildingBlock: KUFVIS_clean_linker_0, # of connection points: 4
#     Node 23, Type 1, BuildingBlock: KUFVIS_clean_linker_0, # of connection points: 4
#     Node 24, Type 1, BuildingBlock: KUFVIS_clean_linker_0, # of connection points: 4
#     Node 25, Type 1, BuildingBlock: KUFVIS_clean_linker_0, # of connection points: 4
#     Node 26, Type 1, BuildingBlock: KUFVIS_clean_linker_0, # of connection points: 4
#     Node 27, Type 1, BuildingBlock: KUFVIS_clean_linker_0, # of connection points: 4
#     Node 28, Type 1, BuildingBlock: KUFVIS_clean_linker_0, # of connection points: 4
#     Node 29, Type 1, BuildingBlock: KUFVIS_clean_linker_0, # of connection points: 4
#     Node 30, Type 1, BuildingBlock: KUFVIS_clean_linker_0, # of connection points: 4
#     Node 31, Type 1, BuildingBlock: KUFVIS_clean_linker_0, # of connection points: 4
#     Node 32, Type 1, BuildingBlock: KUFVIS_clean_linker_0, # of connection points: 4
#     Node 33, Type 1, BuildingBlock: KUFVIS_clean_linker_0, # of connection points: 4
#     Node 34, Type 1, BuildingBlock: KUFVIS_clean_linker_0, # of connection points: 4
#     Node 35, Type 1, BuildingBlock: KUFVIS_clean_linker_0, # of connection points: 4
#     Edge 36, Type (0, 1), BuildingBlock: KIFKEQ_clean_linker_1, # of connection points: 2
#     Edge 37, Type (0, 1), BuildingBlock: KIFKEQ_clean_linker_1, # of connection points: 2
#     Edge 38, Type (0, 1), BuildingBlock: KIFKEQ_clean_linker_1, # of connection points: 2
#     Edge 39, Type (0, 1), BuildingBlock: KIFKEQ_clean_linker_1, # of connection points: 2
#     Edge 40, Type (0, 1), BuildingBlock: KIFKEQ_clean_linker_1, # of connection points: 2
#     Edge 41, Type (0, 1), BuildingBlock: KIFKEQ_clean_linker_1, # of connection points: 2
#     Edge 42, Type (0, 1), BuildingBlock: KIFKEQ_clean_linker_1, # of connection points: 2
#     Edge 43, Type (0, 1), BuildingBlock: KIFKEQ_clean_linker_1, # of connection points: 2
#     Edge 44, Type (0, 1), BuildingBlock: KIFKEQ_clean_linker_1, # of connection points: 2
#     Edge 45, Type (0, 1), BuildingBlock: KIFKEQ_clean_linker_1, # of connection points: 2
#     Edge 46, Type (0, 1), BuildingBlock: KIFKEQ_clean_linker_1, # of connection points: 2
#     Edge 47, Type (0, 1), BuildingBlock: KIFKEQ_clean_linker_1, # of connection points: 2
#     Edge 48, Type (0, 1), BuildingBlock: KIFKEQ_clean_linker_1, # of connection points: 2
#     Edge 49, Type (0, 1), BuildingBlock: KIFKEQ_clean_linker_1, # of connection points: 2
#     Edge 50, Type (0, 1), BuildingBlock: KIFKEQ_clean_linker_1, # of connection points: 2
#     Edge 51, Type (0, 1), BuildingBlock: KIFKEQ_clean_linker_1, # of connection points: 2
#     Edge 52, Type (0, 1), BuildingBlock: KIFKEQ_clean_linker_1, # of connection points: 2
#     Edge 53, Type (0, 1), BuildingBlock: KIFKEQ_clean_linker_1, # of connection points: 2
#     Edge 54, Type (0, 1), BuildingBlock: KIFKEQ_clean_linker_1, # of connection points: 2
#     Edge 55, Type (0, 1), BuildingBlock: KIFKEQ_clean_linker_1, # of connection points: 2
#     Edge 56, Type (0, 1), BuildingBlock: KIFKEQ_clean_linker_1, # of connection points: 2
#     Edge 57, Type (0, 1), BuildingBlock: KIFKEQ_clean_linker_1, # of connection points: 2
#     Edge 58, Type (0, 1), BuildingBlock: KIFKEQ_clean_linker_1, # of connection points: 2
#     Edge 59, Type (0, 1), BuildingBlock: KIFKEQ_clean_linker_1, # of connection points: 2
#     Edge 60, Type (0, 1), BuildingBlock: KIFKEQ_clean_linker_1, # of connection points: 2
#     Edge 61, Type (0, 1), BuildingBlock: KIFKEQ_clean_linker_1, # of connection points: 2
#     Edge 62, Type (0, 1), BuildingBlock: KIFKEQ_clean_linker_1, # of connection points: 2
#     Edge 63, Type (0, 1), BuildingBlock: KIFKEQ_clean_linker_1, # of connection points: 2
#     Edge 64, Type (0, 1), BuildingBlock: KIFKEQ_clean_linker_1, # of connection points: 2
#     Edge 65, Type (0, 1), BuildingBlock: KIFKEQ_clean_linker_1, # of connection points: 2
#     Edge 66, Type (0, 1), BuildingBlock: KIFKEQ_clean_linker_1, # of connection points: 2
#     Edge 67, Type (0, 1), BuildingBlock: KIFKEQ_clean_linker_1, # of connection points: 2
#     Edge 68, Type (0, 1), BuildingBlock: KIFKEQ_clean_linker_1, # of connection points: 2
#     Edge 69, Type (0, 1), BuildingBlock: KIFKEQ_clean_linker_1, # of connection points: 2
#     Edge 70, Type (0, 1), BuildingBlock: KIFKEQ_clean_linker_1, # of connection points: 2
#     Edge 71, Type (0, 1), BuildingBlock: KIFKEQ_clean_linker_1, # of connection points: 2
#     Edge 72, Type (0, 1), BuildingBlock: KIFKEQ_clean_linker_1, # of connection points: 2
#     Edge 73, Type (0, 1), BuildingBlock: KIFKEQ_clean_linker_1, # of connection points: 2
#     Edge 74, Type (0, 1), BuildingBlock: KIFKEQ_clean_linker_1, # of connection points: 2
#     Edge 75, Type (0, 1), BuildingBlock: KIFKEQ_clean_linker_1, # of connection points: 2
#     Edge 76, Type (0, 1), BuildingBlock: KIFKEQ_clean_linker_1, # of connection points: 2
#     Edge 77, Type (0, 1), BuildingBlock: KIFKEQ_clean_linker_1, # of connection points: 2
#     Edge 78, Type (0, 1), BuildingBlock: KIFKEQ_clean_linker_1, # of connection points: 2
#     Edge 79, Type (0, 1), BuildingBlock: KIFKEQ_clean_linker_1, # of connection points: 2
#     Edge 80, Type (0, 1), BuildingBlock: KIFKEQ_clean_linker_1, # of connection points: 2
#     Edge 81, Type (0, 1), BuildingBlock: KIFKEQ_clean_linker_1, # of connection points: 2
#     Edge 82, Type (0, 1), BuildingBlock: KIFKEQ_clean_linker_1, # of connection points: 2
#     Edge 83, Type (0, 1), BuildingBlock: KIFKEQ_clean_linker_1, # of connection points: 2
#     Edge 84, Type (0, 1), BuildingBlock: KIFKEQ_clean_linker_1, # of connection points: 2
#     Edge 85, Type (0, 1), BuildingBlock: KIFKEQ_clean_linker_1, # of connection points: 2
#     Edge 86, Type (0, 1), BuildingBlock: KIFKEQ_clean_linker_1, # of connection points: 2
#     Edge 87, Type (0, 1), BuildingBlock: KIFKEQ_clean_linker_1, # of connection points: 2
#     Edge 88, Type (0, 1), BuildingBlock: KIFKEQ_clean_linker_1, # of connection points: 2
#     Edge 89, Type (0, 1), BuildingBlock: KIFKEQ_clean_linker_1, # of connection points: 2
#     Edge 90, Type (0, 1), BuildingBlock: KIFKEQ_clean_linker_1, # of connection points: 2
#     Edge 91, Type (0, 1), BuildingBlock: KIFKEQ_clean_linker_1, # of connection points: 2
#     Edge 92, Type (0, 1), BuildingBlock: KIFKEQ_clean_linker_1, # of connection points: 2
#     Edge 93, Type (0, 1), BuildingBlock: KIFKEQ_clean_linker_1, # of connection points: 2
#     Edge 94, Type (0, 1), BuildingBlock: KIFKEQ_clean_linker_1, # of connection points: 2
#     Edge 95, Type (0, 1), BuildingBlock: KIFKEQ_clean_linker_1, # of connection points: 2
#     Edge 96, Type (0, 1), BuildingBlock: KIFKEQ_clean_linker_1, # of connection points: 2
#     Edge 97, Type (0, 1), BuildingBlock: KIFKEQ_clean_linker_1, # of connection points: 2
#     Edge 98, Type (0, 1), BuildingBlock: KIFKEQ_clean_linker_1, # of connection points: 2
#     Edge 99, Type (0, 1), BuildingBlock: KIFKEQ_clean_linker_1, # of connection points: 2
#     Edge 100, Type (0, 1), BuildingBlock: KIFKEQ_clean_linker_1, # of connection points: 2
#     Edge 101, Type (0, 1), BuildingBlock: KIFKEQ_clean_linker_1, # of connection points: 2
#     Edge 102, Type (0, 1), BuildingBlock: KIFKEQ_clean_linker_1, # of connection points: 2
#     Edge 103, Type (0, 1), BuildingBlock: KIFKEQ_clean_linker_1, # of connection points: 2
#     Edge 104, Type (0, 1), BuildingBlock: KIFKEQ_clean_linker_1, # of connection points: 2
#     Edge 105, Type (0, 1), BuildingBlock: KIFKEQ_clean_linker_1, # of connection points: 2
#     Edge 106, Type (0, 1), BuildingBlock: KIFKEQ_clean_linker_1, # of connection points: 2
#     Edge 107, Type (0, 1), BuildingBlock: KIFKEQ_clean_linker_1, # of connection points: 2
# Relax obj value: 0.019
# Max RMSD: 0.075
# Mean RMSD: 0.059
data_MOF--net-ptr--node1-QUQFOY_clean_sbu_1--node2-KUFVIS_clean_linker_0--edge1-KIFKEQ_clean_linker_1
_symmetry_space_group_name_H-M    P1
_symmetry_Int_Tables_number       1
_symmetry_cell_setting            triclinic
loop_
_symmetry_equiv_pos_as_xyz
'x, y, z'
_cell_length_a     79.724228
_cell_length_b     79.899632
_cell_length_c     52.106995
_cell_angle_alpha  90.077212
_cell_angle_beta   89.904615
_cell_angle_gamma 120.07693
loop_
_atom_site_label
_atom_site_type_symbol
_atom_site_fract_x
_atom_site_fract_y
_atom_site_fract_z
_atom_type_partial_charge
O0 O 0.05227 0.41405 0.03609 0.0
Cd1 Cd 0.0582 0.40347 0.00317 0.0
Cd2 Cd 1.01773 0.3847 -0.00092 0.0
O3 O 1.02031 0.39804 0.03399 0.0
O4 O 0.08593 0.41061 0.00723 0.0
O5 O 0.06213 0.38035 0.00413 0.0
C6 C 0.08041 0.39244 0.00702 0.0
C7 C 0.99338 0.35222 -0.00628 0.0
C8 C 1.03589 0.4101 0.04525 0.0
C9 C 0.04185 0.41421 0.95839 0.0
O10 O 1.02512 0.40247 0.96729 0.0
O11 O 0.057 0.41616 0.96926 0.0
O12 O 0.98933 0.3659 -0.00471 0.0
O13 O 1.01138 0.35691 -0.00448 0.0
O14 O 0.64236 0.64915 0.03504 0.0
Cd15 Cd 0.65487 0.66508 0.00215 0.0
Cd16 Cd 0.67164 0.6417 0.00185 0.0
O17 O 0.65742 0.63232 0.03668 0.0
O18 O 0.64889 0.68653 0.00424 0.0
O19 O 0.67879 0.69164 0.00439 0.0
C20 C 0.66724 0.69857 0.00566 0.0
C21 C 0.70414 0.64957 -0.00255 0.0
C22 C 0.64539 0.63672 0.04609 0.0
C23 C 0.64429 0.63708 0.95847 0.0
O24 O 0.65452 0.63107 0.96946 0.0
O25 O 0.64326 0.65128 0.96769 0.0
O26 O 0.69033 0.6319 -0.00023 0.0
O27 O 0.69957 0.66296 -0.00168 0.0
O28 O 0.42713 0.0355 0.97197 0.0
Cd29 Cd 0.41681 0.04238 0.00454 0.0
Cd30 Cd 0.39699 1.00157 0.00883 0.0
O31 O 0.41053 1.00359 0.9742 0.0
O32 O 0.42453 0.07022 -0.0002 0.0
O33 O 0.394 0.04693 0.00264 0.0
C34 C 0.40641 0.06508 -0.00041 0.0
C35 C 0.3643 0.97751 0.01365 0.0
C36 C 0.42283 1.01902 0.96288 0.0
C37 C 0.42618 0.02571 0.05034 0.0
O38 O 0.4143 1.00912 0.04125 0.0
O39 O 0.42879 0.04099 0.03916 0.0
O40 O 0.378 0.97341 0.01392 0.0
O41 O 0.3691 0.99539 0.0103 0.0
O42 O 1.01599 0.62981 0.97345 0.0
Cd43 Cd 1.01203 0.64195 0.00636 0.0
Cd44 Cd 0.05206 0.65988 0.00634 0.0
O45 O 0.04796 0.64542 0.97183 0.0
O46 O 0.98432 0.63526 0.00426 0.0
O47 O 1.00865 0.66538 0.00452 0.0
C48 C 0.9902 0.65349 0.00318 0.0
C49 C 0.07496 0.69301 0.00986 0.0
C50 C 1.03161 0.6331 0.96247 0.0
C51 C 1.03016 0.63245 0.0501 0.0
O52 O 0.04636 0.64325 0.03915 0.0
O53 O 1.01461 0.63062 0.04076 0.0
O54 O 0.08013 0.6801 0.00866 0.0
O55 O 0.05665 0.68715 0.00842 0.0
O56 O 0.43035 0.39948 0.97158 0.0
Cd57 Cd 0.41898 0.38329 0.0045 0.0
Cd58 Cd 0.40093 0.40627 0.00561 0.0
O59 O 0.41497 0.41604 0.9707 0.0
O60 O 0.42736 0.36358 0.00141 0.0
O61 O 0.39661 0.35573 0.00301 0.0
C62 C 0.40936 0.35035 0.0008 0.0
C63 C 0.3684 0.39839 0.01029 0.0
C64 C 0.42704 0.41184 0.96091 0.0
C65 C 0.42903 0.4112 0.04837 0.0
O66 O 0.41821 0.41674 0.03793 0.0
O67 O 0.4306 0.39742 0.0387 0.0
O68 O 0.38223 0.41607 0.00823 0.0
O69 O 0.37296 0.385 0.0091 0.0
O70 O 0.6409 1.0028 0.03525 0.0
Cd71 Cd 0.65414 1.0006 0.00241 0.0
Cd72 Cd 0.67464 0.04016 0.00791 0.0
O73 O 0.65963 0.03409 0.04227 0.0
O74 O 0.64619 0.9726 0.00018 0.0
O75 O 0.67657 0.99574 0.00576 0.0
C76 C 0.66406 0.97751 0.00385 0.0
C77 C 0.7081 0.06183 0.00548 0.0
C78 C 0.64554 1.01771 0.04887 0.0
C79 C 0.64825 0.02382 0.96202 0.0
O80 O 0.65905 0.03864 0.97554 0.0
O81 O 0.64539 1.00724 0.96848 0.0
O82 O 0.69599 0.06771 0.01001 0.0
O83 O 0.70127 0.04342 0.00328 0.0
O84 O 0.71592 0.74925 0.37105 0.0
Cd85 Cd 0.71959 0.7365 0.3386 0.0
Cd86 Cd 0.67981 0.71603 0.34122 0.0
O87 O 0.68417 0.73107 0.37518 0.0
O88 O 0.74761 0.74394 0.33808 0.0
O89 O 0.72389 0.71373 0.34251 0.0
C90 C 0.74227 0.72597 0.34138 0.0
C91 C 0.65821 0.68258 0.339 0.0
C92 C 0.70033 0.74484 0.38308 0.0
C93 C 0.69819 0.74282 0.29594 0.0
O94 O 0.68278 0.73149 0.30813 0.0
O95 O 0.71457 0.74598 0.30407 0.0
O96 O 0.65215 0.69477 0.34089 0.0
O97 O 0.67672 0.68936 0.33923 0.0
O98 O 0.30853 0.98022 0.36906 0.0
Cd99 Cd 0.32138 0.996 0.33623 0.0
Cd100 Cd 0.33816 0.97283 0.3365 0.0
O101 O 0.32417 0.96398 0.37159 0.0
O102 O 0.31526 1.0174 0.33662 0.0
O103 O 0.34512 1.02259 0.33967 0.0
C104 C 0.3335 0.02945 0.33933 0.0
C105 C 0.37095 0.98183 0.33196 0.0
C106 C 0.31186 0.96816 0.3806 0.0
C107 C 0.31084 0.96746 0.29304 0.0
O108 O 0.32089 0.96137 0.30436 0.0
O109 O 0.31012 0.98195 0.30181 0.0
O110 O 0.35765 0.96401 0.33495 0.0
O111 O 0.36569 0.99474 0.33226 0.0
O112 O 0.09695 0.37451 0.30486 0.0
Cd113 Cd 0.0858 0.38017 0.3375 0.0
Cd114 Cd 0.06659 0.34048 0.34087 0.0
O115 O 0.08059 0.34262 0.3065 0.0
O116 O 0.09204 0.40757 0.33351 0.0
O117 O 0.06204 0.38305 0.33598 0.0
C118 C 0.07369 0.40142 0.33332 0.0
C119 C 1.03328 0.3182 0.34513 0.0
C120 C 0.09301 0.35821 0.29558 0.0
C121 C 0.09533 0.36349 0.38286 0.0
O122 O 0.08349 0.34697 0.37355 0.0
O123 O 0.09789 0.37881 0.3719 0.0
O124 O 0.04599 0.31272 0.34485 0.0
O125 O 0.03945 0.33646 0.34247 0.0
O126 O 0.69128 0.96839 0.30224 0.0
Cd127 Cd 0.68699 0.98014 0.3353 0.0
Cd128 Cd 0.72761 1.00048 0.33308 0.0
O129 O 0.72308 0.98628 0.29837 0.0
O130 O 0.65872 0.9718 0.33437 0.0
O131 O 0.68177 1.00246 0.33338 0.0
C132 C 0.6635 0.98974 0.33278 0.0
C133 C 0.7508 0.03341 0.33711 0.0
C134 C 0.70685 0.97285 0.29015 0.0
C135 C 0.70806 0.97273 0.37745 0.0
O136 O 0.72358 0.98401 0.36543 0.0
O137 O 0.69176 0.96991 0.36944 0.0
O138 O 0.75577 1.02049 0.33383 0.0
O139 O 0.7325 0.02771 0.3372 0.0
O140 O 0.09773 0.73087 0.31074 0.0
Cd141 Cd 0.08538 0.71448 0.34321 0.0
Cd142 Cd 0.0674 0.73742 0.34322 0.0
O143 O 0.08163 0.74666 0.30835 0.0
O144 O 0.09366 0.69465 0.34154 0.0
O145 O 0.06302 0.68709 0.33939 0.0
C146 C 0.07574 0.68159 0.33878 0.0
C147 C 1.03487 0.72965 0.34741 0.0
C148 C 0.09416 0.74281 0.29935 0.0
C149 C 0.09477 0.74241 0.38688 0.0
O150 O 0.08453 0.74828 0.37559 0.0
O151 O 0.09599 0.72824 0.37793 0.0
O152 O 0.04872 0.74728 0.34497 0.0
O153 O 0.03941 0.71623 0.34684 0.0
O154 O 0.31023 0.33988 0.3663 0.0
Cd155 Cd 0.32323 0.33577 0.33452 0.0
Cd156 Cd 0.34096 0.37642 0.33428 0.0
O157 O 0.32579 0.3718 0.36827 0.0
O158 O 0.31525 0.30777 0.3364 0.0
O159 O 0.34575 0.33115 0.33932 0.0
C160 C 0.3332 0.31288 0.33962 0.0
C161 C 0.37369 0.40068 0.33125 0.0
C162 C 0.31327 0.3554 0.37723 0.0
C163 C 0.31468 0.35384 0.28978 0.0
O164 O 0.32478 0.37002 0.30102 0.0
O165 O 0.31314 0.33848 0.29925 0.0
O166 O 0.35999 0.4048 0.33156 0.0
O167 O 0.36887 0.3827 0.33342 0.0
O168 O 0.38908 0.0843 0.70066 0.0
Cd169 Cd 0.39105 0.07052 0.66833 0.0
Cd170 Cd 0.35157 0.05048 0.67383 0.0
O171 O 0.35777 0.06564 0.70801 0.0
O172 O 0.41887 0.07757 0.6667 0.0
O173 O 0.39493 0.04765 0.67285 0.0
C174 C 0.41334 0.05967 0.67113 0.0
C175 C 0.32954 1.01714 0.67199 0.0
C176 C 0.37421 0.07976 0.71438 0.0
C177 C 0.36818 0.07631 0.62744 0.0
O178 O 0.35332 0.06587 0.64115 0.0
O179 O 0.38472 0.07897 0.63395 0.0
O180 O 0.32386 0.02943 0.67615 0.0
O181 O 0.34796 0.02373 0.66976 0.0
O182 O 0.97929 0.30924 0.71179 0.0
Cd183 Cd 0.98887 0.32638 0.67927 0.0
Cd184 Cd 1.0119 0.30841 0.67687 0.0
O185 O 0.9982 0.29636 0.71117 0.0
O186 O 0.97923 0.34507 0.68369 0.0
O187 O 1.01033 0.35435 0.68061 0.0
C188 C 0.99702 0.35891 0.68365 0.0
C189 C 0.04488 0.31821 0.672 0.0
C190 C 0.98471 0.29812 0.72154 0.0
C191 C 0.98237 0.30035 0.6344 0.0
O192 O 0.99521 0.29736 0.64427 0.0
O193 O 0.97803 0.31211 0.64481 0.0
O194 O 1.03169 0.30021 0.67249 0.0
O195 O 0.03945 0.33084 0.675 0.0
O196 O 0.76373 0.71129 0.63879 0.0
Cd197 Cd 0.75221 0.71592 0.67185 0.0
Cd198 Cd 0.73375 0.6748 0.67191 0.0
O199 O 0.74783 0.67937 0.63698 0.0
O200 O 0.76075 0.74407 0.6695 0.0
O201 O 0.72994 0.72126 0.6704 0.0
C202 C 0.74277 0.7394 0.66875 0.0
C203 C 0.70124 0.65014 0.67657 0.0
C204 C 0.76019 0.69569 0.62764 0.0
C205 C 0.76159 0.69725 0.71528 0.0
O206 O 0.75091 0.68111 0.70421 0.0
O207 O 0.76329 0.71279 0.70617 0.0
O208 O 0.71504 0.64629 0.67403 0.0
O209 O 0.70581 0.66811 0.67574 0.0
O210 O 0.35527 0.29722 0.63631 0.0
Cd211 Cd 0.34905 0.30784 0.66906 0.0
Cd212 Cd 0.38896 0.3279 0.6729 0.0
O213 O 0.38716 0.31481 0.63799 0.0
O214 O 0.32137 0.30101 0.66514 0.0
O215 O 0.3455 0.33117 0.66757 0.0
C216 C 0.32714 0.31924 0.66494 0.0
C217 C 0.41129 0.36105 0.67732 0.0
C218 C 0.37184 0.30207 0.62693 0.0
C219 C 0.36629 0.29849 0.71427 0.0
O220 O 0.38283 0.31052 0.70506 0.0
O221 O 0.35087 0.29589 0.70341 0.0
O222 O 0.41684 0.34846 0.6757 0.0
O223 O 0.3929 0.35486 0.67632 0.0
O224 O 0.76001 0.07075 0.63396 0.0
Cd225 Cd 0.74893 0.05401 0.6667 0.0
Cd226 Cd 0.72708 0.07192 0.66723 0.0
O227 O 0.74101 0.08346 0.63279 0.0
O228 O 0.75644 0.03362 0.6642 0.0
O229 O 0.72596 0.02686 0.6647 0.0
C230 C 0.73826 1.02083 0.66319 0.0
C231 C 0.69359 0.05982 0.67093 0.0
C232 C 0.75471 0.08166 0.62325 0.0
C233 C 0.75547 0.08055 0.71093 0.0
O234 O 0.7432 0.08398 0.70012 0.0
O235 O 0.75939 0.06826 0.7013 0.0
O236 O 0.70575 0.07811 0.66963 0.0
O237 O 0.7004 0.04818 0.6694 0.0
O238 O 0.97355 0.67162 0.70082 0.0
Cd239 Cd 0.98585 0.66705 0.66847 0.0
Cd240 Cd 1.0047 0.70745 0.66667 0.0
O241 O 0.99055 0.70355 0.70133 0.0
O242 O 0.97923 0.6394 0.67022 0.0
O243 O 1.00931 0.66382 0.67239 0.0
C244 C 0.99745 0.64537 0.67275 0.0
C245 C 0.03735 0.73186 0.66254 0.0
C246 C 0.97772 0.68767 0.7112 0.0
C247 C 0.97684 0.68493 0.62371 0.0
O248 O 0.98772 0.70125 0.63422 0.0
O249 O 0.97498 0.66953 0.63356 0.0
O250 O 1.02364 0.73589 0.66449 0.0
O251 O 1.03259 0.71385 0.66348 0.0
H252 H 0.26462 0.36193 0.11502 0.0
H253 H 0.2233 0.37183 0.07571 0.0
H254 H 0.21123 0.34708 0.1523 0.0
H255 H 0.194 0.36073 0.15648 0.0
H256 H 0.14464 0.35564 0.11768 0.0
H257 H 0.19123 0.35837 0.07324 0.0
C258 C 0.25048 0.36081 0.11464 0.0
C259 C 0.23863 0.35427 0.13632 0.0
C260 C 0.24482 0.36674 0.09273 0.0
C261 C 0.22698 0.3664 0.09249 0.0
C262 C 0.21444 0.35955 0.11414 0.0
C263 C 0.2205 0.35315 0.13572 0.0
C264 C 0.19527 0.35915 0.11474 0.0
C265 C 0.18658 0.35921 0.13854 0.0
C266 C 0.16803 0.35711 0.13965 0.0
C267 C 0.15854 0.35626 0.11682 0.0
C268 C 0.16697 0.35712 0.09293 0.0
C269 C 0.18524 0.35838 0.09187 0.0
H270 H 0.69528 0.91099 0.11264 0.0
H271 H 0.68964 0.86101 0.0747 0.0
H272 H 0.70573 0.87147 0.15525 0.0
H273 H 0.69265 0.84055 0.15776 0.0
H274 H 0.69795 0.79576 0.12094 0.0
H275 H 0.70288 0.84265 0.07558 0.0
C276 C 0.69611 0.89785 0.11342 0.0
C277 C 0.70007 0.89193 0.1367 0.0
C278 C 0.69281 0.88697 0.09113 0.0
C279 C 0.69331 0.86966 0.09196 0.0
C280 C 0.69796 0.8635 0.1151 0.0
C281 C 0.7018 0.87527 0.13725 0.0
C282 C 0.69813 0.84467 0.1165 0.0
C283 C 0.69547 0.83504 0.14033 0.0
C284 C 0.69564 0.8176 0.14194 0.0
C285 C 0.6981 0.80939 0.11966 0.0
C286 C 0.70044 0.8182 0.09574 0.0
C287 C 0.70058 0.83586 0.09418 0.0
H288 H 0.25764 0.91275 0.11796 0.0
H289 H 0.21962 0.86115 0.07635 0.0
H290 H 0.20785 0.86818 0.15583 0.0
H291 H 0.19488 0.83727 0.15764 0.0
H292 H 0.14645 0.79096 0.11984 0.0
H293 H 0.18772 0.8393 0.07532 0.0
C294 C 0.24439 0.89883 0.11725 0.0
C295 C 0.23348 0.89133 0.13957 0.0
C296 C 0.23917 0.88832 0.09429 0.0
C297 C 0.22292 0.86947 0.09388 0.0
C298 C 0.21124 0.86158 0.11613 0.0
C299 C 0.21664 0.87311 0.13867 0.0
C300 C 0.19367 0.84148 0.11645 0.0
C301 C 0.18688 0.83143 0.14004 0.0
C302 C 0.16976 0.81347 0.1414 0.0
C303 C 0.15969 0.80488 0.11886 0.0
C304 C 0.16624 0.81392 0.09505 0.0
C305 C 0.1832 0.83224 0.09378 0.0
H306 H 0.38026 0.13629 0.88997 0.0
H307 H 0.3713 0.17665 0.93362 0.0
H308 H 0.38119 0.1837 0.85133 0.0
H309 H 0.36336 0.1967 0.8524 0.0
H310 H 0.36687 0.24568 0.8901 0.0
H311 H 0.3804 0.20804 0.93247 0.0
C312 C 0.37916 0.14928 0.89073 0.0
C313 C 0.38052 0.15912 0.86807 0.0
C314 C 0.37616 0.15568 0.91434 0.0
C315 C 0.37423 0.17229 0.91529 0.0
C316 C 0.37543 0.18258 0.89246 0.0
C317 C 0.37913 0.1759 0.86907 0.0
C318 C 0.3725 0.19988 0.89247 0.0
C319 C 0.36671 0.2053 0.86965 0.0
C320 C 0.36499 0.22191 0.8686 0.0
C321 C 0.36776 0.23258 0.89097 0.0
C322 C 0.37273 0.22736 0.91417 0.0
C323 C 0.37563 0.21133 0.91474 0.0
H324 H 0.80369 0.13405 0.89177 0.0
H325 H 0.85204 0.17619 0.93517 0.0
H326 H 0.85202 0.17946 0.85204 0.0
H327 H 0.88328 0.19314 0.85589 0.0
H328 H 0.92593 0.2449 0.8928 0.0
H329 H 0.87275 0.20808 0.93203 0.0
C330 C 0.81791 0.14696 0.89215 0.0
C331 C 0.82717 0.15568 0.86914 0.0
C332 C 0.82666 0.15455 0.91579 0.0
C333 C 0.84534 0.17091 0.91664 0.0
C334 C 0.85516 0.18017 0.89366 0.0
C335 C 0.84557 0.17239 0.87001 0.0
C336 C 0.87515 0.19786 0.89406 0.0
C337 C 0.88754 0.20256 0.87244 0.0
C338 C 0.90568 0.2196 0.87171 0.0
C339 C 0.91209 0.23152 0.89332 0.0
C340 C 0.90044 0.22721 0.91511 0.0
C341 C 0.88189 0.21061 0.91543 0.0
H342 H 0.80813 0.68597 0.89137 0.0
H343 H 0.84832 0.67485 0.93159 0.0
H344 H 0.86166 0.69981 0.85518 0.0
H345 H 0.87775 0.68478 0.85142 0.0
H346 H 0.92651 0.68899 0.89091 0.0
H347 H 0.88057 0.68836 0.93458 0.0
C348 C 0.82211 0.68676 0.89203 0.0
C349 C 0.83422 0.69317 0.87056 0.0
C350 C 0.82734 0.68058 0.9141 0.0
C351 C 0.84496 0.68048 0.91471 0.0
C352 C 0.8577 0.68713 0.8933 0.0
C353 C 0.85214 0.69385 0.87157 0.0
C354 C 0.87656 0.68695 0.89306 0.0
C355 C 0.8851 0.6863 0.86942 0.0
C356 C 0.90342 0.68786 0.86857 0.0
C357 C 0.91278 0.68875 0.89154 0.0
C358 C 0.90451 0.68859 0.91531 0.0
C359 C 0.88647 0.68783 0.91608 0.0
H360 H 0.92785 0.69235 0.44905 0.0
H361 H 0.89097 0.7079 0.40868 0.0
H362 H 0.87558 0.68286 0.48497 0.0
H363 H 0.86165 0.69997 0.48858 0.0
H364 H 0.81643 0.70274 0.44845 0.0
H365 H 0.85924 0.69739 0.40532 0.0
C366 C 0.91442 0.69269 0.44826 0.0
C367 C 0.9023 0.6872 0.46971 0.0
C368 C 0.91016 0.69973 0.42619 0.0
C369 C 0.89347 0.70152 0.42549 0.0
C370 C 0.88057 0.69562 0.44676 0.0
C371 C 0.88517 0.68809 0.46856 0.0
C372 C 0.8628 0.69783 0.44691 0.0
C373 C 0.85474 0.6994 0.47051 0.0
C374 C 0.83794 0.70092 0.47122 0.0
C375 C 0.82941 0.70156 0.44815 0.0
C376 C 0.83728 0.70072 0.42457 0.0
C377 C 0.85374 0.69855 0.42383 0.0
H378 H 0.37043 0.24772 0.4511 0.0
H379 H 0.35642 0.19579 0.41069 0.0
H380 H 0.37732 0.20425 0.48922 0.0
H381 H 0.3616 0.17337 0.49153 0.0
H382 H 0.35848 0.12542 0.45101 0.0
H383 H 0.36577 0.17428 0.40833 0.0
C384 C 0.36996 0.23391 0.45069 0.0
C385 C 0.37405 0.22689 0.47292 0.0
C386 C 0.36408 0.2229 0.42825 0.0
C387 C 0.36204 0.20438 0.42791 0.0
C388 C 0.36672 0.19704 0.44985 0.0
C389 C 0.37307 0.20883 0.47215 0.0
C390 C 0.36443 0.17706 0.44993 0.0
C391 C 0.36233 0.1672 0.4734 0.0
C392 C 0.3605 0.14879 0.47392 0.0
C393 C 0.35998 0.13969 0.45082 0.0
C394 C 0.36146 0.1487 0.42734 0.0
C395 C 0.36406 0.16745 0.4268 0.0
H396 H 0.93293 0.24963 0.45548 0.0
H397 H 0.88629 0.2074 0.4096 0.0
H398 H 0.88646 0.2006 0.49225 0.0
H399 H 0.85517 0.18565 0.48857 0.0
H400 H 0.8143 0.13463 0.44855 0.0
H401 H 0.8666 0.1753 0.4104 0.0
C402 C 0.91916 0.23625 0.45415 0.0
C403 C 0.9103 0.22602 0.47651 0.0
C404 C 0.91077 0.22948 0.43005 0.0
C405 C 0.8928 0.21217 0.42833 0.0
C406 C 0.88325 0.20155 0.45078 0.0
C407 C 0.89257 0.20866 0.47475 0.0
C408 C 0.86376 0.18321 0.4496 0.0
C409 C 0.85135 0.17695 0.47135 0.0
C410 C 0.8337 0.15935 0.47127 0.0
C411 C 0.82778 0.14838 0.44878 0.0
C412 C 0.83939 0.15431 0.42681 0.0
C413 C 0.85747 0.17149 0.42725 0.0
H414 H 1.03268 0.462 0.2221 0.0
H415 H 1.03501 0.50833 0.26623 0.0
H416 H 0.03713 0.51081 0.18293 0.0
H417 H 1.02478 0.52908 0.18648 0.0
H418 H 0.03874 0.58166 0.22507 0.0
H419 H 0.0476 0.53974 0.26414 0.0
C420 C 1.03311 0.47578 0.2229 0.0
C421 C 1.03376 0.4851 0.20002 0.0
C422 C 1.03401 0.48427 0.24671 0.0
C423 C 1.03504 0.50238 0.24761 0.0
C424 C 1.03569 0.5123 0.22468 0.0
C425 C 1.0357 0.50354 0.20095 0.0
C426 C 0.03622 0.5315 0.2252 0.0
C427 C 1.03045 0.53801 0.20339 0.0
C428 C 1.03162 0.55614 0.20306 0.0
C429 C 0.03763 0.56756 0.22515 0.0
C430 C 0.04293 0.56143 0.24719 0.0
C431 C 0.04257 0.54365 0.24717 0.0
H432 H 0.48013 0.46491 0.22435 0.0
H433 H 0.51771 0.51636 0.26657 0.0
H434 H 0.53024 0.50974 0.18731 0.0
H435 H 0.54318 0.54077 0.18576 0.0
H436 H 0.59141 0.58658 0.2246 0.0
H437 H 0.54973 0.53777 0.26803 0.0
C438 C 0.49335 0.47885 0.2253 0.0
C439 C 0.50449 0.48646 0.20317 0.0
C440 C 0.49832 0.48925 0.24834 0.0
C441 C 0.51456 0.50811 0.24899 0.0
C442 C 0.52645 0.5161 0.22692 0.0
C443 C 0.52128 0.50469 0.20432 0.0
C444 C 0.54407 0.53615 0.22689 0.0
C445 C 0.55106 0.54643 0.20349 0.0
C446 C 0.56824 0.56439 0.20251 0.0
C447 C 0.57816 0.57266 0.22526 0.0
C448 C 0.57142 0.56332 0.24888 0.0
C449 C 0.5544 0.54506 0.24973 0.0
H450 H 0.47662 1.02066 0.22631 0.0
H451 H 0.51497 1.00692 0.2666 0.0
H452 H 0.52814 0.02933 0.18891 0.0
H453 H 0.54108 1.01095 0.18608 0.0
H454 H 0.58924 1.01261 0.2241 0.0
H455 H 0.54783 1.01966 0.26852 0.0
C456 C 0.49013 1.02047 0.22684 0.0
C457 C 0.50172 0.02536 0.20488 0.0
C458 C 0.49504 1.01419 0.24912 0.0
C459 C 0.51188 1.01264 0.24958 0.0
C460 C 0.52419 1.01792 0.2278 0.0
C461 C 0.51894 0.02463 0.20573 0.0
C462 C 0.54203 1.01589 0.22738 0.0
C463 C 0.54896 1.01287 0.20374 0.0
C464 C 0.566 1.01187 0.20251 0.0
C465 C 0.57602 1.01334 0.22506 0.0
C466 C 0.56951 1.01596 0.24885 0.0
C467 C 0.55247 1.01718 0.25008 0.0
H468 H 0.59751 0.02988 0.78727 0.0
H469 H 0.54892 1.0227 0.74334 0.0
H470 H 0.55133 0.03199 0.82568 0.0
H471 H 0.52003 1.01505 0.82355 0.0
H472 H 0.47708 1.02248 0.78453 0.0
H473 H 0.52889 0.03467 0.74449 0.0
C474 C 0.58354 0.0291 0.78643 0.0
C475 C 0.5751 0.03072 0.80907 0.0
C476 C 0.57431 0.02646 0.76274 0.0
C477 C 0.55608 0.02527 0.76173 0.0
C478 C 0.54708 0.02678 0.78446 0.0
C479 C 0.55712 0.02987 0.80799 0.0
C480 C 0.52734 0.02505 0.78401 0.0
C481 C 0.51553 1.01923 0.80631 0.0
C482 C 0.49762 1.01863 0.80682 0.0
C483 C 0.49079 1.02267 0.78435 0.0
C484 C 0.50185 0.02801 0.76187 0.0
C485 C 0.52021 0.02958 0.76176 0.0
H486 H 1.02387 0.5754 0.78372 0.0
H487 H 1.03115 0.53348 0.74165 0.0
H488 H 1.02806 0.53153 0.82493 0.0
H489 H 0.04537 0.51813 0.82265 0.0
H490 H 0.04077 0.46802 0.78695 0.0
H491 H 1.02361 0.50287 0.74469 0.0
C492 C 1.02551 0.56272 0.78376 0.0
C493 C 1.02646 0.55461 0.80703 0.0
C494 C 1.0267 0.55483 0.76038 0.0
C495 C 1.02962 0.53886 0.76003 0.0
C496 C 1.03064 0.53019 0.78331 0.0
C497 C 1.02854 0.53816 0.80669 0.0
C498 C 1.03393 0.51309 0.78359 0.0
C499 C 0.04122 0.50886 0.80597 0.0
C500 C 0.04334 0.49251 0.8074 0.0
C501 C 0.03953 0.48092 0.78572 0.0
C502 C 1.03298 0.48488 0.7629 0.0
C503 C 1.02962 0.50062 0.76205 0.0
H504 H 0.59599 0.58159 0.78254 0.0
H505 H 0.55827 0.52952 0.74195 0.0
H506 H 0.54329 0.53959 0.81833 0.0
H507 H 0.52866 0.50862 0.82201 0.0
H508 H 0.48328 0.46078 0.78182 0.0
H509 H 0.52681 0.50828 0.73868 0.0
C510 C 0.5824 0.56798 0.78173 0.0
C511 C 0.57026 0.56155 0.80318 0.0
C512 C 0.57786 0.55669 0.75957 0.0
C513 C 0.56093 0.53838 0.75883 0.0
C514 C 0.54806 0.53156 0.78013 0.0
C515 C 0.55289 0.54374 0.80195 0.0
C516 C 0.53009 0.51173 0.78029 0.0
C517 C 0.52181 0.50229 0.80391 0.0
C518 C 0.50485 0.48409 0.8046 0.0
C519 C 0.49635 0.47487 0.78154 0.0
C520 C 0.50448 0.48334 0.75797 0.0
C521 C 0.52111 0.50184 0.75721 0.0
H522 H 0.7067 0.80351 0.55969 0.0
H523 H 0.71291 0.85282 0.60036 0.0
H524 H 0.70151 0.84649 0.51822 0.0
H525 H 0.71387 0.87671 0.51704 0.0
H526 H 0.70965 0.92181 0.5544 0.0
H527 H 0.70426 0.87463 0.59947 0.0
C528 C 0.70668 0.81709 0.55963 0.0
C529 C 0.7048 0.82457 0.53639 0.0
C530 C 0.70893 0.82688 0.58272 0.0
C531 C 0.71003 0.84505 0.58245 0.0
C532 C 0.70743 0.85282 0.5592 0.0
C533 C 0.70418 0.8418 0.53638 0.0
C534 C 0.70839 0.87229 0.55835 0.0
C535 C 0.71123 0.88215 0.53464 0.0
C536 C 0.71136 0.89973 0.53316 0.0
C537 C 0.70936 0.9081 0.55554 0.0
C538 C 0.70714 0.89929 0.57941 0.0
C539 C 0.70653 0.88137 0.58086 0.0
H540 H 0.14433 0.79998 0.56103 0.0
H541 H 0.18163 0.85254 0.60097 0.0
H542 H 0.19665 0.84228 0.52473 0.0
H543 H 0.21068 0.87342 0.52103 0.0
H544 H 0.25633 0.92126 0.56103 0.0
H545 H 0.21351 0.87323 0.60421 0.0
C546 C 0.15783 0.81369 0.5617 0.0
C547 C 0.16989 0.82011 0.54018 0.0
C548 C 0.16225 0.82513 0.58368 0.0
C549 C 0.17902 0.84354 0.58423 0.0
C550 C 0.19186 0.85031 0.56291 0.0
C551 C 0.18711 0.83806 0.54118 0.0
C552 C 0.20971 0.87018 0.56266 0.0
C553 C 0.2177 0.87975 0.53906 0.0
C554 C 0.2346 0.898 0.53829 0.0
C555 C 0.24328 0.90716 0.56134 0.0
C556 C 0.23548 0.89845 0.58494 0.0
C557 C 0.21894 0.8799 0.5857 0.0
H558 H 0.14875 0.36228 0.55825 0.0
H559 H 0.18701 0.34877 0.59922 0.0
H560 H 0.19802 0.36696 0.51954 0.0
H561 H 0.21146 0.34957 0.51748 0.0
H562 H 0.25941 0.35072 0.55518 0.0
H563 H 0.2184 0.35802 0.59997 0.0
C564 C 0.16197 0.36156 0.55879 0.0
C565 C 0.17264 0.36474 0.53627 0.0
C566 C 0.16739 0.35639 0.58167 0.0
C567 C 0.18358 0.3537 0.58175 0.0
C568 C 0.19503 0.35728 0.55932 0.0
C569 C 0.18943 0.36327 0.53687 0.0
C570 C 0.21256 0.35467 0.55878 0.0
C571 C 0.21936 0.35152 0.5351 0.0
C572 C 0.23635 0.35045 0.53369 0.0
C573 C 0.2463 0.35163 0.55621 0.0
C574 C 0.23971 0.35398 0.58009 0.0
C575 C 0.22291 0.35559 0.58142 0.0
H576 H 0.0662 0.43747 0.07358 0.0
H577 H 1.00368 0.40728 0.0683 0.0
H578 H 0.06487 0.4564 0.10942 0.0
H579 H 1.00243 0.42649 0.10378 0.0
H580 H 1.00776 0.44802 0.18704 0.0
H581 H 1.00804 0.43009 0.14944 0.0
H582 H 0.05726 0.48183 0.1194 0.0
H583 H 0.05728 0.4997 0.15769 0.0
C584 C 0.05216 0.43483 0.08007 0.0
C585 C 1.03504 0.42076 0.06809 0.0
C586 C 0.05143 0.44585 0.10045 0.0
C587 C 1.03356 0.44307 0.10937 0.0
C588 C 1.01643 0.4289 0.09754 0.0
C589 C 1.01715 0.41787 0.07717 0.0
C590 C 1.01857 0.4556 0.17231 0.0
C591 C 1.03259 0.47522 0.17537 0.0
C592 C 1.01865 0.44535 0.15067 0.0
C593 C 1.03275 0.45447 0.13147 0.0
C594 C 0.04638 0.47432 0.13405 0.0
C595 C 0.04626 0.48461 0.15577 0.0
H596 H 0.6188 0.64275 0.07149 0.0
H597 H 0.64546 0.60713 0.07267 0.0
H598 H 0.59834 0.62464 0.10762 0.0
H599 H 0.62516 0.58921 0.10913 0.0
H600 H 0.57322 0.54889 0.1583 0.0
H601 H 0.59114 0.56623 0.11985 0.0
H602 H 0.60101 0.61997 0.15316 0.0
H603 H 0.58272 0.60258 0.19114 0.0
C604 C 0.62042 0.63116 0.07956 0.0
C605 C 0.63384 0.62645 0.06915 0.0
C606 C 0.60869 0.62078 0.10032 0.0
C607 C 0.61002 0.6054 0.1112 0.0
C608 C 0.62353 0.60077 0.10094 0.0
C609 C 0.63532 0.61119 0.08019 0.0
C610 C 0.57887 0.56434 0.15711 0.0
C611 C 0.57664 0.57438 0.17777 0.0
C612 C 0.58936 0.57432 0.13527 0.0
C613 C 0.59771 0.59453 0.13355 0.0
C614 C 0.59472 0.60441 0.15377 0.0
C615 C 0.58432 0.59446 0.1756 0.0
H616 H 0.42795 0.99639 0.07471 0.0
H617 H 0.45138 0.05825 0.07754 0.0
H618 H 0.44851 0.99865 0.11054 0.0
H619 H 0.47207 0.06045 0.11355 0.0
H620 H 0.48601 0.04866 0.19747 0.0
H621 H 0.46875 0.05006 0.15953 0.0
H622 H 0.48355 1.01187 0.11946 0.0
H623 H 0.50052 1.01022 0.1575 0.0
C624 C 0.43743 1.01049 0.08301 0.0
C625 C 0.43796 0.02714 0.07319 0.0
C626 C 0.44937 1.01179 0.10342 0.0
C627 C 0.46209 0.02976 0.1147 0.0
C628 C 0.46241 0.0464 0.10527 0.0
C629 C 0.45055 0.04512 0.08464 0.0
C630 C 0.48581 0.0408 0.18041 0.0
C631 C 0.49452 0.02923 0.18053 0.0
C632 C 0.476 0.04167 0.15865 0.0
C633 C 0.47455 0.03086 0.13662 0.0
C634 C 0.48415 1.02012 0.13629 0.0
C635 C 0.49408 1.01937 0.15797 0.0
H636 H 0.41574 0.98669 0.93565 0.0
H637 H 0.45346 0.04873 0.9379 0.0
H638 H 0.43397 0.9848 0.89909 0.0
H639 H 0.47152 0.04678 0.9014 0.0
H640 H 0.51198 0.0352 0.85343 0.0
H641 H 0.49368 0.03414 0.89165 0.0
H642 H 0.44023 0.99484 0.85312 0.0
H643 H 0.45857 0.99566 0.81503 0.0
C644 C 0.42784 0.99993 0.9283 0.0
C645 C 0.43312 1.01787 0.93975 0.0
C646 C 0.43826 0.99883 0.90733 0.0
C647 C 0.4543 1.01561 0.8975 0.0
C648 C 0.45945 0.03354 0.9088 0.0
C649 C 0.44896 0.03467 0.92959 0.0
C650 C 0.49636 0.02599 0.85333 0.0
C651 C 0.48671 1.01556 0.83119 0.0
C652 C 0.48586 0.02557 0.8751 0.0
C653 C 0.4655 1.01461 0.87528 0.0
C654 C 0.45591 1.0034 0.85361 0.0
C655 C 0.46639 1.00394 0.83176 0.0
H656 H 0.07508 0.44113 0.93407 0.0
H657 H 1.0128 0.41598 0.93308 0.0
H658 H 0.07802 0.46325 0.89975 0.0
H659 H 1.01578 0.43789 0.89873 0.0
H660 H 1.0265 0.48986 0.85391 0.0
H661 H 1.02787 0.4726 0.89176 0.0
H662 H 0.06991 0.46204 0.85382 0.0
H663 H 0.06888 0.47972 0.81624 0.0
C664 C 0.06201 0.44022 0.92645 0.0
C665 C 0.04369 0.42675 0.93634 0.0
C666 C 0.06372 0.45291 0.9068 0.0
C667 C 0.04716 0.45249 0.89675 0.0
C668 C 1.02886 0.43888 0.90644 0.0
C669 C 1.02714 0.42615 0.92595 0.0
C670 C 0.03648 0.48438 0.85398 0.0
C671 C 0.04747 0.486 0.83206 0.0
C672 C 0.03706 0.47426 0.8755 0.0
C673 C 0.04872 0.46563 0.87557 0.0
C674 C 0.06078 0.4685 0.85437 0.0
C675 C 0.06014 0.47856 0.83282 0.0
H676 H 0.621 0.64576 0.92927 0.0
H677 H 0.64082 0.60453 0.93613 0.0
H678 H 0.60043 0.62735 0.89318 0.0
H679 H 0.62047 0.58638 0.90006 0.0
H680 H 0.5695 0.54752 0.85112 0.0
H681 H 0.58589 0.56602 0.88949 0.0
H682 H 0.60373 0.61923 0.84832 0.0
H683 H 0.58689 0.6007 0.81013 0.0
C684 C 0.62107 0.63285 0.92303 0.0
C685 C 0.63259 0.62664 0.93563 0.0
C686 C 0.60928 0.62232 0.90235 0.0
C687 C 0.60866 0.60529 0.89394 0.0
C688 C 0.62031 0.59922 0.90639 0.0
C689 C 0.63215 0.60976 0.92693 0.0
C690 C 0.57645 0.56315 0.85047 0.0
C691 C 0.57701 0.57265 0.82755 0.0
C692 C 0.58607 0.57375 0.87235 0.0
C693 C 0.59639 0.59409 0.87181 0.0
C694 C 0.59591 0.60359 0.84938 0.0
C695 C 0.58635 0.59298 0.82747 0.0
H696 H 0.06172 0.63464 0.93477 0.0
H697 H 0.99916 0.60501 0.93848 0.0
H698 H 0.05976 0.61445 0.89838 0.0
H699 H 0.99725 0.58465 0.9026 0.0
H700 H 1.00177 0.56771 0.81975 0.0
H701 H 1.00313 0.58661 0.85717 0.0
H702 H 0.05061 0.58119 0.88746 0.0
H703 H 0.04964 0.56275 0.84939 0.0
C704 C 0.04756 0.62387 0.92783 0.0
C705 C 1.03061 0.62155 0.93954 0.0
C706 C 0.04643 0.61215 0.90712 0.0
C707 C 1.02834 0.59785 0.8976 0.0
C708 C 1.01142 0.59564 0.90922 0.0
C709 C 1.01253 0.60733 0.92988 0.0
C710 C 1.01247 0.5705 0.83443 0.0
C711 C 1.02569 0.56385 0.8315 0.0
C712 C 1.01316 0.58122 0.85601 0.0
C713 C 1.02707 0.58556 0.87529 0.0
C714 C 0.03991 0.57837 0.87278 0.0
C715 C 0.03918 0.56758 0.85115 0.0
H716 H 0.42545 0.44036 0.93342 0.0
H717 H 0.45485 0.40733 0.93645 0.0
H718 H 0.44553 0.45849 0.89683 0.0
H719 H 0.47511 0.42569 0.90047 0.0
H720 H 0.49143 0.44643 0.81758 0.0
H721 H 0.47264 0.42923 0.85521 0.0
H722 H 0.47891 0.4825 0.88531 0.0
H723 H 0.49727 0.49965 0.84694 0.0
C724 C 0.43614 0.43693 0.92629 0.0
C725 C 0.43843 0.42229 0.93784 0.0
C726 C 0.4478 0.44747 0.90548 0.0
C727 C 0.46199 0.4436 0.89574 0.0
C728 C 0.46418 0.42891 0.90725 0.0
C729 C 0.45255 0.41839 0.92797 0.0
C730 C 0.48885 0.4545 0.83227 0.0
C731 C 0.4957 0.47437 0.82921 0.0
C732 C 0.47819 0.44466 0.85396 0.0
C733 C 0.47414 0.45444 0.87326 0.0
C734 C 0.48153 0.47448 0.87062 0.0
C735 C 0.49226 0.48436 0.84884 0.0
H736 H 0.65268 0.05713 0.94079 0.0
H737 H 0.62011 0.9949 0.93281 0.0
H738 H 0.6342 0.06021 0.9057 0.0
H739 H 0.60178 0.99807 0.8976 0.0
H740 H 0.55973 1.00913 0.85233 0.0
H741 H 0.57731 1.00828 0.89033 0.0
H742 H 0.63055 0.05462 0.85883 0.0
H743 H 0.61292 0.05562 0.82115 0.0
C744 C 0.64167 0.04411 0.93147 0.0
C745 C 0.63791 0.02576 0.93961 0.0
C746 C 0.63109 0.0459 0.91136 0.0
C747 C 0.61643 0.02938 0.89903 0.0
C748 C 0.61277 1.01105 0.90701 0.0
C749 C 0.62342 1.00926 0.92702 0.0
C750 C 0.5751 1.01941 0.85387 0.0
C751 C 0.585 0.03238 0.8338 0.0
C752 C 0.5852 1.01877 0.87543 0.0
C753 C 0.60535 0.03122 0.8774 0.0
C754 C 0.61503 0.04489 0.85792 0.0
C755 C 0.60497 0.04542 0.83632 0.0
H756 H 0.61624 0.98475 0.07038 0.0
H757 H 0.64726 0.047 0.07828 0.0
H758 H 0.59494 0.98213 0.10565 0.0
H759 H 0.626 0.04429 0.11375 0.0
H760 H 0.57293 0.03392 0.15954 0.0
H761 H 0.59145 0.03474 0.12152 0.0
H762 H 0.59699 0.98758 0.15238 0.0
H763 H 0.5783 0.98664 0.19004 0.0
C764 C 0.61862 0.99788 0.07973 0.0
C765 C 0.63352 1.0161 0.07151 0.0
C766 C 0.6064 0.99635 0.09996 0.0
C767 C 0.60869 1.013 0.11236 0.0
C768 C 0.62367 0.03121 0.1043 0.0
C769 C 0.63599 0.03274 0.08416 0.0
C770 C 0.57774 0.02346 0.15784 0.0
C771 C 0.57424 1.01025 0.17771 0.0
C772 C 0.58854 0.02409 0.13628 0.0
C773 C 0.59587 1.01137 0.13411 0.0
C774 C 0.5915 0.99752 0.15342 0.0
C775 C 0.58085 0.99701 0.17501 0.0
H776 H 0.99859 0.60915 0.08003 0.0
H777 H 0.05975 0.62932 0.07157 0.0
H778 H 0.99694 0.58864 0.1158 0.0
H779 H 0.05807 0.60895 0.10734 0.0
H780 H 0.04529 0.55656 0.15487 0.0
H781 H 0.04372 0.57408 0.11737 0.0
H782 H 1.00904 0.59197 0.16042 0.0
H783 H 1.01033 0.57417 0.19772 0.0
C784 C 1.0117 0.60932 0.08587 0.0
C785 C 1.02931 0.62092 0.0729 0.0
C786 C 1.01075 0.59757 0.10638 0.0
C787 C 1.02733 0.59703 0.11424 0.0
C788 C 0.04496 0.60877 0.10145 0.0
C789 C 0.04595 0.62061 0.0811 0.0
C790 C 0.03695 0.56386 0.1561 0.0
C791 C 1.028 0.56407 0.17925 0.0
C792 C 0.03626 0.57409 0.13476 0.0
C793 C 1.02647 0.58463 0.13605 0.0
C794 C 1.01666 0.58398 0.15878 0.0
C795 C 1.01747 0.57386 0.18017 0.0
H796 H 0.43066 0.44234 0.07266 0.0
H797 H 0.45443 0.40419 0.07526 0.0
H798 H 0.45124 0.46074 0.10847 0.0
H799 H 0.47526 0.42285 0.11093 0.0
H800 H 0.49002 0.44785 0.19423 0.0
H801 H 0.47268 0.42956 0.15619 0.0
H802 H 0.48547 0.48275 0.11833 0.0
H803 H 0.50232 0.50097 0.1567 0.0
C804 C 0.44026 0.43784 0.08086 0.0
C805 C 0.44084 0.42174 0.07106 0.0
C806 C 0.45221 0.44854 0.10124 0.0
C807 C 0.46505 0.44339 0.11238 0.0
C808 C 0.46547 0.42715 0.10284 0.0
C809 C 0.45354 0.41646 0.08238 0.0
C810 C 0.48932 0.45564 0.17765 0.0
C811 C 0.49737 0.47583 0.17853 0.0
C812 C 0.47948 0.44518 0.1558 0.0
C813 C 0.47745 0.45468 0.13437 0.0
C814 C 0.48648 0.47498 0.13472 0.0
C815 C 0.49636 0.48545 0.15656 0.0
H816 H 0.66991 0.74124 0.41212 0.0
H817 H 0.7322 0.77558 0.40438 0.0
H818 H 0.67111 0.76168 0.44779 0.0
H819 H 0.7333 0.79612 0.43957 0.0
H820 H 0.72992 0.81267 0.52263 0.0
H821 H 0.72856 0.79364 0.48547 0.0
H822 H 0.67811 0.7949 0.45796 0.0
H823 H 0.67924 0.81373 0.49591 0.0
C824 C 0.68386 0.75311 0.41802 0.0
C825 C 0.70098 0.75666 0.40547 0.0
C826 C 0.68451 0.76495 0.43829 0.0
C827 C 0.70229 0.78055 0.44651 0.0
C828 C 0.71937 0.78408 0.43393 0.0
C829 C 0.71873 0.77229 0.4137 0.0
C830 C 0.71854 0.80892 0.50863 0.0
C831 C 0.70459 0.81454 0.51226 0.0
C832 C 0.71785 0.79813 0.48721 0.0
C833 C 0.70321 0.7927 0.46875 0.0
C834 C 0.68945 0.79868 0.47202 0.0
C835 C 0.6902 0.80961 0.49354 0.0
H836 H 0.31317 0.93988 0.40889 0.0
H837 H 0.28435 0.97343 0.40473 0.0
H838 H 0.29322 0.92245 0.44586 0.0
H839 H 0.26424 0.95577 0.4413 0.0
H840 H 0.24851 0.93577 0.5251 0.0
H841 H 0.26702 0.95259 0.48702 0.0
H842 H 0.25962 0.89881 0.45723 0.0
H843 H 0.24152 0.88206 0.49588 0.0
C844 C 0.30263 0.94358 0.41586 0.0
C845 C 0.30045 0.95813 0.40385 0.0
C846 C 0.29105 0.93344 0.4369 0.0
C847 C 0.27705 0.93764 0.44648 0.0
C848 C 0.275 0.95229 0.43459 0.0
C849 C 0.28653 0.9624 0.41355 0.0
C850 C 0.25078 0.92752 0.51038 0.0
C851 C 0.24367 0.90761 0.51358 0.0
C852 C 0.26127 0.93714 0.48845 0.0
C853 C 0.26494 0.92709 0.46913 0.0
C854 C 0.2573 0.90703 0.47194 0.0
C855 C 0.24672 0.89738 0.49389 0.0
H856 H 0.09609 0.33395 0.40828 0.0
H857 H 0.1217 0.39614 0.40865 0.0
H858 H 0.11692 0.33623 0.4438 0.0
H859 H 0.1427 0.39837 0.44414 0.0
H860 H 0.15837 0.38907 0.52753 0.0
H861 H 0.14042 0.38971 0.48997 0.0
H862 H 0.15148 0.34799 0.45232 0.0
H863 H 0.16905 0.34704 0.49014 0.0
C864 C 0.10611 0.34812 0.41596 0.0
C865 C 0.10718 0.36486 0.40557 0.0
C866 C 0.11821 0.34943 0.43618 0.0
C867 C 0.13162 0.3675 0.44662 0.0
C868 C 0.13248 0.38423 0.43657 0.0
C869 C 0.12043 0.38294 0.41622 0.0
C870 C 0.15717 0.38023 0.51108 0.0
C871 C 0.16501 0.36791 0.51185 0.0
C872 C 0.14697 0.38066 0.48952 0.0
C873 C 0.1443 0.3687 0.4683 0.0
C874 C 0.15301 0.35713 0.46855 0.0
C875 C 0.1633 0.35678 0.49007 0.0
H876 H 0.0902 0.32618 0.27206 0.0
H877 H 0.12082 0.3886 0.26785 0.0
H878 H 0.10941 0.32515 0.2363 0.0
H879 H 0.13973 0.38752 0.23179 0.0
H880 H 0.18276 0.38031 0.18225 0.0
H881 H 0.16503 0.37998 0.22089 0.0
H882 H 0.11303 0.33113 0.19075 0.0
H883 H 0.13084 0.33115 0.15278 0.0
C884 C 0.10091 0.33968 0.2634 0.0
C885 C 0.10389 0.35747 0.27283 0.0
C886 C 0.11193 0.33909 0.24286 0.0
C887 C 0.1262 0.35626 0.23121 0.0
C888 C 0.12911 0.37403 0.24057 0.0
C889 C 0.1181 0.37463 0.2611 0.0
C890 C 0.16764 0.36931 0.18418 0.0
C891 C 0.15816 0.35584 0.16443 0.0
C892 C 0.15741 0.36924 0.20614 0.0
C893 C 0.13754 0.35563 0.20883 0.0
C894 C 0.12832 0.34173 0.18946 0.0
C895 C 0.1385 0.34183 0.16758 0.0
H896 H 0.72822 0.77155 0.2686 0.0
H897 H 0.66565 0.73856 0.27232 0.0
H898 H 0.72626 0.7904 0.23312 0.0
H899 H 0.66376 0.75757 0.2371 0.0
H900 H 0.67051 0.77987 0.15332 0.0
H901 H 0.67067 0.76195 0.19107 0.0
H902 H 0.71639 0.81478 0.22423 0.0
H903 H 0.71637 0.83268 0.18604 0.0
C904 C 0.71405 0.76825 0.26181 0.0
C905 C 0.6971 0.75347 0.27328 0.0
C906 C 0.71294 0.77922 0.24166 0.0
C907 C 0.69485 0.77559 0.23242 0.0
C908 C 0.67791 0.76066 0.24368 0.0
C909 C 0.67901 0.74976 0.26389 0.0
C910 C 0.68039 0.78768 0.16887 0.0
C911 C 0.69349 0.80763 0.16676 0.0
C912 C 0.68045 0.77744 0.19052 0.0
C913 C 0.69368 0.7869 0.21054 0.0
C914 C 0.70622 0.80704 0.20893 0.0
C915 C 0.70605 0.81733 0.18728 0.0
H916 H 0.28591 0.97486 0.2657 0.0
H917 H 0.30832 0.93561 0.26959 0.0
H918 H 0.26468 0.95599 0.23049 0.0
H919 H 0.28739 0.91702 0.23412 0.0
H920 H 0.23597 0.87704 0.18612 0.0
H921 H 0.25337 0.89544 0.22411 0.0
H922 H 0.2663 0.94851 0.18578 0.0
H923 H 0.24836 0.93005 0.1482 0.0
C924 C 0.28644 0.96231 0.25893 0.0
C925 C 0.29886 0.95678 0.2705 0.0
C926 C 0.27427 0.9515 0.23872 0.0
C927 C 0.2742 0.93489 0.22961 0.0
C928 C 0.28677 0.9295 0.241 0.0
C929 C 0.29895 0.9403 0.26118 0.0
C930 C 0.24208 0.89258 0.18609 0.0
C931 C 0.24091 0.9021 0.1641 0.0
C932 C 0.2523 0.90316 0.20771 0.0
C933 C 0.26152 0.92349 0.20783 0.0
C934 C 0.25936 0.93289 0.18638 0.0
C935 C 0.24917 0.92232 0.16478 0.0
H936 H 0.6749 0.94211 0.26909 0.0
H937 H 0.73704 0.97697 0.26001 0.0
H938 H 0.67355 0.92173 0.23363 0.0
H939 H 0.73557 0.95671 0.22391 0.0
H940 H 0.72713 0.90445 0.17561 0.0
H941 H 0.72901 0.92387 0.21322 0.0
H942 H 0.67729 0.92362 0.18797 0.0
H943 H 0.67509 0.90387 0.15132 0.0
C944 C 0.68828 0.94558 0.25937 0.0
C945 C 0.70607 0.96129 0.26737 0.0
C946 C 0.68749 0.93387 0.23896 0.0
C947 C 0.70445 0.93757 0.22587 0.0
C948 C 0.72227 0.9533 0.23379 0.0
C949 C 0.72307 0.96504 0.2543 0.0
C950 C 0.71608 0.90839 0.17837 0.0
C951 C 0.70106 0.90276 0.16043 0.0
C952 C 0.71726 0.91967 0.19971 0.0
C953 C 0.70333 0.92537 0.20357 0.0
C954 C 0.68815 0.91937 0.1858 0.0
C955 C 0.687 0.90819 0.16462 0.0
H956 H 0.09332 0.77175 0.27209 0.0
H957 H 0.12117 0.73724 0.27443 0.0
H958 H 0.11328 0.78939 0.2352 0.0
H959 H 0.14125 0.75506 0.23792 0.0
H960 H 0.15567 0.77553 0.15373 0.0
H961 H 0.13776 0.75863 0.19218 0.0
H962 H 0.14729 0.81268 0.22398 0.0
H963 H 0.16485 0.82952 0.18507 0.0
C964 C 0.10365 0.76789 0.26474 0.0
C965 C 0.10557 0.75301 0.2762 0.0
C966 C 0.11523 0.77814 0.24376 0.0
C967 C 0.12893 0.7737 0.23371 0.0
C968 C 0.13073 0.75874 0.24505 0.0
C969 C 0.11922 0.74854 0.26604 0.0
C970 C 0.15407 0.78381 0.16904 0.0
C971 C 0.16156 0.80382 0.16635 0.0
C972 C 0.1439 0.77416 0.19113 0.0
C973 C 0.14094 0.78428 0.21105 0.0
C974 C 0.14907 0.80443 0.20879 0.0
C975 C 0.15935 0.81412 0.18669 0.0
H976 H 0.29219 0.32212 0.25974 0.0
H977 H 0.31119 0.38294 0.26767 0.0
H978 H 0.27153 0.31991 0.22379 0.0
H979 H 0.2907 0.38068 0.23175 0.0
H980 H 0.23809 0.36704 0.18468 0.0
H981 H 0.25555 0.3655 0.22225 0.0
H982 H 0.27465 0.33195 0.17898 0.0
H983 H 0.25688 0.33318 0.14156 0.0
C984 C 0.29209 0.33504 0.25372 0.0
C985 C 0.30336 0.35271 0.26663 0.0
C986 C 0.28025 0.33375 0.23313 0.0
C987 C 0.27931 0.35006 0.22516 0.0
C988 C 0.29081 0.36777 0.23778 0.0
C989 C 0.30273 0.3691 0.25821 0.0
C990 C 0.2456 0.35891 0.18341 0.0
C991 C 0.24621 0.35032 0.16016 0.0
C992 C 0.2558 0.35824 0.2048 0.0
C993 C 0.26672 0.34886 0.20343 0.0
C994 C 0.26637 0.33927 0.18064 0.0
C995 C 0.25627 0.34004 0.1592 0.0
H996 H 0.28551 0.32278 0.40118 0.0
H997 H 0.31377 0.38516 0.40425 0.0
H998 H 0.26491 0.32048 0.43705 0.0
H999 H 0.2933 0.38281 0.44056 0.0
H1000 H 0.24174 0.37174 0.49026 0.0
H1001 H 0.25939 0.37241 0.45143 0.0
H1002 H 0.2679 0.32716 0.48275 0.0
H1003 H 0.24987 0.32617 0.52107 0.0
C1004 C 0.28744 0.33603 0.40959 0.0
C1005 C 0.30138 0.35417 0.39984 0.0
C1006 C 0.27562 0.33469 0.43021 0.0
C1007 C 0.27742 0.35145 0.44164 0.0
C1008 C 0.29135 0.36961 0.43194 0.0
C1009 C 0.30322 0.37096 0.41129 0.0
C1010 C 0.24702 0.36166 0.48853 0.0
C1011 C 0.24451 0.34896 0.50871 0.0
C1012 C 0.25735 0.36222 0.46648 0.0
C1013 C 0.26524 0.34999 0.46412 0.0
C1014 C 0.26194 0.33671 0.48386 0.0
C1015 C 0.25171 0.33621 0.50588 0.0
H1016 H 0.7405 0.97694 0.40117 0.0
H1017 H 0.67792 0.94404 0.40481 0.0
H1018 H 0.74235 0.95837 0.43693 0.0
H1019 H 0.67985 0.9256 0.4409 0.0
H1020 H 0.69026 0.88409 0.48948 0.0
H1021 H 0.68987 0.90142 0.45089 0.0
H1022 H 0.7354 0.95485 0.48298 0.0
H1023 H 0.73596 0.93751 0.52114 0.0
C1024 C 0.72712 0.96582 0.40967 0.0
C1025 C 0.70905 0.96205 0.40013 0.0
C1026 C 0.7282 0.95519 0.43021 0.0
C1027 C 0.71126 0.94046 0.44169 0.0
C1028 C 0.69317 0.93667 0.43222 0.0
C1029 C 0.69207 0.94738 0.41171 0.0
C1030 C 0.70044 0.89946 0.48796 0.0
C1031 C 0.7131 0.90948 0.50827 0.0
C1032 C 0.70006 0.90941 0.46606 0.0
C1033 C 0.71247 0.92954 0.464 0.0
C1034 C 0.72572 0.93935 0.48388 0.0
C1035 C 0.726 0.92945 0.50578 0.0
H1036 H 0.0978 0.77487 0.40895 0.0
H1037 H 0.11856 0.73441 0.416 0.0
H1038 H 0.11846 0.79363 0.44447 0.0
H1039 H 0.13945 0.75342 0.45148 0.0
H1040 H 0.15399 0.78101 0.53381 0.0
H1041 H 0.13677 0.76195 0.49616 0.0
H1042 H 0.15308 0.81454 0.45425 0.0
H1043 H 0.16986 0.83358 0.49212 0.0
C1044 C 0.10673 0.76993 0.41809 0.0
C1045 C 0.10647 0.75309 0.40959 0.0
C1046 C 0.11875 0.78082 0.4383 0.0
C1047 C 0.13078 0.77515 0.45061 0.0
C1048 C 0.13031 0.75814 0.44243 0.0
C1049 C 0.11833 0.74726 0.4221 0.0
C1050 C 0.15413 0.78849 0.51641 0.0
C1051 C 0.16314 0.80878 0.51599 0.0
C1052 C 0.14434 0.77758 0.49481 0.0
C1053 C 0.1433 0.78673 0.47235 0.0
C1054 C 0.15332 0.80706 0.47144 0.0
C1055 C 0.16317 0.81798 0.49301 0.0
H1056 H 0.40737 0.10894 0.73566 0.0
H1057 H 0.34501 0.0782 0.74393 0.0
H1058 H 0.4102 0.13018 0.77106 0.0
H1059 H 0.34792 0.09939 0.77949 0.0
H1060 H 0.35859 0.15239 0.82506 0.0
H1061 H 0.35775 0.13398 0.78703 0.0
H1062 H 0.40471 0.12799 0.81798 0.0
H1063 H 0.4057 0.14661 0.85572 0.0
C1064 C 0.39426 0.10662 0.74511 0.0
C1065 C 0.37595 0.09183 0.73696 0.0
C1066 C 0.39591 0.1188 0.76541 0.0
C1067 C 0.37928 0.11655 0.77793 0.0
C1068 C 0.36098 0.10168 0.76994 0.0
C1069 C 0.35933 0.08941 0.74974 0.0
C1070 C 0.36901 0.14751 0.8234 0.0
C1071 C 0.38217 0.15086 0.84332 0.0
C1072 C 0.36837 0.13677 0.80183 0.0
C1073 C 0.38101 0.12934 0.79968 0.0
C1074 C 0.39482 0.13356 0.81903 0.0
C1075 C 0.39536 0.14416 0.84066 0.0
H1076 H 0.99216 0.27296 0.7483 0.0
H1077 H 0.95276 0.29529 0.74514 0.0
H1078 H 0.97284 0.25105 0.78288 0.0
H1079 H 0.93367 0.27357 0.77964 0.0
H1080 H 0.94476 0.23466 0.86551 0.0
H1081 H 0.96429 0.25261 0.82846 0.0
H1082 H 0.91208 0.23841 0.78662 0.0
H1083 H 0.8926 0.22081 0.82385 0.0
C1084 C 0.97949 0.27331 0.75507 0.0
C1085 C 0.97403 0.28591 0.74391 0.0
C1086 C 0.96842 0.26075 0.77486 0.0
C1087 C 0.95159 0.26039 0.78374 0.0
C1088 C 0.94633 0.27319 0.77285 0.0
C1089 C 0.95743 0.28581 0.75324 0.0
C1090 C 0.93747 0.23508 0.8482 0.0
C1091 C 0.91716 0.22646 0.84764 0.0
C1092 C 0.94864 0.24531 0.82697 0.0
C1093 C 0.93973 0.2472 0.80479 0.0
C1094 C 0.91937 0.23749 0.80364 0.0
C1095 C 0.90819 0.22718 0.82482 0.0
H1096 H 0.78451 0.72856 0.74578 0.0
H1097 H 0.76468 0.66766 0.73648 0.0
H1098 H 0.80445 0.72987 0.78217 0.0
H1099 H 0.78445 0.66901 0.77281 0.0
H1100 H 0.83546 0.68082 0.82216 0.0
H1101 H 0.81921 0.68338 0.78392 0.0
H1102 H 0.79994 0.717 0.82672 0.0
H1103 H 0.81653 0.71476 0.86482 0.0
C1104 C 0.78432 0.71545 0.75153 0.0
C1105 C 0.77297 0.698 0.73819 0.0
C1106 C 0.79573 0.71621 0.77238 0.0
C1107 C 0.79616 0.69959 0.78018 0.0
C1108 C 0.78471 0.68215 0.76697 0.0
C1109 C 0.77322 0.68135 0.74628 0.0
C1110 C 0.82817 0.68917 0.82321 0.0
C1111 C 0.82717 0.6975 0.84651 0.0
C1112 C 0.81866 0.69043 0.80142 0.0
C1113 C 0.80806 0.70016 0.80243 0.0
C1114 C 0.808 0.70943 0.82532 0.0
C1115 C 0.81741 0.70807 0.84716 0.0
H1116 H 0.78815 0.72806 0.60343 0.0
H1117 H 0.75845 0.66563 0.59977 0.0
H1118 H 0.80841 0.72996 0.56736 0.0
H1119 H 0.77854 0.66759 0.56318 0.0
H1120 H 0.83028 0.6779 0.5136 0.0
H1121 H 0.81197 0.67685 0.55195 0.0
H1122 H 0.80602 0.72399 0.52191 0.0
H1123 H 0.82474 0.72539 0.48423 0.0
C1124 C 0.78579 0.71471 0.5948 0.0
C1125 C 0.77159 0.69668 0.60452 0.0
C1126 C 0.79742 0.71582 0.57403 0.0
C1127 C 0.79516 0.69893 0.56237 0.0
C1128 C 0.78087 0.68088 0.57195 0.0
C1129 C 0.76921 0.67976 0.59277 0.0
C1130 C 0.82536 0.68825 0.5155 0.0
C1131 C 0.82887 0.70166 0.49586 0.0
C1132 C 0.81465 0.68749 0.53727 0.0
C1133 C 0.80735 0.70022 0.53992 0.0
C1134 C 0.81149 0.71405 0.52064 0.0
C1135 C 0.82212 0.71477 0.49892 0.0
H1136 H 0.33501 0.07282 0.60687 0.0
H1137 H 0.39723 0.10313 0.59694 0.0
H1138 H 0.33217 0.09112 0.57142 0.0
H1139 H 0.3943 0.12124 0.56128 0.0
H1140 H 0.38418 0.1639 0.5156 0.0
H1141 H 0.38545 0.14646 0.55346 0.0
H1142 H 0.33663 0.09388 0.52466 0.0
H1143 H 0.33515 0.11138 0.48722 0.0
C1144 C 0.34808 0.08328 0.59703 0.0
C1145 C 0.36636 0.08647 0.60476 0.0
C1146 C 0.34643 0.09375 0.57669 0.0
C1147 C 0.36302 0.10772 0.56367 0.0
C1148 C 0.38127 0.1108 0.57122 0.0
C1149 C 0.38293 0.10026 0.59148 0.0
C1150 C 0.3735 0.14871 0.51768 0.0
C1151 C 0.35963 0.13896 0.49844 0.0
C1152 C 0.37436 0.13867 0.53916 0.0
C1153 C 0.36128 0.11874 0.54189 0.0
C1154 C 0.34687 0.10923 0.52318 0.0
C1155 C 0.34608 0.11922 0.50168 0.0
H1156 H 0.98735 0.27339 0.60859 0.0
H1157 H 0.95284 0.3013 0.60851 0.0
H1158 H 0.96888 0.2535 0.57244 0.0
H1159 H 0.93457 0.28157 0.57177 0.0
H1160 H 0.89416 0.23088 0.52029 0.0
H1161 H 0.9111 0.24809 0.5594 0.0
H1162 H 0.9651 0.25722 0.52739 0.0
H1163 H 0.94812 0.23964 0.48893 0.0
C1164 C 0.97592 0.27542 0.60075 0.0
C1165 C 0.97166 0.28905 0.61144 0.0
C1166 C 0.96533 0.264 0.57995 0.0
C1167 C 0.95022 0.26591 0.5692 0.0
C1168 C 0.94594 0.27954 0.57984 0.0
C1169 C 0.95655 0.291 0.60072 0.0
C1170 C 0.90957 0.23623 0.52194 0.0
C1171 C 0.91984 0.23401 0.50156 0.0
C1172 C 0.91932 0.2463 0.54415 0.0
C1173 C 0.93949 0.25419 0.54643 0.0
C1174 C 0.94956 0.25124 0.5264 0.0
C1175 C 0.93985 0.24126 0.50427 0.0
H1176 H 0.3425 0.27116 0.60186 0.0
H1177 H 0.40459 0.30942 0.60039 0.0
H1178 H 0.34511 0.25291 0.56612 0.0
H1179 H 0.40716 0.29099 0.5647 0.0
H1180 H 0.39761 0.26573 0.48127 0.0
H1181 H 0.39801 0.28417 0.51893 0.0
H1182 H 0.35797 0.231 0.55735 0.0
H1183 H 0.35728 0.21261 0.51948 0.0
C1184 C 0.35671 0.27575 0.59388 0.0
C1185 C 0.37333 0.29179 0.60404 0.0
C1186 C 0.35822 0.26514 0.57354 0.0
C1187 C 0.37637 0.27037 0.56275 0.0
C1188 C 0.39296 0.28663 0.57255 0.0
C1189 C 0.39147 0.29718 0.59302 0.0
C1190 C 0.38912 0.25799 0.49792 0.0
C1191 C 0.37733 0.23773 0.49736 0.0
C1192 C 0.3894 0.26854 0.51952 0.0
C1193 C 0.3778 0.25907 0.54099 0.0
C1194 C 0.36681 0.23874 0.54093 0.0
C1195 C 0.36662 0.22818 0.51939 0.0
H1196 H 0.78708 0.08435 0.60099 0.0
H1197 H 0.7471 0.10578 0.59432 0.0
H1198 H 0.80607 0.10504 0.56554 0.0
H1199 H 0.76629 0.12664 0.5589 0.0
H1200 H 0.79435 0.14235 0.47705 0.0
H1201 H 0.77496 0.12417 0.51405 0.0
H1202 H 0.82736 0.13977 0.55628 0.0
H1203 H 0.84673 0.1576 0.51907 0.0
C1204 C 0.78228 0.09341 0.59193 0.0
C1205 C 0.76552 0.09336 0.60055 0.0
C1206 C 0.7933 0.10543 0.57175 0.0
C1207 C 0.78782 0.11765 0.55957 0.0
C1208 C 0.77088 0.11736 0.56783 0.0
C1209 C 0.75989 0.1054 0.58815 0.0
C1210 C 0.80171 0.14208 0.49436 0.0
C1211 C 0.82207 0.15132 0.49509 0.0
C1212 C 0.79061 0.13174 0.5156 0.0
C1213 C 0.79961 0.13031 0.538 0.0
C1214 C 0.81998 0.14033 0.53915 0.0
C1215 C 0.83109 0.15077 0.51796 0.0
H1216 H 0.95251 0.65285 0.59527 0.0
H1217 H 0.97448 0.71439 0.60069 0.0
H1218 H 0.93176 0.65088 0.55954 0.0
H1219 H 0.95393 0.71238 0.56501 0.0
H1220 H 0.90249 0.70111 0.51758 0.0
H1221 H 0.91913 0.69891 0.55561 0.0
H1222 H 0.9348 0.66181 0.51435 0.0
H1223 H 0.91778 0.66367 0.4765 0.0
C1224 C 0.95302 0.66597 0.58878 0.0
C1225 C 0.96519 0.68378 0.60089 0.0
C1226 C 0.94113 0.66482 0.56831 0.0
C1227 C 0.94103 0.68143 0.55965 0.0
C1228 C 0.95336 0.69925 0.57156 0.0
C1229 C 0.96532 0.70043 0.59186 0.0
C1230 C 0.90901 0.69204 0.51687 0.0
C1231 C 0.90893 0.68266 0.49401 0.0
C1232 C 0.91877 0.69099 0.53853 0.0
C1233 C 0.92857 0.68046 0.53784 0.0
C1234 C 0.9274 0.67004 0.51551 0.0
C1235 C 0.91772 0.67117 0.49381 0.0
H1236 H 0.98092 0.71923 0.73635 0.0
H1237 H 0.94939 0.65673 0.73772 0.0
H1238 H 0.9619 0.71975 0.7726 0.0
H1239 H 0.93065 0.65728 0.77443 0.0
H1240 H 0.88834 0.66488 0.82577 0.0
H1241 H 0.90583 0.66517 0.7869 0.0
H1242 H 0.95846 0.71283 0.8177 0.0
H1243 H 0.94092 0.71294 0.85582 0.0
C1244 C 0.97005 0.70559 0.7445 0.0
C1245 C 0.96677 0.68794 0.73414 0.0
C1246 C 0.95914 0.70589 0.76534 0.0
C1247 C 0.94471 0.68855 0.77644 0.0
C1248 C 0.94144 0.6709 0.76611 0.0
C1249 C 0.95234 0.67059 0.74521 0.0
C1250 C 0.90356 0.6756 0.82396 0.0
C1251 C 0.91328 0.6888 0.8439 0.0
C1252 C 0.91364 0.67563 0.80186 0.0
C1253 C 0.9336 0.68895 0.79923 0.0
C1254 C 0.9431 0.70249 0.81891 0.0
C1255 C 0.93307 0.70243 0.8409 0.0
H1256 H 0.39598 0.29787 0.73974 0.0
H1257 H 0.3336 0.27178 0.73976 0.0
H1258 H 0.39379 0.27717 0.77536 0.0
H1259 H 0.33145 0.25089 0.77528 0.0
H1260 H 0.34025 0.23556 0.85886 0.0
H1261 H 0.33972 0.25323 0.82099 0.0
H1262 H 0.3825 0.24298 0.78468 0.0
H1263 H 0.38335 0.22569 0.82286 0.0
C1264 C 0.38179 0.28776 0.74734 0.0
C1265 C 0.36497 0.28656 0.73686 0.0
C1266 C 0.38052 0.27573 0.76762 0.0
C1267 C 0.36243 0.26224 0.77802 0.0
C1268 C 0.34562 0.26119 0.76779 0.0
C1269 C 0.34687 0.27317 0.7474 0.0
C1270 C 0.34935 0.23687 0.84264 0.0
C1271 C 0.36194 0.22935 0.84391 0.0
C1272 C 0.34898 0.24692 0.82089 0.0
C1273 C 0.36126 0.24974 0.79994 0.0
C1274 C 0.37311 0.24135 0.80069 0.0
C1275 C 0.37341 0.23121 0.82241 0.0
H1276 H 0.75097 0.10817 0.73591 0.0
H1277 H 0.78392 0.07866 0.73822 0.0
H1278 H 0.76909 0.12777 0.77253 0.0
H1279 H 0.80182 0.09809 0.7753 0.0
H1280 H 0.84285 0.1488 0.82634 0.0
H1281 H 0.82585 0.13127 0.7875 0.0
H1282 H 0.77232 0.12442 0.81795 0.0
H1283 H 0.78938 0.14238 0.85619 0.0
C1284 C 0.76198 0.10574 0.74433 0.0
C1285 C 0.76592 0.09176 0.7341 0.0
C1286 C 0.77236 0.11698 0.76541 0.0
C1287 C 0.78695 0.11455 0.77687 0.0
C1288 C 0.79087 0.10054 0.76672 0.0
C1289 C 0.78047 0.08926 0.7456 0.0
C1290 C 0.82753 0.14384 0.82447 0.0
C1291 C 0.81744 0.14689 0.84437 0.0
C1292 C 0.81774 0.13358 0.80239 0.0
C1293 C 0.79768 0.12628 0.79969 0.0
C1294 C 0.78778 0.12992 0.81927 0.0
C1295 C 0.79753 0.1401 0.8413 0.0
H1296 H 0.11817 0.4144 0.02146 0.0
H1297 H 0.07481 0.3557 0.00279 0.0
H1298 H 0.1404 0.40357 0.03407 0.0
H1299 H 0.09749 0.34481 0.0143 0.0
H1300 H 0.12947 0.33241 0.07989 0.0
H1301 H 0.10957 0.33974 0.05228 0.0
H1302 H 0.16091 0.39118 0.02562 0.0
H1303 H 0.1807 0.38417 0.05463 0.0
C1304 C 0.11352 0.39918 0.01949 0.0
C1305 C 0.09459 0.38588 0.01147 0.0
C1306 C 0.12641 0.39295 0.02649 0.0
C1307 C 0.12084 0.37323 0.02539 0.0
C1308 C 0.10223 0.36006 0.01591 0.0
C1309 C 0.08922 0.36629 0.0092 0.0
C1310 C 0.13655 0.34497 0.06752 0.0
C1311 C 0.15657 0.35791 0.06975 0.0
C1312 C 0.12513 0.3492 0.05153 0.0
C1313 C 0.13348 0.36639 0.03709 0.0
C1314 C 0.15386 0.37812 0.03705 0.0
C1315 C 0.1653 0.37396 0.05332 0.0
H1316 H 0.64585 0.71588 0.01509 0.0
H1317 H 0.70498 0.72845 0.00722 0.0
H1318 H 0.65722 0.74875 0.02905 0.0
H1319 H 0.71654 0.76187 0.02018 0.0
H1320 H 0.72435 0.80359 0.08781 0.0
H1321 H 0.71842 0.77731 0.05906 0.0
H1322 H 0.67238 0.78226 0.02266 0.0
H1323 H 0.67784 0.80808 0.05267 0.0
C1324 C 0.66134 0.72581 0.01576 0.0
C1325 C 0.6745 0.71942 0.01042 0.0
C1326 C 0.66791 0.74485 0.02354 0.0
C1327 C 0.68787 0.75813 0.02598 0.0
C1328 C 0.70106 0.75202 0.01904 0.0
C1329 C 0.69445 0.73285 0.01149 0.0
C1330 C 0.71334 0.79943 0.07314 0.0
C1331 C 0.70132 0.80762 0.07278 0.0
C1332 C 0.70995 0.78435 0.05648 0.0
C1333 C 0.69454 0.7772 0.03883 0.0
C1334 C 0.684 0.78698 0.0365 0.0
C1335 C 0.68732 0.80201 0.0534 0.0
H1336 H 0.35139 0.94203 0.03499 0.0
H1337 H 0.33112 0.9784 0.0027 0.0
H1338 H 0.31848 0.91821 0.04683 0.0
H1339 H 0.29782 0.95398 0.01304 0.0
H1340 H 0.24958 0.92326 0.07377 0.0
H1341 H 0.27826 0.94317 0.04847 0.0
H1342 H 0.28696 0.89428 0.03835 0.0
H1343 H 0.2586 0.87468 0.06536 0.0
C1344 C 0.33979 0.94474 0.0299 0.0
C1345 C 0.34391 0.96224 0.01825 0.0
C1346 C 0.32077 0.93091 0.03645 0.0
C1347 C 0.30523 0.93403 0.03112 0.0
C1348 C 0.30933 0.95115 0.0181 0.0
C1349 C 0.32844 0.96517 0.01203 0.0
C1350 C 0.25731 0.91663 0.06547 0.0
C1351 C 0.25202 0.89751 0.0718 0.0
C1352 C 0.27384 0.92806 0.0508 0.0
C1353 C 0.28542 0.92061 0.04169 0.0
C1354 C 0.27883 0.90078 0.04568 0.0
C1355 C 0.26234 0.88936 0.06074 0.0
H1356 H 0.42931 0.10306 0.98675 0.0
H1357 H 0.36964 0.05994 0.00126 0.0
H1358 H 0.41936 0.12595 0.974 0.0
H1359 H 0.35961 0.08321 -0.01054 0.0
H1360 H 0.35052 0.11804 0.92428 0.0
H1361 H 0.35639 0.09681 0.95134 0.0
H1362 H 0.40695 0.14652 0.983 0.0
H1363 H 0.40132 0.16768 0.95477 0.0
C1364 C 0.41405 0.09857 0.98772 0.0
C1365 C 0.40026 0.07955 -0.00529 0.0
C1366 C 0.40832 0.11183 0.98064 0.0
C1367 C 0.38861 0.10655 0.98056 0.0
C1368 C 0.37488 0.08777 -0.01117 0.0
C1369 C 0.38063 0.07441 -0.0043 0.0
C1370 C 0.36244 0.12445 0.9378 0.0
C1371 C 0.37551 0.14447 0.93737 0.0
C1372 C 0.36588 0.11226 0.95337 0.0
C1373 C 0.38246 0.11981 0.96905 0.0
C1374 C 0.39433 0.1401 0.97068 0.0
C1375 C 0.39093 0.15231 0.95489 0.0
H1376 H 0.9542 0.33752 -0.00444 0.0
H1377 H 0.99733 0.32114 0.98065 0.0
H1378 H 0.92865 0.30512 0.98389 0.0
H1379 H 0.97189 0.28894 0.96807 0.0
H1380 H 0.92408 0.22951 0.95404 0.0
H1381 H 0.94498 0.25848 0.97921 0.0
H1382 H 0.91658 0.2872 0.94555 0.0
H1383 H 0.89542 0.25799 0.92133 0.0
C1384 C 0.95823 0.32696 -0.0101 0.0
C1385 C 0.97784 0.33198 -0.01117 0.0
C1386 C 0.94356 0.30837 0.98309 0.0
C1387 C 0.9481 0.29433 0.97481 0.0
C1388 C 0.96771 0.29919 0.97469 0.0
C1389 C 0.98238 0.31775 0.98172 0.0
C1390 C 0.92178 0.24176 0.95309 0.0
C1391 C 0.90794 0.24147 0.93621 0.0
C1392 C 0.93398 0.2585 0.96708 0.0
C1393 C 0.93277 0.27539 0.96415 0.0
C1394 C 0.91788 0.2745 0.94862 0.0
C1395 C 0.90563 0.25772 0.93479 0.0
H1396 H 0.71828 0.62467 -0.00186 0.0
H1397 H 0.73567 0.68456 0.98495 0.0
H1398 H 0.75036 0.63111 0.98519 0.0
H1399 H 0.76759 0.69092 0.97131 0.0
H1400 H 0.82656 0.70131 0.95494 0.0
H1401 H 0.79815 0.69348 0.98145 0.0
H1402 H 0.76714 0.63729 0.94525 0.0
H1403 H 0.79569 0.64513 0.91948 0.0
C1404 C 0.729 0.63927 -0.00732 0.0
C1405 C 0.72433 0.65407 -0.00764 0.0
C1406 C 0.74741 0.64295 0.98515 0.0
C1407 C 0.76161 0.66151 0.97697 0.0
C1408 C 0.75718 0.6765 0.97778 0.0
C1409 C 0.73878 0.67283 0.98544 0.0
C1410 C 0.81393 0.68699 0.95365 0.0
C1411 C 0.81336 0.67367 0.9356 0.0
C1412 C 0.79753 0.68259 0.96845 0.0
C1413 C 0.78018 0.66484 0.96528 0.0
C1414 C 0.78022 0.65101 0.94851 0.0
C1415 C 0.79661 0.65542 0.93379 0.0
H1416 H 0.9966 0.69059 0.0058 0.0
H1417 H 0.95206 0.6317 -0.00946 0.0
H1418 H 0.97421 0.70175 -0.006 0.0
H1419 H 0.9301 0.64275 0.97751 0.0
H1420 H 0.8906 0.66257 0.95486 0.0
H1421 H 0.91023 0.65592 0.98464 0.0
H1422 H 0.9619 0.70612 0.95598 0.0
H1423 H 0.94216 0.71315 0.92766 0.0
C1424 C 0.98199 0.68002 9e-05 0.0
C1425 C 0.9762 0.66029 -0.00118 0.0
C1426 C 0.96914 0.68641 -0.00681 0.0
C1427 C 0.95028 0.67324 0.98445 0.0
C1428 C 0.9443 0.65339 0.98447 0.0
C1429 C 0.95703 0.64702 -0.00829 0.0
C1430 C 0.90606 0.67261 0.95588 0.0
C1431 C 0.91491 0.68819 0.93871 0.0
C1432 C 0.9174 0.66865 0.9726 0.0
C1433 C 0.93781 0.68009 0.97225 0.0
C1434 C 0.94632 0.69689 0.95701 0.0
C1435 C 0.93499 0.70094 0.94059 0.0
H1436 H 0.43209 0.33668 0.98209 0.0
H1437 H 0.37394 0.31781 0.00841 0.0
H1438 H 0.42229 0.30401 0.96865 0.0
H1439 H 0.36423 0.28463 -0.00355 0.0
H1440 H 0.3485 0.23919 0.93233 0.0
H1441 H 0.35702 0.26692 0.95938 0.0
H1442 H 0.41257 0.27177 0.97515 0.0
H1443 H 0.40425 0.2445 0.94635 0.0
C1444 C 0.41727 0.32541 0.9856 0.0
C1445 C 0.40371 0.3299 -0.00404 0.0
C1446 C 0.41165 0.30651 0.9781 0.0
C1447 C 0.39235 0.29146 0.98116 0.0
C1448 C 0.37909 0.29582 -0.00689 0.0
C1449 C 0.38466 0.31484 0.00013 0.0
C1450 C 0.36237 0.24593 0.94206 0.0
C1451 C 0.37585 0.23993 0.93682 0.0
C1452 C 0.36728 0.26186 0.95782 0.0
C1453 C 0.38574 0.27207 0.96918 0.0
C1454 C 0.39845 0.26471 0.96612 0.0
C1455 C 0.39359 0.24884 0.94998 0.0
H1456 H 0.72793 0.10008 0.01847 0.0
H1457 H 0.73507 0.05574 0.9813 0.0
H1458 H 0.76038 0.12445 0.0049 0.0
H1459 H 0.76715 0.08013 0.96664 0.0
H1460 H 0.82596 0.12546 0.94385 0.0
H1461 H 0.79995 0.1037 0.97294 0.0
H1462 H 0.77383 0.13964 0.96584 0.0
H1463 H 0.80017 0.16147 0.93784 0.0
C1464 C 0.73653 0.09551 0.0076 0.0
C1465 C 0.72884 0.076 0.00072 0.0
C1466 C 0.75513 0.10951 -0.00034 0.0
C1467 C 0.76641 0.10443 0.98425 0.0
C1468 C 0.7591 0.08469 0.97868 0.0
C1469 C 0.74058 0.07064 0.98697 0.0
C1470 C 0.81508 0.12906 0.9496 0.0
C1471 C 0.81516 0.14525 0.93907 0.0
C1472 C 0.79998 0.11646 0.96587 0.0
C1473 C 0.78452 0.11966 0.97156 0.0
C1474 C 0.7855 0.1367 0.96234 0.0
C1475 C 0.80064 0.14932 0.94629 0.0
H1476 H 0.69858 0.98244 0.02151 0.0
H1477 H 0.64187 0.93857 -0.00421 0.0
H1478 H 0.70552 0.95739 0.03502 0.0
H1479 H 0.64902 0.91346 0.00852 0.0
H1480 H 0.71758 0.91103 0.05484 0.0
H1481 H 0.71133 0.93143 0.02595 0.0
H1482 H 0.6511 0.90097 0.049 0.0
H1483 H 0.65745 0.88044 0.07706 0.0
C1484 C 0.68778 0.96745 0.01813 0.0
C1485 C 0.66958 0.96252 0.00791 0.0
C1486 C 0.6918 0.95302 0.02573 0.0
C1487 C 0.67776 0.9333 0.02311 0.0
C1488 C 0.66004 0.92845 0.0113 0.0
C1489 C 0.65597 0.94287 0.00388 0.0
C1490 C 0.70286 0.90816 0.05263 0.0
C1491 C 0.6879 0.89401 0.06774 0.0
C1492 C 0.69931 0.92004 0.03647 0.0
C1493 C 0.68076 0.91812 0.0354 0.0
C1494 C 0.66551 0.90282 0.04901 0.0
C1495 C 0.66907 0.89094 0.06505 0.0
H1496 H 0.0698 0.72453 0.00878 0.0
H1497 H 0.11327 0.70828 0.02126 0.0
H1498 H 0.09324 0.75785 0.02047 0.0
H1499 H 0.13634 0.74114 0.03401 0.0
H1500 H 0.17811 0.80087 0.05427 0.0
H1501 H 0.15684 0.77416 0.02585 0.0
H1502 H 0.10708 0.77453 0.05838 0.0
H1503 H 0.12841 0.80157 0.08556 0.0
C1504 C 0.0844 0.72809 0.01385 0.0
C1505 C 0.08958 0.71367 0.01433 0.0
C1506 C 0.09785 0.74721 0.02068 0.0
C1507 C 0.11677 0.75234 0.02848 0.0
C1508 C 0.12211 0.73801 0.02778 0.0
C1509 C 0.10875 0.719 0.02068 0.0
C1510 C 0.1627 0.79578 0.05434 0.0
C1511 C 0.15488 0.8032 0.07214 0.0
C1512 C 0.15043 0.78022 0.03843 0.0
C1513 C 0.13009 0.7717 0.04021 0.0
C1514 C 0.12256 0.78057 0.05621 0.0
C1515 C 0.13481 0.79615 0.07188 0.0
H1516 H 0.33683 0.36335 0.0226 0.0
H1517 H 0.35422 0.42326 0.00964 0.0
H1518 H 0.30481 0.35688 0.03587 0.0
H1519 H 0.32202 0.41671 0.02218 0.0
H1520 H 0.27608 0.40241 0.08709 0.0
H1521 H 0.30478 0.41044 0.06159 0.0
H1522 H 0.2743 0.35418 0.02552 0.0
H1523 H 0.24574 0.34614 0.05179 0.0
C1524 C 0.33371 0.37507 0.02209 0.0
C1525 C 0.34819 0.39386 0.01532 0.0
C1526 C 0.31524 0.37134 0.02953 0.0
C1527 C 0.31075 0.38629 0.03026 0.0
C1528 C 0.325 0.40489 0.02228 0.0
C1529 C 0.34347 0.40864 0.01499 0.0
C1530 C 0.27528 0.39216 0.07282 0.0
C1531 C 0.25865 0.37382 0.07103 0.0
C1532 C 0.29178 0.39667 0.05826 0.0
C1533 C 0.29204 0.38286 0.04166 0.0
C1534 C 0.27478 0.36505 0.03841 0.0
C1535 C 0.25827 0.36054 0.05306 0.0
H1536 H 0.73718 0.69279 0.36384 0.0
H1537 H 0.78059 0.74573 0.32834 0.0
H1538 H 0.7622 0.68551 0.37655 0.0
H1539 H 0.80557 0.73805 0.33978 0.0
H1540 H 0.84424 0.73432 0.40345 0.0
H1541 H 0.82182 0.73901 0.37715 0.0
H1542 H 0.7859 0.67703 0.36844 0.0
H1543 H 0.80822 0.67258 0.39597 0.0
C1544 C 0.75202 0.70262 0.35815 0.0
C1545 C 0.75693 0.71997 0.34543 0.0
C1546 C 0.76644 0.69839 0.36528 0.0
C1547 C 0.7861 0.71128 0.3595 0.0
C1548 C 0.79073 0.72799 0.34519 0.0
C1549 C 0.77637 0.73237 0.33847 0.0
C1550 C 0.83199 0.72177 0.39492 0.0
C1551 C 0.82808 0.70312 0.40135 0.0
C1552 C 0.819 0.7244 0.37987 0.0
C1553 C 0.80174 0.70839 0.37082 0.0
C1554 C 0.79877 0.68971 0.37547 0.0
C1555 C 0.81173 0.68711 0.3908 0.0
H1556 H 0.31547 0.04954 0.32624 0.0
H1557 H 0.36699 0.05622 0.36282 0.0
H1558 H 0.32425 0.08226 0.33898 0.0
H1559 H 0.37533 0.08856 0.37687 0.0
H1560 H 0.38974 0.14745 0.39943 0.0
H1561 H 0.38505 0.12124 0.37054 0.0
H1562 H 0.32295 0.09643 0.37725 0.0
H1563 H 0.32793 0.12301 0.40491 0.0
C1564 C 0.32878 0.05809 0.33686 0.0
C1565 C 0.34043 0.05023 0.34379 0.0
C1566 C 0.33378 0.07685 0.34433 0.0
C1567 C 0.35035 0.08809 0.35942 0.0
C1568 C 0.36258 0.08056 0.36505 0.0
C1569 C 0.35774 0.0619 0.35714 0.0
C1570 C 0.37518 0.13684 0.39358 0.0
C1571 C 0.35919 0.13734 0.40392 0.0
C1572 C 0.37242 0.1216 0.37745 0.0
C1573 C 0.35359 0.10641 0.37176 0.0
C1574 C 0.33768 0.10786 0.38073 0.0
C1575 C 0.34047 0.12316 0.3966 0.0
H1576 H 1.00217 0.32409 0.34316 0.0
H1577 H 1.01729 0.2801 0.35776 0.0
H1578 H 0.96859 0.30134 0.35489 0.0
H1579 H 0.98416 0.25772 0.37048 0.0
H1580 H 0.92383 0.21704 0.38991 0.0
H1581 H 0.95098 0.2377 0.36166 0.0
H1582 H 0.95164 0.28815 0.39308 0.0
H1583 H 0.92416 0.26744 0.42012 0.0
C1584 C 0.99831 0.30953 0.34871 0.0
C1585 C 1.01248 0.30401 0.34977 0.0
C1586 C 0.97904 0.29647 0.35555 0.0
C1587 C 0.97351 0.27761 0.36389 0.0
C1588 C 0.98761 0.27192 0.36381 0.0
C1589 C 1.00677 0.28489 0.35674 0.0
C1590 C 0.92926 0.23248 0.3898 0.0
C1591 C 0.92201 0.24067 0.40729 0.0
C1592 C 0.94506 0.24439 0.37397 0.0
C1593 C 0.95398 0.26472 0.3755 0.0
C1594 C 0.9453 0.27265 0.39115 0.0
C1595 C 0.92948 0.26076 0.40675 0.0
H1596 H 0.03639 0.39449 0.33751 0.0
H1597 H 0.09461 0.43914 0.31862 0.0
H1598 H 1.02435 0.41617 0.32584 0.0
H1599 H 0.08265 0.46039 0.30581 0.0
H1600 H 0.06123 0.49889 0.28483 0.0
H1601 H 0.06922 0.47997 0.31399 0.0
H1602 H 1.01859 0.42764 0.28788 0.0
H1603 H 1.01023 0.44668 0.26015 0.0
C1604 C 0.04663 0.40897 0.331 0.0
C1605 C 0.06642 0.415 0.32873 0.0
C1606 C 0.03974 0.42141 0.3242 0.0
C1607 C 0.05244 0.44009 0.31459 0.0
C1608 C 0.07237 0.44632 0.31348 0.0
C1609 C 0.07926 0.434 0.32059 0.0
C1610 C 0.05139 0.48345 0.28629 0.0
C1611 C 1.03528 0.47421 0.26996 0.0
C1612 C 0.05613 0.47251 0.30265 0.0
C1613 C 0.04493 0.45212 0.30279 0.0
C1614 C 1.02765 0.44322 0.28847 0.0
C1615 C 1.02284 0.45415 0.27241 0.0
H1616 H 0.66541 0.65236 0.33827 0.0
H1617 H 0.61947 0.66563 0.32957 0.0
H1618 H 0.64316 0.61895 0.32559 0.0
H1619 H 0.59759 0.63276 0.31577 0.0
H1620 H 0.55842 0.5736 0.29134 0.0
H1621 H 0.57863 0.59933 0.32162 0.0
H1622 H 0.62991 0.60348 0.2869 0.0
H1623 H 0.60967 0.57732 0.25793 0.0
C1624 C 0.65052 0.64811 0.33388 0.0
C1625 C 0.6443 0.66174 0.33463 0.0
C1626 C 0.63775 0.62895 0.32647 0.0
C1627 C 0.61852 0.62304 0.31927 0.0
C1628 C 0.61211 0.6365 0.32145 0.0
C1629 C 0.62479 0.65553 0.32916 0.0
C1630 C 0.57396 0.57946 0.2911 0.0
C1631 C 0.58251 0.57365 0.27216 0.0
C1632 C 0.58561 0.59445 0.30812 0.0
C1633 C 0.60602 0.60399 0.30633 0.0
C1634 C 0.61434 0.59662 0.2891 0.0
C1635 C 0.60272 0.58159 0.27234 0.0
H1636 H 0.40111 1.01676 0.31638 0.0
H1637 H 0.38688 0.95853 0.33549 0.0
H1638 H 0.43327 0.02399 0.30269 0.0
H1639 H 0.41929 0.96592 0.32267 0.0
H1640 H 0.49296 0.03686 0.28637 0.0
H1641 H 0.46451 0.0291 0.31266 0.0
H1642 H 0.43612 0.97054 0.28352 0.0
H1643 H 0.46485 0.97833 0.25817 0.0
C1644 C 0.40499 1.00562 0.31817 0.0
C1645 C 0.39133 0.98702 0.32677 0.0
C1646 C 0.42354 1.00979 0.31048 0.0
C1647 C 0.42898 0.99552 0.31139 0.0
C1648 C 0.41557 0.97719 0.32122 0.0
C1649 C 0.39698 0.97297 0.32871 0.0
C1650 C 0.48093 1.02213 0.28663 0.0
C1651 C 0.48117 1.00807 0.27072 0.0
C1652 C 0.46447 1.01774 0.30128 0.0
C1653 C 0.44779 0.99926 0.29998 0.0
C1654 C 0.44867 0.98486 0.28535 0.0
C1655 C 0.46518 0.98925 0.27087 0.0
H1656 H 0.62515 0.96592 0.32238 0.0
H1657 H 0.66779 0.0261 0.33355 0.0
H1658 H 0.60139 0.97484 0.30993 0.0
H1659 H 0.64367 0.03513 0.32225 0.0
H1660 H 0.60714 0.04221 0.258 0.0
H1661 H 0.62913 0.03732 0.28485 0.0
H1662 H 0.58035 0.98661 0.3179 0.0
H1663 H 0.55843 0.99121 0.28974 0.0
C1664 C 0.62934 0.98108 0.32276 0.0
C1665 C 0.64849 0.99531 0.32863 0.0
C1666 C 0.61558 0.98623 0.31583 0.0
C1667 C 0.62047 1.00578 0.31485 0.0
C1668 C 0.63938 1.01995 0.32222 0.0
C1669 C 0.65324 1.01478 0.32885 0.0
C1670 C 0.60109 0.03044 0.27173 0.0
C1671 C 0.58111 1.01702 0.27169 0.0
C1672 C 0.61372 0.02758 0.28722 0.0
C1673 C 0.60668 1.01126 0.30327 0.0
C1674 C 0.58641 0.99903 0.30527 0.0
C1675 C 0.57375 1.00184 0.28952 0.0
H1676 H 0.04037 0.65172 0.32381 0.0
H1677 H 0.099 0.66559 0.3405 0.0
H1678 H 1.03304 0.62 0.30815 0.0
H1679 H 0.09156 0.63371 0.3255 0.0
H1680 H 0.07859 0.59214 0.25545 0.0
H1681 H 0.08643 0.61945 0.28367 0.0
H1682 H 1.02878 0.58836 0.31611 0.0
H1683 H 1.02099 0.56119 0.28722 0.0
C1684 C 0.05156 0.64784 0.32469 0.0
C1685 C 0.07032 0.66129 0.33309 0.0
C1686 C 0.04734 0.62957 0.31586 0.0
C1687 C 0.06176 0.6243 0.31533 0.0
C1688 C 0.0802 0.63738 0.32519 0.0
C1689 C 0.08443 0.65565 0.3339 0.0
C1690 C 0.06793 0.5909 0.26941 0.0
C1691 C 0.04933 0.57454 0.26954 0.0
C1692 C 0.07235 0.60656 0.28555 0.0
C1693 C 0.05817 0.60623 0.30205 0.0
C1694 C 0.03995 0.58922 0.30341 0.0
C1695 C 1.03556 0.57354 0.28721 0.0
H1696 H 0.38665 0.43659 0.31124 0.0
H1697 H 0.40685 0.39948 0.34109 0.0
H1698 H 0.41944 0.46021 0.2986 0.0
H1699 H 0.44005 0.4237 0.33002 0.0
H1700 H 0.48719 0.45389 0.26804 0.0
H1701 H 0.45879 0.43426 0.29393 0.0
H1702 H 0.45133 0.48378 0.30568 0.0
H1703 H 0.47939 0.50311 0.27805 0.0
C1704 C 0.39822 0.4337 0.31569 0.0
C1705 C 0.3941 0.41603 0.32682 0.0
C1706 C 0.41718 0.4474 0.30864 0.0
C1707 C 0.43265 0.44398 0.31297 0.0
C1708 C 0.42859 0.42675 0.32566 0.0
C1709 C 0.40953 0.41285 0.33219 0.0
C1710 C 0.47976 0.4607 0.27673 0.0
C1711 C 0.48534 0.47994 0.27073 0.0
C1712 C 0.46341 0.44944 0.29178 0.0
C1713 C 0.45228 0.45717 0.30165 0.0
C1714 C 0.45911 0.47707 0.29782 0.0
C1715 C 0.47543 0.48833 0.28238 0.0
H1716 H 0.31107 0.27371 0.33429 0.0
H1717 H 0.36788 0.3187 0.35796 0.0
H1718 H 0.31866 0.24922 0.34849 0.0
H1719 H 0.37527 0.29428 0.37305 0.0
H1720 H 0.38841 0.24836 0.39284 0.0
H1721 H 0.3815 0.26868 0.36473 0.0
H1722 H 0.32151 0.23737 0.38887 0.0
H1723 H 0.32851 0.2168 0.41603 0.0
C1724 C 0.32526 0.27838 0.34234 0.0
C1725 C 0.33882 0.29816 0.34523 0.0
C1726 C 0.32958 0.26431 0.35061 0.0
C1727 C 0.3475 0.26968 0.36221 0.0
C1728 C 0.3614 0.28951 0.36393 0.0
C1729 C 0.35714 0.30358 0.35542 0.0
C1730 C 0.37362 0.24539 0.39115 0.0
C1731 C 0.3589 0.2309 0.40615 0.0
C1732 C 0.36969 0.25719 0.37543 0.0
C1733 C 0.351 0.25491 0.37475 0.0
C1734 C 0.33602 0.23948 0.38856 0.0
C1735 C 0.33996 0.2276 0.4041 0.0
H1736 H 0.74517 0.06279 0.35359 0.0
H1737 H 0.79016 0.05006 0.33346 0.0
H1738 H 0.76963 0.09465 0.36873 0.0
H1739 H 0.81471 0.08216 0.34784 0.0
H1740 H 0.84547 0.12464 0.41628 0.0
H1741 H 0.82549 0.09707 0.38866 0.0
H1742 H 0.79603 0.12638 0.36046 0.0
H1743 H 0.81579 0.15369 0.38891 0.0
C1744 C 0.76031 0.06696 0.35183 0.0
C1745 C 0.76568 0.05379 0.3426 0.0
C1746 C 0.77441 0.08533 0.36038 0.0
C1747 C 0.79424 0.09102 0.35973 0.0
C1748 C 0.7996 0.07819 0.34909 0.0
C1749 C 0.78551 0.05979 0.34072 0.0
C1750 C 0.83528 0.12545 0.40333 0.0
C1751 C 0.83233 0.14132 0.40433 0.0
C1752 C 0.82373 0.10963 0.38754 0.0
C1753 C 0.80891 0.10933 0.37247 0.0
C1754 C 0.80704 0.12594 0.37211 0.0
C1755 C 0.81856 0.14173 0.38803 0.0
H1756 H 1.00338 0.69492 0.36088 0.0
H1757 H 1.02063 0.75443 0.345 0.0
H1758 H 0.97133 0.68868 0.37356 0.0
H1759 H 0.98837 0.74809 0.35687 0.0
H1760 H 0.94153 0.73527 0.41978 0.0
H1761 H 0.97064 0.74275 0.39552 0.0
H1762 H 0.94092 0.68543 0.36234 0.0
H1763 H 0.91203 0.67795 0.38748 0.0
C1764 C 1.00021 0.70658 0.35961 0.0
C1765 C 1.01466 0.72521 0.35217 0.0
C1766 C 0.98173 0.70298 0.36671 0.0
C1767 C 0.97716 0.7179 0.3664 0.0
C1768 C 0.9914 0.73632 0.35781 0.0
C1769 C 1.0099 0.73994 0.35087 0.0
C1770 C 0.94102 0.72463 0.40641 0.0
C1771 C 0.92449 0.70619 0.40509 0.0
C1772 C 0.95775 0.72883 0.39256 0.0
C1773 C 0.95832 0.71461 0.37714 0.0
C1774 C 0.94118 0.69662 0.37436 0.0
C1775 C 0.92449 0.69242 0.38834 0.0
H1776 H 0.4526 0.08078 0.66443 0.0
H1777 H 0.40689 0.02506 0.69026 0.0
H1778 H 0.47677 0.07279 0.67907 0.0
H1779 H 0.43098 1.0173 0.70568 0.0
H1780 H 0.4761 1.00337 0.72697 0.0
H1781 H 0.45619 1.01025 0.69797 0.0
H1782 H 0.48851 0.07052 0.72004 0.0
H1783 H 0.50866 0.06352 0.74816 0.0
C1784 C 0.4477 0.06672 0.67296 0.0
C1785 C 0.42781 0.05362 0.6764 0.0
C1786 C 0.46158 0.06218 0.6815 0.0
C1787 C 0.45592 0.04449 0.69387 0.0
C1788 C 0.43597 0.03098 0.696 0.0
C1789 C 0.42209 0.03546 0.68727 0.0
C1790 C 0.47937 1.01818 0.72466 0.0
C1791 C 0.49402 0.033 0.73937 0.0
C1792 C 0.46781 1.02211 0.7084 0.0
C1793 C 0.4705 0.0409 0.70688 0.0
C1794 C 0.4861 0.05592 0.72039 0.0
C1795 C 0.49772 0.05198 0.73649 0.0
H1796 H 1.03082 0.39226 0.67228 0.0
H1797 H 0.97417 0.37142 0.70549 0.0
H1798 H 0.03941 0.42537 0.68271 0.0
H1799 H 0.983 0.40417 0.71751 0.0
H1800 H 0.99913 0.46422 0.73567 0.0
H1801 H 0.99016 0.4355 0.70945 0.0
H1802 H 0.04835 0.44512 0.71772 0.0
H1803 H 0.0573 0.47413 0.74216 0.0
C1804 C 1.02021 0.39477 0.68184 0.0
C1805 C 1.00189 0.3792 0.68826 0.0
C1806 C 1.02514 0.41379 0.688 0.0
C1807 C 1.01205 0.41769 0.70135 0.0
C1808 C 0.99346 0.40204 0.7069 0.0
C1809 C 0.98841 0.3831 0.70023 0.0
C1810 C 1.01012 0.46056 0.73085 0.0
C1811 C 1.02885 0.4713 0.74112 0.0
C1812 C 1.00494 0.44387 0.71624 0.0
C1813 C 1.01833 0.43748 0.71187 0.0
C1814 C 0.03753 0.44936 0.72032 0.0
C1815 C 0.04272 0.46607 0.73453 0.0
H1816 H 0.68701 0.61109 0.67528 0.0
H1817 H 0.66989 0.65361 0.69017 0.0
H1818 H 0.65499 0.58542 0.68838 0.0
H1819 H 0.63806 0.62803 0.70402 0.0
H1820 H 0.57901 0.5794 0.72012 0.0
H1821 H 0.60746 0.60038 0.69396 0.0
H1822 H 0.63818 0.57418 0.72801 0.0
H1823 H 0.60954 0.55301 0.75336 0.0
C1824 C 0.67636 0.61496 0.68116 0.0
C1825 C 0.68109 0.63445 0.68186 0.0
C1826 C 0.65799 0.60022 0.6888 0.0
C1827 C 0.64388 0.60456 0.69749 0.0
C1828 C 0.64838 0.62402 0.69714 0.0
C1829 C 0.66673 0.63876 0.68935 0.0
C1830 C 0.59159 0.5776 0.72101 0.0
C1831 C 0.59203 0.56438 0.73829 0.0
C1832 C 0.60802 0.58984 0.70642 0.0
C1833 C 0.6253 0.58924 0.70908 0.0
C1834 C 0.62515 0.57499 0.72513 0.0
C1835 C 0.60871 0.56274 0.73962 0.0
H1836 H 0.70732 0.73655 0.67608 0.0
H1837 H 0.76586 0.77616 0.65153 0.0
H1838 H 0.69792 0.76038 0.66499 0.0
H1839 H 0.7564 0.79942 0.63893 0.0
H1840 H 0.73928 0.84124 0.61666 0.0
H1841 H 0.74676 0.82191 0.64587 0.0
H1842 H 0.69125 0.77168 0.62831 0.0
H1843 H 0.6836 0.79128 0.60079 0.0
C1844 C 0.71819 0.75038 0.66838 0.0
C1845 C 0.73727 0.75438 0.66443 0.0
C1846 C 0.71281 0.76407 0.66186 0.0
C1847 C 0.72628 0.78191 0.65066 0.0
C1848 C 0.74558 0.78611 0.64784 0.0
C1849 C 0.75102 0.77261 0.65484 0.0
C1850 C 0.7284 0.82629 0.62012 0.0
C1851 C 0.71095 0.81769 0.60634 0.0
C1852 C 0.73279 0.81505 0.63646 0.0
C1853 C 0.71991 0.79496 0.639 0.0
C1854 C 0.70163 0.78699 0.62715 0.0
C1855 C 0.69719 0.79825 0.61121 0.0
H1856 H 0.29134 0.99784 0.68567 0.0
H1857 H 0.33512 0.98972 0.64837 0.0
H1858 H 0.26659 0.96534 0.67304 0.0
H1859 H 0.31034 0.95759 0.63461 0.0
H1860 H 0.26453 0.89897 0.61298 0.0
H1861 H 0.28662 0.92506 0.64165 0.0
H1862 H 0.25087 0.95142 0.63452 0.0
H1863 H 0.2287 0.92498 0.60697 0.0
C1864 C 0.2957 0.98902 0.67496 0.0
C1865 C 0.31516 0.99643 0.66777 0.0
C1866 C 0.28148 0.97039 0.66757 0.0
C1867 C 0.28629 0.95881 0.65238 0.0
C1868 C 0.30599 0.96587 0.6465 0.0
C1869 C 0.32026 0.98441 0.65426 0.0
C1870 C 0.26103 0.90991 0.61867 0.0
C1871 C 0.2448 0.90987 0.60824 0.0
C1872 C 0.27383 0.92506 0.63469 0.0
C1873 C 0.2708 0.94063 0.64019 0.0
C1874 C 0.25369 0.93968 0.63114 0.0
C1875 C 0.24087 0.92448 0.61536 0.0
H1876 H 0.07749 0.35356 0.67946 0.0
H1877 H 0.05846 0.29586 0.65172 0.0
H1878 H 0.11059 0.36354 0.66633 0.0
H1879 H 0.09104 0.30593 0.63716 0.0
H1880 H 0.15062 0.32455 0.61326 0.0
H1881 H 0.12352 0.31577 0.64271 0.0
H1882 H 0.12776 0.37113 0.62867 0.0
H1883 H 0.15532 0.3801 0.60093 0.0
C1884 C 0.08041 0.343 0.67062 0.0
C1885 C 0.06533 0.32399 0.6664 0.0
C1886 C 0.09939 0.34872 0.66292 0.0
C1887 C 0.10367 0.33567 0.65026 0.0
C1888 C 0.08861 0.31642 0.64713 0.0
C1889 C 0.06976 0.31063 0.65529 0.0
C1890 C 0.14618 0.33506 0.61739 0.0
C1891 C 0.15488 0.35289 0.60454 0.0
C1892 C 0.13041 0.32994 0.63392 0.0
C1893 C 0.12294 0.34248 0.63769 0.0
C1894 C 0.13293 0.36101 0.62656 0.0
C1895 C 0.14875 0.36616 0.61041 0.0
H1896 H 0.28889 0.29748 0.65245 0.0
H1897 H 0.33365 0.35641 0.66708 0.0
H1898 H 0.26683 0.30857 0.63992 0.0
H1899 H 0.31122 0.36759 0.65554 0.0
H1900 H 0.27774 0.37839 0.59014 0.0
H1901 H 0.29819 0.37147 0.61735 0.0
H1902 H 0.24719 0.32209 0.64883 0.0
H1903 H 0.2268 0.32875 0.62042 0.0
C1904 C 0.29392 0.31282 0.65352 0.0
C1905 C 0.31315 0.32607 0.66043 0.0
C1906 C 0.28113 0.31921 0.64657 0.0
C1907 C 0.28714 0.33906 0.64655 0.0
C1908 C 0.30611 0.35224 0.65485 0.0
C1909 C 0.31899 0.34583 0.66157 0.0
C1910 C 0.27089 0.36648 0.6036 0.0
C1911 C 0.25072 0.354 0.60303 0.0
C1912 C 0.28263 0.36246 0.61928 0.0
C1913 C 0.27446 0.3459 0.63497 0.0
C1914 C 0.25406 0.33467 0.63649 0.0
C1915 C 0.2423 0.33865 0.62058 0.0
H1916 H 0.7609 1.00516 0.65187 0.0
H1917 H 0.7013 0.98955 0.66472 0.0
H1918 H 0.75064 0.97213 0.63962 0.0
H1919 H 0.69093 0.95606 0.65354 0.0
H1920 H 0.68176 0.91178 0.58889 0.0
H1921 H 0.68777 0.939 0.61584 0.0
H1922 H 0.73771 0.93915 0.6484 0.0
H1923 H 0.732 0.91228 0.6202 0.0
C1924 C 0.74559 0.99456 0.65263 0.0
C1925 C 0.73191 1.0001 0.65893 0.0
C1926 C 0.73967 0.97545 0.64584 0.0
C1927 C 0.71988 0.96123 0.6454 0.0
C1928 C 0.70627 0.9666 0.65314 0.0
C1929 C 0.7122 0.98582 0.65967 0.0
C1930 C 0.6936 0.9172 0.60252 0.0
C1931 C 0.70652 0.91006 0.60229 0.0
C1932 C 0.6971 0.93288 0.61807 0.0
C1933 C 0.71357 0.94175 0.63397 0.0
C1934 C 0.72521 0.9331 0.63587 0.0
C1935 C 0.72176 0.91744 0.62009 0.0
H1936 H 0.05205 0.77093 0.66512 0.0
H1937 H 0.06858 0.72809 0.64931 0.0
H1938 H 0.08446 0.79655 0.6534 0.0
H1939 H 0.1008 0.75362 0.63675 0.0
H1940 H 0.16025 0.80161 0.62252 0.0
H1941 H 0.13136 0.78061 0.6479 0.0
H1942 H 0.10211 0.80861 0.61467 0.0
H1943 H 0.13121 0.82983 0.59018 0.0
C1944 C 0.06265 0.76698 0.6593 0.0
C1945 C 0.05765 0.74743 0.65795 0.0
C1946 C 0.08125 0.78169 0.65246 0.0
C1947 C 0.09532 0.77726 0.64389 0.0
C1948 C 0.09051 0.75771 0.64357 0.0
C1949 C 0.07194 0.74299 0.65061 0.0
C1950 C 0.1479 0.8038 0.62169 0.0
C1951 C 0.148 0.81753 0.60485 0.0
C1952 C 0.13122 0.79155 0.63582 0.0
C1953 C 0.1142 0.79262 0.63309 0.0
C1954 C 0.11491 0.80741 0.61758 0.0
C1955 C 0.13162 0.8197 0.6036 0.0
H1956 H 0.97866 0.60693 0.66114 0.0
H1957 H 1.03124 0.65211 0.69532 0.0
H1958 H 0.98745 0.583 0.67375 0.0
H1959 H 0.03963 0.62814 0.70927 0.0
H1960 H 0.05434 0.58378 0.73109 0.0
H1961 H 0.04902 0.60498 0.70249 0.0
H1962 H 0.9871 0.56796 0.71191 0.0
H1963 H 0.99267 0.54666 0.73926 0.0
C1964 C 0.99218 0.61176 0.67124 0.0
C1965 C 1.00415 0.63137 0.67749 0.0
C1966 C 0.9972 0.59801 0.67863 0.0
C1967 C 1.01413 0.60345 0.69298 0.0
C1968 C 1.0266 0.62329 0.69802 0.0
C1969 C 1.02174 0.63709 0.69018 0.0
C1970 C 0.03965 0.57979 0.72587 0.0
C1971 C 1.02389 0.56346 0.7369 0.0
C1972 C 0.03655 0.59211 0.70992 0.0
C1973 C 1.01761 0.58848 0.70511 0.0
C1974 C 1.00189 0.57125 0.71472 0.0
C1975 C 1.00502 0.5589 0.73039 0.0
H1976 H 0.40548 0.38902 0.69873 0.0
H1977 H 0.44967 0.37983 0.66501 0.0
H1978 H 0.43004 0.42174 0.71074 0.0
H1979 H 0.47418 0.4129 0.67552 0.0
H1980 H 0.51249 0.45725 0.73745 0.0
H1981 H 0.49045 0.42941 0.71193 0.0
H1982 H 0.45313 0.4538 0.70215 0.0
H1983 H 0.47504 0.48125 0.72908 0.0
C1984 C 0.4204 0.39419 0.69331 0.0
C1985 C 0.42568 0.38177 0.6813 0.0
C1986 C 0.43456 0.41307 0.7 0.0
C1987 C 0.4543 0.42011 0.69441 0.0
C1988 C 0.45928 0.40796 0.68082 0.0
C1989 C 0.4452 0.38899 0.67464 0.0
C1990 C 0.50001 0.45702 0.72883 0.0
C1991 C 0.49558 0.47146 0.73486 0.0
C1992 C 0.48723 0.44097 0.71423 0.0
C1993 C 0.46968 0.43903 0.70516 0.0
C1994 C 0.46621 0.45449 0.70927 0.0
C1995 C 0.47894 0.47045 0.72422 0.0
H1996 H 0.67651 0.08129 0.68118 0.0
H1997 H 0.66348 1.02225 0.67209 0.0
H1998 H 0.64365 0.07002 0.69554 0.0
H1999 H 0.63008 1.0108 0.68545 0.0
H2000 H 0.58886 1.0027 0.75396 0.0
H2001 H 0.615 1.00876 0.72473 0.0
H2002 H 0.60999 0.05508 0.6896 0.0
H2003 H 0.58426 0.04942 0.72006 0.0
C2004 C 0.66647 0.06585 0.68166 0.0
C2005 C 0.67274 0.05267 0.67587 0.0
C2006 C 0.64745 0.05934 0.68968 0.0
C2007 C 0.63406 0.03943 0.69191 0.0
C2008 C 0.64003 0.02624 0.68449 0.0
C2009 C 0.65917 0.03278 0.6767 0.0
C2010 C 0.59295 1.01378 0.73943 0.0
C2011 C 0.58477 0.02579 0.73952 0.0
C2012 C 0.60795 1.01725 0.72251 0.0
C2013 C 0.61505 0.03276 0.70507 0.0
C2014 C 0.6053 0.04336 0.70325 0.0
C2015 C 0.59032 0.03994 0.72039 0.0
loop_
_geom_bond_atom_site_label_1
_geom_bond_atom_site_label_2
_geom_bond_distance
_geom_bond_site_symmetry_2
_ccdc_geom_bond_type
O0 Cd1 2.223 . S
O0 C8 1.315 . S
Cd1 O0 2.223 . S
Cd1 O4 2.297 . S
Cd1 O5 2.439 . S
Cd1 O11 2.240 1_554 S
Cd2 O3 2.240 . S
Cd2 O10 2.223 1_554 S
Cd2 O12 2.297 1_554 S
Cd2 O13 2.439 1_554 S
O3 Cd2 2.240 . S
O3 C8 1.279 1_655 S
O4 Cd1 2.297 . S
O4 C6 1.247 . S
O5 Cd1 2.439 . S
O5 C6 1.208 . S
C6 O4 1.247 . S
C6 O5 1.208 . S
C7 O12 1.247 . S
C7 O13 1.208 . S
C8 O0 1.315 . S
C8 O3 1.279 1_455 S
C9 O10 1.315 . S
C9 O11 1.279 1_655 S
O10 Cd2 2.223 1_556 S
O10 C9 1.315 . S
O11 Cd1 2.240 1_556 S
O11 C9 1.279 1_455 S
O12 Cd2 2.297 1_556 S
O12 C7 1.247 . S
O13 Cd2 2.439 1_556 S
O13 C7 1.208 . S
O14 Cd15 2.223 . S
O14 C22 1.315 . S
Cd15 O14 2.223 . S
Cd15 O18 2.297 . S
Cd15 O19 2.439 . S
Cd15 O25 2.240 1_554 S
Cd16 O17 2.240 . S
Cd16 O24 2.223 1_554 S
Cd16 O26 2.297 1_554 S
Cd16 O27 2.439 1_554 S
O17 Cd16 2.240 . S
O17 C22 1.279 . S
O18 Cd15 2.297 . S
O18 C20 1.247 . S
O19 Cd15 2.439 . S
O19 C20 1.208 . S
C20 O18 1.247 . S
C20 O19 1.208 . S
C21 O26 1.247 . S
C21 O27 1.208 . S
C22 O14 1.315 . S
C22 O17 1.279 . S
C23 O24 1.315 . S
C23 O25 1.279 . S
O24 Cd16 2.223 1_556 S
O24 C23 1.315 . S
O25 Cd15 2.240 1_556 S
O25 C23 1.279 . S
O26 Cd16 2.297 1_556 S
O26 C21 1.247 . S
O27 Cd16 2.439 1_556 S
O27 C21 1.208 . S
O28 Cd29 2.223 1_556 S
O28 C36 1.315 . S
Cd29 O28 2.223 1_554 S
Cd29 O32 2.297 1_554 S
Cd29 O33 2.439 1_554 S
Cd29 O39 2.240 . S
Cd30 O31 2.240 1_554 S
Cd30 O38 2.223 . S
Cd30 O40 2.297 . S
Cd30 O41 2.439 . S
O31 Cd30 2.240 1_556 S
O31 C36 1.279 1_565 S
O32 Cd29 2.297 1_556 S
O32 C34 1.247 . S
O33 Cd29 2.439 1_556 S
O33 C34 1.208 . S
C34 O32 1.247 . S
C34 O33 1.208 . S
C35 O40 1.247 . S
C35 O41 1.208 . S
C36 O28 1.315 . S
C36 O31 1.279 1_545 S
C37 O38 1.315 . S
C37 O39 1.279 1_565 S
O38 Cd30 2.223 . S
O38 C37 1.315 . S
O39 Cd29 2.240 . S
O39 C37 1.279 1_545 S
O40 Cd30 2.297 . S
O40 C35 1.247 . S
O41 Cd30 2.439 . S
O41 C35 1.208 . S
O42 Cd43 2.223 1_556 S
O42 C50 1.315 . S
Cd43 O42 2.223 1_554 S
Cd43 O46 2.297 1_554 S
Cd43 O47 2.439 1_554 S
Cd43 O53 2.240 . S
Cd44 O45 2.240 1_554 S
Cd44 O52 2.223 . S
Cd44 O54 2.297 . S
Cd44 O55 2.439 . S
O45 Cd44 2.240 1_556 S
O45 C50 1.279 1_455 S
O46 Cd43 2.297 1_556 S
O46 C48 1.247 . S
O47 Cd43 2.439 1_556 S
O47 C48 1.208 . S
C48 O46 1.247 . S
C48 O47 1.208 . S
C49 O54 1.247 . S
C49 O55 1.208 . S
C50 O42 1.315 . S
C50 O45 1.279 1_655 S
C51 O52 1.315 . S
C51 O53 1.279 1_455 S
O52 Cd44 2.223 . S
O52 C51 1.315 . S
O53 Cd43 2.240 . S
O53 C51 1.279 1_655 S
O54 Cd44 2.297 . S
O54 C49 1.247 . S
O55 Cd44 2.439 . S
O55 C49 1.208 . S
O56 Cd57 2.223 1_556 S
O56 C64 1.315 . S
Cd57 O56 2.223 1_554 S
Cd57 O60 2.297 1_554 S
Cd57 O61 2.439 1_554 S
Cd57 O67 2.240 . S
Cd58 O59 2.240 1_554 S
Cd58 O66 2.223 . S
Cd58 O68 2.297 . S
Cd58 O69 2.439 . S
O59 Cd58 2.240 1_556 S
O59 C64 1.279 . S
O60 Cd57 2.297 1_556 S
O60 C62 1.247 . S
O61 Cd57 2.439 1_556 S
O61 C62 1.208 . S
C62 O60 1.247 . S
C62 O61 1.208 . S
C63 O68 1.247 . S
C63 O69 1.208 . S
C64 O56 1.315 . S
C64 O59 1.279 . S
C65 O66 1.315 . S
C65 O67 1.279 . S
O66 Cd58 2.223 . S
O66 C65 1.315 . S
O67 Cd57 2.240 . S
O67 C65 1.279 . S
O68 Cd58 2.297 . S
O68 C63 1.247 . S
O69 Cd58 2.439 . S
O69 C63 1.208 . S
O70 Cd71 2.223 . S
O70 C78 1.315 . S
Cd71 O70 2.223 . S
Cd71 O74 2.297 . S
Cd71 O75 2.439 . S
Cd71 O81 2.240 1_554 S
Cd72 O73 2.240 . S
Cd72 O80 2.223 1_554 S
Cd72 O82 2.297 1_554 S
Cd72 O83 2.439 1_554 S
O73 Cd72 2.240 . S
O73 C78 1.279 1_545 S
O74 Cd71 2.297 . S
O74 C76 1.247 . S
O75 Cd71 2.439 . S
O75 C76 1.208 . S
C76 O74 1.247 . S
C76 O75 1.208 . S
C77 O82 1.247 . S
C77 O83 1.208 . S
C78 O70 1.315 . S
C78 O73 1.279 1_565 S
C79 O80 1.315 . S
C79 O81 1.279 1_545 S
O80 Cd72 2.223 1_556 S
O80 C79 1.315 . S
O81 Cd71 2.240 1_556 S
O81 C79 1.279 1_565 S
O82 Cd72 2.297 1_556 S
O82 C77 1.247 . S
O83 Cd72 2.439 1_556 S
O83 C77 1.208 . S
O84 Cd85 2.223 . S
O84 C92 1.315 . S
Cd85 O84 2.223 . S
Cd85 O88 2.297 . S
Cd85 O89 2.439 . S
Cd85 O95 2.240 . S
Cd86 O87 2.240 . S
Cd86 O94 2.223 . S
Cd86 O96 2.297 . S
Cd86 O97 2.439 . S
O87 Cd86 2.240 . S
O87 C92 1.279 . S
O88 Cd85 2.297 . S
O88 C90 1.247 . S
O89 Cd85 2.439 . S
O89 C90 1.208 . S
C90 O88 1.247 . S
C90 O89 1.208 . S
C91 O96 1.247 . S
C91 O97 1.208 . S
C92 O84 1.315 . S
C92 O87 1.279 . S
C93 O94 1.315 . S
C93 O95 1.279 . S
O94 Cd86 2.223 . S
O94 C93 1.315 . S
O95 Cd85 2.240 . S
O95 C93 1.279 . S
O96 Cd86 2.297 . S
O96 C91 1.247 . S
O97 Cd86 2.439 . S
O97 C91 1.208 . S
O98 Cd99 2.223 . S
O98 C106 1.315 . S
Cd99 O98 2.223 . S
Cd99 O102 2.297 1_565 S
Cd99 O103 2.439 1_565 S
Cd99 O109 2.240 . S
Cd100 O101 2.240 . S
Cd100 O108 2.223 . S
Cd100 O110 2.297 . S
Cd100 O111 2.439 . S
O101 Cd100 2.240 . S
O101 C106 1.279 . S
O102 Cd99 2.297 1_545 S
O102 C104 1.247 . S
O103 Cd99 2.439 1_545 S
O103 C104 1.208 . S
C104 O102 1.247 . S
C104 O103 1.208 . S
C105 O110 1.247 . S
C105 O111 1.208 . S
C106 O98 1.315 . S
C106 O101 1.279 . S
C107 O108 1.315 . S
C107 O109 1.279 . S
O108 Cd100 2.223 . S
O108 C107 1.315 . S
O109 Cd99 2.240 . S
O109 C107 1.279 . S
O110 Cd100 2.297 . S
O110 C105 1.247 . S
O111 Cd100 2.439 . S
O111 C105 1.208 . S
O112 Cd113 2.223 . S
O112 C120 1.315 . S
Cd113 O112 2.223 . S
Cd113 O116 2.297 . S
Cd113 O117 2.439 . S
Cd113 O123 2.240 . S
Cd114 O115 2.240 . S
Cd114 O122 2.223 . S
Cd114 O124 2.297 1_455 S
Cd114 O125 2.439 1_455 S
O115 Cd114 2.240 . S
O115 C120 1.279 . S
O116 Cd113 2.297 . S
O116 C118 1.247 . S
O117 Cd113 2.439 . S
O117 C118 1.208 . S
C118 O116 1.247 . S
C118 O117 1.208 . S
C119 O124 1.247 . S
C119 O125 1.208 . S
C120 O112 1.315 . S
C120 O115 1.279 . S
C121 O122 1.315 . S
C121 O123 1.279 . S
O122 Cd114 2.223 . S
O122 C121 1.315 . S
O123 Cd113 2.240 . S
O123 C121 1.279 . S
O124 Cd114 2.297 1_655 S
O124 C119 1.247 . S
O125 Cd114 2.439 1_655 S
O125 C119 1.208 . S
O126 Cd127 2.223 . S
O126 C134 1.315 . S
Cd127 O126 2.223 . S
Cd127 O130 2.297 . S
Cd127 O131 2.439 . S
Cd127 O137 2.240 . S
Cd128 O129 2.240 . S
Cd128 O136 2.223 . S
Cd128 O138 2.297 1_565 S
Cd128 O139 2.439 1_565 S
O129 Cd128 2.240 . S
O129 C134 1.279 . S
O130 Cd127 2.297 . S
O130 C132 1.247 . S
O131 Cd127 2.439 . S
O131 C132 1.208 . S
C132 O130 1.247 . S
C132 O131 1.208 . S
C133 O138 1.247 . S
C133 O139 1.208 . S
C134 O126 1.315 . S
C134 O129 1.279 . S
C135 O136 1.315 . S
C135 O137 1.279 . S
O136 Cd128 2.223 . S
O136 C135 1.315 . S
O137 Cd127 2.240 . S
O137 C135 1.279 . S
O138 Cd128 2.297 1_545 S
O138 C133 1.247 . S
O139 Cd128 2.439 1_545 S
O139 C133 1.208 . S
O140 Cd141 2.223 . S
O140 C148 1.315 . S
Cd141 O140 2.223 . S
Cd141 O144 2.297 . S
Cd141 O145 2.439 . S
Cd141 O151 2.240 . S
Cd142 O143 2.240 . S
Cd142 O150 2.223 . S
Cd142 O152 2.297 1_455 S
Cd142 O153 2.439 1_455 S
O143 Cd142 2.240 . S
O143 C148 1.279 . S
O144 Cd141 2.297 . S
O144 C146 1.247 . S
O145 Cd141 2.439 . S
O145 C146 1.208 . S
C146 O144 1.247 . S
C146 O145 1.208 . S
C147 O152 1.247 . S
C147 O153 1.208 . S
C148 O140 1.315 . S
C148 O143 1.279 . S
C149 O150 1.315 . S
C149 O151 1.279 . S
O150 Cd142 2.223 . S
O150 C149 1.315 . S
O151 Cd141 2.240 . S
O151 C149 1.279 . S
O152 Cd142 2.297 1_655 S
O152 C147 1.247 . S
O153 Cd142 2.439 1_655 S
O153 C147 1.208 . S
O154 Cd155 2.223 . S
O154 C162 1.315 . S
Cd155 O154 2.223 . S
Cd155 O158 2.297 . S
Cd155 O159 2.439 . S
Cd155 O165 2.240 . S
Cd156 O157 2.240 . S
Cd156 O164 2.223 . S
Cd156 O166 2.297 . S
Cd156 O167 2.439 . S
O157 Cd156 2.240 . S
O157 C162 1.279 . S
O158 Cd155 2.297 . S
O158 C160 1.247 . S
O159 Cd155 2.439 . S
O159 C160 1.208 . S
C160 O158 1.247 . S
C160 O159 1.208 . S
C161 O166 1.247 . S
C161 O167 1.208 . S
C162 O154 1.315 . S
C162 O157 1.279 . S
C163 O164 1.315 . S
C163 O165 1.279 . S
O164 Cd156 2.223 . S
O164 C163 1.315 . S
O165 Cd155 2.240 . S
O165 C163 1.279 . S
O166 Cd156 2.297 . S
O166 C161 1.247 . S
O167 Cd156 2.439 . S
O167 C161 1.208 . S
O168 Cd169 2.223 . S
O168 C176 1.315 . S
Cd169 O168 2.223 . S
Cd169 O172 2.297 . S
Cd169 O173 2.439 . S
Cd169 O179 2.240 . S
Cd170 O171 2.240 . S
Cd170 O178 2.223 . S
Cd170 O180 2.297 1_545 S
Cd170 O181 2.439 1_545 S
O171 Cd170 2.240 . S
O171 C176 1.279 . S
O172 Cd169 2.297 . S
O172 C174 1.247 . S
O173 Cd169 2.439 . S
O173 C174 1.208 . S
C174 O172 1.247 . S
C174 O173 1.208 . S
C175 O180 1.247 . S
C175 O181 1.208 . S
C176 O168 1.315 . S
C176 O171 1.279 . S
C177 O178 1.315 . S
C177 O179 1.279 . S
O178 Cd170 2.223 . S
O178 C177 1.315 . S
O179 Cd169 2.240 . S
O179 C177 1.279 . S
O180 Cd170 2.297 1_565 S
O180 C175 1.247 . S
O181 Cd170 2.439 1_565 S
O181 C175 1.208 . S
O182 Cd183 2.223 . S
O182 C190 1.315 . S
Cd183 O182 2.223 . S
Cd183 O186 2.297 . S
Cd183 O187 2.439 . S
Cd183 O193 2.240 . S
Cd184 O185 2.240 . S
Cd184 O192 2.223 . S
Cd184 O194 2.297 1_655 S
Cd184 O195 2.439 1_655 S
O185 Cd184 2.240 . S
O185 C190 1.279 . S
O186 Cd183 2.297 . S
O186 C188 1.247 . S
O187 Cd183 2.439 . S
O187 C188 1.208 . S
C188 O186 1.247 . S
C188 O187 1.208 . S
C189 O194 1.247 . S
C189 O195 1.208 . S
C190 O182 1.315 . S
C190 O185 1.279 . S
C191 O192 1.315 . S
C191 O193 1.279 . S
O192 Cd184 2.223 . S
O192 C191 1.315 . S
O193 Cd183 2.240 . S
O193 C191 1.279 . S
O194 Cd184 2.297 1_455 S
O194 C189 1.247 . S
O195 Cd184 2.439 1_455 S
O195 C189 1.208 . S
O196 Cd197 2.223 . S
O196 C204 1.315 . S
Cd197 O196 2.223 . S
Cd197 O200 2.297 . S
Cd197 O201 2.439 . S
Cd197 O207 2.240 . S
Cd198 O199 2.240 . S
Cd198 O206 2.223 . S
Cd198 O208 2.297 . S
Cd198 O209 2.439 . S
O199 Cd198 2.240 . S
O199 C204 1.279 . S
O200 Cd197 2.297 . S
O200 C202 1.247 . S
O201 Cd197 2.439 . S
O201 C202 1.208 . S
C202 O200 1.247 . S
C202 O201 1.208 . S
C203 O208 1.247 . S
C203 O209 1.208 . S
C204 O196 1.315 . S
C204 O199 1.279 . S
C205 O206 1.315 . S
C205 O207 1.279 . S
O206 Cd198 2.223 . S
O206 C205 1.315 . S
O207 Cd197 2.240 . S
O207 C205 1.279 . S
O208 Cd198 2.297 . S
O208 C203 1.247 . S
O209 Cd198 2.439 . S
O209 C203 1.208 . S
O210 Cd211 2.223 . S
O210 C218 1.315 . S
Cd211 O210 2.223 . S
Cd211 O214 2.297 . S
Cd211 O215 2.439 . S
Cd211 O221 2.240 . S
Cd212 O213 2.240 . S
Cd212 O220 2.223 . S
Cd212 O222 2.297 . S
Cd212 O223 2.439 . S
O213 Cd212 2.240 . S
O213 C218 1.279 . S
O214 Cd211 2.297 . S
O214 C216 1.247 . S
O215 Cd211 2.439 . S
O215 C216 1.208 . S
C216 O214 1.247 . S
C216 O215 1.208 . S
C217 O222 1.247 . S
C217 O223 1.208 . S
C218 O210 1.315 . S
C218 O213 1.279 . S
C219 O220 1.315 . S
C219 O221 1.279 . S
O220 Cd212 2.223 . S
O220 C219 1.315 . S
O221 Cd211 2.240 . S
O221 C219 1.279 . S
O222 Cd212 2.297 . S
O222 C217 1.247 . S
O223 Cd212 2.439 . S
O223 C217 1.208 . S
O224 Cd225 2.223 . S
O224 C232 1.315 . S
Cd225 O224 2.223 . S
Cd225 O228 2.297 1_545 S
Cd225 O229 2.439 1_545 S
Cd225 O235 2.240 . S
Cd226 O227 2.240 . S
Cd226 O234 2.223 . S
Cd226 O236 2.297 . S
Cd226 O237 2.439 . S
O227 Cd226 2.240 . S
O227 C232 1.279 . S
O228 Cd225 2.297 1_565 S
O228 C230 1.247 . S
O229 Cd225 2.439 1_565 S
O229 C230 1.208 . S
C230 O228 1.247 . S
C230 O229 1.208 . S
C231 O236 1.247 . S
C231 O237 1.208 . S
C232 O224 1.315 . S
C232 O227 1.279 . S
C233 O234 1.315 . S
C233 O235 1.279 . S
O234 Cd226 2.223 . S
O234 C233 1.315 . S
O235 Cd225 2.240 . S
O235 C233 1.279 . S
O236 Cd226 2.297 . S
O236 C231 1.247 . S
O237 Cd226 2.439 . S
O237 C231 1.208 . S
O238 Cd239 2.223 . S
O238 C246 1.315 . S
Cd239 O238 2.223 . S
Cd239 O242 2.297 . S
Cd239 O243 2.439 . S
Cd239 O249 2.240 . S
Cd240 O241 2.240 . S
Cd240 O248 2.223 . S
Cd240 O250 2.297 1_655 S
Cd240 O251 2.439 1_655 S
O241 Cd240 2.240 . S
O241 C246 1.279 . S
O242 Cd239 2.297 . S
O242 C244 1.247 . S
O243 Cd239 2.439 . S
O243 C244 1.208 . S
C244 O242 1.247 . S
C244 O243 1.208 . S
C245 O250 1.247 . S
C245 O251 1.208 . S
C246 O238 1.315 . S
C246 O241 1.279 . S
C247 O248 1.315 . S
C247 O249 1.279 . S
O248 Cd240 2.223 . S
O248 C247 1.315 . S
O249 Cd239 2.240 . S
O249 C247 1.279 . S
O250 Cd240 2.297 1_455 S
O250 C245 1.247 . S
O251 Cd240 2.439 1_455 S
O251 C245 1.208 . S
H252 C258 0.930 . S
H253 C261 0.931 . S
H254 C263 0.931 . S
H255 C265 0.930 . S
H256 C267 0.930 . S
H257 C269 0.931 . S
C258 H252 0.930 . S
C258 C259 1.380 . S
C258 C260 1.394 . S
C259 C258 1.380 . S
C259 C263 1.382 . S
C260 C258 1.394 . S
C260 C261 1.400 . S
C261 H253 0.931 . S
C261 C260 1.400 . S
C261 C262 1.375 . S
C262 C261 1.375 . S
C262 C263 1.415 . S
C262 C264 1.501 . S
C263 H254 0.931 . S
C263 C259 1.382 . S
C263 C262 1.415 . S
C264 C262 1.501 . S
C264 C265 1.384 . S
C264 C269 1.408 . S
C265 H255 0.930 . S
C265 C264 1.384 . S
C265 C266 1.389 . S
C266 C265 1.389 . S
C266 C267 1.405 . S
C267 H256 0.930 . S
C267 C266 1.405 . S
C267 C268 1.364 . S
C268 C267 1.364 . S
C268 C269 1.400 . S
C269 H257 0.931 . S
C269 C264 1.408 . S
C269 C268 1.400 . S
H270 C276 0.930 . S
H271 C279 0.931 . S
H272 C281 0.931 . S
H273 C283 0.930 . S
H274 C285 0.930 . S
H275 C287 0.931 . S
C276 H270 0.930 . S
C276 C277 1.380 . S
C276 C278 1.394 . S
C277 C276 1.380 . S
C277 C281 1.382 . S
C278 C276 1.394 . S
C278 C279 1.400 . S
C279 H271 0.931 . S
C279 C278 1.400 . S
C279 C280 1.375 . S
C280 C279 1.375 . S
C280 C281 1.415 . S
C280 C282 1.501 . S
C281 H272 0.931 . S
C281 C277 1.382 . S
C281 C280 1.415 . S
C282 C280 1.501 . S
C282 C283 1.384 . S
C282 C287 1.408 . S
C283 H273 0.930 . S
C283 C282 1.384 . S
C283 C284 1.389 . S
C284 C283 1.389 . S
C284 C285 1.405 . S
C285 H274 0.930 . S
C285 C284 1.405 . S
C285 C286 1.364 . S
C286 C285 1.364 . S
C286 C287 1.400 . S
C287 H275 0.931 . S
C287 C282 1.408 . S
C287 C286 1.400 . S
H288 C294 0.930 . S
H289 C297 0.931 . S
H290 C299 0.931 . S
H291 C301 0.930 . S
H292 C303 0.930 . S
H293 C305 0.931 . S
C294 H288 0.930 . S
C294 C295 1.380 . S
C294 C296 1.394 . S
C295 C294 1.380 . S
C295 C299 1.382 . S
C296 C294 1.394 . S
C296 C297 1.400 . S
C297 H289 0.931 . S
C297 C296 1.400 . S
C297 C298 1.375 . S
C298 C297 1.375 . S
C298 C299 1.415 . S
C298 C300 1.501 . S
C299 H290 0.931 . S
C299 C295 1.382 . S
C299 C298 1.415 . S
C300 C298 1.501 . S
C300 C301 1.384 . S
C300 C305 1.408 . S
C301 H291 0.930 . S
C301 C300 1.384 . S
C301 C302 1.389 . S
C302 C301 1.389 . S
C302 C303 1.405 . S
C303 H292 0.930 . S
C303 C302 1.405 . S
C303 C304 1.364 . S
C304 C303 1.364 . S
C304 C305 1.400 . S
C305 H293 0.931 . S
C305 C300 1.408 . S
C305 C304 1.400 . S
H306 C312 0.930 . S
H307 C315 0.931 . S
H308 C317 0.931 . S
H309 C319 0.930 . S
H310 C321 0.930 . S
H311 C323 0.931 . S
C312 H306 0.930 . S
C312 C313 1.380 . S
C312 C314 1.394 . S
C313 C312 1.380 . S
C313 C317 1.382 . S
C314 C312 1.394 . S
C314 C315 1.400 . S
C315 H307 0.931 . S
C315 C314 1.400 . S
C315 C316 1.375 . S
C316 C315 1.375 . S
C316 C317 1.415 . S
C316 C318 1.501 . S
C317 H308 0.931 . S
C317 C313 1.382 . S
C317 C316 1.415 . S
C318 C316 1.501 . S
C318 C319 1.384 . S
C318 C323 1.408 . S
C319 H309 0.930 . S
C319 C318 1.384 . S
C319 C320 1.389 . S
C320 C319 1.389 . S
C320 C321 1.405 . S
C321 H310 0.930 . S
C321 C320 1.405 . S
C321 C322 1.364 . S
C322 C321 1.364 . S
C322 C323 1.400 . S
C323 H311 0.931 . S
C323 C318 1.408 . S
C323 C322 1.400 . S
H324 C330 0.930 . S
H325 C333 0.931 . S
H326 C335 0.931 . S
H327 C337 0.930 . S
H328 C339 0.930 . S
H329 C341 0.931 . S
C330 H324 0.930 . S
C330 C331 1.380 . S
C330 C332 1.394 . S
C331 C330 1.380 . S
C331 C335 1.382 . S
C332 C330 1.394 . S
C332 C333 1.400 . S
C333 H325 0.931 . S
C333 C332 1.400 . S
C333 C334 1.375 . S
C334 C333 1.375 . S
C334 C335 1.415 . S
C334 C336 1.501 . S
C335 H326 0.931 . S
C335 C331 1.382 . S
C335 C334 1.415 . S
C336 C334 1.501 . S
C336 C337 1.384 . S
C336 C341 1.408 . S
C337 H327 0.930 . S
C337 C336 1.384 . S
C337 C338 1.389 . S
C338 C337 1.389 . S
C338 C339 1.405 . S
C339 H328 0.930 . S
C339 C338 1.405 . S
C339 C340 1.364 . S
C340 C339 1.364 . S
C340 C341 1.400 . S
C341 H329 0.931 . S
C341 C336 1.408 . S
C341 C340 1.400 . S
H342 C348 0.930 . S
H343 C351 0.931 . S
H344 C353 0.931 . S
H345 C355 0.930 . S
H346 C357 0.930 . S
H347 C359 0.931 . S
C348 H342 0.930 . S
C348 C349 1.380 . S
C348 C350 1.394 . S
C349 C348 1.380 . S
C349 C353 1.382 . S
C350 C348 1.394 . S
C350 C351 1.400 . S
C351 H343 0.931 . S
C351 C350 1.400 . S
C351 C352 1.375 . S
C352 C351 1.375 . S
C352 C353 1.415 . S
C352 C354 1.501 . S
C353 H344 0.931 . S
C353 C349 1.382 . S
C353 C352 1.415 . S
C354 C352 1.501 . S
C354 C355 1.384 . S
C354 C359 1.408 . S
C355 H345 0.930 . S
C355 C354 1.384 . S
C355 C356 1.389 . S
C356 C355 1.389 . S
C356 C357 1.405 . S
C357 H346 0.930 . S
C357 C356 1.405 . S
C357 C358 1.364 . S
C358 C357 1.364 . S
C358 C359 1.400 . S
C359 H347 0.931 . S
C359 C354 1.408 . S
C359 C358 1.400 . S
H360 C366 0.930 . S
H361 C369 0.931 . S
H362 C371 0.931 . S
H363 C373 0.930 . S
H364 C375 0.930 . S
H365 C377 0.931 . S
C366 H360 0.930 . S
C366 C367 1.380 . S
C366 C368 1.394 . S
C367 C366 1.380 . S
C367 C371 1.382 . S
C368 C366 1.394 . S
C368 C369 1.400 . S
C369 H361 0.931 . S
C369 C368 1.400 . S
C369 C370 1.375 . S
C370 C369 1.375 . S
C370 C371 1.415 . S
C370 C372 1.501 . S
C371 H362 0.931 . S
C371 C367 1.382 . S
C371 C370 1.415 . S
C372 C370 1.501 . S
C372 C373 1.384 . S
C372 C377 1.408 . S
C373 H363 0.930 . S
C373 C372 1.384 . S
C373 C374 1.389 . S
C374 C373 1.389 . S
C374 C375 1.405 . S
C375 H364 0.930 . S
C375 C374 1.405 . S
C375 C376 1.364 . S
C376 C375 1.364 . S
C376 C377 1.400 . S
C377 H365 0.931 . S
C377 C372 1.408 . S
C377 C376 1.400 . S
H378 C384 0.930 . S
H379 C387 0.931 . S
H380 C389 0.931 . S
H381 C391 0.930 . S
H382 C393 0.930 . S
H383 C395 0.931 . S
C384 H378 0.930 . S
C384 C385 1.380 . S
C384 C386 1.394 . S
C385 C384 1.380 . S
C385 C389 1.382 . S
C386 C384 1.394 . S
C386 C387 1.400 . S
C387 H379 0.931 . S
C387 C386 1.400 . S
C387 C388 1.375 . S
C388 C387 1.375 . S
C388 C389 1.415 . S
C388 C390 1.501 . S
C389 H380 0.931 . S
C389 C385 1.382 . S
C389 C388 1.415 . S
C390 C388 1.501 . S
C390 C391 1.384 . S
C390 C395 1.408 . S
C391 H381 0.930 . S
C391 C390 1.384 . S
C391 C392 1.389 . S
C392 C391 1.389 . S
C392 C393 1.405 . S
C393 H382 0.930 . S
C393 C392 1.405 . S
C393 C394 1.364 . S
C394 C393 1.364 . S
C394 C395 1.400 . S
C395 H383 0.931 . S
C395 C390 1.408 . S
C395 C394 1.400 . S
H396 C402 0.930 . S
H397 C405 0.931 . S
H398 C407 0.931 . S
H399 C409 0.930 . S
H400 C411 0.930 . S
H401 C413 0.931 . S
C402 H396 0.930 . S
C402 C403 1.380 . S
C402 C404 1.394 . S
C403 C402 1.380 . S
C403 C407 1.382 . S
C404 C402 1.394 . S
C404 C405 1.400 . S
C405 H397 0.931 . S
C405 C404 1.400 . S
C405 C406 1.375 . S
C406 C405 1.375 . S
C406 C407 1.415 . S
C406 C408 1.501 . S
C407 H398 0.931 . S
C407 C403 1.382 . S
C407 C406 1.415 . S
C408 C406 1.501 . S
C408 C409 1.384 . S
C408 C413 1.408 . S
C409 H399 0.930 . S
C409 C408 1.384 . S
C409 C410 1.389 . S
C410 C409 1.389 . S
C410 C411 1.405 . S
C411 H400 0.930 . S
C411 C410 1.405 . S
C411 C412 1.364 . S
C412 C411 1.364 . S
C412 C413 1.400 . S
C413 H401 0.931 . S
C413 C408 1.408 . S
C413 C412 1.400 . S
H414 C420 0.920 . S
H415 C423 0.931 . S
H416 C425 0.931 . S
H417 C427 0.930 . S
H418 C429 0.930 . S
H419 C431 0.940 1_655 S
C420 H414 0.920 . S
C420 C421 1.389 . S
C420 C422 1.396 1_655 S
C421 C420 1.389 . S
C421 C425 1.382 . S
C422 C420 1.396 1_455 S
C422 C423 1.400 . S
C423 H415 0.931 . S
C423 C422 1.400 . S
C423 C424 1.375 . S
C424 C423 1.375 . S
C424 C425 1.415 1_455 S
C424 C426 1.501 . S
C425 H416 0.931 . S
C425 C421 1.382 . S
C425 C424 1.415 1_655 S
C426 C424 1.501 . S
C426 C427 1.384 . S
C426 C431 1.419 . S
C427 H417 0.930 . S
C427 C426 1.384 . S
C427 C428 1.389 . S
C428 C427 1.389 . S
C428 C429 1.405 . S
C429 H418 0.930 . S
C429 C428 1.405 . S
C429 C430 1.360 . S
C430 C429 1.360 . S
C430 C431 1.394 . S
C431 H419 0.940 1_455 S
C431 C426 1.419 . S
C431 C430 1.394 . S
H432 C438 0.930 . S
H433 C441 0.931 . S
H434 C443 0.931 . S
H435 C445 0.930 . S
H436 C447 0.930 . S
H437 C449 0.931 . S
C438 H432 0.930 . S
C438 C439 1.380 . S
C438 C440 1.394 . S
C439 C438 1.380 . S
C439 C443 1.382 . S
C440 C438 1.394 . S
C440 C441 1.400 . S
C441 H433 0.931 . S
C441 C440 1.400 . S
C441 C442 1.375 . S
C442 C441 1.375 . S
C442 C443 1.415 . S
C442 C444 1.501 . S
C443 H434 0.931 . S
C443 C439 1.382 . S
C443 C442 1.415 . S
C444 C442 1.501 . S
C444 C445 1.384 . S
C444 C449 1.408 . S
C445 H435 0.930 . S
C445 C444 1.384 . S
C445 C446 1.389 . S
C446 C445 1.389 . S
C446 C447 1.405 . S
C447 H436 0.930 . S
C447 C446 1.405 . S
C447 C448 1.364 . S
C448 C447 1.364 . S
C448 C449 1.400 . S
C449 H437 0.931 . S
C449 C444 1.408 . S
C449 C448 1.400 . S
H450 C456 0.943 . S
H451 C459 0.931 . S
H452 C461 0.931 . S
H453 C463 0.930 . S
H454 C465 0.930 . S
H455 C467 0.920 1_545 S
C456 H450 0.943 . S
C456 C457 1.377 . S
C456 C458 1.384 1_545 S
C457 C456 1.377 . S
C457 C461 1.382 . S
C458 C456 1.384 1_565 S
C458 C459 1.400 . S
C459 H451 0.931 . S
C459 C458 1.400 . S
C459 C460 1.375 . S
C460 C459 1.375 . S
C460 C461 1.415 1_565 S
C460 C462 1.501 . S
C461 H452 0.931 . S
C461 C457 1.382 . S
C461 C460 1.415 1_545 S
C462 C460 1.501 . S
C462 C463 1.384 . S
C462 C467 1.401 . S
C463 H453 0.930 . S
C463 C462 1.384 . S
C463 C464 1.389 . S
C464 C463 1.389 . S
C464 C465 1.405 . S
C465 H454 0.930 . S
C465 C464 1.405 . S
C465 C466 1.372 . S
C466 C465 1.372 . S
C466 C467 1.406 . S
C467 H455 0.920 1_565 S
C467 C462 1.401 . S
C467 C466 1.406 . S
H468 C474 0.913 . S
H469 C477 0.931 . S
H470 C479 0.927 1_545 S
H471 C481 0.930 . S
H472 C483 0.930 . S
H473 C485 0.931 . S
C474 H468 0.913 . S
C474 C475 1.382 . S
C474 C476 1.416 1_545 S
C475 C474 1.382 . S
C475 C479 1.401 1_545 S
C476 C474 1.416 1_565 S
C476 C477 1.376 . S
C477 H469 0.931 . S
C477 C476 1.376 . S
C477 C478 1.375 . S
C478 C477 1.375 . S
C478 C479 1.414 . S
C478 C480 1.501 . S
C479 H470 0.927 1_565 S
C479 C475 1.401 1_565 S
C479 C478 1.414 . S
C480 C478 1.501 . S
C480 C481 1.384 . S
C480 C485 1.408 1_565 S
C481 H471 0.930 . S
C481 C480 1.384 . S
C481 C482 1.389 . S
C482 C481 1.389 . S
C482 C483 1.405 . S
C483 H472 0.930 . S
C483 C482 1.405 . S
C483 C484 1.364 1_565 S
C484 C483 1.364 1_545 S
C484 C485 1.400 . S
C485 H473 0.931 . S
C485 C480 1.408 1_545 S
C485 C484 1.400 . S
H486 C492 0.953 . S
H487 C495 0.931 . S
H488 C497 0.934 1_655 S
H489 C499 0.930 . S
H490 C501 0.930 . S
H491 C503 0.931 . S
C492 H486 0.953 . S
C492 C493 1.378 . S
C492 C494 1.367 1_655 S
C493 C492 1.378 . S
C493 C497 1.362 1_655 S
C494 C492 1.367 1_455 S
C494 C495 1.434 . S
C495 H487 0.931 . S
C495 C494 1.434 . S
C495 C496 1.375 . S
C496 C495 1.375 . S
C496 C497 1.417 . S
C496 C498 1.501 . S
C497 H488 0.934 1_455 S
C497 C493 1.362 1_455 S
C497 C496 1.417 . S
C498 C496 1.501 . S
C498 C499 1.384 . S
C498 C503 1.408 1_455 S
C499 H489 0.930 . S
C499 C498 1.384 . S
C499 C500 1.389 . S
C500 C499 1.389 . S
C500 C501 1.405 . S
C501 H490 0.930 . S
C501 C500 1.405 . S
C501 C502 1.364 1_455 S
C502 C501 1.364 1_655 S
C502 C503 1.400 . S
C503 H491 0.931 . S
C503 C498 1.408 1_655 S
C503 C502 1.400 . S
H504 C510 0.930 . S
H505 C513 0.931 . S
H506 C515 0.931 . S
H507 C517 0.930 . S
H508 C519 0.930 . S
H509 C521 0.931 . S
C510 H504 0.930 . S
C510 C511 1.380 . S
C510 C512 1.394 . S
C511 C510 1.380 . S
C511 C515 1.382 . S
C512 C510 1.394 . S
C512 C513 1.400 . S
C513 H505 0.931 . S
C513 C512 1.400 . S
C513 C514 1.375 . S
C514 C513 1.375 . S
C514 C515 1.415 . S
C514 C516 1.501 . S
C515 H506 0.931 . S
C515 C511 1.382 . S
C515 C514 1.415 . S
C516 C514 1.501 . S
C516 C517 1.384 . S
C516 C521 1.408 . S
C517 H507 0.930 . S
C517 C516 1.384 . S
C517 C518 1.389 . S
C518 C517 1.389 . S
C518 C519 1.405 . S
C519 H508 0.930 . S
C519 C518 1.405 . S
C519 C520 1.364 . S
C520 C519 1.364 . S
C520 C521 1.400 . S
C521 H509 0.931 . S
C521 C516 1.408 . S
C521 C520 1.400 . S
H522 C528 0.930 . S
H523 C531 0.931 . S
H524 C533 0.931 . S
H525 C535 0.930 . S
H526 C537 0.930 . S
H527 C539 0.931 . S
C528 H522 0.930 . S
C528 C529 1.380 . S
C528 C530 1.394 . S
C529 C528 1.380 . S
C529 C533 1.382 . S
C530 C528 1.394 . S
C530 C531 1.400 . S
C531 H523 0.931 . S
C531 C530 1.400 . S
C531 C532 1.375 . S
C532 C531 1.375 . S
C532 C533 1.415 . S
C532 C534 1.501 . S
C533 H524 0.931 . S
C533 C529 1.382 . S
C533 C532 1.415 . S
C534 C532 1.501 . S
C534 C535 1.384 . S
C534 C539 1.408 . S
C535 H525 0.930 . S
C535 C534 1.384 . S
C535 C536 1.389 . S
C536 C535 1.389 . S
C536 C537 1.405 . S
C537 H526 0.930 . S
C537 C536 1.405 . S
C537 C538 1.364 . S
C538 C537 1.364 . S
C538 C539 1.400 . S
C539 H527 0.931 . S
C539 C534 1.408 . S
C539 C538 1.400 . S
H540 C546 0.930 . S
H541 C549 0.931 . S
H542 C551 0.931 . S
H543 C553 0.930 . S
H544 C555 0.930 . S
H545 C557 0.931 . S
C546 H540 0.930 . S
C546 C547 1.380 . S
C546 C548 1.394 . S
C547 C546 1.380 . S
C547 C551 1.382 . S
C548 C546 1.394 . S
C548 C549 1.400 . S
C549 H541 0.931 . S
C549 C548 1.400 . S
C549 C550 1.375 . S
C550 C549 1.375 . S
C550 C551 1.415 . S
C550 C552 1.501 . S
C551 H542 0.931 . S
C551 C547 1.382 . S
C551 C550 1.415 . S
C552 C550 1.501 . S
C552 C553 1.384 . S
C552 C557 1.408 . S
C553 H543 0.930 . S
C553 C552 1.384 . S
C553 C554 1.389 . S
C554 C553 1.389 . S
C554 C555 1.405 . S
C555 H544 0.930 . S
C555 C554 1.405 . S
C555 C556 1.364 . S
C556 C555 1.364 . S
C556 C557 1.400 . S
C557 H545 0.931 . S
C557 C552 1.408 . S
C557 C556 1.400 . S
H558 C564 0.930 . S
H559 C567 0.931 . S
H560 C569 0.931 . S
H561 C571 0.930 . S
H562 C573 0.930 . S
H563 C575 0.931 . S
C564 H558 0.930 . S
C564 C565 1.380 . S
C564 C566 1.394 . S
C565 C564 1.380 . S
C565 C569 1.382 . S
C566 C564 1.394 . S
C566 C567 1.400 . S
C567 H559 0.931 . S
C567 C566 1.400 . S
C567 C568 1.375 . S
C568 C567 1.375 . S
C568 C569 1.415 . S
C568 C570 1.501 . S
C569 H560 0.931 . S
C569 C565 1.382 . S
C569 C568 1.415 . S
C570 C568 1.501 . S
C570 C571 1.384 . S
C570 C575 1.408 . S
C571 H561 0.930 . S
C571 C570 1.384 . S
C571 C572 1.389 . S
C572 C571 1.389 . S
C572 C573 1.405 . S
C573 H562 0.930 . S
C573 C572 1.405 . S
C573 C574 1.364 . S
C574 C573 1.364 . S
C574 C575 1.400 . S
C575 H563 0.931 . S
C575 C570 1.408 . S
C575 C574 1.400 . S
H576 C584 0.950 . S
H577 C589 0.950 . S
H578 C586 0.950 . S
H579 C588 0.950 . S
H580 C590 0.950 . S
H581 C592 0.950 . S
H582 C594 0.885 1_455 S
H583 C595 0.949 1_455 S
C584 H576 0.950 . S
C584 C585 1.386 . S
C584 C586 1.391 . S
C585 C584 1.386 . S
C585 C589 1.393 1_455 S
C586 H578 0.950 . S
C586 C584 1.391 . S
C586 C587 1.356 1_455 S
C587 C586 1.356 1_655 S
C587 C588 1.410 . S
C587 C593 1.526 . S
C588 H579 0.950 . S
C588 C587 1.410 . S
C588 C589 1.391 . S
C589 H577 0.950 . S
C589 C585 1.393 1_655 S
C589 C588 1.391 . S
C590 H580 0.950 . S
C590 C591 1.386 . S
C590 C592 1.391 . S
C591 C590 1.386 . S
C591 C595 1.393 . S
C592 H581 0.950 . S
C592 C590 1.391 . S
C592 C593 1.400 . S
C593 C587 1.526 . S
C593 C592 1.400 . S
C593 C594 1.407 . S
C594 H582 0.885 1_655 S
C594 C593 1.407 . S
C594 C595 1.417 . S
C595 H583 0.949 1_655 S
C595 C591 1.393 . S
C595 C594 1.417 . S
H596 C604 0.950 . S
H597 C609 0.950 . S
H598 C606 0.950 . S
H599 C608 0.950 . S
H600 C610 0.950 . S
H601 C612 0.950 . S
H602 C614 0.950 . S
H603 C615 0.950 . S
C604 H596 0.950 . S
C604 C605 1.386 . S
C604 C606 1.391 . S
C605 C604 1.386 . S
C605 C609 1.393 . S
C606 H598 0.950 . S
C606 C604 1.391 . S
C606 C607 1.400 . S
C607 C606 1.400 . S
C607 C608 1.398 . S
C607 C613 1.491 . S
C608 H599 0.950 . S
C608 C607 1.398 . S
C608 C609 1.391 . S
C609 H597 0.950 . S
C609 C605 1.393 . S
C609 C608 1.391 . S
C610 H600 0.950 . S
C610 C611 1.386 . S
C610 C612 1.391 . S
C611 C610 1.386 . S
C611 C615 1.393 . S
C612 H601 0.950 . S
C612 C610 1.391 . S
C612 C613 1.400 . S
C613 C607 1.491 . S
C613 C612 1.400 . S
C613 C614 1.398 . S
C614 H602 0.950 . S
C614 C613 1.398 . S
C614 C615 1.391 . S
C615 H603 0.950 . S
C615 C611 1.393 . S
C615 C614 1.391 . S
H616 C624 0.950 . S
H617 C629 0.950 . S
H618 C626 0.950 . S
H619 C628 0.950 . S
H620 C630 0.950 . S
H621 C632 0.950 . S
H622 C634 0.950 . S
H623 C635 0.950 . S
C624 H616 0.950 . S
C624 C625 1.407 . S
C624 C626 1.391 . S
C625 C624 1.407 . S
C625 C629 1.398 1_565 S
C626 H618 0.950 . S
C626 C624 1.391 . S
C626 C627 1.400 1_565 S
C627 C626 1.400 1_545 S
C627 C628 1.398 . S
C627 C633 1.491 . S
C628 H619 0.950 . S
C628 C627 1.398 . S
C628 C629 1.391 . S
C629 H617 0.950 . S
C629 C625 1.398 1_545 S
C629 C628 1.391 . S
C630 H620 0.950 . S
C630 C631 1.386 . S
C630 C632 1.391 . S
C631 C630 1.386 . S
C631 C635 1.393 1_545 S
C632 H621 0.950 . S
C632 C630 1.391 . S
C632 C633 1.400 . S
C633 C627 1.491 . S
C633 C632 1.400 . S
C633 C634 1.398 1_545 S
C634 H622 0.950 . S
C634 C633 1.398 1_565 S
C634 C635 1.391 . S
C635 H623 0.950 . S
C635 C631 1.393 1_565 S
C635 C634 1.391 . S
H636 C644 0.950 . S
H637 C649 0.950 . S
H638 C646 0.950 . S
H639 C648 0.950 . S
H640 C650 0.957 . S
H641 C652 0.950 . S
H642 C654 0.950 . S
H643 C655 0.950 . S
C644 H636 0.950 . S
C644 C645 1.394 . S
C644 C646 1.391 . S
C645 C644 1.394 . S
C645 C649 1.390 1_565 S
C646 H638 0.950 . S
C646 C644 1.391 . S
C646 C647 1.400 . S
C647 C646 1.400 . S
C647 C648 1.398 1_565 S
C647 C653 1.491 . S
C648 H639 0.950 . S
C648 C647 1.398 1_545 S
C648 C649 1.391 . S
C649 H637 0.950 . S
C649 C645 1.390 1_545 S
C649 C648 1.391 . S
C650 H640 0.957 . S
C650 C651 1.364 1_545 S
C650 C652 1.406 . S
C651 C650 1.364 1_565 S
C651 C655 1.393 . S
C652 H641 0.950 . S
C652 C650 1.406 . S
C652 C653 1.400 1_545 S
C653 C647 1.491 . S
C653 C652 1.400 1_565 S
C653 C654 1.398 . S
C654 H642 0.950 . S
C654 C653 1.398 . S
C654 C655 1.391 . S
C655 H643 0.950 . S
C655 C651 1.393 . S
C655 C654 1.391 . S
H656 C664 0.946 1_655 S
H657 C669 0.950 . S
H658 C666 0.937 . S
H659 C668 0.950 . S
H660 C670 0.950 . S
H661 C672 0.950 . S
H662 C674 0.939 1_655 S
H663 C675 0.950 . S
C664 H656 0.946 1_455 S
C664 C665 1.374 . S
C664 C666 1.410 . S
C665 C664 1.374 . S
C665 C669 1.397 . S
C666 H658 0.937 . S
C666 C664 1.410 . S
C666 C667 1.407 . S
C667 C666 1.407 . S
C667 C668 1.398 . S
C667 C673 1.491 . S
C668 H659 0.950 . S
C668 C667 1.398 . S
C668 C669 1.391 . S
C669 H657 0.950 . S
C669 C665 1.397 . S
C669 C668 1.391 . S
C670 H660 0.950 . S
C670 C671 1.386 . S
C670 C672 1.391 . S
C671 C670 1.386 . S
C671 C675 1.393 . S
C672 H661 0.950 . S
C672 C670 1.391 . S
C672 C673 1.400 . S
C673 C667 1.491 . S
C673 C672 1.400 . S
C673 C674 1.437 . S
C674 H662 0.939 1_455 S
C674 C673 1.437 . S
C674 C675 1.367 . S
C675 H663 0.950 . S
C675 C671 1.393 . S
C675 C674 1.367 . S
H676 C684 0.950 . S
H677 C689 0.950 . S
H678 C686 0.950 . S
H679 C688 0.950 . S
H680 C690 0.950 . S
H681 C692 0.950 . S
H682 C694 0.950 . S
H683 C695 0.950 . S
C684 H676 0.950 . S
C684 C685 1.386 . S
C684 C686 1.391 . S
C685 C684 1.386 . S
C685 C689 1.393 . S
C686 H678 0.950 . S
C686 C684 1.391 . S
C686 C687 1.400 . S
C687 C686 1.400 . S
C687 C688 1.398 . S
C687 C693 1.491 . S
C688 H679 0.950 . S
C688 C687 1.398 . S
C688 C689 1.391 . S
C689 H677 0.950 . S
C689 C685 1.393 . S
C689 C688 1.391 . S
C690 H680 0.950 . S
C690 C691 1.386 . S
C690 C692 1.391 . S
C691 C690 1.386 . S
C691 C695 1.393 . S
C692 H681 0.950 . S
C692 C690 1.391 . S
C692 C693 1.400 . S
C693 C687 1.491 . S
C693 C692 1.400 . S
C693 C694 1.398 . S
C694 H682 0.950 . S
C694 C693 1.398 . S
C694 C695 1.391 . S
C695 H683 0.950 . S
C695 C691 1.393 . S
C695 C694 1.391 . S
H696 C704 0.950 . S
H697 C709 0.950 . S
H698 C706 0.950 . S
H699 C708 0.950 . S
H700 C710 0.950 . S
H701 C712 0.950 . S
H702 C714 0.950 . S
H703 C715 0.950 . S
C704 H696 0.950 . S
C704 C705 1.377 1_455 S
C704 C706 1.391 . S
C705 C704 1.377 1_655 S
C705 C709 1.395 . S
C706 H698 0.950 . S
C706 C704 1.391 . S
C706 C707 1.397 1_455 S
C707 C706 1.397 1_655 S
C707 C708 1.413 . S
C707 C713 1.504 . S
C708 H699 0.950 . S
C708 C707 1.413 . S
C708 C709 1.391 . S
C709 H697 0.950 . S
C709 C705 1.395 . S
C709 C708 1.391 . S
C710 H700 0.950 . S
C710 C711 1.386 . S
C710 C712 1.391 . S
C711 C710 1.386 . S
C711 C715 1.393 1_655 S
C712 H701 0.950 . S
C712 C710 1.391 . S
C712 C713 1.410 . S
C713 C707 1.504 . S
C713 C712 1.410 . S
C713 C714 1.366 1_655 S
C714 H702 0.950 . S
C714 C713 1.366 1_455 S
C714 C715 1.391 . S
C715 H703 0.950 . S
C715 C711 1.393 1_455 S
C715 C714 1.391 . S
H716 C724 0.950 . S
H717 C729 0.950 . S
H718 C726 0.950 . S
H719 C728 0.950 . S
H720 C730 0.950 . S
H721 C732 0.950 . S
H722 C734 0.950 . S
H723 C735 0.950 . S
C724 H716 0.950 . S
C724 C725 1.386 . S
C724 C726 1.391 . S
C725 C724 1.386 . S
C725 C729 1.393 . S
C726 H718 0.950 . S
C726 C724 1.391 . S
C726 C727 1.400 . S
C727 C726 1.400 . S
C727 C728 1.398 . S
C727 C733 1.491 . S
C728 H719 0.950 . S
C728 C727 1.398 . S
C728 C729 1.391 . S
C729 H717 0.950 . S
C729 C725 1.393 . S
C729 C728 1.391 . S
C730 H720 0.950 . S
C730 C731 1.386 . S
C730 C732 1.391 . S
C731 C730 1.386 . S
C731 C735 1.393 . S
C732 H721 0.950 . S
C732 C730 1.391 . S
C732 C733 1.400 . S
C733 C727 1.491 . S
C733 C732 1.400 . S
C733 C734 1.398 . S
C734 H722 0.950 . S
C734 C733 1.398 . S
C734 C735 1.391 . S
C735 H723 0.950 . S
C735 C731 1.393 . S
C735 C734 1.391 . S
H736 C744 0.950 . S
H737 C749 0.950 . S
H738 C746 0.950 . S
H739 C748 0.950 . S
H740 C750 0.950 . S
H741 C752 0.950 . S
H742 C754 0.950 . S
H743 C755 0.950 . S
C744 H736 0.950 . S
C744 C745 1.386 . S
C744 C746 1.391 . S
C745 C744 1.386 . S
C745 C749 1.393 1_545 S
C746 H738 0.950 . S
C746 C744 1.391 . S
C746 C747 1.400 . S
C747 C746 1.400 . S
C747 C748 1.398 1_545 S
C747 C753 1.476 . S
C748 H739 0.950 . S
C748 C747 1.398 1_565 S
C748 C749 1.391 . S
C749 H737 0.950 . S
C749 C745 1.393 1_565 S
C749 C748 1.391 . S
C750 H740 0.950 . S
C750 C751 1.371 1_565 S
C750 C752 1.391 . S
C751 C750 1.371 1_545 S
C751 C755 1.400 . S
C752 H741 0.950 . S
C752 C750 1.391 . S
C752 C753 1.384 1_565 S
C753 C747 1.476 . S
C753 C752 1.384 1_545 S
C753 C754 1.431 . S
C754 H742 0.950 . S
C754 C753 1.431 . S
C754 C755 1.391 . S
C755 H743 0.950 . S
C755 C751 1.400 . S
C755 C754 1.391 . S
H756 C764 0.950 . S
H757 C769 0.950 . S
H758 C766 0.950 . S
H759 C768 0.950 . S
H760 C770 0.950 . S
H761 C772 0.950 . S
H762 C774 0.950 . S
H763 C775 0.950 . S
C764 H756 0.950 . S
C764 C765 1.386 . S
C764 C766 1.391 . S
C765 C764 1.386 . S
C765 C769 1.393 1_565 S
C766 H758 0.950 . S
C766 C764 1.391 . S
C766 C767 1.420 . S
C767 C766 1.420 . S
C767 C768 1.414 1_565 S
C767 C773 1.469 . S
C768 H759 0.950 . S
C768 C767 1.414 1_545 S
C768 C769 1.391 . S
C769 H757 0.950 . S
C769 C765 1.393 1_545 S
C769 C768 1.391 . S
C770 H760 0.950 . S
C770 C771 1.385 1_545 S
C770 C772 1.391 . S
C771 C770 1.385 1_565 S
C771 C775 1.391 . S
C772 H761 0.950 . S
C772 C770 1.391 . S
C772 C773 1.396 1_545 S
C773 C767 1.469 . S
C773 C772 1.396 1_565 S
C773 C774 1.395 . S
C774 H762 0.950 . S
C774 C773 1.395 . S
C774 C775 1.391 . S
C775 H763 0.950 . S
C775 C771 1.391 . S
C775 C774 1.391 . S
H776 C784 0.950 . S
H777 C789 0.950 . S
H778 C786 0.950 . S
H779 C788 0.950 . S
H780 C790 0.950 . S
H781 C792 0.950 . S
H782 C794 0.950 . S
H783 C795 0.950 . S
C784 H776 0.950 . S
C784 C785 1.386 1_655 S
C784 C786 1.391 . S
C785 C784 1.386 1_455 S
C785 C789 1.393 . S
C786 H778 0.950 . S
C786 C784 1.391 . S
C786 C787 1.400 1_655 S
C787 C786 1.400 1_455 S
C787 C788 1.398 . S
C787 C793 1.478 . S
C788 H779 0.950 . S
C788 C787 1.398 . S
C788 C789 1.391 . S
C789 H777 0.950 . S
C789 C785 1.393 . S
C789 C788 1.391 . S
C790 H780 0.950 . S
C790 C791 1.385 . S
C790 C792 1.391 . S
C791 C790 1.385 . S
C791 C795 1.391 1_455 S
C792 H781 0.950 . S
C792 C790 1.391 . S
C792 C793 1.412 . S
C793 C787 1.478 . S
C793 C792 1.412 . S
C793 C794 1.400 1_455 S
C794 H782 0.950 . S
C794 C793 1.400 1_655 S
C794 C795 1.391 . S
C795 H783 0.950 . S
C795 C791 1.391 1_655 S
C795 C794 1.391 . S
H796 C804 0.950 . S
H797 C809 0.950 . S
H798 C806 0.950 . S
H799 C808 0.950 . S
H800 C810 0.950 . S
H801 C812 0.950 . S
H802 C814 0.950 . S
H803 C815 0.950 . S
C804 H796 0.950 . S
C804 C805 1.386 . S
C804 C806 1.391 . S
C805 C804 1.386 . S
C805 C809 1.393 . S
C806 H798 0.950 . S
C806 C804 1.391 . S
C806 C807 1.400 . S
C807 C806 1.400 . S
C807 C808 1.398 . S
C807 C813 1.491 . S
C808 H799 0.950 . S
C808 C807 1.398 . S
C808 C809 1.391 . S
C809 H797 0.950 . S
C809 C805 1.393 . S
C809 C808 1.391 . S
C810 H800 0.950 . S
C810 C811 1.386 . S
C810 C812 1.391 . S
C811 C810 1.386 . S
C811 C815 1.393 . S
C812 H801 0.950 . S
C812 C810 1.391 . S
C812 C813 1.400 . S
C813 C807 1.491 . S
C813 C812 1.400 . S
C813 C814 1.398 . S
C814 H802 0.950 . S
C814 C813 1.398 . S
C814 C815 1.391 . S
C815 H803 0.950 . S
C815 C811 1.393 . S
C815 C814 1.391 . S
H816 C824 0.950 . S
H817 C829 0.950 . S
H818 C826 0.950 . S
H819 C828 0.950 . S
H820 C830 0.950 . S
H821 C832 0.950 . S
H822 C834 0.950 . S
H823 C835 0.950 . S
C824 H816 0.950 . S
C824 C825 1.386 . S
C824 C826 1.391 . S
C825 C824 1.386 . S
C825 C829 1.393 . S
C826 H818 0.950 . S
C826 C824 1.391 . S
C826 C827 1.400 . S
C827 C826 1.400 . S
C827 C828 1.398 . S
C827 C833 1.491 . S
C828 H819 0.950 . S
C828 C827 1.398 . S
C828 C829 1.391 . S
C829 H817 0.950 . S
C829 C825 1.393 . S
C829 C828 1.391 . S
C830 H820 0.950 . S
C830 C831 1.386 . S
C830 C832 1.391 . S
C831 C830 1.386 . S
C831 C835 1.393 . S
C832 H821 0.950 . S
C832 C830 1.391 . S
C832 C833 1.400 . S
C833 C827 1.491 . S
C833 C832 1.400 . S
C833 C834 1.398 . S
C834 H822 0.950 . S
C834 C833 1.398 . S
C834 C835 1.391 . S
C835 H823 0.950 . S
C835 C831 1.393 . S
C835 C834 1.391 . S
H836 C844 0.950 . S
H837 C849 0.950 . S
H838 C846 0.950 . S
H839 C848 0.950 . S
H840 C850 0.950 . S
H841 C852 0.950 . S
H842 C854 0.950 . S
H843 C855 0.950 . S
C844 H836 0.950 . S
C844 C845 1.386 . S
C844 C846 1.391 . S
C845 C844 1.386 . S
C845 C849 1.393 . S
C846 H838 0.950 . S
C846 C844 1.391 . S
C846 C847 1.400 . S
C847 C846 1.400 . S
C847 C848 1.398 . S
C847 C853 1.491 . S
C848 H839 0.950 . S
C848 C847 1.398 . S
C848 C849 1.391 . S
C849 H837 0.950 . S
C849 C845 1.393 . S
C849 C848 1.391 . S
C850 H840 0.950 . S
C850 C851 1.386 . S
C850 C852 1.391 . S
C851 C850 1.386 . S
C851 C855 1.393 . S
C852 H841 0.950 . S
C852 C850 1.391 . S
C852 C853 1.400 . S
C853 C847 1.491 . S
C853 C852 1.400 . S
C853 C854 1.398 . S
C854 H842 0.950 . S
C854 C853 1.398 . S
C854 C855 1.391 . S
C855 H843 0.950 . S
C855 C851 1.393 . S
C855 C854 1.391 . S
H856 C864 0.950 . S
H857 C869 0.950 . S
H858 C866 0.950 . S
H859 C868 0.950 . S
H860 C870 0.950 . S
H861 C872 0.950 . S
H862 C874 0.950 . S
H863 C875 0.950 . S
C864 H856 0.950 . S
C864 C865 1.386 . S
C864 C866 1.391 . S
C865 C864 1.386 . S
C865 C869 1.393 . S
C866 H858 0.950 . S
C866 C864 1.391 . S
C866 C867 1.400 . S
C867 C866 1.400 . S
C867 C868 1.398 . S
C867 C873 1.491 . S
C868 H859 0.950 . S
C868 C867 1.398 . S
C868 C869 1.391 . S
C869 H857 0.950 . S
C869 C865 1.393 . S
C869 C868 1.391 . S
C870 H860 0.950 . S
C870 C871 1.386 . S
C870 C872 1.391 . S
C871 C870 1.386 . S
C871 C875 1.393 . S
C872 H861 0.950 . S
C872 C870 1.391 . S
C872 C873 1.400 . S
C873 C867 1.491 . S
C873 C872 1.400 . S
C873 C874 1.398 . S
C874 H862 0.950 . S
C874 C873 1.398 . S
C874 C875 1.391 . S
C875 H863 0.950 . S
C875 C871 1.393 . S
C875 C874 1.391 . S
H876 C884 0.950 . S
H877 C889 0.950 . S
H878 C886 0.950 . S
H879 C888 0.950 . S
H880 C890 0.950 . S
H881 C892 0.950 . S
H882 C894 0.950 . S
H883 C895 0.950 . S
C884 H876 0.950 . S
C884 C885 1.386 . S
C884 C886 1.391 . S
C885 C884 1.386 . S
C885 C889 1.393 . S
C886 H878 0.950 . S
C886 C884 1.391 . S
C886 C887 1.400 . S
C887 C886 1.400 . S
C887 C888 1.398 . S
C887 C893 1.491 . S
C888 H879 0.950 . S
C888 C887 1.398 . S
C888 C889 1.391 . S
C889 H877 0.950 . S
C889 C885 1.393 . S
C889 C888 1.391 . S
C890 H880 0.950 . S
C890 C891 1.386 . S
C890 C892 1.391 . S
C891 C890 1.386 . S
C891 C895 1.393 . S
C892 H881 0.950 . S
C892 C890 1.391 . S
C892 C893 1.400 . S
C893 C887 1.491 . S
C893 C892 1.400 . S
C893 C894 1.398 . S
C894 H882 0.950 . S
C894 C893 1.398 . S
C894 C895 1.391 . S
C895 H883 0.950 . S
C895 C891 1.393 . S
C895 C894 1.391 . S
H896 C904 0.950 . S
H897 C909 0.950 . S
H898 C906 0.950 . S
H899 C908 0.950 . S
H900 C910 0.950 . S
H901 C912 0.950 . S
H902 C914 0.950 . S
H903 C915 0.950 . S
C904 H896 0.950 . S
C904 C905 1.386 . S
C904 C906 1.391 . S
C905 C904 1.386 . S
C905 C909 1.393 . S
C906 H898 0.950 . S
C906 C904 1.391 . S
C906 C907 1.400 . S
C907 C906 1.400 . S
C907 C908 1.398 . S
C907 C913 1.491 . S
C908 H899 0.950 . S
C908 C907 1.398 . S
C908 C909 1.391 . S
C909 H897 0.950 . S
C909 C905 1.393 . S
C909 C908 1.391 . S
C910 H900 0.950 . S
C910 C911 1.386 . S
C910 C912 1.391 . S
C911 C910 1.386 . S
C911 C915 1.393 . S
C912 H901 0.950 . S
C912 C910 1.391 . S
C912 C913 1.400 . S
C913 C907 1.491 . S
C913 C912 1.400 . S
C913 C914 1.398 . S
C914 H902 0.950 . S
C914 C913 1.398 . S
C914 C915 1.391 . S
C915 H903 0.950 . S
C915 C911 1.393 . S
C915 C914 1.391 . S
H916 C924 0.950 . S
H917 C929 0.950 . S
H918 C926 0.950 . S
H919 C928 0.950 . S
H920 C930 0.950 . S
H921 C932 0.950 . S
H922 C934 0.950 . S
H923 C935 0.950 . S
C924 H916 0.950 . S
C924 C925 1.386 . S
C924 C926 1.391 . S
C925 C924 1.386 . S
C925 C929 1.393 . S
C926 H918 0.950 . S
C926 C924 1.391 . S
C926 C927 1.400 . S
C927 C926 1.400 . S
C927 C928 1.398 . S
C927 C933 1.491 . S
C928 H919 0.950 . S
C928 C927 1.398 . S
C928 C929 1.391 . S
C929 H917 0.950 . S
C929 C925 1.393 . S
C929 C928 1.391 . S
C930 H920 0.950 . S
C930 C931 1.386 . S
C930 C932 1.391 . S
C931 C930 1.386 . S
C931 C935 1.393 . S
C932 H921 0.950 . S
C932 C930 1.391 . S
C932 C933 1.400 . S
C933 C927 1.491 . S
C933 C932 1.400 . S
C933 C934 1.398 . S
C934 H922 0.950 . S
C934 C933 1.398 . S
C934 C935 1.391 . S
C935 H923 0.950 . S
C935 C931 1.393 . S
C935 C934 1.391 . S
H936 C944 0.950 . S
H937 C949 0.950 . S
H938 C946 0.950 . S
H939 C948 0.950 . S
H940 C950 0.950 . S
H941 C952 0.950 . S
H942 C954 0.950 . S
H943 C955 0.950 . S
C944 H936 0.950 . S
C944 C945 1.386 . S
C944 C946 1.391 . S
C945 C944 1.386 . S
C945 C949 1.393 . S
C946 H938 0.950 . S
C946 C944 1.391 . S
C946 C947 1.400 . S
C947 C946 1.400 . S
C947 C948 1.398 . S
C947 C953 1.491 . S
C948 H939 0.950 . S
C948 C947 1.398 . S
C948 C949 1.391 . S
C949 H937 0.950 . S
C949 C945 1.393 . S
C949 C948 1.391 . S
C950 H940 0.950 . S
C950 C951 1.386 . S
C950 C952 1.391 . S
C951 C950 1.386 . S
C951 C955 1.393 . S
C952 H941 0.950 . S
C952 C950 1.391 . S
C952 C953 1.400 . S
C953 C947 1.491 . S
C953 C952 1.400 . S
C953 C954 1.398 . S
C954 H942 0.950 . S
C954 C953 1.398 . S
C954 C955 1.391 . S
C955 H943 0.950 . S
C955 C951 1.393 . S
C955 C954 1.391 . S
H956 C964 0.950 . S
H957 C969 0.950 . S
H958 C966 0.950 . S
H959 C968 0.950 . S
H960 C970 0.950 . S
H961 C972 0.950 . S
H962 C974 0.950 . S
H963 C975 0.950 . S
C964 H956 0.950 . S
C964 C965 1.386 . S
C964 C966 1.391 . S
C965 C964 1.386 . S
C965 C969 1.393 . S
C966 H958 0.950 . S
C966 C964 1.391 . S
C966 C967 1.400 . S
C967 C966 1.400 . S
C967 C968 1.398 . S
C967 C973 1.491 . S
C968 H959 0.950 . S
C968 C967 1.398 . S
C968 C969 1.391 . S
C969 H957 0.950 . S
C969 C965 1.393 . S
C969 C968 1.391 . S
C970 H960 0.950 . S
C970 C971 1.386 . S
C970 C972 1.391 . S
C971 C970 1.386 . S
C971 C975 1.393 . S
C972 H961 0.950 . S
C972 C970 1.391 . S
C972 C973 1.400 . S
C973 C967 1.491 . S
C973 C972 1.400 . S
C973 C974 1.398 . S
C974 H962 0.950 . S
C974 C973 1.398 . S
C974 C975 1.391 . S
C975 H963 0.950 . S
C975 C971 1.393 . S
C975 C974 1.391 . S
H976 C984 0.950 . S
H977 C989 0.950 . S
H978 C986 0.950 . S
H979 C988 0.950 . S
H980 C990 0.950 . S
H981 C992 0.950 . S
H982 C994 0.950 . S
H983 C995 0.950 . S
C984 H976 0.950 . S
C984 C985 1.386 . S
C984 C986 1.391 . S
C985 C984 1.386 . S
C985 C989 1.393 . S
C986 H978 0.950 . S
C986 C984 1.391 . S
C986 C987 1.400 . S
C987 C986 1.400 . S
C987 C988 1.398 . S
C987 C993 1.491 . S
C988 H979 0.950 . S
C988 C987 1.398 . S
C988 C989 1.391 . S
C989 H977 0.950 . S
C989 C985 1.393 . S
C989 C988 1.391 . S
C990 H980 0.950 . S
C990 C991 1.386 . S
C990 C992 1.391 . S
C991 C990 1.386 . S
C991 C995 1.393 . S
C992 H981 0.950 . S
C992 C990 1.391 . S
C992 C993 1.400 . S
C993 C987 1.491 . S
C993 C992 1.400 . S
C993 C994 1.398 . S
C994 H982 0.950 . S
C994 C993 1.398 . S
C994 C995 1.391 . S
C995 H983 0.950 . S
C995 C991 1.393 . S
C995 C994 1.391 . S
H996 C1004 0.950 . S
H997 C1009 0.950 . S
H998 C1006 0.950 . S
H999 C1008 0.950 . S
H1000 C1010 0.950 . S
H1001 C1012 0.950 . S
H1002 C1014 0.950 . S
H1003 C1015 0.950 . S
C1004 H996 0.950 . S
C1004 C1005 1.386 . S
C1004 C1006 1.391 . S
C1005 C1004 1.386 . S
C1005 C1009 1.393 . S
C1006 H998 0.950 . S
C1006 C1004 1.391 . S
C1006 C1007 1.400 . S
C1007 C1006 1.400 . S
C1007 C1008 1.398 . S
C1007 C1013 1.491 . S
C1008 H999 0.950 . S
C1008 C1007 1.398 . S
C1008 C1009 1.391 . S
C1009 H997 0.950 . S
C1009 C1005 1.393 . S
C1009 C1008 1.391 . S
C1010 H1000 0.950 . S
C1010 C1011 1.386 . S
C1010 C1012 1.391 . S
C1011 C1010 1.386 . S
C1011 C1015 1.393 . S
C1012 H1001 0.950 . S
C1012 C1010 1.391 . S
C1012 C1013 1.400 . S
C1013 C1007 1.491 . S
C1013 C1012 1.400 . S
C1013 C1014 1.398 . S
C1014 H1002 0.950 . S
C1014 C1013 1.398 . S
C1014 C1015 1.391 . S
C1015 H1003 0.950 . S
C1015 C1011 1.393 . S
C1015 C1014 1.391 . S
H1016 C1024 0.950 . S
H1017 C1029 0.950 . S
H1018 C1026 0.950 . S
H1019 C1028 0.950 . S
H1020 C1030 0.950 . S
H1021 C1032 0.950 . S
H1022 C1034 0.950 . S
H1023 C1035 0.950 . S
C1024 H1016 0.950 . S
C1024 C1025 1.386 . S
C1024 C1026 1.391 . S
C1025 C1024 1.386 . S
C1025 C1029 1.393 . S
C1026 H1018 0.950 . S
C1026 C1024 1.391 . S
C1026 C1027 1.400 . S
C1027 C1026 1.400 . S
C1027 C1028 1.398 . S
C1027 C1033 1.491 . S
C1028 H1019 0.950 . S
C1028 C1027 1.398 . S
C1028 C1029 1.391 . S
C1029 H1017 0.950 . S
C1029 C1025 1.393 . S
C1029 C1028 1.391 . S
C1030 H1020 0.950 . S
C1030 C1031 1.386 . S
C1030 C1032 1.391 . S
C1031 C1030 1.386 . S
C1031 C1035 1.393 . S
C1032 H1021 0.950 . S
C1032 C1030 1.391 . S
C1032 C1033 1.400 . S
C1033 C1027 1.491 . S
C1033 C1032 1.400 . S
C1033 C1034 1.398 . S
C1034 H1022 0.950 . S
C1034 C1033 1.398 . S
C1034 C1035 1.391 . S
C1035 H1023 0.950 . S
C1035 C1031 1.393 . S
C1035 C1034 1.391 . S
H1036 C1044 0.950 . S
H1037 C1049 0.950 . S
H1038 C1046 0.950 . S
H1039 C1048 0.950 . S
H1040 C1050 0.950 . S
H1041 C1052 0.950 . S
H1042 C1054 0.950 . S
H1043 C1055 0.950 . S
C1044 H1036 0.950 . S
C1044 C1045 1.386 . S
C1044 C1046 1.391 . S
C1045 C1044 1.386 . S
C1045 C1049 1.393 . S
C1046 H1038 0.950 . S
C1046 C1044 1.391 . S
C1046 C1047 1.400 . S
C1047 C1046 1.400 . S
C1047 C1048 1.398 . S
C1047 C1053 1.491 . S
C1048 H1039 0.950 . S
C1048 C1047 1.398 . S
C1048 C1049 1.391 . S
C1049 H1037 0.950 . S
C1049 C1045 1.393 . S
C1049 C1048 1.391 . S
C1050 H1040 0.950 . S
C1050 C1051 1.386 . S
C1050 C1052 1.391 . S
C1051 C1050 1.386 . S
C1051 C1055 1.393 . S
C1052 H1041 0.950 . S
C1052 C1050 1.391 . S
C1052 C1053 1.400 . S
C1053 C1047 1.491 . S
C1053 C1052 1.400 . S
C1053 C1054 1.398 . S
C1054 H1042 0.950 . S
C1054 C1053 1.398 . S
C1054 C1055 1.391 . S
C1055 H1043 0.950 . S
C1055 C1051 1.393 . S
C1055 C1054 1.391 . S
H1056 C1064 0.950 . S
H1057 C1069 0.950 . S
H1058 C1066 0.950 . S
H1059 C1068 0.950 . S
H1060 C1070 0.950 . S
H1061 C1072 0.950 . S
H1062 C1074 0.950 . S
H1063 C1075 0.950 . S
C1064 H1056 0.950 . S
C1064 C1065 1.386 . S
C1064 C1066 1.391 . S
C1065 C1064 1.386 . S
C1065 C1069 1.393 . S
C1066 H1058 0.950 . S
C1066 C1064 1.391 . S
C1066 C1067 1.400 . S
C1067 C1066 1.400 . S
C1067 C1068 1.398 . S
C1067 C1073 1.491 . S
C1068 H1059 0.950 . S
C1068 C1067 1.398 . S
C1068 C1069 1.391 . S
C1069 H1057 0.950 . S
C1069 C1065 1.393 . S
C1069 C1068 1.391 . S
C1070 H1060 0.950 . S
C1070 C1071 1.386 . S
C1070 C1072 1.391 . S
C1071 C1070 1.386 . S
C1071 C1075 1.393 . S
C1072 H1061 0.950 . S
C1072 C1070 1.391 . S
C1072 C1073 1.400 . S
C1073 C1067 1.491 . S
C1073 C1072 1.400 . S
C1073 C1074 1.398 . S
C1074 H1062 0.950 . S
C1074 C1073 1.398 . S
C1074 C1075 1.391 . S
C1075 H1063 0.950 . S
C1075 C1071 1.393 . S
C1075 C1074 1.391 . S
H1076 C1084 0.950 . S
H1077 C1089 0.950 . S
H1078 C1086 0.950 . S
H1079 C1088 0.950 . S
H1080 C1090 0.950 . S
H1081 C1092 0.950 . S
H1082 C1094 0.950 . S
H1083 C1095 0.950 . S
C1084 H1076 0.950 . S
C1084 C1085 1.386 . S
C1084 C1086 1.391 . S
C1085 C1084 1.386 . S
C1085 C1089 1.393 . S
C1086 H1078 0.950 . S
C1086 C1084 1.391 . S
C1086 C1087 1.400 . S
C1087 C1086 1.400 . S
C1087 C1088 1.398 . S
C1087 C1093 1.491 . S
C1088 H1079 0.950 . S
C1088 C1087 1.398 . S
C1088 C1089 1.391 . S
C1089 H1077 0.950 . S
C1089 C1085 1.393 . S
C1089 C1088 1.391 . S
C1090 H1080 0.950 . S
C1090 C1091 1.386 . S
C1090 C1092 1.391 . S
C1091 C1090 1.386 . S
C1091 C1095 1.393 . S
C1092 H1081 0.950 . S
C1092 C1090 1.391 . S
C1092 C1093 1.400 . S
C1093 C1087 1.491 . S
C1093 C1092 1.400 . S
C1093 C1094 1.398 . S
C1094 H1082 0.950 . S
C1094 C1093 1.398 . S
C1094 C1095 1.391 . S
C1095 H1083 0.950 . S
C1095 C1091 1.393 . S
C1095 C1094 1.391 . S
H1096 C1104 0.950 . S
H1097 C1109 0.950 . S
H1098 C1106 0.950 . S
H1099 C1108 0.950 . S
H1100 C1110 0.950 . S
H1101 C1112 0.950 . S
H1102 C1114 0.950 . S
H1103 C1115 0.950 . S
C1104 H1096 0.950 . S
C1104 C1105 1.386 . S
C1104 C1106 1.391 . S
C1105 C1104 1.386 . S
C1105 C1109 1.393 . S
C1106 H1098 0.950 . S
C1106 C1104 1.391 . S
C1106 C1107 1.400 . S
C1107 C1106 1.400 . S
C1107 C1108 1.398 . S
C1107 C1113 1.491 . S
C1108 H1099 0.950 . S
C1108 C1107 1.398 . S
C1108 C1109 1.391 . S
C1109 H1097 0.950 . S
C1109 C1105 1.393 . S
C1109 C1108 1.391 . S
C1110 H1100 0.950 . S
C1110 C1111 1.386 . S
C1110 C1112 1.391 . S
C1111 C1110 1.386 . S
C1111 C1115 1.393 . S
C1112 H1101 0.950 . S
C1112 C1110 1.391 . S
C1112 C1113 1.400 . S
C1113 C1107 1.491 . S
C1113 C1112 1.400 . S
C1113 C1114 1.398 . S
C1114 H1102 0.950 . S
C1114 C1113 1.398 . S
C1114 C1115 1.391 . S
C1115 H1103 0.950 . S
C1115 C1111 1.393 . S
C1115 C1114 1.391 . S
H1116 C1124 0.950 . S
H1117 C1129 0.950 . S
H1118 C1126 0.950 . S
H1119 C1128 0.950 . S
H1120 C1130 0.950 . S
H1121 C1132 0.950 . S
H1122 C1134 0.950 . S
H1123 C1135 0.950 . S
C1124 H1116 0.950 . S
C1124 C1125 1.386 . S
C1124 C1126 1.391 . S
C1125 C1124 1.386 . S
C1125 C1129 1.393 . S
C1126 H1118 0.950 . S
C1126 C1124 1.391 . S
C1126 C1127 1.400 . S
C1127 C1126 1.400 . S
C1127 C1128 1.398 . S
C1127 C1133 1.491 . S
C1128 H1119 0.950 . S
C1128 C1127 1.398 . S
C1128 C1129 1.391 . S
C1129 H1117 0.950 . S
C1129 C1125 1.393 . S
C1129 C1128 1.391 . S
C1130 H1120 0.950 . S
C1130 C1131 1.386 . S
C1130 C1132 1.391 . S
C1131 C1130 1.386 . S
C1131 C1135 1.393 . S
C1132 H1121 0.950 . S
C1132 C1130 1.391 . S
C1132 C1133 1.400 . S
C1133 C1127 1.491 . S
C1133 C1132 1.400 . S
C1133 C1134 1.398 . S
C1134 H1122 0.950 . S
C1134 C1133 1.398 . S
C1134 C1135 1.391 . S
C1135 H1123 0.950 . S
C1135 C1131 1.393 . S
C1135 C1134 1.391 . S
H1136 C1144 0.950 . S
H1137 C1149 0.950 . S
H1138 C1146 0.950 . S
H1139 C1148 0.950 . S
H1140 C1150 0.950 . S
H1141 C1152 0.950 . S
H1142 C1154 0.950 . S
H1143 C1155 0.950 . S
C1144 H1136 0.950 . S
C1144 C1145 1.386 . S
C1144 C1146 1.391 . S
C1145 C1144 1.386 . S
C1145 C1149 1.393 . S
C1146 H1138 0.950 . S
C1146 C1144 1.391 . S
C1146 C1147 1.400 . S
C1147 C1146 1.400 . S
C1147 C1148 1.398 . S
C1147 C1153 1.491 . S
C1148 H1139 0.950 . S
C1148 C1147 1.398 . S
C1148 C1149 1.391 . S
C1149 H1137 0.950 . S
C1149 C1145 1.393 . S
C1149 C1148 1.391 . S
C1150 H1140 0.950 . S
C1150 C1151 1.386 . S
C1150 C1152 1.391 . S
C1151 C1150 1.386 . S
C1151 C1155 1.393 . S
C1152 H1141 0.950 . S
C1152 C1150 1.391 . S
C1152 C1153 1.400 . S
C1153 C1147 1.491 . S
C1153 C1152 1.400 . S
C1153 C1154 1.398 . S
C1154 H1142 0.950 . S
C1154 C1153 1.398 . S
C1154 C1155 1.391 . S
C1155 H1143 0.950 . S
C1155 C1151 1.393 . S
C1155 C1154 1.391 . S
H1156 C1164 0.950 . S
H1157 C1169 0.950 . S
H1158 C1166 0.950 . S
H1159 C1168 0.950 . S
H1160 C1170 0.950 . S
H1161 C1172 0.950 . S
H1162 C1174 0.950 . S
H1163 C1175 0.950 . S
C1164 H1156 0.950 . S
C1164 C1165 1.386 . S
C1164 C1166 1.391 . S
C1165 C1164 1.386 . S
C1165 C1169 1.393 . S
C1166 H1158 0.950 . S
C1166 C1164 1.391 . S
C1166 C1167 1.400 . S
C1167 C1166 1.400 . S
C1167 C1168 1.398 . S
C1167 C1173 1.491 . S
C1168 H1159 0.950 . S
C1168 C1167 1.398 . S
C1168 C1169 1.391 . S
C1169 H1157 0.950 . S
C1169 C1165 1.393 . S
C1169 C1168 1.391 . S
C1170 H1160 0.950 . S
C1170 C1171 1.386 . S
C1170 C1172 1.391 . S
C1171 C1170 1.386 . S
C1171 C1175 1.393 . S
C1172 H1161 0.950 . S
C1172 C1170 1.391 . S
C1172 C1173 1.400 . S
C1173 C1167 1.491 . S
C1173 C1172 1.400 . S
C1173 C1174 1.398 . S
C1174 H1162 0.950 . S
C1174 C1173 1.398 . S
C1174 C1175 1.391 . S
C1175 H1163 0.950 . S
C1175 C1171 1.393 . S
C1175 C1174 1.391 . S
H1176 C1184 0.950 . S
H1177 C1189 0.950 . S
H1178 C1186 0.950 . S
H1179 C1188 0.950 . S
H1180 C1190 0.950 . S
H1181 C1192 0.950 . S
H1182 C1194 0.950 . S
H1183 C1195 0.950 . S
C1184 H1176 0.950 . S
C1184 C1185 1.386 . S
C1184 C1186 1.391 . S
C1185 C1184 1.386 . S
C1185 C1189 1.393 . S
C1186 H1178 0.950 . S
C1186 C1184 1.391 . S
C1186 C1187 1.400 . S
C1187 C1186 1.400 . S
C1187 C1188 1.398 . S
C1187 C1193 1.491 . S
C1188 H1179 0.950 . S
C1188 C1187 1.398 . S
C1188 C1189 1.391 . S
C1189 H1177 0.950 . S
C1189 C1185 1.393 . S
C1189 C1188 1.391 . S
C1190 H1180 0.950 . S
C1190 C1191 1.386 . S
C1190 C1192 1.391 . S
C1191 C1190 1.386 . S
C1191 C1195 1.393 . S
C1192 H1181 0.950 . S
C1192 C1190 1.391 . S
C1192 C1193 1.400 . S
C1193 C1187 1.491 . S
C1193 C1192 1.400 . S
C1193 C1194 1.398 . S
C1194 H1182 0.950 . S
C1194 C1193 1.398 . S
C1194 C1195 1.391 . S
C1195 H1183 0.950 . S
C1195 C1191 1.393 . S
C1195 C1194 1.391 . S
H1196 C1204 0.950 . S
H1197 C1209 0.950 . S
H1198 C1206 0.950 . S
H1199 C1208 0.950 . S
H1200 C1210 0.950 . S
H1201 C1212 0.950 . S
H1202 C1214 0.950 . S
H1203 C1215 0.950 . S
C1204 H1196 0.950 . S
C1204 C1205 1.386 . S
C1204 C1206 1.391 . S
C1205 C1204 1.386 . S
C1205 C1209 1.393 . S
C1206 H1198 0.950 . S
C1206 C1204 1.391 . S
C1206 C1207 1.400 . S
C1207 C1206 1.400 . S
C1207 C1208 1.398 . S
C1207 C1213 1.491 . S
C1208 H1199 0.950 . S
C1208 C1207 1.398 . S
C1208 C1209 1.391 . S
C1209 H1197 0.950 . S
C1209 C1205 1.393 . S
C1209 C1208 1.391 . S
C1210 H1200 0.950 . S
C1210 C1211 1.386 . S
C1210 C1212 1.391 . S
C1211 C1210 1.386 . S
C1211 C1215 1.393 . S
C1212 H1201 0.950 . S
C1212 C1210 1.391 . S
C1212 C1213 1.400 . S
C1213 C1207 1.491 . S
C1213 C1212 1.400 . S
C1213 C1214 1.398 . S
C1214 H1202 0.950 . S
C1214 C1213 1.398 . S
C1214 C1215 1.391 . S
C1215 H1203 0.950 . S
C1215 C1211 1.393 . S
C1215 C1214 1.391 . S
H1216 C1224 0.950 . S
H1217 C1229 0.950 . S
H1218 C1226 0.950 . S
H1219 C1228 0.950 . S
H1220 C1230 0.950 . S
H1221 C1232 0.950 . S
H1222 C1234 0.950 . S
H1223 C1235 0.950 . S
C1224 H1216 0.950 . S
C1224 C1225 1.386 . S
C1224 C1226 1.391 . S
C1225 C1224 1.386 . S
C1225 C1229 1.393 . S
C1226 H1218 0.950 . S
C1226 C1224 1.391 . S
C1226 C1227 1.400 . S
C1227 C1226 1.400 . S
C1227 C1228 1.398 . S
C1227 C1233 1.491 . S
C1228 H1219 0.950 . S
C1228 C1227 1.398 . S
C1228 C1229 1.391 . S
C1229 H1217 0.950 . S
C1229 C1225 1.393 . S
C1229 C1228 1.391 . S
C1230 H1220 0.950 . S
C1230 C1231 1.386 . S
C1230 C1232 1.391 . S
C1231 C1230 1.386 . S
C1231 C1235 1.393 . S
C1232 H1221 0.950 . S
C1232 C1230 1.391 . S
C1232 C1233 1.400 . S
C1233 C1227 1.491 . S
C1233 C1232 1.400 . S
C1233 C1234 1.398 . S
C1234 H1222 0.950 . S
C1234 C1233 1.398 . S
C1234 C1235 1.391 . S
C1235 H1223 0.950 . S
C1235 C1231 1.393 . S
C1235 C1234 1.391 . S
H1236 C1244 0.950 . S
H1237 C1249 0.950 . S
H1238 C1246 0.950 . S
H1239 C1248 0.950 . S
H1240 C1250 0.950 . S
H1241 C1252 0.950 . S
H1242 C1254 0.950 . S
H1243 C1255 0.950 . S
C1244 H1236 0.950 . S
C1244 C1245 1.386 . S
C1244 C1246 1.391 . S
C1245 C1244 1.386 . S
C1245 C1249 1.393 . S
C1246 H1238 0.950 . S
C1246 C1244 1.391 . S
C1246 C1247 1.400 . S
C1247 C1246 1.400 . S
C1247 C1248 1.398 . S
C1247 C1253 1.491 . S
C1248 H1239 0.950 . S
C1248 C1247 1.398 . S
C1248 C1249 1.391 . S
C1249 H1237 0.950 . S
C1249 C1245 1.393 . S
C1249 C1248 1.391 . S
C1250 H1240 0.950 . S
C1250 C1251 1.386 . S
C1250 C1252 1.391 . S
C1251 C1250 1.386 . S
C1251 C1255 1.393 . S
C1252 H1241 0.950 . S
C1252 C1250 1.391 . S
C1252 C1253 1.400 . S
C1253 C1247 1.491 . S
C1253 C1252 1.400 . S
C1253 C1254 1.398 . S
C1254 H1242 0.950 . S
C1254 C1253 1.398 . S
C1254 C1255 1.391 . S
C1255 H1243 0.950 . S
C1255 C1251 1.393 . S
C1255 C1254 1.391 . S
H1256 C1264 0.950 . S
H1257 C1269 0.950 . S
H1258 C1266 0.950 . S
H1259 C1268 0.950 . S
H1260 C1270 0.950 . S
H1261 C1272 0.950 . S
H1262 C1274 0.950 . S
H1263 C1275 0.950 . S
C1264 H1256 0.950 . S
C1264 C1265 1.386 . S
C1264 C1266 1.391 . S
C1265 C1264 1.386 . S
C1265 C1269 1.393 . S
C1266 H1258 0.950 . S
C1266 C1264 1.391 . S
C1266 C1267 1.400 . S
C1267 C1266 1.400 . S
C1267 C1268 1.398 . S
C1267 C1273 1.491 . S
C1268 H1259 0.950 . S
C1268 C1267 1.398 . S
C1268 C1269 1.391 . S
C1269 H1257 0.950 . S
C1269 C1265 1.393 . S
C1269 C1268 1.391 . S
C1270 H1260 0.950 . S
C1270 C1271 1.386 . S
C1270 C1272 1.391 . S
C1271 C1270 1.386 . S
C1271 C1275 1.393 . S
C1272 H1261 0.950 . S
C1272 C1270 1.391 . S
C1272 C1273 1.400 . S
C1273 C1267 1.491 . S
C1273 C1272 1.400 . S
C1273 C1274 1.398 . S
C1274 H1262 0.950 . S
C1274 C1273 1.398 . S
C1274 C1275 1.391 . S
C1275 H1263 0.950 . S
C1275 C1271 1.393 . S
C1275 C1274 1.391 . S
H1276 C1284 0.950 . S
H1277 C1289 0.950 . S
H1278 C1286 0.950 . S
H1279 C1288 0.950 . S
H1280 C1290 0.950 . S
H1281 C1292 0.950 . S
H1282 C1294 0.950 . S
H1283 C1295 0.950 . S
C1284 H1276 0.950 . S
C1284 C1285 1.386 . S
C1284 C1286 1.391 . S
C1285 C1284 1.386 . S
C1285 C1289 1.393 . S
C1286 H1278 0.950 . S
C1286 C1284 1.391 . S
C1286 C1287 1.400 . S
C1287 C1286 1.400 . S
C1287 C1288 1.398 . S
C1287 C1293 1.491 . S
C1288 H1279 0.950 . S
C1288 C1287 1.398 . S
C1288 C1289 1.391 . S
C1289 H1277 0.950 . S
C1289 C1285 1.393 . S
C1289 C1288 1.391 . S
C1290 H1280 0.950 . S
C1290 C1291 1.386 . S
C1290 C1292 1.391 . S
C1291 C1290 1.386 . S
C1291 C1295 1.393 . S
C1292 H1281 0.950 . S
C1292 C1290 1.391 . S
C1292 C1293 1.400 . S
C1293 C1287 1.491 . S
C1293 C1292 1.400 . S
C1293 C1294 1.398 . S
C1294 H1282 0.950 . S
C1294 C1293 1.398 . S
C1294 C1295 1.391 . S
C1295 H1283 0.950 . S
C1295 C1291 1.393 . S
C1295 C1294 1.391 . S
H1296 C1304 0.950 . S
H1297 C1309 0.950 . S
H1298 C1306 0.950 . S
H1299 C1308 0.950 . S
H1300 C1310 0.950 . S
H1301 C1312 0.950 . S
H1302 C1314 0.950 . S
H1303 C1315 0.950 . S
C1304 H1296 0.950 . S
C1304 C1305 1.386 . S
C1304 C1306 1.391 . S
C1305 C1304 1.386 . S
C1305 C1309 1.393 . S
C1306 H1298 0.950 . S
C1306 C1304 1.391 . S
C1306 C1307 1.400 . S
C1307 C1306 1.400 . S
C1307 C1308 1.398 . S
C1307 C1313 1.491 . S
C1308 H1299 0.950 . S
C1308 C1307 1.398 . S
C1308 C1309 1.391 . S
C1309 H1297 0.950 . S
C1309 C1305 1.393 . S
C1309 C1308 1.391 . S
C1310 H1300 0.950 . S
C1310 C1311 1.386 . S
C1310 C1312 1.391 . S
C1311 C1310 1.386 . S
C1311 C1315 1.393 . S
C1312 H1301 0.950 . S
C1312 C1310 1.391 . S
C1312 C1313 1.400 . S
C1313 C1307 1.491 . S
C1313 C1312 1.400 . S
C1313 C1314 1.398 . S
C1314 H1302 0.950 . S
C1314 C1313 1.398 . S
C1314 C1315 1.391 . S
C1315 H1303 0.950 . S
C1315 C1311 1.393 . S
C1315 C1314 1.391 . S
H1316 C1324 0.950 . S
H1317 C1329 0.950 . S
H1318 C1326 0.950 . S
H1319 C1328 0.950 . S
H1320 C1330 0.950 . S
H1321 C1332 0.950 . S
H1322 C1334 0.950 . S
H1323 C1335 0.950 . S
C1324 H1316 0.950 . S
C1324 C1325 1.386 . S
C1324 C1326 1.391 . S
C1325 C1324 1.386 . S
C1325 C1329 1.393 . S
C1326 H1318 0.950 . S
C1326 C1324 1.391 . S
C1326 C1327 1.400 . S
C1327 C1326 1.400 . S
C1327 C1328 1.398 . S
C1327 C1333 1.491 . S
C1328 H1319 0.950 . S
C1328 C1327 1.398 . S
C1328 C1329 1.391 . S
C1329 H1317 0.950 . S
C1329 C1325 1.393 . S
C1329 C1328 1.391 . S
C1330 H1320 0.950 . S
C1330 C1331 1.386 . S
C1330 C1332 1.391 . S
C1331 C1330 1.386 . S
C1331 C1335 1.393 . S
C1332 H1321 0.950 . S
C1332 C1330 1.391 . S
C1332 C1333 1.400 . S
C1333 C1327 1.491 . S
C1333 C1332 1.400 . S
C1333 C1334 1.398 . S
C1334 H1322 0.950 . S
C1334 C1333 1.398 . S
C1334 C1335 1.391 . S
C1335 H1323 0.950 . S
C1335 C1331 1.393 . S
C1335 C1334 1.391 . S
H1336 C1344 0.950 . S
H1337 C1349 0.950 . S
H1338 C1346 0.950 . S
H1339 C1348 0.950 . S
H1340 C1350 0.950 . S
H1341 C1352 0.950 . S
H1342 C1354 0.950 . S
H1343 C1355 0.950 . S
C1344 H1336 0.950 . S
C1344 C1345 1.386 . S
C1344 C1346 1.391 . S
C1345 C1344 1.386 . S
C1345 C1349 1.393 . S
C1346 H1338 0.950 . S
C1346 C1344 1.391 . S
C1346 C1347 1.400 . S
C1347 C1346 1.400 . S
C1347 C1348 1.398 . S
C1347 C1353 1.491 . S
C1348 H1339 0.950 . S
C1348 C1347 1.398 . S
C1348 C1349 1.391 . S
C1349 H1337 0.950 . S
C1349 C1345 1.393 . S
C1349 C1348 1.391 . S
C1350 H1340 0.950 . S
C1350 C1351 1.386 . S
C1350 C1352 1.391 . S
C1351 C1350 1.386 . S
C1351 C1355 1.393 . S
C1352 H1341 0.950 . S
C1352 C1350 1.391 . S
C1352 C1353 1.400 . S
C1353 C1347 1.491 . S
C1353 C1352 1.400 . S
C1353 C1354 1.398 . S
C1354 H1342 0.950 . S
C1354 C1353 1.398 . S
C1354 C1355 1.391 . S
C1355 H1343 0.950 . S
C1355 C1351 1.393 . S
C1355 C1354 1.391 . S
H1356 C1364 0.950 . S
H1357 C1369 0.950 1_554 S
H1358 C1366 0.950 . S
H1359 C1368 0.950 . S
H1360 C1370 0.950 . S
H1361 C1372 0.950 . S
H1362 C1374 0.950 . S
H1363 C1375 0.950 . S
C1364 H1356 0.950 . S
C1364 C1365 1.386 . S
C1364 C1366 1.391 . S
C1365 C1364 1.386 . S
C1365 C1369 1.393 . S
C1366 H1358 0.950 . S
C1366 C1364 1.391 . S
C1366 C1367 1.400 . S
C1367 C1366 1.400 . S
C1367 C1368 1.398 . S
C1367 C1373 1.491 . S
C1368 H1359 0.950 . S
C1368 C1367 1.398 . S
C1368 C1369 1.391 . S
C1369 H1357 0.950 1_556 S
C1369 C1365 1.393 . S
C1369 C1368 1.391 . S
C1370 H1360 0.950 . S
C1370 C1371 1.386 . S
C1370 C1372 1.391 . S
C1371 C1370 1.386 . S
C1371 C1375 1.393 . S
C1372 H1361 0.950 . S
C1372 C1370 1.391 . S
C1372 C1373 1.400 . S
C1373 C1367 1.491 . S
C1373 C1372 1.400 . S
C1373 C1374 1.398 . S
C1374 H1362 0.950 . S
C1374 C1373 1.398 . S
C1374 C1375 1.391 . S
C1375 H1363 0.950 . S
C1375 C1371 1.393 . S
C1375 C1374 1.391 . S
H1376 C1384 0.950 . S
H1377 C1389 0.950 . S
H1378 C1386 0.950 . S
H1379 C1388 0.950 . S
H1380 C1390 0.950 . S
H1381 C1392 0.950 . S
H1382 C1394 0.950 . S
H1383 C1395 0.950 . S
C1384 H1376 0.950 . S
C1384 C1385 1.386 . S
C1384 C1386 1.391 . S
C1385 C1384 1.386 . S
C1385 C1389 1.393 . S
C1386 H1378 0.950 . S
C1386 C1384 1.391 . S
C1386 C1387 1.400 . S
C1387 C1386 1.400 . S
C1387 C1388 1.398 . S
C1387 C1393 1.491 . S
C1388 H1379 0.950 . S
C1388 C1387 1.398 . S
C1388 C1389 1.391 . S
C1389 H1377 0.950 . S
C1389 C1385 1.393 . S
C1389 C1388 1.391 . S
C1390 H1380 0.950 . S
C1390 C1391 1.386 . S
C1390 C1392 1.391 . S
C1391 C1390 1.386 . S
C1391 C1395 1.393 . S
C1392 H1381 0.950 . S
C1392 C1390 1.391 . S
C1392 C1393 1.400 . S
C1393 C1387 1.491 . S
C1393 C1392 1.400 . S
C1393 C1394 1.398 . S
C1394 H1382 0.950 . S
C1394 C1393 1.398 . S
C1394 C1395 1.391 . S
C1395 H1383 0.950 . S
C1395 C1391 1.393 . S
C1395 C1394 1.391 . S
H1396 C1404 0.950 . S
H1397 C1409 0.950 . S
H1398 C1406 0.950 . S
H1399 C1408 0.950 . S
H1400 C1410 0.950 . S
H1401 C1412 0.950 . S
H1402 C1414 0.950 . S
H1403 C1415 0.950 . S
C1404 H1396 0.950 . S
C1404 C1405 1.386 . S
C1404 C1406 1.391 . S
C1405 C1404 1.386 . S
C1405 C1409 1.393 . S
C1406 H1398 0.950 . S
C1406 C1404 1.391 . S
C1406 C1407 1.400 . S
C1407 C1406 1.400 . S
C1407 C1408 1.398 . S
C1407 C1413 1.491 . S
C1408 H1399 0.950 . S
C1408 C1407 1.398 . S
C1408 C1409 1.391 . S
C1409 H1397 0.950 . S
C1409 C1405 1.393 . S
C1409 C1408 1.391 . S
C1410 H1400 0.950 . S
C1410 C1411 1.386 . S
C1410 C1412 1.391 . S
C1411 C1410 1.386 . S
C1411 C1415 1.393 . S
C1412 H1401 0.950 . S
C1412 C1410 1.391 . S
C1412 C1413 1.400 . S
C1413 C1407 1.491 . S
C1413 C1412 1.400 . S
C1413 C1414 1.398 . S
C1414 H1402 0.950 . S
C1414 C1413 1.398 . S
C1414 C1415 1.391 . S
C1415 H1403 0.950 . S
C1415 C1411 1.393 . S
C1415 C1414 1.391 . S
H1416 C1424 0.917 1_554 S
H1417 C1429 0.950 . S
H1418 C1426 0.950 . S
H1419 C1428 0.950 . S
H1420 C1430 0.950 . S
H1421 C1432 0.950 . S
H1422 C1434 0.950 . S
H1423 C1435 0.950 . S
C1424 H1416 0.917 1_556 S
C1424 C1425 1.386 . S
C1424 C1426 1.391 . S
C1425 C1424 1.386 . S
C1425 C1429 1.393 . S
C1426 H1418 0.950 . S
C1426 C1424 1.391 . S
C1426 C1427 1.400 . S
C1427 C1426 1.400 . S
C1427 C1428 1.398 . S
C1427 C1433 1.491 . S
C1428 H1419 0.950 . S
C1428 C1427 1.398 . S
C1428 C1429 1.391 . S
C1429 H1417 0.950 . S
C1429 C1425 1.393 . S
C1429 C1428 1.391 . S
C1430 H1420 0.950 . S
C1430 C1431 1.386 . S
C1430 C1432 1.391 . S
C1431 C1430 1.386 . S
C1431 C1435 1.393 . S
C1432 H1421 0.950 . S
C1432 C1430 1.391 . S
C1432 C1433 1.400 . S
C1433 C1427 1.491 . S
C1433 C1432 1.400 . S
C1433 C1434 1.398 . S
C1434 H1422 0.950 . S
C1434 C1433 1.398 . S
C1434 C1435 1.391 . S
C1435 H1423 0.950 . S
C1435 C1431 1.393 . S
C1435 C1434 1.391 . S
H1436 C1444 0.950 . S
H1437 C1449 0.950 1_554 S
H1438 C1446 0.950 . S
H1439 C1448 0.950 . S
H1440 C1450 0.950 . S
H1441 C1452 0.950 . S
H1442 C1454 0.950 . S
H1443 C1455 0.950 . S
C1444 H1436 0.950 . S
C1444 C1445 1.386 . S
C1444 C1446 1.391 . S
C1445 C1444 1.386 . S
C1445 C1449 1.393 . S
C1446 H1438 0.950 . S
C1446 C1444 1.391 . S
C1446 C1447 1.400 . S
C1447 C1446 1.400 . S
C1447 C1448 1.398 . S
C1447 C1453 1.491 . S
C1448 H1439 0.950 . S
C1448 C1447 1.398 . S
C1448 C1449 1.391 . S
C1449 H1437 0.950 1_556 S
C1449 C1445 1.393 . S
C1449 C1448 1.391 . S
C1450 H1440 0.950 . S
C1450 C1451 1.386 . S
C1450 C1452 1.391 . S
C1451 C1450 1.386 . S
C1451 C1455 1.393 . S
C1452 H1441 0.950 . S
C1452 C1450 1.391 . S
C1452 C1453 1.400 . S
C1453 C1447 1.491 . S
C1453 C1452 1.400 . S
C1453 C1454 1.398 . S
C1454 H1442 0.950 . S
C1454 C1453 1.398 . S
C1454 C1455 1.391 . S
C1455 H1443 0.950 . S
C1455 C1451 1.393 . S
C1455 C1454 1.391 . S
H1456 C1464 0.950 . S
H1457 C1469 0.950 . S
H1458 C1466 0.950 . S
H1459 C1468 0.950 . S
H1460 C1470 0.950 . S
H1461 C1472 0.950 . S
H1462 C1474 0.950 . S
H1463 C1475 0.950 . S
C1464 H1456 0.950 . S
C1464 C1465 1.386 . S
C1464 C1466 1.391 . S
C1465 C1464 1.386 . S
C1465 C1469 1.393 . S
C1466 H1458 0.950 . S
C1466 C1464 1.391 . S
C1466 C1467 1.400 . S
C1467 C1466 1.400 . S
C1467 C1468 1.398 . S
C1467 C1473 1.491 . S
C1468 H1459 0.950 . S
C1468 C1467 1.398 . S
C1468 C1469 1.391 . S
C1469 H1457 0.950 . S
C1469 C1465 1.393 . S
C1469 C1468 1.391 . S
C1470 H1460 0.950 . S
C1470 C1471 1.386 . S
C1470 C1472 1.391 . S
C1471 C1470 1.386 . S
C1471 C1475 1.393 . S
C1472 H1461 0.950 . S
C1472 C1470 1.391 . S
C1472 C1473 1.400 . S
C1473 C1467 1.491 . S
C1473 C1472 1.400 . S
C1473 C1474 1.398 . S
C1474 H1462 0.950 . S
C1474 C1473 1.398 . S
C1474 C1475 1.391 . S
C1475 H1463 0.950 . S
C1475 C1471 1.393 . S
C1475 C1474 1.391 . S
H1476 C1484 0.950 . S
H1477 C1489 0.950 . S
H1478 C1486 0.950 . S
H1479 C1488 0.950 . S
H1480 C1490 0.950 . S
H1481 C1492 0.950 . S
H1482 C1494 0.950 . S
H1483 C1495 0.950 . S
C1484 H1476 0.950 . S
C1484 C1485 1.386 . S
C1484 C1486 1.391 . S
C1485 C1484 1.386 . S
C1485 C1489 1.393 . S
C1486 H1478 0.950 . S
C1486 C1484 1.391 . S
C1486 C1487 1.400 . S
C1487 C1486 1.400 . S
C1487 C1488 1.398 . S
C1487 C1493 1.491 . S
C1488 H1479 0.950 . S
C1488 C1487 1.398 . S
C1488 C1489 1.391 . S
C1489 H1477 0.950 . S
C1489 C1485 1.393 . S
C1489 C1488 1.391 . S
C1490 H1480 0.950 . S
C1490 C1491 1.386 . S
C1490 C1492 1.391 . S
C1491 C1490 1.386 . S
C1491 C1495 1.393 . S
C1492 H1481 0.950 . S
C1492 C1490 1.391 . S
C1492 C1493 1.400 . S
C1493 C1487 1.491 . S
C1493 C1492 1.400 . S
C1493 C1494 1.398 . S
C1494 H1482 0.950 . S
C1494 C1493 1.398 . S
C1494 C1495 1.391 . S
C1495 H1483 0.950 . S
C1495 C1491 1.393 . S
C1495 C1494 1.391 . S
H1496 C1504 0.950 . S
H1497 C1509 0.950 . S
H1498 C1506 0.950 . S
H1499 C1508 0.950 . S
H1500 C1510 0.950 . S
H1501 C1512 0.950 . S
H1502 C1514 0.950 . S
H1503 C1515 0.950 . S
C1504 H1496 0.950 . S
C1504 C1505 1.386 . S
C1504 C1506 1.391 . S
C1505 C1504 1.386 . S
C1505 C1509 1.393 . S
C1506 H1498 0.950 . S
C1506 C1504 1.391 . S
C1506 C1507 1.400 . S
C1507 C1506 1.400 . S
C1507 C1508 1.398 . S
C1507 C1513 1.491 . S
C1508 H1499 0.950 . S
C1508 C1507 1.398 . S
C1508 C1509 1.391 . S
C1509 H1497 0.950 . S
C1509 C1505 1.393 . S
C1509 C1508 1.391 . S
C1510 H1500 0.950 . S
C1510 C1511 1.386 . S
C1510 C1512 1.391 . S
C1511 C1510 1.386 . S
C1511 C1515 1.393 . S
C1512 H1501 0.950 . S
C1512 C1510 1.391 . S
C1512 C1513 1.400 . S
C1513 C1507 1.491 . S
C1513 C1512 1.400 . S
C1513 C1514 1.398 . S
C1514 H1502 0.950 . S
C1514 C1513 1.398 . S
C1514 C1515 1.391 . S
C1515 H1503 0.950 . S
C1515 C1511 1.393 . S
C1515 C1514 1.391 . S
H1516 C1524 0.950 . S
H1517 C1529 0.950 . S
H1518 C1526 0.950 . S
H1519 C1528 0.950 . S
H1520 C1530 0.950 . S
H1521 C1532 0.950 . S
H1522 C1534 0.950 . S
H1523 C1535 0.950 . S
C1524 H1516 0.950 . S
C1524 C1525 1.386 . S
C1524 C1526 1.391 . S
C1525 C1524 1.386 . S
C1525 C1529 1.393 . S
C1526 H1518 0.950 . S
C1526 C1524 1.391 . S
C1526 C1527 1.400 . S
C1527 C1526 1.400 . S
C1527 C1528 1.398 . S
C1527 C1533 1.491 . S
C1528 H1519 0.950 . S
C1528 C1527 1.398 . S
C1528 C1529 1.391 . S
C1529 H1517 0.950 . S
C1529 C1525 1.393 . S
C1529 C1528 1.391 . S
C1530 H1520 0.950 . S
C1530 C1531 1.386 . S
C1530 C1532 1.391 . S
C1531 C1530 1.386 . S
C1531 C1535 1.393 . S
C1532 H1521 0.950 . S
C1532 C1530 1.391 . S
C1532 C1533 1.400 . S
C1533 C1527 1.491 . S
C1533 C1532 1.400 . S
C1533 C1534 1.398 . S
C1534 H1522 0.950 . S
C1534 C1533 1.398 . S
C1534 C1535 1.391 . S
C1535 H1523 0.950 . S
C1535 C1531 1.393 . S
C1535 C1534 1.391 . S
H1536 C1544 0.950 . S
H1537 C1549 0.950 . S
H1538 C1546 0.950 . S
H1539 C1548 0.950 . S
H1540 C1550 0.950 . S
H1541 C1552 0.950 . S
H1542 C1554 0.950 . S
H1543 C1555 0.950 . S
C1544 H1536 0.950 . S
C1544 C1545 1.386 . S
C1544 C1546 1.391 . S
C1545 C1544 1.386 . S
C1545 C1549 1.393 . S
C1546 H1538 0.950 . S
C1546 C1544 1.391 . S
C1546 C1547 1.400 . S
C1547 C1546 1.400 . S
C1547 C1548 1.398 . S
C1547 C1553 1.491 . S
C1548 H1539 0.950 . S
C1548 C1547 1.398 . S
C1548 C1549 1.391 . S
C1549 H1537 0.950 . S
C1549 C1545 1.393 . S
C1549 C1548 1.391 . S
C1550 H1540 0.950 . S
C1550 C1551 1.386 . S
C1550 C1552 1.391 . S
C1551 C1550 1.386 . S
C1551 C1555 1.393 . S
C1552 H1541 0.950 . S
C1552 C1550 1.391 . S
C1552 C1553 1.400 . S
C1553 C1547 1.491 . S
C1553 C1552 1.400 . S
C1553 C1554 1.398 . S
C1554 H1542 0.950 . S
C1554 C1553 1.398 . S
C1554 C1555 1.391 . S
C1555 H1543 0.950 . S
C1555 C1551 1.393 . S
C1555 C1554 1.391 . S
H1556 C1564 0.950 . S
H1557 C1569 0.950 . S
H1558 C1566 0.950 . S
H1559 C1568 0.950 . S
H1560 C1570 0.950 . S
H1561 C1572 0.950 . S
H1562 C1574 0.950 . S
H1563 C1575 0.950 . S
C1564 H1556 0.950 . S
C1564 C1565 1.386 . S
C1564 C1566 1.391 . S
C1565 C1564 1.386 . S
C1565 C1569 1.393 . S
C1566 H1558 0.950 . S
C1566 C1564 1.391 . S
C1566 C1567 1.400 . S
C1567 C1566 1.400 . S
C1567 C1568 1.398 . S
C1567 C1573 1.491 . S
C1568 H1559 0.950 . S
C1568 C1567 1.398 . S
C1568 C1569 1.391 . S
C1569 H1557 0.950 . S
C1569 C1565 1.393 . S
C1569 C1568 1.391 . S
C1570 H1560 0.950 . S
C1570 C1571 1.386 . S
C1570 C1572 1.391 . S
C1571 C1570 1.386 . S
C1571 C1575 1.393 . S
C1572 H1561 0.950 . S
C1572 C1570 1.391 . S
C1572 C1573 1.400 . S
C1573 C1567 1.491 . S
C1573 C1572 1.400 . S
C1573 C1574 1.398 . S
C1574 H1562 0.950 . S
C1574 C1573 1.398 . S
C1574 C1575 1.391 . S
C1575 H1563 0.950 . S
C1575 C1571 1.393 . S
C1575 C1574 1.391 . S
H1576 C1584 0.950 . S
H1577 C1589 0.950 . S
H1578 C1586 0.950 . S
H1579 C1588 0.950 . S
H1580 C1590 0.950 . S
H1581 C1592 0.950 . S
H1582 C1594 0.950 . S
H1583 C1595 0.950 . S
C1584 H1576 0.950 . S
C1584 C1585 1.386 . S
C1584 C1586 1.391 . S
C1585 C1584 1.386 . S
C1585 C1589 1.393 . S
C1586 H1578 0.950 . S
C1586 C1584 1.391 . S
C1586 C1587 1.400 . S
C1587 C1586 1.400 . S
C1587 C1588 1.398 . S
C1587 C1593 1.491 . S
C1588 H1579 0.950 . S
C1588 C1587 1.398 . S
C1588 C1589 1.391 . S
C1589 H1577 0.950 . S
C1589 C1585 1.393 . S
C1589 C1588 1.391 . S
C1590 H1580 0.950 . S
C1590 C1591 1.386 . S
C1590 C1592 1.391 . S
C1591 C1590 1.386 . S
C1591 C1595 1.393 . S
C1592 H1581 0.950 . S
C1592 C1590 1.391 . S
C1592 C1593 1.400 . S
C1593 C1587 1.491 . S
C1593 C1592 1.400 . S
C1593 C1594 1.398 . S
C1594 H1582 0.950 . S
C1594 C1593 1.398 . S
C1594 C1595 1.391 . S
C1595 H1583 0.950 . S
C1595 C1591 1.393 . S
C1595 C1594 1.391 . S
H1596 C1604 0.950 1_655 S
H1597 C1609 0.950 . S
H1598 C1606 0.949 1_655 S
H1599 C1608 0.950 . S
H1600 C1610 0.950 . S
H1601 C1612 0.950 . S
H1602 C1614 0.950 . S
H1603 C1615 0.950 . S
C1604 H1596 0.950 1_455 S
C1604 C1605 1.386 . S
C1604 C1606 1.392 . S
C1605 C1604 1.386 . S
C1605 C1609 1.393 . S
C1606 H1598 0.949 1_455 S
C1606 C1604 1.392 . S
C1606 C1607 1.400 . S
C1607 C1606 1.400 . S
C1607 C1608 1.398 . S
C1607 C1613 1.491 . S
C1608 H1599 0.950 . S
C1608 C1607 1.398 . S
C1608 C1609 1.391 . S
C1609 H1597 0.950 . S
C1609 C1605 1.393 . S
C1609 C1608 1.391 . S
C1610 H1600 0.950 . S
C1610 C1611 1.386 . S
C1610 C1612 1.391 . S
C1611 C1610 1.386 . S
C1611 C1615 1.393 1_455 S
C1612 H1601 0.950 . S
C1612 C1610 1.391 . S
C1612 C1613 1.400 . S
C1613 C1607 1.491 . S
C1613 C1612 1.400 . S
C1613 C1614 1.398 1_455 S
C1614 H1602 0.950 . S
C1614 C1613 1.398 1_655 S
C1614 C1615 1.391 . S
C1615 H1603 0.950 . S
C1615 C1611 1.393 1_655 S
C1615 C1614 1.391 . S
H1616 C1624 0.950 . S
H1617 C1629 0.950 . S
H1618 C1626 0.950 . S
H1619 C1628 0.950 . S
H1620 C1630 0.950 . S
H1621 C1632 0.950 . S
H1622 C1634 0.950 . S
H1623 C1635 0.950 . S
C1624 H1616 0.950 . S
C1624 C1625 1.386 . S
C1624 C1626 1.391 . S
C1625 C1624 1.386 . S
C1625 C1629 1.393 . S
C1626 H1618 0.950 . S
C1626 C1624 1.391 . S
C1626 C1627 1.400 . S
C1627 C1626 1.400 . S
C1627 C1628 1.398 . S
C1627 C1633 1.491 . S
C1628 H1619 0.950 . S
C1628 C1627 1.398 . S
C1628 C1629 1.391 . S
C1629 H1617 0.950 . S
C1629 C1625 1.393 . S
C1629 C1628 1.391 . S
C1630 H1620 0.950 . S
C1630 C1631 1.386 . S
C1630 C1632 1.391 . S
C1631 C1630 1.386 . S
C1631 C1635 1.393 . S
C1632 H1621 0.950 . S
C1632 C1630 1.391 . S
C1632 C1633 1.400 . S
C1633 C1627 1.491 . S
C1633 C1632 1.400 . S
C1633 C1634 1.398 . S
C1634 H1622 0.950 . S
C1634 C1633 1.398 . S
C1634 C1635 1.391 . S
C1635 H1623 0.950 . S
C1635 C1631 1.393 . S
C1635 C1634 1.391 . S
H1636 C1644 0.950 . S
H1637 C1649 0.950 . S
H1638 C1646 0.950 . S
H1639 C1648 0.950 . S
H1640 C1650 0.950 . S
H1641 C1652 0.950 . S
H1642 C1654 0.950 . S
H1643 C1655 0.950 . S
C1644 H1636 0.950 . S
C1644 C1645 1.386 . S
C1644 C1646 1.391 . S
C1645 C1644 1.386 . S
C1645 C1649 1.393 . S
C1646 H1638 0.950 . S
C1646 C1644 1.391 . S
C1646 C1647 1.400 . S
C1647 C1646 1.400 . S
C1647 C1648 1.398 . S
C1647 C1653 1.491 . S
C1648 H1639 0.950 . S
C1648 C1647 1.398 . S
C1648 C1649 1.391 . S
C1649 H1637 0.950 . S
C1649 C1645 1.393 . S
C1649 C1648 1.391 . S
C1650 H1640 0.950 . S
C1650 C1651 1.386 . S
C1650 C1652 1.391 . S
C1651 C1650 1.386 . S
C1651 C1655 1.393 . S
C1652 H1641 0.950 . S
C1652 C1650 1.391 . S
C1652 C1653 1.400 . S
C1653 C1647 1.491 . S
C1653 C1652 1.400 . S
C1653 C1654 1.398 . S
C1654 H1642 0.950 . S
C1654 C1653 1.398 . S
C1654 C1655 1.391 . S
C1655 H1643 0.950 . S
C1655 C1651 1.393 . S
C1655 C1654 1.391 . S
H1656 C1664 0.950 . S
H1657 C1669 0.949 . S
H1658 C1666 0.950 . S
H1659 C1668 0.950 . S
H1660 C1670 0.950 . S
H1661 C1672 0.950 . S
H1662 C1674 0.950 . S
H1663 C1675 0.950 . S
C1664 H1656 0.950 . S
C1664 C1665 1.386 . S
C1664 C1666 1.391 . S
C1665 C1664 1.386 . S
C1665 C1669 1.394 1_565 S
C1666 H1658 0.950 . S
C1666 C1664 1.391 . S
C1666 C1667 1.400 . S
C1667 C1666 1.400 . S
C1667 C1668 1.398 1_565 S
C1667 C1673 1.491 . S
C1668 H1659 0.950 . S
C1668 C1667 1.398 1_545 S
C1668 C1669 1.390 . S
C1669 H1657 0.949 . S
C1669 C1665 1.394 1_545 S
C1669 C1668 1.390 . S
C1670 H1660 0.950 . S
C1670 C1671 1.388 . S
C1670 C1672 1.391 . S
C1671 C1670 1.388 . S
C1671 C1675 1.386 1_545 S
C1672 H1661 0.950 . S
C1672 C1670 1.391 . S
C1672 C1673 1.400 1_545 S
C1673 C1667 1.491 . S
C1673 C1672 1.400 1_565 S
C1673 C1674 1.398 . S
C1674 H1662 0.950 . S
C1674 C1673 1.398 . S
C1674 C1675 1.391 . S
C1675 H1663 0.950 . S
C1675 C1671 1.386 1_565 S
C1675 C1674 1.391 . S
H1676 C1684 0.950 . S
H1677 C1689 0.950 . S
H1678 C1686 0.950 . S
H1679 C1688 0.950 . S
H1680 C1690 0.950 . S
H1681 C1692 0.950 . S
H1682 C1694 0.950 . S
H1683 C1695 0.950 . S
C1684 H1676 0.950 . S
C1684 C1685 1.386 1_655 S
C1684 C1686 1.391 . S
C1685 C1684 1.386 1_455 S
C1685 C1689 1.393 . S
C1686 H1678 0.950 . S
C1686 C1684 1.391 . S
C1686 C1687 1.400 1_655 S
C1687 C1686 1.400 1_455 S
C1687 C1688 1.398 . S
C1687 C1693 1.491 . S
C1688 H1679 0.950 . S
C1688 C1687 1.398 . S
C1688 C1689 1.391 . S
C1689 H1677 0.950 . S
C1689 C1685 1.393 . S
C1689 C1688 1.391 . S
C1690 H1680 0.950 . S
C1690 C1691 1.379 1_455 S
C1690 C1692 1.391 . S
C1691 C1690 1.379 1_655 S
C1691 C1695 1.405 . S
C1692 H1681 0.950 . S
C1692 C1690 1.391 . S
C1692 C1693 1.400 . S
C1693 C1687 1.491 . S
C1693 C1692 1.400 . S
C1693 C1694 1.398 1_455 S
C1694 H1682 0.950 . S
C1694 C1693 1.398 1_655 S
C1694 C1695 1.391 . S
C1695 H1683 0.950 . S
C1695 C1691 1.405 . S
C1695 C1694 1.391 . S
H1696 C1704 0.950 . S
H1697 C1709 0.950 . S
H1698 C1706 0.950 . S
H1699 C1708 0.950 . S
H1700 C1710 0.950 . S
H1701 C1712 0.950 . S
H1702 C1714 0.950 . S
H1703 C1715 0.950 . S
C1704 H1696 0.950 . S
C1704 C1705 1.386 . S
C1704 C1706 1.391 . S
C1705 C1704 1.386 . S
C1705 C1709 1.393 . S
C1706 H1698 0.950 . S
C1706 C1704 1.391 . S
C1706 C1707 1.400 . S
C1707 C1706 1.400 . S
C1707 C1708 1.398 . S
C1707 C1713 1.491 . S
C1708 H1699 0.950 . S
C1708 C1707 1.398 . S
C1708 C1709 1.391 . S
C1709 H1697 0.950 . S
C1709 C1705 1.393 . S
C1709 C1708 1.391 . S
C1710 H1700 0.950 . S
C1710 C1711 1.386 . S
C1710 C1712 1.391 . S
C1711 C1710 1.386 . S
C1711 C1715 1.393 . S
C1712 H1701 0.950 . S
C1712 C1710 1.391 . S
C1712 C1713 1.400 . S
C1713 C1707 1.491 . S
C1713 C1712 1.400 . S
C1713 C1714 1.398 . S
C1714 H1702 0.950 . S
C1714 C1713 1.398 . S
C1714 C1715 1.391 . S
C1715 H1703 0.950 . S
C1715 C1711 1.393 . S
C1715 C1714 1.391 . S
H1716 C1724 0.950 . S
H1717 C1729 0.950 . S
H1718 C1726 0.950 . S
H1719 C1728 0.950 . S
H1720 C1730 0.950 . S
H1721 C1732 0.950 . S
H1722 C1734 0.950 . S
H1723 C1735 0.950 . S
C1724 H1716 0.950 . S
C1724 C1725 1.386 . S
C1724 C1726 1.391 . S
C1725 C1724 1.386 . S
C1725 C1729 1.393 . S
C1726 H1718 0.950 . S
C1726 C1724 1.391 . S
C1726 C1727 1.400 . S
C1727 C1726 1.400 . S
C1727 C1728 1.398 . S
C1727 C1733 1.491 . S
C1728 H1719 0.950 . S
C1728 C1727 1.398 . S
C1728 C1729 1.391 . S
C1729 H1717 0.950 . S
C1729 C1725 1.393 . S
C1729 C1728 1.391 . S
C1730 H1720 0.950 . S
C1730 C1731 1.386 . S
C1730 C1732 1.391 . S
C1731 C1730 1.386 . S
C1731 C1735 1.393 . S
C1732 H1721 0.950 . S
C1732 C1730 1.391 . S
C1732 C1733 1.400 . S
C1733 C1727 1.491 . S
C1733 C1732 1.400 . S
C1733 C1734 1.398 . S
C1734 H1722 0.950 . S
C1734 C1733 1.398 . S
C1734 C1735 1.391 . S
C1735 H1723 0.950 . S
C1735 C1731 1.393 . S
C1735 C1734 1.391 . S
H1736 C1744 0.950 . S
H1737 C1749 0.950 . S
H1738 C1746 0.950 . S
H1739 C1748 0.950 . S
H1740 C1750 0.950 . S
H1741 C1752 0.950 . S
H1742 C1754 0.950 . S
H1743 C1755 0.950 . S
C1744 H1736 0.950 . S
C1744 C1745 1.386 . S
C1744 C1746 1.391 . S
C1745 C1744 1.386 . S
C1745 C1749 1.393 . S
C1746 H1738 0.950 . S
C1746 C1744 1.391 . S
C1746 C1747 1.400 . S
C1747 C1746 1.400 . S
C1747 C1748 1.398 . S
C1747 C1753 1.491 . S
C1748 H1739 0.950 . S
C1748 C1747 1.398 . S
C1748 C1749 1.391 . S
C1749 H1737 0.950 . S
C1749 C1745 1.393 . S
C1749 C1748 1.391 . S
C1750 H1740 0.950 . S
C1750 C1751 1.386 . S
C1750 C1752 1.391 . S
C1751 C1750 1.386 . S
C1751 C1755 1.393 . S
C1752 H1741 0.950 . S
C1752 C1750 1.391 . S
C1752 C1753 1.400 . S
C1753 C1747 1.491 . S
C1753 C1752 1.400 . S
C1753 C1754 1.398 . S
C1754 H1742 0.950 . S
C1754 C1753 1.398 . S
C1754 C1755 1.391 . S
C1755 H1743 0.950 . S
C1755 C1751 1.393 . S
C1755 C1754 1.391 . S
H1756 C1764 0.950 . S
H1757 C1769 0.950 . S
H1758 C1766 0.950 . S
H1759 C1768 0.950 . S
H1760 C1770 0.950 . S
H1761 C1772 0.950 . S
H1762 C1774 0.950 . S
H1763 C1775 0.950 . S
C1764 H1756 0.950 . S
C1764 C1765 1.386 . S
C1764 C1766 1.391 . S
C1765 C1764 1.386 . S
C1765 C1769 1.393 . S
C1766 H1758 0.950 . S
C1766 C1764 1.391 . S
C1766 C1767 1.400 . S
C1767 C1766 1.400 . S
C1767 C1768 1.398 . S
C1767 C1773 1.491 . S
C1768 H1759 0.950 . S
C1768 C1767 1.398 . S
C1768 C1769 1.391 . S
C1769 H1757 0.950 . S
C1769 C1765 1.393 . S
C1769 C1768 1.391 . S
C1770 H1760 0.950 . S
C1770 C1771 1.386 . S
C1770 C1772 1.391 . S
C1771 C1770 1.386 . S
C1771 C1775 1.393 . S
C1772 H1761 0.950 . S
C1772 C1770 1.391 . S
C1772 C1773 1.400 . S
C1773 C1767 1.491 . S
C1773 C1772 1.400 . S
C1773 C1774 1.398 . S
C1774 H1762 0.950 . S
C1774 C1773 1.398 . S
C1774 C1775 1.391 . S
C1775 H1763 0.950 . S
C1775 C1771 1.393 . S
C1775 C1774 1.391 . S
H1776 C1784 0.950 . S
H1777 C1789 0.950 . S
H1778 C1786 0.950 . S
H1779 C1788 0.950 . S
H1780 C1790 0.950 . S
H1781 C1792 0.950 . S
H1782 C1794 0.950 . S
H1783 C1795 0.950 . S
C1784 H1776 0.950 . S
C1784 C1785 1.386 . S
C1784 C1786 1.391 . S
C1785 C1784 1.386 . S
C1785 C1789 1.393 1_545 S
C1786 H1778 0.950 . S
C1786 C1784 1.391 . S
C1786 C1787 1.400 . S
C1787 C1786 1.400 . S
C1787 C1788 1.398 1_545 S
C1787 C1793 1.491 . S
C1788 H1779 0.950 . S
C1788 C1787 1.398 1_565 S
C1788 C1789 1.391 . S
C1789 H1777 0.950 . S
C1789 C1785 1.393 1_565 S
C1789 C1788 1.391 . S
C1790 H1780 0.950 . S
C1790 C1791 1.386 1_565 S
C1790 C1792 1.391 . S
C1791 C1790 1.386 1_545 S
C1791 C1795 1.393 . S
C1792 H1781 0.950 . S
C1792 C1790 1.391 . S
C1792 C1793 1.400 1_565 S
C1793 C1787 1.491 . S
C1793 C1792 1.400 1_545 S
C1793 C1794 1.398 . S
C1794 H1782 0.950 . S
C1794 C1793 1.398 . S
C1794 C1795 1.391 . S
C1795 H1783 0.950 . S
C1795 C1791 1.393 . S
C1795 C1794 1.391 . S
H1796 C1804 0.950 . S
H1797 C1809 0.950 . S
H1798 C1806 0.950 . S
H1799 C1808 0.950 . S
H1800 C1810 0.950 . S
H1801 C1812 0.950 . S
H1802 C1814 0.950 . S
H1803 C1815 0.950 . S
C1804 H1796 0.950 . S
C1804 C1805 1.386 1_455 S
C1804 C1806 1.391 . S
C1805 C1804 1.386 1_655 S
C1805 C1809 1.393 . S
C1806 H1798 0.950 . S
C1806 C1804 1.391 . S
C1806 C1807 1.400 1_455 S
C1807 C1806 1.400 1_655 S
C1807 C1808 1.398 . S
C1807 C1813 1.491 . S
C1808 H1799 0.950 . S
C1808 C1807 1.398 . S
C1808 C1809 1.391 . S
C1809 H1797 0.950 . S
C1809 C1805 1.393 . S
C1809 C1808 1.391 . S
C1810 H1800 0.950 . S
C1810 C1811 1.386 . S
C1810 C1812 1.391 . S
C1811 C1810 1.386 . S
C1811 C1815 1.393 1_655 S
C1812 H1801 0.950 . S
C1812 C1810 1.391 . S
C1812 C1813 1.400 . S
C1813 C1807 1.491 . S
C1813 C1812 1.400 . S
C1813 C1814 1.398 1_655 S
C1814 H1802 0.950 . S
C1814 C1813 1.398 1_455 S
C1814 C1815 1.391 . S
C1815 H1803 0.950 . S
C1815 C1811 1.393 1_455 S
C1815 C1814 1.391 . S
H1816 C1824 0.950 . S
H1817 C1829 0.950 . S
H1818 C1826 0.950 . S
H1819 C1828 0.950 . S
H1820 C1830 0.950 . S
H1821 C1832 0.950 . S
H1822 C1834 0.950 . S
H1823 C1835 0.950 . S
C1824 H1816 0.950 . S
C1824 C1825 1.386 . S
C1824 C1826 1.391 . S
C1825 C1824 1.386 . S
C1825 C1829 1.393 . S
C1826 H1818 0.950 . S
C1826 C1824 1.391 . S
C1826 C1827 1.400 . S
C1827 C1826 1.400 . S
C1827 C1828 1.398 . S
C1827 C1833 1.491 . S
C1828 H1819 0.950 . S
C1828 C1827 1.398 . S
C1828 C1829 1.391 . S
C1829 H1817 0.950 . S
C1829 C1825 1.393 . S
C1829 C1828 1.391 . S
C1830 H1820 0.950 . S
C1830 C1831 1.386 . S
C1830 C1832 1.391 . S
C1831 C1830 1.386 . S
C1831 C1835 1.393 . S
C1832 H1821 0.950 . S
C1832 C1830 1.391 . S
C1832 C1833 1.400 . S
C1833 C1827 1.491 . S
C1833 C1832 1.400 . S
C1833 C1834 1.398 . S
C1834 H1822 0.950 . S
C1834 C1833 1.398 . S
C1834 C1835 1.391 . S
C1835 H1823 0.950 . S
C1835 C1831 1.393 . S
C1835 C1834 1.391 . S
H1836 C1844 0.950 . S
H1837 C1849 0.950 . S
H1838 C1846 0.950 . S
H1839 C1848 0.950 . S
H1840 C1850 0.950 . S
H1841 C1852 0.950 . S
H1842 C1854 0.950 . S
H1843 C1855 0.950 . S
C1844 H1836 0.950 . S
C1844 C1845 1.386 . S
C1844 C1846 1.391 . S
C1845 C1844 1.386 . S
C1845 C1849 1.393 . S
C1846 H1838 0.950 . S
C1846 C1844 1.391 . S
C1846 C1847 1.400 . S
C1847 C1846 1.400 . S
C1847 C1848 1.398 . S
C1847 C1853 1.491 . S
C1848 H1839 0.950 . S
C1848 C1847 1.398 . S
C1848 C1849 1.391 . S
C1849 H1837 0.950 . S
C1849 C1845 1.393 . S
C1849 C1848 1.391 . S
C1850 H1840 0.950 . S
C1850 C1851 1.386 . S
C1850 C1852 1.391 . S
C1851 C1850 1.386 . S
C1851 C1855 1.393 . S
C1852 H1841 0.950 . S
C1852 C1850 1.391 . S
C1852 C1853 1.400 . S
C1853 C1847 1.491 . S
C1853 C1852 1.400 . S
C1853 C1854 1.398 . S
C1854 H1842 0.950 . S
C1854 C1853 1.398 . S
C1854 C1855 1.391 . S
C1855 H1843 0.950 . S
C1855 C1851 1.393 . S
C1855 C1854 1.391 . S
H1856 C1864 0.950 . S
H1857 C1869 0.950 . S
H1858 C1866 0.950 . S
H1859 C1868 0.950 . S
H1860 C1870 0.950 . S
H1861 C1872 0.950 . S
H1862 C1874 0.950 . S
H1863 C1875 0.950 . S
C1864 H1856 0.950 . S
C1864 C1865 1.386 . S
C1864 C1866 1.391 . S
C1865 C1864 1.386 . S
C1865 C1869 1.393 . S
C1866 H1858 0.950 . S
C1866 C1864 1.391 . S
C1866 C1867 1.400 . S
C1867 C1866 1.400 . S
C1867 C1868 1.398 . S
C1867 C1873 1.491 . S
C1868 H1859 0.950 . S
C1868 C1867 1.398 . S
C1868 C1869 1.391 . S
C1869 H1857 0.950 . S
C1869 C1865 1.393 . S
C1869 C1868 1.391 . S
C1870 H1860 0.950 . S
C1870 C1871 1.386 . S
C1870 C1872 1.391 . S
C1871 C1870 1.386 . S
C1871 C1875 1.393 . S
C1872 H1861 0.950 . S
C1872 C1870 1.391 . S
C1872 C1873 1.400 . S
C1873 C1867 1.491 . S
C1873 C1872 1.400 . S
C1873 C1874 1.398 . S
C1874 H1862 0.950 . S
C1874 C1873 1.398 . S
C1874 C1875 1.391 . S
C1875 H1863 0.950 . S
C1875 C1871 1.393 . S
C1875 C1874 1.391 . S
H1876 C1884 0.950 . S
H1877 C1889 0.950 . S
H1878 C1886 0.950 . S
H1879 C1888 0.950 . S
H1880 C1890 0.950 . S
H1881 C1892 0.950 . S
H1882 C1894 0.950 . S
H1883 C1895 0.950 . S
C1884 H1876 0.950 . S
C1884 C1885 1.386 . S
C1884 C1886 1.391 . S
C1885 C1884 1.386 . S
C1885 C1889 1.393 . S
C1886 H1878 0.950 . S
C1886 C1884 1.391 . S
C1886 C1887 1.400 . S
C1887 C1886 1.400 . S
C1887 C1888 1.398 . S
C1887 C1893 1.491 . S
C1888 H1879 0.950 . S
C1888 C1887 1.398 . S
C1888 C1889 1.391 . S
C1889 H1877 0.950 . S
C1889 C1885 1.393 . S
C1889 C1888 1.391 . S
C1890 H1880 0.950 . S
C1890 C1891 1.386 . S
C1890 C1892 1.391 . S
C1891 C1890 1.386 . S
C1891 C1895 1.393 . S
C1892 H1881 0.950 . S
C1892 C1890 1.391 . S
C1892 C1893 1.400 . S
C1893 C1887 1.491 . S
C1893 C1892 1.400 . S
C1893 C1894 1.398 . S
C1894 H1882 0.950 . S
C1894 C1893 1.398 . S
C1894 C1895 1.391 . S
C1895 H1883 0.950 . S
C1895 C1891 1.393 . S
C1895 C1894 1.391 . S
H1896 C1904 0.950 . S
H1897 C1909 0.950 . S
H1898 C1906 0.950 . S
H1899 C1908 0.950 . S
H1900 C1910 0.950 . S
H1901 C1912 0.950 . S
H1902 C1914 0.950 . S
H1903 C1915 0.950 . S
C1904 H1896 0.950 . S
C1904 C1905 1.386 . S
C1904 C1906 1.391 . S
C1905 C1904 1.386 . S
C1905 C1909 1.393 . S
C1906 H1898 0.950 . S
C1906 C1904 1.391 . S
C1906 C1907 1.400 . S
C1907 C1906 1.400 . S
C1907 C1908 1.398 . S
C1907 C1913 1.491 . S
C1908 H1899 0.950 . S
C1908 C1907 1.398 . S
C1908 C1909 1.391 . S
C1909 H1897 0.950 . S
C1909 C1905 1.393 . S
C1909 C1908 1.391 . S
C1910 H1900 0.950 . S
C1910 C1911 1.386 . S
C1910 C1912 1.391 . S
C1911 C1910 1.386 . S
C1911 C1915 1.393 . S
C1912 H1901 0.950 . S
C1912 C1910 1.391 . S
C1912 C1913 1.400 . S
C1913 C1907 1.491 . S
C1913 C1912 1.400 . S
C1913 C1914 1.398 . S
C1914 H1902 0.950 . S
C1914 C1913 1.398 . S
C1914 C1915 1.391 . S
C1915 H1903 0.950 . S
C1915 C1911 1.393 . S
C1915 C1914 1.391 . S
H1916 C1924 0.950 . S
H1917 C1929 0.950 . S
H1918 C1926 0.950 . S
H1919 C1928 0.950 . S
H1920 C1930 0.950 . S
H1921 C1932 0.950 . S
H1922 C1934 0.950 . S
H1923 C1935 0.950 . S
C1924 H1916 0.950 . S
C1924 C1925 1.386 . S
C1924 C1926 1.391 . S
C1925 C1924 1.386 . S
C1925 C1929 1.393 . S
C1926 H1918 0.950 . S
C1926 C1924 1.391 . S
C1926 C1927 1.400 . S
C1927 C1926 1.400 . S
C1927 C1928 1.398 . S
C1927 C1933 1.491 . S
C1928 H1919 0.950 . S
C1928 C1927 1.398 . S
C1928 C1929 1.391 . S
C1929 H1917 0.950 . S
C1929 C1925 1.393 . S
C1929 C1928 1.391 . S
C1930 H1920 0.950 . S
C1930 C1931 1.386 . S
C1930 C1932 1.391 . S
C1931 C1930 1.386 . S
C1931 C1935 1.393 . S
C1932 H1921 0.950 . S
C1932 C1930 1.391 . S
C1932 C1933 1.400 . S
C1933 C1927 1.491 . S
C1933 C1932 1.400 . S
C1933 C1934 1.398 . S
C1934 H1922 0.950 . S
C1934 C1933 1.398 . S
C1934 C1935 1.391 . S
C1935 H1923 0.950 . S
C1935 C1931 1.393 . S
C1935 C1934 1.391 . S
H1936 C1944 0.950 . S
H1937 C1949 0.950 . S
H1938 C1946 0.950 . S
H1939 C1948 0.950 . S
H1940 C1950 0.950 . S
H1941 C1952 0.950 . S
H1942 C1954 0.950 . S
H1943 C1955 0.950 . S
C1944 H1936 0.950 . S
C1944 C1945 1.386 . S
C1944 C1946 1.391 . S
C1945 C1944 1.386 . S
C1945 C1949 1.393 . S
C1946 H1938 0.950 . S
C1946 C1944 1.391 . S
C1946 C1947 1.400 . S
C1947 C1946 1.400 . S
C1947 C1948 1.398 . S
C1947 C1953 1.491 . S
C1948 H1939 0.950 . S
C1948 C1947 1.398 . S
C1948 C1949 1.391 . S
C1949 H1937 0.950 . S
C1949 C1945 1.393 . S
C1949 C1948 1.391 . S
C1950 H1940 0.950 . S
C1950 C1951 1.386 . S
C1950 C1952 1.391 . S
C1951 C1950 1.386 . S
C1951 C1955 1.393 . S
C1952 H1941 0.950 . S
C1952 C1950 1.391 . S
C1952 C1953 1.400 . S
C1953 C1947 1.491 . S
C1953 C1952 1.400 . S
C1953 C1954 1.398 . S
C1954 H1942 0.950 . S
C1954 C1953 1.398 . S
C1954 C1955 1.391 . S
C1955 H1943 0.950 . S
C1955 C1951 1.393 . S
C1955 C1954 1.391 . S
H1956 C1964 0.950 . S
H1957 C1969 0.949 . S
H1958 C1966 0.950 . S
H1959 C1968 0.950 . S
H1960 C1970 0.950 . S
H1961 C1972 0.950 . S
H1962 C1974 0.950 . S
H1963 C1975 0.950 . S
C1964 H1956 0.950 . S
C1964 C1965 1.386 . S
C1964 C1966 1.391 . S
C1965 C1964 1.386 . S
C1965 C1969 1.390 1_655 S
C1966 H1958 0.950 . S
C1966 C1964 1.391 . S
C1966 C1967 1.400 . S
C1967 C1966 1.400 . S
C1967 C1968 1.398 1_655 S
C1967 C1973 1.491 . S
C1968 H1959 0.950 . S
C1968 C1967 1.398 1_455 S
C1968 C1969 1.394 . S
C1969 H1957 0.949 . S
C1969 C1965 1.390 1_455 S
C1969 C1968 1.394 . S
C1970 H1960 0.950 . S
C1970 C1971 1.386 1_455 S
C1970 C1972 1.391 . S
C1971 C1970 1.386 1_655 S
C1971 C1975 1.393 . S
C1972 H1961 0.950 . S
C1972 C1970 1.391 . S
C1972 C1973 1.400 1_455 S
C1973 C1967 1.491 . S
C1973 C1972 1.400 1_655 S
C1973 C1974 1.398 . S
C1974 H1962 0.950 . S
C1974 C1973 1.398 . S
C1974 C1975 1.391 . S
C1975 H1963 0.950 . S
C1975 C1971 1.393 . S
C1975 C1974 1.391 . S
H1976 C1984 0.950 . S
H1977 C1989 0.950 . S
H1978 C1986 0.950 . S
H1979 C1988 0.950 . S
H1980 C1990 0.950 . S
H1981 C1992 0.950 . S
H1982 C1994 0.950 . S
H1983 C1995 0.950 . S
C1984 H1976 0.950 . S
C1984 C1985 1.386 . S
C1984 C1986 1.391 . S
C1985 C1984 1.386 . S
C1985 C1989 1.393 . S
C1986 H1978 0.950 . S
C1986 C1984 1.391 . S
C1986 C1987 1.400 . S
C1987 C1986 1.400 . S
C1987 C1988 1.398 . S
C1987 C1993 1.491 . S
C1988 H1979 0.950 . S
C1988 C1987 1.398 . S
C1988 C1989 1.391 . S
C1989 H1977 0.950 . S
C1989 C1985 1.393 . S
C1989 C1988 1.391 . S
C1990 H1980 0.950 . S
C1990 C1991 1.386 . S
C1990 C1992 1.391 . S
C1991 C1990 1.386 . S
C1991 C1995 1.393 . S
C1992 H1981 0.950 . S
C1992 C1990 1.391 . S
C1992 C1993 1.400 . S
C1993 C1987 1.491 . S
C1993 C1992 1.400 . S
C1993 C1994 1.398 . S
C1994 H1982 0.950 . S
C1994 C1993 1.398 . S
C1994 C1995 1.391 . S
C1995 H1983 0.950 . S
C1995 C1991 1.393 . S
C1995 C1994 1.391 . S
H1996 C2004 0.950 . S
H1997 C2009 0.934 1_565 S
H1998 C2006 0.950 . S
H1999 C2008 0.950 1_565 S
H2000 C2010 0.950 . S
H2001 C2012 0.950 . S
H2002 C2014 0.950 . S
H2003 C2015 0.950 . S
C2004 H1996 0.950 . S
C2004 C2005 1.386 . S
C2004 C2006 1.391 . S
C2005 C2004 1.386 . S
C2005 C2009 1.393 . S
C2006 H1998 0.950 . S
C2006 C2004 1.391 . S
C2006 C2007 1.400 . S
C2007 C2006 1.400 . S
C2007 C2008 1.398 . S
C2007 C2013 1.491 . S
C2008 H1999 0.950 1_545 S
C2008 C2007 1.398 . S
C2008 C2009 1.391 . S
C2009 H1997 0.934 1_545 S
C2009 C2005 1.393 . S
C2009 C2008 1.391 . S
C2010 H2000 0.950 . S
C2010 C2011 1.390 . S
C2010 C2012 1.391 . S
C2011 C2010 1.390 . S
C2011 C2015 1.394 1_565 S
C2012 H2001 0.950 . S
C2012 C2010 1.391 . S
C2012 C2013 1.400 1_565 S
C2013 C2007 1.491 . S
C2013 C2012 1.400 1_545 S
C2013 C2014 1.398 . S
C2014 H2002 0.950 . S
C2014 C2013 1.398 . S
C2014 C2015 1.391 . S
C2015 H2003 0.950 . S
C2015 C2011 1.394 1_545 S
C2015 C2014 1.391 . S
C585 C8 1.536 . S
C591 C421 1.523 . S
C605 C22 1.553 . S
C611 C446 1.526 . S
C631 C457 1.522 . S
C625 C37 1.524 . S
C645 C36 1.544 1_565 S
C651 C482 1.528 . S
C665 C9 1.557 1_455 S
C671 C500 1.532 . S
C685 C23 1.554 . S
C691 C511 1.534 . S
C705 C50 1.537 . S
C711 C493 1.515 . S
C731 C518 1.512 . S
C725 C64 1.530 . S
C751 C475 1.518 . S
C745 C79 1.521 . S
C765 C78 1.520 . S
C771 C464 1.522 . S
C791 C428 1.521 . S
C785 C51 1.519 . S
C805 C65 1.535 . S
C811 C439 1.529 . S
C825 C92 1.546 . S
C831 C529 1.535 . S
C845 C106 1.548 . S
C851 C554 1.545 . S
C871 C565 1.519 . S
C865 C121 1.551 . S
C885 C120 1.555 . S
C891 C266 1.539 . S
C905 C93 1.544 . S
C911 C284 1.540 . S
C925 C107 1.551 . S
C931 C295 1.539 . S
C945 C134 1.524 . S
C951 C277 1.525 . S
C965 C148 1.533 . S
C971 C302 1.514 . S
C991 C259 1.511 . S
C985 C163 1.528 . S
C1011 C572 1.534 . S
C1005 C162 1.530 . S
C1031 C536 1.529 . S
C1025 C135 1.526 . S
C1051 C547 1.527 . S
C1045 C149 1.542 . S
C1065 C176 1.541 . S
C1071 C313 1.529 . S
C1085 C190 1.558 . S
C1091 C338 1.534 . S
C1105 C205 1.557 . S
C1111 C349 1.528 . S
C1125 C204 1.559 . S
C1131 C374 1.533 . S
C1151 C392 1.527 . S
C1145 C177 1.555 . S
C1171 C403 1.523 . S
C1165 C191 1.560 . S
C1191 C385 1.524 . S
C1185 C218 1.541 . S
C1211 C410 1.534 . S
C1205 C232 1.538 . S
C1225 C247 1.523 . S
C1231 C367 1.518 . S
C1251 C356 1.520 . S
C1245 C246 1.520 . S
C1265 C219 1.538 . S
C1271 C320 1.521 . S
C1291 C331 1.524 . S
C1285 C233 1.524 . S
C1311 C268 1.458 . S
C1305 C6 1.488 . S
C1325 C20 1.475 . S
C1331 C286 1.458 . S
C1351 C296 1.456 . S
C1345 C35 1.485 . S
C1371 C314 1.450 . S
C1365 C34 1.483 . S
C1391 C340 1.461 . S
C1385 C7 1.477 . S
C1411 C350 1.460 . S
C1405 C21 1.469 . S
C1425 C48 1.501 . S
C1431 C358 1.463 . S
C1445 C62 1.476 . S
C1451 C322 1.442 . S
C1465 C77 1.493 . S
C1471 C332 1.445 . S
C1485 C76 1.477 . S
C1491 C278 1.459 . S
C1511 C304 1.460 . S
C1505 C49 1.495 . S
C1525 C63 1.478 . S
C1531 C260 1.460 . S
C1551 C376 1.438 . S
C1545 C90 1.476 . S
C1565 C104 1.477 . S
C1571 C394 1.462 . S
C1585 C119 1.468 . S
C1591 C404 1.441 . S
C1611 C422 1.442 . S
C1605 C118 1.454 . S
C1625 C91 1.464 . S
C1631 C448 1.439 . S
C1645 C105 1.482 . S
C1651 C458 1.452 . S
C1665 C132 1.476 . S
C1671 C466 1.452 1_545 S
C1685 C146 1.478 . S
C1691 C430 1.448 1_655 S
C1711 C440 1.448 . S
C1705 C161 1.479 . S
C1725 C160 1.488 . S
C1731 C386 1.442 . S
C1745 C133 1.487 . S
C1751 C412 1.465 . S
C1771 C368 1.468 . S
C1765 C147 1.484 . S
C1791 C484 1.456 . S
C1785 C174 1.466 . S
C1805 C188 1.462 . S
C1811 C502 1.437 . S
C1825 C203 1.468 . S
C1831 C512 1.459 . S
C1851 C530 1.436 . S
C1845 C202 1.467 . S
C1871 C556 1.457 . S
C1865 C175 1.472 . S
C1885 C189 1.466 . S
C1891 C566 1.446 . S
C1905 C216 1.482 . S
C1911 C574 1.445 . S
C1925 C230 1.490 . S
C1931 C538 1.437 . S
C1951 C548 1.448 . S
C1945 C245 1.494 . S
C1971 C494 1.422 1_655 S
C1965 C244 1.484 . S
C1991 C520 1.456 . S
C1985 C217 1.480 . S
C2005 C231 1.474 . S
C2011 C476 1.469 . S
