# Generated by pormake.
# Topology zzz, (3,6)-cn, num edge types: 1
# Building blocks:
#     Node 0, Type 0, BuildingBlock: MIDCAF_clean_linker_0, # of connection points: 3
#     Node 1, Type 0, BuildingBlock: MIDCAF_clean_linker_0, # of connection points: 3
#     Node 2, Type 0, BuildingBlock: MIDCAF_clean_linker_0, # of connection points: 3
#     Node 3, Type 0, BuildingBlock: MIDCAF_clean_linker_0, # of connection points: 3
#     Node 4, Type 0, BuildingBlock: MIDCAF_clean_linker_0, # of connection points: 3
#     Node 5, Type 0, BuildingBlock: MIDCAF_clean_linker_0, # of connection points: 3
#     Node 6, Type 0, BuildingBlock: MIDCAF_clean_linker_0, # of connection points: 3
#     Node 7, Type 0, BuildingBlock: MIDCAF_clean_linker_0, # of connection points: 3
#     Node 8, Type 1, BuildingBlock: BETGAK_clean_sbu_0, # of connection points: 6
#     Node 9, Type 1, BuildingBlock: BETGAK_clean_sbu_0, # of connection points: 6
#     Node 10, Type 1, BuildingBlock: BETGAK_clean_sbu_0, # of connection points: 6
#     Node 11, Type 1, BuildingBlock: BETGAK_clean_sbu_0, # of connection points: 6
#     Edge 12, Type (0, 1), BuildingBlock: AJUNOK_clean_linker_0, # of connection points: 2
#     Edge 13, Type (0, 1), BuildingBlock: AJUNOK_clean_linker_0, # of connection points: 2
#     Edge 14, Type (0, 1), BuildingBlock: AJUNOK_clean_linker_0, # of connection points: 2
#     Edge 15, Type (0, 1), BuildingBlock: AJUNOK_clean_linker_0, # of connection points: 2
#     Edge 16, Type (0, 1), BuildingBlock: AJUNOK_clean_linker_0, # of connection points: 2
#     Edge 17, Type (0, 1), BuildingBlock: AJUNOK_clean_linker_0, # of connection points: 2
#     Edge 18, Type (0, 1), BuildingBlock: AJUNOK_clean_linker_0, # of connection points: 2
#     Edge 19, Type (0, 1), BuildingBlock: AJUNOK_clean_linker_0, # of connection points: 2
#     Edge 20, Type (0, 1), BuildingBlock: AJUNOK_clean_linker_0, # of connection points: 2
#     Edge 21, Type (0, 1), BuildingBlock: AJUNOK_clean_linker_0, # of connection points: 2
#     Edge 22, Type (0, 1), BuildingBlock: AJUNOK_clean_linker_0, # of connection points: 2
#     Edge 23, Type (0, 1), BuildingBlock: AJUNOK_clean_linker_0, # of connection points: 2
#     Edge 24, Type (0, 1), BuildingBlock: AJUNOK_clean_linker_0, # of connection points: 2
#     Edge 25, Type (0, 1), BuildingBlock: AJUNOK_clean_linker_0, # of connection points: 2
#     Edge 26, Type (0, 1), BuildingBlock: AJUNOK_clean_linker_0, # of connection points: 2
#     Edge 27, Type (0, 1), BuildingBlock: AJUNOK_clean_linker_0, # of connection points: 2
#     Edge 28, Type (0, 1), BuildingBlock: AJUNOK_clean_linker_0, # of connection points: 2
#     Edge 29, Type (0, 1), BuildingBlock: AJUNOK_clean_linker_0, # of connection points: 2
#     Edge 30, Type (0, 1), BuildingBlock: AJUNOK_clean_linker_0, # of connection points: 2
#     Edge 31, Type (0, 1), BuildingBlock: AJUNOK_clean_linker_0, # of connection points: 2
#     Edge 32, Type (0, 1), BuildingBlock: AJUNOK_clean_linker_0, # of connection points: 2
#     Edge 33, Type (0, 1), BuildingBlock: AJUNOK_clean_linker_0, # of connection points: 2
#     Edge 34, Type (0, 1), BuildingBlock: AJUNOK_clean_linker_0, # of connection points: 2
#     Edge 35, Type (0, 1), BuildingBlock: AJUNOK_clean_linker_0, # of connection points: 2
# Relax obj value: 0.512
# Max RMSD: 0.264
# Mean RMSD: 0.255
data_MOF--net-zzz--node1-BETGAK_clean_sbu_0--node2-MIDCAF_clean_linker_0--edge1-AJUNOK_clean_linker_0
_symmetry_space_group_name_H-M    P1
_symmetry_Int_Tables_number       1
_symmetry_cell_setting            triclinic
loop_
_symmetry_equiv_pos_as_xyz
'x, y, z'
_cell_length_a     46.401338
_cell_length_b     46.477189
_cell_length_c     14.568974
_cell_angle_alpha  89.954324
_cell_angle_beta   89.754472
_cell_angle_gamma 89.984298
loop_
_atom_site_label
_atom_site_type_symbol
_atom_site_fract_x
_atom_site_fract_y
_atom_site_fract_z
_atom_type_partial_charge
C0 C 0.8267 0.50617 0.43491 0.0
C1 C 0.82872 0.49857 0.52846 0.0
C2 C 0.80347 0.48854 0.57234 0.0
C3 C 0.77792 0.48388 0.52253 0.0
H4 H 0.69881 0.52657 0.22587 0.0
H5 H 0.65764 0.54126 0.13065 0.0
H6 H 0.62763 0.45336 0.12587 0.0
H7 H 0.66748 0.43917 0.22263 0.0
H8 H 0.74977 0.41745 0.1089 0.0
H9 H 0.78731 0.38807 0.04332 0.0
H10 H 0.80754 0.35473 0.31289 0.0
H11 H 0.7714 0.38683 0.37933 0.0
H12 H 0.8012 0.50545 0.31204 0.0
H13 H 0.84551 0.51383 0.39809 0.0
H14 H 0.80368 0.4832 0.64466 0.0
H15 H 0.75979 0.47378 0.5568 0.0
N16 N 0.73093 0.48644 0.33331 0.0
N17 N 0.72228 0.44342 0.25212 0.0
N18 N 0.7625 0.44692 0.34694 0.0
C19 C 0.71385 0.47048 0.27528 0.0
C20 C 0.74628 0.43148 0.28811 0.0
C21 C 0.75528 0.47417 0.37026 0.0
C22 C 0.68683 0.4816 0.23136 0.0
C23 C 0.68304 0.51058 0.20608 0.0
C24 C 0.65961 0.51888 0.15013 0.0
C25 C 0.63943 0.4984 0.11809 0.0
C26 C 0.64248 0.46986 0.14843 0.0
C27 C 0.66565 0.46165 0.20387 0.0
C28 C 0.75847 0.40499 0.24912 0.0
C29 C 0.76133 0.40287 0.15365 0.0
C30 C 0.78288 0.38558 0.11584 0.0
C31 C 0.80129 0.36951 0.17307 0.0
C32 C 0.79443 0.36758 0.26716 0.0
C33 C 0.77367 0.38582 0.30533 0.0
C34 C 0.77656 0.4898 0.42794 0.0
C35 C 0.80108 0.50174 0.38547 0.0
C36 C 0.99683 0.82987 0.4248 0.0
C37 C 0.99987 0.83239 0.52083 0.0
C38 C 1.00673 0.80717 0.57025 0.0
C39 C 1.01186 0.78084 0.52478 0.0
H40 H 0.97557 0.69857 0.23222 0.0
H41 H 0.96188 0.65653 0.13893 0.0
H42 H 0.04866 0.62385 0.16041 0.0
H43 H 0.06176 0.6646 0.2542 0.0
H44 H 0.10066 0.725 0.156 0.0
H45 H 0.12975 0.75632 0.05834 0.0
H46 H 0.12982 0.8207 0.27207 0.0
H47 H 0.10254 0.78908 0.37048 0.0
H48 H 1.00135 0.80312 0.30536 0.0
H49 H 0.99261 0.84867 0.38314 0.0
H50 H 1.00928 0.80799 0.64405 0.0
H51 H 0.01935 0.76258 0.56431 0.0
N52 N 0.01405 0.73107 0.34467 0.0
N53 N 0.05862 0.71971 0.27474 0.0
N54 N 0.05394 0.76204 0.359 0.0
C55 C 0.0308 0.71246 0.29365 0.0
C56 C 0.07035 0.74432 0.30699 0.0
C57 C 0.02613 0.75585 0.379 0.0
C58 C 0.01979 0.68514 0.25136 0.0
C59 C 0.99138 0.68194 0.21929 0.0
C60 C 0.98368 0.65792 0.16494 0.0
C61 C 1.00406 0.63638 0.14231 0.0
C62 C 0.03203 0.63927 0.17773 0.0
C63 C 0.03965 0.66303 0.23128 0.0
C64 C 0.09777 0.75544 0.26864 0.0
C65 C 0.10814 0.74525 0.1838 0.0
C66 C 0.12467 0.76331 0.12744 0.0
C67 C 0.13027 0.79177 0.15489 0.0
C68 C 0.12517 0.79927 0.24709 0.0
C69 C 0.10914 0.78114 0.30372 0.0
C70 C 1.00985 0.77875 0.42865 0.0
C71 C 1.00167 0.80353 0.37973 0.0
C72 C 0.67937 1.00059 0.41409 0.0
C73 C 0.67949 1.00254 0.51066 0.0
C74 C 0.70625 1.00725 0.55391 0.0
C75 C 0.73145 1.01235 0.50204 0.0
H76 H 0.8041 0.98115 0.17131 0.0
H77 H 0.84535 0.96862 0.07151 0.0
H78 H 0.88512 0.05003 0.13523 0.0
H79 H 0.84468 0.06221 0.23407 0.0
H80 H 0.76077 0.09351 0.11254 0.0
H81 H 0.72269 0.12459 0.05995 0.0
H82 H 0.70437 0.14952 0.34016 0.0
H83 H 0.74117 0.11594 0.39294 0.0
H84 H 0.70305 1.00632 0.28831 0.0
H85 H 0.65935 0.99715 0.37779 0.0
H86 H 0.70755 1.00816 0.62802 0.0
H87 H 0.75103 0.01838 0.53742 0.0
N88 N 0.77659 0.01662 0.31127 0.0
N89 N 0.78765 0.06176 0.24544 0.0
N90 N 0.74707 0.05693 0.33932 0.0
C91 C 0.79452 0.03359 0.25865 0.0
C92 C 0.76421 0.07356 0.28611 0.0
C93 C 0.75283 0.02871 0.35283 0.0
C94 C 0.82106 0.02263 0.21133 0.0
C95 C 0.82206 0.99593 0.16586 0.0
C96 C 0.84558 0.98891 0.10796 0.0
C97 C 0.86882 1.0082 0.09565 0.0
C98 C 0.8681 0.03432 0.1441 0.0
C99 C 0.84469 0.04139 0.20065 0.0
C100 C 0.75317 0.10173 0.25671 0.0
C101 C 0.74965 0.10675 0.16261 0.0
C102 C 0.72773 0.12496 0.13237 0.0
C103 C 0.70956 0.13891 0.19611 0.0
C104 C 0.7173 0.13832 0.28944 0.0
C105 C 0.73848 0.11923 0.31984 0.0
C106 C 0.7308 1.01223 0.40555 0.0
C107 C 0.70458 1.0055 0.36247 0.0
C108 C 0.38113 0.70187 0.20896 0.0
C109 C 0.3753 0.70791 0.11622 0.0
C110 C 0.38322 0.73503 0.0811 0.0
C111 C 0.4011 0.75324 0.13197 0.0
H112 H 0.44478 0.83627 0.19942 0.0
H113 H 0.45899 0.87785 0.10956 0.0
H114 H 0.54713 0.84818 0.10924 0.0
H115 H 0.53256 0.80554 0.1986 0.0
H116 H 0.5013 0.69616 0.2678 0.0
H117 H 0.51028 0.65261 0.35591 0.0
H118 H 0.50517 0.70166 0.6071 0.0
H119 H 0.49471 0.74519 0.51746 0.0
H120 H 0.40515 0.71331 0.32786 0.0
H121 H 0.37557 0.68131 0.23907 0.0
H122 H 0.37853 0.7406 1.01051 0.0
H123 H 0.40971 0.7723 0.09901 0.0
N124 N 0.44933 0.78134 0.22484 0.0
N125 N 0.49319 0.77177 0.30072 0.0
N126 N 0.45439 0.73929 0.31045 0.0
C127 C 0.47658 0.78962 0.24704 0.0
C128 C 0.48162 0.74655 0.33357 0.0
C129 C 0.43805 0.75636 0.2565 0.0
C130 C 0.48743 0.8172 0.20595 0.0
C131 C 0.46732 0.83857 0.18123 0.0
C132 C 0.47552 0.86267 0.12977 0.0
C133 C 0.50416 0.8664 0.10048 0.0
C134 C 0.52472 0.84579 0.12877 0.0
C135 C 0.51647 0.8215 0.18113 0.0
C136 C 0.49805 0.72437 0.38526 0.0
C137 C 0.50328 0.69788 0.34169 0.0
C138 C 0.50814 0.67274 0.39269 0.0
C139 C 0.50785 0.67313 0.48942 0.0
C140 C 0.50469 0.70012 0.53302 0.0
C141 C 0.49952 0.72534 0.48159 0.0
C142 C 0.41093 0.74461 0.21888 0.0
C143 C 0.39864 0.72015 0.2599 0.0
C144 C 0.17285 0.51036 0.10287 0.0
C145 C 0.17324 0.51169 1.00625 0.0
C146 C 0.20015 0.5166 0.96296 0.0
C147 C 0.22535 0.52168 0.01497 0.0
H148 H 0.30996 0.48098 0.27457 0.0
H149 H 0.35354 0.46555 0.35666 0.0
H150 H 0.38255 0.55375 0.36679 0.0
H151 H 0.34029 0.56862 0.28183 0.0
H152 H 0.24627 0.63031 0.23675 0.0
H153 H 0.21474 0.66125 0.32896 0.0
H154 H 0.20738 0.5929 0.53047 0.0
H155 H 0.24116 0.56441 0.44405 0.0
H156 H 0.19608 0.51593 0.22848 0.0
H157 H 0.15279 0.50691 0.13953 0.0
H158 H 0.20169 0.51716 0.88884 0.0
H159 H 0.24518 0.52725 0.97971 0.0
N160 N 0.27395 0.5239 0.1848 0.0
N161 N 0.28359 0.56187 0.28775 0.0
N162 N 0.2394 0.56013 0.2124 0.0
C163 C 0.29248 0.53755 0.24438 0.0
C164 C 0.25745 0.5734 0.2712 0.0
C165 C 0.24724 0.53572 0.16792 0.0
C166 C 0.3214 0.52608 0.27184 0.0
C167 C 0.32615 0.49684 0.29167 0.0
C168 C 0.35094 0.48814 0.34063 0.0
C169 C 0.37144 0.50849 0.37155 0.0
C170 C 0.36752 0.53732 0.34506 0.0
C171 C 0.34305 0.5459 0.29616 0.0
C172 C 0.24559 0.59506 0.3335 0.0
C173 C 0.23864 0.62276 0.30289 0.0
C174 C 0.22009 0.64014 0.35502 0.0
C175 C 0.20686 0.6292 0.43517 0.0
C176 C 0.21667 0.60253 0.46954 0.0
C177 C 0.23601 0.58584 0.41957 0.0
C178 C 0.22436 0.52167 0.11155 0.0
C179 C 0.19785 0.51535 0.1543 0.0
C180 C 0.99862 0.18726 0.05094 0.0
C181 C 0.01493 0.17925 0.97286 0.0
C182 C 0.03407 0.19981 0.93608 0.0
C183 C 0.03781 0.22674 0.97813 0.0
H184 H 0.02831 0.35495 0.16621 0.0
H185 H 0.02075 0.3955 0.27213 0.0
H186 H 0.99854 0.33579 0.48758 0.0
H187 H 1.00589 0.29553 0.38178 0.0
H188 H 0.09192 0.2827 0.38424 0.0
H189 H 0.10203 0.24209 0.48357 0.0
H190 H 0.12381 0.19074 0.24662 0.0
H191 H 0.11491 0.23148 0.14819 0.0
H192 H 0.99096 0.21898 0.15639 0.0
H193 H 0.98369 0.1721 0.08155 0.0
H194 H 0.04761 0.19448 0.87783 0.0
H195 H 0.0543 0.24101 0.95141 0.0
N196 N 0.01898 0.27966 0.15553 0.0
N197 N 0.05966 0.29304 0.24264 0.0
N198 N 0.06226 0.25348 0.14489 0.0
C199 C 0.03215 0.29823 0.21591 0.0
C200 C 0.07491 0.27073 0.20767 0.0
C201 C 0.03465 0.25738 0.11813 0.0
C202 C 0.01691 0.32197 0.26471 0.0
C203 C 0.02033 0.35061 0.23481 0.0
C204 C 0.01632 0.37385 0.29589 0.0
C205 C 1.00946 0.36892 0.38885 0.0
C206 C 1.00406 0.34039 0.41674 0.0
C207 C 1.00779 0.31728 0.35565 0.0
C208 C 0.09999 0.25915 0.25808 0.0
C209 C 0.10095 0.26344 0.35356 0.0
C210 C 0.10669 0.24005 0.41093 0.0
C211 C 0.11149 0.21275 0.37215 0.0
C212 C 0.11908 0.21121 0.27878 0.0
C213 C 0.1138 0.23473 0.22174 0.0
C214 C 0.02249 0.23432 0.0582 0.0
C215 C 1.00231 0.21443 0.0929 0.0
C216 C 0.32381 1.00086 0.0565 0.0
C217 C 0.33521 0.01872 0.98659 0.0
C218 C 0.3181 0.04177 0.95605 0.0
C219 C 0.2917 0.04819 0.99873 0.0
H220 H 0.16397 0.06721 0.22883 0.0
H221 H 0.1242 0.05549 0.33336 0.0
H222 H 0.17264 0.98392 0.43953 0.0
H223 H 0.21257 0.99534 0.33315 0.0
H224 H 0.23553 0.10172 0.40723 0.0
H225 H 0.27508 0.10366 0.51531 0.0
H226 H 0.33419 0.12124 0.29348 0.0
H227 H 0.2947 0.12005 0.18561 0.0
H228 H 0.29017 0.99444 0.15723 0.0
H229 H 0.33599 0.98251 0.08071 0.0
H230 H 0.32596 0.05608 0.90284 0.0
H231 H 0.2803 0.06745 0.97782 0.0
N232 N 0.23547 0.0309 0.16897 0.0
N233 N 0.22519 0.07138 0.26146 0.0
N234 N 0.26588 0.0714 0.16741 0.0
C235 C 0.21769 0.04489 0.23023 0.0
C236 C 0.24936 0.08473 0.23122 0.0
C237 C 0.25945 0.04484 0.13547 0.0
C238 C 0.19126 0.03188 0.27129 0.0
C239 C 0.1657 0.04822 0.27166 0.0
C240 C 0.14304 0.04176 0.33222 0.0
C241 C 0.14541 0.01902 0.39505 0.0
C242 C 0.17015 1.00146 0.39123 0.0
C243 C 0.19289 1.00781 0.32975 0.0
C244 C 0.26281 0.10763 0.28723 0.0
C245 C 0.25656 0.10812 0.38183 0.0
C246 C 0.2793 0.10928 0.44434 0.0
C247 C 0.30776 0.11007 0.41103 0.0
C248 C 0.31246 0.11915 0.32032 0.0
C249 C 0.28969 0.11835 0.2581 0.0
C250 C 0.28121 0.03159 0.07261 0.0
C251 C 0.29717 1.00726 0.09913 0.0
C252 C 0.63582 0.30332 0.27054 0.0
C253 C 0.64121 0.29748 0.36371 0.0
C254 C 0.63376 0.27021 0.39854 0.0
C255 C 0.61646 0.25167 0.34698 0.0
H256 H 0.57013 0.16872 0.28251 0.0
H257 H 0.55632 0.1295 0.38329 0.0
H258 H 0.47035 0.16446 0.404 0.0
H259 H 0.48462 0.20468 0.30361 0.0
H260 H 0.52073 0.26055 0.96721 0.0
H261 H 0.50975 0.30393 0.87747 0.0
H262 H 0.50761 0.3537 0.12761 0.0
H263 H 0.51715 0.31028 0.216 0.0
H264 H 0.61245 0.29144 0.15077 0.0
H265 H 0.64111 0.32397 0.24056 0.0
H266 H 0.63821 0.26479 0.46941 0.0
H267 H 0.60802 0.23251 0.37984 0.0
N268 N 0.56761 0.2243 0.25783 0.0
N269 N 0.52326 0.23478 0.18629 0.0
N270 N 0.56297 0.26588 0.1697 0.0
C271 C 0.5399 0.21677 0.23929 0.0
C272 C 0.53529 0.25932 0.14994 0.0
C273 C 0.57932 0.24869 0.22331 0.0
C274 C 0.52858 0.19018 0.28519 0.0
C275 C 0.54809 0.168 0.30736 0.0
C276 C 0.54012 0.14528 0.36526 0.0
C277 C 0.51235 0.14388 0.40387 0.0
C278 C 0.49218 0.16514 0.37761 0.0
C279 C 0.50019 0.18801 0.31881 0.0
C280 C 0.5189 0.28173 0.09909 0.0
C281 C 0.5165 0.28054 1.00298 0.0
C282 C 0.51102 0.30567 0.95141 0.0
C283 C 0.50846 0.3328 0.99454 0.0
C284 C 0.50924 0.33345 0.09122 0.0
C285 C 0.51442 0.3084 0.14241 0.0
C286 C 0.60669 0.26019 0.25985 0.0
C287 C 0.61888 0.28471 0.21891 0.0
La288 La 0.02615 0.99505 0.83257 0.0
La289 La 0.99427 0.01532 0.67652 0.0
C290 C 0.0465 0.96971 0.97049 0.0
C291 C 0.0667 0.9457 0.97939 0.0
C292 C 0.07733 0.93165 0.90093 0.0
C293 C 0.09568 0.90797 0.90984 0.0
C294 C 0.10363 0.89815 0.99734 0.0
C295 C 0.09399 0.91321 0.0754 0.0
C296 C 0.07562 0.93681 0.06643 0.0
C297 C 0.05994 1.01015 0.69226 0.0
C298 C 1.00164 0.94879 0.68554 0.0
C299 C 0.98518 0.04452 0.5345 0.0
C300 C 1.00463 0.06753 0.5029 0.0
C301 C 0.99537 0.09007 0.44651 0.0
C302 C 0.01427 0.11277 0.42567 0.0
C303 C 0.0425 0.11316 0.46163 0.0
C304 C 0.05151 0.09038 0.51724 0.0
C305 C 0.03285 0.06787 0.53687 0.0
C306 C 0.95974 0.99975 0.81449 0.0
C307 C 0.01527 0.06021 0.82638 0.0
O308 O 0.05756 0.99304 0.93512 0.0
O309 O 0.02141 0.96346 0.93474 0.0
O310 O 0.06572 0.01473 0.77748 0.0
O311 O 0.03636 0.99683 0.6885 0.0
O312 O 0.01493 0.9536 0.76481 0.0
O313 O 0.99199 0.97042 0.63549 0.0
O314 O 0.97219 0.04953 0.61269 0.0
O315 O 0.99661 0.01882 0.53294 0.0
O316 O 0.95338 0.99768 0.72794 0.0
O317 O 0.98368 1.01256 0.82052 0.0
O318 O 1.01308 0.05481 0.73761 0.0
O319 O 0.01583 0.03819 0.88353 0.0
H320 H 0.07093 0.93862 0.83301 0.0
H321 H 0.10289 0.89678 0.84872 0.0
H322 H 0.09949 0.90582 0.14369 0.0
H323 H 0.06781 0.94766 0.12748 0.0
H324 H 0.97358 0.0904 0.42021 0.0
H325 H 1.00674 0.13018 0.38252 0.0
H326 H 0.07261 0.09043 0.54865 0.0
H327 H 0.04017 0.05107 0.58169 0.0
La328 La 0.51842 0.02606 0.84108 0.0
La329 La 0.4995 0.99163 0.69059 0.0
C330 C 0.5398 0.04949 0.98117 0.0
C331 C 0.56004 0.07283 1.00265 0.0
C332 C 0.55335 0.09195 0.07408 0.0
C333 C 0.57309 0.11304 0.10034 0.0
C334 C 0.59988 0.11531 0.05554 0.0
C335 C 0.60581 0.0971 0.98066 0.0
C336 C 0.586 0.0761 0.95433 0.0
C337 C 0.50125 0.05737 0.69656 0.0
C338 C 0.56573 1.00294 0.69518 0.0
C339 C 0.47127 0.97702 0.55204 0.0
C340 C 0.44418 0.99036 0.52021 0.0
C341 C 0.41866 0.98734 0.57179 0.0
C342 C 0.39547 1.00587 0.55726 0.0
C343 C 0.39728 0.02767 0.49078 0.0
C344 C 0.42193 0.02943 0.43488 0.0
C345 C 0.4451 1.0108 0.44903 0.0
C346 C 0.51756 0.95951 0.83067 0.0
C347 C 0.45399 1.01198 0.83878 0.0
O348 O 0.51571 0.05762 0.94334 0.0
O349 O 0.55023 0.02608 0.94336 0.0
O350 O 0.49709 0.06406 0.78144 0.0
O351 O 0.5157 0.03449 0.69598 0.0
O352 O 0.56058 0.01604 0.77487 0.0
O353 O 0.54437 0.99206 0.64672 0.0
O354 O 0.47016 0.96294 0.62987 0.0
O355 O 0.49369 0.99399 0.54824 0.0
O356 O 0.52102 0.95335 0.74447 0.0
O357 O 0.50304 0.98252 0.83566 0.0
O358 O 0.45889 1.00934 0.74965 0.0
O359 O 0.47637 0.013 0.89377 0.0
H360 H 0.53322 0.08995 0.11155 0.0
H361 H 0.56802 0.12667 0.15845 0.0
H362 H 0.62652 0.09776 0.94618 0.0
H363 H 0.59144 0.06172 0.89869 0.0
H364 H 0.41716 0.97191 0.62735 0.0
H365 H 0.37669 1.00407 0.60132 0.0
H366 H 0.42356 0.04568 0.38177 0.0
H367 H 0.46444 0.01359 0.40803 0.0
La368 La 0.48665 0.51016 0.80671 0.0
La369 La 0.52727 0.49523 0.67325 0.0
C370 C 0.45659 0.53141 0.93476 0.0
C371 C 0.43467 0.55393 0.94281 0.0
C372 C 0.42485 0.56878 0.86512 0.0
C373 C 0.40554 0.59169 0.87501 0.0
C374 C 0.39573 0.59989 0.96266 0.0
C375 C 0.40457 0.58386 0.03957 0.0
C376 C 0.42387 0.56106 0.0296 0.0
C377 C 0.46127 0.49238 0.65169 0.0
C378 C 0.50837 0.55907 0.66859 0.0
C379 C 0.55727 0.47395 0.5451 0.0
C380 C 0.5791 0.45133 0.53692 0.0
C381 C 0.58869 0.43625 0.61445 0.0
C382 C 0.60795 0.4133 0.60445 0.0
C383 C 0.61796 0.40532 0.51685 0.0
C384 C 0.60934 0.42154 0.44011 0.0
C385 C 0.59008 0.44438 0.45019 0.0
C386 C 0.55247 0.51308 0.82838 0.0
C387 C 0.50585 0.44636 0.81203 0.0
O388 O 0.4491 0.50896 0.887 0.0
O389 O 0.48269 0.53999 0.9145 0.0
O390 O 0.45348 0.48593 0.73413 0.0
O391 O 0.4831 0.50852 0.6578 0.0
O392 O 0.49747 0.55346 0.75092 0.0
O393 O 0.51749 0.53757 0.61727 0.0
O394 O 0.56486 0.49631 0.59309 0.0
O395 O 0.53112 0.46547 0.56521 0.0
O396 O 0.56049 0.51941 0.74605 0.0
O397 O 0.53071 0.49689 0.82201 0.0
O398 O 0.51663 0.45191 0.7295 0.0
O399 O 0.49668 0.46791 0.86309 0.0
H400 H 0.43281 0.56323 0.79739 0.0
H401 H 0.39923 0.60379 0.81475 0.0
H402 H 0.39805 0.59007 0.10824 0.0
H403 H 0.43116 0.54964 0.09011 0.0
H404 H 0.58062 0.44168 0.68215 0.0
H405 H 0.61412 0.40107 0.66456 0.0
H406 H 0.61606 0.41551 0.37147 0.0
H407 H 0.58298 0.45598 0.3898 0.0
La408 La 0.99529 0.48267 0.83212 0.0
La409 La 1.00742 0.52396 0.69798 0.0
C410 C 0.97699 0.45253 0.9644 0.0
C411 C 0.95471 0.43077 0.98174 0.0
C412 C 0.96057 0.40798 0.04203 0.0
C413 C 0.93902 0.38819 0.06469 0.0
C414 C 0.91138 0.39082 0.02656 0.0
C415 C 0.90604 0.41288 0.96278 0.0
C416 C 0.92752 0.43275 0.94083 0.0
C417 C 1.01334 0.45822 0.67588 0.0
C418 C 0.94429 0.50193 0.6975 0.0
C419 C 0.02675 0.55438 0.56821 0.0
C420 C 0.04876 0.57671 0.55707 0.0
C421 C 0.05757 0.59392 0.63109 0.0
C422 C 0.07962 0.61415 0.61922 0.0
C423 C 0.09329 0.61726 0.53338 0.0
C424 C 0.08381 0.6002 0.45942 0.0
C425 C 0.06164 0.58034 0.47109 0.0
C426 C 0.99016 0.54825 0.85595 0.0
C427 C 0.05865 0.5046 0.83087 0.0
O428 O 0.99778 0.44466 0.90956 0.0
O429 O 0.96833 0.47883 0.94765 0.0
O430 O 0.02076 0.45083 0.75774 0.0
O431 O 0.99612 0.47922 0.68307 0.0
O432 O 0.95105 0.49029 0.77781 0.0
O433 O 0.96477 0.51328 0.6462 0.0
O434 O 1.00447 0.56133 0.61829 0.0
O435 O 0.03612 0.52848 0.58672 0.0
O436 O 0.98281 0.55632 0.77467 0.0
O437 O 1.00701 0.52712 0.84655 0.0
O438 O 0.05178 0.5159 0.75028 0.0
O439 O 0.03808 0.49364 0.8828 0.0
H440 H 0.98154 0.40607 0.07397 0.0
H441 H 0.94353 0.37159 0.11488 0.0
H442 H 0.8847 0.41593 0.93448 0.0
H443 H 0.92254 0.45033 0.89496 0.0
H444 H 0.04783 0.59127 0.69831 0.0
H445 H 0.08656 0.62669 0.6777 0.0
H446 H 0.0945 0.60094 0.39328 0.0
H447 H 0.05518 0.56713 0.41346 0.0
C448 C 0.1021 0.99517 0.46993 0.0
C449 C 0.12386 0.01629 0.47129 0.0
C450 C 0.08117 0.99346 0.54065 0.0
C451 C 0.08163 1.01243 0.61627 0.0
H452 H 0.10107 0.98009 0.41339 0.0
H453 H 0.06476 0.97694 0.53667 0.0
S454 S 0.13335 0.07234 0.64954 0.0
N455 N 0.14374 0.05726 0.55226 0.0
N456 N 0.1053 0.05354 0.68572 0.0
C457 C 0.10327 0.03362 0.61784 0.0
C458 C 0.1241 0.03569 0.54527 0.0
C459 C 0.51542 0.09262 0.46311 0.0
C460 C 0.50567 0.12119 0.475 0.0
C461 C 0.51291 0.07189 0.53347 0.0
C462 C 0.50061 0.07871 0.61932 0.0
H463 H 0.52568 0.08633 0.39929 0.0
H464 H 0.52147 0.05054 0.52125 0.0
S465 S 0.47034 0.14976 0.68537 0.0
N466 N 0.48227 0.15467 0.5796 0.0
N467 N 0.47713 0.11578 0.71034 0.0
C468 C 0.48969 0.10679 0.63098 0.0
C469 C 0.49229 0.12794 0.55939 0.0
C470 C 0.42302 0.51386 0.42863 0.0
C471 C 0.39558 0.50077 0.4368 0.0
C472 C 0.44462 0.51012 0.49576 0.0
C473 C 0.43988 0.4931 0.57444 0.0
H474 H 0.4277 0.52769 0.37063 0.0
H475 H 0.46487 0.52144 0.48729 0.0
S476 S 0.37267 0.45281 0.62799 0.0
N477 N 0.36558 0.4693 0.53031 0.0
N478 N 0.40612 0.46165 0.65376 0.0
C479 C 0.41308 0.47888 0.58155 0.0
C480 C 0.39104 0.48282 0.51365 0.0
C481 C 0.99486 0.41807 0.45217 0.0
C482 C 1.01135 0.39262 0.45904 0.0
C483 C 0.99602 0.4397 0.52071 0.0
C484 C 0.01401 0.43692 0.5982 0.0
H485 H 0.98045 0.42096 0.39463 0.0
H486 H 0.98229 0.45842 0.51385 0.0
S487 S 0.064 0.376 0.6427 0.0
N488 N 0.04778 0.36714 0.54619 0.0
N489 N 0.05033 0.40741 0.67281 0.0
C490 C 0.03143 0.41209 0.60332 0.0
C491 C 0.03 0.3901 0.53454 0.0
C492 C 0.88668 0.99416 0.93726 0.0
C493 C 0.89285 1.0025 0.02812 0.0
C494 C 0.9085 0.99243 0.8696 0.0
C495 C 0.93752 0.99891 0.88964 0.0
H496 H 0.86462 0.99006 0.91718 0.0
H497 H 0.90238 0.98677 0.80028 0.0
S498 S 0.96582 0.01819 0.11953 0.0
N499 N 0.93076 0.01465 0.13605 0.0
N500 N 0.97145 1.01148 1.00964 0.0
C501 C 0.94418 1.00587 0.98121 0.0
C502 C 0.92199 1.00768 0.05001 0.0
C503 C 0.49993 0.91869 0.05229 0.0
C504 C 0.51148 0.89097 0.03679 0.0
C505 C 0.5031 0.94109 0.98761 0.0
C506 C 0.51783 0.93681 0.90395 0.0
H507 H 0.4877 0.92298 0.11428 0.0
H508 H 0.49304 0.96163 1.00208 0.0
S509 S 0.55362 0.86901 0.83111 0.0
N510 N 0.53933 0.86114 0.93202 0.0
N511 N 0.54559 0.90308 0.81176 0.0
C512 C 0.53054 0.90963 0.88921 0.0
C513 C 0.52734 0.88682 0.95512 0.0
C514 C 0.5884 0.49348 0.05677 0.0
C515 C 0.61624 0.5057 0.04924 0.0
C516 C 0.5675 0.49689 0.98733 0.0
C517 C 0.5734 0.51268 0.90685 0.0
H518 H 0.58283 0.48062 0.11625 0.0
H519 H 0.54686 0.48632 0.9957 0.0
S520 S 0.64224 0.55018 0.85365 0.0
N521 N 0.64797 0.53494 0.9543 0.0
N522 N 0.60879 0.54193 0.82603 0.0
C523 C 0.60067 0.52599 0.9 0.0
C524 C 0.62199 0.5224 0.9704 0.0
C525 C 0.98274 0.61813 0.99342 0.0
C526 C 0.99736 0.61232 0.07604 0.0
C527 C 0.97957 0.597 0.9247 0.0
C528 C 0.99092 0.569 0.93492 0.0
H529 H 0.9747 0.63958 0.9798 0.0
H530 H 0.96892 0.60306 0.86156 0.0
S531 S 0.02779 0.54126 0.1425 0.0
N532 N 0.0207 0.57521 0.16742 0.0
N533 N 0.01521 0.53597 0.038 0.0
C534 C 1.00435 0.56243 0.01881 0.0
C535 C 1.00748 0.58391 0.0891 0.0
C536 C 0.06824 0.19011 0.44199 0.0
C537 C 0.09723 0.18732 0.41387 0.0
C538 C 0.05096 0.16604 0.45794 0.0
C539 C 0.06187 0.13811 0.44669 0.0
H540 H 0.05811 0.21108 0.44622 0.0
H541 H 0.02867 0.16939 0.47764 0.0
S542 S 0.13707 0.11894 0.38279 0.0
N543 N 0.13672 0.15446 0.38264 0.0
N544 N 0.10408 0.10887 0.41136 0.0
C545 C 0.09122 0.13488 0.42322 0.0
C546 C 0.1089 0.15954 0.4071 0.0
C547 C 0.35809 0.0989 0.46183 0.0
C548 C 0.32934 0.09019 0.45052 0.0
C549 C 0.37993 0.07859 0.47733 0.0
C550 C 0.37374 0.04892 0.48085 0.0
H551 H 0.36384 0.12139 0.45497 0.0
H552 H 0.40191 0.08608 0.48457 0.0
S553 S 0.30219 0.01491 0.45082 0.0
N554 N 0.29601 0.04975 0.44225 0.0
N555 N 0.33705 1.01187 0.47046 0.0
C556 C 0.34505 0.04002 0.47153 0.0
C557 C 0.32285 0.06058 0.45652 0.0
C558 C 0.62576 0.32528 0.50089 0.0
C559 C 0.6453 0.32222 0.42717 0.0
C560 C 0.61949 0.35233 0.53771 0.0
C561 C 0.63252 0.37728 0.50227 0.0
H562 H 0.61256 0.30736 0.52322 0.0
H563 H 0.60202 0.35391 0.58694 0.0
S564 S 0.69183 0.37973 0.33155 0.0
N565 N 0.68287 0.34539 0.33694 0.0
N566 N 0.67062 0.39657 0.40533 0.0
C567 C 0.65514 0.37404 0.43867 0.0
C568 C 0.66173 0.34638 0.40162 0.0
C569 C 0.17128 0.63507 0.56382 0.0
C570 C 0.17914 0.64114 0.4721 0.0
C571 C 0.14238 0.63084 0.58836 0.0
C572 C 0.12038 0.63411 0.5231 0.0
H573 H 0.18761 0.62978 0.61398 0.0
H574 H 0.13779 0.6218 0.65533 0.0
S575 S 0.12834 0.66532 0.29047 0.0
N576 N 0.16167 0.6602 0.32604 0.0
N577 N 0.10743 0.65511 0.37637 0.0
C578 C 0.12753 0.64722 0.43919 0.0
C579 C 0.15698 0.65028 0.41255 0.0
C580 C 0.1484 0.84036 0.1082 0.0
C581 C 0.13245 0.8155 0.08641 0.0
C582 C 0.141 0.86723 0.07134 0.0
C583 C 0.11793 0.86996 1.00972 0.0
H584 H 0.16458 0.83959 0.16155 0.0
H585 H 0.15175 0.88625 0.09706 0.0
S586 S 0.07388 0.81084 0.91346 0.0
N587 N 0.09577 0.79491 0.98654 0.0
N588 N 0.08263 0.84522 0.91604 0.0
C589 C 0.1047 0.84484 0.97717 0.0
C590 C 0.11191 0.81755 0.01547 0.0
C591 C 0.65702 0.1335 0.22625 0.0
C592 C 0.67908 0.14486 0.16999 0.0
C593 C 0.62986 0.12717 0.19076 0.0
C594 C 0.6237 0.13186 0.09767 0.0
H595 H 0.66148 0.12616 0.29529 0.0
H596 H 0.61482 0.11558 0.23427 0.0
S597 S 0.67009 0.17052 0.93066 0.0
N598 N 0.69012 0.16779 0.02378 0.0
N599 N 0.63898 0.15511 0.95619 0.0
C600 C 0.64386 0.14721 0.04456 0.0
C601 C 0.67154 0.15398 0.08109 0.0
C602 C 0.38901 0.67994 0.97769 0.0
C603 C 0.37011 0.68333 0.05293 0.0
C604 C 0.39457 0.65279 0.94054 0.0
C605 C 0.38143 0.62806 0.97706 0.0
H606 H 0.40238 0.69761 0.95437 0.0
H607 H 0.41171 0.65093 0.89023 0.0
S608 S 0.32292 0.62658 0.15108 0.0
N609 N 0.3326 0.66076 0.1454 0.0
N610 N 0.34347 0.60943 0.07606 0.0
C611 C 0.35921 0.63168 0.04196 0.0
C612 C 0.35337 0.65944 0.07951 0.0
C613 C 0.85432 0.37155 0.19764 0.0
C614 C 0.8312 0.36315 0.14103 0.0
C615 C 0.88157 0.37723 0.16093 0.0
C616 C 0.88672 0.3749 0.06628 0.0
H617 H 0.85085 0.37703 0.26904 0.0
H618 H 0.89771 0.38648 0.20562 0.0
S619 S 0.83668 0.34488 0.89368 0.0
N620 N 0.81764 0.34562 0.98977 0.0
N621 N 0.86886 0.35757 0.92001 0.0
C622 C 0.8652 0.36274 1.01108 0.0
C623 C 0.83746 0.35645 0.04878 0.0
C624 C 0.0147 0.12481 0.99207 0.0
C625 C 0.01375 0.14907 0.93375 0.0
C626 C 0.01545 0.09643 0.95705 0.0
C627 C 0.01517 0.09077 0.86179 0.0
H628 H 0.01549 0.12773 0.06577 0.0
H629 H 0.01627 0.07877 1.0055 0.0
S630 S 1.01097 0.14651 0.67893 0.0
N631 N 1.01123 0.16518 0.77526 0.0
N632 N 1.01284 0.11239 0.70985 0.0
C633 C 0.01379 0.11485 0.80271 0.0
C634 C 1.01306 0.14373 0.83841 0.0
C635 C 0.3714 0.01768 0.85484 0.0
C636 C 0.36549 0.015 0.94969 0.0
C637 C 0.39981 0.01644 0.81972 0.0
C638 C 0.42381 1.01263 0.87751 0.0
H639 H 0.35388 0.02093 0.80705 0.0
H640 H 0.40302 0.01906 0.74668 0.0
S641 S 0.42051 1.00526 0.13175 0.0
N642 N 0.38653 1.009 0.10097 0.0
N643 N 0.43943 1.00626 0.03557 0.0
C644 C 0.4182 1.00983 0.97255 0.0
C645 C 0.38929 1.01104 1.00828 0.0
C646 C 0.48857 0.38314 0.972 0.0
C647 C 0.50648 0.36061 0.94075 0.0
C648 C 0.48825 0.4103 0.92896 0.0
C649 C 0.5056 0.41643 0.85163 0.0
H650 H 0.47475 0.37991 0.03119 0.0
H651 H 0.47428 0.42675 0.95731 0.0
S652 S 0.55649 0.36533 0.74102 0.0
N653 N 0.5424 0.34675 0.82679 0.0
N654 N 0.54098 0.39728 0.74459 0.0
C655 C 0.52308 0.39397 0.81782 0.0
C656 C 0.52369 0.3663 0.86243 0.0
C657 C 0.12426 0.48871 0.98172 0.0
C658 C 0.14528 0.50884 0.95334 0.0
C659 C 0.09686 0.48729 0.94054 0.0
C660 C 0.08892 0.50571 0.86788 0.0
H661 H 0.12886 0.47396 0.03733 0.0
H662 H 0.08164 0.47161 0.96673 0.0
S663 S 0.1355 0.56245 0.76619 0.0
N664 N 0.15574 0.54791 0.84692 0.0
N665 N 0.1047 0.54465 0.76841 0.0
C666 C 0.10986 0.52547 0.83679 0.0
C667 C 0.13782 0.52714 0.8795 0.0
C668 C 0.0184 0.8692 0.63603 0.0
C669 C 0.99827 0.8615 0.56765 0.0
C670 C 0.01881 0.89697 0.67568 0.0
C671 C 0.99928 0.9186 0.64846 0.0
H672 H 0.03467 0.85392 0.65735 0.0
H673 H 0.03522 0.90175 0.72609 0.0
S674 S 0.93991 0.909 0.4808 0.0
N675 N 0.9564 0.87752 0.48175 0.0
N676 N 0.95773 0.9295 0.5536 0.0
C677 C 0.97847 0.91097 0.58248 0.0
C678 C 0.97783 0.88262 0.54288 0.0
C679 C 0.62973 0.98168 0.54146 0.0
C680 C 0.65152 1.00157 0.56435 0.0
C681 C 0.60258 0.98186 0.58556 0.0
C682 C 0.59574 1.00187 0.65522 0.0
H683 H 0.63358 0.96586 0.48824 0.0
H684 H 0.58667 0.96623 0.56401 0.0
S685 S 0.64441 0.05954 0.73887 0.0
N686 N 0.66371 0.04258 0.66031 0.0
N687 N 0.61319 0.04256 0.74334 0.0
C688 C 0.6174 0.02166 0.67964 0.0
C689 C 0.64504 0.0216 0.63439 0.0
C690 C 0.52747 0.6227 0.51258 0.0
C691 C 0.50926 0.64517 0.54258 0.0
C692 C 0.52726 0.5954 0.5547 0.0
C693 C 0.50907 0.58907 0.62986 0.0
H694 H 0.54194 0.6261 0.45508 0.0
H695 H 0.5415 0.57901 0.52741 0.0
S696 S 0.45702 0.63986 0.73632 0.0
N697 N 0.4721 0.6587 0.65285 0.0
N698 N 0.47254 0.6079 0.73347 0.0
C699 C 0.49127 0.61145 0.66246 0.0
C700 C 0.49119 0.63926 0.61873 0.0
C701 C 0.87662 0.52276 0.56271 0.0
C702 C 0.8574 0.49967 0.57757 0.0
C703 C 0.90426 0.5234 0.60283 0.0
C704 C 0.91408 0.50113 0.66068 0.0
H705 H 0.87033 0.54058 0.51923 0.0
H706 H 0.91811 0.5416 0.58817 0.0
S707 S 0.87356 0.43457 0.71709 0.0
N708 N 0.85129 0.45303 0.65137 0.0
N709 N 0.90274 0.45462 0.7271 0.0
C710 C 0.89519 0.47795 0.67648 0.0
C711 C 0.86708 0.47713 0.63506 0.0
loop_
_geom_bond_atom_site_label_1
_geom_bond_atom_site_label_2
_geom_bond_distance
_geom_bond_site_symmetry_2
_ccdc_geom_bond_type
C0 C1 1.384 . S
C0 H13 0.947 . S
C0 C35 1.382 . S
C1 C0 1.384 . S
C1 C2 1.378 . S
C2 C1 1.378 . S
C2 C3 1.378 . S
C2 H14 0.952 . S
C3 C2 1.378 . S
C3 H15 0.950 . S
C3 C34 1.383 . S
H4 C23 0.947 . S
H5 C24 0.946 . S
H6 C26 0.953 . S
H7 C27 0.945 . S
H8 C29 0.952 . S
H9 C30 0.949 . S
H10 C32 0.950 . S
H11 C33 0.948 . S
H12 C35 0.951 . S
H13 C0 0.947 . S
H14 C2 0.952 . S
H15 C3 0.950 . S
N16 C19 1.382 . S
N16 C21 1.363 . S
N17 C19 1.371 . S
N17 C20 1.372 . S
N18 C20 1.361 . S
N18 C21 1.377 . S
C19 N16 1.382 . S
C19 N17 1.371 . S
C19 C22 1.480 . S
C20 N17 1.372 . S
C20 N18 1.361 . S
C20 C28 1.457 . S
C21 N16 1.363 . S
C21 N18 1.377 . S
C21 C34 1.479 . S
C22 C19 1.480 . S
C22 C23 1.383 . S
C22 C27 1.385 . S
C23 H4 0.947 . S
C23 C22 1.383 . S
C23 C24 1.388 . S
C24 H5 0.946 . S
C24 C23 1.388 . S
C24 C25 1.384 . S
C25 C24 1.384 . S
C25 C26 1.377 . S
C26 H6 0.953 . S
C26 C25 1.377 . S
C26 C27 1.369 . S
C27 H7 0.945 . S
C27 C22 1.385 . S
C27 C26 1.369 . S
C28 C20 1.457 . S
C28 C29 1.372 . S
C28 C33 1.364 . S
C29 H8 0.952 . S
C29 C28 1.372 . S
C29 C30 1.389 . S
C30 H9 0.949 . S
C30 C29 1.389 . S
C30 C31 1.387 . S
C31 C30 1.387 . S
C31 C32 1.372 . S
C32 H10 0.950 . S
C32 C31 1.372 . S
C32 C33 1.379 . S
C33 H11 0.948 . S
C33 C28 1.364 . S
C33 C32 1.379 . S
C34 C3 1.383 . S
C34 C21 1.479 . S
C34 C35 1.398 . S
C35 C0 1.382 . S
C35 H12 0.951 . S
C35 C34 1.398 . S
C36 C37 1.384 1_655 S
C36 H49 0.948 . S
C36 C71 1.382 1_655 S
C37 C36 1.384 1_455 S
C37 C38 1.378 . S
C38 C37 1.378 . S
C38 C39 1.378 . S
C38 H50 0.952 . S
C39 C38 1.378 . S
C39 H51 0.950 . S
C39 C70 1.383 . S
H40 C59 0.947 . S
H41 C60 0.952 . S
H42 C62 0.953 . S
H43 C63 0.945 . S
H44 C65 0.949 1_655 S
H45 C66 0.956 . S
H46 C68 0.950 . S
H47 C69 0.948 . S
H48 C71 0.951 1_655 S
H49 C36 0.948 . S
H50 C38 0.952 . S
H51 C39 0.950 . S
N52 C55 1.382 . S
N52 C57 1.363 . S
N53 C55 1.371 . S
N53 C56 1.372 . S
N54 C56 1.361 . S
N54 C57 1.377 . S
C55 N52 1.382 . S
C55 N53 1.371 . S
C55 C58 1.480 . S
C56 N53 1.372 . S
C56 N54 1.361 . S
C56 C64 1.457 . S
C57 N52 1.363 . S
C57 N54 1.377 . S
C57 C70 1.479 . S
C58 C55 1.480 . S
C58 C59 1.383 . S
C58 C63 1.385 . S
C59 H40 0.947 . S
C59 C58 1.383 . S
C59 C60 1.386 1_455 S
C60 H41 0.952 . S
C60 C59 1.386 1_655 S
C60 C61 1.381 1_655 S
C61 C60 1.381 1_455 S
C61 C62 1.377 . S
C62 H42 0.953 . S
C62 C61 1.377 . S
C62 C63 1.369 . S
C63 H43 0.945 . S
C63 C58 1.385 . S
C63 C62 1.369 . S
C64 C56 1.457 . S
C64 C65 1.377 . S
C64 C69 1.364 . S
C65 H44 0.949 1_455 S
C65 C64 1.377 . S
C65 C66 1.386 1_455 S
C66 H45 0.956 . S
C66 C65 1.386 1_655 S
C66 C67 1.383 1_655 S
C67 C66 1.383 1_455 S
C67 C68 1.372 . S
C68 H46 0.950 . S
C68 C67 1.372 . S
C68 C69 1.379 . S
C69 H47 0.948 . S
C69 C64 1.364 . S
C69 C68 1.379 . S
C70 C39 1.383 . S
C70 C57 1.479 . S
C70 C71 1.398 . S
C71 C36 1.382 1_455 S
C71 H48 0.951 1_455 S
C71 C70 1.398 . S
C72 C73 1.384 1_565 S
C72 H85 0.948 . S
C72 C107 1.382 1_565 S
C73 C72 1.384 1_545 S
C73 C74 1.378 . S
C74 C73 1.378 . S
C74 C75 1.378 . S
C74 H86 0.952 . S
C75 C74 1.378 . S
C75 H87 0.950 . S
C75 C106 1.383 . S
H76 C95 0.947 . S
H77 C96 0.952 . S
H78 C98 0.953 . S
H79 C99 0.945 . S
H80 C101 0.949 1_565 S
H81 C102 0.957 . S
H82 C104 0.950 . S
H83 C105 0.948 . S
H84 C107 0.951 1_565 S
H85 C72 0.948 . S
H86 C74 0.952 . S
H87 C75 0.950 . S
N88 C91 1.382 . S
N88 C93 1.363 . S
N89 C91 1.371 . S
N89 C92 1.372 . S
N90 C92 1.361 . S
N90 C93 1.377 . S
C91 N88 1.382 . S
C91 N89 1.371 . S
C91 C94 1.480 . S
C92 N89 1.372 . S
C92 N90 1.361 . S
C92 C100 1.457 . S
C93 N88 1.363 . S
C93 N90 1.377 . S
C93 C106 1.479 . S
C94 C91 1.480 . S
C94 C95 1.383 . S
C94 C99 1.385 . S
C95 H76 0.947 . S
C95 C94 1.383 . S
C95 C96 1.386 1_545 S
C96 H77 0.952 . S
C96 C95 1.386 1_565 S
C96 C97 1.382 1_565 S
C97 C96 1.382 1_545 S
C97 C98 1.377 . S
C98 H78 0.953 . S
C98 C97 1.377 . S
C98 C99 1.369 . S
C99 H79 0.945 . S
C99 C94 1.385 . S
C99 C98 1.369 . S
C100 C92 1.457 . S
C100 C101 1.377 . S
C100 C105 1.364 . S
C101 H80 0.949 1_545 S
C101 C100 1.377 . S
C101 C102 1.386 1_545 S
C102 H81 0.957 . S
C102 C101 1.386 1_565 S
C102 C103 1.383 1_565 S
C103 C102 1.383 1_545 S
C103 C104 1.372 . S
C104 H82 0.950 . S
C104 C103 1.372 . S
C104 C105 1.379 . S
C105 H83 0.948 . S
C105 C100 1.364 . S
C105 C104 1.379 . S
C106 C75 1.383 . S
C106 C93 1.479 . S
C106 C107 1.398 . S
C107 C72 1.382 1_545 S
C107 H84 0.951 1_545 S
C107 C106 1.398 . S
C108 C109 1.384 . S
C108 H121 0.947 . S
C108 C143 1.382 . S
C109 C108 1.384 . S
C109 C110 1.378 . S
C110 C109 1.378 . S
C110 C111 1.378 . S
C110 H122 0.952 . S
C111 C110 1.378 . S
C111 H123 0.950 . S
C111 C142 1.383 . S
H112 C131 0.947 . S
H113 C132 0.946 . S
H114 C134 0.953 . S
H115 C135 0.945 . S
H116 C137 0.952 . S
H117 C138 0.949 . S
H118 C140 0.950 . S
H119 C141 0.948 . S
H120 C143 0.951 . S
H121 C108 0.947 . S
H122 C110 0.952 . S
H123 C111 0.950 . S
N124 C127 1.382 . S
N124 C129 1.363 . S
N125 C127 1.371 . S
N125 C128 1.372 . S
N126 C128 1.361 . S
N126 C129 1.377 . S
C127 N124 1.382 . S
C127 N125 1.371 . S
C127 C130 1.480 . S
C128 N125 1.372 . S
C128 N126 1.361 . S
C128 C136 1.457 . S
C129 N124 1.363 . S
C129 N126 1.377 . S
C129 C142 1.479 . S
C130 C127 1.480 . S
C130 C131 1.383 . S
C130 C135 1.385 . S
C131 H112 0.947 . S
C131 C130 1.383 . S
C131 C132 1.388 . S
C132 H113 0.946 . S
C132 C131 1.388 . S
C132 C133 1.384 . S
C133 C132 1.384 . S
C133 C134 1.377 . S
C134 H114 0.953 . S
C134 C133 1.377 . S
C134 C135 1.369 . S
C135 H115 0.945 . S
C135 C130 1.385 . S
C135 C134 1.369 . S
C136 C128 1.457 . S
C136 C137 1.372 . S
C136 C141 1.364 . S
C137 H116 0.952 . S
C137 C136 1.372 . S
C137 C138 1.389 . S
C138 H117 0.949 . S
C138 C137 1.389 . S
C138 C139 1.387 . S
C139 C138 1.387 . S
C139 C140 1.372 . S
C140 H118 0.950 . S
C140 C139 1.372 . S
C140 C141 1.379 . S
C141 H119 0.948 . S
C141 C136 1.364 . S
C141 C140 1.379 . S
C142 C111 1.383 . S
C142 C129 1.479 . S
C142 C143 1.398 . S
C143 C108 1.382 . S
C143 H120 0.951 . S
C143 C142 1.398 . S
C144 C145 1.384 . S
C144 H157 0.947 . S
C144 C179 1.382 . S
C145 C144 1.384 . S
C145 C146 1.378 . S
C146 C145 1.378 . S
C146 C147 1.378 . S
C146 H158 0.952 . S
C147 C146 1.378 . S
C147 H159 0.950 . S
C147 C178 1.383 . S
H148 C167 0.947 1_556 S
H149 C168 0.946 . S
H150 C170 0.953 . S
H151 C171 0.945 . S
H152 C173 0.952 . S
H153 C174 0.949 . S
H154 C176 0.950 . S
H155 C177 0.948 . S
H156 C179 0.951 . S
H157 C144 0.947 . S
H158 C146 0.952 . S
H159 C147 0.950 . S
N160 C163 1.382 1_556 S
N160 C165 1.363 . S
N161 C163 1.371 . S
N161 C164 1.372 . S
N162 C164 1.361 . S
N162 C165 1.377 1_554 S
C163 N160 1.382 1_554 S
C163 N161 1.371 . S
C163 C166 1.480 . S
C164 N161 1.372 . S
C164 N162 1.361 . S
C164 C172 1.457 . S
C165 N160 1.363 . S
C165 N162 1.377 1_556 S
C165 C178 1.479 . S
C166 C163 1.480 . S
C166 C167 1.383 . S
C166 C171 1.385 . S
C167 H148 0.947 1_554 S
C167 C166 1.383 . S
C167 C168 1.388 . S
C168 H149 0.946 . S
C168 C167 1.388 . S
C168 C169 1.384 . S
C169 C168 1.384 . S
C169 C170 1.377 . S
C170 H150 0.953 . S
C170 C169 1.377 . S
C170 C171 1.369 . S
C171 H151 0.945 . S
C171 C166 1.385 . S
C171 C170 1.369 . S
C172 C164 1.457 . S
C172 C173 1.372 . S
C172 C177 1.364 . S
C173 H152 0.952 . S
C173 C172 1.372 . S
C173 C174 1.389 . S
C174 H153 0.949 . S
C174 C173 1.389 . S
C174 C175 1.387 . S
C175 C174 1.387 . S
C175 C176 1.372 . S
C176 H154 0.950 . S
C176 C175 1.372 . S
C176 C177 1.379 . S
C177 H155 0.948 . S
C177 C172 1.364 . S
C177 C176 1.379 . S
C178 C147 1.383 . S
C178 C165 1.479 . S
C178 C179 1.398 . S
C179 C144 1.382 . S
C179 H156 0.951 . S
C179 C178 1.398 . S
C180 C181 1.384 1_655 S
C180 H193 0.947 . S
C180 C215 1.382 1_655 S
C181 C180 1.384 1_455 S
C181 C182 1.378 . S
C182 C181 1.378 . S
C182 C183 1.378 . S
C182 H194 0.952 . S
C183 C182 1.378 . S
C183 H195 0.950 . S
C183 C214 1.383 . S
H184 C203 0.947 1_556 S
H185 C204 0.950 . S
H186 C206 0.953 . S
H187 C207 0.945 . S
H188 C209 0.947 1_655 S
H189 C210 0.954 . S
H190 C212 0.950 . S
H191 C213 0.948 . S
H192 C215 0.950 1_655 S
H193 C180 0.947 . S
H194 C182 0.952 . S
H195 C183 0.950 . S
N196 C199 1.382 1_556 S
N196 C201 1.363 . S
N197 C199 1.371 . S
N197 C200 1.372 . S
N198 C200 1.361 . S
N198 C201 1.377 1_554 S
C199 N196 1.382 1_554 S
C199 N197 1.371 . S
C199 C202 1.480 . S
C200 N197 1.372 . S
C200 N198 1.361 . S
C200 C208 1.457 . S
C201 N196 1.363 . S
C201 N198 1.377 1_556 S
C201 C214 1.479 . S
C202 C199 1.480 . S
C202 C203 1.383 . S
C202 C207 1.385 . S
C203 H184 0.947 1_554 S
C203 C202 1.383 . S
C203 C204 1.387 1_455 S
C204 H185 0.950 . S
C204 C203 1.387 1_655 S
C204 C205 1.382 1_655 S
C205 C204 1.382 1_455 S
C205 C206 1.377 . S
C206 H186 0.953 . S
C206 C205 1.377 . S
C206 C207 1.369 . S
C207 H187 0.945 . S
C207 C202 1.385 . S
C207 C206 1.369 . S
C208 C200 1.457 . S
C208 C209 1.379 . S
C208 C213 1.364 . S
C209 H188 0.947 1_455 S
C209 C208 1.379 . S
C209 C210 1.387 1_455 S
C210 H189 0.954 . S
C210 C209 1.387 1_655 S
C210 C211 1.383 1_655 S
C211 C210 1.383 1_455 S
C211 C212 1.372 . S
C212 H190 0.950 . S
C212 C211 1.372 . S
C212 C213 1.379 . S
C213 H191 0.948 . S
C213 C208 1.364 . S
C213 C212 1.379 . S
C214 C183 1.383 . S
C214 C201 1.479 . S
C214 C215 1.399 . S
C215 C180 1.382 1_455 S
C215 H192 0.950 1_455 S
C215 C214 1.399 . S
C216 C217 1.384 1_565 S
C216 H229 0.947 . S
C216 C251 1.382 1_565 S
C217 C216 1.384 1_545 S
C217 C218 1.378 . S
C218 C217 1.378 . S
C218 C219 1.378 . S
C218 H230 0.952 . S
C219 C218 1.378 . S
C219 H231 0.950 . S
C219 C250 1.383 . S
H220 C239 0.947 1_556 S
H221 C240 0.950 . S
H222 C242 0.953 . S
H223 C243 0.945 . S
H224 C245 0.948 1_565 S
H225 C246 0.954 . S
H226 C248 0.950 . S
H227 C249 0.948 . S
H228 C251 0.950 1_565 S
H229 C216 0.947 . S
H230 C218 0.952 . S
H231 C219 0.950 . S
N232 C235 1.382 1_556 S
N232 C237 1.363 . S
N233 C235 1.371 . S
N233 C236 1.372 . S
N234 C236 1.361 . S
N234 C237 1.377 1_554 S
C235 N232 1.382 1_554 S
C235 N233 1.371 . S
C235 C238 1.480 . S
C236 N233 1.372 . S
C236 N234 1.361 . S
C236 C244 1.457 . S
C237 N232 1.363 . S
C237 N234 1.377 1_556 S
C237 C250 1.479 . S
C238 C235 1.480 . S
C238 C239 1.383 . S
C238 C243 1.385 . S
C239 H220 0.947 1_554 S
C239 C238 1.383 . S
C239 C240 1.387 1_545 S
C240 H221 0.950 . S
C240 C239 1.387 1_565 S
C240 C241 1.382 1_565 S
C241 C240 1.382 1_545 S
C241 C242 1.377 . S
C242 H222 0.953 . S
C242 C241 1.377 . S
C242 C243 1.369 . S
C243 H223 0.945 . S
C243 C238 1.385 . S
C243 C242 1.369 . S
C244 C236 1.457 . S
C244 C245 1.379 . S
C244 C249 1.364 . S
C245 H224 0.948 1_545 S
C245 C244 1.379 . S
C245 C246 1.387 1_545 S
C246 H225 0.954 . S
C246 C245 1.387 1_565 S
C246 C247 1.384 1_565 S
C247 C246 1.384 1_545 S
C247 C248 1.372 . S
C248 H226 0.950 . S
C248 C247 1.372 . S
C248 C249 1.379 . S
C249 H227 0.948 . S
C249 C244 1.364 . S
C249 C248 1.379 . S
C250 C219 1.383 . S
C250 C237 1.479 . S
C250 C251 1.399 . S
C251 C216 1.382 1_545 S
C251 H228 0.950 1_545 S
C251 C250 1.399 . S
C252 C253 1.384 . S
C252 H265 0.947 . S
C252 C287 1.382 . S
C253 C252 1.384 . S
C253 C254 1.378 . S
C254 C253 1.378 . S
C254 C255 1.378 . S
C254 H266 0.952 . S
C255 C254 1.378 . S
C255 H267 0.950 . S
C255 C286 1.383 . S
H256 C275 0.947 . S
H257 C276 0.946 . S
H258 C278 0.953 1_556 S
H259 C279 0.945 1_556 S
H260 C281 0.952 . S
H261 C282 0.949 . S
H262 C284 0.950 . S
H263 C285 0.948 . S
H264 C287 0.951 . S
H265 C252 0.947 . S
H266 C254 0.952 . S
H267 C255 0.950 . S
N268 C271 1.382 . S
N268 C273 1.363 . S
N269 C271 1.371 1_556 S
N269 C272 1.372 . S
N270 C272 1.361 1_554 S
N270 C273 1.377 . S
C271 N268 1.382 . S
C271 N269 1.371 1_554 S
C271 C274 1.480 . S
C272 N269 1.372 . S
C272 N270 1.361 1_556 S
C272 C280 1.457 . S
C273 N268 1.363 . S
C273 N270 1.377 . S
C273 C286 1.479 . S
C274 C271 1.480 . S
C274 C275 1.383 . S
C274 C279 1.385 . S
C275 H256 0.947 . S
C275 C274 1.383 . S
C275 C276 1.388 . S
C276 H257 0.946 . S
C276 C275 1.388 . S
C276 C277 1.384 . S
C277 C276 1.384 . S
C277 C278 1.377 . S
C278 H258 0.953 1_554 S
C278 C277 1.377 . S
C278 C279 1.369 . S
C279 H259 0.945 1_554 S
C279 C274 1.385 . S
C279 C278 1.369 . S
C280 C272 1.457 . S
C280 C281 1.372 . S
C280 C285 1.364 . S
C281 H260 0.952 . S
C281 C280 1.372 . S
C281 C282 1.389 . S
C282 H261 0.949 . S
C282 C281 1.389 . S
C282 C283 1.387 . S
C283 C282 1.387 . S
C283 C284 1.372 . S
C284 H262 0.950 . S
C284 C283 1.372 . S
C284 C285 1.379 . S
C285 H263 0.948 . S
C285 C280 1.364 . S
C285 C284 1.379 . S
C286 C255 1.383 . S
C286 C273 1.479 . S
C286 C287 1.398 . S
C287 C252 1.382 . S
C287 H264 0.951 . S
C287 C286 1.398 . S
La288 C290 2.928 . S
La288 O308 2.521 . S
La288 O309 2.628 . S
La288 O310 2.554 . S
La288 O311 2.757 1_565 S
La288 O312 2.470 . S
La288 O317 2.482 1_455 S
La288 O319 2.503 1_565 S
La289 C299 2.928 . S
La289 O311 2.482 1_655 S
La289 O313 2.503 1_545 S
La289 O314 2.521 . S
La289 O315 2.628 . S
La289 O316 2.554 . S
La289 O317 2.757 1_545 S
La289 O318 2.470 . S
C290 La288 2.928 . S
C290 C291 1.503 . S
C290 O308 1.261 . S
C290 O309 1.243 . S
C291 C290 1.503 . S
C291 C292 1.394 . S
C291 C296 1.373 1_556 S
C292 C291 1.394 . S
C292 C293 1.380 1_556 S
C292 H320 0.930 . S
C293 C292 1.380 1_554 S
C293 C294 1.376 . S
C293 H321 0.930 . S
C294 C293 1.376 . S
C294 C295 1.370 . S
C295 C294 1.370 . S
C295 C296 1.396 . S
C295 H322 0.929 . S
C296 C291 1.373 1_554 S
C296 C295 1.396 . S
C296 H323 0.929 1_455 S
C297 O310 1.240 . S
C297 O311 1.289 1_565 S
C298 O312 1.258 1_655 S
C298 O313 1.256 . S
C299 La289 2.928 . S
C299 C300 1.503 . S
C299 O314 1.261 . S
C299 O315 1.243 . S
C300 C299 1.503 . S
C300 C301 1.394 . S
C300 C305 1.373 . S
C301 C300 1.394 . S
C301 C302 1.380 . S
C301 H324 0.930 . S
C302 C301 1.380 . S
C302 C303 1.376 . S
C302 H325 0.930 . S
C303 C302 1.376 . S
C303 C304 1.370 . S
C304 C303 1.370 . S
C304 C305 1.396 . S
C304 H326 0.929 . S
C305 C300 1.373 . S
C305 C304 1.396 . S
C305 H327 0.929 1_655 S
C306 O316 1.240 . S
C306 O317 1.289 1_545 S
C307 O318 1.258 1_455 S
C307 O319 1.256 . S
O308 La288 2.521 . S
O308 C290 1.261 . S
O309 La288 2.628 . S
O309 C290 1.243 . S
O310 La288 2.554 . S
O310 C297 1.240 . S
O311 La288 2.757 1_545 S
O311 La289 2.482 1_455 S
O311 C297 1.289 1_545 S
O312 La288 2.470 . S
O312 C298 1.258 1_455 S
O313 La289 2.503 1_565 S
O313 C298 1.256 . S
O314 La289 2.521 . S
O314 C299 1.261 . S
O315 La289 2.628 . S
O315 C299 1.243 . S
O316 La289 2.554 . S
O316 C306 1.240 . S
O317 La288 2.482 1_655 S
O317 La289 2.757 1_565 S
O317 C306 1.289 1_565 S
O318 La289 2.470 . S
O318 C307 1.258 1_655 S
O319 La288 2.503 1_545 S
O319 C307 1.256 . S
H320 C292 0.930 . S
H321 C293 0.930 . S
H322 C295 0.929 . S
H323 C296 0.929 1_655 S
H324 C301 0.930 . S
H325 C302 0.930 . S
H326 C304 0.929 . S
H327 C305 0.929 1_455 S
La328 C330 2.928 . S
La328 O348 2.521 . S
La328 O349 2.628 . S
La328 O350 2.554 . S
La328 O351 2.757 . S
La328 O352 2.470 . S
La328 O357 2.482 1_545 S
La328 O359 2.503 . S
La329 C339 2.928 . S
La329 O351 2.482 1_565 S
La329 O353 2.503 . S
La329 O354 2.521 . S
La329 O355 2.628 . S
La329 O356 2.554 . S
La329 O357 2.757 . S
La329 O358 2.470 . S
C330 La328 2.928 . S
C330 C331 1.503 . S
C330 O348 1.261 . S
C330 O349 1.243 . S
C331 C330 1.503 . S
C331 C332 1.394 . S
C331 C336 1.373 1_556 S
C332 C331 1.394 . S
C332 C333 1.380 1_556 S
C332 H360 0.930 . S
C333 C332 1.380 1_554 S
C333 C334 1.376 . S
C333 H361 0.930 . S
C334 C333 1.376 . S
C334 C335 1.370 . S
C335 C334 1.370 . S
C335 C336 1.396 . S
C335 H362 0.929 . S
C336 C331 1.373 1_554 S
C336 C335 1.396 . S
C336 H363 0.929 1_545 S
C337 O350 1.240 . S
C337 O351 1.289 . S
C338 O352 1.258 1_565 S
C338 O353 1.256 . S
C339 La329 2.928 . S
C339 C340 1.503 . S
C339 O354 1.261 . S
C339 O355 1.243 . S
C340 C339 1.503 . S
C340 C341 1.394 . S
C340 C345 1.373 . S
C341 C340 1.394 . S
C341 C342 1.380 . S
C341 H364 0.930 . S
C342 C341 1.380 . S
C342 C343 1.376 . S
C342 H365 0.930 . S
C343 C342 1.376 . S
C343 C344 1.370 . S
C344 C343 1.370 . S
C344 C345 1.396 . S
C344 H366 0.929 . S
C345 C340 1.373 . S
C345 C344 1.396 . S
C345 H367 0.929 1_565 S
C346 O356 1.240 . S
C346 O357 1.289 . S
C347 O358 1.258 1_545 S
C347 O359 1.256 . S
O348 La328 2.521 . S
O348 C330 1.261 . S
O349 La328 2.628 . S
O349 C330 1.243 . S
O350 La328 2.554 . S
O350 C337 1.240 . S
O351 La328 2.757 . S
O351 La329 2.482 1_545 S
O351 C337 1.289 . S
O352 La328 2.470 . S
O352 C338 1.258 1_545 S
O353 La329 2.503 . S
O353 C338 1.256 . S
O354 La329 2.521 . S
O354 C339 1.261 . S
O355 La329 2.628 . S
O355 C339 1.243 . S
O356 La329 2.554 . S
O356 C346 1.240 . S
O357 La328 2.482 1_565 S
O357 La329 2.757 . S
O357 C346 1.289 . S
O358 La329 2.470 . S
O358 C347 1.258 1_565 S
O359 La328 2.503 . S
O359 C347 1.256 . S
H360 C332 0.930 . S
H361 C333 0.930 . S
H362 C335 0.929 . S
H363 C336 0.929 1_565 S
H364 C341 0.930 . S
H365 C342 0.930 . S
H366 C344 0.929 . S
H367 C345 0.929 1_545 S
La368 C370 2.928 . S
La368 O388 2.521 . S
La368 O389 2.628 . S
La368 O390 2.554 . S
La368 O391 2.757 . S
La368 O392 2.470 . S
La368 O397 2.482 . S
La368 O399 2.503 . S
La369 C379 2.928 . S
La369 O391 2.482 . S
La369 O393 2.503 . S
La369 O394 2.521 . S
La369 O395 2.628 . S
La369 O396 2.554 . S
La369 O397 2.757 . S
La369 O398 2.470 . S
C370 La368 2.928 . S
C370 C371 1.503 . S
C370 O388 1.261 . S
C370 O389 1.243 . S
C371 C370 1.503 . S
C371 C372 1.394 . S
C371 C376 1.373 1_556 S
C372 C371 1.394 . S
C372 C373 1.380 1_556 S
C372 H400 0.930 . S
C373 C372 1.380 1_554 S
C373 C374 1.376 . S
C373 H401 0.930 . S
C374 C373 1.376 . S
C374 C375 1.370 . S
C375 C374 1.370 . S
C375 C376 1.396 . S
C375 H402 0.929 . S
C376 C371 1.373 1_554 S
C376 C375 1.396 . S
C376 H403 0.929 . S
C377 O390 1.240 . S
C377 O391 1.289 . S
C378 O392 1.258 . S
C378 O393 1.256 . S
C379 La369 2.928 . S
C379 C380 1.503 . S
C379 O394 1.261 . S
C379 O395 1.243 . S
C380 C379 1.503 . S
C380 C381 1.394 . S
C380 C385 1.373 . S
C381 C380 1.394 . S
C381 C382 1.380 . S
C381 H404 0.930 . S
C382 C381 1.380 . S
C382 C383 1.376 . S
C382 H405 0.930 . S
C383 C382 1.376 . S
C383 C384 1.370 . S
C384 C383 1.370 . S
C384 C385 1.396 . S
C384 H406 0.929 . S
C385 C380 1.373 . S
C385 C384 1.396 . S
C385 H407 0.929 . S
C386 O396 1.240 . S
C386 O397 1.289 . S
C387 O398 1.258 . S
C387 O399 1.256 . S
O388 La368 2.521 . S
O388 C370 1.261 . S
O389 La368 2.628 . S
O389 C370 1.243 . S
O390 La368 2.554 . S
O390 C377 1.240 . S
O391 La368 2.757 . S
O391 La369 2.482 . S
O391 C377 1.289 . S
O392 La368 2.470 . S
O392 C378 1.258 . S
O393 La369 2.503 . S
O393 C378 1.256 . S
O394 La369 2.521 . S
O394 C379 1.261 . S
O395 La369 2.628 . S
O395 C379 1.243 . S
O396 La369 2.554 . S
O396 C386 1.240 . S
O397 La368 2.482 . S
O397 La369 2.757 . S
O397 C386 1.289 . S
O398 La369 2.470 . S
O398 C387 1.258 . S
O399 La368 2.503 . S
O399 C387 1.256 . S
H400 C372 0.930 . S
H401 C373 0.930 . S
H402 C375 0.929 . S
H403 C376 0.929 . S
H404 C381 0.930 . S
H405 C382 0.930 . S
H406 C384 0.929 . S
H407 C385 0.929 . S
La408 C410 2.928 . S
La408 O428 2.521 . S
La408 O429 2.628 . S
La408 O430 2.554 . S
La408 O431 2.757 1_655 S
La408 O432 2.470 . S
La408 O437 2.482 . S
La408 O439 2.503 1_655 S
La409 C419 2.928 . S
La409 O431 2.482 . S
La409 O433 2.503 1_455 S
La409 O434 2.521 . S
La409 O435 2.628 . S
La409 O436 2.554 . S
La409 O437 2.757 1_455 S
La409 O438 2.470 . S
C410 La408 2.928 . S
C410 C411 1.503 . S
C410 O428 1.261 . S
C410 O429 1.243 . S
C411 C410 1.503 . S
C411 C412 1.394 . S
C411 C416 1.373 1_556 S
C412 C411 1.394 . S
C412 C413 1.380 1_556 S
C412 H440 0.930 . S
C413 C412 1.380 1_554 S
C413 C414 1.376 . S
C413 H441 0.930 . S
C414 C413 1.376 . S
C414 C415 1.370 . S
C415 C414 1.370 . S
C415 C416 1.396 . S
C415 H442 0.929 . S
C416 C411 1.373 1_554 S
C416 C415 1.396 . S
C416 H443 0.929 . S
C417 O430 1.245 . S
C417 O431 1.287 1_655 S
C418 O432 1.258 . S
C418 O433 1.256 . S
C419 La409 2.928 . S
C419 C420 1.503 . S
C419 O434 1.261 . S
C419 O435 1.243 . S
C420 C419 1.503 . S
C420 C421 1.394 . S
C420 C425 1.373 . S
C421 C420 1.394 . S
C421 C422 1.380 . S
C421 H444 0.930 . S
C422 C421 1.380 . S
C422 C423 1.376 . S
C422 H445 0.930 . S
C423 C422 1.376 . S
C423 C424 1.370 . S
C424 C423 1.370 . S
C424 C425 1.396 . S
C424 H446 0.929 . S
C425 C420 1.373 . S
C425 C424 1.396 . S
C425 H447 0.929 . S
C426 O436 1.249 . S
C426 O437 1.284 1_455 S
C427 O438 1.258 . S
C427 O439 1.256 . S
O428 La408 2.521 . S
O428 C410 1.261 . S
O429 La408 2.628 . S
O429 C410 1.243 . S
O430 La408 2.554 . S
O430 C417 1.245 . S
O431 La408 2.757 1_455 S
O431 La409 2.482 . S
O431 C417 1.287 1_455 S
O432 La408 2.470 . S
O432 C418 1.258 . S
O433 La409 2.503 1_655 S
O433 C418 1.256 . S
O434 La409 2.521 . S
O434 C419 1.261 . S
O435 La409 2.628 . S
O435 C419 1.243 . S
O436 La409 2.554 . S
O436 C426 1.249 . S
O437 La408 2.482 . S
O437 La409 2.757 1_655 S
O437 C426 1.284 1_655 S
O438 La409 2.470 . S
O438 C427 1.258 . S
O439 La408 2.503 1_455 S
O439 C427 1.256 . S
H440 C412 0.930 . S
H441 C413 0.930 . S
H442 C415 0.929 . S
H443 C416 0.929 . S
H444 C421 0.930 . S
H445 C422 0.930 . S
H446 C424 0.929 . S
H447 C425 0.929 . S
C448 C449 1.342 1_565 S
C448 C450 1.419 . S
C448 H452 0.930 . S
C449 C448 1.342 1_545 S
C449 C458 1.457 . S
C450 C448 1.419 . S
C450 C451 1.363 1_565 S
C450 H453 0.929 . S
C451 C450 1.363 1_545 S
C451 C457 1.428 . S
H452 C448 0.930 . S
H453 C450 0.929 . S
S454 N455 1.613 . S
S454 N456 1.610 . S
N455 S454 1.613 . S
N455 C458 1.350 . S
N456 S454 1.610 . S
N456 C457 1.351 . S
C457 C451 1.428 . S
C457 N456 1.351 . S
C457 C458 1.434 . S
C458 C449 1.457 . S
C458 N455 1.350 . S
C458 C457 1.434 . S
C459 C460 1.369 . S
C459 C461 1.419 . S
C459 H463 0.930 . S
C460 C459 1.369 . S
C460 C469 1.429 . S
C461 C459 1.419 . S
C461 C462 1.363 . S
C461 H464 0.929 . S
C462 C461 1.363 . S
C462 C468 1.428 . S
H463 C459 0.930 . S
H464 C461 0.929 . S
S465 N466 1.613 . S
S465 N467 1.610 . S
N466 S465 1.613 . S
N466 C469 1.350 . S
N467 S465 1.610 . S
N467 C468 1.351 . S
C468 C462 1.428 . S
C468 N467 1.351 . S
C468 C469 1.434 . S
C469 C460 1.429 . S
C469 N466 1.350 . S
C469 C468 1.434 . S
C470 C471 1.369 . S
C470 C472 1.419 . S
C470 H474 0.930 . S
C471 C470 1.369 . S
C471 C480 1.429 . S
C472 C470 1.419 . S
C472 C473 1.363 . S
C472 H475 0.929 . S
C473 C472 1.363 . S
C473 C479 1.428 . S
H474 C470 0.930 . S
H475 C472 0.929 . S
S476 N477 1.613 . S
S476 N478 1.610 . S
N477 S476 1.613 . S
N477 C480 1.350 . S
N478 S476 1.610 . S
N478 C479 1.351 . S
C479 C473 1.428 . S
C479 N478 1.351 . S
C479 C480 1.434 . S
C480 C471 1.429 . S
C480 N477 1.350 . S
C480 C479 1.434 . S
C481 C482 1.358 1_655 S
C481 C483 1.419 . S
C481 H485 0.930 . S
C482 C481 1.358 1_455 S
C482 C491 1.441 . S
C483 C481 1.419 . S
C483 C484 1.363 1_655 S
C483 H486 0.929 . S
C484 C483 1.363 1_455 S
C484 C490 1.428 . S
H485 C481 0.930 . S
H486 C483 0.929 . S
S487 N488 1.613 . S
S487 N489 1.610 . S
N488 S487 1.613 . S
N488 C491 1.350 . S
N489 S487 1.610 . S
N489 C490 1.351 . S
C490 C484 1.428 . S
C490 N489 1.351 . S
C490 C491 1.434 . S
C491 C482 1.441 . S
C491 N488 1.350 . S
C491 C490 1.434 . S
C492 C493 1.368 1_565 S
C492 C494 1.419 . S
C492 H496 0.930 . S
C493 C492 1.368 1_545 S
C493 C502 1.429 . S
C494 C492 1.419 . S
C494 C495 1.374 . S
C494 H497 0.929 . S
C495 C494 1.374 . S
C495 C501 1.416 1_565 S
H496 C492 0.930 . S
H497 C494 0.929 . S
S498 N499 1.613 . S
S498 N500 1.610 . S
N499 S498 1.613 . S
N499 C502 1.350 . S
N500 S498 1.610 . S
N500 C501 1.351 . S
C501 C495 1.416 1_545 S
C501 N500 1.351 . S
C501 C502 1.434 . S
C502 C493 1.429 . S
C502 N499 1.350 . S
C502 C501 1.434 . S
C503 C504 1.369 . S
C503 C505 1.419 . S
C503 H507 0.930 . S
C504 C503 1.369 . S
C504 C513 1.429 . S
C505 C503 1.419 . S
C505 C506 1.363 . S
C505 H508 0.929 . S
C506 C505 1.363 . S
C506 C512 1.428 . S
H507 C503 0.930 . S
H508 C505 0.929 . S
S509 N510 1.613 . S
S509 N511 1.610 . S
N510 S509 1.613 . S
N510 C513 1.350 . S
N511 S509 1.610 . S
N511 C512 1.351 . S
C512 C506 1.428 . S
C512 N511 1.351 . S
C512 C513 1.434 . S
C513 C504 1.429 . S
C513 N510 1.350 . S
C513 C512 1.434 . S
C514 C515 1.369 . S
C514 C516 1.419 . S
C514 H518 0.930 . S
C515 C514 1.369 . S
C515 C524 1.429 . S
C516 C514 1.419 . S
C516 C517 1.363 . S
C516 H519 0.929 . S
C517 C516 1.363 . S
C517 C523 1.428 . S
H518 C514 0.930 . S
H519 C516 0.929 . S
S520 N521 1.613 . S
S520 N522 1.610 . S
N521 S520 1.613 . S
N521 C524 1.350 . S
N522 S520 1.610 . S
N522 C523 1.351 . S
C523 C517 1.428 . S
C523 N522 1.351 . S
C523 C524 1.434 . S
C524 C515 1.429 . S
C524 N521 1.350 . S
C524 C523 1.434 . S
C525 C526 1.376 . S
C525 C527 1.419 . S
C525 H529 0.930 . S
C526 C525 1.376 . S
C526 C535 1.422 1_655 S
C527 C525 1.419 . S
C527 C528 1.363 . S
C527 H530 0.929 . S
C528 C527 1.363 . S
C528 C534 1.428 1_655 S
H529 C525 0.930 . S
H530 C527 0.929 . S
S531 N532 1.613 . S
S531 N533 1.610 . S
N532 S531 1.613 . S
N532 C535 1.350 . S
N533 S531 1.610 . S
N533 C534 1.351 . S
C534 C528 1.428 1_455 S
C534 N533 1.351 . S
C534 C535 1.434 . S
C535 C526 1.422 1_455 S
C535 N532 1.350 . S
C535 C534 1.434 . S
C536 C537 1.369 . S
C536 C538 1.419 . S
C536 H540 0.930 . S
C537 C536 1.369 . S
C537 C546 1.429 1_655 S
C538 C536 1.419 . S
C538 C539 1.363 . S
C538 H541 0.929 . S
C539 C538 1.363 . S
C539 C545 1.428 . S
H540 C536 0.930 . S
H541 C538 0.929 . S
S542 N543 1.613 . S
S542 N544 1.610 1_455 S
N543 S542 1.613 . S
N543 C546 1.350 . S
N544 S542 1.610 1_655 S
N544 C545 1.351 . S
C545 C539 1.428 . S
C545 N544 1.351 . S
C545 C546 1.434 1_655 S
C546 C537 1.429 1_455 S
C546 N543 1.350 . S
C546 C545 1.434 1_455 S
C547 C548 1.371 . S
C547 C549 1.449 . S
C547 H551 0.898 1_565 S
C548 C547 1.371 . S
C548 C557 1.429 . S
C549 C547 1.449 . S
C549 C550 1.363 . S
C549 H552 0.929 . S
C550 C549 1.363 . S
C550 C556 1.428 . S
H551 C547 0.898 1_545 S
H552 C549 0.929 . S
S553 N554 1.613 . S
S553 N555 1.610 . S
N554 S553 1.613 . S
N554 C557 1.350 . S
N555 S553 1.610 . S
N555 C556 1.351 . S
C556 C550 1.428 . S
C556 N555 1.351 . S
C556 C557 1.434 . S
C557 C548 1.429 . S
C557 N554 1.350 . S
C557 C556 1.434 . S
C558 C559 1.369 . S
C558 C560 1.419 . S
C558 H562 0.930 . S
C559 C558 1.369 . S
C559 C568 1.429 . S
C560 C558 1.419 . S
C560 C561 1.363 . S
C560 H563 0.929 . S
C561 C560 1.363 . S
C561 C567 1.428 . S
H562 C558 0.930 . S
H563 C560 0.929 . S
S564 N565 1.613 . S
S564 N566 1.610 . S
N565 S564 1.613 . S
N565 C568 1.350 . S
N566 S564 1.610 . S
N566 C567 1.351 . S
C567 C561 1.428 . S
C567 N566 1.351 . S
C567 C568 1.434 . S
C568 C559 1.429 . S
C568 N565 1.350 . S
C568 C567 1.434 . S
C569 C570 1.369 . S
C569 C571 1.419 . S
C569 H573 0.930 . S
C570 C569 1.369 . S
C570 C579 1.429 . S
C571 C569 1.419 . S
C571 C572 1.363 . S
C571 H574 0.929 . S
C572 C571 1.363 . S
C572 C578 1.428 . S
H573 C569 0.930 . S
H574 C571 0.929 . S
S575 N576 1.613 . S
S575 N577 1.610 . S
N576 S575 1.613 . S
N576 C579 1.350 . S
N577 S575 1.610 . S
N577 C578 1.351 . S
C578 C572 1.428 . S
C578 N577 1.351 . S
C578 C579 1.434 . S
C579 C570 1.429 . S
C579 N576 1.350 . S
C579 C578 1.434 . S
C580 C581 1.369 . S
C580 C582 1.419 . S
C580 H584 0.930 . S
C581 C580 1.369 . S
C581 C590 1.429 . S
C582 C580 1.419 . S
C582 C583 1.363 . S
C582 H585 0.929 . S
C583 C582 1.363 . S
C583 C589 1.428 . S
H584 C580 0.930 . S
H585 C582 0.929 . S
S586 N587 1.613 1_455 S
S586 N588 1.610 . S
N587 S586 1.613 1_655 S
N587 C590 1.350 1_656 S
N588 S586 1.610 . S
N588 C589 1.351 1_556 S
C589 C583 1.428 . S
C589 N588 1.351 1_554 S
C589 C590 1.434 . S
C590 C581 1.429 . S
C590 N587 1.350 1_454 S
C590 C589 1.434 . S
C591 C592 1.369 . S
C591 C593 1.419 . S
C591 H595 0.930 1_545 S
C592 C591 1.369 . S
C592 C601 1.429 . S
C593 C591 1.419 . S
C593 C594 1.363 . S
C593 H596 0.929 . S
C594 C593 1.363 . S
C594 C600 1.428 . S
H595 C591 0.930 1_565 S
H596 C593 0.929 . S
S597 N598 1.613 . S
S597 N599 1.610 . S
N598 S597 1.613 . S
N598 C601 1.350 1_556 S
N599 S597 1.610 . S
N599 C600 1.351 1_556 S
C600 C594 1.428 . S
C600 N599 1.351 1_554 S
C600 C601 1.434 . S
C601 C592 1.429 . S
C601 N598 1.350 1_554 S
C601 C600 1.434 . S
C602 C603 1.369 . S
C602 C604 1.419 . S
C602 H606 0.930 . S
C603 C602 1.369 . S
C603 C612 1.429 . S
C604 C602 1.419 . S
C604 C605 1.363 . S
C604 H607 0.929 . S
C605 C604 1.363 . S
C605 C611 1.428 . S
H606 C602 0.930 . S
H607 C604 0.929 . S
S608 N609 1.613 . S
S608 N610 1.610 . S
N609 S608 1.613 . S
N609 C612 1.350 . S
N610 S608 1.610 . S
N610 C611 1.351 . S
C611 C605 1.428 . S
C611 N610 1.351 . S
C611 C612 1.434 . S
C612 C603 1.429 . S
C612 N609 1.350 . S
C612 C611 1.434 . S
C613 C614 1.369 . S
C613 C615 1.419 . S
C613 H617 0.930 . S
C614 C613 1.369 . S
C614 C623 1.429 . S
C615 C613 1.419 . S
C615 C616 1.363 . S
C615 H618 0.929 . S
C616 C615 1.363 . S
C616 C622 1.428 . S
H617 C613 0.930 . S
H618 C615 0.929 . S
S619 N620 1.613 . S
S619 N621 1.610 . S
N620 S619 1.613 . S
N620 C623 1.350 1_556 S
N621 S619 1.610 . S
N621 C622 1.351 1_556 S
C622 C616 1.428 . S
C622 N621 1.351 1_554 S
C622 C623 1.434 . S
C623 C614 1.429 . S
C623 N620 1.350 1_554 S
C623 C622 1.434 . S
C624 C625 1.369 . S
C624 C626 1.419 . S
C624 H628 0.930 . S
C625 C624 1.369 . S
C625 C634 1.429 1_455 S
C626 C624 1.419 . S
C626 C627 1.363 . S
C626 H629 0.929 . S
C627 C626 1.363 . S
C627 C633 1.428 1_455 S
H628 C624 0.930 . S
H629 C626 0.929 . S
S630 N631 1.613 . S
S630 N632 1.610 . S
N631 S630 1.613 . S
N631 C634 1.350 . S
N632 S630 1.610 . S
N632 C633 1.351 . S
C633 C627 1.428 1_655 S
C633 N632 1.351 . S
C633 C634 1.434 . S
C634 C625 1.429 1_655 S
C634 N631 1.350 . S
C634 C633 1.434 . S
C635 C636 1.375 . S
C635 C637 1.422 . S
C635 H639 0.921 1_545 S
C636 C635 1.375 . S
C636 C645 1.429 . S
C637 C635 1.422 . S
C637 C638 1.363 . S
C637 H640 0.929 1_545 S
C638 C637 1.363 . S
C638 C644 1.428 . S
H639 C635 0.921 1_565 S
H640 C637 0.929 1_565 S
S641 N642 1.613 . S
S641 N643 1.610 . S
N642 S641 1.613 . S
N642 C645 1.350 . S
N643 S641 1.610 . S
N643 C644 1.351 . S
C644 C638 1.428 . S
C644 N643 1.351 . S
C644 C645 1.434 . S
C645 C636 1.429 . S
C645 N642 1.350 . S
C645 C644 1.434 . S
C646 C647 1.369 . S
C646 C648 1.419 . S
C646 H650 0.930 . S
C647 C646 1.369 . S
C647 C656 1.429 . S
C648 C646 1.419 . S
C648 C649 1.363 . S
C648 H651 0.929 . S
C649 C648 1.363 . S
C649 C655 1.428 . S
H650 C646 0.930 . S
H651 C648 0.929 . S
S652 N653 1.613 . S
S652 N654 1.610 . S
N653 S652 1.613 . S
N653 C656 1.350 . S
N654 S652 1.610 . S
N654 C655 1.351 . S
C655 C649 1.428 . S
C655 N654 1.351 . S
C655 C656 1.434 . S
C656 C647 1.429 . S
C656 N653 1.350 . S
C656 C655 1.434 . S
C657 C658 1.369 . S
C657 C659 1.419 . S
C657 H661 0.930 . S
C658 C657 1.369 . S
C658 C667 1.429 . S
C659 C657 1.419 . S
C659 C660 1.363 . S
C659 H662 0.929 . S
C660 C659 1.363 . S
C660 C666 1.428 . S
H661 C657 0.930 . S
H662 C659 0.929 . S
S663 N664 1.613 . S
S663 N665 1.610 . S
N664 S663 1.613 . S
N664 C667 1.350 . S
N665 S663 1.610 . S
N665 C666 1.351 . S
C666 C660 1.428 . S
C666 N665 1.351 . S
C666 C667 1.434 . S
C667 C658 1.429 . S
C667 N664 1.350 . S
C667 C666 1.434 . S
C668 C669 1.369 1_455 S
C668 C670 1.419 . S
C668 H672 0.930 . S
C669 C668 1.369 1_655 S
C669 C678 1.429 . S
C670 C668 1.419 . S
C670 C671 1.363 1_455 S
C670 H673 0.929 . S
C671 C670 1.363 1_655 S
C671 C677 1.428 . S
H672 C668 0.930 . S
H673 C670 0.929 . S
S674 N675 1.613 . S
S674 N676 1.610 . S
N675 S674 1.613 . S
N675 C678 1.350 . S
N676 S674 1.610 . S
N676 C677 1.351 . S
C677 C671 1.428 . S
C677 N676 1.351 . S
C677 C678 1.434 . S
C678 C669 1.429 . S
C678 N675 1.350 . S
C678 C677 1.434 . S
C679 C680 1.369 . S
C679 C681 1.419 . S
C679 H683 0.930 . S
C680 C679 1.369 . S
C680 C689 1.429 1_565 S
C681 C679 1.419 . S
C681 C682 1.363 . S
C681 H684 0.929 . S
C682 C681 1.363 . S
C682 C688 1.428 1_565 S
H683 C679 0.930 . S
H684 C681 0.929 . S
S685 N686 1.613 . S
S685 N687 1.610 . S
N686 S685 1.613 . S
N686 C689 1.350 . S
N687 S685 1.610 . S
N687 C688 1.351 . S
C688 C682 1.428 1_545 S
C688 N687 1.351 . S
C688 C689 1.434 . S
C689 C680 1.429 1_545 S
C689 N686 1.350 . S
C689 C688 1.434 . S
C690 C691 1.369 . S
C690 C692 1.419 . S
C690 H694 0.930 . S
C691 C690 1.369 . S
C691 C700 1.429 . S
C692 C690 1.419 . S
C692 C693 1.363 . S
C692 H695 0.929 . S
C693 C692 1.363 . S
C693 C699 1.428 . S
H694 C690 0.930 . S
H695 C692 0.929 . S
S696 N697 1.613 . S
S696 N698 1.610 . S
N697 S696 1.613 . S
N697 C700 1.350 . S
N698 S696 1.610 . S
N698 C699 1.351 . S
C699 C693 1.428 . S
C699 N698 1.351 . S
C699 C700 1.434 . S
C700 C691 1.429 . S
C700 N697 1.350 . S
C700 C699 1.434 . S
C701 C702 1.369 . S
C701 C703 1.419 . S
C701 H705 0.930 . S
C702 C701 1.369 . S
C702 C711 1.429 . S
C703 C701 1.419 . S
C703 C704 1.363 . S
C703 H706 0.929 . S
C704 C703 1.363 . S
C704 C710 1.428 . S
H705 C701 0.930 . S
H706 C703 0.929 . S
S707 N708 1.613 . S
S707 N709 1.610 . S
N708 S707 1.613 . S
N708 C711 1.350 . S
N709 S707 1.610 . S
N709 C710 1.351 . S
C710 C704 1.428 . S
C710 N709 1.351 . S
C710 C711 1.434 . S
C711 C702 1.429 . S
C711 N708 1.350 . S
C711 C710 1.434 . S
C449 C241 2.446 . S
C451 C297 2.839 1_545 S
C462 C337 2.879 . S
C460 C277 2.570 . S
C473 C377 2.862 . S
C471 C169 2.466 . S
C484 C417 2.853 1_455 S
C482 C205 2.458 . S
C495 C306 2.838 1_564 S
C493 C97 2.450 . S
C504 C133 2.566 . S
C506 C346 2.880 1_554 S
C515 C25 2.487 . S
C517 C386 2.861 1_554 S
C526 C61 2.466 1_655 S
C528 C426 2.850 1_654 S
C539 C303 0.793 . S
C537 C211 0.820 1_655 S
C550 C343 0.809 . S
C548 C247 0.802 1_565 S
C561 C383 0.774 . S
C559 C253 0.752 . S
C570 C175 0.768 . S
C572 C423 0.778 . S
C581 C67 0.810 . S
C583 C294 0.799 . S
C594 C334 0.804 . S
C592 C103 0.793 . S
C605 C374 0.774 . S
C603 C109 0.756 . S
C614 C31 0.772 . S
C616 C414 0.780 . S
C625 C181 3.246 . S
C627 C307 3.725 . S
C636 C217 3.202 . S
C638 C347 3.691 . S
C649 C387 3.689 . S
C647 C283 3.142 . S
C660 C427 3.713 . S
C658 C145 3.220 . S
C669 C37 3.257 1_655 S
C671 C298 3.736 . S
C682 C338 3.689 . S
C680 C73 3.220 1_565 S
C693 C378 3.690 . S
C691 C139 3.119 . S
C702 C1 3.250 . S
C704 C418 3.716 . S
