# Generated by pormake.
# Topology zzz, (3,6)-cn, num edge types: 1
# Building blocks:
#     Node 0, Type 0, BuildingBlock: CUQRIR_clean_linker_1, # of connection points: 3
#     Node 1, Type 0, BuildingBlock: CUQRIR_clean_linker_1, # of connection points: 3
#     Node 2, Type 0, BuildingBlock: CUQRIR_clean_linker_1, # of connection points: 3
#     Node 3, Type 0, BuildingBlock: CUQRIR_clean_linker_1, # of connection points: 3
#     Node 4, Type 0, BuildingBlock: CUQRIR_clean_linker_1, # of connection points: 3
#     Node 5, Type 0, BuildingBlock: CUQRIR_clean_linker_1, # of connection points: 3
#     Node 6, Type 0, BuildingBlock: CUQRIR_clean_linker_1, # of connection points: 3
#     Node 7, Type 0, BuildingBlock: CUQRIR_clean_linker_1, # of connection points: 3
#     Node 8, Type 1, BuildingBlock: HISSIN_clean_sbu_0, # of connection points: 6
#     Node 9, Type 1, BuildingBlock: HISSIN_clean_sbu_0, # of connection points: 6
#     Node 10, Type 1, BuildingBlock: HISSIN_clean_sbu_0, # of connection points: 6
#     Node 11, Type 1, BuildingBlock: HISSIN_clean_sbu_0, # of connection points: 6
#     Edge 12, Type (0, 1), BuildingBlock: MIFKUJ_clean_linker_0, # of connection points: 2
#     Edge 13, Type (0, 1), BuildingBlock: MIFKUJ_clean_linker_0, # of connection points: 2
#     Edge 14, Type (0, 1), BuildingBlock: MIFKUJ_clean_linker_0, # of connection points: 2
#     Edge 15, Type (0, 1), BuildingBlock: MIFKUJ_clean_linker_0, # of connection points: 2
#     Edge 16, Type (0, 1), BuildingBlock: MIFKUJ_clean_linker_0, # of connection points: 2
#     Edge 17, Type (0, 1), BuildingBlock: MIFKUJ_clean_linker_0, # of connection points: 2
#     Edge 18, Type (0, 1), BuildingBlock: MIFKUJ_clean_linker_0, # of connection points: 2
#     Edge 19, Type (0, 1), BuildingBlock: MIFKUJ_clean_linker_0, # of connection points: 2
#     Edge 20, Type (0, 1), BuildingBlock: MIFKUJ_clean_linker_0, # of connection points: 2
#     Edge 21, Type (0, 1), BuildingBlock: MIFKUJ_clean_linker_0, # of connection points: 2
#     Edge 22, Type (0, 1), BuildingBlock: MIFKUJ_clean_linker_0, # of connection points: 2
#     Edge 23, Type (0, 1), BuildingBlock: MIFKUJ_clean_linker_0, # of connection points: 2
#     Edge 24, Type (0, 1), BuildingBlock: MIFKUJ_clean_linker_0, # of connection points: 2
#     Edge 25, Type (0, 1), BuildingBlock: MIFKUJ_clean_linker_0, # of connection points: 2
#     Edge 26, Type (0, 1), BuildingBlock: MIFKUJ_clean_linker_0, # of connection points: 2
#     Edge 27, Type (0, 1), BuildingBlock: MIFKUJ_clean_linker_0, # of connection points: 2
#     Edge 28, Type (0, 1), BuildingBlock: MIFKUJ_clean_linker_0, # of connection points: 2
#     Edge 29, Type (0, 1), BuildingBlock: MIFKUJ_clean_linker_0, # of connection points: 2
#     Edge 30, Type (0, 1), BuildingBlock: MIFKUJ_clean_linker_0, # of connection points: 2
#     Edge 31, Type (0, 1), BuildingBlock: MIFKUJ_clean_linker_0, # of connection points: 2
#     Edge 32, Type (0, 1), BuildingBlock: MIFKUJ_clean_linker_0, # of connection points: 2
#     Edge 33, Type (0, 1), BuildingBlock: MIFKUJ_clean_linker_0, # of connection points: 2
#     Edge 34, Type (0, 1), BuildingBlock: MIFKUJ_clean_linker_0, # of connection points: 2
#     Edge 35, Type (0, 1), BuildingBlock: MIFKUJ_clean_linker_0, # of connection points: 2
# Relax obj value: 0.250
# Max RMSD: 0.184
# Mean RMSD: 0.103
data_MOF--net-zzz--node1-HISSIN_clean_sbu_0--node2-CUQRIR_clean_linker_1--edge1-MIFKUJ_clean_linker_0
_symmetry_space_group_name_H-M    P1
_symmetry_Int_Tables_number       1
_symmetry_cell_setting            triclinic
loop_
_symmetry_equiv_pos_as_xyz
'x, y, z'
_cell_length_a     61.738112
_cell_length_b     62.077879
_cell_length_c     19.414307
_cell_angle_alpha  89.781225
_cell_angle_beta   92.315231
_cell_angle_gamma 90.310407
loop_
_atom_site_label
_atom_site_type_symbol
_atom_site_fract_x
_atom_site_fract_y
_atom_site_fract_z
_atom_type_partial_charge
C0 C 0.74709 0.52765 0.33723 0.0
N1 N 0.76853 0.53281 0.34261 0.0
N2 N 0.73711 0.5381 0.28301 0.0
C3 C 0.73634 0.51118 0.38118 0.0
C4 C 0.75334 0.54972 0.25584 0.0
N5 N 0.77249 0.54622 0.29077 0.0
C6 C 0.75047 0.56377 0.19275 0.0
H7 H 0.74043 0.49487 0.36258 0.0
H8 H 0.71846 0.51307 0.37823 0.0
H9 H 0.74249 0.51255 0.4355 0.0
H10 H 0.73628 0.57442 0.19788 0.0
H11 H 0.74719 0.55347 0.14686 0.0
H12 H 0.76498 0.57395 0.18478 0.0
C13 C 1.00885 0.75696 0.24198 0.0
N14 N 1.00179 0.77772 0.24517 0.0
N15 N 1.0011 0.74713 0.18297 0.0
C16 C 0.02236 0.74604 0.29755 0.0
C17 C 0.98941 0.76283 0.15029 0.0
N18 N 0.98963 0.78111 0.18802 0.0
C19 C 0.97961 0.76105 0.07816 0.0
H20 H 0.03973 0.74823 0.28651 0.0
H21 H 0.01876 0.72851 0.29887 0.0
H22 H 0.01951 0.75325 0.34859 0.0
H23 H 0.96252 0.75558 0.08076 0.0
H24 H 0.98855 0.74926 0.04739 0.0
H25 H 0.97975 0.77686 0.05138 0.0
C26 C 0.78933 0.01374 0.23706 0.0
N27 N 0.76943 1.00552 0.25157 0.0
N28 N 0.7983 1.00282 0.18398 0.0
C29 C 0.79979 0.03252 0.27368 0.0
C30 C 0.78283 0.9879 0.16672 0.0
N31 N 0.76564 0.98945 0.20775 0.0
C32 C 0.78426 0.97228 0.1079 0.0
H33 H 0.79508 0.04753 0.24586 0.0
H34 H 0.81771 0.03114 0.2742 0.0
H35 H 0.79422 0.03362 0.32719 0.0
H36 H 0.79481 0.95867 0.12451 0.0
H37 H 0.79163 0.98024 0.06314 0.0
H38 H 0.76821 0.96555 0.09169 0.0
C39 C 0.53409 0.78837 0.25985 0.0
N40 N 0.52223 0.76969 0.25988 0.0
N41 N 0.52689 0.80181 0.20821 0.0
C42 C 0.55242 0.79375 0.30993 0.0
C43 C 0.51031 0.7908 0.17733 0.0
N44 N 0.50739 0.77158 0.20855 0.0
C45 C 0.4983 0.79778 0.11191 0.0
H46 H 0.55408 0.81146 0.31595 0.0
H47 H 0.56773 0.78753 0.28978 0.0
H48 H 0.54984 0.78617 0.36083 0.0
H49 H 0.50255 0.78681 0.0696 0.0
H50 H 0.50228 0.81454 0.09705 0.0
H51 H 0.48057 0.79648 0.11819 0.0
C52 C 0.31061 0.49821 1.00814 0.0
N53 N 0.2887 0.49613 0.01311 0.0
N54 N 0.32092 0.49635 0.07157 0.0
C55 C 0.32185 0.50198 0.94225 0.0
C56 C 0.30455 0.49325 0.11473 0.0
N57 N 0.2853 0.49301 0.07951 0.0
C58 C 0.30718 0.49158 0.1921 0.0
H59 H 0.33885 0.49627 0.9467 0.0
H60 H 0.322 0.51953 0.93112 0.0
H61 H 0.313 0.49376 0.89887 0.0
H62 H 0.32346 0.49687 0.21156 0.0
H63 H 0.3047 0.47456 0.20765 0.0
H64 H 0.29469 0.50139 0.2168 0.0
C65 C 0.04223 0.27798 0.13627 0.0
N66 N 0.05055 0.25774 0.13185 0.0
N67 N 0.0509 0.28857 0.1927 0.0
C68 C 0.02603 0.28745 0.08537 0.0
C69 C 0.06437 0.27376 0.2227 0.0
N70 N 0.06441 0.25543 0.18543 0.0
C71 C 0.07615 0.27654 0.29162 0.0
H72 H 0.02796 0.30521 0.08257 0.0
H73 H 1.00948 0.28375 0.10245 0.0
H74 H 0.02777 0.2803 0.03359 0.0
H75 H 0.06656 0.28658 0.3263 0.0
H76 H 0.09185 0.28479 0.28383 0.0
H77 H 0.0796 0.26083 0.31696 0.0
C78 C 0.26247 0.02831 0.10738 0.0
N79 N 0.28188 0.03876 0.1 0.0
N80 N 0.25132 0.03671 0.16073 0.0
C81 C 0.25444 1.00997 0.0633 0.0
C82 C 0.26469 0.05249 0.1853 0.0
N83 N 0.28292 0.05375 0.14891 0.0
C84 C 0.26062 0.06595 0.24793 0.0
H85 H 0.23647 1.00909 0.06216 0.0
H86 H 0.26094 0.9947 0.08542 0.0
H87 H 0.26021 0.01172 0.01015 0.0
H88 H 0.24627 0.0604 0.27573 0.0
H89 H 0.2579 0.08289 0.23158 0.0
H90 H 0.27507 0.0657 0.2838 0.0
C91 C 0.51935 0.25512 0.09205 0.0
N92 N 0.53041 0.27337 0.07626 0.0
N93 N 0.53106 0.24276 0.13795 0.0
C94 C 0.49717 0.24948 0.06316 0.0
C95 C 0.54953 0.25428 0.14979 0.0
N96 N 0.54927 0.27272 0.11201 0.0
C97 C 0.5668 0.24853 0.20374 0.0
H98 H 0.48496 0.25801 0.09323 0.0
H99 H 0.4941 0.23189 0.06672 0.0
H100 H 0.49526 0.25488 1.0087 0.0
H101 H 0.56048 0.23743 0.24318 0.0
H102 H 0.5733 0.26319 0.22994 0.0
H103 H 0.58032 0.24045 0.17838 0.0
Eu104 Eu 1.01053 0.02954 0.6098 0.0
Eu105 Eu 0.0396 0.01093 0.7362 0.0
C106 C 0.02981 0.06087 0.72864 0.0
C107 C 0.99779 0.04802 0.43084 0.0
C108 C 0.992 0.06658 0.39348 0.0
C109 C 0.02682 0.04162 0.35273 0.0
C110 C 1.00432 0.0733 0.33847 0.0
C111 C 1.01457 0.03498 0.40797 0.0
C112 C 0.0227 0.06157 0.32034 0.0
C113 C 0.99012 0.04521 0.50096 0.0
O114 O 1.00616 0.01561 0.77954 0.0
O115 O 0.98455 0.01718 0.68141 0.0
C116 C 0.98673 0.01539 0.74911 0.0
O117 O 0.021 0.9963 0.57675 0.0
O118 O 0.05144 0.01545 0.84271 0.0
O119 O 0.0587 0.98595 0.78977 0.0
O120 O 0.02397 0.98158 0.68377 0.0
C121 C 0.02218 0.9792 0.61657 0.0
O122 O 0.04542 0.0344 0.57599 0.0
O123 O 0.06448 0.0126 0.65243 0.0
O124 O 0.04577 0.04702 0.73501 0.0
O125 O 0.98745 0.02542 0.52234 0.0
O126 O 1.00049 0.05708 0.5469 0.0
O127 O 1.01211 0.05545 0.69283 0.0
C128 C 0.04349 0.98345 0.89861 0.0
C129 C 0.02428 0.97356 0.87342 0.0
C130 C 0.03249 0.97666 0.01556 0.0
C131 C 1.00927 0.96554 0.91837 0.0
C132 C 0.04755 0.985 0.97004 0.0
C133 C 1.01304 0.96715 0.98988 0.0
C134 C 0.05667 0.99523 0.84946 0.0
C135 C 0.06342 0.02413 0.59506 0.0
H136 H 0.97924 0.07693 0.41077 0.0
H137 H 0.04067 0.03208 0.33942 0.0
H138 H 1.00074 0.08883 0.3152 0.0
H139 H 0.01944 0.02064 0.43641 0.0
H140 H 0.02049 0.97255 0.8186 0.0
H141 H 0.03584 0.97792 0.07059 0.0
H142 H 0.99473 0.95786 0.89687 0.0
H143 H 0.06201 0.99307 0.99044 0.0
Eu144 Eu 0.53655 0.04053 0.73999 0.0
Eu145 Eu 0.51979 1.00561 0.6284 0.0
C146 C 0.53679 0.98851 0.77521 0.0
C147 C 0.55788 0.05718 0.91274 0.0
C148 C 0.57782 0.06343 0.94302 0.0
C149 C 0.55392 0.03022 1.00245 0.0
C150 C 0.58632 0.0524 1.0004 0.0
C151 C 0.54556 0.04109 0.94426 0.0
C152 C 0.57489 0.03504 0.02917 0.0
C153 C 0.55282 0.0636 0.84132 0.0
O154 O 0.49083 1.01059 0.69775 0.0
O155 O 0.50009 0.042 0.75255 0.0
C156 C 0.4858 0.02673 0.73811 0.0
O157 O 0.5274 0.06325 0.6533 0.0
O158 O 0.49784 0.97926 0.59794 0.0
O159 O 0.51852 0.99344 0.52303 0.0
O160 O 0.51707 0.03796 0.57206 0.0
C161 C 0.52068 0.05811 0.59055 0.0
O162 O 0.56555 0.0353 0.67066 0.0
O163 O 0.55603 1.00414 0.61416 0.0
O164 O 0.53557 0.98407 0.70917 0.0
O165 O 0.56454 0.0539 0.79676 0.0
O166 O 0.53241 0.06413 0.82169 0.0
O167 O 0.53458 1.00839 0.79706 0.0
C168 C 0.48154 0.99073 0.49194 0.0
C169 C 0.4617 0.99328 0.5242 0.0
C170 C 0.46972 0.01676 0.40477 0.0
C171 C 0.44672 1.00846 0.49956 0.0
C172 C 0.48468 1.00151 0.42927 0.0
C173 C 0.4512 0.02117 0.44186 0.0
C174 C 0.50064 0.98276 0.53255 0.0
C175 C 0.57047 0.01917 0.62991 0.0
H176 H 0.58768 0.07555 0.91873 0.0
H177 H 0.54449 0.01726 0.02394 0.0
H178 H 0.60266 0.05646 0.01824 0.0
H179 H 0.53015 0.03586 0.92118 0.0
H180 H 0.45859 0.98509 0.57221 0.0
H181 H 0.47317 0.02584 0.35869 0.0
H182 H 0.43243 0.01131 0.5287 0.0
H183 H 0.49968 0.99972 0.40276 0.0
Eu184 Eu 0.51033 0.52803 0.71982 0.0
Eu185 Eu 0.54819 0.51321 0.6198 0.0
C186 C 0.55951 0.52604 0.77685 0.0
C187 C 0.46622 0.56173 0.79086 0.0
C188 C 0.46989 0.57703 0.7392 0.0
C189 C 0.44427 0.58752 0.84965 0.0
C190 C 0.46161 0.59779 0.74445 0.0
C191 C 0.45272 0.56677 0.84465 0.0
C192 C 0.44948 0.60346 0.80124 0.0
C193 C 0.47901 0.54195 0.79391 0.0
O194 O 0.5406 0.48202 0.67621 0.0
O195 O 0.51046 0.4918 0.73491 0.0
C196 C 0.52467 0.47727 0.7171 0.0
O197 O 0.49569 0.5267 0.61059 0.0
O198 O 0.58035 0.49943 0.60872 0.0
O199 O 0.56344 0.51405 0.52067 0.0
O200 O 0.51724 0.50094 0.56592 0.0
C201 C 0.49915 0.51208 0.56346 0.0
O202 O 0.52425 0.55964 0.68053 0.0
O203 O 0.5382 0.54652 0.58212 0.0
O204 O 0.5645 0.52968 0.71268 0.0
O205 O 0.47596 0.52864 0.74254 0.0
O206 O 0.49953 0.54493 0.80998 0.0
O207 O 0.53949 0.52101 0.7908 0.0
C208 C 0.58783 0.48604 0.49903 0.0
C209 C 0.57288 0.4721 0.46587 0.0
C210 C 0.61735 0.467 0.44766 0.0
C211 C 0.58012 0.45584 0.42324 0.0
C212 C 0.61007 0.4834 0.48991 0.0
C213 C 0.60241 0.4532 0.41356 0.0
C214 C 0.58055 0.50349 0.54286 0.0
C215 C 0.53138 0.5628 0.61832 0.0
H216 H 0.48034 0.57336 0.69733 0.0
H217 H 0.43522 0.59156 0.89446 0.0
H218 H 0.46589 0.60979 0.70666 0.0
H219 H 0.44985 0.55513 0.88506 0.0
H220 H 0.55565 0.4738 0.47288 0.0
H221 H 0.63459 0.46528 0.44098 0.0
H222 H 0.5683 0.44513 0.39855 0.0
H223 H 0.6218 0.49406 0.51537 0.0
Eu224 Eu 0.02855 0.52993 0.64228 0.0
Eu225 Eu 0.0204 0.49784 0.76997 0.0
C226 C 0.06922 0.51033 0.73275 0.0
C227 C 0.05653 0.54653 0.49297 0.0
C228 C 0.06927 0.52907 0.51548 0.0
C229 C 0.07705 0.54886 0.3895 0.0
C230 C 0.08553 0.52138 0.47552 0.0
C231 C 0.06024 0.55633 0.42944 0.0
C232 C 0.08995 0.53143 0.41288 0.0
C233 C 0.03879 0.55272 0.53599 0.0
O234 O 0.02319 0.53143 0.81674 0.0
O235 O 1.01477 0.5521 0.72176 0.0
C236 C 0.01769 0.5501 0.78897 0.0
O237 O 0.99342 0.52041 0.62663 0.0
O238 O 0.03225 0.48622 0.87041 0.0
O239 O 1.00269 0.47286 0.82396 0.0
O240 O 0.98617 0.50863 0.73537 0.0
C241 C 0.97955 0.51436 0.67243 0.0
O242 O 0.0363 0.49672 0.60101 0.0
O243 O 0.02018 0.47485 0.67967 0.0
O244 O 0.05627 0.49462 0.75062 0.0
O245 O 0.02277 0.53899 0.53443 0.0
O246 O 0.04479 0.55794 0.59895 0.0
O247 O 0.06121 0.52737 0.70075 0.0
C248 C 1.00397 0.4777 0.94344 0.0
C249 C 1.00398 0.49817 0.97417 0.0
C250 C 0.97615 0.46589 0.01949 0.0
C251 C 0.98959 0.50266 0.02563 0.0
C252 C 0.99068 0.46134 0.96846 0.0
C253 C 0.97488 0.48684 0.0461 0.0
C254 C 0.01522 0.47421 0.87952 0.0
C255 C 0.029 0.47773 0.61983 0.0
H256 H 0.06663 0.52127 0.5643 0.0
H257 H 0.08023 0.55693 0.34138 0.0
H258 H 0.09481 0.50763 0.49419 0.0
H259 H 0.05032 0.56967 0.41114 0.0
H260 H 1.01404 0.51108 0.95538 0.0
H261 H 0.96488 0.45349 0.03474 0.0
H262 H 0.98868 0.51898 0.04489 0.0
H263 H 0.99049 0.44549 0.94528 0.0
H264 H 0.21088 0.05073 0.12474 0.0
H265 H 0.17818 0.04708 0.19231 0.0
H266 H 0.21355 1.00696 0.33904 0.0
H267 H 0.24592 1.01021 0.26984 0.0
H268 H 0.1739 0.99252 0.33145 0.0
H269 H 0.20336 0.06421 0.3581 0.0
H270 H 0.21536 0.1 0.31894 0.0
H271 H 0.15142 0.11278 0.23355 0.0
H272 H 0.13915 0.07689 0.27106 0.0
H273 H 0.10361 1.00466 0.61357 0.0
H274 H 0.1343 1.00531 0.53746 0.0
H275 H 0.09829 0.04601 0.39469 0.0
H276 H 0.06757 0.04571 0.4711 0.0
H277 H 0.13751 0.05987 0.39792 0.0
H278 H 0.1075 0.98946 0.3684 0.0
H279 H 0.09434 0.95374 0.40443 0.0
H280 H 0.15757 0.93862 0.49093 0.0
H281 H 0.17104 0.9744 0.4563 0.0
C282 C 0.21139 0.04051 0.17008 0.0
C283 C 0.23092 0.03029 0.19068 0.0
C284 C 0.19275 0.03874 0.20981 0.0
C285 C 0.19312 0.0271 0.27264 0.0
C286 C 0.21244 0.01609 0.2914 0.0
C287 C 0.23101 0.01775 0.25134 0.0
C288 C 0.17391 0.02702 0.31988 0.0
C289 C 0.16621 1.00735 0.34645 0.0
C290 C 0.16305 0.04614 0.33911 0.0
C291 C 0.17041 0.06775 0.31673 0.0
C292 C 0.19191 0.07458 0.33052 0.0
C293 C 0.19875 0.0949 0.30864 0.0
C294 C 0.18418 0.10864 0.27363 0.0
C295 C 0.16271 0.10211 0.26053 0.0
C296 C 0.15581 0.08177 0.28205 0.0
C297 C 0.10211 0.01384 0.5661 0.0
C298 C 0.08279 0.02512 0.54923 0.0
C299 C 0.11978 0.01407 0.52189 0.0
C300 C 0.11882 0.02543 0.45866 0.0
C301 C 0.09969 0.03702 0.44247 0.0
C302 C 0.082 0.03681 0.48659 0.0
C303 C 0.13758 0.0254 0.40974 0.0
C304 C 0.14519 0.04504 0.38288 0.0
C305 C 0.14821 1.00625 0.38976 0.0
C306 C 0.14022 0.98469 0.41038 0.0
C307 C 0.11856 0.97858 0.39555 0.0
C308 C 0.11105 0.95831 0.41566 0.0
C309 C 0.1251 0.94394 0.4501 0.0
C310 C 0.1467 0.94978 0.46434 0.0
C311 C 0.15429 0.97005 0.44445 0.0
H312 H 0.11925 0.92826 0.46563 0.0
H313 H 0.18951 0.12437 0.2568 0.0
H314 H 0.49976 0.23587 0.22942 0.0
H315 H 0.49491 0.20333 0.30051 0.0
H316 H 0.54593 0.17194 0.1943 0.0
H317 H 0.5508 0.20455 0.12414 0.0
H318 H 0.51201 0.14377 0.21922 0.0
H319 H 0.55683 0.19441 0.34579 0.0
H320 H 0.56581 0.22966 0.39786 0.0
H321 H 0.51115 0.22416 0.52684 0.0
H322 H 0.50159 0.18902 0.47455 0.0
H323 H 0.53512 0.05847 0.45931 0.0
H324 H 0.53487 0.08835 0.37712 0.0
H325 H 0.49916 0.1268 0.51826 0.0
H326 H 0.50149 0.09753 0.60301 0.0
H327 H 0.5245 0.15178 0.47159 0.0
H328 H 0.4784 0.10119 0.3396 0.0
H329 H 0.46861 0.06719 0.27945 0.0
H330 H 0.52536 0.07246 0.16013 0.0
H331 H 0.53526 0.1066 0.21828 0.0
C332 C 0.5095 0.22179 0.22033 0.0
C333 C 0.52547 0.22258 0.17082 0.0
C334 C 0.5069 0.20326 0.26131 0.0
C335 C 0.52017 0.18509 0.25343 0.0
C336 C 0.53543 0.1856 0.20156 0.0
C337 C 0.53818 0.20419 0.16128 0.0
C338 C 0.5191 0.16608 0.30148 0.0
C339 C 0.51479 0.14547 0.27447 0.0
C340 C 0.52251 0.16817 0.37373 0.0
C341 C 0.52835 0.18919 0.40571 0.0
C342 C 0.54661 0.20079 0.38485 0.0
C343 C 0.55183 0.22074 0.41445 0.0
C344 C 0.53903 0.22917 0.46552 0.0
C345 C 0.52102 0.21763 0.48719 0.0
C346 C 0.5157 0.1977 0.45758 0.0
C347 C 0.52704 0.07326 0.4724 0.0
C348 C 0.51826 0.07558 0.53767 0.0
C349 C 0.52664 0.09042 0.42475 0.0
C350 C 0.51651 0.11012 0.43955 0.0
C351 C 0.5072 0.11207 0.50452 0.0
C352 C 0.50839 0.09522 0.55317 0.0
C353 C 0.51672 0.12909 0.39009 0.0
C354 C 0.5212 0.14985 0.41668 0.0
C355 C 0.51336 0.12709 0.31734 0.0
C356 C 0.50764 0.10631 0.28374 0.0
C357 C 0.48882 0.095 0.30083 0.0
C358 C 0.48324 0.07576 0.26706 0.0
C359 C 0.49644 0.06761 0.21664 0.0
C360 C 0.51517 0.07876 0.19935 0.0
C361 C 0.52072 0.0981 0.2324 0.0
H362 H 0.49209 0.0527 0.19073 0.0
H363 H 0.5431 0.24461 0.48841 0.0
H364 H 0.34314 0.53228 0.10751 0.0
H365 H 0.37672 0.5337 0.17944 0.0
H366 H 0.38253 0.46467 0.16379 0.0
H367 H 0.34855 0.46348 0.0935 0.0
H368 H 0.38788 0.47414 0.29049 0.0
H369 H 0.41829 0.50312 0.08975 0.0
H370 H 0.42373 0.52691 0.98986 0.0
H371 H 0.43272 0.58101 0.12543 0.0
H372 H 0.42636 0.55789 0.22531 0.0
H373 H 0.49283 0.47719 0.47677 0.0
H374 H 0.46523 0.4729 0.38259 0.0
H375 H 0.44123 0.53649 0.42253 0.0
H376 H 0.46822 0.54066 0.51736 0.0
H377 H 0.44792 0.52716 0.27789 0.0
H378 H 0.41328 0.49698 0.47631 0.0
H379 H 0.41083 0.47199 0.57474 0.0
H380 H 0.41361 0.41801 0.43778 0.0
H381 H 0.4164 0.44272 0.33859 0.0
C382 C 0.3522 0.51759 0.11688 0.0
C383 C 0.34361 0.49785 0.09305 0.0
C384 C 0.37135 0.51832 0.15866 0.0
C385 C 0.38253 0.49929 0.17746 0.0
C386 C 0.37443 0.47965 0.15056 0.0
C387 C 0.3552 0.47895 0.10921 0.0
C388 C 0.40138 0.49966 0.22951 0.0
C389 C 0.40116 0.48554 0.28656 0.0
C390 C 0.41883 0.5146 0.22606 0.0
C391 C 0.42158 0.52876 0.16519 0.0
C392 C 0.421 0.52018 0.09812 0.0
C393 C 0.42423 0.53358 0.04133 0.0
C394 C 0.42836 0.55554 0.051 0.0
C395 C 0.42924 0.56412 0.11748 0.0
C396 C 0.42576 0.55087 0.17426 0.0
C397 C 0.48167 0.49025 0.4655 0.0
C398 C 0.48277 0.50924 0.50507 0.0
C399 C 0.46586 0.48776 0.41165 0.0
C400 C 0.45105 0.50437 0.39523 0.0
C401 C 0.45241 0.52344 0.43391 0.0
C402 C 0.46785 0.52575 0.48848 0.0
C403 C 0.43401 0.502 0.33831 0.0
C404 C 0.43463 0.51572 0.28075 0.0
C405 C 0.41713 0.48653 0.34065 0.0
C406 C 0.41532 0.47169 0.40016 0.0
C407 C 0.41358 0.47978 0.46726 0.0
C408 C 0.41208 0.46567 0.52317 0.0
C409 C 0.41214 0.44342 0.51256 0.0
C410 C 0.41361 0.43524 0.44595 0.0
C411 C 0.41514 0.4493 0.38987 0.0
H412 H 0.41098 0.43252 0.55591 0.0
H413 H 0.43101 0.56586 1.00705 0.0
H414 H 0.0809 0.31905 0.22497 0.0
H415 H 0.07583 0.35205 0.2906 0.0
H416 H 1.00677 0.34065 0.28365 0.0
H417 H 1.01218 0.30678 0.22131 0.0
H418 H 0.05885 0.38864 0.28176 0.0
H419 H 0.98365 0.35982 0.42598 0.0
H420 H 0.96671 0.32583 0.46322 0.0
H421 H 0.02862 0.29458 0.46604 0.0
H422 H 0.04596 0.32843 0.42976 0.0
H423 H 0.02592 0.47816 0.47872 0.0
H424 H 0.02709 0.44767 0.39968 0.0
H425 H 0.03815 0.40461 0.57249 0.0
H426 H 0.0351 0.43497 0.65169 0.0
H427 H 1.01501 0.3841 0.48977 0.0
H428 H 0.07965 0.42521 0.45258 0.0
H429 H 0.09935 0.45889 0.42795 0.0
H430 H 0.06661 0.46294 0.22907 0.0
H431 H 0.0464 0.4295 0.25297 0.0
C432 C 0.06461 0.32368 0.23711 0.0
C433 C 0.04699 0.31012 0.21857 0.0
C434 C 0.06167 0.34269 0.27452 0.0
C435 C 0.04094 0.34892 0.29421 0.0
C436 C 0.02306 0.33613 0.27126 0.0
C437 C 0.02608 0.31687 0.2345 0.0
C438 C 0.0384 0.36806 0.34123 0.0
C439 C 0.04919 0.38757 0.32708 0.0
C440 C 0.02625 0.36695 0.40177 0.0
C441 C 0.01603 0.34659 0.42438 0.0
C442 C 0.99364 0.3457 0.43478 0.0
C443 C 0.98398 0.32647 0.4557 0.0
C444 C 0.99657 0.30804 0.46675 0.0
C445 C 0.01887 0.30884 0.45723 0.0
C446 C 0.02862 0.32804 0.43647 0.0
C447 C 0.02863 0.46218 0.49984 0.0
C448 C 0.03059 0.45908 0.57166 0.0
C449 C 0.02947 0.44464 0.45438 0.0
C450 C 0.03334 0.42354 0.47909 0.0
C451 C 0.03518 0.42051 0.55115 0.0
C452 C 0.03357 0.43796 0.59671 0.0
C453 C 0.03545 0.4047 0.43046 0.0
C454 C 0.02461 0.38523 0.44434 0.0
C455 C 0.04822 0.40562 0.37111 0.0
C456 C 0.06133 0.42498 0.35489 0.0
C457 C 0.07662 0.43331 0.40364 0.0
C458 C 0.08779 0.45241 0.38997 0.0
C459 C 0.08403 0.46316 0.32733 0.0
C460 C 0.06933 0.45469 0.27782 0.0
C461 C 0.05805 0.43564 0.29135 0.0
H462 H 0.09272 0.4779 0.31678 0.0
H463 H 0.98905 0.29316 0.48285 0.0
H464 H 0.82965 0.97321 0.16512 0.0
H465 H 0.86126 0.97639 0.09325 0.0
H466 H 0.84567 0.04288 0.05208 0.0
H467 H 0.81366 0.03951 0.12369 0.0
H468 H 0.88989 0.03801 0.06759 0.0
H469 H 0.88103 0.95316 0.94851 0.0
H470 H 0.8524 0.92606 0.92383 0.0
H471 H 0.80451 0.97598 0.91077 0.0
H472 H 0.83289 1.0034 0.93409 0.0
H473 H 0.9858 0.01197 0.8907 0.0
H474 H 0.95462 0.01093 0.96419 0.0
H475 H 0.91147 0.01448 0.78458 0.0
H476 H 0.94279 0.01546 0.71025 0.0
H477 H 0.89525 0.98643 0.87453 0.0
H478 H 0.9221 0.05889 0.89254 0.0
H479 H 0.94982 0.08708 0.91432 0.0
H480 H 0.95989 0.06445 0.12237 0.0
H481 H 0.93245 0.03591 0.10152 0.0
C482 C 0.83298 0.98856 0.14107 0.0
C483 C 0.81888 1.00603 0.15012 0.0
C484 C 0.85115 0.99038 0.0996 0.0
C485 C 0.85599 1.0098 0.06542 0.0
C486 C 0.84251 0.02764 0.07718 0.0
C487 C 0.82419 0.02577 0.11861 0.0
C488 C 0.87449 0.01107 0.0159 0.0
C489 C 0.891 0.02666 0.0256 0.0
C490 C 0.87619 0.99659 0.95972 0.0
C491 C 0.85907 0.9803 0.94371 0.0
C492 C 0.86441 0.95836 0.93995 0.0
C493 C 0.84822 0.94295 0.92624 0.0
C494 C 0.82665 0.94929 0.91595 0.0
C495 C 0.82122 0.97108 0.91894 0.0
C496 C 0.83735 0.98656 0.9324 0.0
C497 C 0.96973 0.01255 0.86629 0.0
C498 C 0.96712 0.01396 0.79371 0.0
C499 C 0.95174 0.01204 0.9089 0.0
C500 C 0.93033 0.01295 0.88091 0.0
C501 C 0.92763 0.01383 0.80834 0.0
C502 C 0.94568 0.01443 0.76554 0.0
C503 C 0.91096 0.01305 0.92715 0.0
C504 C 0.89422 0.99773 0.91672 0.0
C505 C 0.90902 0.02786 0.98236 0.0
C506 C 0.92533 0.04516 0.99529 0.0
C507 C 0.93032 0.05985 0.94282 0.0
C508 C 0.94597 0.0759 0.955 0.0
C509 C 0.95663 0.07754 0.01965 0.0
C510 C 0.95163 0.06316 0.0723 0.0
C511 C 0.93601 0.04705 0.06035 0.0
H512 H 0.96875 0.08997 0.02898 0.0
H513 H 0.81414 0.93732 0.90553 0.0
H514 H 0.51646 0.84156 0.25051 0.0
H515 H 0.52197 0.87531 0.18671 0.0
H516 H 0.55969 0.84109 0.0407 0.0
H517 H 0.55448 0.80757 0.1059 0.0
H518 H 0.57563 0.88061 0.05392 0.0
H519 H 0.50484 0.85088 0.01057 0.0
H520 H 0.46893 0.83663 0.03922 0.0
H521 H 0.45332 0.89698 0.13206 0.0
H522 H 0.48925 0.91152 0.10452 0.0
H523 H 0.5507 0.94708 0.75432 0.0
H524 H 0.55284 0.91724 0.83756 0.0
H525 H 0.52967 0.95891 0.99523 0.0
H526 H 0.528 0.98897 0.91289 0.0
H527 H 0.5072 0.91703 0.97971 0.0
H528 H 0.57844 0.94729 1.00671 0.0
H529 H 0.61333 0.96042 0.9652 0.0
H530 H 0.62758 0.89716 0.89131 0.0
H531 H 0.5925 0.88374 0.93104 0.0
C532 C 0.5267 0.84154 0.20655 0.0
C533 C 0.53546 0.82209 0.18403 0.0
C534 C 0.52956 0.86074 0.16923 0.0
C535 C 0.5409 0.86085 0.10761 0.0
C536 C 0.55088 0.84163 0.08778 0.0
C537 C 0.5481 0.82247 0.12539 0.0
C538 C 0.5409 0.88037 0.06126 0.0
C539 C 0.56063 0.88843 0.03745 0.0
C540 C 0.52141 0.89088 0.03942 0.0
C541 C 0.49983 0.88219 0.05626 0.0
C542 C 0.49381 0.86105 0.03758 0.0
C543 C 0.47344 0.85294 0.05352 0.0
C544 C 0.45889 0.86586 0.08772 0.0
C545 C 0.46464 0.88696 0.10577 0.0
C546 C 0.48499 0.89516 0.08995 0.0
C547 C 0.5462 0.94998 0.80681 0.0
C548 C 0.53918 0.97052 0.82661 0.0
C549 C 0.54745 0.93286 0.85445 0.0
C550 C 0.54137 0.93573 0.92283 0.0
C551 C 0.53439 0.95622 0.94284 0.0
C552 C 0.53356 0.97345 0.89562 0.0
C553 C 0.54187 0.91725 0.97288 0.0
C554 C 0.52221 0.90932 0.99691 0.0
C555 C 0.56136 0.90668 0.99375 0.0
C556 C 0.58271 0.91456 0.97126 0.0
C557 C 0.58894 0.9362 0.98121 0.0
C558 C 0.60875 0.9437 0.95803 0.0
C559 C 0.62262 0.92964 0.92545 0.0
C560 C 0.61678 0.90803 0.91645 0.0
C561 C 0.59692 0.90048 0.93928 0.0
H562 H 0.63787 0.93551 0.90698 0.0
H563 H 0.44313 0.85955 0.10003 0.0
H564 H 0.72372 0.50257 0.21326 0.0
H565 H 0.69142 0.49934 0.13542 0.0
H566 H 0.67123 0.56273 0.19561 0.0
H567 H 0.70369 0.56586 0.27244 0.0
H568 H 0.66895 0.56074 0.06282 0.0
H569 H 0.6472 0.46966 0.0728 0.0
H570 H 0.64819 0.43962 0.1565 0.0
H571 H 0.64515 0.48451 0.32345 0.0
H572 H 0.64378 0.51478 0.24083 0.0
H573 H 0.60328 0.53348 0.76672 0.0
H574 H 0.63139 0.5343 0.8591 0.0
H575 H 0.58313 0.52203 0.00899 0.0
H576 H 0.55497 0.52074 0.91654 0.0
H577 H 0.61767 0.49914 0.04265 0.0
H578 H 0.60608 0.57333 0.9848 0.0
H579 H 0.60295 0.605 0.90803 0.0
H580 H 0.66883 0.59674 0.85062 0.0
H581 H 0.67226 0.56484 0.92641 0.0
C582 C 0.71196 0.51546 0.21129 0.0
C583 C 0.71601 0.53434 0.24956 0.0
C584 C 0.69352 0.51369 0.16653 0.0
C585 C 0.67862 0.53077 0.15916 0.0
C586 C 0.68234 0.5493 0.19971 0.0
C587 C 0.70078 0.55105 0.24424 0.0
C588 C 0.66012 0.53006 0.10605 0.0
C589 C 0.65779 0.54721 0.05871 0.0
C590 C 0.64517 0.51263 0.10036 0.0
C591 C 0.6457 0.49452 0.15055 0.0
C592 C 0.64667 0.47312 0.12735 0.0
C593 C 0.6473 0.45605 0.17461 0.0
C594 C 0.6469 0.46018 0.24522 0.0
C595 C 0.64561 0.48135 0.26875 0.0
C596 C 0.64494 0.49848 0.22172 0.0
C597 C 0.59856 0.53104 0.81931 0.0
C598 C 0.57669 0.5272 0.83376 0.0
C599 C 0.61474 0.53156 0.87242 0.0
C600 C 0.60955 0.5285 0.9418 0.0
C601 C 0.58774 0.52446 0.95626 0.0
C602 C 0.57155 0.52385 0.90312 0.0
C603 C 0.62678 0.52965 0.999 0.0
C604 C 0.62889 0.51261 0.0469 0.0
C605 C 0.64133 0.54735 1.00614 0.0
C606 C 0.63936 0.56659 0.9608 0.0
C607 C 0.61985 0.57819 0.95545 0.0
C608 C 0.61803 0.59619 0.91217 0.0
C609 C 0.63567 0.60285 0.87435 0.0
C610 C 0.65518 0.59155 0.87989 0.0
C611 C 0.65707 0.57352 0.92305 0.0
H612 H 0.63422 0.61679 0.84086 0.0
H613 H 0.64761 0.44696 0.28167 0.0
H614 H 0.96922 0.71982 0.14025 0.0
H615 H 0.97291 0.68571 0.08016 0.0
H616 H 0.0424 0.68958 0.11177 0.0
H617 H 0.03858 0.72479 0.16804 0.0
H618 H 0.03523 0.67672 0.98924 0.0
H619 H 1.00686 0.65015 0.20078 0.0
H620 H 0.98146 0.64889 0.2957 0.0
H621 H 0.92846 0.63685 0.1507 0.0
H622 H 0.95355 0.63801 0.05495 0.0
H623 H 0.02008 0.55208 0.93103 0.0
H624 H 0.01822 0.58387 1.00477 0.0
H625 H 1.00856 0.6241 0.82485 0.0
H626 H 1.01057 0.59242 0.75079 0.0
H627 H 0.9884 0.6131 0.02962 0.0
H628 H 0.03188 0.67339 0.85247 0.0
H629 H 0.05974 0.67316 0.76485 0.0
H630 H 0.08711 0.61556 0.8543 0.0
H631 H 0.05962 0.61561 0.94297 0.0
C632 C 0.98529 0.71331 0.13489 0.0
C633 C 1.00359 0.72511 0.1589 0.0
C634 C 0.98742 0.69356 0.10098 0.0
C635 C 1.00796 0.6845 0.09167 0.0
C636 C 0.02631 0.69597 0.11787 0.0
C637 C 0.02416 0.71602 0.15099 0.0
C638 C 1.01017 0.66377 0.05174 0.0
C639 C 0.02499 0.66285 0.99852 0.0
C640 C 0.99713 0.64526 0.06334 0.0
C641 C 0.98205 0.64427 0.12078 0.0
C642 C 0.98977 0.64729 0.1892 0.0
C643 C 0.97544 0.64657 0.24312 0.0
C644 C 0.95335 0.64285 0.22922 0.0
C645 C 0.94555 0.6398 0.16137 0.0
C646 C 0.95984 0.64037 0.10729 0.0
C647 C 0.01752 0.56766 0.90691 0.0
C648 C 0.01559 0.5695 0.83447 0.0
C649 C 0.01639 0.58592 0.94941 0.0
C650 C 1.01352 0.60665 0.92092 0.0
C651 C 1.01116 0.60847 0.84864 0.0
C652 C 1.0122 0.59021 0.80611 0.0
C653 C 1.01315 0.62629 0.96651 0.0
C654 C 0.99867 0.62698 0.0206 0.0
C655 C 0.02679 0.64443 0.95654 0.0
C656 C 0.04354 0.64441 0.90391 0.0
C657 C 0.0439 0.66073 0.85358 0.0
C658 C 0.05962 0.66062 0.80371 0.0
C659 C 0.07514 0.64432 0.80387 0.0
C660 C 0.07503 0.62813 0.85406 0.0
C661 C 0.05937 0.62818 0.90409 0.0
H662 H 0.08728 0.64426 0.76519 0.0
H663 H 0.94229 0.64228 0.27103 0.0
H664 H 0.04418 0.22744 0.2642 0.0
H665 H 0.055 0.19051 0.2898 0.0
H666 H 0.1138 0.20033 0.18006 0.0
H667 H 0.10283 0.23789 0.15623 0.0
H668 H 0.09414 0.16602 0.13364 0.0
H669 H 0.11699 0.18673 0.35707 0.0
H670 H 0.11597 0.20675 0.46637 0.0
H671 H 0.05585 0.1758 0.51194 0.0
H672 H 0.05648 0.15559 0.40311 0.0
H673 H 0.06606 0.06135 0.34959 0.0
H674 H 0.09208 0.08828 0.31435 0.0
H675 H 0.04411 0.11483 0.17083 0.0
H676 H 0.01804 0.08746 0.20504 0.0
H677 H 0.07963 0.12749 0.35105 0.0
H678 H 0.07305 0.14797 0.04951 0.0
H679 H 0.07666 0.12888 0.94126 0.0
H680 H 0.10768 0.07613 0.04842 0.0
H681 H 0.10538 0.0955 0.15817 0.0
C682 C 0.05967 0.22175 0.24753 0.0
C683 C 0.07274 0.23509 0.20857 0.0
C684 C 0.06592 0.20071 0.26195 0.0
C685 C 0.0853 0.19257 0.23697 0.0
C686 C 0.09885 0.20628 0.20008 0.0
C687 C 0.09267 0.22758 0.18655 0.0
C688 C 0.08945 0.16914 0.24228 0.0
C689 C 0.09124 0.15741 0.18106 0.0
C690 C 0.08702 0.158 0.30507 0.0
C691 C 0.08687 0.16955 0.37196 0.0
C692 C 0.10358 0.18415 0.39049 0.0
C693 C 0.10307 0.19553 0.45241 0.0
C694 C 0.08589 0.1925 0.49617 0.0
C695 C 0.06921 0.17803 0.47822 0.0
C696 C 0.06971 0.16651 0.4166 0.0
C697 C 0.06137 0.07207 0.30776 0.0
C698 C 0.03983 0.07248 0.28114 0.0
C699 C 0.0763 0.08759 0.28787 0.0
C700 C 0.06995 0.10374 0.24083 0.0
C701 C 0.04939 0.10247 0.20726 0.0
C702 C 0.0344 0.08694 0.22732 0.0
C703 C 0.0818 0.12452 0.24088 0.0
C704 C 0.08322 0.13577 0.30353 0.0
C705 C 0.08735 0.13506 0.17933 0.0
C706 C 0.08862 0.12316 0.11311 0.0
C707 C 0.08066 0.13234 0.05073 0.0
C708 C 0.08251 0.12142 0.98863 0.0
C709 C 0.09206 0.1011 0.98774 0.0
C710 C 0.10008 0.09179 0.04916 0.0
C711 C 0.09854 0.10279 0.11148 0.0
H712 H 0.0934 0.09266 0.93943 0.0
H713 H 0.08548 0.20137 0.544 0.0
H714 H 0.28836 0.09684 0.16581 0.0
H715 H 0.32173 0.11518 0.20997 0.0
H716 H 0.35418 0.05379 0.2224 0.0
H717 H 0.32096 0.03569 0.18228 0.0
H718 H 0.34339 0.10331 0.34286 0.0
H719 H 0.40226 0.05977 0.15817 0.0
H720 H 0.40446 0.05358 0.03367 0.0
H721 H 0.36351 0.10805 0.99106 0.0
H722 H 0.36152 0.11507 0.11553 0.0
H723 H 0.40705 0.02237 0.43647 0.0
H724 H 0.38399 0.05189 0.39639 0.0
H725 H 0.44038 0.09121 0.36238 0.0
H726 H 0.46376 0.0618 0.40565 0.0
H727 H 0.41385 0.08467 0.24542 0.0
H728 H 0.40555 0.11446 0.4605 0.0
H729 H 0.40249 0.11605 0.58654 0.0
H730 H 0.34127 0.08299 0.56975 0.0
H731 H 0.34406 0.08083 0.44385 0.0
C732 C 0.30274 0.08748 0.17813 0.0
C733 C 0.30238 0.06496 0.17075 0.0
C734 C 0.32171 0.09791 0.20242 0.0
C735 C 0.34044 0.08585 0.21769 0.0
C736 C 0.34002 0.06343 0.20904 0.0
C737 C 0.32113 0.05308 0.18639 0.0
C738 C 0.36 0.0954 0.25114 0.0
C739 C 0.35899 0.09992 0.32163 0.0
C740 C 0.38032 0.09206 0.22203 0.0
C741 C 0.38195 0.08815 0.14669 0.0
C742 C 0.39399 0.07071 0.12251 0.0
C743 C 0.39513 0.06698 0.05179 0.0
C744 C 0.3842 0.08046 1.0045 0.0
C745 C 0.37204 0.09767 0.02781 0.0
C746 C 0.37092 0.10156 0.09849 0.0
C747 C 0.41456 0.03747 0.42228 0.0
C748 C 0.43718 0.03962 0.42244 0.0
C749 C 0.40138 0.05442 0.39995 0.0
C750 C 0.41054 0.07382 0.37716 0.0
C751 C 0.43309 0.07642 0.38027 0.0
C752 C 0.44634 0.05951 0.40365 0.0
C753 C 0.39641 0.08898 0.33803 0.0
C754 C 0.39859 0.08943 0.26643 0.0
C755 C 0.37706 0.09632 0.36624 0.0
C756 C 0.37495 0.09769 0.44222 0.0
C757 C 0.39143 0.10749 0.48358 0.0
C758 C 0.38974 0.10847 0.55511 0.0
C759 C 0.37166 0.09969 0.58611 0.0
C760 C 0.35522 0.08989 0.54562 0.0
C761 C 0.35681 0.08886 0.47405 0.0
H762 H 0.3704 0.10043 0.64151 0.0
H763 H 0.38516 0.07758 0.94981 0.0
H764 H 0.54073 0.31347 0.14777 0.0
H765 H 0.56655 0.34217 0.17365 0.0
H766 H 0.61929 0.29928 0.1346 0.0
H767 H 0.59288 0.27096 0.09967 0.0
H768 H 0.60292 0.32557 0.28892 0.0
H769 H 0.64218 0.32973 0.08115 0.0
H770 H 0.64984 0.33189 0.95754 0.0
H771 H 0.60703 0.38591 0.93303 0.0
H772 H 0.59922 0.38412 0.05661 0.0
H773 H 0.63492 0.42427 0.44141 0.0
H774 H 0.64307 0.39204 0.37469 0.0
H775 H 0.59435 0.41041 0.22013 0.0
H776 H 0.58664 0.44274 0.28537 0.0
H777 H 0.62749 0.39007 0.16188 0.0
H778 H 0.58156 0.37934 0.36159 0.0
H779 H 0.57519 0.38002 0.48626 0.0
H780 H 0.62978 0.33849 0.52517 0.0
H781 H 0.63658 0.3378 0.40066 0.0
C782 C 0.55762 0.31057 0.13941 0.0
C783 C 0.56467 0.29024 0.11913 0.0
C784 C 0.57248 0.32688 0.15551 0.0
C785 C 0.5948 0.32296 0.15487 0.0
C786 C 0.60211 0.30276 0.13386 0.0
C787 C 0.58707 0.28661 0.11466 0.0
C788 C 0.60936 0.33888 0.18921 0.0
C789 C 0.60922 0.33936 0.2614 0.0
C790 C 0.61728 0.35688 0.15323 0.0
C791 C 0.61995 0.35663 0.07786 0.0
C792 C 0.63416 0.34186 0.04915 0.0
C793 C 0.63875 0.34319 0.97931 0.0
C794 C 0.62907 0.35914 0.93759 0.0
C795 C 0.61464 0.37367 0.9655 0.0
C796 C 0.61015 0.37251 0.03543 0.0
C797 C 0.62641 0.42167 0.39225 0.0
C798 C 0.60982 0.43568 0.36907 0.0
C799 C 0.63106 0.40328 0.3543 0.0
C800 C 0.61907 0.39867 0.29309 0.0
C801 C 0.60378 0.41361 0.26731 0.0
C802 C 0.59916 0.43193 0.30502 0.0
C803 C 0.61964 0.37714 0.26085 0.0
C804 C 0.62241 0.37583 0.18966 0.0
C805 C 0.61386 0.35839 0.29763 0.0
C806 C 0.60975 0.35875 0.37221 0.0
C807 C 0.59226 0.37047 0.39687 0.0
C808 C 0.58857 0.37085 0.46743 0.0
C809 C 0.60212 0.35937 0.51364 0.0
C810 C 0.61934 0.34743 0.48934 0.0
C811 C 0.62313 0.34705 0.41882 0.0
H812 H 0.59923 0.35966 0.56825 0.0
H813 H 0.63259 0.3601 0.88349 0.0
H814 H 0.25751 0.5257 0.06963 0.0
H815 H 0.22222 0.52787 0.12247 0.0
H816 H 0.23146 0.46446 0.20973 0.0
H817 H 0.26679 0.46213 0.15535 0.0
H818 H 0.1888 0.4717 0.15976 0.0
H819 H 0.24296 0.50606 0.30751 0.0
H820 H 0.27363 0.53077 0.33293 0.0
H821 H 0.2345 0.58462 0.26734 0.0
H822 H 0.20369 0.56017 0.24045 0.0
H823 H 0.12952 0.52098 0.46799 0.0
H824 H 0.16089 0.50858 0.40854 0.0
H825 H 0.12531 0.51402 0.21336 0.0
H826 H 0.09312 0.5257 0.27338 0.0
H827 H 0.18136 0.53319 0.31969 0.0
H828 H 0.14576 0.47866 0.10622 0.0
H829 H 0.1172 0.45108 0.08659 0.0
H830 H 0.12203 0.43332 0.3006 0.0
H831 H 0.15014 0.46121 0.32178 0.0
C832 C 0.25177 0.51219 0.0994 0.0
C833 C 0.26454 0.49383 0.10936 0.0
C834 C 0.23176 0.5134 0.12911 0.0
C835 C 0.22445 0.49639 0.16976 0.0
C836 C 0.23693 0.47769 0.17818 0.0
C837 C 0.25702 0.47645 0.14813 0.0
C838 C 0.20462 0.49915 0.20777 0.0
C839 C 0.18712 0.48507 0.19498 0.0
C840 C 0.2027 0.51647 0.2541 0.0
C841 C 0.22106 0.53127 0.27165 0.0
C842 C 0.24093 0.52316 0.29823 0.0
C843 C 0.25834 0.53712 0.31288 0.0
C844 C 0.25602 0.55925 0.30171 0.0
C845 C 0.23627 0.56747 0.27599 0.0
C846 C 0.21882 0.55358 0.2611 0.0
C847 C 0.12812 0.51912 0.41253 0.0
C848 C 0.10884 0.52421 0.37523 0.0
C849 C 0.1461 0.51208 0.37872 0.0
C850 C 0.14528 0.51026 0.30689 0.0
C851 C 0.12605 0.51508 0.26908 0.0
C852 C 0.10787 0.52207 0.30316 0.0
C853 C 0.1654 0.50574 0.27198 0.0
C854 C 0.18298 0.51972 0.28483 0.0
C855 C 0.16748 0.48807 0.22723 0.0
C856 C 0.14988 0.47208 0.21557 0.0
C857 C 0.14057 0.46897 0.14911 0.0
C858 C 0.12443 0.45335 0.13779 0.0
C859 C 0.11773 0.44054 0.19241 0.0
C860 C 0.12711 0.44338 0.25848 0.0
C861 C 0.14299 0.45922 0.27031 0.0
H862 H 0.10531 0.42838 0.18354 0.0
H863 H 0.26952 0.57003 0.31306 0.0
H864 H 1.00959 0.81955 0.181 0.0
H865 H 0.99265 0.85436 0.15569 0.0
H866 H 0.93087 0.82282 0.11849 0.0
H867 H 0.94763 0.78794 0.14965 0.0
H868 H 0.95803 0.8586 0.01177 0.0
H869 H 0.91617 0.84732 0.20319 0.0
H870 H 0.90727 0.83374 0.31801 0.0
H871 H 0.95439 0.87658 0.41228 0.0
H872 H 0.96385 0.89005 0.29757 0.0
H873 H 0.96879 0.97013 0.98267 0.0
H874 H 0.9437 0.94379 0.02994 0.0
H875 H 0.99684 0.91438 0.14565 0.0
H876 H 0.02194 0.94046 0.09862 0.0
H877 H 0.94906 0.91069 0.20169 0.0
H878 H 0.99778 0.89034 0.99077 0.0
H879 H 1.00968 0.90403 0.87863 0.0
H880 H 0.94456 0.92368 0.82473 0.0
H881 H 0.93238 0.91011 0.93669 0.0
C882 C 0.99234 0.82014 0.1687 0.0
C883 C 0.97979 0.80128 0.16824 0.0
C884 C 0.9827 0.83991 0.15412 0.0
C885 C 0.96047 0.84109 0.13673 0.0
C886 C 0.94795 0.8222 0.13334 0.0
C887 C 0.95754 0.80238 0.15015 0.0
C888 C 0.95141 0.86239 0.11906 0.0
C889 C 0.95474 0.86997 0.05232 0.0
C890 C 0.94705 0.87712 0.17206 0.0
C891 C 0.94114 0.86941 0.24151 0.0
C892 C 0.92493 0.8536 0.24822 0.0
C893 C 0.91968 0.84598 0.31335 0.0
C894 C 0.93035 0.85422 0.37242 0.0
C895 C 0.94616 0.8702 0.36645 0.0
C896 C 0.95148 0.87782 0.30138 0.0
C897 C 0.97494 0.9586 0.02054 0.0
C898 C 0.99738 0.95695 0.0358 0.0
C899 C 0.96054 0.94372 0.04791 0.0
C900 C 0.96849 0.92713 0.09082 0.0
C901 C 0.9904 0.92725 0.11309 0.0
C902 C 1.00478 0.94213 0.08597 0.0
C903 C 0.95659 0.90657 0.09547 0.0
C904 C 0.95014 0.89926 0.15989 0.0
C905 C 0.95723 0.89199 0.03987 0.0
C906 C 0.96419 0.89908 0.97138 0.0
C907 C 0.98602 0.89738 0.95453 0.0
C908 C 0.99281 0.90518 0.89124 0.0
C909 C 0.97787 0.91463 0.84445 0.0
C910 C 0.9561 0.91628 0.86088 0.0
C911 C 0.94924 0.90852 0.92416 0.0
H912 H 0.98317 0.92075 0.79561 0.0
H913 H 0.9263 0.84828 0.42281 0.0
H914 H 0.74651 0.96303 0.298 0.0
H915 H 0.70763 0.95377 0.29638 0.0
H916 H 0.69931 0.98463 0.09745 0.0
H917 H 0.73771 0.99411 0.10039 0.0
H918 H 0.67516 0.98229 0.29666 0.0
H919 H 0.66328 0.96391 0.99993 0.0
H920 H 0.68067 0.94134 0.91415 0.0
H921 H 0.70625 0.90011 0.07535 0.0
H922 H 0.6889 0.92232 0.16227 0.0
H923 H 0.60485 0.04596 0.13056 0.0
H924 H 0.63112 0.0223 0.18461 0.0
H925 H 0.59575 0.96688 0.10598 0.0
H926 H 0.57116 0.99084 0.04102 0.0
H927 H 0.63432 0.96088 0.08214 0.0
H928 H 0.60514 0.97394 0.29519 0.0
H929 H 0.5834 0.99818 0.3648 0.0
H930 H 0.63524 0.04441 0.3719 0.0
H931 H 0.65777 0.02011 0.30472 0.0
C932 C 0.73633 0.9671 0.25318 0.0
C933 C 0.74491 0.97897 0.19877 0.0
C934 C 0.71423 0.96192 0.2524 0.0
C935 C 0.70061 0.96822 0.19641 0.0
C936 C 0.70956 0.97906 0.14042 0.0
C937 C 0.73149 0.9844 0.1417 0.0
C938 C 0.67672 0.96623 0.19836 0.0
C939 C 0.66604 0.97691 0.25093 0.0
C940 C 0.66455 0.9584 0.14034 0.0
C941 C 0.67468 0.94478 0.08776 0.0
C942 C 0.67242 0.94992 0.01718 0.0
C943 C 0.68236 0.93723 0.96832 0.0
C944 C 0.69452 0.91928 0.98926 0.0
C945 C 0.69682 0.91402 0.05918 0.0
C946 C 0.68698 0.92668 0.10829 0.0
C947 C 0.60248 0.02876 0.12464 0.0
C948 C 0.58619 0.02047 0.07965 0.0
C949 C 0.61726 0.01507 0.15773 0.0
C950 C 0.61523 0.9926 0.15128 0.0
C951 C 0.59766 0.98413 0.11188 0.0
C952 C 0.58339 0.99793 0.07562 0.0
C953 C 0.63342 0.97873 0.17694 0.0
C954 C 0.64299 0.96497 0.12993 0.0
C955 C 0.64419 0.98277 0.2414 0.0
C956 C 0.63315 0.99514 0.29498 0.0
C957 C 0.61215 0.98903 0.31323 0.0
C958 C 0.59966 1.00284 0.35183 0.0
C959 C 0.60796 0.02287 0.37243 0.0
C960 C 0.629 0.02881 0.3563 0.0
C961 C 0.64179 0.01486 0.31895 0.0
H962 H 0.59816 0.03371 0.40148 0.0
H963 H 0.70217 0.90948 0.95132 0.0
H964 H 0.52289 0.73713 0.14547 0.0
H965 H 0.50193 0.71257 0.06922 0.0
H966 H 0.44272 0.74343 0.12485 0.0
H967 H 0.46391 0.76824 0.20056 0.0
H968 H 0.44569 0.692 0.10955 0.0
H969 H 0.45096 0.76027 0.9932 0.0
H970 H 0.47008 0.79338 0.95917 0.0
H971 H 0.51705 0.75553 0.85699 0.0
H972 H 0.49831 0.72217 0.89106 0.0
H973 H 0.41237 0.62337 0.84095 0.0
H974 H 0.41048 0.65876 0.89649 0.0
H975 H 0.47819 0.66949 0.85938 0.0
H976 H 0.47985 0.6349 0.80231 0.0
H977 H 0.45859 0.70674 0.86287 0.0
H978 H 0.45914 0.64014 1.00344 0.0
H979 H 0.4416 0.60591 0.03403 0.0
H980 H 0.385 0.64012 0.09328 0.0
H981 H 0.40207 0.67457 0.06081 0.0
C982 C 0.50537 0.73811 0.14281 0.0
C983 C 0.49484 0.75432 0.17822 0.0
C984 C 0.49346 0.72429 0.09921 0.0
C985 C 0.47089 0.72648 0.09116 0.0
C986 C 0.46014 0.74162 0.13056 0.0
C987 C 0.47214 0.75563 0.17364 0.0
C988 C 0.45914 0.71408 0.0369 0.0
C989 C 0.44787 0.69549 0.05544 0.0
C990 C 0.46214 0.71874 0.96664 0.0
C991 C 0.47329 0.73873 0.94502 0.0
C992 C 0.46543 0.75901 0.96381 0.0
C993 C 0.47616 0.77782 0.94433 0.0
C994 C 0.49479 0.77656 0.90601 0.0
C995 C 0.50263 0.75648 0.88671 0.0
C996 C 0.49192 0.73762 0.90592 0.0
C997 C 0.42656 0.63371 0.84265 0.0
C998 C 0.4463 0.62637 0.81811 0.0
C999 C 0.4255 0.65387 0.87433 0.0
C1000 C 0.44435 0.6665 0.88383 0.0
C1001 C 0.46343 0.66005 0.85304 0.0
C1002 C 0.4644 0.64017 0.8205 0.0
C1003 C 0.44584 0.68407 0.93536 0.0
C1004 C 0.45541 0.70367 0.91659 0.0
C1005 C 0.44138 0.68028 1.00554 0.0
C1006 C 0.43175 0.65982 0.02912 0.0
C1007 C 0.44297 0.64032 0.02315 0.0
C1008 C 0.43307 0.62089 0.04057 0.0
C1009 C 0.41215 0.6208 0.06559 0.0
C1010 C 0.40117 0.6402 0.0737 0.0
C1011 C 0.41092 0.65968 0.0556 0.0
H1012 H 0.4044 0.60574 0.07863 0.0
H1013 H 0.50312 0.79114 0.89123 0.0
H1014 H 0.78437 0.53753 0.16182 0.0
H1015 H 0.82115 0.53458 0.12352 0.0
H1016 H 0.84606 0.55481 0.32358 0.0
H1017 H 0.80885 0.56165 0.35834 0.0
H1018 H 0.87327 0.56556 0.21302 0.0
H1019 H 0.85327 0.4864 0.30066 0.0
H1020 H 0.82424 0.45903 0.31083 0.0
H1021 H 0.80189 0.47225 0.10284 0.0
H1022 H 0.83069 0.49966 0.09218 0.0
H1023 H 0.97303 0.50844 0.16883 0.0
H1024 H 0.94018 0.52229 0.2208 0.0
H1025 H 0.9012 0.49545 0.05197 0.0
H1026 H 0.9335 0.48088 1.00268 0.0
H1027 H 0.88276 0.48783 0.16388 0.0
H1028 H 0.91695 0.55088 0.06492 0.0
H1029 H 0.94831 0.57532 0.0544 0.0
H1030 H 0.94562 0.59163 0.26858 0.0
H1031 H 0.91439 0.56705 0.28059 0.0
C1032 C 0.79757 0.54258 0.19649 0.0
C1033 C 0.7937 0.54948 0.26366 0.0
C1034 C 0.81863 0.54015 0.17528 0.0
C1035 C 0.83618 0.54295 0.22232 0.0
C1036 C 0.83263 0.55197 0.28705 0.0
C1037 C 0.81143 0.55574 0.30696 0.0
C1038 C 0.85766 0.53446 0.20575 0.0
C1039 C 0.87544 0.54858 0.20249 0.0
C1040 C 0.8605 0.51229 0.19188 0.0
C1041 C 0.84301 0.4961 0.19764 0.0
C1042 C 0.84166 0.48388 0.25815 0.0
C1043 C 0.8255 0.46816 0.26361 0.0
C1044 C 0.81096 0.4642 0.20801 0.0
C1045 C 0.81286 0.47564 0.14641 0.0
C1046 C 0.82904 0.49132 0.14079 0.0
C1047 C 0.95732 0.50526 0.14399 0.0
C1048 C 0.9556 0.49335 0.08266 0.0
C1049 C 0.93867 0.51333 0.17307 0.0
C1050 C 0.91828 0.51011 0.13977 0.0
C1051 C 0.91672 0.49801 0.07887 0.0
C1052 C 0.93516 0.48959 0.05091 0.0
C1053 C 0.89823 0.51903 0.16712 0.0
C1054 C 0.88073 0.50488 0.17394 0.0
C1055 C 0.89567 0.54118 0.18198 0.0
C1056 C 0.91352 0.55695 0.17384 0.0
C1057 C 0.92306 0.55968 0.10977 0.0
C1058 C 0.94082 0.57351 0.10357 0.0
C1059 C 0.94907 0.58485 0.16094 0.0
C1060 C 0.93929 0.58272 0.22432 0.0
C1061 C 0.92154 0.56887 0.23083 0.0
H1062 H 0.96304 0.59527 0.15629 0.0
H1063 H 0.79844 0.45205 0.21233 0.0
H1064 H 1.01247 0.23623 0.10488 0.0
H1065 H 1.00727 0.20357 0.0341 0.0
H1066 H 0.07438 0.20692 0.9805 0.0
H1067 H 0.07888 0.24005 0.04725 0.0
H1068 H 0.05543 0.19421 0.87579 0.0
H1069 H 0.04998 0.17048 0.10848 0.0
H1070 H 0.03756 0.16339 0.22534 0.0
H1071 H 0.97505 0.14433 0.1418 0.0
H1072 H 0.98735 0.15029 0.02396 0.0
H1073 H 0.06627 0.08408 0.76816 0.0
H1074 H 0.06854 0.11837 0.82962 0.0
H1075 H 0.99888 0.11969 0.83808 0.0
H1076 H 0.99654 0.08575 0.7737 0.0
H1077 H 0.01811 0.12956 0.96422 0.0
H1078 H 0.02725 0.153 0.72828 0.0
H1079 H 0.04531 0.15166 0.61732 0.0
H1080 H 0.10597 0.16882 0.71903 0.0
H1081 H 0.08835 0.16989 0.83079 0.0
C1082 C 0.02585 0.23025 0.07624 0.0
C1083 C 0.04605 0.24085 0.08117 0.0
C1084 C 0.02306 0.21124 0.03679 0.0
C1085 C 0.04052 0.20211 1.00222 0.0
C1086 C 0.06049 0.21325 1.00592 0.0
C1087 C 0.06313 0.2323 0.04429 0.0
C1088 C 0.03826 0.1813 0.96151 0.0
C1089 C 0.04739 0.18012 0.89611 0.0
C1090 C 0.02763 0.16254 0.98616 0.0
C1091 C 0.0196 0.16093 0.0571 0.0
C1092 C 0.03356 0.16488 0.11479 0.0
C1093 C 0.02656 0.16104 0.18132 0.0
C1094 C 1.00548 0.1537 0.19107 0.0
C1095 C 0.99136 0.15009 0.13422 0.0
C1096 C 0.99839 0.15355 0.06751 0.0
C1097 C 0.05141 0.0917 0.7828 0.0
C1098 C 0.03122 0.08209 0.76548 0.0
C1099 C 0.05271 0.1114 0.81844 0.0
C1100 C 0.03388 0.12187 0.8396 0.0
C1101 C 1.0137 0.11213 0.82285 0.0
C1102 C 1.01238 0.0927 0.78557 0.0
C1103 C 0.03515 0.14276 0.87946 0.0
C1104 C 0.0259 0.14387 0.94438 0.0
C1105 C 0.04614 0.16126 0.85545 0.0
C1106 C 0.05651 0.16138 0.78791 0.0
C1107 C 0.04445 0.15643 0.72698 0.0
C1108 C 0.05461 0.15571 0.66396 0.0
C1109 C 0.07679 0.16009 0.66119 0.0
C1110 C 0.08881 0.1654 0.7213 0.0
C1111 C 0.07874 0.16608 0.78446 0.0
H1112 H 0.08469 0.15933 0.61254 0.0
H1113 H 1.00013 0.15071 0.24266 0.0
H1114 H 0.30185 0.06939 0.02545 0.0
H1115 H 0.33518 0.06636 0.96323 0.0
H1116 H 0.3352 0.99773 0.99813 0.0
H1117 H 0.30244 1.0012 0.0657 0.0
H1118 H 0.37427 1.00868 0.01097 0.0
H1119 H 0.32329 0.02664 0.82942 0.0
H1120 H 0.29452 0.04688 0.76613 0.0
H1121 H 0.33516 0.10324 0.76635 0.0
H1122 H 0.36404 0.08346 0.83067 0.0
H1123 H 0.45654 0.99335 0.75652 0.0
H1124 H 0.42169 0.99402 0.81349 0.0
H1125 H 0.42957 0.06202 0.84979 0.0
H1126 H 0.46473 0.06133 0.7948 0.0
H1127 H 0.38645 0.04975 0.79638 0.0
H1128 H 0.43713 0.03019 0.98074 0.0
H1129 H 0.46603 1.00816 0.03637 0.0
H1130 H 0.4251 0.9521 0.02049 0.0
H1131 H 0.39604 0.97377 0.96386 0.0
C1132 C 0.30872 0.05355 0.0191 0.0
C1133 C 0.29903 0.03555 0.05043 0.0
C1134 C 0.32794 0.05176 0.98267 0.0
C1135 C 0.33809 0.0317 0.97351 0.0
C1136 C 0.32806 0.0135 1.00331 0.0
C1137 C 0.30893 0.01539 0.04119 0.0
C1138 C 0.35932 0.03002 0.93538 0.0
C1139 C 0.37656 0.01741 0.96333 0.0
C1140 C 0.36321 0.04154 0.87326 0.0
C1141 C 0.34575 0.0536 0.83552 0.0
C1142 C 0.32602 0.04341 0.81655 0.0
C1143 C 0.30969 0.0548 0.78041 0.0
C1144 C 0.31298 0.07635 0.76241 0.0
C1145 C 0.33261 0.08656 0.78048 0.0
C1146 C 0.34896 0.07526 0.81678 0.0
C1147 C 0.45091 1.00851 0.77639 0.0
C1148 C 0.46376 0.02729 0.77045 0.0
C1149 C 0.43087 1.00885 0.80946 0.0
C1150 C 0.42266 0.02807 0.83667 0.0
C1151 C 0.43526 0.04692 0.82959 0.0
C1152 C 0.45553 0.04649 0.79797 0.0
C1153 C 0.40109 0.02856 0.87221 0.0
C1154 C 0.3839 0.04093 0.84373 0.0
C1155 C 0.39713 0.01656 0.93293 0.0
C1156 C 0.4145 1.00355 0.96735 0.0
C1157 C 0.43436 0.01313 0.98856 0.0
C1158 C 0.45075 1.00071 0.02039 0.0
C1159 C 0.44743 0.97872 0.03175 0.0
C1160 C 0.42767 0.96912 0.01153 0.0
C1161 C 0.41122 0.98147 0.97962 0.0
H1162 H 0.46015 0.96913 0.05636 0.0
H1163 H 0.30034 0.08512 0.73431 0.0
H1164 H 0.54249 0.27808 0.94509 0.0
H1165 H 0.53676 0.30966 0.87023 0.0
H1166 H 0.50047 0.33991 0.02852 0.0
H1167 H 0.50387 0.30701 0.09877 0.0
H1168 H 0.48562 0.35459 0.91483 0.0
H1169 H 0.56112 0.34371 0.99763 0.0
H1170 H 0.59268 0.31954 1.0026 0.0
H1171 H 0.59639 0.32273 0.78276 0.0
H1172 H 0.56418 0.34607 0.77576 0.0
H1173 H 0.50355 0.46434 0.83196 0.0
H1174 H 0.50228 0.42862 0.88439 0.0
H1175 H 0.54038 0.40342 0.72188 0.0
H1176 H 0.54266 0.43956 0.67125 0.0
H1177 H 0.554 0.38517 0.82993 0.0
H1178 H 0.48183 0.39431 0.73916 0.0
H1179 H 0.44658 0.41224 0.71879 0.0
H1180 H 0.43534 0.40977 0.93552 0.0
H1181 H 0.47066 0.39207 0.9573 0.0
C1182 C 0.53275 0.29127 0.96263 0.0
C1183 C 0.52397 0.29033 0.0281 0.0
C1184 C 0.52977 0.30956 0.92044 0.0
C1185 C 0.51923 0.32802 0.94474 0.0
C1186 C 0.50908 0.32631 1.00835 0.0
C1187 C 0.51105 0.3075 0.04881 0.0
C1188 C 0.51985 0.34936 0.90671 0.0
C1189 C 0.50067 0.36134 0.89715 0.0
C1190 C 0.53924 0.35819 0.88071 0.0
C1191 C 0.56008 0.34642 0.88612 0.0
C1192 C 0.56868 0.3393 0.95034 0.0
C1193 C 0.5865 0.3255 0.95345 0.0
C1194 C 0.59638 0.31941 0.89312 0.0
C1195 C 0.58861 0.32731 0.82944 0.0
C1196 C 0.57051 0.34074 0.82579 0.0
C1197 C 0.51155 0.4512 0.8069 0.0
C1198 C 0.52308 0.45496 0.74679 0.0
C1199 C 0.5107 0.43058 0.83691 0.0
C1200 C 0.5208 0.41282 0.8068 0.0
C1201 C 0.53235 0.4166 0.74665 0.0
C1202 C 0.53358 0.43735 0.71735 0.0
C1203 C 0.51978 0.3906 0.83893 0.0
C1204 C 0.53893 0.3785 0.84766 0.0
C1205 C 0.50027 0.38147 0.86279 0.0
C1206 C 0.47898 0.39204 0.84991 0.0
C1207 C 0.4719 0.39771 0.78252 0.0
C1208 C 0.4519 0.40782 0.77072 0.0
C1209 C 0.43876 0.41218 0.82584 0.0
C1210 C 0.44556 0.4064 0.89288 0.0
C1211 C 0.46555 0.39631 0.90498 0.0
H1212 H 0.42328 0.42001 0.8166 0.0
H1213 H 0.61022 0.30877 0.89585 0.0
H1214 H 0.27804 0.52787 0.91949 0.0
H1215 H 0.24327 0.53123 0.85364 0.0
H1216 H 0.22345 0.4692 0.93103 0.0
H1217 H 0.25864 0.46528 0.99089 0.0
H1218 H 0.20594 0.47146 0.81638 0.0
H1219 H 0.20956 0.52667 0.99816 0.0
H1220 H 0.22472 0.55944 0.055 0.0
H1221 H 0.21459 0.5952 0.86711 0.0
H1222 H 0.19965 0.56274 0.80919 0.0
H1223 H 0.09124 0.47915 0.80837 0.0
H1224 H 0.12986 0.47755 0.84081 0.0
H1225 H 0.14065 0.53679 0.7305 0.0
H1226 H 0.10184 0.53869 0.69895 0.0
H1227 H 0.1637 0.53819 0.84625 0.0
H1228 H 0.15639 0.48592 0.66835 0.0
H1229 H 0.14083 0.4544 0.60688 0.0
H1230 H 0.15797 0.41388 0.78016 0.0
H1231 H 0.17338 0.44523 0.84309 0.0
C1232 C 0.26655 0.51464 0.91988 0.0
C1233 C 0.2712 0.49624 0.96027 0.0
C1234 C 0.2463 0.51677 0.88368 0.0
C1235 C 0.22991 0.50085 0.88872 0.0
C1236 C 0.23533 0.48193 0.92572 0.0
C1237 C 0.25562 0.47961 0.96005 0.0
C1238 C 0.20703 0.50362 0.85802 0.0
C1239 C 0.19676 0.48604 0.82403 0.0
C1240 C 0.19477 0.52284 0.86431 0.0
C1241 C 0.20377 0.54225 0.89932 0.0
C1242 C 0.21073 0.54151 0.96908 0.0
C1243 C 0.21924 0.55999 1.00142 0.0
C1244 C 0.22067 0.5793 0.96464 0.0
C1245 C 0.21353 0.58022 0.8955 0.0
C1246 C 0.20504 0.5618 0.86292 0.0
C1247 C 0.10178 0.49183 0.79053 0.0
C1248 C 0.09318 0.50902 0.75061 0.0
C1249 C 0.12405 0.49084 0.80899 0.0
C1250 C 0.1386 0.50688 0.78759 0.0
C1251 C 0.13002 0.52413 0.74793 0.0
C1252 C 0.1077 0.52516 0.72961 0.0
C1253 C 0.16255 0.50575 0.80753 0.0
C1254 C 0.17296 0.52363 0.8389 0.0
C1255 C 0.17499 0.48689 0.79848 0.0
C1256 C 0.16589 0.46796 0.76064 0.0
C1257 C 0.15672 0.47031 0.69353 0.0
C1258 C 0.14795 0.45247 0.6584 0.0
C1259 C 0.14838 0.43216 0.68965 0.0
C1260 C 0.15764 0.42963 0.75604 0.0
C1261 C 0.16642 0.44742 0.79144 0.0
H1262 H 0.14156 0.41837 0.66238 0.0
H1263 H 0.22726 0.59357 0.98979 0.0
H1264 H 0.04057 0.79344 0.29557 0.0
H1265 H 0.04629 0.82599 0.36673 0.0
H1266 H 0.97718 0.83212 0.38273 0.0
H1267 H 0.97161 0.79948 0.31352 0.0
H1268 H 0.99582 0.86999 0.3397 0.0
H1269 H 1.00873 0.81764 0.52105 0.0
H1270 H 0.02713 0.78655 0.5764 0.0
H1271 H 0.08806 0.82015 0.57308 0.0
H1272 H 0.07005 0.85135 0.5168 0.0
H1273 H 1.01342 0.93962 0.67607 0.0
H1274 H 1.01198 0.9041 0.62032 0.0
H1275 H 0.03084 0.93331 0.42984 0.0
H1276 H 0.03117 0.96868 0.48401 0.0
H1277 H 0.0383 0.87738 0.56061 0.0
H1278 H 1.01201 0.91137 0.29722 0.0
H1279 H 0.99161 0.94238 0.24826 0.0
H1280 H 0.95209 0.94341 0.42494 0.0
H1281 H 0.97259 0.91283 0.47584 0.0
C1282 C 0.02669 0.80134 0.31639 0.0
C1283 C 1.00563 0.79377 0.2991 0.0
C1284 C 0.02993 0.82012 0.35653 0.0
C1285 C 1.01216 0.83184 0.38002 0.0
C1286 C 0.9912 0.82366 0.36515 0.0
C1287 C 0.98801 0.80483 0.32601 0.0
C1288 C 0.01507 0.8531 0.41692 0.0
C1289 C 1.00501 0.87151 0.38817 0.0
C1290 C 0.02726 0.85542 0.48003 0.0
C1291 C 0.03808 0.83673 0.51409 0.0
C1292 C 0.02608 0.81833 0.5316 0.0
C1293 C 0.03643 0.8007 0.56324 0.0
C1294 C 0.05876 0.80135 0.57808 0.0
C1295 C 0.07077 0.81966 0.56147 0.0
C1296 C 0.0605 0.83732 0.52975 0.0
C1297 C 0.01716 0.93847 0.62218 0.0
C1298 C 0.02204 0.95721 0.58443 0.0
C1299 C 0.01644 0.91805 0.59027 0.0
C1300 C 0.0208 0.91576 0.51991 0.0
C1301 C 0.02663 0.93441 0.4833 0.0
C1302 C 0.02693 0.95478 0.51464 0.0
C1303 C 0.01857 0.8942 0.48402 0.0
C1304 C 0.02892 0.87583 0.51245 0.0
C1305 C 1.00633 0.89174 0.42105 0.0
C1306 C 0.9938 0.90987 0.39021 0.0
C1307 C 0.99893 0.9182 0.32543 0.0
C1308 C 0.98738 0.93569 0.29741 0.0
C1309 C 0.97047 0.94471 0.33311 0.0
C1310 C 0.96517 0.93639 0.39728 0.0
C1311 C 0.97682 0.91909 0.42595 0.0
H1312 H 0.96152 0.9582 0.31115 0.0
H1313 H 0.06675 0.78769 0.60258 0.0
H1314 H 0.73393 0.03005 0.22446 0.0
H1315 H 0.70224 0.03366 0.29644 0.0
H1316 H 0.73566 0.99802 0.4588 0.0
H1317 H 0.76735 0.99464 0.38646 0.0
H1318 H 0.6948 0.98226 0.43678 0.0
H1319 H 0.7257 0.052 0.47822 0.0
H1320 H 0.74103 0.08716 0.44542 0.0
H1321 H 0.68144 0.10323 0.33599 0.0
H1322 H 0.66588 0.06807 0.36734 0.0
H1323 H 0.60649 0.04572 0.65317 0.0
H1324 H 0.64192 0.04412 0.60093 0.0
H1325 H 0.62013 0.98923 0.48105 0.0
H1326 H 0.5853 0.99037 0.53464 0.0
H1327 H 0.65817 0.05056 0.49161 0.0
H1328 H 0.65759 0.96141 0.40719 0.0
H1329 H 0.64469 0.92595 0.44675 0.0
H1330 H 0.64733 0.9482 0.65612 0.0
H1331 H 0.66046 0.98374 0.61785 0.0
C1332 C 0.73484 0.02382 0.27666 0.0
C1333 C 0.75358 0.01274 0.30046 0.0
C1334 C 0.71655 0.02564 0.31774 0.0
C1335 C 0.71625 0.01621 0.38397 0.0
C1336 C 0.73521 1.00556 0.40837 0.0
C1337 C 0.75358 1.00395 0.36746 0.0
C1338 C 0.69601 0.0167 0.42624 0.0
C1339 C 0.6868 0.99724 0.44865 0.0
C1340 C 0.68545 0.03609 0.44345 0.0
C1341 C 0.69466 0.05733 0.42485 0.0
C1342 C 0.71591 0.06298 0.44683 0.0
C1343 C 0.72464 0.08293 0.42853 0.0
C1344 C 0.71223 0.09741 0.38857 0.0
C1345 C 0.69104 0.092 0.36695 0.0
C1346 C 0.68224 0.07206 0.38507 0.0
C1347 C 0.60929 0.03314 0.61612 0.0
C1348 C 0.5927 0.01811 0.59901 0.0
C1349 C 0.62975 0.03226 0.58565 0.0
C1350 C 0.63454 0.01633 0.53666 0.0
C1351 C 0.61783 1.00136 0.51979 0.0
C1352 C 0.59748 1.00217 0.55034 0.0
C1353 C 0.65638 0.01595 0.5015 0.0
C1354 C 0.66605 0.03549 0.48043 0.0
C1355 C 0.66749 0.99657 0.48592 0.0
C1356 C 0.65988 0.97524 0.50961 0.0
C1357 C 0.65553 0.95868 0.4617 0.0
C1358 C 0.64815 0.93859 0.48388 0.0
C1359 C 0.64516 0.93484 0.55389 0.0
C1360 C 0.64961 0.95115 0.6019 0.0
C1361 C 0.657 0.97127 0.58001 0.0
H1362 H 0.63942 0.91928 0.57095 0.0
H1363 H 0.71901 0.11284 0.37444 0.0
H1364 H 0.5593 0.7487 0.30388 0.0
H1365 H 0.5619 0.71562 0.37282 0.0
H1366 H 0.49215 0.71327 0.38008 0.0
H1367 H 0.48985 0.74744 0.31793 0.0
H1368 H 0.50422 0.69807 0.48955 0.0
H1369 H 0.52594 0.68134 0.26478 0.0
H1370 H 0.54677 0.68434 0.15943 0.0
H1371 H 0.60543 0.66947 0.27593 0.0
H1372 H 0.58498 0.6667 0.38227 0.0
H1373 H 0.53202 0.57319 0.48128 0.0
H1374 H 0.53027 0.60859 0.42692 0.0
H1375 H 0.52899 0.63833 0.62731 0.0
H1376 H 0.52934 0.60261 0.68164 0.0
H1377 H 0.55275 0.64007 0.41506 0.0
H1378 H 0.50751 0.68796 0.62377 0.0
H1379 H 0.47795 0.68273 0.7043 0.0
H1380 H 0.45322 0.62965 0.58321 0.0
H1381 H 0.48251 0.63462 0.50188 0.0
C1382 C 0.54458 0.74148 0.3219 0.0
C1383 C 0.52434 0.75086 0.30498 0.0
C1384 C 0.54601 0.72217 0.36033 0.0
C1385 C 0.5272 0.71121 0.38091 0.0
C1386 C 0.50704 0.72099 0.36538 0.0
C1387 C 0.50569 0.74054 0.32879 0.0
C1388 C 0.52826 0.68951 0.41713 0.0
C1389 C 0.51494 0.68547 0.47311 0.0
C1390 C 0.54157 0.67243 0.39531 0.0
C1391 C 0.55397 0.67406 0.33161 0.0
C1392 C 0.54331 0.67886 0.26801 0.0
C1393 C 0.55504 0.6805 0.20812 0.0
C1394 C 0.57742 0.67715 0.21102 0.0
C1395 C 0.5881 0.6721 0.27381 0.0
C1396 C 0.57645 0.67049 0.33392 0.0
C1397 C 0.53131 0.58724 0.51401 0.0
C1398 C 0.53085 0.58487 0.58614 0.0
C1399 C 0.53038 0.60767 0.48264 0.0
C1400 C 0.52931 0.62661 0.52217 0.0
C1401 C 0.52921 0.62426 0.59461 0.0
C1402 C 0.52963 0.60371 0.626 0.0
C1403 C 0.52858 0.64853 0.48729 0.0
C1404 C 0.54208 0.65266 0.43176 0.0
C1405 C 0.51439 0.66521 0.50667 0.0
C1406 C 0.49735 0.66154 0.55718 0.0
C1407 C 0.4958 0.67513 0.61451 0.0
C1408 C 0.47908 0.67223 0.66022 0.0
C1409 C 0.4637 0.6559 0.64872 0.0
C1410 C 0.46515 0.64228 0.59202 0.0
C1411 C 0.48185 0.64508 0.54627 0.0
H1412 H 0.4506 0.65385 0.68354 0.0
H1413 H 0.58648 0.67842 0.16459 0.0
H1414 H 0.79986 0.50416 0.31736 0.0
H1415 H 0.83312 0.49836 0.38757 0.0
H1416 H 0.80834 0.53755 0.5485 0.0
H1417 H 0.7755 0.54444 0.4758 0.0
H1418 H 0.84615 0.54912 0.54055 0.0
H1419 H 0.81917 0.47739 0.55371 0.0
H1420 H 0.80375 0.44273 0.5133 0.0
H1421 H 0.85911 0.43244 0.39087 0.0
H1422 H 0.87467 0.46722 0.42938 0.0
H1423 H 0.94313 0.51953 0.75031 0.0
H1424 H 0.90482 0.52015 0.70853 0.0
H1425 H 0.92444 0.50769 0.50211 0.0
H1426 H 0.96242 0.50772 0.5427 0.0
H1427 H 0.88795 0.48114 0.54906 0.0
H1428 H 0.91203 0.55568 0.53273 0.0
H1429 H 0.92729 0.58942 0.58124 0.0
H1430 H 0.87591 0.59222 0.72356 0.0
H1431 H 0.86053 0.5583 0.67647 0.0
C1432 C 0.80126 0.51089 0.36871 0.0
C1433 C 0.78498 0.52455 0.39136 0.0
C1434 C 0.82038 0.5076 0.40901 0.0
C1435 C 0.82364 0.51721 0.47425 0.0
C1436 C 0.80665 0.52988 0.49857 0.0
C1437 C 0.78763 0.53356 0.45754 0.0
C1438 C 0.84529 0.51539 0.51374 0.0
C1439 C 0.85488 0.53402 0.54351 0.0
C1440 C 0.8574 0.49591 0.51783 0.0
C1441 C 0.84804 0.47499 0.49429 0.0
C1442 C 0.82799 0.4678 0.51783 0.0
C1443 C 0.81923 0.44813 0.49525 0.0
C1444 C 0.83045 0.43539 0.44959 0.0
C1445 C 0.85047 0.44229 0.42641 0.0
C1446 C 0.85926 0.462 0.44856 0.0
C1447 C 0.93925 0.51684 0.69612 0.0
C1448 C 0.95598 0.51366 0.64998 0.0
C1449 C 0.91732 0.51726 0.67219 0.0
C1450 C 0.91161 0.51398 0.60191 0.0
C1451 C 0.92828 0.51025 0.55642 0.0
C1452 C 0.95009 0.51035 0.57986 0.0
C1453 C 0.88845 0.51475 0.57467 0.0
C1454 C 0.87878 0.496 0.54692 0.0
C1455 C 0.87612 0.53392 0.57375 0.0
C1456 C 0.88529 0.55433 0.6017 0.0
C1457 C 0.90411 0.56338 0.57482 0.0
C1458 C 0.91275 0.58256 0.60194 0.0
C1459 C 0.90262 0.59292 0.65561 0.0
C1460 C 0.88377 0.58416 0.6821 0.0
C1461 C 0.87508 0.56497 0.65519 0.0
H1462 H 0.90933 0.60776 0.67655 0.0
H1463 H 0.82363 0.42017 0.43214 0.0
loop_
_geom_bond_atom_site_label_1
_geom_bond_atom_site_label_2
_geom_bond_distance
_geom_bond_site_symmetry_2
_ccdc_geom_bond_type
C0 N1 1.317 . S
C0 N2 1.348 . S
C0 C3 1.485 . S
N1 C0 1.317 . S
N1 N5 1.370 . S
N2 C0 1.348 . S
N2 C4 1.346 . S
C3 C0 1.485 . S
C3 H7 0.960 . S
C3 H8 0.961 . S
C3 H9 0.960 . S
C4 N2 1.346 . S
C4 N5 1.307 . S
C4 C6 1.486 . S
N5 N1 1.370 . S
N5 C4 1.307 . S
C6 C4 1.486 . S
C6 H10 0.960 . S
C6 H11 0.960 . S
C6 H12 0.959 . S
H7 C3 0.960 . S
H8 C3 0.961 . S
H9 C3 0.960 . S
H10 C6 0.960 . S
H11 C6 0.960 . S
H12 C6 0.959 . S
C13 N14 1.317 . S
C13 N15 1.348 . S
C13 C16 1.485 . S
N14 C13 1.317 . S
N14 N18 1.370 . S
N15 C13 1.348 . S
N15 C17 1.346 . S
C16 C13 1.485 . S
C16 H20 0.960 . S
C16 H21 0.961 . S
C16 H22 0.960 . S
C17 N15 1.346 . S
C17 N18 1.307 . S
C17 C19 1.486 . S
N18 N14 1.370 . S
N18 C17 1.307 . S
C19 C17 1.486 . S
C19 H23 0.960 . S
C19 H24 0.960 . S
C19 H25 0.959 . S
H20 C16 0.960 . S
H21 C16 0.961 . S
H22 C16 0.960 . S
H23 C19 0.960 . S
H24 C19 0.960 . S
H25 C19 0.959 . S
C26 N27 1.317 . S
C26 N28 1.348 . S
C26 C29 1.485 . S
N27 C26 1.317 . S
N27 N31 1.370 . S
N28 C26 1.348 . S
N28 C30 1.346 . S
C29 C26 1.485 . S
C29 H33 0.960 . S
C29 H34 0.961 . S
C29 H35 0.960 . S
C30 N28 1.346 . S
C30 N31 1.307 . S
C30 C32 1.486 . S
N31 N27 1.370 . S
N31 C30 1.307 . S
C32 C30 1.486 . S
C32 H36 0.960 . S
C32 H37 0.960 . S
C32 H38 0.959 . S
H33 C29 0.960 . S
H34 C29 0.961 . S
H35 C29 0.960 . S
H36 C32 0.960 . S
H37 C32 0.960 . S
H38 C32 0.959 . S
C39 N40 1.317 . S
C39 N41 1.348 . S
C39 C42 1.485 . S
N40 C39 1.317 . S
N40 N44 1.370 . S
N41 C39 1.348 . S
N41 C43 1.346 . S
C42 C39 1.485 . S
C42 H46 0.960 . S
C42 H47 0.961 . S
C42 H48 0.960 . S
C43 N41 1.346 . S
C43 N44 1.307 . S
C43 C45 1.486 . S
N44 N40 1.370 . S
N44 C43 1.307 . S
C45 C43 1.486 . S
C45 H49 0.960 . S
C45 H50 0.960 . S
C45 H51 0.959 . S
H46 C42 0.960 . S
H47 C42 0.961 . S
H48 C42 0.960 . S
H49 C45 0.960 . S
H50 C45 0.960 . S
H51 C45 0.959 . S
C52 N53 1.317 . S
C52 N54 1.348 . S
C52 C55 1.485 1_554 S
N53 C52 1.317 . S
N53 N57 1.370 . S
N54 C52 1.348 . S
N54 C56 1.346 . S
C55 C52 1.485 1_556 S
C55 H59 0.960 . S
C55 H60 0.961 . S
C55 H61 0.960 . S
C56 N54 1.346 . S
C56 N57 1.307 . S
C56 C58 1.486 . S
N57 N53 1.370 . S
N57 C56 1.307 . S
C58 C56 1.486 . S
C58 H62 0.960 . S
C58 H63 0.960 . S
C58 H64 0.959 . S
H59 C55 0.960 . S
H60 C55 0.961 . S
H61 C55 0.960 . S
H62 C58 0.960 . S
H63 C58 0.960 . S
H64 C58 0.959 . S
C65 N66 1.317 . S
C65 N67 1.348 . S
C65 C68 1.485 1_554 S
N66 C65 1.317 . S
N66 N70 1.370 . S
N67 C65 1.348 . S
N67 C69 1.346 . S
C68 C65 1.485 1_556 S
C68 H72 0.960 . S
C68 H73 0.961 . S
C68 H74 0.960 . S
C69 N67 1.346 . S
C69 N70 1.307 . S
C69 C71 1.486 . S
N70 N66 1.370 . S
N70 C69 1.307 . S
C71 C69 1.486 . S
C71 H75 0.960 . S
C71 H76 0.960 . S
C71 H77 0.959 . S
H72 C68 0.960 . S
H73 C68 0.961 . S
H74 C68 0.960 . S
H75 C71 0.960 . S
H76 C71 0.960 . S
H77 C71 0.959 . S
C78 N79 1.317 . S
C78 N80 1.348 1_556 S
C78 C81 1.485 . S
N79 C78 1.317 . S
N79 N83 1.370 1_556 S
N80 C78 1.348 1_554 S
N80 C82 1.346 . S
C81 C78 1.485 . S
C81 H85 0.960 . S
C81 H86 0.961 . S
C81 H87 0.960 . S
C82 N80 1.346 . S
C82 N83 1.307 . S
C82 C84 1.486 . S
N83 N79 1.370 1_554 S
N83 C82 1.307 . S
C84 C82 1.486 . S
C84 H88 0.960 . S
C84 H89 0.960 . S
C84 H90 0.959 . S
H85 C81 0.960 . S
H86 C81 0.961 . S
H87 C81 0.960 . S
H88 C84 0.960 . S
H89 C84 0.960 . S
H90 C84 0.959 . S
C91 N92 1.317 . S
C91 N93 1.348 . S
C91 C94 1.485 1_554 S
N92 C91 1.317 . S
N92 N96 1.370 . S
N93 C91 1.348 . S
N93 C95 1.346 . S
C94 C91 1.485 1_556 S
C94 H98 0.960 . S
C94 H99 0.961 . S
C94 H100 0.960 . S
C95 N93 1.346 . S
C95 N96 1.307 . S
C95 C97 1.486 . S
N96 N92 1.370 . S
N96 C95 1.307 . S
C97 C95 1.486 . S
C97 H101 0.960 . S
C97 H102 0.960 . S
C97 H103 0.959 . S
H98 C94 0.960 . S
H99 C94 0.961 . S
H100 C94 0.960 . S
H101 C97 0.960 . S
H102 C97 0.960 . S
H103 C97 0.959 . S
Eu104 C113 2.828 . S
Eu104 O115 2.392 . S
Eu104 O117 2.418 1_545 S
Eu104 O122 2.373 1_655 S
Eu104 O125 2.488 . S
Eu104 O126 2.471 1_655 S
Eu104 O127 2.349 1_655 S
Eu105 O114 2.373 1_455 S
Eu105 O118 2.488 . S
Eu105 O119 2.471 . S
Eu105 O120 2.349 . S
Eu105 O123 2.392 1_565 S
Eu105 O124 2.418 1_565 S
Eu105 C134 2.828 . S
C106 O124 1.244 . S
C106 O127 1.265 . S
C107 C108 1.379 . S
C107 C111 1.373 1_455 S
C107 C113 1.505 1_455 S
C108 C107 1.379 . S
C108 C110 1.369 . S
C108 H136 0.930 . S
C109 C111 1.383 . S
C109 C112 1.382 1_655 S
C109 H137 0.930 . S
C110 C108 1.369 . S
C110 C112 1.392 . S
C110 H138 0.930 . S
C111 C107 1.373 1_655 S
C111 C109 1.383 . S
C111 H139 0.931 . S
C112 C109 1.382 1_455 S
C112 C110 1.392 . S
C113 Eu104 2.828 . S
C113 C107 1.505 1_655 S
C113 O125 1.249 . S
C113 O126 1.244 1_655 S
O114 Eu105 2.373 1_655 S
O114 C116 1.258 1_565 S
O115 Eu104 2.392 . S
O115 C116 1.242 . S
C116 O114 1.258 1_545 S
C116 O115 1.242 . S
O117 Eu104 2.418 1_565 S
O117 C121 1.244 . S
O118 Eu105 2.488 . S
O118 C134 1.249 . S
O119 Eu105 2.471 . S
O119 C134 1.244 . S
O120 Eu105 2.349 . S
O120 C121 1.265 1_455 S
C121 O117 1.244 . S
C121 O120 1.265 1_655 S
O122 Eu104 2.373 1_455 S
O122 C135 1.258 . S
O123 Eu105 2.392 1_545 S
O123 C135 1.242 . S
O124 Eu105 2.418 1_545 S
O124 C106 1.244 . S
O125 Eu104 2.488 . S
O125 C113 1.249 . S
O126 Eu104 2.471 1_455 S
O126 C113 1.244 1_455 S
O127 Eu104 2.349 1_455 S
O127 C106 1.265 . S
C128 C129 1.379 . S
C128 C132 1.373 . S
C128 C134 1.505 . S
C129 C128 1.379 . S
C129 C131 1.369 . S
C129 H140 0.930 1_455 S
C130 C132 1.383 1_554 S
C130 C133 1.385 . S
C130 H141 0.930 . S
C131 C129 1.369 . S
C131 C133 1.377 1_556 S
C131 H142 0.930 1_455 S
C132 C128 1.373 . S
C132 C130 1.383 1_556 S
C132 H143 0.931 . S
C133 C130 1.385 . S
C133 C131 1.377 1_554 S
C134 Eu105 2.828 . S
C134 O118 1.249 . S
C134 O119 1.244 . S
C134 C128 1.505 . S
C135 O122 1.258 . S
C135 O123 1.242 . S
H136 C108 0.930 . S
H137 C109 0.930 . S
H138 C110 0.930 . S
H139 C111 0.931 . S
H140 C129 0.930 1_655 S
H141 C130 0.930 . S
H142 C131 0.930 1_655 S
H143 C132 0.931 . S
Eu144 C153 2.828 . S
Eu144 O155 2.392 . S
Eu144 O157 2.418 . S
Eu144 O162 2.373 . S
Eu144 O165 2.488 . S
Eu144 O166 2.471 . S
Eu144 O167 2.349 1_545 S
Eu145 O154 2.373 1_565 S
Eu145 O158 2.488 . S
Eu145 O159 2.471 1_565 S
Eu145 O160 2.349 1_565 S
Eu145 O163 2.392 . S
Eu145 O164 2.418 . S
Eu145 C174 2.828 . S
C146 O164 1.244 . S
C146 O167 1.265 . S
C147 C148 1.379 . S
C147 C151 1.373 . S
C147 C153 1.505 . S
C148 C147 1.379 . S
C148 C150 1.373 . S
C148 H176 0.930 1_545 S
C149 C151 1.383 . S
C149 C152 1.382 . S
C149 H177 0.930 . S
C150 C148 1.373 . S
C150 C152 1.434 . S
C150 H178 0.885 1_545 S
C151 C147 1.373 . S
C151 C149 1.383 . S
C151 H179 0.931 . S
C152 C149 1.382 . S
C152 C150 1.434 . S
C153 Eu144 2.828 . S
C153 C147 1.505 . S
C153 O165 1.249 . S
C153 O166 1.244 . S
O154 Eu145 2.373 1_545 S
O154 C156 1.258 . S
O155 Eu144 2.392 . S
O155 C156 1.242 . S
C156 O154 1.258 . S
C156 O155 1.242 . S
O157 Eu144 2.418 . S
O157 C161 1.244 . S
O158 Eu145 2.488 . S
O158 C174 1.249 . S
O159 Eu145 2.471 1_545 S
O159 C174 1.244 1_545 S
O160 Eu145 2.349 1_545 S
O160 C161 1.265 . S
C161 O157 1.244 . S
C161 O160 1.265 . S
O162 Eu144 2.373 . S
O162 C175 1.258 1_545 S
O163 Eu145 2.392 . S
O163 C175 1.242 . S
O164 Eu145 2.418 . S
O164 C146 1.244 . S
O165 Eu144 2.488 . S
O165 C153 1.249 . S
O166 Eu144 2.471 . S
O166 C153 1.244 . S
O167 Eu144 2.349 1_565 S
O167 C146 1.265 . S
C168 C169 1.379 1_565 S
C168 C172 1.373 . S
C168 C174 1.505 . S
C169 C168 1.379 1_545 S
C169 C171 1.369 . S
C169 H180 0.930 . S
C170 C172 1.383 . S
C170 C173 1.382 . S
C170 H181 0.930 . S
C171 C169 1.369 . S
C171 C173 1.392 1_545 S
C171 H182 0.930 . S
C172 C168 1.373 . S
C172 C170 1.383 . S
C172 H183 0.931 . S
C173 C170 1.382 . S
C173 C171 1.392 1_565 S
C174 Eu145 2.828 . S
C174 O158 1.249 . S
C174 O159 1.244 1_565 S
C174 C168 1.505 . S
C175 O162 1.258 1_565 S
C175 O163 1.242 . S
H176 C148 0.930 1_565 S
H177 C149 0.930 . S
H178 C150 0.885 1_565 S
H179 C151 0.931 . S
H180 C169 0.930 . S
H181 C170 0.930 . S
H182 C171 0.930 . S
H183 C172 0.931 . S
Eu184 C193 2.828 . S
Eu184 O195 2.392 . S
Eu184 O197 2.418 . S
Eu184 O202 2.373 . S
Eu184 O205 2.488 . S
Eu184 O206 2.471 . S
Eu184 O207 2.349 . S
Eu185 O194 2.373 . S
Eu185 O198 2.488 . S
Eu185 O199 2.471 . S
Eu185 O200 2.349 . S
Eu185 O203 2.392 . S
Eu185 O204 2.418 . S
Eu185 C214 2.828 . S
C186 O204 1.244 . S
C186 O207 1.265 . S
C187 C188 1.379 . S
C187 C191 1.373 . S
C187 C193 1.505 . S
C188 C187 1.379 . S
C188 C190 1.369 . S
C188 H216 0.930 . S
C189 C191 1.383 . S
C189 C192 1.382 . S
C189 H217 0.930 . S
C190 C188 1.369 . S
C190 C192 1.392 . S
C190 H218 0.930 . S
C191 C187 1.373 . S
C191 C189 1.383 . S
C191 H219 0.931 . S
C192 C189 1.382 . S
C192 C190 1.392 . S
C193 Eu184 2.828 . S
C193 C187 1.505 . S
C193 O205 1.249 . S
C193 O206 1.244 . S
O194 Eu185 2.373 . S
O194 C196 1.258 . S
O195 Eu184 2.392 . S
O195 C196 1.242 . S
C196 O194 1.258 . S
C196 O195 1.242 . S
O197 Eu184 2.418 . S
O197 C201 1.244 . S
O198 Eu185 2.488 . S
O198 C214 1.249 . S
O199 Eu185 2.471 . S
O199 C214 1.244 . S
O200 Eu185 2.349 . S
O200 C201 1.265 . S
C201 O197 1.244 . S
C201 O200 1.265 . S
O202 Eu184 2.373 . S
O202 C215 1.258 . S
O203 Eu185 2.392 . S
O203 C215 1.242 . S
O204 Eu185 2.418 . S
O204 C186 1.244 . S
O205 Eu184 2.488 . S
O205 C193 1.249 . S
O206 Eu184 2.471 . S
O206 C193 1.244 . S
O207 Eu184 2.349 . S
O207 C186 1.265 . S
C208 C209 1.379 . S
C208 C212 1.373 . S
C208 C214 1.505 . S
C209 C208 1.379 . S
C209 C211 1.369 . S
C209 H220 0.930 . S
C210 C212 1.383 . S
C210 C213 1.382 . S
C210 H221 0.930 . S
C211 C209 1.369 . S
C211 C213 1.392 . S
C211 H222 0.930 . S
C212 C208 1.373 . S
C212 C210 1.383 . S
C212 H223 0.931 . S
C213 C210 1.382 . S
C213 C211 1.392 . S
C214 Eu185 2.828 . S
C214 O198 1.249 . S
C214 O199 1.244 . S
C214 C208 1.505 . S
C215 O202 1.258 . S
C215 O203 1.242 . S
H216 C188 0.930 . S
H217 C189 0.930 . S
H218 C190 0.930 . S
H219 C191 0.931 . S
H220 C209 0.930 . S
H221 C210 0.930 . S
H222 C211 0.930 . S
H223 C212 0.931 . S
Eu224 C233 2.828 . S
Eu224 O235 2.392 . S
Eu224 O237 2.418 1_455 S
Eu224 O242 2.373 . S
Eu224 O245 2.488 . S
Eu224 O246 2.471 . S
Eu224 O247 2.349 . S
Eu225 O234 2.372 1_655 S
Eu225 O238 2.488 . S
Eu225 O239 2.471 . S
Eu225 O240 2.349 . S
Eu225 O243 2.392 1_655 S
Eu225 O244 2.418 1_655 S
Eu225 C254 2.828 . S
C226 O244 1.244 . S
C226 O247 1.265 . S
C227 C228 1.379 . S
C227 C231 1.373 . S
C227 C233 1.505 . S
C228 C227 1.379 . S
C228 C230 1.369 . S
C228 H256 0.930 . S
C229 C231 1.383 . S
C229 C232 1.382 . S
C229 H257 0.930 . S
C230 C228 1.369 . S
C230 C232 1.392 . S
C230 H258 0.930 . S
C231 C227 1.373 . S
C231 C229 1.383 . S
C231 H259 0.931 . S
C232 C229 1.382 . S
C232 C230 1.392 . S
C233 Eu224 2.828 . S
C233 C227 1.505 . S
C233 O245 1.249 . S
C233 O246 1.244 . S
O234 Eu225 2.372 1_455 S
O234 C236 1.260 . S
O235 Eu224 2.392 . S
O235 C236 1.242 . S
C236 O234 1.260 . S
C236 O235 1.242 . S
O237 Eu224 2.418 1_655 S
O237 C241 1.244 . S
O238 Eu225 2.488 . S
O238 C254 1.249 . S
O239 Eu225 2.471 . S
O239 C254 1.244 . S
O240 Eu225 2.349 . S
O240 C241 1.265 . S
C241 O237 1.244 . S
C241 O240 1.265 . S
O242 Eu224 2.373 . S
O242 C255 1.258 . S
O243 Eu225 2.392 1_455 S
O243 C255 1.242 . S
O244 Eu225 2.418 1_455 S
O244 C226 1.244 . S
O245 Eu224 2.488 . S
O245 C233 1.249 . S
O246 Eu224 2.471 . S
O246 C233 1.244 . S
O247 Eu224 2.349 . S
O247 C226 1.265 . S
C248 C249 1.379 . S
C248 C252 1.373 . S
C248 C254 1.505 . S
C249 C248 1.379 . S
C249 C251 1.369 . S
C249 H260 0.930 . S
C250 C252 1.383 . S
C250 C253 1.382 . S
C250 H261 0.930 1_556 S
C251 C249 1.369 . S
C251 C253 1.392 . S
C251 H262 0.930 . S
C252 C248 1.373 . S
C252 C250 1.383 . S
C252 H263 0.931 . S
C253 C250 1.382 . S
C253 C251 1.392 . S
C254 Eu225 2.828 . S
C254 O238 1.249 . S
C254 O239 1.244 . S
C254 C248 1.505 . S
C255 O242 1.258 . S
C255 O243 1.242 . S
H256 C228 0.930 . S
H257 C229 0.930 . S
H258 C230 0.930 . S
H259 C231 0.931 . S
H260 C249 0.930 . S
H261 C250 0.930 1_554 S
H262 C251 0.930 . S
H263 C252 0.931 . S
H264 C282 0.951 . S
H265 C284 0.951 . S
H266 C286 0.950 . S
H267 C287 0.950 . S
H268 C289 0.950 . S
H269 C292 0.950 . S
H270 C293 0.950 . S
H271 C295 0.950 . S
H272 C296 0.950 . S
H273 C297 0.951 1_565 S
H274 C299 0.951 1_565 S
H275 C301 0.950 . S
H276 C302 0.950 . S
H277 C304 0.950 . S
H278 C307 0.950 . S
H279 C308 0.950 . S
H280 C310 0.950 . S
H281 C311 0.950 . S
C282 H264 0.951 . S
C282 C283 1.366 . S
C282 C284 1.388 . S
C283 C282 1.366 . S
C283 C287 1.385 . S
C284 H265 0.951 . S
C284 C282 1.388 . S
C284 C285 1.366 . S
C285 C284 1.366 . S
C285 C286 1.414 . S
C285 C288 1.499 . S
C286 H266 0.950 . S
C286 C285 1.414 . S
C286 C287 1.374 . S
C287 H267 0.950 . S
C287 C283 1.385 . S
C287 C286 1.374 . S
C288 C285 1.499 . S
C288 C289 1.373 . S
C288 C290 1.389 . S
C289 H268 0.950 . S
C289 C288 1.373 . S
C289 C305 1.377 . S
C290 C288 1.389 . S
C290 C291 1.524 . S
C290 C304 1.377 . S
C291 C290 1.524 . S
C291 C292 1.397 . S
C291 C296 1.363 . S
C292 H269 0.950 . S
C292 C291 1.397 . S
C292 C293 1.334 . S
C293 H270 0.950 . S
C293 C292 1.334 . S
C293 C294 1.287 . S
C294 C293 1.287 . S
C294 C295 1.524 . S
C294 H313 0.913 . S
C295 H271 0.950 . S
C295 C294 1.524 . S
C295 C296 1.415 . S
C296 H272 0.950 . S
C296 C291 1.363 . S
C296 C295 1.415 . S
C297 H273 0.951 1_545 S
C297 C298 1.366 . S
C297 C299 1.388 . S
C298 C297 1.366 . S
C298 C302 1.385 . S
C299 H274 0.951 1_545 S
C299 C297 1.388 . S
C299 C300 1.366 . S
C300 C299 1.366 . S
C300 C301 1.414 . S
C300 C303 1.499 . S
C301 H275 0.950 . S
C301 C300 1.414 . S
C301 C302 1.374 . S
C302 H276 0.950 . S
C302 C298 1.385 . S
C302 C301 1.374 . S
C303 C300 1.499 . S
C303 C304 1.373 . S
C303 C305 1.389 . S
C304 H277 0.950 . S
C304 C290 1.377 . S
C304 C303 1.373 . S
C305 C289 1.377 . S
C305 C303 1.389 . S
C305 C306 1.524 1_545 S
C306 C305 1.524 1_565 S
C306 C307 1.397 1_565 S
C306 C311 1.363 . S
C307 H278 0.950 . S
C307 C306 1.397 1_545 S
C307 C308 1.334 1_545 S
C308 H279 0.950 . S
C308 C307 1.334 1_565 S
C308 C309 1.287 . S
C309 C308 1.287 . S
C309 C310 1.524 . S
C309 H312 0.999 . S
C310 H280 0.950 . S
C310 C309 1.524 . S
C310 C311 1.415 . S
C311 H281 0.950 . S
C311 C306 1.363 . S
C311 C310 1.415 . S
H312 C309 0.999 . S
H313 C294 0.913 . S
H314 C332 0.951 . S
H315 C334 0.951 . S
H316 C336 0.950 . S
H317 C337 0.950 . S
H318 C339 0.950 . S
H319 C342 0.950 . S
H320 C343 0.950 . S
H321 C345 0.950 . S
H322 C346 0.950 . S
H323 C347 0.951 . S
H324 C349 0.951 . S
H325 C351 0.950 . S
H326 C352 0.950 . S
H327 C354 0.950 . S
H328 C357 0.950 . S
H329 C358 0.950 . S
H330 C360 0.950 . S
H331 C361 0.950 . S
C332 H314 0.951 . S
C332 C333 1.366 . S
C332 C334 1.388 . S
C333 C332 1.366 . S
C333 C337 1.385 . S
C334 H315 0.951 . S
C334 C332 1.388 . S
C334 C335 1.366 . S
C335 C334 1.366 . S
C335 C336 1.414 . S
C335 C338 1.499 . S
C336 H316 0.950 . S
C336 C335 1.414 . S
C336 C337 1.374 . S
C337 H317 0.950 . S
C337 C333 1.385 . S
C337 C336 1.374 . S
C338 C335 1.499 . S
C338 C339 1.373 . S
C338 C340 1.389 . S
C339 H318 0.950 . S
C339 C338 1.373 . S
C339 C355 1.377 . S
C340 C338 1.389 . S
C340 C341 1.524 . S
C340 C354 1.377 . S
C341 C340 1.524 . S
C341 C342 1.397 . S
C341 C346 1.363 . S
C342 H319 0.950 . S
C342 C341 1.397 . S
C342 C343 1.334 . S
C343 H320 0.950 . S
C343 C342 1.334 . S
C343 C344 1.287 . S
C344 C343 1.287 . S
C344 C345 1.524 . S
C344 H363 0.913 . S
C345 H321 0.950 . S
C345 C344 1.524 . S
C345 C346 1.415 . S
C346 H322 0.950 . S
C346 C341 1.363 . S
C346 C345 1.415 . S
C347 H323 0.951 . S
C347 C348 1.366 . S
C347 C349 1.388 . S
C348 C347 1.366 . S
C348 C352 1.385 . S
C349 H324 0.951 . S
C349 C347 1.388 . S
C349 C350 1.366 . S
C350 C349 1.366 . S
C350 C351 1.414 . S
C350 C353 1.499 . S
C351 H325 0.950 . S
C351 C350 1.414 . S
C351 C352 1.374 . S
C352 H326 0.950 . S
C352 C348 1.385 . S
C352 C351 1.374 . S
C353 C350 1.499 . S
C353 C354 1.373 . S
C353 C355 1.389 . S
C354 H327 0.950 . S
C354 C340 1.377 . S
C354 C353 1.373 . S
C355 C339 1.377 . S
C355 C353 1.389 . S
C355 C356 1.524 . S
C356 C355 1.524 . S
C356 C357 1.397 . S
C356 C361 1.363 . S
C357 H328 0.950 . S
C357 C356 1.397 . S
C357 C358 1.334 . S
C358 H329 0.950 . S
C358 C357 1.334 . S
C358 C359 1.287 . S
C359 C358 1.287 . S
C359 C360 1.524 . S
C359 H362 0.999 . S
C360 H330 0.950 . S
C360 C359 1.524 . S
C360 C361 1.415 . S
C361 H331 0.950 . S
C361 C356 1.363 . S
C361 C360 1.415 . S
H362 C359 0.999 . S
H363 C344 0.913 . S
H364 C382 0.951 . S
H365 C384 0.951 . S
H366 C386 0.950 . S
H367 C387 0.950 . S
H368 C389 0.950 . S
H369 C392 0.950 . S
H370 C393 0.950 . S
H371 C395 0.950 . S
H372 C396 0.950 . S
H373 C397 0.951 . S
H374 C399 0.951 . S
H375 C401 0.950 . S
H376 C402 0.950 . S
H377 C404 0.950 . S
H378 C407 0.950 . S
H379 C408 0.950 . S
H380 C410 0.950 . S
H381 C411 0.950 . S
C382 H364 0.951 . S
C382 C383 1.366 . S
C382 C384 1.388 . S
C383 C382 1.366 . S
C383 C387 1.385 . S
C384 H365 0.951 . S
C384 C382 1.388 . S
C384 C385 1.366 . S
C385 C384 1.366 . S
C385 C386 1.414 . S
C385 C388 1.499 . S
C386 H366 0.950 . S
C386 C385 1.414 . S
C386 C387 1.374 . S
C387 H367 0.950 . S
C387 C383 1.385 . S
C387 C386 1.374 . S
C388 C385 1.499 . S
C388 C389 1.373 . S
C388 C390 1.389 . S
C389 H368 0.950 . S
C389 C388 1.373 . S
C389 C405 1.377 . S
C390 C388 1.389 . S
C390 C391 1.524 . S
C390 C404 1.377 . S
C391 C390 1.524 . S
C391 C392 1.397 . S
C391 C396 1.363 . S
C392 H369 0.950 . S
C392 C391 1.397 . S
C392 C393 1.334 . S
C393 H370 0.950 . S
C393 C392 1.334 . S
C393 C394 1.287 . S
C394 C393 1.287 . S
C394 C395 1.524 . S
C394 H413 0.913 . S
C395 H371 0.950 . S
C395 C394 1.524 . S
C395 C396 1.415 . S
C396 H372 0.950 . S
C396 C391 1.363 . S
C396 C395 1.415 . S
C397 H373 0.951 . S
C397 C398 1.366 . S
C397 C399 1.388 . S
C398 C397 1.366 . S
C398 C402 1.385 . S
C399 H374 0.951 . S
C399 C397 1.388 . S
C399 C400 1.366 . S
C400 C399 1.366 . S
C400 C401 1.414 . S
C400 C403 1.499 . S
C401 H375 0.950 . S
C401 C400 1.414 . S
C401 C402 1.374 . S
C402 H376 0.950 . S
C402 C398 1.385 . S
C402 C401 1.374 . S
C403 C400 1.499 . S
C403 C404 1.373 . S
C403 C405 1.389 . S
C404 H377 0.950 . S
C404 C390 1.377 . S
C404 C403 1.373 . S
C405 C389 1.377 . S
C405 C403 1.389 . S
C405 C406 1.524 . S
C406 C405 1.524 . S
C406 C407 1.397 . S
C406 C411 1.363 . S
C407 H378 0.950 . S
C407 C406 1.397 . S
C407 C408 1.334 . S
C408 H379 0.950 . S
C408 C407 1.334 . S
C408 C409 1.287 . S
C409 C408 1.287 . S
C409 C410 1.524 . S
C409 H412 0.999 . S
C410 H380 0.950 . S
C410 C409 1.524 . S
C410 C411 1.415 . S
C411 H381 0.950 . S
C411 C406 1.363 . S
C411 C410 1.415 . S
H412 C409 0.999 . S
H413 C394 0.913 . S
H414 C432 0.951 . S
H415 C434 0.951 . S
H416 C436 0.950 . S
H417 C437 0.950 . S
H418 C439 0.950 . S
H419 C442 0.951 . S
H420 C443 0.950 . S
H421 C445 0.950 . S
H422 C446 0.950 . S
H423 C447 0.951 . S
H424 C449 0.951 . S
H425 C451 0.950 . S
H426 C452 0.950 . S
H427 C454 0.950 . S
H428 C457 0.950 . S
H429 C458 0.950 . S
H430 C460 0.950 . S
H431 C461 0.950 . S
C432 H414 0.951 . S
C432 C433 1.366 . S
C432 C434 1.388 . S
C433 C432 1.366 . S
C433 C437 1.385 . S
C434 H415 0.951 . S
C434 C432 1.388 . S
C434 C435 1.366 . S
C435 C434 1.366 . S
C435 C436 1.414 . S
C435 C438 1.499 . S
C436 H416 0.950 . S
C436 C435 1.414 . S
C436 C437 1.374 . S
C437 H417 0.950 . S
C437 C433 1.385 . S
C437 C436 1.374 . S
C438 C435 1.499 . S
C438 C439 1.373 . S
C438 C440 1.389 . S
C439 H418 0.950 . S
C439 C438 1.373 . S
C439 C455 1.377 . S
C440 C438 1.389 . S
C440 C441 1.524 . S
C440 C454 1.377 . S
C441 C440 1.524 . S
C441 C442 1.391 1_455 S
C441 C446 1.363 . S
C442 H419 0.951 . S
C442 C441 1.391 1_655 S
C442 C443 1.340 . S
C443 H420 0.950 . S
C443 C442 1.340 . S
C443 C444 1.287 . S
C444 C443 1.287 . S
C444 C445 1.524 1_655 S
C444 H463 0.913 . S
C445 H421 0.950 . S
C445 C444 1.524 1_455 S
C445 C446 1.415 . S
C446 H422 0.950 . S
C446 C441 1.363 . S
C446 C445 1.415 . S
C447 H423 0.951 . S
C447 C448 1.366 . S
C447 C449 1.388 . S
C448 C447 1.366 . S
C448 C452 1.385 . S
C449 H424 0.951 . S
C449 C447 1.388 . S
C449 C450 1.366 . S
C450 C449 1.366 . S
C450 C451 1.414 . S
C450 C453 1.499 . S
C451 H425 0.950 . S
C451 C450 1.414 . S
C451 C452 1.374 . S
C452 H426 0.950 . S
C452 C448 1.385 . S
C452 C451 1.374 . S
C453 C450 1.499 . S
C453 C454 1.373 . S
C453 C455 1.389 . S
C454 H427 0.950 . S
C454 C440 1.377 . S
C454 C453 1.373 . S
C455 C439 1.377 . S
C455 C453 1.389 . S
C455 C456 1.524 . S
C456 C455 1.524 . S
C456 C457 1.397 . S
C456 C461 1.363 . S
C457 H428 0.950 . S
C457 C456 1.397 . S
C457 C458 1.334 . S
C458 H429 0.950 . S
C458 C457 1.334 . S
C458 C459 1.287 . S
C459 C458 1.287 . S
C459 C460 1.524 . S
C459 H462 0.999 . S
C460 H430 0.950 . S
C460 C459 1.524 . S
C460 C461 1.415 . S
C461 H431 0.950 . S
C461 C456 1.363 . S
C461 C460 1.415 . S
H462 C459 0.999 . S
H463 C444 0.913 . S
H464 C482 0.951 . S
H465 C484 0.951 . S
H466 C486 0.950 . S
H467 C487 0.950 . S
H468 C489 0.950 . S
H469 C492 0.950 . S
H470 C493 0.950 . S
H471 C495 0.950 . S
H472 C496 0.950 . S
H473 C497 0.958 . S
H474 C499 0.944 1_545 S
H475 C501 0.950 . S
H476 C502 0.950 . S
H477 C504 0.950 . S
H478 C507 0.950 . S
H479 C508 0.950 . S
H480 C510 0.950 . S
H481 C511 0.950 . S
C482 H464 0.951 . S
C482 C483 1.366 . S
C482 C484 1.388 . S
C483 C482 1.366 . S
C483 C487 1.385 . S
C484 H465 0.951 . S
C484 C482 1.388 . S
C484 C485 1.366 . S
C485 C484 1.366 . S
C485 C486 1.414 . S
C485 C488 1.499 . S
C486 H466 0.950 . S
C486 C485 1.414 . S
C486 C487 1.374 . S
C487 H467 0.950 . S
C487 C483 1.385 . S
C487 C486 1.374 . S
C488 C485 1.499 . S
C488 C489 1.373 1_565 S
C488 C490 1.389 . S
C489 H468 0.950 . S
C489 C488 1.373 1_545 S
C489 C505 1.377 . S
C490 C488 1.389 . S
C490 C491 1.524 . S
C490 C504 1.377 1_554 S
C491 C490 1.524 . S
C491 C492 1.397 . S
C491 C496 1.363 1_554 S
C492 H469 0.950 . S
C492 C491 1.397 . S
C492 C493 1.334 . S
C493 H470 0.950 . S
C493 C492 1.334 . S
C493 C494 1.287 . S
C494 C493 1.287 . S
C494 C495 1.524 1_554 S
C494 H513 0.913 . S
C495 H471 0.950 . S
C495 C494 1.524 1_556 S
C495 C496 1.415 . S
C496 H472 0.950 . S
C496 C491 1.363 1_556 S
C496 C495 1.415 . S
C497 H473 0.958 . S
C497 C498 1.362 1_545 S
C497 C499 1.386 1_545 S
C498 C497 1.362 1_565 S
C498 C502 1.385 . S
C499 H474 0.944 1_565 S
C499 C497 1.386 1_565 S
C499 C500 1.366 . S
C500 C499 1.366 . S
C500 C501 1.414 . S
C500 C503 1.499 . S
C501 H475 0.950 . S
C501 C500 1.414 . S
C501 C502 1.374 . S
C502 H476 0.950 . S
C502 C498 1.385 . S
C502 C501 1.374 . S
C503 C500 1.499 . S
C503 C504 1.373 . S
C503 C505 1.389 1_566 S
C504 H477 0.950 . S
C504 C490 1.377 1_556 S
C504 C503 1.373 . S
C505 C489 1.377 . S
C505 C503 1.389 1_544 S
C505 C506 1.524 . S
C506 C505 1.524 . S
C506 C507 1.397 1_554 S
C506 C511 1.363 . S
C507 H478 0.950 . S
C507 C506 1.397 1_556 S
C507 C508 1.334 . S
C508 H479 0.950 . S
C508 C507 1.334 . S
C508 C509 1.287 1_556 S
C509 C508 1.287 1_554 S
C509 C510 1.524 . S
C509 H512 0.999 . S
C510 H480 0.950 . S
C510 C509 1.524 . S
C510 C511 1.415 . S
C511 H481 0.950 . S
C511 C506 1.363 . S
C511 C510 1.415 . S
H512 C509 0.999 . S
H513 C494 0.913 . S
H514 C532 0.951 . S
H515 C534 0.951 . S
H516 C536 0.950 . S
H517 C537 0.950 . S
H518 C539 0.950 . S
H519 C542 0.950 . S
H520 C543 0.950 . S
H521 C545 0.950 . S
H522 C546 0.950 . S
H523 C547 0.951 . S
H524 C549 0.951 . S
H525 C551 0.950 . S
H526 C552 0.950 . S
H527 C554 0.950 . S
H528 C557 0.950 . S
H529 C558 0.950 . S
H530 C560 0.950 . S
H531 C561 0.950 . S
C532 H514 0.951 . S
C532 C533 1.366 . S
C532 C534 1.388 . S
C533 C532 1.366 . S
C533 C537 1.385 . S
C534 H515 0.951 . S
C534 C532 1.388 . S
C534 C535 1.366 . S
C535 C534 1.366 . S
C535 C536 1.414 . S
C535 C538 1.499 . S
C536 H516 0.950 . S
C536 C535 1.414 . S
C536 C537 1.374 . S
C537 H517 0.950 . S
C537 C533 1.385 . S
C537 C536 1.374 . S
C538 C535 1.499 . S
C538 C539 1.373 . S
C538 C540 1.389 . S
C539 H518 0.950 . S
C539 C538 1.373 . S
C539 C555 1.377 1_554 S
C540 C538 1.389 . S
C540 C541 1.524 . S
C540 C554 1.377 1_554 S
C541 C540 1.524 . S
C541 C542 1.397 . S
C541 C546 1.363 . S
C542 H519 0.950 . S
C542 C541 1.397 . S
C542 C543 1.334 . S
C543 H520 0.950 . S
C543 C542 1.334 . S
C543 C544 1.287 . S
C544 C543 1.287 . S
C544 C545 1.524 . S
C544 H563 0.913 . S
C545 H521 0.950 . S
C545 C544 1.524 . S
C545 C546 1.415 . S
C546 H522 0.950 . S
C546 C541 1.363 . S
C546 C545 1.415 . S
C547 H523 0.951 . S
C547 C548 1.366 . S
C547 C549 1.388 . S
C548 C547 1.366 . S
C548 C552 1.385 . S
C549 H524 0.951 . S
C549 C547 1.388 . S
C549 C550 1.366 . S
C550 C549 1.366 . S
C550 C551 1.414 . S
C550 C553 1.499 . S
C551 H525 0.950 . S
C551 C550 1.414 . S
C551 C552 1.374 . S
C552 H526 0.950 . S
C552 C548 1.385 . S
C552 C551 1.374 . S
C553 C550 1.499 . S
C553 C554 1.373 . S
C553 C555 1.389 . S
C554 H527 0.950 . S
C554 C540 1.377 1_556 S
C554 C553 1.373 . S
C555 C539 1.377 1_556 S
C555 C553 1.389 . S
C555 C556 1.524 . S
C556 C555 1.524 . S
C556 C557 1.397 . S
C556 C561 1.363 . S
C557 H528 0.950 . S
C557 C556 1.397 . S
C557 C558 1.334 . S
C558 H529 0.950 . S
C558 C557 1.334 . S
C558 C559 1.287 . S
C559 C558 1.287 . S
C559 C560 1.524 . S
C559 H562 0.999 . S
C560 H530 0.950 . S
C560 C559 1.524 . S
C560 C561 1.415 . S
C561 H531 0.950 . S
C561 C556 1.363 . S
C561 C560 1.415 . S
H562 C559 0.999 . S
H563 C544 0.913 . S
H564 C582 0.951 . S
H565 C584 0.951 . S
H566 C586 0.950 . S
H567 C587 0.950 . S
H568 C589 0.950 . S
H569 C592 0.950 . S
H570 C593 0.950 . S
H571 C595 0.950 . S
H572 C596 0.950 . S
H573 C597 0.951 . S
H574 C599 0.951 . S
H575 C601 0.950 . S
H576 C602 0.950 . S
H577 C604 0.950 . S
H578 C607 0.950 . S
H579 C608 0.950 . S
H580 C610 0.950 . S
H581 C611 0.950 . S
C582 H564 0.951 . S
C582 C583 1.366 . S
C582 C584 1.388 . S
C583 C582 1.366 . S
C583 C587 1.385 . S
C584 H565 0.951 . S
C584 C582 1.388 . S
C584 C585 1.366 . S
C585 C584 1.366 . S
C585 C586 1.414 . S
C585 C588 1.499 . S
C586 H566 0.950 . S
C586 C585 1.414 . S
C586 C587 1.374 . S
C587 H567 0.950 . S
C587 C583 1.385 . S
C587 C586 1.374 . S
C588 C585 1.499 . S
C588 C589 1.373 1_554 S
C588 C590 1.389 . S
C589 H568 0.950 . S
C589 C588 1.373 1_556 S
C589 C605 1.377 . S
C590 C588 1.389 . S
C590 C591 1.524 . S
C590 C604 1.377 1_554 S
C591 C590 1.524 . S
C591 C592 1.397 . S
C591 C596 1.363 . S
C592 H569 0.950 . S
C592 C591 1.397 . S
C592 C593 1.334 . S
C593 H570 0.950 . S
C593 C592 1.334 . S
C593 C594 1.287 . S
C594 C593 1.287 . S
C594 C595 1.524 . S
C594 H613 0.913 . S
C595 H571 0.950 . S
C595 C594 1.524 . S
C595 C596 1.415 . S
C596 H572 0.950 . S
C596 C591 1.363 . S
C596 C595 1.415 . S
C597 H573 0.951 . S
C597 C598 1.366 . S
C597 C599 1.388 . S
C598 C597 1.366 . S
C598 C602 1.385 . S
C599 H574 0.951 . S
C599 C597 1.388 . S
C599 C600 1.366 . S
C600 C599 1.366 . S
C600 C601 1.414 . S
C600 C603 1.499 . S
C601 H575 0.950 . S
C601 C600 1.414 . S
C601 C602 1.374 . S
C602 H576 0.950 . S
C602 C598 1.385 . S
C602 C601 1.374 . S
C603 C600 1.499 . S
C603 C604 1.373 . S
C603 C605 1.389 . S
C604 H577 0.950 . S
C604 C590 1.377 1_556 S
C604 C603 1.373 . S
C605 C589 1.377 . S
C605 C603 1.389 . S
C605 C606 1.524 . S
C606 C605 1.524 . S
C606 C607 1.397 . S
C606 C611 1.363 . S
C607 H578 0.950 . S
C607 C606 1.397 . S
C607 C608 1.334 . S
C608 H579 0.950 . S
C608 C607 1.334 . S
C608 C609 1.287 . S
C609 C608 1.287 . S
C609 C610 1.524 . S
C609 H612 0.999 . S
C610 H580 0.950 . S
C610 C609 1.524 . S
C610 C611 1.415 . S
C611 H581 0.950 . S
C611 C606 1.363 . S
C611 C610 1.415 . S
H612 C609 0.999 . S
H613 C594 0.913 . S
H614 C632 0.951 . S
H615 C634 0.951 . S
H616 C636 0.950 . S
H617 C637 0.950 . S
H618 C639 0.950 . S
H619 C642 0.950 . S
H620 C643 0.950 . S
H621 C645 0.950 . S
H622 C646 0.950 . S
H623 C647 0.951 . S
H624 C649 0.951 . S
H625 C651 0.950 . S
H626 C652 0.950 . S
H627 C654 0.950 . S
H628 C657 0.950 . S
H629 C658 0.950 . S
H630 C660 0.950 . S
H631 C661 0.950 . S
C632 H614 0.951 . S
C632 C633 1.366 . S
C632 C634 1.388 . S
C633 C632 1.366 . S
C633 C637 1.385 . S
C634 H615 0.951 . S
C634 C632 1.388 . S
C634 C635 1.366 . S
C635 C634 1.366 . S
C635 C636 1.414 . S
C635 C638 1.499 . S
C636 H616 0.950 . S
C636 C635 1.414 . S
C636 C637 1.374 . S
C637 H617 0.950 . S
C637 C633 1.385 . S
C637 C636 1.374 . S
C638 C635 1.499 . S
C638 C639 1.373 1_655 S
C638 C640 1.389 . S
C639 H618 0.950 . S
C639 C638 1.373 1_455 S
C639 C655 1.377 . S
C640 C638 1.389 . S
C640 C641 1.524 . S
C640 C654 1.377 1_554 S
C641 C640 1.524 . S
C641 C642 1.397 . S
C641 C646 1.363 1_554 S
C642 H619 0.950 . S
C642 C641 1.397 . S
C642 C643 1.334 . S
C643 H620 0.950 . S
C643 C642 1.334 . S
C643 C644 1.287 . S
C644 C643 1.287 . S
C644 C645 1.524 1_554 S
C644 H663 0.913 . S
C645 H621 0.950 . S
C645 C644 1.524 1_556 S
C645 C646 1.415 . S
C646 H622 0.950 . S
C646 C641 1.363 1_556 S
C646 C645 1.415 . S
C647 H623 0.951 . S
C647 C648 1.366 1_455 S
C647 C649 1.388 . S
C648 C647 1.366 1_655 S
C648 C652 1.385 . S
C649 H624 0.951 . S
C649 C647 1.388 . S
C649 C650 1.366 1_455 S
C650 C649 1.366 1_655 S
C650 C651 1.414 . S
C650 C653 1.499 . S
C651 H625 0.950 . S
C651 C650 1.414 . S
C651 C652 1.374 . S
C652 H626 0.950 . S
C652 C648 1.385 . S
C652 C651 1.374 . S
C653 C650 1.499 . S
C653 C654 1.373 . S
C653 C655 1.389 1_656 S
C654 H627 0.950 . S
C654 C640 1.377 1_556 S
C654 C653 1.373 . S
C655 C639 1.377 . S
C655 C653 1.389 1_454 S
C655 C656 1.524 . S
C656 C655 1.524 . S
C656 C657 1.397 1_554 S
C656 C661 1.363 . S
C657 H628 0.950 . S
C657 C656 1.397 1_556 S
C657 C658 1.334 . S
C658 H629 0.950 . S
C658 C657 1.334 . S
C658 C659 1.287 . S
C659 C658 1.287 . S
C659 C660 1.524 1_556 S
C659 H662 0.999 . S
C660 H630 0.950 . S
C660 C659 1.524 1_554 S
C660 C661 1.415 . S
C661 H631 0.950 . S
C661 C656 1.363 . S
C661 C660 1.415 . S
H662 C659 0.999 . S
H663 C644 0.913 . S
H664 C682 0.951 . S
H665 C684 0.951 . S
H666 C686 0.950 . S
H667 C687 0.950 . S
H668 C689 0.950 . S
H669 C692 0.950 . S
H670 C693 0.950 . S
H671 C695 0.950 . S
H672 C696 0.950 . S
H673 C697 0.951 . S
H674 C699 0.951 . S
H675 C701 0.950 1_655 S
H676 C702 0.946 . S
H677 C704 0.950 1_655 S
H678 C707 0.950 . S
H679 C708 0.950 . S
H680 C710 0.950 . S
H681 C711 0.950 . S
C682 H664 0.951 . S
C682 C683 1.366 . S
C682 C684 1.388 . S
C683 C682 1.366 . S
C683 C687 1.385 . S
C684 H665 0.951 . S
C684 C682 1.388 . S
C684 C685 1.366 . S
C685 C684 1.366 . S
C685 C686 1.414 . S
C685 C688 1.499 . S
C686 H666 0.950 . S
C686 C685 1.414 . S
C686 C687 1.374 . S
C687 H667 0.950 . S
C687 C683 1.385 . S
C687 C686 1.374 . S
C688 C685 1.499 . S
C688 C689 1.373 . S
C688 C690 1.389 . S
C689 H668 0.950 . S
C689 C688 1.373 . S
C689 C705 1.377 . S
C690 C688 1.389 . S
C690 C691 1.534 . S
C690 C704 1.377 . S
C691 C690 1.534 . S
C691 C692 1.398 . S
C691 C696 1.352 1_455 S
C692 H669 0.950 . S
C692 C691 1.398 . S
C692 C693 1.334 1_455 S
C693 H670 0.950 . S
C693 C692 1.334 1_655 S
C693 C694 1.287 . S
C694 C693 1.287 . S
C694 C695 1.524 . S
C694 H713 0.913 . S
C695 H671 0.950 . S
C695 C694 1.524 . S
C695 C696 1.415 . S
C696 H672 0.950 . S
C696 C691 1.352 1_655 S
C696 C695 1.415 . S
C697 H673 0.951 . S
C697 C698 1.366 . S
C697 C699 1.388 . S
C698 C697 1.366 . S
C698 C702 1.387 1_455 S
C699 H674 0.951 . S
C699 C697 1.388 . S
C699 C700 1.366 . S
C700 C699 1.366 . S
C700 C701 1.414 . S
C700 C703 1.499 . S
C701 H675 0.950 1_455 S
C701 C700 1.414 . S
C701 C702 1.375 1_455 S
C702 H676 0.946 . S
C702 C698 1.387 1_655 S
C702 C701 1.375 1_655 S
C703 C700 1.499 . S
C703 C704 1.373 . S
C703 C705 1.389 . S
C704 H677 0.950 1_455 S
C704 C690 1.377 . S
C704 C703 1.373 . S
C705 C689 1.377 . S
C705 C703 1.389 . S
C705 C706 1.524 . S
C706 C705 1.524 . S
C706 C707 1.397 . S
C706 C711 1.363 . S
C707 H678 0.950 . S
C707 C706 1.397 . S
C707 C708 1.334 . S
C708 H679 0.950 . S
C708 C707 1.334 . S
C708 C709 1.287 . S
C709 C708 1.287 . S
C709 C710 1.524 . S
C709 H712 0.999 . S
C710 H680 0.950 . S
C710 C709 1.524 . S
C710 C711 1.415 . S
C711 H681 0.950 . S
C711 C706 1.363 . S
C711 C710 1.415 . S
H712 C709 0.999 . S
H713 C694 0.913 . S
H714 C732 0.951 . S
H715 C734 0.951 . S
H716 C736 0.950 . S
H717 C737 0.950 . S
H718 C739 0.950 . S
H719 C742 0.950 . S
H720 C743 0.950 . S
H721 C745 0.950 . S
H722 C746 0.950 . S
H723 C747 0.951 . S
H724 C749 0.951 . S
H725 C751 0.950 . S
H726 C752 0.950 . S
H727 C754 0.950 . S
H728 C757 0.950 . S
H729 C758 0.950 . S
H730 C760 0.950 . S
H731 C761 0.950 . S
C732 H714 0.951 . S
C732 C733 1.366 . S
C732 C734 1.388 . S
C733 C732 1.366 . S
C733 C737 1.385 . S
C734 H715 0.951 . S
C734 C732 1.388 . S
C734 C735 1.366 . S
C735 C734 1.366 . S
C735 C736 1.414 . S
C735 C738 1.499 . S
C736 H716 0.950 . S
C736 C735 1.414 . S
C736 C737 1.374 . S
C737 H717 0.950 . S
C737 C733 1.385 . S
C737 C736 1.374 . S
C738 C735 1.499 . S
C738 C739 1.373 . S
C738 C740 1.389 . S
C739 H718 0.950 . S
C739 C738 1.373 . S
C739 C755 1.377 . S
C740 C738 1.389 . S
C740 C741 1.524 . S
C740 C754 1.377 . S
C741 C740 1.524 . S
C741 C742 1.397 . S
C741 C746 1.363 . S
C742 H719 0.950 . S
C742 C741 1.397 . S
C742 C743 1.334 1_554 S
C743 H720 0.950 . S
C743 C742 1.334 1_556 S
C743 C744 1.287 . S
C744 C743 1.287 . S
C744 C745 1.524 1_556 S
C744 H763 0.913 . S
C745 H721 0.950 . S
C745 C744 1.524 1_554 S
C745 C746 1.415 . S
C746 H722 0.950 . S
C746 C741 1.363 . S
C746 C745 1.415 . S
C747 H723 0.951 . S
C747 C748 1.366 . S
C747 C749 1.388 . S
C748 C747 1.366 . S
C748 C752 1.385 1_565 S
C749 H724 0.951 . S
C749 C747 1.388 . S
C749 C750 1.366 1_565 S
C750 C749 1.366 1_545 S
C750 C751 1.414 . S
C750 C753 1.499 . S
C751 H725 0.950 . S
C751 C750 1.414 . S
C751 C752 1.374 . S
C752 H726 0.950 . S
C752 C748 1.385 1_545 S
C752 C751 1.374 . S
C753 C750 1.499 . S
C753 C754 1.373 . S
C753 C755 1.389 . S
C754 H727 0.950 . S
C754 C740 1.377 . S
C754 C753 1.373 . S
C755 C739 1.377 . S
C755 C753 1.389 . S
C755 C756 1.524 . S
C756 C755 1.524 . S
C756 C757 1.397 . S
C756 C761 1.363 1_545 S
C757 H728 0.950 . S
C757 C756 1.397 . S
C757 C758 1.334 . S
C758 H729 0.950 . S
C758 C757 1.334 . S
C758 C759 1.287 . S
C759 C758 1.287 . S
C759 C760 1.524 1_545 S
C759 H762 1.004 . S
C760 H730 0.950 . S
C760 C759 1.524 1_565 S
C760 C761 1.415 . S
C761 H731 0.950 . S
C761 C756 1.363 1_565 S
C761 C760 1.415 . S
H762 C759 1.004 . S
H763 C744 0.913 . S
H764 C782 0.951 . S
H765 C784 0.951 . S
H766 C786 0.950 . S
H767 C787 0.950 . S
H768 C789 0.950 . S
H769 C792 0.950 . S
H770 C793 0.950 . S
H771 C795 0.950 . S
H772 C796 0.950 . S
H773 C797 0.951 . S
H774 C799 0.951 . S
H775 C801 0.950 . S
H776 C802 0.950 . S
H777 C804 0.950 . S
H778 C807 0.950 . S
H779 C808 0.950 . S
H780 C810 0.950 . S
H781 C811 0.950 . S
C782 H764 0.951 . S
C782 C783 1.366 . S
C782 C784 1.388 . S
C783 C782 1.366 . S
C783 C787 1.385 . S
C784 H765 0.951 . S
C784 C782 1.388 . S
C784 C785 1.366 . S
C785 C784 1.366 . S
C785 C786 1.414 . S
C785 C788 1.499 . S
C786 H766 0.950 . S
C786 C785 1.414 . S
C786 C787 1.374 . S
C787 H767 0.950 . S
C787 C783 1.385 . S
C787 C786 1.374 . S
C788 C785 1.499 . S
C788 C789 1.373 . S
C788 C790 1.389 . S
C789 H768 0.950 . S
C789 C788 1.373 . S
C789 C805 1.377 . S
C790 C788 1.389 . S
C790 C791 1.524 . S
C790 C804 1.377 . S
C791 C790 1.524 . S
C791 C792 1.397 . S
C791 C796 1.363 . S
C792 H769 0.950 . S
C792 C791 1.397 . S
C792 C793 1.334 . S
C793 H770 0.950 . S
C793 C792 1.334 . S
C793 C794 1.287 . S
C794 C793 1.287 . S
C794 C795 1.524 . S
C794 H813 0.913 . S
C795 H771 0.950 . S
C795 C794 1.524 . S
C795 C796 1.415 . S
C796 H772 0.950 . S
C796 C791 1.363 . S
C796 C795 1.415 . S
C797 H773 0.951 . S
C797 C798 1.366 . S
C797 C799 1.388 . S
C798 C797 1.366 . S
C798 C802 1.385 . S
C799 H774 0.951 . S
C799 C797 1.388 . S
C799 C800 1.366 . S
C800 C799 1.366 . S
C800 C801 1.414 . S
C800 C803 1.499 . S
C801 H775 0.950 . S
C801 C800 1.414 . S
C801 C802 1.374 . S
C802 H776 0.950 . S
C802 C798 1.385 . S
C802 C801 1.374 . S
C803 C800 1.499 . S
C803 C804 1.373 . S
C803 C805 1.389 . S
C804 H777 0.950 . S
C804 C790 1.377 . S
C804 C803 1.373 . S
C805 C789 1.377 . S
C805 C803 1.389 . S
C805 C806 1.524 . S
C806 C805 1.524 . S
C806 C807 1.397 . S
C806 C811 1.363 . S
C807 H778 0.950 . S
C807 C806 1.397 . S
C807 C808 1.334 . S
C808 H779 0.950 . S
C808 C807 1.334 . S
C808 C809 1.287 . S
C809 C808 1.287 . S
C809 C810 1.524 . S
C809 H812 0.999 . S
C810 H780 0.950 . S
C810 C809 1.524 . S
C810 C811 1.415 . S
C811 H781 0.950 . S
C811 C806 1.363 . S
C811 C810 1.415 . S
H812 C809 0.999 . S
H813 C794 0.913 . S
H814 C832 0.951 . S
H815 C834 0.951 . S
H816 C836 0.950 . S
H817 C837 0.950 . S
H818 C839 0.950 . S
H819 C842 0.950 . S
H820 C843 0.950 . S
H821 C845 0.950 . S
H822 C846 0.950 . S
H823 C847 0.951 . S
H824 C849 0.951 . S
H825 C851 0.950 . S
H826 C852 0.950 . S
H827 C854 0.950 . S
H828 C857 0.950 . S
H829 C858 0.950 . S
H830 C860 0.950 . S
H831 C861 0.950 . S
C832 H814 0.951 . S
C832 C833 1.366 . S
C832 C834 1.388 . S
C833 C832 1.366 . S
C833 C837 1.385 . S
C834 H815 0.951 . S
C834 C832 1.388 . S
C834 C835 1.366 . S
C835 C834 1.366 . S
C835 C836 1.414 . S
C835 C838 1.499 . S
C836 H816 0.950 . S
C836 C835 1.414 . S
C836 C837 1.374 . S
C837 H817 0.950 . S
C837 C833 1.385 . S
C837 C836 1.374 . S
C838 C835 1.499 . S
C838 C839 1.373 . S
C838 C840 1.389 . S
C839 H818 0.950 . S
C839 C838 1.373 . S
C839 C855 1.377 . S
C840 C838 1.389 . S
C840 C841 1.524 . S
C840 C854 1.377 . S
C841 C840 1.524 . S
C841 C842 1.397 . S
C841 C846 1.363 . S
C842 H819 0.950 . S
C842 C841 1.397 . S
C842 C843 1.334 . S
C843 H820 0.950 . S
C843 C842 1.334 . S
C843 C844 1.287 . S
C844 C843 1.287 . S
C844 C845 1.524 . S
C844 H863 0.913 . S
C845 H821 0.950 . S
C845 C844 1.524 . S
C845 C846 1.415 . S
C846 H822 0.950 . S
C846 C841 1.363 . S
C846 C845 1.415 . S
C847 H823 0.951 . S
C847 C848 1.366 . S
C847 C849 1.388 . S
C848 C847 1.366 . S
C848 C852 1.385 . S
C849 H824 0.951 . S
C849 C847 1.388 . S
C849 C850 1.366 . S
C850 C849 1.366 . S
C850 C851 1.414 . S
C850 C853 1.499 . S
C851 H825 0.950 . S
C851 C850 1.414 . S
C851 C852 1.374 . S
C852 H826 0.950 . S
C852 C848 1.385 . S
C852 C851 1.374 . S
C853 C850 1.499 . S
C853 C854 1.373 . S
C853 C855 1.389 . S
C854 H827 0.950 . S
C854 C840 1.377 . S
C854 C853 1.373 . S
C855 C839 1.377 . S
C855 C853 1.389 . S
C855 C856 1.524 . S
C856 C855 1.524 . S
C856 C857 1.397 . S
C856 C861 1.363 . S
C857 H828 0.950 . S
C857 C856 1.397 . S
C857 C858 1.334 . S
C858 H829 0.950 . S
C858 C857 1.334 . S
C858 C859 1.287 . S
C859 C858 1.287 . S
C859 C860 1.524 . S
C859 H862 0.999 . S
C860 H830 0.950 . S
C860 C859 1.524 . S
C860 C861 1.415 . S
C861 H831 0.950 . S
C861 C856 1.363 . S
C861 C860 1.415 . S
H862 C859 0.999 . S
H863 C844 0.913 . S
H864 C882 0.951 . S
H865 C884 0.951 1_455 S
H866 C886 0.950 . S
H867 C887 0.950 . S
H868 C889 0.950 . S
H869 C892 0.950 . S
H870 C893 0.950 . S
H871 C895 0.973 . S
H872 C896 0.950 . S
H873 C897 0.951 . S
H874 C899 0.951 . S
H875 C901 0.950 . S
H876 C902 0.950 . S
H877 C904 0.950 . S
H878 C907 0.950 1_554 S
H879 C908 0.950 . S
H880 C910 0.950 . S
H881 C911 0.950 . S
C882 H864 0.951 . S
C882 C883 1.366 . S
C882 C884 1.388 . S
C883 C882 1.366 . S
C883 C887 1.385 . S
C884 H865 0.951 1_655 S
C884 C882 1.388 . S
C884 C885 1.366 . S
C885 C884 1.366 . S
C885 C886 1.414 . S
C885 C888 1.499 . S
C886 H866 0.950 . S
C886 C885 1.414 . S
C886 C887 1.374 . S
C887 H867 0.950 . S
C887 C883 1.385 . S
C887 C886 1.374 . S
C888 C885 1.499 . S
C888 C889 1.373 . S
C888 C890 1.389 . S
C889 H868 0.950 . S
C889 C888 1.373 . S
C889 C905 1.377 . S
C890 C888 1.389 . S
C890 C891 1.524 . S
C890 C904 1.377 . S
C891 C890 1.524 . S
C891 C892 1.397 . S
C891 C896 1.363 1_655 S
C892 H869 0.950 . S
C892 C891 1.397 . S
C892 C893 1.334 . S
C893 H870 0.950 . S
C893 C892 1.334 . S
C893 C894 1.287 . S
C894 C893 1.287 . S
C894 C895 1.493 1_655 S
C894 H913 0.913 . S
C895 H871 0.973 . S
C895 C894 1.493 1_455 S
C895 C896 1.420 . S
C896 H872 0.950 . S
C896 C891 1.363 1_455 S
C896 C895 1.420 . S
C897 H873 0.951 . S
C897 C898 1.366 1_656 S
C897 C899 1.388 1_556 S
C898 C897 1.366 1_454 S
C898 C902 1.385 . S
C899 H874 0.951 . S
C899 C897 1.388 1_554 S
C899 C900 1.348 1_655 S
C900 C899 1.348 1_455 S
C900 C901 1.441 . S
C900 C903 1.491 1_455 S
C901 H875 0.950 . S
C901 C900 1.441 . S
C901 C902 1.374 . S
C902 H876 0.950 . S
C902 C898 1.385 . S
C902 C901 1.374 . S
C903 C900 1.491 1_655 S
C903 C904 1.373 . S
C903 C905 1.389 . S
C904 H877 0.950 . S
C904 C890 1.377 . S
C904 C903 1.373 . S
C905 C889 1.377 . S
C905 C903 1.389 . S
C905 C906 1.524 1_554 S
C906 C905 1.524 1_556 S
C906 C907 1.397 1_655 S
C906 C911 1.363 . S
C907 H878 0.950 1_556 S
C907 C906 1.397 1_455 S
C907 C908 1.334 . S
C908 H879 0.950 . S
C908 C907 1.334 . S
C908 C909 1.287 1_455 S
C909 C908 1.287 1_655 S
C909 C910 1.524 . S
C909 H912 0.997 1_655 S
C910 H880 0.950 . S
C910 C909 1.524 . S
C910 C911 1.415 . S
C911 H881 0.950 . S
C911 C906 1.363 . S
C911 C910 1.415 . S
H912 C909 0.997 1_455 S
H913 C894 0.913 . S
H914 C932 0.951 . S
H915 C934 0.951 . S
H916 C936 0.950 1_545 S
H917 C937 0.950 . S
H918 C939 0.950 . S
H919 C942 0.950 . S
H920 C943 0.950 . S
H921 C945 0.950 . S
H922 C946 0.950 . S
H923 C947 0.951 . S
H924 C949 0.951 . S
H925 C951 0.954 . S
H926 C952 0.936 1_565 S
H927 C954 0.950 . S
H928 C957 0.950 . S
H929 C958 0.950 . S
H930 C960 0.950 . S
H931 C961 0.950 . S
C932 H914 0.951 . S
C932 C933 1.366 . S
C932 C934 1.388 . S
C933 C932 1.366 . S
C933 C937 1.385 . S
C934 H915 0.951 . S
C934 C932 1.388 . S
C934 C935 1.366 . S
C935 C934 1.366 . S
C935 C936 1.414 . S
C935 C938 1.499 . S
C936 H916 0.950 1_565 S
C936 C935 1.414 . S
C936 C937 1.374 . S
C937 H917 0.950 . S
C937 C933 1.385 . S
C937 C936 1.374 . S
C938 C935 1.499 . S
C938 C939 1.373 1_565 S
C938 C940 1.389 . S
C939 H918 0.950 . S
C939 C938 1.373 1_545 S
C939 C955 1.377 . S
C940 C938 1.389 . S
C940 C941 1.524 . S
C940 C954 1.377 . S
C941 C940 1.524 . S
C941 C942 1.397 . S
C941 C946 1.363 . S
C942 H919 0.950 . S
C942 C941 1.397 . S
C942 C943 1.334 . S
C943 H920 0.950 . S
C943 C942 1.334 . S
C943 C944 1.287 . S
C944 C943 1.287 . S
C944 C945 1.524 . S
C944 H963 0.913 . S
C945 H921 0.950 . S
C945 C944 1.524 . S
C945 C946 1.415 . S
C946 H922 0.950 . S
C946 C941 1.363 . S
C946 C945 1.415 . S
C947 H923 0.951 . S
C947 C948 1.366 . S
C947 C949 1.388 . S
C948 C947 1.366 . S
C948 C952 1.385 . S
C949 H924 0.951 . S
C949 C947 1.388 . S
C949 C950 1.366 1_556 S
C950 C949 1.366 1_554 S
C950 C951 1.412 1_545 S
C950 C953 1.499 . S
C951 H925 0.954 . S
C951 C950 1.412 1_565 S
C951 C952 1.372 1_564 S
C952 H926 0.936 1_545 S
C952 C948 1.385 . S
C952 C951 1.372 1_546 S
C953 C950 1.499 . S
C953 C954 1.373 1_545 S
C953 C955 1.389 . S
C954 H927 0.950 . S
C954 C940 1.377 . S
C954 C953 1.373 1_565 S
C955 C939 1.377 . S
C955 C953 1.389 . S
C955 C956 1.524 . S
C956 C955 1.524 . S
C956 C957 1.397 . S
C956 C961 1.363 . S
C957 H928 0.950 . S
C957 C956 1.397 . S
C957 C958 1.334 . S
C958 H929 0.950 . S
C958 C957 1.334 . S
C958 C959 1.287 . S
C959 C958 1.287 . S
C959 C960 1.524 . S
C959 H962 0.999 . S
C960 H930 0.950 . S
C960 C959 1.524 . S
C960 C961 1.415 . S
C961 H931 0.950 . S
C961 C956 1.363 . S
C961 C960 1.415 . S
H962 C959 0.999 . S
H963 C944 0.913 . S
H964 C982 0.951 . S
H965 C984 0.951 . S
H966 C986 0.950 . S
H967 C987 0.950 . S
H968 C989 0.950 . S
H969 C992 0.950 . S
H970 C993 0.950 . S
H971 C995 0.950 . S
H972 C996 0.950 . S
H973 C997 0.951 . S
H974 C999 0.951 . S
H975 C1001 0.950 . S
H976 C1002 0.950 . S
H977 C1004 0.950 . S
H978 C1007 0.950 . S
H979 C1008 0.950 . S
H980 C1010 0.950 . S
H981 C1011 0.950 . S
C982 H964 0.951 . S
C982 C983 1.366 . S
C982 C984 1.388 . S
C983 C982 1.366 . S
C983 C987 1.385 . S
C984 H965 0.951 . S
C984 C982 1.388 . S
C984 C985 1.366 . S
C985 C984 1.366 . S
C985 C986 1.414 . S
C985 C988 1.499 . S
C986 H966 0.950 . S
C986 C985 1.414 . S
C986 C987 1.374 . S
C987 H967 0.950 . S
C987 C983 1.385 . S
C987 C986 1.374 . S
C988 C985 1.499 . S
C988 C989 1.373 . S
C988 C990 1.389 . S
C989 H968 0.950 . S
C989 C988 1.373 . S
C989 C1005 1.377 . S
C990 C988 1.389 . S
C990 C991 1.524 . S
C990 C1004 1.377 . S
C991 C990 1.524 . S
C991 C992 1.397 . S
C991 C996 1.363 . S
C992 H969 0.950 . S
C992 C991 1.397 . S
C992 C993 1.334 . S
C993 H970 0.950 . S
C993 C992 1.334 . S
C993 C994 1.287 . S
C994 C993 1.287 . S
C994 C995 1.524 . S
C994 H1013 0.913 . S
C995 H971 0.950 . S
C995 C994 1.524 . S
C995 C996 1.415 . S
C996 H972 0.950 . S
C996 C991 1.363 . S
C996 C995 1.415 . S
C997 H973 0.951 . S
C997 C998 1.366 . S
C997 C999 1.388 . S
C998 C997 1.366 . S
C998 C1002 1.385 . S
C999 H974 0.951 . S
C999 C997 1.388 . S
C999 C1000 1.366 . S
C1000 C999 1.366 . S
C1000 C1001 1.414 1_556 S
C1000 C1003 1.499 1_556 S
C1001 H975 0.950 . S
C1001 C1000 1.414 1_554 S
C1001 C1002 1.374 1_554 S
C1002 H976 0.950 . S
C1002 C998 1.385 . S
C1002 C1001 1.374 1_556 S
C1003 C1000 1.499 1_554 S
C1003 C1004 1.373 . S
C1003 C1005 1.389 . S
C1004 H977 0.950 . S
C1004 C990 1.377 . S
C1004 C1003 1.373 . S
C1005 C989 1.377 . S
C1005 C1003 1.389 . S
C1005 C1006 1.524 1_554 S
C1006 C1005 1.524 1_556 S
C1006 C1007 1.397 1_556 S
C1006 C1011 1.363 . S
C1007 H978 0.950 . S
C1007 C1006 1.397 1_554 S
C1007 C1008 1.334 1_554 S
C1008 H979 0.950 . S
C1008 C1007 1.334 1_556 S
C1008 C1009 1.287 . S
C1009 C1008 1.287 . S
C1009 C1010 1.524 . S
C1009 H1012 0.999 . S
C1010 H980 0.950 . S
C1010 C1009 1.524 . S
C1010 C1011 1.415 . S
C1011 H981 0.950 . S
C1011 C1006 1.363 . S
C1011 C1010 1.415 . S
H1012 C1009 0.999 . S
H1013 C994 0.913 . S
H1014 C1032 0.951 . S
H1015 C1034 0.951 . S
H1016 C1036 0.950 . S
H1017 C1037 0.950 . S
H1018 C1039 0.950 . S
H1019 C1042 0.950 . S
H1020 C1043 0.950 . S
H1021 C1045 0.950 . S
H1022 C1046 0.950 . S
H1023 C1047 0.951 . S
H1024 C1049 0.951 . S
H1025 C1051 0.950 . S
H1026 C1052 0.950 . S
H1027 C1054 0.950 . S
H1028 C1057 0.950 1_556 S
H1029 C1058 0.950 1_556 S
H1030 C1060 0.950 . S
H1031 C1061 0.950 . S
C1032 H1014 0.951 . S
C1032 C1033 1.366 . S
C1032 C1034 1.388 . S
C1033 C1032 1.366 . S
C1033 C1037 1.385 . S
C1034 H1015 0.951 . S
C1034 C1032 1.388 . S
C1034 C1035 1.366 . S
C1035 C1034 1.366 . S
C1035 C1036 1.414 . S
C1035 C1038 1.499 . S
C1036 H1016 0.950 . S
C1036 C1035 1.414 . S
C1036 C1037 1.374 . S
C1037 H1017 0.950 . S
C1037 C1033 1.385 . S
C1037 C1036 1.374 . S
C1038 C1035 1.499 . S
C1038 C1039 1.373 . S
C1038 C1040 1.389 . S
C1039 H1018 0.950 . S
C1039 C1038 1.373 . S
C1039 C1055 1.377 . S
C1040 C1038 1.389 . S
C1040 C1041 1.524 . S
C1040 C1054 1.377 . S
C1041 C1040 1.524 . S
C1041 C1042 1.397 . S
C1041 C1046 1.363 . S
C1042 H1019 0.950 . S
C1042 C1041 1.397 . S
C1042 C1043 1.334 . S
C1043 H1020 0.950 . S
C1043 C1042 1.334 . S
C1043 C1044 1.287 . S
C1044 C1043 1.287 . S
C1044 C1045 1.524 . S
C1044 H1063 0.913 . S
C1045 H1021 0.950 . S
C1045 C1044 1.524 . S
C1045 C1046 1.415 . S
C1046 H1022 0.950 . S
C1046 C1041 1.363 . S
C1046 C1045 1.415 . S
C1047 H1023 0.951 . S
C1047 C1048 1.366 1_554 S
C1047 C1049 1.388 . S
C1048 C1047 1.366 1_556 S
C1048 C1052 1.385 . S
C1049 H1024 0.951 . S
C1049 C1047 1.388 . S
C1049 C1050 1.366 . S
C1050 C1049 1.366 . S
C1050 C1051 1.414 1_554 S
C1050 C1053 1.499 . S
C1051 H1025 0.950 . S
C1051 C1050 1.414 1_556 S
C1051 C1052 1.374 . S
C1052 H1026 0.950 . S
C1052 C1048 1.385 . S
C1052 C1051 1.374 . S
C1053 C1050 1.499 . S
C1053 C1054 1.373 . S
C1053 C1055 1.389 . S
C1054 H1027 0.950 . S
C1054 C1040 1.377 . S
C1054 C1053 1.373 . S
C1055 C1039 1.377 . S
C1055 C1053 1.389 . S
C1055 C1056 1.524 . S
C1056 C1055 1.524 . S
C1056 C1057 1.397 . S
C1056 C1061 1.363 . S
C1057 H1028 0.950 1_554 S
C1057 C1056 1.397 . S
C1057 C1058 1.334 . S
C1058 H1029 0.950 1_554 S
C1058 C1057 1.334 . S
C1058 C1059 1.287 . S
C1059 C1058 1.287 . S
C1059 C1060 1.524 . S
C1059 H1062 0.999 . S
C1060 H1030 0.950 . S
C1060 C1059 1.524 . S
C1060 C1061 1.415 . S
C1061 H1031 0.950 . S
C1061 C1056 1.363 . S
C1061 C1060 1.415 . S
H1062 C1059 0.999 . S
H1063 C1044 0.913 . S
H1064 C1082 0.951 . S
H1065 C1084 0.951 . S
H1066 C1086 0.950 . S
H1067 C1087 0.950 . S
H1068 C1089 0.950 . S
H1069 C1092 0.950 . S
H1070 C1093 0.950 . S
H1071 C1095 0.950 . S
H1072 C1096 0.950 1_656 S
H1073 C1097 0.951 . S
H1074 C1099 0.951 . S
H1075 C1101 0.965 . S
H1076 C1102 0.950 1_655 S
H1077 C1104 0.950 . S
H1078 C1107 0.950 . S
H1079 C1108 0.950 . S
H1080 C1110 0.950 . S
H1081 C1111 0.950 . S
C1082 H1064 0.951 . S
C1082 C1083 1.366 . S
C1082 C1084 1.388 . S
C1083 C1082 1.366 . S
C1083 C1087 1.385 . S
C1084 H1065 0.951 . S
C1084 C1082 1.388 . S
C1084 C1085 1.366 . S
C1085 C1084 1.366 . S
C1085 C1086 1.414 . S
C1085 C1088 1.499 . S
C1086 H1066 0.950 . S
C1086 C1085 1.414 . S
C1086 C1087 1.374 . S
C1087 H1067 0.950 . S
C1087 C1083 1.385 . S
C1087 C1086 1.374 . S
C1088 C1085 1.499 . S
C1088 C1089 1.373 . S
C1088 C1090 1.389 . S
C1089 H1068 0.950 . S
C1089 C1088 1.373 . S
C1089 C1105 1.377 . S
C1090 C1088 1.389 . S
C1090 C1091 1.524 1_556 S
C1090 C1104 1.377 . S
C1091 C1090 1.524 1_554 S
C1091 C1092 1.397 . S
C1091 C1096 1.363 . S
C1092 H1069 0.950 . S
C1092 C1091 1.397 . S
C1092 C1093 1.334 . S
C1093 H1070 0.950 . S
C1093 C1092 1.334 . S
C1093 C1094 1.287 . S
C1094 C1093 1.287 . S
C1094 C1095 1.524 1_455 S
C1094 H1113 0.913 . S
C1095 H1071 0.950 . S
C1095 C1094 1.524 1_655 S
C1095 C1096 1.415 1_655 S
C1096 H1072 0.950 1_454 S
C1096 C1091 1.363 . S
C1096 C1095 1.415 1_455 S
C1097 H1073 0.951 . S
C1097 C1098 1.366 . S
C1097 C1099 1.388 . S
C1098 C1097 1.366 . S
C1098 C1102 1.385 . S
C1099 H1074 0.951 . S
C1099 C1097 1.388 . S
C1099 C1100 1.366 . S
C1100 C1099 1.366 . S
C1100 C1101 1.414 . S
C1100 C1103 1.499 . S
C1101 H1075 0.965 . S
C1101 C1100 1.414 . S
C1101 C1102 1.374 . S
C1102 H1076 0.950 1_455 S
C1102 C1098 1.385 . S
C1102 C1101 1.374 . S
C1103 C1100 1.499 . S
C1103 C1104 1.373 . S
C1103 C1105 1.389 . S
C1104 H1077 0.950 . S
C1104 C1090 1.377 . S
C1104 C1103 1.373 . S
C1105 C1089 1.377 . S
C1105 C1103 1.389 . S
C1105 C1106 1.524 . S
C1106 C1105 1.524 . S
C1106 C1107 1.397 . S
C1106 C1111 1.363 . S
C1107 H1078 0.950 . S
C1107 C1106 1.397 . S
C1107 C1108 1.334 . S
C1108 H1079 0.950 . S
C1108 C1107 1.334 . S
C1108 C1109 1.287 . S
C1109 C1108 1.287 . S
C1109 C1110 1.524 . S
C1109 H1112 0.999 . S
C1110 H1080 0.950 . S
C1110 C1109 1.524 . S
C1110 C1111 1.415 . S
C1111 H1081 0.950 . S
C1111 C1106 1.363 . S
C1111 C1110 1.415 . S
H1112 C1109 0.999 . S
H1113 C1094 0.913 . S
H1114 C1132 0.951 . S
H1115 C1134 0.951 . S
H1116 C1136 0.950 . S
H1117 C1137 0.950 . S
H1118 C1139 0.950 . S
H1119 C1142 0.950 . S
H1120 C1143 0.950 . S
H1121 C1145 0.950 . S
H1122 C1146 0.950 . S
H1123 C1147 0.978 . S
H1124 C1149 0.951 . S
H1125 C1151 0.950 . S
H1126 C1152 0.950 . S
H1127 C1154 0.950 . S
H1128 C1157 0.950 1_545 S
H1129 C1158 0.950 . S
H1130 C1160 0.950 . S
H1131 C1161 0.950 . S
C1132 H1114 0.951 . S
C1132 C1133 1.366 . S
C1132 C1134 1.388 . S
C1133 C1132 1.366 . S
C1133 C1137 1.385 . S
C1134 H1115 0.951 . S
C1134 C1132 1.388 . S
C1134 C1135 1.366 . S
C1135 C1134 1.366 . S
C1135 C1136 1.414 . S
C1135 C1138 1.499 . S
C1136 H1116 0.950 . S
C1136 C1135 1.414 . S
C1136 C1137 1.374 . S
C1137 H1117 0.950 . S
C1137 C1133 1.385 . S
C1137 C1136 1.374 . S
C1138 C1135 1.499 . S
C1138 C1139 1.373 . S
C1138 C1140 1.389 . S
C1139 H1118 0.950 . S
C1139 C1138 1.373 . S
C1139 C1155 1.377 . S
C1140 C1138 1.389 . S
C1140 C1141 1.524 . S
C1140 C1154 1.377 . S
C1141 C1140 1.524 . S
C1141 C1142 1.397 . S
C1141 C1146 1.363 . S
C1142 H1119 0.950 . S
C1142 C1141 1.397 . S
C1142 C1143 1.334 . S
C1143 H1120 0.950 . S
C1143 C1142 1.334 . S
C1143 C1144 1.287 . S
C1144 C1143 1.287 . S
C1144 C1145 1.524 . S
C1144 H1163 0.913 . S
C1145 H1121 0.950 . S
C1145 C1144 1.524 . S
C1145 C1146 1.415 . S
C1146 H1122 0.950 . S
C1146 C1141 1.363 . S
C1146 C1145 1.415 . S
C1147 H1123 0.978 . S
C1147 C1148 1.366 . S
C1147 C1149 1.388 . S
C1148 C1147 1.366 . S
C1148 C1152 1.385 . S
C1149 H1124 0.951 . S
C1149 C1147 1.388 . S
C1149 C1150 1.366 . S
C1150 C1149 1.366 . S
C1150 C1151 1.414 . S
C1150 C1153 1.499 . S
C1151 H1125 0.950 . S
C1151 C1150 1.414 . S
C1151 C1152 1.374 . S
C1152 H1126 0.950 . S
C1152 C1148 1.385 . S
C1152 C1151 1.374 . S
C1153 C1150 1.499 . S
C1153 C1154 1.373 . S
C1153 C1155 1.389 . S
C1154 H1127 0.950 . S
C1154 C1140 1.377 . S
C1154 C1153 1.373 . S
C1155 C1139 1.377 . S
C1155 C1153 1.389 . S
C1155 C1156 1.524 1_545 S
C1156 C1155 1.524 1_565 S
C1156 C1157 1.397 . S
C1156 C1161 1.363 . S
C1157 H1128 0.950 1_565 S
C1157 C1156 1.397 . S
C1157 C1158 1.334 . S
C1158 H1129 0.950 . S
C1158 C1157 1.334 . S
C1158 C1159 1.287 . S
C1159 C1158 1.287 . S
C1159 C1160 1.524 . S
C1159 H1162 0.999 . S
C1160 H1130 0.950 . S
C1160 C1159 1.524 . S
C1160 C1161 1.415 . S
C1161 H1131 0.950 . S
C1161 C1156 1.363 . S
C1161 C1160 1.415 . S
H1162 C1159 0.999 . S
H1163 C1144 0.913 . S
H1164 C1182 0.951 . S
H1165 C1184 0.951 . S
H1166 C1186 0.950 1_554 S
H1167 C1187 0.950 . S
H1168 C1189 0.950 . S
H1169 C1192 0.950 . S
H1170 C1193 0.950 . S
H1171 C1195 0.950 . S
H1172 C1196 0.950 . S
H1173 C1197 0.951 . S
H1174 C1199 0.951 . S
H1175 C1201 0.950 . S
H1176 C1202 0.950 . S
H1177 C1204 0.950 . S
H1178 C1207 0.950 . S
H1179 C1208 0.950 . S
H1180 C1210 0.950 1_554 S
H1181 C1211 0.950 1_554 S
C1182 H1164 0.951 . S
C1182 C1183 1.366 . S
C1182 C1184 1.388 . S
C1183 C1182 1.366 . S
C1183 C1187 1.385 1_556 S
C1184 H1165 0.951 . S
C1184 C1182 1.388 . S
C1184 C1185 1.366 . S
C1185 C1184 1.366 . S
C1185 C1186 1.414 . S
C1185 C1188 1.499 . S
C1186 H1166 0.950 1_556 S
C1186 C1185 1.414 . S
C1186 C1187 1.374 1_556 S
C1187 H1167 0.950 . S
C1187 C1183 1.385 1_554 S
C1187 C1186 1.374 1_554 S
C1188 C1185 1.499 . S
C1188 C1189 1.373 . S
C1188 C1190 1.389 . S
C1189 H1168 0.950 . S
C1189 C1188 1.373 . S
C1189 C1205 1.377 . S
C1190 C1188 1.389 . S
C1190 C1191 1.524 . S
C1190 C1204 1.377 . S
C1191 C1190 1.524 . S
C1191 C1192 1.397 . S
C1191 C1196 1.363 . S
C1192 H1169 0.950 . S
C1192 C1191 1.397 . S
C1192 C1193 1.334 . S
C1193 H1170 0.950 . S
C1193 C1192 1.334 . S
C1193 C1194 1.287 . S
C1194 C1193 1.287 . S
C1194 C1195 1.524 . S
C1194 H1213 0.913 . S
C1195 H1171 0.950 . S
C1195 C1194 1.524 . S
C1195 C1196 1.415 . S
C1196 H1172 0.950 . S
C1196 C1191 1.363 . S
C1196 C1195 1.415 . S
C1197 H1173 0.951 . S
C1197 C1198 1.366 . S
C1197 C1199 1.388 . S
C1198 C1197 1.366 . S
C1198 C1202 1.385 . S
C1199 H1174 0.951 . S
C1199 C1197 1.388 . S
C1199 C1200 1.366 . S
C1200 C1199 1.366 . S
C1200 C1201 1.414 . S
C1200 C1203 1.499 . S
C1201 H1175 0.950 . S
C1201 C1200 1.414 . S
C1201 C1202 1.374 . S
C1202 H1176 0.950 . S
C1202 C1198 1.385 . S
C1202 C1201 1.374 . S
C1203 C1200 1.499 . S
C1203 C1204 1.373 . S
C1203 C1205 1.389 . S
C1204 H1177 0.950 . S
C1204 C1190 1.377 . S
C1204 C1203 1.373 . S
C1205 C1189 1.377 . S
C1205 C1203 1.389 . S
C1205 C1206 1.524 . S
C1206 C1205 1.524 . S
C1206 C1207 1.397 . S
C1206 C1211 1.363 . S
C1207 H1178 0.950 . S
C1207 C1206 1.397 . S
C1207 C1208 1.334 . S
C1208 H1179 0.950 . S
C1208 C1207 1.334 . S
C1208 C1209 1.287 . S
C1209 C1208 1.287 . S
C1209 C1210 1.524 . S
C1209 H1212 0.999 . S
C1210 H1180 0.950 1_556 S
C1210 C1209 1.524 . S
C1210 C1211 1.415 . S
C1211 H1181 0.950 1_556 S
C1211 C1206 1.363 . S
C1211 C1210 1.415 . S
H1212 C1209 0.999 . S
H1213 C1194 0.913 . S
H1214 C1232 0.951 . S
H1215 C1234 0.951 . S
H1216 C1236 0.950 1_554 S
H1217 C1237 0.950 . S
H1218 C1239 0.950 . S
H1219 C1242 0.950 . S
H1220 C1243 0.950 . S
H1221 C1245 0.950 . S
H1222 C1246 0.950 . S
H1223 C1247 0.951 . S
H1224 C1249 0.951 . S
H1225 C1251 0.950 . S
H1226 C1252 0.950 . S
H1227 C1254 0.950 . S
H1228 C1257 0.950 . S
H1229 C1258 0.950 . S
H1230 C1260 0.950 . S
H1231 C1261 0.950 . S
C1232 H1214 0.951 . S
C1232 C1233 1.366 1_556 S
C1232 C1234 1.388 . S
C1233 C1232 1.366 1_554 S
C1233 C1237 1.385 . S
C1234 H1215 0.951 . S
C1234 C1232 1.388 . S
C1234 C1235 1.366 . S
C1235 C1234 1.366 . S
C1235 C1236 1.414 . S
C1235 C1238 1.499 . S
C1236 H1216 0.950 1_556 S
C1236 C1235 1.414 . S
C1236 C1237 1.374 1_556 S
C1237 H1217 0.950 . S
C1237 C1233 1.385 . S
C1237 C1236 1.374 1_554 S
C1238 C1235 1.499 . S
C1238 C1239 1.373 . S
C1238 C1240 1.389 . S
C1239 H1218 0.950 . S
C1239 C1238 1.373 . S
C1239 C1255 1.377 . S
C1240 C1238 1.389 . S
C1240 C1241 1.524 . S
C1240 C1254 1.377 . S
C1241 C1240 1.524 . S
C1241 C1242 1.397 1_556 S
C1241 C1246 1.363 . S
C1242 H1219 0.950 . S
C1242 C1241 1.397 1_554 S
C1242 C1243 1.334 . S
C1243 H1220 0.950 . S
C1243 C1242 1.334 . S
C1243 C1244 1.287 . S
C1244 C1243 1.287 . S
C1244 C1245 1.524 1_554 S
C1244 H1263 0.913 . S
C1245 H1221 0.950 . S
C1245 C1244 1.524 1_556 S
C1245 C1246 1.415 . S
C1246 H1222 0.950 . S
C1246 C1241 1.363 . S
C1246 C1245 1.415 . S
C1247 H1223 0.951 . S
C1247 C1248 1.366 . S
C1247 C1249 1.388 . S
C1248 C1247 1.366 . S
C1248 C1252 1.385 . S
C1249 H1224 0.951 . S
C1249 C1247 1.388 . S
C1249 C1250 1.366 . S
C1250 C1249 1.366 . S
C1250 C1251 1.414 . S
C1250 C1253 1.499 . S
C1251 H1225 0.950 . S
C1251 C1250 1.414 . S
C1251 C1252 1.374 . S
C1252 H1226 0.950 . S
C1252 C1248 1.385 . S
C1252 C1251 1.374 . S
C1253 C1250 1.499 . S
C1253 C1254 1.373 . S
C1253 C1255 1.389 . S
C1254 H1227 0.950 . S
C1254 C1240 1.377 . S
C1254 C1253 1.373 . S
C1255 C1239 1.377 . S
C1255 C1253 1.389 . S
C1255 C1256 1.524 . S
C1256 C1255 1.524 . S
C1256 C1257 1.397 . S
C1256 C1261 1.363 . S
C1257 H1228 0.950 . S
C1257 C1256 1.397 . S
C1257 C1258 1.334 . S
C1258 H1229 0.950 . S
C1258 C1257 1.334 . S
C1258 C1259 1.287 . S
C1259 C1258 1.287 . S
C1259 C1260 1.524 . S
C1259 H1262 0.999 . S
C1260 H1230 0.950 . S
C1260 C1259 1.524 . S
C1260 C1261 1.415 . S
C1261 H1231 0.950 . S
C1261 C1256 1.363 . S
C1261 C1260 1.415 . S
H1262 C1259 0.999 . S
H1263 C1244 0.913 . S
H1264 C1282 0.951 . S
H1265 C1284 0.951 1_455 S
H1266 C1286 0.950 . S
H1267 C1287 0.950 . S
H1268 C1289 0.950 . S
H1269 C1292 0.999 . S
H1270 C1293 0.950 . S
H1271 C1295 0.950 . S
H1272 C1296 0.950 . S
H1273 C1297 0.951 . S
H1274 C1299 0.951 . S
H1275 C1301 0.950 . S
H1276 C1302 0.950 . S
H1277 C1304 0.950 . S
H1278 C1307 0.950 . S
H1279 C1308 0.950 . S
H1280 C1310 0.950 . S
H1281 C1311 0.950 . S
C1282 H1264 0.951 . S
C1282 C1283 1.366 . S
C1282 C1284 1.388 . S
C1283 C1282 1.366 . S
C1283 C1287 1.385 . S
C1284 H1265 0.951 1_655 S
C1284 C1282 1.388 . S
C1284 C1285 1.366 . S
C1285 C1284 1.366 . S
C1285 C1286 1.414 . S
C1285 C1288 1.499 . S
C1286 H1266 0.950 . S
C1286 C1285 1.414 . S
C1286 C1287 1.374 . S
C1287 H1267 0.950 . S
C1287 C1283 1.385 . S
C1287 C1286 1.374 . S
C1288 C1285 1.499 . S
C1288 C1289 1.373 . S
C1288 C1290 1.392 . S
C1289 H1268 0.950 . S
C1289 C1288 1.373 . S
C1289 C1305 1.377 . S
C1290 C1288 1.392 . S
C1290 C1291 1.522 1_655 S
C1290 C1304 1.376 1_655 S
C1291 C1290 1.522 1_455 S
C1291 C1292 1.397 . S
C1291 C1296 1.363 . S
C1292 H1269 0.999 . S
C1292 C1291 1.397 . S
C1292 C1293 1.334 . S
C1293 H1270 0.950 . S
C1293 C1292 1.334 . S
C1293 C1294 1.287 . S
C1294 C1293 1.287 . S
C1294 C1295 1.524 . S
C1294 H1313 0.913 . S
C1295 H1271 0.950 . S
C1295 C1294 1.524 . S
C1295 C1296 1.415 . S
C1296 H1272 0.950 . S
C1296 C1291 1.363 . S
C1296 C1295 1.415 . S
C1297 H1273 0.951 . S
C1297 C1298 1.366 . S
C1297 C1299 1.388 . S
C1298 C1297 1.366 . S
C1298 C1302 1.385 1_655 S
C1299 H1274 0.951 . S
C1299 C1297 1.388 . S
C1299 C1300 1.366 . S
C1300 C1299 1.366 . S
C1300 C1301 1.414 1_655 S
C1300 C1303 1.499 . S
C1301 H1275 0.950 . S
C1301 C1300 1.414 1_455 S
C1301 C1302 1.374 . S
C1302 H1276 0.950 . S
C1302 C1298 1.385 1_455 S
C1302 C1301 1.374 . S
C1303 C1300 1.499 . S
C1303 C1304 1.373 1_655 S
C1303 C1305 1.389 . S
C1304 H1277 0.950 . S
C1304 C1290 1.376 1_455 S
C1304 C1303 1.373 1_455 S
C1305 C1289 1.377 . S
C1305 C1303 1.389 . S
C1305 C1306 1.524 . S
C1306 C1305 1.524 . S
C1306 C1307 1.397 . S
C1306 C1311 1.363 . S
C1307 H1278 0.950 . S
C1307 C1306 1.397 . S
C1307 C1308 1.334 . S
C1308 H1279 0.950 . S
C1308 C1307 1.334 . S
C1308 C1309 1.287 . S
C1309 C1308 1.287 . S
C1309 C1310 1.524 . S
C1309 H1312 0.999 . S
C1310 H1280 0.950 . S
C1310 C1309 1.524 . S
C1310 C1311 1.415 . S
C1311 H1281 0.950 . S
C1311 C1306 1.363 . S
C1311 C1310 1.415 . S
H1312 C1309 0.999 . S
H1313 C1294 0.913 . S
H1314 C1332 0.951 . S
H1315 C1334 0.951 . S
H1316 C1336 0.950 . S
H1317 C1337 0.950 . S
H1318 C1339 0.950 . S
H1319 C1342 0.950 . S
H1320 C1343 0.950 . S
H1321 C1345 0.950 . S
H1322 C1346 0.950 . S
H1323 C1347 0.951 . S
H1324 C1349 0.951 . S
H1325 C1351 0.950 . S
H1326 C1352 0.950 . S
H1327 C1354 0.978 . S
H1328 C1357 0.950 . S
H1329 C1358 0.950 . S
H1330 C1360 0.950 . S
H1331 C1361 0.950 . S
C1332 H1314 0.951 . S
C1332 C1333 1.366 . S
C1332 C1334 1.388 . S
C1333 C1332 1.366 . S
C1333 C1337 1.385 . S
C1334 H1315 0.951 . S
C1334 C1332 1.388 . S
C1334 C1335 1.366 . S
C1335 C1334 1.366 . S
C1335 C1336 1.414 . S
C1335 C1338 1.499 . S
C1336 H1316 0.950 . S
C1336 C1335 1.414 . S
C1336 C1337 1.374 . S
C1337 H1317 0.950 . S
C1337 C1333 1.385 . S
C1337 C1336 1.374 . S
C1338 C1335 1.499 . S
C1338 C1339 1.373 . S
C1338 C1340 1.390 1_565 S
C1339 H1318 0.950 . S
C1339 C1338 1.373 . S
C1339 C1355 1.377 . S
C1340 C1338 1.390 1_545 S
C1340 C1341 1.524 . S
C1340 C1354 1.376 . S
C1341 C1340 1.524 . S
C1341 C1342 1.397 . S
C1341 C1346 1.363 . S
C1342 H1319 0.950 . S
C1342 C1341 1.397 . S
C1342 C1343 1.334 . S
C1343 H1320 0.950 . S
C1343 C1342 1.334 . S
C1343 C1344 1.287 . S
C1344 C1343 1.287 . S
C1344 C1345 1.524 . S
C1344 H1363 0.913 . S
C1345 H1321 0.950 . S
C1345 C1344 1.524 . S
C1345 C1346 1.415 . S
C1346 H1322 0.950 . S
C1346 C1341 1.363 . S
C1346 C1345 1.415 . S
C1347 H1323 0.951 . S
C1347 C1348 1.366 . S
C1347 C1349 1.388 . S
C1348 C1347 1.366 . S
C1348 C1352 1.385 . S
C1349 H1324 0.951 . S
C1349 C1347 1.388 . S
C1349 C1350 1.366 . S
C1350 C1349 1.366 . S
C1350 C1351 1.414 . S
C1350 C1353 1.499 . S
C1351 H1325 0.950 . S
C1351 C1350 1.414 . S
C1351 C1352 1.374 . S
C1352 H1326 0.950 . S
C1352 C1348 1.385 . S
C1352 C1351 1.374 . S
C1353 C1350 1.499 . S
C1353 C1354 1.347 1_565 S
C1353 C1355 1.389 . S
C1354 H1327 0.978 . S
C1354 C1340 1.376 . S
C1354 C1353 1.347 1_545 S
C1355 C1339 1.377 . S
C1355 C1353 1.389 . S
C1355 C1356 1.524 . S
C1356 C1355 1.524 . S
C1356 C1357 1.397 . S
C1356 C1361 1.363 . S
C1357 H1328 0.950 . S
C1357 C1356 1.397 . S
C1357 C1358 1.334 . S
C1358 H1329 0.950 . S
C1358 C1357 1.334 . S
C1358 C1359 1.287 . S
C1359 C1358 1.287 . S
C1359 C1360 1.524 . S
C1359 H1362 0.999 . S
C1360 H1330 0.950 . S
C1360 C1359 1.524 . S
C1360 C1361 1.415 . S
C1361 H1331 0.950 . S
C1361 C1356 1.363 . S
C1361 C1360 1.415 . S
H1362 C1359 0.999 . S
H1363 C1344 0.913 . S
H1364 C1382 0.951 . S
H1365 C1384 0.951 . S
H1366 C1386 0.950 . S
H1367 C1387 0.950 . S
H1368 C1389 0.950 . S
H1369 C1392 0.950 . S
H1370 C1393 0.950 . S
H1371 C1395 0.950 . S
H1372 C1396 0.950 . S
H1373 C1397 0.951 . S
H1374 C1399 0.951 . S
H1375 C1401 0.950 . S
H1376 C1402 0.950 . S
H1377 C1404 0.950 . S
H1378 C1407 0.950 . S
H1379 C1408 0.950 . S
H1380 C1410 0.950 . S
H1381 C1411 0.950 . S
C1382 H1364 0.951 . S
C1382 C1383 1.366 . S
C1382 C1384 1.388 . S
C1383 C1382 1.366 . S
C1383 C1387 1.385 . S
C1384 H1365 0.951 . S
C1384 C1382 1.388 . S
C1384 C1385 1.366 . S
C1385 C1384 1.366 . S
C1385 C1386 1.414 . S
C1385 C1388 1.499 . S
C1386 H1366 0.950 . S
C1386 C1385 1.414 . S
C1386 C1387 1.374 . S
C1387 H1367 0.950 . S
C1387 C1383 1.385 . S
C1387 C1386 1.374 . S
C1388 C1385 1.499 . S
C1388 C1389 1.373 . S
C1388 C1390 1.389 . S
C1389 H1368 0.950 . S
C1389 C1388 1.373 . S
C1389 C1405 1.377 . S
C1390 C1388 1.389 . S
C1390 C1391 1.524 . S
C1390 C1404 1.377 . S
C1391 C1390 1.524 . S
C1391 C1392 1.397 . S
C1391 C1396 1.363 . S
C1392 H1369 0.950 . S
C1392 C1391 1.397 . S
C1392 C1393 1.334 . S
C1393 H1370 0.950 . S
C1393 C1392 1.334 . S
C1393 C1394 1.287 . S
C1394 C1393 1.287 . S
C1394 C1395 1.524 . S
C1394 H1413 0.913 . S
C1395 H1371 0.950 . S
C1395 C1394 1.524 . S
C1395 C1396 1.415 . S
C1396 H1372 0.950 . S
C1396 C1391 1.363 . S
C1396 C1395 1.415 . S
C1397 H1373 0.951 . S
C1397 C1398 1.366 . S
C1397 C1399 1.388 . S
C1398 C1397 1.366 . S
C1398 C1402 1.385 . S
C1399 H1374 0.951 . S
C1399 C1397 1.388 . S
C1399 C1400 1.366 . S
C1400 C1399 1.366 . S
C1400 C1401 1.414 . S
C1400 C1403 1.499 . S
C1401 H1375 0.950 . S
C1401 C1400 1.414 . S
C1401 C1402 1.374 . S
C1402 H1376 0.950 . S
C1402 C1398 1.385 . S
C1402 C1401 1.374 . S
C1403 C1400 1.499 . S
C1403 C1404 1.373 . S
C1403 C1405 1.389 . S
C1404 H1377 0.950 . S
C1404 C1390 1.377 . S
C1404 C1403 1.373 . S
C1405 C1389 1.377 . S
C1405 C1403 1.389 . S
C1405 C1406 1.524 . S
C1406 C1405 1.524 . S
C1406 C1407 1.397 . S
C1406 C1411 1.363 . S
C1407 H1378 0.950 . S
C1407 C1406 1.397 . S
C1407 C1408 1.334 . S
C1408 H1379 0.950 . S
C1408 C1407 1.334 . S
C1408 C1409 1.287 . S
C1409 C1408 1.287 . S
C1409 C1410 1.524 . S
C1409 H1412 0.999 . S
C1410 H1380 0.950 . S
C1410 C1409 1.524 . S
C1410 C1411 1.415 . S
C1411 H1381 0.950 . S
C1411 C1406 1.363 . S
C1411 C1410 1.415 . S
H1412 C1409 0.999 . S
H1413 C1394 0.913 . S
H1414 C1432 0.951 . S
H1415 C1434 0.951 . S
H1416 C1436 0.950 . S
H1417 C1437 0.950 . S
H1418 C1439 0.950 . S
H1419 C1442 0.950 . S
H1420 C1443 0.950 . S
H1421 C1445 0.950 . S
H1422 C1446 0.950 . S
H1423 C1447 0.951 . S
H1424 C1449 0.951 . S
H1425 C1451 0.950 . S
H1426 C1452 0.950 . S
H1427 C1454 0.950 . S
H1428 C1457 0.950 . S
H1429 C1458 0.950 . S
H1430 C1460 0.950 . S
H1431 C1461 0.950 . S
C1432 H1414 0.951 . S
C1432 C1433 1.366 . S
C1432 C1434 1.388 . S
C1433 C1432 1.366 . S
C1433 C1437 1.385 . S
C1434 H1415 0.951 . S
C1434 C1432 1.388 . S
C1434 C1435 1.366 . S
C1435 C1434 1.366 . S
C1435 C1436 1.414 . S
C1435 C1438 1.499 . S
C1436 H1416 0.950 . S
C1436 C1435 1.414 . S
C1436 C1437 1.374 . S
C1437 H1417 0.950 . S
C1437 C1433 1.385 . S
C1437 C1436 1.374 . S
C1438 C1435 1.499 . S
C1438 C1439 1.373 . S
C1438 C1440 1.389 . S
C1439 H1418 0.950 . S
C1439 C1438 1.373 . S
C1439 C1455 1.377 . S
C1440 C1438 1.389 . S
C1440 C1441 1.524 . S
C1440 C1454 1.377 . S
C1441 C1440 1.524 . S
C1441 C1442 1.397 . S
C1441 C1446 1.363 . S
C1442 H1419 0.950 . S
C1442 C1441 1.397 . S
C1442 C1443 1.334 . S
C1443 H1420 0.950 . S
C1443 C1442 1.334 . S
C1443 C1444 1.287 . S
C1444 C1443 1.287 . S
C1444 C1445 1.524 . S
C1444 H1463 0.913 . S
C1445 H1421 0.950 . S
C1445 C1444 1.524 . S
C1445 C1446 1.415 . S
C1446 H1422 0.950 . S
C1446 C1441 1.363 . S
C1446 C1445 1.415 . S
C1447 H1423 0.951 . S
C1447 C1448 1.366 . S
C1447 C1449 1.388 . S
C1448 C1447 1.366 . S
C1448 C1452 1.385 . S
C1449 H1424 0.951 . S
C1449 C1447 1.388 . S
C1449 C1450 1.366 . S
C1450 C1449 1.366 . S
C1450 C1451 1.414 . S
C1450 C1453 1.499 . S
C1451 H1425 0.950 . S
C1451 C1450 1.414 . S
C1451 C1452 1.374 . S
C1452 H1426 0.950 . S
C1452 C1448 1.385 . S
C1452 C1451 1.374 . S
C1453 C1450 1.499 . S
C1453 C1454 1.373 . S
C1453 C1455 1.389 . S
C1454 H1427 0.950 . S
C1454 C1440 1.377 . S
C1454 C1453 1.373 . S
C1455 C1439 1.377 . S
C1455 C1453 1.389 . S
C1455 C1456 1.524 . S
C1456 C1455 1.524 . S
C1456 C1457 1.397 . S
C1456 C1461 1.363 . S
C1457 H1428 0.950 . S
C1457 C1456 1.397 . S
C1457 C1458 1.334 . S
C1458 H1429 0.950 . S
C1458 C1457 1.334 . S
C1458 C1459 1.287 . S
C1459 C1458 1.287 . S
C1459 C1460 1.524 . S
C1459 H1462 0.999 . S
C1460 H1430 0.950 . S
C1460 C1459 1.524 . S
C1460 C1461 1.415 . S
C1461 H1431 0.950 . S
C1461 C1456 1.363 . S
C1461 C1460 1.415 . S
H1462 C1459 0.999 . S
H1463 C1444 0.913 . S
C283 N80 2.164 . S
C298 C135 2.249 . S
C348 C161 1.692 . S
C333 N93 1.636 . S
C398 C201 1.838 . S
C383 N54 1.790 . S
C448 C255 2.350 . S
C433 N67 2.275 . S
C498 C116 2.249 1_565 S
C483 N28 2.170 . S
C533 N41 1.632 . S
C548 C146 1.692 . S
C583 N2 1.796 . S
C598 C186 1.838 . S
C633 N15 2.283 . S
C648 C236 2.350 1_655 S
C698 C112 0.294 . S
C683 N70 0.256 . S
C748 C173 0.455 . S
C733 N83 0.468 . S
C798 C213 0.366 . S
C783 N96 0.356 . S
C833 N57 0.148 . S
C848 C232 0.251 . S
C883 N18 0.239 . S
C898 C133 0.314 . S
C948 C152 0.455 . S
C933 N31 0.463 . S
C998 C192 0.365 . S
C983 N44 0.355 . S
C1033 N5 0.126 . S
C1048 C253 0.252 . S
C1083 N66 1.848 1_556 S
C1098 C106 1.917 . S
C1133 N79 2.449 . S
C1148 C156 2.519 . S
C1198 C196 2.285 . S
C1183 N92 2.235 1_556 S
C1248 C226 1.677 . S
C1233 N53 1.628 . S
C1283 N14 1.860 . S
C1298 C121 1.918 . S
C1348 C175 2.518 . S
C1333 N27 2.457 . S
C1398 C215 2.286 . S
C1383 N40 2.225 . S
C1433 N1 1.636 . S
C1448 C241 1.677 . S
