# Generated by pormake.
# Topology ctn, (3,4)-cn, num edge types: 1
# Building blocks:
#     Node 0, Type 0, BuildingBlock: VETTIZ_charged_linker_0, # of connection points: 3
#     Node 1, Type 0, BuildingBlock: VETTIZ_charged_linker_0, # of connection points: 3
#     Node 2, Type 0, BuildingBlock: VETTIZ_charged_linker_0, # of connection points: 3
#     Node 3, Type 0, BuildingBlock: VETTIZ_charged_linker_0, # of connection points: 3
#     Node 4, Type 0, BuildingBlock: VETTIZ_charged_linker_0, # of connection points: 3
#     Node 5, Type 0, BuildingBlock: VETTIZ_charged_linker_0, # of connection points: 3
#     Node 6, Type 0, BuildingBlock: VETTIZ_charged_linker_0, # of connection points: 3
#     Node 7, Type 0, BuildingBlock: VETTIZ_charged_linker_0, # of connection points: 3
#     Node 8, Type 0, BuildingBlock: VETTIZ_charged_linker_0, # of connection points: 3
#     Node 9, Type 0, BuildingBlock: VETTIZ_charged_linker_0, # of connection points: 3
#     Node 10, Type 0, BuildingBlock: VETTIZ_charged_linker_0, # of connection points: 3
#     Node 11, Type 0, BuildingBlock: VETTIZ_charged_linker_0, # of connection points: 3
#     Node 12, Type 0, BuildingBlock: VETTIZ_charged_linker_0, # of connection points: 3
#     Node 13, Type 0, BuildingBlock: VETTIZ_charged_linker_0, # of connection points: 3
#     Node 14, Type 0, BuildingBlock: VETTIZ_charged_linker_0, # of connection points: 3
#     Node 15, Type 0, BuildingBlock: VETTIZ_charged_linker_0, # of connection points: 3
#     Node 16, Type 1, BuildingBlock: QUQFOY_clean_sbu_1, # of connection points: 4
#     Node 17, Type 1, BuildingBlock: QUQFOY_clean_sbu_1, # of connection points: 4
#     Node 18, Type 1, BuildingBlock: QUQFOY_clean_sbu_1, # of connection points: 4
#     Node 19, Type 1, BuildingBlock: QUQFOY_clean_sbu_1, # of connection points: 4
#     Node 20, Type 1, BuildingBlock: QUQFOY_clean_sbu_1, # of connection points: 4
#     Node 21, Type 1, BuildingBlock: QUQFOY_clean_sbu_1, # of connection points: 4
#     Node 22, Type 1, BuildingBlock: QUQFOY_clean_sbu_1, # of connection points: 4
#     Node 23, Type 1, BuildingBlock: QUQFOY_clean_sbu_1, # of connection points: 4
#     Node 24, Type 1, BuildingBlock: QUQFOY_clean_sbu_1, # of connection points: 4
#     Node 25, Type 1, BuildingBlock: QUQFOY_clean_sbu_1, # of connection points: 4
#     Node 26, Type 1, BuildingBlock: QUQFOY_clean_sbu_1, # of connection points: 4
#     Node 27, Type 1, BuildingBlock: QUQFOY_clean_sbu_1, # of connection points: 4
#     Edge 28, Type (0, 1), BuildingBlock: CIFDUS_clean_linker_0, # of connection points: 2
#     Edge 29, Type (0, 1), BuildingBlock: CIFDUS_clean_linker_0, # of connection points: 2
#     Edge 30, Type (0, 1), BuildingBlock: CIFDUS_clean_linker_0, # of connection points: 2
#     Edge 31, Type (0, 1), BuildingBlock: CIFDUS_clean_linker_0, # of connection points: 2
#     Edge 32, Type (0, 1), BuildingBlock: CIFDUS_clean_linker_0, # of connection points: 2
#     Edge 33, Type (0, 1), BuildingBlock: CIFDUS_clean_linker_0, # of connection points: 2
#     Edge 34, Type (0, 1), BuildingBlock: CIFDUS_clean_linker_0, # of connection points: 2
#     Edge 35, Type (0, 1), BuildingBlock: CIFDUS_clean_linker_0, # of connection points: 2
#     Edge 36, Type (0, 1), BuildingBlock: CIFDUS_clean_linker_0, # of connection points: 2
#     Edge 37, Type (0, 1), BuildingBlock: CIFDUS_clean_linker_0, # of connection points: 2
#     Edge 38, Type (0, 1), BuildingBlock: CIFDUS_clean_linker_0, # of connection points: 2
#     Edge 39, Type (0, 1), BuildingBlock: CIFDUS_clean_linker_0, # of connection points: 2
#     Edge 40, Type (0, 1), BuildingBlock: CIFDUS_clean_linker_0, # of connection points: 2
#     Edge 41, Type (0, 1), BuildingBlock: CIFDUS_clean_linker_0, # of connection points: 2
#     Edge 42, Type (0, 1), BuildingBlock: CIFDUS_clean_linker_0, # of connection points: 2
#     Edge 43, Type (0, 1), BuildingBlock: CIFDUS_clean_linker_0, # of connection points: 2
#     Edge 44, Type (0, 1), BuildingBlock: CIFDUS_clean_linker_0, # of connection points: 2
#     Edge 45, Type (0, 1), BuildingBlock: CIFDUS_clean_linker_0, # of connection points: 2
#     Edge 46, Type (0, 1), BuildingBlock: CIFDUS_clean_linker_0, # of connection points: 2
#     Edge 47, Type (0, 1), BuildingBlock: CIFDUS_clean_linker_0, # of connection points: 2
#     Edge 48, Type (0, 1), BuildingBlock: CIFDUS_clean_linker_0, # of connection points: 2
#     Edge 49, Type (0, 1), BuildingBlock: CIFDUS_clean_linker_0, # of connection points: 2
#     Edge 50, Type (0, 1), BuildingBlock: CIFDUS_clean_linker_0, # of connection points: 2
#     Edge 51, Type (0, 1), BuildingBlock: CIFDUS_clean_linker_0, # of connection points: 2
#     Edge 52, Type (0, 1), BuildingBlock: CIFDUS_clean_linker_0, # of connection points: 2
#     Edge 53, Type (0, 1), BuildingBlock: CIFDUS_clean_linker_0, # of connection points: 2
#     Edge 54, Type (0, 1), BuildingBlock: CIFDUS_clean_linker_0, # of connection points: 2
#     Edge 55, Type (0, 1), BuildingBlock: CIFDUS_clean_linker_0, # of connection points: 2
#     Edge 56, Type (0, 1), BuildingBlock: CIFDUS_clean_linker_0, # of connection points: 2
#     Edge 57, Type (0, 1), BuildingBlock: CIFDUS_clean_linker_0, # of connection points: 2
#     Edge 58, Type (0, 1), BuildingBlock: CIFDUS_clean_linker_0, # of connection points: 2
#     Edge 59, Type (0, 1), BuildingBlock: CIFDUS_clean_linker_0, # of connection points: 2
#     Edge 60, Type (0, 1), BuildingBlock: CIFDUS_clean_linker_0, # of connection points: 2
#     Edge 61, Type (0, 1), BuildingBlock: CIFDUS_clean_linker_0, # of connection points: 2
#     Edge 62, Type (0, 1), BuildingBlock: CIFDUS_clean_linker_0, # of connection points: 2
#     Edge 63, Type (0, 1), BuildingBlock: CIFDUS_clean_linker_0, # of connection points: 2
#     Edge 64, Type (0, 1), BuildingBlock: CIFDUS_clean_linker_0, # of connection points: 2
#     Edge 65, Type (0, 1), BuildingBlock: CIFDUS_clean_linker_0, # of connection points: 2
#     Edge 66, Type (0, 1), BuildingBlock: CIFDUS_clean_linker_0, # of connection points: 2
#     Edge 67, Type (0, 1), BuildingBlock: CIFDUS_clean_linker_0, # of connection points: 2
#     Edge 68, Type (0, 1), BuildingBlock: CIFDUS_clean_linker_0, # of connection points: 2
#     Edge 69, Type (0, 1), BuildingBlock: CIFDUS_clean_linker_0, # of connection points: 2
#     Edge 70, Type (0, 1), BuildingBlock: CIFDUS_clean_linker_0, # of connection points: 2
#     Edge 71, Type (0, 1), BuildingBlock: CIFDUS_clean_linker_0, # of connection points: 2
#     Edge 72, Type (0, 1), BuildingBlock: CIFDUS_clean_linker_0, # of connection points: 2
#     Edge 73, Type (0, 1), BuildingBlock: CIFDUS_clean_linker_0, # of connection points: 2
#     Edge 74, Type (0, 1), BuildingBlock: CIFDUS_clean_linker_0, # of connection points: 2
#     Edge 75, Type (0, 1), BuildingBlock: CIFDUS_clean_linker_0, # of connection points: 2
# Relax obj value: 0.036
# Max RMSD: 0.143
# Mean RMSD: 0.066
data_MOF--net-ctn--node1-QUQFOY_clean_sbu_1--node2-VETTIZ_charged_linker_0--edge1-CIFDUS_clean_linker_0
_symmetry_space_group_name_H-M    P1
_symmetry_Int_Tables_number       1
_symmetry_cell_setting            triclinic
loop_
_symmetry_equiv_pos_as_xyz
'x, y, z'
_cell_length_a     60.330394
_cell_length_b     60.297062
_cell_length_c     60.50868
_cell_angle_alpha  92.882717
_cell_angle_beta   89.96467
_cell_angle_gamma 94.671
loop_
_atom_site_label
_atom_site_type_symbol
_atom_site_fract_x
_atom_site_fract_y
_atom_site_fract_z
_atom_type_partial_charge
C0 C 0.02411 0.12839 0.99176 0.0
C1 C 0.0062 0.14171 0.99538 0.0
C2 C 0.99429 0.14021 0.0154 0.0
C3 C 0.01741 0.11207 0.0273 0.0
C4 C 0.02945 0.11383 0.00794 0.0
C5 C 0.04793 0.09846 0.00682 0.0
H6 H 0.10439 0.02125 0.05536 0.0
C7 C 0.02704 0.09537 0.0406 0.0
C8 C 0.04513 0.08751 0.02884 0.0
H9 H 0.11341 0.04577 0.98962 0.0
H10 H 0.08449 0.07042 0.99634 0.0
H11 H 0.0958 0.06746 0.08129 0.0
H12 H 0.05215 0.0148 0.05071 0.0
H13 H 0.03947 0.02313 0.07547 0.0
H14 H 0.06621 0.01189 0.0764 0.0
H15 H 0.09022 0.041 0.09336 0.0
H16 H 0.07272 0.06355 0.09882 0.0
C17 C 0.07029 0.11286 0.00558 0.0
C18 C 0.04335 0.0815 0.9869 0.0
C19 C 0.98924 0.07126 0.11161 0.0
C20 C 0.99436 0.05592 0.12726 0.0
C21 C 0.01475 0.04605 0.12544 0.0
C22 C 0.02914 0.05035 0.10775 0.0
C23 C 0.0232 0.06471 0.09161 0.0
C24 C 0.00391 0.07545 0.09405 0.0
C25 C 0.00092 0.09098 0.07575 0.0
C26 C 0.02098 0.08679 0.06137 0.0
C27 C 0.03381 0.07123 0.07067 0.0
C28 C 0.00216 0.11517 0.08597 0.0
C29 C 0.97877 0.0834 0.06365 0.0
C30 C 0.10014 0.03177 0.04227 0.0
C31 C 0.11149 0.03146 0.02194 0.0
C32 C 0.1054 0.04583 0.00563 0.0
C33 C 0.08838 0.06004 0.00946 0.0
C34 C 0.07698 0.05976 0.02969 0.0
C35 C 0.08287 0.0457 0.04563 0.0
C36 C 0.06796 0.04643 0.06551 0.0
C37 C 0.05229 0.06345 0.05898 0.0
C38 C 0.05778 0.07137 0.03807 0.0
C39 C 0.0823 0.05488 0.08594 0.0
C40 C 0.05584 0.0229 0.06738 0.0
H41 H 0.98995 0.12507 0.04608 0.0
H42 H 0.03355 0.129 0.97655 0.0
H43 H 0.0252 0.07817 0.98368 0.0
H44 H 0.04914 0.06497 0.98985 0.0
H45 H 0.05113 0.0878 0.97155 0.0
H46 H 0.07032 0.12778 0.01718 0.0
H47 H 0.07318 0.11878 0.98864 0.0
H48 H 0.08469 0.10405 0.01051 0.0
H49 H 0.97384 0.07929 0.11254 0.0
H50 H 0.01954 0.03476 0.13763 0.0
H51 H 0.04419 0.04201 0.10715 0.0
H52 H 0.01172 0.11681 0.10178 0.0
H53 H 0.98532 0.12058 0.08958 0.0
H54 H 0.01111 0.12723 0.07523 0.0
H55 H 0.97703 0.06496 0.06083 0.0
H56 H 0.97762 0.09015 0.04713 0.0
H57 H 0.9643 0.08828 0.0736 0.0
H58 H 0.98075 0.15059 0.0189 0.0
C59 C -0.00024 0.12549 0.03131 0.0
C60 C 0.23849 0.65973 0.24032 0.0
C61 C 0.21588 0.65507 0.23485 0.0
C62 C 0.20574 0.6696 0.22108 0.0
C63 C 0.2402 0.6932 0.21958 0.0
C64 C 0.25008 0.67894 0.23296 0.0
C65 C 0.27344 0.68724 0.23937 0.0
H66 H 0.35343 0.7718 0.24666 0.0
C67 C 0.25654 0.71231 0.21601 0.0
C68 C 0.27587 0.70908 0.22787 0.0
H69 H 0.35391 0.70597 0.27207 0.0
H70 H 0.3192 0.69482 0.25394 0.0
H71 H 0.30185 0.77927 0.25212 0.0
H72 H 0.33806 0.75143 0.19753 0.0
H73 H 0.31709 0.76577 0.18605 0.0
H74 H 0.33831 0.78094 0.20312 0.0
H75 H 0.32175 0.7954 0.23612 0.0
H76 H 0.29313 0.79049 0.2275 0.0
C77 C 0.27427 0.69083 0.26494 0.0
C78 C 0.28944 0.67036 0.22973 0.0
C79 C 0.2402 0.77036 0.16181 0.0
C80 C 0.25242 0.78974 0.15525 0.0
C81 C 0.27183 0.79771 0.16699 0.0
C82 C 0.27979 0.78571 0.18415 0.0
C83 C 0.26813 0.76561 0.18964 0.0
C84 C 0.24825 0.75866 0.17911 0.0
C85 C 0.23768 0.73738 0.18783 0.0
C86 C 0.2555 0.7317 0.20382 0.0
C87 C 0.2733 0.74829 0.2048 0.0
C88 C 0.21586 0.74259 0.19989 0.0
C89 C 0.23436 0.71972 0.1684 0.0
C90 C 0.34615 0.75494 0.24818 0.0
C91 C 0.35608 0.74006 0.26162 0.0
C92 C 0.34621 0.7181 0.26265 0.0
C93 C 0.32604 0.71158 0.25203 0.0
C94 C 0.31555 0.72705 0.24003 0.0
C95 C 0.326 0.74799 0.23739 0.0
C96 C 0.31311 0.7613 0.22217 0.0
C97 C 0.29259 0.74537 0.21746 0.0
C98 C 0.29405 0.72554 0.22832 0.0
C99 C 0.30719 0.78288 0.23498 0.0
C100 C 0.32728 0.76529 0.20114 0.0
H101 H 0.20919 0.69899 0.20302 0.0
H102 H 0.24707 0.64883 0.25045 0.0
H103 H 0.28221 0.66084 0.21484 0.0
H104 H 0.30526 0.67863 0.22386 0.0
H105 H 0.29312 0.65809 0.24203 0.0
H106 H 0.25918 0.69857 0.27113 0.0
H107 H 0.27496 0.67473 0.27296 0.0
H108 H 0.28838 0.70225 0.27101 0.0
H109 H 0.22506 0.76412 0.15317 0.0
H110 H 0.28145 0.81262 0.16212 0.0
H111 H 0.29499 0.79224 0.19211 0.0
H112 H 0.21594 0.76052 0.20525 0.0
H113 H 0.20113 0.73846 0.189 0.0
H114 H 0.21348 0.73363 0.21536 0.0
H115 H 0.24973 0.71941 0.15825 0.0
H116 H 0.23075 0.70266 0.17394 0.0
H117 H 0.22056 0.72352 0.15742 0.0
H118 H 0.18831 0.66669 0.21672 0.0
C119 C 0.21781 0.68854 0.21334 0.0
C120 C 0.95559 0.40459 0.0218 0.0
C121 C 0.94738 0.4029 1e-05 0.0
C122 C 0.93507 0.4199 0.99244 0.0
C123 C 0.94008 0.44028 0.02784 0.0
C124 C 0.95189 0.42343 0.03531 0.0
C125 C 0.96064 0.4285 0.05842 0.0
H126 H 0.97777 0.5022 0.14559 0.0
C127 C 0.94023 0.45803 0.04556 0.0
C128 C 0.95231 0.45128 0.06349 0.0
H129 H 0.99872 0.43527 0.13794 0.0
H130 H 0.98001 0.43009 0.10268 0.0
H131 H 0.92722 0.48821 0.12804 0.0
H132 H 0.98637 0.51607 0.09639 0.0
H133 H 0.96387 0.53026 0.08761 0.0
H134 H 0.97126 0.53166 0.11653 0.0
H135 H 0.9378 0.51669 0.1332 0.0
H136 H 0.91911 0.5084 0.11044 0.0
C137 C 0.94976 0.41073 0.07357 0.0
C138 C 0.98639 0.42949 0.05755 0.0
C139 C 0.90122 0.5278 0.03335 0.0
C140 C 0.89902 0.54757 0.04623 0.0
C141 C 0.90946 0.55028 0.06716 0.0
C142 C 0.92173 0.53354 0.07512 0.0
C143 C 0.92363 0.51385 0.06203 0.0
C144 C 0.91356 0.51133 0.04147 0.0
C145 C 0.91758 0.48953 0.02961 0.0
C146 C 0.93133 0.47912 0.04665 0.0
C147 C 0.93485 0.4934 0.0656 0.0
C148 C 0.89481 0.47614 0.02551 0.0
C149 C 0.931 0.49458 0.00829 0.0
C150 C 0.97809 0.48629 0.13651 0.0
C151 C 0.98997 0.4692 0.14455 0.0
C152 C 0.99009 0.44887 0.13198 0.0
C153 C 0.97912 0.44585 0.11153 0.0
C154 C 0.96788 0.46333 0.10348 0.0
C155 C 0.96713 0.48296 0.11612 0.0
C156 C 0.95388 0.49947 0.1052 0.0
C157 C 0.94725 0.48668 0.08367 0.0
C158 C 0.95566 0.46561 0.08271 0.0
C159 C 0.93347 0.50365 0.11993 0.0
C160 C 0.96947 0.52061 0.10128 0.0
H161 H 0.92187 0.45095 -0.00049 0.0
H162 H 0.96534 0.39189 0.02795 0.0
H163 H 0.99273 0.43746 0.04234 0.0
H164 H 0.99455 0.43969 0.07133 0.0
H165 H 0.99231 0.41252 0.05738 0.0
H166 H 0.93263 0.40497 0.06784 0.0
H167 H 0.95951 0.39588 0.07364 0.0
H168 H 0.94763 0.41726 0.09077 0.0
H169 H 0.89317 0.52493 0.01735 0.0
H170 H 0.90827 0.56542 0.07735 0.0
H171 H 0.92929 0.53659 0.09115 0.0
H172 H 0.88376 0.47808 0.04009 0.0
H173 H 0.88622 0.48203 0.01095 0.0
H174 H 0.89615 0.45803 0.02311 0.0
H175 H 0.9416 0.51054 0.01037 0.0
H176 H 0.94283 0.48198 0.00403 0.0
H177 H 0.91977 0.49598 0.99398 0.0
H178 H 0.92841 0.41879 0.97576 0.0
C179 C 0.93129 0.43853 0.00626 0.0
C180 C 0.66264 0.81121 0.29931 0.0
C181 C 0.64537 0.79413 0.29731 0.0
C182 C 0.64827 0.77518 0.28335 0.0
C183 C 0.68424 0.79161 0.27196 0.0
C184 C 0.68186 0.8096 0.28659 0.0
C185 C 0.70134 0.82676 0.28609 0.0
H186 H 0.79447 0.86689 0.23503 0.0
C187 C 0.70532 0.79596 0.25988 0.0
C188 C 0.71556 0.8164 0.2683 0.0
H189 H 0.76258 0.89529 0.29269 0.0
H190 H 0.73605 0.86324 0.29283 0.0
H191 H 0.74989 0.84819 0.20918 0.0
H192 H 0.79383 0.81818 0.25266 0.0
H193 H 0.78437 0.7971 0.23304 0.0
H194 H 0.80042 0.82164 0.22407 0.0
H195 H 0.77784 0.84257 0.20198 0.0
H196 H 0.75493 0.82187 0.19731 0.0
C197 C 0.69267 0.84886 0.27904 0.0
C198 C 0.7129 0.82835 0.30907 0.0
C199 C 0.72281 0.746 0.19308 0.0
C200 C 0.73988 0.7473 0.17724 0.0
C201 C 0.75781 0.76365 0.18043 0.0
C202 C 0.75816 0.77914 0.19848 0.0
C203 C 0.74032 0.77844 0.21344 0.0
C204 C 0.72335 0.76169 0.21097 0.0
C205 C 0.70583 0.76355 0.22853 0.0
C206 C 0.71489 0.78447 0.24164 0.0
C207 C 0.73494 0.79324 0.23252 0.0
C208 C 0.68352 0.76675 0.21688 0.0
C209 C 0.70538 0.74267 0.24247 0.0
C210 C 0.78195 0.86614 0.24786 0.0
C211 C 0.78047 0.88391 0.26363 0.0
C212 C 0.76379 0.88215 0.27997 0.0
C213 C 0.74845 0.86344 0.28013 0.0
C214 C 0.74969 0.84623 0.26378 0.0
C215 C 0.76655 0.84752 0.24833 0.0
C216 C 0.76564 0.82736 0.23259 0.0
C217 C 0.74529 0.81388 0.24102 0.0
C218 C 0.73583 0.8252 0.25904 0.0
C219 C 0.76202 0.83523 0.20895 0.0
C220 C 0.78718 0.81542 0.23551 0.0
H221 H 0.66868 0.75922 0.25997 0.0
H222 H 0.66102 0.82578 0.31023 0.0
H223 H 0.71037 0.81234 0.31748 0.0
H224 H 0.73117 0.83155 0.3079 0.0
H225 H 0.70624 0.84147 0.32012 0.0
H226 H 0.68041 0.84563 0.26529 0.0
H227 H 0.68427 0.85735 0.29303 0.0
H228 H 0.70579 0.86063 0.27268 0.0
H229 H 0.70898 0.7334 0.19127 0.0
H230 H 0.7711 0.76512 0.16842 0.0
H231 H 0.77197 0.79152 0.19967 0.0
H232 H 0.6862 0.77839 0.20325 0.0
H233 H 0.67586 0.75066 0.20958 0.0
H234 H 0.6713 0.77423 0.22788 0.0
H235 H 0.72215 0.73632 0.24335 0.0
H236 H 0.70078 0.74621 0.25991 0.0
H237 H 0.69381 0.72896 0.23521 0.0
H238 H 0.63517 0.76182 0.28154 0.0
C239 C 0.66765 0.77381 0.2707 0.0
C240 C 0.02612 0.91642 0.51224 0.0
C241 C 0.00498 0.9046 0.5119 0.0
C242 C 0.98762 0.91306 0.50004 0.0
C243 C 0.01248 0.94407 0.48901 0.0
C244 C 0.02939 0.93613 0.50094 0.0
C245 C 0.05045 0.95131 0.50064 0.0
H246 H 0.10347 0.04786 0.46911 0.0
C247 C 0.02124 0.96495 0.47929 0.0
C248 C 0.04344 0.96942 0.48621 0.0
H249 H 0.12895 -0.00051 0.51067 0.0
H250 H 0.09479 0.97571 0.50554 0.0
H251 H 0.05463 0.04631 0.48915 0.0
H252 H 0.08297 0.01295 0.43285 0.0
H253 H 0.05565 0.01691 0.42506 0.0
H254 H 0.07488 0.04083 0.43184 0.0
H255 H 0.06372 0.06007 0.46472 0.0
H256 H 0.03595 0.04697 0.46693 0.0
C257 C 0.05575 0.96022 0.52469 0.0
C258 C 0.06891 0.93824 0.4896 0.0
C259 C 0.97316 0.0039 0.42684 0.0
C260 C 0.97756 0.02261 0.4141 0.0
C261 C 0.99814 0.0353 0.41654 0.0
C262 C 0.01435 0.02916 0.43105 0.0
C263 C 0.01002 0.01002 0.44317 0.0
C264 C 0.98966 0.99781 0.44109 0.0
C265 C 0.98836 0.97761 0.45482 0.0
C266 C 0.01147 0.9795 0.46508 0.0
C267 C 0.02395 0.99857 0.45827 0.0
C268 C 0.96998 0.98021 0.47247 0.0
C269 C 0.98444 0.95664 0.439 0.0
C270 C 0.10164 0.03218 0.47718 0.0
C271 C 0.11869 0.02563 0.49056 0.0
C272 C 0.11596 0.00485 0.50031 0.0
C273 C 0.09608 0.9912 0.49745 0.0
C274 C 0.07882 0.99841 0.48466 0.0
C275 C 0.08198 0.01843 0.47448 0.0
C276 C 0.06217 0.02335 0.46114 0.0
C277 C 0.0462 0.00339 0.46563 0.0
C278 C 0.05598 0.98883 0.47941 0.0
C279 C 0.05362 0.04538 0.47076 0.0
C280 C 0.06914 0.02371 0.43645 0.0
H281 H 0.97739 0.93808 0.47989 0.0
H282 H 0.03991 0.9105 0.52104 0.0
H283 H 0.06209 0.92736 0.4754 0.0
H284 H 0.08238 0.94918 0.48255 0.0
H285 H 0.07621 0.92742 0.50152 0.0
H286 H 0.0402 0.96266 0.53408 0.0
H287 H 0.06516 0.94838 0.53367 0.0
H288 H 0.06509 0.97676 0.52558 0.0
H289 H 0.95757 0.9937 0.42507 0.0
H290 H 0.00178 0.04987 0.40698 0.0
H291 H 0.02973 0.03941 0.43202 0.0
H292 H 0.96815 0.99807 0.47707 0.0
H293 H 0.95358 0.97272 0.46627 0.0
H294 H 0.97388 0.97284 0.48823 0.0
H295 H 0.99479 0.95843 0.42386 0.0
H296 H 0.98922 0.9413 0.44626 0.0
H297 H 0.96676 0.95405 0.4337 0.0
H298 H 0.97101 0.90478 0.49989 0.0
C299 C 0.99128 0.93259 0.48856 0.0
C300 C 0.27472 0.69109 0.78776 0.0
C301 C 0.27623 0.67485 0.77047 0.0
C302 C 0.26484 0.67713 0.75047 0.0
C303 C 0.24943 0.71048 0.76592 0.0
C304 C 0.26136 0.70867 0.78514 0.0
C305 C 0.25753 0.72685 0.80226 0.0
H306 H 0.20064 0.8144 0.83569 0.0
C307 C 0.23631 0.7301 0.76904 0.0
C308 C 0.24125 0.73989 0.79022 0.0
H309 H 0.2505 0.78331 0.87189 0.0
H310 H 0.25627 0.75848 0.84032 0.0
H311 H 0.17701 0.76879 0.81371 0.0
H312 H 0.22686 0.81736 0.79116 0.0
H313 H 0.21175 0.80736 0.76742 0.0
H314 H 0.19783 0.82157 0.78978 0.0
H315 H 0.17165 0.79669 0.8076 0.0
H316 H 0.17007 0.77455 0.78652 0.0
C317 C 0.24691 0.71585 0.8228 0.0
C318 C 0.27995 0.74074 0.8069 0.0
C319 C 0.17693 0.74459 0.71308 0.0
C320 C 0.16114 0.76056 0.7129 0.0
C321 C 0.16291 0.77857 0.72874 0.0
C322 C 0.17906 0.77981 0.7454 0.0
C323 C 0.1935 0.76278 0.74644 0.0
C324 C 0.19297 0.74605 0.72996 0.0
C325 C 0.21016 0.72978 0.7336 0.0
C326 C 0.2202 0.73894 0.75558 0.0
C327 C 0.21006 0.75806 0.76311 0.0
C328 C 0.19798 0.70634 0.73546 0.0
C329 C 0.22727 0.73141 0.71455 0.0
C330 C 0.21295 0.80239 0.83675 0.0
C331 C 0.22495 0.80068 0.8564 0.0
C332 C 0.24071 0.78468 0.8571 0.0
C333 C 0.24413 0.77035 0.83869 0.0
C334 C 0.2316 0.7719 0.81935 0.0
C335 C 0.21654 0.78791 0.81853 0.0
C336 C 0.20461 0.78708 0.79669 0.0
C337 C 0.21498 0.76788 0.78452 0.0
C338 C 0.2306 0.75893 0.79794 0.0
C339 C 0.17948 0.78163 0.80116 0.0
C340 C 0.21033 0.80949 0.78563 0.0
H341 H 0.24282 0.69549 0.73268 0.0
H342 H 0.28358 0.69 0.80319 0.0
H343 H 0.2903 0.7416 0.79168 0.0
H344 H 0.27784 0.7583 0.81196 0.0
H345 H 0.28973 0.73327 0.81975 0.0
H346 H 0.23516 0.7013 0.81772 0.0
H347 H 0.25982 0.7098 0.83355 0.0
H348 H 0.23681 0.727 0.83281 0.0
H349 H 0.17624 0.73079 0.70086 0.0
H350 H 0.15096 0.79104 0.72909 0.0
H351 H 0.17904 0.79352 0.75739 0.0
H352 H 0.18297 0.70725 0.74606 0.0
H353 H 0.19248 0.6991 0.71893 0.0
H354 H 0.20818 0.6945 0.74322 0.0
H355 H 0.22916 0.74853 0.70837 0.0
H356 H 0.24418 0.72814 0.71987 0.0
H357 H 0.22204 0.71979 0.70033 0.0
H358 H 0.26572 0.66479 0.73693 0.0
C359 C 0.25145 0.69487 0.74811 0.0
C360 C 0.90881 0.49398 0.50973 0.0
C361 C 0.90165 0.4755 0.49585 0.0
C362 C 0.91719 0.46514 0.48231 0.0
C363 C 0.9462 0.49305 0.4952 0.0
C364 C 0.93103 0.50235 0.50924 0.0
C365 C 0.94096 0.52235 0.52255 0.0
H366 H 0.02532 0.60121 0.54045 0.0
C367 C 0.96757 0.5068 0.49782 0.0
C368 C 0.96464 0.52372 0.51409 0.0
H369 H 0.96025 0.59644 0.5705 0.0
H370 H 0.95172 0.56043 0.55214 0.0
H371 H 0.00835 0.58383 0.49229 0.0
H372 H 0.03549 0.54946 0.54541 0.0
H373 H 0.04523 0.53727 0.52066 0.0
H374 H 0.05292 0.56636 0.52775 0.0
H375 H 0.03672 0.58862 0.50144 0.0
H376 H 0.02832 0.56684 0.48114 0.0
C377 C 0.92845 0.54269 0.51635 0.0
C378 C 0.93977 0.51707 0.54737 0.0
C379 C 0.03024 0.49583 0.44344 0.0
C380 C 0.05107 0.50755 0.44056 0.0
C381 C 0.05897 0.5238 0.45684 0.0
C382 C 0.04568 0.52934 0.47495 0.0
C383 C 0.02421 0.51867 0.47669 0.0
C384 C 0.01714 0.50161 0.46159 0.0
C385 C 0.99403 0.49178 0.46643 0.0
C386 C 0.98808 0.50642 0.48635 0.0
C387 C 0.00572 0.52237 0.49204 0.0
C388 C 0.97912 0.49477 0.44614 0.0
C389 C 0.99536 0.46723 0.47237 0.0
C390 C 0.00941 0.59212 0.54326 0.0
C391 C 0.9933 0.60157 0.55669 0.0
C392 C 0.97274 0.58948 0.55997 0.0
C393 C 0.96784 0.56859 0.54927 0.0
C394 C 0.98353 0.55986 0.53482 0.0
C395 C 0.0041 0.5713 0.53235 0.0
C396 C 0.01833 0.55964 0.51575 0.0
C397 C 0.00275 0.53946 0.50855 0.0
C398 C 0.98238 0.5399 0.51966 0.0
C399 C 0.02341 0.57545 0.49663 0.0
C400 C 0.03921 0.5529 0.52783 0.0
H401 H 0.95054 0.46564 0.47092 0.0
H402 H 0.89724 0.50199 0.5206 0.0
H403 H 0.94108 0.49901 0.54961 0.0
H404 H 0.95373 0.52555 0.55718 0.0
H405 H 0.9238 0.52152 0.55483 0.0
H406 H 0.92343 0.54132 0.49861 0.0
H407 H 0.9131 0.5439 0.52634 0.0
H408 H 0.93872 0.55867 0.51817 0.0
H409 H 0.02398 0.48294 0.4314 0.0
H410 H 0.07497 0.53304 0.45499 0.0
H411 H 0.05231 0.5423 0.48646 0.0
H412 H 0.98239 0.51181 0.43999 0.0
H413 H 0.98246 0.48262 0.43237 0.0
H414 H 0.9612 0.49299 0.44983 0.0
H415 H 0.0116 0.46479 0.48025 0.0
H416 H 0.98275 0.46188 0.4847 0.0
H417 H 0.99357 0.45579 0.4574 0.0
H418 H 0.91192 0.45076 0.47158 0.0
C419 C 0.93949 0.47386 0.4819 0.0
C420 C 0.80342 0.76008 0.86448 0.0
C421 C 0.79117 0.76446 0.88383 0.0
C422 C 0.77942 0.78382 0.8853 0.0
C423 C 0.79116 0.79309 0.84838 0.0
C424 C 0.80338 0.77468 0.8472 0.0
C425 C 0.81634 0.77299 0.82602 0.0
H426 H 0.84689 0.81655 0.72865 0.0
C427 C 0.79424 0.8045 0.82744 0.0
C428 C 0.80919 0.79297 0.81437 0.0
H429 H 0.87122 0.7596 0.75876 0.0
H430 H 0.84581 0.76379 0.78913 0.0
H431 H 0.84406 0.84765 0.77342 0.0
H432 H 0.79563 0.80297 0.73802 0.0
H433 H 0.78117 0.82486 0.7495 0.0
H434 H 0.80278 0.83067 0.72941 0.0
H435 H 0.83374 0.85246 0.74638 0.0
H436 H 0.81933 0.86104 0.77097 0.0
C437 C 0.84149 0.77542 0.8319 0.0
C438 C 0.80841 0.75079 0.81339 0.0
C439 C 0.75115 0.87138 0.81363 0.0
C440 C 0.74959 0.88469 0.79538 0.0
C441 C 0.76181 0.8799 0.77612 0.0
C442 C 0.77575 0.86237 0.77523 0.0
C443 C 0.77738 0.8494 0.79375 0.0
C444 C 0.76494 0.85381 0.8124 0.0
C445 C 0.76814 0.83785 0.8302 0.0
C446 C 0.78463 0.82317 0.8192 0.0
C447 C 0.79018 0.83016 0.79796 0.0
C448 C 0.77823 0.85128 0.85084 0.0
C449 C 0.74543 0.8248 0.83428 0.0
C450 C 0.84659 0.80485 0.74168 0.0
C451 C 0.8613 0.78789 0.74141 0.0
C452 C 0.86041 0.7731 0.75878 0.0
C453 C 0.84559 0.77551 0.77639 0.0
C454 C 0.83147 0.79292 0.77673 0.0
C455 C 0.8319 0.80706 0.75943 0.0
C456 C 0.81557 0.82453 0.76259 0.0
C457 C 0.80592 0.81902 0.78503 0.0
C458 C 0.81528 0.80048 0.79318 0.0
C459 C 0.82869 0.84773 0.76327 0.0
C460 C 0.79789 0.8208 0.74391 0.0
H461 H 0.76985 0.81231 0.86985 0.0
H462 H 0.81266 0.74546 0.86257 0.0
H463 H 0.79002 0.74764 0.81443 0.0
H464 H 0.81215 0.75081 0.79553 0.0
H465 H 0.81593 0.73651 0.82051 0.0
H466 H 0.84474 0.78544 0.84769 0.0
H467 H 0.84798 0.75891 0.83387 0.0
H468 H 0.85166 0.78452 0.81954 0.0
H469 H 0.74171 0.87451 0.82855 0.0
H470 H 0.76093 0.89003 0.76191 0.0
H471 H 0.78485 0.8597 0.76022 0.0
H472 H 0.78874 0.8663 0.84604 0.0
H473 H 0.76501 0.85702 0.86201 0.0
H474 H 0.78956 0.84175 0.86031 0.0
H475 H 0.73658 0.82031 0.81835 0.0
H476 H 0.74696 0.80881 0.84201 0.0
H477 H 0.73455 0.83496 0.84476 0.0
H478 H 0.7704 0.78817 0.90016 0.0
C479 C 0.77924 0.79801 0.86769 0.0
C480 C 0.29954 0.25666 0.36905 0.0
C481 C 0.28211 0.25681 0.38454 0.0
C482 C 0.26544 0.27162 0.38206 0.0
C483 C 0.28356 0.28562 0.34928 0.0
C484 C 0.29982 0.27103 0.35153 0.0
C485 C 0.31672 0.27257 0.33324 0.0
H486 H 0.35032 0.31654 0.23689 0.0
C487 C 0.28836 0.29791 0.32912 0.0
C488 C 0.30762 0.29019 0.31947 0.0
H489 H 0.38355 0.2705 0.27556 0.0
H490 H 0.35423 0.27081 0.30249 0.0
H491 H 0.34098 0.34841 0.27906 0.0
H492 H 0.29992 0.29658 0.24371 0.0
H493 H 0.28346 0.31888 0.24977 0.0
H494 H 0.30758 0.32306 0.23235 0.0
H495 H 0.32963 0.35208 0.25221 0.0
H496 H 0.31429 0.3577 0.27717 0.0
C497 C 0.33966 0.28057 0.34361 0.0
C498 C 0.31602 0.24961 0.32046 0.0
C499 C 0.24105 0.36011 0.31026 0.0
C500 C 0.2415 0.37459 0.29279 0.0
C501 C 0.25603 0.37129 0.27492 0.0
C502 C 0.27076 0.35445 0.27504 0.0
C503 C 0.2709 0.34079 0.29322 0.0
C504 C 0.25575 0.34334 0.3101 0.0
C505 C 0.25767 0.32685 0.32767 0.0
C506 C 0.27731 0.31476 0.31916 0.0
C507 C 0.28507 0.32307 0.29908 0.0
C508 C 0.26303 0.33997 0.34996 0.0
C509 C 0.23587 0.31128 0.32767 0.0
C510 C 0.35151 0.30663 0.25121 0.0
C511 C 0.36938 0.29333 0.25382 0.0
C512 C 0.36984 0.28053 0.27271 0.0
C513 C 0.35286 0.28088 0.28851 0.0
C514 C 0.33525 0.29435 0.28564 0.0
C515 C 0.33493 0.30712 0.26735 0.0
C516 C 0.31578 0.32162 0.26777 0.0
C517 C 0.30439 0.31508 0.2891 0.0
C518 C 0.31575 0.29894 0.29939 0.0
C519 C 0.32547 0.34628 0.26896 0.0
C520 C 0.30088 0.31492 0.2473 0.0
H521 H 0.25293 0.29682 0.36368 0.0
H522 H 0.31272 0.24566 0.3705 0.0
H523 H 0.29855 0.24246 0.31809 0.0
H524 H 0.32301 0.2505 0.30366 0.0
H525 H 0.32501 0.23762 0.32969 0.0
H526 H 0.33779 0.2915 0.35876 0.0
H527 H 0.34879 0.26626 0.34838 0.0
H528 H 0.35021 0.29094 0.33253 0.0
H529 H 0.22971 0.36206 0.32399 0.0
H530 H 0.25656 0.38229 0.26127 0.0
H531 H 0.28179 0.35303 0.26122 0.0
H532 H 0.27566 0.35414 0.34759 0.0
H533 H 0.24791 0.34689 0.35706 0.0
H534 H 0.27022 0.32987 0.36241 0.0
H535 H 0.22724 0.31051 0.31137 0.0
H536 H 0.23893 0.29378 0.33044 0.0
H537 H 0.22405 0.31712 0.34034 0.0
H538 H 0.25155 0.27181 0.39339 0.0
C539 C 0.26611 0.28601 0.3646 0.0
C540 C 0.45824 0.91526 0.51783 0.0
C541 C 0.44237 0.90847 0.5014 0.0
C542 C 0.42333 0.92022 0.49945 0.0
C543 C 0.43671 0.94607 0.52932 0.0
C544 C 0.45491 0.93389 0.5318 0.0
C545 C 0.46958 0.94295 0.5508 0.0
H546 H 0.49045 0.02036 0.63456 0.0
C547 C 0.43855 0.9649 0.54592 0.0
C548 C 0.45753 0.96296 0.55884 0.0
H549 H 0.52827 0.9644 0.61572 0.0
H550 H 0.50236 0.95351 0.58616 0.0
H551 H 0.44055 0.99587 0.62648 0.0
H552 H 0.48574 0.03508 0.58605 0.0
H553 H 0.4589 0.04142 0.57892 0.0
H554 H 0.46897 0.04779 0.6068 0.0
H555 H 0.44835 0.02499 0.63218 0.0
H556 H 0.42573 0.0158 0.61366 0.0
C557 C 0.46939 0.925 0.56828 0.0
C558 C 0.49291 0.94994 0.5415 0.0
C559 C 0.3862 0.026 0.54153 0.0
C560 C 0.38514 0.04679 0.55288 0.0
C561 C 0.3992 0.05228 0.5713 0.0
C562 C 0.4147 0.03763 0.57766 0.0
C563 C 0.41622 0.01734 0.56541 0.0
C564 C 0.40187 0.01173 0.54788 0.0
C565 C 0.40602 0.9898 0.53641 0.0
C566 C 0.42576 0.98345 0.54949 0.0
C567 C 0.43161 -0.00046 0.56651 0.0
C568 C 0.38518 0.97336 0.53929 0.0
C569 C 0.41213 0.9941 0.51201 0.0
C570 C 0.49333 0.00584 0.62402 0.0
C571 C 0.51149 0.99319 0.62772 0.0
C572 C 0.51426 0.97424 0.61364 0.0
C573 C 0.49926 0.96802 0.59632 0.0
C574 C 0.48134 0.98094 0.59284 0.0
C575 C 0.4787 -0.00042 0.60648 0.0
C576 C 0.45936 0.01197 0.59964 0.0
C577 C 0.45032 0.99719 0.58015 0.0
C578 C 0.46326 0.97905 0.57626 0.0
C579 C 0.44256 0.01239 0.61897 0.0
C580 C 0.46852 0.03535 0.5926 0.0
H581 H 0.40576 0.94753 0.51084 0.0
H582 H 0.4728 0.90614 0.51984 0.0
H583 H 0.49148 0.95767 0.5253 0.0
H584 H 0.50244 0.9627 0.55218 0.0
H585 H 0.50283 0.93531 0.53888 0.0
H586 H 0.45301 0.91508 0.56855 0.0
H587 H 0.48229 0.91321 0.56465 0.0
H588 H 0.47171 0.93219 0.58535 0.0
H589 H 0.37527 0.02104 0.52764 0.0
H590 H 0.39868 0.06819 0.58034 0.0
H591 H 0.42519 0.04283 0.59159 0.0
H592 H 0.37574 0.97783 0.55445 0.0
H593 H 0.37365 0.97334 0.52498 0.0
H594 H 0.38951 0.95613 0.54158 0.0
H595 H 0.42369 0.00937 0.51107 0.0
H596 H 0.42088 0.98066 0.50375 0.0
H597 H 0.39707 0.99653 0.50217 0.0
H598 H 0.41091 0.91505 0.48689 0.0
C599 C 0.42044 0.93905 0.5133 0.0
C600 C 0.16781 0.29605 0.80696 0.0
C601 C 0.15317 0.27666 0.80535 0.0
C602 C 0.15915 0.25818 0.79215 0.0
C603 C 0.19265 0.27942 0.78056 0.0
C604 C 0.18736 0.29706 0.79449 0.0
C605 C 0.20412 0.31685 0.79347 0.0
H606 H 0.28992 0.36918 0.74037 0.0
C607 C 0.21308 0.28657 0.76846 0.0
C608 C 0.22004 0.30838 0.77617 0.0
H609 H 0.25473 0.39339 0.79793 0.0
H610 H 0.23333 0.35803 0.79917 0.0
H611 H 0.24783 0.34118 0.71543 0.0
H612 H 0.29847 0.32373 0.75989 0.0
H613 H 0.29185 0.29986 0.74259 0.0
H614 H 0.30349 0.32518 0.73077 0.0
H615 H 0.27693 0.34208 0.70886 0.0
H616 H 0.25916 0.31689 0.7046 0.0
C617 C 0.19193 0.33666 0.78549 0.0
C618 C 0.21537 0.32114 0.81649 0.0
C619 C 0.23815 0.23857 0.70328 0.0
C620 C 0.25515 0.24189 0.6876 0.0
C621 C 0.2709 0.26035 0.69062 0.0
C622 C 0.26891 0.27606 0.70822 0.0
C623 C 0.25094 0.27331 0.7229 0.0
C624 C 0.23642 0.25439 0.72079 0.0
C625 C 0.21857 0.25409 0.73817 0.0
C626 C 0.22448 0.27624 0.7507 0.0
C627 C 0.2432 0.28757 0.74139 0.0
C628 C 0.19577 0.25349 0.72626 0.0
C629 C 0.22125 0.23409 0.75278 0.0
C630 C 0.27779 0.36692 0.75341 0.0
C631 C 0.27384 0.38446 0.7688 0.0
C632 C 0.25774 0.38053 0.78541 0.0
C633 C 0.24542 0.35987 0.78625 0.0
C634 C 0.24917 0.34281 0.77037 0.0
C635 C 0.26552 0.3463 0.75467 0.0
C636 C 0.26803 0.32587 0.73987 0.0
C637 C 0.25014 0.30969 0.74904 0.0
C638 C 0.23886 0.31987 0.7666 0.0
C639 C 0.26286 0.33166 0.71586 0.0
C640 C 0.29169 0.31823 0.74323 0.0
H641 H 0.18222 0.24504 0.7696 0.0
H642 H 0.16383 0.31036 0.8173 0.0
H643 H 0.21519 0.30557 0.82563 0.0
H644 H 0.23319 0.32694 0.8153 0.0
H645 H 0.20672 0.33343 0.8269 0.0
H646 H 0.18049 0.33109 0.77151 0.0
H647 H 0.18184 0.34384 0.79901 0.0
H648 H 0.20321 0.35014 0.77914 0.0
H649 H 0.226 0.22434 0.70148 0.0
H650 H 0.2841 0.26326 0.6787 0.0
H651 H 0.28098 0.29014 0.70925 0.0
H652 H 0.19669 0.26491 0.71234 0.0
H653 H 0.19059 0.23646 0.71931 0.0
H654 H 0.18237 0.25914 0.737 0.0
H655 H 0.23894 0.23021 0.75369 0.0
H656 H 0.21644 0.23752 0.77019 0.0
H657 H 0.21144 0.21885 0.74607 0.0
H658 H 0.14812 0.24308 0.79065 0.0
C659 C 0.17885 0.25944 0.7798 0.0
C660 C 0.73077 0.17876 0.73307 0.0
C661 C 0.70996 0.17338 0.72286 0.0
C662 C 0.70196 0.18846 0.70824 0.0
C663 C 0.73503 0.21365 0.71467 0.0
C664 C 0.74302 0.19866 0.72855 0.0
C665 C 0.76576 0.20614 0.73747 0.0
H666 H 0.85038 0.28586 0.75027 0.0
C667 C 0.75174 0.23297 0.71409 0.0
C668 C 0.76979 0.22858 0.72731 0.0
H669 H 0.84541 0.21877 0.77334 0.0
H670 H 0.80988 0.21137 0.75587 0.0
H671 H 0.7992 0.29639 0.7575 0.0
H672 H 0.83293 0.26953 0.70058 0.0
H673 H 0.81459 0.28821 0.69122 0.0
H674 H 0.83704 0.29837 0.70966 0.0
H675 H 0.8193 0.31286 0.74206 0.0
H676 H 0.79044 0.30931 0.73393 0.0
C677 C 0.76424 0.20848 0.76304 0.0
C678 C 0.78221 0.18929 0.72859 0.0
C679 C 0.7375 0.29828 0.66799 0.0
C680 C 0.75014 0.31821 0.6637 0.0
C681 C 0.76999 0.32394 0.6757 0.0
C682 C 0.7777 0.30946 0.69087 0.0
C683 C 0.76548 0.28901 0.69403 0.0
C684 C 0.74547 0.28397 0.68306 0.0
C685 C 0.73471 0.2615 0.68832 0.0
C686 C 0.75187 0.25356 0.70371 0.0
C687 C 0.7699 0.2697 0.707 0.0
C688 C 0.71249 0.26508 0.70031 0.0
C689 C 0.73225 0.2468 0.66654 0.0
C690 C 0.84175 0.2695 0.75138 0.0
C691 C 0.85063 0.25311 0.7638 0.0
C692 C 0.83876 0.23201 0.76461 0.0
C693 C 0.81812 0.22761 0.75422 0.0
C694 C 0.80919 0.24428 0.74249 0.0
C695 C 0.82113 0.26464 0.74074 0.0
C696 C 0.80939 0.27974 0.72634 0.0
C697 C 0.78828 0.26516 0.72026 0.0
C698 C 0.78827 0.24456 0.73004 0.0
C699 C 0.80437 0.30082 0.74052 0.0
C700 C 0.82418 0.28445 0.7059 0.0
H701 H 0.7073 0.21935 0.69296 0.0
H702 H 0.73745 0.16789 0.74463 0.0
H703 H 0.7758 0.17977 0.71337 0.0
H704 H 0.79832 0.19762 0.7235 0.0
H705 H 0.78529 0.17696 0.74104 0.0
H706 H 0.749 0.21659 0.76816 0.0
H707 H 0.76346 0.1919 0.77036 0.0
H708 H 0.7782 0.21904 0.77074 0.0
H709 H 0.72205 0.29354 0.65923 0.0
H710 H 0.78008 0.33915 0.6726 0.0
H711 H 0.79317 0.31448 0.69912 0.0
H712 H 0.71427 0.28013 0.71178 0.0
H713 H 0.69912 0.26747 0.68826 0.0
H714 H 0.70693 0.25128 0.71083 0.0
H715 H 0.7464 0.25073 0.6552 0.0
H716 H 0.73262 0.22885 0.6692 0.0
H717 H 0.71668 0.24955 0.65766 0.0
H718 H 0.68621 0.18468 0.69976 0.0
C719 C 0.71431 0.20858 0.70419 0.0
C720 C 0.55667 0.65689 0.50942 0.0
C721 C 0.5381 0.66954 0.51079 0.0
C722 C 0.52462 0.66858 0.52983 0.0
C723 C 0.54701 0.64131 0.54473 0.0
C724 C 0.56079 0.64296 0.52654 0.0
C725 C 0.57925 0.62769 0.52735 0.0
H726 H 0.62694 0.54566 0.57737 0.0
C727 C 0.55506 0.62438 0.55885 0.0
C728 C 0.5741 0.61649 0.5489 0.0
H729 H 0.64566 0.57608 0.51603 0.0
H730 H 0.61727 0.60142 0.52126 0.0
H731 H 0.61723 0.5913 0.60562 0.0
H732 H 0.5752 0.54264 0.56721 0.0
H733 H 0.56064 0.54961 0.59133 0.0
H734 H 0.58652 0.53694 0.59357 0.0
H735 H 0.60954 0.56396 0.61498 0.0
H736 H 0.59221 0.58668 0.62021 0.0
C737 C 0.60165 0.64223 0.52853 0.0
C738 C 0.57673 0.61094 0.50701 0.0
C739 C 0.50909 0.5994 0.62474 0.0
C740 C 0.51144 0.58297 0.64006 0.0
C741 C 0.53097 0.57155 0.63961 0.0
C742 C 0.5474 0.57577 0.62366 0.0
C743 C 0.54431 0.59151 0.60784 0.0
C744 C 0.52564 0.60338 0.60887 0.0
C745 C 0.52523 0.61959 0.59083 0.0
C746 C 0.54644 0.61508 0.57848 0.0
C747 C 0.55746 0.5985 0.58841 0.0
C748 C 0.52639 0.6435 0.60172 0.0
C749 C 0.5042 0.61311 0.57648 0.0
C750 C 0.62493 0.55774 0.56502 0.0
C751 C 0.63878 0.55878 0.54629 0.0
C752 C 0.63564 0.57505 0.53085 0.0
C753 C 0.61891 0.58968 0.53377 0.0
C754 C 0.60482 0.58794 0.55216 0.0
C755 C 0.60804 0.57231 0.56752 0.0
C756 C 0.59089 0.57237 0.58559 0.0
C757 C 0.5769 0.59065 0.57852 0.0
C758 C 0.58517 0.59966 0.55891 0.0
C759 C 0.60295 0.57874 0.60787 0.0
C760 C 0.57761 0.54922 0.58464 0.0
H761 H 0.51792 0.65439 0.56066 0.0
H762 H 0.56732 0.65721 0.495 0.0
H763 H 0.5589 0.60684 0.50264 0.0
H764 H 0.58309 0.59471 0.51002 0.0
H765 H 0.58516 0.61793 0.49227 0.0
H766 H 0.60003 0.65791 0.5387 0.0
H767 H 0.60727 0.64691 0.51179 0.0
H768 H 0.61498 0.63407 0.53667 0.0
H769 H 0.4943 0.60845 0.62457 0.0
H770 H 0.53347 0.55919 0.65155 0.0
H771 H 0.56172 0.56635 0.62404 0.0
H772 H 0.53549 0.64449 0.61778 0.0
H773 H 0.5095 0.64893 0.60503 0.0
H774 H 0.53577 0.65585 0.59163 0.0
H775 H 0.50143 0.59468 0.57393 0.0
H776 H 0.50541 0.61939 0.5597 0.0
H777 H 0.48915 0.61915 0.5846 0.0
H778 H 0.51051 0.67855 0.53154 0.0
C779 C 0.52899 0.6546 0.54679 0.0
C780 C 0.52094 0.43806 0.03268 0.0
C781 C 0.50098 0.42428 0.03067 0.0
C782 C 0.4857 0.42822 0.01393 0.0
C783 C 0.50974 0.45958 0.00235 0.0
C784 C 0.525 0.45544 0.01834 0.0
C785 C 0.54549 0.47141 0.01802 0.0
H786 H 0.59821 0.56453 0.97856 0.0
C787 C 0.51868 0.47919 0.99057 0.0
C788 C 0.5397 0.48613 -0.00042 0.0
H789 H 0.62281 0.52176 0.02645 0.0
H790 H 0.58929 0.49678 0.02216 0.0
H791 H 0.54721 0.56225 0.99469 0.0
H792 H 0.58186 0.5256 0.94475 0.0
H793 H 0.55511 0.52748 0.93406 0.0
H794 H 0.57289 0.55262 0.94014 0.0
H795 H 0.55778 0.57401 0.96973 0.0
H796 H 0.53046 0.55964 0.97076 0.0
C797 C 0.54748 0.48447 0.04071 0.0
C798 C 0.56571 0.45798 0.01203 0.0
C799 C 0.47304 0.50956 0.93003 0.0
C800 C 0.47733 0.5273 0.91602 0.0
C801 C 0.49713 0.54123 0.91883 0.0
C802 C 0.51264 0.53733 0.93507 0.0
C803 C 0.50841 0.51922 0.94861 0.0
C804 C 0.48883 0.50576 0.94607 0.0
C805 C 0.48748 0.48697 0.9616 0.0
C806 C 0.50961 0.49126 0.97366 0.0
C807 C 0.52168 0.51021 0.96603 0.0
C808 C 0.46752 0.49 0.97727 0.0
C809 C 0.48596 0.46462 0.94761 0.0
C810 C 0.59626 0.54977 0.9881 0.0
C811 C 0.61281 0.54506 0.00301 0.0
C812 C 0.6101 0.52557 0.0149 0.0
C813 C 0.59066 0.51122 0.01243 0.0
C814 C 0.57395 0.51638 0.99776 0.0
C815 C 0.57716 0.53515 0.98558 0.0
C816 C 0.55828 0.53746 0.96993 0.0
C817 C 0.54291 0.51725 0.97509 0.0
C818 C 0.55201 0.50512 0.99157 0.0
C819 C 0.54785 0.55953 0.97638 0.0
C820 C 0.56736 0.53589 0.94594 0.0
H821 H 0.4776 0.44788 0.98755 0.0
H822 H 0.53306 0.43562 0.04534 0.0
H823 H 0.56061 0.44273 0.00154 0.0
H824 H 0.57823 0.46739 0.00203 0.0
H825 H 0.57382 0.45261 0.02711 0.0
H826 H 0.53098 0.48972 0.04611 0.0
H827 H 0.55363 0.47399 0.05361 0.0
H828 H 0.5585 0.49995 0.04038 0.0
H829 H 0.45809 0.4984 0.92803 0.0
H830 H 0.50068 0.55509 0.9083 0.0
H831 H 0.52744 0.54845 0.93627 0.0
H832 H 0.46638 0.50793 0.9821 0.0
H833 H 0.45161 0.48369 0.96909 0.0
H834 H 0.46897 0.4818 0.99303 0.0
H835 H 0.49528 0.46632 0.93183 0.0
H836 H 0.49364 0.45122 0.95589 0.0
H837 H 0.46843 0.45898 0.94336 0.0
H838 H 0.47047 0.41757 0.01153 0.0
C839 C 0.48993 0.44578 -0.00014 0.0
C840 C 0.77025 0.20146 0.29725 0.0
C841 C 0.77294 0.18599 0.27953 0.0
C842 C 0.76199 0.18851 0.25933 0.0
C843 C 0.74434 0.22023 0.27557 0.0
C844 C 0.75592 0.21827 0.29496 0.0
C845 C 0.7502 0.23497 0.31285 0.0
H846 H 0.68607 0.3156 0.34975 0.0
C847 C 0.72961 0.23852 0.27932 0.0
C848 C 0.73315 0.24728 0.30109 0.0
H849 H 0.73674 0.28486 0.38512 0.0
H850 H 0.74513 0.263 0.35231 0.0
H851 H 0.66577 0.27024 0.3247 0.0
H852 H 0.71365 0.32227 0.30504 0.0
H853 H 0.69792 0.3135 0.28132 0.0
H854 H 0.68436 0.32555 0.30515 0.0
H855 H 0.65855 0.2977 0.31907 0.0
H856 H 0.65937 0.27618 0.29745 0.0
C857 C 0.73994 0.22202 0.33245 0.0
C858 C 0.7715 0.25027 0.31873 0.0
C859 C 0.6715 0.25227 0.22193 0.0
C860 C 0.65421 0.26662 0.22205 0.0
C861 C 0.65346 0.28321 0.23925 0.0
C862 C 0.66876 0.28457 0.25673 0.0
C863 C 0.68484 0.26903 0.25722 0.0
C864 C 0.68656 0.25374 0.23964 0.0
C865 C 0.70482 0.23865 0.24305 0.0
C866 C 0.71318 0.24691 0.26592 0.0
C867 C 0.70119 0.26454 0.2742 0.0
C868 C 0.69427 0.21433 0.24282 0.0
C869 C 0.72272 0.24294 0.22508 0.0
C870 C 0.69904 0.30422 0.35029 0.0
C871 C 0.71057 0.3017 0.37006 0.0
C872 C 0.72733 0.28673 0.37018 0.0
C873 C 0.73227 0.27414 0.35106 0.0
C874 C 0.72022 0.27633 0.33157 0.0
C875 C 0.70406 0.2913 0.33132 0.0
C876 C 0.69269 0.29096 0.30917 0.0
C877 C 0.70474 0.27334 0.29623 0.0
C878 C 0.72073 0.2648 0.30951 0.0
C879 C 0.66775 0.28354 0.31258 0.0
C880 C 0.69715 0.31426 0.2996 0.0
H881 H 0.73945 0.20638 0.24165 0.0
H882 H 0.7787 0.2002 0.31288 0.0
H883 H 0.78186 0.2532 0.30378 0.0
H884 H 0.76789 0.26708 0.32513 0.0
H885 H 0.78189 0.24267 0.33098 0.0
H886 H 0.73065 0.20615 0.32648 0.0
H887 H 0.75302 0.21776 0.34405 0.0
H888 H 0.72749 0.23111 0.34179 0.0
H889 H 0.67275 0.2396 0.20876 0.0
H890 H 0.6403 0.2944 0.23987 0.0
H891 H 0.66689 0.29712 0.26963 0.0
H892 H 0.67821 0.21347 0.2519 0.0
H893 H 0.69089 0.20761 0.22561 0.0
H894 H 0.70457 0.20297 0.25115 0.0
H895 H 0.72422 0.26075 0.22088 0.0
H896 H 0.73954 0.23965 0.23061 0.0
H897 H 0.71848 0.23276 0.20962 0.0
H898 H 0.76378 0.17676 0.24543 0.0
C899 C 0.74774 0.2056 0.25724 0.0
C900 C 0.37675 0.02353 0.97765 0.0
C901 C 0.3732 0.00129 0.96961 0.0
C902 C 0.38966 0.99183 0.95651 0.0
C903 C 0.41255 0.02684 0.95934 0.0
C904 C 0.39649 0.03587 0.97248 0.0
C905 C 0.40307 0.05944 0.98046 0.0
H906 H 0.48127 0.14589 0.98999 0.0
C907 C 0.43117 0.04412 0.95742 0.0
C908 C 0.42578 0.06315 0.96993 0.0
H909 H 0.41523 0.14067 0.018 0.0
H910 H 0.40737 0.10479 -0.00092 0.0
H911 H 0.46489 0.12648 0.94103 0.0
H912 H 0.49285 0.09619 0.99638 0.0
H913 H 0.50577 0.08616 0.97222 0.0
H914 H 0.50869 0.11556 0.97975 0.0
H915 H 0.49396 0.13047 0.94767 0.0
H916 H 0.48272 0.1072 0.93006 0.0
C917 C 0.38617 0.07465 0.9711 0.0
C918 C 0.40449 0.0601 0.00608 0.0
C919 C 0.49642 0.02981 0.90717 0.0
C920 C 0.51589 0.04289 0.90199 0.0
C921 C 0.52075 0.06364 0.91343 0.0
C922 C 0.50596 0.07169 0.92917 0.0
C923 C 0.48613 0.05881 0.93356 0.0
C924 C 0.48185 0.03804 0.923 0.0
C925 C 0.46018 0.02649 0.93018 0.0
C926 C 0.45166 0.04426 0.94589 0.0
C927 C 0.46691 0.06315 0.94777 0.0
C928 C 0.44502 0.02174 0.90956 0.0
C929 C 0.4653 0.00541 0.94227 0.0
C930 C 0.46511 0.13697 0.99191 0.0
C931 C 0.44888 0.14594 0.00558 0.0
C932 C 0.42792 0.13411 0.00744 0.0
C933 C 0.42348 0.11318 0.99661 0.0
C934 C 0.44016 0.10399 0.98374 0.0
C935 C 0.46034 0.11608 0.98105 0.0
C936 C 0.47566 0.10397 0.96594 0.0
C937 C 0.46166 0.08223 0.96082 0.0
C938 C 0.44102 0.08232 0.97148 0.0
C939 C 0.47976 0.11767 0.9451 0.0
C940 C 0.49699 0.10032 0.97906 0.0
H941 H 0.42116 0.99653 0.94105 0.0
H942 H 0.36452 0.0311 0.98806 0.0
H943 H 0.41142 0.04482 0.01181 0.0
H944 H 0.41575 0.07399 0.01312 0.0
H945 H 0.38778 0.06106 0.01362 0.0
H946 H 0.37944 0.06782 0.95481 0.0
H947 H 0.37185 0.07626 0.98244 0.0
H948 H 0.39378 0.09145 0.96774 0.0
H949 H 0.49246 0.01365 0.89885 0.0
H950 H 0.53563 0.07403 0.90961 0.0
H951 H 0.51038 0.08778 0.93703 0.0
H952 H 0.44578 0.03648 0.89915 0.0
H953 H 0.45035 0.00741 0.8992 0.0
H954 H 0.42732 0.01833 0.91374 0.0
H955 H 0.4821 0.00742 0.95004 0.0
H956 H 0.45381 0.00198 0.95616 0.0
H957 H 0.46478 0.99052 0.93065 0.0
H958 H 0.38716 0.97471 0.95008 0.0
C959 C 0.40931 0.00453 0.95125 0.0
O960 O 0.229 0.85945 0.99036 0.0
Cd961 Cd 0.24205 0.87858 0.01711 0.0
Cd962 Cd 0.22115 0.91076 0.99647 0.0
O963 O 0.21472 0.88581 0.97229 0.0
O964 O 0.25185 0.85553 0.03635 0.0
O965 O 0.22761 0.87945 0.04726 0.0
C966 C 0.23894 0.86288 0.05149 0.0
C967 C 0.19323 0.93402 0.00592 0.0
C968 C 0.21927 0.8657 0.97343 0.0
C969 C 0.2708 0.9181 0.00354 0.0
O970 O 0.25289 0.92575 0.99755 0.0
O971 O 0.27043 0.89904 0.01162 0.0
O972 O 0.20391 0.93559 0.98757 0.0
O973 O 0.19801 0.91874 0.01893 0.0
O974 O 0.1522 0.53386 0.27858 0.0
Cd975 Cd 0.14103 0.50372 0.2907 0.0
Cd976 Cd 0.10253 0.51083 0.26874 0.0
O977 O 0.12185 0.53874 0.25968 0.0
O978 O 0.16767 0.48922 0.29971 0.0
O979 O 0.14491 0.47526 0.27286 0.0
C980 C 0.16236 0.4736 0.28486 0.0
C981 C 0.07925 0.4941 0.24098 0.0
C982 C 0.14159 0.54522 0.26569 0.0
C983 C 0.10031 0.5056 0.3183 0.0
O984 O 0.09017 0.50867 0.30046 0.0
O985 O 0.12104 0.50339 0.31815 0.0
O986 O 0.07483 0.51227 0.25152 0.0
O987 O 0.09713 0.48515 0.24622 0.0
O988 O 0.75249 0.68609 -0.00087 0.0
Cd989 Cd 0.74742 0.66548 0.02502 0.0
Cd990 Cd 0.77378 0.63976 0.00161 0.0
O991 O 0.7769 0.66652 0.98141 0.0
O992 O 0.73372 0.68365 0.04877 0.0
O993 O 0.76638 0.66997 0.05248 0.0
C994 C 0.75084 0.68125 0.06088 0.0
C995 C 0.80509 0.62625 0.01661 0.0
C996 C 0.76581 0.68356 0.98312 0.0
C997 C 0.72747 0.62042 0.00875 0.0
O998 O 0.74574 0.6176 -0.00105 0.0
O999 O 0.72513 0.63819 0.02036 0.0
O1000 O 0.79986 0.62225 0.99604 0.0
O1001 O 0.79275 0.63856 0.02863 0.0
O1002 O 0.91127 0.0327 0.2877 0.0
Cd1003 Cd 0.89144 0.02926 0.25995 0.0
Cd1004 Cd 0.86299 0.04915 0.28704 0.0
O1005 O 0.88781 0.04837 0.31038 0.0
O1006 O 0.91214 0.02075 0.2361 0.0
O1007 O 0.89575 0.05227 0.23693 0.0
C1008 C 0.90936 0.03939 0.22739 0.0
C1009 C 0.84734 0.08241 0.28136 0.0
C1010 C 0.90657 0.04075 0.30676 0.0
C1011 C 0.84772 0.00368 0.2684 0.0
O1012 O 0.84293 0.02039 0.28055 0.0
O1013 O 0.8663 0.00384 0.25848 0.0
O1014 O 0.84281 0.07126 0.29866 0.0
O1015 O 0.86133 0.07483 0.26727 0.0
O1016 O 0.24491 0.19035 0.50692 0.0
Cd1017 Cd 0.23415 0.16935 0.53123 0.0
Cd1018 Cd 0.26001 0.1411 0.51032 0.0
O1019 O 0.26543 0.16672 0.48909 0.0
O1020 O 0.21994 0.18824 0.554 0.0
O1021 O 0.25015 0.17103 0.5605 0.0
C1022 C 0.23514 0.18369 0.56763 0.0
C1023 C 0.2904 0.12568 0.52514 0.0
C1024 C 0.25765 0.18569 0.49092 0.0
C1025 C 0.21219 0.12534 0.51382 0.0
O1026 O 0.23119 0.12045 0.50706 0.0
O1027 O 0.20987 0.14414 0.52359 0.0
O1028 O 0.28454 0.12168 0.50474 0.0
O1029 O 0.27909 0.13894 0.53724 0.0
O1030 O 0.41828 0.527 0.78453 0.0
Cd1031 Cd 0.40108 0.5217 0.75522 0.0
Cd1032 Cd 0.36851 0.53943 0.78023 0.0
O1033 O 0.39212 0.54107 0.80508 0.0
O1034 O 0.42441 0.5128 0.73417 0.0
O1035 O 0.40747 0.54373 0.73154 0.0
C1036 C 0.4223 0.53091 0.72427 0.0
C1037 C 0.35072 0.57127 0.77327 0.0
C1038 C 0.4117 0.53495 0.80298 0.0
C1039 C 0.35844 0.49293 0.76131 0.0
O1040 O 0.35145 0.50898 0.77302 0.0
O1041 O 0.37755 0.49486 0.75244 0.0
O1042 O 0.34586 0.5598 0.79029 0.0
O1043 O 0.36599 0.56468 0.76007 0.0
O1044 O 0.72005 0.37764 0.48817 0.0
Cd1045 Cd 0.73833 0.38926 0.51563 0.0
Cd1046 Cd 0.72986 0.42853 0.49927 0.0
O1047 O 0.71721 0.40938 0.47232 0.0
O1048 O 0.74133 0.36114 0.5306 0.0
O1049 O 0.72648 0.39001 0.54692 0.0
C1050 C 0.73251 0.37003 0.54789 0.0
C1051 C 0.70824 0.45478 0.51586 0.0
C1052 C 0.71414 0.38828 0.47186 0.0
C1053 C 0.7777 0.42035 0.50528 0.0
O1054 O 0.76384 0.43437 0.50118 0.0
O1055 O 0.77093 0.40088 0.51066 0.0
O1056 O 0.71878 0.45848 0.4977 0.0
O1057 O 0.70986 0.4359 0.52471 0.0
O1058 O 0.66672 0.04275 0.77379 0.0
Cd1059 Cd 0.65101 0.01511 0.78735 0.0
Cd1060 Cd 0.61535 0.0251 0.76189 0.0
O1061 O 0.63745 0.05184 0.7555 0.0
O1062 O 0.67498 -0.00124 0.79972 0.0
O1063 O 0.65332 0.9851 0.7719 0.0
C1064 C 0.6696 0.98279 0.78525 0.0
C1065 C 0.5937 0.01157 0.73148 0.0
C1066 C 0.65764 0.05577 0.76136 0.0
C1067 C 0.60836 0.02239 0.81103 0.0
O1068 O 0.59984 0.02428 0.7921 0.0
O1069 O 0.62885 0.01937 0.81296 0.0
O1070 O 0.59086 0.03044 0.74151 0.0
O1071 O 0.6088 -0.00012 0.73893 0.0
O1072 O 0.97496 0.29507 0.91077 0.0
Cd1073 Cd 0.97749 0.26604 0.89185 0.0
Cd1074 Cd 0.99446 0.29449 0.86217 0.0
O1075 O 0.98861 0.31843 0.88642 0.0
O1076 O 0.96953 0.2425 0.91295 0.0
O1077 O 0.00265 0.24681 0.89741 0.0
C1078 C 0.98933 0.23622 0.91072 0.0
C1079 C 0.03032 0.29355 0.84842 0.0
C1080 C 0.9803 0.31485 0.90532 0.0
C1081 C 0.95313 0.26741 0.8483 0.0
O1082 O 0.96788 0.28227 0.84264 0.0
O1083 O 0.95439 0.25872 0.86692 0.0
O1084 O 0.01743 0.3083 0.84259 0.0
O1085 O 0.02267 0.279 0.86208 0.0
O1086 O 0.46744 0.7977 0.4156 0.0
Cd1087 Cd 0.47194 0.768 0.3988 0.0
Cd1088 Cd 0.49124 0.79473 0.36921 0.0
O1089 O 0.48714 0.81944 0.39341 0.0
O1090 O 0.46347 0.74557 0.42082 0.0
O1091 O 0.49755 0.75081 0.40754 0.0
C1092 C 0.4838 0.74051 0.42065 0.0
C1093 C 0.52683 0.79007 0.35618 0.0
C1094 C 0.47586 0.81687 0.41096 0.0
C1095 C 0.45027 0.76742 0.35406 0.0
O1096 O 0.46448 0.78317 0.34928 0.0
O1097 O 0.45124 0.7585 0.37257 0.0
O1098 O 0.51571 0.80604 0.34984 0.0
O1099 O 0.51761 0.77658 0.37007 0.0
O1100 O 0.98224 0.76526 0.66392 0.0
Cd1101 Cd 0.00732 0.75773 0.64212 0.0
Cd1102 Cd 0.9791 0.77318 0.61293 0.0
O1103 O 0.9587 0.77662 0.63986 0.0
O1104 O 0.03102 0.74831 0.66139 0.0
O1105 O 0.03596 0.77751 0.64073 0.0
C1106 C 0.04401 0.76442 0.65436 0.0
C1107 C 0.98983 0.8041 0.59311 0.0
C1108 C 0.96356 0.77246 0.65957 0.0
C1109 C 0.99051 0.72677 0.60381 0.0
O1110 O 0.97931 0.74216 0.59735 0.0
O1111 O 0.00255 0.72989 0.62103 0.0
O1112 O 0.97054 0.79345 0.5902 0.0
O1113 O 0.00315 0.7972 0.60754 0.0
O1114 O 0.47911 0.25835 0.16465 0.0
Cd1115 Cd 0.50472 0.25744 0.14204 0.0
Cd1116 Cd 0.48044 0.28393 0.11967 0.0
O1117 O 0.46257 0.28465 0.14868 0.0
O1118 O 0.52985 0.24581 0.15764 0.0
O1119 O 0.53121 0.27985 0.14529 0.0
C1120 C 0.54086 0.26477 0.15524 0.0
C1121 C 0.49076 0.31744 0.10368 0.0
C1122 C 0.46403 0.27186 0.16457 0.0
C1123 C 0.48697 0.2393 0.09821 0.0
O1124 O 0.47602 0.25641 0.09795 0.0
O1125 O 0.50033 0.23705 0.11398 0.0
O1126 O 0.47046 0.3089 0.10316 0.0
O1127 O 0.50537 0.30704 0.11375 0.0
H1128 H 0.22166 0.78926 0.89921 0.0
H1129 H 0.21921 0.84524 0.8578 0.0
H1130 H 0.21419 0.86984 0.89039 0.0
H1131 H 0.21363 0.87598 0.93076 0.0
H1132 H 0.21832 0.82035 0.97225 0.0
H1133 H 0.2192 0.79507 0.9395 0.0
C1134 C 0.22013 0.80687 0.89733 0.0
C1135 C 0.22102 0.81543 0.87613 0.0
C1136 C 0.2176 0.82097 0.91615 0.0
C1137 C 0.21848 0.83819 0.87392 0.0
C1138 C 0.21569 0.85229 0.89256 0.0
C1139 C 0.21441 0.85826 0.93265 0.0
C1140 C 0.21598 0.85007 0.95389 0.0
C1141 C 0.21557 0.84392 0.91377 0.0
C1142 C 0.21718 0.82709 0.95606 0.0
C1143 C 0.21779 0.81264 0.93735 0.0
H1144 H 0.03437 0.50587 0.3991 0.0
H1145 H 0.09564 0.50332 0.43522 0.0
H1146 H 0.11631 0.50185 0.40039 0.0
H1147 H 0.11698 0.50281 0.35983 0.0
H1148 H 0.0555 0.50629 0.32406 0.0
H1149 H 0.03487 0.50569 0.35868 0.0
C1150 C 0.0522 0.50457 0.39933 0.0
C1151 C 0.06347 0.50457 0.41964 0.0
C1152 C 0.06393 0.50407 0.37935 0.0
C1153 C 0.08663 0.50341 0.41974 0.0
C1154 C 0.09843 0.50257 0.39987 0.0
C1155 C 0.09906 0.50335 0.35958 0.0
C1156 C 0.08785 0.50469 0.33935 0.0
C1157 C 0.08727 0.50318 0.37959 0.0
C1158 C 0.06461 0.50537 0.33937 0.0
C1159 C 0.05276 0.50499 0.35917 0.0
H1160 H 0.75636 0.75409 0.91131 0.0
H1161 H 0.82418 0.73948 0.89797 0.0
H1162 H 0.82208 0.71273 0.92692 0.0
H1163 H 0.80096 0.69338 0.95614 0.0
H1164 H 0.73453 0.71083 0.97154 0.0
H1165 H 0.73644 0.7371 0.94208 0.0
C1166 C 0.77091 0.74547 0.91493 0.0
C1167 C 0.79035 0.74884 0.90222 0.0
C1168 C 0.76989 0.73063 0.93208 0.0
C1169 C 0.80878 0.73697 0.90703 0.0
C1170 C 0.80769 0.72176 0.92376 0.0
C1171 C 0.78695 0.70298 0.95304 0.0
C1172 C 0.76761 0.7001 0.9659 0.0
C1173 C 0.7883 0.71839 0.93633 0.0
C1174 C 0.74964 0.71281 0.9619 0.0
C1175 C 0.75068 0.72778 0.94502 0.0
H1176 H 0.98626 0.03042 0.37136 0.0
H1177 H 0.9329 0.02623 0.41876 0.0
H1178 H 0.90623 0.03331 0.38991 0.0
H1179 H 0.89802 0.03895 0.35076 0.0
H1180 H 0.95143 0.04074 0.30325 0.0
H1181 H 0.97826 0.03669 0.33265 0.0
C1182 C 0.96883 0.03138 0.37541 0.0
C1183 C 0.9615 0.02796 0.3971 0.0
C1184 C 0.95365 0.03501 0.35873 0.0
C1185 C 0.93884 0.02876 0.40211 0.0
C1186 C 0.92364 0.03285 0.38566 0.0
C1187 C 0.91558 0.03874 0.34694 0.0
C1188 C 0.92278 0.04018 0.32491 0.0
C1189 C 0.93084 0.03577 0.36385 0.0
C1190 C 0.94551 0.03958 0.32009 0.0
C1191 C 0.96084 0.03725 0.33687 0.0
H1192 H 0.22004 0.2309 0.66078 0.0
H1193 H 0.28986 0.22216 0.66762 0.0
H1194 H 0.28962 0.20191 0.63141 0.0
H1195 H 0.26976 0.1886 0.59691 0.0
H1196 H 0.20038 0.19971 0.5899 0.0
H1197 H 0.20016 0.21693 0.62718 0.0
C1198 C 0.2351 0.22419 0.65452 0.0
C1199 C 0.25488 0.2278 0.66684 0.0
C1200 C 0.23493 0.21314 0.63361 0.0
C1201 C 0.27443 0.21952 0.65835 0.0
C1202 C 0.27429 0.20799 0.63769 0.0
C1203 C 0.25459 0.19463 0.60367 0.0
C1204 C 0.23515 0.19296 0.59067 0.0
C1205 C 0.25468 0.20499 0.62501 0.0
C1206 C 0.21561 0.20096 0.59952 0.0
C1207 C 0.21544 0.21077 0.62085 0.0
H1208 H 0.49604 0.54159 0.65128 0.0
H1209 H 0.48572 0.61106 0.66387 0.0
H1210 H 0.45569 0.60099 0.68958 0.0
H1211 H 0.43353 0.5724 0.70984 0.0
H1212 H 0.44557 0.5032 0.69829 0.0
H1213 H 0.47376 0.51323 0.67086 0.0
C1214 C 0.4874 0.55457 0.65982 0.0
C1215 C 0.49326 0.57704 0.65579 0.0
C1216 C 0.47038 0.54869 0.67472 0.0
C1217 C 0.48148 0.59361 0.66658 0.0
C1218 C 0.46435 0.58787 0.68134 0.0
C1219 C 0.44214 0.55953 0.70108 0.0
C1220 C 0.43749 0.5371 0.70606 0.0
C1221 C 0.45875 0.56546 0.68565 0.0
C1222 C 0.44891 0.52059 0.69478 0.0
C1223 C 0.46507 0.5263 0.67913 0.0
H1224 H 0.7369 0.30275 0.62286 0.0
H1225 H 0.75009 0.36371 0.66272 0.0
H1226 H 0.74312 0.38547 0.63064 0.0
H1227 H 0.73622 0.38693 0.59041 0.0
H1228 H 0.7255 0.32548 0.55081 0.0
H1229 H 0.72794 0.3041 0.58376 0.0
C1230 C 0.73777 0.3208 0.62468 0.0
C1231 C 0.74392 0.33162 0.64513 0.0
C1232 C 0.73417 0.33308 0.60618 0.0
C1233 C 0.74551 0.35502 0.64708 0.0
C1234 C 0.74147 0.36744 0.62878 0.0
C1235 C 0.73398 0.36888 0.58916 0.0
C1236 C 0.73068 0.35774 0.56831 0.0
C1237 C 0.7362 0.35664 0.60812 0.0
C1238 C 0.72812 0.33436 0.56674 0.0
C1239 C 0.72958 0.32214 0.58553 0.0
H1240 H 0.53318 0.9663 0.6542 0.0
H1241 H 0.52637 0.0355 0.64218 0.0
H1242 H 0.55087 0.04695 0.67326 0.0
H1243 H 0.57371 0.03757 0.70414 0.0
H1244 H 0.58327 0.96884 0.71493 0.0
H1245 H 0.55864 0.95694 0.68355 0.0
C1246 C 0.5373 0.98389 0.6581 0.0
C1247 C 0.52754 -4e-05 0.64597 0.0
C1248 C 0.55194 0.99046 0.67572 0.0
C1249 C 0.53302 0.02269 0.65154 0.0
C1250 C 0.54723 0.02931 0.66921 0.0
C1251 C 0.57042 0.01997 0.69961 0.0
C1252 C 0.58004 0.00407 0.71191 0.0
C1253 C 0.5566 0.01335 0.68151 0.0
C1254 C 0.57599 0.98136 0.70567 0.0
C1255 C 0.56188 0.97458 0.68781 0.0
H1256 H 0.86033 0.23866 0.80416 0.0
H1257 H 0.88851 0.27844 0.75212 0.0
H1258 H 0.92295 0.28607 0.77343 0.0
H1259 H 0.94493 0.28148 0.80705 0.0
H1260 H 0.91672 0.23986 0.85775 0.0
H1261 H 0.8827 0.23225 0.83622 0.0
C1262 C 0.8741 0.24864 0.79716 0.0
C1263 C 0.87176 0.25785 0.77646 0.0
C1264 C 0.89395 0.2525 0.8092 0.0
C1265 C 0.88966 0.27133 0.76812 0.0
C1266 C 0.90945 0.27556 0.78022 0.0
C1267 C 0.93141 0.2706 0.81331 0.0
C1268 C 0.93341 0.26135 0.83406 0.0
C1269 C 0.91177 0.26623 0.80081 0.0
C1270 C 0.91572 0.24724 0.84186 0.0
C1271 C 0.89617 0.24292 0.8296 0.0
H1272 H 0.47579 0.90477 0.47221 0.0
H1273 H 0.41613 0.86986 0.49621 0.0
H1274 H 0.42142 0.8381 0.47038 0.0
H1275 H 0.44298 0.82054 0.441 0.0
H1276 H 0.50143 0.85637 0.41523 0.0
H1277 H 0.49663 0.88768 0.44163 0.0
C1278 C 0.46407 0.89011 0.47175 0.0
C1279 C 0.44574 0.88935 0.48605 0.0
C1280 C 0.46696 0.87225 0.45654 0.0
C1281 C 0.43038 0.87058 0.48527 0.0
C1282 C 0.4334 0.85252 0.47056 0.0
C1283 C 0.45469 0.83519 0.44118 0.0
C1284 C 0.4726 0.83612 0.4263 0.0
C1285 C 0.45162 0.8532 0.45611 0.0
C1286 C 0.48747 0.85531 0.4265 0.0
C1287 C 0.48478 0.87317 0.44163 0.0
H1288 H 0.12444 0.30855 0.8041 0.0
H1289 H 0.13198 0.2441 0.82961 0.0
H1290 H 0.09463 0.24369 0.84568 0.0
H1291 H 0.05962 0.26165 0.85194 0.0
H1292 H 0.05241 0.32576 0.8252 0.0
H1293 H 0.08994 0.32637 0.81032 0.0
C1294 C 0.11802 0.29454 0.81343 0.0
C1295 C 0.13097 0.27648 0.81586 0.0
C1296 C 0.09658 0.29434 0.82234 0.0
C1297 C 0.12226 0.25818 0.82752 0.0
C1298 C 0.10096 0.25797 0.83672 0.0
C1299 C 0.06631 0.27576 0.84291 0.0
C1300 C 0.05321 0.29362 0.83969 0.0
C1301 C 0.08792 0.27593 0.83414 0.0
C1302 C 0.06207 0.31175 0.82786 0.0
C1303 C 0.08356 0.31215 0.81935 0.0
H1304 H 0.49709 0.67231 0.49372 0.0
H1305 H 0.56573 0.69665 0.48583 0.0
H1306 H 0.55526 0.71952 0.45581 0.0
H1307 H 0.52613 0.73413 0.43323 0.0
H1308 H 0.45746 0.71047 0.44269 0.0
H1309 H 0.46843 0.68587 0.47073 0.0
C1310 C 0.50976 0.68276 0.48557 0.0
C1311 C 0.5321 0.683 0.49217 0.0
C1312 C 0.5036 0.69598 0.46859 0.0
C1313 C 0.5484 0.69615 0.48102 0.0
C1314 C 0.54241 0.70928 0.46392 0.0
C1315 C 0.51363 0.72339 0.44126 0.0
C1316 C 0.49102 0.72418 0.43595 0.0
C1317 C 0.52001 0.70951 0.45772 0.0
C1318 C 0.47497 0.71027 0.44657 0.0
C1319 C 0.48121 0.69621 0.46263 0.0
H1320 H 0.90463 0.77949 0.74544 0.0
H1321 H 0.85529 0.7921 0.69702 0.0
H1322 H 0.88278 0.78924 0.66756 0.0
H1323 H 0.9206 0.78248 0.65552 0.0
H1324 H 0.96962 0.76888 0.70397 0.0
H1325 H 0.94235 0.77258 0.73342 0.0
C1326 C 0.89981 0.78137 0.72842 0.0
C1327 C 0.87791 0.78592 0.72345 0.0
C1328 C 0.91563 0.77953 0.71157 0.0
C1329 C 0.87208 0.78879 0.70134 0.0
C1330 C 0.88776 0.78705 0.68447 0.0
C1331 C 0.92538 0.78041 0.67252 0.0
C1332 C 0.94716 0.7754 0.67748 0.0
C1333 C 0.90957 0.78239 0.6894 0.0
C1334 C 0.95298 0.7727 0.69963 0.0
C1335 C 0.9374 0.77481 0.71651 0.0
H1336 H 0.02281 0.89462 0.55148 0.0
H1337 H 0.97783 0.86739 0.49959 0.0
H1338 H 0.96906 0.83429 0.52033 0.0
H1339 H 0.97357 0.81326 0.55336 0.0
H1340 H 0.02063 0.83872 0.6039 0.0
H1341 H 0.02964 0.87212 0.58317 0.0
C1342 C 0.01139 0.88133 0.54445 0.0
C1343 C 0.0008 0.88379 0.52405 0.0
C1344 C 0.00681 0.86198 0.55619 0.0
C1345 C 0.98582 0.86636 0.51548 0.0
C1346 C 0.9809 0.84728 0.52724 0.0
C1347 C 0.98582 0.82612 0.55981 0.0
C1348 C 0.99627 0.8237 0.58019 0.0
C1349 C 0.99114 0.84502 0.54768 0.0
C1350 C 0.01236 0.84027 0.58823 0.0
C1351 C 0.01746 0.85937 0.57642 0.0
H1352 H 0.14116 0.79153 0.69002 0.0
H1353 H 0.1359 0.72176 0.70393 0.0
H1354 H 0.09973 0.71671 0.68577 0.0
H1355 H 0.06809 0.73268 0.66938 0.0
H1356 H 0.07248 0.8023 0.65531 0.0
H1357 H 0.11046 0.80692 0.67029 0.0
C1358 C 0.13216 0.77519 0.68885 0.0
C1359 C 0.14119 0.75708 0.69842 0.0
C1360 C 0.11111 0.77245 0.6787 0.0
C1361 C 0.1295 0.73593 0.6965 0.0
C1362 C 0.10867 0.73306 0.68634 0.0
C1363 C 0.07738 0.74887 0.66952 0.0
C1364 C 0.06744 0.76722 0.66165 0.0
C1365 C 0.09909 0.75131 0.67796 0.0
C1366 C 0.0798 0.78797 0.66145 0.0
C1367 C 0.10146 0.79061 0.67002 0.0
H1368 H 0.96727 0.63502 0.55133 0.0
H1369 H 0.02787 0.61948 0.58261 0.0
H1370 H 0.03278 0.6574 0.59956 0.0
H1371 H 0.01883 0.69429 0.60653 0.0
H1372 H 0.95868 0.70994 0.57416 0.0
H1373 H 0.95461 0.67256 0.55641 0.0
C1374 C 0.98153 0.64001 0.56189 0.0
C1375 C 0.99706 0.6246 0.56606 0.0
C1376 C 0.98428 0.66174 0.57131 0.0
C1377 C 0.01573 0.63119 0.57932 0.0
C1378 C 0.01847 0.65277 0.58901 0.0
C1379 C 0.00487 0.68954 0.59553 0.0
C1380 C 0.98897 0.70478 0.59182 0.0
C1381 C 0.00271 0.66809 0.58529 0.0
C1382 C 0.97114 0.69851 0.5773 0.0
C1383 C 0.96875 0.67713 0.5672 0.0
H1384 H 0.77068 0.92686 0.27132 0.0
H1385 H 0.82498 0.88699 0.25391 0.0
H1386 H 0.85013 0.92066 0.25218 0.0
H1387 H 0.85703 0.96134 0.25695 0.0
H1388 H 0.80322 0.00088 0.27677 0.0
H1389 H 0.7776 0.96735 0.27646 0.0
C1390 C 0.78807 0.92547 0.26742 0.0
C1391 C 0.79589 0.90437 0.26282 0.0
C1392 C 0.80254 0.94485 0.26688 0.0
C1393 C 0.8184 0.903 0.25728 0.0
C1394 C 0.83285 0.92224 0.2564 0.0
C1395 C 0.83965 0.96263 0.26099 0.0
C1396 C 0.83202 0.98355 0.26682 0.0
C1397 C 0.82512 0.94324 0.26126 0.0
C1398 C 0.80951 0.98494 0.27228 0.0
C1399 C 0.79486 0.96579 0.27212 0.0
H1400 H 0.80343 0.16811 0.25179 0.0
H1401 H 0.77093 0.15984 0.31477 0.0
H1402 H 0.79166 0.12776 0.32108 0.0
H1403 H 0.81835 0.10173 0.30871 0.0
H1404 H 0.85099 0.10891 0.2457 0.0
H1405 H 0.83087 0.14172 0.2394 0.0
C1406 C 0.80087 0.15919 0.26682 0.0
C1407 C 0.78578 0.16646 0.28285 0.0
C1408 C 0.81285 0.14061 0.27037 0.0
C1409 C 0.78271 0.15484 0.30234 0.0
C1410 C 0.79447 0.13641 0.30593 0.0
C1411 C 0.82117 0.11047 0.2936 0.0
C1412 C 0.83613 0.10285 0.2777 0.0
C1413 C 0.80954 0.12915 0.29008 0.0
C1414 C 0.83957 0.11444 0.25823 0.0
C1415 C 0.82803 0.13317 0.2546 0.0
H1416 H 0.36828 0.95988 0.98566 0.0
H1417 H 0.33129 0.01377 0.96552 0.0
H1418 H 0.29645 0.99309 0.97515 0.0
H1419 H 0.2766 0.95981 0.98885 0.0
H1420 H 0.31307 0.90558 0.00932 0.0
H1421 H 0.34811 0.9264 0.00019 0.0
C1422 C 0.35254 0.96694 0.98326 0.0
C1423 C 0.35226 0.98823 0.97486 0.0
C1424 C 0.33258 0.95503 0.98902 0.0
C1425 C 0.33185 0.99743 0.97208 0.0
C1426 C 0.31197 0.98563 0.97756 0.0
C1427 C 0.29218 0.95251 0.99143 0.0
C1428 C 0.29218 0.93113 -0.0003 0.0
C1429 C 0.31215 0.96445 0.98605 0.0
C1430 C 0.31258 0.92203 0.00301 0.0
C1431 C 0.33262 0.93388 0.9977 0.0
H1432 H 0.213 0.38752 0.26183 0.0
H1433 H 0.24008 0.40512 0.32689 0.0
H1434 H 0.21834 0.43754 0.32987 0.0
H1435 H 0.19167 0.46069 0.31424 0.0
H1436 H 0.16277 0.44276 0.24998 0.0
H1437 H 0.18518 0.41064 0.24635 0.0
C1438 C 0.2141 0.39855 0.27658 0.0
C1439 C 0.22803 0.39401 0.29414 0.0
C1440 C 0.20128 0.41702 0.27831 0.0
C1441 C 0.22928 0.40823 0.31328 0.0
C1442 C 0.21694 0.42678 0.31496 0.0
C1443 C 0.19031 0.44983 0.29938 0.0
C1444 C 0.17571 0.45416 0.28234 0.0
C1445 C 0.20289 0.4313 0.29761 0.0
C1446 C 0.17393 0.43976 0.26332 0.0
C1447 C 0.18674 0.42142 0.26124 0.0
H1448 H 0.11978 0.06929 0.50272 0.0
H1449 H 0.16235 0.01637 0.4884 0.0
H1450 H 0.19528 0.04266 0.49423 0.0
H1451 H 0.21174 0.08094 0.50265 0.0
H1452 H 0.16858 0.13341 0.5176 0.0
H1453 H 0.13604 0.10703 0.51203 0.0
C1454 C 0.13629 0.06356 0.50077 0.0
C1455 C 0.13872 0.04104 0.49495 0.0
C1456 C 0.15498 0.07867 0.50416 0.0
C1457 C 0.16014 0.03366 0.49293 0.0
C1458 C 0.17892 0.04868 0.49615 0.0
C1459 C 0.19521 0.0866 0.50463 0.0
C1460 C 0.1926 0.10914 0.51042 0.0
C1461 C 0.17651 0.07127 0.50163 0.0
C1462 C 0.17108 0.11617 0.51316 0.0
C1463 C 0.15244 0.1011 0.50997 0.0
H1464 H 0.7253 0.13316 0.73093 0.0
H1465 H 0.66455 0.16602 0.72615 0.0
H1466 H 0.64305 0.13208 0.73624 0.0
H1467 H 0.6416 0.09376 0.74843 0.0
H1468 H 0.70263 0.06245 0.75703 0.0
H1469 H 0.724 0.09548 0.74415 0.0
C1470 C 0.70739 0.13313 0.73238 0.0
C1471 C 0.69668 0.15232 0.72785 0.0
C1472 C 0.69518 0.11389 0.73913 0.0
C1473 C 0.67333 0.15151 0.72917 0.0
C1474 C 0.66099 0.13215 0.73519 0.0
C1475 C 0.65958 0.09415 0.7474 0.0
C1476 C 0.67054 0.07572 0.75363 0.0
C1477 C 0.67177 0.11335 0.74046 0.0
C1478 C 0.69384 0.0765 0.75244 0.0
C1479 C 0.70604 0.09533 0.74501 0.0
H1480 H 0.35855 0.07346 0.57715 0.0
H1481 H 0.3781 0.05635 0.51018 0.0
H1482 H 0.35129 0.08012 0.49592 0.0
H1483 H 0.32103 0.104 0.50215 0.0
H1484 H 0.30128 0.12208 0.56875 0.0
H1485 H 0.32978 0.10008 0.58349 0.0
C1486 C 0.35712 0.0752 0.55947 0.0
C1487 C 0.37001 0.06282 0.54475 0.0
C1488 C 0.34167 0.08903 0.5513 0.0
C1489 C 0.36798 0.06524 0.52186 0.0
C1490 C 0.35275 0.07893 0.51367 0.0
C1491 C 0.32302 0.10327 0.51991 0.0
C1492 C 0.30894 0.11445 0.53433 0.0
C1493 C 0.33926 0.09058 0.5282 0.0
C1494 C 0.31192 0.11357 0.5573 0.0
C1495 C 0.32814 0.10092 0.56572 0.0
H1496 H 0.63559 0.51458 0.55519 0.0
H1497 H 0.68007 0.56589 0.52781 0.0
H1498 H 0.70558 0.53822 0.51645 0.0
H1499 H 0.71422 0.49924 0.51226 0.0
H1500 H 0.67137 0.44817 0.5417 0.0
H1501 H 0.64649 0.47614 0.55484 0.0
C1502 C 0.65108 0.51987 0.5472 0.0
C1503 C 0.65561 0.54233 0.54203 0.0
C1504 C 0.66594 0.50391 0.54103 0.0
C1505 C 0.67576 0.54868 0.53147 0.0
C1506 C 0.69047 0.53289 0.52507 0.0
C1507 C 0.6995 0.49427 0.52168 0.0
C1508 C 0.69442 0.47171 0.52578 0.0
C1509 C 0.6855 0.51042 0.52936 0.0
C1510 C 0.67556 0.46548 0.53832 0.0
C1511 C 0.66131 0.48144 0.54575 0.0
H1512 H 0.70587 0.34616 0.37513 0.0
H1513 H 0.7041 0.28605 0.41107 0.0
H1514 H 0.70139 0.3077 0.44599 0.0
H1515 H 0.7044 0.34373 0.46632 0.0
H1516 H 0.70797 0.40426 0.43083 0.0
H1517 H 0.70433 0.3824 0.39571 0.0
C1518 C 0.70441 0.33782 0.39059 0.0
C1519 C 0.70557 0.31463 0.39063 0.0
C1520 C 0.70324 0.35043 0.41066 0.0
C1521 C 0.7037 0.30396 0.41074 0.0
C1522 C 0.70208 0.31631 0.43067 0.0
C1523 C 0.704 0.3522 0.45094 0.0
C1524 C 0.70687 0.37559 0.4512 0.0
C1525 C 0.70261 0.33958 0.43086 0.0
C1526 C 0.70596 0.38627 0.43112 0.0
C1527 C 0.70404 0.37377 0.41101 0.0
H1528 H 0.561 0.04278 0.90196 0.0
H1529 H 0.50291 0.02722 0.86078 0.0
H1530 H 0.52645 0.01843 0.82923 0.0
H1531 H 0.56343 0.01737 0.81284 0.0
H1532 H 0.62178 0.03231 0.85382 0.0
H1533 H 0.59825 0.03907 0.88601 0.0
C1534 C 0.55356 0.03736 0.88608 0.0
C1535 C 0.53031 0.03572 0.88363 0.0
C1536 C 0.5672 0.03233 0.868 0.0
C1537 C 0.52079 0.02842 0.86308 0.0
C1538 C 0.53422 0.02353 0.84502 0.0
C1539 C 0.57101 0.022 0.82883 0.0
C1540 C 0.5943 0.02458 0.8309 0.0
C1541 C 0.55743 0.02576 0.84721 0.0
C1542 C 0.60388 0.03025 0.8518 0.0
C1543 C 0.59044 0.0342 0.87018 0.0
H1544 H 0.26902 0.26522 0.42704 0.0
H1545 H 0.29225 0.21327 0.38332 0.0
H1546 H 0.28824 0.18719 0.41288 0.0
H1547 H 0.27607 0.17851 0.45041 0.0
H1548 H 0.25061 0.22989 0.49326 0.0
H1549 H 0.25723 0.25669 0.4646 0.0
C1550 C 0.27306 0.24815 0.42388 0.0
C1551 C 0.28083 0.24125 0.4029 0.0
C1552 C 0.27018 0.23307 0.44075 0.0
C1553 C 0.28648 0.21918 0.39934 0.0
C1554 C 0.28402 0.20417 0.41619 0.0
C1555 C 0.27212 0.19561 0.45355 0.0
C1556 C 0.2628 0.20215 0.47394 0.0
C1557 C 0.27563 0.21086 0.43687 0.0
C1558 C 0.25769 0.22436 0.47768 0.0
C1559 C 0.26148 0.23972 0.46131 0.0
H1560 H 0.48816 0.53297 0.8733 0.0
H1561 H 0.43212 0.52819 0.91754 0.0
H1562 H 0.40675 0.53178 0.88653 0.0
H1563 H 0.40056 0.5347 0.84655 0.0
H1564 H 0.45684 0.53741 0.8024 0.0
H1565 H 0.48212 0.53654 0.83373 0.0
C1566 C 0.47041 0.53302 0.87618 0.0
C1567 C 0.46197 0.53045 0.89761 0.0
C1568 C 0.45601 0.53471 0.8583 0.0
C1569 C 0.43893 0.53008 0.9011 0.0
C1570 C 0.42447 0.53218 0.88342 0.0
C1571 C 0.41838 0.53536 0.84385 0.0
C1572 C 0.42684 0.53613 0.82222 0.0
C1573 C 0.43281 0.5343 0.86191 0.0
C1574 C 0.44993 0.53671 0.8189 0.0
C1575 C 0.4644 0.53621 0.83679 0.0
H1576 H 0.77253 0.72588 0.15589 0.0
H1577 H 0.70301 0.73744 0.15167 0.0
H1578 H 0.70019 0.71722 0.11578 0.0
H1579 H 0.71779 0.69827 0.08471 0.0
H1580 H 0.7873 0.68661 0.08819 0.0
H1581 H 0.78985 0.70503 0.12522 0.0
C1582 C 0.75677 0.7239 0.14711 0.0
C1583 C 0.73802 0.73316 0.15645 0.0
C1584 C 0.7553 0.71244 0.1263 0.0
C1585 C 0.71763 0.73023 0.14502 0.0
C1586 C 0.71603 0.71884 0.12439 0.0
C1587 C 0.73352 0.6997 0.09356 0.0
C1588 C 0.75238 0.69131 0.08365 0.0
C1589 C 0.73482 0.71019 0.11475 0.0
C1590 C 0.77255 0.69303 0.09545 0.0
C1591 C 0.77402 0.70357 0.1166 0.0
H1592 H 0.96744 0.08249 0.15142 0.0
H1593 H 0.98471 0.01448 0.14249 0.0
H1594 H 0.95952 0.00347 0.17208 0.0
H1595 H 0.9334 0.01306 0.20104 0.0
H1596 H 0.9147 0.0805 0.20974 0.0
H1597 H 0.93918 0.09167 0.17922 0.0
C1598 C 0.96551 0.06522 0.15576 0.0
C1599 C 0.9783 0.04945 0.14492 0.0
C1600 C 0.95065 0.05885 0.17265 0.0
C1601 C 0.97561 0.02714 0.15091 0.0
C1602 C 0.96102 0.02074 0.16771 0.0
C1603 C 0.93455 0.0302 0.19621 0.0
C1604 C 0.92237 0.04595 0.20772 0.0
C1605 C 0.94864 0.03647 0.17881 0.0
C1606 C 0.9239 0.06804 0.20111 0.0
C1607 C 0.93797 0.07445 0.18374 0.0
H1608 H 0.24456 0.83301 0.14955 0.0
H1609 H 0.24781 0.7692 0.11472 0.0
H1610 H 0.24279 0.78612 0.07943 0.0
H1611 H 0.24032 0.81941 0.05836 0.0
H1612 H 0.2348 0.88313 0.09257 0.0
H1613 H 0.23762 0.86598 0.12832 0.0
C1614 C 0.24387 0.82288 0.1342 0.0
C1615 C 0.24663 0.79997 0.13458 0.0
C1616 C 0.24069 0.8327 0.11396 0.0
C1617 C 0.24559 0.78685 0.11472 0.0
C1618 C 0.24284 0.79653 0.09458 0.0
C1619 C 0.23951 0.82947 0.07368 0.0
C1620 C 0.23764 0.85246 0.07298 0.0
C1621 C 0.2408 0.81947 0.09398 0.0
C1622 C 0.23624 0.86535 0.09283 0.0
C1623 C 0.23797 0.85558 0.1132 0.0
H1624 H 0.03093 0.45564 0.15355 0.0
H1625 H 0.978 0.4913 0.18273 0.0
H1626 H 0.00075 0.50118 0.21557 0.0
H1627 H 0.03634 0.50173 0.2349 0.0
H1628 H 0.08896 0.46515 0.20671 0.0
H1629 H 0.06533 0.45302 0.17473 0.0
C1630 C 0.02415 0.46517 0.16726 0.0
C1631 C 0.00287 0.47299 0.16549 0.0
C1632 C 0.03725 0.47064 0.18623 0.0
C1633 C 0.99451 0.48551 0.18339 0.0
C1634 C 0.00745 0.49107 0.20224 0.0
C1635 C 0.04259 0.49096 0.22183 0.0
C1636 C 0.06442 0.48456 0.22297 0.0
C1637 C 0.02897 0.48411 0.20362 0.0
C1638 C 0.0722 0.47032 0.20614 0.0
C1639 C 0.05874 0.46348 0.18784 0.0
H1640 H 0.3636 0.7288 0.30347 0.0
H1641 H 0.39264 0.76832 0.2517 0.0
H1642 H 0.42446 0.78046 0.27571 0.0
H1643 H 0.44402 0.77957 0.3116 0.0
H1644 H 0.4148 0.73827 0.36209 0.0
H1645 H 0.38338 0.72662 0.33802 0.0
C1646 C 0.37705 0.73972 0.29717 0.0
C1647 C 0.37577 0.74743 0.2757 0.0
C1648 C 0.39535 0.74625 0.31082 0.0
C1649 C 0.39308 0.76221 0.2682 0.0
C1650 C 0.41136 0.76905 0.28188 0.0
C1651 C 0.43081 0.76797 0.31728 0.0
C1652 C 0.43182 0.75987 0.33867 0.0
C1653 C 0.41266 0.76116 0.30326 0.0
C1654 C 0.41456 0.74478 0.34573 0.0
C1655 C 0.3965 0.73812 0.33201 0.0
H1656 H 0.96305 0.40464 0.95819 0.0
H1657 H 0.94335 0.35872 0.00835 0.0
H1658 H 0.95228 0.32737 0.98359 0.0
H1659 H 0.96531 0.31314 0.94763 0.0
H1660 H 0.98547 0.35924 0.8976 0.0
H1661 H 0.97673 0.39045 0.92243 0.0
C1662 C 0.96054 0.38774 0.96359 0.0
C1663 C 0.95242 0.38391 0.98494 0.0
C1664 C 0.96586 0.36989 0.94936 0.0
C1665 C 0.94965 0.36202 0.99197 0.0
C1666 C 0.95471 0.34413 0.97783 0.0
C1667 C 0.96786 0.33001 0.94215 0.0
C1668 C 0.97598 0.33381 0.92075 0.0
C1669 C 0.96282 0.34788 0.95649 0.0
C1670 C 0.97926 0.35581 0.91398 0.0
C1671 C 0.97421 0.37368 0.92814 0.0
H1672 H 0.62042 0.76394 0.32102 0.0
H1673 H 0.62189 0.83064 0.29806 0.0
H1674 H 0.5856 0.83534 0.31461 0.0
H1675 H 0.55306 0.82026 0.33456 0.0
H1676 H 0.55129 0.75392 0.35844 0.0
H1677 H 0.58808 0.74928 0.34257 0.0
C1678 C 0.61274 0.77947 0.31969 0.0
C1679 C 0.62379 0.79692 0.30838 0.0
C1680 C 0.59184 0.7821 0.32933 0.0
C1681 C 0.61381 0.81706 0.30692 0.0
C1682 C 0.59301 0.81972 0.31625 0.0
C1683 C 0.56071 0.80478 0.33632 0.0
C1684 C 0.54941 0.7874 0.3475 0.0
C1685 C 0.58183 0.80232 0.32735 0.0
C1686 C 0.55966 0.76754 0.34987 0.0
C1687 C 0.58066 0.76487 0.34077 0.0
H1688 H 0.03344 0.16817 0.9696 0.0
H1689 H 0.96425 0.14962 0.98296 0.0
H1690 H 0.95313 0.17666 0.95745 0.0
H1691 H 0.96287 0.20656 0.93266 0.0
H1692 H 0.03174 0.22488 0.91805 0.0
H1693 H 0.04316 0.19654 0.94237 0.0
C1694 C 0.01593 0.16981 0.96669 0.0
C1695 C -0.00027 0.15708 0.97849 0.0
C1696 C 0.00959 0.18532 0.95178 0.0
C1697 C 0.9771 0.15955 0.97456 0.0
C1698 C 0.9707 0.17491 0.95985 0.0
C1699 C 0.9804 0.20431 0.93469 0.0
C1700 C 0.99644 0.21793 0.92374 0.0
C1701 C 0.98678 0.18809 0.94864 0.0
C1702 C 0.01906 0.2146 0.92633 0.0
C1703 C 0.02559 0.19847 0.94029 0.0
H1704 H 0.39323 0.25834 0.2403 0.0
H1705 H 0.38681 0.32789 0.22964 0.0
H1706 H 0.415 0.32712 0.20095 0.0
H1707 H 0.4413 0.30678 0.17855 0.0
H1708 H 0.45031 0.23835 0.19135 0.0
H1709 H 0.42173 0.23886 0.22004 0.0
C1710 C 0.3982 0.27348 0.23204 0.0
C1711 C 0.38751 0.29305 0.23706 0.0
C1712 C 0.41499 0.27318 0.21597 0.0
C1713 C 0.39414 0.31236 0.2258 0.0
C1714 C 0.41048 0.31204 0.20949 0.0
C1715 C 0.43702 0.29199 0.18766 0.0
C1716 C 0.44773 0.27251 0.18275 0.0
C1717 C 0.42089 0.29252 0.20433 0.0
C1718 C 0.44229 0.25356 0.19488 0.0
C1719 C 0.42591 0.25382 0.21121 0.0
H1720 H 0.52983 0.39659 0.04746 0.0
H1721 H 0.46075 0.41074 0.04841 0.0
H1722 H 0.45177 0.37935 0.07147 0.0
H1723 H 0.46314 0.34721 0.09031 0.0
H1724 H 0.53228 0.33378 0.09117 0.0
H1725 H 0.54173 0.36605 0.06897 0.0
C1726 C 0.51287 0.39308 0.05299 0.0
C1727 C 0.49596 0.4059 0.04586 0.0
C1728 C 0.50783 0.37519 0.06663 0.0
C1729 C 0.47403 0.40086 0.05308 0.0
C1730 C 0.46888 0.383 0.06645 0.0
C1731 C 0.48031 0.35141 0.08575 0.0
C1732 C 0.49696 0.33805 0.09219 0.0
C1733 C 0.48559 0.36992 0.07309 0.0
C1734 C 0.51916 0.34384 0.0864 0.0
C1735 C 0.52455 0.36221 0.07364 0.0
H1736 H 0.63238 0.29754 0.20096 0.0
H1737 H 0.63358 0.22669 0.20771 0.0
H1738 H 0.59953 0.21991 0.18603 0.0
H1739 H 0.56756 0.23412 0.16845 0.0
H1740 H 0.56525 0.30486 0.16219 0.0
H1741 H 0.60152 0.31168 0.18052 0.0
C1742 C 0.62525 0.28062 0.19754 0.0
C1743 C 0.63549 0.26268 0.20605 0.0
C1744 C 0.60534 0.27683 0.18541 0.0
C1745 C 0.62625 0.24081 0.20116 0.0
C1746 C 0.60662 0.23691 0.18896 0.0
C1747 C 0.57504 0.25104 0.17096 0.0
C1748 C 0.56362 0.26899 0.16427 0.0
C1749 C 0.59575 0.2548 0.18151 0.0
C1750 C 0.57368 0.29077 0.16731 0.0
C1751 C 0.59438 0.29467 0.17782 0.0
H1752 H 0.48481 0.15537 0.0318 0.0
H1753 H 0.42457 0.18212 0.01085 0.0
H1754 H 0.43174 0.21431 0.03693 0.0
H1755 H 0.45403 0.23351 0.06724 0.0
H1756 H 0.51334 0.20543 0.0892 0.0
H1757 H 0.50772 0.17516 0.06104 0.0
C1758 C 0.4735 0.16848 0.03268 0.0
C1759 C 0.45428 0.16653 0.01945 0.0
C1760 C 0.47746 0.18656 0.048 0.0
C1761 C 0.43946 0.18334 0.02099 0.0
C1762 C 0.44354 0.20168 0.03587 0.0
C1763 C 0.46582 0.22087 0.06574 0.0
C1764 C 0.484 0.22167 0.08037 0.0
C1765 C 0.4623 0.20326 0.04974 0.0
C1766 C 0.49909 0.20511 0.07827 0.0
C1767 C 0.49594 0.1878 0.06214 0.0
H1768 H 0.31717 0.39353 0.75666 0.0
H1769 H 0.25882 0.42567 0.77802 0.0
H1770 H 0.27967 0.46195 0.77725 0.0
H1771 H 0.31463 0.48459 0.77115 0.0
H1772 H 0.37215 0.45253 0.74747 0.0
H1773 H 0.35111 0.41625 0.74774 0.0
C1774 C 0.3088 0.40842 0.76077 0.0
C1775 C 0.28643 0.40668 0.7676 0.0
C1776 C 0.32069 0.42933 0.75973 0.0
C1777 C 0.27614 0.42632 0.77324 0.0
C1778 C 0.28799 0.44716 0.77259 0.0
C1779 C 0.32252 0.46968 0.7659 0.0
C1780 C 0.34497 0.47128 0.75943 0.0
C1781 C 0.31031 0.44885 0.76601 0.0
C1782 C 0.35489 0.45181 0.75249 0.0
C1783 C 0.3429 0.43102 0.75275 0.0
H1784 H 0.30595 0.6561 0.74257 0.0
H1785 H 0.27429 0.64919 0.8061 0.0
H1786 H 0.29466 0.61682 0.81253 0.0
H1787 H 0.32121 0.59044 0.80026 0.0
H1788 H 0.35357 0.59694 0.73703 0.0
H1789 H 0.33316 0.62946 0.7303 0.0
C1790 C 0.30348 0.64739 0.75774 0.0
C1791 C 0.28871 0.65508 0.77387 0.0
C1792 C 0.31536 0.62876 0.76141 0.0
C1793 C 0.28578 0.64378 0.79356 0.0
C1794 C 0.29734 0.62521 0.79722 0.0
C1795 C 0.32385 0.59893 0.78498 0.0
C1796 C 0.33886 0.59123 0.76915 0.0
C1797 C 0.31218 0.61759 0.78129 0.0
C1798 C 0.34212 0.60254 0.7495 0.0
C1799 C 0.33043 0.62111 0.74563 0.0
H1800 H 0.8827 0.4337 0.50146 0.0
H1801 H 0.86737 0.50053 0.4889 0.0
H1802 H 0.82762 0.48925 0.49032 0.0
H1803 H 0.7974 0.46089 0.49638 0.0
H1804 H 0.8122 0.39405 0.51004 0.0
H1805 H 0.85198 0.40482 0.507 0.0
C1806 C 0.87057 0.44563 0.4988 0.0
C1807 C 0.87779 0.46786 0.49512 0.0
C1808 C 0.84773 0.43911 0.50003 0.0
C1809 C 0.86206 0.48335 0.49191 0.0
C1810 C 0.83939 0.47692 0.49272 0.0
C1811 C 0.80928 0.44862 0.49867 0.0
C1812 C 0.80181 0.42672 0.50349 0.0
C1813 C 0.83205 0.45493 0.49703 0.0
C1814 C 0.81749 0.41107 0.5064 0.0
C1815 C 0.84025 0.41719 0.50462 0.0
H1816 H 0.71914 0.89554 0.76541 0.0
H1817 H 0.74907 0.91673 0.8285 0.0
H1818 H 0.72665 0.94869 0.83103 0.0
H1819 H 0.69911 0.97086 0.81517 0.0
H1820 H 0.66827 0.94967 0.75247 0.0
H1821 H 0.69046 0.9174 0.74992 0.0
C1822 C 0.72076 0.90724 0.77963 0.0
C1823 C 0.73573 0.90386 0.79672 0.0
C1824 C 0.70767 0.9255 0.78106 0.0
C1825 C 0.73752 0.91893 0.81523 0.0
C1826 C 0.72478 0.93723 0.81665 0.0
C1827 C 0.69719 0.95918 0.80093 0.0
C1828 C 0.68215 0.96271 0.78398 0.0
C1829 C 0.70986 0.94069 0.79966 0.0
C1830 C 0.67973 0.94731 0.76575 0.0
C1831 C 0.69245 0.9289 0.76426 0.0
H1832 H 0.65601 0.53802 0.99505 0.0
H1833 H 0.61301 0.58781 0.01837 0.0
H1834 H 0.6449 0.61542 0.02271 0.0
H1835 H 0.68458 0.62555 0.01898 0.0
H1836 H 0.72793 0.57673 0.99378 0.0
H1837 H 0.69632 0.54853 0.9909 0.0
C1838 C 0.65381 0.5549 0.00125 0.0
C1839 C 0.63241 0.56102 0.00654 0.0
C1840 C 0.67217 0.57079 0.00318 0.0
C1841 C 0.62945 0.5829 0.01426 0.0
C1842 C 0.64763 0.59862 0.0167 0.0
C1843 C 0.68719 0.60873 0.01292 0.0
C1844 C 0.70858 0.60323 0.00667 0.0
C1845 C 0.669 0.59279 0.01106 0.0
C1846 C 0.7116 0.5814 -0.00136 0.0
C1847 C 0.69356 0.56526 0.99705 0.0
H1848 H 0.18218 0.62785 0.21509 0.0
H1849 H 0.22022 0.63838 0.27576 0.0
H1850 H 0.20112 0.60518 0.29021 0.0
H1851 H 0.17398 0.57279 0.28567 0.0
H1852 H 0.13345 0.56391 0.22671 0.0
H1853 H 0.15278 0.59715 0.21183 0.0
C1854 C 0.1861 0.62315 0.23161 0.0
C1855 C 0.20302 0.6355 0.24404 0.0
C1856 C 0.17455 0.60432 0.2402 0.0
C1857 C 0.20785 0.6289 0.26541 0.0
C1858 C 0.19676 0.60998 0.27385 0.0
C1859 C 0.16938 0.57817 0.26957 0.0
C1860 C 0.15249 0.56587 0.25722 0.0
C1861 C 0.18024 0.59747 0.26133 0.0
C1862 C 0.14642 0.57316 0.23654 0.0
C1863 C 0.1575 0.59211 0.228 0.0
H1864 H 0.8705 0.57256 0.06975 0.0
H1865 H 0.89671 0.56145 0.00405 0.0
H1866 H 0.87081 0.58599 0.98935 0.0
H1867 H 0.83884 0.60818 0.99462 0.0
H1868 H 0.81318 0.62042 0.06028 0.0
H1869 H 0.8412 0.59834 0.07563 0.0
C1870 C 0.8709 0.57587 0.0523 0.0
C1871 C 0.88528 0.56481 0.03798 0.0
C1872 C 0.85604 0.59016 0.04393 0.0
C1873 C 0.88543 0.56925 0.01537 0.0
C1874 C 0.87071 0.58339 0.00695 0.0
C1875 C 0.83953 0.60622 0.01232 0.0
C1876 C 0.82381 0.61567 0.02627 0.0
C1877 C 0.85559 0.5935 0.02099 0.0
C1878 C 0.82508 0.61326 0.0492 0.0
C1879 C 0.84103 0.60055 0.05796 0.0
H1880 H 0.11336 0.98929 0.03641 0.0
H1881 H 0.14954 0.03831 0.99747 0.0
H1882 H 0.17736 0.01221 0.98866 0.0
H1883 H 0.19147 0.97555 0.99183 0.0
H1884 H 0.1575 0.92774 0.0334 0.0
H1885 H 0.12902 0.95364 0.04189 0.0
C1886 C 0.12751 0.99454 0.02634 0.0
C1887 C 0.12909 0.01582 0.01749 0.0
C1888 C 0.14389 0.97968 0.02184 0.0
C1889 C 0.14745 0.02194 0.00411 0.0
C1890 C 0.16354 0.00707 -0.0008 0.0
C1891 C 0.17781 0.9708 0.00274 0.0
C1892 C 0.1764 0.94972 0.01181 0.0
C1893 C 0.16184 0.98589 0.00786 0.0
C1894 C 0.15887 0.94389 0.02621 0.0
C1895 C 0.1426 0.95866 0.03101 0.0
loop_
_geom_bond_atom_site_label_1
_geom_bond_atom_site_label_2
_geom_bond_distance
_geom_bond_site_symmetry_2
_ccdc_geom_bond_type
C0 C1 1.391 . S
C0 C4 1.391 . S
C0 H42 0.948 . S
C1 C0 1.391 . S
C1 C2 1.391 . S
C2 C1 1.391 . S
C2 H58 0.947 . S
C2 C59 1.392 . S
C3 C4 1.391 . S
C3 C7 1.397 . S
C3 C59 1.419 . S
C4 C0 1.391 . S
C4 C3 1.391 . S
C4 C5 1.399 . S
C5 C4 1.399 . S
C5 C8 1.396 . S
C5 C17 1.453 . S
C5 C18 1.684 . S
H6 C30 0.948 . S
C7 C3 1.397 . S
C7 C8 1.394 . S
C7 C26 1.723 . S
C8 C5 1.396 . S
C8 C7 1.394 . S
C8 C38 1.723 . S
H9 C32 0.947 . S
H10 C33 0.948 . S
H11 C39 0.982 . S
H12 C40 0.979 . S
H13 C40 0.980 . S
H14 C40 0.983 . S
H15 C39 0.979 . S
H16 C39 0.977 . S
C17 C5 1.453 . S
C17 H46 0.982 . S
C17 H47 0.979 . S
C17 H48 0.977 . S
C18 C5 1.684 . S
C18 H43 0.979 . S
C18 H44 0.980 . S
C18 H45 0.983 . S
C19 C20 1.391 . S
C19 C24 1.391 . S
C19 H49 0.948 . S
C20 C19 1.391 . S
C20 C21 1.391 . S
C21 C20 1.391 . S
C21 C22 1.392 . S
C21 H50 0.947 . S
C22 C21 1.392 . S
C22 C23 1.419 . S
C22 H51 0.948 . S
C23 C22 1.419 . S
C23 C24 1.391 . S
C23 C27 1.397 . S
C24 C19 1.391 . S
C24 C23 1.391 . S
C24 C25 1.399 . S
C25 C24 1.399 . S
C25 C26 1.396 . S
C25 C28 1.453 . S
C25 C29 1.684 . S
C26 C7 1.723 . S
C26 C25 1.396 . S
C26 C27 1.394 . S
C27 C23 1.397 . S
C27 C26 1.394 . S
C27 C37 1.723 . S
C28 C25 1.453 . S
C28 H52 0.982 . S
C28 H53 0.979 . S
C28 H54 0.977 . S
C29 C25 1.684 . S
C29 H55 0.979 . S
C29 H56 0.980 . S
C29 H57 0.983 . S
C30 H6 0.948 . S
C30 C31 1.391 . S
C30 C35 1.391 . S
C31 C30 1.391 . S
C31 C32 1.391 . S
C32 H9 0.947 . S
C32 C31 1.391 . S
C32 C33 1.392 . S
C33 H10 0.948 . S
C33 C32 1.392 . S
C33 C34 1.419 . S
C34 C33 1.419 . S
C34 C35 1.391 . S
C34 C38 1.397 . S
C35 C30 1.391 . S
C35 C34 1.391 . S
C35 C36 1.399 . S
C36 C35 1.399 . S
C36 C37 1.396 . S
C36 C39 1.453 . S
C36 C40 1.684 . S
C37 C27 1.723 . S
C37 C36 1.396 . S
C37 C38 1.394 . S
C38 C8 1.723 . S
C38 C34 1.397 . S
C38 C37 1.394 . S
C39 H11 0.982 . S
C39 H15 0.979 . S
C39 H16 0.977 . S
C39 C36 1.453 . S
C40 H12 0.979 . S
C40 H13 0.980 . S
C40 H14 0.983 . S
C40 C36 1.684 . S
H41 C59 0.948 . S
H42 C0 0.948 . S
H43 C18 0.979 . S
H44 C18 0.980 . S
H45 C18 0.983 . S
H46 C17 0.982 . S
H47 C17 0.979 . S
H48 C17 0.977 . S
H49 C19 0.948 . S
H50 C21 0.947 . S
H51 C22 0.948 . S
H52 C28 0.982 . S
H53 C28 0.979 . S
H54 C28 0.977 . S
H55 C29 0.979 . S
H56 C29 0.980 . S
H57 C29 0.983 . S
H58 C2 0.947 . S
C59 C2 1.392 . S
C59 C3 1.419 . S
C59 H41 0.948 . S
C60 C61 1.391 . S
C60 C64 1.391 . S
C60 H102 0.948 . S
C61 C60 1.391 . S
C61 C62 1.391 . S
C62 C61 1.391 . S
C62 H118 0.947 . S
C62 C119 1.392 . S
C63 C64 1.391 . S
C63 C67 1.397 . S
C63 C119 1.419 . S
C64 C60 1.391 . S
C64 C63 1.391 . S
C64 C65 1.399 . S
C65 C64 1.399 . S
C65 C68 1.396 . S
C65 C77 1.453 . S
C65 C78 1.684 . S
H66 C90 0.948 . S
C67 C63 1.397 . S
C67 C68 1.394 . S
C67 C86 1.723 . S
C68 C65 1.396 . S
C68 C67 1.394 . S
C68 C98 1.723 . S
H69 C92 0.947 . S
H70 C93 0.948 . S
H71 C99 0.982 . S
H72 C100 0.979 . S
H73 C100 0.980 . S
H74 C100 0.983 . S
H75 C99 0.979 . S
H76 C99 0.977 . S
C77 C65 1.453 . S
C77 H106 0.982 . S
C77 H107 0.979 . S
C77 H108 0.977 . S
C78 C65 1.684 . S
C78 H103 0.979 . S
C78 H104 0.980 . S
C78 H105 0.983 . S
C79 C80 1.391 . S
C79 C84 1.391 . S
C79 H109 0.948 . S
C80 C79 1.391 . S
C80 C81 1.391 . S
C81 C80 1.391 . S
C81 C82 1.392 . S
C81 H110 0.947 . S
C82 C81 1.392 . S
C82 C83 1.419 . S
C82 H111 0.948 . S
C83 C82 1.419 . S
C83 C84 1.391 . S
C83 C87 1.397 . S
C84 C79 1.391 . S
C84 C83 1.391 . S
C84 C85 1.399 . S
C85 C84 1.399 . S
C85 C86 1.396 . S
C85 C88 1.453 . S
C85 C89 1.684 . S
C86 C67 1.723 . S
C86 C85 1.396 . S
C86 C87 1.394 . S
C87 C83 1.397 . S
C87 C86 1.394 . S
C87 C97 1.723 . S
C88 C85 1.453 . S
C88 H112 0.982 . S
C88 H113 0.979 . S
C88 H114 0.977 . S
C89 C85 1.684 . S
C89 H115 0.979 . S
C89 H116 0.980 . S
C89 H117 0.983 . S
C90 H66 0.948 . S
C90 C91 1.391 . S
C90 C95 1.391 . S
C91 C90 1.391 . S
C91 C92 1.391 . S
C92 H69 0.947 . S
C92 C91 1.391 . S
C92 C93 1.392 . S
C93 H70 0.948 . S
C93 C92 1.392 . S
C93 C94 1.419 . S
C94 C93 1.419 . S
C94 C95 1.391 . S
C94 C98 1.397 . S
C95 C90 1.391 . S
C95 C94 1.391 . S
C95 C96 1.399 . S
C96 C95 1.399 . S
C96 C97 1.396 . S
C96 C99 1.453 . S
C96 C100 1.684 . S
C97 C87 1.723 . S
C97 C96 1.396 . S
C97 C98 1.394 . S
C98 C68 1.723 . S
C98 C94 1.397 . S
C98 C97 1.394 . S
C99 H71 0.982 . S
C99 H75 0.979 . S
C99 H76 0.977 . S
C99 C96 1.453 . S
C100 H72 0.979 . S
C100 H73 0.980 . S
C100 H74 0.983 . S
C100 C96 1.684 . S
H101 C119 0.948 . S
H102 C60 0.948 . S
H103 C78 0.979 . S
H104 C78 0.980 . S
H105 C78 0.983 . S
H106 C77 0.982 . S
H107 C77 0.979 . S
H108 C77 0.977 . S
H109 C79 0.948 . S
H110 C81 0.947 . S
H111 C82 0.948 . S
H112 C88 0.982 . S
H113 C88 0.979 . S
H114 C88 0.977 . S
H115 C89 0.979 . S
H116 C89 0.980 . S
H117 C89 0.983 . S
H118 C62 0.947 . S
C119 C62 1.392 . S
C119 C63 1.419 . S
C119 H101 0.948 . S
C120 C121 1.391 . S
C120 C124 1.391 . S
C120 H162 0.948 . S
C121 C120 1.391 . S
C121 C122 1.391 . S
C122 C121 1.391 . S
C122 H178 0.947 . S
C122 C179 1.392 . S
C123 C124 1.391 . S
C123 C127 1.397 . S
C123 C179 1.419 . S
C124 C120 1.391 . S
C124 C123 1.391 . S
C124 C125 1.399 . S
C125 C124 1.399 . S
C125 C128 1.396 . S
C125 C137 1.453 . S
C125 C138 1.684 . S
H126 C150 0.948 . S
C127 C123 1.397 . S
C127 C128 1.394 . S
C127 C146 1.723 . S
C128 C125 1.396 . S
C128 C127 1.394 . S
C128 C158 1.723 . S
H129 C152 0.947 . S
H130 C153 0.948 . S
H131 C159 0.982 . S
H132 C160 0.979 . S
H133 C160 0.980 . S
H134 C160 0.983 . S
H135 C159 0.979 . S
H136 C159 0.977 . S
C137 C125 1.453 . S
C137 H166 0.982 . S
C137 H167 0.979 . S
C137 H168 0.977 . S
C138 C125 1.684 . S
C138 H163 0.979 . S
C138 H164 0.980 . S
C138 H165 0.983 . S
C139 C140 1.391 . S
C139 C144 1.391 . S
C139 H169 0.948 . S
C140 C139 1.391 . S
C140 C141 1.391 . S
C141 C140 1.391 . S
C141 C142 1.392 . S
C141 H170 0.947 . S
C142 C141 1.392 . S
C142 C143 1.419 . S
C142 H171 0.948 . S
C143 C142 1.419 . S
C143 C144 1.391 . S
C143 C147 1.397 . S
C144 C139 1.391 . S
C144 C143 1.391 . S
C144 C145 1.399 . S
C145 C144 1.399 . S
C145 C146 1.396 . S
C145 C148 1.453 . S
C145 C149 1.684 . S
C146 C127 1.723 . S
C146 C145 1.396 . S
C146 C147 1.394 . S
C147 C143 1.397 . S
C147 C146 1.394 . S
C147 C157 1.723 . S
C148 C145 1.453 . S
C148 H172 0.982 . S
C148 H173 0.979 . S
C148 H174 0.977 . S
C149 C145 1.684 . S
C149 H175 0.979 . S
C149 H176 0.980 . S
C149 H177 0.983 . S
C150 H126 0.948 . S
C150 C151 1.391 . S
C150 C155 1.391 . S
C151 C150 1.391 . S
C151 C152 1.391 . S
C152 H129 0.947 . S
C152 C151 1.391 . S
C152 C153 1.392 . S
C153 H130 0.948 . S
C153 C152 1.392 . S
C153 C154 1.419 . S
C154 C153 1.419 . S
C154 C155 1.391 . S
C154 C158 1.397 . S
C155 C150 1.391 . S
C155 C154 1.391 . S
C155 C156 1.399 . S
C156 C155 1.399 . S
C156 C157 1.396 . S
C156 C159 1.453 . S
C156 C160 1.684 . S
C157 C147 1.723 . S
C157 C156 1.396 . S
C157 C158 1.394 . S
C158 C128 1.723 . S
C158 C154 1.397 . S
C158 C157 1.394 . S
C159 H131 0.982 . S
C159 H135 0.979 . S
C159 H136 0.977 . S
C159 C156 1.453 . S
C160 H132 0.979 . S
C160 H133 0.980 . S
C160 H134 0.983 . S
C160 C156 1.684 . S
H161 C179 0.948 . S
H162 C120 0.948 . S
H163 C138 0.979 . S
H164 C138 0.980 . S
H165 C138 0.983 . S
H166 C137 0.982 . S
H167 C137 0.979 . S
H168 C137 0.977 . S
H169 C139 0.948 . S
H170 C141 0.947 . S
H171 C142 0.948 . S
H172 C148 0.982 . S
H173 C148 0.979 . S
H174 C148 0.977 . S
H175 C149 0.979 . S
H176 C149 0.980 . S
H177 C149 0.983 . S
H178 C122 0.947 . S
C179 C122 1.392 . S
C179 C123 1.419 . S
C179 H161 0.948 . S
C180 C181 1.391 . S
C180 C184 1.391 . S
C180 H222 0.948 . S
C181 C180 1.391 . S
C181 C182 1.391 . S
C182 C181 1.391 . S
C182 H238 0.947 . S
C182 C239 1.392 . S
C183 C184 1.391 . S
C183 C187 1.397 . S
C183 C239 1.419 . S
C184 C180 1.391 . S
C184 C183 1.391 . S
C184 C185 1.399 . S
C185 C184 1.399 . S
C185 C188 1.396 . S
C185 C197 1.453 . S
C185 C198 1.684 . S
H186 C210 0.948 . S
C187 C183 1.397 . S
C187 C188 1.394 . S
C187 C206 1.723 . S
C188 C185 1.396 . S
C188 C187 1.394 . S
C188 C218 1.723 . S
H189 C212 0.947 . S
H190 C213 0.948 . S
H191 C219 0.982 . S
H192 C220 0.979 . S
H193 C220 0.980 . S
H194 C220 0.983 . S
H195 C219 0.979 . S
H196 C219 0.977 . S
C197 C185 1.453 . S
C197 H226 0.982 . S
C197 H227 0.979 . S
C197 H228 0.977 . S
C198 C185 1.684 . S
C198 H223 0.979 . S
C198 H224 0.980 . S
C198 H225 0.983 . S
C199 C200 1.391 . S
C199 C204 1.391 . S
C199 H229 0.948 . S
C200 C199 1.391 . S
C200 C201 1.391 . S
C201 C200 1.391 . S
C201 C202 1.392 . S
C201 H230 0.947 . S
C202 C201 1.392 . S
C202 C203 1.419 . S
C202 H231 0.948 . S
C203 C202 1.419 . S
C203 C204 1.391 . S
C203 C207 1.397 . S
C204 C199 1.391 . S
C204 C203 1.391 . S
C204 C205 1.399 . S
C205 C204 1.399 . S
C205 C206 1.396 . S
C205 C208 1.453 . S
C205 C209 1.684 . S
C206 C187 1.723 . S
C206 C205 1.396 . S
C206 C207 1.394 . S
C207 C203 1.397 . S
C207 C206 1.394 . S
C207 C217 1.723 . S
C208 C205 1.453 . S
C208 H232 0.982 . S
C208 H233 0.979 . S
C208 H234 0.977 . S
C209 C205 1.684 . S
C209 H235 0.979 . S
C209 H236 0.980 . S
C209 H237 0.983 . S
C210 H186 0.948 . S
C210 C211 1.391 . S
C210 C215 1.391 . S
C211 C210 1.391 . S
C211 C212 1.391 . S
C212 H189 0.947 . S
C212 C211 1.391 . S
C212 C213 1.392 . S
C213 H190 0.948 . S
C213 C212 1.392 . S
C213 C214 1.419 . S
C214 C213 1.419 . S
C214 C215 1.391 . S
C214 C218 1.397 . S
C215 C210 1.391 . S
C215 C214 1.391 . S
C215 C216 1.399 . S
C216 C215 1.399 . S
C216 C217 1.396 . S
C216 C219 1.453 . S
C216 C220 1.684 . S
C217 C207 1.723 . S
C217 C216 1.396 . S
C217 C218 1.394 . S
C218 C188 1.723 . S
C218 C214 1.397 . S
C218 C217 1.394 . S
C219 H191 0.982 . S
C219 H195 0.979 . S
C219 H196 0.977 . S
C219 C216 1.453 . S
C220 H192 0.979 . S
C220 H193 0.980 . S
C220 H194 0.983 . S
C220 C216 1.684 . S
H221 C239 0.948 . S
H222 C180 0.948 . S
H223 C198 0.979 . S
H224 C198 0.980 . S
H225 C198 0.983 . S
H226 C197 0.982 . S
H227 C197 0.979 . S
H228 C197 0.977 . S
H229 C199 0.948 . S
H230 C201 0.947 . S
H231 C202 0.948 . S
H232 C208 0.982 . S
H233 C208 0.979 . S
H234 C208 0.977 . S
H235 C209 0.979 . S
H236 C209 0.980 . S
H237 C209 0.983 . S
H238 C182 0.947 . S
C239 C182 1.392 . S
C239 C183 1.419 . S
C239 H221 0.948 . S
C240 C241 1.391 . S
C240 C244 1.391 . S
C240 H282 0.948 . S
C241 C240 1.391 . S
C241 C242 1.391 . S
C242 C241 1.391 . S
C242 H298 0.947 . S
C242 C299 1.392 . S
C243 C244 1.391 . S
C243 C247 1.397 . S
C243 C299 1.419 . S
C244 C240 1.391 . S
C244 C243 1.391 . S
C244 C245 1.399 . S
C245 C244 1.399 . S
C245 C248 1.396 . S
C245 C257 1.453 . S
C245 C258 1.684 . S
H246 C270 0.948 . S
C247 C243 1.397 . S
C247 C248 1.394 . S
C247 C266 1.723 . S
C248 C245 1.396 . S
C248 C247 1.394 . S
C248 C278 1.723 . S
H249 C272 0.947 . S
H250 C273 0.948 . S
H251 C279 0.982 . S
H252 C280 0.979 . S
H253 C280 0.980 . S
H254 C280 0.983 1_545 S
H255 C279 0.979 . S
H256 C279 0.977 . S
C257 C245 1.453 . S
C257 H286 0.982 . S
C257 H287 0.979 . S
C257 H288 0.977 . S
C258 C245 1.684 . S
C258 H283 0.979 . S
C258 H284 0.980 . S
C258 H285 0.983 . S
C259 C260 1.391 . S
C259 C264 1.391 . S
C259 H289 0.948 . S
C260 C259 1.391 . S
C260 C261 1.391 . S
C261 C260 1.391 . S
C261 C262 1.392 . S
C261 H290 0.957 . S
C262 C261 1.392 . S
C262 C263 1.419 . S
C262 H291 0.948 . S
C263 C262 1.419 . S
C263 C264 1.391 . S
C263 C267 1.397 . S
C264 C259 1.391 . S
C264 C263 1.391 . S
C264 C265 1.399 . S
C265 C264 1.399 . S
C265 C266 1.396 . S
C265 C268 1.453 . S
C265 C269 1.684 . S
C266 C247 1.723 . S
C266 C265 1.396 . S
C266 C267 1.394 . S
C267 C263 1.397 . S
C267 C266 1.394 . S
C267 C277 1.723 . S
C268 C265 1.453 . S
C268 H292 0.982 . S
C268 H293 0.979 . S
C268 H294 0.977 . S
C269 C265 1.684 . S
C269 H295 0.979 . S
C269 H296 0.980 . S
C269 H297 0.983 . S
C270 H246 0.948 . S
C270 C271 1.391 . S
C270 C275 1.391 1_545 S
C271 C270 1.391 . S
C271 C272 1.391 1_545 S
C272 H249 0.947 . S
C272 C271 1.391 1_565 S
C272 C273 1.392 . S
C273 H250 0.948 . S
C273 C272 1.392 . S
C273 C274 1.419 . S
C274 C273 1.419 . S
C274 C275 1.391 . S
C274 C278 1.397 . S
C275 C270 1.391 1_565 S
C275 C274 1.391 . S
C275 C276 1.399 . S
C276 C275 1.399 . S
C276 C277 1.396 . S
C276 C279 1.453 1_565 S
C276 C280 1.684 . S
C277 C267 1.723 . S
C277 C276 1.396 . S
C277 C278 1.394 . S
C278 C248 1.723 . S
C278 C274 1.397 . S
C278 C277 1.394 . S
C279 H251 0.982 . S
C279 H255 0.979 . S
C279 H256 0.977 . S
C279 C276 1.453 1_545 S
C280 H252 0.979 . S
C280 H253 0.980 . S
C280 H254 0.983 1_565 S
C280 C276 1.684 . S
H281 C299 0.948 . S
H282 C240 0.948 . S
H283 C258 0.979 . S
H284 C258 0.980 . S
H285 C258 0.983 . S
H286 C257 0.982 . S
H287 C257 0.979 . S
H288 C257 0.977 . S
H289 C259 0.948 . S
H290 C261 0.957 . S
H291 C262 0.948 . S
H292 C268 0.982 . S
H293 C268 0.979 . S
H294 C268 0.977 . S
H295 C269 0.979 . S
H296 C269 0.980 . S
H297 C269 0.983 . S
H298 C242 0.947 . S
C299 C242 1.392 . S
C299 C243 1.419 . S
C299 H281 0.948 . S
C300 C301 1.391 . S
C300 C304 1.391 . S
C300 H342 0.948 . S
C301 C300 1.391 . S
C301 C302 1.391 . S
C302 C301 1.391 . S
C302 H358 0.947 . S
C302 C359 1.392 . S
C303 C304 1.391 . S
C303 C307 1.397 . S
C303 C359 1.419 . S
C304 C300 1.391 . S
C304 C303 1.391 . S
C304 C305 1.399 . S
C305 C304 1.399 . S
C305 C308 1.396 . S
C305 C317 1.453 . S
C305 C318 1.684 . S
H306 C330 0.948 . S
C307 C303 1.397 . S
C307 C308 1.394 . S
C307 C326 1.723 . S
C308 C305 1.396 . S
C308 C307 1.394 . S
C308 C338 1.723 . S
H309 C332 0.947 . S
H310 C333 0.948 . S
H311 C339 0.982 . S
H312 C340 0.979 . S
H313 C340 0.980 . S
H314 C340 0.983 . S
H315 C339 0.979 . S
H316 C339 0.977 . S
C317 C305 1.453 . S
C317 H346 0.982 . S
C317 H347 0.979 . S
C317 H348 0.977 . S
C318 C305 1.684 . S
C318 H343 0.979 . S
C318 H344 0.980 . S
C318 H345 0.983 . S
C319 C320 1.391 . S
C319 C324 1.391 . S
C319 H349 0.948 . S
C320 C319 1.391 . S
C320 C321 1.391 . S
C321 C320 1.391 . S
C321 C322 1.392 . S
C321 H350 0.947 . S
C322 C321 1.392 . S
C322 C323 1.419 . S
C322 H351 0.948 . S
C323 C322 1.419 . S
C323 C324 1.391 . S
C323 C327 1.397 . S
C324 C319 1.391 . S
C324 C323 1.391 . S
C324 C325 1.399 . S
C325 C324 1.399 . S
C325 C326 1.396 . S
C325 C328 1.453 . S
C325 C329 1.684 . S
C326 C307 1.723 . S
C326 C325 1.396 . S
C326 C327 1.394 . S
C327 C323 1.397 . S
C327 C326 1.394 . S
C327 C337 1.723 . S
C328 C325 1.453 . S
C328 H352 0.982 . S
C328 H353 0.979 . S
C328 H354 0.977 . S
C329 C325 1.684 . S
C329 H355 0.979 . S
C329 H356 0.980 . S
C329 H357 0.983 . S
C330 H306 0.948 . S
C330 C331 1.391 . S
C330 C335 1.391 . S
C331 C330 1.391 . S
C331 C332 1.391 . S
C332 H309 0.947 . S
C332 C331 1.391 . S
C332 C333 1.392 . S
C333 H310 0.948 . S
C333 C332 1.392 . S
C333 C334 1.419 . S
C334 C333 1.419 . S
C334 C335 1.391 . S
C334 C338 1.397 . S
C335 C330 1.391 . S
C335 C334 1.391 . S
C335 C336 1.399 . S
C336 C335 1.399 . S
C336 C337 1.396 . S
C336 C339 1.453 . S
C336 C340 1.684 . S
C337 C327 1.723 . S
C337 C336 1.396 . S
C337 C338 1.394 . S
C338 C308 1.723 . S
C338 C334 1.397 . S
C338 C337 1.394 . S
C339 H311 0.982 . S
C339 H315 0.979 . S
C339 H316 0.977 . S
C339 C336 1.453 . S
C340 H312 0.979 . S
C340 H313 0.980 . S
C340 H314 0.983 . S
C340 C336 1.684 . S
H341 C359 0.948 . S
H342 C300 0.948 . S
H343 C318 0.979 . S
H344 C318 0.980 . S
H345 C318 0.983 . S
H346 C317 0.982 . S
H347 C317 0.979 . S
H348 C317 0.977 . S
H349 C319 0.948 . S
H350 C321 0.947 . S
H351 C322 0.948 . S
H352 C328 0.982 . S
H353 C328 0.979 . S
H354 C328 0.977 . S
H355 C329 0.979 . S
H356 C329 0.980 . S
H357 C329 0.983 . S
H358 C302 0.947 . S
C359 C302 1.392 . S
C359 C303 1.419 . S
C359 H341 0.948 . S
C360 C361 1.391 . S
C360 C364 1.391 . S
C360 H402 0.948 . S
C361 C360 1.391 . S
C361 C362 1.391 . S
C362 C361 1.391 . S
C362 H418 0.947 . S
C362 C419 1.392 . S
C363 C364 1.391 . S
C363 C367 1.397 . S
C363 C419 1.419 . S
C364 C360 1.391 . S
C364 C363 1.391 . S
C364 C365 1.399 . S
C365 C364 1.399 . S
C365 C368 1.396 . S
C365 C377 1.453 . S
C365 C378 1.684 . S
H366 C390 0.948 . S
C367 C363 1.397 . S
C367 C368 1.394 . S
C367 C386 1.723 . S
C368 C365 1.396 . S
C368 C367 1.394 . S
C368 C398 1.723 . S
H369 C392 0.947 . S
H370 C393 0.948 . S
H371 C399 0.982 . S
H372 C400 0.979 . S
H373 C400 0.980 . S
H374 C400 0.983 . S
H375 C399 0.979 . S
H376 C399 0.977 . S
C377 C365 1.453 . S
C377 H406 0.982 . S
C377 H407 0.979 . S
C377 H408 0.977 . S
C378 C365 1.684 . S
C378 H403 0.979 . S
C378 H404 0.980 . S
C378 H405 0.983 . S
C379 C380 1.391 . S
C379 C384 1.391 . S
C379 H409 0.948 . S
C380 C379 1.391 . S
C380 C381 1.391 . S
C381 C380 1.391 . S
C381 C382 1.392 . S
C381 H410 0.947 . S
C382 C381 1.392 . S
C382 C383 1.419 . S
C382 H411 0.948 . S
C383 C382 1.419 . S
C383 C384 1.391 . S
C383 C387 1.397 . S
C384 C379 1.391 . S
C384 C383 1.391 . S
C384 C385 1.399 . S
C385 C384 1.399 . S
C385 C386 1.396 . S
C385 C388 1.453 . S
C385 C389 1.684 . S
C386 C367 1.723 . S
C386 C385 1.396 . S
C386 C387 1.394 . S
C387 C383 1.397 . S
C387 C386 1.394 . S
C387 C397 1.723 . S
C388 C385 1.453 . S
C388 H412 0.982 . S
C388 H413 0.979 . S
C388 H414 0.977 . S
C389 C385 1.684 . S
C389 H415 0.979 . S
C389 H416 0.980 . S
C389 H417 0.983 . S
C390 H366 0.948 . S
C390 C391 1.391 . S
C390 C395 1.391 . S
C391 C390 1.391 . S
C391 C392 1.391 . S
C392 H369 0.947 . S
C392 C391 1.391 . S
C392 C393 1.392 . S
C393 H370 0.948 . S
C393 C392 1.392 . S
C393 C394 1.419 . S
C394 C393 1.419 . S
C394 C395 1.391 . S
C394 C398 1.397 . S
C395 C390 1.391 . S
C395 C394 1.391 . S
C395 C396 1.399 . S
C396 C395 1.399 . S
C396 C397 1.396 . S
C396 C399 1.453 . S
C396 C400 1.684 . S
C397 C387 1.723 . S
C397 C396 1.396 . S
C397 C398 1.394 . S
C398 C368 1.723 . S
C398 C394 1.397 . S
C398 C397 1.394 . S
C399 H371 0.982 . S
C399 H375 0.979 . S
C399 H376 0.977 . S
C399 C396 1.453 . S
C400 H372 0.979 . S
C400 H373 0.980 . S
C400 H374 0.983 . S
C400 C396 1.684 . S
H401 C419 0.948 . S
H402 C360 0.948 . S
H403 C378 0.979 . S
H404 C378 0.980 . S
H405 C378 0.983 . S
H406 C377 0.982 . S
H407 C377 0.979 . S
H408 C377 0.977 . S
H409 C379 0.948 . S
H410 C381 0.947 . S
H411 C382 0.948 . S
H412 C388 0.982 . S
H413 C388 0.979 . S
H414 C388 0.977 . S
H415 C389 0.979 . S
H416 C389 0.980 . S
H417 C389 0.983 . S
H418 C362 0.947 . S
C419 C362 1.392 . S
C419 C363 1.419 . S
C419 H401 0.948 . S
C420 C421 1.391 . S
C420 C424 1.391 . S
C420 H462 0.948 . S
C421 C420 1.391 . S
C421 C422 1.391 . S
C422 C421 1.391 . S
C422 H478 0.947 . S
C422 C479 1.392 . S
C423 C424 1.391 . S
C423 C427 1.397 . S
C423 C479 1.419 . S
C424 C420 1.391 . S
C424 C423 1.391 . S
C424 C425 1.399 . S
C425 C424 1.399 . S
C425 C428 1.396 . S
C425 C437 1.453 . S
C425 C438 1.684 . S
H426 C450 0.948 . S
C427 C423 1.397 . S
C427 C428 1.394 . S
C427 C446 1.723 . S
C428 C425 1.396 . S
C428 C427 1.394 . S
C428 C458 1.723 . S
H429 C452 0.947 . S
H430 C453 0.948 . S
H431 C459 0.982 . S
H432 C460 0.979 . S
H433 C460 0.980 . S
H434 C460 0.983 . S
H435 C459 0.979 . S
H436 C459 0.977 . S
C437 C425 1.453 . S
C437 H466 0.982 . S
C437 H467 0.979 . S
C437 H468 0.977 . S
C438 C425 1.684 . S
C438 H463 0.979 . S
C438 H464 0.980 . S
C438 H465 0.983 . S
C439 C440 1.391 . S
C439 C444 1.391 . S
C439 H469 0.948 . S
C440 C439 1.391 . S
C440 C441 1.391 . S
C441 C440 1.391 . S
C441 C442 1.392 . S
C441 H470 0.947 . S
C442 C441 1.392 . S
C442 C443 1.419 . S
C442 H471 0.948 . S
C443 C442 1.419 . S
C443 C444 1.391 . S
C443 C447 1.397 . S
C444 C439 1.391 . S
C444 C443 1.391 . S
C444 C445 1.399 . S
C445 C444 1.399 . S
C445 C446 1.396 . S
C445 C448 1.453 . S
C445 C449 1.684 . S
C446 C427 1.723 . S
C446 C445 1.396 . S
C446 C447 1.394 . S
C447 C443 1.397 . S
C447 C446 1.394 . S
C447 C457 1.723 . S
C448 C445 1.453 . S
C448 H472 0.982 . S
C448 H473 0.979 . S
C448 H474 0.977 . S
C449 C445 1.684 . S
C449 H475 0.979 . S
C449 H476 0.980 . S
C449 H477 0.983 . S
C450 H426 0.948 . S
C450 C451 1.391 . S
C450 C455 1.391 . S
C451 C450 1.391 . S
C451 C452 1.391 . S
C452 H429 0.947 . S
C452 C451 1.391 . S
C452 C453 1.392 . S
C453 H430 0.948 . S
C453 C452 1.392 . S
C453 C454 1.419 . S
C454 C453 1.419 . S
C454 C455 1.391 . S
C454 C458 1.397 . S
C455 C450 1.391 . S
C455 C454 1.391 . S
C455 C456 1.399 . S
C456 C455 1.399 . S
C456 C457 1.396 . S
C456 C459 1.453 . S
C456 C460 1.684 . S
C457 C447 1.723 . S
C457 C456 1.396 . S
C457 C458 1.394 . S
C458 C428 1.723 . S
C458 C454 1.397 . S
C458 C457 1.394 . S
C459 H431 0.982 . S
C459 H435 0.979 . S
C459 H436 0.977 . S
C459 C456 1.453 . S
C460 H432 0.979 . S
C460 H433 0.980 . S
C460 H434 0.983 . S
C460 C456 1.684 . S
H461 C479 0.948 . S
H462 C420 0.948 . S
H463 C438 0.979 . S
H464 C438 0.980 . S
H465 C438 0.983 . S
H466 C437 0.982 . S
H467 C437 0.979 . S
H468 C437 0.977 . S
H469 C439 0.948 . S
H470 C441 0.947 . S
H471 C442 0.948 . S
H472 C448 0.982 . S
H473 C448 0.979 . S
H474 C448 0.977 . S
H475 C449 0.979 . S
H476 C449 0.980 . S
H477 C449 0.983 . S
H478 C422 0.947 . S
C479 C422 1.392 . S
C479 C423 1.419 . S
C479 H461 0.948 . S
C480 C481 1.391 . S
C480 C484 1.391 . S
C480 H522 0.948 . S
C481 C480 1.391 . S
C481 C482 1.391 . S
C482 C481 1.391 . S
C482 H538 0.947 . S
C482 C539 1.392 . S
C483 C484 1.391 . S
C483 C487 1.397 . S
C483 C539 1.419 . S
C484 C480 1.391 . S
C484 C483 1.391 . S
C484 C485 1.399 . S
C485 C484 1.399 . S
C485 C488 1.396 . S
C485 C497 1.453 . S
C485 C498 1.684 . S
H486 C510 0.948 . S
C487 C483 1.397 . S
C487 C488 1.394 . S
C487 C506 1.723 . S
C488 C485 1.396 . S
C488 C487 1.394 . S
C488 C518 1.723 . S
H489 C512 0.947 . S
H490 C513 0.948 . S
H491 C519 0.982 . S
H492 C520 0.979 . S
H493 C520 0.980 . S
H494 C520 0.983 . S
H495 C519 0.979 . S
H496 C519 0.977 . S
C497 C485 1.453 . S
C497 H526 0.982 . S
C497 H527 0.979 . S
C497 H528 0.977 . S
C498 C485 1.684 . S
C498 H523 0.979 . S
C498 H524 0.980 . S
C498 H525 0.983 . S
C499 C500 1.391 . S
C499 C504 1.391 . S
C499 H529 0.948 . S
C500 C499 1.391 . S
C500 C501 1.391 . S
C501 C500 1.391 . S
C501 C502 1.392 . S
C501 H530 0.947 . S
C502 C501 1.392 . S
C502 C503 1.419 . S
C502 H531 0.948 . S
C503 C502 1.419 . S
C503 C504 1.391 . S
C503 C507 1.397 . S
C504 C499 1.391 . S
C504 C503 1.391 . S
C504 C505 1.399 . S
C505 C504 1.399 . S
C505 C506 1.396 . S
C505 C508 1.453 . S
C505 C509 1.684 . S
C506 C487 1.723 . S
C506 C505 1.396 . S
C506 C507 1.394 . S
C507 C503 1.397 . S
C507 C506 1.394 . S
C507 C517 1.723 . S
C508 C505 1.453 . S
C508 H532 0.982 . S
C508 H533 0.979 . S
C508 H534 0.977 . S
C509 C505 1.684 . S
C509 H535 0.979 . S
C509 H536 0.980 . S
C509 H537 0.983 . S
C510 H486 0.948 . S
C510 C511 1.391 . S
C510 C515 1.391 . S
C511 C510 1.391 . S
C511 C512 1.391 . S
C512 H489 0.947 . S
C512 C511 1.391 . S
C512 C513 1.392 . S
C513 H490 0.948 . S
C513 C512 1.392 . S
C513 C514 1.419 . S
C514 C513 1.419 . S
C514 C515 1.391 . S
C514 C518 1.397 . S
C515 C510 1.391 . S
C515 C514 1.391 . S
C515 C516 1.399 . S
C516 C515 1.399 . S
C516 C517 1.396 . S
C516 C519 1.453 . S
C516 C520 1.684 . S
C517 C507 1.723 . S
C517 C516 1.396 . S
C517 C518 1.394 . S
C518 C488 1.723 . S
C518 C514 1.397 . S
C518 C517 1.394 . S
C519 H491 0.982 . S
C519 H495 0.979 . S
C519 H496 0.977 . S
C519 C516 1.453 . S
C520 H492 0.979 . S
C520 H493 0.980 . S
C520 H494 0.983 . S
C520 C516 1.684 . S
H521 C539 0.948 . S
H522 C480 0.948 . S
H523 C498 0.979 . S
H524 C498 0.980 . S
H525 C498 0.983 . S
H526 C497 0.982 . S
H527 C497 0.979 . S
H528 C497 0.977 . S
H529 C499 0.948 . S
H530 C501 0.947 . S
H531 C502 0.948 . S
H532 C508 0.982 . S
H533 C508 0.979 . S
H534 C508 0.977 . S
H535 C509 0.979 . S
H536 C509 0.980 . S
H537 C509 0.983 . S
H538 C482 0.947 . S
C539 C482 1.392 . S
C539 C483 1.419 . S
C539 H521 0.948 . S
C540 C541 1.391 . S
C540 C544 1.391 . S
C540 H582 0.948 . S
C541 C540 1.391 . S
C541 C542 1.391 . S
C542 C541 1.391 . S
C542 H598 0.947 . S
C542 C599 1.392 . S
C543 C544 1.391 . S
C543 C547 1.397 . S
C543 C599 1.419 . S
C544 C540 1.391 . S
C544 C543 1.391 . S
C544 C545 1.399 . S
C545 C544 1.399 . S
C545 C548 1.396 . S
C545 C557 1.453 . S
C545 C558 1.684 . S
H546 C570 0.948 . S
C547 C543 1.397 . S
C547 C548 1.394 . S
C547 C566 1.723 . S
C548 C545 1.396 . S
C548 C547 1.394 . S
C548 C578 1.723 . S
H549 C572 0.947 . S
H550 C573 0.948 . S
H551 C579 0.982 . S
H552 C580 0.979 . S
H553 C580 0.980 . S
H554 C580 0.983 . S
H555 C579 0.979 . S
H556 C579 0.977 . S
C557 C545 1.453 . S
C557 H586 0.982 . S
C557 H587 0.979 . S
C557 H588 0.977 . S
C558 C545 1.684 . S
C558 H583 0.979 . S
C558 H584 0.980 . S
C558 H585 0.983 . S
C559 C560 1.391 . S
C559 C564 1.391 . S
C559 H589 0.948 . S
C560 C559 1.391 . S
C560 C561 1.391 . S
C561 C560 1.391 . S
C561 C562 1.392 . S
C561 H590 0.947 1_565 S
C562 C561 1.392 . S
C562 C563 1.419 . S
C562 H591 0.948 . S
C563 C562 1.419 . S
C563 C564 1.391 . S
C563 C567 1.397 . S
C564 C559 1.391 . S
C564 C563 1.391 . S
C564 C565 1.399 . S
C565 C564 1.399 . S
C565 C566 1.396 . S
C565 C568 1.453 . S
C565 C569 1.684 . S
C566 C547 1.723 . S
C566 C565 1.396 . S
C566 C567 1.394 . S
C567 C563 1.397 . S
C567 C566 1.394 . S
C567 C577 1.723 . S
C568 C565 1.453 . S
C568 H592 0.982 . S
C568 H593 0.979 . S
C568 H594 0.977 . S
C569 C565 1.684 . S
C569 H595 0.979 . S
C569 H596 0.980 . S
C569 H597 0.983 . S
C570 H546 0.948 . S
C570 C571 1.391 . S
C570 C575 1.391 . S
C571 C570 1.391 . S
C571 C572 1.391 . S
C572 H549 0.947 . S
C572 C571 1.391 . S
C572 C573 1.392 . S
C573 H550 0.948 . S
C573 C572 1.392 . S
C573 C574 1.419 . S
C574 C573 1.419 . S
C574 C575 1.391 . S
C574 C578 1.397 . S
C575 C570 1.391 . S
C575 C574 1.391 . S
C575 C576 1.399 . S
C576 C575 1.399 . S
C576 C577 1.396 . S
C576 C579 1.453 . S
C576 C580 1.684 . S
C577 C567 1.723 . S
C577 C576 1.396 . S
C577 C578 1.394 . S
C578 C548 1.723 . S
C578 C574 1.397 . S
C578 C577 1.394 . S
C579 H551 0.982 . S
C579 H555 0.979 . S
C579 H556 0.977 . S
C579 C576 1.453 . S
C580 H552 0.979 . S
C580 H553 0.980 . S
C580 H554 0.983 . S
C580 C576 1.684 . S
H581 C599 0.948 . S
H582 C540 0.948 . S
H583 C558 0.979 . S
H584 C558 0.980 . S
H585 C558 0.983 . S
H586 C557 0.982 . S
H587 C557 0.979 . S
H588 C557 0.977 . S
H589 C559 0.948 . S
H590 C561 0.947 1_545 S
H591 C562 0.948 . S
H592 C568 0.982 . S
H593 C568 0.979 . S
H594 C568 0.977 . S
H595 C569 0.979 . S
H596 C569 0.980 . S
H597 C569 0.983 . S
H598 C542 0.947 . S
C599 C542 1.392 . S
C599 C543 1.419 . S
C599 H581 0.948 . S
C600 C601 1.391 . S
C600 C604 1.391 . S
C600 H642 0.948 . S
C601 C600 1.391 . S
C601 C602 1.391 . S
C602 C601 1.391 . S
C602 H658 0.947 . S
C602 C659 1.392 . S
C603 C604 1.391 . S
C603 C607 1.397 . S
C603 C659 1.419 . S
C604 C600 1.391 . S
C604 C603 1.391 . S
C604 C605 1.399 . S
C605 C604 1.399 . S
C605 C608 1.396 . S
C605 C617 1.453 . S
C605 C618 1.684 . S
H606 C630 0.948 . S
C607 C603 1.397 . S
C607 C608 1.394 . S
C607 C626 1.723 . S
C608 C605 1.396 . S
C608 C607 1.394 . S
C608 C638 1.723 . S
H609 C632 0.947 . S
H610 C633 0.948 . S
H611 C639 0.982 . S
H612 C640 0.979 . S
H613 C640 0.980 . S
H614 C640 0.983 . S
H615 C639 0.979 . S
H616 C639 0.977 . S
C617 C605 1.453 . S
C617 H646 0.982 . S
C617 H647 0.979 . S
C617 H648 0.977 . S
C618 C605 1.684 . S
C618 H643 0.979 . S
C618 H644 0.980 . S
C618 H645 0.983 . S
C619 C620 1.391 . S
C619 C624 1.391 . S
C619 H649 0.948 . S
C620 C619 1.391 . S
C620 C621 1.391 . S
C621 C620 1.391 . S
C621 C622 1.392 . S
C621 H650 0.947 . S
C622 C621 1.392 . S
C622 C623 1.419 . S
C622 H651 0.948 . S
C623 C622 1.419 . S
C623 C624 1.391 . S
C623 C627 1.397 . S
C624 C619 1.391 . S
C624 C623 1.391 . S
C624 C625 1.399 . S
C625 C624 1.399 . S
C625 C626 1.396 . S
C625 C628 1.453 . S
C625 C629 1.684 . S
C626 C607 1.723 . S
C626 C625 1.396 . S
C626 C627 1.394 . S
C627 C623 1.397 . S
C627 C626 1.394 . S
C627 C637 1.723 . S
C628 C625 1.453 . S
C628 H652 0.982 . S
C628 H653 0.979 . S
C628 H654 0.977 . S
C629 C625 1.684 . S
C629 H655 0.979 . S
C629 H656 0.980 . S
C629 H657 0.983 . S
C630 H606 0.948 . S
C630 C631 1.391 . S
C630 C635 1.391 . S
C631 C630 1.391 . S
C631 C632 1.391 . S
C632 H609 0.947 . S
C632 C631 1.391 . S
C632 C633 1.392 . S
C633 H610 0.948 . S
C633 C632 1.392 . S
C633 C634 1.419 . S
C634 C633 1.419 . S
C634 C635 1.391 . S
C634 C638 1.397 . S
C635 C630 1.391 . S
C635 C634 1.391 . S
C635 C636 1.399 . S
C636 C635 1.399 . S
C636 C637 1.396 . S
C636 C639 1.453 . S
C636 C640 1.684 . S
C637 C627 1.723 . S
C637 C636 1.396 . S
C637 C638 1.394 . S
C638 C608 1.723 . S
C638 C634 1.397 . S
C638 C637 1.394 . S
C639 H611 0.982 . S
C639 H615 0.979 . S
C639 H616 0.977 . S
C639 C636 1.453 . S
C640 H612 0.979 . S
C640 H613 0.980 . S
C640 H614 0.983 . S
C640 C636 1.684 . S
H641 C659 0.948 . S
H642 C600 0.948 . S
H643 C618 0.979 . S
H644 C618 0.980 . S
H645 C618 0.983 . S
H646 C617 0.982 . S
H647 C617 0.979 . S
H648 C617 0.977 . S
H649 C619 0.948 . S
H650 C621 0.947 . S
H651 C622 0.948 . S
H652 C628 0.982 . S
H653 C628 0.979 . S
H654 C628 0.977 . S
H655 C629 0.979 . S
H656 C629 0.980 . S
H657 C629 0.983 . S
H658 C602 0.947 . S
C659 C602 1.392 . S
C659 C603 1.419 . S
C659 H641 0.948 . S
C660 C661 1.391 . S
C660 C664 1.391 . S
C660 H702 0.948 . S
C661 C660 1.391 . S
C661 C662 1.391 . S
C662 C661 1.391 . S
C662 H718 0.947 . S
C662 C719 1.392 . S
C663 C664 1.391 . S
C663 C667 1.397 . S
C663 C719 1.419 . S
C664 C660 1.391 . S
C664 C663 1.391 . S
C664 C665 1.399 . S
C665 C664 1.399 . S
C665 C668 1.396 . S
C665 C677 1.453 . S
C665 C678 1.684 . S
H666 C690 0.948 . S
C667 C663 1.397 . S
C667 C668 1.394 . S
C667 C686 1.723 . S
C668 C665 1.396 . S
C668 C667 1.394 . S
C668 C698 1.723 . S
H669 C692 0.947 . S
H670 C693 0.948 . S
H671 C699 0.982 . S
H672 C700 0.979 . S
H673 C700 0.980 . S
H674 C700 0.983 . S
H675 C699 0.979 . S
H676 C699 0.977 . S
C677 C665 1.453 . S
C677 H706 0.982 . S
C677 H707 0.979 . S
C677 H708 0.977 . S
C678 C665 1.684 . S
C678 H703 0.979 . S
C678 H704 0.980 . S
C678 H705 0.983 . S
C679 C680 1.391 . S
C679 C684 1.391 . S
C679 H709 0.948 . S
C680 C679 1.391 . S
C680 C681 1.391 . S
C681 C680 1.391 . S
C681 C682 1.392 . S
C681 H710 0.947 . S
C682 C681 1.392 . S
C682 C683 1.419 . S
C682 H711 0.948 . S
C683 C682 1.419 . S
C683 C684 1.391 . S
C683 C687 1.397 . S
C684 C679 1.391 . S
C684 C683 1.391 . S
C684 C685 1.399 . S
C685 C684 1.399 . S
C685 C686 1.396 . S
C685 C688 1.453 . S
C685 C689 1.684 . S
C686 C667 1.723 . S
C686 C685 1.396 . S
C686 C687 1.394 . S
C687 C683 1.397 . S
C687 C686 1.394 . S
C687 C697 1.723 . S
C688 C685 1.453 . S
C688 H712 0.982 . S
C688 H713 0.979 . S
C688 H714 0.977 . S
C689 C685 1.684 . S
C689 H715 0.979 . S
C689 H716 0.980 . S
C689 H717 0.983 . S
C690 H666 0.948 . S
C690 C691 1.391 . S
C690 C695 1.391 . S
C691 C690 1.391 . S
C691 C692 1.391 . S
C692 H669 0.947 . S
C692 C691 1.391 . S
C692 C693 1.392 . S
C693 H670 0.948 . S
C693 C692 1.392 . S
C693 C694 1.419 . S
C694 C693 1.419 . S
C694 C695 1.391 . S
C694 C698 1.397 . S
C695 C690 1.391 . S
C695 C694 1.391 . S
C695 C696 1.399 . S
C696 C695 1.399 . S
C696 C697 1.396 . S
C696 C699 1.453 . S
C696 C700 1.684 . S
C697 C687 1.723 . S
C697 C696 1.396 . S
C697 C698 1.394 . S
C698 C668 1.723 . S
C698 C694 1.397 . S
C698 C697 1.394 . S
C699 H671 0.982 . S
C699 H675 0.979 . S
C699 H676 0.977 . S
C699 C696 1.453 . S
C700 H672 0.979 . S
C700 H673 0.980 . S
C700 H674 0.983 . S
C700 C696 1.684 . S
H701 C719 0.948 . S
H702 C660 0.948 . S
H703 C678 0.979 . S
H704 C678 0.980 . S
H705 C678 0.983 . S
H706 C677 0.982 . S
H707 C677 0.979 . S
H708 C677 0.977 . S
H709 C679 0.948 . S
H710 C681 0.947 . S
H711 C682 0.948 . S
H712 C688 0.982 . S
H713 C688 0.979 . S
H714 C688 0.977 . S
H715 C689 0.979 . S
H716 C689 0.980 . S
H717 C689 0.983 . S
H718 C662 0.947 . S
C719 C662 1.392 . S
C719 C663 1.419 . S
C719 H701 0.948 . S
C720 C721 1.391 . S
C720 C724 1.391 . S
C720 H762 0.948 . S
C721 C720 1.391 . S
C721 C722 1.391 . S
C722 C721 1.391 . S
C722 H778 0.947 . S
C722 C779 1.392 . S
C723 C724 1.391 . S
C723 C727 1.397 . S
C723 C779 1.419 . S
C724 C720 1.391 . S
C724 C723 1.391 . S
C724 C725 1.399 . S
C725 C724 1.399 . S
C725 C728 1.396 . S
C725 C737 1.453 . S
C725 C738 1.684 . S
H726 C750 0.948 . S
C727 C723 1.397 . S
C727 C728 1.394 . S
C727 C746 1.723 . S
C728 C725 1.396 . S
C728 C727 1.394 . S
C728 C758 1.723 . S
H729 C752 0.947 . S
H730 C753 0.948 . S
H731 C759 0.982 . S
H732 C760 0.979 . S
H733 C760 0.980 . S
H734 C760 0.983 . S
H735 C759 0.979 . S
H736 C759 0.977 . S
C737 C725 1.453 . S
C737 H766 0.982 . S
C737 H767 0.979 . S
C737 H768 0.977 . S
C738 C725 1.684 . S
C738 H763 0.979 . S
C738 H764 0.980 . S
C738 H765 0.983 . S
C739 C740 1.391 . S
C739 C744 1.391 . S
C739 H769 0.948 . S
C740 C739 1.391 . S
C740 C741 1.391 . S
C741 C740 1.391 . S
C741 C742 1.392 . S
C741 H770 0.947 . S
C742 C741 1.392 . S
C742 C743 1.419 . S
C742 H771 0.948 . S
C743 C742 1.419 . S
C743 C744 1.391 . S
C743 C747 1.397 . S
C744 C739 1.391 . S
C744 C743 1.391 . S
C744 C745 1.399 . S
C745 C744 1.399 . S
C745 C746 1.396 . S
C745 C748 1.453 . S
C745 C749 1.684 . S
C746 C727 1.723 . S
C746 C745 1.396 . S
C746 C747 1.394 . S
C747 C743 1.397 . S
C747 C746 1.394 . S
C747 C757 1.723 . S
C748 C745 1.453 . S
C748 H772 0.982 . S
C748 H773 0.979 . S
C748 H774 0.977 . S
C749 C745 1.684 . S
C749 H775 0.979 . S
C749 H776 0.980 . S
C749 H777 0.983 . S
C750 H726 0.948 . S
C750 C751 1.391 . S
C750 C755 1.391 . S
C751 C750 1.391 . S
C751 C752 1.391 . S
C752 H729 0.947 . S
C752 C751 1.391 . S
C752 C753 1.392 . S
C753 H730 0.948 . S
C753 C752 1.392 . S
C753 C754 1.419 . S
C754 C753 1.419 . S
C754 C755 1.391 . S
C754 C758 1.397 . S
C755 C750 1.391 . S
C755 C754 1.391 . S
C755 C756 1.399 . S
C756 C755 1.399 . S
C756 C757 1.396 . S
C756 C759 1.453 . S
C756 C760 1.684 . S
C757 C747 1.723 . S
C757 C756 1.396 . S
C757 C758 1.394 . S
C758 C728 1.723 . S
C758 C754 1.397 . S
C758 C757 1.394 . S
C759 H731 0.982 . S
C759 H735 0.979 . S
C759 H736 0.977 . S
C759 C756 1.453 . S
C760 H732 0.979 . S
C760 H733 0.980 . S
C760 H734 0.983 . S
C760 C756 1.684 . S
H761 C779 0.948 . S
H762 C720 0.948 . S
H763 C738 0.979 . S
H764 C738 0.980 . S
H765 C738 0.983 . S
H766 C737 0.982 . S
H767 C737 0.979 . S
H768 C737 0.977 . S
H769 C739 0.948 . S
H770 C741 0.947 . S
H771 C742 0.948 . S
H772 C748 0.982 . S
H773 C748 0.979 . S
H774 C748 0.977 . S
H775 C749 0.979 . S
H776 C749 0.980 . S
H777 C749 0.983 . S
H778 C722 0.947 . S
C779 C722 1.392 . S
C779 C723 1.419 . S
C779 H761 0.948 . S
C780 C781 1.391 . S
C780 C784 1.391 . S
C780 H822 0.948 . S
C781 C780 1.391 . S
C781 C782 1.391 . S
C782 C781 1.391 . S
C782 H838 0.947 . S
C782 C839 1.392 . S
C783 C784 1.391 . S
C783 C787 1.397 . S
C783 C839 1.419 . S
C784 C780 1.391 . S
C784 C783 1.391 . S
C784 C785 1.399 . S
C785 C784 1.399 . S
C785 C788 1.396 . S
C785 C797 1.453 . S
C785 C798 1.684 . S
H786 C810 0.948 . S
C787 C783 1.397 . S
C787 C788 1.394 . S
C787 C806 1.723 . S
C788 C785 1.396 . S
C788 C787 1.394 . S
C788 C818 1.723 . S
H789 C812 0.947 . S
H790 C813 0.948 . S
H791 C819 0.982 . S
H792 C820 0.979 . S
H793 C820 0.980 . S
H794 C820 0.983 . S
H795 C819 0.979 . S
H796 C819 0.977 . S
C797 C785 1.453 . S
C797 H826 0.982 . S
C797 H827 0.979 . S
C797 H828 0.977 . S
C798 C785 1.684 . S
C798 H823 0.979 . S
C798 H824 0.980 . S
C798 H825 0.983 . S
C799 C800 1.391 . S
C799 C804 1.391 . S
C799 H829 0.948 . S
C800 C799 1.391 . S
C800 C801 1.391 . S
C801 C800 1.391 . S
C801 C802 1.392 . S
C801 H830 0.947 . S
C802 C801 1.392 . S
C802 C803 1.419 . S
C802 H831 0.948 . S
C803 C802 1.419 . S
C803 C804 1.391 . S
C803 C807 1.397 . S
C804 C799 1.391 . S
C804 C803 1.391 . S
C804 C805 1.399 . S
C805 C804 1.399 . S
C805 C806 1.396 . S
C805 C808 1.453 . S
C805 C809 1.684 . S
C806 C787 1.723 . S
C806 C805 1.396 . S
C806 C807 1.394 . S
C807 C803 1.397 . S
C807 C806 1.394 . S
C807 C817 1.723 . S
C808 C805 1.453 . S
C808 H832 0.982 . S
C808 H833 0.979 . S
C808 H834 0.977 . S
C809 C805 1.684 . S
C809 H835 0.979 . S
C809 H836 0.980 . S
C809 H837 0.983 . S
C810 H786 0.948 . S
C810 C811 1.391 . S
C810 C815 1.391 . S
C811 C810 1.391 . S
C811 C812 1.391 . S
C812 H789 0.947 . S
C812 C811 1.391 . S
C812 C813 1.392 . S
C813 H790 0.948 . S
C813 C812 1.392 . S
C813 C814 1.419 . S
C814 C813 1.419 . S
C814 C815 1.391 . S
C814 C818 1.397 . S
C815 C810 1.391 . S
C815 C814 1.391 . S
C815 C816 1.399 . S
C816 C815 1.399 . S
C816 C817 1.396 . S
C816 C819 1.453 . S
C816 C820 1.684 . S
C817 C807 1.723 . S
C817 C816 1.396 . S
C817 C818 1.394 . S
C818 C788 1.723 . S
C818 C814 1.397 . S
C818 C817 1.394 . S
C819 H791 0.982 . S
C819 H795 0.979 . S
C819 H796 0.977 . S
C819 C816 1.453 . S
C820 H792 0.979 . S
C820 H793 0.980 . S
C820 H794 0.983 . S
C820 C816 1.684 . S
H821 C839 0.948 . S
H822 C780 0.948 . S
H823 C798 0.979 . S
H824 C798 0.980 . S
H825 C798 0.983 . S
H826 C797 0.982 . S
H827 C797 0.979 . S
H828 C797 0.977 . S
H829 C799 0.948 . S
H830 C801 0.947 . S
H831 C802 0.948 . S
H832 C808 0.982 . S
H833 C808 0.979 . S
H834 C808 0.977 . S
H835 C809 0.979 . S
H836 C809 0.980 . S
H837 C809 0.983 . S
H838 C782 0.947 . S
C839 C782 1.392 . S
C839 C783 1.419 . S
C839 H821 0.948 . S
C840 C841 1.391 . S
C840 C844 1.391 . S
C840 H882 0.948 . S
C841 C840 1.391 . S
C841 C842 1.391 . S
C842 C841 1.391 . S
C842 H898 0.947 . S
C842 C899 1.392 . S
C843 C844 1.391 . S
C843 C847 1.397 . S
C843 C899 1.419 . S
C844 C840 1.391 . S
C844 C843 1.391 . S
C844 C845 1.399 . S
C845 C844 1.399 . S
C845 C848 1.396 . S
C845 C857 1.453 . S
C845 C858 1.684 . S
H846 C870 0.948 . S
C847 C843 1.397 . S
C847 C848 1.394 . S
C847 C866 1.723 . S
C848 C845 1.396 . S
C848 C847 1.394 . S
C848 C878 1.723 . S
H849 C872 0.947 . S
H850 C873 0.948 . S
H851 C879 0.982 . S
H852 C880 0.979 . S
H853 C880 0.980 . S
H854 C880 0.983 . S
H855 C879 0.979 . S
H856 C879 0.977 . S
C857 C845 1.453 . S
C857 H886 0.982 . S
C857 H887 0.979 . S
C857 H888 0.977 . S
C858 C845 1.684 . S
C858 H883 0.979 . S
C858 H884 0.980 . S
C858 H885 0.983 . S
C859 C860 1.391 . S
C859 C864 1.391 . S
C859 H889 0.948 . S
C860 C859 1.391 . S
C860 C861 1.391 . S
C861 C860 1.391 . S
C861 C862 1.392 . S
C861 H890 0.947 . S
C862 C861 1.392 . S
C862 C863 1.419 . S
C862 H891 0.948 . S
C863 C862 1.419 . S
C863 C864 1.391 . S
C863 C867 1.397 . S
C864 C859 1.391 . S
C864 C863 1.391 . S
C864 C865 1.399 . S
C865 C864 1.399 . S
C865 C866 1.396 . S
C865 C868 1.453 . S
C865 C869 1.684 . S
C866 C847 1.723 . S
C866 C865 1.396 . S
C866 C867 1.394 . S
C867 C863 1.397 . S
C867 C866 1.394 . S
C867 C877 1.723 . S
C868 C865 1.453 . S
C868 H892 0.982 . S
C868 H893 0.979 . S
C868 H894 0.977 . S
C869 C865 1.684 . S
C869 H895 0.979 . S
C869 H896 0.980 . S
C869 H897 0.983 . S
C870 H846 0.948 . S
C870 C871 1.391 . S
C870 C875 1.391 . S
C871 C870 1.391 . S
C871 C872 1.391 . S
C872 H849 0.947 . S
C872 C871 1.391 . S
C872 C873 1.392 . S
C873 H850 0.948 . S
C873 C872 1.392 . S
C873 C874 1.419 . S
C874 C873 1.419 . S
C874 C875 1.391 . S
C874 C878 1.397 . S
C875 C870 1.391 . S
C875 C874 1.391 . S
C875 C876 1.399 . S
C876 C875 1.399 . S
C876 C877 1.396 . S
C876 C879 1.453 . S
C876 C880 1.684 . S
C877 C867 1.723 . S
C877 C876 1.396 . S
C877 C878 1.394 . S
C878 C848 1.723 . S
C878 C874 1.397 . S
C878 C877 1.394 . S
C879 H851 0.982 . S
C879 H855 0.979 . S
C879 H856 0.977 . S
C879 C876 1.453 . S
C880 H852 0.979 . S
C880 H853 0.980 . S
C880 H854 0.983 . S
C880 C876 1.684 . S
H881 C899 0.948 . S
H882 C840 0.948 . S
H883 C858 0.979 . S
H884 C858 0.980 . S
H885 C858 0.983 . S
H886 C857 0.982 . S
H887 C857 0.979 . S
H888 C857 0.977 . S
H889 C859 0.948 . S
H890 C861 0.947 . S
H891 C862 0.948 . S
H892 C868 0.982 . S
H893 C868 0.979 . S
H894 C868 0.977 . S
H895 C869 0.979 . S
H896 C869 0.980 . S
H897 C869 0.983 . S
H898 C842 0.947 . S
C899 C842 1.392 . S
C899 C843 1.419 . S
C899 H881 0.948 . S
C900 C901 1.391 . S
C900 C904 1.391 . S
C900 H942 0.948 . S
C901 C900 1.391 . S
C901 C902 1.391 . S
C902 C901 1.391 . S
C902 H958 0.947 . S
C902 C959 1.392 . S
C903 C904 1.391 . S
C903 C907 1.397 . S
C903 C959 1.419 . S
C904 C900 1.391 . S
C904 C903 1.391 . S
C904 C905 1.399 . S
C905 C904 1.399 . S
C905 C908 1.396 . S
C905 C917 1.453 . S
C905 C918 1.684 1_556 S
H906 C930 0.948 . S
C907 C903 1.397 . S
C907 C908 1.394 . S
C907 C926 1.723 . S
C908 C905 1.396 . S
C908 C907 1.394 . S
C908 C938 1.723 . S
H909 C932 0.947 . S
H910 C933 0.948 . S
H911 C939 0.982 . S
H912 C940 0.979 . S
H913 C940 0.980 . S
H914 C940 0.983 . S
H915 C939 0.979 . S
H916 C939 0.977 . S
C917 C905 1.453 . S
C917 H946 0.982 . S
C917 H947 0.979 . S
C917 H948 0.977 . S
C918 C905 1.684 1_554 S
C918 H943 0.979 . S
C918 H944 0.980 . S
C918 H945 0.983 . S
C919 C920 1.391 . S
C919 C924 1.391 . S
C919 H949 0.948 . S
C920 C919 1.391 . S
C920 C921 1.391 . S
C921 C920 1.391 . S
C921 C922 1.392 . S
C921 H950 0.947 . S
C922 C921 1.392 . S
C922 C923 1.419 . S
C922 H951 0.948 . S
C923 C922 1.419 . S
C923 C924 1.391 . S
C923 C927 1.397 . S
C924 C919 1.391 . S
C924 C923 1.391 . S
C924 C925 1.399 . S
C925 C924 1.399 . S
C925 C926 1.396 . S
C925 C928 1.453 . S
C925 C929 1.684 . S
C926 C907 1.723 . S
C926 C925 1.396 . S
C926 C927 1.394 . S
C927 C923 1.397 . S
C927 C926 1.394 . S
C927 C937 1.723 . S
C928 C925 1.453 . S
C928 H952 0.982 . S
C928 H953 0.979 . S
C928 H954 0.977 . S
C929 C925 1.684 . S
C929 H955 0.979 . S
C929 H956 0.980 . S
C929 H957 0.983 . S
C930 H906 0.948 . S
C930 C931 1.391 . S
C930 C935 1.391 . S
C931 C930 1.391 . S
C931 C932 1.391 1_556 S
C932 H909 0.947 . S
C932 C931 1.391 1_554 S
C932 C933 1.392 1_554 S
C933 H910 0.948 . S
C933 C932 1.392 1_556 S
C933 C934 1.419 . S
C934 C933 1.419 . S
C934 C935 1.391 . S
C934 C938 1.397 . S
C935 C930 1.391 . S
C935 C934 1.391 . S
C935 C936 1.399 . S
C936 C935 1.399 . S
C936 C937 1.396 . S
C936 C939 1.453 . S
C936 C940 1.684 . S
C937 C927 1.723 . S
C937 C936 1.396 . S
C937 C938 1.394 . S
C938 C908 1.723 . S
C938 C934 1.397 . S
C938 C937 1.394 . S
C939 H911 0.982 . S
C939 H915 0.979 . S
C939 H916 0.977 . S
C939 C936 1.453 . S
C940 H912 0.979 . S
C940 H913 0.980 . S
C940 H914 0.983 . S
C940 C936 1.684 . S
H941 C959 0.948 . S
H942 C900 0.948 . S
H943 C918 0.979 . S
H944 C918 0.980 . S
H945 C918 0.983 . S
H946 C917 0.982 . S
H947 C917 0.979 . S
H948 C917 0.977 . S
H949 C919 0.948 . S
H950 C921 0.947 . S
H951 C922 0.948 . S
H952 C928 0.982 . S
H953 C928 0.979 . S
H954 C928 0.977 . S
H955 C929 0.979 . S
H956 C929 0.980 . S
H957 C929 0.983 . S
H958 C902 0.947 . S
C959 C902 1.392 . S
C959 C903 1.419 . S
C959 H941 0.948 . S
O960 Cd961 2.223 . S
O960 C968 1.315 . S
Cd961 O960 2.223 . S
Cd961 O964 2.297 . S
Cd961 O965 2.439 . S
Cd961 O971 2.240 . S
Cd962 O963 2.240 . S
Cd962 O970 2.223 . S
Cd962 O972 2.297 . S
Cd962 O973 2.439 . S
O963 Cd962 2.240 . S
O963 C968 1.279 . S
O964 Cd961 2.297 . S
O964 C966 1.247 . S
O965 Cd961 2.439 . S
O965 C966 1.208 . S
C966 O964 1.247 . S
C966 O965 1.208 . S
C967 O972 1.247 . S
C967 O973 1.208 . S
C968 O960 1.315 . S
C968 O963 1.279 . S
C969 O970 1.315 . S
C969 O971 1.279 . S
O970 Cd962 2.223 . S
O970 C969 1.315 . S
O971 Cd961 2.240 . S
O971 C969 1.279 . S
O972 Cd962 2.297 . S
O972 C967 1.247 . S
O973 Cd962 2.439 . S
O973 C967 1.208 . S
O974 Cd975 2.223 . S
O974 C982 1.315 . S
Cd975 O974 2.223 . S
Cd975 O978 2.297 . S
Cd975 O979 2.439 . S
Cd975 O985 2.240 . S
Cd976 O977 2.240 . S
Cd976 O984 2.223 . S
Cd976 O986 2.297 . S
Cd976 O987 2.439 . S
O977 Cd976 2.240 . S
O977 C982 1.279 . S
O978 Cd975 2.297 . S
O978 C980 1.247 . S
O979 Cd975 2.439 . S
O979 C980 1.208 . S
C980 O978 1.247 . S
C980 O979 1.208 . S
C981 O986 1.247 . S
C981 O987 1.208 . S
C982 O974 1.315 . S
C982 O977 1.279 . S
C983 O984 1.315 . S
C983 O985 1.279 . S
O984 Cd976 2.223 . S
O984 C983 1.315 . S
O985 Cd975 2.240 . S
O985 C983 1.279 . S
O986 Cd976 2.297 . S
O986 C981 1.247 . S
O987 Cd976 2.439 . S
O987 C981 1.208 . S
O988 Cd989 2.223 1_556 S
O988 C996 1.315 . S
Cd989 O988 2.223 1_554 S
Cd989 O992 2.297 . S
Cd989 O993 2.439 . S
Cd989 O999 2.240 . S
Cd990 O991 2.240 . S
Cd990 O998 2.223 . S
Cd990 O1000 2.285 1_556 S
Cd990 O1001 2.439 1_556 S
O991 Cd990 2.240 . S
O991 C996 1.279 . S
O992 Cd989 2.297 . S
O992 C994 1.247 . S
O993 Cd989 2.439 . S
O993 C994 1.208 . S
C994 O992 1.247 . S
C994 O993 1.208 . S
C995 O1000 1.281 . S
C995 O1001 1.208 . S
C996 O988 1.315 . S
C996 O991 1.279 . S
C997 O998 1.315 . S
C997 O999 1.279 1_556 S
O998 Cd990 2.223 . S
O998 C997 1.315 . S
O999 Cd989 2.240 . S
O999 C997 1.279 1_554 S
O1000 Cd990 2.285 1_554 S
O1000 C995 1.281 . S
O1001 Cd990 2.439 1_554 S
O1001 C995 1.208 . S
O1002 Cd1003 2.223 . S
O1002 C1010 1.315 . S
Cd1003 O1002 2.223 . S
Cd1003 O1006 2.297 . S
Cd1003 O1007 2.439 . S
Cd1003 O1013 2.240 . S
Cd1004 O1005 2.240 . S
Cd1004 O1012 2.223 . S
Cd1004 O1014 2.297 . S
Cd1004 O1015 2.439 . S
O1005 Cd1004 2.240 . S
O1005 C1010 1.279 . S
O1006 Cd1003 2.297 . S
O1006 C1008 1.247 . S
O1007 Cd1003 2.439 . S
O1007 C1008 1.208 . S
C1008 O1006 1.247 . S
C1008 O1007 1.208 . S
C1009 O1014 1.247 . S
C1009 O1015 1.208 . S
C1010 O1002 1.315 . S
C1010 O1005 1.279 . S
C1011 O1012 1.315 . S
C1011 O1013 1.279 . S
O1012 Cd1004 2.223 . S
O1012 C1011 1.315 . S
O1013 Cd1003 2.240 . S
O1013 C1011 1.279 . S
O1014 Cd1004 2.297 . S
O1014 C1009 1.247 . S
O1015 Cd1004 2.439 . S
O1015 C1009 1.208 . S
O1016 Cd1017 2.223 . S
O1016 C1024 1.315 . S
Cd1017 O1016 2.223 . S
Cd1017 O1020 2.297 . S
Cd1017 O1021 2.439 . S
Cd1017 O1027 2.240 . S
Cd1018 O1019 2.240 . S
Cd1018 O1026 2.223 . S
Cd1018 O1028 2.297 . S
Cd1018 O1029 2.439 . S
O1019 Cd1018 2.240 . S
O1019 C1024 1.279 . S
O1020 Cd1017 2.297 . S
O1020 C1022 1.247 . S
O1021 Cd1017 2.439 . S
O1021 C1022 1.208 . S
C1022 O1020 1.247 . S
C1022 O1021 1.208 . S
C1023 O1028 1.247 . S
C1023 O1029 1.208 . S
C1024 O1016 1.315 . S
C1024 O1019 1.279 . S
C1025 O1026 1.315 . S
C1025 O1027 1.279 . S
O1026 Cd1018 2.223 . S
O1026 C1025 1.315 . S
O1027 Cd1017 2.240 . S
O1027 C1025 1.279 . S
O1028 Cd1018 2.297 . S
O1028 C1023 1.247 . S
O1029 Cd1018 2.439 . S
O1029 C1023 1.208 . S
O1030 Cd1031 2.223 . S
O1030 C1038 1.315 . S
Cd1031 O1030 2.223 . S
Cd1031 O1034 2.297 . S
Cd1031 O1035 2.439 . S
Cd1031 O1041 2.240 . S
Cd1032 O1033 2.240 . S
Cd1032 O1040 2.223 . S
Cd1032 O1042 2.297 . S
Cd1032 O1043 2.439 . S
O1033 Cd1032 2.240 . S
O1033 C1038 1.279 . S
O1034 Cd1031 2.297 . S
O1034 C1036 1.247 . S
O1035 Cd1031 2.439 . S
O1035 C1036 1.208 . S
C1036 O1034 1.247 . S
C1036 O1035 1.208 . S
C1037 O1042 1.247 . S
C1037 O1043 1.208 . S
C1038 O1030 1.315 . S
C1038 O1033 1.279 . S
C1039 O1040 1.315 . S
C1039 O1041 1.279 . S
O1040 Cd1032 2.223 . S
O1040 C1039 1.315 . S
O1041 Cd1031 2.240 . S
O1041 C1039 1.279 . S
O1042 Cd1032 2.297 . S
O1042 C1037 1.247 . S
O1043 Cd1032 2.439 . S
O1043 C1037 1.208 . S
O1044 Cd1045 2.223 . S
O1044 C1052 1.315 . S
Cd1045 O1044 2.223 . S
Cd1045 O1048 2.297 . S
Cd1045 O1049 2.439 . S
Cd1045 O1055 2.240 . S
Cd1046 O1047 2.240 . S
Cd1046 O1054 2.223 . S
Cd1046 O1056 2.297 . S
Cd1046 O1057 2.439 . S
O1047 Cd1046 2.240 . S
O1047 C1052 1.279 . S
O1048 Cd1045 2.297 . S
O1048 C1050 1.247 . S
O1049 Cd1045 2.439 . S
O1049 C1050 1.208 . S
C1050 O1048 1.247 . S
C1050 O1049 1.208 . S
C1051 O1056 1.247 . S
C1051 O1057 1.208 . S
C1052 O1044 1.315 . S
C1052 O1047 1.279 . S
C1053 O1054 1.315 . S
C1053 O1055 1.279 . S
O1054 Cd1046 2.223 . S
O1054 C1053 1.315 . S
O1055 Cd1045 2.240 . S
O1055 C1053 1.279 . S
O1056 Cd1046 2.297 . S
O1056 C1051 1.247 . S
O1057 Cd1046 2.439 . S
O1057 C1051 1.208 . S
O1058 Cd1059 2.223 1_545 S
O1058 C1066 1.315 . S
Cd1059 O1058 2.223 1_565 S
Cd1059 O1062 2.297 . S
Cd1059 O1063 2.439 . S
Cd1059 O1069 2.240 1_565 S
Cd1060 O1061 2.240 . S
Cd1060 O1068 2.223 . S
Cd1060 O1070 2.297 . S
Cd1060 O1071 2.439 1_545 S
O1061 Cd1060 2.240 . S
O1061 C1066 1.279 . S
O1062 Cd1059 2.297 . S
O1062 C1064 1.247 . S
O1063 Cd1059 2.439 . S
O1063 C1064 1.208 . S
C1064 O1062 1.247 . S
C1064 O1063 1.208 . S
C1065 O1070 1.247 1_565 S
C1065 O1071 1.208 . S
C1066 O1058 1.315 . S
C1066 O1061 1.279 . S
C1067 O1068 1.315 . S
C1067 O1069 1.279 . S
O1068 Cd1060 2.223 . S
O1068 C1067 1.315 . S
O1069 Cd1059 2.240 1_545 S
O1069 C1067 1.279 . S
O1070 Cd1060 2.297 . S
O1070 C1065 1.247 1_545 S
O1071 Cd1060 2.439 1_565 S
O1071 C1065 1.208 . S
O1072 Cd1073 2.223 . S
O1072 C1080 1.315 . S
Cd1073 O1072 2.223 . S
Cd1073 O1076 2.297 1_655 S
Cd1073 O1077 2.439 1_655 S
Cd1073 O1083 2.240 . S
Cd1074 O1075 2.240 . S
Cd1074 O1082 2.223 1_455 S
Cd1074 O1084 2.297 . S
Cd1074 O1085 2.439 . S
O1075 Cd1074 2.240 . S
O1075 C1080 1.279 1_455 S
O1076 Cd1073 2.297 1_455 S
O1076 C1078 1.247 . S
O1077 Cd1073 2.439 1_455 S
O1077 C1078 1.208 . S
C1078 O1076 1.247 . S
C1078 O1077 1.208 . S
C1079 O1084 1.247 . S
C1079 O1085 1.208 . S
C1080 O1072 1.315 . S
C1080 O1075 1.279 1_655 S
C1081 O1082 1.315 . S
C1081 O1083 1.279 . S
O1082 Cd1074 2.223 1_655 S
O1082 C1081 1.315 . S
O1083 Cd1073 2.240 . S
O1083 C1081 1.279 . S
O1084 Cd1074 2.297 . S
O1084 C1079 1.247 . S
O1085 Cd1074 2.439 . S
O1085 C1079 1.208 . S
O1086 Cd1087 2.223 . S
O1086 C1094 1.315 . S
Cd1087 O1086 2.223 . S
Cd1087 O1090 2.297 . S
Cd1087 O1091 2.439 . S
Cd1087 O1097 2.240 . S
Cd1088 O1089 2.240 . S
Cd1088 O1096 2.223 . S
Cd1088 O1098 2.297 . S
Cd1088 O1099 2.439 . S
O1089 Cd1088 2.240 . S
O1089 C1094 1.279 . S
O1090 Cd1087 2.297 . S
O1090 C1092 1.247 . S
O1091 Cd1087 2.439 . S
O1091 C1092 1.208 . S
C1092 O1090 1.247 . S
C1092 O1091 1.208 . S
C1093 O1098 1.247 . S
C1093 O1099 1.208 . S
C1094 O1086 1.315 . S
C1094 O1089 1.279 . S
C1095 O1096 1.315 . S
C1095 O1097 1.279 . S
O1096 Cd1088 2.223 . S
O1096 C1095 1.315 . S
O1097 Cd1087 2.240 . S
O1097 C1095 1.279 . S
O1098 Cd1088 2.297 . S
O1098 C1093 1.247 . S
O1099 Cd1088 2.439 . S
O1099 C1093 1.208 . S
O1100 Cd1101 2.223 1_655 S
O1100 C1108 1.315 . S
Cd1101 O1100 2.223 1_455 S
Cd1101 O1104 2.297 . S
Cd1101 O1105 2.439 . S
Cd1101 O1111 2.240 . S
Cd1102 O1103 2.240 . S
Cd1102 O1110 2.223 . S
Cd1102 O1112 2.297 1_655 S
Cd1102 O1113 2.439 1_655 S
O1103 Cd1102 2.240 . S
O1103 C1108 1.279 . S
O1104 Cd1101 2.297 . S
O1104 C1106 1.247 . S
O1105 Cd1101 2.439 . S
O1105 C1106 1.208 . S
C1106 O1104 1.247 . S
C1106 O1105 1.208 . S
C1107 O1112 1.247 . S
C1107 O1113 1.208 . S
C1108 O1100 1.315 . S
C1108 O1103 1.279 . S
C1109 O1110 1.315 . S
C1109 O1111 1.279 1_655 S
O1110 Cd1102 2.223 . S
O1110 C1109 1.315 . S
O1111 Cd1101 2.240 . S
O1111 C1109 1.279 1_455 S
O1112 Cd1102 2.297 1_455 S
O1112 C1107 1.247 . S
O1113 Cd1102 2.439 1_455 S
O1113 C1107 1.208 . S
O1114 Cd1115 2.223 . S
O1114 C1122 1.315 . S
Cd1115 O1114 2.223 . S
Cd1115 O1118 2.297 . S
Cd1115 O1119 2.439 . S
Cd1115 O1125 2.240 . S
Cd1116 O1117 2.240 . S
Cd1116 O1124 2.223 . S
Cd1116 O1126 2.297 . S
Cd1116 O1127 2.439 . S
O1117 Cd1116 2.240 . S
O1117 C1122 1.279 . S
O1118 Cd1115 2.297 . S
O1118 C1120 1.247 . S
O1119 Cd1115 2.439 . S
O1119 C1120 1.208 . S
C1120 O1118 1.247 . S
C1120 O1119 1.208 . S
C1121 O1126 1.247 . S
C1121 O1127 1.208 . S
C1122 O1114 1.315 . S
C1122 O1117 1.279 . S
C1123 O1124 1.315 . S
C1123 O1125 1.279 . S
O1124 Cd1116 2.223 . S
O1124 C1123 1.315 . S
O1125 Cd1115 2.240 . S
O1125 C1123 1.279 . S
O1126 Cd1116 2.297 . S
O1126 C1121 1.247 . S
O1127 Cd1116 2.439 . S
O1127 C1121 1.208 . S
H1128 C1134 0.930 . S
H1129 C1137 0.930 . S
H1130 C1138 0.930 . S
H1131 C1139 0.930 . S
H1132 C1142 0.930 1_554 S
H1133 C1143 0.930 . S
C1134 H1128 0.930 . S
C1134 C1135 1.355 . S
C1134 C1136 1.415 . S
C1135 C1134 1.355 . S
C1135 C1137 1.419 . S
C1136 C1134 1.415 . S
C1136 C1141 1.425 . S
C1136 C1143 1.409 . S
C1137 H1129 0.930 . S
C1137 C1135 1.419 . S
C1137 C1138 1.362 . S
C1138 H1130 0.930 . S
C1138 C1137 1.362 . S
C1138 C1141 1.409 . S
C1139 H1131 0.930 . S
C1139 C1140 1.355 . S
C1139 C1141 1.415 . S
C1140 C1139 1.355 . S
C1140 C1142 1.419 . S
C1141 C1136 1.425 . S
C1141 C1138 1.409 . S
C1141 C1139 1.415 . S
C1142 H1132 0.930 1_556 S
C1142 C1140 1.419 . S
C1142 C1143 1.362 . S
C1143 H1133 0.930 . S
C1143 C1136 1.409 . S
C1143 C1142 1.362 . S
H1144 C1150 0.930 . S
H1145 C1153 0.930 . S
H1146 C1154 0.930 . S
H1147 C1155 0.930 . S
H1148 C1158 0.930 . S
H1149 C1159 0.930 . S
C1150 H1144 0.930 . S
C1150 C1151 1.355 . S
C1150 C1152 1.415 1_655 S
C1151 C1150 1.355 . S
C1151 C1153 1.419 1_655 S
C1152 C1150 1.415 1_455 S
C1152 C1157 1.425 . S
C1152 C1159 1.409 . S
C1153 H1145 0.930 . S
C1153 C1151 1.419 1_455 S
C1153 C1154 1.362 . S
C1154 H1146 0.930 . S
C1154 C1153 1.362 . S
C1154 C1157 1.409 . S
C1155 H1147 0.930 . S
C1155 C1156 1.355 . S
C1155 C1157 1.415 . S
C1156 C1155 1.355 . S
C1156 C1158 1.419 . S
C1157 C1152 1.425 . S
C1157 C1154 1.409 . S
C1157 C1155 1.415 . S
C1158 H1148 0.930 . S
C1158 C1156 1.419 . S
C1158 C1159 1.362 . S
C1159 H1149 0.930 . S
C1159 C1152 1.409 . S
C1159 C1158 1.362 . S
H1160 C1166 0.930 . S
H1161 C1169 0.930 . S
H1162 C1170 0.930 . S
H1163 C1171 0.930 . S
H1164 C1174 0.930 . S
H1165 C1175 0.930 . S
C1166 H1160 0.930 . S
C1166 C1167 1.355 . S
C1166 C1168 1.415 . S
C1167 C1166 1.355 . S
C1167 C1169 1.419 . S
C1168 C1166 1.415 . S
C1168 C1173 1.425 . S
C1168 C1175 1.409 . S
C1169 H1161 0.930 . S
C1169 C1167 1.419 . S
C1169 C1170 1.362 . S
C1170 H1162 0.930 . S
C1170 C1169 1.362 . S
C1170 C1173 1.409 . S
C1171 H1163 0.930 . S
C1171 C1172 1.355 . S
C1171 C1173 1.415 . S
C1172 C1171 1.355 . S
C1172 C1174 1.419 . S
C1173 C1168 1.425 . S
C1173 C1170 1.409 . S
C1173 C1171 1.415 . S
C1174 H1164 0.930 . S
C1174 C1172 1.419 . S
C1174 C1175 1.362 . S
C1175 H1165 0.930 . S
C1175 C1168 1.409 . S
C1175 C1174 1.362 . S
H1176 C1182 0.930 1_445 S
H1177 C1185 0.930 . S
H1178 C1186 0.930 . S
H1179 C1187 0.930 1_565 S
H1180 C1190 0.930 . S
H1181 C1191 0.930 . S
C1182 H1176 0.930 1_665 S
C1182 C1183 1.355 . S
C1182 C1184 1.415 1_565 S
C1183 C1182 1.355 . S
C1183 C1185 1.419 . S
C1184 C1182 1.415 1_545 S
C1184 C1189 1.425 1_545 S
C1184 C1191 1.409 . S
C1185 H1177 0.930 . S
C1185 C1183 1.419 . S
C1185 C1186 1.362 . S
C1186 H1178 0.930 . S
C1186 C1185 1.362 . S
C1186 C1189 1.409 . S
C1187 H1179 0.930 1_545 S
C1187 C1188 1.355 . S
C1187 C1189 1.415 1_545 S
C1188 C1187 1.355 . S
C1188 C1190 1.419 . S
C1189 C1184 1.425 1_565 S
C1189 C1186 1.409 . S
C1189 C1187 1.415 1_565 S
C1190 H1180 0.930 . S
C1190 C1188 1.419 . S
C1190 C1191 1.362 . S
C1191 H1181 0.930 . S
C1191 C1184 1.409 . S
C1191 C1190 1.362 . S
H1192 C1198 0.930 . S
H1193 C1201 0.930 . S
H1194 C1202 0.930 . S
H1195 C1203 0.930 . S
H1196 C1206 0.930 . S
H1197 C1207 0.930 . S
C1198 H1192 0.930 . S
C1198 C1199 1.355 . S
C1198 C1200 1.415 . S
C1199 C1198 1.355 . S
C1199 C1201 1.419 . S
C1200 C1198 1.415 . S
C1200 C1205 1.425 . S
C1200 C1207 1.409 . S
C1201 H1193 0.930 . S
C1201 C1199 1.419 . S
C1201 C1202 1.362 . S
C1202 H1194 0.930 . S
C1202 C1201 1.362 . S
C1202 C1205 1.409 . S
C1203 H1195 0.930 . S
C1203 C1204 1.355 . S
C1203 C1205 1.415 . S
C1204 C1203 1.355 . S
C1204 C1206 1.419 . S
C1205 C1200 1.425 . S
C1205 C1202 1.409 . S
C1205 C1203 1.415 . S
C1206 H1196 0.930 . S
C1206 C1204 1.419 . S
C1206 C1207 1.362 . S
C1207 H1197 0.930 . S
C1207 C1200 1.409 . S
C1207 C1206 1.362 . S
H1208 C1214 0.930 . S
H1209 C1217 0.930 . S
H1210 C1218 0.930 . S
H1211 C1219 0.930 . S
H1212 C1222 0.930 . S
H1213 C1223 0.930 . S
C1214 H1208 0.930 . S
C1214 C1215 1.355 . S
C1214 C1216 1.415 . S
C1215 C1214 1.355 . S
C1215 C1217 1.419 . S
C1216 C1214 1.415 . S
C1216 C1221 1.425 . S
C1216 C1223 1.409 . S
C1217 H1209 0.930 . S
C1217 C1215 1.419 . S
C1217 C1218 1.362 . S
C1218 H1210 0.930 . S
C1218 C1217 1.362 . S
C1218 C1221 1.409 . S
C1219 H1211 0.930 . S
C1219 C1220 1.355 . S
C1219 C1221 1.415 . S
C1220 C1219 1.355 . S
C1220 C1222 1.419 . S
C1221 C1216 1.425 . S
C1221 C1218 1.409 . S
C1221 C1219 1.415 . S
C1222 H1212 0.930 . S
C1222 C1220 1.419 . S
C1222 C1223 1.362 . S
C1223 H1213 0.930 . S
C1223 C1216 1.409 . S
C1223 C1222 1.362 . S
H1224 C1230 0.930 . S
H1225 C1233 0.930 . S
H1226 C1234 0.930 . S
H1227 C1235 0.930 . S
H1228 C1238 0.930 . S
H1229 C1239 0.930 . S
C1230 H1224 0.930 . S
C1230 C1231 1.355 . S
C1230 C1232 1.415 . S
C1231 C1230 1.355 . S
C1231 C1233 1.419 . S
C1232 C1230 1.415 . S
C1232 C1237 1.425 . S
C1232 C1239 1.409 . S
C1233 H1225 0.930 . S
C1233 C1231 1.419 . S
C1233 C1234 1.362 . S
C1234 H1226 0.930 . S
C1234 C1233 1.362 . S
C1234 C1237 1.409 . S
C1235 H1227 0.930 . S
C1235 C1236 1.355 . S
C1235 C1237 1.415 . S
C1236 C1235 1.355 . S
C1236 C1238 1.419 . S
C1237 C1232 1.425 . S
C1237 C1234 1.409 . S
C1237 C1235 1.415 . S
C1238 H1228 0.930 . S
C1238 C1236 1.419 . S
C1238 C1239 1.362 . S
C1239 H1229 0.930 . S
C1239 C1232 1.409 . S
C1239 C1238 1.362 . S
H1240 C1246 0.930 . S
H1241 C1249 0.930 . S
H1242 C1250 0.930 . S
H1243 C1251 0.930 . S
H1244 C1254 0.930 . S
H1245 C1255 0.930 . S
C1246 H1240 0.930 . S
C1246 C1247 1.355 . S
C1246 C1248 1.415 . S
C1247 C1246 1.355 . S
C1247 C1249 1.419 . S
C1248 C1246 1.415 . S
C1248 C1253 1.425 . S
C1248 C1255 1.409 . S
C1249 H1241 0.930 . S
C1249 C1247 1.419 . S
C1249 C1250 1.362 . S
C1250 H1242 0.930 . S
C1250 C1249 1.362 . S
C1250 C1253 1.409 . S
C1251 H1243 0.930 . S
C1251 C1252 1.355 . S
C1251 C1253 1.415 . S
C1252 C1251 1.355 . S
C1252 C1254 1.419 . S
C1253 C1248 1.425 . S
C1253 C1250 1.409 . S
C1253 C1251 1.415 . S
C1254 H1244 0.930 . S
C1254 C1252 1.419 . S
C1254 C1255 1.362 . S
C1255 H1245 0.930 . S
C1255 C1248 1.409 . S
C1255 C1254 1.362 . S
H1256 C1262 0.930 . S
H1257 C1265 0.930 . S
H1258 C1266 0.930 . S
H1259 C1267 0.930 . S
H1260 C1270 0.930 . S
H1261 C1271 0.930 . S
C1262 H1256 0.930 . S
C1262 C1263 1.355 . S
C1262 C1264 1.415 . S
C1263 C1262 1.355 . S
C1263 C1265 1.419 . S
C1264 C1262 1.415 . S
C1264 C1269 1.425 . S
C1264 C1271 1.409 . S
C1265 H1257 0.930 . S
C1265 C1263 1.419 . S
C1265 C1266 1.362 . S
C1266 H1258 0.930 . S
C1266 C1265 1.362 . S
C1266 C1269 1.409 . S
C1267 H1259 0.930 . S
C1267 C1268 1.355 . S
C1267 C1269 1.415 . S
C1268 C1267 1.355 . S
C1268 C1270 1.419 . S
C1269 C1264 1.425 . S
C1269 C1266 1.409 . S
C1269 C1267 1.415 . S
C1270 H1260 0.930 . S
C1270 C1268 1.419 . S
C1270 C1271 1.362 . S
C1271 H1261 0.930 . S
C1271 C1264 1.409 . S
C1271 C1270 1.362 . S
H1272 C1278 0.930 . S
H1273 C1281 0.930 . S
H1274 C1282 0.930 . S
H1275 C1283 0.930 . S
H1276 C1286 0.930 . S
H1277 C1287 0.930 . S
C1278 H1272 0.930 . S
C1278 C1279 1.355 . S
C1278 C1280 1.415 . S
C1279 C1278 1.355 . S
C1279 C1281 1.419 . S
C1280 C1278 1.415 . S
C1280 C1285 1.425 . S
C1280 C1287 1.409 . S
C1281 H1273 0.930 . S
C1281 C1279 1.419 . S
C1281 C1282 1.362 . S
C1282 H1274 0.930 . S
C1282 C1281 1.362 . S
C1282 C1285 1.409 . S
C1283 H1275 0.930 . S
C1283 C1284 1.355 . S
C1283 C1285 1.415 . S
C1284 C1283 1.355 . S
C1284 C1286 1.419 . S
C1285 C1280 1.425 . S
C1285 C1282 1.409 . S
C1285 C1283 1.415 . S
C1286 H1276 0.930 . S
C1286 C1284 1.419 . S
C1286 C1287 1.362 . S
C1287 H1277 0.930 . S
C1287 C1280 1.409 . S
C1287 C1286 1.362 . S
H1288 C1294 0.930 . S
H1289 C1297 0.930 . S
H1290 C1298 0.930 . S
H1291 C1299 0.930 . S
H1292 C1302 0.930 . S
H1293 C1303 0.930 . S
C1294 H1288 0.930 . S
C1294 C1295 1.355 . S
C1294 C1296 1.415 . S
C1295 C1294 1.355 . S
C1295 C1297 1.419 . S
C1296 C1294 1.415 . S
C1296 C1301 1.425 . S
C1296 C1303 1.409 . S
C1297 H1289 0.930 . S
C1297 C1295 1.419 . S
C1297 C1298 1.362 . S
C1298 H1290 0.930 . S
C1298 C1297 1.362 . S
C1298 C1301 1.409 . S
C1299 H1291 0.930 . S
C1299 C1300 1.355 . S
C1299 C1301 1.415 . S
C1300 C1299 1.355 . S
C1300 C1302 1.419 . S
C1301 C1296 1.425 . S
C1301 C1298 1.409 . S
C1301 C1299 1.415 . S
C1302 H1292 0.930 . S
C1302 C1300 1.419 . S
C1302 C1303 1.362 . S
C1303 H1293 0.930 . S
C1303 C1296 1.409 . S
C1303 C1302 1.362 . S
H1304 C1310 0.930 . S
H1305 C1313 0.930 . S
H1306 C1314 0.930 . S
H1307 C1315 0.930 . S
H1308 C1318 0.930 . S
H1309 C1319 0.930 . S
C1310 H1304 0.930 . S
C1310 C1311 1.355 . S
C1310 C1312 1.415 . S
C1311 C1310 1.355 . S
C1311 C1313 1.419 . S
C1312 C1310 1.415 . S
C1312 C1317 1.425 . S
C1312 C1319 1.409 . S
C1313 H1305 0.930 . S
C1313 C1311 1.419 . S
C1313 C1314 1.362 . S
C1314 H1306 0.930 . S
C1314 C1313 1.362 . S
C1314 C1317 1.409 . S
C1315 H1307 0.930 . S
C1315 C1316 1.355 . S
C1315 C1317 1.415 . S
C1316 C1315 1.355 . S
C1316 C1318 1.419 . S
C1317 C1312 1.425 . S
C1317 C1314 1.409 . S
C1317 C1315 1.415 . S
C1318 H1308 0.930 . S
C1318 C1316 1.419 . S
C1318 C1319 1.362 . S
C1319 H1309 0.930 . S
C1319 C1312 1.409 . S
C1319 C1318 1.362 . S
H1320 C1326 0.930 . S
H1321 C1329 0.930 . S
H1322 C1330 0.930 . S
H1323 C1331 0.930 . S
H1324 C1334 0.930 . S
H1325 C1335 0.930 . S
C1326 H1320 0.930 . S
C1326 C1327 1.355 . S
C1326 C1328 1.415 . S
C1327 C1326 1.355 . S
C1327 C1329 1.419 . S
C1328 C1326 1.415 . S
C1328 C1333 1.425 . S
C1328 C1335 1.409 . S
C1329 H1321 0.930 . S
C1329 C1327 1.419 . S
C1329 C1330 1.362 . S
C1330 H1322 0.930 . S
C1330 C1329 1.362 . S
C1330 C1333 1.409 . S
C1331 H1323 0.930 . S
C1331 C1332 1.355 . S
C1331 C1333 1.415 . S
C1332 C1331 1.355 . S
C1332 C1334 1.419 . S
C1333 C1328 1.425 . S
C1333 C1330 1.409 . S
C1333 C1331 1.415 . S
C1334 H1324 0.930 . S
C1334 C1332 1.419 . S
C1334 C1335 1.362 . S
C1335 H1325 0.930 . S
C1335 C1328 1.409 . S
C1335 C1334 1.362 . S
H1336 C1342 0.930 . S
H1337 C1345 0.930 . S
H1338 C1346 0.930 . S
H1339 C1347 0.930 . S
H1340 C1350 0.930 . S
H1341 C1351 0.930 . S
C1342 H1336 0.930 . S
C1342 C1343 1.355 . S
C1342 C1344 1.415 . S
C1343 C1342 1.355 . S
C1343 C1345 1.419 . S
C1344 C1342 1.415 . S
C1344 C1349 1.425 . S
C1344 C1351 1.409 . S
C1345 H1337 0.930 . S
C1345 C1343 1.419 . S
C1345 C1346 1.362 . S
C1346 H1338 0.930 . S
C1346 C1345 1.362 . S
C1346 C1349 1.409 . S
C1347 H1339 0.930 . S
C1347 C1348 1.355 . S
C1347 C1349 1.415 . S
C1348 C1347 1.355 . S
C1348 C1350 1.419 . S
C1349 C1344 1.425 . S
C1349 C1346 1.409 . S
C1349 C1347 1.415 . S
C1350 H1340 0.930 . S
C1350 C1348 1.419 . S
C1350 C1351 1.362 . S
C1351 H1341 0.930 . S
C1351 C1344 1.409 . S
C1351 C1350 1.362 . S
H1352 C1358 0.930 . S
H1353 C1361 0.930 . S
H1354 C1362 0.930 . S
H1355 C1363 0.930 . S
H1356 C1366 0.930 . S
H1357 C1367 0.930 . S
C1358 H1352 0.930 . S
C1358 C1359 1.355 . S
C1358 C1360 1.415 . S
C1359 C1358 1.355 . S
C1359 C1361 1.419 . S
C1360 C1358 1.415 . S
C1360 C1365 1.425 . S
C1360 C1367 1.409 . S
C1361 H1353 0.930 . S
C1361 C1359 1.419 . S
C1361 C1362 1.362 . S
C1362 H1354 0.930 . S
C1362 C1361 1.362 . S
C1362 C1365 1.409 . S
C1363 H1355 0.930 . S
C1363 C1364 1.355 . S
C1363 C1365 1.415 . S
C1364 C1363 1.355 . S
C1364 C1366 1.419 . S
C1365 C1360 1.425 . S
C1365 C1362 1.409 . S
C1365 C1363 1.415 . S
C1366 H1356 0.930 . S
C1366 C1364 1.419 . S
C1366 C1367 1.362 . S
C1367 H1357 0.930 . S
C1367 C1360 1.409 . S
C1367 C1366 1.362 . S
H1368 C1374 0.930 . S
H1369 C1377 0.930 . S
H1370 C1378 0.893 1_455 S
H1371 C1379 0.946 . S
H1372 C1382 0.930 . S
H1373 C1383 0.930 . S
C1374 H1368 0.930 . S
C1374 C1375 1.355 . S
C1374 C1376 1.415 . S
C1375 C1374 1.355 . S
C1375 C1377 1.419 . S
C1376 C1374 1.415 . S
C1376 C1381 1.425 . S
C1376 C1383 1.409 . S
C1377 H1369 0.930 . S
C1377 C1375 1.419 . S
C1377 C1378 1.362 . S
C1378 H1370 0.893 1_655 S
C1378 C1377 1.362 . S
C1378 C1381 1.409 . S
C1379 H1371 0.946 . S
C1379 C1380 1.355 . S
C1379 C1381 1.415 . S
C1380 C1379 1.355 . S
C1380 C1382 1.419 . S
C1381 C1376 1.425 . S
C1381 C1378 1.409 . S
C1381 C1379 1.415 . S
C1382 H1372 0.930 . S
C1382 C1380 1.419 . S
C1382 C1383 1.362 . S
C1383 H1373 0.930 . S
C1383 C1376 1.409 . S
C1383 C1382 1.362 . S
H1384 C1390 0.930 . S
H1385 C1393 0.930 . S
H1386 C1394 0.930 . S
H1387 C1395 0.930 . S
H1388 C1398 0.930 1_545 S
H1389 C1399 0.930 . S
C1390 H1384 0.930 . S
C1390 C1391 1.355 . S
C1390 C1392 1.415 . S
C1391 C1390 1.355 . S
C1391 C1393 1.419 . S
C1392 C1390 1.415 . S
C1392 C1397 1.425 . S
C1392 C1399 1.409 . S
C1393 H1385 0.930 . S
C1393 C1391 1.419 . S
C1393 C1394 1.362 . S
C1394 H1386 0.930 . S
C1394 C1393 1.362 . S
C1394 C1397 1.409 . S
C1395 H1387 0.930 . S
C1395 C1396 1.355 . S
C1395 C1397 1.415 . S
C1396 C1395 1.355 . S
C1396 C1398 1.419 . S
C1397 C1392 1.425 . S
C1397 C1394 1.409 . S
C1397 C1395 1.415 . S
C1398 H1388 0.930 1_565 S
C1398 C1396 1.419 . S
C1398 C1399 1.362 . S
C1399 H1389 0.930 . S
C1399 C1392 1.409 . S
C1399 C1398 1.362 . S
H1400 C1406 0.930 . S
H1401 C1409 0.930 . S
H1402 C1410 0.930 . S
H1403 C1411 0.930 . S
H1404 C1414 0.930 . S
H1405 C1415 0.930 . S
C1406 H1400 0.930 . S
C1406 C1407 1.355 . S
C1406 C1408 1.415 . S
C1407 C1406 1.355 . S
C1407 C1409 1.419 . S
C1408 C1406 1.415 . S
C1408 C1413 1.425 . S
C1408 C1415 1.409 . S
C1409 H1401 0.930 . S
C1409 C1407 1.419 . S
C1409 C1410 1.362 . S
C1410 H1402 0.930 . S
C1410 C1409 1.362 . S
C1410 C1413 1.409 . S
C1411 H1403 0.930 . S
C1411 C1412 1.355 . S
C1411 C1413 1.415 . S
C1412 C1411 1.355 . S
C1412 C1414 1.419 . S
C1413 C1408 1.425 . S
C1413 C1410 1.409 . S
C1413 C1411 1.415 . S
C1414 H1404 0.930 . S
C1414 C1412 1.419 . S
C1414 C1415 1.362 . S
C1415 H1405 0.930 . S
C1415 C1408 1.409 . S
C1415 C1414 1.362 . S
H1416 C1422 0.930 . S
H1417 C1425 0.930 . S
H1418 C1426 0.930 . S
H1419 C1427 0.930 . S
H1420 C1430 0.930 . S
H1421 C1431 0.930 . S
C1422 H1416 0.930 . S
C1422 C1423 1.355 . S
C1422 C1424 1.415 1_545 S
C1423 C1422 1.355 . S
C1423 C1425 1.419 . S
C1424 C1422 1.415 1_565 S
C1424 C1429 1.425 . S
C1424 C1431 1.409 1_556 S
C1425 H1417 0.930 . S
C1425 C1423 1.419 . S
C1425 C1426 1.362 . S
C1426 H1418 0.930 . S
C1426 C1425 1.362 . S
C1426 C1429 1.409 1_545 S
C1427 H1419 0.930 . S
C1427 C1428 1.355 1_556 S
C1427 C1429 1.415 . S
C1428 C1427 1.355 1_554 S
C1428 C1430 1.419 . S
C1429 C1424 1.425 . S
C1429 C1426 1.409 1_565 S
C1429 C1427 1.415 . S
C1430 H1420 0.930 . S
C1430 C1428 1.419 . S
C1430 C1431 1.362 . S
C1431 H1421 0.930 . S
C1431 C1424 1.409 1_554 S
C1431 C1430 1.362 . S
H1432 C1438 0.930 . S
H1433 C1441 0.930 . S
H1434 C1442 0.930 . S
H1435 C1443 0.930 . S
H1436 C1446 0.930 . S
H1437 C1447 0.930 . S
C1438 H1432 0.930 . S
C1438 C1439 1.355 . S
C1438 C1440 1.415 . S
C1439 C1438 1.355 . S
C1439 C1441 1.419 . S
C1440 C1438 1.415 . S
C1440 C1445 1.425 . S
C1440 C1447 1.409 . S
C1441 H1433 0.930 . S
C1441 C1439 1.419 . S
C1441 C1442 1.362 . S
C1442 H1434 0.930 . S
C1442 C1441 1.362 . S
C1442 C1445 1.409 . S
C1443 H1435 0.930 . S
C1443 C1444 1.355 . S
C1443 C1445 1.415 . S
C1444 C1443 1.355 . S
C1444 C1446 1.419 . S
C1445 C1440 1.425 . S
C1445 C1442 1.409 . S
C1445 C1443 1.415 . S
C1446 H1436 0.930 . S
C1446 C1444 1.419 . S
C1446 C1447 1.362 . S
C1447 H1437 0.930 . S
C1447 C1440 1.409 . S
C1447 C1446 1.362 . S
H1448 C1454 0.930 . S
H1449 C1457 0.930 . S
H1450 C1458 0.930 . S
H1451 C1459 0.930 . S
H1452 C1462 0.930 . S
H1453 C1463 0.930 . S
C1454 H1448 0.930 . S
C1454 C1455 1.355 . S
C1454 C1456 1.415 . S
C1455 C1454 1.355 . S
C1455 C1457 1.419 . S
C1456 C1454 1.415 . S
C1456 C1461 1.425 . S
C1456 C1463 1.409 . S
C1457 H1449 0.930 . S
C1457 C1455 1.419 . S
C1457 C1458 1.362 . S
C1458 H1450 0.930 . S
C1458 C1457 1.362 . S
C1458 C1461 1.409 . S
C1459 H1451 0.930 . S
C1459 C1460 1.355 . S
C1459 C1461 1.415 . S
C1460 C1459 1.355 . S
C1460 C1462 1.419 . S
C1461 C1456 1.425 . S
C1461 C1458 1.409 . S
C1461 C1459 1.415 . S
C1462 H1452 0.930 . S
C1462 C1460 1.419 . S
C1462 C1463 1.362 . S
C1463 H1453 0.930 . S
C1463 C1456 1.409 . S
C1463 C1462 1.362 . S
H1464 C1470 0.930 . S
H1465 C1473 0.930 . S
H1466 C1474 0.930 . S
H1467 C1475 0.930 . S
H1468 C1478 0.930 . S
H1469 C1479 0.930 . S
C1470 H1464 0.930 . S
C1470 C1471 1.355 . S
C1470 C1472 1.415 . S
C1471 C1470 1.355 . S
C1471 C1473 1.419 . S
C1472 C1470 1.415 . S
C1472 C1477 1.425 . S
C1472 C1479 1.409 . S
C1473 H1465 0.930 . S
C1473 C1471 1.419 . S
C1473 C1474 1.362 . S
C1474 H1466 0.930 . S
C1474 C1473 1.362 . S
C1474 C1477 1.409 . S
C1475 H1467 0.930 . S
C1475 C1476 1.355 . S
C1475 C1477 1.415 . S
C1476 C1475 1.355 . S
C1476 C1478 1.419 . S
C1477 C1472 1.425 . S
C1477 C1474 1.409 . S
C1477 C1475 1.415 . S
C1478 H1468 0.930 . S
C1478 C1476 1.419 . S
C1478 C1479 1.362 . S
C1479 H1469 0.930 . S
C1479 C1472 1.409 . S
C1479 C1478 1.362 . S
H1480 C1486 0.930 . S
H1481 C1489 0.930 . S
H1482 C1490 0.930 . S
H1483 C1491 0.930 . S
H1484 C1494 0.930 . S
H1485 C1495 0.930 . S
C1486 H1480 0.930 . S
C1486 C1487 1.355 . S
C1486 C1488 1.415 . S
C1487 C1486 1.355 . S
C1487 C1489 1.419 . S
C1488 C1486 1.415 . S
C1488 C1493 1.425 . S
C1488 C1495 1.409 . S
C1489 H1481 0.930 . S
C1489 C1487 1.419 . S
C1489 C1490 1.362 . S
C1490 H1482 0.930 . S
C1490 C1489 1.362 . S
C1490 C1493 1.409 . S
C1491 H1483 0.930 . S
C1491 C1492 1.355 . S
C1491 C1493 1.415 . S
C1492 C1491 1.355 . S
C1492 C1494 1.419 . S
C1493 C1488 1.425 . S
C1493 C1490 1.409 . S
C1493 C1491 1.415 . S
C1494 H1484 0.930 . S
C1494 C1492 1.419 . S
C1494 C1495 1.362 . S
C1495 H1485 0.930 . S
C1495 C1488 1.409 . S
C1495 C1494 1.362 . S
H1496 C1502 0.930 . S
H1497 C1505 0.930 . S
H1498 C1506 0.930 . S
H1499 C1507 0.930 . S
H1500 C1510 0.930 . S
H1501 C1511 0.930 . S
C1502 H1496 0.930 . S
C1502 C1503 1.355 . S
C1502 C1504 1.415 . S
C1503 C1502 1.355 . S
C1503 C1505 1.419 . S
C1504 C1502 1.415 . S
C1504 C1509 1.425 . S
C1504 C1511 1.409 . S
C1505 H1497 0.930 . S
C1505 C1503 1.419 . S
C1505 C1506 1.362 . S
C1506 H1498 0.930 . S
C1506 C1505 1.362 . S
C1506 C1509 1.409 . S
C1507 H1499 0.930 . S
C1507 C1508 1.355 . S
C1507 C1509 1.415 . S
C1508 C1507 1.355 . S
C1508 C1510 1.419 . S
C1509 C1504 1.425 . S
C1509 C1506 1.409 . S
C1509 C1507 1.415 . S
C1510 H1500 0.930 . S
C1510 C1508 1.419 . S
C1510 C1511 1.362 . S
C1511 H1501 0.930 . S
C1511 C1504 1.409 . S
C1511 C1510 1.362 . S
H1512 C1518 0.930 . S
H1513 C1521 0.930 . S
H1514 C1522 0.930 . S
H1515 C1523 0.930 . S
H1516 C1526 0.930 . S
H1517 C1527 0.930 . S
C1518 H1512 0.930 . S
C1518 C1519 1.355 . S
C1518 C1520 1.415 . S
C1519 C1518 1.355 . S
C1519 C1521 1.419 . S
C1520 C1518 1.415 . S
C1520 C1525 1.425 . S
C1520 C1527 1.409 . S
C1521 H1513 0.930 . S
C1521 C1519 1.419 . S
C1521 C1522 1.362 . S
C1522 H1514 0.930 . S
C1522 C1521 1.362 . S
C1522 C1525 1.409 . S
C1523 H1515 0.930 . S
C1523 C1524 1.355 . S
C1523 C1525 1.415 . S
C1524 C1523 1.355 . S
C1524 C1526 1.419 . S
C1525 C1520 1.425 . S
C1525 C1522 1.409 . S
C1525 C1523 1.415 . S
C1526 H1516 0.930 . S
C1526 C1524 1.419 . S
C1526 C1527 1.362 . S
C1527 H1517 0.930 . S
C1527 C1520 1.409 . S
C1527 C1526 1.362 . S
H1528 C1534 0.930 . S
H1529 C1537 0.930 . S
H1530 C1538 0.930 . S
H1531 C1539 0.930 . S
H1532 C1542 0.930 . S
H1533 C1543 0.930 . S
C1534 H1528 0.930 . S
C1534 C1535 1.355 . S
C1534 C1536 1.415 . S
C1535 C1534 1.355 . S
C1535 C1537 1.419 . S
C1536 C1534 1.415 . S
C1536 C1541 1.425 . S
C1536 C1543 1.409 . S
C1537 H1529 0.930 . S
C1537 C1535 1.419 . S
C1537 C1538 1.362 . S
C1538 H1530 0.930 . S
C1538 C1537 1.362 . S
C1538 C1541 1.409 . S
C1539 H1531 0.930 . S
C1539 C1540 1.355 . S
C1539 C1541 1.415 . S
C1540 C1539 1.355 . S
C1540 C1542 1.419 . S
C1541 C1536 1.425 . S
C1541 C1538 1.409 . S
C1541 C1539 1.415 . S
C1542 H1532 0.930 . S
C1542 C1540 1.419 . S
C1542 C1543 1.362 . S
C1543 H1533 0.930 . S
C1543 C1536 1.409 . S
C1543 C1542 1.362 . S
H1544 C1550 0.930 . S
H1545 C1553 0.930 . S
H1546 C1554 0.930 . S
H1547 C1555 0.930 . S
H1548 C1558 0.930 . S
H1549 C1559 0.930 . S
C1550 H1544 0.930 . S
C1550 C1551 1.355 . S
C1550 C1552 1.415 . S
C1551 C1550 1.355 . S
C1551 C1553 1.419 . S
C1552 C1550 1.415 . S
C1552 C1557 1.425 . S
C1552 C1559 1.409 . S
C1553 H1545 0.930 . S
C1553 C1551 1.419 . S
C1553 C1554 1.362 . S
C1554 H1546 0.930 . S
C1554 C1553 1.362 . S
C1554 C1557 1.409 . S
C1555 H1547 0.930 . S
C1555 C1556 1.355 . S
C1555 C1557 1.415 . S
C1556 C1555 1.355 . S
C1556 C1558 1.419 . S
C1557 C1552 1.425 . S
C1557 C1554 1.409 . S
C1557 C1555 1.415 . S
C1558 H1548 0.930 . S
C1558 C1556 1.419 . S
C1558 C1559 1.362 . S
C1559 H1549 0.930 . S
C1559 C1552 1.409 . S
C1559 C1558 1.362 . S
H1560 C1566 0.930 . S
H1561 C1569 0.930 . S
H1562 C1570 0.930 . S
H1563 C1571 0.930 . S
H1564 C1574 0.930 . S
H1565 C1575 0.930 . S
C1566 H1560 0.930 . S
C1566 C1567 1.355 . S
C1566 C1568 1.415 . S
C1567 C1566 1.355 . S
C1567 C1569 1.419 . S
C1568 C1566 1.415 . S
C1568 C1573 1.425 . S
C1568 C1575 1.409 . S
C1569 H1561 0.930 . S
C1569 C1567 1.419 . S
C1569 C1570 1.362 . S
C1570 H1562 0.930 . S
C1570 C1569 1.362 . S
C1570 C1573 1.409 . S
C1571 H1563 0.930 . S
C1571 C1572 1.355 . S
C1571 C1573 1.415 . S
C1572 C1571 1.355 . S
C1572 C1574 1.419 . S
C1573 C1568 1.425 . S
C1573 C1570 1.409 . S
C1573 C1571 1.415 . S
C1574 H1564 0.930 . S
C1574 C1572 1.419 . S
C1574 C1575 1.362 . S
C1575 H1565 0.930 . S
C1575 C1568 1.409 . S
C1575 C1574 1.362 . S
H1576 C1582 0.930 . S
H1577 C1585 0.930 . S
H1578 C1586 0.930 . S
H1579 C1587 0.930 . S
H1580 C1590 0.930 . S
H1581 C1591 0.930 . S
C1582 H1576 0.930 . S
C1582 C1583 1.355 . S
C1582 C1584 1.415 . S
C1583 C1582 1.355 . S
C1583 C1585 1.419 . S
C1584 C1582 1.415 . S
C1584 C1589 1.425 . S
C1584 C1591 1.409 . S
C1585 H1577 0.930 . S
C1585 C1583 1.419 . S
C1585 C1586 1.362 . S
C1586 H1578 0.930 . S
C1586 C1585 1.362 . S
C1586 C1589 1.409 . S
C1587 H1579 0.930 . S
C1587 C1588 1.355 . S
C1587 C1589 1.415 . S
C1588 C1587 1.355 . S
C1588 C1590 1.419 . S
C1589 C1584 1.425 . S
C1589 C1586 1.409 . S
C1589 C1587 1.415 . S
C1590 H1580 0.930 . S
C1590 C1588 1.419 . S
C1590 C1591 1.362 . S
C1591 H1581 0.930 . S
C1591 C1584 1.409 . S
C1591 C1590 1.362 . S
H1592 C1598 0.930 . S
H1593 C1601 0.930 . S
H1594 C1602 0.930 . S
H1595 C1603 0.930 . S
H1596 C1606 0.930 . S
H1597 C1607 0.930 1_455 S
C1598 H1592 0.930 . S
C1598 C1599 1.355 . S
C1598 C1600 1.415 1_455 S
C1599 C1598 1.355 . S
C1599 C1601 1.419 . S
C1600 C1598 1.415 1_655 S
C1600 C1605 1.425 . S
C1600 C1607 1.409 . S
C1601 H1593 0.930 . S
C1601 C1599 1.419 . S
C1601 C1602 1.362 1_455 S
C1602 H1594 0.930 . S
C1602 C1601 1.362 1_655 S
C1602 C1605 1.409 . S
C1603 H1595 0.930 . S
C1603 C1604 1.355 . S
C1603 C1605 1.415 . S
C1604 C1603 1.355 . S
C1604 C1606 1.419 . S
C1605 C1600 1.425 . S
C1605 C1602 1.409 . S
C1605 C1603 1.415 . S
C1606 H1596 0.930 . S
C1606 C1604 1.419 . S
C1606 C1607 1.362 . S
C1607 H1597 0.930 1_655 S
C1607 C1600 1.409 . S
C1607 C1606 1.362 . S
H1608 C1614 0.930 . S
H1609 C1617 0.930 . S
H1610 C1618 0.930 . S
H1611 C1619 0.930 . S
H1612 C1622 0.930 . S
H1613 C1623 0.930 . S
C1614 H1608 0.930 . S
C1614 C1615 1.355 . S
C1614 C1616 1.415 . S
C1615 C1614 1.355 . S
C1615 C1617 1.419 . S
C1616 C1614 1.415 . S
C1616 C1621 1.425 . S
C1616 C1623 1.409 . S
C1617 H1609 0.930 . S
C1617 C1615 1.419 . S
C1617 C1618 1.362 . S
C1618 H1610 0.930 . S
C1618 C1617 1.362 . S
C1618 C1621 1.409 . S
C1619 H1611 0.930 . S
C1619 C1620 1.355 . S
C1619 C1621 1.415 . S
C1620 C1619 1.355 . S
C1620 C1622 1.419 . S
C1621 C1616 1.425 . S
C1621 C1618 1.409 . S
C1621 C1619 1.415 . S
C1622 H1612 0.930 . S
C1622 C1620 1.419 . S
C1622 C1623 1.362 . S
C1623 H1613 0.930 . S
C1623 C1616 1.409 . S
C1623 C1622 1.362 . S
H1624 C1630 0.930 . S
H1625 C1633 0.930 . S
H1626 C1634 0.930 . S
H1627 C1635 0.930 . S
H1628 C1638 0.930 . S
H1629 C1639 0.930 . S
C1630 H1624 0.930 . S
C1630 C1631 1.355 . S
C1630 C1632 1.415 1_655 S
C1631 C1630 1.355 . S
C1631 C1633 1.419 . S
C1632 C1630 1.415 1_455 S
C1632 C1637 1.425 . S
C1632 C1639 1.409 . S
C1633 H1625 0.930 . S
C1633 C1631 1.419 . S
C1633 C1634 1.362 . S
C1634 H1626 0.930 . S
C1634 C1633 1.362 . S
C1634 C1637 1.409 1_655 S
C1635 H1627 0.930 . S
C1635 C1636 1.355 . S
C1635 C1637 1.415 . S
C1636 C1635 1.355 . S
C1636 C1638 1.419 . S
C1637 C1632 1.425 . S
C1637 C1634 1.409 1_455 S
C1637 C1635 1.415 . S
C1638 H1628 0.930 . S
C1638 C1636 1.419 . S
C1638 C1639 1.362 . S
C1639 H1629 0.930 . S
C1639 C1632 1.409 . S
C1639 C1638 1.362 . S
H1640 C1646 0.930 . S
H1641 C1649 0.930 . S
H1642 C1650 0.930 . S
H1643 C1651 0.930 . S
H1644 C1654 0.930 . S
H1645 C1655 0.930 . S
C1646 H1640 0.930 . S
C1646 C1647 1.355 . S
C1646 C1648 1.415 . S
C1647 C1646 1.355 . S
C1647 C1649 1.419 . S
C1648 C1646 1.415 . S
C1648 C1653 1.425 . S
C1648 C1655 1.409 . S
C1649 H1641 0.930 . S
C1649 C1647 1.419 . S
C1649 C1650 1.362 . S
C1650 H1642 0.930 . S
C1650 C1649 1.362 . S
C1650 C1653 1.409 . S
C1651 H1643 0.930 . S
C1651 C1652 1.355 . S
C1651 C1653 1.415 . S
C1652 C1651 1.355 . S
C1652 C1654 1.419 . S
C1653 C1648 1.425 . S
C1653 C1650 1.409 . S
C1653 C1651 1.415 . S
C1654 H1644 0.930 . S
C1654 C1652 1.419 . S
C1654 C1655 1.362 . S
C1655 H1645 0.930 . S
C1655 C1648 1.409 . S
C1655 C1654 1.362 . S
H1656 C1662 0.930 . S
H1657 C1665 0.930 . S
H1658 C1666 0.930 1_554 S
H1659 C1667 0.930 . S
H1660 C1670 0.930 . S
H1661 C1671 0.930 . S
C1662 H1656 0.930 . S
C1662 C1663 1.355 1_556 S
C1662 C1664 1.415 . S
C1663 C1662 1.355 1_554 S
C1663 C1665 1.419 . S
C1664 C1662 1.415 . S
C1664 C1669 1.425 . S
C1664 C1671 1.409 . S
C1665 H1657 0.930 . S
C1665 C1663 1.419 . S
C1665 C1666 1.362 1_554 S
C1666 H1658 0.930 1_556 S
C1666 C1665 1.362 1_556 S
C1666 C1669 1.409 . S
C1667 H1659 0.930 . S
C1667 C1668 1.355 . S
C1667 C1669 1.415 . S
C1668 C1667 1.355 . S
C1668 C1670 1.419 . S
C1669 C1664 1.425 . S
C1669 C1666 1.409 . S
C1669 C1667 1.415 . S
C1670 H1660 0.930 . S
C1670 C1668 1.419 . S
C1670 C1671 1.362 . S
C1671 H1661 0.930 . S
C1671 C1664 1.409 . S
C1671 C1670 1.362 . S
H1672 C1678 0.930 . S
H1673 C1681 0.930 . S
H1674 C1682 0.930 . S
H1675 C1683 0.930 . S
H1676 C1686 0.930 . S
H1677 C1687 0.930 . S
C1678 H1672 0.930 . S
C1678 C1679 1.355 . S
C1678 C1680 1.415 . S
C1679 C1678 1.355 . S
C1679 C1681 1.419 . S
C1680 C1678 1.415 . S
C1680 C1685 1.425 . S
C1680 C1687 1.409 . S
C1681 H1673 0.930 . S
C1681 C1679 1.419 . S
C1681 C1682 1.362 . S
C1682 H1674 0.930 . S
C1682 C1681 1.362 . S
C1682 C1685 1.409 . S
C1683 H1675 0.930 . S
C1683 C1684 1.355 . S
C1683 C1685 1.415 . S
C1684 C1683 1.355 . S
C1684 C1686 1.419 . S
C1685 C1680 1.425 . S
C1685 C1682 1.409 . S
C1685 C1683 1.415 . S
C1686 H1676 0.930 . S
C1686 C1684 1.419 . S
C1686 C1687 1.362 . S
C1687 H1677 0.930 . S
C1687 C1680 1.409 . S
C1687 C1686 1.362 . S
H1688 C1694 0.930 . S
H1689 C1697 0.930 . S
H1690 C1698 0.930 . S
H1691 C1699 0.930 . S
H1692 C1702 0.930 . S
H1693 C1703 0.930 . S
C1694 H1688 0.930 . S
C1694 C1695 1.355 . S
C1694 C1696 1.415 1_554 S
C1695 C1694 1.355 . S
C1695 C1697 1.419 . S
C1696 C1694 1.415 1_556 S
C1696 C1701 1.425 . S
C1696 C1703 1.409 . S
C1697 H1689 0.930 . S
C1697 C1695 1.419 . S
C1697 C1698 1.362 . S
C1698 H1690 0.930 . S
C1698 C1697 1.362 . S
C1698 C1701 1.413 1_554 S
C1699 H1691 0.930 . S
C1699 C1700 1.355 . S
C1699 C1701 1.412 . S
C1700 C1699 1.355 . S
C1700 C1702 1.419 . S
C1701 C1696 1.425 . S
C1701 C1698 1.413 1_556 S
C1701 C1699 1.412 . S
C1702 H1692 0.930 . S
C1702 C1700 1.419 . S
C1702 C1703 1.362 . S
C1703 H1693 0.930 . S
C1703 C1696 1.409 . S
C1703 C1702 1.362 . S
H1704 C1710 0.930 . S
H1705 C1713 0.930 . S
H1706 C1714 0.930 . S
H1707 C1715 0.930 . S
H1708 C1718 0.930 . S
H1709 C1719 0.930 . S
C1710 H1704 0.930 . S
C1710 C1711 1.355 . S
C1710 C1712 1.415 . S
C1711 C1710 1.355 . S
C1711 C1713 1.419 . S
C1712 C1710 1.415 . S
C1712 C1717 1.425 . S
C1712 C1719 1.409 . S
C1713 H1705 0.930 . S
C1713 C1711 1.419 . S
C1713 C1714 1.362 . S
C1714 H1706 0.930 . S
C1714 C1713 1.362 . S
C1714 C1717 1.409 . S
C1715 H1707 0.930 . S
C1715 C1716 1.355 . S
C1715 C1717 1.415 . S
C1716 C1715 1.355 . S
C1716 C1718 1.419 . S
C1717 C1712 1.425 . S
C1717 C1714 1.409 . S
C1717 C1715 1.415 . S
C1718 H1708 0.930 . S
C1718 C1716 1.419 . S
C1718 C1719 1.362 . S
C1719 H1709 0.930 . S
C1719 C1712 1.409 . S
C1719 C1718 1.362 . S
H1720 C1726 0.930 . S
H1721 C1729 0.930 . S
H1722 C1730 0.930 . S
H1723 C1731 0.930 . S
H1724 C1734 0.930 . S
H1725 C1735 0.930 . S
C1726 H1720 0.930 . S
C1726 C1727 1.355 . S
C1726 C1728 1.415 1_556 S
C1727 C1726 1.355 . S
C1727 C1729 1.419 . S
C1728 C1726 1.415 1_554 S
C1728 C1733 1.425 . S
C1728 C1735 1.409 . S
C1729 H1721 0.930 . S
C1729 C1727 1.419 . S
C1729 C1730 1.362 1_556 S
C1730 H1722 0.930 . S
C1730 C1729 1.362 1_554 S
C1730 C1733 1.409 . S
C1731 H1723 0.930 . S
C1731 C1732 1.355 . S
C1731 C1733 1.415 . S
C1732 C1731 1.355 . S
C1732 C1734 1.419 . S
C1733 C1728 1.425 . S
C1733 C1730 1.409 . S
C1733 C1731 1.415 . S
C1734 H1724 0.930 . S
C1734 C1732 1.419 . S
C1734 C1735 1.362 . S
C1735 H1725 0.930 . S
C1735 C1728 1.409 . S
C1735 C1734 1.362 . S
H1736 C1742 0.930 . S
H1737 C1745 0.930 . S
H1738 C1746 0.930 . S
H1739 C1747 0.930 . S
H1740 C1750 0.930 . S
H1741 C1751 0.930 . S
C1742 H1736 0.930 . S
C1742 C1743 1.355 . S
C1742 C1744 1.415 . S
C1743 C1742 1.355 . S
C1743 C1745 1.419 . S
C1744 C1742 1.415 . S
C1744 C1749 1.425 . S
C1744 C1751 1.409 . S
C1745 H1737 0.930 . S
C1745 C1743 1.419 . S
C1745 C1746 1.362 . S
C1746 H1738 0.930 . S
C1746 C1745 1.362 . S
C1746 C1749 1.409 . S
C1747 H1739 0.930 . S
C1747 C1748 1.355 . S
C1747 C1749 1.415 . S
C1748 C1747 1.355 . S
C1748 C1750 1.419 . S
C1749 C1744 1.425 . S
C1749 C1746 1.409 . S
C1749 C1747 1.415 . S
C1750 H1740 0.930 . S
C1750 C1748 1.419 . S
C1750 C1751 1.362 . S
C1751 H1741 0.930 . S
C1751 C1744 1.409 . S
C1751 C1750 1.362 . S
H1752 C1758 0.930 . S
H1753 C1761 0.930 1_556 S
H1754 C1762 0.930 . S
H1755 C1763 0.930 . S
H1756 C1766 0.930 . S
H1757 C1767 0.930 . S
C1758 H1752 0.930 . S
C1758 C1759 1.355 . S
C1758 C1760 1.415 . S
C1759 C1758 1.355 . S
C1759 C1761 1.419 . S
C1760 C1758 1.415 . S
C1760 C1765 1.425 . S
C1760 C1767 1.409 . S
C1761 H1753 0.930 1_554 S
C1761 C1759 1.419 . S
C1761 C1762 1.362 . S
C1762 H1754 0.930 . S
C1762 C1761 1.362 . S
C1762 C1765 1.409 . S
C1763 H1755 0.930 . S
C1763 C1764 1.355 . S
C1763 C1765 1.415 . S
C1764 C1763 1.355 . S
C1764 C1766 1.419 . S
C1765 C1760 1.425 . S
C1765 C1762 1.409 . S
C1765 C1763 1.415 . S
C1766 H1756 0.930 . S
C1766 C1764 1.419 . S
C1766 C1767 1.362 . S
C1767 H1757 0.930 . S
C1767 C1760 1.409 . S
C1767 C1766 1.362 . S
H1768 C1774 0.930 . S
H1769 C1777 0.930 . S
H1770 C1778 0.930 . S
H1771 C1779 0.930 . S
H1772 C1782 0.930 . S
H1773 C1783 0.930 . S
C1774 H1768 0.930 . S
C1774 C1775 1.355 . S
C1774 C1776 1.415 . S
C1775 C1774 1.355 . S
C1775 C1777 1.419 . S
C1776 C1774 1.415 . S
C1776 C1781 1.425 . S
C1776 C1783 1.409 . S
C1777 H1769 0.930 . S
C1777 C1775 1.419 . S
C1777 C1778 1.362 . S
C1778 H1770 0.930 . S
C1778 C1777 1.362 . S
C1778 C1781 1.409 . S
C1779 H1771 0.930 . S
C1779 C1780 1.355 . S
C1779 C1781 1.415 . S
C1780 C1779 1.355 . S
C1780 C1782 1.419 . S
C1781 C1776 1.425 . S
C1781 C1778 1.409 . S
C1781 C1779 1.415 . S
C1782 H1772 0.930 . S
C1782 C1780 1.419 . S
C1782 C1783 1.362 . S
C1783 H1773 0.930 . S
C1783 C1776 1.409 . S
C1783 C1782 1.362 . S
H1784 C1790 0.930 . S
H1785 C1793 0.930 . S
H1786 C1794 0.930 . S
H1787 C1795 0.930 . S
H1788 C1798 0.930 . S
H1789 C1799 0.930 . S
C1790 H1784 0.930 . S
C1790 C1791 1.355 . S
C1790 C1792 1.415 . S
C1791 C1790 1.355 . S
C1791 C1793 1.419 . S
C1792 C1790 1.415 . S
C1792 C1797 1.425 . S
C1792 C1799 1.409 . S
C1793 H1785 0.930 . S
C1793 C1791 1.419 . S
C1793 C1794 1.362 . S
C1794 H1786 0.930 . S
C1794 C1793 1.362 . S
C1794 C1797 1.409 . S
C1795 H1787 0.930 . S
C1795 C1796 1.355 . S
C1795 C1797 1.415 . S
C1796 C1795 1.355 . S
C1796 C1798 1.419 . S
C1797 C1792 1.425 . S
C1797 C1794 1.409 . S
C1797 C1795 1.415 . S
C1798 H1788 0.930 . S
C1798 C1796 1.419 . S
C1798 C1799 1.362 . S
C1799 H1789 0.930 . S
C1799 C1792 1.409 . S
C1799 C1798 1.362 . S
H1800 C1806 0.930 . S
H1801 C1809 0.930 . S
H1802 C1810 0.930 . S
H1803 C1811 0.930 . S
H1804 C1814 0.930 . S
H1805 C1815 0.930 . S
C1806 H1800 0.930 . S
C1806 C1807 1.355 . S
C1806 C1808 1.415 . S
C1807 C1806 1.355 . S
C1807 C1809 1.419 . S
C1808 C1806 1.415 . S
C1808 C1813 1.425 . S
C1808 C1815 1.409 . S
C1809 H1801 0.930 . S
C1809 C1807 1.419 . S
C1809 C1810 1.362 . S
C1810 H1802 0.930 . S
C1810 C1809 1.362 . S
C1810 C1813 1.409 . S
C1811 H1803 0.930 . S
C1811 C1812 1.355 . S
C1811 C1813 1.415 . S
C1812 C1811 1.355 . S
C1812 C1814 1.419 . S
C1813 C1808 1.425 . S
C1813 C1810 1.409 . S
C1813 C1811 1.415 . S
C1814 H1804 0.930 . S
C1814 C1812 1.419 . S
C1814 C1815 1.362 . S
C1815 H1805 0.930 . S
C1815 C1808 1.409 . S
C1815 C1814 1.362 . S
H1816 C1822 0.930 . S
H1817 C1825 0.930 . S
H1818 C1826 0.930 . S
H1819 C1827 0.930 . S
H1820 C1830 0.930 . S
H1821 C1831 0.930 . S
C1822 H1816 0.930 . S
C1822 C1823 1.355 . S
C1822 C1824 1.415 . S
C1823 C1822 1.355 . S
C1823 C1825 1.419 . S
C1824 C1822 1.415 . S
C1824 C1829 1.425 . S
C1824 C1831 1.409 . S
C1825 H1817 0.930 . S
C1825 C1823 1.419 . S
C1825 C1826 1.362 . S
C1826 H1818 0.930 . S
C1826 C1825 1.362 . S
C1826 C1829 1.409 . S
C1827 H1819 0.930 . S
C1827 C1828 1.355 . S
C1827 C1829 1.415 . S
C1828 C1827 1.355 . S
C1828 C1830 1.419 . S
C1829 C1824 1.425 . S
C1829 C1826 1.409 . S
C1829 C1827 1.415 . S
C1830 H1820 0.930 . S
C1830 C1828 1.419 . S
C1830 C1831 1.362 . S
C1831 H1821 0.930 . S
C1831 C1824 1.409 . S
C1831 C1830 1.362 . S
H1832 C1838 0.930 . S
H1833 C1841 0.930 . S
H1834 C1842 0.930 . S
H1835 C1843 0.930 . S
H1836 C1846 0.930 . S
H1837 C1847 0.930 . S
C1838 H1832 0.930 . S
C1838 C1839 1.355 . S
C1838 C1840 1.415 . S
C1839 C1838 1.355 . S
C1839 C1841 1.419 . S
C1840 C1838 1.415 . S
C1840 C1845 1.425 . S
C1840 C1847 1.409 . S
C1841 H1833 0.930 . S
C1841 C1839 1.419 . S
C1841 C1842 1.362 . S
C1842 H1834 0.930 . S
C1842 C1841 1.362 . S
C1842 C1845 1.409 . S
C1843 H1835 0.930 . S
C1843 C1844 1.355 . S
C1843 C1845 1.415 . S
C1844 C1843 1.355 . S
C1844 C1846 1.419 . S
C1845 C1840 1.425 . S
C1845 C1842 1.409 . S
C1845 C1843 1.415 . S
C1846 H1836 0.930 . S
C1846 C1844 1.419 . S
C1846 C1847 1.362 . S
C1847 H1837 0.930 . S
C1847 C1840 1.409 . S
C1847 C1846 1.362 . S
H1848 C1854 0.930 . S
H1849 C1857 0.930 . S
H1850 C1858 0.930 . S
H1851 C1859 0.930 . S
H1852 C1862 0.930 . S
H1853 C1863 0.930 . S
C1854 H1848 0.930 . S
C1854 C1855 1.355 . S
C1854 C1856 1.415 . S
C1855 C1854 1.355 . S
C1855 C1857 1.419 . S
C1856 C1854 1.415 . S
C1856 C1861 1.425 . S
C1856 C1863 1.409 . S
C1857 H1849 0.930 . S
C1857 C1855 1.419 . S
C1857 C1858 1.362 . S
C1858 H1850 0.930 . S
C1858 C1857 1.362 . S
C1858 C1861 1.409 . S
C1859 H1851 0.930 . S
C1859 C1860 1.355 . S
C1859 C1861 1.415 . S
C1860 C1859 1.355 . S
C1860 C1862 1.419 . S
C1861 C1856 1.425 . S
C1861 C1858 1.409 . S
C1861 C1859 1.415 . S
C1862 H1852 0.930 . S
C1862 C1860 1.419 . S
C1862 C1863 1.362 . S
C1863 H1853 0.930 . S
C1863 C1856 1.409 . S
C1863 C1862 1.362 . S
H1864 C1870 0.930 . S
H1865 C1873 0.930 . S
H1866 C1874 0.930 . S
H1867 C1875 0.930 . S
H1868 C1878 0.930 . S
H1869 C1879 0.930 . S
C1870 H1864 0.930 . S
C1870 C1871 1.355 . S
C1870 C1872 1.415 . S
C1871 C1870 1.355 . S
C1871 C1873 1.419 . S
C1872 C1870 1.415 . S
C1872 C1877 1.425 . S
C1872 C1879 1.409 . S
C1873 H1865 0.930 . S
C1873 C1871 1.419 . S
C1873 C1874 1.362 . S
C1874 H1866 0.930 . S
C1874 C1873 1.362 . S
C1874 C1877 1.409 . S
C1875 H1867 0.930 . S
C1875 C1876 1.355 . S
C1875 C1877 1.415 . S
C1876 C1875 1.355 . S
C1876 C1878 1.419 . S
C1877 C1872 1.425 . S
C1877 C1874 1.409 . S
C1877 C1875 1.415 . S
C1878 H1868 0.930 . S
C1878 C1876 1.419 . S
C1878 C1879 1.362 . S
C1879 H1869 0.930 . S
C1879 C1872 1.409 . S
C1879 C1878 1.362 . S
H1880 C1886 0.930 . S
H1881 C1889 0.930 . S
H1882 C1890 0.930 . S
H1883 C1891 0.930 . S
H1884 C1894 0.930 . S
H1885 C1895 0.931 . S
C1886 H1880 0.930 . S
C1886 C1887 1.355 . S
C1886 C1888 1.415 . S
C1887 C1886 1.355 . S
C1887 C1889 1.419 . S
C1888 C1886 1.415 . S
C1888 C1893 1.425 . S
C1888 C1895 1.434 . S
C1889 H1881 0.930 . S
C1889 C1887 1.419 . S
C1889 C1890 1.362 . S
C1890 H1882 0.930 . S
C1890 C1889 1.362 . S
C1890 C1893 1.409 . S
C1891 H1883 0.930 . S
C1891 C1892 1.326 1_545 S
C1891 C1893 1.447 . S
C1892 C1891 1.326 1_565 S
C1892 C1894 1.419 . S
C1893 C1888 1.425 . S
C1893 C1890 1.409 . S
C1893 C1891 1.447 . S
C1894 H1884 0.930 . S
C1894 C1892 1.419 . S
C1894 C1895 1.335 1_565 S
C1895 H1885 0.931 . S
C1895 C1888 1.434 . S
C1895 C1894 1.335 1_545 S
C1140 C968 1.596 1_556 S
C1135 C331 1.567 . S
C1156 C983 1.696 . S
C1151 C380 1.658 . S
C1167 C421 1.685 . S
C1172 C996 1.669 . S
C1188 C1010 1.549 . S
C1183 C260 1.640 1_655 S
C1204 C1022 1.588 . S
C1199 C620 1.619 . S
C1220 C1036 1.413 . S
C1215 C740 1.364 . S
C1231 C680 1.710 . S
C1236 C1050 1.717 . S
C1252 C1065 1.567 . S
C1247 C571 1.436 . S
C1263 C691 1.648 . S
C1268 C1081 1.665 . S
C1284 C1094 1.576 . S
C1279 C541 1.539 . S
C1295 C601 1.570 . S
C1300 C1079 1.565 . S
C1316 C1092 1.601 . S
C1311 C721 1.505 . S
C1327 C451 1.810 . S
C1332 C1108 1.795 . S
C1343 C241 1.665 . S
C1348 C1107 1.651 . S
C1359 C320 1.676 . S
C1364 C1106 1.650 . S
C1375 C391 1.593 . S
C1380 C1109 1.639 . S
C1391 C211 1.657 . S
C1396 C1011 1.670 1_565 S
C1407 C841 1.497 . S
C1412 C1009 1.497 . S
C1428 C969 1.587 . S
C1423 C901 1.565 . S
C1444 C980 1.749 . S
C1439 C500 1.750 . S
C1455 C271 1.662 . S
C1460 C1025 1.666 . S
C1476 C1066 1.842 . S
C1471 C661 1.820 . S
C1492 C1023 1.604 . S
C1487 C560 1.467 1_545 S
C1508 C1051 1.596 . S
C1503 C751 1.553 . S
C1524 C1052 1.616 . S
C1519 C871 1.543 . S
C1535 C920 1.733 . S
C1540 C1067 1.756 . S
C1551 C481 1.680 . S
C1556 C1024 1.672 . S
C1572 C1038 1.551 . S
C1567 C800 1.645 . S
C1583 C200 1.637 . S
C1588 C994 1.609 . S
C1604 C1008 1.435 . S
C1599 C20 1.309 . S
C1620 C966 1.688 . S
C1615 C80 1.724 . S
C1636 C981 1.544 . S
C1631 C151 1.506 . S
C1647 C91 1.621 . S
C1652 C1095 1.653 . S
C1663 C121 1.579 . S
C1668 C1080 1.611 . S
C1679 C181 1.534 . S
C1684 C1093 1.522 . S
C1695 C1 1.475 . S
C1700 C1078 1.639 . S
C1716 C1122 1.806 . S
C1711 C511 1.797 . S
C1732 C1121 1.647 . S
C1727 C781 1.644 . S
C1748 C1120 1.676 . S
C1743 C860 1.696 . S
C1759 C931 1.624 1_554 S
C1764 C1123 1.663 . S
C1775 C631 1.606 . S
C1780 C1039 1.685 . S
C1796 C1037 1.479 . S
C1791 C301 1.479 . S
C1812 C1053 1.596 . S
C1807 C361 1.576 . S
C1828 C1064 1.716 . S
C1823 C440 1.721 . S
C1839 C811 1.650 . S
C1844 C997 1.606 . S
C1860 C982 1.854 . S
C1855 C61 1.848 . S
C1871 C140 1.445 . S
C1876 C995 1.585 . S
C1892 C967 1.584 . S
C1887 C31 1.562 . S
