# Generated by pormake.
# Topology anh, (6,3)-cn, num edge types: 1
# Building blocks:
#     Node 0, Type 0, BuildingBlock: BETGAK_clean_sbu_0, # of connection points: 6
#     Node 1, Type 0, BuildingBlock: BETGAK_clean_sbu_0, # of connection points: 6
#     Node 2, Type 0, BuildingBlock: BETGAK_clean_sbu_0, # of connection points: 6
#     Node 3, Type 1, BuildingBlock: BETDIP_clean_linker_0, # of connection points: 3
#     Node 4, Type 1, BuildingBlock: BETDIP_clean_linker_0, # of connection points: 3
#     Node 5, Type 1, BuildingBlock: BETDIP_clean_linker_0, # of connection points: 3
#     Node 6, Type 1, BuildingBlock: BETDIP_clean_linker_0, # of connection points: 3
#     Node 7, Type 1, BuildingBlock: BETDIP_clean_linker_0, # of connection points: 3
#     Node 8, Type 1, BuildingBlock: BETDIP_clean_linker_0, # of connection points: 3
#     Edge 9, Type (0, 1), BuildingBlock: MIFKUJ_clean_linker_0, # of connection points: 2
#     Edge 10, Type (0, 1), BuildingBlock: MIFKUJ_clean_linker_0, # of connection points: 2
#     Edge 11, Type (0, 1), BuildingBlock: MIFKUJ_clean_linker_0, # of connection points: 2
#     Edge 12, Type (0, 1), BuildingBlock: MIFKUJ_clean_linker_0, # of connection points: 2
#     Edge 13, Type (0, 1), BuildingBlock: MIFKUJ_clean_linker_0, # of connection points: 2
#     Edge 14, Type (0, 1), BuildingBlock: MIFKUJ_clean_linker_0, # of connection points: 2
#     Edge 15, Type (0, 1), BuildingBlock: MIFKUJ_clean_linker_0, # of connection points: 2
#     Edge 16, Type (0, 1), BuildingBlock: MIFKUJ_clean_linker_0, # of connection points: 2
#     Edge 17, Type (0, 1), BuildingBlock: MIFKUJ_clean_linker_0, # of connection points: 2
#     Edge 18, Type (0, 1), BuildingBlock: MIFKUJ_clean_linker_0, # of connection points: 2
#     Edge 19, Type (0, 1), BuildingBlock: MIFKUJ_clean_linker_0, # of connection points: 2
#     Edge 20, Type (0, 1), BuildingBlock: MIFKUJ_clean_linker_0, # of connection points: 2
#     Edge 21, Type (0, 1), BuildingBlock: MIFKUJ_clean_linker_0, # of connection points: 2
#     Edge 22, Type (0, 1), BuildingBlock: MIFKUJ_clean_linker_0, # of connection points: 2
#     Edge 23, Type (0, 1), BuildingBlock: MIFKUJ_clean_linker_0, # of connection points: 2
#     Edge 24, Type (0, 1), BuildingBlock: MIFKUJ_clean_linker_0, # of connection points: 2
#     Edge 25, Type (0, 1), BuildingBlock: MIFKUJ_clean_linker_0, # of connection points: 2
#     Edge 26, Type (0, 1), BuildingBlock: MIFKUJ_clean_linker_0, # of connection points: 2
# Relax obj value: 0.129
# Max RMSD: 0.169
# Mean RMSD: 0.121
data_MOF--net-anh--node1-BETGAK_clean_sbu_0--node2-BETDIP_clean_linker_0--edge1-MIFKUJ_clean_linker_0
_symmetry_space_group_name_H-M    P1
_symmetry_Int_Tables_number       1
_symmetry_cell_setting            triclinic
loop_
_symmetry_equiv_pos_as_xyz
'x, y, z'
_cell_length_a     39.730449
_cell_length_b     46.697379
_cell_length_c     64.549878
_cell_angle_alpha  94.93391
_cell_angle_beta   89.598609
_cell_angle_gamma 127.94986
loop_
_atom_site_label
_atom_site_type_symbol
_atom_site_fract_x
_atom_site_fract_y
_atom_site_fract_z
_atom_type_partial_charge
La0 La 0.13751 0.55204 0.14713 0.0
La1 La 0.09432 0.58281 0.16462 0.0
C2 C 0.18259 0.54048 0.12647 0.0
C3 C 0.22721 0.55416 0.12938 0.0
C4 C 0.24158 0.54938 0.14764 0.0
C5 C 0.28333 0.56116 0.14992 0.0
C6 C 0.31191 0.57837 0.13412 0.0
C7 C 0.29792 0.58434 0.11618 0.0
C8 C 0.25591 0.57221 0.11382 0.0
C9 C 0.1328 0.5538 0.18776 0.0
C10 C 0.19181 0.6386 0.1596 0.0
C11 C 1.05064 0.59572 0.18585 0.0
C12 C 1.00472 0.5773 0.18641 0.0
C13 C 0.97566 0.54532 0.17322 0.0
C14 C 0.93213 0.52874 0.1729 0.0
C15 C 0.9169 0.54411 0.18559 0.0
C16 C 0.94609 0.5758 0.19914 0.0
C17 C 0.98977 0.59233 0.19949 0.0
C18 C 0.09851 0.57967 0.12365 0.0
C19 C 1.04052 0.49646 0.1532 0.0
O20 O 0.1562 0.51927 0.14009 0.0
O21 O 0.1773 0.56441 0.12216 0.0
O22 O 0.13309 0.52983 0.17636 0.0
O23 O 0.13971 0.57765 0.17677 0.0
O24 O 0.18885 0.61162 0.14872 0.0
O25 O 0.15958 0.63243 0.17006 0.0
O26 O 1.06761 0.60996 0.16856 0.0
O27 O 1.06333 0.5777 0.19216 0.0
O28 O 0.09905 0.60434 0.1348 0.0
O29 O 0.09171 0.55649 0.13513 0.0
O30 O 1.04464 0.52352 0.16464 0.0
O31 O 0.07144 0.50279 0.14141 0.0
H32 H 0.22039 0.53587 0.16005 0.0
H33 H 0.29259 0.5554 0.16376 0.0
H34 H 0.31923 0.59784 0.10381 0.0
H35 H 0.24566 0.57654 0.09971 0.0
H36 H 0.98669 0.53352 0.16288 0.0
H37 H 0.91043 0.50402 0.16256 0.0
H38 H 0.93538 0.58842 0.20898 0.0
H39 H 1.01194 0.61717 0.20967 0.0
La40 La 0.62201 0.04755 0.48903 0.0
La41 La 0.56402 0.06677 0.48102 0.0
C42 C 0.65588 0.0211 0.50282 0.0
C43 C 0.64243 0.98441 0.50526 0.0
C44 C 0.66887 0.98091 0.51708 0.0
C45 C 0.65737 0.94643 0.51922 0.0
C46 C 0.61913 0.91468 0.50949 0.0
C47 C 0.59259 0.91834 0.49764 0.0
C48 C 0.6042 0.95293 0.49551 0.0
C49 C 0.61501 0.05685 0.45019 0.0
C50 C 0.52101 0.98482 0.481 0.0
C51 C 0.52828 0.0925 0.46856 0.0
C52 C 0.53645 0.12811 0.47092 0.0
C53 C 0.50456 0.12991 0.47852 0.0
C54 C 0.51196 0.16339 0.48184 0.0
C55 C 0.55152 0.1959 0.47765 0.0
C56 C 0.58322 0.19398 0.46966 0.0
C57 C 0.57569 0.1604 0.46624 0.0
C58 C 0.57305 0.05887 0.51998 0.0
C59 C 0.66598 0.12994 0.48823 0.0
O60 O 0.65799 0.0289 0.48366 0.0
O61 O 0.63804 0.03208 0.51456 0.0
O62 O 0.64897 0.06398 0.45888 0.0
O63 O 0.58499 0.04131 0.46237 0.0
O64 O 0.55743 0.99555 0.49001 0.0
O65 O 0.51816 1.00819 0.47265 0.0
O66 O 0.51894 0.07612 0.4855 0.0
O67 O 0.55432 0.08997 0.45756 0.0
O68 O 0.53788 0.04959 0.51143 0.0
O69 O 0.60191 0.07394 0.50728 0.0
O70 O 0.62831 0.11968 0.4812 0.0
O71 O 0.67032 0.10638 0.49506 0.0
H72 H 0.69873 1.00495 0.52449 0.0
H73 H 0.67897 0.94475 0.52815 0.0
H74 H 0.56281 0.8945 0.49005 0.0
H75 H 0.58359 0.95509 0.48608 0.0
H76 H 0.47402 0.10538 0.48221 0.0
H77 H 0.48703 0.16389 0.48823 0.0
H78 H 0.61383 0.21843 0.466 0.0
H79 H 0.60062 0.15976 0.46007 0.0
La80 La 0.64799 0.56944 0.8466 0.0
La81 La 0.58749 0.48909 0.84836 0.0
C82 C 0.68517 0.63351 0.83729 0.0
C83 C 0.67315 0.65686 0.83295 0.0
C84 C 0.68799 0.68778 0.84679 0.0
C85 C 0.67797 0.71079 0.84286 0.0
C86 C 0.65321 0.70366 0.82483 0.0
C87 C 0.6382 0.67254 0.811 0.0
C88 C 0.64798 0.64935 0.81502 0.0
C89 C 0.6369 0.54765 0.88394 0.0
C90 C 0.54638 0.52869 0.84881 0.0
C91 C 0.55133 0.42532 0.85789 0.0
C92 C 0.56098 0.39961 0.85434 0.0
C93 C 0.58993 0.40513 0.83952 0.0
C94 C 0.59913 0.38071 0.83615 0.0
C95 C 0.5799 0.35042 0.8477 0.0
C96 C 0.55117 0.3453 0.86271 0.0
C97 C 0.54156 0.36953 0.86585 0.0
C98 C 0.59683 0.50988 0.8109 0.0
C99 C 0.68995 0.53022 0.84628 0.0
O100 O 0.68165 0.62515 0.85642 0.0
O101 O 0.67206 0.60568 0.82359 0.0
O102 O 0.67342 0.57507 0.87806 0.0
O103 O 0.6086 0.53483 0.86958 0.0
O104 O 0.58402 0.55683 0.84277 0.0
O105 O 0.54205 0.50026 0.85504 0.0
O106 O 0.54068 0.43267 0.84116 0.0
O107 O 0.57867 0.4548 0.87048 0.0
O108 O 0.56135 0.4818 0.81709 0.0
O109 O 0.62614 0.52347 0.82492 0.0
O110 O 0.65085 0.50011 0.84916 0.0
O111 O 0.69629 0.56089 0.84317 0.0
H112 H 0.70751 0.69424 0.86071 0.0
H113 H 0.68949 0.73409 0.85406 0.0
H114 H 0.61956 0.66642 0.79682 0.0
H115 H 0.63612 0.62579 0.80397 0.0
H116 H 0.60512 0.42817 0.8304 0.0
H117 H 0.62071 0.38528 0.82418 0.0
H118 H 0.53628 0.32272 0.87215 0.0
H119 H 0.51937 0.36503 0.87747 0.0
H120 H 0.58662 0.03857 0.16695 0.0
H121 H 0.64734 0.10502 0.22536 0.0
H122 H 0.542 0.9909 0.22478 0.0
H123 H 0.6442 0.1444 0.20414 0.0
C124 C 0.66157 0.14216 0.19185 0.0
C125 C 0.58922 0.04126 0.18382 0.0
C126 C 0.56067 1.01076 0.19467 0.0
C127 C 0.61982 0.07567 0.19484 0.0
C128 C 0.62286 0.07889 0.21677 0.0
C129 C 0.5954 0.04833 0.22768 0.0
C130 C 0.56415 0.01449 0.21649 0.0
N131 N 0.64755 0.10682 0.18384 0.0
H132 H 0.58983 0.53785 0.53178 0.0
H133 H 0.59599 0.58303 0.59399 0.0
H134 H 0.61286 0.50053 0.58457 0.0
H135 H 0.57302 0.57273 0.52161 0.0
C136 C 0.57929 0.59232 0.53443 0.0
C137 C 0.59397 0.53917 0.54846 0.0
C138 C 0.60185 0.51659 0.55657 0.0
C139 C 0.59236 0.5636 0.56207 0.0
C140 C 0.59753 0.56441 0.58359 0.0
C141 C 0.60512 0.54194 0.59182 0.0
C142 C 0.60783 0.51848 0.57823 0.0
N143 N 0.58676 0.5886 0.55517 0.0
H144 H 0.08826 0.53088 0.8384 0.0
H145 H 0.14592 0.53787 0.89697 0.0
H146 H 1.04363 0.54549 0.89637 0.0
H147 H 0.14648 0.49348 0.87584 0.0
C148 C 0.16602 0.51243 0.86448 0.0
C149 C 0.09016 0.53396 0.85526 0.0
C150 C 1.06145 0.53772 0.86618 0.0
C151 C 0.12111 0.53387 0.86638 0.0
C152 C 0.12266 0.53781 0.88831 0.0
C153 C 0.0948 0.54175 0.89925 0.0
C154 C 1.06479 0.54192 0.88802 0.0
N155 N 0.15111 0.53061 0.85591 0.0
H156 H 0.12467 0.58635 0.47094 0.0
H157 H 1.06017 0.51714 0.41379 0.0
H158 H 0.17108 0.62877 0.41195 0.0
H159 H 1.00204 0.50534 0.43647 0.0
C160 C 1.01254 0.49635 0.44806 0.0
C161 C 0.1224 0.58242 0.45408 0.0
C162 C 0.15207 0.61172 0.44262 0.0
C163 C 0.08822 0.54859 0.44367 0.0
C164 C 0.08541 0.54364 0.42176 0.0
C165 C 0.1155 0.57223 0.41016 0.0
C166 C 0.14829 0.60621 0.42076 0.0
N167 N 1.05646 0.51971 0.45519 0.0
H168 H 0.61401 0.04957 0.79847 0.0
H169 H 0.6026 0.99387 0.73909 0.0
H170 H 0.62616 0.09704 0.74184 0.0
H171 H 0.5529 0.94366 0.75944 0.0
C172 C 0.5769 0.95337 0.77194 0.0
C173 C 0.61431 0.04855 0.78163 0.0
C174 C 0.62091 0.07704 0.77157 0.0
C175 C 0.60735 0.01835 0.77005 0.0
C176 C 0.60734 0.01682 0.74819 0.0
C177 C 0.6148 0.04542 0.738 0.0
C178 C 0.62185 0.07552 0.74976 0.0
N179 N 0.60181 0.99039 0.78064 0.0
H180 H 0.4743 0.39684 0.13202 0.0
H181 H 0.49375 0.34752 0.0788 0.0
H182 H 0.54805 0.46079 0.08239 0.0
H183 H 0.44685 0.31526 0.14659 0.0
C184 C 0.47199 0.33509 0.13715 0.0
C185 C 0.48908 0.39955 0.11739 0.0
C186 C 0.51113 0.43248 0.10827 0.0
C187 C 0.4834 0.36903 0.10694 0.0
C188 C 0.49938 0.37136 0.08719 0.0
C189 C 0.52382 0.40486 0.07868 0.0
C190 C 0.53023 0.4353 0.08944 0.0
N191 N 0.46146 0.33588 0.11629 0.0
H192 H 0.35215 0.56909 0.10292 0.0
H193 H 0.41246 0.56842 0.10665 0.0
H194 H 0.42721 0.60295 0.17229 0.0
H195 H 0.36723 0.60472 0.16862 0.0
H196 H 0.49848 0.61245 0.12263 0.0
H197 H 0.43355 0.54259 0.19584 0.0
H198 H 0.36923 0.51391 0.21623 0.0
H199 H 0.29048 0.47754 0.15992 0.0
H200 H 0.35425 0.50552 0.13924 0.0
H201 H 0.51947 0.45986 0.14917 0.0
H202 H 0.51205 0.50676 0.162 0.0
H203 H 0.48832 0.51625 0.09875 0.0
H204 H 0.49642 0.47076 0.08605 0.0
H205 H 0.44491 0.50377 0.15942 0.0
H206 H 0.5154 0.59287 0.08942 0.0
H207 H 0.57672 0.61694 0.06744 0.0
H208 H 0.64553 0.61245 0.11637 0.0
H209 H 0.58486 0.58879 0.13879 0.0
C210 C 0.36917 0.57804 0.11801 0.0
C211 C 0.35424 0.58625 0.13556 0.0
C212 C 0.40378 0.57766 0.12012 0.0
C213 C 0.42386 0.58514 0.13979 0.0
C214 C 0.41183 0.59679 0.157 0.0
C215 C 0.37729 0.5974 0.1549 0.0
C216 C 0.45105 0.57392 0.1425 0.0
C217 C 0.48739 0.58907 0.13091 0.0
C218 C 0.43727 0.5442 0.1539 0.0
C219 C 0.39863 0.52653 0.16608 0.0
C220 C 0.40246 0.52837 0.18785 0.0
C221 C 0.36612 0.51223 0.19944 0.0
C222 C 0.32581 0.49404 0.18938 0.0
C223 C 0.32172 0.49173 0.1677 0.0
C224 C 0.35793 0.5077 0.15604 0.0
C225 C 0.51334 0.4725 0.13807 0.0
C226 C 0.50946 0.46217 0.11658 0.0
C227 C 0.50934 0.49936 0.14539 0.0
C228 C 0.50095 0.51592 0.13132 0.0
C229 C 0.49674 0.50526 0.10991 0.0
C230 C 0.50123 0.47898 0.10264 0.0
C231 C 0.49121 0.54099 0.13857 0.0
C232 C 0.45789 0.5284 0.15202 0.0
C233 C 0.50801 0.57314 0.12893 0.0
C234 C 0.54551 0.58913 0.11585 0.0
C235 C 0.54381 0.59749 0.09563 0.0
C236 C 0.57841 0.6109 0.08305 0.0
C237 C 0.61501 0.61625 0.09051 0.0
C238 C 0.61715 0.6083 0.1106 0.0
C239 C 0.58265 0.59485 0.12326 0.0
H240 H 0.64169 0.62652 0.08071 0.0
H241 H 0.29775 0.48165 0.19839 0.0
H242 H 0.66959 0.18527 0.47417 0.0
H243 H 0.73272 0.2472 0.47007 0.0
H244 H 0.81278 0.22515 0.49686 0.0
H245 H 0.74936 0.16261 0.501 0.0
H246 H 0.83682 0.29601 0.51069 0.0
H247 H 0.80755 0.22153 0.44719 0.0
H248 H 0.7612 0.17579 0.41777 0.0
H249 H 0.73496 0.24588 0.39767 0.0
H250 H 0.78046 0.29177 0.42727 0.0
H251 H 1.02482 0.45757 0.47287 0.0
H252 H 0.97017 0.3952 0.482 0.0
H253 H 0.87334 0.39087 0.4484 0.0
H254 H 0.92775 0.45242 0.4389 0.0
H255 H 0.86311 0.33064 0.43842 0.0
H256 H 0.88618 0.40225 0.50313 0.0
H257 H 0.92884 0.44702 0.53356 0.0
H258 H 0.96506 0.38257 0.5516 0.0
H259 H 0.92302 0.33763 0.52112 0.0
C260 C 0.70044 0.19347 0.47938 0.0
C261 C 0.70425 0.16867 0.48773 0.0
C262 C 0.7366 0.229 0.477 0.0
C263 C 0.77751 0.24067 0.48292 0.0
C264 C 0.78149 0.21666 0.49215 0.0
C265 C 0.74519 0.18089 0.49444 0.0
C266 C 0.8159 0.27729 0.47834 0.0
C267 C 0.8431 0.3035 0.49487 0.0
C268 C 0.8237 0.28711 0.45772 0.0
C269 C 0.79721 0.26 0.43956 0.0
C270 C 0.79171 0.22712 0.43658 0.0
C271 C 0.76559 0.20115 0.41986 0.0
C272 C 0.74511 0.20789 0.40587 0.0
C273 C 0.75083 0.24069 0.40853 0.0
C274 C 0.77681 0.2667 0.42527 0.0
C275 C 0.99181 0.44334 0.46761 0.0
C276 C 0.98044 0.45983 0.45521 0.0
C277 C 0.96055 0.40772 0.47286 0.0
C278 C 0.91743 0.38823 0.46598 0.0
C279 C 0.90628 0.4051 0.45384 0.0
C280 C 0.93739 0.44039 0.4485 0.0
C281 C 0.88368 0.35 0.47082 0.0
C282 C 0.85728 0.32327 0.45426 0.0
C283 C 0.8766 0.33983 0.49141 0.0
C284 C 0.90189 0.36683 0.50971 0.0
C285 C 0.90354 0.39779 0.51349 0.0
C286 C 0.92755 0.42316 0.53077 0.0
C287 C 0.94976 0.41771 0.54447 0.0
C288 C 0.94791 0.3868 0.54095 0.0
C289 C 0.92399 0.36137 0.52369 0.0
H290 H 0.96832 0.43737 0.55784 0.0
H291 H 0.72485 0.18773 0.39295 0.0
H292 H 0.70615 0.77844 0.83178 0.0
H293 H 0.69065 0.81981 0.82445 0.0
H294 H 0.56431 0.72814 0.79968 0.0
H295 H 0.57893 0.6863 0.80756 0.0
H296 H 0.6081 0.78509 0.77397 0.0
H297 H 0.57428 0.76905 0.84589 0.0
H298 H 0.58871 0.76889 0.88295 0.0
H299 H 0.69554 0.88296 0.88648 0.0
H300 H 0.6821 0.88368 0.84934 0.0
H301 H 0.52519 0.88006 0.76296 0.0
H302 H 0.53593 0.83694 0.77339 0.0
H303 H 0.65384 0.92577 0.80734 0.0
H304 H 0.64225 0.96875 0.79758 0.0
H305 H 0.61378 0.86955 0.82875 0.0
H306 H 0.65138 0.88707 0.75786 0.0
H307 H 0.64121 0.8892 0.72053 0.0
H308 H 0.53326 0.77533 0.71452 0.0
H309 H 0.54245 0.77264 0.75189 0.0
C310 C 0.67478 0.76692 0.82509 0.0
C311 C 0.64374 0.72891 0.82035 0.0
C312 C 0.66608 0.79068 0.82082 0.0
C313 C 0.62625 0.77701 0.81166 0.0
C314 C 0.59529 0.73921 0.80674 0.0
C315 C 0.60382 0.71537 0.81115 0.0
C316 C 0.6173 0.80228 0.80682 0.0
C317 C 0.60867 0.80318 0.78596 0.0
C318 C 0.61946 0.82667 0.82242 0.0
C319 C 0.62742 0.82633 0.84478 0.0
C320 C 0.60106 0.79403 0.85452 0.0
C321 C 0.60902 0.79385 0.87555 0.0
C322 C 0.64309 0.82587 0.88705 0.0
C323 C 0.66919 0.85817 0.87755 0.0
C324 C 0.66139 0.85848 0.85652 0.0
C325 C 0.5532 0.89027 0.7728 0.0
C326 C 0.58289 0.92765 0.77942 0.0
C327 C 0.55948 0.86568 0.77864 0.0
C328 C 0.59617 0.87815 0.79081 0.0
C329 C 0.62536 0.91548 0.7979 0.0
C330 C 0.61874 0.94003 0.79229 0.0
C331 C 0.60441 0.85238 0.79584 0.0
C332 C 0.61304 0.85142 0.81672 0.0
C333 C 0.60288 0.82826 0.78021 0.0
C334 C 0.59735 0.82975 0.75772 0.0
C335 C 0.62529 0.86255 0.74861 0.0
C336 C 0.61973 0.86385 0.72744 0.0
C337 C 0.58654 0.83245 0.71518 0.0
C338 C 0.55892 0.79965 0.72405 0.0
C339 C 0.5643 0.79821 0.74522 0.0
H340 H 0.58229 0.83351 0.69879 0.0
H341 H 0.6492 0.82567 0.90333 0.0
H342 H 0.86479 0.53372 0.21718 0.0
H343 H 0.7884 0.50517 0.21398 0.0
H344 H 0.78911 0.48842 0.14723 0.0
H345 H 0.86529 0.51801 0.15023 0.0
H346 H 0.74351 0.51104 0.1568 0.0
H347 H 0.7541 0.41993 0.17871 0.0
H348 H 0.77751 0.39553 0.20221 0.0
H349 H 0.71323 0.40692 0.25211 0.0
H350 H 0.68987 0.43183 0.22894 0.0
H351 H 0.54373 0.35935 0.11645 0.0
H352 H 0.61774 0.40212 0.13001 0.0
H353 H 0.57613 0.40728 0.19117 0.0
H354 H 0.50106 0.36441 0.17738 0.0
H355 H 0.64017 0.3985 0.19088 0.0
H356 H 0.62454 0.48518 0.16682 0.0
H357 H 0.60106 0.50785 0.14201 0.0
H358 H 0.6719 0.49996 0.09451 0.0
H359 H 0.69708 0.47846 0.11929 0.0
C360 C 0.8487 0.52433 0.20182 0.0
C361 C 0.87095 0.52774 0.18397 0.0
C362 C 0.80505 0.50782 0.20003 0.0
C363 C 0.78299 0.49434 0.18038 0.0
C364 C 0.80545 0.49858 0.16255 0.0
C365 C 0.84892 0.51512 0.16431 0.0
C366 C 0.73626 0.47467 0.17809 0.0
C367 C 0.72097 0.48651 0.16432 0.0
C368 C 0.70675 0.44315 0.18827 0.0
C369 C 0.72074 0.42818 0.20219 0.0
C370 C 0.74527 0.41751 0.19474 0.0
C371 C 0.75846 0.40354 0.20799 0.0
C372 C 0.74699 0.39981 0.22866 0.0
C373 C 0.72218 0.40993 0.23611 0.0
C374 C 0.70895 0.42396 0.22293 0.0
C375 C 0.55023 0.37016 0.13268 0.0
C376 C 0.51682 0.35963 0.14576 0.0
C377 C 0.59256 0.39449 0.14043 0.0
C378 C 0.60239 0.40861 0.16145 0.0
C379 C 0.56909 0.39705 0.17482 0.0
C380 C 0.52644 0.37261 0.16699 0.0
C381 C 0.64773 0.43439 0.16919 0.0
C382 C 0.66275 0.42368 0.18391 0.0
C383 C 0.67708 0.46678 0.15977 0.0
C384 C 0.66256 0.48014 0.14488 0.0
C385 C 0.63507 0.48826 0.15108 0.0
C386 C 0.62149 0.50092 0.13703 0.0
C387 C 0.63455 0.50494 0.11663 0.0
C388 C 0.66177 0.49681 0.11032 0.0
C389 C 0.67604 0.48472 0.12441 0.0
H390 H 0.62371 0.5145 0.10575 0.0
H391 H 0.75722 0.38897 0.23889 0.0
H392 H 0.51183 0.93131 0.50115 0.0
H393 H 0.44923 0.86724 0.50018 0.0
H394 H 0.38149 0.88558 0.45833 0.0
H395 H 0.44381 0.94994 0.45948 0.0
H396 H 0.33112 0.84479 0.48792 0.0
H397 H 0.42445 0.84156 0.44013 0.0
H398 H 0.4937 0.85623 0.43133 0.0
H399 H 0.48773 0.79867 0.48136 0.0
H400 H 0.41815 0.78344 0.49043 0.0
H401 H 0.17048 0.67577 0.43432 0.0
H402 H 0.23282 0.73745 0.44677 0.0
H403 H 0.27504 0.69384 0.48627 0.0
H404 H 0.21237 0.6314 0.47339 0.0
H405 H 0.33995 0.74566 0.46445 0.0
H406 H 0.23904 0.73905 0.50779 0.0
H407 H 0.17067 0.72578 0.51689 0.0
H408 H 0.19191 0.8036 0.47679 0.0
H409 H 0.26013 0.81698 0.4672 0.0
C410 C 0.48374 0.92174 0.49162 0.0
C411 C 0.48304 0.94578 0.48022 0.0
C412 C 0.44791 0.885 0.49109 0.0
C413 C 0.41072 0.87138 0.47899 0.0
C414 C 0.40979 0.89541 0.46779 0.0
C415 C 0.44554 0.93221 0.4684 0.0
C416 C 0.37275 0.83211 0.47784 0.0
C417 C 0.33297 0.82312 0.48264 0.0
C418 C 0.3754 0.80368 0.47182 0.0
C419 C 0.41626 0.8115 0.46598 0.0
C420 C 0.43787 0.83197 0.44922 0.0
C421 C 0.4771 0.84032 0.44418 0.0
C422 C 0.49498 0.82826 0.45576 0.0
C423 C 0.4736 0.80772 0.47236 0.0
C424 C 0.43422 0.79912 0.47741 0.0
C425 C 0.19274 0.67929 0.44587 0.0
C426 C 0.18662 0.64879 0.45286 0.0
C427 C 0.22831 0.71461 0.45307 0.0
C428 C 0.25859 0.72044 0.4676 0.0
C429 C 0.25206 0.69004 0.4751 0.0
C430 C 0.21613 0.65444 0.46789 0.0
C431 C 0.29791 0.75837 0.47383 0.0
C432 C 0.33805 0.76718 0.47006 0.0
C433 C 0.29562 0.78668 0.4809 0.0
C434 C 0.25465 0.77888 0.48669 0.0
C435 C 0.22902 0.75317 0.5008 0.0
C436 C 0.19029 0.74565 0.50606 0.0
C437 C 0.17693 0.7638 0.4974 0.0
C438 C 0.20231 0.78957 0.48349 0.0
C439 C 0.24105 0.79718 0.47816 0.0
H440 H 0.14693 0.75793 0.5015 0.0
H441 H 0.5254 0.83484 0.45186 0.0
H442 H 0.6557 0.36426 0.83746 0.0
H443 H 0.66804 0.31984 0.82748 0.0
H444 H 0.53788 0.23211 0.83954 0.0
H445 H 0.52435 0.27595 0.84849 0.0
H446 H 0.60494 0.22801 0.85538 0.0
H447 H 0.55299 0.24423 0.79311 0.0
H448 H 0.55436 0.28114 0.76749 0.0
H449 H 0.68218 0.32313 0.75352 0.0
H450 H 0.68178 0.28686 0.77931 0.0
H451 H 0.56748 0.07176 0.80043 0.0
H452 H 0.56698 0.12072 0.81669 0.0
H453 H 0.68085 0.19951 0.7858 0.0
H454 H 0.68042 0.15026 0.76894 0.0
H455 H 0.62726 0.2117 0.7809 0.0
H456 H 0.67948 0.19327 0.8404 0.0
H457 H 0.68153 0.15884 0.86658 0.0
H458 H 0.55959 0.12428 0.88681 0.0
H459 H 0.55652 0.1581 0.86054 0.0
C460 C 0.6295 0.33553 0.83786 0.0
C461 C 0.58881 0.32379 0.84357 0.0
C462 C 0.63681 0.31024 0.83235 0.0
C463 C 0.60382 0.27278 0.83274 0.0
C464 C 0.56379 0.26097 0.83928 0.0
C465 C 0.55622 0.28617 0.84447 0.0
C466 C 0.61021 0.24574 0.82504 0.0
C467 C 0.60951 0.22411 0.83909 0.0
C468 C 0.61739 0.24158 0.80391 0.0
C469 C 0.61754 0.26319 0.78831 0.0
C470 C 0.58154 0.26161 0.78472 0.0
C471 C 0.5821 0.28235 0.77014 0.0
C472 C 0.61838 0.30456 0.75893 0.0
C473 C 0.65413 0.30597 0.76224 0.0
C474 C 0.65374 0.28532 0.77683 0.0
C475 C 0.59286 0.09964 0.79746 0.0
C476 C 0.62404 0.10727 0.78348 0.0
C477 C 0.59264 0.12766 0.8068 0.0
C478 C 0.62415 0.16401 0.80269 0.0
C479 C 0.65613 0.17174 0.78921 0.0
C480 C 0.65596 0.14364 0.77962 0.0
C481 C 0.62195 0.19345 0.81121 0.0
C482 C 0.62324 0.21561 0.79728 0.0
C483 C 0.61591 0.19836 0.83252 0.0
C484 C 0.61761 0.17799 0.84837 0.0
C485 C 0.65294 0.1781 0.85032 0.0
C486 C 0.65431 0.15873 0.86519 0.0
C487 C 0.62067 0.13932 0.87832 0.0
C488 C 0.58562 0.13931 0.87662 0.0
C489 C 0.58407 0.15861 0.86175 0.0
H490 H 0.62179 0.12434 0.88983 0.0
H491 H 0.61876 0.32059 0.74765 0.0
H492 H 0.58501 0.85735 0.47902 0.0
H493 H 0.57219 0.79938 0.4815 0.0
H494 H 0.61615 0.83181 0.54631 0.0
H495 H 0.62829 0.88942 0.54405 0.0
H496 H 0.6559 0.80915 0.52545 0.0
H497 H 0.51065 0.76485 0.5318 0.0
H498 H 0.44338 0.75341 0.52143 0.0
H499 H 0.43281 0.693 0.46447 0.0
H500 H 0.50026 0.70437 0.47442 0.0
H501 H 0.59806 0.64873 0.56228 0.0
H502 H 0.60025 0.70029 0.55543 0.0
H503 H 0.56324 0.6581 0.49072 0.0
H504 H 0.56087 0.60582 0.49753 0.0
H505 H 0.52007 0.68442 0.50795 0.0
H506 H 0.66353 0.72619 0.50261 0.0
H507 H 0.72965 0.73626 0.51363 0.0
H508 H 0.74356 0.80183 0.56881 0.0
H509 H 0.67713 0.7917 0.55826 0.0
C510 C 0.59107 0.85182 0.49391 0.0
C511 C 0.60794 0.87817 0.51131 0.0
C512 C 0.58384 0.81867 0.49529 0.0
C513 C 0.59325 0.81123 0.51409 0.0
C514 C 0.60893 0.83705 0.5316 0.0
C515 C 0.61603 0.87006 0.53026 0.0
C516 C 0.58947 0.77772 0.51534 0.0
C517 C 0.62604 0.7819 0.52184 0.0
C518 C 0.55092 0.74214 0.50992 0.0
C519 C 0.51072 0.73576 0.50376 0.0
C520 C 0.49418 0.7494 0.51698 0.0
C521 C 0.45591 0.74278 0.51122 0.0
C522 C 0.4338 0.72244 0.49232 0.0
C523 C 0.44994 0.70871 0.47912 0.0
C524 C 0.48815 0.71518 0.48482 0.0
C525 C 0.59021 0.65017 0.54657 0.0
C526 C 0.57945 0.62321 0.53037 0.0
C527 C 0.59156 0.67979 0.54268 0.0
C528 C 0.58232 0.68324 0.52253 0.0
C529 C 0.57054 0.65597 0.50639 0.0
C530 C 0.56936 0.62626 0.51026 0.0
C531 C 0.58626 0.71602 0.51851 0.0
C532 C 0.54992 0.71172 0.51141 0.0
C533 C 0.62504 0.75161 0.52336 0.0
C534 C 0.66514 0.75793 0.52972 0.0
C535 C 0.6805 0.74252 0.51717 0.0
C536 C 0.71807 0.74828 0.52332 0.0
C537 C 0.74074 0.76961 0.54193 0.0
C538 C 0.72594 0.78529 0.5544 0.0
C539 C 0.68835 0.77958 0.54834 0.0
H540 H 0.76983 0.77403 0.54666 0.0
H541 H 0.40423 0.7174 0.48787 0.0
H542 H 0.68982 0.47049 0.84349 0.0
H543 H 0.75079 0.46965 0.84301 0.0
H544 H 0.83721 0.5874 0.84962 0.0
H545 H 0.77626 0.58816 0.84896 0.0
H546 H 0.87209 0.57001 0.82578 0.0
H547 H 0.81217 0.52359 0.89155 0.0
H548 H 0.75996 0.4826 0.91613 0.0
H549 H 0.74345 0.39122 0.882 0.0
H550 H 0.79558 0.43174 0.85721 0.0
H551 H 1.05937 0.59478 0.86364 0.0
H552 H 0.99677 0.59196 0.85668 0.0
H553 H 0.91991 0.47545 0.84155 0.0
H554 H 0.98284 0.47846 0.84866 0.0
H555 H 0.8793 0.4894 0.86737 0.0
H556 H 0.94495 0.537 0.80415 0.0
H557 H 1.00275 0.57897 0.7819 0.0
H558 H 1.01038 0.66863 0.81195 0.0
H559 H 0.95299 0.62728 0.83459 0.0
C560 C 0.7218 0.4963 0.84486 0.0
C561 C 0.72757 0.52942 0.84628 0.0
C562 C 0.75708 0.49581 0.8448 0.0
C563 C 0.79968 0.52849 0.84672 0.0
C564 C 0.80528 0.56155 0.84808 0.0
C565 C 0.77006 0.56202 0.84777 0.0
C566 C 0.83826 0.52856 0.84694 0.0
C567 C 0.87356 0.55262 0.83519 0.0
C568 C 0.8409 0.50526 0.85847 0.0
C569 C 0.80744 0.48061 0.87246 0.0
C570 C 0.79699 0.49469 0.88916 0.0
C571 C 0.76757 0.47155 0.90318 0.0
C572 C 0.74851 0.43433 0.90067 0.0
C573 C 0.75835 0.42007 0.88396 0.0
C574 C 0.78784 0.4431 0.86994 0.0
C575 C 1.02953 0.56875 0.85799 0.0
C576 C 1.02677 0.53703 0.85606 0.0
C577 C 0.99338 0.56706 0.85413 0.0
C578 C 0.95289 0.53348 0.84837 0.0
C579 C 0.95039 0.50185 0.84586 0.0
C580 C 0.9867 0.5036 0.8496 0.0
C581 C 0.91302 0.53113 0.84654 0.0
C582 C 0.87759 0.50666 0.85794 0.0
C583 C 0.91037 0.5541 0.83475 0.0
C584 C 0.94492 0.57907 0.8212 0.0
C585 C 0.95919 0.56572 0.80613 0.0
C586 C 0.99183 0.58939 0.79343 0.0
C587 C 1.0103 0.62646 0.79555 0.0
C588 C 0.99608 0.63992 0.81035 0.0
C589 C 0.96346 0.61636 0.8231 0.0
H590 H 1.03557 0.64474 0.78569 0.0
H591 H 0.72623 0.41648 0.91169 0.0
H592 H 0.20529 0.70172 0.17415 0.0
H593 H 0.2715 0.76413 0.1751 0.0
H594 H 0.33686 0.72392 0.14855 0.0
H595 H 0.27039 0.66107 0.14736 0.0
H596 H 0.38312 0.77879 0.18297 0.0
H597 H 0.31069 0.7586 0.11857 0.0
H598 H 0.24861 0.73862 0.09606 0.0
H599 H 0.24684 0.82237 0.12767 0.0
H600 H 0.3079 0.84194 0.15103 0.0
H601 H 0.56615 0.96139 0.1725 0.0
H602 H 0.50644 0.89719 0.16098 0.0
H603 H 0.41686 0.915 0.18226 0.0
H604 H 0.47635 0.97882 0.19376 0.0
H605 H 0.38696 0.86943 0.1458 0.0
H606 H 0.44933 0.88226 0.21319 0.0
H607 H 0.50812 0.90085 0.23792 0.0
H608 H 0.52719 0.83104 0.20143 0.0
H609 H 0.46893 0.81253 0.17625 0.0
C610 C 0.23371 0.70602 0.16856 0.0
C611 C 0.23247 0.67636 0.16063 0.0
C612 C 0.27152 0.74177 0.16906 0.0
C613 C 0.309 0.74869 0.16175 0.0
C614 C 0.30824 0.71916 0.15423 0.0
C615 C 0.2702 0.6833 0.1535 0.0
C616 C 0.34865 0.78691 0.16184 0.0
C617 C 0.38435 0.79846 0.17448 0.0
C618 C 0.3499 0.81267 0.15104 0.0
C619 C 0.31375 0.80157 0.1367 0.0
C620 C 0.29688 0.77259 0.12087 0.0
C621 C 0.26186 0.76134 0.10793 0.0
C622 C 0.24387 0.77929 0.11035 0.0
C623 C 0.26083 0.8085 0.12579 0.0
C624 C 0.2956 0.81963 0.13894 0.0
C625 C 0.53361 0.95168 0.17411 0.0
C626 C 0.52557 0.97484 0.18382 0.0
C627 C 0.49959 0.91506 0.16769 0.0
C628 C 0.45717 0.9012 0.17094 0.0
C629 C 0.44923 0.92505 0.17953 0.0
C630 C 0.48315 0.96146 0.18608 0.0
C631 C 0.42119 0.86144 0.16719 0.0
C632 C 0.38608 0.84962 0.15393 0.0
C633 C 0.42033 0.83545 0.17754 0.0
C634 C 0.45518 0.84639 0.1927 0.0
C635 C 0.46632 0.87113 0.21034 0.0
C636 C 0.4995 0.88161 0.22445 0.0
C637 C 0.52147 0.86722 0.22121 0.0
C638 C 0.51021 0.84223 0.20388 0.0
C639 C 0.47713 0.83175 0.18968 0.0
H640 H 0.54713 0.87534 0.23217 0.0
H641 H 0.21679 0.77056 0.10028 0.0
H642 H 0.49775 0.21256 0.47014 0.0
H643 H 0.50997 0.27019 0.47999 0.0
H644 H 0.63652 0.31791 0.50519 0.0
H645 H 0.62416 0.26011 0.49584 0.0
H646 H 0.59337 0.33029 0.53212 0.0
H647 H 0.62205 0.34188 0.45962 0.0
H648 H 0.60629 0.32225 0.42194 0.0
H649 H 0.49571 0.31865 0.42422 0.0
H650 H 0.51048 0.33778 0.46199 0.0
H651 H 0.66405 0.5085 0.55525 0.0
H652 H 0.65938 0.45756 0.53762 0.0
H653 H 0.53468 0.41153 0.51044 0.0
H654 H 0.53994 0.46326 0.52764 0.0
H655 H 0.57736 0.39872 0.48369 0.0
H656 H 0.54544 0.38401 0.55551 0.0
H657 H 0.55877 0.4026 0.59332 0.0
H658 H 0.67167 0.40954 0.5926 0.0
H659 H 0.6594 0.39158 0.55469 0.0
C660 C 0.52821 0.23533 0.47777 0.0
C661 C 0.55995 0.23168 0.48224 0.0
C662 C 0.5353 0.26838 0.48321 0.0
C663 C 0.5743 0.2985 0.49319 0.0
C664 C 0.60623 0.29508 0.49744 0.0
C665 C 0.59923 0.26209 0.49194 0.0
C666 C 0.581 0.33294 0.50019 0.0
C667 C 0.59059 0.34557 0.52145 0.0
C668 C 0.57596 0.35225 0.48641 0.0
C669 C 0.56716 0.34094 0.46368 0.0
C670 C 0.59418 0.33663 0.45212 0.0
C671 C 0.58546 0.32564 0.43074 0.0
C672 C 0.54996 0.31912 0.4207 0.0
C673 C 0.52317 0.32367 0.43202 0.0
C674 C 0.53173 0.33463 0.45341 0.0
C675 C 0.63607 0.48788 0.54515 0.0
C676 C 0.60221 0.48958 0.54291 0.0
C677 C 0.63331 0.45871 0.53516 0.0
C678 C 0.5962 0.4302 0.52313 0.0
C679 C 0.56352 0.43309 0.51974 0.0
C680 C 0.56655 0.46264 0.52953 0.0
C681 C 0.5902 0.39622 0.51557 0.0
C682 C 0.58045 0.38355 0.4943 0.0
C683 C 0.59463 0.37655 0.52937 0.0
C684 C 0.60172 0.38679 0.55223 0.0
C685 C 0.57325 0.38972 0.56339 0.0
C686 C 0.58061 0.40014 0.58484 0.0
C687 C 0.6161 0.40733 0.59535 0.0
C688 C 0.64423 0.40401 0.58443 0.0
C689 C 0.63708 0.3937 0.56296 0.0
H690 H 0.62175 0.41541 0.61196 0.0
H691 H 0.54327 0.31061 0.40415 0.0
H692 H 0.46859 0.48163 0.86588 0.0
H693 H 0.40745 0.48205 0.86639 0.0
H694 H 0.4759 0.57699 0.83254 0.0
H695 H 0.53804 0.57742 0.83268 0.0
H696 H 0.43283 0.58539 0.85882 0.0
H697 H 0.38986 0.48476 0.80974 0.0
H698 H 0.37741 0.42765 0.79646 0.0
H699 H 0.28934 0.37175 0.84393 0.0
H700 H 0.30169 0.42866 0.85767 0.0
H701 H 0.23533 0.56218 0.84077 0.0
H702 H 0.301 0.56806 0.83549 0.0
H703 H 0.2533 0.47874 0.87237 0.0
H704 H 0.18855 0.47277 0.87741 0.0
H705 H 0.28727 0.46994 0.84052 0.0
H706 H 0.33453 0.57365 0.89021 0.0
H707 H 0.34752 0.63145 0.90223 0.0
H708 H 0.42735 0.68201 0.85125 0.0
H709 H 0.41436 0.62434 0.83878 0.0
C710 C 0.47086 0.50267 0.85849 0.0
C711 C 0.50868 0.52933 0.84911 0.0
C712 C 0.43539 0.50275 0.85865 0.0
C713 C 0.43582 0.52904 0.84907 0.0
C714 C 0.47393 0.55614 0.84001 0.0
C715 C 0.50969 0.5563 0.84003 0.0
C716 C 0.39674 0.52809 0.8486 0.0
C717 C 0.40115 0.56013 0.85448 0.0
C718 C 0.3547 0.4954 0.84311 0.0
C719 C 0.34699 0.46106 0.83483 0.0
C720 C 0.36804 0.46034 0.81742 0.0
C721 C 0.36097 0.428 0.80981 0.0
C722 C 0.33267 0.39611 0.81938 0.0
C723 C 0.31129 0.39648 0.83655 0.0
C724 C 0.31827 0.42876 0.84424 0.0
C725 C 0.2388 0.54369 0.8476 0.0
C726 C 0.20621 0.51685 0.85947 0.0
C727 C 0.27668 0.54721 0.84472 0.0
C728 C 0.283 0.52402 0.85364 0.0
C729 C 0.24996 0.49706 0.86518 0.0
C730 C 0.21262 0.49369 0.86809 0.0
C731 C 0.3232 0.52697 0.85122 0.0
C732 C 0.31899 0.49524 0.84474 0.0
C733 C 0.36532 0.55999 0.85595 0.0
C734 C 0.37304 0.59457 0.86342 0.0
C735 C 0.35456 0.59701 0.88147 0.0
C736 C 0.36197 0.62976 0.88838 0.0
C737 C 0.38812 0.66034 0.87747 0.0
C738 C 0.40701 0.65827 0.85966 0.0
C739 C 0.39964 0.62557 0.85267 0.0
H740 H 0.39384 0.68568 0.88285 0.0
H741 H 0.32726 0.3711 0.81346 0.0
H742 H 1.01965 0.4325 0.13318 0.0
H743 H 0.95565 0.3701 0.13691 0.0
H744 H 0.90718 0.4125 0.17871 0.0
H745 H 0.97086 0.47452 0.17532 0.0
H746 H 0.90235 0.35926 0.19462 0.0
H747 H 0.86518 0.37668 0.12839 0.0
H748 H 0.87588 0.39074 0.09186 0.0
H749 H 0.87826 0.30095 0.0754 0.0
H750 H 0.86814 0.28665 0.11192 0.0
H751 H 0.68906 0.21043 0.20354 0.0
H752 H 0.75366 0.26804 0.19414 0.0
H753 H 0.78551 0.20917 0.1549 0.0
H754 H 0.72002 0.15104 0.16405 0.0
H755 H 0.80245 0.26759 0.13669 0.0
H756 H 0.83563 0.24799 0.2024 0.0
H757 H 0.82492 0.23375 0.23889 0.0
H758 H 0.83117 0.32781 0.25636 0.0
H759 H 0.8413 0.34234 0.21991 0.0
C760 C 0.99516 0.42854 0.143 0.0
C761 C 1.00051 0.45863 0.15394 0.0
C762 C 0.95852 0.39282 0.14508 0.0
C763 C 0.92646 0.38653 0.15805 0.0
C764 C 0.93147 0.41658 0.16866 0.0
C765 C 0.96795 0.45215 0.16662 0.0
C766 C 0.88845 0.34882 0.16144 0.0
C767 C 0.88031 0.33938 0.18194 0.0
C768 C 0.86042 0.32234 0.14487 0.0
C769 C 0.8664 0.33086 0.12292 0.0
C770 C 0.86835 0.36013 0.11701 0.0
C771 C 0.87423 0.3681 0.0963 0.0
C772 C 0.87788 0.34682 0.08133 0.0
C773 C 0.87551 0.31745 0.08702 0.0
C774 C 0.86967 0.30938 0.10772 0.0
C775 C 0.70966 0.20973 0.19277 0.0
C776 C 0.69963 0.17629 0.18462 0.0
C777 C 0.74668 0.24268 0.18748 0.0
C778 C 0.77492 0.24303 0.1741 0.0
C779 C 0.76431 0.20959 0.16533 0.0
C780 C 0.72695 0.17641 0.17059 0.0
C781 C 0.81589 0.27849 0.16992 0.0
C782 C 0.82469 0.28742 0.14932 0.0
C783 C 0.84473 0.3046 0.18639 0.0
C784 C 0.83892 0.29609 0.20838 0.0
C785 C 0.83443 0.2655 0.21399 0.0
C786 C 0.8285 0.2574 0.23468 0.0
C787 C 0.82729 0.27982 0.24993 0.0
C788 C 0.83209 0.31045 0.24453 0.0
C789 C 0.83798 0.31866 0.22386 0.0
H790 H 0.82269 0.2735 0.26593 0.0
H791 H 0.88243 0.35303 0.0653 0.0
H792 H 0.10364 0.53193 0.09947 0.0
H793 H 0.10803 0.52748 0.06173 0.0
H794 H 0.09743 0.61366 0.0583 0.0
H795 H 0.09635 0.61994 0.09627 0.0
H796 H 1.05739 0.50808 0.03179 0.0
H797 H 0.14026 0.65792 0.01557 0.0
H798 H 0.19443 0.72078 0.03182 0.0
H799 H 0.24888 0.68404 0.0681 0.0
H800 H 0.19542 0.62101 0.05182 0.0
H801 H 1.02803 0.51233 0.92504 0.0
H802 H 1.03131 0.5199 0.96295 0.0
H803 H 0.16879 0.58516 0.96433 0.0
H804 H 0.16602 0.57992 0.92633 0.0
H805 H 0.14962 0.61488 0.99176 0.0
H806 H 0.10177 0.49338 0.97563 0.0
H807 H 1.05659 0.43023 0.95865 0.0
H808 H 0.9468 0.40947 0.98754 0.0
H809 H 0.99123 0.47268 0.00447 0.0
C810 C 0.10301 0.55035 0.09068 0.0
C811 C 0.10031 0.57665 0.10079 0.0
C812 C 0.10517 0.5476 0.06906 0.0
C813 C 0.10372 0.57057 0.05702 0.0
C814 C 0.09993 0.59631 0.06716 0.0
C815 C 0.09891 0.59969 0.08886 0.0
C816 C 0.10479 0.56667 0.03389 0.0
C817 C 0.07773 0.53152 0.02311 0.0
C818 C 0.13173 0.59703 0.02238 0.0
C819 C 0.16358 0.63468 0.03259 0.0
C820 C 0.16383 0.66326 0.02699 0.0
C821 C 0.19441 0.69891 0.0362 0.0
C822 C 0.22507 0.70638 0.05097 0.0
C823 C 0.22507 0.67818 0.05666 0.0
C824 C 0.19459 0.64247 0.04747 0.0
C825 C 1.05908 0.52874 0.93334 0.0
C826 C 0.09678 0.54552 0.9225 0.0
C827 C 1.06085 0.53259 0.9551 0.0
C828 C 0.10025 0.5526 0.9666 0.0
C829 C 0.13795 0.56945 0.95586 0.0
C830 C 0.13627 0.56606 0.93407 0.0
C831 C 0.10216 0.55642 0.9898 0.0
C832 C 0.12953 0.59151 0.00053 0.0
C833 C 0.07664 0.52593 0.00132 0.0
C834 C 1.04977 0.48788 0.99117 0.0
C835 C 1.06793 0.47543 0.97824 0.0
C836 C 1.04246 0.43962 0.96864 0.0
C837 C 0.99883 0.41588 0.97197 0.0
C838 C 0.98059 0.4279 0.98495 0.0
C839 C 1.00591 0.46371 0.99457 0.0
H840 H 0.97917 0.38816 0.96453 0.0
H841 H 0.24892 0.73408 0.05792 0.0
H842 H 0.61129 1.01054 0.42046 0.0
H843 H 0.60788 1.01129 0.38261 0.0
H844 H 0.605 0.10243 0.39159 0.0
H845 H 0.60803 0.10134 0.42949 0.0
H846 H 0.54959 0.05347 0.35988 0.0
H847 H 0.69681 0.11658 0.38002 0.0
H848 H 0.75838 0.12556 0.39717 0.0
H849 H 0.73 0.03181 0.35972 0.0
H850 H 0.6679 0.02195 0.34251 0.0
H851 H 0.60308 0.10009 0.25539 0.0
H852 H 0.60671 0.10377 0.29356 0.0
H853 H 0.59926 1.00734 0.29006 0.0
H854 H 0.59583 1.00361 0.25199 0.0
H855 H 0.66212 0.06324 0.31917 0.0
H856 H 0.51301 0.99962 0.30004 0.0
H857 H 0.4522 0.99179 0.28288 0.0
H858 H 0.4859 0.08893 0.31851 0.0
H859 H 0.54734 0.09764 0.33568 0.0
C860 C 0.60933 0.03034 0.41425 0.0
C861 C 0.60914 0.05547 0.42765 0.0
C862 C 0.60768 0.03095 0.3927 0.0
C863 C 0.60665 0.05719 0.38428 0.0
C864 C 0.60559 0.08188 0.39775 0.0
C865 C 0.60703 0.08112 0.41934 0.0
C866 C 0.60767 0.05924 0.36145 0.0
C867 C 0.57456 0.05619 0.35101 0.0
C868 C 0.64 0.06237 0.34985 0.0
C869 C 0.67747 0.06835 0.3601 0.0
C870 C 0.7035 0.09772 0.37554 0.0
C871 C 0.73853 0.103 0.38526 0.0
C872 C 0.74802 0.07923 0.37958 0.0
C873 C 0.72258 0.05018 0.36412 0.0
C874 C 0.68749 0.04475 0.35436 0.0
C875 C 0.60257 0.07988 0.2628 0.0
C876 C 0.59903 0.05149 0.25075 0.0
C877 C 0.60437 0.08188 0.28456 0.0
C878 C 0.60293 0.05566 0.29459 0.0
C879 C 0.60032 0.02778 0.2826 0.0
C880 C 0.59812 0.02556 0.26088 0.0
C881 C 0.60378 0.05698 0.31761 0.0
C882 C 0.63732 0.06075 0.32807 0.0
C883 C 0.57204 0.05478 0.32922 0.0
C884 C 0.53505 0.04951 0.31897 0.0
C885 C 0.50768 0.0195 0.30408 0.0
C886 C 0.47306 0.01486 0.29438 0.0
C887 C 0.46526 0.03991 0.29956 0.0
C888 C 0.49202 0.06959 0.31449 0.0
C889 C 0.52673 0.07438 0.32422 0.0
H890 H 0.43843 0.03627 0.29203 0.0
H891 H 0.77515 0.08336 0.38713 0.0
H892 H 0.53631 0.49536 0.78326 0.0
H893 H 0.54328 0.50529 0.74646 0.0
H894 H 0.6771 0.55356 0.75271 0.0
H895 H 0.67054 0.54536 0.79002 0.0
H896 H 0.66776 0.58799 0.72683 0.0
H897 H 0.59888 0.46246 0.73213 0.0
H898 H 0.54619 0.40138 0.74373 0.0
H899 H 0.44435 0.39321 0.71338 0.0
H900 H 0.49639 0.45448 0.70184 0.0
H901 H 0.6678 0.54912 0.61493 0.0
H902 H 0.67201 0.54782 0.6528 0.0
H903 H 0.55368 0.53249 0.6577 0.0
H904 H 0.54972 0.53443 0.62003 0.0
H905 H 0.56053 0.48085 0.67727 0.0
H906 H 0.63508 0.61036 0.67316 0.0
H907 H 0.69149 0.66993 0.66085 0.0
H908 H 0.7879 0.6674 0.68797 0.0
H909 H 0.732 0.6075 0.70017 0.0
C910 C 0.5673 0.50842 0.7768 0.0
C911 C 0.60277 0.51919 0.7893 0.0
C912 C 0.57122 0.51388 0.75575 0.0
C913 C 0.6104 0.5291 0.74661 0.0
C914 C 0.64644 0.54143 0.75934 0.0
C915 C 0.64271 0.53672 0.78061 0.0
C916 C 0.613 0.53097 0.72371 0.0
C917 C 0.64467 0.56438 0.71601 0.0
C918 C 0.58298 0.5002 0.70947 0.0
C919 C 0.55153 0.4632 0.71626 0.0
C920 C 0.56523 0.44774 0.72804 0.0
C921 C 0.53547 0.41307 0.7346 0.0
C922 C 0.49194 0.39346 0.72933 0.0
C923 C 0.47808 0.40844 0.71746 0.0
C924 C 0.50769 0.44313 0.71089 0.0
C925 C 0.64285 0.54562 0.62416 0.0
C926 C 0.6085 0.54198 0.61465 0.0
C927 C 0.64536 0.54502 0.64572 0.0
C928 C 0.61321 0.54018 0.65796 0.0
C929 C 0.57883 0.53636 0.64847 0.0
C930 C 0.5767 0.53762 0.62703 0.0
C931 C 0.61447 0.5379 0.68061 0.0
C932 C 0.58365 0.5043 0.68818 0.0
C933 C 0.64582 0.5682 0.6946 0.0
C934 C 0.67937 0.60426 0.68736 0.0
C935 C 0.6683 0.62233 0.67631 0.0
C936 C 0.70018 0.65619 0.6694 0.0
C937 C 0.74326 0.67239 0.67357 0.0
C938 C 0.75453 0.65479 0.68472 0.0
C939 C 0.72276 0.6209 0.69165 0.0
H940 H 0.76789 0.69861 0.6682 0.0
H941 H 0.46895 0.36663 0.73443 0.0
H942 H 0.64771 0.09048 0.54279 0.0
H943 H 0.65601 0.08399 0.57927 0.0
H944 H 0.51872 1.00827 0.58183 0.0
H945 H 0.51047 0.01571 0.54564 0.0
H946 H 0.54907 0.05429 0.61414 0.0
H947 H 0.5839 0.98127 0.58125 0.0
H948 H 0.62034 0.9645 0.55827 0.0
H949 H 0.74063 0.04963 0.591 0.0
H950 H 0.70501 0.06729 0.614 0.0
H951 H 0.55077 0.99059 0.71075 0.0
H952 H 0.5457 0.98953 0.67276 0.0
H953 H 0.67076 0.09412 0.67554 0.0
H954 H 0.67554 0.09576 0.71363 0.0
H955 H 0.64614 0.03102 0.64097 0.0
H956 H 0.60561 0.1044 0.67228 0.0
H957 H 0.56387 0.11393 0.69618 0.0
H958 H 0.44703 0.01849 0.66577 0.0
H959 H 0.48817 1.00807 0.6419 0.0
C960 C 0.6194 0.07229 0.55116 0.0
C961 C 0.57847 0.05368 0.54152 0.0
C962 C 0.62413 0.0684 0.57195 0.0
C963 C 0.58798 0.04536 0.5833 0.0
C964 C 0.54709 0.02627 0.57346 0.0
C965 C 0.54239 0.03051 0.55279 0.0
C966 C 0.59259 0.04272 0.60574 0.0
C967 C 0.56991 0.0487 0.61986 0.0
C968 C 0.62007 0.03578 0.61339 0.0
C969 C 0.64181 0.02582 0.59925 0.0
C970 C 0.6182 0.9967 0.58341 0.0
C971 C 0.6387 0.98697 0.5704 0.0
C972 C 0.68278 1.00601 0.57317 0.0
C973 C 0.70648 0.03492 0.58888 0.0
C974 C 0.68615 0.04478 0.60191 0.0
C975 C 0.57737 0.01308 0.70319 0.0
C976 C 0.61349 0.04331 0.715 0.0
C977 C 0.57444 0.01244 0.68157 0.0
C978 C 0.60791 0.04171 0.67147 0.0
C979 C 0.64477 0.07124 0.68313 0.0
C980 C 0.64734 0.07224 0.7048 0.0
C981 C 0.60289 0.04279 0.64897 0.0
C982 C 0.62539 0.03654 0.635 0.0
C983 C 0.57463 0.0487 0.64133 0.0
C984 C 0.54994 0.05523 0.65548 0.0
C985 C 0.57103 0.08526 0.67083 0.0
C986 C 0.54748 0.09086 0.68434 0.0
C987 C 0.50282 0.06677 0.68254 0.0
C988 C 0.48163 0.03709 0.66717 0.0
C989 C 0.50504 0.03134 0.65365 0.0
H990 H 0.48465 0.07115 0.69301 0.0
H991 H 0.69859 0.99826 0.56323 0.0
H992 H 0.69493 0.55872 0.91267 0.0
H993 H 0.67991 0.5326 0.94615 0.0
H994 H 0.54576 0.47977 0.93476 0.0
H995 H 0.5604 0.50493 0.90121 0.0
H996 H 0.58028 0.5162 0.97624 0.0
H997 H 0.57528 0.43306 0.92505 0.0
H998 H 0.60317 0.41461 0.89735 0.0
H999 H 0.70196 0.43924 0.9401 0.0
H1000 H 0.67636 0.46 0.96782 0.0
H1001 H 0.47507 0.37766 0.04281 0.0
H1002 H 0.49997 0.40029 0.00875 0.0
H1003 H 0.63076 0.46472 0.03306 0.0
H1004 H 0.60581 0.44295 0.06739 0.0
H1005 H 0.60251 0.42444 0.98614 0.0
H1006 H 0.61044 0.51249 0.03649 0.0
H1007 H 0.58116 0.52967 0.06428 0.0
H1008 H 0.47408 0.49222 0.02309 0.0
H1009 H 0.50232 0.47409 0.99517 0.0
C1010 C 0.66234 0.5417 0.91744 0.0
C1011 C 0.62878 0.53369 0.90444 0.0
C1012 C 0.65382 0.52683 0.93648 0.0
C1013 C 0.61174 0.50432 0.94286 0.0
C1014 C 0.57843 0.4972 0.93012 0.0
C1015 C 0.58681 0.51142 0.91095 0.0
C1016 C 0.60192 0.48684 0.9624 0.0
C1017 C 0.5851 0.49612 0.97837 0.0
C1018 C 0.6086 0.46089 0.9652 0.0
C1019 C 0.62432 0.44874 0.94846 0.0
C1020 C 0.60348 0.43527 0.92848 0.0
C1021 C 0.61882 0.42432 0.91275 0.0
C1022 C 0.65423 0.42572 0.9169 0.0
C1023 C 0.67465 0.43834 0.93681 0.0
C1024 C 0.6599 0.44993 0.95253 0.0
C1025 C 0.50908 0.39536 0.04058 0.0
C1026 C 0.53866 0.40834 0.05747 0.0
C1027 C 0.52324 0.40844 0.02124 0.0
C1028 C 0.5671 0.43424 0.01856 0.0
C1029 C 0.59681 0.44465 0.0349 0.0
C1030 C 0.58263 0.43212 0.05438 0.0
C1031 C 0.58123 0.45402 -0.00016 0.0
C1032 C 0.59846 0.44499 0.98404 0.0
C1033 C 0.57505 0.48026 -0.00283 0.0
C1034 C 0.55823 0.49153 0.01382 0.0
C1035 C 0.58041 0.50754 0.03343 0.0
C1036 C 0.56407 0.51753 0.04919 0.0
C1037 C 0.52575 0.51199 0.04546 0.0
C1038 C 0.50374 0.49646 0.02596 0.0
C1039 C 0.5199 0.48632 0.01016 0.0
H1040 H 0.5132 0.5198 0.05767 0.0
H1041 H 0.66559 0.41684 0.90466 0.0
H1042 H 0.10431 0.49778 0.21071 0.0
H1043 H 0.09343 0.49604 0.24801 0.0
H1044 H 0.1365 0.60686 0.25281 0.0
H1045 H 0.1461 0.60819 0.21524 0.0
H1046 H 0.14667 0.53194 0.27945 0.0
H1047 H 0.08953 0.62083 0.29281 0.0
H1048 H 1.0474 0.63391 0.27387 0.0
H1049 H 0.98341 0.53169 0.2358 0.0
H1050 H 1.02441 0.51758 0.25481 0.0
H1051 H 0.18151 0.59887 0.38434 0.0
H1052 H 0.17792 0.59212 0.34644 0.0
H1053 H 1.04032 0.52534 0.34533 0.0
H1054 H 1.04378 0.53377 0.38343 0.0
H1055 H 1.06842 0.57028 0.31655 0.0
H1056 H 0.09107 0.48706 0.33548 0.0
H1057 H 0.12514 0.46613 0.35407 0.0
H1058 H 0.24345 0.54275 0.3262 0.0
H1059 H 0.21026 0.56451 0.30766 0.0
C1060 C 0.11126 0.5217 0.21974 0.0
C1061 C 0.12608 0.55314 0.2102 0.0
C1062 C 0.10507 0.52069 0.24104 0.0
C1063 C 0.11384 0.5512 0.25323 0.0
C1064 C 0.12875 0.58273 0.24367 0.0
C1065 C 0.13448 0.58359 0.22227 0.0
C1066 C 0.10905 0.5504 0.27605 0.0
C1067 C 0.12944 0.54025 0.28752 0.0
C1068 C 0.08562 0.56028 0.28656 0.0
C1069 C 1.06039 0.56832 0.27515 0.0
C1070 C 1.06632 0.60104 0.28048 0.0
C1071 C 1.04262 0.60863 0.26973 0.0
C1072 C 1.01278 0.58365 0.25365 0.0
C1073 C 1.00657 0.55102 0.24826 0.0
C1074 C 1.03005 0.54322 0.25902 0.0
C1075 C 0.15045 0.5831 0.37609 0.0
C1076 C 0.11293 0.56691 0.38699 0.0
C1077 C 0.14842 0.57889 0.35438 0.0
C1078 C 0.10881 0.55777 0.34301 0.0
C1079 C 0.07124 0.54165 0.35378 0.0
C1080 C 0.07326 0.54616 0.37556 0.0
C1081 C 0.10696 0.55273 0.3199 0.0
C1082 C 0.08539 0.56179 0.30841 0.0
C1083 C 0.12811 0.54068 0.30924 0.0
C1084 C 0.14824 0.52761 0.3203 0.0
C1085 C 0.12444 0.49963 0.33343 0.0
C1086 C 0.14358 0.48759 0.34394 0.0
C1087 C 0.18646 0.50315 0.34135 0.0
C1088 C 0.21025 0.53073 0.3282 0.0
C1089 C 0.19127 0.5429 0.31767 0.0
H1090 H 0.20122 0.49379 0.34951 0.0
H1091 H 0.99435 0.58953 0.24544 0.0
loop_
_geom_bond_atom_site_label_1
_geom_bond_atom_site_label_2
_geom_bond_distance
_geom_bond_site_symmetry_2
_ccdc_geom_bond_type
La0 C2 2.928 . S
La0 O20 2.521 . S
La0 O21 2.628 . S
La0 O22 2.554 . S
La0 O23 2.757 . S
La0 O24 2.470 . S
La0 O29 2.482 . S
La0 O31 2.503 . S
La1 C11 2.928 1_455 S
La1 O23 2.482 . S
La1 O25 2.503 . S
La1 O26 2.521 1_455 S
La1 O27 2.628 1_455 S
La1 O28 2.554 . S
La1 O29 2.757 . S
La1 O30 2.470 1_455 S
C2 La0 2.928 . S
C2 C3 1.503 . S
C2 O20 1.261 . S
C2 O21 1.243 . S
C3 C2 1.503 . S
C3 C4 1.394 . S
C3 C8 1.373 . S
C4 C3 1.394 . S
C4 C5 1.380 . S
C4 H32 0.930 . S
C5 C4 1.380 . S
C5 C6 1.376 . S
C5 H33 0.930 . S
C6 C5 1.376 . S
C6 C7 1.370 . S
C7 C6 1.370 . S
C7 C8 1.396 . S
C7 H34 0.929 . S
C8 C3 1.373 . S
C8 C7 1.396 . S
C8 H35 0.929 . S
C9 O22 1.240 . S
C9 O23 1.289 . S
C10 O24 1.258 . S
C10 O25 1.256 . S
C11 La1 2.928 1_655 S
C11 C12 1.503 . S
C11 O26 1.261 . S
C11 O27 1.243 . S
C12 C11 1.503 . S
C12 C13 1.394 . S
C12 C17 1.373 . S
C13 C12 1.394 . S
C13 C14 1.380 . S
C13 H36 0.930 . S
C14 C13 1.380 . S
C14 C15 1.376 . S
C14 H37 0.930 . S
C15 C14 1.376 . S
C15 C16 1.370 . S
C16 C15 1.370 . S
C16 C17 1.396 . S
C16 H38 0.929 . S
C17 C12 1.373 . S
C17 C16 1.396 . S
C17 H39 0.929 . S
C18 O28 1.240 . S
C18 O29 1.289 . S
C19 O30 1.258 . S
C19 O31 1.256 1_655 S
O20 La0 2.521 . S
O20 C2 1.261 . S
O21 La0 2.628 . S
O21 C2 1.243 . S
O22 La0 2.554 . S
O22 C9 1.240 . S
O23 La0 2.757 . S
O23 La1 2.482 . S
O23 C9 1.289 . S
O24 La0 2.470 . S
O24 C10 1.258 . S
O25 La1 2.503 . S
O25 C10 1.256 . S
O26 La1 2.521 1_655 S
O26 C11 1.261 . S
O27 La1 2.628 1_655 S
O27 C11 1.243 . S
O28 La1 2.554 . S
O28 C18 1.240 . S
O29 La0 2.482 . S
O29 La1 2.757 . S
O29 C18 1.289 . S
O30 La1 2.470 1_655 S
O30 C19 1.258 . S
O31 La0 2.503 . S
O31 C19 1.256 1_455 S
H32 C4 0.930 . S
H33 C5 0.930 . S
H34 C7 0.929 . S
H35 C8 0.929 . S
H36 C13 0.930 . S
H37 C14 0.930 . S
H38 C16 0.929 . S
H39 C17 0.929 . S
La40 C42 2.928 1_545 S
La40 O60 2.521 1_545 S
La40 O61 2.628 1_545 S
La40 O62 2.554 . S
La40 O63 2.757 . S
La40 O64 2.470 1_545 S
La40 O69 2.482 . S
La40 O71 2.503 . S
La41 C51 2.928 . S
La41 O63 2.482 . S
La41 O65 2.503 1_545 S
La41 O66 2.521 . S
La41 O67 2.628 . S
La41 O68 2.554 . S
La41 O69 2.757 . S
La41 O70 2.470 . S
C42 La40 2.928 1_565 S
C42 C43 1.503 . S
C42 O60 1.261 . S
C42 O61 1.243 . S
C43 C42 1.503 . S
C43 C44 1.394 . S
C43 C48 1.373 . S
C44 C43 1.394 . S
C44 C45 1.380 . S
C44 H72 0.930 . S
C45 C44 1.380 . S
C45 C46 1.376 . S
C45 H73 0.930 . S
C46 C45 1.376 . S
C46 C47 1.370 . S
C47 C46 1.370 . S
C47 C48 1.396 . S
C47 H74 0.929 . S
C48 C43 1.373 . S
C48 C47 1.396 . S
C48 H75 0.929 . S
C49 O62 1.240 . S
C49 O63 1.289 . S
C50 O64 1.258 . S
C50 O65 1.256 . S
C51 La41 2.928 . S
C51 C52 1.503 . S
C51 O66 1.261 . S
C51 O67 1.243 . S
C52 C51 1.503 . S
C52 C53 1.394 . S
C52 C57 1.373 . S
C53 C52 1.394 . S
C53 C54 1.380 . S
C53 H76 0.930 . S
C54 C53 1.380 . S
C54 C55 1.376 . S
C54 H77 0.930 . S
C55 C54 1.376 . S
C55 C56 1.370 . S
C56 C55 1.370 . S
C56 C57 1.396 . S
C56 H78 0.929 . S
C57 C52 1.373 . S
C57 C56 1.396 . S
C57 H79 0.929 . S
C58 O68 1.240 . S
C58 O69 1.289 . S
C59 O70 1.258 . S
C59 O71 1.256 . S
O60 La40 2.521 1_565 S
O60 C42 1.261 . S
O61 La40 2.628 1_565 S
O61 C42 1.243 . S
O62 La40 2.554 . S
O62 C49 1.240 . S
O63 La40 2.757 . S
O63 La41 2.482 . S
O63 C49 1.289 . S
O64 La40 2.470 1_565 S
O64 C50 1.258 . S
O65 La41 2.503 1_565 S
O65 C50 1.256 . S
O66 La41 2.521 . S
O66 C51 1.261 . S
O67 La41 2.628 . S
O67 C51 1.243 . S
O68 La41 2.554 . S
O68 C58 1.240 . S
O69 La40 2.482 . S
O69 La41 2.757 . S
O69 C58 1.289 . S
O70 La41 2.470 . S
O70 C59 1.258 . S
O71 La40 2.503 . S
O71 C59 1.256 . S
H72 C44 0.930 . S
H73 C45 0.930 . S
H74 C47 0.929 . S
H75 C48 0.929 . S
H76 C53 0.930 . S
H77 C54 0.930 . S
H78 C56 0.929 . S
H79 C57 0.929 . S
La80 C82 2.928 . S
La80 O100 2.521 . S
La80 O101 2.628 . S
La80 O102 2.554 . S
La80 O103 2.757 . S
La80 O104 2.470 . S
La80 O109 2.482 . S
La80 O111 2.503 . S
La81 C91 2.928 . S
La81 O103 2.482 . S
La81 O105 2.503 . S
La81 O106 2.521 . S
La81 O107 2.628 . S
La81 O108 2.554 . S
La81 O109 2.757 . S
La81 O110 2.470 . S
C82 La80 2.928 . S
C82 C83 1.503 . S
C82 O100 1.261 . S
C82 O101 1.243 . S
C83 C82 1.503 . S
C83 C84 1.394 . S
C83 C88 1.373 . S
C84 C83 1.394 . S
C84 C85 1.380 . S
C84 H112 0.930 . S
C85 C84 1.380 . S
C85 C86 1.376 . S
C85 H113 0.930 . S
C86 C85 1.376 . S
C86 C87 1.370 . S
C87 C86 1.370 . S
C87 C88 1.396 . S
C87 H114 0.929 . S
C88 C83 1.373 . S
C88 C87 1.396 . S
C88 H115 0.929 . S
C89 O102 1.240 . S
C89 O103 1.289 . S
C90 O104 1.258 . S
C90 O105 1.256 . S
C91 La81 2.928 . S
C91 C92 1.503 . S
C91 O106 1.261 . S
C91 O107 1.243 . S
C92 C91 1.503 . S
C92 C93 1.394 . S
C92 C97 1.373 . S
C93 C92 1.394 . S
C93 C94 1.380 . S
C93 H116 0.930 . S
C94 C93 1.380 . S
C94 C95 1.376 . S
C94 H117 0.930 . S
C95 C94 1.376 . S
C95 C96 1.370 . S
C96 C95 1.370 . S
C96 C97 1.396 . S
C96 H118 0.929 . S
C97 C92 1.373 . S
C97 C96 1.396 . S
C97 H119 0.929 . S
C98 O108 1.240 . S
C98 O109 1.289 . S
C99 O110 1.258 . S
C99 O111 1.256 . S
O100 La80 2.521 . S
O100 C82 1.261 . S
O101 La80 2.628 . S
O101 C82 1.243 . S
O102 La80 2.554 . S
O102 C89 1.240 . S
O103 La80 2.757 . S
O103 La81 2.482 . S
O103 C89 1.289 . S
O104 La80 2.470 . S
O104 C90 1.258 . S
O105 La81 2.503 . S
O105 C90 1.256 . S
O106 La81 2.521 . S
O106 C91 1.261 . S
O107 La81 2.628 . S
O107 C91 1.243 . S
O108 La81 2.554 . S
O108 C98 1.240 . S
O109 La80 2.482 . S
O109 La81 2.757 . S
O109 C98 1.289 . S
O110 La81 2.470 . S
O110 C99 1.258 . S
O111 La80 2.503 . S
O111 C99 1.256 . S
H112 C84 0.930 . S
H113 C85 0.930 . S
H114 C87 0.929 . S
H115 C88 0.929 . S
H116 C93 0.930 . S
H117 C94 0.930 . S
H118 C96 0.929 . S
H119 C97 0.929 . S
H120 C125 0.930 . S
H121 C128 0.930 . S
H122 C130 0.930 1_565 S
H123 C124 1.016 . S
C124 H123 1.016 . S
C124 N131 1.286 . S
C125 H120 0.930 . S
C125 C126 1.397 . S
C125 C127 1.361 . S
C126 C125 1.397 . S
C126 C130 1.390 . S
C127 C125 1.361 . S
C127 C128 1.393 . S
C127 N131 1.413 . S
C128 H121 0.930 . S
C128 C127 1.393 . S
C128 C129 1.399 . S
C129 C128 1.399 . S
C129 C130 1.381 . S
C130 H122 0.930 1_545 S
C130 C126 1.390 . S
C130 C129 1.381 . S
N131 C124 1.286 . S
N131 C127 1.413 . S
H132 C137 0.930 . S
H133 C140 0.930 . S
H134 C142 0.930 . S
H135 C136 1.016 . S
C136 H135 1.016 . S
C136 N143 1.286 . S
C137 H132 0.930 . S
C137 C138 1.397 . S
C137 C139 1.361 . S
C138 C137 1.397 . S
C138 C142 1.390 . S
C139 C137 1.361 . S
C139 C140 1.393 . S
C139 N143 1.413 . S
C140 H133 0.930 . S
C140 C139 1.393 . S
C140 C141 1.399 . S
C141 C140 1.399 . S
C141 C142 1.381 . S
C142 H134 0.930 . S
C142 C138 1.390 . S
C142 C141 1.381 . S
N143 C136 1.286 . S
N143 C139 1.413 . S
H144 C149 0.930 . S
H145 C152 0.930 . S
H146 C154 0.930 . S
H147 C148 1.016 . S
C148 H147 1.016 . S
C148 N155 1.286 . S
C149 H144 0.930 . S
C149 C150 1.397 . S
C149 C151 1.361 . S
C150 C149 1.397 . S
C150 C154 1.390 . S
C151 C149 1.361 . S
C151 C152 1.393 . S
C151 N155 1.413 . S
C152 H145 0.930 . S
C152 C151 1.393 . S
C152 C153 1.399 . S
C153 C152 1.399 . S
C153 C154 1.381 . S
C154 H146 0.930 . S
C154 C150 1.390 . S
C154 C153 1.381 . S
N155 C148 1.286 . S
N155 C151 1.413 . S
H156 C161 0.930 . S
H157 C164 0.930 . S
H158 C166 0.930 . S
H159 C160 1.016 . S
C160 H159 1.016 . S
C160 N167 1.286 . S
C161 H156 0.930 . S
C161 C162 1.397 . S
C161 C163 1.361 1_455 S
C162 C161 1.397 . S
C162 C166 1.390 . S
C163 C161 1.361 1_655 S
C163 C164 1.393 . S
C163 N167 1.413 . S
C164 H157 0.930 . S
C164 C163 1.393 . S
C164 C165 1.399 1_655 S
C165 C164 1.399 1_455 S
C165 C166 1.381 . S
C166 H158 0.930 . S
C166 C162 1.390 . S
C166 C165 1.381 . S
N167 C160 1.286 . S
N167 C163 1.413 . S
H168 C173 0.930 . S
H169 C176 0.930 . S
H170 C178 0.930 . S
H171 C172 1.016 . S
C172 H171 1.016 . S
C172 N179 1.286 . S
C173 H168 0.930 . S
C173 C174 1.397 . S
C173 C175 1.361 . S
C174 C173 1.397 . S
C174 C178 1.390 . S
C175 C173 1.361 . S
C175 C176 1.393 1_545 S
C175 N179 1.413 1_545 S
C176 H169 0.930 . S
C176 C175 1.393 1_565 S
C176 C177 1.399 1_565 S
C177 C176 1.399 1_545 S
C177 C178 1.381 . S
C178 H170 0.930 . S
C178 C174 1.390 . S
C178 C177 1.381 . S
N179 C172 1.286 . S
N179 C175 1.413 1_565 S
H180 C185 0.930 . S
H181 C188 0.930 . S
H182 C190 0.930 . S
H183 C184 1.016 . S
C184 H183 1.016 . S
C184 N191 1.286 . S
C185 H180 0.930 . S
C185 C186 1.397 . S
C185 C187 1.361 . S
C186 C185 1.397 . S
C186 C190 1.390 . S
C187 C185 1.361 . S
C187 C188 1.393 . S
C187 N191 1.413 . S
C188 H181 0.930 . S
C188 C187 1.393 . S
C188 C189 1.399 . S
C189 C188 1.399 . S
C189 C190 1.381 . S
C190 H182 0.930 . S
C190 C186 1.390 . S
C190 C189 1.381 . S
N191 C184 1.286 . S
N191 C187 1.413 . S
H192 C210 0.951 . S
H193 C212 0.951 . S
H194 C214 0.950 . S
H195 C215 0.950 . S
H196 C217 0.950 . S
H197 C220 0.950 . S
H198 C221 0.950 . S
H199 C223 0.950 . S
H200 C224 0.950 . S
H201 C225 0.951 . S
H202 C227 0.951 . S
H203 C229 0.950 . S
H204 C230 0.950 . S
H205 C232 0.950 . S
H206 C235 0.950 . S
H207 C236 0.950 . S
H208 C238 0.950 . S
H209 C239 0.950 . S
C210 H192 0.951 . S
C210 C211 1.366 . S
C210 C212 1.388 . S
C211 C210 1.366 . S
C211 C215 1.385 . S
C212 H193 0.951 . S
C212 C210 1.388 . S
C212 C213 1.366 . S
C213 C212 1.366 . S
C213 C214 1.414 . S
C213 C216 1.499 . S
C214 H194 0.950 . S
C214 C213 1.414 . S
C214 C215 1.374 . S
C215 H195 0.950 . S
C215 C211 1.385 . S
C215 C214 1.374 . S
C216 C213 1.499 . S
C216 C217 1.373 . S
C216 C218 1.389 . S
C217 H196 0.950 . S
C217 C216 1.373 . S
C217 C233 1.377 . S
C218 C216 1.389 . S
C218 C219 1.524 . S
C218 C232 1.377 . S
C219 C218 1.524 . S
C219 C220 1.397 . S
C219 C224 1.363 . S
C220 H197 0.950 . S
C220 C219 1.397 . S
C220 C221 1.334 . S
C221 H198 0.950 . S
C221 C220 1.334 . S
C221 C222 1.287 . S
C222 C221 1.287 . S
C222 C223 1.524 . S
C222 H241 0.913 . S
C223 H199 0.950 . S
C223 C222 1.524 . S
C223 C224 1.415 . S
C224 H200 0.950 . S
C224 C219 1.363 . S
C224 C223 1.415 . S
C225 H201 0.951 . S
C225 C226 1.366 . S
C225 C227 1.388 . S
C226 C225 1.366 . S
C226 C230 1.385 . S
C227 H202 0.951 . S
C227 C225 1.388 . S
C227 C228 1.366 . S
C228 C227 1.366 . S
C228 C229 1.414 . S
C228 C231 1.499 . S
C229 H203 0.950 . S
C229 C228 1.414 . S
C229 C230 1.374 . S
C230 H204 0.950 . S
C230 C226 1.385 . S
C230 C229 1.374 . S
C231 C228 1.499 . S
C231 C232 1.373 . S
C231 C233 1.389 . S
C232 H205 0.950 . S
C232 C218 1.377 . S
C232 C231 1.373 . S
C233 C217 1.377 . S
C233 C231 1.389 . S
C233 C234 1.524 . S
C234 C233 1.524 . S
C234 C235 1.397 . S
C234 C239 1.363 . S
C235 H206 0.950 . S
C235 C234 1.397 . S
C235 C236 1.334 . S
C236 H207 0.950 . S
C236 C235 1.334 . S
C236 C237 1.287 . S
C237 C236 1.287 . S
C237 C238 1.524 . S
C237 H240 0.999 . S
C238 H208 0.950 . S
C238 C237 1.524 . S
C238 C239 1.415 . S
C239 H209 0.950 . S
C239 C234 1.363 . S
C239 C238 1.415 . S
H240 C237 0.999 . S
H241 C222 0.913 . S
H242 C260 0.951 . S
H243 C262 0.951 . S
H244 C264 0.950 . S
H245 C265 0.950 . S
H246 C267 0.950 . S
H247 C270 0.950 . S
H248 C271 0.950 . S
H249 C273 0.950 . S
H250 C274 0.950 . S
H251 C275 0.951 . S
H252 C277 0.951 . S
H253 C279 0.950 . S
H254 C280 0.950 . S
H255 C282 0.950 . S
H256 C285 0.950 . S
H257 C286 0.950 . S
H258 C288 0.950 . S
H259 C289 0.950 . S
C260 H242 0.951 . S
C260 C261 1.366 . S
C260 C262 1.388 . S
C261 C260 1.366 . S
C261 C265 1.385 . S
C262 H243 0.951 . S
C262 C260 1.388 . S
C262 C263 1.366 . S
C263 C262 1.366 . S
C263 C264 1.414 . S
C263 C266 1.499 . S
C264 H244 0.950 . S
C264 C263 1.414 . S
C264 C265 1.374 . S
C265 H245 0.950 . S
C265 C261 1.385 . S
C265 C264 1.374 . S
C266 C263 1.499 . S
C266 C267 1.373 . S
C266 C268 1.389 . S
C267 H246 0.950 . S
C267 C266 1.373 . S
C267 C283 1.377 . S
C268 C266 1.389 . S
C268 C269 1.524 . S
C268 C282 1.377 . S
C269 C268 1.524 . S
C269 C270 1.397 . S
C269 C274 1.363 . S
C270 H247 0.950 . S
C270 C269 1.397 . S
C270 C271 1.334 . S
C271 H248 0.950 . S
C271 C270 1.334 . S
C271 C272 1.287 . S
C272 C271 1.287 . S
C272 C273 1.524 . S
C272 H291 0.913 . S
C273 H249 0.950 . S
C273 C272 1.524 . S
C273 C274 1.415 . S
C274 H250 0.950 . S
C274 C269 1.363 . S
C274 C273 1.415 . S
C275 H251 0.951 . S
C275 C276 1.366 . S
C275 C277 1.388 . S
C276 C275 1.366 . S
C276 C280 1.385 . S
C277 H252 0.951 . S
C277 C275 1.388 . S
C277 C278 1.366 . S
C278 C277 1.366 . S
C278 C279 1.414 . S
C278 C281 1.499 . S
C279 H253 0.950 . S
C279 C278 1.414 . S
C279 C280 1.374 . S
C280 H254 0.950 . S
C280 C276 1.385 . S
C280 C279 1.374 . S
C281 C278 1.499 . S
C281 C282 1.373 . S
C281 C283 1.389 . S
C282 H255 0.950 . S
C282 C268 1.377 . S
C282 C281 1.373 . S
C283 C267 1.377 . S
C283 C281 1.389 . S
C283 C284 1.524 . S
C284 C283 1.524 . S
C284 C285 1.397 . S
C284 C289 1.363 . S
C285 H256 0.950 . S
C285 C284 1.397 . S
C285 C286 1.334 . S
C286 H257 0.950 . S
C286 C285 1.334 . S
C286 C287 1.287 . S
C287 C286 1.287 . S
C287 C288 1.524 . S
C287 H290 0.999 . S
C288 H258 0.950 . S
C288 C287 1.524 . S
C288 C289 1.415 . S
C289 H259 0.950 . S
C289 C284 1.363 . S
C289 C288 1.415 . S
H290 C287 0.999 . S
H291 C272 0.913 . S
H292 C310 0.951 . S
H293 C312 0.951 . S
H294 C314 0.950 . S
H295 C315 0.950 . S
H296 C317 0.950 . S
H297 C320 0.950 . S
H298 C321 0.950 . S
H299 C323 0.950 . S
H300 C324 0.950 . S
H301 C325 0.951 . S
H302 C327 0.951 . S
H303 C329 0.950 . S
H304 C330 0.950 . S
H305 C332 0.950 . S
H306 C335 0.950 . S
H307 C336 0.950 . S
H308 C338 0.950 . S
H309 C339 0.950 . S
C310 H292 0.951 . S
C310 C311 1.366 . S
C310 C312 1.388 . S
C311 C310 1.366 . S
C311 C315 1.385 . S
C312 H293 0.951 . S
C312 C310 1.388 . S
C312 C313 1.366 . S
C313 C312 1.366 . S
C313 C314 1.414 . S
C313 C316 1.499 . S
C314 H294 0.950 . S
C314 C313 1.414 . S
C314 C315 1.374 . S
C315 H295 0.950 . S
C315 C311 1.385 . S
C315 C314 1.374 . S
C316 C313 1.499 . S
C316 C317 1.373 . S
C316 C318 1.389 . S
C317 H296 0.950 . S
C317 C316 1.373 . S
C317 C333 1.377 . S
C318 C316 1.389 . S
C318 C319 1.524 . S
C318 C332 1.377 . S
C319 C318 1.524 . S
C319 C320 1.397 . S
C319 C324 1.363 . S
C320 H297 0.950 . S
C320 C319 1.397 . S
C320 C321 1.334 . S
C321 H298 0.950 . S
C321 C320 1.334 . S
C321 C322 1.287 . S
C322 C321 1.287 . S
C322 C323 1.524 . S
C322 H341 0.913 . S
C323 H299 0.950 . S
C323 C322 1.524 . S
C323 C324 1.415 . S
C324 H300 0.950 . S
C324 C319 1.363 . S
C324 C323 1.415 . S
C325 H301 0.951 . S
C325 C326 1.366 . S
C325 C327 1.388 . S
C326 C325 1.366 . S
C326 C330 1.385 . S
C327 H302 0.951 . S
C327 C325 1.388 . S
C327 C328 1.366 . S
C328 C327 1.366 . S
C328 C329 1.414 . S
C328 C331 1.499 . S
C329 H303 0.950 . S
C329 C328 1.414 . S
C329 C330 1.374 . S
C330 H304 0.950 . S
C330 C326 1.385 . S
C330 C329 1.374 . S
C331 C328 1.499 . S
C331 C332 1.373 . S
C331 C333 1.389 . S
C332 H305 0.950 . S
C332 C318 1.377 . S
C332 C331 1.373 . S
C333 C317 1.377 . S
C333 C331 1.389 . S
C333 C334 1.524 . S
C334 C333 1.524 . S
C334 C335 1.397 . S
C334 C339 1.363 . S
C335 H306 0.950 . S
C335 C334 1.397 . S
C335 C336 1.334 . S
C336 H307 0.950 . S
C336 C335 1.334 . S
C336 C337 1.287 . S
C337 C336 1.287 . S
C337 C338 1.524 . S
C337 H340 0.999 . S
C338 H308 0.950 . S
C338 C337 1.524 . S
C338 C339 1.415 . S
C339 H309 0.950 . S
C339 C334 1.363 . S
C339 C338 1.415 . S
H340 C337 0.999 . S
H341 C322 0.913 . S
H342 C360 0.951 . S
H343 C362 0.951 . S
H344 C364 0.950 . S
H345 C365 0.950 . S
H346 C367 0.950 . S
H347 C370 0.950 . S
H348 C371 0.950 . S
H349 C373 0.950 . S
H350 C374 0.950 . S
H351 C375 0.951 . S
H352 C377 0.951 . S
H353 C379 0.950 . S
H354 C380 0.950 . S
H355 C382 0.950 . S
H356 C385 0.950 . S
H357 C386 0.950 . S
H358 C388 0.950 . S
H359 C389 0.950 . S
C360 H342 0.951 . S
C360 C361 1.366 . S
C360 C362 1.388 . S
C361 C360 1.366 . S
C361 C365 1.385 . S
C362 H343 0.951 . S
C362 C360 1.388 . S
C362 C363 1.366 . S
C363 C362 1.366 . S
C363 C364 1.414 . S
C363 C366 1.499 . S
C364 H344 0.950 . S
C364 C363 1.414 . S
C364 C365 1.374 . S
C365 H345 0.950 . S
C365 C361 1.385 . S
C365 C364 1.374 . S
C366 C363 1.499 . S
C366 C367 1.373 . S
C366 C368 1.389 . S
C367 H346 0.950 . S
C367 C366 1.373 . S
C367 C383 1.377 . S
C368 C366 1.389 . S
C368 C369 1.524 . S
C368 C382 1.377 . S
C369 C368 1.524 . S
C369 C370 1.397 . S
C369 C374 1.363 . S
C370 H347 0.950 . S
C370 C369 1.397 . S
C370 C371 1.334 . S
C371 H348 0.950 . S
C371 C370 1.334 . S
C371 C372 1.287 . S
C372 C371 1.287 . S
C372 C373 1.524 . S
C372 H391 0.913 . S
C373 H349 0.950 . S
C373 C372 1.524 . S
C373 C374 1.415 . S
C374 H350 0.950 . S
C374 C369 1.363 . S
C374 C373 1.415 . S
C375 H351 0.951 . S
C375 C376 1.366 . S
C375 C377 1.388 . S
C376 C375 1.366 . S
C376 C380 1.385 . S
C377 H352 0.951 . S
C377 C375 1.388 . S
C377 C378 1.366 . S
C378 C377 1.366 . S
C378 C379 1.414 . S
C378 C381 1.499 . S
C379 H353 0.950 . S
C379 C378 1.414 . S
C379 C380 1.374 . S
C380 H354 0.950 . S
C380 C376 1.385 . S
C380 C379 1.374 . S
C381 C378 1.499 . S
C381 C382 1.373 . S
C381 C383 1.389 . S
C382 H355 0.950 . S
C382 C368 1.377 . S
C382 C381 1.373 . S
C383 C367 1.377 . S
C383 C381 1.389 . S
C383 C384 1.524 . S
C384 C383 1.524 . S
C384 C385 1.397 . S
C384 C389 1.363 . S
C385 H356 0.950 . S
C385 C384 1.397 . S
C385 C386 1.334 . S
C386 H357 0.950 . S
C386 C385 1.334 . S
C386 C387 1.287 . S
C387 C386 1.287 . S
C387 C388 1.524 . S
C387 H390 0.999 . S
C388 H358 0.950 . S
C388 C387 1.524 . S
C388 C389 1.415 . S
C389 H359 0.950 . S
C389 C384 1.363 . S
C389 C388 1.415 . S
H390 C387 0.999 . S
H391 C372 0.913 . S
H392 C410 0.951 . S
H393 C412 0.951 . S
H394 C414 0.950 . S
H395 C415 0.950 . S
H396 C417 0.950 . S
H397 C420 0.950 . S
H398 C421 0.950 . S
H399 C423 0.950 . S
H400 C424 0.950 . S
H401 C425 0.951 . S
H402 C427 0.951 . S
H403 C429 0.950 . S
H404 C430 0.950 . S
H405 C432 0.950 . S
H406 C435 0.950 . S
H407 C436 0.950 . S
H408 C438 0.950 . S
H409 C439 0.950 . S
C410 H392 0.951 . S
C410 C411 1.366 . S
C410 C412 1.388 . S
C411 C410 1.366 . S
C411 C415 1.385 . S
C412 H393 0.951 . S
C412 C410 1.388 . S
C412 C413 1.366 . S
C413 C412 1.366 . S
C413 C414 1.414 . S
C413 C416 1.499 . S
C414 H394 0.950 . S
C414 C413 1.414 . S
C414 C415 1.374 . S
C415 H395 0.950 . S
C415 C411 1.385 . S
C415 C414 1.374 . S
C416 C413 1.499 . S
C416 C417 1.373 . S
C416 C418 1.389 . S
C417 H396 0.950 . S
C417 C416 1.373 . S
C417 C433 1.377 . S
C418 C416 1.389 . S
C418 C419 1.524 . S
C418 C432 1.377 . S
C419 C418 1.524 . S
C419 C420 1.397 . S
C419 C424 1.363 . S
C420 H397 0.950 . S
C420 C419 1.397 . S
C420 C421 1.334 . S
C421 H398 0.950 . S
C421 C420 1.334 . S
C421 C422 1.287 . S
C422 C421 1.287 . S
C422 C423 1.524 . S
C422 H441 0.913 . S
C423 H399 0.950 . S
C423 C422 1.524 . S
C423 C424 1.415 . S
C424 H400 0.950 . S
C424 C419 1.363 . S
C424 C423 1.415 . S
C425 H401 0.951 . S
C425 C426 1.366 . S
C425 C427 1.388 . S
C426 C425 1.366 . S
C426 C430 1.385 . S
C427 H402 0.951 . S
C427 C425 1.388 . S
C427 C428 1.366 . S
C428 C427 1.366 . S
C428 C429 1.414 . S
C428 C431 1.499 . S
C429 H403 0.950 . S
C429 C428 1.414 . S
C429 C430 1.374 . S
C430 H404 0.950 . S
C430 C426 1.385 . S
C430 C429 1.374 . S
C431 C428 1.499 . S
C431 C432 1.373 . S
C431 C433 1.389 . S
C432 H405 0.950 . S
C432 C418 1.377 . S
C432 C431 1.373 . S
C433 C417 1.377 . S
C433 C431 1.389 . S
C433 C434 1.524 . S
C434 C433 1.524 . S
C434 C435 1.397 . S
C434 C439 1.363 . S
C435 H406 0.950 . S
C435 C434 1.397 . S
C435 C436 1.334 . S
C436 H407 0.950 . S
C436 C435 1.334 . S
C436 C437 1.287 . S
C437 C436 1.287 . S
C437 C438 1.524 . S
C437 H440 0.999 . S
C438 H408 0.950 . S
C438 C437 1.524 . S
C438 C439 1.415 . S
C439 H409 0.950 . S
C439 C434 1.363 . S
C439 C438 1.415 . S
H440 C437 0.999 . S
H441 C422 0.913 . S
H442 C460 0.951 . S
H443 C462 0.951 . S
H444 C464 0.950 . S
H445 C465 0.950 . S
H446 C467 0.950 . S
H447 C470 0.950 . S
H448 C471 0.950 . S
H449 C473 0.950 . S
H450 C474 0.950 . S
H451 C475 0.951 . S
H452 C477 0.951 . S
H453 C479 0.950 . S
H454 C480 0.950 . S
H455 C482 0.950 . S
H456 C485 0.950 . S
H457 C486 0.950 . S
H458 C488 0.950 . S
H459 C489 0.950 . S
C460 H442 0.951 . S
C460 C461 1.366 . S
C460 C462 1.388 . S
C461 C460 1.366 . S
C461 C465 1.385 . S
C462 H443 0.951 . S
C462 C460 1.388 . S
C462 C463 1.366 . S
C463 C462 1.366 . S
C463 C464 1.414 . S
C463 C466 1.499 . S
C464 H444 0.950 . S
C464 C463 1.414 . S
C464 C465 1.374 . S
C465 H445 0.950 . S
C465 C461 1.385 . S
C465 C464 1.374 . S
C466 C463 1.499 . S
C466 C467 1.373 . S
C466 C468 1.389 . S
C467 H446 0.950 . S
C467 C466 1.373 . S
C467 C483 1.377 . S
C468 C466 1.389 . S
C468 C469 1.524 . S
C468 C482 1.377 . S
C469 C468 1.524 . S
C469 C470 1.397 . S
C469 C474 1.363 . S
C470 H447 0.950 . S
C470 C469 1.397 . S
C470 C471 1.334 . S
C471 H448 0.950 . S
C471 C470 1.334 . S
C471 C472 1.287 . S
C472 C471 1.287 . S
C472 C473 1.524 . S
C472 H491 0.913 . S
C473 H449 0.950 . S
C473 C472 1.524 . S
C473 C474 1.415 . S
C474 H450 0.950 . S
C474 C469 1.363 . S
C474 C473 1.415 . S
C475 H451 0.951 . S
C475 C476 1.366 . S
C475 C477 1.388 . S
C476 C475 1.366 . S
C476 C480 1.385 . S
C477 H452 0.951 . S
C477 C475 1.388 . S
C477 C478 1.366 . S
C478 C477 1.366 . S
C478 C479 1.414 . S
C478 C481 1.499 . S
C479 H453 0.950 . S
C479 C478 1.414 . S
C479 C480 1.374 . S
C480 H454 0.950 . S
C480 C476 1.385 . S
C480 C479 1.374 . S
C481 C478 1.499 . S
C481 C482 1.373 . S
C481 C483 1.389 . S
C482 H455 0.950 . S
C482 C468 1.377 . S
C482 C481 1.373 . S
C483 C467 1.377 . S
C483 C481 1.389 . S
C483 C484 1.524 . S
C484 C483 1.524 . S
C484 C485 1.397 . S
C484 C489 1.363 . S
C485 H456 0.950 . S
C485 C484 1.397 . S
C485 C486 1.334 . S
C486 H457 0.950 . S
C486 C485 1.334 . S
C486 C487 1.287 . S
C487 C486 1.287 . S
C487 C488 1.524 . S
C487 H490 0.999 . S
C488 H458 0.950 . S
C488 C487 1.524 . S
C488 C489 1.415 . S
C489 H459 0.950 . S
C489 C484 1.363 . S
C489 C488 1.415 . S
H490 C487 0.999 . S
H491 C472 0.913 . S
H492 C510 0.951 . S
H493 C512 0.951 . S
H494 C514 0.950 . S
H495 C515 0.950 . S
H496 C517 0.950 . S
H497 C520 0.950 . S
H498 C521 0.950 . S
H499 C523 0.950 . S
H500 C524 0.950 . S
H501 C525 0.951 . S
H502 C527 0.951 . S
H503 C529 0.950 . S
H504 C530 0.950 . S
H505 C532 0.950 . S
H506 C535 0.950 . S
H507 C536 0.950 . S
H508 C538 0.950 . S
H509 C539 0.950 . S
C510 H492 0.951 . S
C510 C511 1.366 . S
C510 C512 1.388 . S
C511 C510 1.366 . S
C511 C515 1.385 . S
C512 H493 0.951 . S
C512 C510 1.388 . S
C512 C513 1.366 . S
C513 C512 1.366 . S
C513 C514 1.414 . S
C513 C516 1.499 . S
C514 H494 0.950 . S
C514 C513 1.414 . S
C514 C515 1.374 . S
C515 H495 0.950 . S
C515 C511 1.385 . S
C515 C514 1.374 . S
C516 C513 1.499 . S
C516 C517 1.373 . S
C516 C518 1.389 . S
C517 H496 0.950 . S
C517 C516 1.373 . S
C517 C533 1.377 . S
C518 C516 1.389 . S
C518 C519 1.524 . S
C518 C532 1.377 . S
C519 C518 1.524 . S
C519 C520 1.397 . S
C519 C524 1.363 . S
C520 H497 0.950 . S
C520 C519 1.397 . S
C520 C521 1.334 . S
C521 H498 0.950 . S
C521 C520 1.334 . S
C521 C522 1.287 . S
C522 C521 1.287 . S
C522 C523 1.524 . S
C522 H541 0.913 . S
C523 H499 0.950 . S
C523 C522 1.524 . S
C523 C524 1.415 . S
C524 H500 0.950 . S
C524 C519 1.363 . S
C524 C523 1.415 . S
C525 H501 0.951 . S
C525 C526 1.366 . S
C525 C527 1.388 . S
C526 C525 1.366 . S
C526 C530 1.385 . S
C527 H502 0.951 . S
C527 C525 1.388 . S
C527 C528 1.366 . S
C528 C527 1.366 . S
C528 C529 1.414 . S
C528 C531 1.499 . S
C529 H503 0.950 . S
C529 C528 1.414 . S
C529 C530 1.374 . S
C530 H504 0.950 . S
C530 C526 1.385 . S
C530 C529 1.374 . S
C531 C528 1.499 . S
C531 C532 1.373 . S
C531 C533 1.389 . S
C532 H505 0.950 . S
C532 C518 1.377 . S
C532 C531 1.373 . S
C533 C517 1.377 . S
C533 C531 1.389 . S
C533 C534 1.524 . S
C534 C533 1.524 . S
C534 C535 1.397 . S
C534 C539 1.363 . S
C535 H506 0.950 . S
C535 C534 1.397 . S
C535 C536 1.334 . S
C536 H507 0.950 . S
C536 C535 1.334 . S
C536 C537 1.287 . S
C537 C536 1.287 . S
C537 C538 1.524 . S
C537 H540 0.999 . S
C538 H508 0.950 . S
C538 C537 1.524 . S
C538 C539 1.415 . S
C539 H509 0.950 . S
C539 C534 1.363 . S
C539 C538 1.415 . S
H540 C537 0.999 . S
H541 C522 0.913 . S
H542 C560 0.951 . S
H543 C562 0.951 . S
H544 C564 0.950 . S
H545 C565 0.950 . S
H546 C567 0.950 . S
H547 C570 0.950 . S
H548 C571 0.950 . S
H549 C573 0.950 . S
H550 C574 0.950 . S
H551 C575 0.951 . S
H552 C577 0.951 . S
H553 C579 0.950 . S
H554 C580 0.950 . S
H555 C582 0.950 . S
H556 C585 0.950 . S
H557 C586 0.950 . S
H558 C588 0.950 . S
H559 C589 0.950 . S
C560 H542 0.951 . S
C560 C561 1.366 . S
C560 C562 1.388 . S
C561 C560 1.366 . S
C561 C565 1.385 . S
C562 H543 0.951 . S
C562 C560 1.388 . S
C562 C563 1.366 . S
C563 C562 1.366 . S
C563 C564 1.414 . S
C563 C566 1.499 . S
C564 H544 0.950 . S
C564 C563 1.414 . S
C564 C565 1.374 . S
C565 H545 0.950 . S
C565 C561 1.385 . S
C565 C564 1.374 . S
C566 C563 1.499 . S
C566 C567 1.373 . S
C566 C568 1.389 . S
C567 H546 0.950 . S
C567 C566 1.373 . S
C567 C583 1.377 . S
C568 C566 1.389 . S
C568 C569 1.524 . S
C568 C582 1.377 . S
C569 C568 1.524 . S
C569 C570 1.397 . S
C569 C574 1.363 . S
C570 H547 0.950 . S
C570 C569 1.397 . S
C570 C571 1.334 . S
C571 H548 0.950 . S
C571 C570 1.334 . S
C571 C572 1.287 . S
C572 C571 1.287 . S
C572 C573 1.524 . S
C572 H591 0.913 . S
C573 H549 0.950 . S
C573 C572 1.524 . S
C573 C574 1.415 . S
C574 H550 0.950 . S
C574 C569 1.363 . S
C574 C573 1.415 . S
C575 H551 0.951 . S
C575 C576 1.366 . S
C575 C577 1.388 . S
C576 C575 1.366 . S
C576 C580 1.385 . S
C577 H552 0.951 . S
C577 C575 1.388 . S
C577 C578 1.366 . S
C578 C577 1.366 . S
C578 C579 1.414 . S
C578 C581 1.499 . S
C579 H553 0.950 . S
C579 C578 1.414 . S
C579 C580 1.374 . S
C580 H554 0.950 . S
C580 C576 1.385 . S
C580 C579 1.374 . S
C581 C578 1.499 . S
C581 C582 1.373 . S
C581 C583 1.389 . S
C582 H555 0.950 . S
C582 C568 1.377 . S
C582 C581 1.373 . S
C583 C567 1.377 . S
C583 C581 1.389 . S
C583 C584 1.524 . S
C584 C583 1.524 . S
C584 C585 1.397 . S
C584 C589 1.363 . S
C585 H556 0.950 . S
C585 C584 1.397 . S
C585 C586 1.334 . S
C586 H557 0.950 . S
C586 C585 1.334 . S
C586 C587 1.287 . S
C587 C586 1.287 . S
C587 C588 1.524 . S
C587 H590 0.999 . S
C588 H558 0.950 . S
C588 C587 1.524 . S
C588 C589 1.415 . S
C589 H559 0.950 . S
C589 C584 1.363 . S
C589 C588 1.415 . S
H590 C587 0.999 . S
H591 C572 0.913 . S
H592 C610 0.951 . S
H593 C612 0.951 . S
H594 C614 0.950 . S
H595 C615 0.950 . S
H596 C617 0.950 . S
H597 C620 0.950 . S
H598 C621 0.950 . S
H599 C623 0.950 . S
H600 C624 0.950 . S
H601 C625 0.951 . S
H602 C627 0.951 . S
H603 C629 0.950 . S
H604 C630 0.950 . S
H605 C632 0.950 . S
H606 C635 0.950 . S
H607 C636 0.950 . S
H608 C638 0.950 . S
H609 C639 0.950 . S
C610 H592 0.951 . S
C610 C611 1.366 . S
C610 C612 1.388 . S
C611 C610 1.366 . S
C611 C615 1.385 . S
C612 H593 0.951 . S
C612 C610 1.388 . S
C612 C613 1.366 . S
C613 C612 1.366 . S
C613 C614 1.414 . S
C613 C616 1.499 . S
C614 H594 0.950 . S
C614 C613 1.414 . S
C614 C615 1.374 . S
C615 H595 0.950 . S
C615 C611 1.385 . S
C615 C614 1.374 . S
C616 C613 1.499 . S
C616 C617 1.373 . S
C616 C618 1.389 . S
C617 H596 0.950 . S
C617 C616 1.373 . S
C617 C633 1.377 . S
C618 C616 1.389 . S
C618 C619 1.524 . S
C618 C632 1.377 . S
C619 C618 1.524 . S
C619 C620 1.397 . S
C619 C624 1.363 . S
C620 H597 0.950 . S
C620 C619 1.397 . S
C620 C621 1.334 . S
C621 H598 0.950 . S
C621 C620 1.334 . S
C621 C622 1.287 . S
C622 C621 1.287 . S
C622 C623 1.524 . S
C622 H641 0.913 . S
C623 H599 0.950 . S
C623 C622 1.524 . S
C623 C624 1.415 . S
C624 H600 0.950 . S
C624 C619 1.363 . S
C624 C623 1.415 . S
C625 H601 0.951 . S
C625 C626 1.366 . S
C625 C627 1.388 . S
C626 C625 1.366 . S
C626 C630 1.385 . S
C627 H602 0.951 . S
C627 C625 1.388 . S
C627 C628 1.366 . S
C628 C627 1.366 . S
C628 C629 1.414 . S
C628 C631 1.499 . S
C629 H603 0.950 . S
C629 C628 1.414 . S
C629 C630 1.374 . S
C630 H604 0.950 . S
C630 C626 1.385 . S
C630 C629 1.374 . S
C631 C628 1.499 . S
C631 C632 1.373 . S
C631 C633 1.389 . S
C632 H605 0.950 . S
C632 C618 1.377 . S
C632 C631 1.373 . S
C633 C617 1.377 . S
C633 C631 1.389 . S
C633 C634 1.524 . S
C634 C633 1.524 . S
C634 C635 1.397 . S
C634 C639 1.363 . S
C635 H606 0.950 . S
C635 C634 1.397 . S
C635 C636 1.334 . S
C636 H607 0.950 . S
C636 C635 1.334 . S
C636 C637 1.287 . S
C637 C636 1.287 . S
C637 C638 1.524 . S
C637 H640 0.999 . S
C638 H608 0.950 . S
C638 C637 1.524 . S
C638 C639 1.415 . S
C639 H609 0.950 . S
C639 C634 1.363 . S
C639 C638 1.415 . S
H640 C637 0.999 . S
H641 C622 0.913 . S
H642 C660 0.951 . S
H643 C662 0.951 . S
H644 C664 0.950 . S
H645 C665 0.950 . S
H646 C667 0.950 . S
H647 C670 0.950 . S
H648 C671 0.950 . S
H649 C673 0.950 . S
H650 C674 0.950 . S
H651 C675 0.951 . S
H652 C677 0.951 . S
H653 C679 0.950 . S
H654 C680 0.950 . S
H655 C682 0.950 . S
H656 C685 0.950 . S
H657 C686 0.950 . S
H658 C688 0.950 . S
H659 C689 0.950 . S
C660 H642 0.951 . S
C660 C661 1.366 . S
C660 C662 1.388 . S
C661 C660 1.366 . S
C661 C665 1.385 . S
C662 H643 0.951 . S
C662 C660 1.388 . S
C662 C663 1.366 . S
C663 C662 1.366 . S
C663 C664 1.414 . S
C663 C666 1.499 . S
C664 H644 0.950 . S
C664 C663 1.414 . S
C664 C665 1.374 . S
C665 H645 0.950 . S
C665 C661 1.385 . S
C665 C664 1.374 . S
C666 C663 1.499 . S
C666 C667 1.373 . S
C666 C668 1.389 . S
C667 H646 0.950 . S
C667 C666 1.373 . S
C667 C683 1.377 . S
C668 C666 1.389 . S
C668 C669 1.524 . S
C668 C682 1.377 . S
C669 C668 1.524 . S
C669 C670 1.397 . S
C669 C674 1.363 . S
C670 H647 0.950 . S
C670 C669 1.397 . S
C670 C671 1.334 . S
C671 H648 0.950 . S
C671 C670 1.334 . S
C671 C672 1.287 . S
C672 C671 1.287 . S
C672 C673 1.524 . S
C672 H691 0.913 . S
C673 H649 0.950 . S
C673 C672 1.524 . S
C673 C674 1.415 . S
C674 H650 0.950 . S
C674 C669 1.363 . S
C674 C673 1.415 . S
C675 H651 0.951 . S
C675 C676 1.366 . S
C675 C677 1.388 . S
C676 C675 1.366 . S
C676 C680 1.385 . S
C677 H652 0.951 . S
C677 C675 1.388 . S
C677 C678 1.366 . S
C678 C677 1.366 . S
C678 C679 1.414 . S
C678 C681 1.499 . S
C679 H653 0.950 . S
C679 C678 1.414 . S
C679 C680 1.374 . S
C680 H654 0.950 . S
C680 C676 1.385 . S
C680 C679 1.374 . S
C681 C678 1.499 . S
C681 C682 1.373 . S
C681 C683 1.389 . S
C682 H655 0.950 . S
C682 C668 1.377 . S
C682 C681 1.373 . S
C683 C667 1.377 . S
C683 C681 1.389 . S
C683 C684 1.524 . S
C684 C683 1.524 . S
C684 C685 1.397 . S
C684 C689 1.363 . S
C685 H656 0.950 . S
C685 C684 1.397 . S
C685 C686 1.334 . S
C686 H657 0.950 . S
C686 C685 1.334 . S
C686 C687 1.287 . S
C687 C686 1.287 . S
C687 C688 1.524 . S
C687 H690 0.999 . S
C688 H658 0.950 . S
C688 C687 1.524 . S
C688 C689 1.415 . S
C689 H659 0.950 . S
C689 C684 1.363 . S
C689 C688 1.415 . S
H690 C687 0.999 . S
H691 C672 0.913 . S
H692 C710 0.951 . S
H693 C712 0.951 . S
H694 C714 0.950 . S
H695 C715 0.950 . S
H696 C717 0.950 . S
H697 C720 0.950 . S
H698 C721 0.950 . S
H699 C723 0.950 . S
H700 C724 0.950 . S
H701 C725 0.951 . S
H702 C727 0.951 . S
H703 C729 0.950 . S
H704 C730 0.950 . S
H705 C732 0.950 . S
H706 C735 0.950 . S
H707 C736 0.950 . S
H708 C738 0.950 . S
H709 C739 0.950 . S
C710 H692 0.951 . S
C710 C711 1.366 . S
C710 C712 1.388 . S
C711 C710 1.366 . S
C711 C715 1.385 . S
C712 H693 0.951 . S
C712 C710 1.388 . S
C712 C713 1.366 . S
C713 C712 1.366 . S
C713 C714 1.414 . S
C713 C716 1.499 . S
C714 H694 0.950 . S
C714 C713 1.414 . S
C714 C715 1.374 . S
C715 H695 0.950 . S
C715 C711 1.385 . S
C715 C714 1.374 . S
C716 C713 1.499 . S
C716 C717 1.373 . S
C716 C718 1.389 . S
C717 H696 0.950 . S
C717 C716 1.373 . S
C717 C733 1.377 . S
C718 C716 1.389 . S
C718 C719 1.524 . S
C718 C732 1.377 . S
C719 C718 1.524 . S
C719 C720 1.397 . S
C719 C724 1.363 . S
C720 H697 0.950 . S
C720 C719 1.397 . S
C720 C721 1.334 . S
C721 H698 0.950 . S
C721 C720 1.334 . S
C721 C722 1.287 . S
C722 C721 1.287 . S
C722 C723 1.524 . S
C722 H741 0.913 . S
C723 H699 0.950 . S
C723 C722 1.524 . S
C723 C724 1.415 . S
C724 H700 0.950 . S
C724 C719 1.363 . S
C724 C723 1.415 . S
C725 H701 0.951 . S
C725 C726 1.366 . S
C725 C727 1.388 . S
C726 C725 1.366 . S
C726 C730 1.385 . S
C727 H702 0.951 . S
C727 C725 1.388 . S
C727 C728 1.366 . S
C728 C727 1.366 . S
C728 C729 1.414 . S
C728 C731 1.499 . S
C729 H703 0.950 . S
C729 C728 1.414 . S
C729 C730 1.374 . S
C730 H704 0.950 . S
C730 C726 1.385 . S
C730 C729 1.374 . S
C731 C728 1.499 . S
C731 C732 1.373 . S
C731 C733 1.389 . S
C732 H705 0.950 . S
C732 C718 1.377 . S
C732 C731 1.373 . S
C733 C717 1.377 . S
C733 C731 1.389 . S
C733 C734 1.524 . S
C734 C733 1.524 . S
C734 C735 1.397 . S
C734 C739 1.363 . S
C735 H706 0.950 . S
C735 C734 1.397 . S
C735 C736 1.334 . S
C736 H707 0.950 . S
C736 C735 1.334 . S
C736 C737 1.287 . S
C737 C736 1.287 . S
C737 C738 1.524 . S
C737 H740 0.999 . S
C738 H708 0.950 . S
C738 C737 1.524 . S
C738 C739 1.415 . S
C739 H709 0.950 . S
C739 C734 1.363 . S
C739 C738 1.415 . S
H740 C737 0.999 . S
H741 C722 0.913 . S
H742 C760 0.951 . S
H743 C762 0.951 . S
H744 C764 0.950 . S
H745 C765 0.950 . S
H746 C767 0.950 . S
H747 C770 0.950 . S
H748 C771 0.950 . S
H749 C773 0.950 . S
H750 C774 0.950 . S
H751 C775 0.951 . S
H752 C777 0.951 . S
H753 C779 0.950 . S
H754 C780 0.950 . S
H755 C782 0.950 . S
H756 C785 0.950 . S
H757 C786 0.950 . S
H758 C788 0.950 . S
H759 C789 0.950 . S
C760 H742 0.951 . S
C760 C761 1.366 . S
C760 C762 1.388 . S
C761 C760 1.366 . S
C761 C765 1.385 . S
C762 H743 0.951 . S
C762 C760 1.388 . S
C762 C763 1.366 . S
C763 C762 1.366 . S
C763 C764 1.414 . S
C763 C766 1.499 . S
C764 H744 0.950 . S
C764 C763 1.414 . S
C764 C765 1.374 . S
C765 H745 0.950 . S
C765 C761 1.385 . S
C765 C764 1.374 . S
C766 C763 1.499 . S
C766 C767 1.373 . S
C766 C768 1.389 . S
C767 H746 0.950 . S
C767 C766 1.373 . S
C767 C783 1.377 . S
C768 C766 1.389 . S
C768 C769 1.524 . S
C768 C782 1.377 . S
C769 C768 1.524 . S
C769 C770 1.397 . S
C769 C774 1.363 . S
C770 H747 0.950 . S
C770 C769 1.397 . S
C770 C771 1.334 . S
C771 H748 0.950 . S
C771 C770 1.334 . S
C771 C772 1.287 . S
C772 C771 1.287 . S
C772 C773 1.524 . S
C772 H791 0.913 . S
C773 H749 0.950 . S
C773 C772 1.524 . S
C773 C774 1.415 . S
C774 H750 0.950 . S
C774 C769 1.363 . S
C774 C773 1.415 . S
C775 H751 0.951 . S
C775 C776 1.366 . S
C775 C777 1.388 . S
C776 C775 1.366 . S
C776 C780 1.385 . S
C777 H752 0.951 . S
C777 C775 1.388 . S
C777 C778 1.366 . S
C778 C777 1.366 . S
C778 C779 1.414 . S
C778 C781 1.499 . S
C779 H753 0.950 . S
C779 C778 1.414 . S
C779 C780 1.374 . S
C780 H754 0.950 . S
C780 C776 1.385 . S
C780 C779 1.374 . S
C781 C778 1.499 . S
C781 C782 1.373 . S
C781 C783 1.389 . S
C782 H755 0.950 . S
C782 C768 1.377 . S
C782 C781 1.373 . S
C783 C767 1.377 . S
C783 C781 1.389 . S
C783 C784 1.524 . S
C784 C783 1.524 . S
C784 C785 1.397 . S
C784 C789 1.363 . S
C785 H756 0.950 . S
C785 C784 1.397 . S
C785 C786 1.334 . S
C786 H757 0.950 . S
C786 C785 1.334 . S
C786 C787 1.287 . S
C787 C786 1.287 . S
C787 C788 1.524 . S
C787 H790 0.999 . S
C788 H758 0.950 . S
C788 C787 1.524 . S
C788 C789 1.415 . S
C789 H759 0.950 . S
C789 C784 1.363 . S
C789 C788 1.415 . S
H790 C787 0.999 . S
H791 C772 0.913 . S
H792 C810 0.951 . S
H793 C812 0.951 . S
H794 C814 0.950 . S
H795 C815 0.950 . S
H796 C817 0.950 . S
H797 C820 0.950 . S
H798 C821 0.950 . S
H799 C823 0.950 . S
H800 C824 0.950 . S
H801 C825 0.950 1_655 S
H802 C827 0.951 . S
H803 C829 0.950 . S
H804 C830 0.950 . S
H805 C832 0.950 1_556 S
H806 C835 0.950 . S
H807 C836 0.950 . S
H808 C838 0.950 . S
H809 C839 0.950 1_554 S
C810 H792 0.951 . S
C810 C811 1.366 . S
C810 C812 1.388 . S
C811 C810 1.366 . S
C811 C815 1.385 . S
C812 H793 0.951 . S
C812 C810 1.388 . S
C812 C813 1.366 . S
C813 C812 1.366 . S
C813 C814 1.414 . S
C813 C816 1.499 . S
C814 H794 0.950 . S
C814 C813 1.414 . S
C814 C815 1.374 . S
C815 H795 0.950 . S
C815 C811 1.385 . S
C815 C814 1.374 . S
C816 C813 1.499 . S
C816 C817 1.373 . S
C816 C818 1.389 . S
C817 H796 0.950 . S
C817 C816 1.373 . S
C817 C833 1.377 . S
C818 C816 1.389 . S
C818 C819 1.524 . S
C818 C832 1.377 . S
C819 C818 1.524 . S
C819 C820 1.397 . S
C819 C824 1.363 . S
C820 H797 0.950 . S
C820 C819 1.397 . S
C820 C821 1.334 . S
C821 H798 0.950 . S
C821 C820 1.334 . S
C821 C822 1.287 . S
C822 C821 1.287 . S
C822 C823 1.524 . S
C822 H841 0.913 . S
C823 H799 0.950 . S
C823 C822 1.524 . S
C823 C824 1.415 . S
C824 H800 0.950 . S
C824 C819 1.363 . S
C824 C823 1.415 . S
C825 H801 0.950 1_455 S
C825 C826 1.366 . S
C825 C827 1.388 . S
C826 C825 1.366 . S
C826 C830 1.385 . S
C827 H802 0.951 . S
C827 C825 1.388 . S
C827 C828 1.366 . S
C828 C827 1.366 . S
C828 C829 1.414 . S
C828 C831 1.499 . S
C829 H803 0.950 . S
C829 C828 1.414 . S
C829 C830 1.374 . S
C830 H804 0.950 . S
C830 C826 1.385 . S
C830 C829 1.374 . S
C831 C828 1.499 . S
C831 C832 1.373 1_556 S
C831 C833 1.389 1_556 S
C832 H805 0.950 1_554 S
C832 C818 1.377 . S
C832 C831 1.373 1_554 S
C833 C817 1.377 . S
C833 C831 1.389 1_554 S
C833 C834 1.524 1_554 S
C834 C833 1.524 1_556 S
C834 C835 1.397 . S
C834 C839 1.363 . S
C835 H806 0.950 . S
C835 C834 1.397 . S
C835 C836 1.334 . S
C836 H807 0.950 . S
C836 C835 1.334 . S
C836 C837 1.287 . S
C837 C836 1.287 . S
C837 C838 1.524 . S
C837 H840 0.999 . S
C838 H808 0.950 . S
C838 C837 1.524 . S
C838 C839 1.415 . S
C839 H809 0.950 1_556 S
C839 C834 1.363 . S
C839 C838 1.415 . S
H840 C837 0.999 . S
H841 C822 0.913 . S
H842 C860 0.981 . S
H843 C862 0.951 1_565 S
H844 C864 0.950 . S
H845 C865 0.950 . S
H846 C867 0.950 . S
H847 C870 0.950 . S
H848 C871 0.950 . S
H849 C873 0.950 . S
H850 C874 0.950 . S
H851 C875 0.951 . S
H852 C877 0.951 . S
H853 C879 0.950 1_565 S
H854 C880 0.950 1_565 S
H855 C882 0.950 . S
H856 C885 0.950 1_565 S
H857 C886 0.950 1_565 S
H858 C888 0.950 . S
H859 C889 0.950 . S
C860 H842 0.981 . S
C860 C861 1.338 1_565 S
C860 C862 1.386 1_565 S
C861 C860 1.338 1_545 S
C861 C865 1.385 . S
C862 H843 0.951 1_545 S
C862 C860 1.386 1_545 S
C862 C863 1.366 . S
C863 C862 1.366 . S
C863 C864 1.414 . S
C863 C866 1.499 . S
C864 H844 0.950 . S
C864 C863 1.414 . S
C864 C865 1.374 . S
C865 H845 0.950 . S
C865 C861 1.385 . S
C865 C864 1.374 . S
C866 C863 1.499 . S
C866 C867 1.373 . S
C866 C868 1.389 . S
C867 H846 0.950 . S
C867 C866 1.373 . S
C867 C883 1.377 . S
C868 C866 1.389 . S
C868 C869 1.524 . S
C868 C882 1.377 . S
C869 C868 1.524 . S
C869 C870 1.397 . S
C869 C874 1.363 1_545 S
C870 H847 0.950 . S
C870 C869 1.397 . S
C870 C871 1.334 . S
C871 H848 0.950 . S
C871 C870 1.334 . S
C871 C872 1.287 . S
C872 C871 1.287 . S
C872 C873 1.524 1_545 S
C872 H891 0.913 . S
C873 H849 0.950 . S
C873 C872 1.524 1_565 S
C873 C874 1.415 . S
C874 H850 0.950 . S
C874 C869 1.363 1_565 S
C874 C873 1.415 . S
C875 H851 0.951 . S
C875 C876 1.366 . S
C875 C877 1.388 . S
C876 C875 1.366 . S
C876 C880 1.385 . S
C877 H852 0.951 . S
C877 C875 1.388 . S
C877 C878 1.366 . S
C878 C877 1.366 . S
C878 C879 1.414 . S
C878 C881 1.499 . S
C879 H853 0.950 1_545 S
C879 C878 1.414 . S
C879 C880 1.374 . S
C880 H854 0.950 1_545 S
C880 C876 1.385 . S
C880 C879 1.374 . S
C881 C878 1.499 . S
C881 C882 1.373 . S
C881 C883 1.389 . S
C882 H855 0.950 . S
C882 C868 1.377 . S
C882 C881 1.373 . S
C883 C867 1.377 . S
C883 C881 1.389 . S
C883 C884 1.524 . S
C884 C883 1.524 . S
C884 C885 1.397 . S
C884 C889 1.363 . S
C885 H856 0.950 1_545 S
C885 C884 1.397 . S
C885 C886 1.334 . S
C886 H857 0.950 1_545 S
C886 C885 1.334 . S
C886 C887 1.287 . S
C887 C886 1.287 . S
C887 C888 1.524 . S
C887 H890 0.999 . S
C888 H858 0.950 . S
C888 C887 1.524 . S
C888 C889 1.415 . S
C889 H859 0.950 . S
C889 C884 1.363 . S
C889 C888 1.415 . S
H890 C887 0.999 . S
H891 C872 0.913 . S
H892 C910 0.951 . S
H893 C912 0.951 . S
H894 C914 0.950 . S
H895 C915 0.950 . S
H896 C917 0.950 . S
H897 C920 0.950 . S
H898 C921 0.950 . S
H899 C923 0.950 . S
H900 C924 0.950 . S
H901 C925 0.951 . S
H902 C927 0.951 . S
H903 C929 0.950 . S
H904 C930 0.950 . S
H905 C932 0.950 . S
H906 C935 0.950 . S
H907 C936 0.950 . S
H908 C938 0.950 . S
H909 C939 0.950 . S
C910 H892 0.951 . S
C910 C911 1.366 . S
C910 C912 1.388 . S
C911 C910 1.366 . S
C911 C915 1.385 . S
C912 H893 0.951 . S
C912 C910 1.388 . S
C912 C913 1.366 . S
C913 C912 1.366 . S
C913 C914 1.414 . S
C913 C916 1.499 . S
C914 H894 0.950 . S
C914 C913 1.414 . S
C914 C915 1.374 . S
C915 H895 0.950 . S
C915 C911 1.385 . S
C915 C914 1.374 . S
C916 C913 1.499 . S
C916 C917 1.373 . S
C916 C918 1.389 . S
C917 H896 0.950 . S
C917 C916 1.373 . S
C917 C933 1.377 . S
C918 C916 1.389 . S
C918 C919 1.524 . S
C918 C932 1.377 . S
C919 C918 1.524 . S
C919 C920 1.397 . S
C919 C924 1.363 . S
C920 H897 0.950 . S
C920 C919 1.397 . S
C920 C921 1.334 . S
C921 H898 0.950 . S
C921 C920 1.334 . S
C921 C922 1.287 . S
C922 C921 1.287 . S
C922 C923 1.524 . S
C922 H941 0.913 . S
C923 H899 0.950 . S
C923 C922 1.524 . S
C923 C924 1.415 . S
C924 H900 0.950 . S
C924 C919 1.363 . S
C924 C923 1.415 . S
C925 H901 0.951 . S
C925 C926 1.366 . S
C925 C927 1.388 . S
C926 C925 1.366 . S
C926 C930 1.385 . S
C927 H902 0.951 . S
C927 C925 1.388 . S
C927 C928 1.366 . S
C928 C927 1.366 . S
C928 C929 1.414 . S
C928 C931 1.499 . S
C929 H903 0.950 . S
C929 C928 1.414 . S
C929 C930 1.374 . S
C930 H904 0.950 . S
C930 C926 1.385 . S
C930 C929 1.374 . S
C931 C928 1.499 . S
C931 C932 1.373 . S
C931 C933 1.389 . S
C932 H905 0.950 . S
C932 C918 1.377 . S
C932 C931 1.373 . S
C933 C917 1.377 . S
C933 C931 1.389 . S
C933 C934 1.524 . S
C934 C933 1.524 . S
C934 C935 1.397 . S
C934 C939 1.363 . S
C935 H906 0.950 . S
C935 C934 1.397 . S
C935 C936 1.334 . S
C936 H907 0.950 . S
C936 C935 1.334 . S
C936 C937 1.287 . S
C937 C936 1.287 . S
C937 C938 1.524 . S
C937 H940 0.999 . S
C938 H908 0.950 . S
C938 C937 1.524 . S
C938 C939 1.415 . S
C939 H909 0.950 . S
C939 C934 1.363 . S
C939 C938 1.415 . S
H940 C937 0.999 . S
H941 C922 0.913 . S
H942 C960 0.951 . S
H943 C962 0.951 . S
H944 C964 0.950 . S
H945 C965 0.950 . S
H946 C967 0.950 . S
H947 C970 0.950 . S
H948 C971 0.950 . S
H949 C973 0.950 . S
H950 C974 0.950 . S
H951 C975 0.951 . S
H952 C977 0.951 . S
H953 C979 0.950 . S
H954 C980 0.950 . S
H955 C982 0.950 . S
H956 C985 0.950 . S
H957 C986 0.950 . S
H958 C988 0.950 . S
H959 C989 0.950 . S
C960 H942 0.951 . S
C960 C961 1.366 . S
C960 C962 1.388 . S
C961 C960 1.366 . S
C961 C965 1.385 1_545 S
C962 H943 0.951 . S
C962 C960 1.388 . S
C962 C963 1.366 . S
C963 C962 1.366 . S
C963 C964 1.414 1_545 S
C963 C966 1.499 . S
C964 H944 0.950 . S
C964 C963 1.414 1_565 S
C964 C965 1.374 . S
C965 H945 0.950 . S
C965 C961 1.385 1_565 S
C965 C964 1.374 . S
C966 C963 1.499 . S
C966 C967 1.373 1_545 S
C966 C968 1.389 . S
C967 H946 0.950 . S
C967 C966 1.373 1_565 S
C967 C983 1.377 . S
C968 C966 1.389 . S
C968 C969 1.524 . S
C968 C982 1.377 . S
C969 C968 1.524 . S
C969 C970 1.397 . S
C969 C974 1.363 . S
C970 H947 0.950 . S
C970 C969 1.397 . S
C970 C971 1.334 . S
C971 H948 0.950 . S
C971 C970 1.334 . S
C971 C972 1.287 . S
C972 C971 1.287 . S
C972 C973 1.524 . S
C972 H991 0.913 . S
C973 H949 0.950 . S
C973 C972 1.524 . S
C973 C974 1.415 . S
C974 H950 0.950 . S
C974 C969 1.363 . S
C974 C973 1.415 . S
C975 H951 0.951 . S
C975 C976 1.366 1_565 S
C975 C977 1.388 . S
C976 C975 1.366 1_545 S
C976 C980 1.385 . S
C977 H952 0.951 . S
C977 C975 1.388 . S
C977 C978 1.366 1_565 S
C978 C977 1.366 1_545 S
C978 C979 1.414 . S
C978 C981 1.499 . S
C979 H953 0.950 . S
C979 C978 1.414 . S
C979 C980 1.374 . S
C980 H954 0.950 . S
C980 C976 1.385 . S
C980 C979 1.374 . S
C981 C978 1.499 . S
C981 C982 1.373 . S
C981 C983 1.389 1_545 S
C982 H955 0.950 . S
C982 C968 1.377 . S
C982 C981 1.373 . S
C983 C967 1.377 . S
C983 C981 1.389 1_565 S
C983 C984 1.524 . S
C984 C983 1.524 . S
C984 C985 1.397 . S
C984 C989 1.363 . S
C985 H956 0.950 . S
C985 C984 1.397 . S
C985 C986 1.334 . S
C986 H957 0.950 . S
C986 C985 1.334 . S
C986 C987 1.287 . S
C987 C986 1.287 . S
C987 C988 1.524 . S
C987 H990 0.999 . S
C988 H958 0.950 . S
C988 C987 1.524 . S
C988 C989 1.415 . S
C989 H959 0.950 . S
C989 C984 1.363 . S
C989 C988 1.415 . S
H990 C987 0.999 . S
H991 C972 0.913 . S
H992 C1010 0.951 . S
H993 C1012 0.951 . S
H994 C1014 0.950 . S
H995 C1015 0.950 . S
H996 C1017 0.950 . S
H997 C1020 0.950 . S
H998 C1021 0.950 . S
H999 C1023 0.950 . S
H1000 C1024 0.950 . S
H1001 C1025 0.951 . S
H1002 C1027 0.951 . S
H1003 C1029 0.950 . S
H1004 C1030 0.950 . S
H1005 C1032 0.951 . S
H1006 C1035 0.950 . S
H1007 C1036 0.950 . S
H1008 C1038 0.950 . S
H1009 C1039 0.950 . S
C1010 H992 0.951 . S
C1010 C1011 1.366 . S
C1010 C1012 1.388 . S
C1011 C1010 1.366 . S
C1011 C1015 1.385 . S
C1012 H993 0.951 . S
C1012 C1010 1.388 . S
C1012 C1013 1.366 . S
C1013 C1012 1.366 . S
C1013 C1014 1.414 . S
C1013 C1016 1.499 . S
C1014 H994 0.950 . S
C1014 C1013 1.414 . S
C1014 C1015 1.374 . S
C1015 H995 0.950 . S
C1015 C1011 1.385 . S
C1015 C1014 1.374 . S
C1016 C1013 1.499 . S
C1016 C1017 1.373 . S
C1016 C1018 1.389 . S
C1017 H996 0.950 . S
C1017 C1016 1.373 . S
C1017 C1033 1.377 . S
C1018 C1016 1.389 . S
C1018 C1019 1.524 . S
C1018 C1032 1.377 . S
C1019 C1018 1.524 . S
C1019 C1020 1.397 . S
C1019 C1024 1.363 . S
C1020 H997 0.950 . S
C1020 C1019 1.397 . S
C1020 C1021 1.334 . S
C1021 H998 0.950 . S
C1021 C1020 1.334 . S
C1021 C1022 1.287 . S
C1022 C1021 1.287 . S
C1022 C1023 1.524 . S
C1022 H1041 0.913 . S
C1023 H999 0.950 . S
C1023 C1022 1.524 . S
C1023 C1024 1.415 . S
C1024 H1000 0.950 . S
C1024 C1019 1.363 . S
C1024 C1023 1.415 . S
C1025 H1001 0.951 . S
C1025 C1026 1.366 . S
C1025 C1027 1.388 . S
C1026 C1025 1.366 . S
C1026 C1030 1.385 . S
C1027 H1002 0.951 . S
C1027 C1025 1.388 . S
C1027 C1028 1.366 . S
C1028 C1027 1.366 . S
C1028 C1029 1.414 . S
C1028 C1031 1.499 . S
C1029 H1003 0.950 . S
C1029 C1028 1.414 . S
C1029 C1030 1.374 . S
C1030 H1004 0.950 . S
C1030 C1026 1.385 . S
C1030 C1029 1.374 . S
C1031 C1028 1.499 . S
C1031 C1032 1.373 1_554 S
C1031 C1033 1.389 1_554 S
C1032 H1005 0.951 . S
C1032 C1018 1.377 . S
C1032 C1031 1.373 1_556 S
C1033 C1017 1.377 . S
C1033 C1031 1.389 1_556 S
C1033 C1034 1.524 1_556 S
C1034 C1033 1.524 1_554 S
C1034 C1035 1.397 . S
C1034 C1039 1.363 1_554 S
C1035 H1006 0.950 . S
C1035 C1034 1.397 . S
C1035 C1036 1.334 . S
C1036 H1007 0.950 . S
C1036 C1035 1.334 . S
C1036 C1037 1.287 . S
C1037 C1036 1.287 . S
C1037 C1038 1.524 . S
C1037 H1040 0.999 . S
C1038 H1008 0.950 . S
C1038 C1037 1.524 . S
C1038 C1039 1.415 1_554 S
C1039 H1009 0.950 . S
C1039 C1034 1.363 1_556 S
C1039 C1038 1.415 1_556 S
H1040 C1037 0.999 . S
H1041 C1022 0.913 . S
H1042 C1060 0.951 . S
H1043 C1062 0.951 1_655 S
H1044 C1064 0.950 . S
H1045 C1065 0.950 . S
H1046 C1067 0.950 . S
H1047 C1070 0.950 . S
H1048 C1071 0.950 . S
H1049 C1073 0.950 . S
H1050 C1074 0.950 . S
H1051 C1075 0.951 . S
H1052 C1077 0.951 . S
H1053 C1079 0.950 . S
H1054 C1080 0.950 . S
H1055 C1082 0.950 . S
H1056 C1085 0.950 . S
H1057 C1086 0.950 . S
H1058 C1088 0.950 . S
H1059 C1089 0.950 . S
C1060 H1042 0.951 . S
C1060 C1061 1.366 . S
C1060 C1062 1.388 . S
C1061 C1060 1.366 . S
C1061 C1065 1.385 . S
C1062 H1043 0.951 1_455 S
C1062 C1060 1.388 . S
C1062 C1063 1.366 . S
C1063 C1062 1.366 . S
C1063 C1064 1.414 . S
C1063 C1066 1.499 . S
C1064 H1044 0.950 . S
C1064 C1063 1.414 . S
C1064 C1065 1.374 . S
C1065 H1045 0.950 . S
C1065 C1061 1.385 . S
C1065 C1064 1.374 . S
C1066 C1063 1.499 . S
C1066 C1067 1.373 . S
C1066 C1068 1.389 . S
C1067 H1046 0.950 . S
C1067 C1066 1.373 . S
C1067 C1083 1.377 . S
C1068 C1066 1.389 . S
C1068 C1069 1.524 . S
C1068 C1082 1.377 . S
C1069 C1068 1.524 . S
C1069 C1070 1.397 . S
C1069 C1074 1.363 1_455 S
C1070 H1047 0.950 . S
C1070 C1069 1.397 . S
C1070 C1071 1.334 . S
C1071 H1048 0.950 . S
C1071 C1070 1.334 . S
C1071 C1072 1.287 . S
C1072 C1071 1.287 . S
C1072 C1073 1.524 1_455 S
C1072 H1091 0.913 1_455 S
C1073 H1049 0.950 . S
C1073 C1072 1.524 1_655 S
C1073 C1074 1.415 . S
C1074 H1050 0.950 . S
C1074 C1069 1.363 1_655 S
C1074 C1073 1.415 . S
C1075 H1051 0.951 . S
C1075 C1076 1.366 . S
C1075 C1077 1.388 . S
C1076 C1075 1.366 . S
C1076 C1080 1.385 1_455 S
C1077 H1052 0.951 . S
C1077 C1075 1.388 . S
C1077 C1078 1.366 . S
C1078 C1077 1.366 . S
C1078 C1079 1.414 1_455 S
C1078 C1081 1.499 . S
C1079 H1053 0.950 . S
C1079 C1078 1.414 1_655 S
C1079 C1080 1.374 . S
C1080 H1054 0.950 . S
C1080 C1076 1.385 1_655 S
C1080 C1079 1.374 . S
C1081 C1078 1.499 . S
C1081 C1082 1.373 . S
C1081 C1083 1.389 . S
C1082 H1055 0.950 . S
C1082 C1068 1.377 . S
C1082 C1081 1.373 . S
C1083 C1067 1.377 . S
C1083 C1081 1.389 . S
C1083 C1084 1.524 . S
C1084 C1083 1.524 . S
C1084 C1085 1.397 . S
C1084 C1089 1.363 . S
C1085 H1056 0.950 . S
C1085 C1084 1.397 . S
C1085 C1086 1.334 . S
C1086 H1057 0.950 . S
C1086 C1085 1.334 . S
C1086 C1087 1.287 . S
C1087 C1086 1.287 . S
C1087 C1088 1.524 . S
C1087 H1090 0.999 . S
C1088 H1058 0.950 . S
C1088 C1087 1.524 . S
C1088 C1089 1.415 . S
C1089 H1059 0.950 . S
C1089 C1084 1.363 . S
C1089 C1088 1.415 . S
H1090 C1087 0.999 . S
H1091 C1072 0.913 1_655 S
C211 C6 0.705 . S
C226 C186 0.703 . S
C261 C59 1.925 . S
C276 C160 1.870 . S
C311 C86 1.227 . S
C326 C172 1.211 . S
C361 C15 0.308 . S
C376 C184 0.404 . S
C426 C162 1.807 . S
C411 C50 1.820 . S
C476 C174 1.087 . S
C461 C95 1.094 . S
C511 C46 1.252 . S
C526 C136 1.233 . S
C561 C99 3.404 . S
C576 C150 3.384 1_655 S
C611 C10 1.830 . S
C626 C126 1.830 1_565 S
C676 C138 1.087 . S
C661 C55 1.090 . S
C726 C148 2.606 . S
C711 C90 2.682 . S
C761 C19 1.923 . S
C776 C124 1.877 . S
C826 C153 1.751 . S
C811 C18 1.676 . S
C861 C49 1.420 . S
C876 C129 1.487 . S
C911 C98 1.504 . S
C926 C141 1.530 . S
C976 C177 1.538 . S
C961 C58 1.518 . S
C1026 C189 1.277 . S
C1011 C89 1.234 . S
C1061 C9 1.406 . S
C1076 C165 1.453 . S
