# Generated by pormake.
# Topology nom, (4,4)-cn, num edge types: 1
# Building blocks:
#     Node 0, Type 0, BuildingBlock: KUFVIS_clean_linker_0, # of connection points: 4
#     Node 1, Type 0, BuildingBlock: KUFVIS_clean_linker_0, # of connection points: 4
#     Node 2, Type 0, BuildingBlock: KUFVIS_clean_linker_0, # of connection points: 4
#     Node 3, Type 0, BuildingBlock: KUFVIS_clean_linker_0, # of connection points: 4
#     Node 4, Type 0, BuildingBlock: KUFVIS_clean_linker_0, # of connection points: 4
#     Node 5, Type 0, BuildingBlock: KUFVIS_clean_linker_0, # of connection points: 4
#     Node 6, Type 1, BuildingBlock: CEKHIL_clean_sbu_0, # of connection points: 4
#     Node 7, Type 1, BuildingBlock: CEKHIL_clean_sbu_0, # of connection points: 4
#     Node 8, Type 1, BuildingBlock: CEKHIL_clean_sbu_0, # of connection points: 4
#     Node 9, Type 1, BuildingBlock: CEKHIL_clean_sbu_0, # of connection points: 4
#     Node 10, Type 1, BuildingBlock: CEKHIL_clean_sbu_0, # of connection points: 4
#     Node 11, Type 1, BuildingBlock: CEKHIL_clean_sbu_0, # of connection points: 4
#     Edge 12, Type (0, 1), BuildingBlock: TEMPAE_clean_linker_10, # of connection points: 2
#     Edge 13, Type (0, 1), BuildingBlock: TEMPAE_clean_linker_10, # of connection points: 2
#     Edge 14, Type (0, 1), BuildingBlock: TEMPAE_clean_linker_10, # of connection points: 2
#     Edge 15, Type (0, 1), BuildingBlock: TEMPAE_clean_linker_10, # of connection points: 2
#     Edge 16, Type (0, 1), BuildingBlock: TEMPAE_clean_linker_10, # of connection points: 2
#     Edge 17, Type (0, 1), BuildingBlock: TEMPAE_clean_linker_10, # of connection points: 2
#     Edge 18, Type (0, 1), BuildingBlock: TEMPAE_clean_linker_10, # of connection points: 2
#     Edge 19, Type (0, 1), BuildingBlock: TEMPAE_clean_linker_10, # of connection points: 2
#     Edge 20, Type (0, 1), BuildingBlock: TEMPAE_clean_linker_10, # of connection points: 2
#     Edge 21, Type (0, 1), BuildingBlock: TEMPAE_clean_linker_10, # of connection points: 2
#     Edge 22, Type (0, 1), BuildingBlock: TEMPAE_clean_linker_10, # of connection points: 2
#     Edge 23, Type (0, 1), BuildingBlock: TEMPAE_clean_linker_10, # of connection points: 2
#     Edge 24, Type (0, 1), BuildingBlock: TEMPAE_clean_linker_10, # of connection points: 2
#     Edge 25, Type (0, 1), BuildingBlock: TEMPAE_clean_linker_10, # of connection points: 2
#     Edge 26, Type (0, 1), BuildingBlock: TEMPAE_clean_linker_10, # of connection points: 2
#     Edge 27, Type (0, 1), BuildingBlock: TEMPAE_clean_linker_10, # of connection points: 2
#     Edge 28, Type (0, 1), BuildingBlock: TEMPAE_clean_linker_10, # of connection points: 2
#     Edge 29, Type (0, 1), BuildingBlock: TEMPAE_clean_linker_10, # of connection points: 2
#     Edge 30, Type (0, 1), BuildingBlock: TEMPAE_clean_linker_10, # of connection points: 2
#     Edge 31, Type (0, 1), BuildingBlock: TEMPAE_clean_linker_10, # of connection points: 2
#     Edge 32, Type (0, 1), BuildingBlock: TEMPAE_clean_linker_10, # of connection points: 2
#     Edge 33, Type (0, 1), BuildingBlock: TEMPAE_clean_linker_10, # of connection points: 2
#     Edge 34, Type (0, 1), BuildingBlock: TEMPAE_clean_linker_10, # of connection points: 2
#     Edge 35, Type (0, 1), BuildingBlock: TEMPAE_clean_linker_10, # of connection points: 2
# Relax obj value: 0.004
# Max RMSD: 0.050
# Mean RMSD: 0.042
data_MOF--net-nom--node1-CEKHIL_clean_sbu_0--node2-KUFVIS_clean_linker_0--edge1-TEMPAE_clean_linker_10
_symmetry_space_group_name_H-M    P1
_symmetry_Int_Tables_number       1
_symmetry_cell_setting            triclinic
loop_
_symmetry_equiv_pos_as_xyz
'x, y, z'
_cell_length_a     46.661568
_cell_length_b     46.200147
_cell_length_c     46.786039
_cell_angle_alpha  89.920765
_cell_angle_beta   90.082102
_cell_angle_gamma 120.97434
loop_
_atom_site_label
_atom_site_type_symbol
_atom_site_fract_x
_atom_site_fract_y
_atom_site_fract_z
_atom_type_partial_charge
H0 H 0.13698 0.62276 0.35694 0.0
H1 H 0.06211 0.58946 0.29214 0.0
H2 H 0.03407 0.56344 0.38128 0.0
H3 H 0.9863 0.5595 0.36803 0.0
H4 H 0.91191 0.50653 0.30382 0.0
H5 H 0.01418 0.54311 0.28352 0.0
C6 C 0.11072 0.60936 0.35104 0.0
C7 C 0.08646 0.59446 0.37234 0.0
C8 C 0.10212 0.60728 0.32231 0.0
C9 C 0.06814 0.5896 0.31447 0.0
C10 C 0.04251 0.57338 0.33546 0.0
C11 C 0.05244 0.57576 0.36455 0.0
C12 C 1.00587 0.55443 0.327 0.0
C13 C 0.98025 0.54942 0.34658 0.0
C14 C 0.94636 0.53202 0.33812 0.0
C15 C 0.93798 0.51975 0.31032 0.0
C16 C 0.96227 0.52403 0.29069 0.0
C17 C 0.99603 0.54115 0.29895 0.0
H18 H 0.54063 0.12593 0.51154 0.0
H19 H 0.48602 0.05144 0.44751 0.0
H20 H 0.50023 0.02193 0.53229 0.0
H21 H 0.45345 0.97441 0.5235 0.0
H22 H 0.41729 0.89894 0.45846 0.0
H23 H 0.47997 1.0025 0.43441 0.0
C24 C 0.5266 0.09958 0.50513 0.0
C25 C 0.52122 0.0747 0.52489 0.0
C26 C 0.51444 0.09142 0.47732 0.0
C27 C 0.49601 0.05722 0.46898 0.0
C28 C 0.48991 0.03102 0.48866 0.0
C29 C 0.50309 0.04058 0.51675 0.0
C30 C 0.46989 0.99408 0.48021 0.0
C31 C 0.45296 0.96829 0.50115 0.0
C32 C 0.43415 0.93405 0.49322 0.0
C33 C 0.43164 0.9254 0.46446 0.0
C34 C 0.4473 0.94987 0.44325 0.0
C35 C 0.46712 0.98407 0.45111 0.0
H36 H 0.53669 0.41353 0.63097 0.0
H37 H 0.47875 0.43007 0.69209 0.0
H38 H 0.4963 0.47517 0.6075 0.0
H39 H 0.44674 0.47121 0.61501 0.0
H40 H 0.40963 0.5096 0.67898 0.0
H41 H 0.47521 0.47504 0.70407 0.0
C42 C 0.52261 0.4255 0.63649 0.0
C43 C 0.51822 0.44506 0.61616 0.0
C44 C 0.509 0.42049 0.66377 0.0
C45 C 0.48989 0.43506 0.67104 0.0
C46 C 0.48448 0.45494 0.65086 0.0
C47 C 0.49906 0.45965 0.6233 0.0
C48 C 0.46377 0.47053 0.65848 0.0
C49 C 0.44604 0.47731 0.63721 0.0
C50 C 0.42635 0.49122 0.64475 0.0
C51 C 0.42418 0.49815 0.67338 0.0
C52 C 0.441 0.49173 0.69484 0.0
C53 C 0.46136 0.47868 0.68732 0.0
H54 H 0.13596 0.51292 0.80154 0.0
H55 H 0.06188 0.4752 0.86715 0.0
H56 H 0.03533 0.481 0.77891 0.0
H57 H 0.98558 0.44082 0.78982 0.0
H58 H 0.91175 0.41428 0.85442 0.0
H59 H 0.01479 0.47112 0.87828 0.0
C60 C 0.11 0.50202 0.80781 0.0
C61 C 0.08617 0.4961 0.78703 0.0
C62 C 0.10153 0.49516 0.83658 0.0
C63 C 0.06793 0.48151 0.84488 0.0
C64 C 0.04271 0.47525 0.82431 0.0
C65 C 0.05289 0.48385 0.79533 0.0
C66 C 1.00609 0.45913 0.83267 0.0
C67 C 0.9801 0.44263 0.81193 0.0
C68 C 0.94621 0.42682 0.81983 0.0
C69 C 0.93793 0.42671 0.84838 0.0
C70 C 0.96243 0.44172 0.86944 0.0
C71 C 0.99641 0.4588 0.86159 0.0
H72 H 0.50979 0.90511 0.01207 0.0
H73 H 0.56313 0.98055 0.94844 0.0
H74 H 0.54952 0.0087 0.03386 0.0
H75 H 0.59516 0.05712 0.02487 0.0
H76 H 0.63038 0.13262 0.95975 0.0
H77 H 0.56889 0.02904 0.93572 0.0
C78 C 0.52361 0.93155 0.0059 0.0
C79 C 0.52905 0.95611 0.02596 0.0
C80 C 0.53537 0.94021 0.97802 0.0
C81 C 0.55344 0.97449 0.96997 0.0
C82 C 0.55946 1.00037 0.98991 0.0
C83 C 0.5467 0.99035 0.01807 0.0
C84 C 0.57887 0.03739 0.98156 0.0
C85 C 0.5955 0.06322 0.00251 0.0
C86 C 0.6139 0.0975 0.99456 0.0
C87 C 0.61627 0.10614 0.96579 0.0
C88 C 0.60097 0.08164 0.9446 0.0
C89 C 0.58149 0.04744 0.95246 0.0
H90 H 0.52192 0.62767 0.12614 0.0
H91 H 0.56217 0.59331 0.19088 0.0
H92 H 0.56247 0.56673 0.10176 0.0
H93 H 0.60635 0.56297 0.1146 0.0
H94 H 0.6245 0.50684 0.17732 0.0
H95 H 0.56159 0.54564 0.19909 0.0
C96 C 0.53415 0.61389 0.13202 0.0
C97 C 0.54267 0.59855 0.11071 0.0
C98 C 0.5408 0.6119 0.16076 0.0
C99 C 0.55622 0.59362 0.16858 0.0
C100 C 0.56472 0.57695 0.14752 0.0
C101 C 0.55712 0.57939 0.11849 0.0
C102 C 0.58156 0.55742 0.15569 0.0
C103 C 0.60178 0.5523 0.13587 0.0
C104 C 0.61704 0.53386 0.14374 0.0
C105 C 0.61249 0.52079 0.17129 0.0
C106 C 0.59288 0.52521 0.19123 0.0
C107 C 0.57745 0.54342 0.18351 0.0
Co108 Co 0.65038 0.38762 0.4026 0.0
O109 O 0.68662 0.39211 0.3788 0.0
O110 O 0.69244 0.42735 0.4132 0.0
C111 C 0.62733 0.33136 0.41174 0.0
O112 O 0.62132 0.39259 0.43255 0.0
Co113 Co 0.57465 0.34019 0.39063 0.0
O114 O 0.56774 0.35057 0.43021 0.0
C115 C 0.6127 0.40669 0.36098 0.0
C116 C 0.70647 0.41896 0.39359 0.0
C117 C 0.59125 0.37669 0.4423 0.0
O118 O 0.64001 0.41424 0.37418 0.0
O119 O 0.58527 0.37844 0.36394 0.0
O120 O 0.65289 0.3538 0.42636 0.0
O121 O 0.6176 0.34331 0.3915 0.0
Co122 Co 0.28521 0.64139 0.57674 0.0
O123 O 0.31858 0.63712 0.5979 0.0
O124 O 0.28646 0.60187 0.56423 0.0
C125 C 0.31784 0.69764 0.56714 0.0
O126 O 0.24887 0.63752 0.54968 0.0
Co127 Co 0.2595 0.68772 0.59842 0.0
O128 O 0.23112 0.67233 0.56362 0.0
C129 C 0.23722 0.62269 0.62682 0.0
C130 C 0.31021 0.6103 0.58285 0.0
C131 C 0.22996 0.65011 0.54673 0.0
O132 O 0.25007 0.61387 0.6067 0.0
O133 O 0.24168 0.65233 0.62904 0.0
O134 O 0.31982 0.67549 0.5515 0.0
O135 O 0.29862 0.68541 0.58914 0.0
Co136 Co 0.65726 0.27752 0.73386 0.0
O137 O 0.6523 0.30954 0.71064 0.0
O138 O 0.61774 0.27857 0.74506 0.0
C139 C 0.71292 0.3119 0.74318 0.0
O140 O 0.65351 0.24276 0.76314 0.0
Co141 Co 0.70471 0.25129 0.71743 0.0
O142 O 0.68925 0.22507 0.75334 0.0
C143 C 0.63758 0.22074 0.69079 0.0
C144 C 0.62565 0.30143 0.72547 0.0
C145 C 0.66628 0.22437 0.76853 0.0
O146 O 0.63042 0.23993 0.7053 0.0
O147 O 0.66596 0.22277 0.69177 0.0
O148 O 0.69068 0.31436 0.75795 0.0
O149 O 0.70115 0.29086 0.72219 0.0
Co150 Co 0.39638 0.64499 0.90233 0.0
O151 O 0.35868 0.64048 0.88097 0.0
O152 O 0.35488 0.60577 0.9152 0.0
C153 C 0.42122 0.70139 0.91118 0.0
O154 O 0.42852 0.64136 0.92978 0.0
Co155 Co 0.46935 0.69048 0.88075 0.0
O156 O 0.48189 0.67579 0.9161 0.0
C157 C 0.42515 0.62518 0.85289 0.0
C158 C 0.33973 0.61393 0.89635 0.0
C159 C 0.46021 0.65389 0.93306 0.0
O160 O 0.40329 0.61685 0.87291 0.0
O161 O 0.4511 0.65467 0.8505 0.0
O162 O 0.39661 0.67952 0.92696 0.0
O163 O 0.428 0.6888 0.88945 0.0
Co164 Co 0.76591 0.39013 0.07773 0.0
O165 O 0.73399 0.39489 0.10075 0.0
O166 O 0.76465 0.43 0.06645 0.0
C167 C 0.73176 0.33393 0.06841 0.0
O168 O 0.80061 0.39409 0.04865 0.0
Co169 Co 0.79158 0.34197 0.09442 0.0
O170 O 0.81795 0.35787 0.05878 0.0
C171 C 0.82143 0.40947 0.12152 0.0
C172 C 0.74184 0.42175 0.08588 0.0
C173 C 0.81886 0.38117 0.04352 0.0
O174 O 0.80288 0.41706 0.1066 0.0
O175 O 0.81917 0.38069 0.1206 0.0
O176 O 0.72957 0.35644 0.05345 0.0
O177 O 0.75254 0.34575 0.08945 0.0
Co178 Co 0.39003 0.75125 0.23433 0.0
O179 O 0.39391 0.71842 0.21144 0.0
O180 O 0.42904 0.74917 0.24563 0.0
C181 C 0.33432 0.71796 0.24398 0.0
O182 O 0.39478 0.78675 0.26323 0.0
Co183 Co 0.34382 0.77877 0.21721 0.0
O184 O 0.35981 0.80531 0.2529 0.0
C185 C 0.41067 0.80767 0.19054 0.0
C186 C 0.42049 0.72604 0.22622 0.0
C187 C 0.38256 0.80572 0.26826 0.0
O188 O 0.41731 0.78827 0.2054 0.0
O189 O 0.38265 0.8064 0.19137 0.0
O190 O 0.35636 0.71513 0.2588 0.0
O191 O 0.34625 0.73863 0.22272 0.0
C192 C 0.15314 0.65876 0.30456 0.0
C193 C 0.13004 0.62412 0.30149 0.0
C194 C 0.18497 0.67387 0.29201 0.0
C195 C 0.19407 0.65388 0.27591 0.0
C196 C 0.16989 0.6194 0.2709 0.0
C197 C 0.13814 0.60487 0.28385 0.0
C198 C 0.20972 0.71067 0.2979 0.0
C199 C 0.17833 0.59726 0.25358 0.0
C200 C 0.2751 0.70148 0.23317 0.0
C201 C 0.29825 0.70033 0.25166 0.0
C202 C 0.24098 0.6856 0.2403 0.0
C203 C 0.22966 0.66845 0.26673 0.0
C204 C 0.25287 0.66685 0.28532 0.0
C205 C 0.28679 0.68262 0.2775 0.0
C206 C 0.21713 0.68765 0.21973 0.0
C207 C 0.242 0.64909 0.31383 0.0
H208 H 0.14704 0.67356 0.3185 0.0
H209 H 0.12058 0.57798 0.28187 0.0
H210 H 0.22981 0.71288 0.31211 0.0
H211 H 0.22169 0.7242 0.27777 0.0
H212 H 0.19782 0.72345 0.30836 0.0
H213 H 0.15573 0.57263 0.24825 0.0
H214 H 0.19116 0.61009 0.23346 0.0
H215 H 0.19572 0.59236 0.26593 0.0
H216 H 0.28367 0.71491 0.21306 0.0
H217 H 0.30445 0.68158 0.29191 0.0
H218 H 0.20673 0.70213 0.22958 0.0
H219 H 0.19579 0.66198 0.21504 0.0
H220 H 0.22941 0.70004 0.19928 0.0
H221 H 0.23193 0.66152 0.32738 0.0
H222 H 0.26284 0.64925 0.32548 0.0
H223 H 0.22162 0.62251 0.31075 0.0
C224 C 0.50987 0.14115 0.46485 0.0
C225 C 0.52244 0.12019 0.45808 0.0
C226 C 0.52531 0.17448 0.45463 0.0
C227 C 0.55412 0.18729 0.43717 0.0
C228 C 0.56536 0.16537 0.42849 0.0
C229 C 0.54945 0.13209 0.43916 0.0
C230 C 0.51231 0.19674 0.46443 0.0
C231 C 0.59569 0.17778 0.40964 0.0
C232 C 0.58387 0.27158 0.39978 0.0
C233 C 0.60926 0.29454 0.41818 0.0
C234 C 0.56623 0.23666 0.40532 0.0
C235 C 0.57385 0.22419 0.43004 0.0
C236 C 0.5996 0.24721 0.44863 0.0
C237 C 0.61707 0.28205 0.44242 0.0
C238 C 0.53922 0.21311 0.38483 0.0
C239 C 0.6084 0.23508 0.47535 0.0
H240 H 0.48946 0.13222 0.48 0.0
H241 H 0.55975 0.11626 0.43449 0.0
H242 H 0.53055 0.21614 0.47937 0.0
H243 H 0.50948 0.2102 0.44601 0.0
H244 H 0.48785 0.18216 0.47551 0.0
H245 H 0.59857 0.15673 0.40177 0.0
H246 H 0.59416 0.19181 0.39102 0.0
H247 H 0.61844 0.19548 0.42191 0.0
H248 H 0.57772 0.28092 0.38089 0.0
H249 H 0.63662 0.29954 0.45674 0.0
H250 H 0.51474 0.19994 0.39594 0.0
H251 H 0.54433 0.19345 0.37725 0.0
H252 H 0.53719 0.22659 0.36598 0.0
H253 H 0.5863 0.22231 0.48961 0.0
H254 H 0.62935 0.25603 0.48736 0.0
H255 H 0.61549 0.21626 0.46974 0.0
C256 C 0.37329 0.48584 0.62775 0.0
C257 C 0.40781 0.49996 0.6239 0.0
C258 C 0.35663 0.50156 0.61676 0.0
C259 C 0.37481 0.5321 0.60119 0.0
C260 C 0.40896 0.54458 0.59477 0.0
C261 C 0.42514 0.52848 0.60638 0.0
C262 C 0.32035 0.48726 0.62437 0.0
C263 C 0.42918 0.57658 0.57774 0.0
C264 C 0.32408 0.56683 0.56654 0.0
C265 C 0.32706 0.59054 0.58692 0.0
C266 C 0.34026 0.54834 0.57035 0.0
C267 C 0.35934 0.55311 0.5954 0.0
C268 C 0.3624 0.57707 0.61599 0.0
C269 C 0.34655 0.59562 0.61137 0.0
C270 C 0.33684 0.5236 0.54763 0.0
C271 C 0.38197 0.58271 0.64326 0.0
H272 H 0.35992 0.46404 0.64161 0.0
H273 H 0.45189 0.53982 0.60372 0.0
H274 H 0.31841 0.50369 0.64058 0.0
H275 H 0.30583 0.48669 0.60538 0.0
H276 H 0.30873 0.46131 0.63327 0.0
H277 H 0.45309 0.57951 0.57015 0.0
H278 H 0.41477 0.57699 0.55901 0.0
H279 H 0.43504 0.59864 0.59132 0.0
H280 H 0.30931 0.56292 0.54746 0.0
H281 H 0.34899 0.61381 0.62727 0.0
H282 H 0.32372 0.49764 0.55652 0.0
H283 H 0.36193 0.52931 0.54063 0.0
H284 H 0.32276 0.52414 0.52868 0.0
H285 H 0.37112 0.55878 0.65555 0.0
H286 H 0.38206 0.60229 0.65708 0.0
H287 H 0.40821 0.59057 0.63819 0.0
C288 C 0.89503 0.37459 0.8036 0.0
C289 C 0.91802 0.40906 0.79939 0.0
C290 C 0.86295 0.3589 0.79143 0.0
C291 C 0.85352 0.37813 0.77453 0.0
C292 C 0.87754 0.41238 0.76844 0.0
C293 C 0.90953 0.42751 0.78107 0.0
C294 C 0.83835 0.32238 0.79851 0.0
C295 C 0.86874 0.43368 0.75025 0.0
C296 C 0.77214 0.32847 0.73255 0.0
C297 C 0.74907 0.33014 0.7507 0.0
C298 C 0.80633 0.3448 0.73954 0.0
C299 C 0.81782 0.36303 0.76546 0.0
C300 C 0.79471 0.36522 0.78367 0.0
C301 C 0.76069 0.3489 0.77602 0.0
C302 C 0.83006 0.34203 0.7194 0.0
C303 C 0.8058 0.38419 0.81162 0.0
H304 H 0.90142 0.36045 0.81813 0.0
H305 H 0.92701 0.4543 0.77825 0.0
H306 H 0.81842 0.32078 0.81252 0.0
H307 H 0.82614 0.30792 0.77879 0.0
H308 H 0.85044 0.31015 0.80964 0.0
H309 H 0.89119 0.45815 0.74429 0.0
H310 H 0.85571 0.42001 0.73046 0.0
H311 H 0.85139 0.43894 0.76222 0.0
H312 H 0.76345 0.31421 0.71284 0.0
H313 H 0.74308 0.35036 0.79014 0.0
H314 H 0.84066 0.32808 0.72996 0.0
H315 H 0.85128 0.36754 0.71403 0.0
H316 H 0.81762 0.32877 0.69926 0.0
H317 H 0.81606 0.37241 0.8258 0.0
H318 H 0.78502 0.38443 0.82295 0.0
H319 H 0.82608 0.41064 0.80779 0.0
C320 C 0.49914 0.89961 0.94043 0.0
C321 C 0.52719 0.91192 0.95823 0.0
C322 C 0.48354 0.86659 0.9293 0.0
C323 C 0.49625 0.8454 0.9363 0.0
C324 C 0.5261 0.85876 0.9525 0.0
C325 C 0.54111 0.89178 0.96334 0.0
C326 C 0.45195 0.85355 0.91199 0.0
C327 C 0.54069 0.83729 0.96044 0.0
C328 C 0.43456 0.75066 0.94285 0.0
C329 C 0.44035 0.73819 0.91757 0.0
C330 C 0.45245 0.78543 0.94906 0.0
C331 C 0.47661 0.80848 0.92942 0.0
C332 C 0.48238 0.79605 0.90375 0.0
C333 C 0.46431 0.76111 0.8982 0.0
C334 C 0.44563 0.79748 0.97679 0.0
C335 C 0.50768 0.81968 0.88219 0.0
H336 H 0.48785 0.91482 0.93708 0.0
H337 H 0.56235 0.90103 0.97764 0.0
H338 H 0.45265 0.83985 0.8928 0.0
H339 H 0.4302 0.8354 0.92506 0.0
H340 H 0.44793 0.87421 0.90507 0.0
H341 H 0.56599 0.85248 0.97003 0.0
H342 H 0.52409 0.81782 0.97614 0.0
H343 H 0.5423 0.82392 0.9414 0.0
H344 H 0.41613 0.73318 0.95793 0.0
H345 H 0.46888 0.75175 0.87854 0.0
H346 H 0.43763 0.81588 0.97237 0.0
H347 H 0.46886 0.81071 0.98972 0.0
H348 H 0.42597 0.77643 0.9897 0.0
H349 H 0.50144 0.83879 0.87529 0.0
H350 H 0.50879 0.80616 0.863 0.0
H351 H 0.53286 0.83353 0.8921 0.0
C352 C 0.67211 0.54203 0.12976 0.0
C353 C 0.63778 0.52671 0.12425 0.0
C354 C 0.69054 0.52766 0.11992 0.0
C355 C 0.67421 0.49702 0.10427 0.0
C356 C 0.64012 0.48298 0.09669 0.0
C357 C 0.62227 0.49791 0.10689 0.0
C358 C 0.72675 0.54366 0.12855 0.0
C359 C 0.62168 0.45058 0.07987 0.0
C360 C 0.72751 0.46508 0.07024 0.0
C361 C 0.72499 0.44142 0.09052 0.0
C362 C 0.71082 0.48304 0.07413 0.0
C363 C 0.69155 0.47767 0.09912 0.0
C364 C 0.68919 0.45399 0.11974 0.0
C365 C 0.70565 0.43603 0.11509 0.0
C366 C 0.71364 0.5076 0.05143 0.0
C367 C 0.66934 0.44769 0.1469 0.0
H368 H 0.68395 0.5638 0.14379 0.0
H369 H 0.59556 0.48549 0.10323 0.0
H370 H 0.72914 0.52792 0.14522 0.0
H371 H 0.74226 0.54498 0.11009 0.0
H372 H 0.7369 0.56951 0.13723 0.0
H373 H 0.59715 0.44579 0.07197 0.0
H374 H 0.63681 0.45118 0.06135 0.0
H375 H 0.61725 0.42912 0.09368 0.0
H376 H 0.74217 0.46926 0.05108 0.0
H377 H 0.70358 0.41789 0.13091 0.0
H378 H 0.72472 0.53327 0.06068 0.0
H379 H 0.68839 0.50027 0.04341 0.0
H380 H 0.72923 0.50867 0.03307 0.0
H381 H 0.67915 0.4716 0.15901 0.0
H382 H 0.67023 0.42875 0.16094 0.0
H383 H 0.64284 0.43862 0.14165 0.0
C384 C 0.38195 0.88396 0.51097 0.0
C385 C 0.41654 0.90587 0.51392 0.0
C386 C 0.36577 0.85145 0.52295 0.0
C387 C 0.38462 0.84048 0.53836 0.0
C388 C 0.41911 0.86353 0.54338 0.0
C389 C 0.43472 0.89598 0.53099 0.0
C390 C 0.329 0.82795 0.51706 0.0
C391 C 0.44008 0.85308 0.55997 0.0
C392 C 0.33552 0.75747 0.57936 0.0
C393 C 0.33566 0.73426 0.56008 0.0
C394 C 0.35205 0.7922 0.57298 0.0
C395 C 0.36888 0.80406 0.54654 0.0
C396 C 0.3693 0.78074 0.5271 0.0
C397 C 0.35285 0.74621 0.53415 0.0
C398 C 0.3512 0.81614 0.5944 0.0
C399 C 0.38667 0.7922 0.49855 0.0
H400 H 0.36797 0.89145 0.49743 0.0
H401 H 0.46156 0.91262 0.53285 0.0
H402 H 0.32575 0.8079 0.50204 0.0
H403 H 0.31552 0.81536 0.53702 0.0
H404 H 0.31723 0.84135 0.50749 0.0
H405 H 0.46497 0.87505 0.56557 0.0
H406 H 0.42715 0.83976 0.57991 0.0
H407 H 0.44387 0.83527 0.54695 0.0
H408 H 0.32245 0.74851 0.59953 0.0
H409 H 0.35311 0.72849 0.51915 0.0
H410 H 0.33788 0.82809 0.58514 0.0
H411 H 0.37701 0.83671 0.59947 0.0
H412 H 0.33855 0.80323 0.61459 0.0
H413 H 0.37509 0.80376 0.48575 0.0
H414 H 0.38534 0.77109 0.48608 0.0
H415 H 0.41334 0.81181 0.50172 0.0
C416 C 0.50318 0.36563 0.67706 0.0
C417 C 0.51611 0.39977 0.68359 0.0
C418 C 0.51832 0.34812 0.68751 0.0
C419 C 0.54721 0.36517 0.70495 0.0
C420 C 0.55857 0.39881 0.71363 0.0
C421 C 0.54297 0.41578 0.70272 0.0
C422 C 0.5052 0.31236 0.67764 0.0
C423 C 0.58897 0.4179 0.73244 0.0
C424 C 0.58033 0.31293 0.73965 0.0
C425 C 0.60559 0.31777 0.72049 0.0
C426 C 0.56151 0.32861 0.73525 0.0
C427 C 0.56775 0.34932 0.71091 0.0
C428 C 0.59323 0.35424 0.69151 0.0
C429 C 0.6119 0.33862 0.69662 0.0
C430 C 0.53492 0.32297 0.75661 0.0
C431 C 0.60061 0.37581 0.66511 0.0
H432 H 0.48288 0.35344 0.66176 0.0
H433 H 0.55354 0.44239 0.70726 0.0
H434 H 0.52282 0.3121 0.66187 0.0
H435 H 0.50343 0.29609 0.69582 0.0
H436 H 0.48022 0.30126 0.66742 0.0
H437 H 0.59137 0.44148 0.74096 0.0
H438 H 0.58799 0.40197 0.75062 0.0
H439 H 0.61174 0.42469 0.71988 0.0
H440 H 0.57537 0.29705 0.75826 0.0
H441 H 0.63131 0.34253 0.68167 0.0
H442 H 0.51012 0.31067 0.74599 0.0
H443 H 0.53984 0.34756 0.76502 0.0
H444 H 0.53371 0.30697 0.77486 0.0
H445 H 0.57792 0.36545 0.65152 0.0
H446 H 0.62124 0.37721 0.65218 0.0
H447 H 0.60752 0.4018 0.67126 0.0
C448 C 0.14968 0.48988 0.85201 0.0
C449 C 0.12942 0.50366 0.85682 0.0
C450 C 0.1825 0.50551 0.86265 0.0
C451 C 0.19541 0.53559 0.87884 0.0
C452 C 0.17388 0.54765 0.8862 0.0
C453 C 0.14115 0.53164 0.87495 0.0
C454 C 0.20431 0.49166 0.85406 0.0
C455 C 0.18628 0.57916 0.9039 0.0
C456 C 0.28179 0.56992 0.91265 0.0
C457 C 0.30274 0.59417 0.89248 0.0
C458 C 0.24677 0.55131 0.90903 0.0
C459 C 0.2323 0.55661 0.88441 0.0
C460 C 0.25339 0.58114 0.86405 0.0
C461 C 0.28818 0.59973 0.86844 0.0
C462 C 0.22525 0.52585 0.93146 0.0
C463 C 0.23925 0.58739 0.83725 0.0
H464 H 0.1408 0.46845 0.83772 0.0
H465 H 0.12581 0.54269 0.87839 0.0
H466 H 0.22277 0.50862 0.83791 0.0
H467 H 0.21852 0.49069 0.87268 0.0
H468 H 0.18954 0.46596 0.84472 0.0
H469 H 0.16536 0.58177 0.91202 0.0
H470 H 0.20129 0.57913 0.92231 0.0
H471 H 0.20273 0.6016 0.89061 0.0
H472 H 0.29276 0.5656 0.9314 0.0
H473 H 0.30408 0.61834 0.85271 0.0
H474 H 0.21202 0.50014 0.92207 0.0
H475 H 0.20587 0.53113 0.93903 0.0
H476 H 0.24007 0.52599 0.95012 0.0
H477 H 0.22582 0.56381 0.82452 0.0
H478 H 0.25893 0.60747 0.82362 0.0
H479 H 0.22087 0.59484 0.84294 0.0
C480 C 0.66604 0.14789 0.01192 0.0
C481 C 0.63153 0.12573 0.01518 0.0
C482 C 0.68212 0.18045 0.02373 0.0
C483 C 0.66328 0.19119 0.03937 0.0
C484 C 0.62892 0.16792 0.04471 0.0
C485 C 0.61338 0.13544 0.03241 0.0
C486 C 0.71873 0.20422 0.01745 0.0
C487 C 0.60802 0.17809 0.06165 0.0
C488 C 0.71334 0.27389 0.08039 0.0
C489 C 0.71306 0.29731 0.06137 0.0
C490 C 0.69637 0.23919 0.074 0.0
C491 C 0.679 0.22752 0.04776 0.0
C492 C 0.67829 0.25101 0.02863 0.0
C493 C 0.69514 0.28555 0.03573 0.0
C494 C 0.69749 0.21507 0.09514 0.0
C495 C 0.66034 0.23975 0.00029 0.0
H496 H 0.67998 0.14054 0.99825 0.0
H497 H 0.5866 0.11861 0.03451 0.0
H498 H 0.72156 0.22441 0.00275 0.0
H499 H 0.73254 0.21662 0.03735 0.0
H500 H 0.73048 0.1911 0.00737 0.0
H501 H 0.58329 0.15599 0.06742 0.0
H502 H 0.62119 0.19144 0.0815 0.0
H503 H 0.60385 0.19581 0.0488 0.0
H504 H 0.72692 0.2827 0.10037 0.0
H505 H 0.69477 0.30343 0.02094 0.0
H506 H 0.71093 0.20341 0.08563 0.0
H507 H 0.67177 0.19431 0.10016 0.0
H508 H 0.71019 0.22777 0.11537 0.0
H509 H 0.67174 0.22838 0.98706 0.0
H510 H 0.66134 0.26093 0.98814 0.0
H511 H 0.63377 0.22003 0.00371 0.0
C512 C 0.5443 0.66457 0.17783 0.0
C513 C 0.53097 0.62977 0.18139 0.0
C514 C 0.52817 0.68068 0.18907 0.0
C515 C 0.49797 0.66162 0.20451 0.0
C516 C 0.48608 0.62709 0.21042 0.0
C517 C 0.50263 0.6115 0.19862 0.0
C518 C 0.54186 0.71742 0.18205 0.0
C519 C 0.45441 0.60592 0.22725 0.0
C520 C 0.46347 0.71142 0.24124 0.0
C521 C 0.43987 0.70901 0.22121 0.0
C522 C 0.4818 0.69528 0.23664 0.0
C523 C 0.47697 0.6768 0.21112 0.0
C524 C 0.45307 0.67422 0.1909 0.0
C525 C 0.43467 0.69004 0.1963 0.0
C526 C 0.5065 0.69819 0.25898 0.0
C527 C 0.44736 0.65525 0.16319 0.0
H528 H 0.56596 0.67865 0.16417 0.0
H529 H 0.4919 0.5845 0.20101 0.0
H530 H 0.5252 0.71951 0.16631 0.0
H531 H 0.54256 0.73158 0.20141 0.0
H532 H 0.56742 0.7296 0.17285 0.0
H533 H 0.45167 0.58161 0.23418 0.0
H534 H 0.45388 0.61979 0.24639 0.0
H535 H 0.43254 0.60031 0.21379 0.0
H536 H 0.46747 0.72576 0.26068 0.0
H537 H 0.41656 0.68803 0.18068 0.0
H538 H 0.53216 0.71191 0.25003 0.0
H539 H 0.50109 0.67269 0.26528 0.0
H540 H 0.50595 0.71171 0.2784 0.0
H541 H 0.47093 0.66676 0.15072 0.0
H542 H 0.42771 0.65531 0.14981 0.0
H543 H 0.4399 0.62869 0.16765 0.0
C544 C 0.89859 0.53925 0.35008 0.0
C545 C 0.91805 0.52513 0.35715 0.0
C546 C 0.86526 0.5244 0.3593 0.0
C547 C 0.85093 0.49464 0.37611 0.0
C548 C 0.87144 0.48204 0.38541 0.0
C549 C 0.90473 0.49734 0.37568 0.0
C550 C 0.84457 0.53883 0.34879 0.0
C551 C 0.85747 0.45073 0.40368 0.0
C552 C 0.76463 0.46332 0.40871 0.0
C553 C 0.74339 0.43843 0.38907 0.0
C554 C 0.79962 0.48139 0.40512 0.0
C555 C 0.81387 0.47482 0.38111 0.0
C556 C 0.79251 0.44977 0.36118 0.0
C557 C 0.75766 0.43179 0.36549 0.0
C558 C 0.82137 0.50752 0.42704 0.0
C559 C 0.80649 0.44213 0.33509 0.0
H560 H 0.90859 0.56028 0.33523 0.0
H561 H 0.91939 0.48585 0.38062 0.0
H562 H 0.82645 0.52166 0.33254 0.0
H563 H 0.82999 0.54085 0.36656 0.0
H564 H 0.86024 0.56417 0.33897 0.0
H565 H 0.87753 0.44724 0.41271 0.0
H566 H 0.84238 0.45183 0.42148 0.0
H567 H 0.8407 0.42828 0.39054 0.0
H568 H 0.75393 0.46851 0.42713 0.0
H569 H 0.74154 0.41265 0.35021 0.0
H570 H 0.83575 0.53271 0.41679 0.0
H571 H 0.83977 0.5015 0.4359 0.0
H572 H 0.80658 0.50904 0.44494 0.0
H573 H 0.82066 0.46524 0.32189 0.0
H574 H 0.78663 0.42196 0.32163 0.0
H575 H 0.82421 0.43409 0.34165 0.0
C576 C 0.12188 0.63254 0.41141 0.0
C577 C 0.09838 0.59968 0.40244 0.0
C578 C 0.14051 0.63836 0.43647 0.0
C579 C 0.135 0.61067 0.45357 0.0
C580 C 0.1094 0.57756 0.44588 0.0
C581 C 0.09149 0.57239 0.4202 0.0
C582 C 0.16759 0.67406 0.44362 0.0
C583 C 0.10212 0.54747 0.46396 0.0
C584 C 0.21063 0.62653 0.4974 0.0
C585 C 0.20478 0.63762 0.52341 0.0
C586 C 0.18753 0.61651 0.47476 0.0
C587 C 0.15745 0.61672 0.4785 0.0
C588 C 0.15071 0.62624 0.50524 0.0
C589 C 0.17462 0.63701 0.52719 0.0
C590 C 0.19601 0.60717 0.44643 0.0
C591 C 0.11865 0.62598 0.51041 0.0
H592 H 0.1271 0.6537 0.39775 0.0
H593 H 0.07353 0.54696 0.41325 0.0
H594 H 0.16414 0.68065 0.46562 0.0
H595 H 0.19235 0.67613 0.44288 0.0
H596 H 0.16792 0.69286 0.42859 0.0
H597 H 0.07854 0.52436 0.45744 0.0
H598 H 0.12291 0.54253 0.46188 0.0
H599 H 0.10033 0.55258 0.48685 0.0
H600 H 0.23384 0.62688 0.49439 0.0
H601 H 0.16965 0.64496 0.54744 0.0
H602 H 0.19887 0.62575 0.42991 0.0
H603 H 0.17542 0.58206 0.43941 0.0
H604 H 0.2195 0.60659 0.4474 0.0
H605 H 0.1186 0.64616 0.49758 0.0
H606 H 0.11538 0.6301 0.53327 0.0
H607 H 0.09685 0.60158 0.50345 0.0
C608 C 0.51381 0.07925 0.57729 0.0
C609 C 0.53509 0.08597 0.55393 0.0
C610 C 0.52614 0.09735 0.60301 0.0
C611 C 0.56037 0.12279 0.60509 0.0
C612 C 0.58221 0.12804 0.58205 0.0
C613 C 0.56929 0.10947 0.55684 0.0
C614 C 0.50223 0.09059 0.62728 0.0
C615 C 0.61892 0.15469 0.58336 0.0
C616 C 0.59412 0.20051 0.65227 0.0
C617 C 0.61206 0.1938 0.67248 0.0
C618 C 0.57513 0.17653 0.6311 0.0
C619 C 0.57371 0.14508 0.63067 0.0
C620 C 0.58946 0.13725 0.65264 0.0
C621 C 0.60876 0.16186 0.67306 0.0
C622 C 0.5588 0.18589 0.60795 0.0
C623 C 0.58798 0.10384 0.65343 0.0
H624 H 0.48726 0.06142 0.57484 0.0
H625 H 0.58564 0.11475 0.53863 0.0
H626 H 0.51301 0.08869 0.64785 0.0
H627 H 0.49782 0.11192 0.62916 0.0
H628 H 0.47777 0.067 0.62393 0.0
H629 H 0.63266 0.15476 0.56396 0.0
H630 H 0.6219 0.18 0.58563 0.0
H631 H 0.63069 0.15056 0.60231 0.0
H632 H 0.59676 0.22524 0.65182 0.0
H633 H 0.62238 0.15655 0.68898 0.0
H634 H 0.5326 0.1652 0.60457 0.0
H635 H 0.57235 0.18966 0.58751 0.0
H636 H 0.55893 0.20944 0.61305 0.0
H637 H 0.56216 0.08269 0.64936 0.0
H638 H 0.59663 0.09953 0.67428 0.0
H639 H 0.60418 0.10332 0.63635 0.0
C640 C 0.46546 0.52273 0.74089 0.0
C641 C 0.43737 0.50049 0.72468 0.0
C642 C 0.46213 0.5385 0.76536 0.0
C643 C 0.43009 0.5322 0.77338 0.0
C644 C 0.40148 0.50741 0.75856 0.0
C645 C 0.40547 0.49155 0.73467 0.0
C646 C 0.49318 0.56396 0.78118 0.0
C647 C 0.36688 0.50006 0.76604 0.0
C648 C 0.41748 0.56859 0.84223 0.0
C649 C 0.42213 0.59942 0.83247 0.0
C650 C 0.42024 0.5464 0.82337 0.0
C651 C 0.42687 0.55496 0.79403 0.0
C652 C 0.43018 0.58551 0.78401 0.0
C653 C 0.42835 0.60759 0.80344 0.0
C654 C 0.41741 0.51455 0.835 0.0
C655 C 0.43619 0.5952 0.75279 0.0
H656 H 0.49015 0.52971 0.73332 0.0
H657 H 0.38363 0.47395 0.72239 0.0
H658 H 0.49925 0.58983 0.77544 0.0
H659 H 0.48905 0.56102 0.80462 0.0
H660 H 0.51503 0.56153 0.77578 0.0
H661 H 0.34706 0.47706 0.75511 0.0
H662 H 0.36261 0.49679 0.78942 0.0
H663 H 0.36441 0.52177 0.75948 0.0
H664 H 0.41339 0.56265 0.86483 0.0
H665 H 0.43211 0.63154 0.79598 0.0
H666 H 0.44173 0.51593 0.83253 0.0
H667 H 0.39863 0.49226 0.82272 0.0
H668 H 0.41033 0.51057 0.85795 0.0
H669 H 0.46054 0.59864 0.74604 0.0
H670 H 0.43639 0.61892 0.74829 0.0
H671 H 0.4165 0.57472 0.73949 0.0
C672 C 0.92899 0.40399 0.9092 0.0
C673 C 0.95077 0.43697 0.89951 0.0
C674 C 0.91012 0.39778 0.93412 0.0
C675 C 0.91355 0.4253 0.95024 0.0
C676 C 0.93737 0.45877 0.94173 0.0
C677 C 0.9556 0.46426 0.91623 0.0
C678 C 0.88501 0.3617 0.9422 0.0
C679 C 0.94239 0.48874 0.95874 0.0
C680 C 0.83641 0.40459 0.99393 0.0
C681 C 0.84377 0.3952 0.02013 0.0
C682 C 0.85946 0.41571 0.9712 0.0
C683 C 0.89096 0.41848 0.97516 0.0
C684 C 0.89915 0.41091 0.00218 0.0
C685 C 0.87528 0.39886 0.02416 0.0
C686 C 0.84947 0.42286 0.94256 0.0
C687 C 0.93272 0.41446 0.00762 0.0
H688 H 0.92522 0.38289 0.89617 0.0
H689 H 0.97215 0.48976 0.90859 0.0
H690 H 0.88943 0.35652 0.96441 0.0
H691 H 0.85939 0.35756 0.94136 0.0
H692 H 0.88606 0.34319 0.92777 0.0
H693 H 0.96491 0.51258 0.9517 0.0
H694 H 0.92027 0.49147 0.95615 0.0
H695 H 0.94482 0.48496 0.98184 0.0
H696 H 0.81212 0.4019 0.99082 0.0
H697 H 0.88131 0.39225 0.04462 0.0
H698 H 0.84787 0.40433 0.9266 0.0
H699 H 0.86867 0.44832 0.93491 0.0
H700 H 0.82496 0.42139 0.94339 0.0
H701 H 0.93449 0.39478 0.99556 0.0
H702 H 0.93681 0.41186 0.03065 0.0
H703 H 0.95314 0.43936 -5e-05 0.0
C704 C 0.53677 0.94857 0.07772 0.0
C705 C 0.51541 0.94436 0.05497 0.0
C706 C 0.52407 0.92969 0.10305 0.0
C707 C 0.48934 0.90602 0.10539 0.0
C708 C 0.46759 0.90328 0.083 0.0
C709 C 0.48092 0.92249 0.05811 0.0
C710 C 0.54798 0.93369 0.12657 0.0
C711 C 0.43037 0.87862 0.08462 0.0
C712 C 0.45235 0.82642 0.15074 0.0
C713 C 0.43656 0.83421 0.17219 0.0
C714 C 0.47153 0.85042 0.12963 0.0
C715 C 0.47537 0.88297 0.1305 0.0
C716 C 0.4617 0.89163 0.15359 0.0
C717 C 0.4421 0.867 0.17392 0.0
C718 C 0.48553 0.84013 0.10526 0.0
C719 C 0.46576 0.92616 0.15576 0.0
H720 H 0.56352 0.96504 0.07501 0.0
H721 H 0.46454 0.919 0.04029 0.0
H722 H 0.53847 0.93606 0.14763 0.0
H723 H 0.55015 0.9109 0.12745 0.0
H724 H 0.57331 0.9561 0.12317 0.0
H725 H 0.41682 0.88058 0.06588 0.0
H726 H 0.42546 0.85245 0.08573 0.0
H727 H 0.41995 0.88305 0.1043 0.0
H728 H 0.44787 0.80099 0.14936 0.0
H729 H 0.43003 0.87304 0.19072 0.0
H730 H 0.51215 0.85953 0.10157 0.0
H731 H 0.47165 0.83811 0.08535 0.0
H732 H 0.48356 0.81545 0.10925 0.0
H733 H 0.49204 0.94619 0.15153 0.0
H734 H 0.45837 0.93058 0.17713 0.0
H735 H 0.4499 0.92861 0.13939 0.0
C736 C 0.57926 0.4759 0.22198 0.0
C737 C 0.58938 0.51013 0.21995 0.0
C738 C 0.58329 0.4623 0.24738 0.0
C739 C 0.59759 0.4834 0.27155 0.0
C740 C 0.60595 0.51755 0.27019 0.0
C741 C 0.60182 0.53059 0.24428 0.0
C742 C 0.57374 0.42569 0.24786 0.0
C743 C 0.62073 0.54067 0.29562 0.0
C744 C 0.58252 0.43267 0.3393 0.0
C745 C 0.61183 0.43131 0.34124 0.0
C746 C 0.57858 0.45175 0.31802 0.0
C747 C 0.60432 0.4694 0.29776 0.0
C748 C 0.63479 0.46974 0.30062 0.0
C749 C 0.63833 0.4509 0.32257 0.0
C750 C 0.546 0.45122 0.31618 0.0
C751 C 0.66277 0.48809 0.27934 0.0
H752 H 0.5697 0.46012 0.2031 0.0
H753 H 0.61004 0.55717 0.2426 0.0
H754 H 0.59628 0.42399 0.25181 0.0
H755 H 0.55594 0.41216 0.26553 0.0
H756 H 0.56208 0.41252 0.22749 0.0
H757 H 0.62218 0.56519 0.29221 0.0
H758 H 0.6057 0.52853 0.31508 0.0
H759 H 0.64632 0.54568 0.2997 0.0
H760 H 0.56214 0.41793 0.35401 0.0
H761 H 0.66097 0.44986 0.32403 0.0
H762 H 0.53124 0.43544 0.29777 0.0
H763 H 0.55065 0.47702 0.31254 0.0
H764 H 0.53074 0.44073 0.33585 0.0
H765 H 0.65494 0.47513 0.25835 0.0
H766 H 0.686 0.48895 0.28618 0.0
H767 H 0.66834 0.51429 0.27618 0.0
C768 C 0.46797 0.94322 0.39549 0.0
C769 C 0.4415 0.93805 0.41314 0.0
C770 C 0.46173 0.92506 0.36975 0.0
C771 C 0.42834 0.90097 0.3619 0.0
C772 C 0.40161 0.89729 0.37892 0.0
C773 C 0.40854 0.91613 0.40407 0.0
C774 C 0.49085 0.9304 0.35175 0.0
C775 C 0.36565 0.87189 0.37155 0.0
C776 C 0.39999 0.86248 0.28816 0.0
C777 C 0.39674 0.83075 0.29171 0.0
C778 C 0.41242 0.8865 0.3102 0.0
C779 C 0.42086 0.87825 0.33681 0.0
C780 C 0.41844 0.84654 0.34028 0.0
C781 C 0.40688 0.82334 0.3175 0.0
C782 C 0.41554 0.92032 0.30529 0.0
C783 C 0.42656 0.83649 0.36848 0.0
H784 H 0.49346 0.95996 0.40256 0.0
H785 H 0.38805 0.91224 0.41769 0.0
H786 H 0.49383 0.90816 0.35376 0.0
H787 H 0.48625 0.93288 0.32885 0.0
H788 H 0.51462 0.95322 0.35839 0.0
H789 H 0.34778 0.87284 0.38664 0.0
H790 H 0.35978 0.87643 0.34963 0.0
H791 H 0.36165 0.84604 0.372 0.0
H792 H 0.39281 0.86859 0.26801 0.0
H793 H 0.40452 0.7989 0.32024 0.0
H794 H 0.44039 0.94103 0.3125 0.0
H795 H 0.3964 0.92194 0.31805 0.0
H796 H 0.41214 0.92446 0.28245 0.0
H797 H 0.452 0.85594 0.37561 0.0
H798 H 0.42516 0.81177 0.36727 0.0
H799 H 0.40875 0.83479 0.38504 0.0
C800 C 0.5654 0.45331 0.58529 0.0
C801 C 0.53299 0.44798 0.58734 0.0
C802 C 0.57649 0.4456 0.56021 0.0
C803 C 0.55516 0.43353 0.5361 0.0
C804 C 0.52397 0.43193 0.53696 0.0
C805 C 0.51305 0.43883 0.56273 0.0
C806 C 0.60971 0.44731 0.56056 0.0
C807 C 0.5011 0.42055 0.51132 0.0
C808 C 0.59445 0.42595 0.4673 0.0
C809 C 0.58282 0.39127 0.46667 0.0
C810 C 0.58472 0.43996 0.48918 0.0
C811 C 0.56392 0.41897 0.51151 0.0
C812 C 0.55259 0.38398 0.51113 0.0
C813 C 0.56162 0.37045 0.48839 0.0
C814 C 0.59635 0.47707 0.48822 0.0
C815 C 0.5313 0.36087 0.53499 0.0
H816 H 0.58115 0.46097 0.60416 0.0
H817 H 0.48803 0.43473 0.56413 0.0
H818 H 0.60531 0.42131 0.5601 0.0
H819 H 0.62463 0.46064 0.54138 0.0
H820 H 0.62465 0.46029 0.5799 0.0
H821 H 0.48106 0.42662 0.5136 0.0
H822 H 0.51543 0.43256 0.49152 0.0
H823 H 0.48917 0.39283 0.50878 0.0
H824 H 0.61037 0.44196 0.45017 0.0
H825 H 0.55258 0.34363 0.48782 0.0
H826 H 0.61203 0.49008 0.50717 0.0
H827 H 0.57446 0.48044 0.489 0.0
H828 H 0.61104 0.48957 0.46865 0.0
H829 H 0.54444 0.37026 0.55574 0.0
H830 H 0.52536 0.33451 0.53191 0.0
H831 H 0.50752 0.36075 0.53642 0.0
C832 C 0.09437 0.52794 0.7413 0.0
C833 C 0.09779 0.50401 0.75692 0.0
C834 C 0.11358 0.5427 0.71652 0.0
C835 C 0.13692 0.53355 0.70757 0.0
C836 C 0.13801 0.50711 0.7218 0.0
C837 C 0.11818 0.49245 0.7461 0.0
C838 C 0.11095 0.5701 0.7014 0.0
C839 C 0.16256 0.49663 0.71324 0.0
C840 C 0.18543 0.56781 0.63788 0.0
C841 C 0.21397 0.59733 0.64744 0.0
C842 C 0.15992 0.54668 0.65711 0.0
C843 C 0.16359 0.55495 0.68657 0.0
C844 C 0.19318 0.58402 0.69635 0.0
C845 C 0.21769 0.60513 0.6766 0.0
C846 C 0.12848 0.51643 0.64575 0.0
C847 C 0.19867 0.59328 0.72767 0.0
H848 H 0.07868 0.53696 0.7496 0.0
H849 H 0.12057 0.47366 0.75804 0.0
H850 H 0.13292 0.59506 0.70693 0.0
H851 H 0.11097 0.56707 0.67788 0.0
H852 H 0.08797 0.57009 0.70761 0.0
H853 H 0.15699 0.47268 0.72371 0.0
H854 H 0.16253 0.49347 0.68975 0.0
H855 H 0.18815 0.5167 0.71952 0.0
H856 H 0.18225 0.56226 0.61519 0.0
H857 H 0.23968 0.62815 0.68388 0.0
H858 H 0.10711 0.52034 0.6487 0.0
H859 H 0.12265 0.49337 0.65784 0.0
H860 H 0.13048 0.51207 0.62268 0.0
H861 H 0.17958 0.59896 0.73526 0.0
H862 H 0.22383 0.6156 0.73191 0.0
H863 H 0.19583 0.57171 0.74048 0.0
C864 C 0.58072 0.08784 0.8964 0.0
C865 C 0.60704 0.09339 0.91447 0.0
C866 C 0.58716 0.10575 0.87047 0.0
C867 C 0.62058 0.12993 0.86286 0.0
C868 C 0.64719 0.13399 0.88033 0.0
C869 C 0.64007 0.11541 0.90567 0.0
C870 C 0.55818 0.10003 0.852 0.0
C871 C 0.68318 0.15952 0.87322 0.0
C872 C 0.64959 0.16803 0.78907 0.0
C873 C 0.65241 0.1996 0.7922 0.0
C874 C 0.63711 0.14416 0.81125 0.0
C875 C 0.62822 0.15244 0.83757 0.0
C876 C 0.63028 0.18402 0.84062 0.0
C877 C 0.64187 0.20704 0.8177 0.0
C878 C 0.63436 0.11045 0.8068 0.0
C879 C 0.6217 0.19413 0.86853 0.0
H880 H 0.55517 0.071 0.90326 0.0
H881 H 0.66045 0.11956 0.91961 0.0
H882 H 0.55498 0.12216 0.85357 0.0
H883 H 0.56311 0.09742 0.82923 0.0
H884 H 0.53442 0.07716 0.85857 0.0
H885 H 0.70095 0.15884 0.88865 0.0
H886 H 0.68938 0.15489 0.85148 0.0
H887 H 0.68699 0.1853 0.87332 0.0
H888 H 0.65706 0.1619 0.76912 0.0
H889 H 0.6439 0.23137 0.8201 0.0
H890 H 0.60947 0.08965 0.8138 0.0
H891 H 0.6534 0.10907 0.81998 0.0
H892 H 0.63817 0.10626 0.78409 0.0
H893 H 0.5962 0.17461 0.87546 0.0
H894 H 0.62297 0.21876 0.867 0.0
H895 H 0.63933 0.196 0.8854 0.0
C896 C 0.51627 0.57667 0.06244 0.0
C897 C 0.53626 0.60389 0.08057 0.0
C898 C 0.50438 0.58185 0.03633 0.0
C899 C 0.51238 0.61489 0.02855 0.0
C900 C 0.53412 0.64254 0.04609 0.0
C901 C 0.54608 0.63672 0.0716 0.0
C902 C 0.48201 0.55183 0.01781 0.0
C903 C 0.54323 0.67817 0.03884 0.0
C904 C 0.5021 0.64158 0.95421 0.0
C905 C 0.47219 0.64169 0.95698 0.0
C906 C 0.51441 0.63088 0.97674 0.0
C907 C 0.49691 0.6209 0.003 0.0
C908 C 0.46629 0.62022 0.0057 0.0
C909 C 0.45408 0.63021 0.98253 0.0
C910 C 0.54665 0.63115 0.97269 0.0
C911 C 0.44716 0.61038 0.0335 0.0
H912 H 0.5085 0.55126 0.06935 0.0
H913 H 0.56185 0.65787 0.08546 0.0
H914 H 0.45602 0.5466 0.01894 0.0
H915 H 0.48999 0.5572 0.99513 0.0
H916 H 0.48201 0.52879 0.02466 0.0
H917 H 0.56122 0.69695 0.05435 0.0
H918 H 0.55436 0.68513 0.01717 0.0
H919 H 0.52034 0.67984 0.03866 0.0
H920 H 0.51594 0.64983 0.93433 0.0
H921 H 0.43093 0.63016 0.98476 0.0
H922 H 0.54362 0.60681 0.9798 0.0
H923 H 0.56658 0.65132 0.98602 0.0
H924 H 0.55505 0.63563 0.95006 0.0
H925 H 0.44222 0.58532 0.04065 0.0
H926 H 0.42294 0.60942 0.0317 0.0
H927 H 0.46239 0.62889 0.05034 0.0
C928 C 0.95927 0.53159 0.23799 0.0
C929 C 0.95083 0.5101 0.26165 0.0
C930 C 0.94191 0.51965 0.21194 0.0
C931 C 0.91551 0.48557 0.20978 0.0
C932 C 0.90831 0.46344 0.23324 0.0
C933 C 0.92612 0.47597 0.2588 0.0
C934 C 0.95067 0.54384 0.18728 0.0
C935 C 0.88062 0.42684 0.23186 0.0
C936 C 0.84117 0.4539 0.1596 0.0
C937 C 0.84775 0.43485 0.14039 0.0
C938 C 0.86422 0.47264 0.18137 0.0
C939 C 0.89458 0.47263 0.18349 0.0
C940 C 0.90241 0.45578 0.16252 0.0
C941 C 0.87877 0.43684 0.14142 0.0
C942 C 0.85493 0.49026 0.20337 0.0
C943 C 0.93467 0.4556 0.16357 0.0
H944 H 0.97805 0.5581 0.24036 0.0
H945 H 0.91954 0.45945 0.27721 0.0
H946 H 0.95309 0.53249 0.16723 0.0
H947 H 0.93029 0.5492 0.18402 0.0
H948 H 0.97434 0.56812 0.19109 0.0
H949 H 0.87885 0.41283 0.25174 0.0
H950 H 0.85631 0.42522 0.22833 0.0
H951 H 0.88472 0.41411 0.2136 0.0
H952 H 0.81718 0.45231 0.15881 0.0
H953 H 0.88404 0.42242 0.12628 0.0
H954 H 0.87608 0.51631 0.20708 0.0
H955 H 0.84942 0.47651 0.224 0.0
H956 H 0.83262 0.4914 0.19687 0.0
H957 H 0.95616 0.48132 0.16782 0.0
H958 H 0.93935 0.44614 0.14334 0.0
H959 H 0.93353 0.43905 0.18129 0.0
loop_
_geom_bond_atom_site_label_1
_geom_bond_atom_site_label_2
_geom_bond_distance
_geom_bond_site_symmetry_2
_ccdc_geom_bond_type
H0 C6 0.930 . S
H1 C9 0.931 . S
H2 C11 0.931 . S
H3 C13 0.930 . S
H4 C15 0.930 . S
H5 C17 0.931 1_455 S
C6 H0 0.930 . S
C6 C7 1.380 . S
C6 C8 1.394 . S
C7 C6 1.380 . S
C7 C11 1.382 . S
C8 C6 1.394 . S
C8 C9 1.400 . S
C9 H1 0.931 . S
C9 C8 1.400 . S
C9 C10 1.375 . S
C10 C9 1.375 . S
C10 C11 1.415 . S
C10 C12 1.501 1_455 S
C11 H2 0.931 . S
C11 C7 1.382 . S
C11 C10 1.415 . S
C12 C10 1.501 1_655 S
C12 C13 1.384 . S
C12 C17 1.408 . S
C13 H3 0.930 . S
C13 C12 1.384 . S
C13 C14 1.389 . S
C14 C13 1.389 . S
C14 C15 1.405 . S
C15 H4 0.930 . S
C15 C14 1.405 . S
C15 C16 1.364 . S
C16 C15 1.364 . S
C16 C17 1.400 . S
C17 H5 0.931 1_655 S
C17 C12 1.408 . S
C17 C16 1.400 . S
H18 C24 0.930 . S
H19 C27 0.931 . S
H20 C29 0.931 . S
H21 C31 0.930 . S
H22 C33 0.930 . S
H23 C35 0.926 1_545 S
C24 H18 0.930 . S
C24 C25 1.380 . S
C24 C26 1.394 . S
C25 C24 1.380 . S
C25 C29 1.382 . S
C26 C24 1.394 . S
C26 C27 1.400 . S
C27 H19 0.931 . S
C27 C26 1.400 . S
C27 C28 1.375 . S
C28 C27 1.375 . S
C28 C29 1.415 . S
C28 C30 1.501 1_545 S
C29 H20 0.931 . S
C29 C25 1.382 . S
C29 C28 1.415 . S
C30 C28 1.501 1_565 S
C30 C31 1.384 . S
C30 C35 1.408 . S
C31 H21 0.930 . S
C31 C30 1.384 . S
C31 C32 1.389 . S
C32 C31 1.389 . S
C32 C33 1.405 . S
C33 H22 0.930 . S
C33 C32 1.405 . S
C33 C34 1.364 . S
C34 C33 1.364 . S
C34 C35 1.400 . S
C35 H23 0.926 1_565 S
C35 C30 1.408 . S
C35 C34 1.400 . S
H36 C42 0.930 . S
H37 C45 0.931 . S
H38 C47 0.931 . S
H39 C49 0.930 . S
H40 C51 0.930 . S
H41 C53 0.931 . S
C42 H36 0.930 . S
C42 C43 1.380 . S
C42 C44 1.394 . S
C43 C42 1.380 . S
C43 C47 1.382 . S
C44 C42 1.394 . S
C44 C45 1.400 . S
C45 H37 0.931 . S
C45 C44 1.400 . S
C45 C46 1.375 . S
C46 C45 1.375 . S
C46 C47 1.415 . S
C46 C48 1.501 . S
C47 H38 0.931 . S
C47 C43 1.382 . S
C47 C46 1.415 . S
C48 C46 1.501 . S
C48 C49 1.384 . S
C48 C53 1.408 . S
C49 H39 0.930 . S
C49 C48 1.384 . S
C49 C50 1.389 . S
C50 C49 1.389 . S
C50 C51 1.405 . S
C51 H40 0.930 . S
C51 C50 1.405 . S
C51 C52 1.364 . S
C52 C51 1.364 . S
C52 C53 1.400 . S
C53 H41 0.931 . S
C53 C48 1.408 . S
C53 C52 1.400 . S
H54 C60 0.930 . S
H55 C63 0.931 . S
H56 C65 0.931 . S
H57 C67 0.930 . S
H58 C69 0.930 . S
H59 C71 0.936 . S
C60 H54 0.930 . S
C60 C61 1.380 . S
C60 C62 1.394 . S
C61 C60 1.380 . S
C61 C65 1.382 . S
C62 C60 1.394 . S
C62 C63 1.400 . S
C63 H55 0.931 . S
C63 C62 1.400 . S
C63 C64 1.375 . S
C64 C63 1.375 . S
C64 C65 1.415 . S
C64 C66 1.501 1_455 S
C65 H56 0.931 . S
C65 C61 1.382 . S
C65 C64 1.415 . S
C66 C64 1.501 1_655 S
C66 C67 1.384 . S
C66 C71 1.408 . S
C67 H57 0.930 . S
C67 C66 1.384 . S
C67 C68 1.389 . S
C68 C67 1.389 . S
C68 C69 1.405 . S
C69 H58 0.930 . S
C69 C68 1.405 . S
C69 C70 1.364 . S
C70 C69 1.364 . S
C70 C71 1.400 . S
C71 H59 0.936 . S
C71 C66 1.408 . S
C71 C70 1.400 . S
H72 C78 0.930 . S
H73 C81 0.931 . S
H74 C83 0.931 . S
H75 C85 0.930 . S
H76 C87 0.930 . S
H77 C89 0.931 . S
C78 H72 0.930 . S
C78 C79 1.380 . S
C78 C80 1.394 1_554 S
C79 C78 1.380 . S
C79 C83 1.382 . S
C80 C78 1.394 1_556 S
C80 C81 1.400 . S
C81 H73 0.931 . S
C81 C80 1.400 . S
C81 C82 1.375 . S
C82 C81 1.375 . S
C82 C83 1.415 1_556 S
C82 C84 1.501 1_565 S
C83 H74 0.931 . S
C83 C79 1.382 . S
C83 C82 1.415 1_554 S
C84 C82 1.501 1_545 S
C84 C85 1.384 1_556 S
C84 C89 1.408 . S
C85 H75 0.930 . S
C85 C84 1.384 1_554 S
C85 C86 1.389 1_554 S
C86 C85 1.389 1_556 S
C86 C87 1.405 . S
C87 H76 0.930 . S
C87 C86 1.405 . S
C87 C88 1.364 . S
C88 C87 1.364 . S
C88 C89 1.400 . S
C89 H77 0.931 . S
C89 C84 1.408 . S
C89 C88 1.400 . S
H90 C96 0.930 . S
H91 C99 0.931 . S
H92 C101 0.931 . S
H93 C103 0.930 . S
H94 C105 0.930 . S
H95 C107 0.931 . S
C96 H90 0.930 . S
C96 C97 1.380 . S
C96 C98 1.394 . S
C97 C96 1.380 . S
C97 C101 1.382 . S
C98 C96 1.394 . S
C98 C99 1.400 . S
C99 H91 0.931 . S
C99 C98 1.400 . S
C99 C100 1.375 . S
C100 C99 1.375 . S
C100 C101 1.415 . S
C100 C102 1.501 . S
C101 H92 0.931 . S
C101 C97 1.382 . S
C101 C100 1.415 . S
C102 C100 1.501 . S
C102 C103 1.384 . S
C102 C107 1.408 . S
C103 H93 0.930 . S
C103 C102 1.384 . S
C103 C104 1.389 . S
C104 C103 1.389 . S
C104 C105 1.405 . S
C105 H94 0.930 . S
C105 C104 1.405 . S
C105 C106 1.364 . S
C106 C105 1.364 . S
C106 C107 1.400 . S
C107 H95 0.931 . S
C107 C102 1.408 . S
C107 C106 1.400 . S
Co108 O109 2.216 . S
Co108 O110 2.091 . S
Co108 O112 2.004 . S
Co108 O118 2.021 . S
Co108 O120 2.137 . S
Co108 O121 2.244 . S
O109 Co108 2.216 . S
O109 C116 1.247 . S
O110 Co108 2.091 . S
O110 C116 1.261 . S
C111 O120 1.247 . S
C111 O121 1.272 . S
O112 Co108 2.004 . S
O112 C117 1.259 . S
Co113 O114 2.061 . S
Co113 O119 2.052 . S
Co113 O121 2.135 . S
O114 Co113 2.061 . S
O114 C117 1.235 . S
C115 O118 1.238 . S
C115 O119 1.241 . S
C116 O109 1.247 . S
C116 O110 1.261 . S
C117 O112 1.259 . S
C117 O114 1.235 . S
O118 Co108 2.021 . S
O118 C115 1.238 . S
O119 Co113 2.052 . S
O119 C115 1.241 . S
O120 Co108 2.137 . S
O120 C111 1.247 . S
O121 Co108 2.244 . S
O121 C111 1.272 . S
O121 Co113 2.135 . S
Co122 O123 2.216 . S
Co122 O124 2.091 . S
Co122 O126 2.004 . S
Co122 O132 2.021 . S
Co122 O134 2.137 . S
Co122 O135 2.244 . S
O123 Co122 2.216 . S
O123 C130 1.247 . S
O124 Co122 2.091 . S
O124 C130 1.261 . S
C125 O134 1.247 . S
C125 O135 1.272 . S
O126 Co122 2.004 . S
O126 C131 1.259 . S
Co127 O128 2.061 . S
Co127 O133 2.052 . S
Co127 O135 2.135 . S
O128 Co127 2.061 . S
O128 C131 1.235 . S
C129 O132 1.238 . S
C129 O133 1.241 . S
C130 O123 1.247 . S
C130 O124 1.261 . S
C131 O126 1.259 . S
C131 O128 1.235 . S
O132 Co122 2.021 . S
O132 C129 1.238 . S
O133 Co127 2.052 . S
O133 C129 1.241 . S
O134 Co122 2.137 . S
O134 C125 1.247 . S
O135 Co122 2.244 . S
O135 C125 1.272 . S
O135 Co127 2.135 . S
Co136 O137 2.216 . S
Co136 O138 2.091 . S
Co136 O140 2.004 . S
Co136 O146 2.021 . S
Co136 O148 2.137 . S
Co136 O149 2.244 . S
O137 Co136 2.216 . S
O137 C144 1.247 . S
O138 Co136 2.091 . S
O138 C144 1.261 . S
C139 O148 1.247 . S
C139 O149 1.272 . S
O140 Co136 2.004 . S
O140 C145 1.259 . S
Co141 O142 2.061 . S
Co141 O147 2.052 . S
Co141 O149 2.135 . S
O142 Co141 2.061 . S
O142 C145 1.235 . S
C143 O146 1.238 . S
C143 O147 1.241 . S
C144 O137 1.247 . S
C144 O138 1.261 . S
C145 O140 1.259 . S
C145 O142 1.235 . S
O146 Co136 2.021 . S
O146 C143 1.238 . S
O147 Co141 2.052 . S
O147 C143 1.241 . S
O148 Co136 2.137 . S
O148 C139 1.247 . S
O149 Co136 2.244 . S
O149 C139 1.272 . S
O149 Co141 2.135 . S
Co150 O151 2.216 . S
Co150 O152 2.091 . S
Co150 O154 2.004 . S
Co150 O160 2.021 . S
Co150 O162 2.137 . S
Co150 O163 2.244 . S
O151 Co150 2.216 . S
O151 C158 1.247 . S
O152 Co150 2.091 . S
O152 C158 1.261 . S
C153 O162 1.247 . S
C153 O163 1.272 . S
O154 Co150 2.004 . S
O154 C159 1.259 . S
Co155 O156 2.061 . S
Co155 O161 2.052 . S
Co155 O163 2.135 . S
O156 Co155 2.061 . S
O156 C159 1.235 . S
C157 O160 1.238 . S
C157 O161 1.241 . S
C158 O151 1.247 . S
C158 O152 1.261 . S
C159 O154 1.259 . S
C159 O156 1.235 . S
O160 Co150 2.021 . S
O160 C157 1.238 . S
O161 Co155 2.052 . S
O161 C157 1.241 . S
O162 Co150 2.137 . S
O162 C153 1.247 . S
O163 Co150 2.244 . S
O163 C153 1.272 . S
O163 Co155 2.135 . S
Co164 O165 2.216 . S
Co164 O166 2.091 . S
Co164 O168 2.004 . S
Co164 O174 2.021 . S
Co164 O176 2.137 . S
Co164 O177 2.244 . S
O165 Co164 2.216 . S
O165 C172 1.247 . S
O166 Co164 2.091 . S
O166 C172 1.261 . S
C167 O176 1.247 . S
C167 O177 1.272 . S
O168 Co164 2.004 . S
O168 C173 1.259 . S
Co169 O170 2.061 . S
Co169 O175 2.052 . S
Co169 O177 2.135 . S
O170 Co169 2.061 . S
O170 C173 1.235 . S
C171 O174 1.238 . S
C171 O175 1.241 . S
C172 O165 1.247 . S
C172 O166 1.261 . S
C173 O168 1.259 . S
C173 O170 1.235 . S
O174 Co164 2.021 . S
O174 C171 1.238 . S
O175 Co169 2.052 . S
O175 C171 1.241 . S
O176 Co164 2.137 . S
O176 C167 1.247 . S
O177 Co164 2.244 . S
O177 C167 1.272 . S
O177 Co169 2.135 . S
Co178 O179 2.216 . S
Co178 O180 2.091 . S
Co178 O182 2.004 . S
Co178 O188 2.021 . S
Co178 O190 2.137 . S
Co178 O191 2.244 . S
O179 Co178 2.216 . S
O179 C186 1.247 . S
O180 Co178 2.091 . S
O180 C186 1.261 . S
C181 O190 1.247 . S
C181 O191 1.272 . S
O182 Co178 2.004 . S
O182 C187 1.259 . S
Co183 O184 2.061 . S
Co183 O189 2.052 . S
Co183 O191 2.135 . S
O184 Co183 2.061 . S
O184 C187 1.235 . S
C185 O188 1.238 . S
C185 O189 1.241 . S
C186 O179 1.247 . S
C186 O180 1.261 . S
C187 O182 1.259 . S
C187 O184 1.235 . S
O188 Co178 2.021 . S
O188 C185 1.238 . S
O189 Co183 2.052 . S
O189 C185 1.241 . S
O190 Co178 2.137 . S
O190 C181 1.247 . S
O191 Co178 2.244 . S
O191 C181 1.272 . S
O191 Co183 2.135 . S
C192 C193 1.391 . S
C192 C194 1.394 . S
C192 H208 0.931 . S
C193 C192 1.391 . S
C193 C197 1.376 . S
C194 C192 1.394 . S
C194 C195 1.369 . S
C194 C198 1.531 . S
C195 C194 1.369 . S
C195 C196 1.410 . S
C195 C203 1.503 . S
C196 C195 1.410 . S
C196 C197 1.392 . S
C196 C199 1.511 . S
C197 C193 1.376 . S
C197 C196 1.392 . S
C197 H209 0.929 . S
C198 C194 1.531 . S
C198 H210 0.960 . S
C198 H211 0.962 . S
C198 H212 0.960 . S
C199 C196 1.511 . S
C199 H213 0.961 . S
C199 H214 0.961 . S
C199 H215 0.961 . S
C200 C201 1.370 . S
C200 C202 1.363 . S
C200 H216 0.931 . S
C201 C200 1.370 . S
C201 C205 1.408 . S
C202 C200 1.363 . S
C202 C203 1.370 . S
C202 C206 1.524 . S
C203 C195 1.503 . S
C203 C202 1.370 . S
C203 C204 1.403 . S
C204 C203 1.403 . S
C204 C205 1.404 . S
C204 C207 1.539 . S
C205 C201 1.408 . S
C205 C204 1.404 . S
C205 H217 0.930 . S
C206 C202 1.524 . S
C206 H218 0.956 . S
C206 H219 0.961 . S
C206 H220 0.961 . S
C207 C204 1.539 . S
C207 H221 0.958 . S
C207 H222 0.961 . S
C207 H223 0.960 . S
H208 C192 0.931 . S
H209 C197 0.929 . S
H210 C198 0.960 . S
H211 C198 0.962 . S
H212 C198 0.960 . S
H213 C199 0.961 . S
H214 C199 0.961 . S
H215 C199 0.961 . S
H216 C200 0.931 . S
H217 C205 0.930 . S
H218 C206 0.956 . S
H219 C206 0.961 . S
H220 C206 0.961 . S
H221 C207 0.958 . S
H222 C207 0.961 . S
H223 C207 0.960 . S
C224 C225 1.391 . S
C224 C226 1.394 . S
C224 H240 0.931 . S
C225 C224 1.391 . S
C225 C229 1.376 . S
C226 C224 1.394 . S
C226 C227 1.369 . S
C226 C230 1.531 . S
C227 C226 1.369 . S
C227 C228 1.410 . S
C227 C235 1.503 . S
C228 C227 1.410 . S
C228 C229 1.392 . S
C228 C231 1.511 . S
C229 C225 1.376 . S
C229 C228 1.392 . S
C229 H241 0.929 . S
C230 C226 1.531 . S
C230 H242 0.960 . S
C230 H243 0.962 . S
C230 H244 0.960 . S
C231 C228 1.511 . S
C231 H245 0.961 . S
C231 H246 0.961 . S
C231 H247 0.961 . S
C232 C233 1.370 . S
C232 C234 1.363 . S
C232 H248 0.931 . S
C233 C232 1.370 . S
C233 C237 1.408 . S
C234 C232 1.363 . S
C234 C235 1.370 . S
C234 C238 1.524 . S
C235 C227 1.503 . S
C235 C234 1.370 . S
C235 C236 1.403 . S
C236 C235 1.403 . S
C236 C237 1.404 . S
C236 C239 1.539 . S
C237 C233 1.408 . S
C237 C236 1.404 . S
C237 H249 0.930 . S
C238 C234 1.524 . S
C238 H250 0.956 . S
C238 H251 0.961 . S
C238 H252 0.961 . S
C239 C236 1.539 . S
C239 H253 0.958 . S
C239 H254 0.961 . S
C239 H255 0.960 . S
H240 C224 0.931 . S
H241 C229 0.929 . S
H242 C230 0.960 . S
H243 C230 0.962 . S
H244 C230 0.960 . S
H245 C231 0.961 . S
H246 C231 0.961 . S
H247 C231 0.961 . S
H248 C232 0.931 . S
H249 C237 0.930 . S
H250 C238 0.956 . S
H251 C238 0.961 . S
H252 C238 0.961 . S
H253 C239 0.958 . S
H254 C239 0.961 . S
H255 C239 0.960 . S
C256 C257 1.391 . S
C256 C258 1.394 . S
C256 H272 0.931 . S
C257 C256 1.391 . S
C257 C261 1.376 . S
C258 C256 1.394 . S
C258 C259 1.369 . S
C258 C262 1.531 . S
C259 C258 1.369 . S
C259 C260 1.410 . S
C259 C267 1.503 . S
C260 C259 1.410 . S
C260 C261 1.392 . S
C260 C263 1.511 . S
C261 C257 1.376 . S
C261 C260 1.392 . S
C261 H273 0.929 . S
C262 C258 1.531 . S
C262 H274 0.960 . S
C262 H275 0.962 . S
C262 H276 0.960 . S
C263 C260 1.511 . S
C263 H277 0.961 . S
C263 H278 0.961 . S
C263 H279 0.961 . S
C264 C265 1.370 . S
C264 C266 1.363 . S
C264 H280 0.931 . S
C265 C264 1.370 . S
C265 C269 1.408 . S
C266 C264 1.363 . S
C266 C267 1.370 . S
C266 C270 1.524 . S
C267 C259 1.503 . S
C267 C266 1.370 . S
C267 C268 1.403 . S
C268 C267 1.403 . S
C268 C269 1.404 . S
C268 C271 1.539 . S
C269 C265 1.408 . S
C269 C268 1.404 . S
C269 H281 0.930 . S
C270 C266 1.524 . S
C270 H282 0.956 . S
C270 H283 0.961 . S
C270 H284 0.961 . S
C271 C268 1.539 . S
C271 H285 0.958 . S
C271 H286 0.961 . S
C271 H287 0.960 . S
H272 C256 0.931 . S
H273 C261 0.929 . S
H274 C262 0.960 . S
H275 C262 0.962 . S
H276 C262 0.960 . S
H277 C263 0.961 . S
H278 C263 0.961 . S
H279 C263 0.961 . S
H280 C264 0.931 . S
H281 C269 0.930 . S
H282 C270 0.956 . S
H283 C270 0.961 . S
H284 C270 0.961 . S
H285 C271 0.958 . S
H286 C271 0.961 . S
H287 C271 0.960 . S
C288 C289 1.391 . S
C288 C290 1.394 . S
C288 H304 0.931 . S
C289 C288 1.391 . S
C289 C293 1.376 . S
C290 C288 1.394 . S
C290 C291 1.369 . S
C290 C294 1.531 . S
C291 C290 1.369 . S
C291 C292 1.410 . S
C291 C299 1.503 . S
C292 C291 1.410 . S
C292 C293 1.392 . S
C292 C295 1.511 . S
C293 C289 1.376 . S
C293 C292 1.392 . S
C293 H305 0.929 . S
C294 C290 1.531 . S
C294 H306 0.960 . S
C294 H307 0.962 . S
C294 H308 0.960 . S
C295 C292 1.511 . S
C295 H309 0.961 . S
C295 H310 0.961 . S
C295 H311 0.961 . S
C296 C297 1.370 . S
C296 C298 1.363 . S
C296 H312 0.931 . S
C297 C296 1.370 . S
C297 C301 1.408 . S
C298 C296 1.363 . S
C298 C299 1.370 . S
C298 C302 1.524 . S
C299 C291 1.503 . S
C299 C298 1.370 . S
C299 C300 1.403 . S
C300 C299 1.403 . S
C300 C301 1.404 . S
C300 C303 1.539 . S
C301 C297 1.408 . S
C301 C300 1.404 . S
C301 H313 0.930 . S
C302 C298 1.524 . S
C302 H314 0.956 . S
C302 H315 0.961 . S
C302 H316 0.961 . S
C303 C300 1.539 . S
C303 H317 0.958 . S
C303 H318 0.961 . S
C303 H319 0.960 . S
H304 C288 0.931 . S
H305 C293 0.929 . S
H306 C294 0.960 . S
H307 C294 0.962 . S
H308 C294 0.960 . S
H309 C295 0.961 . S
H310 C295 0.961 . S
H311 C295 0.961 . S
H312 C296 0.931 . S
H313 C301 0.930 . S
H314 C302 0.956 . S
H315 C302 0.961 . S
H316 C302 0.961 . S
H317 C303 0.958 . S
H318 C303 0.961 . S
H319 C303 0.960 . S
C320 C321 1.391 . S
C320 C322 1.394 . S
C320 H336 0.931 1_556 S
C321 C320 1.391 . S
C321 C325 1.376 . S
C322 C320 1.394 . S
C322 C323 1.369 . S
C322 C326 1.531 . S
C323 C322 1.369 . S
C323 C324 1.410 . S
C323 C331 1.503 . S
C324 C323 1.410 . S
C324 C325 1.392 . S
C324 C327 1.511 . S
C325 C321 1.376 . S
C325 C324 1.392 . S
C325 H337 0.929 . S
C326 C322 1.531 . S
C326 H338 0.960 . S
C326 H339 0.962 1_556 S
C326 H340 0.960 1_556 S
C327 C324 1.511 . S
C327 H341 0.961 . S
C327 H342 0.961 . S
C327 H343 0.961 . S
C328 C329 1.370 . S
C328 C330 1.363 . S
C328 H344 0.931 . S
C329 C328 1.370 . S
C329 C333 1.408 . S
C330 C328 1.363 . S
C330 C331 1.370 . S
C330 C334 1.524 . S
C331 C323 1.503 . S
C331 C330 1.370 . S
C331 C332 1.403 . S
C332 C331 1.403 . S
C332 C333 1.404 . S
C332 C335 1.539 . S
C333 C329 1.408 . S
C333 C332 1.404 . S
C333 H345 0.930 . S
C334 C330 1.524 . S
C334 H346 0.956 . S
C334 H347 0.961 . S
C334 H348 0.961 . S
C335 C332 1.539 . S
C335 H349 0.958 . S
C335 H350 0.961 . S
C335 H351 0.960 . S
H336 C320 0.931 1_554 S
H337 C325 0.929 . S
H338 C326 0.960 . S
H339 C326 0.962 1_554 S
H340 C326 0.960 1_554 S
H341 C327 0.961 . S
H342 C327 0.961 . S
H343 C327 0.961 . S
H344 C328 0.931 . S
H345 C333 0.930 . S
H346 C334 0.956 . S
H347 C334 0.961 . S
H348 C334 0.961 . S
H349 C335 0.958 . S
H350 C335 0.961 . S
H351 C335 0.960 . S
C352 C353 1.391 . S
C352 C354 1.394 . S
C352 H368 0.931 . S
C353 C352 1.391 . S
C353 C357 1.376 . S
C354 C352 1.394 . S
C354 C355 1.369 . S
C354 C358 1.531 . S
C355 C354 1.369 . S
C355 C356 1.410 . S
C355 C363 1.503 . S
C356 C355 1.410 . S
C356 C357 1.392 . S
C356 C359 1.511 . S
C357 C353 1.376 . S
C357 C356 1.392 . S
C357 H369 0.929 . S
C358 C354 1.531 . S
C358 H370 0.960 . S
C358 H371 0.962 . S
C358 H372 0.960 . S
C359 C356 1.511 . S
C359 H373 0.961 . S
C359 H374 0.961 . S
C359 H375 0.961 . S
C360 C361 1.370 . S
C360 C362 1.363 . S
C360 H376 0.931 . S
C361 C360 1.370 . S
C361 C365 1.408 . S
C362 C360 1.363 . S
C362 C363 1.370 . S
C362 C366 1.524 . S
C363 C355 1.503 . S
C363 C362 1.370 . S
C363 C364 1.403 . S
C364 C363 1.403 . S
C364 C365 1.404 . S
C364 C367 1.539 . S
C365 C361 1.408 . S
C365 C364 1.404 . S
C365 H377 0.930 . S
C366 C362 1.524 . S
C366 H378 0.956 . S
C366 H379 0.961 . S
C366 H380 0.961 . S
C367 C364 1.539 . S
C367 H381 0.958 . S
C367 H382 0.961 . S
C367 H383 0.960 . S
H368 C352 0.931 . S
H369 C357 0.929 . S
H370 C358 0.960 . S
H371 C358 0.962 . S
H372 C358 0.960 . S
H373 C359 0.961 . S
H374 C359 0.961 . S
H375 C359 0.961 . S
H376 C360 0.931 . S
H377 C365 0.930 . S
H378 C366 0.956 . S
H379 C366 0.961 . S
H380 C366 0.961 . S
H381 C367 0.958 . S
H382 C367 0.961 . S
H383 C367 0.960 . S
C384 C385 1.391 . S
C384 C386 1.394 . S
C384 H400 0.931 . S
C385 C384 1.391 . S
C385 C389 1.376 . S
C386 C384 1.394 . S
C386 C387 1.369 . S
C386 C390 1.531 . S
C387 C386 1.369 . S
C387 C388 1.410 . S
C387 C395 1.503 . S
C388 C387 1.410 . S
C388 C389 1.392 . S
C388 C391 1.511 . S
C389 C385 1.376 . S
C389 C388 1.392 . S
C389 H401 0.929 . S
C390 C386 1.531 . S
C390 H402 0.960 . S
C390 H403 0.962 . S
C390 H404 0.960 . S
C391 C388 1.511 . S
C391 H405 0.961 . S
C391 H406 0.961 . S
C391 H407 0.961 . S
C392 C393 1.370 . S
C392 C394 1.363 . S
C392 H408 0.931 . S
C393 C392 1.370 . S
C393 C397 1.408 . S
C394 C392 1.363 . S
C394 C395 1.370 . S
C394 C398 1.524 . S
C395 C387 1.503 . S
C395 C394 1.370 . S
C395 C396 1.403 . S
C396 C395 1.403 . S
C396 C397 1.404 . S
C396 C399 1.539 . S
C397 C393 1.408 . S
C397 C396 1.404 . S
C397 H409 0.930 . S
C398 C394 1.524 . S
C398 H410 0.956 . S
C398 H411 0.961 . S
C398 H412 0.961 . S
C399 C396 1.539 . S
C399 H413 0.958 . S
C399 H414 0.961 . S
C399 H415 0.960 . S
H400 C384 0.931 . S
H401 C389 0.929 . S
H402 C390 0.960 . S
H403 C390 0.962 . S
H404 C390 0.960 . S
H405 C391 0.961 . S
H406 C391 0.961 . S
H407 C391 0.961 . S
H408 C392 0.931 . S
H409 C397 0.930 . S
H410 C398 0.956 . S
H411 C398 0.961 . S
H412 C398 0.961 . S
H413 C399 0.958 . S
H414 C399 0.961 . S
H415 C399 0.960 . S
C416 C417 1.391 . S
C416 C418 1.394 . S
C416 H432 0.931 . S
C417 C416 1.391 . S
C417 C421 1.376 . S
C418 C416 1.394 . S
C418 C419 1.369 . S
C418 C422 1.531 . S
C419 C418 1.369 . S
C419 C420 1.410 . S
C419 C427 1.503 . S
C420 C419 1.410 . S
C420 C421 1.392 . S
C420 C423 1.511 . S
C421 C417 1.376 . S
C421 C420 1.392 . S
C421 H433 0.929 . S
C422 C418 1.531 . S
C422 H434 0.960 . S
C422 H435 0.962 . S
C422 H436 0.960 . S
C423 C420 1.511 . S
C423 H437 0.961 . S
C423 H438 0.961 . S
C423 H439 0.961 . S
C424 C425 1.370 . S
C424 C426 1.363 . S
C424 H440 0.931 . S
C425 C424 1.370 . S
C425 C429 1.408 . S
C426 C424 1.363 . S
C426 C427 1.370 . S
C426 C430 1.524 . S
C427 C419 1.503 . S
C427 C426 1.370 . S
C427 C428 1.403 . S
C428 C427 1.403 . S
C428 C429 1.404 . S
C428 C431 1.539 . S
C429 C425 1.408 . S
C429 C428 1.404 . S
C429 H441 0.930 . S
C430 C426 1.524 . S
C430 H442 0.956 . S
C430 H443 0.961 . S
C430 H444 0.961 . S
C431 C428 1.539 . S
C431 H445 0.958 . S
C431 H446 0.961 . S
C431 H447 0.960 . S
H432 C416 0.931 . S
H433 C421 0.929 . S
H434 C422 0.960 . S
H435 C422 0.962 . S
H436 C422 0.960 . S
H437 C423 0.961 . S
H438 C423 0.961 . S
H439 C423 0.961 . S
H440 C424 0.931 . S
H441 C429 0.930 . S
H442 C430 0.956 . S
H443 C430 0.961 . S
H444 C430 0.961 . S
H445 C431 0.958 . S
H446 C431 0.961 . S
H447 C431 0.960 . S
C448 C449 1.391 . S
C448 C450 1.394 . S
C448 H464 0.931 . S
C449 C448 1.391 . S
C449 C453 1.376 . S
C450 C448 1.394 . S
C450 C451 1.369 . S
C450 C454 1.531 . S
C451 C450 1.369 . S
C451 C452 1.410 . S
C451 C459 1.503 . S
C452 C451 1.410 . S
C452 C453 1.392 . S
C452 C455 1.511 . S
C453 C449 1.376 . S
C453 C452 1.392 . S
C453 H465 0.929 . S
C454 C450 1.531 . S
C454 H466 0.960 . S
C454 H467 0.962 . S
C454 H468 0.960 . S
C455 C452 1.511 . S
C455 H469 0.961 . S
C455 H470 0.961 . S
C455 H471 0.961 . S
C456 C457 1.370 . S
C456 C458 1.363 . S
C456 H472 0.931 . S
C457 C456 1.370 . S
C457 C461 1.408 . S
C458 C456 1.363 . S
C458 C459 1.370 . S
C458 C462 1.524 . S
C459 C451 1.503 . S
C459 C458 1.370 . S
C459 C460 1.403 . S
C460 C459 1.403 . S
C460 C461 1.404 . S
C460 C463 1.539 . S
C461 C457 1.408 . S
C461 C460 1.404 . S
C461 H473 0.930 . S
C462 C458 1.524 . S
C462 H474 0.956 . S
C462 H475 0.961 . S
C462 H476 0.961 . S
C463 C460 1.539 . S
C463 H477 0.958 . S
C463 H478 0.961 . S
C463 H479 0.960 . S
H464 C448 0.931 . S
H465 C453 0.929 . S
H466 C454 0.960 . S
H467 C454 0.962 . S
H468 C454 0.960 . S
H469 C455 0.961 . S
H470 C455 0.961 . S
H471 C455 0.961 . S
H472 C456 0.931 . S
H473 C461 0.930 . S
H474 C462 0.956 . S
H475 C462 0.961 . S
H476 C462 0.961 . S
H477 C463 0.958 . S
H478 C463 0.961 . S
H479 C463 0.960 . S
C480 C481 1.391 . S
C480 C482 1.394 . S
C480 H496 0.931 1_554 S
C481 C480 1.391 . S
C481 C485 1.376 . S
C482 C480 1.394 . S
C482 C483 1.369 . S
C482 C486 1.531 . S
C483 C482 1.369 . S
C483 C484 1.410 . S
C483 C491 1.503 . S
C484 C483 1.410 . S
C484 C485 1.392 . S
C484 C487 1.511 . S
C485 C481 1.376 . S
C485 C484 1.392 . S
C485 H497 0.929 . S
C486 C482 1.531 . S
C486 H498 0.960 1_554 S
C486 H499 0.962 . S
C486 H500 0.960 1_554 S
C487 C484 1.511 . S
C487 H501 0.961 . S
C487 H502 0.961 . S
C487 H503 0.961 . S
C488 C489 1.370 . S
C488 C490 1.363 . S
C488 H504 0.931 . S
C489 C488 1.370 . S
C489 C493 1.408 . S
C490 C488 1.363 . S
C490 C491 1.370 . S
C490 C494 1.524 . S
C491 C483 1.503 . S
C491 C490 1.370 . S
C491 C492 1.403 . S
C492 C491 1.403 . S
C492 C493 1.404 . S
C492 C495 1.539 1_554 S
C493 C489 1.408 . S
C493 C492 1.404 . S
C493 H505 0.930 . S
C494 C490 1.524 . S
C494 H506 0.956 . S
C494 H507 0.961 . S
C494 H508 0.961 . S
C495 C492 1.539 1_556 S
C495 H509 0.958 . S
C495 H510 0.961 . S
C495 H511 0.960 . S
H496 C480 0.931 1_556 S
H497 C485 0.929 . S
H498 C486 0.960 1_556 S
H499 C486 0.962 . S
H500 C486 0.960 1_556 S
H501 C487 0.961 . S
H502 C487 0.961 . S
H503 C487 0.961 . S
H504 C488 0.931 . S
H505 C493 0.930 . S
H506 C494 0.956 . S
H507 C494 0.961 . S
H508 C494 0.961 . S
H509 C495 0.958 . S
H510 C495 0.961 . S
H511 C495 0.960 . S
C512 C513 1.391 . S
C512 C514 1.394 . S
C512 H528 0.931 . S
C513 C512 1.391 . S
C513 C517 1.376 . S
C514 C512 1.394 . S
C514 C515 1.369 . S
C514 C518 1.531 . S
C515 C514 1.369 . S
C515 C516 1.410 . S
C515 C523 1.503 . S
C516 C515 1.410 . S
C516 C517 1.392 . S
C516 C519 1.511 . S
C517 C513 1.376 . S
C517 C516 1.392 . S
C517 H529 0.929 . S
C518 C514 1.531 . S
C518 H530 0.960 . S
C518 H531 0.962 . S
C518 H532 0.960 . S
C519 C516 1.511 . S
C519 H533 0.961 . S
C519 H534 0.961 . S
C519 H535 0.961 . S
C520 C521 1.370 . S
C520 C522 1.363 . S
C520 H536 0.931 . S
C521 C520 1.370 . S
C521 C525 1.408 . S
C522 C520 1.363 . S
C522 C523 1.370 . S
C522 C526 1.524 . S
C523 C515 1.503 . S
C523 C522 1.370 . S
C523 C524 1.403 . S
C524 C523 1.403 . S
C524 C525 1.404 . S
C524 C527 1.539 . S
C525 C521 1.408 . S
C525 C524 1.404 . S
C525 H537 0.930 . S
C526 C522 1.524 . S
C526 H538 0.956 . S
C526 H539 0.961 . S
C526 H540 0.961 . S
C527 C524 1.539 . S
C527 H541 0.958 . S
C527 H542 0.961 . S
C527 H543 0.960 . S
H528 C512 0.931 . S
H529 C517 0.929 . S
H530 C518 0.960 . S
H531 C518 0.962 . S
H532 C518 0.960 . S
H533 C519 0.961 . S
H534 C519 0.961 . S
H535 C519 0.961 . S
H536 C520 0.931 . S
H537 C525 0.930 . S
H538 C526 0.956 . S
H539 C526 0.961 . S
H540 C526 0.961 . S
H541 C527 0.958 . S
H542 C527 0.961 . S
H543 C527 0.960 . S
C544 C545 1.391 . S
C544 C546 1.394 . S
C544 H560 0.931 . S
C545 C544 1.391 . S
C545 C549 1.376 . S
C546 C544 1.394 . S
C546 C547 1.369 . S
C546 C550 1.531 . S
C547 C546 1.369 . S
C547 C548 1.410 . S
C547 C555 1.503 . S
C548 C547 1.410 . S
C548 C549 1.392 . S
C548 C551 1.511 . S
C549 C545 1.376 . S
C549 C548 1.392 . S
C549 H561 0.929 . S
C550 C546 1.531 . S
C550 H562 0.960 . S
C550 H563 0.962 . S
C550 H564 0.960 . S
C551 C548 1.511 . S
C551 H565 0.961 . S
C551 H566 0.961 . S
C551 H567 0.961 . S
C552 C553 1.370 . S
C552 C554 1.363 . S
C552 H568 0.931 . S
C553 C552 1.370 . S
C553 C557 1.408 . S
C554 C552 1.363 . S
C554 C555 1.370 . S
C554 C558 1.524 . S
C555 C547 1.503 . S
C555 C554 1.370 . S
C555 C556 1.403 . S
C556 C555 1.403 . S
C556 C557 1.404 . S
C556 C559 1.539 . S
C557 C553 1.408 . S
C557 C556 1.404 . S
C557 H569 0.930 . S
C558 C554 1.524 . S
C558 H570 0.956 . S
C558 H571 0.961 . S
C558 H572 0.961 . S
C559 C556 1.539 . S
C559 H573 0.958 . S
C559 H574 0.961 . S
C559 H575 0.960 . S
H560 C544 0.931 . S
H561 C549 0.929 . S
H562 C550 0.960 . S
H563 C550 0.962 . S
H564 C550 0.960 . S
H565 C551 0.961 . S
H566 C551 0.961 . S
H567 C551 0.961 . S
H568 C552 0.931 . S
H569 C557 0.930 . S
H570 C558 0.956 . S
H571 C558 0.961 . S
H572 C558 0.961 . S
H573 C559 0.958 . S
H574 C559 0.961 . S
H575 C559 0.960 . S
C576 C577 1.391 . S
C576 C578 1.394 . S
C576 H592 0.931 . S
C577 C576 1.391 . S
C577 C581 1.376 . S
C578 C576 1.394 . S
C578 C579 1.369 . S
C578 C582 1.531 . S
C579 C578 1.369 . S
C579 C580 1.410 . S
C579 C587 1.503 . S
C580 C579 1.410 . S
C580 C581 1.392 . S
C580 C583 1.511 . S
C581 C577 1.376 . S
C581 C580 1.392 . S
C581 H593 0.929 . S
C582 C578 1.531 . S
C582 H594 0.960 . S
C582 H595 0.962 . S
C582 H596 0.960 . S
C583 C580 1.511 . S
C583 H597 0.961 . S
C583 H598 0.961 . S
C583 H599 0.961 . S
C584 C585 1.370 . S
C584 C586 1.363 . S
C584 H600 0.931 . S
C585 C584 1.370 . S
C585 C589 1.408 . S
C586 C584 1.363 . S
C586 C587 1.370 . S
C586 C590 1.524 . S
C587 C579 1.503 . S
C587 C586 1.370 . S
C587 C588 1.403 . S
C588 C587 1.403 . S
C588 C589 1.404 . S
C588 C591 1.539 . S
C589 C585 1.408 . S
C589 C588 1.404 . S
C589 H601 0.930 . S
C590 C586 1.524 . S
C590 H602 0.956 . S
C590 H603 0.961 . S
C590 H604 0.961 . S
C591 C588 1.539 . S
C591 H605 0.958 . S
C591 H606 0.961 . S
C591 H607 0.960 . S
H592 C576 0.931 . S
H593 C581 0.929 . S
H594 C582 0.960 . S
H595 C582 0.962 . S
H596 C582 0.960 . S
H597 C583 0.961 . S
H598 C583 0.961 . S
H599 C583 0.961 . S
H600 C584 0.931 . S
H601 C589 0.930 . S
H602 C590 0.956 . S
H603 C590 0.961 . S
H604 C590 0.961 . S
H605 C591 0.958 . S
H606 C591 0.961 . S
H607 C591 0.960 . S
C608 C609 1.391 . S
C608 C610 1.394 . S
C608 H624 0.931 . S
C609 C608 1.391 . S
C609 C613 1.376 . S
C610 C608 1.394 . S
C610 C611 1.369 . S
C610 C614 1.531 . S
C611 C610 1.369 . S
C611 C612 1.410 . S
C611 C619 1.503 . S
C612 C611 1.410 . S
C612 C613 1.392 . S
C612 C615 1.511 . S
C613 C609 1.376 . S
C613 C612 1.392 . S
C613 H625 0.929 . S
C614 C610 1.531 . S
C614 H626 0.960 . S
C614 H627 0.962 . S
C614 H628 0.960 . S
C615 C612 1.511 . S
C615 H629 0.961 . S
C615 H630 0.961 . S
C615 H631 0.961 . S
C616 C617 1.370 . S
C616 C618 1.363 . S
C616 H632 0.931 . S
C617 C616 1.370 . S
C617 C621 1.408 . S
C618 C616 1.363 . S
C618 C619 1.370 . S
C618 C622 1.524 . S
C619 C611 1.503 . S
C619 C618 1.370 . S
C619 C620 1.403 . S
C620 C619 1.403 . S
C620 C621 1.404 . S
C620 C623 1.539 . S
C621 C617 1.408 . S
C621 C620 1.404 . S
C621 H633 0.930 . S
C622 C618 1.524 . S
C622 H634 0.956 . S
C622 H635 0.961 . S
C622 H636 0.961 . S
C623 C620 1.539 . S
C623 H637 0.958 . S
C623 H638 0.961 . S
C623 H639 0.960 . S
H624 C608 0.931 . S
H625 C613 0.929 . S
H626 C614 0.960 . S
H627 C614 0.962 . S
H628 C614 0.960 . S
H629 C615 0.961 . S
H630 C615 0.961 . S
H631 C615 0.961 . S
H632 C616 0.931 . S
H633 C621 0.930 . S
H634 C622 0.956 . S
H635 C622 0.961 . S
H636 C622 0.961 . S
H637 C623 0.958 . S
H638 C623 0.961 . S
H639 C623 0.960 . S
C640 C641 1.391 . S
C640 C642 1.394 . S
C640 H656 0.931 . S
C641 C640 1.391 . S
C641 C645 1.376 . S
C642 C640 1.394 . S
C642 C643 1.369 . S
C642 C646 1.531 . S
C643 C642 1.369 . S
C643 C644 1.410 . S
C643 C651 1.503 . S
C644 C643 1.410 . S
C644 C645 1.392 . S
C644 C647 1.511 . S
C645 C641 1.376 . S
C645 C644 1.392 . S
C645 H657 0.929 . S
C646 C642 1.531 . S
C646 H658 0.960 . S
C646 H659 0.962 . S
C646 H660 0.960 . S
C647 C644 1.511 . S
C647 H661 0.961 . S
C647 H662 0.961 . S
C647 H663 0.961 . S
C648 C649 1.370 . S
C648 C650 1.363 . S
C648 H664 0.931 . S
C649 C648 1.370 . S
C649 C653 1.408 . S
C650 C648 1.363 . S
C650 C651 1.370 . S
C650 C654 1.524 . S
C651 C643 1.503 . S
C651 C650 1.370 . S
C651 C652 1.403 . S
C652 C651 1.403 . S
C652 C653 1.404 . S
C652 C655 1.539 . S
C653 C649 1.408 . S
C653 C652 1.404 . S
C653 H665 0.930 . S
C654 C650 1.524 . S
C654 H666 0.956 . S
C654 H667 0.961 . S
C654 H668 0.961 . S
C655 C652 1.539 . S
C655 H669 0.958 . S
C655 H670 0.961 . S
C655 H671 0.960 . S
H656 C640 0.931 . S
H657 C645 0.929 . S
H658 C646 0.960 . S
H659 C646 0.962 . S
H660 C646 0.960 . S
H661 C647 0.961 . S
H662 C647 0.961 . S
H663 C647 0.961 . S
H664 C648 0.931 . S
H665 C653 0.930 . S
H666 C654 0.956 . S
H667 C654 0.961 . S
H668 C654 0.961 . S
H669 C655 0.958 . S
H670 C655 0.961 . S
H671 C655 0.960 . S
C672 C673 1.391 . S
C672 C674 1.394 . S
C672 H688 0.931 . S
C673 C672 1.391 . S
C673 C677 1.376 . S
C674 C672 1.394 . S
C674 C675 1.369 . S
C674 C678 1.531 . S
C675 C674 1.369 . S
C675 C676 1.410 . S
C675 C683 1.503 . S
C676 C675 1.410 . S
C676 C677 1.392 . S
C676 C679 1.511 . S
C677 C673 1.376 . S
C677 C676 1.392 . S
C677 H689 0.929 . S
C678 C674 1.531 . S
C678 H690 0.960 . S
C678 H691 0.962 . S
C678 H692 0.960 . S
C679 C676 1.511 . S
C679 H693 0.961 . S
C679 H694 0.961 . S
C679 H695 0.961 . S
C680 C681 1.370 1_556 S
C680 C682 1.363 . S
C680 H696 0.931 . S
C681 C680 1.370 1_554 S
C681 C685 1.408 . S
C682 C680 1.363 . S
C682 C683 1.370 . S
C682 C686 1.524 . S
C683 C675 1.503 . S
C683 C682 1.370 . S
C683 C684 1.403 . S
C684 C683 1.403 . S
C684 C685 1.404 1_556 S
C684 C687 1.539 . S
C685 C681 1.408 . S
C685 C684 1.404 1_554 S
C685 H697 0.930 . S
C686 C682 1.524 . S
C686 H698 0.956 . S
C686 H699 0.961 . S
C686 H700 0.961 . S
C687 C684 1.539 . S
C687 H701 0.958 . S
C687 H702 0.961 1_556 S
C687 H703 0.960 . S
H688 C672 0.931 . S
H689 C677 0.929 . S
H690 C678 0.960 . S
H691 C678 0.962 . S
H692 C678 0.960 . S
H693 C679 0.961 . S
H694 C679 0.961 . S
H695 C679 0.961 . S
H696 C680 0.931 . S
H697 C685 0.930 . S
H698 C686 0.956 . S
H699 C686 0.961 . S
H700 C686 0.961 . S
H701 C687 0.958 . S
H702 C687 0.961 1_554 S
H703 C687 0.960 . S
C704 C705 1.391 . S
C704 C706 1.394 . S
C704 H720 0.931 . S
C705 C704 1.391 . S
C705 C709 1.376 . S
C706 C704 1.394 . S
C706 C707 1.369 . S
C706 C710 1.531 . S
C707 C706 1.369 . S
C707 C708 1.410 . S
C707 C715 1.503 . S
C708 C707 1.410 . S
C708 C709 1.392 . S
C708 C711 1.511 . S
C709 C705 1.376 . S
C709 C708 1.392 . S
C709 H721 0.929 . S
C710 C706 1.531 . S
C710 H722 0.960 . S
C710 H723 0.962 . S
C710 H724 0.960 . S
C711 C708 1.511 . S
C711 H725 0.961 . S
C711 H726 0.961 . S
C711 H727 0.961 . S
C712 C713 1.370 . S
C712 C714 1.363 . S
C712 H728 0.931 . S
C713 C712 1.370 . S
C713 C717 1.408 . S
C714 C712 1.363 . S
C714 C715 1.370 . S
C714 C718 1.524 . S
C715 C707 1.503 . S
C715 C714 1.370 . S
C715 C716 1.403 . S
C716 C715 1.403 . S
C716 C717 1.404 . S
C716 C719 1.539 . S
C717 C713 1.408 . S
C717 C716 1.404 . S
C717 H729 0.930 . S
C718 C714 1.524 . S
C718 H730 0.956 . S
C718 H731 0.961 . S
C718 H732 0.961 . S
C719 C716 1.539 . S
C719 H733 0.958 . S
C719 H734 0.961 . S
C719 H735 0.960 . S
H720 C704 0.931 . S
H721 C709 0.929 . S
H722 C710 0.960 . S
H723 C710 0.962 . S
H724 C710 0.960 . S
H725 C711 0.961 . S
H726 C711 0.961 . S
H727 C711 0.961 . S
H728 C712 0.931 . S
H729 C717 0.930 . S
H730 C718 0.956 . S
H731 C718 0.961 . S
H732 C718 0.961 . S
H733 C719 0.958 . S
H734 C719 0.961 . S
H735 C719 0.960 . S
C736 C737 1.391 . S
C736 C738 1.394 . S
C736 H752 0.931 . S
C737 C736 1.391 . S
C737 C741 1.376 . S
C738 C736 1.394 . S
C738 C739 1.369 . S
C738 C742 1.531 . S
C739 C738 1.369 . S
C739 C740 1.410 . S
C739 C747 1.503 . S
C740 C739 1.410 . S
C740 C741 1.392 . S
C740 C743 1.511 . S
C741 C737 1.376 . S
C741 C740 1.392 . S
C741 H753 0.929 . S
C742 C738 1.531 . S
C742 H754 0.960 . S
C742 H755 0.962 . S
C742 H756 0.960 . S
C743 C740 1.511 . S
C743 H757 0.961 . S
C743 H758 0.961 . S
C743 H759 0.961 . S
C744 C745 1.370 . S
C744 C746 1.363 . S
C744 H760 0.931 . S
C745 C744 1.370 . S
C745 C749 1.408 . S
C746 C744 1.363 . S
C746 C747 1.370 . S
C746 C750 1.524 . S
C747 C739 1.503 . S
C747 C746 1.370 . S
C747 C748 1.403 . S
C748 C747 1.403 . S
C748 C749 1.404 . S
C748 C751 1.539 . S
C749 C745 1.408 . S
C749 C748 1.404 . S
C749 H761 0.930 . S
C750 C746 1.524 . S
C750 H762 0.956 . S
C750 H763 0.961 . S
C750 H764 0.961 . S
C751 C748 1.539 . S
C751 H765 0.958 . S
C751 H766 0.961 . S
C751 H767 0.960 . S
H752 C736 0.931 . S
H753 C741 0.929 . S
H754 C742 0.960 . S
H755 C742 0.962 . S
H756 C742 0.960 . S
H757 C743 0.961 . S
H758 C743 0.961 . S
H759 C743 0.961 . S
H760 C744 0.931 . S
H761 C749 0.930 . S
H762 C750 0.956 . S
H763 C750 0.961 . S
H764 C750 0.961 . S
H765 C751 0.958 . S
H766 C751 0.961 . S
H767 C751 0.960 . S
C768 C769 1.391 . S
C768 C770 1.394 . S
C768 H784 0.931 . S
C769 C768 1.391 . S
C769 C773 1.376 . S
C770 C768 1.394 . S
C770 C771 1.369 . S
C770 C774 1.531 . S
C771 C770 1.369 . S
C771 C772 1.410 . S
C771 C779 1.503 . S
C772 C771 1.410 . S
C772 C773 1.392 . S
C772 C775 1.511 . S
C773 C769 1.376 . S
C773 C772 1.392 . S
C773 H785 0.929 . S
C774 C770 1.531 . S
C774 H786 0.960 . S
C774 H787 0.962 . S
C774 H788 0.960 . S
C775 C772 1.511 . S
C775 H789 0.961 . S
C775 H790 0.961 . S
C775 H791 0.961 . S
C776 C777 1.370 . S
C776 C778 1.363 . S
C776 H792 0.931 . S
C777 C776 1.370 . S
C777 C781 1.408 . S
C778 C776 1.363 . S
C778 C779 1.370 . S
C778 C782 1.524 . S
C779 C771 1.503 . S
C779 C778 1.370 . S
C779 C780 1.403 . S
C780 C779 1.403 . S
C780 C781 1.404 . S
C780 C783 1.539 . S
C781 C777 1.408 . S
C781 C780 1.404 . S
C781 H793 0.930 . S
C782 C778 1.524 . S
C782 H794 0.956 . S
C782 H795 0.961 . S
C782 H796 0.961 . S
C783 C780 1.539 . S
C783 H797 0.958 . S
C783 H798 0.961 . S
C783 H799 0.960 . S
H784 C768 0.931 . S
H785 C773 0.929 . S
H786 C774 0.960 . S
H787 C774 0.962 . S
H788 C774 0.960 . S
H789 C775 0.961 . S
H790 C775 0.961 . S
H791 C775 0.961 . S
H792 C776 0.931 . S
H793 C781 0.930 . S
H794 C782 0.956 . S
H795 C782 0.961 . S
H796 C782 0.961 . S
H797 C783 0.958 . S
H798 C783 0.961 . S
H799 C783 0.960 . S
C800 C801 1.391 . S
C800 C802 1.394 . S
C800 H816 0.931 . S
C801 C800 1.391 . S
C801 C805 1.376 . S
C802 C800 1.394 . S
C802 C803 1.369 . S
C802 C806 1.531 . S
C803 C802 1.369 . S
C803 C804 1.410 . S
C803 C811 1.503 . S
C804 C803 1.410 . S
C804 C805 1.392 . S
C804 C807 1.511 . S
C805 C801 1.376 . S
C805 C804 1.392 . S
C805 H817 0.929 . S
C806 C802 1.531 . S
C806 H818 0.960 . S
C806 H819 0.962 . S
C806 H820 0.960 . S
C807 C804 1.511 . S
C807 H821 0.961 . S
C807 H822 0.961 . S
C807 H823 0.961 . S
C808 C809 1.370 . S
C808 C810 1.363 . S
C808 H824 0.931 . S
C809 C808 1.370 . S
C809 C813 1.408 . S
C810 C808 1.363 . S
C810 C811 1.370 . S
C810 C814 1.524 . S
C811 C803 1.503 . S
C811 C810 1.370 . S
C811 C812 1.403 . S
C812 C811 1.403 . S
C812 C813 1.404 . S
C812 C815 1.539 . S
C813 C809 1.408 . S
C813 C812 1.404 . S
C813 H825 0.930 . S
C814 C810 1.524 . S
C814 H826 0.956 . S
C814 H827 0.961 . S
C814 H828 0.961 . S
C815 C812 1.539 . S
C815 H829 0.958 . S
C815 H830 0.961 . S
C815 H831 0.960 . S
H816 C800 0.931 . S
H817 C805 0.929 . S
H818 C806 0.960 . S
H819 C806 0.962 . S
H820 C806 0.960 . S
H821 C807 0.961 . S
H822 C807 0.961 . S
H823 C807 0.961 . S
H824 C808 0.931 . S
H825 C813 0.930 . S
H826 C814 0.956 . S
H827 C814 0.961 . S
H828 C814 0.961 . S
H829 C815 0.958 . S
H830 C815 0.961 . S
H831 C815 0.960 . S
C832 C833 1.391 . S
C832 C834 1.394 . S
C832 H848 0.931 . S
C833 C832 1.391 . S
C833 C837 1.376 . S
C834 C832 1.394 . S
C834 C835 1.369 . S
C834 C838 1.531 . S
C835 C834 1.369 . S
C835 C836 1.410 . S
C835 C843 1.503 . S
C836 C835 1.410 . S
C836 C837 1.392 . S
C836 C839 1.511 . S
C837 C833 1.376 . S
C837 C836 1.392 . S
C837 H849 0.929 . S
C838 C834 1.531 . S
C838 H850 0.960 . S
C838 H851 0.962 . S
C838 H852 0.960 . S
C839 C836 1.511 . S
C839 H853 0.961 . S
C839 H854 0.961 . S
C839 H855 0.961 . S
C840 C841 1.370 . S
C840 C842 1.363 . S
C840 H856 0.931 . S
C841 C840 1.370 . S
C841 C845 1.408 . S
C842 C840 1.363 . S
C842 C843 1.370 . S
C842 C846 1.524 . S
C843 C835 1.503 . S
C843 C842 1.370 . S
C843 C844 1.403 . S
C844 C843 1.403 . S
C844 C845 1.404 . S
C844 C847 1.539 . S
C845 C841 1.408 . S
C845 C844 1.404 . S
C845 H857 0.930 . S
C846 C842 1.524 . S
C846 H858 0.956 . S
C846 H859 0.961 . S
C846 H860 0.961 . S
C847 C844 1.539 . S
C847 H861 0.958 . S
C847 H862 0.961 . S
C847 H863 0.960 . S
H848 C832 0.931 . S
H849 C837 0.929 . S
H850 C838 0.960 . S
H851 C838 0.962 . S
H852 C838 0.960 . S
H853 C839 0.961 . S
H854 C839 0.961 . S
H855 C839 0.961 . S
H856 C840 0.931 . S
H857 C845 0.930 . S
H858 C846 0.956 . S
H859 C846 0.961 . S
H860 C846 0.961 . S
H861 C847 0.958 . S
H862 C847 0.961 . S
H863 C847 0.960 . S
C864 C865 1.391 . S
C864 C866 1.394 . S
C864 H880 0.931 . S
C865 C864 1.391 . S
C865 C869 1.376 . S
C866 C864 1.394 . S
C866 C867 1.369 . S
C866 C870 1.531 . S
C867 C866 1.369 . S
C867 C868 1.410 . S
C867 C875 1.503 . S
C868 C867 1.410 . S
C868 C869 1.392 . S
C868 C871 1.511 . S
C869 C865 1.376 . S
C869 C868 1.392 . S
C869 H881 0.929 . S
C870 C866 1.531 . S
C870 H882 0.960 . S
C870 H883 0.962 . S
C870 H884 0.960 . S
C871 C868 1.511 . S
C871 H885 0.961 . S
C871 H886 0.961 . S
C871 H887 0.961 . S
C872 C873 1.370 . S
C872 C874 1.363 . S
C872 H888 0.931 . S
C873 C872 1.370 . S
C873 C877 1.408 . S
C874 C872 1.363 . S
C874 C875 1.370 . S
C874 C878 1.524 . S
C875 C867 1.503 . S
C875 C874 1.370 . S
C875 C876 1.403 . S
C876 C875 1.403 . S
C876 C877 1.404 . S
C876 C879 1.539 . S
C877 C873 1.408 . S
C877 C876 1.404 . S
C877 H889 0.930 . S
C878 C874 1.524 . S
C878 H890 0.956 . S
C878 H891 0.961 . S
C878 H892 0.961 . S
C879 C876 1.539 . S
C879 H893 0.958 . S
C879 H894 0.961 . S
C879 H895 0.960 . S
H880 C864 0.931 . S
H881 C869 0.929 . S
H882 C870 0.960 . S
H883 C870 0.962 . S
H884 C870 0.960 . S
H885 C871 0.961 . S
H886 C871 0.961 . S
H887 C871 0.961 . S
H888 C872 0.931 . S
H889 C877 0.930 . S
H890 C878 0.956 . S
H891 C878 0.961 . S
H892 C878 0.961 . S
H893 C879 0.958 . S
H894 C879 0.961 . S
H895 C879 0.960 . S
C896 C897 1.391 . S
C896 C898 1.394 . S
C896 H912 0.931 . S
C897 C896 1.391 . S
C897 C901 1.376 . S
C898 C896 1.394 . S
C898 C899 1.369 . S
C898 C902 1.531 . S
C899 C898 1.369 . S
C899 C900 1.410 . S
C899 C907 1.503 . S
C900 C899 1.410 . S
C900 C901 1.392 . S
C900 C903 1.511 . S
C901 C897 1.376 . S
C901 C900 1.392 . S
C901 H913 0.929 . S
C902 C898 1.531 . S
C902 H914 0.942 1_554 S
C902 H915 0.948 1_554 S
C902 H916 0.960 . S
C903 C900 1.511 . S
C903 H917 0.961 . S
C903 H918 0.961 . S
C903 H919 0.961 . S
C904 C905 1.370 . S
C904 C906 1.363 1_556 S
C904 H920 0.931 . S
C905 C904 1.370 . S
C905 C909 1.408 . S
C906 C904 1.363 1_554 S
C906 C907 1.370 . S
C906 C910 1.524 . S
C907 C899 1.503 . S
C907 C906 1.370 . S
C907 C908 1.403 . S
C908 C907 1.403 . S
C908 C909 1.404 1_554 S
C908 C911 1.539 . S
C909 C905 1.408 . S
C909 C908 1.404 1_556 S
C909 H921 0.930 . S
C910 C906 1.524 . S
C910 H922 0.956 . S
C910 H923 0.961 . S
C910 H924 0.961 . S
C911 C908 1.539 . S
C911 H925 0.958 . S
C911 H926 0.961 . S
C911 H927 0.960 . S
H912 C896 0.931 . S
H913 C901 0.929 . S
H914 C902 0.942 1_556 S
H915 C902 0.948 1_556 S
H916 C902 0.960 . S
H917 C903 0.961 . S
H918 C903 0.961 . S
H919 C903 0.961 . S
H920 C904 0.931 . S
H921 C909 0.930 . S
H922 C910 0.956 . S
H923 C910 0.961 . S
H924 C910 0.961 . S
H925 C911 0.958 . S
H926 C911 0.961 . S
H927 C911 0.960 . S
C928 C929 1.391 . S
C928 C930 1.394 . S
C928 H944 0.931 . S
C929 C928 1.391 . S
C929 C933 1.376 . S
C930 C928 1.394 . S
C930 C931 1.369 . S
C930 C934 1.531 . S
C931 C930 1.369 . S
C931 C932 1.410 . S
C931 C939 1.503 . S
C932 C931 1.410 . S
C932 C933 1.392 . S
C932 C935 1.511 . S
C933 C929 1.376 . S
C933 C932 1.392 . S
C933 H945 0.929 . S
C934 C930 1.531 . S
C934 H946 0.960 . S
C934 H947 0.962 . S
C934 H948 0.960 . S
C935 C932 1.511 . S
C935 H949 0.961 . S
C935 H950 0.961 . S
C935 H951 0.961 . S
C936 C937 1.370 . S
C936 C938 1.363 . S
C936 H952 0.931 . S
C937 C936 1.370 . S
C937 C941 1.408 . S
C938 C936 1.363 . S
C938 C939 1.370 . S
C938 C942 1.524 . S
C939 C931 1.503 . S
C939 C938 1.370 . S
C939 C940 1.403 . S
C940 C939 1.403 . S
C940 C941 1.404 . S
C940 C943 1.539 . S
C941 C937 1.408 . S
C941 C940 1.404 . S
C941 H953 0.930 . S
C942 C938 1.524 . S
C942 H954 0.956 . S
C942 H955 0.961 . S
C942 H956 0.961 . S
C943 C940 1.539 . S
C943 H957 0.958 . S
C943 H958 0.961 . S
C943 H959 0.960 . S
H944 C928 0.931 . S
H945 C933 0.929 . S
H946 C934 0.960 . S
H947 C934 0.962 . S
H948 C934 0.960 . S
H949 C935 0.961 . S
H950 C935 0.961 . S
H951 C935 0.961 . S
H952 C936 0.931 . S
H953 C941 0.930 . S
H954 C942 0.956 . S
H955 C942 0.961 . S
H956 C942 0.961 . S
H957 C943 0.958 . S
H958 C943 0.961 . S
H959 C943 0.960 . S
C201 C181 1.588 . S
C193 C8 1.506 . S
C225 C26 1.518 . S
C233 C111 1.590 . S
C257 C50 1.526 . S
C265 C130 1.609 . S
C289 C68 1.529 . S
C297 C139 1.592 . S
C329 C153 1.590 . S
C321 C80 1.558 . S
C353 C104 1.535 . S
C361 C172 1.602 . S
C385 C32 1.501 . S
C393 C125 1.586 . S
C417 C44 1.509 . S
C425 C144 1.587 . S
C449 C62 1.510 . S
C457 C158 1.585 . S
C489 C167 1.579 . S
C481 C86 1.499 1_554 S
C521 C186 1.587 . S
C513 C98 1.502 . S
C553 C116 1.589 . S
C545 C14 1.506 . S
C577 C7 1.473 . S
C585 C131 1.503 . S
C609 C25 1.471 . S
C617 C143 1.477 . S
C649 C157 1.479 . S
C641 C52 1.465 . S
C673 C70 1.489 . S
C681 C173 1.504 . S
C713 C185 1.476 . S
C705 C79 1.492 . S
C745 C115 1.495 . S
C737 C106 1.449 . S
C777 C187 1.515 . S
C769 C34 1.442 . S
C801 C43 1.443 . S
C809 C117 1.522 . S
C841 C129 1.501 . S
C833 C61 1.445 . S
C865 C88 1.450 . S
C873 C145 1.518 . S
C897 C97 1.474 . S
C905 C159 1.527 . S
C929 C16 1.482 . S
C937 C171 1.488 . S
