# Generated by pormake.
# Topology zzz, (3,6)-cn, num edge types: 1
# Building blocks:
#     Node 0, Type 0, BuildingBlock: PAMTOO_clean_linker_0, # of connection points: 3
#     Node 1, Type 0, BuildingBlock: PAMTOO_clean_linker_0, # of connection points: 3
#     Node 2, Type 0, BuildingBlock: PAMTOO_clean_linker_0, # of connection points: 3
#     Node 3, Type 0, BuildingBlock: PAMTOO_clean_linker_0, # of connection points: 3
#     Node 4, Type 0, BuildingBlock: PAMTOO_clean_linker_0, # of connection points: 3
#     Node 5, Type 0, BuildingBlock: PAMTOO_clean_linker_0, # of connection points: 3
#     Node 6, Type 0, BuildingBlock: PAMTOO_clean_linker_0, # of connection points: 3
#     Node 7, Type 0, BuildingBlock: PAMTOO_clean_linker_0, # of connection points: 3
#     Node 8, Type 1, BuildingBlock: NUHQIS_clean_sbu_0, # of connection points: 6
#     Node 9, Type 1, BuildingBlock: NUHQIS_clean_sbu_0, # of connection points: 6
#     Node 10, Type 1, BuildingBlock: NUHQIS_clean_sbu_0, # of connection points: 6
#     Node 11, Type 1, BuildingBlock: NUHQIS_clean_sbu_0, # of connection points: 6
#     Edge 12, Type (0, 1), BuildingBlock: EZIPEK_clean_linker_0, # of connection points: 2
#     Edge 13, Type (0, 1), BuildingBlock: EZIPEK_clean_linker_0, # of connection points: 2
#     Edge 14, Type (0, 1), BuildingBlock: EZIPEK_clean_linker_0, # of connection points: 2
#     Edge 15, Type (0, 1), BuildingBlock: EZIPEK_clean_linker_0, # of connection points: 2
#     Edge 16, Type (0, 1), BuildingBlock: EZIPEK_clean_linker_0, # of connection points: 2
#     Edge 17, Type (0, 1), BuildingBlock: EZIPEK_clean_linker_0, # of connection points: 2
#     Edge 18, Type (0, 1), BuildingBlock: EZIPEK_clean_linker_0, # of connection points: 2
#     Edge 19, Type (0, 1), BuildingBlock: EZIPEK_clean_linker_0, # of connection points: 2
#     Edge 20, Type (0, 1), BuildingBlock: EZIPEK_clean_linker_0, # of connection points: 2
#     Edge 21, Type (0, 1), BuildingBlock: EZIPEK_clean_linker_0, # of connection points: 2
#     Edge 22, Type (0, 1), BuildingBlock: EZIPEK_clean_linker_0, # of connection points: 2
#     Edge 23, Type (0, 1), BuildingBlock: EZIPEK_clean_linker_0, # of connection points: 2
#     Edge 24, Type (0, 1), BuildingBlock: EZIPEK_clean_linker_0, # of connection points: 2
#     Edge 25, Type (0, 1), BuildingBlock: EZIPEK_clean_linker_0, # of connection points: 2
#     Edge 26, Type (0, 1), BuildingBlock: EZIPEK_clean_linker_0, # of connection points: 2
#     Edge 27, Type (0, 1), BuildingBlock: EZIPEK_clean_linker_0, # of connection points: 2
#     Edge 28, Type (0, 1), BuildingBlock: EZIPEK_clean_linker_0, # of connection points: 2
#     Edge 29, Type (0, 1), BuildingBlock: EZIPEK_clean_linker_0, # of connection points: 2
#     Edge 30, Type (0, 1), BuildingBlock: EZIPEK_clean_linker_0, # of connection points: 2
#     Edge 31, Type (0, 1), BuildingBlock: EZIPEK_clean_linker_0, # of connection points: 2
#     Edge 32, Type (0, 1), BuildingBlock: EZIPEK_clean_linker_0, # of connection points: 2
#     Edge 33, Type (0, 1), BuildingBlock: EZIPEK_clean_linker_0, # of connection points: 2
#     Edge 34, Type (0, 1), BuildingBlock: EZIPEK_clean_linker_0, # of connection points: 2
#     Edge 35, Type (0, 1), BuildingBlock: EZIPEK_clean_linker_0, # of connection points: 2
# Relax obj value: 0.340
# Max RMSD: 0.179
# Mean RMSD: 0.137
data_MOF--net-zzz--node1-NUHQIS_clean_sbu_0--node2-PAMTOO_clean_linker_0--edge1-EZIPEK_clean_linker_0
_symmetry_space_group_name_H-M    P1
_symmetry_Int_Tables_number       1
_symmetry_cell_setting            triclinic
loop_
_symmetry_equiv_pos_as_xyz
'x, y, z'
_cell_length_a     37.432017
_cell_length_b     37.68775
_cell_length_c     10.782111
_cell_angle_alpha  89.729462
_cell_angle_beta   89.615233
_cell_angle_gamma 89.115016
loop_
_atom_site_label
_atom_site_type_symbol
_atom_site_fract_x
_atom_site_fract_y
_atom_site_fract_z
_atom_type_partial_charge
H0 H 0.85634 0.46931 0.35242 0.0
H1 H 0.7584 0.48359 0.15692 0.0
H2 H 0.77832 0.5464 0.48223 0.0
H3 H 0.6875 0.54502 0.37956 0.0
C4 C 0.69945 0.52665 0.30998 0.0
O5 O 0.73452 0.53684 0.28698 0.0
H6 H 0.69858 0.50071 0.35895 0.0
C7 C 0.83054 0.48262 0.34551 0.0
C8 C 0.82089 0.50878 0.43245 0.0
C9 C 0.80723 0.47195 0.25267 0.0
C10 C 0.77497 0.49015 0.2351 0.0
C11 C 0.76442 0.51736 0.31578 0.0
C12 C 0.78686 0.52597 0.41781 0.0
H13 H 0.07483 0.85836 0.3722 0.0
H14 H 0.05724 0.76044 0.18705 0.0
H15 H 1.00437 0.78114 0.53643 0.0
H16 H 1.02568 0.68877 0.45205 0.0
C17 C 0.03259 0.70013 0.36017 0.0
O18 O 1.01466 0.73292 0.34827 0.0
H19 H 0.06178 0.70385 0.36901 0.0
C20 C 0.06241 0.83251 0.37226 0.0
C21 C 0.03838 0.82374 0.46757 0.0
C22 C 0.06993 0.80926 0.27423 0.0
C23 C 0.05318 0.77669 0.26808 0.0
C24 C 1.03049 0.76533 0.36277 0.0
C25 C 1.02283 0.78906 0.46413 0.0
H26 H 0.70187 0.09127 0.41852 0.0
H27 H 0.80151 0.07392 0.22902 0.0
H28 H 0.77232 1.00607 0.53451 0.0
H29 H 0.86689 1.00869 0.45172 0.0
C30 C 0.85635 1.02754 0.38103 0.0
O31 O 0.82127 1.01852 0.35397 0.0
H32 H 0.8572 0.05305 0.43124 0.0
C33 C 0.72729 0.07712 0.41183 0.0
C34 C 0.7338 0.04816 0.49083 0.0
C35 C 0.75168 0.08676 0.3186 0.0
C36 C 0.78357 0.06754 0.30445 0.0
C37 C 0.79171 0.03877 0.382 0.0
C38 C 0.76681 0.02905 0.47675 0.0
H39 H 0.55218 0.69096 0.36187 0.0
H40 H 0.58018 0.79073 0.19703 0.0
H41 H 0.52389 0.78723 0.54822 0.0
H42 H 0.50612 0.86501 0.38729 0.0
C43 C 0.51926 0.85047 0.30998 0.0
O44 O 0.5471 0.82998 0.36001 0.0
H45 H 0.49765 0.83328 0.27549 0.0
C46 C 0.55204 0.71957 0.36387 0.0
C47 C 0.53762 0.73569 0.46818 0.0
C48 C 0.57012 0.73867 0.27184 0.0
C49 C 0.56715 0.77569 0.26979 0.0
C50 C 0.54835 0.79363 0.36445 0.0
C51 C 0.53513 0.77359 0.46858 0.0
H52 H 0.19497 0.60045 0.19711 0.0
H53 H 0.30291 0.60109 0.32343 0.0
H54 H 0.26348 0.50943 0.13259 0.0
H55 H 0.31172 0.5029 0.41772 0.0
C56 C 0.32697 0.52664 0.38967 0.0
O57 O 0.31843 0.53535 0.26692 0.0
H58 H 0.31674 0.54775 0.45309 0.0
C59 C 0.22093 0.58742 0.20395 0.0
C60 C 0.22596 0.55404 0.14914 0.0
C61 C 0.24845 0.60444 0.26666 0.0
C62 C 0.28174 0.58761 0.2766 0.0
C63 C 0.28698 0.55246 0.23694 0.0
C64 C 0.25915 0.5358 0.16963 0.0
H65 H 0.9527 0.21442 0.20443 0.0
H66 H 0.96039 0.32122 0.33799 0.0
H67 H 0.04444 0.27665 0.11008 0.0
H68 H 0.07316 0.3435 0.31351 0.0
C69 C 0.04566 0.34024 0.35061 0.0
O70 O 1.0233 0.33299 0.25078 0.0
H71 H 0.04913 0.31662 0.41146 0.0
C72 C 0.96726 0.23894 0.20994 0.0
C73 C 0.99956 0.24156 0.14413 0.0
C74 C 0.95259 0.26731 0.27869 0.0
C75 C 0.97163 0.2988 0.28821 0.0
C76 C 1.00557 0.30183 0.23441 0.0
C77 C 1.01925 0.27353 0.15844 0.0
H78 H 0.35574 0.97484 0.25717 0.0
H79 H 0.25135 0.97747 0.41744 0.0
H80 H 0.27329 0.04017 0.08964 0.0
H81 H 0.20764 0.07332 0.27146 0.0
C82 C 0.21083 0.05078 0.33701 0.0
O83 O 0.22312 1.02311 0.26222 0.0
H84 H 0.23166 0.05797 0.40535 0.0
C85 C 0.32861 0.9854 0.25539 0.0
C86 C 0.31842 1.00907 0.16083 0.0
C87 C 0.30408 0.97283 0.34241 0.0
C88 C 0.26941 0.98662 0.34594 0.0
C89 C 0.25804 1.01169 0.2578 0.0
C90 C 0.28241 1.02237 0.16228 0.0
H91 H 0.60286 0.34566 0.1291 0.0
H92 H 0.60031 0.24047 0.28536 0.0
H93 H 0.50635 0.2856 0.11493 0.0
H94 H 0.48765 0.23093 0.34754 0.0
C95 C 0.51646 0.22433 0.35844 0.0
O96 O 0.53345 0.2293 0.24374 0.0
H97 H 0.52503 0.24446 0.42654 0.0
C98 C 0.58883 0.32129 0.14813 0.0
C99 C 0.55347 0.31876 0.10774 0.0
C100 C 0.60579 0.29404 0.21702 0.0
C101 C 0.5871 0.26268 0.24084 0.0
C102 C 0.55095 0.25966 0.20964 0.0
C103 C 0.53408 0.28779 0.14128 0.0
Tb104 Tb 0.04871 1.02285 0.91421 0.0
Eu105 Eu 0.99399 0.04246 0.697 0.0
C106 C 0.07787 0.04033 0.64339 0.0
C107 C 1.01918 0.10472 0.88085 0.0
C108 C 0.12653 0.98569 0.07305 0.0
C109 C 0.13792 0.93163 0.18703 0.0
C110 C 0.12863 0.9674 0.18547 0.0
C111 C 0.14084 0.96994 0.96503 0.0
C112 C 0.15032 0.93384 0.96639 0.0
C113 C 0.14432 0.91398 0.07484 0.0
C114 C 0.09895 1.01353 0.06508 0.0
O115 O 0.99819 1.01337 0.0117 0.0
O116 O 0.96049 0.04137 0.87446 0.0
O117 O 1.0065 0.98344 0.66797 0.0
O118 O 0.03983 0.96892 0.83953 0.0
C119 C 0.96647 1.02632 0.98289 0.0
O120 O 0.93832 0.04408 0.63754 0.0
O121 O 0.98034 0.05551 0.50608 0.0
O122 O 0.04797 0.05722 0.61697 0.0
O123 O 0.07988 1.01979 0.74162 0.0
O124 O 0.03395 0.07927 0.94904 0.0
O125 O 1.0055 0.09739 0.7719 0.0
C126 C 1.02395 0.95963 0.73531 0.0
O127 O 0.10067 0.03542 0.97135 0.0
O128 O 0.06667 1.00182 0.08232 0.0
C129 C 0.92762 0.09029 0.49269 0.0
C130 C 0.90063 0.15897 0.44808 0.0
C131 C 0.8839 0.13727 0.53609 0.0
C132 C 0.89746 0.10306 0.55877 0.0
C133 C 0.9423 0.1113 0.39829 0.0
C134 C 0.92897 0.1453 0.37651 0.0
C135 C 0.9461 0.05701 0.52861 0.0
H136 H 0.1338 0.91677 0.27216 0.0
H137 H 0.11705 0.97904 0.26786 0.0
H138 H 0.13964 0.98371 0.8767 0.0
H139 H 0.15586 0.92054 0.87939 0.0
H140 H 0.86206 0.14758 0.59235 0.0
H141 H 0.88534 0.08728 0.63145 0.0
H142 H 0.9652 0.10211 0.34479 0.0
H143 H 0.94219 0.16167 0.30813 0.0
Tb144 Tb 0.52973 0.05455 0.91582 0.0
Eu145 Eu 0.51618 1.003 0.68281 0.0
C146 C 0.52002 0.08856 0.64188 0.0
C147 C 0.45074 1.02551 0.87304 0.0
C148 C 0.56657 0.12346 0.11954 0.0
C149 C 0.61621 0.13597 0.25322 0.0
C150 C 0.58185 0.12322 0.23759 0.0
C151 C 0.58303 0.14236 0.02254 0.0
C152 C 0.61743 0.15541 0.03852 0.0
C153 C 0.63535 0.14857 0.15024 0.0
C154 C 0.53974 0.09674 0.09308 0.0
O155 O 0.52091 1.00188 0.00174 0.0
O156 O 0.53767 0.96744 0.83778 0.0
O157 O 0.57226 1.02248 0.65146 0.0
O158 O 0.58455 0.04026 0.84961 0.0
C159 C 0.53043 0.97061 0.95673 0.0
O160 O 0.5274 0.95256 0.59021 0.0
O161 O 0.49221 0.99133 0.50467 0.0
O162 O 0.50811 0.0582 0.60038 0.0
O163 O 0.53315 0.09092 0.75487 0.0
O164 O 0.47139 0.05015 0.91837 0.0
O165 O 0.46291 1.00315 0.7882 0.0
C166 C 0.59531 0.03224 0.73553 0.0
O167 O 0.51813 0.10342 0.00143 0.0
O168 O 0.55228 0.06427 0.08936 0.0
C169 C 0.47731 0.93194 0.47961 0.0
C170 C 0.41006 0.90095 0.48127 0.0
C171 C 0.43532 0.89058 0.57029 0.0
C172 C 0.46884 0.90642 0.57031 0.0
C173 C 0.45476 0.9366 0.37769 0.0
C174 C 0.42122 0.92125 0.3786 0.0
C175 C 0.50451 0.95881 0.5019 0.0
H176 H 0.62961 0.13093 0.34051 0.0
H177 H 0.56934 0.10895 0.31328 0.0
H178 H 0.5715 0.14304 0.93065 0.0
H179 H 0.6319 0.1653 0.95849 0.0
H180 H 0.42795 0.87335 0.64659 0.0
H181 H 0.48676 0.90091 0.64629 0.0
H182 H 0.46129 0.95535 0.30471 0.0
H183 H 0.40254 0.9289 0.3066 0.0
Tb184 Tb 0.50311 0.5362 0.89449 0.0
Eu185 Eu 0.55352 0.51571 0.65418 0.0
C186 C 0.46531 0.52037 0.63624 0.0
C187 C 0.52728 0.45523 0.85247 0.0
C188 C 0.49637 0.57079 0.19339 0.0
C189 C 0.51411 0.63108 0.23205 0.0
C190 C 0.48722 0.60638 0.21542 0.0
C191 C 0.53181 0.55938 0.21633 0.0
C192 C 0.55887 0.58425 0.22574 0.0
C193 C 0.55032 0.6205 0.22246 0.0
C194 C 0.47559 0.55139 0.10034 0.0
O195 O 0.55849 0.54234 0.95944 0.0
O196 O 0.59329 0.5155 0.81002 0.0
O197 O 0.54643 0.57598 0.6396 0.0
O198 O 0.51154 0.58903 0.8107 0.0
C199 C 0.5894 0.52927 0.92066 0.0
O200 O 0.60254 0.52102 0.54407 0.0
O201 O 0.55935 0.48855 0.47802 0.0
O202 O 0.49641 0.51208 0.5855 0.0
O203 O 0.46201 0.53085 0.7523 0.0
O204 O 0.50189 0.47776 0.88737 0.0
O205 O 0.55156 0.46473 0.77003 0.0
C206 C 0.52878 0.59906 0.70953 0.0
O207 O 0.46877 0.5694 0.99942 0.0
O208 O 0.48751 0.51975 0.07363 0.0
C209 C 0.6172 0.4687 0.4299 0.0
C210 C 0.65207 0.40317 0.39011 0.0
C211 C 0.66317 0.42526 0.48667 0.0
C212 C 0.64528 0.45768 0.50812 0.0
C213 C 0.60915 0.44834 0.32616 0.0
C214 C 0.62596 0.4157 0.30744 0.0
C215 C 0.59245 0.49799 0.46183 0.0
H216 H 0.5067 0.65898 0.23402 0.0
H217 H 0.46009 0.6159 0.20109 0.0
H218 H 0.53968 0.53177 0.20576 0.0
H219 H 0.58629 0.57507 0.2226 0.0
H220 H 0.68373 0.41631 0.55027 0.0
H221 H 0.65216 0.47311 0.58874 0.0
H222 H 0.58825 0.45679 0.26349 0.0
H223 H 0.61715 0.39936 0.23161 0.0
Tb224 Tb 1.00986 0.50252 0.93655 0.0
Eu225 Eu 1.02893 0.55282 0.70834 0.0
C226 C 1.02525 0.46794 0.67005 0.0
C227 C 0.09012 0.52786 0.89969 0.0
C228 C 0.9737 0.43191 0.14355 0.0
C229 C 0.93714 0.38614 0.05412 0.0
C230 C 0.96876 0.40545 0.0542 0.0
C231 C 0.95052 0.43381 0.2456 0.0
C232 C 0.91894 0.41485 0.24488 0.0
C233 C 0.91017 0.3942 0.1411 0.0
C234 C 0.99707 0.46215 0.11959 0.0
O235 O 0.99566 0.5572 0.99726 0.0
O236 O 0.03679 0.58573 0.88307 0.0
O237 O 0.96848 0.55116 0.70965 0.0
O238 O 0.96084 0.50027 0.82214 0.0
C239 C 1.01587 0.58521 0.98131 0.0
O240 O 1.02217 0.60475 0.62015 0.0
O241 O 0.05252 0.56299 0.52725 0.0
O242 O 1.01903 0.49922 0.61951 0.0
O243 O 1.02904 0.46522 0.7914 0.0
O244 O 0.0639 0.5212 0.97804 0.0
O245 O 0.08317 0.53414 0.78171 0.0
C246 C 0.94831 0.52455 0.7437 0.0
O247 O 1.02358 0.45737 0.0425 0.0
O248 O 0.98024 0.49202 0.09789 0.0
C249 C 0.07048 0.62126 0.4893 0.0
C250 C 0.13486 0.65511 0.43918 0.0
C251 C 0.11465 0.66497 0.54393 0.0
C252 C 0.08286 0.64737 0.57065 0.0
C253 C 0.08793 0.61584 0.37558 0.0
C254 C 0.11999 0.6326 0.35075 0.0
C255 C 0.04256 0.59634 0.5257 0.0
H256 H 0.93216 0.36828 0.9781 0.0
H257 H 0.98753 0.40208 0.97838 0.0
H258 H 0.95454 0.45321 0.31794 0.0
H259 H 0.89928 0.42064 0.3164 0.0
H260 H 0.12559 0.68275 0.61205 0.0
H261 H 0.06945 0.65244 0.65821 0.0
H262 H 0.07832 0.59641 0.31043 0.0
H263 H 0.13487 0.62522 0.268 0.0
C264 C 0.15785 0.0778 0.45964 0.0
C265 C 0.17476 0.04616 0.41055 0.0
C266 C 0.12557 1.01162 0.50783 0.0
C267 C 0.11005 0.04287 0.55879 0.0
N268 N 0.11538 0.10481 0.6044 0.0
N269 N 0.17647 0.9813 0.41908 0.0
C270 C 0.12706 0.07572 0.53924 0.0
C271 C 0.15937 1.01266 0.44431 0.0
N272 N 0.17144 0.11047 0.43239 0.0
N273 N 0.10684 0.98075 0.51391 0.0
H274 H 0.19572 0.97773 0.35132 0.0
H275 H 0.17067 0.95782 0.46603 0.0
H276 H 0.08101 0.97953 0.55021 0.0
H277 H 0.11508 0.95711 0.47229 0.0
H278 H 0.15688 0.13402 0.44374 0.0
H279 H 0.19677 0.11469 0.39536 0.0
H280 H 0.12928 0.12847 0.60902 0.0
H281 H 0.09325 0.10452 0.66363 0.0
C282 C 0.49373 0.16063 0.39742 0.0
C283 C 0.52104 0.18613 0.41348 0.0
C284 C 0.55177 0.14232 0.54968 0.0
C285 C 0.52076 0.12099 0.55645 0.0
N286 N 0.45946 0.1137 0.49351 0.0
N287 N 0.57625 0.20056 0.51593 0.0
C288 C 0.49107 0.131 0.48109 0.0
C289 C 0.55017 0.1767 0.49251 0.0
N290 N 0.47048 0.1643 0.30108 0.0
N291 N 0.58362 0.1288 0.59039 0.0
H292 H 0.57706 0.22544 0.47447 0.0
H293 H 0.59565 0.1965 0.58366 0.0
H294 H 0.58636 0.10259 0.62011 0.0
H295 H 0.60783 0.14168 0.57805 0.0
H296 H 0.452 0.14499 0.27868 0.0
H297 H 0.47272 0.18441 0.2348 0.0
H298 H 0.4361 0.12218 0.44955 0.0
H299 H 0.45547 0.09334 0.55755 0.0
C300 C 0.38109 0.48977 0.46534 0.0
C301 C 0.36758 0.5225 0.41696 0.0
C302 C 0.42332 0.55105 0.48547 0.0
C303 C 0.43272 0.52024 0.55509 0.0
N304 N 0.42059 0.4598 0.61193 0.0
N305 N 0.37896 0.58348 0.36473 0.0
C306 C 0.41172 0.48937 0.54441 0.0
C307 C 0.38986 0.55284 0.42154 0.0
N308 N 0.36551 0.45884 0.43108 0.0
N309 N 0.44691 0.57831 0.47813 0.0
H310 H 0.35867 0.58395 0.29965 0.0
H311 H 0.39016 0.60815 0.38011 0.0
H312 H 0.47207 0.57715 0.51903 0.0
H313 H 0.44289 0.60119 0.42562 0.0
H314 H 0.37552 0.43383 0.45513 0.0
H315 H 0.34529 0.45816 0.36502 0.0
H316 H 0.40422 0.4378 0.61957 0.0
H317 H 0.44334 0.45824 0.66726 0.0
C318 C 1.01599 0.37192 0.54082 0.0
C319 C 0.03474 0.37417 0.42529 0.0
C320 C 0.04885 0.43665 0.4743 0.0
C321 C 1.02869 0.4352 0.58706 0.0
N322 N 0.98748 0.40203 0.7146 0.0
N323 N 0.05992 0.41237 0.26897 0.0
C324 C 1.0108 0.40294 0.61664 0.0
C325 C 0.04801 0.40781 0.38791 0.0
N326 N 1.00362 0.33989 0.5806 0.0
N327 N 0.071 0.46455 0.45278 0.0
H328 H 0.05848 0.39255 0.2021 0.0
H329 H 0.06749 0.43684 0.23303 0.0
H330 H 0.07467 0.48486 0.51649 0.0
H331 H 0.08904 0.46545 0.37889 0.0
H332 H 0.99519 0.33503 0.67125 0.0
H333 H 1.00293 0.31752 0.52455 0.0
H334 H 0.97005 0.38125 0.73127 0.0
H335 H 0.98297 0.42334 0.77375 0.0
C336 C 0.89585 0.99405 0.22008 0.0
C337 C 0.88125 1.02692 0.26491 0.0
C338 C 0.92239 0.05882 0.12388 0.0
C339 C 0.93679 1.02618 0.0789 0.0
N340 N 0.93248 0.96275 0.06642 0.0
N341 N 0.87457 0.09028 0.23072 0.0
C342 C 0.92218 0.99379 0.12233 0.0
C343 C 0.89246 0.05913 0.20723 0.0
N344 N 0.88489 0.96289 0.27218 0.0
N345 N 0.93883 0.08976 0.0928 0.0
H346 H 0.85398 0.09294 0.29513 0.0
H347 H 0.87825 0.11332 0.17877 0.0
H348 H 0.96214 0.09039 0.0399 0.0
H349 H 0.9317 0.11446 0.12872 0.0
H350 H 0.89788 0.93861 0.25816 0.0
H351 H 0.8633 0.9613 0.33337 0.0
H352 H 0.92034 0.93851 0.08291 0.0
H353 H 0.95153 0.96161 0.99542 0.0
C354 C 0.51948 0.87478 0.08597 0.0
C355 C 0.53097 0.87826 0.21051 0.0
C356 C 0.55123 0.93906 0.15658 0.0
C357 C 0.53247 0.93801 0.04169 0.0
N358 N 0.49555 0.90398 0.90389 0.0
N359 N 0.5622 0.91286 0.36074 0.0
C360 C 0.51613 0.90547 0.00773 0.0
C361 C 0.54839 0.91016 0.24433 0.0
N362 N 0.51284 0.8418 0.04042 0.0
N363 N 0.57297 0.96706 0.17962 0.0
H364 H 0.56206 0.89196 0.42435 0.0
H365 H 0.57278 0.936 0.39648 0.0
H366 H 0.57684 0.98759 0.11603 0.0
H367 H 0.58985 0.96854 0.25557 0.0
H368 H 0.50745 0.8371 0.94728 0.0
H369 H 0.51749 0.81871 0.09194 0.0
H370 H 0.47963 0.88237 0.88325 0.0
H371 H 0.49139 0.92547 0.8447 0.0
C372 C 0.66284 0.56068 0.14353 0.0
C373 C 0.67606 0.52764 0.19148 0.0
C374 C 0.63562 0.49608 0.05016 0.0
C375 C 0.62089 0.52893 0.00774 0.0
N376 N 0.6252 0.59236 0.99397 0.0
N377 N 0.68348 0.46468 0.15632 0.0
C378 C 0.63618 0.5612 0.048 0.0
C379 C 0.66514 0.49563 0.1339 0.0
N380 N 0.67552 0.59162 0.19077 0.0
N381 N 0.62023 0.46503 0.01525 0.0
H382 H 0.70477 0.46256 0.21737 0.0
H383 H 0.67999 0.44169 0.10498 0.0
H384 H 0.59845 0.46396 0.95609 0.0
H385 H 0.62717 0.44027 0.05157 0.0
H386 H 0.66561 0.61672 0.16853 0.0
H387 H 0.69627 0.59247 0.25454 0.0
H388 H 0.6369 0.6168 0.00866 0.0
H389 H 0.60506 0.59356 0.92787 0.0
C390 C 0.04347 0.67262 0.13923 0.0
C391 C 1.0245 0.673 0.2546 0.0
C392 C 1.00172 0.61382 0.19827 0.0
C393 C 1.01623 0.61615 0.07488 0.0
N394 N 0.03783 0.65862 0.92252 0.0
N395 N 0.97544 0.64717 0.36881 0.0
C396 C 0.03306 0.64884 0.04342 0.0
C397 C 1.00006 0.64487 0.2752 0.0
N398 N 0.07256 0.69333 0.12039 0.0
N399 N 0.99187 0.58206 0.24811 0.0
H400 H 0.97195 0.66989 0.42259 0.0
H401 H 0.95572 0.62822 0.38189 0.0
H402 H 0.99718 0.55774 0.20663 0.0
H403 H 0.98341 0.57951 0.34003 0.0
H404 H 0.08816 0.69151 0.04003 0.0
H405 H 0.08389 0.70856 0.18937 0.0
H406 H 0.04857 0.68304 0.89747 0.0
H407 H 1.02587 0.64547 0.84931 0.0
C408 C 0.89127 0.24402 0.28392 0.0
C409 C 0.91875 0.26125 0.34862 0.0
C410 C 0.91438 0.21966 0.51859 0.0
C411 C 0.89376 0.19759 0.44182 0.0
N412 N 0.85217 0.19283 0.27485 0.0
N413 N 0.93593 0.279 0.55256 0.0
C414 C 0.87777 0.21175 0.33343 0.0
C415 C 0.92281 0.25392 0.47561 0.0
N416 N 0.88221 0.2563 0.16912 0.0
N417 N 0.92923 0.20668 0.62484 0.0
H418 H 0.93993 0.30488 0.52178 0.0
H419 H 0.93815 0.27524 0.64811 0.0
H420 H 0.92278 0.18199 0.66181 0.0
H421 H 0.94957 0.2198 0.6706 0.0
H422 H 0.8645 0.24379 0.11031 0.0
H423 H 0.89337 0.27953 0.13365 0.0
H424 H 0.83878 0.20162 0.19597 0.0
H425 H 0.84298 0.16893 0.3117 0.0
C426 C 0.32016 0.9093 0.37156 0.0
C427 C 0.31557 0.94342 0.42457 0.0
C428 C 0.35813 0.92777 0.58542 0.0
C429 C 0.37113 0.90025 0.50768 0.0
N430 N 0.35908 0.857 0.35352 0.0
N431 N 0.32429 0.98326 0.59449 0.0
C432 C 0.34919 0.88757 0.41234 0.0
C433 C 0.33189 0.95162 0.53821 0.0
N434 N 0.29828 0.89929 0.27765 0.0
N435 N 0.37261 0.93219 0.69967 0.0
H436 H 0.30418 1.00039 0.56249 0.0
H437 H 0.33832 0.99301 0.66974 0.0
H438 H 0.39074 0.91397 0.73733 0.0
H439 H 0.364 0.95171 0.76103 0.0
H440 H 0.29954 0.87456 0.23528 0.0
H441 H 0.27717 0.91554 0.24767 0.0
H442 H 0.34637 0.84699 0.27596 0.0
H443 H 0.3808 0.84174 0.38491 0.0
C444 C 0.63922 0.30612 0.40876 0.0
C445 C 0.64052 0.3019 0.279 0.0
C446 C 0.67841 0.35388 0.26648 0.0
C447 C 0.66305 0.36527 0.38021 0.0
N448 N 0.63428 0.349 0.57364 0.0
N449 N 0.67329 0.31312 0.0925 0.0
C450 C 0.64609 0.34004 0.45787 0.0
C451 C 0.66557 0.32223 0.21189 0.0
N452 N 0.63212 0.2779 0.48345 0.0
N453 N 0.70304 0.37467 0.20925 0.0
H454 H 0.66317 0.28991 0.05443 0.0
H455 H 0.68879 0.32833 0.03266 0.0
H456 H 0.71215 0.39765 0.25172 0.0
H457 H 0.71608 0.36787 0.12699 0.0
H458 H 0.63228 0.27932 0.57997 0.0
H459 H 0.63169 0.25229 0.44782 0.0
H460 H 0.61801 0.33257 0.6268 0.0
H461 H 0.63991 0.37317 0.61482 0.0
C462 C 0.22056 0.66437 0.27435 0.0
C463 C 0.23933 0.63706 0.33783 0.0
C464 C 0.19653 0.63813 0.50568 0.0
C465 C 0.1739 0.66043 0.43264 0.0
N466 N 0.16886 0.70455 0.27225 0.0
N467 N 0.25683 0.61686 0.54047 0.0
C468 C 0.18803 0.6777 0.32654 0.0
C469 C 0.23167 0.63134 0.46396 0.0
N470 N 0.23195 0.67394 0.15886 0.0
N471 N 0.18363 0.61965 0.60492 0.0
H472 H 0.28306 0.61234 0.51118 0.0
H473 H 0.25257 0.61363 0.63555 0.0
H474 H 0.15826 0.62352 0.64237 0.0
H475 H 0.19766 0.59827 0.64368 0.0
H476 H 0.21789 0.69113 0.10044 0.0
H477 H 0.25577 0.66353 0.12201 0.0
H478 H 0.17798 0.71921 0.19668 0.0
H479 H 0.14467 0.71359 0.31035 0.0
C480 C 0.13086 0.82372 0.19684 0.0
C481 C 0.09385 0.82116 0.17354 0.0
C482 C 0.09507 0.87171 0.0355 0.0
C483 C 0.1314 0.8772 0.06888 0.0
N484 N 0.18663 0.85313 0.14631 0.0
N485 N 0.04597 0.83085 0.02961 0.0
C486 C 0.15046 0.85073 0.13569 0.0
C487 C 0.07818 0.84057 0.07603 0.0
N488 N 0.14622 0.80194 0.28345 0.0
N489 N 0.07503 0.89802 0.98123 0.0
H490 H 0.03262 0.80847 0.0614 0.0
H491 H 0.03475 0.84268 0.95108 0.0
H492 H 0.08497 0.92251 0.95552 0.0
H493 H 0.04742 0.89667 0.97096 0.0
H494 H 0.1723 0.8045 0.31467 0.0
H495 H 0.13201 0.78151 0.32584 0.0
H496 H 0.2026 0.83391 0.18925 0.0
H497 H 0.20075 0.87339 0.10247 0.0
C498 C 0.72315 0.09916 0.12029 0.0
C499 C 0.73975 0.11326 0.22517 0.0
C500 C 0.69671 0.16272 0.22389 0.0
C501 C 0.67428 0.14178 0.14941 0.0
N502 N 0.66554 0.08649 0.03835 0.0
N503 N 0.74857 0.16258 0.35953 0.0
C504 C 0.68761 0.10955 0.09673 0.0
C505 C 0.72913 0.14722 0.26841 0.0
N506 N 0.73994 0.07367 0.05101 0.0
N507 N 0.68596 0.1962 0.25625 0.0
H508 H 0.77257 0.15107 0.38991 0.0
H509 H 0.74083 0.18571 0.40542 0.0
H510 H 0.662 0.20738 0.22435 0.0
H511 H 0.7017 0.21354 0.30619 0.0
H512 H 0.72918 0.06387 0.96928 0.0
H513 H 0.76625 0.06569 0.06722 0.0
H514 H 0.67376 0.06109 0.01147 0.0
H515 H 0.63826 0.09082 0.02757 0.0
C516 C 0.61644 0.69396 0.24645 0.0
C517 C 0.59331 0.71809 0.18513 0.0
C518 C 0.56703 0.669 0.07757 0.0
C519 C 0.57672 0.64737 0.18112 0.0
N520 N 0.61682 0.63731 0.35382 0.0
N521 N 0.56386 0.72947 0.9941 0.0
C522 C 0.60502 0.65829 0.25874 0.0
C523 C 0.57545 0.70561 0.08068 0.0
N524 N 0.64464 0.7068 0.31005 0.0
N525 N 0.54716 0.65496 0.98504 0.0
H526 H 0.56986 0.75634 0.0022 0.0
H527 H 0.54979 0.72283 0.91486 0.0
H528 H 0.54203 0.62783 0.98223 0.0
H529 H 0.53646 0.6697 0.91221 0.0
H530 H 0.66319 0.69053 0.35542 0.0
H531 H 0.65025 0.73389 0.30765 0.0
H532 H 0.63453 0.64602 0.42085 0.0
H533 H 0.60775 0.61167 0.3686 0.0
C534 C 0.83619 0.44658 0.06308 0.0
C535 C 0.81786 0.44096 0.17641 0.0
C536 C 0.84768 0.38335 0.20097 0.0
C537 C 0.87177 0.39334 0.10673 0.0
N538 N 0.8758 0.42132 0.90673 0.0
N539 N 0.79798 0.39878 0.33151 0.0
C540 C 0.8609 0.42016 0.02209 0.0
C541 C 0.81997 0.40723 0.23529 0.0
N542 N 0.83214 0.47803 0.00094 0.0
N543 N 0.85403 0.35309 0.26709 0.0
H544 H 0.77717 0.41541 0.36197 0.0
H545 H 0.77717 0.41541 0.36197 0.0
H546 H 0.87542 0.33612 0.24457 0.0
H547 H 0.83783 0.34538 0.34138 0.0
H548 H 0.84811 0.48555 0.92615 0.0
H549 H 0.81341 0.49731 0.02778 0.0
H550 H 0.86878 0.4403 0.84089 0.0
H551 H 0.89228 0.40093 0.87342 0.0
C552 C 0.98282 0.19872 0.97301 0.0
C553 C 1.00924 0.21054 0.05756 0.0
C554 C 0.04554 0.15728 0.00029 0.0
C555 C 1.01642 0.14247 0.93372 0.0
N556 N 0.95393 0.14862 0.87847 0.0
N557 N 0.06427 0.19704 0.16376 0.0
C558 C 0.9842 0.16322 0.92502 0.0
C559 C 0.04035 0.18883 0.07378 0.0
N560 N 0.95587 0.22164 0.93948 0.0
N561 N 0.07873 0.14198 0.99028 0.0
H562 H 0.06148 0.2194 0.21966 0.0
H563 H 0.08519 0.18007 0.1896 0.0
H564 H 0.08416 0.12035 0.93282 0.0
H565 H 0.10153 0.15326 0.02731 0.0
H566 H 0.93577 0.21536 0.8777 0.0
H567 H 0.95535 0.24825 0.9659 0.0
H568 H 0.92884 0.16079 0.88522 0.0
H569 H 0.95257 0.12273 0.8462 0.0
C570 C 0.36394 0.9852 0.00743 0.0
C571 C 0.34621 1.01543 0.05921 0.0
C572 C 0.39165 0.05247 0.95498 0.0
C573 C 0.41318 1.02185 0.9271 0.0
N574 N 0.42141 0.95869 0.95928 0.0
N575 N 0.3466 0.07872 0.09128 0.0
C576 C 0.39957 0.98801 0.96072 0.0
C577 C 0.36077 0.04943 0.03434 0.0
N578 N 0.34706 0.95331 0.00739 0.0
N579 N 0.40013 0.08446 0.90366 0.0
H580 H 0.32441 0.0777 0.14992 0.0
H581 H 0.35861 0.10347 0.08764 0.0
H582 H 0.42124 0.08741 0.84101 0.0
H583 H 0.38383 0.10699 0.91222 0.0
H584 H 0.35802 0.93043 0.96765 0.0
H585 H 0.32054 0.95076 0.03634 0.0
H586 H 0.41367 0.93406 0.99357 0.0
H587 H 0.44857 0.96 0.94007 0.0
C588 C 0.52836 0.38166 0.10671 0.0
C589 C 0.53809 0.35082 0.03838 0.0
C590 C 0.53433 0.38698 0.8451 0.0
C591 C 0.5298 0.41876 0.91529 0.0
N592 N 0.52918 0.4459 0.1177 0.0
N593 N 0.55285 0.32465 0.84138 0.0
C594 C 0.52809 0.41587 0.04748 0.0
C595 C 0.54154 0.35366 0.90701 0.0
N596 N 0.52019 0.37824 0.22985 0.0
N597 N 0.53058 0.38832 0.71923 0.0
H598 H 0.55675 0.29979 0.88258 0.0
H599 H 0.56009 0.3256 0.74805 0.0
H600 H 0.52436 0.41173 0.67158 0.0
H601 H 0.53023 0.36587 0.66337 0.0
H602 H 0.50956 0.39877 0.28353 0.0
H603 H 0.5207 0.35374 0.27542 0.0
H604 H 0.52902 0.44593 0.21415 0.0
H605 H 0.53452 0.47075 0.07998 0.0
C606 C 0.18375 0.56455 0.97091 0.0
C607 C 0.19578 0.54138 0.06719 0.0
C608 C 0.14238 0.50492 0.03108 0.0
C609 C 0.12776 0.53132 0.9497 0.0
N610 N 0.13278 0.59065 0.86565 0.0
N611 N 0.18321 0.49148 0.20009 0.0
C612 C 0.14812 0.5622 0.92488 0.0
C613 C 0.17434 0.51185 0.0996 0.0
N614 N 0.20646 0.58952 0.92501 0.0
N615 N 0.12614 0.47283 0.04138 0.0
H616 H 0.20614 0.49557 0.25202 0.0
H617 H 0.16643 0.47232 0.23739 0.0
H618 H 0.10353 0.46642 0.99061 0.0
H619 H 0.13713 0.45144 0.09025 0.0
H620 H 0.19993 0.60684 0.85312 0.0
H621 H 0.23312 0.59085 0.95225 0.0
H622 H 0.14461 0.61546 0.8614 0.0
H623 H 0.10668 0.59097 0.83303 0.0
C624 C 0.99829 0.87257 0.56708 0.0
C625 C 1.03103 0.85277 0.56449 0.0
C626 C 0.05922 0.90195 0.67968 0.0
C627 C 1.0261 0.9212 0.68772 0.0
N628 N 0.96208 0.9185 0.66734 0.0
N629 N 0.08952 0.84495 0.65179 0.0
C630 C 0.99504 0.90447 0.64008 0.0
C631 C 0.06027 0.8663 0.63265 0.0
N632 N 0.9706 0.86209 0.4949 0.0
N633 N 0.09041 0.91829 0.70781 0.0
H634 H 0.09095 0.8189 0.61933 0.0
H635 H 0.1103 0.85174 0.71059 0.0
H636 H 0.09157 0.94431 0.73917 0.0
H637 H 0.11547 0.90703 0.68929 0.0
H638 H 0.94775 0.87766 0.48047 0.0
H639 H 0.97154 0.83891 0.44257 0.0
H640 H 0.93836 0.90596 0.64526 0.0
H641 H 0.95849 0.94061 0.72419 0.0
C642 C 0.68178 1.00867 0.55744 0.0
C643 C 0.70372 0.03843 0.57983 0.0
C644 C 0.65623 0.06319 0.71732 0.0
C645 C 0.63457 0.03296 0.69734 0.0
N646 N 0.63274 0.9722 0.62874 0.0
N647 N 0.71545 0.08886 0.70807 0.0
C648 C 0.64934 1.00423 0.62703 0.0
C649 C 0.69208 0.06381 0.66942 0.0
N650 N 0.69062 0.98556 0.46462 0.0
N651 N 0.64205 0.09252 0.77417 0.0
H652 H 0.74173 0.08974 0.67522 0.0
H653 H 0.71001 0.10615 0.78113 0.0
H654 H 0.61627 0.09361 0.81082 0.0
H655 H 0.65496 0.11679 0.77697 0.0
H656 H 0.67342 0.96608 0.43351 0.0
H657 H 0.71404 0.98745 0.41239 0.0
H658 H 0.64373 0.94941 0.58852 0.0
H659 H 0.60999 0.96746 0.68244 0.0
C660 C 0.49858 0.69183 0.58635 0.0
C661 C 0.53148 0.70988 0.5751 0.0
C662 C 0.56204 0.65709 0.66727 0.0
C663 C 0.52919 0.63838 0.67356 0.0
N664 N 0.46474 0.64152 0.65662 0.0
N665 N 0.59239 0.71348 0.6392 0.0
C666 C 0.4971 0.65714 0.6409 0.0
C667 C 0.56237 0.69365 0.62834 0.0
N668 N 0.46793 0.70691 0.54239 0.0
N669 N 0.59325 0.6397 0.69538 0.0
H670 H 0.59292 0.74003 0.61111 0.0
H671 H 0.61521 0.70503 0.68617 0.0
H672 H 0.59415 0.61371 0.72846 0.0
H673 H 0.61842 0.65017 0.6791 0.0
H674 H 0.46675 0.73223 0.50264 0.0
H675 H 0.46675 0.73223 0.50264 0.0
H676 H 0.44078 0.65417 0.63216 0.0
H677 H 0.46179 0.61647 0.69625 0.0
C678 C 0.86228 0.54896 0.56221 0.0
C679 C 0.8474 0.51516 0.5372 0.0
C680 C 0.89844 0.48741 0.64638 0.0
C681 C 0.91169 0.52102 0.6828 0.0
N682 N 0.89776 0.58358 0.70382 0.0
N683 N 0.84597 0.45344 0.59692 0.0
C684 C 0.89088 0.55174 0.64993 0.0
C685 C 0.86348 0.48497 0.59553 0.0
N686 N 0.85107 0.57823 0.49763 0.0
N687 N 0.92023 0.45813 0.64732 0.0
H688 H 0.81966 0.45134 0.56653 0.0
H689 H 0.85629 0.43042 0.63783 0.0
H690 H 0.94742 0.45981 0.66366 0.0
H691 H 0.91257 0.43364 0.61269 0.0
H692 H 0.86373 0.6026 0.50372 0.0
H693 H 0.83151 0.57745 0.42961 0.0
H694 H 0.8817 0.60608 0.69002 0.0
H695 H 0.91665 0.5863 0.77366 0.0
loop_
_geom_bond_atom_site_label_1
_geom_bond_atom_site_label_2
_geom_bond_distance
_geom_bond_site_symmetry_2
_ccdc_geom_bond_type
H0 C7 0.929 . S
H1 C10 0.930 . S
H2 C12 0.929 . S
H3 C4 0.969 . S
C4 H3 0.969 . S
C4 O5 1.550 . S
C4 H6 0.973 . S
O5 C4 1.550 . S
O5 C11 1.412 . S
H6 C4 0.973 . S
C7 H0 0.929 . S
C7 C8 1.400 . S
C7 C9 1.364 . S
C8 C7 1.400 . S
C8 C12 1.377 . S
C9 C7 1.364 . S
C9 C10 1.374 . S
C10 H1 0.930 . S
C10 C9 1.374 . S
C10 C11 1.383 . S
C11 O5 1.412 . S
C11 C10 1.383 . S
C11 C12 1.394 . S
C12 H2 0.929 . S
C12 C8 1.377 . S
C12 C11 1.394 . S
H13 C20 0.928 1_655 S
H14 C23 0.931 . S
H15 C25 0.928 1_655 S
H16 C17 0.969 . S
C17 H16 0.969 . S
C17 O18 1.550 1_455 S
C17 H19 0.973 1_455 S
O18 C17 1.550 1_655 S
O18 C24 1.404 1_655 S
H19 C17 0.973 1_655 S
C20 H13 0.928 1_455 S
C20 C21 1.399 . S
C20 C22 1.364 . S
C21 C20 1.399 . S
C21 C25 1.377 . S
C22 C20 1.364 . S
C22 C23 1.374 1_455 S
C23 H14 0.931 . S
C23 C22 1.374 1_655 S
C23 C24 1.382 1_655 S
C24 O18 1.404 1_455 S
C24 C23 1.382 1_455 S
C24 C25 1.394 . S
C25 H15 0.928 1_455 S
C25 C21 1.377 . S
C25 C24 1.394 . S
H26 C33 0.928 1_565 S
H27 C36 0.931 . S
H28 C38 0.929 1_565 S
H29 C30 0.969 . S
C30 H29 0.969 . S
C30 O31 1.550 1_545 S
C30 H32 0.973 1_545 S
O31 C30 1.550 1_565 S
O31 C37 1.404 1_565 S
H32 C30 0.973 1_565 S
C33 H26 0.928 1_545 S
C33 C34 1.399 . S
C33 C35 1.364 . S
C34 C33 1.399 . S
C34 C38 1.377 . S
C35 C33 1.364 . S
C35 C36 1.374 1_545 S
C36 H27 0.931 . S
C36 C35 1.374 1_565 S
C36 C37 1.382 1_565 S
C37 O31 1.404 1_545 S
C37 C36 1.382 1_545 S
C37 C38 1.394 . S
C38 H28 0.929 1_545 S
C38 C34 1.377 . S
C38 C37 1.394 . S
H39 C46 0.929 . S
H40 C49 0.930 . S
H41 C51 0.929 . S
H42 C43 0.969 . S
C43 H42 0.969 . S
C43 O44 1.550 . S
C43 H45 0.973 . S
O44 C43 1.550 . S
O44 C50 1.412 . S
H45 C43 0.973 . S
C46 H39 0.929 . S
C46 C47 1.400 . S
C46 C48 1.364 . S
C47 C46 1.400 . S
C47 C51 1.377 . S
C48 C46 1.364 . S
C48 C49 1.374 . S
C49 H40 0.930 . S
C49 C48 1.374 . S
C49 C50 1.383 . S
C50 O44 1.412 . S
C50 C49 1.383 . S
C50 C51 1.394 . S
C51 H41 0.929 . S
C51 C47 1.377 . S
C51 C50 1.394 . S
H52 C59 0.929 . S
H53 C62 0.930 . S
H54 C64 0.929 . S
H55 C56 0.969 . S
C56 H55 0.969 . S
C56 O57 1.550 . S
C56 H58 0.973 . S
O57 C56 1.550 . S
O57 C63 1.412 . S
H58 C56 0.973 . S
C59 H52 0.929 . S
C59 C60 1.400 1_554 S
C59 C61 1.364 . S
C60 C59 1.400 1_556 S
C60 C64 1.377 . S
C61 C59 1.364 . S
C61 C62 1.374 . S
C62 H53 0.930 . S
C62 C61 1.374 . S
C62 C63 1.383 . S
C63 O57 1.412 . S
C63 C62 1.383 . S
C63 C64 1.394 1_554 S
C64 H54 0.929 . S
C64 C60 1.377 . S
C64 C63 1.394 1_556 S
H65 C72 0.928 1_655 S
H66 C75 0.930 . S
H67 C77 0.928 1_655 S
H68 C69 0.969 . S
C69 H68 0.969 . S
C69 O70 1.550 1_455 S
C69 H71 0.973 1_455 S
O70 C69 1.550 1_655 S
O70 C76 1.412 1_655 S
H71 C69 0.973 1_655 S
C72 H65 0.928 1_455 S
C72 C73 1.400 1_554 S
C72 C74 1.364 . S
C73 C72 1.400 1_556 S
C73 C77 1.377 . S
C74 C72 1.364 . S
C74 C75 1.374 1_455 S
C75 H66 0.930 . S
C75 C74 1.374 1_655 S
C75 C76 1.383 1_655 S
C76 O70 1.412 1_455 S
C76 C75 1.383 1_455 S
C76 C77 1.395 1_554 S
C77 H67 0.928 1_455 S
C77 C73 1.377 . S
C77 C76 1.395 1_556 S
H78 C85 0.928 1_565 S
H79 C88 0.930 . S
H80 C90 0.928 1_565 S
H81 C82 0.969 . S
C82 H81 0.969 . S
C82 O83 1.550 1_545 S
C82 H84 0.973 1_545 S
O83 C82 1.550 1_565 S
O83 C89 1.412 1_565 S
H84 C82 0.973 1_565 S
C85 H78 0.928 1_545 S
C85 C86 1.400 1_554 S
C85 C87 1.364 . S
C86 C85 1.400 1_556 S
C86 C90 1.377 . S
C87 C85 1.364 . S
C87 C88 1.374 1_545 S
C88 H79 0.930 . S
C88 C87 1.374 1_565 S
C88 C89 1.383 1_565 S
C89 O83 1.412 1_545 S
C89 C88 1.383 1_545 S
C89 C90 1.395 1_554 S
C90 H80 0.928 1_545 S
C90 C86 1.377 . S
C90 C89 1.395 1_556 S
H91 C98 0.929 . S
H92 C101 0.930 . S
H93 C103 0.929 . S
H94 C95 0.969 . S
C95 H94 0.969 . S
C95 O96 1.550 . S
C95 H97 0.973 . S
O96 C95 1.550 . S
O96 C102 1.412 . S
H97 C95 0.973 . S
C98 H91 0.929 . S
C98 C99 1.400 1_554 S
C98 C100 1.364 . S
C99 C98 1.400 1_556 S
C99 C103 1.377 . S
C100 C98 1.364 . S
C100 C101 1.374 . S
C101 H92 0.930 . S
C101 C100 1.374 . S
C101 C102 1.383 . S
C102 O96 1.412 . S
C102 C101 1.383 . S
C102 C103 1.394 1_554 S
C103 H93 0.929 . S
C103 C99 1.377 . S
C103 C102 1.394 1_556 S
Tb104 C114 2.825 1_556 S
Tb104 O115 2.347 1_455 S
Tb104 O118 2.366 . S
Tb104 O123 2.418 . S
Tb104 O124 2.384 1_565 S
Tb104 O127 2.479 1_556 S
Tb104 O128 2.471 1_556 S
Eu105 O116 2.418 . S
Eu105 O117 2.384 1_545 S
Eu105 O120 2.479 . S
Eu105 O121 2.471 . S
Eu105 O122 2.347 1_655 S
Eu105 O125 2.366 . S
Eu105 C135 2.825 . S
C106 O122 1.259 1_565 S
C106 O123 1.265 . S
C107 O124 1.255 . S
C107 O125 1.265 1_455 S
C108 C110 1.380 . S
C108 C111 1.374 . S
C108 C114 1.507 . S
C109 C110 1.384 . S
C109 C113 1.387 . S
C109 H136 0.930 . S
C110 C108 1.380 . S
C110 C109 1.384 . S
C110 H137 0.931 . S
C111 C108 1.374 . S
C111 C112 1.390 . S
C111 H138 0.930 1_455 S
C112 C111 1.390 . S
C112 C113 1.391 . S
C112 H139 0.930 1_455 S
C113 C109 1.387 . S
C113 C112 1.391 . S
C114 Tb104 2.825 1_554 S
C114 C108 1.507 . S
C114 O127 1.238 . S
C114 O128 1.247 . S
O115 Tb104 2.347 1_655 S
O115 C119 1.259 1_565 S
O116 Eu105 2.418 . S
O116 C119 1.265 . S
O117 Eu105 2.384 1_565 S
O117 C126 1.255 . S
O118 Tb104 2.366 . S
O118 C126 1.265 1_455 S
C119 O115 1.259 1_545 S
C119 O116 1.265 . S
O120 Eu105 2.479 . S
O120 C135 1.238 . S
O121 Eu105 2.471 . S
O121 C135 1.247 . S
O122 Eu105 2.347 1_455 S
O122 C106 1.259 1_545 S
O123 Tb104 2.418 . S
O123 C106 1.265 . S
O124 Tb104 2.384 1_545 S
O124 C107 1.255 . S
O125 Eu105 2.366 . S
O125 C107 1.265 1_655 S
C126 O117 1.255 . S
C126 O118 1.265 1_655 S
O127 Tb104 2.479 1_554 S
O127 C114 1.238 . S
O128 Tb104 2.471 1_554 S
O128 C114 1.247 . S
C129 C132 1.380 . S
C129 C133 1.374 . S
C129 C135 1.507 . S
C130 C131 1.387 . S
C130 C134 1.391 . S
C131 C130 1.387 . S
C131 C132 1.384 . S
C131 H140 0.930 . S
C132 C129 1.380 . S
C132 C131 1.384 . S
C132 H141 0.931 . S
C133 C129 1.374 . S
C133 C134 1.390 . S
C133 H142 0.930 1_655 S
C134 C130 1.391 . S
C134 C133 1.390 . S
C134 H143 0.930 1_655 S
C135 Eu105 2.825 . S
C135 O120 1.238 . S
C135 O121 1.247 . S
C135 C129 1.507 . S
H136 C109 0.930 . S
H137 C110 0.931 . S
H138 C111 0.930 1_655 S
H139 C112 0.930 1_655 S
H140 C131 0.930 . S
H141 C132 0.931 . S
H142 C133 0.930 1_455 S
H143 C134 0.930 1_455 S
Tb144 C154 2.825 1_556 S
Tb144 O155 2.347 1_545 S
Tb144 O158 2.366 . S
Tb144 O163 2.418 . S
Tb144 O164 2.384 . S
Tb144 O167 2.479 1_556 S
Tb144 O168 2.471 1_556 S
Eu145 O156 2.418 . S
Eu145 O157 2.384 . S
Eu145 O160 2.479 . S
Eu145 O161 2.471 . S
Eu145 O162 2.347 1_565 S
Eu145 O165 2.366 . S
Eu145 C175 2.825 . S
C146 O162 1.259 . S
C146 O163 1.265 . S
C147 O164 1.255 . S
C147 O165 1.265 1_545 S
C148 C150 1.380 . S
C148 C151 1.374 . S
C148 C154 1.507 . S
C149 C150 1.384 . S
C149 C153 1.387 . S
C149 H176 0.930 . S
C150 C148 1.380 . S
C150 C149 1.384 . S
C150 H177 0.931 . S
C151 C148 1.374 . S
C151 C152 1.390 . S
C151 H178 0.930 1_545 S
C152 C151 1.390 . S
C152 C153 1.391 . S
C152 H179 0.930 1_545 S
C153 C149 1.387 . S
C153 C152 1.391 . S
C154 Tb144 2.825 1_554 S
C154 C148 1.507 . S
C154 O167 1.238 . S
C154 O168 1.247 . S
O155 Tb144 2.347 1_565 S
O155 C159 1.259 . S
O156 Eu145 2.418 . S
O156 C159 1.265 . S
O157 Eu145 2.384 . S
O157 C166 1.255 . S
O158 Tb144 2.366 . S
O158 C166 1.265 1_545 S
C159 O155 1.259 . S
C159 O156 1.265 . S
O160 Eu145 2.479 . S
O160 C175 1.238 . S
O161 Eu145 2.471 . S
O161 C175 1.247 . S
O162 Eu145 2.347 1_545 S
O162 C146 1.259 . S
O163 Tb144 2.418 . S
O163 C146 1.265 . S
O164 Tb144 2.384 . S
O164 C147 1.255 . S
O165 Eu145 2.366 . S
O165 C147 1.265 1_565 S
C166 O157 1.255 . S
C166 O158 1.265 1_565 S
O167 Tb144 2.479 1_554 S
O167 C154 1.238 . S
O168 Tb144 2.471 1_554 S
O168 C154 1.247 . S
C169 C172 1.380 . S
C169 C173 1.374 . S
C169 C175 1.507 . S
C170 C171 1.387 . S
C170 C174 1.391 . S
C171 C170 1.387 . S
C171 C172 1.384 . S
C171 H180 0.930 . S
C172 C169 1.380 . S
C172 C171 1.384 . S
C172 H181 0.931 . S
C173 C169 1.374 . S
C173 C174 1.390 . S
C173 H182 0.930 1_565 S
C174 C170 1.391 . S
C174 C173 1.390 . S
C174 H183 0.930 1_565 S
C175 Eu145 2.825 . S
C175 O160 1.238 . S
C175 O161 1.247 . S
C175 C169 1.507 . S
H176 C149 0.930 . S
H177 C150 0.931 . S
H178 C151 0.930 1_565 S
H179 C152 0.930 1_565 S
H180 C171 0.930 . S
H181 C172 0.931 . S
H182 C173 0.930 1_545 S
H183 C174 0.930 1_545 S
Tb184 C194 2.825 1_556 S
Tb184 O195 2.347 . S
Tb184 O198 2.366 . S
Tb184 O203 2.418 . S
Tb184 O204 2.384 . S
Tb184 O207 2.479 1_556 S
Tb184 O208 2.471 1_556 S
Eu185 O196 2.418 . S
Eu185 O197 2.384 . S
Eu185 O200 2.479 . S
Eu185 O201 2.471 . S
Eu185 O202 2.347 . S
Eu185 O205 2.366 . S
Eu185 C215 2.825 . S
C186 O202 1.259 . S
C186 O203 1.265 . S
C187 O204 1.255 . S
C187 O205 1.265 . S
C188 C190 1.380 . S
C188 C191 1.374 . S
C188 C194 1.507 . S
C189 C190 1.384 . S
C189 C193 1.387 . S
C189 H216 0.930 . S
C190 C188 1.380 . S
C190 C189 1.384 . S
C190 H217 0.931 . S
C191 C188 1.374 . S
C191 C192 1.390 . S
C191 H218 0.930 . S
C192 C191 1.390 . S
C192 C193 1.391 . S
C192 H219 0.930 . S
C193 C189 1.387 . S
C193 C192 1.391 . S
C194 Tb184 2.825 1_554 S
C194 C188 1.507 . S
C194 O207 1.238 . S
C194 O208 1.247 . S
O195 Tb184 2.347 . S
O195 C199 1.259 . S
O196 Eu185 2.418 . S
O196 C199 1.265 . S
O197 Eu185 2.384 . S
O197 C206 1.255 . S
O198 Tb184 2.366 . S
O198 C206 1.265 . S
C199 O195 1.259 . S
C199 O196 1.265 . S
O200 Eu185 2.479 . S
O200 C215 1.238 . S
O201 Eu185 2.471 . S
O201 C215 1.247 . S
O202 Eu185 2.347 . S
O202 C186 1.259 . S
O203 Tb184 2.418 . S
O203 C186 1.265 . S
O204 Tb184 2.384 . S
O204 C187 1.255 . S
O205 Eu185 2.366 . S
O205 C187 1.265 . S
C206 O197 1.255 . S
C206 O198 1.265 . S
O207 Tb184 2.479 1_554 S
O207 C194 1.238 . S
O208 Tb184 2.471 1_554 S
O208 C194 1.247 . S
C209 C212 1.380 . S
C209 C213 1.374 . S
C209 C215 1.507 . S
C210 C211 1.387 . S
C210 C214 1.391 . S
C211 C210 1.387 . S
C211 C212 1.384 . S
C211 H220 0.930 . S
C212 C209 1.380 . S
C212 C211 1.384 . S
C212 H221 0.931 . S
C213 C209 1.374 . S
C213 C214 1.390 . S
C213 H222 0.930 . S
C214 C210 1.391 . S
C214 C213 1.390 . S
C214 H223 0.930 . S
C215 Eu185 2.825 . S
C215 O200 1.238 . S
C215 O201 1.247 . S
C215 C209 1.507 . S
H216 C189 0.930 . S
H217 C190 0.931 . S
H218 C191 0.930 . S
H219 C192 0.930 . S
H220 C211 0.930 . S
H221 C212 0.931 . S
H222 C213 0.930 . S
H223 C214 0.930 . S
Tb224 C234 2.825 1_556 S
Tb224 O235 2.347 . S
Tb224 O238 2.366 . S
Tb224 O243 2.418 . S
Tb224 O244 2.384 1_655 S
Tb224 O247 2.479 1_556 S
Tb224 O248 2.471 1_556 S
Eu225 O236 2.418 . S
Eu225 O237 2.384 1_455 S
Eu225 O240 2.479 . S
Eu225 O241 2.471 . S
Eu225 O242 2.347 . S
Eu225 O245 2.366 . S
Eu225 C255 2.825 . S
C226 O242 1.259 1_655 S
C226 O243 1.265 . S
C227 O244 1.255 . S
C227 O245 1.265 . S
C228 C230 1.380 . S
C228 C231 1.374 . S
C228 C234 1.507 . S
C229 C230 1.384 . S
C229 C233 1.387 . S
C229 H256 0.930 . S
C230 C228 1.380 . S
C230 C229 1.384 . S
C230 H257 0.931 . S
C231 C228 1.374 . S
C231 C232 1.390 . S
C231 H258 0.930 . S
C232 C231 1.390 . S
C232 C233 1.391 . S
C232 H259 0.930 . S
C233 C229 1.387 . S
C233 C232 1.391 . S
C234 Tb224 2.825 1_554 S
C234 C228 1.507 . S
C234 O247 1.238 . S
C234 O248 1.247 . S
O235 Tb224 2.347 . S
O235 C239 1.259 1_655 S
O236 Eu225 2.418 . S
O236 C239 1.265 . S
O237 Eu225 2.384 1_655 S
O237 C246 1.255 . S
O238 Tb224 2.366 . S
O238 C246 1.265 . S
C239 O235 1.259 1_455 S
C239 O236 1.265 . S
O240 Eu225 2.479 . S
O240 C255 1.238 . S
O241 Eu225 2.471 . S
O241 C255 1.247 . S
O242 Eu225 2.347 . S
O242 C226 1.259 1_455 S
O243 Tb224 2.418 . S
O243 C226 1.265 . S
O244 Tb224 2.384 1_455 S
O244 C227 1.255 . S
O245 Eu225 2.366 . S
O245 C227 1.265 . S
C246 O237 1.255 . S
C246 O238 1.265 . S
O247 Tb224 2.479 1_554 S
O247 C234 1.238 . S
O248 Tb224 2.471 1_554 S
O248 C234 1.247 . S
C249 C252 1.380 . S
C249 C253 1.374 . S
C249 C255 1.507 . S
C250 C251 1.387 . S
C250 C254 1.391 . S
C251 C250 1.387 . S
C251 C252 1.384 . S
C251 H260 0.930 . S
C252 C249 1.380 . S
C252 C251 1.384 . S
C252 H261 0.931 . S
C253 C249 1.374 . S
C253 C254 1.390 . S
C253 H262 0.930 . S
C254 C250 1.391 . S
C254 C253 1.390 . S
C254 H263 0.930 . S
C255 Eu225 2.825 . S
C255 O240 1.238 . S
C255 O241 1.247 . S
C255 C249 1.507 . S
H256 C229 0.930 . S
H257 C230 0.931 . S
H258 C231 0.930 . S
H259 C232 0.930 . S
H260 C251 0.930 . S
H261 C252 0.931 . S
H262 C253 0.930 . S
H263 C254 0.930 . S
C264 C265 1.365 1_545 S
C264 C270 1.379 . S
C264 N272 1.356 . S
C265 C264 1.365 1_565 S
C265 C271 1.362 . S
C266 C267 1.369 . S
C266 C271 1.379 . S
C266 N273 1.356 . S
C267 C266 1.369 . S
C267 C270 1.357 1_565 S
N268 C270 1.356 . S
N268 H280 0.984 . S
N268 H281 0.985 . S
N269 C271 1.356 . S
N269 H274 0.984 . S
N269 H275 0.985 . S
C270 C264 1.379 . S
C270 C267 1.357 1_545 S
C270 N268 1.356 . S
C271 C265 1.362 . S
C271 C266 1.379 . S
C271 N269 1.356 . S
N272 C264 1.356 . S
N272 H278 0.984 . S
N272 H279 0.984 . S
N273 C266 1.356 . S
N273 H276 0.984 . S
N273 H277 0.985 . S
H274 N269 0.984 . S
H275 N269 0.985 . S
H276 N273 0.984 . S
H277 N273 0.985 . S
H278 N272 0.984 . S
H279 N272 0.984 . S
H280 N268 0.984 . S
H281 N268 0.985 . S
C282 C283 1.363 . S
C282 C288 1.379 . S
C282 N290 1.356 . S
C283 C282 1.363 . S
C283 C289 1.363 . S
C284 C285 1.363 . S
C284 C289 1.379 . S
C284 N291 1.356 . S
C285 C284 1.363 . S
C285 C288 1.363 . S
N286 C288 1.356 . S
N286 H298 0.984 . S
N286 H299 0.985 . S
N287 C289 1.356 . S
N287 H292 0.984 . S
N287 H293 0.985 . S
C288 C282 1.379 . S
C288 C285 1.363 . S
C288 N286 1.356 . S
C289 C283 1.363 . S
C289 C284 1.379 . S
C289 N287 1.356 . S
N290 C282 1.356 . S
N290 H296 0.984 . S
N290 H297 0.984 . S
N291 C284 1.356 . S
N291 H294 0.984 . S
N291 H295 0.985 . S
H292 N287 0.984 . S
H293 N287 0.985 . S
H294 N291 0.984 . S
H295 N291 0.985 . S
H296 N290 0.984 . S
H297 N290 0.984 . S
H298 N286 0.984 . S
H299 N286 0.985 . S
C300 C301 1.363 . S
C300 C306 1.379 . S
C300 N308 1.356 . S
C301 C300 1.363 . S
C301 C307 1.363 . S
C302 C303 1.363 . S
C302 C307 1.379 . S
C302 N309 1.356 . S
C303 C302 1.363 . S
C303 C306 1.363 . S
N304 C306 1.356 . S
N304 H316 0.984 . S
N304 H317 0.985 . S
N305 C307 1.356 . S
N305 H310 0.984 . S
N305 H311 0.985 . S
C306 C300 1.379 . S
C306 C303 1.363 . S
C306 N304 1.356 . S
C307 C301 1.363 . S
C307 C302 1.379 . S
C307 N305 1.356 . S
N308 C300 1.356 . S
N308 H314 0.984 . S
N308 H315 0.984 . S
N309 C302 1.356 . S
N309 H312 0.984 . S
N309 H313 0.985 . S
H310 N305 0.984 . S
H311 N305 0.985 . S
H312 N309 0.984 . S
H313 N309 0.985 . S
H314 N308 0.984 . S
H315 N308 0.984 . S
H316 N304 0.984 . S
H317 N304 0.985 . S
C318 C319 1.356 1_655 S
C318 C324 1.379 . S
C318 N326 1.356 . S
C319 C318 1.356 1_455 S
C319 C325 1.370 . S
C320 C321 1.363 . S
C320 C325 1.379 . S
C320 N327 1.356 . S
C321 C320 1.363 . S
C321 C324 1.363 1_455 S
N322 C324 1.356 . S
N322 H334 0.984 . S
N322 H335 0.985 . S
N323 C325 1.356 . S
N323 H328 0.984 . S
N323 H329 0.985 . S
C324 C318 1.379 . S
C324 C321 1.363 1_655 S
C324 N322 1.356 . S
C325 C319 1.370 . S
C325 C320 1.379 . S
C325 N323 1.356 . S
N326 C318 1.356 . S
N326 H332 0.984 . S
N326 H333 0.984 . S
N327 C320 1.356 . S
N327 H330 0.984 . S
N327 H331 0.985 . S
H328 N323 0.984 . S
H329 N323 0.985 . S
H330 N327 0.984 . S
H331 N327 0.985 . S
H332 N326 0.984 . S
H333 N326 0.984 . S
H334 N322 0.984 . S
H335 N322 0.985 . S
C336 C337 1.359 1_565 S
C336 C342 1.379 . S
C336 N344 1.356 . S
C337 C336 1.359 1_545 S
C337 C343 1.367 . S
C338 C339 1.375 . S
C338 C343 1.379 . S
C338 N345 1.356 . S
C339 C338 1.375 . S
C339 C342 1.351 1_545 S
N340 C342 1.356 . S
N340 H352 0.984 . S
N340 H353 0.985 . S
N341 C343 1.356 . S
N341 H346 0.984 . S
N341 H347 0.985 . S
C342 C336 1.379 . S
C342 C339 1.351 1_565 S
C342 N340 1.356 . S
C343 C337 1.367 . S
C343 C338 1.379 . S
C343 N341 1.356 . S
N344 C336 1.356 . S
N344 H350 0.984 . S
N344 H351 0.984 . S
N345 C338 1.356 . S
N345 H348 0.984 1_554 S
N345 H349 0.985 . S
H346 N341 0.984 . S
H347 N341 0.985 . S
H348 N345 0.984 1_556 S
H349 N345 0.985 . S
H350 N344 0.984 . S
H351 N344 0.984 . S
H352 N340 0.984 . S
H353 N340 0.985 . S
C354 C355 1.363 . S
C354 C360 1.379 . S
C354 N362 1.356 . S
C355 C354 1.363 . S
C355 C361 1.363 . S
C356 C357 1.363 . S
C356 C361 1.379 . S
C356 N363 1.356 . S
C357 C356 1.363 . S
C357 C360 1.363 . S
N358 C360 1.356 1_556 S
N358 H370 0.984 . S
N358 H371 0.985 . S
N359 C361 1.356 . S
N359 H364 0.984 . S
N359 H365 0.985 . S
C360 C354 1.379 . S
C360 C357 1.363 . S
C360 N358 1.356 1_554 S
C361 C355 1.363 . S
C361 C356 1.379 . S
C361 N359 1.356 . S
N362 C354 1.356 . S
N362 H368 0.984 . S
N362 H369 0.984 . S
N363 C356 1.356 . S
N363 H366 0.984 . S
N363 H367 0.985 . S
H364 N359 0.984 . S
H365 N359 0.985 . S
H366 N363 0.984 . S
H367 N363 0.985 . S
H368 N362 0.984 . S
H369 N362 0.984 . S
H370 N358 0.984 . S
H371 N358 0.985 . S
C372 C373 1.363 . S
C372 C378 1.379 . S
C372 N380 1.356 . S
C373 C372 1.363 . S
C373 C379 1.363 . S
C374 C375 1.363 . S
C374 C379 1.379 . S
C374 N381 1.356 . S
C375 C374 1.363 . S
C375 C378 1.363 . S
N376 C378 1.356 . S
N376 H388 0.984 . S
N376 H389 0.985 . S
N377 C379 1.356 . S
N377 H382 0.984 . S
N377 H383 0.985 . S
C378 C372 1.379 . S
C378 C375 1.363 . S
C378 N376 1.356 . S
C379 C373 1.363 . S
C379 C374 1.379 . S
C379 N377 1.356 . S
N380 C372 1.356 . S
N380 H386 0.984 . S
N380 H387 0.984 . S
N381 C374 1.356 . S
N381 H384 0.984 1_554 S
N381 H385 0.985 . S
H382 N377 0.984 . S
H383 N377 0.985 . S
H384 N381 0.984 1_556 S
H385 N381 0.985 . S
H386 N380 0.984 . S
H387 N380 0.984 . S
H388 N376 0.984 . S
H389 N376 0.985 . S
C390 C391 1.364 . S
C390 C396 1.379 . S
C390 N398 1.356 . S
C391 C390 1.364 . S
C391 C397 1.362 1_655 S
C392 C393 1.363 1_455 S
C392 C397 1.379 . S
C392 N399 1.356 . S
C393 C392 1.363 1_655 S
C393 C396 1.363 . S
N394 C396 1.356 1_556 S
N394 H406 0.984 . S
N394 H407 0.985 . S
N395 C397 1.356 . S
N395 H400 0.984 . S
N395 H401 0.985 . S
C396 C390 1.379 . S
C396 C393 1.363 . S
C396 N394 1.356 1_554 S
C397 C391 1.362 1_455 S
C397 C392 1.379 . S
C397 N395 1.356 . S
N398 C390 1.356 . S
N398 H404 0.984 . S
N398 H405 0.984 . S
N399 C392 1.356 . S
N399 H402 0.984 . S
N399 H403 0.985 . S
H400 N395 0.984 . S
H401 N395 0.985 . S
H402 N399 0.984 . S
H403 N399 0.985 . S
H404 N398 0.984 . S
H405 N398 0.984 . S
H406 N394 0.984 . S
H407 N394 0.985 . S
C408 C409 1.375 . S
C408 C414 1.379 . S
C408 N416 1.356 . S
C409 C408 1.375 . S
C409 C415 1.360 1_655 S
C410 C411 1.363 . S
C410 C415 1.379 1_655 S
C410 N417 1.356 . S
C411 C410 1.363 . S
C411 C414 1.363 . S
N412 C414 1.356 . S
N412 H424 0.984 . S
N412 H425 0.985 . S
N413 C415 1.356 . S
N413 H418 0.984 . S
N413 H419 0.985 . S
C414 C408 1.379 . S
C414 C411 1.363 . S
C414 N412 1.356 . S
C415 C409 1.360 1_455 S
C415 C410 1.379 1_455 S
C415 N413 1.356 . S
N416 C408 1.356 . S
N416 H422 0.984 1_554 S
N416 H423 0.984 . S
N417 C410 1.356 . S
N417 H420 0.984 . S
N417 H421 0.989 . S
H418 N413 0.984 . S
H419 N413 0.985 . S
H420 N417 0.984 . S
H421 N417 0.989 . S
H422 N416 0.984 1_556 S
H423 N416 0.984 . S
H424 N412 0.984 . S
H425 N412 0.985 . S
C426 C427 1.371 . S
C426 C432 1.379 . S
C426 N434 1.356 . S
C427 C426 1.371 . S
C427 C433 1.362 1_565 S
C428 C429 1.363 . S
C428 C433 1.379 1_565 S
C428 N435 1.356 . S
C429 C428 1.363 . S
C429 C432 1.363 . S
N430 C432 1.356 . S
N430 H442 0.984 . S
N430 H443 0.985 . S
N431 C433 1.356 . S
N431 H436 0.984 . S
N431 H437 0.985 . S
C432 C426 1.379 . S
C432 C429 1.363 . S
C432 N430 1.356 . S
C433 C427 1.362 1_545 S
C433 C428 1.379 1_545 S
C433 N431 1.356 . S
N434 C426 1.356 . S
N434 H440 0.984 1_554 S
N434 H441 1.002 . S
N435 C428 1.356 . S
N435 H438 0.984 . S
N435 H439 0.985 . S
H436 N431 0.984 . S
H437 N431 0.985 . S
H438 N435 0.984 . S
H439 N435 0.985 . S
H440 N434 0.984 1_556 S
H441 N434 1.002 . S
H442 N430 0.984 . S
H443 N430 0.985 . S
C444 C445 1.363 . S
C444 C450 1.379 . S
C444 N452 1.356 . S
C445 C444 1.363 . S
C445 C451 1.363 . S
C446 C447 1.363 . S
C446 C451 1.379 . S
C446 N453 1.356 . S
C447 C446 1.363 . S
C447 C450 1.363 . S
N448 C450 1.356 . S
N448 H460 0.984 . S
N448 H461 0.985 . S
N449 C451 1.356 . S
N449 H454 0.984 . S
N449 H455 0.985 1_554 S
C450 C444 1.379 . S
C450 C447 1.363 . S
C450 N448 1.356 . S
C451 C445 1.363 . S
C451 C446 1.379 . S
C451 N449 1.356 . S
N452 C444 1.356 . S
N452 H458 0.984 . S
N452 H459 0.984 . S
N453 C446 1.356 . S
N453 H456 0.984 . S
N453 H457 0.985 . S
H454 N449 0.984 . S
H455 N449 0.985 1_556 S
H456 N453 0.984 . S
H457 N453 0.985 . S
H458 N452 0.984 . S
H459 N452 0.984 . S
H460 N448 0.984 . S
H461 N448 0.985 . S
C462 C463 1.363 . S
C462 C468 1.379 . S
C462 N470 1.356 . S
C463 C462 1.363 . S
C463 C469 1.363 . S
C464 C465 1.363 . S
C464 C469 1.379 . S
C464 N471 1.356 . S
C465 C464 1.363 . S
C465 C468 1.363 . S
N466 C468 1.356 . S
N466 H478 0.984 . S
N466 H479 0.985 . S
N467 C469 1.356 . S
N467 H472 0.984 . S
N467 H473 0.985 . S
C468 C462 1.379 . S
C468 C465 1.363 . S
C468 N466 1.356 . S
C469 C463 1.363 . S
C469 C464 1.379 . S
C469 N467 1.356 . S
N470 C462 1.356 . S
N470 H476 0.984 . S
N470 H477 0.984 . S
N471 C464 1.356 . S
N471 H474 0.984 . S
N471 H475 0.985 . S
H472 N467 0.984 . S
H473 N467 0.985 . S
H474 N471 0.984 . S
H475 N471 0.985 . S
H476 N470 0.984 . S
H477 N470 0.984 . S
H478 N466 0.984 . S
H479 N466 0.985 . S
C480 C481 1.377 . S
C480 C486 1.379 . S
C480 N488 1.356 . S
C481 C480 1.377 . S
C481 C487 1.359 1_455 S
C482 C483 1.363 . S
C482 C487 1.379 1_455 S
C482 N489 1.356 . S
C483 C482 1.363 . S
C483 C486 1.363 . S
N484 C486 1.356 . S
N484 H496 0.984 . S
N484 H497 0.985 . S
N485 C487 1.356 . S
N485 H490 0.984 . S
N485 H491 0.985 . S
C486 C480 1.379 . S
C486 C483 1.363 . S
C486 N484 1.356 . S
C487 C481 1.359 1_655 S
C487 C482 1.379 1_655 S
C487 N485 1.356 . S
N488 C480 1.356 . S
N488 H494 0.984 . S
N488 H495 0.984 . S
N489 C482 1.356 . S
N489 H492 0.984 . S
N489 H493 0.985 1_455 S
H490 N485 0.984 . S
H491 N485 0.985 . S
H492 N489 0.984 . S
H493 N489 0.985 1_655 S
H494 N488 0.984 . S
H495 N488 0.984 . S
H496 N484 0.984 . S
H497 N484 0.985 . S
C498 C499 1.367 . S
C498 C504 1.379 . S
C498 N506 1.356 1_545 S
C499 C498 1.367 . S
C499 C505 1.371 . S
C500 C501 1.363 . S
C500 C505 1.379 . S
C500 N507 1.356 . S
C501 C500 1.363 . S
C501 C504 1.363 . S
N502 C504 1.356 . S
N502 H514 0.984 . S
N502 H515 0.985 . S
N503 C505 1.356 . S
N503 H508 0.984 1_545 S
N503 H509 0.985 . S
C504 C498 1.379 . S
C504 C501 1.363 . S
C504 N502 1.356 . S
C505 C499 1.371 . S
C505 C500 1.379 . S
C505 N503 1.356 . S
N506 C498 1.356 1_565 S
N506 H512 0.984 . S
N506 H513 0.984 . S
N507 C500 1.356 . S
N507 H510 0.984 . S
N507 H511 0.985 . S
H508 N503 0.984 1_565 S
H509 N503 0.985 . S
H510 N507 0.984 . S
H511 N507 0.985 . S
H512 N506 0.984 . S
H513 N506 0.984 . S
H514 N502 0.984 . S
H515 N502 0.985 . S
C516 C517 1.363 . S
C516 C522 1.379 . S
C516 N524 1.356 . S
C517 C516 1.363 . S
C517 C523 1.363 . S
C518 C519 1.363 . S
C518 C523 1.379 . S
C518 N525 1.356 . S
C519 C518 1.363 . S
C519 C522 1.363 . S
N520 C522 1.356 . S
N520 H532 0.984 . S
N520 H533 0.985 . S
N521 C523 1.356 . S
N521 H526 0.984 . S
N521 H527 0.985 . S
C522 C516 1.379 . S
C522 C519 1.363 . S
C522 N520 1.356 . S
C523 C517 1.363 . S
C523 C518 1.379 . S
C523 N521 1.356 . S
N524 C516 1.356 . S
N524 H530 0.984 . S
N524 H531 0.984 . S
N525 C518 1.356 . S
N525 H528 0.984 . S
N525 H529 0.985 . S
H526 N521 0.984 . S
H527 N521 0.985 . S
H528 N525 0.984 . S
H529 N525 0.985 . S
H530 N524 0.984 . S
H531 N524 0.984 . S
H532 N520 0.984 . S
H533 N520 0.985 . S
C534 C535 1.363 . S
C534 C540 1.379 . S
C534 N542 1.356 . S
C535 C534 1.363 . S
C535 C541 1.363 . S
C536 C537 1.363 . S
C536 C541 1.379 . S
C536 N543 1.356 . S
C537 C536 1.363 . S
C537 C540 1.363 . S
N538 C540 1.356 . S
N538 H550 0.984 . S
N538 H551 0.985 . S
N539 C541 1.356 . S
N539 H544 0.984 . S
N539 H545 0.985 . S
C540 C534 1.379 . S
C540 C537 1.363 . S
C540 N538 1.356 . S
C541 C535 1.363 . S
C541 C536 1.379 . S
C541 N539 1.356 . S
N542 C534 1.356 . S
N542 H548 0.984 . S
N542 H549 0.984 . S
N543 C536 1.356 . S
N543 H546 0.984 . S
N543 H547 0.985 . S
H544 N539 0.984 . S
H545 N539 0.985 . S
H546 N543 0.984 . S
H547 N543 0.985 . S
H548 N542 0.984 . S
H549 N542 0.984 . S
H550 N538 0.984 . S
H551 N538 0.985 . S
C552 C553 1.363 1_655 S
C552 C558 1.379 . S
C552 N560 1.356 . S
C553 C552 1.363 1_455 S
C553 C559 1.363 . S
C554 C555 1.363 . S
C554 C559 1.379 . S
C554 N561 1.356 1_556 S
C555 C554 1.363 . S
C555 C558 1.363 1_455 S
N556 C558 1.356 . S
N556 H568 0.984 . S
N556 H569 0.985 . S
N557 C559 1.356 1_554 S
N557 H562 0.984 1_554 S
N557 H563 0.985 . S
C558 C552 1.379 . S
C558 C555 1.363 1_655 S
C558 N556 1.356 . S
C559 C553 1.363 . S
C559 C554 1.379 . S
C559 N557 1.356 1_556 S
N560 C552 1.356 . S
N560 H566 0.984 . S
N560 H567 0.984 . S
N561 C554 1.356 1_554 S
N561 H564 0.984 . S
N561 H565 0.985 . S
H562 N557 0.984 1_556 S
H563 N557 0.985 . S
H564 N561 0.984 . S
H565 N561 0.985 . S
H566 N560 0.984 . S
H567 N560 0.984 . S
H568 N556 0.984 . S
H569 N556 0.985 . S
C570 C571 1.363 1_565 S
C570 C576 1.379 . S
C570 N578 1.356 . S
C571 C570 1.363 1_545 S
C571 C577 1.363 . S
C572 C573 1.363 . S
C572 C577 1.379 . S
C572 N579 1.356 1_556 S
C573 C572 1.363 . S
C573 C576 1.363 1_545 S
N574 C576 1.356 . S
N574 H586 0.984 . S
N574 H587 0.985 . S
N575 C577 1.356 1_554 S
N575 H580 0.984 . S
N575 H581 0.985 . S
C576 C570 1.379 . S
C576 C573 1.363 1_565 S
C576 N574 1.356 . S
C577 C571 1.363 . S
C577 C572 1.379 . S
C577 N575 1.356 1_556 S
N578 C570 1.356 . S
N578 H584 0.984 . S
N578 H585 0.984 . S
N579 C572 1.356 1_554 S
N579 H582 0.984 . S
N579 H583 0.985 . S
H580 N575 0.984 . S
H581 N575 0.985 . S
H582 N579 0.984 . S
H583 N579 0.985 . S
H584 N578 0.984 . S
H585 N578 0.984 . S
H586 N574 0.984 . S
H587 N574 0.985 . S
C588 C589 1.363 . S
C588 C594 1.379 . S
C588 N596 1.356 1_556 S
C589 C588 1.363 . S
C589 C595 1.363 . S
C590 C591 1.363 . S
C590 C595 1.379 . S
C590 N597 1.356 . S
C591 C590 1.363 . S
C591 C594 1.363 . S
N592 C594 1.356 1_554 S
N592 H604 0.984 . S
N592 H605 0.985 . S
N593 C595 1.356 . S
N593 H598 0.984 . S
N593 H599 0.985 . S
C594 C588 1.379 . S
C594 C591 1.363 . S
C594 N592 1.356 1_556 S
C595 C589 1.363 . S
C595 C590 1.379 . S
C595 N593 1.356 . S
N596 C588 1.356 1_554 S
N596 H602 0.984 . S
N596 H603 0.984 1_554 S
N597 C590 1.356 . S
N597 H600 0.984 . S
N597 H601 0.985 . S
H598 N593 0.984 . S
H599 N593 0.985 . S
H600 N597 0.984 . S
H601 N597 0.985 . S
H602 N596 0.984 . S
H603 N596 0.984 1_556 S
H604 N592 0.984 . S
H605 N592 0.985 . S
C606 C607 1.363 . S
C606 C612 1.379 . S
C606 N614 1.356 . S
C607 C606 1.363 . S
C607 C613 1.363 . S
C608 C609 1.363 . S
C608 C613 1.379 . S
C608 N615 1.356 1_556 S
C609 C608 1.363 . S
C609 C612 1.363 . S
N610 C612 1.356 . S
N610 H622 0.984 . S
N610 H623 0.985 . S
N611 C613 1.356 . S
N611 H616 0.984 . S
N611 H617 0.985 1_556 S
C612 C606 1.379 . S
C612 C609 1.363 . S
C612 N610 1.356 . S
C613 C607 1.363 . S
C613 C608 1.379 . S
C613 N611 1.356 . S
N614 C606 1.356 . S
N614 H620 0.984 . S
N614 H621 0.984 . S
N615 C608 1.356 1_554 S
N615 H618 0.984 1_554 S
N615 H619 0.985 . S
H616 N611 0.984 . S
H617 N611 0.985 1_554 S
H618 N615 0.984 1_556 S
H619 N615 0.985 . S
H620 N614 0.984 . S
H621 N614 0.984 . S
H622 N610 0.984 . S
H623 N610 0.985 . S
C624 C625 1.363 . S
C624 C630 1.379 . S
C624 N632 1.356 . S
C625 C624 1.363 . S
C625 C631 1.363 1_655 S
C626 C627 1.363 1_455 S
C626 C631 1.379 . S
C626 N633 1.356 . S
C627 C626 1.363 1_655 S
C627 C630 1.363 . S
N628 C630 1.356 . S
N628 H640 0.984 . S
N628 H641 0.985 . S
N629 C631 1.356 . S
N629 H634 0.984 . S
N629 H635 0.985 . S
C630 C624 1.379 . S
C630 C627 1.363 . S
C630 N628 1.356 . S
C631 C625 1.363 1_455 S
C631 C626 1.379 . S
C631 N629 1.356 . S
N632 C624 1.356 . S
N632 H638 0.984 . S
N632 H639 0.984 . S
N633 C626 1.356 . S
N633 H636 0.984 . S
N633 H637 0.985 . S
H634 N629 0.984 . S
H635 N629 0.985 . S
H636 N633 0.984 . S
H637 N633 0.985 . S
H638 N632 0.984 . S
H639 N632 0.984 . S
H640 N628 0.984 . S
H641 N628 0.985 . S
C642 C643 1.363 . S
C642 C648 1.379 . S
C642 N650 1.356 . S
C643 C642 1.363 . S
C643 C649 1.363 1_565 S
C644 C645 1.363 1_545 S
C644 C649 1.379 . S
C644 N651 1.356 . S
C645 C644 1.363 1_565 S
C645 C648 1.363 . S
N646 C648 1.356 . S
N646 H658 0.984 . S
N646 H659 0.985 . S
N647 C649 1.356 . S
N647 H652 0.984 . S
N647 H653 0.985 . S
C648 C642 1.379 . S
C648 C645 1.363 . S
C648 N646 1.356 . S
C649 C643 1.363 1_545 S
C649 C644 1.379 . S
C649 N647 1.356 . S
N650 C642 1.356 . S
N650 H656 0.984 . S
N650 H657 0.984 . S
N651 C644 1.356 . S
N651 H654 0.984 . S
N651 H655 0.985 . S
H652 N647 0.984 . S
H653 N647 0.985 . S
H654 N651 0.984 . S
H655 N651 0.985 . S
H656 N650 0.984 . S
H657 N650 0.984 . S
H658 N646 0.984 . S
H659 N646 0.985 . S
C660 C661 1.363 . S
C660 C666 1.379 . S
C660 N668 1.356 . S
C661 C660 1.363 . S
C661 C667 1.363 . S
C662 C663 1.363 . S
C662 C667 1.379 . S
C662 N669 1.356 . S
C663 C662 1.363 . S
C663 C666 1.363 . S
N664 C666 1.356 . S
N664 H676 0.984 . S
N664 H677 0.985 . S
N665 C667 1.356 . S
N665 H670 0.984 . S
N665 H671 0.985 . S
C666 C660 1.379 . S
C666 C663 1.363 . S
C666 N664 1.356 . S
C667 C661 1.363 . S
C667 C662 1.379 . S
C667 N665 1.356 . S
N668 C660 1.356 . S
N668 H674 0.984 . S
N668 H675 0.984 . S
N669 C662 1.356 . S
N669 H672 0.984 . S
N669 H673 0.985 . S
H670 N665 0.984 . S
H671 N665 0.985 . S
H672 N669 0.984 . S
H673 N669 0.985 . S
H674 N668 0.984 . S
H675 N668 0.984 . S
H676 N664 0.984 . S
H677 N664 0.985 . S
C678 C679 1.363 . S
C678 C684 1.379 . S
C678 N686 1.356 . S
C679 C678 1.363 . S
C679 C685 1.363 . S
C680 C681 1.363 . S
C680 C685 1.379 . S
C680 N687 1.356 . S
C681 C680 1.363 . S
C681 C684 1.363 . S
N682 C684 1.356 . S
N682 H694 0.984 . S
N682 H695 0.985 . S
N683 C685 1.356 . S
N683 H688 0.984 . S
N683 H689 0.985 . S
C684 C678 1.379 . S
C684 C681 1.363 . S
C684 N682 1.356 . S
C685 C679 1.363 . S
C685 C680 1.379 . S
C685 N683 1.356 . S
N686 C678 1.356 . S
N686 H692 0.984 . S
N686 H693 0.984 . S
N687 C680 1.356 . S
N687 H690 0.984 . S
N687 H691 0.985 . S
H688 N683 0.984 . S
H689 N683 0.985 . S
H690 N687 0.984 . S
H691 N687 0.985 . S
H692 N686 0.984 . S
H693 N686 0.984 . S
H694 N682 0.984 . S
H695 N682 0.985 . S
C265 C82 1.761 1_565 S
C267 C106 2.191 . S
C285 C146 2.209 . S
C283 C95 1.763 . S
C303 C186 2.220 . S
C301 C56 1.777 . S
C321 C226 2.203 1_455 S
C319 C69 1.774 . S
C339 C119 2.194 1_554 S
C337 C30 1.762 . S
C355 C43 1.792 . S
C357 C159 2.211 1_554 S
C373 C4 1.807 . S
C375 C199 2.219 1_554 S
C391 C17 1.774 1_655 S
C393 C239 2.204 1_654 S
C411 C130 0.775 . S
C409 C74 0.772 1_655 S
C429 C170 0.773 . S
C427 C87 0.772 1_565 S
C447 C210 0.764 . S
C445 C100 0.763 . S
C463 C61 0.762 . S
C465 C250 0.759 . S
C481 C22 0.774 . S
C483 C113 0.778 . S
C501 C153 0.774 . S
C499 C35 0.772 . S
C519 C193 0.764 . S
C517 C48 0.763 . S
C535 C9 0.762 . S
C537 C233 0.765 . S
C553 C73 2.237 . S
C555 C107 2.560 . S
C571 C86 2.195 . S
C573 C147 2.523 . S
C591 C187 2.509 . S
C589 C99 2.177 . S
C609 C227 2.551 . S
C607 C60 2.216 . S
C625 C21 2.238 1_655 S
C627 C126 2.568 . S
C645 C166 2.523 . S
C643 C34 2.195 1_565 S
C663 C206 2.510 . S
C661 C47 2.183 . S
C679 C8 2.225 . S
C681 C246 2.554 . S
