# Generated by pormake.
# Topology pth, (4,4)-cn, num edge types: 1
# Building blocks:
#     Node 0, Type 0, BuildingBlock: KUFVIS_clean_sbu_0, # of connection points: 4
#     Node 1, Type 0, BuildingBlock: KUFVIS_clean_sbu_0, # of connection points: 4
#     Node 2, Type 0, BuildingBlock: KUFVIS_clean_sbu_0, # of connection points: 4
#     Node 3, Type 1, BuildingBlock: AZAVOO_clean_linker_0, # of connection points: 4
#     Node 4, Type 1, BuildingBlock: AZAVOO_clean_linker_0, # of connection points: 4
#     Node 5, Type 1, BuildingBlock: AZAVOO_clean_linker_0, # of connection points: 4
#     Edge 6, Type (0, 1), BuildingBlock: AJUNOK_clean_linker_0, # of connection points: 2
#     Edge 7, Type (0, 1), BuildingBlock: AJUNOK_clean_linker_0, # of connection points: 2
#     Edge 8, Type (0, 1), BuildingBlock: AJUNOK_clean_linker_0, # of connection points: 2
#     Edge 9, Type (0, 1), BuildingBlock: AJUNOK_clean_linker_0, # of connection points: 2
#     Edge 10, Type (0, 1), BuildingBlock: AJUNOK_clean_linker_0, # of connection points: 2
#     Edge 11, Type (0, 1), BuildingBlock: AJUNOK_clean_linker_0, # of connection points: 2
#     Edge 12, Type (0, 1), BuildingBlock: AJUNOK_clean_linker_0, # of connection points: 2
#     Edge 13, Type (0, 1), BuildingBlock: AJUNOK_clean_linker_0, # of connection points: 2
#     Edge 14, Type (0, 1), BuildingBlock: AJUNOK_clean_linker_0, # of connection points: 2
#     Edge 15, Type (0, 1), BuildingBlock: AJUNOK_clean_linker_0, # of connection points: 2
#     Edge 16, Type (0, 1), BuildingBlock: AJUNOK_clean_linker_0, # of connection points: 2
#     Edge 17, Type (0, 1), BuildingBlock: AJUNOK_clean_linker_0, # of connection points: 2
# Relax obj value: 0.127
# Max RMSD: 0.225
# Mean RMSD: 0.161
data_MOF--net-pth--node1-KUFVIS_clean_sbu_0--node2-AZAVOO_clean_linker_0--edge1-AJUNOK_clean_linker_0
_symmetry_space_group_name_H-M    P1
_symmetry_Int_Tables_number       1
_symmetry_cell_setting            triclinic
loop_
_symmetry_equiv_pos_as_xyz
'x, y, z'
_cell_length_a     20.189974
_cell_length_b     20.471028
_cell_length_c     55.552591
_cell_angle_alpha  92.79927
_cell_angle_beta   90.88253
_cell_angle_gamma 120.18686
loop_
_atom_site_label
_atom_site_type_symbol
_atom_site_fract_x
_atom_site_fract_y
_atom_site_fract_z
_atom_type_partial_charge
Mn0 Mn 0.10117 0.08966 0.09022 0.0
Mn1 Mn 0.01265 0.1728 0.06436 0.0
C2 C 0.0452 0.04764 0.05188 0.0
C3 C 0.09702 0.00251 0.11633 0.0
C4 C 0.18543 0.24194 0.06791 0.0
O5 O 0.08904 0.15001 0.11829 0.0
O6 O 0.01815 0.19118 0.09997 0.0
C7 C 0.85762 0.07685 0.08239 0.0
N8 N 0.90401 0.10689 0.06364 0.0
C9 C 0.79653 0.04571 0.03491 0.0
C10 C 0.74745 0.01486 0.05394 0.0
C11 C 0.7782 0.03024 0.07777 0.0
C12 C 0.87517 0.09178 0.04062 0.0
H13 H 0.88114 0.08806 0.1007 0.0
C14 C 0.04988 0.18318 0.11886 0.0
O15 O 0.16153 0.06179 0.11169 0.0
O16 O 0.03519 0.99366 0.10565 0.0
N17 N 0.00235 0.15937 0.0299 0.0
C18 C 0.05802 0.18822 0.0135 0.0
C19 C 0.03712 0.1752 0.98875 0.0
C20 C 0.95928 0.13358 0.98113 0.0
C21 C 0.90301 0.10529 0.99834 0.0
C22 C 0.92725 0.12013 0.02275 0.0
H23 H 0.11793 0.22051 0.01923 0.0
O24 O 0.09593 0.03144 0.05962 0.0
O25 O 0.02674 0.08537 0.06716 0.0
O26 O 0.18636 0.1866 0.07715 0.0
O27 O 0.12418 0.24401 0.06361 0.0
C28 C 0.82388 0.0617 0.99222 0.0
C29 C 0.77071 0.03133 0.01048 0.0
H30 H 0.68621 0.97853 0.05044 0.0
H31 H 0.74078 0.00601 0.09253 0.0
H32 H 0.08092 0.19708 0.97559 0.0
H33 H 0.94341 0.12316 0.96203 0.0
H34 H 0.80339 0.05002 0.9735 0.0
H35 H 0.71017 0.99627 0.00551 0.0
Mn36 Mn 0.03454 0.0659 0.4232 0.0
Mn37 Mn 0.14013 0.24088 0.45099 0.0
C38 C 0.11735 0.08576 0.45505 0.0
C39 C 0.0201 0.97358 0.39399 0.0
C40 C 0.97557 0.13346 0.46208 0.0
O41 O 0.02456 0.1328 0.39907 0.0
O42 O 0.09405 0.24597 0.41972 0.0
C43 C 0.26184 0.30129 0.41557 0.0
N44 N 0.24059 0.28567 0.43869 0.0
C45 C 0.37134 0.33354 0.45266 0.0
C46 C 0.39467 0.35064 0.42902 0.0
C47 C 0.33964 0.33431 0.4104 0.0
C48 C 0.29302 0.30074 0.45672 0.0
H49 H 0.21974 0.28846 0.40117 0.0
C50 C 0.05255 0.20437 0.40135 0.0
O51 O 0.96064 0.97084 0.40369 0.0
O52 O 0.08641 0.03243 0.39987 0.0
N53 N 0.18905 0.24625 0.48141 0.0
C54 C 0.15721 0.22693 0.50326 0.0
C55 C 0.2045 0.23916 0.52379 0.0
C56 C 0.28409 0.27236 0.52172 0.0
C57 C 0.3158 0.29404 0.49919 0.0
C58 C 0.26584 0.28076 0.47939 0.0
H59 H 0.09607 0.20147 0.50498 0.0
O60 O 0.06154 0.01825 0.44876 0.0
O61 O 0.12502 0.1402 0.44202 0.0
O62 O 0.96374 0.08003 0.44653 0.0
O63 O 0.03871 0.19636 0.46499 0.0
C64 C 0.39493 0.32762 0.49556 0.0
C65 C 0.42265 0.34712 0.47229 0.0
H66 H 0.4546 0.37594 0.42495 0.0
H67 H 0.35715 0.34701 0.39209 0.0
H68 H 0.17961 0.22268 0.54113 0.0
H69 H 0.32031 0.281 0.53754 0.0
H70 H 0.43493 0.33831 0.5105 0.0
H71 H 0.48355 0.37239 0.4697 0.0
Mn72 Mn 0.09688 0.10743 0.76277 0.0
Mn73 Mn 0.03827 0.21603 0.79203 0.0
C74 C 0.17179 0.19265 0.79413 0.0
C75 C 0.16865 0.09022 0.73333 0.0
C76 C 0.97519 0.05067 0.80115 0.0
O77 O 0.01463 0.09998 0.73903 0.0
O78 O 0.9787 0.17184 0.76078 0.0
C79 C 0.0903 0.3374 0.75789 0.0
N80 N 0.09212 0.31546 0.78053 0.0
C81 C 0.179 0.44412 0.79539 0.0
C82 C 0.17771 0.46811 0.77226 0.0
C83 C 0.13332 0.41447 0.75342 0.0
C84 C 0.13484 0.36658 0.79877 0.0
H85 H 0.05627 0.29643 0.74334 0.0
C86 C 0.97236 0.12957 0.74205 0.0
O87 O 0.11256 0.03247 0.7428 0.0
O88 O 0.17849 0.15641 0.73951 0.0
N89 N 0.09205 0.26299 0.82229 0.0
C90 C 0.0881 0.23048 0.84345 0.0
C91 C 0.13024 0.27635 0.864 0.0
C92 C 0.17591 0.35505 0.86262 0.0
C93 C 0.1785 0.38728 0.84071 0.0
C94 C 0.13473 0.33882 0.82088 0.0
H95 H 0.05363 0.16998 0.84458 0.0
O96 O 0.17844 0.13418 0.78838 0.0
O97 O 0.12046 0.1988 0.78163 0.0
O98 O 0.01344 0.03823 0.78528 0.0
O99 O 0.98138 0.11549 0.80532 0.0
C100 C 0.22296 0.46556 0.83778 0.0
C101 C 0.22332 0.49396 0.81512 0.0
H102 H 0.21107 0.52747 0.76872 0.0
H103 H 0.13231 0.4325 0.7355 0.0
H104 H 0.12754 0.25106 0.88086 0.0
H105 H 0.20862 0.39026 0.87846 0.0
H106 H 0.25733 0.5044 0.8528 0.0
H107 H 0.25823 0.5542 0.81303 0.0
H108 H 0.00543 0.42259 0.10065 0.0
H109 H 0.09549 0.0295 0.29868 0.0
H110 H 0.91775 0.37178 0.2413 0.0
H111 H 0.91292 0.27095 0.2144 0.0
H112 H 0.1597 0.39876 0.21125 0.0
H113 H 0.16416 0.49646 0.23934 0.0
H114 H 0.93035 0.48489 0.19732 0.0
H115 H 0.93854 0.44835 0.15531 0.0
H116 H 0.18477 0.55444 0.16586 0.0
H117 H 0.17579 0.59195 0.20764 0.0
H118 H 0.93342 0.65125 0.21805 0.0
H119 H 0.94927 0.74344 0.18887 0.0
H120 H 0.1876 0.80767 0.1836 0.0
H121 H 0.17232 0.71902 0.21396 0.0
H122 H 0.90847 0.65826 0.26828 0.0
H123 H 0.90567 0.77369 0.28 0.0
H124 H 0.1533 0.90306 0.27964 0.0
H125 H 0.15507 0.78733 0.26754 0.0
H126 H 0.90215 0.55799 0.30531 0.0
H127 H 0.89404 0.6385 0.33766 0.0
H128 H 0.14059 0.78367 0.33884 0.0
H129 H 0.14823 0.69837 0.3086 0.0
H130 H 0.91653 0.4456 0.30296 0.0
H131 H 0.91421 0.36132 0.33339 0.0
H132 H 0.1436 0.4164 0.31642 0.0
H133 H 0.14743 0.50351 0.28696 0.0
O134 O 0.00359 0.43885 0.11715 0.0
O135 O 0.12875 0.48694 0.12437 0.0
O136 O 0.96741 0.91583 0.29102 0.0
O137 O 0.09485 0.98336 0.29349 0.0
C138 C 0.04168 0.51265 0.24935 0.0
C139 C 0.04676 0.56083 0.23112 0.0
C140 C 0.04347 0.62664 0.23703 0.0
C141 C 0.03373 0.64396 0.26106 0.0
C142 C 0.02911 0.59639 0.27947 0.0
C143 C 0.03351 0.53046 0.2737 0.0
C144 C 0.04119 0.44186 0.2419 0.0
C145 C 0.97094 0.37597 0.23581 0.0
C146 C 0.96827 0.31918 0.2201 0.0
C147 C 0.03568 0.32873 0.20986 0.0
C148 C 0.10668 0.39002 0.21861 0.0
C149 C 0.10939 0.44593 0.23472 0.0
C150 C 0.0524 0.54061 0.20549 0.0
C151 C 0.98597 0.50048 0.19044 0.0
C152 C 0.99086 0.4796 0.16649 0.0
C153 C 0.06228 0.49803 0.15726 0.0
C154 C 0.12883 0.53901 0.17241 0.0
C155 C 0.12391 0.56054 0.19626 0.0
C156 C 0.05175 0.67865 0.21812 0.0
C157 C 0.98906 0.68555 0.21064 0.0
C158 C 0.99815 0.73785 0.1939 0.0
C159 C 0.06997 0.78357 0.18417 0.0
C160 C 0.1321 0.77481 0.19123 0.0
C161 C 0.12322 0.72339 0.20827 0.0
C162 C 0.03195 0.71457 0.26719 0.0
C163 C 0.96195 0.7117 0.27063 0.0
C164 C 0.96058 0.77765 0.27737 0.0
C165 C 0.02935 0.84755 0.28096 0.0
C166 C 0.09934 0.85018 0.27715 0.0
C167 C 0.10056 0.78428 0.27018 0.0
C168 C 0.02588 0.62192 0.30466 0.0
C169 C 0.95468 0.60437 0.31371 0.0
C170 C 0.95002 0.65228 0.33161 0.0
C171 C 0.01626 0.72003 0.34007 0.0
C172 C 0.08808 0.7325 0.33281 0.0
C173 C 0.09281 0.68317 0.31559 0.0
C174 C 0.0324 0.48145 0.29281 0.0
C175 C 0.96685 0.44074 0.30611 0.0
C176 C 0.9652 0.39203 0.32326 0.0
C177 C 0.02837 0.3819 0.32692 0.0
C178 C 0.09382 0.42253 0.31362 0.0
C179 C 0.09606 0.47235 0.29688 0.0
C180 C 0.0672 0.47442 0.13197 0.0
C181 C 0.02834 0.91743 0.28877 0.0
H182 H 0.62249 0.0412 0.43621 0.0
H183 H 0.15307 0.14552 0.634 0.0
H184 H 0.60926 0.95841 0.56286 0.0
H185 H 0.70176 0.97002 0.53328 0.0
H186 H 0.85236 0.2026 0.55965 0.0
H187 H 0.75614 0.19192 0.58794 0.0
H188 H 0.49684 0.96872 0.53185 0.0
H189 H 0.53307 0.97705 0.48974 0.0
H190 H 0.69837 0.21499 0.50431 0.0
H191 H 0.66247 0.20547 0.54641 0.0
H192 H 0.35497 0.96449 0.55676 0.0
H193 H 0.26495 0.9703 0.52805 0.0
H194 H 0.42228 0.20939 0.52292 0.0
H195 H 0.51244 0.20308 0.55164 0.0
H196 H 0.33767 0.95754 0.60981 0.0
H197 H 0.22081 0.9568 0.62144 0.0
H198 H 0.33477 0.1988 0.61495 0.0
H199 H 0.45083 0.19844 0.60302 0.0
H200 H 0.45253 0.96249 0.64634 0.0
H201 H 0.37179 0.9602 0.67913 0.0
H202 H 0.46251 0.20062 0.67472 0.0
H203 H 0.54657 0.20292 0.64363 0.0
H204 H 0.63169 0.97255 0.61993 0.0
H205 H 0.7233 0.98149 0.65147 0.0
H206 H 0.77004 0.20602 0.67413 0.0
H207 H 0.67879 0.19677 0.64276 0.0
O208 O 0.60806 0.03939 0.45281 0.0
O209 O 0.69326 0.16114 0.4614 0.0
O210 O 0.14099 0.01913 0.63114 0.0
O211 O 0.19808 0.14399 0.62907 0.0
C212 C 0.60729 0.07711 0.58566 0.0
C213 C 0.55806 0.08048 0.56792 0.0
C214 C 0.4914 0.08043 0.57466 0.0
C215 C 0.47384 0.07848 0.59904 0.0
C216 C 0.52473 0.07938 0.61706 0.0
C217 C 0.59199 0.07871 0.61045 0.0
C218 C 0.6754 0.07466 0.57726 0.0
C219 C 0.66359 0.011 0.56291 0.0
C220 C 0.71638 0.01799 0.54583 0.0
C221 C 0.78287 0.08832 0.54332 0.0
C222 C 0.79981 0.14871 0.5603 0.0
C223 C 0.74594 0.1422 0.57699 0.0
C224 C 0.57754 0.08632 0.54214 0.0
C225 C 0.54074 0.02254 0.52585 0.0
C226 C 0.56167 0.02749 0.50185 0.0
C227 C 0.61924 0.09654 0.49372 0.0
C228 C 0.65451 0.16077 0.51004 0.0
C229 C 0.63399 0.15558 0.53405 0.0
C230 C 0.43976 0.08335 0.55618 0.0
C231 C 0.36998 0.01794 0.54933 0.0
C232 C 0.31868 0.02149 0.53316 0.0
C233 C 0.33659 0.09057 0.52367 0.0
C234 C 0.40744 0.15567 0.53009 0.0
C235 C 0.45871 0.15211 0.54636 0.0
C236 C 0.40264 0.07809 0.60577 0.0
C237 C 0.33712 0.01025 0.6109 0.0
C238 C 0.27057 0.01005 0.61756 0.0
C239 C 0.26866 0.07789 0.61933 0.0
C240 C 0.33437 0.14565 0.61389 0.0
C241 C 0.40067 0.14564 0.60705 0.0
C242 C 0.50526 0.08284 0.64255 0.0
C243 C 0.45806 0.01526 0.65351 0.0
C244 C 0.41015 0.01375 0.67172 0.0
C245 C 0.40772 0.07953 0.6788 0.0
C246 C 0.46209 0.14861 0.66975 0.0
C247 C 0.51113 0.15034 0.65206 0.0
C248 C 0.64764 0.08356 0.62927 0.0
C249 C 0.66178 0.02362 0.63172 0.0
C250 C 0.71418 0.02886 0.64964 0.0
C251 C 0.75287 0.09397 0.66547 0.0
C252 C 0.73976 0.15447 0.66256 0.0
C253 C 0.68768 0.14928 0.64466 0.0
C254 C 0.64255 0.10131 0.46836 0.0
C255 C 0.19861 0.07824 0.62686 0.0
H256 H 0.74988 0.85937 0.07644 0.0
H257 H 0.23247 0.12354 0.92339 0.0
H258 H 0.68099 0.81285 0.94292 0.0
H259 H 0.78442 0.9225 0.96598 0.0
H260 H 0.92417 0.81808 0.96244 0.0
H261 H 0.82008 0.70807 0.93952 0.0
H262 H 0.58551 0.71803 0.98382 0.0
H263 H 0.6368 0.78189 0.0238 0.0
H264 H 0.8006 0.70458 0.02295 0.0
H265 H 0.7485 0.64082 0.983 0.0
H266 H 0.42905 0.55289 0.96436 0.0
H267 H 0.34827 0.48316 0.99677 0.0
H268 H 0.52271 0.4359 0.02185 0.0
H269 H 0.60171 0.5026 0.98829 0.0
H270 H 0.39046 0.49679 0.91559 0.0
H271 H 0.27723 0.36954 0.91164 0.0
H272 H 0.41695 0.27542 0.93319 0.0
H273 H 0.52961 0.40281 0.93703 0.0
H274 H 0.48337 0.60459 0.88044 0.0
H275 H 0.39 0.51665 0.84918 0.0
H276 H 0.48646 0.37129 0.85405 0.0
H277 H 0.58128 0.46055 0.88482 0.0
H278 H 0.60051 0.73084 0.8867 0.0
H279 H 0.67512 0.82257 0.85732 0.0
H280 H 0.84942 0.76007 0.86291 0.0
H281 H 0.77265 0.66596 0.89161 0.0
O282 O 0.72871 0.83154 0.06102 0.0
O283 O 0.80744 0.78515 0.06064 0.0
O284 O 0.20631 0.22593 0.91483 0.0
O285 O 0.27648 0.17435 0.92443 0.0
C286 C 0.67296 0.67752 0.93554 0.0
C287 C 0.63424 0.63926 0.9559 0.0
C288 C 0.56578 0.56914 0.95278 0.0
C289 C 0.53705 0.53596 0.92935 0.0
C290 C 0.57447 0.57507 0.90889 0.0
C291 C 0.64247 0.64643 0.91197 0.0
C292 C 0.74312 0.75261 0.9397 0.0
C293 C 0.73549 0.81556 0.94593 0.0
C294 C 0.79444 0.87796 0.95921 0.0
C295 C 0.86189 0.8784 0.9661 0.0
C296 C 0.87309 0.81951 0.95712 0.0
C297 C 0.81378 0.75671 0.94399 0.0
C298 C 0.66341 0.67498 0.98059 0.0
C299 C 0.63207 0.71454 0.99242 0.0
C300 C 0.66153 0.75098 0.01522 0.0
C301 C 0.72271 0.7482 0.0266 0.0
C302 C 0.75331 0.70763 0.01474 0.0
C303 C 0.72379 0.67126 0.99193 0.0
C304 C 0.52093 0.53241 0.97393 0.0
C305 C 0.45003 0.52791 0.97696 0.0
C306 C 0.4045 0.48904 0.99573 0.0
C307 C 0.42974 0.45522 0.01219 0.0
C308 C 0.50192 0.46161 0.00949 0.0
C309 C 0.54714 0.49983 0.99045 0.0
C310 C 0.46824 0.45883 0.92642 0.0
C311 C 0.39654 0.44852 0.91923 0.0
C312 C 0.33198 0.37586 0.91705 0.0
C313 C 0.33807 0.31229 0.92206 0.0
C314 C 0.41021 0.32304 0.92917 0.0
C315 C 0.47463 0.3957 0.93139 0.0
C316 C 0.53984 0.53951 0.88468 0.0
C317 C 0.4874 0.55619 0.87376 0.0
C318 C 0.43334 0.50536 0.85617 0.0
C319 C 0.43065 0.43697 0.84957 0.0
C320 C 0.48729 0.42355 0.85902 0.0
C321 C 0.54205 0.47491 0.8763 0.0
C322 C 0.68067 0.69109 0.89108 0.0
C323 C 0.65348 0.73508 0.88097 0.0
C324 C 0.6968 0.7883 0.8645 0.0
C325 C 0.76887 0.79956 0.85819 0.0
C326 C 0.79412 0.75261 0.8674 0.0
C327 C 0.75038 0.69888 0.88376 0.0
C328 C 0.75549 0.78904 0.05048 0.0
C329 C 0.26954 0.23508 0.92015 0.0
C330 C 0.08811 0.22301 0.16278 0.0
C331 C 0.04103 0.2148 0.1425 0.0
C332 C 0.08397 0.25695 0.18484 0.0
C333 C 0.03202 0.28327 0.18762 0.0
H334 H 0.13003 0.20492 0.16149 0.0
H335 H 0.12273 0.2639 0.19973 0.0
S336 S 0.8927 0.27157 0.14069 0.0
N337 N 0.93787 0.23272 0.12719 0.0
N338 N 0.93103 0.29705 0.16839 0.0
C339 C 0.98294 0.27327 0.16776 0.0
C340 C 0.98726 0.23904 0.14529 0.0
C341 C 0.88967 0.05283 0.49306 0.0
C342 C 0.91827 0.11868 0.48032 0.0
C343 C 0.84659 0.04367 0.51351 0.0
C344 C 0.83004 0.09982 0.52184 0.0
H345 H 0.90371 0.00964 0.48788 0.0
H346 H 0.82768 0.99298 0.52317 0.0
S347 S 0.88502 0.27897 0.49281 0.0
N348 N 0.92378 0.2387 0.47635 0.0
N349 N 0.84029 0.22069 0.5141 0.0
C350 C 0.85596 0.16463 0.50853 0.0
C351 C 0.90064 0.17423 0.48795 0.0
C352 C 0.90634 0.91276 0.81017 0.0
C353 C 0.92142 0.98714 0.81573 0.0
C354 C 0.85675 0.85232 0.82381 0.0
C355 C 0.81993 0.86363 0.84352 0.0
H356 H 0.93296 0.90082 0.79513 0.0
H357 H 0.8468 0.79618 0.8188 0.0
S358 S 0.84252 0.04707 0.86682 0.0
N359 N 0.89609 0.06814 0.84311 0.0
N360 N 0.8047 0.95503 0.86876 0.0
C361 C 0.83486 0.93749 0.84948 0.0
C362 C 0.88503 0.99899 0.83561 0.0
C363 C 0.03077 0.87304 0.13155 0.0
C364 C 0.09326 0.94763 0.13336 0.0
C365 C 0.0243 0.82023 0.14784 0.0
C366 C 0.07962 0.84022 0.16674 0.0
H367 H 0.98658 0.85508 0.11735 0.0
H368 H 0.97562 0.76318 0.14554 0.0
S369 S 0.25153 0.03004 0.18034 0.0
N370 N 0.21048 0.03963 0.15588 0.0
N371 N 0.19712 0.9411 0.187 0.0
C372 C 0.14213 0.91493 0.16888 0.0
C373 C 0.14922 0.96845 0.15207 0.0
C374 C 0.25073 0.12304 0.46768 0.0
C375 C 0.17404 0.09458 0.47353 0.0
C376 C 0.30385 0.12356 0.48431 0.0
C377 C 0.2812 0.09429 0.50703 0.0
H378 H 0.2693 0.14357 0.45001 0.0
H379 H 0.36241 0.14506 0.47914 0.0
S380 S 0.08702 0.01549 0.53093 0.0
N381 N 0.07782 0.03725 0.50331 0.0
N382 N 0.17785 0.03916 0.53484 0.0
C383 C 0.20468 0.06633 0.51308 0.0
C384 C 0.15082 0.06565 0.49615 0.0
C385 C 0.25655 0.24578 0.83137 0.0
C386 C 0.23425 0.25688 0.80859 0.0
C387 C 0.32002 0.3047 0.84455 0.0
C388 C 0.36412 0.37608 0.83513 0.0
H389 H 0.22446 0.19133 0.83907 0.0
H390 H 0.33464 0.29444 0.86228 0.0
S391 S 0.33589 0.42998 0.77482 0.0
N392 N 0.26531 0.34166 0.77612 0.0
N393 N 0.38426 0.45287 0.80107 0.0
C394 C 0.34334 0.38729 0.81216 0.0
C395 C 0.27874 0.32733 0.79875 0.0
C396 C 0.9183 0.09244 0.69909 0.0
C397 C 0.91336 0.1161 0.72293 0.0
C398 C 0.86546 0.08392 0.68064 0.0
C399 C 0.80581 0.09881 0.68532 0.0
H400 H 0.96432 0.0821 0.69449 0.0
H401 H 0.87249 0.0674 0.66246 0.0
S402 S 0.76129 0.1529 0.74497 0.0
N403 N 0.83919 0.14794 0.75037 0.0
N404 N 0.7407 0.1317 0.71577 0.0
C405 C 0.79849 0.11971 0.70915 0.0
C406 C 0.85196 0.12838 0.72791 0.0
C407 C 0.92062 0.96649 0.02962 0.0
C408 C 1.00067 0.01059 0.02921 0.0
C409 C 0.87639 0.9277 0.00865 0.0
C410 C 0.91082 0.92912 0.98672 0.0
H411 H 0.89197 0.96146 0.04634 0.0
H412 H 0.81476 0.89453 0.00976 0.0
S413 S 0.11896 0.03494 0.97641 0.0
N414 N 0.1133 0.05361 0.00535 0.0
N415 N 0.02982 0.97809 0.96583 0.0
C416 C 0.99106 0.97221 0.98613 0.0
C417 C 0.03615 0.013 0.00748 0.0
C418 C 0.07126 0.88792 0.38488 0.0
C419 C 0.01533 0.90782 0.38014 0.0
C420 C 0.06885 0.82526 0.37268 0.0
C421 C 0.01147 0.78076 0.3547 0.0
H422 H 0.11694 0.92052 0.39845 0.0
H423 H 0.11289 0.81203 0.37733 0.0
S424 S 0.85238 0.81136 0.3352 0.0
N425 N 0.90028 0.87847 0.35678 0.0
N426 N 0.89757 0.76308 0.33258 0.0
C427 C 0.95476 0.80025 0.34986 0.0
C428 C 0.95633 0.86322 0.36284 0.0
C429 C 0.30433 0.14064 0.72308 0.0
C430 C 0.22697 0.08371 0.71934 0.0
C431 C 0.36234 0.13675 0.71079 0.0
C432 C 0.34548 0.07656 0.69378 0.0
H433 H 0.3205 0.18843 0.7359 0.0
H434 H 0.421 0.18188 0.71456 0.0
S435 S 0.15063 0.9137 0.67707 0.0
N436 N 0.13585 0.96482 0.69788 0.0
N437 N 0.24413 0.95881 0.67365 0.0
C438 C 0.2679 0.01878 0.68998 0.0
C439 C 0.20888 0.02211 0.70299 0.0
C440 C 0.30651 0.28243 0.04675 0.0
C441 C 0.25691 0.30195 0.05838 0.0
C442 C 0.36539 0.33403 0.03294 0.0
C443 C 0.37724 0.40723 0.0305 0.0
H444 H 0.29656 0.22527 0.04692 0.0
H445 H 0.39871 0.31477 0.02294 0.0
S446 S 0.27233 0.49041 0.06133 0.0
N447 N 0.22923 0.40194 0.06912 0.0
N448 N 0.34176 0.50005 0.04386 0.0
C449 C 0.33207 0.42935 0.04373 0.0
C450 C 0.27144 0.37643 0.0575 0.0
C451 C 0.0291 0.30573 0.38769 0.0
C452 C 0.03856 0.24328 0.38178 0.0
C453 C 0.02285 0.34845 0.36975 0.0
C454 C 0.02756 0.33135 0.34527 0.0
H455 H 0.02737 0.32227 0.4064 0.0
H456 H 0.01687 0.39678 0.3751 0.0
S457 S 0.05013 0.17292 0.3201 0.0
N458 N 0.04967 0.16506 0.34957 0.0
N459 N 0.04001 0.24685 0.31586 0.0
C460 C 0.03566 0.26842 0.33902 0.0
C461 C 0.04046 0.22389 0.35728 0.0
loop_
_geom_bond_atom_site_label_1
_geom_bond_atom_site_label_2
_geom_bond_distance
_geom_bond_site_symmetry_2
_ccdc_geom_bond_type
Mn0 O5 2.095 . S
Mn0 O15 2.162 . S
Mn0 O16 2.297 1_545 S
Mn0 O24 2.385 1_545 S
Mn0 O25 2.209 . S
Mn0 O26 2.094 . S
Mn1 O6 2.121 . S
Mn1 N8 2.257 1_455 S
Mn1 N17 2.282 1_455 S
Mn1 O25 2.215 . S
Mn1 O27 2.117 . S
C2 O24 1.234 1_545 S
C2 O25 1.283 . S
C3 O15 1.281 1_565 S
C3 O16 1.236 . S
C4 O26 1.240 . S
C4 O27 1.264 . S
O5 Mn0 2.095 . S
O5 C14 1.250 . S
O6 Mn1 2.121 . S
O6 C14 1.258 . S
C7 N8 1.326 . S
C7 C11 1.460 . S
C7 H13 0.929 . S
N8 Mn1 2.257 1_655 S
N8 C7 1.326 . S
N8 C12 1.362 . S
C9 C10 1.258 . S
C9 C12 1.431 . S
C9 C29 1.449 . S
C10 C9 1.258 . S
C10 C11 1.477 . S
C10 H30 0.931 . S
C11 C7 1.460 . S
C11 C10 1.477 . S
C11 H31 0.930 . S
C12 N8 1.362 . S
C12 C9 1.431 . S
C12 C22 1.476 . S
H13 C7 0.929 . S
C14 O5 1.250 . S
C14 O6 1.258 . S
O15 Mn0 2.162 . S
O15 C3 1.281 1_545 S
O16 Mn0 2.297 1_565 S
O16 C3 1.236 . S
N17 Mn1 2.282 1_655 S
N17 C18 1.328 1_655 S
N17 C22 1.318 . S
C18 N17 1.328 1_455 S
C18 C19 1.457 1_554 S
C18 H23 0.929 . S
C19 C18 1.457 1_556 S
C19 C20 1.291 1_455 S
C19 H32 0.931 . S
C20 C19 1.291 1_655 S
C20 C21 1.373 . S
C20 H33 0.929 . S
C21 C20 1.373 . S
C21 C22 1.396 1_556 S
C21 C28 1.403 . S
C22 C12 1.476 . S
C22 N17 1.318 . S
C22 C21 1.396 1_554 S
H23 C18 0.929 . S
O24 Mn0 2.385 1_565 S
O24 C2 1.234 1_565 S
O25 Mn0 2.209 . S
O25 Mn1 2.215 . S
O25 C2 1.283 . S
O26 Mn0 2.094 . S
O26 C4 1.240 . S
O27 Mn1 2.117 . S
O27 C4 1.264 . S
C28 C21 1.403 . S
C28 C29 1.399 1_556 S
C28 H34 0.929 . S
C29 C9 1.449 . S
C29 C28 1.399 1_554 S
C29 H35 0.930 . S
H30 C10 0.931 . S
H31 C11 0.930 . S
H32 C19 0.931 . S
H33 C20 0.929 . S
H34 C28 0.929 . S
H35 C29 0.930 . S
Mn36 O41 2.095 1_455 S
Mn36 O51 2.162 1_445 S
Mn36 O52 2.297 1_545 S
Mn36 O60 2.385 1_545 S
Mn36 O61 2.209 . S
Mn36 O62 2.094 1_445 S
Mn37 O42 2.121 . S
Mn37 N44 2.257 . S
Mn37 N53 2.282 . S
Mn37 O61 2.215 . S
Mn37 O63 2.117 1_455 S
C38 O60 1.234 1_545 S
C38 O61 1.283 . S
C39 O51 1.281 1_455 S
C39 O52 1.236 . S
C40 O62 1.240 1_545 S
C40 O63 1.264 . S
O41 Mn36 2.095 1_655 S
O41 C50 1.250 1_655 S
O42 Mn37 2.121 . S
O42 C50 1.258 . S
C43 N44 1.326 . S
C43 C47 1.460 . S
C43 H49 0.929 . S
N44 Mn37 2.257 . S
N44 C43 1.326 . S
N44 C48 1.362 . S
C45 C46 1.258 . S
C45 C48 1.431 . S
C45 C65 1.449 . S
C46 C45 1.258 . S
C46 C47 1.477 . S
C46 H66 0.931 . S
C47 C43 1.460 . S
C47 C46 1.477 . S
C47 H67 0.930 . S
C48 N44 1.362 . S
C48 C45 1.431 . S
C48 C58 1.476 . S
H49 C43 0.929 . S
C50 O41 1.250 1_455 S
C50 O42 1.258 . S
O51 Mn36 2.162 1_665 S
O51 C39 1.281 1_655 S
O52 Mn36 2.297 1_565 S
O52 C39 1.236 . S
N53 Mn37 2.282 . S
N53 C54 1.328 . S
N53 C58 1.318 . S
C54 N53 1.328 . S
C54 C55 1.457 . S
C54 H59 0.929 . S
C55 C54 1.457 . S
C55 C56 1.291 . S
C55 H68 0.931 . S
C56 C55 1.291 . S
C56 C57 1.373 . S
C56 H69 0.929 . S
C57 C56 1.373 . S
C57 C58 1.396 . S
C57 C64 1.403 . S
C58 C48 1.476 . S
C58 N53 1.318 . S
C58 C57 1.396 . S
H59 C54 0.929 . S
O60 Mn36 2.385 1_565 S
O60 C38 1.234 1_565 S
O61 Mn36 2.209 . S
O61 Mn37 2.215 . S
O61 C38 1.283 . S
O62 Mn36 2.094 1_665 S
O62 C40 1.240 1_565 S
O63 Mn37 2.117 1_655 S
O63 C40 1.264 . S
C64 C57 1.403 . S
C64 C65 1.399 . S
C64 H70 0.929 . S
C65 C45 1.449 . S
C65 C64 1.399 . S
C65 H71 0.930 . S
H66 C46 0.931 . S
H67 C47 0.930 . S
H68 C55 0.931 . S
H69 C56 0.929 . S
H70 C64 0.929 . S
H71 C65 0.930 . S
Mn72 O77 2.095 . S
Mn72 O87 2.162 . S
Mn72 O88 2.297 . S
Mn72 O96 2.385 . S
Mn72 O97 2.209 . S
Mn72 O98 2.094 . S
Mn73 O78 2.121 . S
Mn73 N80 2.257 . S
Mn73 N89 2.282 . S
Mn73 O97 2.215 . S
Mn73 O99 2.117 . S
C74 O96 1.234 . S
C74 O97 1.283 . S
C75 O87 1.281 . S
C75 O88 1.236 . S
C76 O98 1.240 . S
C76 O99 1.264 . S
O77 Mn72 2.095 . S
O77 C86 1.250 . S
O78 Mn73 2.121 . S
O78 C86 1.258 . S
C79 N80 1.326 . S
C79 C83 1.460 . S
C79 H85 0.929 . S
N80 Mn73 2.257 . S
N80 C79 1.326 . S
N80 C84 1.362 . S
C81 C82 1.258 . S
C81 C84 1.431 . S
C81 C101 1.449 . S
C82 C81 1.258 . S
C82 C83 1.477 . S
C82 H102 0.931 . S
C83 C79 1.460 . S
C83 C82 1.477 . S
C83 H103 0.930 . S
C84 N80 1.362 . S
C84 C81 1.431 . S
C84 C94 1.476 . S
H85 C79 0.929 . S
C86 O77 1.250 . S
C86 O78 1.258 . S
O87 Mn72 2.162 . S
O87 C75 1.281 . S
O88 Mn72 2.297 . S
O88 C75 1.236 . S
N89 Mn73 2.282 . S
N89 C90 1.328 . S
N89 C94 1.318 . S
C90 N89 1.328 . S
C90 C91 1.457 . S
C90 H95 0.929 . S
C91 C90 1.457 . S
C91 C92 1.291 . S
C91 H104 0.931 . S
C92 C91 1.291 . S
C92 C93 1.373 . S
C92 H105 0.929 . S
C93 C92 1.373 . S
C93 C94 1.396 . S
C93 C100 1.403 . S
C94 C84 1.476 . S
C94 N89 1.318 . S
C94 C93 1.396 . S
H95 C90 0.929 . S
O96 Mn72 2.385 . S
O96 C74 1.234 . S
O97 Mn72 2.209 . S
O97 Mn73 2.215 . S
O97 C74 1.283 . S
O98 Mn72 2.094 . S
O98 C76 1.240 . S
O99 Mn73 2.117 . S
O99 C76 1.264 . S
C100 C93 1.403 . S
C100 C101 1.399 . S
C100 H106 0.929 . S
C101 C81 1.449 . S
C101 C100 1.399 . S
C101 H107 0.930 . S
H102 C82 0.931 . S
H103 C83 0.930 . S
H104 C91 0.931 . S
H105 C92 0.929 . S
H106 C100 0.929 . S
H107 C101 0.930 . S
H108 O134 0.856 . S
H109 O137 0.854 1_545 S
H110 C145 0.930 . S
H111 C146 0.930 . S
H112 C148 0.930 . S
H113 C149 0.930 . S
H114 C151 0.931 1_655 S
H115 C152 0.930 1_655 S
H116 C154 0.930 . S
H117 C155 0.929 . S
H118 C157 0.930 1_655 S
H119 C158 0.931 1_655 S
H120 C160 0.930 . S
H121 C161 0.929 . S
H122 C163 0.931 . S
H123 C164 0.930 . S
H124 C166 0.930 . S
H125 C167 0.932 . S
H126 C169 0.930 . S
H127 C170 0.929 . S
H128 C172 0.931 . S
H129 C173 0.930 . S
H130 C175 0.929 . S
H131 C176 0.931 . S
H132 C178 0.930 . S
H133 C179 0.929 . S
O134 H108 0.856 . S
O134 C180 1.300 . S
O135 C180 1.209 . S
O136 C181 1.200 1_655 S
O137 H109 0.854 1_565 S
O137 C181 1.297 . S
C138 C139 1.404 . S
C138 C143 1.397 . S
C138 C144 1.492 . S
C139 C138 1.404 . S
C139 C140 1.396 . S
C139 C150 1.492 . S
C140 C139 1.396 . S
C140 C141 1.397 . S
C140 C156 1.509 . S
C141 C140 1.397 . S
C141 C142 1.412 . S
C141 C162 1.485 . S
C142 C141 1.412 . S
C142 C143 1.388 . S
C142 C168 1.490 . S
C143 C138 1.397 . S
C143 C142 1.388 . S
C143 C174 1.519 . S
C144 C138 1.492 . S
C144 C145 1.363 1_455 S
C144 C149 1.390 . S
C145 H110 0.930 . S
C145 C144 1.363 1_655 S
C145 C146 1.372 . S
C146 H111 0.930 . S
C146 C145 1.372 . S
C146 C147 1.383 1_655 S
C147 C146 1.383 1_455 S
C147 C148 1.395 . S
C148 H112 0.930 . S
C148 C147 1.395 . S
C148 C149 1.362 . S
C149 H113 0.930 . S
C149 C144 1.390 . S
C149 C148 1.362 . S
C150 C139 1.492 . S
C150 C151 1.377 . S
C150 C155 1.397 . S
C151 H114 0.931 1_455 S
C151 C150 1.377 . S
C151 C152 1.376 . S
C152 H115 0.930 1_455 S
C152 C151 1.376 . S
C152 C153 1.376 . S
C153 C152 1.376 . S
C153 C154 1.378 . S
C153 C180 1.486 . S
C154 H116 0.930 . S
C154 C153 1.378 . S
C154 C155 1.376 . S
C155 H117 0.929 . S
C155 C150 1.397 . S
C155 C154 1.376 . S
C156 C140 1.509 . S
C156 C157 1.391 . S
C156 C161 1.386 . S
C157 H118 0.930 1_455 S
C157 C156 1.391 . S
C157 C158 1.375 . S
C158 H119 0.931 1_455 S
C158 C157 1.375 . S
C158 C159 1.375 . S
C159 C158 1.375 . S
C159 C160 1.361 . S
C160 H120 0.930 . S
C160 C159 1.361 . S
C160 C161 1.399 . S
C161 H121 0.929 . S
C161 C156 1.386 . S
C161 C160 1.399 . S
C162 C141 1.485 . S
C162 C163 1.394 1_455 S
C162 C167 1.360 . S
C163 H122 0.931 . S
C163 C162 1.394 1_655 S
C163 C164 1.372 . S
C164 H123 0.930 . S
C164 C163 1.372 . S
C164 C165 1.397 1_655 S
C165 C164 1.397 1_455 S
C165 C166 1.390 . S
C165 C181 1.476 . S
C166 H124 0.930 . S
C166 C165 1.390 . S
C166 C167 1.366 . S
C167 H125 0.932 . S
C167 C162 1.360 . S
C167 C166 1.366 . S
C168 C142 1.490 . S
C168 C169 1.380 1_455 S
C168 C173 1.386 . S
C169 H126 0.930 . S
C169 C168 1.380 1_655 S
C169 C170 1.381 . S
C170 H127 0.929 . S
C170 C169 1.381 . S
C170 C171 1.371 . S
C171 C170 1.371 . S
C171 C172 1.380 1_655 S
C172 H128 0.931 . S
C172 C171 1.380 1_455 S
C172 C173 1.387 . S
C173 H129 0.930 . S
C173 C168 1.386 . S
C173 C172 1.387 . S
C174 C143 1.519 . S
C174 C175 1.377 1_455 S
C174 C179 1.361 . S
C175 H130 0.929 . S
C175 C174 1.377 1_655 S
C175 C176 1.386 . S
C176 H131 0.931 . S
C176 C175 1.386 . S
C176 C177 1.363 1_655 S
C177 C176 1.363 1_455 S
C177 C178 1.385 . S
C178 H132 0.930 . S
C178 C177 1.385 . S
C178 C179 1.396 . S
C179 H133 0.929 . S
C179 C174 1.361 . S
C179 C178 1.396 . S
C180 O134 1.300 . S
C180 O135 1.209 . S
C180 C153 1.486 . S
C181 O136 1.200 1_455 S
C181 O137 1.297 . S
C181 C165 1.476 . S
H182 O208 0.856 . S
H183 O211 0.854 . S
H184 C219 0.930 . S
H185 C220 0.930 1_565 S
H186 C222 0.930 . S
H187 C223 0.930 . S
H188 C225 0.931 . S
H189 C226 0.930 . S
H190 C228 0.930 . S
H191 C229 0.929 . S
H192 C231 0.930 . S
H193 C232 0.931 . S
H194 C234 0.930 . S
H195 C235 0.929 . S
H196 C237 0.931 . S
H197 C238 0.930 . S
H198 C240 0.930 . S
H199 C241 0.932 . S
H200 C243 0.930 . S
H201 C244 0.929 . S
H202 C246 0.931 . S
H203 C247 0.930 . S
H204 C249 0.929 . S
H205 C250 0.931 . S
H206 C252 0.930 . S
H207 C253 0.929 . S
O208 H182 0.856 . S
O208 C254 1.300 . S
O209 C254 1.209 . S
O210 C255 1.199 . S
O211 H183 0.854 . S
O211 C255 1.297 . S
C212 C213 1.404 . S
C212 C217 1.397 . S
C212 C218 1.492 . S
C213 C212 1.404 . S
C213 C214 1.396 . S
C213 C224 1.492 . S
C214 C213 1.396 . S
C214 C215 1.397 . S
C214 C230 1.509 . S
C215 C214 1.397 . S
C215 C216 1.412 . S
C215 C236 1.485 . S
C216 C215 1.412 . S
C216 C217 1.388 . S
C216 C242 1.490 . S
C217 C212 1.397 . S
C217 C216 1.388 . S
C217 C248 1.519 . S
C218 C212 1.492 . S
C218 C219 1.363 . S
C218 C223 1.390 . S
C219 H184 0.930 . S
C219 C218 1.363 . S
C219 C220 1.372 . S
C220 H185 0.930 1_545 S
C220 C219 1.372 . S
C220 C221 1.383 . S
C221 C220 1.383 . S
C221 C222 1.395 . S
C222 H186 0.930 . S
C222 C221 1.395 . S
C222 C223 1.362 . S
C223 H187 0.930 . S
C223 C218 1.390 . S
C223 C222 1.362 . S
C224 C213 1.492 . S
C224 C225 1.377 . S
C224 C229 1.397 . S
C225 H188 0.931 . S
C225 C224 1.377 . S
C225 C226 1.376 . S
C226 H189 0.930 . S
C226 C225 1.376 . S
C226 C227 1.376 . S
C227 C226 1.376 . S
C227 C228 1.378 . S
C227 C254 1.486 . S
C228 H190 0.930 . S
C228 C227 1.378 . S
C228 C229 1.376 . S
C229 H191 0.929 . S
C229 C224 1.397 . S
C229 C228 1.376 . S
C230 C214 1.509 . S
C230 C231 1.391 . S
C230 C235 1.386 . S
C231 H192 0.930 . S
C231 C230 1.391 . S
C231 C232 1.375 . S
C232 H193 0.931 . S
C232 C231 1.375 . S
C232 C233 1.375 . S
C233 C232 1.375 . S
C233 C234 1.361 . S
C234 H194 0.930 . S
C234 C233 1.361 . S
C234 C235 1.399 . S
C235 H195 0.929 . S
C235 C230 1.386 . S
C235 C234 1.399 . S
C236 C215 1.485 . S
C236 C237 1.394 . S
C236 C241 1.360 . S
C237 H196 0.931 . S
C237 C236 1.394 . S
C237 C238 1.372 . S
C238 H197 0.930 . S
C238 C237 1.372 . S
C238 C239 1.397 . S
C239 C238 1.397 . S
C239 C240 1.390 . S
C239 C255 1.476 . S
C240 H198 0.930 . S
C240 C239 1.390 . S
C240 C241 1.366 . S
C241 H199 0.932 . S
C241 C236 1.360 . S
C241 C240 1.366 . S
C242 C216 1.490 . S
C242 C243 1.380 . S
C242 C247 1.386 . S
C243 H200 0.930 . S
C243 C242 1.380 . S
C243 C244 1.381 . S
C244 H201 0.929 . S
C244 C243 1.381 . S
C244 C245 1.371 . S
C245 C244 1.371 . S
C245 C246 1.380 . S
C246 H202 0.931 . S
C246 C245 1.380 . S
C246 C247 1.387 . S
C247 H203 0.930 . S
C247 C242 1.386 . S
C247 C246 1.387 . S
C248 C217 1.519 . S
C248 C249 1.377 . S
C248 C253 1.361 . S
C249 H204 0.929 . S
C249 C248 1.377 . S
C249 C250 1.386 . S
C250 H205 0.931 . S
C250 C249 1.386 . S
C250 C251 1.363 . S
C251 C250 1.363 . S
C251 C252 1.385 . S
C252 H206 0.930 . S
C252 C251 1.385 . S
C252 C253 1.396 . S
C253 H207 0.929 . S
C253 C248 1.361 . S
C253 C252 1.396 . S
C254 O208 1.300 . S
C254 O209 1.209 . S
C254 C227 1.486 . S
C255 O210 1.199 . S
C255 O211 1.297 . S
C255 C239 1.476 . S
H256 O282 0.856 . S
H257 O285 0.854 . S
H258 C293 0.930 . S
H259 C294 0.930 . S
H260 C296 0.930 . S
H261 C297 0.930 . S
H262 C299 0.931 . S
H263 C300 0.930 . S
H264 C302 0.930 . S
H265 C303 0.912 1_556 S
H266 C305 0.930 . S
H267 C306 0.931 1_554 S
H268 C308 0.930 . S
H269 C309 0.929 . S
H270 C311 0.931 . S
H271 C312 0.930 . S
H272 C314 0.930 . S
H273 C315 0.932 . S
H274 C317 0.930 . S
H275 C318 0.929 . S
H276 C320 0.931 . S
H277 C321 0.930 . S
H278 C323 0.929 . S
H279 C324 0.931 . S
H280 C326 0.930 . S
H281 C327 0.929 . S
O282 H256 0.856 . S
O282 C328 1.300 . S
O283 C328 1.209 . S
O284 C329 1.199 . S
O285 H257 0.854 . S
O285 C329 1.297 . S
C286 C287 1.404 . S
C286 C291 1.397 . S
C286 C292 1.492 . S
C287 C286 1.404 . S
C287 C288 1.396 . S
C287 C298 1.492 . S
C288 C287 1.396 . S
C288 C289 1.397 . S
C288 C304 1.509 . S
C289 C288 1.397 . S
C289 C290 1.412 . S
C289 C310 1.485 . S
C290 C289 1.412 . S
C290 C291 1.388 . S
C290 C316 1.490 . S
C291 C286 1.397 . S
C291 C290 1.388 . S
C291 C322 1.519 . S
C292 C286 1.492 . S
C292 C293 1.363 . S
C292 C297 1.390 . S
C293 H258 0.930 . S
C293 C292 1.363 . S
C293 C294 1.372 . S
C294 H259 0.930 . S
C294 C293 1.372 . S
C294 C295 1.383 . S
C295 C294 1.383 . S
C295 C296 1.395 . S
C296 H260 0.930 . S
C296 C295 1.395 . S
C296 C297 1.362 . S
C297 H261 0.930 . S
C297 C292 1.390 . S
C297 C296 1.362 . S
C298 C287 1.492 . S
C298 C299 1.377 1_556 S
C298 C303 1.389 1_556 S
C299 H262 0.931 . S
C299 C298 1.377 1_554 S
C299 C300 1.376 . S
C300 H263 0.930 . S
C300 C299 1.376 . S
C300 C301 1.376 . S
C301 C300 1.376 . S
C301 C302 1.378 . S
C301 C328 1.486 . S
C302 H264 0.930 . S
C302 C301 1.378 . S
C302 C303 1.401 . S
C303 H265 0.912 1_554 S
C303 C298 1.389 1_554 S
C303 C302 1.401 . S
C304 C288 1.509 . S
C304 C305 1.391 . S
C304 C309 1.386 . S
C305 H266 0.930 . S
C305 C304 1.391 . S
C305 C306 1.373 . S
C306 H267 0.931 1_556 S
C306 C305 1.373 . S
C306 C307 1.377 1_556 S
C307 C306 1.377 1_554 S
C307 C308 1.361 . S
C308 H268 0.930 . S
C308 C307 1.361 . S
C308 C309 1.399 1_554 S
C309 H269 0.929 . S
C309 C304 1.386 . S
C309 C308 1.399 1_556 S
C310 C289 1.485 . S
C310 C311 1.394 . S
C310 C315 1.360 . S
C311 H270 0.931 . S
C311 C310 1.394 . S
C311 C312 1.372 . S
C312 H271 0.930 . S
C312 C311 1.372 . S
C312 C313 1.397 . S
C313 C312 1.397 . S
C313 C314 1.390 . S
C313 C329 1.476 . S
C314 H272 0.930 . S
C314 C313 1.390 . S
C314 C315 1.366 . S
C315 H273 0.932 . S
C315 C310 1.360 . S
C315 C314 1.366 . S
C316 C290 1.490 . S
C316 C317 1.380 . S
C316 C321 1.386 . S
C317 H274 0.930 . S
C317 C316 1.380 . S
C317 C318 1.381 . S
C318 H275 0.929 . S
C318 C317 1.381 . S
C318 C319 1.371 . S
C319 C318 1.371 . S
C319 C320 1.380 . S
C320 H276 0.931 . S
C320 C319 1.380 . S
C320 C321 1.387 . S
C321 H277 0.930 . S
C321 C316 1.386 . S
C321 C320 1.387 . S
C322 C291 1.519 . S
C322 C323 1.377 . S
C322 C327 1.361 . S
C323 H278 0.929 . S
C323 C322 1.377 . S
C323 C324 1.386 . S
C324 H279 0.931 . S
C324 C323 1.386 . S
C324 C325 1.363 . S
C325 C324 1.363 . S
C325 C326 1.385 . S
C326 H280 0.930 . S
C326 C325 1.385 . S
C326 C327 1.396 . S
C327 H281 0.929 . S
C327 C322 1.361 . S
C327 C326 1.396 . S
C328 O282 1.300 . S
C328 O283 1.209 . S
C328 C301 1.486 . S
C329 O284 1.199 . S
C329 O285 1.297 . S
C329 C313 1.476 . S
C330 C331 1.369 . S
C330 C332 1.419 . S
C330 H334 0.930 . S
C331 C330 1.369 . S
C331 C340 1.429 . S
C332 C330 1.419 . S
C332 C333 1.363 . S
C332 H335 0.929 . S
C333 C332 1.363 . S
C333 C339 1.428 . S
H334 C330 0.930 . S
H335 C332 0.929 . S
S336 N337 1.617 . S
S336 N338 1.611 1_455 S
N337 S336 1.617 . S
N337 C340 1.350 . S
N338 S336 1.611 1_655 S
N338 C339 1.351 1_655 S
C339 C333 1.428 . S
C339 N338 1.351 1_455 S
C339 C340 1.434 . S
C340 C331 1.429 . S
C340 N337 1.350 . S
C340 C339 1.434 . S
C341 C342 1.369 1_565 S
C341 C343 1.419 1_565 S
C341 H345 0.930 . S
C342 C341 1.369 1_545 S
C342 C351 1.429 . S
C343 C341 1.419 1_545 S
C343 C344 1.363 . S
C343 H346 0.929 1_545 S
C344 C343 1.363 . S
C344 C350 1.428 . S
H345 C341 0.930 . S
H346 C343 0.929 1_565 S
S347 N348 1.613 1_455 S
S347 N349 1.610 1_455 S
N348 S347 1.613 1_655 S
N348 C351 1.350 . S
N349 S347 1.610 1_655 S
N349 C350 1.351 . S
C350 C344 1.428 . S
C350 N349 1.351 . S
C350 C351 1.434 . S
C351 C342 1.429 . S
C351 N348 1.350 . S
C351 C350 1.434 . S
C352 C353 1.369 . S
C352 C354 1.419 . S
C352 H356 0.930 . S
C353 C352 1.369 . S
C353 C362 1.429 . S
C354 C352 1.419 . S
C354 C355 1.363 . S
C354 H357 0.929 . S
C355 C354 1.363 . S
C355 C361 1.428 . S
H356 C352 0.930 . S
H357 C354 0.929 . S
S358 N359 1.613 . S
S358 N360 1.610 1_545 S
N359 S358 1.613 . S
N359 C362 1.350 1_545 S
N360 S358 1.610 1_565 S
N360 C361 1.351 . S
C361 C355 1.428 . S
C361 N360 1.351 . S
C361 C362 1.434 . S
C362 C353 1.429 . S
C362 N359 1.350 1_565 S
C362 C361 1.434 . S
C363 C364 1.369 . S
C363 C365 1.419 . S
C363 H367 0.930 . S
C364 C363 1.369 . S
C364 C373 1.429 . S
C365 C363 1.419 . S
C365 C366 1.363 . S
C365 H368 0.929 . S
C366 C365 1.363 . S
C366 C372 1.428 . S
H367 C363 0.930 . S
H368 C365 0.929 . S
S369 N370 1.613 . S
S369 N371 1.610 1_545 S
N370 S369 1.613 . S
N370 C373 1.350 1_545 S
N371 S369 1.610 1_565 S
N371 C372 1.351 . S
C372 C366 1.428 . S
C372 N371 1.351 . S
C372 C373 1.434 . S
C373 C364 1.429 . S
C373 N370 1.350 1_565 S
C373 C372 1.434 . S
C374 C375 1.369 . S
C374 C376 1.419 . S
C374 H378 0.930 . S
C375 C374 1.369 . S
C375 C384 1.429 . S
C376 C374 1.419 . S
C376 C377 1.363 . S
C376 H379 0.929 . S
C377 C376 1.363 . S
C377 C383 1.428 . S
H378 C374 0.930 . S
H379 C376 0.929 . S
S380 N381 1.613 . S
S380 N382 1.610 . S
N381 S380 1.613 . S
N381 C384 1.350 . S
N382 S380 1.610 . S
N382 C383 1.351 . S
C383 C377 1.428 . S
C383 N382 1.351 . S
C383 C384 1.434 . S
C384 C375 1.429 . S
C384 N381 1.350 . S
C384 C383 1.434 . S
C385 C386 1.369 . S
C385 C387 1.419 . S
C385 H389 0.930 . S
C386 C385 1.369 . S
C386 C395 1.429 . S
C387 C385 1.419 . S
C387 C388 1.363 . S
C387 H390 0.929 . S
C388 C387 1.363 . S
C388 C394 1.428 . S
H389 C385 0.930 . S
H390 C387 0.929 . S
S391 N392 1.613 . S
S391 N393 1.610 . S
N392 S391 1.613 . S
N392 C395 1.350 . S
N393 S391 1.610 . S
N393 C394 1.351 . S
C394 C388 1.428 . S
C394 N393 1.351 . S
C394 C395 1.434 . S
C395 C386 1.429 . S
C395 N392 1.350 . S
C395 C394 1.434 . S
C396 C397 1.369 . S
C396 C398 1.419 . S
C396 H400 0.930 . S
C397 C396 1.369 . S
C397 C406 1.429 . S
C398 C396 1.419 . S
C398 C399 1.363 . S
C398 H401 0.929 . S
C399 C398 1.363 . S
C399 C405 1.428 . S
H400 C396 0.930 . S
H401 C398 0.929 . S
S402 N403 1.613 . S
S402 N404 1.610 . S
N403 S402 1.613 . S
N403 C406 1.350 . S
N404 S402 1.610 . S
N404 C405 1.351 . S
C405 C399 1.428 . S
C405 N404 1.351 . S
C405 C406 1.434 . S
C406 C397 1.429 . S
C406 N403 1.350 . S
C406 C405 1.434 . S
C407 C408 1.369 . S
C407 C409 1.419 . S
C407 H411 0.930 1_565 S
C408 C407 1.369 . S
C408 C417 1.429 . S
C409 C407 1.419 . S
C409 C410 1.363 1_554 S
C409 H412 0.922 1_565 S
C410 C409 1.363 1_556 S
C410 C416 1.424 1_556 S
H411 C407 0.930 1_545 S
H412 C409 0.922 1_545 S
S413 N414 1.613 . S
S413 N415 1.610 1_554 S
N414 S413 1.613 . S
N414 C417 1.350 . S
N415 S413 1.610 1_556 S
N415 C416 1.344 1_556 S
C416 C410 1.424 1_554 S
C416 N415 1.344 1_554 S
C416 C417 1.446 . S
C417 C408 1.429 . S
C417 N414 1.350 . S
C417 C416 1.446 . S
C418 C419 1.367 1_455 S
C418 C420 1.419 . S
C418 H422 0.930 . S
C419 C418 1.367 1_655 S
C419 C428 1.429 . S
C420 C418 1.419 . S
C420 C421 1.363 1_455 S
C420 H423 0.929 . S
C421 C420 1.363 1_655 S
C421 C427 1.428 . S
H422 C418 0.930 . S
H423 C420 0.929 . S
S424 N425 1.613 . S
S424 N426 1.610 . S
N425 S424 1.613 . S
N425 C428 1.350 . S
N426 S424 1.610 . S
N426 C427 1.351 . S
C427 C421 1.428 . S
C427 N426 1.351 . S
C427 C428 1.434 . S
C428 C419 1.429 . S
C428 N425 1.350 . S
C428 C427 1.434 . S
C429 C430 1.369 . S
C429 C431 1.419 . S
C429 H433 0.930 . S
C430 C429 1.369 . S
C430 C439 1.429 . S
C431 C429 1.419 . S
C431 C432 1.363 . S
C431 H434 0.929 . S
C432 C431 1.363 . S
C432 C438 1.428 . S
H433 C429 0.930 . S
H434 C431 0.929 . S
S435 N436 1.613 . S
S435 N437 1.610 . S
N436 S435 1.613 . S
N436 C439 1.350 1_565 S
N437 S435 1.610 . S
N437 C438 1.351 1_565 S
C438 C432 1.428 . S
C438 N437 1.351 1_545 S
C438 C439 1.434 . S
C439 C430 1.429 . S
C439 N436 1.350 1_545 S
C439 C438 1.434 . S
C440 C441 1.369 . S
C440 C442 1.419 . S
C440 H444 0.930 . S
C441 C440 1.369 . S
C441 C450 1.429 . S
C442 C440 1.419 . S
C442 C443 1.363 . S
C442 H445 0.929 . S
C443 C442 1.363 . S
C443 C449 1.428 . S
H444 C440 0.930 . S
H445 C442 0.929 . S
S446 N447 1.613 . S
S446 N448 1.610 . S
N447 S446 1.613 . S
N447 C450 1.350 . S
N448 S446 1.610 . S
N448 C449 1.351 . S
C449 C443 1.428 . S
C449 N448 1.351 . S
C449 C450 1.434 . S
C450 C441 1.429 . S
C450 N447 1.350 . S
C450 C449 1.434 . S
C451 C452 1.369 1_655 S
C451 C453 1.419 . S
C451 H455 0.930 . S
C452 C451 1.369 1_455 S
C452 C461 1.429 . S
C453 C451 1.419 . S
C453 C454 1.363 1_655 S
C453 H456 0.929 . S
C454 C453 1.363 1_455 S
C454 C460 1.428 . S
H455 C451 0.930 . S
H456 C453 0.929 . S
S457 N458 1.613 . S
S457 N459 1.610 . S
N458 S457 1.613 . S
N458 C461 1.350 . S
N459 S457 1.610 . S
N459 C460 1.351 . S
C460 C454 1.428 . S
C460 N459 1.351 . S
C460 C461 1.434 . S
C461 C452 1.429 . S
C461 N458 1.350 . S
C461 C460 1.434 . S
C333 C147 1.501 . S
C331 C14 1.690 . S
C342 C40 1.531 . S
C344 C221 1.465 . S
C353 C76 2.014 1_665 S
C355 C325 2.031 . S
C364 C3 0.923 . S
C366 C159 0.922 . S
C377 C233 1.005 . S
C375 C38 1.025 . S
C386 C74 1.757 . S
C388 C319 1.557 . S
C399 C251 2.029 . S
C397 C86 1.996 1_655 S
C408 C2 1.621 1_665 S
C410 C295 1.494 . S
C421 C171 1.537 . S
C419 C39 1.727 1_655 S
C432 C245 1.486 . S
C430 C75 1.648 . S
C443 C307 0.932 . S
C441 C4 0.924 . S
C452 C50 2.043 . S
C454 C177 2.094 . S
