# Generated by pormake.
# Topology anh, (6,3)-cn, num edge types: 1
# Building blocks:
#     Node 0, Type 0, BuildingBlock: PAMTOO_clean_sbu_0, # of connection points: 6
#     Node 1, Type 0, BuildingBlock: PAMTOO_clean_sbu_0, # of connection points: 6
#     Node 2, Type 0, BuildingBlock: PAMTOO_clean_sbu_0, # of connection points: 6
#     Node 3, Type 1, BuildingBlock: VETTIZ_charged_linker_0, # of connection points: 3
#     Node 4, Type 1, BuildingBlock: VETTIZ_charged_linker_0, # of connection points: 3
#     Node 5, Type 1, BuildingBlock: VETTIZ_charged_linker_0, # of connection points: 3
#     Node 6, Type 1, BuildingBlock: VETTIZ_charged_linker_0, # of connection points: 3
#     Node 7, Type 1, BuildingBlock: VETTIZ_charged_linker_0, # of connection points: 3
#     Node 8, Type 1, BuildingBlock: VETTIZ_charged_linker_0, # of connection points: 3
#     Edge 9, Type (0, 1), BuildingBlock: UVAHIK_clean_linker_0, # of connection points: 2
#     Edge 10, Type (0, 1), BuildingBlock: UVAHIK_clean_linker_0, # of connection points: 2
#     Edge 11, Type (0, 1), BuildingBlock: UVAHIK_clean_linker_0, # of connection points: 2
#     Edge 12, Type (0, 1), BuildingBlock: UVAHIK_clean_linker_0, # of connection points: 2
#     Edge 13, Type (0, 1), BuildingBlock: UVAHIK_clean_linker_0, # of connection points: 2
#     Edge 14, Type (0, 1), BuildingBlock: UVAHIK_clean_linker_0, # of connection points: 2
#     Edge 15, Type (0, 1), BuildingBlock: UVAHIK_clean_linker_0, # of connection points: 2
#     Edge 16, Type (0, 1), BuildingBlock: UVAHIK_clean_linker_0, # of connection points: 2
#     Edge 17, Type (0, 1), BuildingBlock: UVAHIK_clean_linker_0, # of connection points: 2
#     Edge 18, Type (0, 1), BuildingBlock: UVAHIK_clean_linker_0, # of connection points: 2
#     Edge 19, Type (0, 1), BuildingBlock: UVAHIK_clean_linker_0, # of connection points: 2
#     Edge 20, Type (0, 1), BuildingBlock: UVAHIK_clean_linker_0, # of connection points: 2
#     Edge 21, Type (0, 1), BuildingBlock: UVAHIK_clean_linker_0, # of connection points: 2
#     Edge 22, Type (0, 1), BuildingBlock: UVAHIK_clean_linker_0, # of connection points: 2
#     Edge 23, Type (0, 1), BuildingBlock: UVAHIK_clean_linker_0, # of connection points: 2
#     Edge 24, Type (0, 1), BuildingBlock: UVAHIK_clean_linker_0, # of connection points: 2
#     Edge 25, Type (0, 1), BuildingBlock: UVAHIK_clean_linker_0, # of connection points: 2
#     Edge 26, Type (0, 1), BuildingBlock: UVAHIK_clean_linker_0, # of connection points: 2
# Relax obj value: 0.165
# Max RMSD: 0.189
# Mean RMSD: 0.153
data_MOF--net-anh--node1-PAMTOO_clean_sbu_0--node2-VETTIZ_charged_linker_0--edge1-UVAHIK_clean_linker_0
_symmetry_space_group_name_H-M    P1
_symmetry_Int_Tables_number       1
_symmetry_cell_setting            triclinic
loop_
_symmetry_equiv_pos_as_xyz
'x, y, z'
_cell_length_a     44.932256
_cell_length_b     43.511249
_cell_length_c     82.395102
_cell_angle_alpha  90.292588
_cell_angle_beta   95.221959
_cell_angle_gamma 107.77335
loop_
_atom_site_label
_atom_site_type_symbol
_atom_site_fract_x
_atom_site_fract_y
_atom_site_fract_z
_atom_type_partial_charge
Dy0 Dy 0.05193 0.59723 0.15282 0.0
Dy1 Dy 1.02598 0.51859 0.14611 0.0
C2 C 0.04661 0.56738 0.11723 0.0
O3 O 0.99967 0.58531 0.14538 0.0
O4 O 0.98468 0.5329 0.15332 0.0
O5 O 0.05904 0.64601 0.14468 0.0
O6 O 0.07307 0.63756 0.1697 0.0
O7 O 1.03743 0.52538 0.17307 0.0
O8 O 1.03366 0.5764 0.17587 0.0
O9 O 0.07807 0.53084 0.14415 0.0
O10 O 0.09529 0.58113 0.15705 0.0
O11 O 1.0261 0.46978 0.1508 0.0
O12 O 0.99339 0.4786 0.13184 0.0
C13 C 0.97765 0.55934 0.14938 0.0
O14 O 0.06398 0.58931 0.12794 0.0
O15 O 1.02602 0.54113 0.12174 0.0
C16 C 0.10544 0.68368 0.15804 0.0
C17 C 0.16619 0.72825 0.15813 0.0
C18 C 0.14809 0.71637 0.14332 0.0
C19 C 0.118 0.69411 0.14326 0.0
C20 C 0.12321 0.69653 0.1728 0.0
C21 C 0.15329 0.71837 0.17285 0.0
C22 C 0.07448 0.65892 0.15851 0.0
C23 C 1.03517 0.54925 0.18215 0.0
C24 C 0.10097 0.55554 0.15099 0.0
C25 C 0.97566 0.43133 0.14636 0.0
C26 C 0.92299 0.38384 0.15655 0.0
C27 C 0.94032 0.41007 0.16707 0.0
C28 C 0.9663 0.43369 0.16199 0.0
C29 C 0.9588 0.40507 0.13592 0.0
C30 C 0.93269 0.38155 0.14094 0.0
C31 C 1.00164 0.45696 0.14042 0.0
H32 H 0.15753 0.72364 0.13181 0.0
H33 H 0.10485 0.68478 0.13167 0.0
H34 H 0.11401 0.68927 0.18437 0.0
H35 H 0.16653 0.72756 0.18444 0.0
H36 H 0.93385 0.4124 0.17925 0.0
H37 H 0.97887 0.45396 0.17019 0.0
H38 H 0.9655 0.40307 0.12374 0.0
H39 H 0.91968 0.36203 0.13242 0.0
Dy40 Dy 0.54946 0.01868 0.5122 0.0
Dy41 Dy 0.62664 0.03902 0.51487 0.0
C42 C 0.59003 0.02979 0.54588 0.0
O43 O 0.56438 0.07108 0.50663 0.0
O44 O 0.61528 0.08505 0.51844 0.0
O45 O 0.5075 0.00079 0.52454 0.0
O46 O 0.50412 0.01342 0.49916 0.0
O47 O 0.60971 0.04757 0.4895 0.0
O48 O 0.56302 0.00717 0.48806 0.0
O49 O 0.61124 0.98565 0.5098 0.0
O50 O 0.56071 0.97279 0.5171 0.0
O51 O 0.67009 0.04082 0.50508 0.0
O52 O 0.67083 0.06207 0.52904 0.0
C53 C 0.59078 0.09298 0.51213 0.0
O54 O 0.56912 0.03961 0.53708 0.0
O55 O 0.61082 0.02033 0.5388 0.0
C56 C 0.46335 0.96935 0.50789 0.0
C57 C 0.41563 0.90942 0.50289 0.0
C58 C 0.41665 0.92997 0.51631 0.0
C59 C 0.4402 0.95964 0.51874 0.0
C60 C 0.46249 0.94903 0.49444 0.0
C61 C 0.43875 0.91944 0.49192 0.0
C62 C 0.48888 -8e-05 0.51134 0.0
C63 C 0.58583 0.02705 0.4809 0.0
C64 C 0.58504 0.96433 0.51335 0.0
C65 C 0.71034 0.08935 0.5129 0.0
C66 C 0.75307 0.14947 0.50627 0.0
C67 C 0.72434 0.137 0.49654 0.0
C68 C 0.70311 0.10736 0.49989 0.0
C69 C 0.73903 0.10139 0.52252 0.0
C70 C 0.76021 0.1312 0.51926 0.0
C71 C 0.68727 0.05921 0.5172 0.0
H72 H 0.39964 0.92289 0.52517 0.0
H73 H 0.44063 0.97484 0.52927 0.0
H74 H 0.48024 0.95585 0.48595 0.0
H75 H 0.43848 0.90451 0.48132 0.0
H76 H 0.71823 0.15009 0.48628 0.0
H77 H 0.68089 0.09866 0.4924 0.0
H78 H 0.7448 0.088 0.53275 0.0
H79 H 0.78186 0.14022 0.52716 0.0
Dy80 Dy 0.5498 0.48353 0.84186 0.0
Dy81 Dy 0.47431 0.45568 0.83166 0.0
C82 C 0.52291 0.4736 0.80455 0.0
O83 O 0.53039 0.52423 0.84638 0.0
O84 O 0.48937 0.50831 0.82657 0.0
O85 O 0.59385 0.52169 0.84283 0.0
O86 O 0.59216 0.47516 0.85264 0.0
O87 O 0.47936 0.46991 0.85813 0.0
O88 O 0.52949 0.46851 0.86522 0.0
O89 O 0.48847 0.41363 0.84095 0.0
O90 O 0.53795 0.43204 0.83296 0.0
O91 O 0.42682 0.45239 0.83599 0.0
O92 O 0.43541 0.42826 0.81476 0.0
C93 C 0.50895 0.53093 0.83633 0.0
O94 O 0.54426 0.4919 0.81532 0.0
O95 O 0.49705 0.45314 0.8089 0.0
C96 C 0.63601 0.50212 0.8392 0.0
C97 C 0.68641 0.50155 0.82146 0.0
C98 C 0.65601 0.49491 0.8135 0.0
C99 C 0.63093 0.49504 0.82234 0.0
C100 C 0.66613 0.50833 0.84721 0.0
C101 C 0.69116 0.50804 0.83842 0.0
C102 C 0.61001 0.50309 0.84847 0.0
C103 C 0.50216 0.46938 0.86918 0.0
C104 C 0.51437 0.40827 0.83736 0.0
C105 C 0.3986 0.45681 0.81155 0.0
C106 C 0.37117 0.5029 0.7991 0.0
C107 C 0.40221 0.50535 0.79642 0.0
C108 C 0.41582 0.48246 0.8026 0.0
C109 C 0.36691 0.45278 0.8131 0.0
C110 C 0.3532 0.47559 0.80683 0.0
C111 C 0.41527 0.43864 0.82176 0.0
H112 H 0.65165 0.4897 0.80048 0.0
H113 H 0.60764 0.48992 0.816 0.0
H114 H 0.67037 0.51379 0.86022 0.0
H115 H 0.71442 0.51383 0.84485 0.0
H116 H 0.41653 0.52603 0.79045 0.0
H117 H 0.44045 0.48607 0.80136 0.0
H118 H 0.35343 0.43335 0.82013 0.0
H119 H 0.32934 0.47324 0.80928 0.0
C120 C 0.63198 0.12424 0.20576 0.0
C121 C 0.65673 0.14805 0.2146 0.0
C122 C 0.65912 0.1484 0.23176 0.0
C123 C 0.61271 0.10187 0.23114 0.0
C124 C 0.61008 0.10159 0.21429 0.0
C125 C 0.58149 0.0753 0.20699 0.0
H126 H 0.45467 0.94753 0.21919 0.0
C127 C 0.58636 0.07542 0.23633 0.0
C128 C 0.56772 0.05981 0.22225 0.0
H129 H 0.4835 0.98665 0.17303 0.0
H130 H 0.52747 0.0282 0.18716 0.0
H131 H 0.52433 0.95395 0.23628 0.0
H132 H 0.46312 0.01291 0.23662 0.0
H133 H 0.48334 0.01797 0.25617 0.0
H134 H 0.45812 0.97841 0.24911 0.0
H135 H 0.48845 0.94286 0.24591 0.0
H136 H 0.52494 0.96699 0.25657 0.0
C137 C 0.59263 0.05183 0.19669 0.0
C138 C 0.55945 0.09132 0.19722 0.0
C139 C 0.57939 0.054 0.29672 0.0
C140 C 0.5572 0.03176 0.30537 0.0
C141 C 0.53066 0.01006 0.29651 0.0
C142 C 0.52659 0.01009 0.27946 0.0
C143 C 0.54911 0.03221 0.27104 0.0
C144 C 0.57474 0.05395 0.27967 0.0
C145 C 0.59552 0.07661 0.26869 0.0
C146 C 0.57834 0.06447 0.25203 0.0
C147 C 0.55141 0.03831 0.2535 0.0
C148 C 0.62826 0.07144 0.2708 0.0
C149 C 0.59569 0.11149 0.27289 0.0
C150 C 0.47066 0.9648 0.21209 0.0
C151 C 0.46599 0.96356 0.19499 0.0
C152 C 0.48676 0.9871 0.18623 0.0
C153 C 0.51225 0.01109 0.19445 0.0
C154 C 0.51676 0.01169 0.21162 0.0
C155 C 0.49587 0.98887 0.22008 0.0
C156 C 0.50338 0.99336 0.23821 0.0
C157 C 0.53253 0.02245 0.23935 0.0
C158 C 0.54049 0.03311 0.22378 0.0
C159 C 0.5105 0.96273 0.24473 0.0
C160 C 0.4756 0.00084 0.24553 0.0
H161 H 0.64064 0.127 0.25312 0.0
H162 H 0.62944 0.12363 0.19255 0.0
H163 H 0.56013 0.11444 0.20332 0.0
H164 H 0.53455 0.07646 0.1964 0.0
H165 H 0.56651 0.09678 0.18472 0.0
H166 H 0.61346 0.04697 0.20319 0.0
H167 H 0.59942 0.06223 0.18479 0.0
H168 H 0.57481 0.02799 0.19443 0.0
H169 H 0.60015 0.07097 0.30301 0.0
H170 H 0.51271 0.99319 0.30275 0.0
H171 H 0.50597 0.99287 0.27352 0.0
H172 H 0.62587 0.04529 0.2716 0.0
H173 H 0.64202 0.08385 0.28215 0.0
H174 H 0.64217 0.07972 0.26041 0.0
H175 H 0.57376 0.1116 0.27814 0.0
H176 H 0.59642 0.12638 0.262 0.0
H177 H 0.61571 0.12384 0.28194 0.0
H178 H 0.67816 0.16631 0.23881 0.0
C179 C 0.63736 0.12546 0.24006 0.0
C180 C 0.57701 0.61065 0.53373 0.0
C181 C 0.57122 0.63662 0.54177 0.0
C182 C 0.56656 0.63469 0.55843 0.0
C183 C 0.57337 0.58169 0.55902 0.0
C184 C 0.57763 0.5832 0.54259 0.0
C185 C 0.58171 0.55233 0.53609 0.0
H186 H 0.59686 0.40408 0.55249 0.0
C187 C 0.57529 0.55029 0.56479 0.0
C188 C 0.58007 0.5327 0.55143 0.0
H189 H 0.59528 0.4464 0.50532 0.0
H190 H 0.58823 0.49444 0.51771 0.0
H191 H 0.6381 0.46884 0.57335 0.0
H192 H 0.53948 0.42026 0.56264 0.0
H193 H 0.54346 0.43697 0.58241 0.0
H194 H 0.56267 0.4072 0.57838 0.0
H195 H 0.6181 0.43076 0.58155 0.0
H196 H 0.62057 0.46845 0.59161 0.0
C197 C 0.61428 0.56049 0.52954 0.0
C198 C 0.55395 0.53662 0.52312 0.0
C199 C 0.56589 0.52516 0.62469 0.0
C200 C 0.56604 0.49777 0.63362 0.0
C201 C 0.57047 0.47102 0.62564 0.0
C202 C 0.5746 0.47148 0.609 0.0
C203 C 0.5741 0.49889 0.60016 0.0
C204 C 0.56974 0.52509 0.60801 0.0
C205 C 0.56901 0.5517 0.59655 0.0
C206 C 0.57367 0.53709 0.58053 0.0
C207 C 0.57682 0.50634 0.58278 0.0
C208 C 0.59702 0.58183 0.60227 0.0
C209 C 0.53624 0.55681 0.5962 0.0
C210 C 0.59532 0.42388 0.54487 0.0
C211 C 0.59709 0.42194 0.52804 0.0
C212 C 0.59415 0.44767 0.51838 0.0
C213 C 0.59004 0.47539 0.52559 0.0
C214 C 0.5883 0.47693 0.54256 0.0
C215 C 0.59061 0.45114 0.55179 0.0
C216 C 0.58645 0.45553 0.56938 0.0
C217 C 0.58173 0.48848 0.56941 0.0
C218 C 0.58312 0.5013 0.55375 0.0
C219 C 0.61722 0.45573 0.57964 0.0
C220 C 0.55667 0.4286 0.57357 0.0
H221 H 0.56406 0.60777 0.57974 0.0
H222 H 0.58033 0.61148 0.52087 0.0
H223 H 0.5319 0.54031 0.5266 0.0
H224 H 0.5487 0.51019 0.52189 0.0
H225 H 0.55848 0.54732 0.51103 0.0
H226 H 0.63258 0.57675 0.53839 0.0
H227 H 0.6144 0.57297 0.51781 0.0
H228 H 0.62185 0.539 0.52772 0.0
H229 H 0.56215 0.54592 0.63047 0.0
H230 H 0.57096 0.44979 0.63233 0.0
H231 H 0.57796 0.45038 0.60369 0.0
H232 H 0.6181 0.57472 0.6066 0.0
H233 H 0.59131 0.59504 0.61252 0.0
H234 H 0.60465 0.59872 0.59243 0.0
H235 H 0.51788 0.5342 0.5989 0.0
H236 H 0.52786 0.5633 0.58404 0.0
H237 H 0.53627 0.57561 0.60537 0.0
H238 H 0.56226 0.65451 0.56483 0.0
C239 C 0.56771 0.60754 0.56708 0.0
C240 C 0.18477 0.68242 0.85429 0.0
C241 C 0.213 0.68677 0.86419 0.0
C242 C 0.21277 0.68853 0.88128 0.0
C243 C 0.15616 0.67663 0.87824 0.0
C244 C 0.1568 0.67721 0.86151 0.0
C245 C 0.12456 0.66828 0.85257 0.0
H246 H 0.96744 0.61489 0.85421 0.0
C247 C 0.12288 0.66633 0.88169 0.0
C248 C 0.10436 0.66172 0.86667 0.0
H249 H 1.02011 0.63577 0.8121 0.0
H250 H 0.0687 0.65263 0.82968 0.0
H251 H 1.01233 0.57978 0.87319 0.0
H252 H 1.00828 0.67716 0.87635 0.0
H253 H 1.01607 0.66587 0.89634 0.0
H254 H 0.97984 0.64391 0.88455 0.0
H255 H 0.98145 0.58991 0.88215 0.0
H256 H 1.01768 0.59137 0.89394 0.0
C257 C 0.11967 0.63738 0.84181 0.0
C258 C 0.12156 0.69795 0.84303 0.0
C259 C 0.09436 0.64337 0.93972 0.0
C260 C 0.06545 0.63218 0.94646 0.0
C261 C 1.03739 0.62666 0.93615 0.0
C262 C 1.03805 0.63163 0.91939 0.0
C263 C 0.06707 0.64216 0.91278 0.0
C264 C 0.09461 0.64827 0.92293 0.0
C265 C 0.12325 0.65966 0.91374 0.0
C266 C 0.10832 0.65906 0.8964 0.0
C267 C 0.0754 0.64846 0.89591 0.0
C268 C 0.14156 0.63478 0.91591 0.0
C269 C 0.14223 0.69437 0.91999 0.0
C270 C 0.98949 0.6235 0.84882 0.0
C271 C 0.99012 0.6243 0.83179 0.0
C272 C 1.01919 0.63493 0.82519 0.0
C273 C 0.0473 0.64479 0.83543 0.0
C274 C 0.04633 0.64352 0.85245 0.0
C275 C 1.01775 0.633 0.85887 0.0
C276 C 1.02126 0.63215 0.87718 0.0
C277 C 0.05672 0.64428 0.88072 0.0
C278 C 0.07118 0.65085 0.8662 0.0
C279 C 1.00734 0.59659 0.88202 0.0
C280 C 1.00541 0.65576 0.88409 0.0
H281 H 0.18567 0.68416 0.90143 0.0
H282 H 0.18388 0.6803 0.84114 0.0
H283 H 0.13419 0.72081 0.85009 0.0
H284 H 0.09706 0.69834 0.84082 0.0
H285 H 0.13178 0.69911 0.83119 0.0
H286 H 0.13294 0.62175 0.84751 0.0
H287 H 0.12788 0.64354 0.82958 0.0
H288 H 0.09504 0.6217 0.84031 0.0
H289 H 0.11634 0.64831 0.94735 0.0
H290 H 1.01482 0.61781 0.941 0.0
H291 H 1.01588 0.62669 0.91219 0.0
H292 H 0.1251 0.60972 0.91516 0.0
H293 H 0.15558 0.63836 0.92798 0.0
H294 H 0.1573 0.63549 0.90632 0.0
H295 H 0.12635 0.70802 0.92348 0.0
H296 H 0.15562 0.70888 0.91057 0.0
H297 H 0.15859 0.69404 0.93089 0.0
H298 H 0.23428 0.6922 0.88918 0.0
C299 C 0.1845 0.68363 0.88836 0.0
C300 C 0.99507 0.46004 0.45994 0.0
C301 C 0.96784 0.43789 0.45204 0.0
C302 C 0.96172 0.43867 0.43501 0.0
C303 C 1.00999 0.48239 0.43385 0.0
C304 C 1.01562 0.4823 0.45063 0.0
C305 C 0.0451 0.50849 0.45697 0.0
H306 H 0.17514 0.62818 0.44043 0.0
C307 C 1.0361 0.50773 0.42769 0.0
C308 C 0.05671 0.52337 0.44117 0.0
H309 H 0.14486 0.59929 0.48781 0.0
H310 H 0.09871 0.55839 0.47505 0.0
H311 H 0.15566 0.55588 0.42331 0.0
H312 H 0.1107 0.62976 0.4253 0.0
H313 H 0.09922 0.61136 0.4058 0.0
H314 H 0.14027 0.63169 0.41178 0.0
H315 H 0.16833 0.59331 0.41308 0.0
H316 H 0.13849 0.55866 0.40355 0.0
C317 C 0.06803 0.4924 0.46582 0.0
C318 C 1.03585 0.53256 0.46789 0.0
C319 C 1.04011 0.52099 0.36654 0.0
C320 C 0.06154 0.54232 0.35721 0.0
C321 C 0.08826 0.56515 0.36523 0.0
C322 C 0.09359 0.56679 0.38225 0.0
C323 C 0.07191 0.54545 0.39144 0.0
C324 C 0.04567 0.5231 0.38359 0.0
C325 C 1.02492 0.50286 0.39539 0.0
C326 C 0.04312 0.51674 0.4116 0.0
C327 C 0.07064 0.54151 0.40918 0.0
C328 C 1.02357 0.46726 0.39239 0.0
C329 C 0.99258 0.50902 0.39314 0.0
C330 C 0.15878 0.61269 0.44805 0.0
C331 C 0.16371 0.61645 0.46509 0.0
C332 C 0.14147 0.59659 0.47463 0.0
C333 C 0.11477 0.57297 0.4672 0.0
C334 C 0.1101 0.56961 0.45008 0.0
C335 C 0.13185 0.58955 0.44084 0.0
C336 C 0.12239 0.58416 0.42287 0.0
C337 C 0.09143 0.55749 0.42274 0.0
C338 C 0.08444 0.54871 0.43867 0.0
C339 C 0.14749 0.57259 0.41515 0.0
C340 C 0.11807 0.6158 0.41593 0.0
H341 H 0.97675 0.45981 0.41295 0.0
H342 H 1.00005 0.4602 0.47306 0.0
H343 H 1.01193 0.53373 0.46381 0.0
H344 H 0.05135 0.55764 0.46726 0.0
H345 H 1.03586 0.52533 0.4808 0.0
H346 H 0.06901 0.47126 0.45848 0.0
H347 H 0.06033 0.48369 0.47787 0.0
H348 H 0.09238 0.50862 0.46769 0.0
H349 H 1.01917 0.50343 0.36073 0.0
H350 H 0.10527 0.58161 0.35828 0.0
H351 H 0.11441 0.58465 0.38758 0.0
H352 H 0.04709 0.46569 0.39006 0.0
H353 H 1.00695 0.45624 0.3816 0.0
H354 H 1.01696 0.45209 0.40296 0.0
H355 H 0.99489 0.53373 0.38878 0.0
H356 H 0.98166 0.50803 0.40471 0.0
H357 H 0.97607 0.49157 0.38408 0.0
H358 H 0.94096 0.42168 0.42869 0.0
C359 C 0.98264 0.4607 0.42588 0.0
C360 C 0.51765 0.88551 0.81441 0.0
C361 C 0.51621 0.85721 0.80549 0.0
C362 C 0.52078 0.85916 0.78882 0.0
C363 C 0.52802 0.91657 0.78993 0.0
C364 C 0.52326 0.91495 0.8063 0.0
C365 C 0.52401 0.94743 0.81334 0.0
H366 H 0.54878 0.10817 0.80092 0.0
C367 C 0.53335 0.95022 0.78499 0.0
C368 C 0.53104 0.96871 0.79862 0.0
H369 H 0.52144 0.05839 0.84491 0.0
H370 H 0.52118 0.00758 0.83205 0.0
H371 H 0.5981 0.07226 0.79214 0.0
H372 H 0.5005 0.05842 0.77804 0.0
H373 H 0.51512 0.04772 0.76059 0.0
H374 H 0.53088 0.08842 0.7691 0.0
H375 H 0.5843 0.09844 0.77874 0.0
H376 H 0.59214 0.06305 0.77109 0.0
C377 C 0.55079 0.95782 0.82728 0.0
C378 C 0.49122 0.94442 0.81876 0.0
C379 C 0.55533 0.97916 0.72649 0.0
C380 C 0.56092 0.00834 0.71826 0.0
C381 C 0.56246 0.03676 0.72702 0.0
C382 C 0.55805 0.03613 0.74361 0.0
C383 C 0.55187 0.00673 0.75162 0.0
C384 C 0.55077 0.97893 0.74311 0.0
C385 C 0.54364 0.94993 0.75366 0.0
C386 C 0.54035 0.96495 0.76986 0.0
C387 C 0.54526 0.99813 0.76854 0.0
C388 C 0.57229 0.937 0.75467 0.0
C389 C 0.51225 0.92537 0.7464 0.0
C390 C 0.54311 0.08641 0.80788 0.0
C391 C 0.53568 0.08725 0.82398 0.0
C392 C 0.52745 0.05825 0.83248 0.0
C393 C 0.52729 0.02889 0.82499 0.0
C394 C 0.53481 0.02857 0.80875 0.0
C395 C 0.54224 0.05717 0.80054 0.0
C396 C 0.54786 0.05285 0.78319 0.0
C397 C 0.54304 0.01695 0.78219 0.0
C398 C 0.5357 0.00252 0.79718 0.0
C399 C 0.58227 0.07277 0.78101 0.0
C400 C 0.52255 0.06249 0.77205 0.0
H401 H 0.53006 0.88817 0.76834 0.0
H402 H 0.51389 0.88456 0.82721 0.0
H403 H 0.47239 0.9289 0.80991 0.0
H404 H 0.48645 0.96781 0.81921 0.0
H405 H 0.48841 0.93342 0.83089 0.0
H406 H 0.57266 0.9544 0.82338 0.0
H407 H 0.54451 0.94317 0.83818 0.0
H408 H 0.55673 0.98356 0.83094 0.0
H409 H 0.55379 0.95686 0.72006 0.0
H410 H 0.56724 0.05962 0.72103 0.0
H411 H 0.55949 0.05863 0.7495 0.0
H412 H 0.59463 0.95722 0.75495 0.0
H413 H 0.57115 0.92098 0.74394 0.0
H414 H 0.57475 0.92397 0.76592 0.0
H415 H 0.49637 0.93789 0.74024 0.0
H416 H 0.49855 0.91112 0.7558 0.0
H417 H 0.51632 0.90865 0.73723 0.0
H418 H 0.51996 0.83776 0.78178 0.0
C419 C 0.52676 0.88854 0.78104 0.0
C420 C 0.6248 0.55701 0.14436 0.0
C421 C 0.65145 0.55728 0.13605 0.0
C422 C 0.64907 0.55915 0.11902 0.0
C423 C 0.59471 0.55804 0.11829 0.0
C424 C 0.59638 0.55747 0.13511 0.0
C425 C 0.56472 0.55693 0.14097 0.0
H426 H 0.41103 0.55295 0.1162 0.0
C427 C 0.56257 0.55675 0.11176 0.0
C428 C 0.54423 0.55646 0.12485 0.0
H429 H 0.44857 0.55417 0.16635 0.0
H430 H 0.50003 0.55635 0.15728 0.0
H431 H 0.46819 0.60425 0.10346 0.0
H432 H 0.43707 0.50103 0.10483 0.0
H433 H 0.45459 0.50892 0.08657 0.0
H434 H 0.42103 0.52218 0.08952 0.0
H435 H 0.43547 0.57907 0.09051 0.0
H436 H 0.47486 0.5905 0.08448 0.0
C437 C 0.56935 0.58781 0.15135 0.0
C438 C 0.55178 0.5261 0.15046 0.0
C439 C 0.53642 0.54507 0.05019 0.0
C440 C 0.50839 0.54069 0.04004 0.0
C441 C 0.48139 0.54192 0.04714 0.0
C442 C 0.4821 0.54674 0.06399 0.0
C443 C 0.51001 0.54999 0.07404 0.0
C444 C 0.53657 0.54943 0.06706 0.0
C445 C 0.56393 0.5528 0.07958 0.0
C446 C 0.54917 0.55466 0.09534 0.0
C447 C 0.51777 0.55314 0.09197 0.0
C448 C 0.58973 0.58484 0.07658 0.0
C449 C 0.57395 0.52179 0.07819 0.0
C450 C 0.42991 0.55336 0.12545 0.0
C451 C 0.42502 0.55275 0.142 0.0
C452 C 0.45126 0.55445 0.15343 0.0
C453 C 0.48108 0.55559 0.14817 0.0
C454 C 0.48488 0.55517 0.13132 0.0
C455 C 0.45906 0.55412 0.1205 0.0
C456 C 0.46518 0.55253 0.10312 0.0
C457 C 0.49917 0.55366 0.10487 0.0
C458 C 0.51164 0.55522 0.12138 0.0
C459 C 0.46054 0.58294 0.09482 0.0
C460 C 0.44333 0.51969 0.09547 0.0
H461 H 0.62169 0.56065 0.09729 0.0
H462 H 0.6259 0.55582 0.15751 0.0
H463 H 0.55091 0.5044 0.14302 0.0
H464 H 0.5277 0.52318 0.15359 0.0
H465 H 0.56696 0.52664 0.16195 0.0
H466 H 0.58082 0.60955 0.14453 0.0
H467 H 0.58448 0.58796 0.16282 0.0
H468 H 0.54678 0.59008 0.15458 0.0
H469 H 0.5578 0.54483 0.04517 0.0
H470 H 0.45932 0.53825 0.03974 0.0
H471 H 0.46062 0.54721 0.0685 0.0
H472 H 0.57957 0.60252 0.07035 0.0
H473 H 0.60715 0.58061 0.06882 0.0
H474 H 0.60214 0.59763 0.08808 0.0
H475 H 0.55322 0.50025 0.07489 0.0
H476 H 0.58483 0.51564 0.08977 0.0
H477 H 0.59031 0.52386 0.06864 0.0
H478 H 0.66898 0.5598 0.11236 0.0
C479 C 0.62131 0.55965 0.11023 0.0
C480 C 0.14108 0.52511 0.15156 0.0
C481 C 0.13435 0.55464 0.15178 0.0
C482 C 0.17225 0.52414 0.15233 0.0
C483 C 0.25803 0.57759 0.15927 0.0
H484 H 0.27235 0.50114 0.14193 0.0
C485 C 0.3862 0.56793 0.15918 0.0
C486 C 0.39218 0.54954 0.14645 0.0
C487 C 0.35515 0.56757 0.1614 0.0
C488 C 0.26929 0.52311 0.14662 0.0
H489 H 0.15584 0.6065 0.1528 0.0
H490 H 0.20965 0.60508 0.15316 0.0
H491 H 0.21961 0.50365 0.14152 0.0
H492 H 0.3691 0.51468 0.12679 0.0
H493 H 0.31664 0.51533 0.12994 0.0
H494 H 0.30816 0.59779 0.16331 0.0
C495 C 0.19114 0.58231 0.15306 0.0
C496 C 0.23834 0.52429 0.14673 0.0
C497 C 0.15994 0.58323 0.15271 0.0
C498 C 0.36594 0.5298 0.13656 0.0
C499 C 0.33527 0.52978 0.13858 0.0
C500 C 0.28914 0.57669 0.15883 0.0
C501 C 0.19813 0.55271 0.1529 0.0
C502 C 0.23182 0.55155 0.15303 0.0
C503 C 0.32899 0.54887 0.15092 0.0
C504 C 0.29554 0.54949 0.15236 0.0
H505 H 0.12215 0.50253 0.15106 0.0
H506 H 0.17579 0.50066 0.15266 0.0
H507 H 0.25479 0.59896 0.1646 0.0
H508 H 0.40557 0.58348 0.16709 0.0
H509 H 0.35183 0.58224 0.1713 0.0
C510 C 0.80791 0.18685 0.5047 0.0
C511 C 0.77525 0.18151 0.50294 0.0
C512 C 0.8286 0.21673 0.50114 0.0
C513 C 0.83229 0.2862 0.47596 0.0
H514 H 0.90806 0.32937 0.50389 0.0
C515 C 0.91366 0.40856 0.4589 0.0
C516 C 0.94607 0.41316 0.46122 0.0
C517 C 0.89263 0.38271 0.46591 0.0
C518 C 0.88717 0.31749 0.49587 0.0
H519 H 0.73895 0.20404 0.49666 0.0
H520 H 0.77505 0.25577 0.49006 0.0
H521 H 0.87189 0.27897 0.5123 0.0
H522 H 0.98212 0.39514 0.47304 0.0
H523 H 0.94541 0.34929 0.48492 0.0
H524 H 0.84775 0.32367 0.45923 0.0
C525 C 0.78454 0.2367 0.49408 0.0
C526 C 0.86644 0.28868 0.50073 0.0
C527 C 0.76388 0.20698 0.49779 0.0
C528 C 0.95721 0.3922 0.47119 0.0
C529 C 0.93613 0.366 0.47802 0.0
C530 C 0.85311 0.31472 0.47102 0.0
C531 C 0.81709 0.2418 0.49561 0.0
C532 C 0.83882 0.27276 0.4908 0.0
C533 C 0.9035 0.3605 0.47515 0.0
C534 C 0.88086 0.33078 0.48088 0.0
H535 H 0.81751 0.16771 0.50844 0.0
H536 H 0.85358 0.2199 0.50225 0.0
H537 H 0.81142 0.27417 0.46794 0.0
H538 H 0.90456 0.42468 0.4514 0.0
H539 H 0.86777 0.37982 0.4638 0.0
C540 C 0.52971 0.59016 0.84449 0.0
C541 C 0.50725 0.56452 0.8355 0.0
C542 C 0.52865 0.62194 0.84307 0.0
C543 C 0.49769 0.67286 0.81457 0.0
H544 H 0.51757 0.73421 0.85127 0.0
C545 C 0.48535 0.79894 0.80594 0.0
C546 C 0.50993 0.8252 0.81301 0.0
C547 C 0.48277 0.76745 0.81054 0.0
C548 C 0.51218 0.71745 0.84087 0.0
H549 H 0.46537 0.55224 0.81837 0.0
H550 H 0.46338 0.60729 0.81604 0.0
H551 H 0.51772 0.67863 0.85561 0.0
H552 H 0.55024 0.83939 0.83099 0.0
H553 H 0.54607 0.7841 0.83901 0.0
H554 H 0.49262 0.71142 0.79977 0.0
C555 C 0.48221 0.60303 0.82396 0.0
C556 C 0.51228 0.68557 0.84336 0.0
C557 C 0.48329 0.57135 0.82536 0.0
C558 C 0.53089 0.81954 0.82548 0.0
C559 C 0.52849 0.78785 0.83002 0.0
C560 C 0.49764 0.70459 0.81209 0.0
C561 C 0.5051 0.62884 0.83261 0.0
C562 C 0.50493 0.66282 0.83022 0.0
C563 C 0.50497 0.76131 0.8222 0.0
C564 C 0.50473 0.72735 0.82519 0.0
H565 H 0.54848 0.5858 0.85243 0.0
H566 H 0.54681 0.6412 0.84981 0.0
H567 H 0.49263 0.65632 0.80409 0.0
H568 H 0.46879 0.8027 0.79634 0.0
H569 H 0.46384 0.74778 0.80457 0.0
C570 C 0.92248 0.53544 0.15771 0.0
C571 C 0.94424 0.55974 0.14984 0.0
C572 C 0.89121 0.53541 0.15822 0.0
C573 C 0.83703 0.58714 0.14993 0.0
H574 H 0.77265 0.50515 0.15275 0.0
C575 C 0.70505 0.58107 0.15183 0.0
C576 C 0.68202 0.55439 0.1439 0.0
C577 C 0.73674 0.58148 0.1546 0.0
C578 C 0.79003 0.52841 0.15178 0.0
H579 H 0.94936 0.60316 0.13621 0.0
H580 H 0.89489 0.60255 0.13648 0.0
H581 H 0.82676 0.50658 0.15222 0.0
H582 H 0.67457 0.50711 0.1329 0.0
H583 H 0.7288 0.50762 0.13751 0.0
H584 H 0.79987 0.60871 0.14856 0.0
C585 C 0.90204 0.58379 0.14275 0.0
C586 C 0.82165 0.52932 0.15177 0.0
C587 C 0.93352 0.58407 0.14246 0.0
C588 C 0.69141 0.5277 0.13946 0.0
C589 C 0.7229 0.52814 0.14209 0.0
C590 C 0.80528 0.58619 0.14973 0.0
C591 C 0.88009 0.55941 0.15063 0.0
C592 C 0.84596 0.55868 0.15081 0.0
C593 C 0.74652 0.55534 0.14934 0.0
C594 C 0.78099 0.55676 0.15055 0.0
H595 H 0.92967 0.51639 0.1637 0.0
H596 H 0.8759 0.51653 0.1648 0.0
H597 H 0.85457 0.61047 0.14945 0.0
H598 H 0.69895 0.60241 0.15503 0.0
H599 H 0.75367 0.60276 0.16049 0.0
C600 C 0.39764 0.85042 0.49446 0.0
C601 C 0.39076 0.87757 0.50046 0.0
C602 C 0.37426 0.8206 0.49209 0.0
C603 C 0.29772 0.77314 0.50463 0.0
H604 H 0.28807 0.72748 0.46303 0.0
C605 C 0.18778 0.66606 0.48301 0.0
C606 C 0.19144 0.64215 0.47259 0.0
C607 C 0.21339 0.69308 0.48801 0.0
C608 C 0.29074 0.73947 0.47486 0.0
H609 H 0.35361 0.89442 0.50859 0.0
H610 H 0.31307 0.84219 0.50476 0.0
H611 H 0.33035 0.77784 0.4686 0.0
H612 H 0.2248 0.62641 0.46005 0.0
H613 H 0.26977 0.67274 0.46928 0.0
H614 H 0.25828 0.73468 0.51098 0.0
C615 C 0.33667 0.84407 0.50199 0.0
C616 C 0.31493 0.76847 0.478 0.0
C617 C 0.35995 0.87399 0.5042 0.0
C618 C 0.22139 0.64474 0.46798 0.0
C619 C 0.24705 0.67144 0.47316 0.0
C620 C 0.27368 0.74389 0.50157 0.0
C621 C 0.34354 0.81713 0.49583 0.0
C622 C 0.31853 0.78573 0.49285 0.0
C623 C 0.24323 0.69648 0.48283 0.0
C624 C 0.26973 0.72677 0.48658 0.0
H625 H 0.4212 0.85204 0.49176 0.0
H626 H 0.38028 0.80013 0.48748 0.0
H627 H 0.30018 0.78583 0.51626 0.0
H628 H 0.16481 0.6647 0.48659 0.0
H629 H 0.20941 0.71195 0.49531 0.0
C630 C 0.49142 0.34873 0.84166 0.0
C631 C 0.5169 0.37502 0.83794 0.0
C632 C 0.49392 0.3174 0.84207 0.0
C633 C 0.54062 0.26838 0.82676 0.0
H634 H 0.50289 0.20778 0.859 0.0
C635 C 0.56236 0.14582 0.83034 0.0
C636 C 0.53589 0.11867 0.83116 0.0
C637 C 0.56082 0.17683 0.83348 0.0
C638 C 0.51339 0.22437 0.84986 0.0
H639 H 0.56524 0.3889 0.83209 0.0
H640 H 0.56968 0.33459 0.83299 0.0
H641 H 0.4984 0.26245 0.85957 0.0
H642 H 0.48758 0.10245 0.83682 0.0
H643 H 0.48472 0.15692 0.84231 0.0
H644 H 0.55543 0.23053 0.81696 0.0
C645 C 0.54753 0.338 0.8353 0.0
C646 C 0.51077 0.25569 0.85016 0.0
C647 C 0.54503 0.36925 0.83485 0.0
C648 C 0.5084 0.12298 0.83627 0.0
C649 C 0.50678 0.15418 0.83935 0.0
C650 C 0.54328 0.23723 0.82649 0.0
C651 C 0.52196 0.31159 0.8388 0.0
C652 C 0.52446 0.27814 0.83862 0.0
C653 C 0.53267 0.18154 0.83739 0.0
C654 C 0.52985 0.21482 0.83807 0.0
H655 H 0.4694 0.35227 0.84412 0.0
H656 H 0.47363 0.29765 0.84464 0.0
H657 H 0.55084 0.28467 0.81745 0.0
H658 H 0.58389 0.14312 0.82651 0.0
H659 H 0.58145 0.19725 0.83227 0.0
C660 C 0.55465 0.9063 0.51671 0.0
C661 C 0.58284 0.92957 0.51352 0.0
C662 C 0.55266 0.87368 0.51749 0.0
C663 C 0.59065 0.81296 0.50637 0.0
H664 H 0.54809 0.76698 0.542 0.0
C665 C 0.59646 0.68655 0.52688 0.0
C666 C 0.56984 0.6661 0.53328 0.0
C667 C 0.59709 0.71764 0.52212 0.0
C668 C 0.5596 0.7792 0.53179 0.0
H669 H 0.63085 0.93646 0.50825 0.0
H670 H 0.62739 0.87942 0.50979 0.0
H671 H 0.55134 0.82318 0.53846 0.0
H672 H 0.5223 0.66083 0.5386 0.0
H673 H 0.52286 0.7144 0.52981 0.0
H674 H 0.5991 0.76874 0.49984 0.0
C675 C 0.60677 0.8865 0.51155 0.0
C676 C 0.56152 0.81155 0.52979 0.0
C677 C 0.60879 0.91923 0.51077 0.0
C678 C 0.54316 0.67629 0.53378 0.0
C679 C 0.54365 0.70708 0.52891 0.0
C680 C 0.58867 0.78041 0.50836 0.0
C681 C 0.57877 0.86339 0.51513 0.0
C682 C 0.57696 0.82885 0.51704 0.0
C683 C 0.57102 0.72866 0.52363 0.0
C684 C 0.57296 0.76309 0.52107 0.0
H685 H 0.53406 0.91323 0.51873 0.0
H686 H 0.53056 0.85647 0.51998 0.0
H687 H 0.60253 0.82555 0.49635 0.0
H688 H 0.6174 0.67927 0.52653 0.0
H689 H 0.61859 0.73362 0.51817 0.0
C690 C 0.73761 0.4916 0.81854 0.0
C691 C 0.71366 0.50385 0.81215 0.0
C692 C 0.7661 0.49935 0.81169 0.0
C693 C 0.8145 0.56839 0.79199 0.0
H694 H 0.87452 0.52099 0.79961 0.0
C695 C 0.93511 0.62409 0.82429 0.0
C696 C 0.96041 0.61325 0.82109 0.0
C697 C 0.90581 0.61085 0.81562 0.0
C698 C 0.85812 0.5345 0.79695 0.0
H699 H 0.69951 0.53108 0.79257 0.0
H700 H 0.74926 0.54427 0.78041 0.0
H701 H 0.81853 0.49193 0.79683 0.0
H702 H 0.97553 0.58132 0.80579 0.0
H703 H 0.92384 0.55775 0.79061 0.0
H704 H 0.85405 0.61107 0.79285 0.0
C705 C 0.74619 0.52914 0.79091 0.0
C706 C 0.82599 0.51785 0.79553 0.0
C707 C 0.71763 0.52141 0.79781 0.0
C708 C 0.95633 0.5901 0.80844 0.0
C709 C 0.92681 0.57657 0.79982 0.0
C710 C 0.84657 0.58497 0.79331 0.0
C711 C 0.77125 0.51948 0.79825 0.0
C712 C 0.80388 0.53487 0.79413 0.0
C713 C 0.90108 0.58633 0.80359 0.0
C714 C 0.86861 0.56841 0.79688 0.0
H715 H 0.73494 0.47745 0.8294 0.0
H716 H 0.78485 0.49161 0.81777 0.0
H717 H 0.79823 0.58237 0.79088 0.0
H718 H 0.93777 0.64211 0.83389 0.0
H719 H 0.88641 0.61857 0.81903 0.0
C720 C 0.22279 0.74428 0.16877 0.0
C721 C 0.19872 0.7504 0.15849 0.0
C722 C 0.25298 0.76621 0.17032 0.0
C723 C 0.30639 0.83791 0.15227 0.0
H724 H 0.34621 0.85231 0.19659 0.0
C725 C 0.41779 0.94514 0.17498 0.0
C726 C 0.4391 0.93778 0.18671 0.0
C727 C 0.38971 0.92142 0.16932 0.0
C728 C 0.33563 0.84831 0.1841 0.0
H729 H 0.18754 0.78364 0.14128 0.0
H730 H 0.2404 0.82259 0.14424 0.0
H731 H 0.29477 0.81285 0.19101 0.0
H732 H 0.44918 0.89941 0.20063 0.0
H733 H 0.40055 0.85815 0.19072 0.0
H734 H 0.34744 0.87426 0.14557 0.0
C735 C 0.23601 0.80057 0.15095 0.0
C736 C 0.3061 0.8256 0.18088 0.0
C737 C 0.20574 0.77835 0.14928 0.0
C738 C 0.43288 0.90588 0.19182 0.0
C739 C 0.40501 0.8823 0.18618 0.0
C740 C 0.33605 0.86092 0.15553 0.0
C741 C 0.25981 0.79506 0.16177 0.0
C742 C 0.29119 0.8198 0.16492 0.0
C743 C 0.38261 0.89004 0.17531 0.0
C744 C 0.35109 0.86607 0.17148 0.0
H745 H 0.21817 0.72258 0.17577 0.0
H746 H 0.27092 0.76072 0.17841 0.0
H747 H 0.29562 0.83396 0.13982 0.0
H748 H 0.42199 0.96958 0.17088 0.0
H749 H 0.37286 0.92808 0.16095 0.0
C750 C 0.62083 0.15155 0.51761 0.0
C751 C 0.59308 0.12773 0.51142 0.0
C752 C 0.62293 0.18425 0.51732 0.0
C753 C 0.58728 0.24294 0.49796 0.0
H754 H 0.62399 0.29422 0.53751 0.0
C755 C 0.57655 0.37048 0.51123 0.0
C756 C 0.60118 0.39231 0.52104 0.0
C757 C 0.57751 0.33919 0.50786 0.0
C758 C 0.61421 0.28053 0.52622 0.0
H759 H 0.54598 0.1199 0.4997 0.0
H760 H 0.54966 0.17707 0.49929 0.0
H761 H 0.6216 0.23779 0.53606 0.0
H762 H 0.64691 0.39972 0.53412 0.0
H763 H 0.64936 0.34581 0.5277 0.0
H764 H 0.57976 0.28585 0.48817 0.0
C765 C 0.56985 0.17034 0.50428 0.0
C766 C 0.61275 0.24804 0.52543 0.0
C767 C 0.56768 0.13754 0.50463 0.0
C768 C 0.62767 0.38323 0.5265 0.0
C769 C 0.62882 0.35221 0.52299 0.0
C770 C 0.58889 0.27562 0.49872 0.0
C771 C 0.5974 0.19405 0.51078 0.0
C772 C 0.59925 0.2288 0.51132 0.0
C773 C 0.60322 0.32933 0.51419 0.0
C774 C 0.60239 0.29485 0.51288 0.0
H775 H 0.64099 0.14499 0.52281 0.0
H776 H 0.64466 0.20192 0.5222 0.0
H777 H 0.57698 0.22882 0.48685 0.0
H778 H 0.5557 0.37688 0.5071 0.0
H779 H 0.5573 0.32223 0.50113 0.0
C780 C 0.37816 0.56167 0.80291 0.0
C781 C 0.35937 0.53099 0.79674 0.0
C782 C 0.3648 0.58622 0.80518 0.0
C783 C 0.32982 0.63571 0.80921 0.0
H784 H 0.25781 0.59521 0.83277 0.0
C785 C 0.24756 0.69518 0.8412 0.0
C786 C 0.24054 0.68302 0.85668 0.0
C787 C 0.26675 0.68347 0.83202 0.0
C788 C 0.27786 0.60686 0.82619 0.0
H789 H 0.313 0.50331 0.78607 0.0
H790 H 0.28964 0.54638 0.78987 0.0
H791 H 0.27971 0.56184 0.81692 0.0
H792 H 0.25088 0.65166 0.87531 0.0
H793 H 0.2845 0.63174 0.85942 0.0
H794 H 0.32798 0.68091 0.81913 0.0
C795 C 0.31453 0.55117 0.79331 0.0
C796 C 0.29012 0.58781 0.81688 0.0
C797 C 0.32785 0.52654 0.79112 0.0
C798 C 0.25584 0.6617 0.8635 0.0
C799 C 0.27488 0.65001 0.85434 0.0
C800 C 0.31719 0.65496 0.81846 0.0
C801 C 0.33244 0.58051 0.80131 0.0
C802 C 0.31665 0.60186 0.80856 0.0
C803 C 0.27907 0.65948 0.83824 0.0
C804 C 0.29168 0.64046 0.82739 0.0
H805 H 0.40252 0.56583 0.80743 0.0
H806 H 0.37922 0.60849 0.81142 0.0
H807 H 0.35028 0.64717 0.80291 0.0
H808 H 0.23643 0.71199 0.83573 0.0
H809 H 0.26984 0.69119 0.81964 0.0
C810 C 0.87392 0.36878 0.17106 0.0
C811 C 0.89454 0.35938 0.1617 0.0
C812 C 0.8472 0.34592 0.1759 0.0
C813 C 0.79233 0.26472 0.16594 0.0
H814 H 0.77436 0.2681 0.21093 0.0
C815 C 0.69647 0.1634 0.19417 0.0
C816 C 0.68039 0.17259 0.20623 0.0
C817 C 0.72136 0.18633 0.18772 0.0
C818 C 0.77865 0.26707 0.19825 0.0
H819 H 0.9031 0.31829 0.15018 0.0
H820 H 0.85613 0.27849 0.15844 0.0
H821 H 0.82019 0.30773 0.20177 0.0
H822 H 0.67626 0.21306 0.22025 0.0
H823 H 0.71889 0.2532 0.20871 0.0
H824 H 0.75057 0.22422 0.16237 0.0
C825 C 0.86066 0.30366 0.16192 0.0
C826 C 0.80504 0.28976 0.19303 0.0
C827 C 0.88755 0.32651 0.15718 0.0
C828 C 0.68861 0.20528 0.21115 0.0
C829 C 0.71318 0.22821 0.2046 0.0
C830 C 0.76571 0.24212 0.17113 0.0
C831 C 0.8403 0.31312 0.1714 0.0
C832 C 0.81218 0.28886 0.17683 0.0
C833 C 0.73043 0.21895 0.19311 0.0
C834 C 0.7585 0.24305 0.18736 0.0
H835 H 0.87813 0.39392 0.17448 0.0
H836 H 0.8317 0.35399 0.18302 0.0
H837 H 0.79711 0.26364 0.15334 0.0
H838 H 0.69068 0.13828 0.19026 0.0
H839 H 0.73423 0.17825 0.179 0.0
C840 C 0.06971 0.60235 0.09464 0.0
C841 C 0.04977 0.57301 0.09966 0.0
C842 C 0.07201 0.60829 0.07809 0.0
C843 C 0.05847 0.56833 0.03737 0.0
H844 H 0.05753 0.65241 0.02235 0.0
C845 C 0.08417 0.60976 0.97206 0.0
C846 C 0.06443 0.62578 0.96412 0.0
C847 C 0.08265 0.60302 0.98859 0.0
C848 C 0.05766 0.62876 0.02634 0.0
H849 H 1.01699 0.52667 0.09116 0.0
H850 H 1.02102 0.53714 0.06222 0.0
H851 H 0.05407 0.64071 0.05115 0.0
H852 H 1.02795 0.64771 0.96737 0.0
H853 H 1.02515 0.63577 0.9962 0.0
H854 H 0.0617 0.5563 0.01248 0.0
C855 C 1.03498 0.55545 0.07114 0.0
C856 C 0.056 0.62217 0.04286 0.0
C857 C 1.03255 0.54954 0.08772 0.0
C858 C 0.0433 0.63511 0.97311 0.0
C859 C 0.04189 0.62853 0.98965 0.0
C860 C 0.06031 0.57499 0.02084 0.0
C861 C 0.05453 0.58502 0.06615 0.0
C862 C 0.05637 0.59188 0.04857 0.0
C863 C 0.06149 0.61234 -0.00243 0.0
C864 C 0.05985 0.60527 0.01514 0.0
H865 H 0.0834 0.62096 0.10348 0.0
H866 H 0.08761 0.63112 0.07464 0.0
H867 H 0.05904 0.54485 0.04142 0.0
H868 H 0.10048 0.60198 0.96542 0.0
H869 H 0.09825 0.59076 0.99438 0.0
C870 C 0.56431 0.0003 0.45356 0.0
C871 C 0.58412 0.02698 0.46292 0.0
C872 C 0.56237 0.00044 0.43654 0.0
C873 C 0.60312 0.04385 0.40195 0.0
H874 H 0.52287 0.00165 0.37745 0.0
C875 C 0.57503 0.05994 0.33296 0.0
C876 C 0.56148 0.03118 0.3235 0.0
C877 C 0.57872 0.0593 0.34997 0.0
C878 C 0.54545 0.01336 0.38416 0.0
H879 H 0.61726 0.07488 0.46183 0.0
H880 H 0.61298 0.07575 0.43221 0.0
H881 H 0.52728 0.00115 0.40713 0.0
H882 H 0.54192 0.97908 0.3247 0.0
H883 H 0.54727 0.9783 0.35437 0.0
H884 H 0.62079 0.05695 0.37881 0.0
C885 C 0.59963 0.05421 0.43792 0.0
C886 C 0.54809 0.01294 0.40117 0.0
C887 C 0.60196 0.05383 0.45494 0.0
C888 C 0.55178 0.0018 0.33153 0.0
C889 C 0.55499 0.00126 0.34853 0.0
C890 C 0.6003 0.04472 0.38494 0.0
C891 C 0.57979 0.02752 0.42847 0.0
C892 C 0.577 0.02805 0.41032 0.0
C893 C 0.56848 0.02999 0.35789 0.0
C894 C 0.57148 0.02936 0.37591 0.0
H895 H 0.55048 0.97913 0.45938 0.0
H896 H 0.54735 0.97915 0.42974 0.0
H897 H 0.6259 0.05524 0.4085 0.0
H898 H 0.58229 0.08309 0.32728 0.0
H899 H 0.58893 0.08182 0.35696 0.0
C900 C 0.5077 0.45424 0.77541 0.0
C901 C 0.52792 0.4764 0.78706 0.0
C902 C 0.51202 0.45732 0.75886 0.0
C903 C 0.57095 0.49672 0.73053 0.0
H904 H 0.49777 0.47632 0.69885 0.0
C905 C 0.57805 0.52266 0.6619 0.0
C906 C 0.56121 0.49674 0.65116 0.0
C907 C 0.574 0.52119 0.67853 0.0
C908 C 0.5184 0.48194 0.70758 0.0
H909 H 0.56855 0.51925 0.79045 0.0
H910 H 0.57557 0.52512 0.76158 0.0
H911 H 0.49085 0.47194 0.72784 0.0
H912 H 0.52645 0.44939 0.64925 0.0
H913 H 0.51918 0.44693 0.6783 0.0
H914 H 0.5984 0.50721 0.71015 0.0
C915 C 0.55677 0.50492 0.76523 0.0
C916 C 0.51448 0.4793 0.72418 0.0
C917 C 0.55263 0.50165 0.7818 0.0
C918 C 0.53991 0.46958 0.6573 0.0
C919 C 0.53557 0.46828 0.67387 0.0
C920 C 0.57485 0.4997 0.71392 0.0
C921 C 0.53648 0.48283 0.75354 0.0
C922 C 0.5407 0.48639 0.73587 0.0
C923 C 0.55271 0.49398 0.68466 0.0
C924 C 0.54861 0.49208 0.70229 0.0
H925 H 0.48855 0.43439 0.77906 0.0
H926 H 0.49631 0.43949 0.75025 0.0
H927 H 0.59168 0.50191 0.73915 0.0
H928 H 0.59472 0.54381 0.65747 0.0
H929 H 0.58734 0.54141 0.68658 0.0
C930 C 0.56946 0.04191 0.57158 0.0
C931 C 0.58951 0.02865 0.56379 0.0
C932 C 0.56823 0.04008 0.58843 0.0
C933 C 0.58276 0.99294 0.62332 0.0
H934 H 0.58066 0.06739 0.64872 0.0
C935 C 0.58374 0.99353 0.69375 0.0
C936 C 0.56463 0.00939 0.70056 0.0
C937 C 0.58804 0.99574 0.67713 0.0
C938 C 0.58086 0.04625 0.64178 0.0
H939 H 0.6241 0.00318 0.56759 0.0
H940 H 0.62183 -8e-05 0.59707 0.0
H941 H 0.58618 0.07194 0.61961 0.0
H942 H 0.53408 0.0389 0.69524 0.0
H943 H 0.54115 0.0424 0.6663 0.0
H944 H 0.57686 0.96706 0.64543 0.0
C945 C 0.60701 0.01162 0.59009 0.0
C946 C 0.58411 0.04891 0.62512 0.0
C947 C 0.60843 0.01366 0.57323 0.0
C948 C 0.54942 0.02693 0.69039 0.0
C949 C 0.55356 0.029 0.67381 0.0
C950 C 0.57932 0.99021 0.64 0.0
C951 C 0.58686 0.02477 0.59785 0.0
C952 C 0.58484 0.02223 0.61568 0.0
C953 C 0.57316 0.01372 0.667 0.0
C954 C 0.57803 0.01677 0.6494 0.0
H955 H 0.55456 0.0536 0.56466 0.0
H956 H 0.55222 0.05013 0.59404 0.0
H957 H 0.58293 0.97187 0.61631 0.0
H958 H 0.59595 0.98005 0.70133 0.0
H959 H 0.60353 0.98394 0.67232 0.0
C960 C 0.5185 0.46397 0.89855 0.0
C961 C 0.49803 0.47218 0.88665 0.0
C962 C 0.51656 0.46923 0.91508 0.0
C963 C 0.49421 0.52207 0.94247 0.0
H964 H 0.49832 0.45861 0.97475 0.0
C965 C 0.48816 0.54562 0.01099 0.0
C966 C 0.50684 0.5335 0.02226 0.0
C967 C 0.4854 0.53739 0.99439 0.0
C968 C 0.49759 0.47677 0.96593 0.0
H969 H 0.45901 0.49168 0.88274 0.0
H970 H 0.45593 0.50128 0.91174 0.0
H971 H 0.49554 0.44444 0.94586 0.0
H972 H 0.53745 0.50332 0.02478 0.0
H973 H 0.53386 0.49029 0.99584 0.0
H974 H 0.49735 0.55483 0.96244 0.0
C975 C 0.4734 0.49071 0.9082 0.0
C976 C 0.49578 0.46854 0.94939 0.0
C977 C 0.47504 0.48501 0.89163 0.0
C978 C 0.52317 0.51346 0.01646 0.0
C979 C 0.52066 0.50551 -0.00015 0.0
C980 C 0.49639 0.53045 0.95902 0.0
C981 C 0.49437 0.48317 0.92005 0.0
C982 C 0.49426 0.49117 0.93752 0.0
C983 C 0.50149 0.51709 0.98862 0.0
C984 C 0.49832 0.50797 0.97097 0.0
H985 H 0.5364 0.45394 0.89508 0.0
H986 H 0.53315 0.46341 0.92397 0.0
H987 H 0.49349 0.54011 0.93356 0.0
H988 H 0.47558 0.56147 0.01497 0.0
H989 H 0.47021 0.54655 0.98613 0.0
C990 C 1.0379 0.57323 0.21005 0.0
C991 C 1.03494 0.54604 0.20001 0.0
C992 C 1.03947 0.57102 0.22696 0.0
C993 C 1.02044 0.51518 0.26027 0.0
H994 H 0.08632 0.58201 0.28528 0.0
C995 C 0.04757 0.51152 0.33034 0.0
C996 C 0.05616 0.54111 0.33919 0.0
C997 C 0.04402 0.51073 0.31328 0.0
C998 C 0.06751 0.56339 0.27852 0.0
H999 H 1.03036 0.49492 0.19986 0.0
H1000 H 1.03291 0.49108 0.22956 0.0
H1001 H 0.0815 0.58295 0.25566 0.0
H1002 H 0.06639 0.59286 0.33723 0.0
H1003 H 0.05964 0.59153 0.30756 0.0
H1004 H 1.00611 0.49591 0.28318 0.0
C1005 C 1.03407 0.51408 0.22424 0.0
C1006 C 0.06484 0.56388 0.26154 0.0
C1007 C 1.03277 0.51634 0.20726 0.0
C1008 C 0.06032 0.56977 0.3307 0.0
C1009 C 0.05654 0.56898 0.3137 0.0
C1010 C 1.02295 0.5148 0.27732 0.0
C1011 C 1.0379 0.54154 0.23424 0.0
C1012 C 1.04114 0.53997 0.25224 0.0
C1013 C 0.04879 0.53951 0.30476 0.0
C1014 C 0.04637 0.5391 0.28664 0.0
H1015 H 1.03959 0.59649 0.2049 0.0
H1016 H 0.04198 0.59247 0.23437 0.0
H1017 H 1.00183 0.49655 0.25337 0.0
H1018 H 0.04444 0.48908 0.33659 0.0
H1019 H 1.03834 0.48766 0.30679 0.0
loop_
_geom_bond_atom_site_label_1
_geom_bond_atom_site_label_2
_geom_bond_distance
_geom_bond_site_symmetry_2
_ccdc_geom_bond_type
Dy0 O3 2.307 1_455 S
Dy0 O5 2.395 . S
Dy0 O6 2.379 . S
Dy0 O8 2.339 . S
Dy0 O10 2.298 . S
Dy0 O14 2.275 . S
Dy0 C22 2.738 . S
Dy1 O4 2.298 . S
Dy1 O7 2.275 1_655 S
Dy1 O9 2.307 1_655 S
Dy1 O11 2.395 . S
Dy1 O12 2.379 . S
Dy1 O15 2.339 . S
Dy1 C31 2.738 . S
C2 O14 1.254 . S
C2 O15 1.257 1_455 S
O3 Dy0 2.307 1_655 S
O3 C13 1.266 . S
O4 Dy1 2.298 . S
O4 C13 1.236 . S
O5 Dy0 2.395 . S
O5 C22 1.255 . S
O6 Dy0 2.379 . S
O6 C22 1.249 . S
O7 Dy1 2.275 1_455 S
O7 C23 1.254 . S
O8 Dy0 2.339 . S
O8 C23 1.257 . S
O9 Dy1 2.307 1_455 S
O9 C24 1.266 . S
O10 Dy0 2.298 . S
O10 C24 1.236 . S
O11 Dy1 2.395 . S
O11 C31 1.255 . S
O12 Dy1 2.379 . S
O12 C31 1.249 . S
C13 O3 1.266 . S
C13 O4 1.236 . S
O14 Dy0 2.275 . S
O14 C2 1.254 . S
O15 Dy1 2.339 . S
O15 C2 1.257 1_655 S
C16 C19 1.344 . S
C16 C20 1.328 . S
C16 C22 1.516 . S
C17 C18 1.304 . S
C17 C21 1.323 . S
C18 C17 1.304 . S
C18 C19 1.371 . S
C18 H32 0.930 . S
C19 C16 1.344 . S
C19 C18 1.371 . S
C19 H33 0.931 . S
C20 C16 1.328 . S
C20 C21 1.433 . S
C20 H34 0.931 . S
C21 C17 1.323 . S
C21 C20 1.433 . S
C21 H35 0.933 . S
C22 Dy0 2.738 . S
C22 O5 1.255 . S
C22 O6 1.249 . S
C22 C16 1.516 . S
C23 O7 1.254 . S
C23 O8 1.257 . S
C24 O9 1.266 . S
C24 O10 1.236 . S
C25 C28 1.344 . S
C25 C29 1.328 . S
C25 C31 1.516 . S
C26 C27 1.304 . S
C26 C30 1.323 . S
C27 C26 1.304 . S
C27 C28 1.371 . S
C27 H36 0.930 . S
C28 C25 1.344 . S
C28 C27 1.371 . S
C28 H37 0.931 . S
C29 C25 1.328 . S
C29 C30 1.433 . S
C29 H38 0.931 . S
C30 C26 1.323 . S
C30 C29 1.433 . S
C30 H39 0.933 . S
C31 Dy1 2.738 . S
C31 O11 1.255 . S
C31 O12 1.249 . S
C31 C25 1.516 . S
H32 C18 0.930 . S
H33 C19 0.931 . S
H34 C20 0.931 . S
H35 C21 0.933 . S
H36 C27 0.930 . S
H37 C28 0.931 . S
H38 C29 0.931 . S
H39 C30 0.933 . S
Dy40 O43 2.307 . S
Dy40 O45 2.395 1_545 S
Dy40 O46 2.379 1_545 S
Dy40 O48 2.339 . S
Dy40 O50 2.298 1_545 S
Dy40 O54 2.275 . S
Dy40 C62 2.738 1_545 S
Dy41 O44 2.298 . S
Dy41 O47 2.275 . S
Dy41 O49 2.307 1_545 S
Dy41 O51 2.395 . S
Dy41 O52 2.379 . S
Dy41 O55 2.339 . S
Dy41 C71 2.738 . S
C42 O54 1.254 . S
C42 O55 1.257 . S
O43 Dy40 2.307 . S
O43 C53 1.266 . S
O44 Dy41 2.298 . S
O44 C53 1.236 . S
O45 Dy40 2.395 1_565 S
O45 C62 1.255 . S
O46 Dy40 2.379 1_565 S
O46 C62 1.249 . S
O47 Dy41 2.275 . S
O47 C63 1.254 . S
O48 Dy40 2.339 . S
O48 C63 1.257 . S
O49 Dy41 2.307 1_565 S
O49 C64 1.266 . S
O50 Dy40 2.298 1_565 S
O50 C64 1.236 . S
O51 Dy41 2.395 . S
O51 C71 1.255 . S
O52 Dy41 2.379 . S
O52 C71 1.249 . S
C53 O43 1.266 . S
C53 O44 1.236 . S
O54 Dy40 2.275 . S
O54 C42 1.254 . S
O55 Dy41 2.339 . S
O55 C42 1.257 . S
C56 C59 1.344 . S
C56 C60 1.328 . S
C56 C62 1.516 . S
C57 C58 1.304 . S
C57 C61 1.323 . S
C58 C57 1.304 . S
C58 C59 1.371 . S
C58 H72 0.930 . S
C59 C56 1.344 . S
C59 C58 1.371 . S
C59 H73 0.931 . S
C60 C56 1.328 . S
C60 C61 1.433 . S
C60 H74 0.931 . S
C61 C57 1.323 . S
C61 C60 1.433 . S
C61 H75 0.933 . S
C62 Dy40 2.738 1_565 S
C62 O45 1.255 . S
C62 O46 1.249 . S
C62 C56 1.516 . S
C63 O47 1.254 . S
C63 O48 1.257 . S
C64 O49 1.266 . S
C64 O50 1.236 . S
C65 C68 1.344 . S
C65 C69 1.328 . S
C65 C71 1.516 . S
C66 C67 1.304 . S
C66 C70 1.323 . S
C67 C66 1.304 . S
C67 C68 1.371 . S
C67 H76 0.930 . S
C68 C65 1.344 . S
C68 C67 1.371 . S
C68 H77 0.931 . S
C69 C65 1.328 . S
C69 C70 1.433 . S
C69 H78 0.931 . S
C70 C66 1.323 . S
C70 C69 1.433 . S
C70 H79 0.933 . S
C71 Dy41 2.738 . S
C71 O51 1.255 . S
C71 O52 1.249 . S
C71 C65 1.516 . S
H72 C58 0.930 . S
H73 C59 0.931 . S
H74 C60 0.931 . S
H75 C61 0.933 . S
H76 C67 0.930 . S
H77 C68 0.931 . S
H78 C69 0.931 . S
H79 C70 0.933 . S
Dy80 O83 2.307 . S
Dy80 O85 2.395 . S
Dy80 O86 2.379 . S
Dy80 O88 2.339 . S
Dy80 O90 2.298 . S
Dy80 O94 2.275 . S
Dy80 C102 2.738 . S
Dy81 O84 2.298 . S
Dy81 O87 2.275 . S
Dy81 O89 2.307 . S
Dy81 O91 2.395 . S
Dy81 O92 2.379 . S
Dy81 O95 2.339 . S
Dy81 C111 2.738 . S
C82 O94 1.254 . S
C82 O95 1.257 . S
O83 Dy80 2.307 . S
O83 C93 1.266 . S
O84 Dy81 2.298 . S
O84 C93 1.236 . S
O85 Dy80 2.395 . S
O85 C102 1.255 . S
O86 Dy80 2.379 . S
O86 C102 1.249 . S
O87 Dy81 2.275 . S
O87 C103 1.254 . S
O88 Dy80 2.339 . S
O88 C103 1.257 . S
O89 Dy81 2.307 . S
O89 C104 1.266 . S
O90 Dy80 2.298 . S
O90 C104 1.236 . S
O91 Dy81 2.395 . S
O91 C111 1.255 . S
O92 Dy81 2.379 . S
O92 C111 1.249 . S
C93 O83 1.266 . S
C93 O84 1.236 . S
O94 Dy80 2.275 . S
O94 C82 1.254 . S
O95 Dy81 2.339 . S
O95 C82 1.257 . S
C96 C99 1.344 . S
C96 C100 1.328 . S
C96 C102 1.516 . S
C97 C98 1.304 . S
C97 C101 1.323 . S
C98 C97 1.304 . S
C98 C99 1.371 . S
C98 H112 0.930 . S
C99 C96 1.344 . S
C99 C98 1.371 . S
C99 H113 0.931 . S
C100 C96 1.328 . S
C100 C101 1.433 . S
C100 H114 0.931 . S
C101 C97 1.323 . S
C101 C100 1.433 . S
C101 H115 0.933 . S
C102 Dy80 2.738 . S
C102 O85 1.255 . S
C102 O86 1.249 . S
C102 C96 1.516 . S
C103 O87 1.254 . S
C103 O88 1.257 . S
C104 O89 1.266 . S
C104 O90 1.236 . S
C105 C108 1.344 . S
C105 C109 1.328 . S
C105 C111 1.516 . S
C106 C107 1.304 . S
C106 C110 1.323 . S
C107 C106 1.304 . S
C107 C108 1.371 . S
C107 H116 0.930 . S
C108 C105 1.344 . S
C108 C107 1.371 . S
C108 H117 0.931 . S
C109 C105 1.328 . S
C109 C110 1.433 . S
C109 H118 0.931 . S
C110 C106 1.323 . S
C110 C109 1.433 . S
C110 H119 0.933 . S
C111 Dy81 2.738 . S
C111 O91 1.255 . S
C111 O92 1.249 . S
C111 C105 1.516 . S
H112 C98 0.930 . S
H113 C99 0.931 . S
H114 C100 0.931 . S
H115 C101 0.933 . S
H116 C107 0.930 . S
H117 C108 0.931 . S
H118 C109 0.931 . S
H119 C110 0.933 . S
C120 C121 1.391 . S
C120 C124 1.391 . S
C120 H162 0.948 . S
C121 C120 1.391 . S
C121 C122 1.391 . S
C122 C121 1.391 . S
C122 H178 0.947 . S
C122 C179 1.392 . S
C123 C124 1.391 . S
C123 C127 1.397 . S
C123 C179 1.419 . S
C124 C120 1.391 . S
C124 C123 1.391 . S
C124 C125 1.399 . S
C125 C124 1.399 . S
C125 C128 1.396 . S
C125 C137 1.453 . S
C125 C138 1.684 . S
H126 C150 0.948 . S
C127 C123 1.397 . S
C127 C128 1.394 . S
C127 C146 1.723 . S
C128 C125 1.396 . S
C128 C127 1.394 . S
C128 C158 1.723 . S
H129 C152 0.947 . S
H130 C153 0.948 . S
H131 C159 0.982 . S
H132 C160 0.979 . S
H133 C160 0.980 . S
H134 C160 0.983 1_565 S
H135 C159 0.979 . S
H136 C159 0.977 . S
C137 C125 1.453 . S
C137 H166 0.982 . S
C137 H167 0.979 . S
C137 H168 0.977 . S
C138 C125 1.684 . S
C138 H163 0.979 . S
C138 H164 0.980 . S
C138 H165 0.983 . S
C139 C140 1.391 . S
C139 C144 1.391 . S
C139 H169 0.948 . S
C140 C139 1.391 . S
C140 C141 1.391 . S
C141 C140 1.391 . S
C141 C142 1.392 . S
C141 H170 0.947 . S
C142 C141 1.392 . S
C142 C143 1.419 . S
C142 H171 0.948 . S
C143 C142 1.419 . S
C143 C144 1.391 . S
C143 C147 1.397 . S
C144 C139 1.391 . S
C144 C143 1.391 . S
C144 C145 1.399 . S
C145 C144 1.399 . S
C145 C146 1.396 . S
C145 C148 1.453 . S
C145 C149 1.684 . S
C146 C127 1.723 . S
C146 C145 1.396 . S
C146 C147 1.394 . S
C147 C143 1.397 . S
C147 C146 1.394 . S
C147 C157 1.723 . S
C148 C145 1.453 . S
C148 H172 0.982 . S
C148 H173 0.979 . S
C148 H174 0.977 . S
C149 C145 1.684 . S
C149 H175 0.979 . S
C149 H176 0.980 . S
C149 H177 0.983 . S
C150 H126 0.948 . S
C150 C151 1.391 . S
C150 C155 1.391 . S
C151 C150 1.391 . S
C151 C152 1.391 . S
C152 H129 0.947 . S
C152 C151 1.391 . S
C152 C153 1.392 1_565 S
C153 H130 0.948 . S
C153 C152 1.392 1_545 S
C153 C154 1.419 . S
C154 C153 1.419 . S
C154 C155 1.391 1_545 S
C154 C158 1.397 . S
C155 C150 1.391 . S
C155 C154 1.391 1_565 S
C155 C156 1.399 1_565 S
C156 C155 1.399 1_545 S
C156 C157 1.396 . S
C156 C159 1.453 1_545 S
C156 C160 1.684 . S
C157 C147 1.723 . S
C157 C156 1.396 . S
C157 C158 1.394 . S
C158 C128 1.723 . S
C158 C154 1.397 . S
C158 C157 1.394 . S
C159 H131 0.982 . S
C159 H135 0.979 . S
C159 H136 0.977 . S
C159 C156 1.453 1_565 S
C160 H132 0.979 . S
C160 H133 0.980 . S
C160 H134 0.983 1_545 S
C160 C156 1.684 . S
H161 C179 0.948 . S
H162 C120 0.948 . S
H163 C138 0.979 . S
H164 C138 0.980 . S
H165 C138 0.983 . S
H166 C137 0.982 . S
H167 C137 0.979 . S
H168 C137 0.977 . S
H169 C139 0.948 . S
H170 C141 0.947 . S
H171 C142 0.948 . S
H172 C148 0.982 . S
H173 C148 0.979 . S
H174 C148 0.977 . S
H175 C149 0.979 . S
H176 C149 0.980 . S
H177 C149 0.983 . S
H178 C122 0.947 . S
C179 C122 1.392 . S
C179 C123 1.419 . S
C179 H161 0.948 . S
C180 C181 1.391 . S
C180 C184 1.391 . S
C180 H222 0.948 . S
C181 C180 1.391 . S
C181 C182 1.391 . S
C182 C181 1.391 . S
C182 H238 0.947 . S
C182 C239 1.392 . S
C183 C184 1.391 . S
C183 C187 1.397 . S
C183 C239 1.419 . S
C184 C180 1.391 . S
C184 C183 1.391 . S
C184 C185 1.399 . S
C185 C184 1.399 . S
C185 C188 1.396 . S
C185 C197 1.453 . S
C185 C198 1.684 . S
H186 C210 0.948 . S
C187 C183 1.397 . S
C187 C188 1.394 . S
C187 C206 1.723 . S
C188 C185 1.396 . S
C188 C187 1.394 . S
C188 C218 1.723 . S
H189 C212 0.947 . S
H190 C213 0.948 . S
H191 C219 0.982 . S
H192 C220 0.979 . S
H193 C220 0.980 . S
H194 C220 0.983 . S
H195 C219 0.979 . S
H196 C219 0.977 . S
C197 C185 1.453 . S
C197 H226 0.982 . S
C197 H227 0.979 . S
C197 H228 0.977 . S
C198 C185 1.684 . S
C198 H223 0.979 . S
C198 H224 0.980 . S
C198 H225 0.983 . S
C199 C200 1.391 . S
C199 C204 1.391 . S
C199 H229 0.948 . S
C200 C199 1.391 . S
C200 C201 1.391 . S
C201 C200 1.391 . S
C201 C202 1.392 . S
C201 H230 0.947 . S
C202 C201 1.392 . S
C202 C203 1.419 . S
C202 H231 0.948 . S
C203 C202 1.419 . S
C203 C204 1.391 . S
C203 C207 1.397 . S
C204 C199 1.391 . S
C204 C203 1.391 . S
C204 C205 1.399 . S
C205 C204 1.399 . S
C205 C206 1.396 . S
C205 C208 1.453 . S
C205 C209 1.684 . S
C206 C187 1.723 . S
C206 C205 1.396 . S
C206 C207 1.394 . S
C207 C203 1.397 . S
C207 C206 1.394 . S
C207 C217 1.723 . S
C208 C205 1.453 . S
C208 H232 0.982 . S
C208 H233 0.979 . S
C208 H234 0.977 . S
C209 C205 1.684 . S
C209 H235 0.979 . S
C209 H236 0.980 . S
C209 H237 0.983 . S
C210 H186 0.948 . S
C210 C211 1.391 . S
C210 C215 1.391 . S
C211 C210 1.391 . S
C211 C212 1.391 . S
C212 H189 0.947 . S
C212 C211 1.391 . S
C212 C213 1.392 . S
C213 H190 0.948 . S
C213 C212 1.392 . S
C213 C214 1.419 . S
C214 C213 1.419 . S
C214 C215 1.391 . S
C214 C218 1.397 . S
C215 C210 1.391 . S
C215 C214 1.391 . S
C215 C216 1.399 . S
C216 C215 1.399 . S
C216 C217 1.396 . S
C216 C219 1.453 . S
C216 C220 1.684 . S
C217 C207 1.723 . S
C217 C216 1.396 . S
C217 C218 1.394 . S
C218 C188 1.723 . S
C218 C214 1.397 . S
C218 C217 1.394 . S
C219 H191 0.982 . S
C219 H195 0.979 . S
C219 H196 0.977 . S
C219 C216 1.453 . S
C220 H192 0.979 . S
C220 H193 0.980 . S
C220 H194 0.983 . S
C220 C216 1.684 . S
H221 C239 0.948 . S
H222 C180 0.948 . S
H223 C198 0.979 . S
H224 C198 0.980 . S
H225 C198 0.983 . S
H226 C197 0.982 . S
H227 C197 0.979 . S
H228 C197 0.977 . S
H229 C199 0.948 . S
H230 C201 0.947 . S
H231 C202 0.948 . S
H232 C208 0.982 . S
H233 C208 0.979 . S
H234 C208 0.977 . S
H235 C209 0.979 . S
H236 C209 0.980 . S
H237 C209 0.983 . S
H238 C182 0.947 . S
C239 C182 1.392 . S
C239 C183 1.419 . S
C239 H221 0.948 . S
C240 C241 1.391 . S
C240 C244 1.391 . S
C240 H282 0.948 . S
C241 C240 1.391 . S
C241 C242 1.391 . S
C242 C241 1.391 . S
C242 H298 0.947 . S
C242 C299 1.392 . S
C243 C244 1.391 . S
C243 C247 1.397 . S
C243 C299 1.419 . S
C244 C240 1.391 . S
C244 C243 1.391 . S
C244 C245 1.399 . S
C245 C244 1.399 . S
C245 C248 1.396 . S
C245 C257 1.453 . S
C245 C258 1.684 . S
H246 C270 0.948 . S
C247 C243 1.397 . S
C247 C248 1.394 . S
C247 C266 1.723 . S
C248 C245 1.396 . S
C248 C247 1.394 . S
C248 C278 1.723 1_455 S
H249 C272 0.947 . S
H250 C273 0.948 . S
H251 C279 0.982 . S
H252 C280 0.979 . S
H253 C280 0.980 . S
H254 C280 0.983 . S
H255 C279 0.979 . S
H256 C279 0.977 . S
C257 C245 1.453 . S
C257 H286 0.982 . S
C257 H287 0.979 . S
C257 H288 0.977 . S
C258 C245 1.684 . S
C258 H283 0.979 . S
C258 H284 0.980 . S
C258 H285 0.983 . S
C259 C260 1.391 . S
C259 C264 1.391 . S
C259 H289 0.948 . S
C260 C259 1.391 . S
C260 C261 1.391 1_455 S
C261 C260 1.391 1_655 S
C261 C262 1.392 . S
C261 H290 0.947 . S
C262 C261 1.392 . S
C262 C263 1.419 1_655 S
C262 H291 0.948 . S
C263 C262 1.419 1_455 S
C263 C264 1.391 . S
C263 C267 1.397 . S
C264 C259 1.391 . S
C264 C263 1.391 . S
C264 C265 1.399 . S
C265 C264 1.399 . S
C265 C266 1.396 . S
C265 C268 1.453 . S
C265 C269 1.684 . S
C266 C247 1.723 . S
C266 C265 1.396 . S
C266 C267 1.394 . S
C267 C263 1.397 . S
C267 C266 1.394 . S
C267 C277 1.723 1_455 S
C268 C265 1.453 . S
C268 H292 0.982 . S
C268 H293 0.979 . S
C268 H294 0.977 . S
C269 C265 1.684 . S
C269 H295 0.979 . S
C269 H296 0.980 . S
C269 H297 0.983 . S
C270 H246 0.948 . S
C270 C271 1.391 . S
C270 C275 1.391 . S
C271 C270 1.391 . S
C271 C272 1.391 . S
C272 H249 0.947 . S
C272 C271 1.391 . S
C272 C273 1.392 . S
C273 H250 0.948 . S
C273 C272 1.392 . S
C273 C274 1.419 . S
C274 C273 1.419 . S
C274 C275 1.391 . S
C274 C278 1.397 . S
C275 C270 1.391 . S
C275 C274 1.391 . S
C275 C276 1.399 . S
C276 C275 1.399 . S
C276 C277 1.396 . S
C276 C279 1.453 . S
C276 C280 1.684 . S
C277 C267 1.723 1_655 S
C277 C276 1.396 . S
C277 C278 1.394 . S
C278 C248 1.723 1_655 S
C278 C274 1.397 . S
C278 C277 1.394 . S
C279 H251 0.982 . S
C279 H255 0.979 . S
C279 H256 0.977 . S
C279 C276 1.453 . S
C280 H252 0.979 . S
C280 H253 0.980 . S
C280 H254 0.983 . S
C280 C276 1.684 . S
H281 C299 0.948 . S
H282 C240 0.948 . S
H283 C258 0.979 . S
H284 C258 0.980 . S
H285 C258 0.983 . S
H286 C257 0.982 . S
H287 C257 0.979 . S
H288 C257 0.977 . S
H289 C259 0.948 . S
H290 C261 0.947 . S
H291 C262 0.948 . S
H292 C268 0.982 . S
H293 C268 0.979 . S
H294 C268 0.977 . S
H295 C269 0.979 . S
H296 C269 0.980 . S
H297 C269 0.983 . S
H298 C242 0.947 . S
C299 C242 1.392 . S
C299 C243 1.419 . S
C299 H281 0.948 . S
C300 C301 1.391 . S
C300 C304 1.391 . S
C300 H342 0.948 . S
C301 C300 1.391 . S
C301 C302 1.391 . S
C302 C301 1.391 . S
C302 H358 0.947 . S
C302 C359 1.392 . S
C303 C304 1.391 . S
C303 C307 1.397 . S
C303 C359 1.419 . S
C304 C300 1.391 . S
C304 C303 1.391 . S
C304 C305 1.399 . S
C305 C304 1.399 . S
C305 C308 1.396 1_655 S
C305 C317 1.453 1_655 S
C305 C318 1.684 . S
H306 C330 0.948 . S
C307 C303 1.397 . S
C307 C308 1.394 1_655 S
C307 C326 1.723 . S
C308 C305 1.396 1_455 S
C308 C307 1.394 1_455 S
C308 C338 1.723 . S
H309 C332 0.947 . S
H310 C333 0.948 . S
H311 C339 0.982 . S
H312 C340 0.979 . S
H313 C340 0.980 . S
H314 C340 0.983 . S
H315 C339 0.979 . S
H316 C339 0.977 . S
C317 C305 1.453 1_455 S
C317 H346 0.982 . S
C317 H347 0.979 . S
C317 H348 0.977 . S
C318 C305 1.684 . S
C318 H343 0.979 . S
C318 H344 0.980 1_655 S
C318 H345 0.983 . S
C319 C320 1.391 1_655 S
C319 C324 1.391 . S
C319 H349 0.948 . S
C320 C319 1.391 1_455 S
C320 C321 1.391 . S
C321 C320 1.391 . S
C321 C322 1.392 . S
C321 H350 0.947 . S
C322 C321 1.392 . S
C322 C323 1.419 . S
C322 H351 0.948 . S
C323 C322 1.419 . S
C323 C324 1.391 1_455 S
C323 C327 1.397 . S
C324 C319 1.391 . S
C324 C323 1.391 1_655 S
C324 C325 1.399 . S
C325 C324 1.399 . S
C325 C326 1.396 . S
C325 C328 1.453 . S
C325 C329 1.684 . S
C326 C307 1.723 . S
C326 C325 1.396 . S
C326 C327 1.394 1_655 S
C327 C323 1.397 . S
C327 C326 1.394 1_455 S
C327 C337 1.723 . S
C328 C325 1.453 . S
C328 H352 0.982 . S
C328 H353 0.979 . S
C328 H354 0.977 . S
C329 C325 1.684 . S
C329 H355 0.979 . S
C329 H356 0.980 . S
C329 H357 0.983 . S
C330 H306 0.948 . S
C330 C331 1.391 . S
C330 C335 1.391 . S
C331 C330 1.391 . S
C331 C332 1.391 . S
C332 H309 0.947 . S
C332 C331 1.391 . S
C332 C333 1.392 . S
C333 H310 0.948 . S
C333 C332 1.392 . S
C333 C334 1.419 . S
C334 C333 1.419 . S
C334 C335 1.391 . S
C334 C338 1.397 . S
C335 C330 1.391 . S
C335 C334 1.391 . S
C335 C336 1.399 . S
C336 C335 1.399 . S
C336 C337 1.396 . S
C336 C339 1.453 . S
C336 C340 1.684 . S
C337 C327 1.723 . S
C337 C336 1.396 . S
C337 C338 1.394 . S
C338 C308 1.723 . S
C338 C334 1.397 . S
C338 C337 1.394 . S
C339 H311 0.982 . S
C339 H315 0.979 . S
C339 H316 0.977 . S
C339 C336 1.453 . S
C340 H312 0.979 . S
C340 H313 0.980 . S
C340 H314 0.983 . S
C340 C336 1.684 . S
H341 C359 0.948 . S
H342 C300 0.948 . S
H343 C318 0.979 . S
H344 C318 0.980 1_455 S
H345 C318 0.983 . S
H346 C317 0.982 . S
H347 C317 0.979 . S
H348 C317 0.977 . S
H349 C319 0.948 . S
H350 C321 0.947 . S
H351 C322 0.948 . S
H352 C328 0.982 . S
H353 C328 0.979 . S
H354 C328 0.977 . S
H355 C329 0.979 . S
H356 C329 0.980 . S
H357 C329 0.983 . S
H358 C302 0.947 . S
C359 C302 1.392 . S
C359 C303 1.419 . S
C359 H341 0.948 . S
C360 C361 1.391 . S
C360 C364 1.391 . S
C360 H402 0.948 . S
C361 C360 1.391 . S
C361 C362 1.391 . S
C362 C361 1.391 . S
C362 H418 0.947 . S
C362 C419 1.392 . S
C363 C364 1.391 . S
C363 C367 1.397 . S
C363 C419 1.419 . S
C364 C360 1.391 . S
C364 C363 1.391 . S
C364 C365 1.399 . S
C365 C364 1.399 . S
C365 C368 1.396 . S
C365 C377 1.453 . S
C365 C378 1.684 . S
H366 C390 0.948 . S
C367 C363 1.397 . S
C367 C368 1.394 . S
C367 C386 1.723 . S
C368 C365 1.396 . S
C368 C367 1.394 . S
C368 C398 1.723 1_565 S
H369 C392 0.947 . S
H370 C393 0.948 . S
H371 C399 0.982 . S
H372 C400 0.979 . S
H373 C400 0.980 . S
H374 C400 0.983 . S
H375 C399 0.979 . S
H376 C399 0.977 . S
C377 C365 1.453 . S
C377 H406 0.990 1_565 S
C377 H407 0.979 . S
C377 H408 0.977 1_565 S
C378 C365 1.684 . S
C378 H403 0.979 . S
C378 H404 0.980 1_565 S
C378 H405 0.983 . S
C379 C380 1.391 1_565 S
C379 C384 1.391 . S
C379 H409 0.948 . S
C380 C379 1.391 1_545 S
C380 C381 1.391 . S
C381 C380 1.391 . S
C381 C382 1.392 . S
C381 H410 0.947 . S
C382 C381 1.392 . S
C382 C383 1.419 . S
C382 H411 0.948 . S
C383 C382 1.419 . S
C383 C384 1.391 1_545 S
C383 C387 1.397 . S
C384 C379 1.391 . S
C384 C383 1.391 1_565 S
C384 C385 1.399 . S
C385 C384 1.399 . S
C385 C386 1.396 . S
C385 C388 1.453 . S
C385 C389 1.684 . S
C386 C367 1.723 . S
C386 C385 1.396 . S
C386 C387 1.394 1_565 S
C387 C383 1.397 . S
C387 C386 1.394 1_545 S
C387 C397 1.723 . S
C388 C385 1.453 . S
C388 H412 0.982 . S
C388 H413 0.979 . S
C388 H414 0.977 . S
C389 C385 1.684 . S
C389 H415 0.979 . S
C389 H416 0.980 . S
C389 H417 0.983 . S
C390 H366 0.948 . S
C390 C391 1.391 . S
C390 C395 1.391 . S
C391 C390 1.391 . S
C391 C392 1.391 . S
C392 H369 0.947 . S
C392 C391 1.391 . S
C392 C393 1.392 . S
C393 H370 0.948 . S
C393 C392 1.392 . S
C393 C394 1.419 . S
C394 C393 1.419 . S
C394 C395 1.391 . S
C394 C398 1.397 . S
C395 C390 1.391 . S
C395 C394 1.391 . S
C395 C396 1.399 . S
C396 C395 1.399 . S
C396 C397 1.396 . S
C396 C399 1.453 . S
C396 C400 1.684 . S
C397 C387 1.723 . S
C397 C396 1.396 . S
C397 C398 1.394 . S
C398 C368 1.723 1_545 S
C398 C394 1.397 . S
C398 C397 1.394 . S
C399 H371 0.982 . S
C399 H375 0.979 . S
C399 H376 0.977 . S
C399 C396 1.453 . S
C400 H372 0.979 . S
C400 H373 0.980 . S
C400 H374 0.983 . S
C400 C396 1.684 . S
H401 C419 0.948 . S
H402 C360 0.948 . S
H403 C378 0.979 . S
H404 C378 0.980 1_545 S
H405 C378 0.983 . S
H406 C377 0.990 1_545 S
H407 C377 0.979 . S
H408 C377 0.977 1_545 S
H409 C379 0.948 . S
H410 C381 0.947 . S
H411 C382 0.948 . S
H412 C388 0.982 . S
H413 C388 0.979 . S
H414 C388 0.977 . S
H415 C389 0.979 . S
H416 C389 0.980 . S
H417 C389 0.983 . S
H418 C362 0.947 . S
C419 C362 1.392 . S
C419 C363 1.419 . S
C419 H401 0.948 . S
C420 C421 1.391 . S
C420 C424 1.391 . S
C420 H462 0.948 . S
C421 C420 1.391 . S
C421 C422 1.391 . S
C422 C421 1.391 . S
C422 H478 0.947 . S
C422 C479 1.392 . S
C423 C424 1.391 . S
C423 C427 1.397 . S
C423 C479 1.419 . S
C424 C420 1.391 . S
C424 C423 1.391 . S
C424 C425 1.399 . S
C425 C424 1.399 . S
C425 C428 1.396 . S
C425 C437 1.453 . S
C425 C438 1.684 . S
H426 C450 0.948 . S
C427 C423 1.397 . S
C427 C428 1.394 . S
C427 C446 1.723 . S
C428 C425 1.396 . S
C428 C427 1.394 . S
C428 C458 1.723 . S
H429 C452 0.947 . S
H430 C453 0.948 . S
H431 C459 0.982 . S
H432 C460 0.979 . S
H433 C460 0.980 . S
H434 C460 0.983 . S
H435 C459 0.979 . S
H436 C459 0.977 . S
C437 C425 1.453 . S
C437 H466 0.982 . S
C437 H467 0.979 . S
C437 H468 0.977 . S
C438 C425 1.684 . S
C438 H463 0.979 . S
C438 H464 0.980 . S
C438 H465 0.983 . S
C439 C440 1.391 . S
C439 C444 1.391 . S
C439 H469 0.948 . S
C440 C439 1.391 . S
C440 C441 1.391 . S
C441 C440 1.391 . S
C441 C442 1.392 . S
C441 H470 0.947 . S
C442 C441 1.392 . S
C442 C443 1.419 . S
C442 H471 0.948 . S
C443 C442 1.419 . S
C443 C444 1.391 . S
C443 C447 1.397 . S
C444 C439 1.391 . S
C444 C443 1.391 . S
C444 C445 1.399 . S
C445 C444 1.399 . S
C445 C446 1.396 . S
C445 C448 1.453 . S
C445 C449 1.684 . S
C446 C427 1.723 . S
C446 C445 1.396 . S
C446 C447 1.394 . S
C447 C443 1.397 . S
C447 C446 1.394 . S
C447 C457 1.723 . S
C448 C445 1.453 . S
C448 H472 0.982 . S
C448 H473 0.979 . S
C448 H474 0.977 . S
C449 C445 1.684 . S
C449 H475 0.979 . S
C449 H476 0.980 . S
C449 H477 0.983 . S
C450 H426 0.948 . S
C450 C451 1.391 . S
C450 C455 1.391 . S
C451 C450 1.391 . S
C451 C452 1.391 . S
C452 H429 0.947 . S
C452 C451 1.391 . S
C452 C453 1.392 . S
C453 H430 0.948 . S
C453 C452 1.392 . S
C453 C454 1.419 . S
C454 C453 1.419 . S
C454 C455 1.391 . S
C454 C458 1.397 . S
C455 C450 1.391 . S
C455 C454 1.391 . S
C455 C456 1.399 . S
C456 C455 1.399 . S
C456 C457 1.396 . S
C456 C459 1.453 . S
C456 C460 1.684 . S
C457 C447 1.723 . S
C457 C456 1.396 . S
C457 C458 1.394 . S
C458 C428 1.723 . S
C458 C454 1.397 . S
C458 C457 1.394 . S
C459 H431 0.982 . S
C459 H435 0.979 . S
C459 H436 0.977 . S
C459 C456 1.453 . S
C460 H432 0.979 . S
C460 H433 0.980 . S
C460 H434 0.983 . S
C460 C456 1.684 . S
H461 C479 0.948 . S
H462 C420 0.948 . S
H463 C438 0.979 . S
H464 C438 0.980 . S
H465 C438 0.983 . S
H466 C437 0.982 . S
H467 C437 0.979 . S
H468 C437 0.977 . S
H469 C439 0.948 . S
H470 C441 0.947 . S
H471 C442 0.948 . S
H472 C448 0.982 . S
H473 C448 0.979 . S
H474 C448 0.977 . S
H475 C449 0.979 . S
H476 C449 0.980 . S
H477 C449 0.983 . S
H478 C422 0.947 . S
C479 C422 1.392 . S
C479 C423 1.419 . S
C479 H461 0.948 . S
C480 C481 1.349 . S
C480 C482 1.327 . S
C480 H505 0.950 . S
C481 C480 1.349 . S
C481 C497 1.349 . S
C482 C480 1.327 . S
C482 C501 1.429 . S
C482 H506 0.950 . S
C483 C500 1.574 . S
C483 C502 1.368 . S
C483 H507 0.949 . S
H484 C488 0.949 . S
C485 C486 1.349 . S
C485 C487 1.327 . S
C485 H508 0.950 . S
C486 C485 1.349 . S
C486 C498 1.349 . S
C487 C485 1.327 . S
C487 C503 1.429 . S
C487 H509 0.950 . S
C488 H484 0.949 . S
C488 C496 1.574 . S
C488 C504 1.368 . S
H489 C497 0.950 . S
H490 C495 0.950 . S
H491 C496 0.949 . S
H492 C498 0.950 . S
H493 C499 0.950 . S
H494 C500 0.949 . S
C495 H490 0.950 . S
C495 C497 1.327 . S
C495 C501 1.429 . S
C496 C488 1.574 . S
C496 H491 0.949 . S
C496 C502 1.368 . S
C497 C481 1.349 . S
C497 H489 0.950 . S
C497 C495 1.327 . S
C498 C486 1.349 . S
C498 H492 0.950 . S
C498 C499 1.327 . S
C499 H493 0.950 . S
C499 C498 1.327 . S
C499 C503 1.429 . S
C500 C483 1.574 . S
C500 H494 0.949 . S
C500 C504 1.368 . S
C501 C482 1.429 . S
C501 C495 1.429 . S
C501 C502 1.523 . S
C502 C483 1.368 . S
C502 C496 1.368 . S
C502 C501 1.523 . S
C503 C487 1.429 . S
C503 C499 1.429 . S
C503 C504 1.523 . S
C504 C488 1.368 . S
C504 C500 1.368 . S
C504 C503 1.523 . S
H505 C480 0.950 . S
H506 C482 0.950 . S
H507 C483 0.949 . S
H508 C485 0.950 . S
H509 C487 0.950 . S
C510 C511 1.349 . S
C510 C512 1.327 . S
C510 H535 0.950 . S
C511 C510 1.349 . S
C511 C527 1.349 . S
C512 C510 1.327 . S
C512 C531 1.429 . S
C512 H536 0.950 . S
C513 C530 1.574 . S
C513 C532 1.368 . S
C513 H537 0.949 . S
H514 C518 0.949 . S
C515 C516 1.349 . S
C515 C517 1.327 . S
C515 H538 0.950 . S
C516 C515 1.349 . S
C516 C528 1.349 . S
C517 C515 1.327 . S
C517 C533 1.429 . S
C517 H539 0.950 . S
C518 H514 0.949 . S
C518 C526 1.574 . S
C518 C534 1.368 . S
H519 C527 0.950 . S
H520 C525 0.950 . S
H521 C526 0.949 . S
H522 C528 0.950 . S
H523 C529 0.950 . S
H524 C530 0.949 . S
C525 H520 0.950 . S
C525 C527 1.327 . S
C525 C531 1.429 . S
C526 C518 1.574 . S
C526 H521 0.949 . S
C526 C532 1.368 . S
C527 C511 1.349 . S
C527 H519 0.950 . S
C527 C525 1.327 . S
C528 C516 1.349 . S
C528 H522 0.950 . S
C528 C529 1.327 . S
C529 H523 0.950 . S
C529 C528 1.327 . S
C529 C533 1.429 . S
C530 C513 1.574 . S
C530 H524 0.949 . S
C530 C534 1.368 . S
C531 C512 1.429 . S
C531 C525 1.429 . S
C531 C532 1.523 . S
C532 C513 1.368 . S
C532 C526 1.368 . S
C532 C531 1.523 . S
C533 C517 1.429 . S
C533 C529 1.429 . S
C533 C534 1.523 . S
C534 C518 1.368 . S
C534 C530 1.368 . S
C534 C533 1.523 . S
H535 C510 0.950 . S
H536 C512 0.950 . S
H537 C513 0.949 . S
H538 C515 0.950 . S
H539 C517 0.950 . S
C540 C541 1.349 . S
C540 C542 1.327 . S
C540 H565 0.950 . S
C541 C540 1.349 . S
C541 C557 1.349 . S
C542 C540 1.327 . S
C542 C561 1.429 . S
C542 H566 0.950 . S
C543 C560 1.574 . S
C543 C562 1.368 . S
C543 H567 0.949 . S
H544 C548 0.949 . S
C545 C546 1.349 . S
C545 C547 1.327 . S
C545 H568 0.950 . S
C546 C545 1.349 . S
C546 C558 1.349 . S
C547 C545 1.327 . S
C547 C563 1.429 . S
C547 H569 0.950 . S
C548 H544 0.949 . S
C548 C556 1.574 . S
C548 C564 1.368 . S
H549 C557 0.950 . S
H550 C555 0.950 . S
H551 C556 0.949 . S
H552 C558 0.950 . S
H553 C559 0.950 . S
H554 C560 0.949 . S
C555 H550 0.950 . S
C555 C557 1.327 . S
C555 C561 1.429 . S
C556 C548 1.574 . S
C556 H551 0.949 . S
C556 C562 1.368 . S
C557 C541 1.349 . S
C557 H549 0.950 . S
C557 C555 1.327 . S
C558 C546 1.349 . S
C558 H552 0.950 . S
C558 C559 1.327 . S
C559 H553 0.950 . S
C559 C558 1.327 . S
C559 C563 1.429 . S
C560 C543 1.574 . S
C560 H554 0.949 . S
C560 C564 1.368 . S
C561 C542 1.429 . S
C561 C555 1.429 . S
C561 C562 1.523 . S
C562 C543 1.368 . S
C562 C556 1.368 . S
C562 C561 1.523 . S
C563 C547 1.429 . S
C563 C559 1.429 . S
C563 C564 1.523 . S
C564 C548 1.368 . S
C564 C560 1.368 . S
C564 C563 1.523 . S
H565 C540 0.950 . S
H566 C542 0.950 . S
H567 C543 0.949 . S
H568 C545 0.950 . S
H569 C547 0.950 . S
C570 C571 1.349 . S
C570 C572 1.327 . S
C570 H595 0.950 . S
C571 C570 1.349 . S
C571 C587 1.349 . S
C572 C570 1.327 . S
C572 C591 1.429 . S
C572 H596 0.950 . S
C573 C590 1.574 . S
C573 C592 1.368 . S
C573 H597 0.949 . S
H574 C578 0.949 . S
C575 C576 1.349 . S
C575 C577 1.327 . S
C575 H598 0.950 . S
C576 C575 1.349 . S
C576 C588 1.349 . S
C577 C575 1.327 . S
C577 C593 1.429 . S
C577 H599 0.950 . S
C578 H574 0.949 . S
C578 C586 1.574 . S
C578 C594 1.368 . S
H579 C587 0.950 . S
H580 C585 0.950 . S
H581 C586 0.949 . S
H582 C588 0.950 . S
H583 C589 0.950 . S
H584 C590 0.949 . S
C585 H580 0.950 . S
C585 C587 1.327 . S
C585 C591 1.429 . S
C586 C578 1.574 . S
C586 H581 0.949 . S
C586 C592 1.368 . S
C587 C571 1.349 . S
C587 H579 0.950 . S
C587 C585 1.327 . S
C588 C576 1.349 . S
C588 H582 0.950 . S
C588 C589 1.327 . S
C589 H583 0.950 . S
C589 C588 1.327 . S
C589 C593 1.429 . S
C590 C573 1.574 . S
C590 H584 0.949 . S
C590 C594 1.368 . S
C591 C572 1.429 . S
C591 C585 1.429 . S
C591 C592 1.523 . S
C592 C573 1.368 . S
C592 C586 1.368 . S
C592 C591 1.523 . S
C593 C577 1.429 . S
C593 C589 1.429 . S
C593 C594 1.523 . S
C594 C578 1.368 . S
C594 C590 1.368 . S
C594 C593 1.523 . S
H595 C570 0.950 . S
H596 C572 0.950 . S
H597 C573 0.949 . S
H598 C575 0.950 . S
H599 C577 0.950 . S
C600 C601 1.349 . S
C600 C602 1.327 . S
C600 H625 0.950 . S
C601 C600 1.349 . S
C601 C617 1.349 . S
C602 C600 1.327 . S
C602 C621 1.429 . S
C602 H626 0.950 . S
C603 C620 1.574 . S
C603 C622 1.368 . S
C603 H627 0.949 . S
H604 C608 0.949 . S
C605 C606 1.349 . S
C605 C607 1.327 . S
C605 H628 0.950 . S
C606 C605 1.349 . S
C606 C618 1.349 . S
C607 C605 1.327 . S
C607 C623 1.429 . S
C607 H629 0.950 . S
C608 H604 0.949 . S
C608 C616 1.574 . S
C608 C624 1.368 . S
H609 C617 0.950 . S
H610 C615 0.950 . S
H611 C616 0.949 . S
H612 C618 0.950 . S
H613 C619 0.950 . S
H614 C620 0.949 . S
C615 H610 0.950 . S
C615 C617 1.327 . S
C615 C621 1.429 . S
C616 C608 1.574 . S
C616 H611 0.949 . S
C616 C622 1.368 . S
C617 C601 1.349 . S
C617 H609 0.950 . S
C617 C615 1.327 . S
C618 C606 1.349 . S
C618 H612 0.950 . S
C618 C619 1.327 . S
C619 H613 0.950 . S
C619 C618 1.327 . S
C619 C623 1.429 . S
C620 C603 1.574 . S
C620 H614 0.949 . S
C620 C624 1.368 . S
C621 C602 1.429 . S
C621 C615 1.429 . S
C621 C622 1.523 . S
C622 C603 1.368 . S
C622 C616 1.368 . S
C622 C621 1.523 . S
C623 C607 1.429 . S
C623 C619 1.429 . S
C623 C624 1.523 . S
C624 C608 1.368 . S
C624 C620 1.368 . S
C624 C623 1.523 . S
H625 C600 0.950 . S
H626 C602 0.950 . S
H627 C603 0.949 . S
H628 C605 0.950 . S
H629 C607 0.950 . S
C630 C631 1.349 . S
C630 C632 1.327 . S
C630 H655 0.950 . S
C631 C630 1.349 . S
C631 C647 1.349 . S
C632 C630 1.327 . S
C632 C651 1.429 . S
C632 H656 0.950 . S
C633 C650 1.574 . S
C633 C652 1.368 . S
C633 H657 0.949 . S
H634 C638 0.949 . S
C635 C636 1.349 . S
C635 C637 1.327 . S
C635 H658 0.950 . S
C636 C635 1.349 . S
C636 C648 1.349 . S
C637 C635 1.327 . S
C637 C653 1.429 . S
C637 H659 0.950 . S
C638 H634 0.949 . S
C638 C646 1.574 . S
C638 C654 1.368 . S
H639 C647 0.950 . S
H640 C645 0.950 . S
H641 C646 0.949 . S
H642 C648 0.950 . S
H643 C649 0.950 . S
H644 C650 0.949 . S
C645 H640 0.950 . S
C645 C647 1.327 . S
C645 C651 1.429 . S
C646 C638 1.574 . S
C646 H641 0.949 . S
C646 C652 1.368 . S
C647 C631 1.349 . S
C647 H639 0.950 . S
C647 C645 1.327 . S
C648 C636 1.349 . S
C648 H642 0.950 . S
C648 C649 1.327 . S
C649 H643 0.950 . S
C649 C648 1.327 . S
C649 C653 1.429 . S
C650 C633 1.574 . S
C650 H644 0.949 . S
C650 C654 1.368 . S
C651 C632 1.429 . S
C651 C645 1.429 . S
C651 C652 1.523 . S
C652 C633 1.368 . S
C652 C646 1.368 . S
C652 C651 1.523 . S
C653 C637 1.429 . S
C653 C649 1.429 . S
C653 C654 1.523 . S
C654 C638 1.368 . S
C654 C650 1.368 . S
C654 C653 1.523 . S
H655 C630 0.950 . S
H656 C632 0.950 . S
H657 C633 0.949 . S
H658 C635 0.950 . S
H659 C637 0.950 . S
C660 C661 1.349 . S
C660 C662 1.327 . S
C660 H685 0.950 . S
C661 C660 1.349 . S
C661 C677 1.349 . S
C662 C660 1.327 . S
C662 C681 1.429 . S
C662 H686 0.950 . S
C663 C680 1.574 . S
C663 C682 1.368 . S
C663 H687 0.949 . S
H664 C668 0.949 . S
C665 C666 1.349 . S
C665 C667 1.327 . S
C665 H688 0.950 . S
C666 C665 1.349 . S
C666 C678 1.349 . S
C667 C665 1.327 . S
C667 C683 1.429 . S
C667 H689 0.950 . S
C668 H664 0.949 . S
C668 C676 1.574 . S
C668 C684 1.368 . S
H669 C677 0.950 . S
H670 C675 0.950 . S
H671 C676 0.949 . S
H672 C678 0.950 . S
H673 C679 0.950 . S
H674 C680 0.949 . S
C675 H670 0.950 . S
C675 C677 1.327 . S
C675 C681 1.429 . S
C676 C668 1.574 . S
C676 H671 0.949 . S
C676 C682 1.368 . S
C677 C661 1.349 . S
C677 H669 0.950 . S
C677 C675 1.327 . S
C678 C666 1.349 . S
C678 H672 0.950 . S
C678 C679 1.327 . S
C679 H673 0.950 . S
C679 C678 1.327 . S
C679 C683 1.429 . S
C680 C663 1.574 . S
C680 H674 0.949 . S
C680 C684 1.368 . S
C681 C662 1.429 . S
C681 C675 1.429 . S
C681 C682 1.523 . S
C682 C663 1.368 . S
C682 C676 1.368 . S
C682 C681 1.523 . S
C683 C667 1.429 . S
C683 C679 1.429 . S
C683 C684 1.523 . S
C684 C668 1.368 . S
C684 C680 1.368 . S
C684 C683 1.523 . S
H685 C660 0.950 . S
H686 C662 0.950 . S
H687 C663 0.949 . S
H688 C665 0.950 . S
H689 C667 0.950 . S
C690 C691 1.349 . S
C690 C692 1.327 . S
C690 H715 0.950 . S
C691 C690 1.349 . S
C691 C707 1.349 . S
C692 C690 1.327 . S
C692 C711 1.429 . S
C692 H716 0.950 . S
C693 C710 1.574 . S
C693 C712 1.368 . S
C693 H717 0.949 . S
H694 C698 0.949 . S
C695 C696 1.349 . S
C695 C697 1.327 . S
C695 H718 0.950 . S
C696 C695 1.349 . S
C696 C708 1.349 . S
C697 C695 1.327 . S
C697 C713 1.429 . S
C697 H719 0.950 . S
C698 H694 0.949 . S
C698 C706 1.574 . S
C698 C714 1.368 . S
H699 C707 0.950 . S
H700 C705 0.950 . S
H701 C706 0.949 . S
H702 C708 0.950 . S
H703 C709 0.950 . S
H704 C710 0.949 . S
C705 H700 0.950 . S
C705 C707 1.327 . S
C705 C711 1.429 . S
C706 C698 1.574 . S
C706 H701 0.949 . S
C706 C712 1.368 . S
C707 C691 1.349 . S
C707 H699 0.950 . S
C707 C705 1.327 . S
C708 C696 1.349 . S
C708 H702 0.950 . S
C708 C709 1.327 . S
C709 H703 0.950 . S
C709 C708 1.327 . S
C709 C713 1.429 . S
C710 C693 1.574 . S
C710 H704 0.949 . S
C710 C714 1.368 . S
C711 C692 1.429 . S
C711 C705 1.429 . S
C711 C712 1.523 . S
C712 C693 1.368 . S
C712 C706 1.368 . S
C712 C711 1.523 . S
C713 C697 1.429 . S
C713 C709 1.429 . S
C713 C714 1.523 . S
C714 C698 1.368 . S
C714 C710 1.368 . S
C714 C713 1.523 . S
H715 C690 0.950 . S
H716 C692 0.950 . S
H717 C693 0.949 . S
H718 C695 0.950 . S
H719 C697 0.950 . S
C720 C721 1.349 . S
C720 C722 1.327 . S
C720 H745 0.950 . S
C721 C720 1.349 . S
C721 C737 1.349 . S
C722 C720 1.327 . S
C722 C741 1.429 . S
C722 H746 0.950 . S
C723 C740 1.574 . S
C723 C742 1.368 . S
C723 H747 0.949 . S
H724 C728 0.949 . S
C725 C726 1.349 . S
C725 C727 1.327 . S
C725 H748 0.950 . S
C726 C725 1.349 . S
C726 C738 1.349 . S
C727 C725 1.327 . S
C727 C743 1.429 . S
C727 H749 0.950 . S
C728 H724 0.949 . S
C728 C736 1.574 . S
C728 C744 1.368 . S
H729 C737 0.950 . S
H730 C735 0.950 . S
H731 C736 0.949 . S
H732 C738 0.950 . S
H733 C739 0.950 . S
H734 C740 0.949 . S
C735 H730 0.950 . S
C735 C737 1.327 . S
C735 C741 1.429 . S
C736 C728 1.574 . S
C736 H731 0.949 . S
C736 C742 1.368 . S
C737 C721 1.349 . S
C737 H729 0.950 . S
C737 C735 1.327 . S
C738 C726 1.349 . S
C738 H732 0.950 . S
C738 C739 1.327 . S
C739 H733 0.950 . S
C739 C738 1.327 . S
C739 C743 1.429 . S
C740 C723 1.574 . S
C740 H734 0.949 . S
C740 C744 1.368 . S
C741 C722 1.429 . S
C741 C735 1.429 . S
C741 C742 1.523 . S
C742 C723 1.368 . S
C742 C736 1.368 . S
C742 C741 1.523 . S
C743 C727 1.429 . S
C743 C739 1.429 . S
C743 C744 1.523 . S
C744 C728 1.368 . S
C744 C740 1.368 . S
C744 C743 1.523 . S
H745 C720 0.950 . S
H746 C722 0.950 . S
H747 C723 0.949 . S
H748 C725 0.950 . S
H749 C727 0.950 . S
C750 C751 1.349 . S
C750 C752 1.327 . S
C750 H775 0.950 . S
C751 C750 1.349 . S
C751 C767 1.349 . S
C752 C750 1.327 . S
C752 C771 1.429 . S
C752 H776 0.950 . S
C753 C770 1.574 . S
C753 C772 1.368 . S
C753 H777 0.949 . S
H754 C758 0.949 . S
C755 C756 1.349 . S
C755 C757 1.327 . S
C755 H778 0.950 . S
C756 C755 1.349 . S
C756 C768 1.349 . S
C757 C755 1.327 . S
C757 C773 1.429 . S
C757 H779 0.950 . S
C758 H754 0.949 . S
C758 C766 1.574 . S
C758 C774 1.368 . S
H759 C767 0.950 . S
H760 C765 0.950 . S
H761 C766 0.949 . S
H762 C768 0.950 . S
H763 C769 0.950 . S
H764 C770 0.949 . S
C765 H760 0.950 . S
C765 C767 1.327 . S
C765 C771 1.429 . S
C766 C758 1.574 . S
C766 H761 0.949 . S
C766 C772 1.368 . S
C767 C751 1.349 . S
C767 H759 0.950 . S
C767 C765 1.327 . S
C768 C756 1.349 . S
C768 H762 0.950 . S
C768 C769 1.327 . S
C769 H763 0.950 . S
C769 C768 1.327 . S
C769 C773 1.429 . S
C770 C753 1.574 . S
C770 H764 0.949 . S
C770 C774 1.368 . S
C771 C752 1.429 . S
C771 C765 1.429 . S
C771 C772 1.523 . S
C772 C753 1.368 . S
C772 C766 1.368 . S
C772 C771 1.523 . S
C773 C757 1.429 . S
C773 C769 1.429 . S
C773 C774 1.523 . S
C774 C758 1.368 . S
C774 C770 1.368 . S
C774 C773 1.523 . S
H775 C750 0.950 . S
H776 C752 0.950 . S
H777 C753 0.949 . S
H778 C755 0.950 . S
H779 C757 0.950 . S
C780 C781 1.349 . S
C780 C782 1.327 . S
C780 H805 0.950 . S
C781 C780 1.349 . S
C781 C797 1.349 . S
C782 C780 1.327 . S
C782 C801 1.429 . S
C782 H806 0.950 . S
C783 C800 1.574 . S
C783 C802 1.368 . S
C783 H807 0.949 . S
H784 C788 0.949 . S
C785 C786 1.349 . S
C785 C787 1.327 . S
C785 H808 0.950 . S
C786 C785 1.349 . S
C786 C798 1.349 . S
C787 C785 1.327 . S
C787 C803 1.429 . S
C787 H809 0.950 . S
C788 H784 0.949 . S
C788 C796 1.574 . S
C788 C804 1.368 . S
H789 C797 0.950 . S
H790 C795 0.950 . S
H791 C796 0.949 . S
H792 C798 0.950 . S
H793 C799 0.950 . S
H794 C800 0.949 . S
C795 H790 0.950 . S
C795 C797 1.327 . S
C795 C801 1.429 . S
C796 C788 1.574 . S
C796 H791 0.949 . S
C796 C802 1.368 . S
C797 C781 1.349 . S
C797 H789 0.950 . S
C797 C795 1.327 . S
C798 C786 1.349 . S
C798 H792 0.950 . S
C798 C799 1.327 . S
C799 H793 0.950 . S
C799 C798 1.327 . S
C799 C803 1.429 . S
C800 C783 1.574 . S
C800 H794 0.949 . S
C800 C804 1.368 . S
C801 C782 1.429 . S
C801 C795 1.429 . S
C801 C802 1.523 . S
C802 C783 1.368 . S
C802 C796 1.368 . S
C802 C801 1.523 . S
C803 C787 1.429 . S
C803 C799 1.429 . S
C803 C804 1.523 . S
C804 C788 1.368 . S
C804 C800 1.368 . S
C804 C803 1.523 . S
H805 C780 0.950 . S
H806 C782 0.950 . S
H807 C783 0.949 . S
H808 C785 0.950 . S
H809 C787 0.950 . S
C810 C811 1.349 . S
C810 C812 1.327 . S
C810 H835 0.950 . S
C811 C810 1.349 . S
C811 C827 1.349 . S
C812 C810 1.327 . S
C812 C831 1.429 . S
C812 H836 0.950 . S
C813 C830 1.574 . S
C813 C832 1.368 . S
C813 H837 0.949 . S
H814 C818 0.949 . S
C815 C816 1.349 . S
C815 C817 1.327 . S
C815 H838 0.950 . S
C816 C815 1.349 . S
C816 C828 1.349 . S
C817 C815 1.327 . S
C817 C833 1.429 . S
C817 H839 0.950 . S
C818 H814 0.949 . S
C818 C826 1.574 . S
C818 C834 1.368 . S
H819 C827 0.950 . S
H820 C825 0.950 . S
H821 C826 0.949 . S
H822 C828 0.950 . S
H823 C829 0.950 . S
H824 C830 0.949 . S
C825 H820 0.950 . S
C825 C827 1.327 . S
C825 C831 1.429 . S
C826 C818 1.574 . S
C826 H821 0.949 . S
C826 C832 1.368 . S
C827 C811 1.349 . S
C827 H819 0.950 . S
C827 C825 1.327 . S
C828 C816 1.349 . S
C828 H822 0.950 . S
C828 C829 1.327 . S
C829 H823 0.950 . S
C829 C828 1.327 . S
C829 C833 1.429 . S
C830 C813 1.574 . S
C830 H824 0.949 . S
C830 C834 1.368 . S
C831 C812 1.429 . S
C831 C825 1.429 . S
C831 C832 1.523 . S
C832 C813 1.368 . S
C832 C826 1.368 . S
C832 C831 1.523 . S
C833 C817 1.429 . S
C833 C829 1.429 . S
C833 C834 1.523 . S
C834 C818 1.368 . S
C834 C830 1.368 . S
C834 C833 1.523 . S
H835 C810 0.950 . S
H836 C812 0.950 . S
H837 C813 0.949 . S
H838 C815 0.950 . S
H839 C817 0.950 . S
C840 C841 1.349 . S
C840 C842 1.327 . S
C840 H865 0.950 . S
C841 C840 1.349 . S
C841 C857 1.349 1_455 S
C842 C840 1.327 . S
C842 C861 1.429 . S
C842 H866 0.950 . S
C843 C860 1.574 . S
C843 C862 1.368 1_655 S
C843 H867 0.949 . S
H844 C848 0.949 . S
C845 C846 1.349 . S
C845 C847 1.327 1_556 S
C845 H868 0.950 1_455 S
C846 C845 1.349 . S
C846 C858 1.349 . S
C847 C845 1.327 1_554 S
C847 C863 1.429 . S
C847 H869 0.950 1_455 S
C848 H844 0.949 . S
C848 C856 1.574 . S
C848 C864 1.368 . S
H849 C857 0.950 . S
H850 C855 0.950 . S
H851 C856 0.949 . S
H852 C858 0.950 . S
H853 C859 0.950 . S
H854 C860 0.949 . S
C855 H850 0.950 . S
C855 C857 1.327 . S
C855 C861 1.429 1_655 S
C856 C848 1.574 . S
C856 H851 0.949 . S
C856 C862 1.368 . S
C857 C841 1.349 1_655 S
C857 H849 0.950 . S
C857 C855 1.327 . S
C858 C846 1.349 . S
C858 H852 0.950 . S
C858 C859 1.327 1_556 S
C859 H853 0.950 . S
C859 C858 1.327 1_554 S
C859 C863 1.429 . S
C860 C843 1.574 . S
C860 H854 0.949 . S
C860 C864 1.368 1_655 S
C861 C842 1.429 . S
C861 C855 1.429 1_455 S
C861 C862 1.523 . S
C862 C843 1.368 1_455 S
C862 C856 1.368 . S
C862 C861 1.523 . S
C863 C847 1.429 . S
C863 C859 1.429 . S
C863 C864 1.523 . S
C864 C848 1.368 . S
C864 C860 1.368 1_455 S
C864 C863 1.523 . S
H865 C840 0.950 . S
H866 C842 0.950 . S
H867 C843 0.949 . S
H868 C845 0.950 1_655 S
H869 C847 0.950 1_655 S
C870 C871 1.349 . S
C870 C872 1.327 . S
C870 H895 0.960 . S
C871 C870 1.349 . S
C871 C887 1.349 . S
C872 C870 1.327 . S
C872 C891 1.429 . S
C872 H896 0.950 . S
C873 C890 1.574 . S
C873 C892 1.368 . S
C873 H897 0.949 . S
H874 C878 0.949 . S
C875 C876 1.349 . S
C875 C877 1.327 . S
C875 H898 0.950 . S
C876 C875 1.349 . S
C876 C888 1.349 . S
C877 C875 1.327 . S
C877 C893 1.429 . S
C877 H899 0.950 . S
C878 H874 0.949 . S
C878 C886 1.574 . S
C878 C894 1.368 . S
H879 C887 0.950 . S
H880 C885 0.950 . S
H881 C886 0.949 . S
H882 C888 0.950 . S
H883 C889 0.950 . S
H884 C890 0.949 . S
C885 H880 0.950 . S
C885 C887 1.327 . S
C885 C891 1.429 . S
C886 C878 1.574 . S
C886 H881 0.949 . S
C886 C892 1.368 . S
C887 C871 1.349 . S
C887 H879 0.950 . S
C887 C885 1.327 . S
C888 C876 1.349 . S
C888 H882 0.950 . S
C888 C889 1.327 . S
C889 H883 0.950 . S
C889 C888 1.327 . S
C889 C893 1.429 . S
C890 C873 1.574 . S
C890 H884 0.949 . S
C890 C894 1.368 . S
C891 C872 1.429 . S
C891 C885 1.429 . S
C891 C892 1.523 . S
C892 C873 1.368 . S
C892 C886 1.368 . S
C892 C891 1.523 . S
C893 C877 1.429 . S
C893 C889 1.429 . S
C893 C894 1.523 . S
C894 C878 1.368 . S
C894 C890 1.368 . S
C894 C893 1.523 . S
H895 C870 0.960 . S
H896 C872 0.950 . S
H897 C873 0.949 . S
H898 C875 0.950 . S
H899 C877 0.950 . S
C900 C901 1.349 . S
C900 C902 1.327 . S
C900 H925 0.950 . S
C901 C900 1.349 . S
C901 C917 1.349 . S
C902 C900 1.327 . S
C902 C921 1.429 . S
C902 H926 0.950 . S
C903 C920 1.574 . S
C903 C922 1.368 . S
C903 H927 0.949 . S
H904 C908 0.949 . S
C905 C906 1.349 . S
C905 C907 1.327 . S
C905 H928 0.950 . S
C906 C905 1.349 . S
C906 C918 1.349 . S
C907 C905 1.327 . S
C907 C923 1.429 . S
C907 H929 0.950 . S
C908 H904 0.949 . S
C908 C916 1.574 . S
C908 C924 1.368 . S
H909 C917 0.950 . S
H910 C915 0.950 . S
H911 C916 0.949 . S
H912 C918 0.950 . S
H913 C919 0.950 . S
H914 C920 0.949 . S
C915 H910 0.950 . S
C915 C917 1.327 . S
C915 C921 1.429 . S
C916 C908 1.574 . S
C916 H911 0.949 . S
C916 C922 1.368 . S
C917 C901 1.349 . S
C917 H909 0.950 . S
C917 C915 1.327 . S
C918 C906 1.349 . S
C918 H912 0.950 . S
C918 C919 1.327 . S
C919 H913 0.950 . S
C919 C918 1.327 . S
C919 C923 1.429 . S
C920 C903 1.574 . S
C920 H914 0.949 . S
C920 C924 1.368 . S
C921 C902 1.429 . S
C921 C915 1.429 . S
C921 C922 1.523 . S
C922 C903 1.368 . S
C922 C916 1.368 . S
C922 C921 1.523 . S
C923 C907 1.429 . S
C923 C919 1.429 . S
C923 C924 1.523 . S
C924 C908 1.368 . S
C924 C920 1.368 . S
C924 C923 1.523 . S
H925 C900 0.950 . S
H926 C902 0.950 . S
H927 C903 0.949 . S
H928 C905 0.950 . S
H929 C907 0.950 . S
C930 C931 1.349 . S
C930 C932 1.327 . S
C930 H955 0.950 . S
C931 C930 1.349 . S
C931 C947 1.349 1_545 S
C932 C930 1.327 . S
C932 C951 1.429 . S
C932 H956 0.950 . S
C933 C950 1.574 . S
C933 C952 1.368 1_565 S
C933 H957 0.949 . S
H934 C938 0.949 . S
C935 C936 1.349 1_565 S
C935 C937 1.327 . S
C935 H958 0.950 . S
C936 C935 1.349 1_545 S
C936 C948 1.349 . S
C937 C935 1.327 . S
C937 C953 1.429 1_565 S
C937 H959 0.950 . S
C938 H934 0.949 . S
C938 C946 1.574 . S
C938 C954 1.368 . S
H939 C947 0.950 . S
H940 C945 0.950 . S
H941 C946 0.949 . S
H942 C948 0.950 . S
H943 C949 0.950 . S
H944 C950 0.949 . S
C945 H940 0.950 . S
C945 C947 1.327 . S
C945 C951 1.429 1_565 S
C946 C938 1.574 . S
C946 H941 0.949 . S
C946 C952 1.368 . S
C947 C931 1.349 1_565 S
C947 H939 0.950 . S
C947 C945 1.327 . S
C948 C936 1.349 . S
C948 H942 0.950 . S
C948 C949 1.327 . S
C949 H943 0.950 . S
C949 C948 1.327 . S
C949 C953 1.429 . S
C950 C933 1.574 . S
C950 H944 0.949 . S
C950 C954 1.368 1_565 S
C951 C932 1.429 . S
C951 C945 1.429 1_545 S
C951 C952 1.523 . S
C952 C933 1.368 1_545 S
C952 C946 1.368 . S
C952 C951 1.523 . S
C953 C937 1.429 1_545 S
C953 C949 1.429 . S
C953 C954 1.523 . S
C954 C938 1.368 . S
C954 C950 1.368 1_545 S
C954 C953 1.523 . S
H955 C930 0.950 . S
H956 C932 0.950 . S
H957 C933 0.949 . S
H958 C935 0.950 . S
H959 C937 0.950 . S
C960 C961 1.349 . S
C960 C962 1.327 . S
C960 H985 0.950 . S
C961 C960 1.349 . S
C961 C977 1.349 . S
C962 C960 1.327 . S
C962 C981 1.429 . S
C962 H986 0.950 . S
C963 C980 1.574 . S
C963 C982 1.368 . S
C963 H987 0.949 . S
H964 C968 0.949 . S
C965 C966 1.349 . S
C965 C967 1.327 1_554 S
C965 H988 0.950 . S
C966 C965 1.349 . S
C966 C978 1.349 . S
C967 C965 1.327 1_556 S
C967 C983 1.429 . S
C967 H989 0.950 . S
C968 H964 0.949 . S
C968 C976 1.574 . S
C968 C984 1.368 . S
H969 C977 0.950 . S
H970 C975 0.950 . S
H971 C976 0.949 . S
H972 C978 0.950 . S
H973 C979 0.950 . S
H974 C980 0.949 . S
C975 H970 0.950 . S
C975 C977 1.327 . S
C975 C981 1.429 . S
C976 C968 1.574 . S
C976 H971 0.949 . S
C976 C982 1.368 . S
C977 C961 1.349 . S
C977 H969 0.950 . S
C977 C975 1.327 . S
C978 C966 1.349 . S
C978 H972 0.950 . S
C978 C979 1.327 1_554 S
C979 H973 0.950 . S
C979 C978 1.327 1_556 S
C979 C983 1.429 . S
C980 C963 1.574 . S
C980 H974 0.949 . S
C980 C984 1.368 . S
C981 C962 1.429 . S
C981 C975 1.429 . S
C981 C982 1.523 . S
C982 C963 1.368 . S
C982 C976 1.368 . S
C982 C981 1.523 . S
C983 C967 1.429 . S
C983 C979 1.429 . S
C983 C984 1.523 . S
C984 C968 1.368 . S
C984 C980 1.368 . S
C984 C983 1.523 . S
H985 C960 0.950 . S
H986 C962 0.950 . S
H987 C963 0.949 . S
H988 C965 0.950 . S
H989 C967 0.950 . S
C990 C991 1.349 . S
C990 C992 1.327 . S
C990 H1015 0.954 . S
C991 C990 1.349 . S
C991 C1007 1.349 . S
C992 C990 1.327 . S
C992 C1011 1.429 . S
C992 H1016 0.950 1_455 S
C993 C1010 1.574 . S
C993 C1012 1.368 . S
C993 H1017 0.949 . S
H994 C998 0.949 . S
C995 C996 1.342 1_455 S
C995 C997 1.327 . S
C995 H1018 0.950 . S
C996 C995 1.342 1_655 S
C996 C1008 1.355 . S
C997 C995 1.327 . S
C997 C1013 1.429 . S
C997 H1019 0.950 . S
C998 H994 0.949 . S
C998 C1006 1.575 . S
C998 C1014 1.368 1_655 S
H999 C1007 0.950 . S
H1000 C1005 0.950 . S
H1001 C1006 0.952 . S
H1002 C1008 0.950 . S
H1003 C1009 0.950 . S
H1004 C1010 0.949 . S
C1005 H1000 0.950 . S
C1005 C1007 1.327 . S
C1005 C1011 1.429 . S
C1006 C998 1.575 . S
C1006 H1001 0.952 . S
C1006 C1012 1.364 1_655 S
C1007 C991 1.349 . S
C1007 H999 0.950 . S
C1007 C1005 1.327 . S
C1008 C996 1.355 . S
C1008 H1002 0.950 . S
C1008 C1009 1.327 . S
C1009 H1003 0.950 . S
C1009 C1008 1.327 . S
C1009 C1013 1.429 1_655 S
C1010 C993 1.574 . S
C1010 H1004 0.949 . S
C1010 C1014 1.368 . S
C1011 C992 1.429 . S
C1011 C1005 1.429 . S
C1011 C1012 1.523 . S
C1012 C993 1.368 . S
C1012 C1006 1.364 1_455 S
C1012 C1011 1.523 . S
C1013 C997 1.429 . S
C1013 C1009 1.429 1_455 S
C1013 C1014 1.523 . S
C1014 C998 1.368 1_455 S
C1014 C1010 1.368 . S
C1014 C1013 1.523 . S
H1015 C990 0.954 . S
H1016 C992 0.950 1_655 S
H1017 C993 0.949 . S
H1018 C995 0.950 . S
H1019 C997 0.950 . S
C481 C24 2.843 . S
C486 C451 2.830 . S
C511 C66 1.034 . S
C516 C301 1.028 . S
C541 C93 1.726 . S
C546 C361 1.614 . S
C571 C13 3.001 . S
C576 C421 2.841 . S
C606 C331 1.248 . S
C601 C57 1.246 . S
C636 C391 1.902 . S
C631 C104 1.905 . S
C661 C64 1.886 . S
C666 C181 1.743 . S
C691 C97 0.380 . S
C696 C271 0.344 . S
C721 C17 1.215 . S
C726 C151 1.218 . S
C756 C211 1.737 . S
C751 C53 1.740 . S
C786 C241 0.349 . S
C781 C106 0.311 . S
C811 C26 1.050 . S
C816 C121 1.036 . S
C846 C260 1.075 . S
C841 C2 1.077 . S
C871 C63 1.462 . S
C876 C140 1.473 . S
C901 C82 1.369 . S
C906 C200 1.362 . S
C936 C380 1.389 . S
C931 C42 1.385 . S
C966 C440 1.761 . S
C961 C103 1.732 . S
C991 C23 1.471 . S
C996 C320 1.474 1_655 S
