# Generated by pormake.
# Topology anh, (6,3)-cn, num edge types: 1
# Building blocks:
#     Node 0, Type 0, BuildingBlock: MIFKUJ_clean_sbu_0, # of connection points: 6
#     Node 1, Type 0, BuildingBlock: MIFKUJ_clean_sbu_0, # of connection points: 6
#     Node 2, Type 0, BuildingBlock: MIFKUJ_clean_sbu_0, # of connection points: 6
#     Node 3, Type 1, BuildingBlock: BELTOD_clean_linker_0, # of connection points: 3
#     Node 4, Type 1, BuildingBlock: BELTOD_clean_linker_0, # of connection points: 3
#     Node 5, Type 1, BuildingBlock: BELTOD_clean_linker_0, # of connection points: 3
#     Node 6, Type 1, BuildingBlock: BELTOD_clean_linker_0, # of connection points: 3
#     Node 7, Type 1, BuildingBlock: BELTOD_clean_linker_0, # of connection points: 3
#     Node 8, Type 1, BuildingBlock: BELTOD_clean_linker_0, # of connection points: 3
#     Edge 9, Type (0, 1), BuildingBlock: ZUJKAS_clean_linker_0, # of connection points: 2
#     Edge 10, Type (0, 1), BuildingBlock: ZUJKAS_clean_linker_0, # of connection points: 2
#     Edge 11, Type (0, 1), BuildingBlock: ZUJKAS_clean_linker_0, # of connection points: 2
#     Edge 12, Type (0, 1), BuildingBlock: ZUJKAS_clean_linker_0, # of connection points: 2
#     Edge 13, Type (0, 1), BuildingBlock: ZUJKAS_clean_linker_0, # of connection points: 2
#     Edge 14, Type (0, 1), BuildingBlock: ZUJKAS_clean_linker_0, # of connection points: 2
#     Edge 15, Type (0, 1), BuildingBlock: ZUJKAS_clean_linker_0, # of connection points: 2
#     Edge 16, Type (0, 1), BuildingBlock: ZUJKAS_clean_linker_0, # of connection points: 2
#     Edge 17, Type (0, 1), BuildingBlock: ZUJKAS_clean_linker_0, # of connection points: 2
#     Edge 18, Type (0, 1), BuildingBlock: ZUJKAS_clean_linker_0, # of connection points: 2
#     Edge 19, Type (0, 1), BuildingBlock: ZUJKAS_clean_linker_0, # of connection points: 2
#     Edge 20, Type (0, 1), BuildingBlock: ZUJKAS_clean_linker_0, # of connection points: 2
#     Edge 21, Type (0, 1), BuildingBlock: ZUJKAS_clean_linker_0, # of connection points: 2
#     Edge 22, Type (0, 1), BuildingBlock: ZUJKAS_clean_linker_0, # of connection points: 2
#     Edge 23, Type (0, 1), BuildingBlock: ZUJKAS_clean_linker_0, # of connection points: 2
#     Edge 24, Type (0, 1), BuildingBlock: ZUJKAS_clean_linker_0, # of connection points: 2
#     Edge 25, Type (0, 1), BuildingBlock: ZUJKAS_clean_linker_0, # of connection points: 2
#     Edge 26, Type (0, 1), BuildingBlock: ZUJKAS_clean_linker_0, # of connection points: 2
# Relax obj value: 0.123
# Max RMSD: 0.176
# Mean RMSD: 0.132
data_MOF--net-anh--node1-MIFKUJ_clean_sbu_0--node2-BELTOD_clean_linker_0--edge1-ZUJKAS_clean_linker_0
_symmetry_space_group_name_H-M    P1
_symmetry_Int_Tables_number       1
_symmetry_cell_setting            triclinic
loop_
_symmetry_equiv_pos_as_xyz
'x, y, z'
_cell_length_a     43.269751
_cell_length_b     43.242965
_cell_length_c     73.964174
_cell_angle_alpha  94.042221
_cell_angle_beta   90.746046
_cell_angle_gamma 120.01559
loop_
_atom_site_label
_atom_site_type_symbol
_atom_site_fract_x
_atom_site_fract_y
_atom_site_fract_z
_atom_type_partial_charge
Zn0 Zn 0.02901 0.57905 0.17032 0.0
Zn1 Zn 0.94874 0.49885 0.16667 0.0
C2 C 0.08617 0.56554 0.17543 0.0
O3 O 0.08845 0.58337 0.191 0.0
C4 C 0.89844 0.51613 0.15158 0.0
O5 O 0.90121 0.49798 0.13729 0.0
O6 O 0.06214 0.63226 0.17137 0.0
O7 O 0.99275 0.56649 0.14965 0.0
O8 O 0.97916 0.51047 0.14502 0.0
C9 C 0.07646 0.64501 0.15676 0.0
O10 O 0.06745 0.62331 0.14184 0.0
O11 O 0.06103 0.55858 0.16385 0.0
C12 C 0.92065 0.42366 0.17064 0.0
O13 O 0.95197 0.43535 0.17904 0.0
O14 O 0.91389 0.44593 0.16383 0.0
O15 O 0.97176 0.50906 0.19184 0.0
O16 O 0.01308 0.5667 0.19561 0.0
O17 O 0.91768 0.52158 0.16591 0.0
C18 C 0.98838 0.54033 0.13884 0.0
C19 C 0.99351 0.53678 0.20203 0.0
Zn20 Zn 0.51713 0.04702 0.4998 0.0
Zn21 Zn 0.52432 0.97683 0.49927 0.0
C22 C 0.58827 0.1052 0.50902 0.0
O23 O 0.57115 0.11143 0.52202 0.0
C24 C 0.45677 0.91909 0.48577 0.0
O25 O 0.47781 0.91803 0.47339 0.0
O26 O 0.50116 0.0833 0.49956 0.0
O27 O 0.49586 0.01457 0.47666 0.0
O28 O 0.53877 0.00152 0.4763 0.0
C29 C 0.51094 0.1036 0.48668 0.0
O30 O 0.52839 0.09806 0.47362 0.0
O31 O 0.57106 0.07719 0.49807 0.0
C32 C 0.53476 0.9224 0.51152 0.0
O33 O 0.51506 0.92508 0.52422 0.0
O34 O 0.54339 0.94299 0.4988 0.0
O35 O 0.54267 0.00609 0.52333 0.0
O36 O 0.50557 0.02696 0.52427 0.0
O37 O 0.47027 0.94408 0.49862 0.0
C38 C 0.51663 0.00716 0.46781 0.0
C39 C 0.52543 0.01786 0.53241 0.0
Zn40 Zn 0.55163 0.52496 0.83407 0.0
Zn41 Zn 0.4745 0.51869 0.82745 0.0
C42 C 0.5343 0.45493 0.84239 0.0
O43 O 0.55222 0.4739 0.85745 0.0
C44 C 0.48733 0.58506 0.81618 0.0
O45 O 0.46589 0.56227 0.80286 0.0
O46 O 0.60406 0.54196 0.83712 0.0
O47 O 0.54599 0.54491 0.81141 0.0
O48 O 0.49044 0.50229 0.80501 0.0
C49 C 0.61748 0.53033 0.82516 0.0
O50 O 0.59695 0.50897 0.81121 0.0
O51 O 0.52833 0.47072 0.83008 0.0
C52 C 0.39713 0.47568 0.83091 0.0
O53 O 0.40493 0.45646 0.84102 0.0
O54 O 0.42206 0.50149 0.82341 0.0
O55 O 0.47956 0.50288 0.8519 0.0
O56 O 0.53742 0.53878 0.85766 0.0
O57 O 0.49725 0.57305 0.82893 0.0
C58 C 0.52127 0.52368 0.79978 0.0
C59 C 0.50631 0.51973 0.8632 0.0
P60 P 0.53726 0.96681 0.21216 0.0
H61 H 0.49898 0.92267 0.17889 0.0
H62 H 0.43819 0.89992 0.16631 0.0
H63 H 0.42165 0.96275 0.20905 0.0
H64 H 0.48244 0.98514 0.22164 0.0
H65 H 0.61067 0.98884 0.20376 0.0
H66 H 0.6599 0.04486 0.19472 0.0
H67 H 0.59073 0.09029 0.1948 0.0
H68 H 0.54134 0.03371 0.20338 0.0
H69 H 0.49241 0.91719 0.23757 0.0
H70 H 0.57627 0.02793 0.23996 0.0
O71 O 0.54546 0.93337 0.2074 0.0
H72 H 0.48618 0.92362 0.27022 0.0
H73 H 0.57075 0.03437 0.27258 0.0
C74 C 0.49473 0.95471 0.20145 0.0
C75 C 0.48239 0.93185 0.18542 0.0
C76 C 0.44775 0.91913 0.17816 0.0
C77 C 0.425 0.92926 0.18682 0.0
C78 C 0.43837 0.95403 0.20226 0.0
C79 C 0.47306 0.96681 0.20946 0.0
C80 C 0.57227 0.00698 0.20391 0.0
C81 C 0.60596 0.01066 0.20153 0.0
C82 C 0.63417 0.04283 0.19653 0.0
C83 C 0.62927 0.07209 0.19405 0.0
C84 C 0.59526 0.06811 0.1963 0.0
C85 C 0.56701 0.03582 0.20125 0.0
C86 C 0.53482 0.97196 0.23635 0.0
C87 C 0.50971 0.94278 0.24517 0.0
C88 C 0.50627 0.94649 0.26383 0.0
C89 C 0.52798 0.97953 0.27401 0.0
C90 C 0.55329 0.0087 0.26509 0.0
C91 C 0.55665 0.00496 0.24642 0.0
P92 P 0.66062 0.57574 0.55713 0.0
H93 H 0.68561 0.52917 0.54085 0.0
H94 H 0.65394 0.46819 0.52617 0.0
H95 H 0.55386 0.4672 0.52992 0.0
H96 H 0.58583 0.52831 0.54475 0.0
H97 H 0.66613 0.64068 0.57458 0.0
H98 H 0.65023 0.68369 0.56446 0.0
H99 H 0.61779 0.62549 0.51134 0.0
H100 H 0.63416 0.5826 0.52153 0.0
H101 H 0.692 0.56514 0.58982 0.0
H102 H 0.5962 0.56607 0.57404 0.0
O103 O 0.7048 0.59293 0.55719 0.0
H104 H 0.6712 0.55242 0.6205 0.0
H105 H 0.57551 0.55399 0.60466 0.0
C106 C 0.63808 0.53331 0.54374 0.0
C107 C 0.65696 0.51614 0.53819 0.0
C108 C 0.6388 0.48128 0.52974 0.0
C109 C 0.60137 0.46289 0.52687 0.0
C110 C 0.58266 0.48059 0.53206 0.0
C111 C 0.6009 0.51553 0.54045 0.0
C112 C 0.65026 0.60788 0.54898 0.0
C113 C 0.65547 0.63708 0.56077 0.0
C114 C 0.6463 0.66158 0.55499 0.0
C115 C 0.63222 0.6576 0.5372 0.0
C116 C 0.62851 0.62916 0.52514 0.0
C117 C 0.63758 0.6045 0.53099 0.0
C118 C 0.64594 0.56722 0.5798 0.0
C119 C 0.66665 0.56292 0.59301 0.0
C120 C 0.65476 0.55572 0.61053 0.0
C121 C 0.62176 0.55235 0.61504 0.0
C122 C 0.60086 0.55607 0.6016 0.0
C123 C 0.6128 0.56327 0.58412 0.0
P124 P 0.08163 0.62952 0.89223 0.0
H125 H 0.13452 0.64637 0.86491 0.0
H126 H 0.16407 0.61468 0.85234 0.0
H127 H 0.09964 0.52581 0.88383 0.0
H128 H 0.06982 0.55746 0.8961 0.0
H129 H 0.04314 0.66836 0.89284 0.0
H130 H 0.98556 0.65468 0.87923 0.0
H131 H 0.97353 0.55735 0.85171 0.0
H132 H 0.03078 0.57082 0.86585 0.0
H133 H 0.12857 0.64738 0.92446 0.0
H134 H 0.01522 0.58649 0.91064 0.0
O135 O 0.11134 0.67321 0.89254 0.0
H136 H 0.11744 0.6326 0.95591 0.0
H137 H 0.00377 0.57267 0.94206 0.0
C138 C 0.10069 0.6046 0.88175 0.0
C139 C 0.12664 0.61998 0.86902 0.0
C140 C 0.14354 0.60188 0.86188 0.0
C141 C 0.13452 0.56794 0.86728 0.0
C142 C 0.10711 0.55185 0.87936 0.0
C143 C 0.09027 0.57004 0.88651 0.0
C144 C 0.04145 0.62093 0.88013 0.0
C145 C 0.02834 0.64438 0.88364 0.0
C146 C 0.99545 0.63655 0.87578 0.0
C147 C 0.97495 0.60498 0.86428 0.0
C148 C 0.98849 0.58174 0.86061 0.0
C149 C 0.0214 0.58957 0.86856 0.0
C150 C 0.07275 0.61867 0.91532 0.0
C151 C 0.10127 0.63114 0.92826 0.0
C152 C 0.09484 0.62277 0.94623 0.0
C153 C 0.05967 0.60165 0.95157 0.0
C154 C 0.03119 0.58871 0.93842 0.0
C155 C 0.0377 0.59696 0.92044 0.0
P156 P 0.04647 0.47553 0.45028 0.0
H157 H 0.10352 0.50577 0.47891 0.0
H158 H 0.14679 0.56756 0.48965 0.0
H159 H 0.08658 0.60403 0.45954 0.0
H160 H 0.04371 0.54189 0.44852 0.0
H161 H 0.01067 0.39824 0.44976 0.0
H162 H 0.95267 0.35306 0.45899 0.0
H163 H 0.93089 0.43641 0.47859 0.0
H164 H 0.99003 0.48196 0.46958 0.0
H165 H 0.09555 0.50719 0.4219 0.0
H166 H 0.98197 0.45845 0.42776 0.0
O167 O 0.07323 0.45804 0.45005 0.0
H168 H 0.08745 0.5166 0.3904 0.0
H169 H 0.97369 0.46813 0.39633 0.0
C170 C 0.07074 0.51924 0.46266 0.0
C171 C 0.09908 0.52696 0.47498 0.0
C172 C 0.12385 0.56247 0.48117 0.0
C173 C 0.12065 0.59101 0.47521 0.0
C174 C 0.09038 0.58283 0.46408 0.0
C175 C 0.06561 0.54724 0.4579 0.0
C176 C 0.00501 0.44351 0.45932 0.0
C177 C 0.99377 0.40695 0.45634 0.0
C178 C 0.96028 0.38103 0.46142 0.0
C179 C 0.93686 0.39098 0.46941 0.0
C180 C 0.94838 0.4278 0.47263 0.0
C181 C 0.98215 0.45387 0.46751 0.0
C182 C 0.03936 0.48162 0.42707 0.0
C183 C 0.06885 0.49844 0.41637 0.0
C184 C 0.06421 0.50407 0.39842 0.0
C185 C 0.0299 0.49304 0.39084 0.0
C186 C 1.00039 0.47646 0.40169 0.0
C187 C 0.00511 0.47097 0.4197 0.0
P188 P 0.58699 0.05673 0.78969 0.0
H189 H 0.59718 0.09836 0.82426 0.0
H190 H 0.57751 0.14056 0.83424 0.0
H191 H 0.50914 0.10869 0.78534 0.0
H192 H 0.52813 0.06596 0.77575 0.0
H193 H 0.62884 0.02381 0.79879 0.0
H194 H 0.61304 0.96458 0.80739 0.0
H195 H 0.50196 0.93569 0.80751 0.0
H196 H 0.51821 0.99576 0.79894 0.0
H197 H 0.62079 0.10614 0.76207 0.0
H198 H 0.53778 0.99592 0.76368 0.0
O199 O 0.63063 0.08415 0.79467 0.0
H200 H 0.61121 0.10066 0.7291 0.0
H201 H 0.52849 0.99 0.7307 0.0
C202 C 0.56464 0.07944 0.79913 0.0
C203 C 0.57724 0.09978 0.81593 0.0
C204 C 0.56623 0.1242 0.82152 0.0
C205 C 0.54233 0.12868 0.81041 0.0
C206 C 0.52754 0.10603 0.79426 0.0
C207 C 0.53855 0.08158 0.78871 0.0
C208 C 0.57478 0.01446 0.79853 0.0
C209 C 0.60115 0.00513 0.80105 0.0
C210 C 0.59208 0.97115 0.80599 0.0
C211 C 0.55626 0.94542 0.80823 0.0
C212 C 0.52979 0.95491 0.80585 0.0
C213 C 0.53903 0.98925 0.8011 0.0
C214 C 0.58061 0.05125 0.7653 0.0
C215 C 0.60085 0.08059 0.75529 0.0
C216 C 0.59538 0.0774 0.73644 0.0
C217 C 0.56926 0.0448 0.72724 0.0
C218 C 0.54868 0.01554 0.73737 0.0
C219 C 0.55422 0.01879 0.75625 0.0
P220 P 0.45425 0.46476 0.1156 0.0
H221 H 0.48876 0.45506 0.14714 0.0
H222 H 0.55165 0.4799 0.15659 0.0
H223 H 0.58207 0.55435 0.11532 0.0
H224 H 0.51909 0.52917 0.10585 0.0
H225 H 0.37901 0.42303 0.12262 0.0
H226 H 0.33518 0.43925 0.13259 0.0
H227 H 0.4176 0.55091 0.13896 0.0
H228 H 0.46175 0.53426 0.12896 0.0
H229 H 0.47183 0.42938 0.086 0.0
H230 H 0.4413 0.51025 0.09231 0.0
O231 O 0.43875 0.42164 0.11863 0.0
H232 H 0.47695 0.43635 0.05348 0.0
H233 H 0.44576 0.51694 0.05981 0.0
C234 C 0.49929 0.48971 0.12555 0.0
C235 C 0.50892 0.47728 0.1404 0.0
C236 C 0.54494 0.49162 0.14583 0.0
C237 C 0.57195 0.51871 0.13649 0.0
C238 C 0.56194 0.533 0.12253 0.0
C239 C 0.52589 0.51872 0.11717 0.0
C240 C 0.42377 0.47737 0.12538 0.0
C241 C 0.38792 0.45095 0.12653 0.0
C242 C 0.36281 0.46027 0.13225 0.0
C243 C 0.37291 0.49635 0.13666 0.0
C244 C 0.409 0.52288 0.13561 0.0
C245 C 0.43428 0.51342 0.13005 0.0
C246 C 0.45543 0.46868 0.09151 0.0
C247 C 0.46568 0.44823 0.08033 0.0
C248 C 0.46855 0.45221 0.06174 0.0
C249 C 0.46154 0.47704 0.05403 0.0
C250 C 0.45155 0.49773 0.06535 0.0
C251 C 0.44864 0.49367 0.08394 0.0
H252 H 0.1384 0.57045 0.19852 0.0
H253 H 0.18699 0.55925 0.19127 0.0
H254 H 0.14699 0.52974 0.13534 0.0
H255 H 0.09762 0.54018 0.14258 0.0
H256 H 0.16706 0.48429 0.1478 0.0
H257 H 0.2748 0.62463 0.16519 0.0
H258 H 0.24635 0.60613 0.18359 0.0
H259 H 0.2283 0.61201 0.16289 0.0
C260 C 0.13981 0.56149 0.18467 0.0
C261 C 0.11423 0.55645 0.1711 0.0
C262 C 0.16783 0.55537 0.18052 0.0
C263 C 0.17121 0.54453 0.16268 0.0
C264 C 0.14512 0.53843 0.14918 0.0
H265 H 0.36419 0.55005 0.12448 0.0
H266 H 0.31535 0.56201 0.13035 0.0
C267 C 0.11688 0.54434 0.15334 0.0
C268 C 0.20175 0.53922 0.15822 0.0
H269 H 0.29299 0.58089 0.16112 0.0
C270 C 0.1946 0.50547 0.15061 0.0
C271 C 0.23773 0.56704 0.16158 0.0
C272 C 0.24733 0.60459 0.16858 0.0
C273 C 0.22236 0.49849 0.14675 0.0
C274 C 0.25829 0.52578 0.151 0.0
C275 C 0.26547 0.55982 0.15812 0.0
C276 C 0.28876 0.51953 0.1481 0.0
C277 C 0.2129 0.46207 0.13791 0.0
C278 C 0.29068 0.49243 0.15655 0.0
C279 C 0.3185 0.48553 0.15321 0.0
C280 C 0.34527 0.50591 0.14151 0.0
C281 C 0.34413 0.53404 0.13365 0.0
C282 C 0.31612 0.54076 0.13692 0.0
H283 H 0.18601 0.4484 0.13076 0.0
H284 H 0.23281 0.46416 0.12802 0.0
H285 H 0.21251 0.44498 0.14852 0.0
H286 H 0.27051 0.4764 0.16567 0.0
H287 H 0.31897 0.46409 0.15971 0.0
H288 H 0.63207 0.16698 0.5303 0.0
H289 H 0.69137 0.21522 0.52391 0.0
H290 H 0.68877 0.15457 0.47451 0.0
H291 H 0.62916 0.10618 0.4807 0.0
H292 H 0.75598 0.21582 0.51829 0.0
H293 H 0.70814 0.25076 0.4572 0.0
H294 H 0.67813 0.22252 0.47332 0.0
H295 H 0.69636 0.20454 0.45677 0.0
C296 C 0.64414 0.16371 0.51812 0.0
C297 C 0.62569 0.13273 0.50596 0.0
C298 C 0.67809 0.19137 0.51449 0.0
C299 C 0.69426 0.18883 0.49857 0.0
C300 C 0.6765 0.15744 0.4867 0.0
H301 H 0.89108 0.32838 0.44913 0.0
H302 H 0.83296 0.28034 0.45694 0.0
C303 C 0.64253 0.12966 0.49034 0.0
C304 C 0.72947 0.21926 0.49435 0.0
H305 H 0.77076 0.28067 0.46345 0.0
C306 C 0.75923 0.2301 0.50634 0.0
C307 C 0.73363 0.23798 0.47878 0.0
C308 C 0.70235 0.22866 0.46583 0.0
C309 C 0.7932 0.25855 0.50296 0.0
C310 C 0.7974 0.27717 0.48734 0.0
C311 C 0.76756 0.26644 0.47542 0.0
C312 C 0.83272 0.30702 0.48275 0.0
C313 C 0.82448 0.26773 0.51587 0.0
C314 C 0.85179 0.33846 0.4945 0.0
C315 C 0.88534 0.36603 0.49012 0.0
C316 C 0.90043 0.36272 0.47387 0.0
C317 C 0.88071 0.33157 0.46194 0.0
C318 C 0.84729 0.30413 0.46632 0.0
H319 H 0.81865 0.24557 0.52447 0.0
H320 H 0.84868 0.27384 0.50836 0.0
H321 H 0.83054 0.29182 0.52498 0.0
H322 H 0.84077 0.34168 0.50708 0.0
H323 H 0.89976 0.38958 0.49963 0.0
H324 H 0.464 0.61579 0.79269 0.0
H325 H 0.47689 0.67768 0.79422 0.0
H326 H 0.54499 0.70327 0.84252 0.0
H327 H 0.5321 0.64094 0.84117 0.0
H328 H 0.46436 0.71578 0.82548 0.0
H329 H 0.60618 0.78081 0.80665 0.0
H330 H 0.5753 0.7335 0.80133 0.0
H331 H 0.59311 0.75044 0.82418 0.0
C332 C 0.48194 0.63451 0.80361 0.0
C333 C 0.49708 0.62332 0.8168 0.0
C334 C 0.48917 0.66991 0.80447 0.0
C335 C 0.51198 0.69509 0.81842 0.0
C336 C 0.52754 0.68429 0.83154 0.0
H337 H 0.58987 0.92546 0.83257 0.0
H338 H 0.57792 0.86487 0.83678 0.0
C339 C 0.52011 0.64867 0.83076 0.0
C340 C 0.51864 0.73237 0.81927 0.0
H341 H 0.58188 0.81824 0.8125 0.0
C342 C 0.49009 0.73827 0.82274 0.0
C343 C 0.55225 0.76162 0.81579 0.0
C344 C 0.58355 0.75653 0.81166 0.0
C345 C 0.49421 0.77266 0.82275 0.0
C346 C 0.52755 0.80181 0.81868 0.0
C347 C 0.5563 0.79595 0.81558 0.0
C348 C 0.53303 0.83836 0.81703 0.0
C349 C 0.46289 0.77741 0.82736 0.0
C350 C 0.5117 0.84377 0.8046 0.0
C351 C 0.51834 0.87839 0.80225 0.0
C352 C 0.54683 0.90843 0.81209 0.0
C353 C 0.56786 0.90291 0.8247 0.0
C354 C 0.56104 0.86828 0.82713 0.0
H355 H 0.44406 0.75611 0.8357 0.0
H356 H 0.47183 0.80392 0.83486 0.0
H357 H 0.44799 0.77556 0.81462 0.0
H358 H 0.49054 0.82129 0.79628 0.0
H359 H 0.50206 0.88174 0.7922 0.0
H360 H 0.87608 0.54183 0.18046 0.0
H361 H 0.82531 0.55219 0.18062 0.0
H362 H 0.80655 0.52369 0.12289 0.0
H363 H 0.85711 0.51323 0.12256 0.0
H364 H 0.8023 0.58799 0.13727 0.0
H365 H 0.7199 0.46451 0.17223 0.0
H366 H 0.76381 0.496 0.18218 0.0
H367 H 0.75917 0.4719 0.16062 0.0
C368 C 0.86145 0.5382 0.16776 0.0
C369 C 0.87047 0.5264 0.15151 0.0
C370 C 0.83238 0.54401 0.1679 0.0
C371 C 0.812 0.53832 0.1518 0.0
C372 C 0.82191 0.52814 0.13546 0.0
H373 H 0.62122 0.52855 0.11153 0.0
H374 H 0.68137 0.5386 0.11683 0.0
C375 C 0.85078 0.52209 0.13532 0.0
C376 C 0.77915 0.54098 0.15201 0.0
H377 H 0.69246 0.4968 0.16392 0.0
C378 C 0.77833 0.56828 0.14323 0.0
C379 C 0.74805 0.51533 0.15989 0.0
C380 C 0.74741 0.48508 0.1692 0.0
C381 C 0.74698 0.57035 0.1419 0.0
C382 C 0.71538 0.54381 0.14912 0.0
C383 C 0.71662 0.51716 0.15839 0.0
C384 C 0.68018 0.54148 0.14613 0.0
C385 C 0.74811 0.60103 0.13281 0.0
C386 C 0.65907 0.53927 0.16081 0.0
C387 C 0.62437 0.53321 0.1578 0.0
C388 C 0.61008 0.52922 0.14003 0.0
C389 C 0.63163 0.53231 0.1254 0.0
C390 C 0.66616 0.53814 0.12842 0.0
H391 H 0.77551 0.6248 0.13389 0.0
H392 H 0.74027 0.59271 0.11817 0.0
H393 H 0.72948 0.60901 0.13883 0.0
H394 H 0.66922 0.54155 0.1746 0.0
H395 H 0.60853 0.53111 0.16936 0.0
H396 H 0.42171 0.86234 0.46027 0.0
H397 H 0.36176 0.81065 0.46091 0.0
H398 H 0.34623 0.8559 0.51141 0.0
H399 H 0.40654 0.90816 0.51088 0.0
H400 H 0.33823 0.76367 0.48902 0.0
H401 H 0.25387 0.82552 0.47936 0.0
H402 H 0.3001 0.84687 0.47361 0.0
H403 H 0.28915 0.84697 0.49692 0.0
C404 C 0.40552 0.86165 0.47145 0.0
C405 C 0.41905 0.88947 0.48554 0.0
C406 C 0.3712 0.83197 0.47179 0.0
C407 C 0.34942 0.82945 0.48615 0.0
C408 C 0.3624 0.8575 0.50007 0.0
H409 H 0.16288 0.62322 0.50673 0.0
H410 H 0.21702 0.68236 0.51116 0.0
C411 C 0.39691 0.88731 0.49976 0.0
C412 C 0.31406 0.79639 0.48686 0.0
H413 H 0.22387 0.76376 0.48369 0.0
C414 C 0.31322 0.76371 0.488 0.0
C415 C 0.28149 0.7965 0.48538 0.0
C416 C 0.28091 0.83073 0.48361 0.0
C417 C 0.28075 0.73109 0.48748 0.0
C418 C 0.24812 0.73113 0.48599 0.0
C419 C 0.24891 0.76384 0.485 0.0
C420 C 0.21314 0.69712 0.48424 0.0
C421 C 0.28164 0.69669 0.48788 0.0
C422 C 0.19224 0.68633 0.46789 0.0
C423 C 0.16137 0.65253 0.46528 0.0
C424 C 0.15057 0.62878 0.47902 0.0
C425 C 0.17066 0.64049 0.49574 0.0
C426 C 0.2016 0.67432 0.49832 0.0
H427 H 0.30862 0.70066 0.48543 0.0
H428 H 0.27411 0.68637 0.5014 0.0
H429 H 0.26217 0.67593 0.4775 0.0
H430 H 0.20066 0.70347 0.45683 0.0
H431 H 0.14697 0.64439 0.45214 0.0
H432 H 0.50724 0.41042 0.81087 0.0
H433 H 0.49934 0.35033 0.80483 0.0
H434 H 0.53489 0.35432 0.86012 0.0
H435 H 0.54238 0.41391 0.86632 0.0
H436 H 0.5526 0.3339 0.80708 0.0
H437 H 0.44738 0.25455 0.8533 0.0
H438 H 0.45634 0.29798 0.84736 0.0
H439 H 0.48374 0.29458 0.86473 0.0
C440 C 0.5127 0.39821 0.82184 0.0
C441 C 0.52544 0.41702 0.83909 0.0
C442 C 0.50825 0.36389 0.81835 0.0
C443 C 0.51609 0.34756 0.83208 0.0
C444 C 0.5279 0.36594 0.84941 0.0
H445 H 0.59059 0.19725 0.82383 0.0
H446 H 0.58131 0.24833 0.82868 0.0
C447 C 0.53241 0.4002 0.8529 0.0
C448 C 0.51506 0.31286 0.82797 0.0
H449 H 0.48257 0.22908 0.84225 0.0
C450 C 0.53693 0.31085 0.81462 0.0
C451 C 0.49436 0.28258 0.83766 0.0
C452 C 0.46885 0.28232 0.85143 0.0
C453 C 0.53978 0.28002 0.81123 0.0
C454 C 0.52066 0.25054 0.82165 0.0
C455 C 0.49759 0.25188 0.83445 0.0
C456 C 0.52532 0.21867 0.81979 0.0
C457 C 0.56341 0.27936 0.79657 0.0
C458 C 0.49657 0.18462 0.81382 0.0
C459 C 0.50169 0.15508 0.81121 0.0
C460 C 0.53562 0.159 0.81468 0.0
C461 C 0.564 0.19301 0.82123 0.0
C462 C 0.55887 0.22243 0.82379 0.0
H463 H 0.56814 0.29926 0.78667 0.0
H464 H 0.58972 0.28614 0.80286 0.0
H465 H 0.55148 0.25234 0.78912 0.0
H466 H 0.47036 0.18106 0.8108 0.0
H467 H 0.47916 0.12925 0.80634 0.0
H468 H 0.52281 0.87663 0.53755 0.0
H469 H 0.53983 0.83071 0.53792 0.0
H470 H 0.58753 0.85949 0.48645 0.0
H471 H 0.57103 0.906 0.48607 0.0
H472 H 0.51972 0.77193 0.51224 0.0
H473 H 0.66737 0.86239 0.51849 0.0
H474 H 0.63662 0.87846 0.52278 0.0
H475 H 0.64426 0.86832 0.49989 0.0
C476 C 0.53708 0.87338 0.52634 0.0
C477 C 0.54572 0.89508 0.51182 0.0
C478 C 0.54672 0.84707 0.52656 0.0
C479 C 0.56524 0.84198 0.51231 0.0
C480 C 0.57379 0.86344 0.49773 0.0
H481 H 0.64509 0.69044 0.50554 0.0
H482 H 0.62725 0.73336 0.4969 0.0
C483 C 0.56422 0.88989 0.49751 0.0
C484 C 0.57491 0.81371 0.51275 0.0
H485 H 0.64587 0.80028 0.51709 0.0
C486 C 0.5473 0.77807 0.51317 0.0
C487 C 0.6109 0.82185 0.51382 0.0
C488 C 0.64159 0.85982 0.51386 0.0
C489 C 0.55473 0.7504 0.51509 0.0
C490 C 0.5907 0.75872 0.51687 0.0
C491 C 0.61833 0.7941 0.51572 0.0
C492 C 0.60017 0.73169 0.52151 0.0
C493 C 0.52405 0.71252 0.51542 0.0
C494 C 0.591 0.71687 0.53821 0.0
C495 C 0.60112 0.69255 0.54316 0.0
C496 C 0.62075 0.68268 0.53152 0.0
C497 C 0.62971 0.69735 0.5147 0.0
C498 C 0.61969 0.72191 0.50979 0.0
H499 H 0.49921 0.70905 0.50877 0.0
H500 H 0.53053 0.69296 0.50854 0.0
H501 H 0.5187 0.70622 0.52972 0.0
H502 H 0.57642 0.72453 0.54756 0.0
H503 H 0.59353 0.68142 0.55612 0.0
H504 H 0.65181 0.50389 0.80402 0.0
H505 H 0.71271 0.51513 0.80885 0.0
H506 H 0.72916 0.58756 0.85591 0.0
H507 H 0.66805 0.57594 0.85143 0.0
H508 H 0.77804 0.57714 0.81007 0.0
H509 H 0.75484 0.51759 0.87602 0.0
H510 H 0.7188 0.51184 0.861 0.0
H511 H 0.74407 0.55259 0.87558 0.0
C512 C 0.66839 0.52228 0.81539 0.0
C513 C 0.65499 0.53879 0.82744 0.0
C514 C 0.70319 0.52867 0.81811 0.0
C515 C 0.72519 0.55164 0.83293 0.0
C516 C 0.71231 0.56907 0.84464 0.0
H517 H 0.95382 0.64983 0.85139 0.0
H518 H 0.89321 0.63538 0.84244 0.0
C519 C 0.67745 0.56256 0.84199 0.0
C520 C 0.76155 0.55721 0.83619 0.0
H521 H 0.81524 0.55016 0.86784 0.0
C522 C 0.78618 0.57108 0.82266 0.0
C523 C 0.77184 0.54862 0.85247 0.0
C524 C 0.74592 0.53149 0.86703 0.0
C525 C 0.82119 0.5775 0.82517 0.0
C526 C 0.83196 0.5705 0.84181 0.0
C527 C 0.80703 0.55579 0.85515 0.0
C528 C 0.86908 0.57878 0.84592 0.0
C529 C 0.84613 0.5913 0.80992 0.0
C530 C 0.87562 0.55188 0.85109 0.0
C531 C 0.91015 0.56018 0.85655 0.0
C532 C 0.93884 0.59561 0.85699 0.0
C533 C 0.9323 0.62235 0.85138 0.0
C534 C 0.89772 0.61404 0.84602 0.0
H535 H 0.83115 0.58479 0.79658 0.0
H536 H 0.86285 0.62091 0.81221 0.0
H537 H 0.86413 0.5799 0.80929 0.0
H538 H 0.85384 0.52453 0.85124 0.0
H539 H 0.91409 0.53903 0.86103 0.0
H540 H 0.10842 0.69421 0.18612 0.0
H541 H 0.16325 0.7523 0.18691 0.0
H542 H 0.16683 0.7386 0.12879 0.0
H543 H 0.11223 0.68015 0.12789 0.0
H544 H 0.22744 0.75105 0.14688 0.0
H545 H 0.19213 0.85191 0.17275 0.0
H546 H 0.17655 0.81504 0.18659 0.0
H547 H 0.15895 0.80732 0.1635 0.0
C548 C 0.12039 0.70388 0.17345 0.0
C549 C 0.10616 0.68242 0.15696 0.0
C550 C 0.1516 0.73728 0.17391 0.0
C551 C 0.1689 0.74997 0.15788 0.0
C552 C 0.15376 0.72938 0.14129 0.0
H553 H 0.39505 0.91392 0.15208 0.0
H554 H 0.33164 0.87533 0.14252 0.0
C555 C 0.1226 0.69595 0.14082 0.0
C556 C 0.20518 0.78193 0.15883 0.0
H557 H 0.25446 0.86921 0.17631 0.0
C558 C 0.23332 0.77713 0.15294 0.0
C559 C 0.21272 0.81582 0.16682 0.0
C560 C 0.18342 0.82297 0.17261 0.0
C561 C 0.269 0.80467 0.1558 0.0
C562 C 0.27667 0.83819 0.16444 0.0
C563 C 0.24846 0.8435 0.16965 0.0
C564 C 0.31384 0.86646 0.16986 0.0
C565 C 0.2982 0.79688 0.15053 0.0
C566 C 0.32446 0.8757 0.18836 0.0
C567 C 0.36049 0.8978 0.19383 0.0
C568 C 0.38657 0.91106 0.18088 0.0
C569 C 0.37559 0.90361 0.16234 0.0
C570 C 0.33945 0.88163 0.15687 0.0
H571 H 0.28783 0.76776 0.14727 0.0
H572 H 0.31066 0.81077 0.13833 0.0
H573 H 0.31935 0.80688 0.16163 0.0
H574 H 0.3051 0.86423 0.19859 0.0
H575 H 0.36808 0.90275 0.20821 0.0
H576 H 0.47574 0.1228 0.51145 0.0
H577 H 0.47791 0.18045 0.51582 0.0
H578 H 0.54246 0.21616 0.46949 0.0
H579 H 0.53968 0.15846 0.46475 0.0
H580 H 0.53868 0.24224 0.52406 0.0
H581 H 0.47544 0.25364 0.46137 0.0
H582 H 0.47004 0.21148 0.46732 0.0
H583 H 0.50942 0.24255 0.45652 0.0
C584 C 0.48968 0.14262 0.50194 0.0
C585 C 0.50767 0.13611 0.4878 0.0
C586 C 0.49087 0.17554 0.50445 0.0
C587 C 0.51001 0.2025 0.49287 0.0
C588 C 0.52677 0.19551 0.47832 0.0
H589 H 0.61848 0.43058 0.49873 0.0
H590 H 0.591 0.36617 0.48999 0.0
C591 C 0.52539 0.16253 0.47572 0.0
C592 C 0.51641 0.23927 0.49734 0.0
H593 H 0.51506 0.30921 0.47929 0.0
C594 C 0.53286 0.25664 0.51439 0.0
C595 C 0.509 0.25809 0.48467 0.0
C596 C 0.48967 0.24033 0.46652 0.0
C597 C 0.54348 0.29273 0.51885 0.0
C598 C 0.53716 0.31186 0.50597 0.0
C599 C 0.51988 0.29437 0.48909 0.0
C600 C 0.55029 0.35059 0.5096 0.0
C601 C 0.56275 0.31062 0.53703 0.0
C602 C 0.53577 0.363 0.52314 0.0
C603 C 0.55146 0.39969 0.52822 0.0
C604 C 0.58196 0.42454 0.51981 0.0
C605 C 0.5953 0.41204 0.50561 0.0
C606 C 0.57951 0.37534 0.50051 0.0
H607 H 0.5707 0.29371 0.54419 0.0
H608 H 0.58707 0.33675 0.53535 0.0
H609 H 0.54493 0.3159 0.54576 0.0
H610 H 0.51308 0.34421 0.53023 0.0
H611 H 0.54073 0.40844 0.5393 0.0
H612 H 0.33985 0.43068 0.84971 0.0
H613 H 0.28413 0.43162 0.85314 0.0
H614 H 0.31775 0.51318 0.81564 0.0
H615 H 0.37303 0.51207 0.81191 0.0
H616 H 0.28403 0.49086 0.86744 0.0
H617 H 0.21308 0.44966 0.79976 0.0
H618 H 0.24826 0.44057 0.80561 0.0
H619 H 0.25897 0.48376 0.79863 0.0
C620 C 0.33496 0.44813 0.84182 0.0
C621 C 0.36101 0.4715 0.83064 0.0
C622 C 0.3031 0.44862 0.8438 0.0
C623 C 0.29661 0.47221 0.83452 0.0
C624 C 0.32176 0.49418 0.82263 0.0
H625 H 0.20672 0.59962 0.86534 0.0
H626 H 0.24167 0.5711 0.8572 0.0
C627 C 0.35356 0.49372 0.82064 0.0
C628 C 0.26642 0.4778 0.83912 0.0
H629 H 0.1993 0.487 0.82025 0.0
C630 C 0.26502 0.48925 0.85717 0.0
C631 C 0.24143 0.47546 0.82577 0.0
C632 C 0.24025 0.46132 0.8064 0.0
C633 C 0.24079 0.50054 0.86201 0.0
C634 C 0.2177 0.50078 0.84842 0.0
C635 C 0.21744 0.48721 0.83059 0.0
C636 C 0.19584 0.51771 0.85231 0.0
C637 C 0.24081 0.51318 0.88156 0.0
C638 C 0.15842 0.49716 0.85177 0.0
C639 C 0.13826 0.51345 0.85635 0.0
C640 C 0.15528 0.55058 0.86133 0.0
C641 C 0.19276 0.57108 0.86136 0.0
C642 C 0.2128 0.55479 0.85688 0.0
H643 H 0.25295 0.50266 0.89091 0.0
H644 H 0.25672 0.5429 0.88329 0.0
H645 H 0.21322 0.50476 0.88553 0.0
H646 H 0.14492 0.4685 0.84815 0.0
H647 H 0.10941 0.49704 0.85605 0.0
H648 H 0.85363 0.39086 0.15403 0.0
H649 H 0.80501 0.32953 0.15642 0.0
H650 H 0.87458 0.30922 0.18952 0.0
H651 H 0.9234 0.37055 0.18732 0.0
H652 H 0.80155 0.26093 0.14768 0.0
H653 H 0.78775 0.28831 0.22084 0.0
H654 H 0.81149 0.32363 0.20616 0.0
H655 H 0.83207 0.29994 0.21464 0.0
C656 C 0.85872 0.37329 0.16171 0.0
C657 C 0.8923 0.38568 0.17063 0.0
C658 C 0.83092 0.33827 0.16302 0.0
C659 C 0.83616 0.31516 0.17335 0.0
C660 C 0.86996 0.32693 0.1817 0.0
H661 H 0.69793 0.10495 0.20848 0.0
H662 H 0.74816 0.16286 0.20216 0.0
C663 C 0.89783 0.36191 0.18036 0.0
C664 C 0.8059 0.27916 0.17593 0.0
H665 H 0.75239 0.2285 0.20812 0.0
C666 C 0.79069 0.25374 0.16086 0.0
C667 C 0.79185 0.27011 0.19315 0.0
C668 C 0.80635 0.29695 0.20963 0.0
C669 C 0.76213 0.21906 0.16265 0.0
C670 C 0.74813 0.20999 0.1799 0.0
C671 C 0.76328 0.23553 0.19493 0.0
C672 C 0.71792 0.17406 0.1828 0.0
C673 C 0.74774 0.19223 0.14618 0.0
C674 C 0.68422 0.16122 0.17404 0.0
C675 C 0.65547 0.12792 0.17749 0.0
C676 C 0.6599 0.107 0.18987 0.0
C677 C 0.69375 0.12005 0.19862 0.0
C678 C 0.72243 0.15326 0.19513 0.0
H679 H 0.76706 0.2003 0.13529 0.0
H680 H 0.74127 0.1652 0.14976 0.0
H681 H 0.72284 0.19037 0.14067 0.0
H682 H 0.68001 0.1772 0.16474 0.0
H683 H 0.62981 0.11855 0.17046 0.0
H684 H 0.99268 0.49408 0.11315 0.0
H685 H 0.00475 0.50269 0.08108 0.0
H686 H 0.01096 0.60548 0.08845 0.0
H687 H 0.99886 0.59716 0.12049 0.0
H688 H 0.96643 0.55726 0.05704 0.0
H689 H 0.10375 0.577 0.06185 0.0
H690 H 0.06925 0.53836 0.07157 0.0
H691 H 0.08187 0.58245 0.08145 0.0
C692 C 0.99658 0.5185 0.10795 0.0
C693 C 0.99499 0.54503 0.11938 0.0
C694 C 0.00363 0.52342 0.08966 0.0
C695 C 0.00908 0.55485 0.08251 0.0
C696 C 0.00697 0.58111 0.09378 0.0
H697 H 0.09333 0.64657 0.98225 0.0
H698 H 0.0808 0.63371 0.01385 0.0
C699 C 1.00012 0.57632 0.11208 0.0
C700 C 0.01669 0.56035 0.06321 0.0
H701 H 0.08017 0.57569 0.03261 0.0
C702 C 0.99121 0.56118 0.05165 0.0
C703 C 0.04921 0.56576 0.05635 0.0
C704 C 0.07782 0.56614 0.06841 0.0
C705 C 0.99736 0.56714 0.0333 0.0
C706 C 0.02972 0.57218 0.02639 0.0
C707 C 0.05529 0.57155 0.03798 0.0
C708 C 0.03791 0.57921 0.00727 0.0
C709 C 0.96955 0.56871 0.0215 0.0
C710 C 0.01826 0.55257 0.99317 0.0
C711 C 0.02556 0.55968 0.97509 0.0
C712 C 0.05265 0.5936 0.9708 0.0
C713 C 0.0726 0.62004 0.98505 0.0
C714 C 0.06538 0.61283 0.00311 0.0
H715 H 0.94926 0.57098 0.02964 0.0
H716 H 0.98231 0.59183 0.01311 0.0
H717 H 0.95558 0.54387 0.01215 0.0
H718 H 0.99729 0.52627 0.99616 0.0
H719 H 0.01012 0.53851 0.96449 0.0
H720 H 0.55875 0.99388 0.44517 0.0
H721 H 0.55792 0.99213 0.41212 0.0
H722 H 0.47193 0.01533 0.41181 0.0
H723 H 0.47241 0.01707 0.44502 0.0
H724 H 0.46183 0.95731 0.38633 0.0
H725 H 0.59371 0.0799 0.38198 0.0
H726 H 0.59454 0.0483 0.39622 0.0
H727 H 0.56961 0.07004 0.40251 0.0
C728 C 0.53967 0.99871 0.43813 0.0
C729 C 0.51572 0.00575 0.44775 0.0
C730 C 0.53938 0.99786 0.41923 0.0
C731 C 0.51524 0.00413 0.40959 0.0
C732 C 0.49092 0.01067 0.41907 0.0
H733 H 0.5295 0.03616 0.29398 0.0
H734 H 0.52409 0.04283 0.32675 0.0
C735 C 0.49125 0.01164 0.43802 0.0
C736 C 0.51507 0.00304 0.38956 0.0
H737 H 0.56798 0.04171 0.35463 0.0
C738 C 0.48487 0.97594 0.37936 0.0
C739 C 0.54501 0.02768 0.38055 0.0
C740 C 0.57746 0.05835 0.39084 0.0
C741 C 0.48436 0.972 0.36034 0.0
C742 C 0.515 0.99554 0.35139 0.0
C743 C 0.54466 0.02348 0.36156 0.0
C744 C 0.51728 0.99105 0.33152 0.0
C745 C 0.45107 0.94265 0.35 0.0
C746 C 0.51568 0.95992 0.32343 0.0
C747 C 0.51902 0.95613 0.30477 0.0
C748 C 0.52421 0.98351 0.29385 0.0
C749 C 0.52593 0.01475 0.30204 0.0
C750 C 0.52262 0.01853 0.32072 0.0
H751 H 0.42718 0.93356 0.3582 0.0
H752 H 0.44603 0.95176 0.33719 0.0
H753 H 0.4546 0.91928 0.34647 0.0
H754 H 0.51241 0.93877 0.33161 0.0
H755 H 0.51822 0.93203 0.29895 0.0
H756 H 0.47439 0.4854 0.77061 0.0
H757 H 0.48821 0.48508 0.73856 0.0
H758 H 0.59909 0.56142 0.75308 0.0
H759 H 0.58577 0.56176 0.78499 0.0
H760 H 0.51985 0.54444 0.717 0.0
H761 H 0.60265 0.48025 0.7223 0.0
H762 H 0.573 0.47887 0.7396 0.0
H763 H 0.6161 0.51828 0.7385 0.0
C764 C 0.50173 0.50201 0.76697 0.0
C765 C 0.52899 0.52351 0.78036 0.0
C766 C 0.50955 0.5018 0.74868 0.0
C767 C 0.54475 0.52277 0.74353 0.0
C768 C 0.57188 0.5445 0.75683 0.0
H769 H 0.66126 0.58251 0.64712 0.0
H770 H 0.64035 0.57277 0.67789 0.0
C771 C 0.56413 0.54483 0.77506 0.0
C772 C 0.55325 0.52296 0.72422 0.0
H773 H 0.60601 0.50817 0.69511 0.0
C774 C 0.53833 0.53611 0.71211 0.0
C775 C 0.57739 0.51208 0.71797 0.0
C776 C 0.59299 0.49625 0.73022 0.0
C777 C 0.54803 0.54003 0.69402 0.0
C778 C 0.57284 0.52994 0.68789 0.0
C779 C 0.5871 0.516 0.6999 0.0
C780 C 0.58529 0.5348 0.66921 0.0
C781 C 0.53273 0.5562 0.68182 0.0
C782 C 0.56135 0.51615 0.65419 0.0
C783 C 0.57324 0.52154 0.63659 0.0
C784 C 0.60935 0.54554 0.63373 0.0
C785 C 0.63338 0.56359 0.64886 0.0
C786 C 0.62145 0.5582 0.66644 0.0
H787 H 0.52038 0.5697 0.68965 0.0
H788 H 0.55376 0.57596 0.67365 0.0
H789 H 0.51177 0.53465 0.67231 0.0
H790 H 0.53348 0.4974 0.65607 0.0
H791 H 0.55419 0.50675 0.62523 0.0
H792 H 0.49555 0.04509 0.55656 0.0
H793 H 0.50123 0.04966 0.58977 0.0
H794 H 0.5683 0.00221 0.58693 0.0
H795 H 0.5625 0.9971 0.55383 0.0
H796 H 0.51452 0.97236 0.61154 0.0
H797 H 0.59044 0.12116 0.62203 0.0
H798 H 0.54916 0.10238 0.60858 0.0
H799 H 0.58517 0.09707 0.6002 0.0
C800 C 0.51156 0.03567 0.563 0.0
C801 C 0.5287 0.02087 0.55252 0.0
C802 C 0.51492 0.03849 0.58197 0.0
C803 C 0.53556 0.02669 0.59079 0.0
C804 C 0.55236 0.0116 0.58039 0.0
H805 H 0.6199 0.07129 0.70201 0.0
H806 H 0.61041 0.06634 0.66902 0.0
C807 C 0.54907 0.0088 0.56145 0.0
C808 C 0.5394 0.02956 0.61088 0.0
H809 H 0.57247 0.08974 0.64837 0.0
C810 C 0.52712 0.99799 0.61962 0.0
C811 C 0.55623 0.06309 0.62133 0.0
C812 C 0.57132 0.09793 0.6126 0.0
C813 C 0.5311 0.99903 0.63856 0.0
C814 C 0.54736 0.03252 0.64903 0.0
C815 C 0.55977 0.06409 0.6403 0.0
C816 C 0.55273 0.03545 0.66905 0.0
C817 C 0.51868 0.96436 0.64715 0.0
C818 C 0.5234 0.02001 0.68002 0.0
C819 C 0.52872 0.02288 0.69889 0.0
C820 C 0.56349 0.04147 0.70716 0.0
C821 C 0.59278 0.05714 0.6961 0.0
C822 C 0.58742 0.05422 0.67725 0.0
H823 H 0.51472 0.94226 0.63703 0.0
H824 H 0.5382 0.96761 0.65807 0.0
H825 H 0.49276 0.95638 0.65329 0.0
H826 H 0.49638 0.00602 0.67399 0.0
H827 H 0.50558 0.01106 0.70703 0.0
H828 H 0.55774 0.54912 0.89108 0.0
H829 H 0.54943 0.54197 0.92346 0.0
H830 H 0.43569 0.47481 0.91232 0.0
H831 H 0.44359 0.48211 0.87992 0.0
H832 H 0.45435 0.52705 0.94153 0.0
H833 H 0.52533 0.45085 0.94806 0.0
H834 H 0.55083 0.49285 0.93838 0.0
H835 H 0.51102 0.45749 0.92635 0.0
C836 C 0.53093 0.53284 0.89549 0.0
C837 C 0.50134 0.51606 0.88287 0.0
C838 C 0.52628 0.52862 0.914 0.0
C839 C 0.49202 0.50742 0.92023 0.0
C840 C 0.46238 0.49113 0.90775 0.0
H841 H 0.43976 0.42471 0.02589 0.0
H842 H 0.44645 0.43235 0.99344 0.0
C843 C 0.46698 0.49531 0.88923 0.0
C844 C 0.48702 0.50245 0.93981 0.0
H845 H 0.50899 0.46966 0.9754 0.0
C846 C 0.46621 0.51444 0.94895 0.0
C847 C 0.50217 0.48558 0.94937 0.0
C848 C 0.52332 0.47063 0.94004 0.0
C849 C 0.46058 0.51049 0.9675 0.0
C850 C 0.47662 0.49459 0.97718 0.0
C851 C 0.49699 0.48212 0.96797 0.0
C852 C 0.47229 0.49022 0.99684 0.0
C853 C 0.43704 0.52283 0.9765 0.0
C854 C 0.48491 0.52026 0.0095 0.0
C855 C 0.48122 0.516 0.02806 0.0
C856 C 0.46505 0.48159 0.03429 0.0
C857 C 0.45264 0.45158 0.02155 0.0
C858 C 0.4563 0.45587 0.00301 0.0
H859 H 0.41965 0.52577 0.9664 0.0
H860 H 0.41988 0.50376 0.98622 0.0
H861 H 0.4541 0.54936 0.98415 0.0
H862 H 0.49806 0.54705 0.00506 0.0
H863 H 0.49164 0.53969 0.03754 0.0
H864 H 0.95276 0.47865 0.22084 0.0
H865 H 0.95827 0.47311 0.25318 0.0
H866 H 0.0466 0.58177 0.26026 0.0
H867 H 0.04099 0.58787 0.22793 0.0
H868 H 0.0163 0.47944 0.27252 0.0
H869 H 0.98248 0.5808 0.30039 0.0
H870 H 0.97373 0.56363 0.27679 0.0
H871 H 0.01808 0.59748 0.28507 0.0
C872 C 0.97322 0.50154 0.22926 0.0
C873 C 0.99632 0.53381 0.22177 0.0
C874 C 0.97633 0.49827 0.24776 0.0
C875 C 0.00249 0.52717 0.25917 0.0
C876 C 0.02569 0.55939 0.25177 0.0
H877 H 0.07076 0.55244 0.37283 0.0
H878 H 0.06405 0.56043 0.34085 0.0
C879 C 0.02254 0.56275 0.23326 0.0
C880 C 0.00629 0.52297 0.27867 0.0
H881 H 0.00408 0.55632 0.3216 0.0
C882 C 0.01346 0.49613 0.28325 0.0
C883 C 0.00266 0.54485 0.29264 0.0
C884 C 0.99349 0.57311 0.28853 0.0
C885 C 0.01756 0.49087 0.30144 0.0
C886 C 0.01388 0.5127 0.31539 0.0
C887 C 0.00687 0.53964 0.31084 0.0
C888 C 0.01732 0.50798 0.33482 0.0
C889 C 0.02648 0.46244 0.30558 0.0
C890 C 0.99291 0.47605 0.34206 0.0
C891 C 0.99673 0.47134 0.36029 0.0
C892 C 0.02502 0.49854 0.37163 0.0
C893 C 0.04901 0.53077 0.36438 0.0
C894 C 0.0451 0.53548 0.34616 0.0
H895 H 0.03668 0.454 0.29363 0.0
H896 H 0.0468 0.4722 0.31707 0.0
H897 H 0.00198 0.4385 0.30949 0.0
H898 H 0.97097 0.4547 0.33357 0.0
H899 H 0.97793 0.44613 0.36542 0.0
loop_
_geom_bond_atom_site_label_1
_geom_bond_atom_site_label_2
_geom_bond_distance
_geom_bond_site_symmetry_2
_ccdc_geom_bond_type
Zn0 O6 1.969 . S
Zn0 O7 1.965 . S
Zn0 O11 2.024 . S
Zn0 O16 1.969 . S
Zn1 O8 1.969 . S
Zn1 O14 1.969 . S
Zn1 O15 1.965 . S
Zn1 O17 2.024 . S
C2 O3 1.229 . S
C2 O11 1.058 . S
O3 C2 1.229 . S
C4 O5 1.229 . S
C4 O17 1.058 . S
O5 C4 1.229 . S
O6 Zn0 1.969 . S
O6 C9 1.267 . S
O7 Zn0 1.965 . S
O7 C18 1.260 1_455 S
O8 Zn1 1.969 . S
O8 C18 1.258 . S
C9 O6 1.267 . S
C9 O10 1.228 . S
O10 C9 1.228 . S
O11 Zn0 2.024 . S
O11 C2 1.058 . S
C12 O13 1.228 . S
C12 O14 1.267 . S
O13 C12 1.228 . S
O14 Zn1 1.969 . S
O14 C12 1.267 . S
O15 Zn1 1.965 . S
O15 C19 1.260 1_655 S
O16 Zn0 1.969 . S
O16 C19 1.258 . S
O17 Zn1 2.024 . S
O17 C4 1.058 . S
C18 O7 1.260 1_655 S
C18 O8 1.258 . S
C19 O15 1.260 1_455 S
C19 O16 1.258 . S
Zn20 O26 1.969 . S
Zn20 O27 1.965 . S
Zn20 O31 2.024 . S
Zn20 O36 1.969 . S
Zn21 O28 1.969 . S
Zn21 O34 1.969 . S
Zn21 O35 1.965 . S
Zn21 O37 2.024 . S
C22 O23 1.229 . S
C22 O31 1.058 . S
O23 C22 1.229 . S
C24 O25 1.229 . S
C24 O37 1.058 . S
O25 C24 1.229 . S
O26 Zn20 1.969 . S
O26 C29 1.267 . S
O27 Zn20 1.965 . S
O27 C38 1.260 . S
O28 Zn21 1.969 . S
O28 C38 1.258 1_565 S
C29 O26 1.267 . S
C29 O30 1.228 . S
O30 C29 1.228 . S
O31 Zn20 2.024 . S
O31 C22 1.058 . S
C32 O33 1.228 . S
C32 O34 1.267 . S
O33 C32 1.228 . S
O34 Zn21 1.969 . S
O34 C32 1.267 . S
O35 Zn21 1.965 . S
O35 C39 1.260 1_565 S
O36 Zn20 1.969 . S
O36 C39 1.258 . S
O37 Zn21 2.024 . S
O37 C24 1.058 . S
C38 O27 1.260 . S
C38 O28 1.258 1_545 S
C39 O35 1.260 1_545 S
C39 O36 1.258 . S
Zn40 O46 1.969 . S
Zn40 O47 1.965 . S
Zn40 O51 2.024 . S
Zn40 O56 1.969 . S
Zn41 O48 1.969 . S
Zn41 O54 1.969 . S
Zn41 O55 1.965 . S
Zn41 O57 2.024 . S
C42 O43 1.229 . S
C42 O51 1.058 . S
O43 C42 1.229 . S
C44 O45 1.229 . S
C44 O57 1.058 . S
O45 C44 1.229 . S
O46 Zn40 1.969 . S
O46 C49 1.267 . S
O47 Zn40 1.965 . S
O47 C58 1.260 . S
O48 Zn41 1.969 . S
O48 C58 1.258 . S
C49 O46 1.267 . S
C49 O50 1.228 . S
O50 C49 1.228 . S
O51 Zn40 2.024 . S
O51 C42 1.058 . S
C52 O53 1.228 . S
C52 O54 1.267 . S
O53 C52 1.228 . S
O54 Zn41 1.969 . S
O54 C52 1.267 . S
O55 Zn41 1.965 . S
O55 C59 1.260 . S
O56 Zn40 1.969 . S
O56 C59 1.258 . S
O57 Zn41 2.024 . S
O57 C44 1.058 . S
C58 O47 1.260 . S
C58 O48 1.258 . S
C59 O55 1.260 . S
C59 O56 1.258 . S
P60 O71 1.490 1_545 S
P60 C74 1.812 1_545 S
P60 C80 1.803 . S
P60 C86 1.819 . S
H61 C75 0.941 . S
H62 C76 0.939 . S
H63 C78 0.940 . S
H64 C79 0.940 1_545 S
H65 C81 0.939 . S
H66 C82 0.942 . S
H67 C84 0.940 . S
H68 C85 0.939 . S
H69 C87 0.941 . S
H70 C91 0.939 . S
O71 P60 1.490 1_565 S
H72 C88 0.939 . S
H73 C90 0.940 . S
C74 P60 1.812 1_565 S
C74 C75 1.389 . S
C74 C79 1.391 . S
C75 H61 0.941 . S
C75 C74 1.389 . S
C75 C76 1.397 . S
C76 H62 0.939 . S
C76 C75 1.397 . S
C76 C77 1.378 . S
C77 C76 1.378 . S
C77 C78 1.378 . S
C78 H63 0.940 . S
C78 C77 1.378 . S
C78 C79 1.396 . S
C79 H64 0.940 1_565 S
C79 C74 1.391 . S
C79 C78 1.396 . S
C80 P60 1.803 . S
C80 C81 1.378 . S
C80 C85 1.400 . S
C81 H65 0.939 . S
C81 C80 1.378 . S
C81 C82 1.361 . S
C82 H66 0.942 . S
C82 C81 1.361 . S
C82 C83 1.369 . S
C83 C82 1.369 . S
C83 C84 1.404 . S
C84 H67 0.940 . S
C84 C83 1.404 . S
C84 C85 1.389 . S
C85 H68 0.939 . S
C85 C80 1.400 . S
C85 C84 1.389 . S
C86 P60 1.819 . S
C86 C87 1.391 1_545 S
C86 C91 1.391 . S
C87 H69 0.941 . S
C87 C86 1.391 1_565 S
C87 C88 1.396 . S
C88 H72 0.939 . S
C88 C87 1.396 . S
C88 C89 1.397 1_565 S
C89 C88 1.397 1_545 S
C89 C90 1.385 . S
C90 H73 0.940 . S
C90 C89 1.385 . S
C90 C91 1.388 . S
C91 H70 0.939 . S
C91 C86 1.391 . S
C91 C90 1.388 . S
P92 O103 1.490 . S
P92 C106 1.812 . S
P92 C112 1.803 . S
P92 C118 1.819 . S
H93 C107 0.941 . S
H94 C108 0.939 . S
H95 C110 0.940 . S
H96 C111 0.940 . S
H97 C113 0.939 . S
H98 C114 0.942 . S
H99 C116 0.940 . S
H100 C117 0.939 . S
H101 C119 0.941 . S
H102 C123 0.939 . S
O103 P92 1.490 . S
H104 C120 0.939 . S
H105 C122 0.940 . S
C106 P92 1.812 . S
C106 C107 1.389 . S
C106 C111 1.391 . S
C107 H93 0.941 . S
C107 C106 1.389 . S
C107 C108 1.397 . S
C108 H94 0.939 . S
C108 C107 1.397 . S
C108 C109 1.378 . S
C109 C108 1.378 . S
C109 C110 1.378 . S
C110 H95 0.940 . S
C110 C109 1.378 . S
C110 C111 1.396 . S
C111 H96 0.940 . S
C111 C106 1.391 . S
C111 C110 1.396 . S
C112 P92 1.803 . S
C112 C113 1.378 . S
C112 C117 1.400 . S
C113 H97 0.939 . S
C113 C112 1.378 . S
C113 C114 1.361 . S
C114 H98 0.942 . S
C114 C113 1.361 . S
C114 C115 1.369 . S
C115 C114 1.369 . S
C115 C116 1.404 . S
C116 H99 0.940 . S
C116 C115 1.404 . S
C116 C117 1.389 . S
C117 H100 0.939 . S
C117 C112 1.400 . S
C117 C116 1.389 . S
C118 P92 1.819 . S
C118 C119 1.391 . S
C118 C123 1.391 . S
C119 H101 0.941 . S
C119 C118 1.391 . S
C119 C120 1.396 . S
C120 H104 0.939 . S
C120 C119 1.396 . S
C120 C121 1.397 . S
C121 C120 1.397 . S
C121 C122 1.385 . S
C122 H105 0.940 . S
C122 C121 1.385 . S
C122 C123 1.388 . S
C123 H102 0.939 . S
C123 C118 1.391 . S
C123 C122 1.388 . S
P124 O135 1.490 . S
P124 C138 1.812 . S
P124 C144 1.803 . S
P124 C150 1.819 . S
H125 C139 0.941 . S
H126 C140 0.939 . S
H127 C142 0.940 . S
H128 C143 0.940 . S
H129 C145 0.939 1_455 S
H130 C146 0.942 . S
H131 C148 0.940 . S
H132 C149 0.939 1_455 S
H133 C151 0.941 . S
H134 C155 0.939 1_655 S
O135 P124 1.490 . S
H136 C152 0.939 . S
H137 C154 0.940 1_655 S
C138 P124 1.812 . S
C138 C139 1.389 . S
C138 C143 1.391 . S
C139 H125 0.941 . S
C139 C138 1.389 . S
C139 C140 1.397 . S
C140 H126 0.939 . S
C140 C139 1.397 . S
C140 C141 1.378 . S
C141 C140 1.378 . S
C141 C142 1.378 . S
C142 H127 0.940 . S
C142 C141 1.378 . S
C142 C143 1.396 . S
C143 H128 0.940 . S
C143 C138 1.391 . S
C143 C142 1.396 . S
C144 P124 1.803 . S
C144 C145 1.378 1_455 S
C144 C149 1.400 1_455 S
C145 H129 0.939 1_655 S
C145 C144 1.378 1_655 S
C145 C146 1.361 . S
C146 H130 0.942 . S
C146 C145 1.361 . S
C146 C147 1.369 . S
C147 C146 1.369 . S
C147 C148 1.404 . S
C148 H131 0.940 . S
C148 C147 1.404 . S
C148 C149 1.389 . S
C149 H132 0.939 1_655 S
C149 C144 1.400 1_655 S
C149 C148 1.389 . S
C150 P124 1.819 . S
C150 C151 1.391 . S
C150 C155 1.391 . S
C151 H133 0.941 . S
C151 C150 1.391 . S
C151 C152 1.396 . S
C152 H136 0.939 . S
C152 C151 1.396 . S
C152 C153 1.397 . S
C153 C152 1.397 . S
C153 C154 1.385 . S
C154 H137 0.940 1_455 S
C154 C153 1.385 . S
C154 C155 1.388 . S
C155 H134 0.939 1_455 S
C155 C150 1.391 . S
C155 C154 1.388 . S
P156 O167 1.490 . S
P156 C170 1.812 . S
P156 C176 1.803 . S
P156 C182 1.819 . S
H157 C171 0.941 . S
H158 C172 0.939 . S
H159 C174 0.940 . S
H160 C175 0.940 . S
H161 C177 0.939 . S
H162 C178 0.942 . S
H163 C180 0.940 . S
H164 C181 0.939 . S
H165 C183 0.941 . S
H166 C187 0.939 . S
O167 P156 1.490 . S
H168 C184 0.939 . S
H169 C186 0.940 . S
C170 P156 1.812 . S
C170 C171 1.389 . S
C170 C175 1.391 . S
C171 H157 0.941 . S
C171 C170 1.389 . S
C171 C172 1.397 . S
C172 H158 0.939 . S
C172 C171 1.397 . S
C172 C173 1.378 . S
C173 C172 1.378 . S
C173 C174 1.378 . S
C174 H159 0.940 . S
C174 C173 1.378 . S
C174 C175 1.396 . S
C175 H160 0.940 . S
C175 C170 1.391 . S
C175 C174 1.396 . S
C176 P156 1.803 . S
C176 C177 1.378 1_455 S
C176 C181 1.400 1_455 S
C177 H161 0.939 . S
C177 C176 1.378 1_655 S
C177 C178 1.361 . S
C178 H162 0.942 . S
C178 C177 1.361 . S
C178 C179 1.369 . S
C179 C178 1.369 . S
C179 C180 1.404 . S
C180 H163 0.940 . S
C180 C179 1.404 . S
C180 C181 1.389 . S
C181 H164 0.939 . S
C181 C176 1.400 1_655 S
C181 C180 1.389 . S
C182 P156 1.819 . S
C182 C183 1.391 . S
C182 C187 1.391 1_455 S
C183 H165 0.941 . S
C183 C182 1.391 . S
C183 C184 1.396 . S
C184 H168 0.939 . S
C184 C183 1.396 . S
C184 C185 1.397 . S
C185 C184 1.397 . S
C185 C186 1.385 1_455 S
C186 H169 0.940 . S
C186 C185 1.385 1_655 S
C186 C187 1.388 . S
C187 H166 0.939 . S
C187 C182 1.391 1_655 S
C187 C186 1.388 . S
P188 O199 1.490 . S
P188 C202 1.812 . S
P188 C208 1.803 . S
P188 C214 1.819 . S
H189 C203 0.941 . S
H190 C204 0.939 . S
H191 C206 0.940 . S
H192 C207 0.940 . S
H193 C209 0.939 . S
H194 C210 0.942 . S
H195 C212 0.940 . S
H196 C213 0.939 . S
H197 C215 0.941 . S
H198 C219 0.939 1_565 S
O199 P188 1.490 . S
H200 C216 0.939 . S
H201 C218 0.940 . S
C202 P188 1.812 . S
C202 C203 1.389 . S
C202 C207 1.391 . S
C203 H189 0.941 . S
C203 C202 1.389 . S
C203 C204 1.397 . S
C204 H190 0.939 . S
C204 C203 1.397 . S
C204 C205 1.378 . S
C205 C204 1.378 . S
C205 C206 1.378 . S
C206 H191 0.940 . S
C206 C205 1.378 . S
C206 C207 1.396 . S
C207 H192 0.940 . S
C207 C202 1.391 . S
C207 C206 1.396 . S
C208 P188 1.803 . S
C208 C209 1.378 1_545 S
C208 C213 1.400 1_545 S
C209 H193 0.939 . S
C209 C208 1.378 1_565 S
C209 C210 1.361 . S
C210 H194 0.942 . S
C210 C209 1.361 . S
C210 C211 1.369 . S
C211 C210 1.369 . S
C211 C212 1.404 . S
C212 H195 0.940 . S
C212 C211 1.404 . S
C212 C213 1.389 . S
C213 H196 0.939 . S
C213 C208 1.400 1_565 S
C213 C212 1.389 . S
C214 P188 1.819 . S
C214 C215 1.391 . S
C214 C219 1.391 . S
C215 H197 0.941 . S
C215 C214 1.391 . S
C215 C216 1.396 . S
C216 H200 0.939 . S
C216 C215 1.396 . S
C216 C217 1.397 . S
C217 C216 1.397 . S
C217 C218 1.385 1_545 S
C218 H201 0.940 . S
C218 C217 1.385 1_565 S
C218 C219 1.388 1_565 S
C219 H198 0.939 1_545 S
C219 C214 1.391 . S
C219 C218 1.388 1_545 S
P220 O231 1.490 . S
P220 C234 1.812 . S
P220 C240 1.803 . S
P220 C246 1.819 . S
H221 C235 0.941 . S
H222 C236 0.939 . S
H223 C238 0.940 . S
H224 C239 0.940 . S
H225 C241 0.939 . S
H226 C242 0.942 . S
H227 C244 0.940 . S
H228 C245 0.939 . S
H229 C247 0.941 . S
H230 C251 0.939 . S
O231 P220 1.490 . S
H232 C248 0.939 . S
H233 C250 0.940 . S
C234 P220 1.812 . S
C234 C235 1.389 . S
C234 C239 1.391 . S
C235 H221 0.941 . S
C235 C234 1.389 . S
C235 C236 1.397 . S
C236 H222 0.939 . S
C236 C235 1.397 . S
C236 C237 1.378 . S
C237 C236 1.378 . S
C237 C238 1.378 . S
C238 H223 0.940 . S
C238 C237 1.378 . S
C238 C239 1.396 . S
C239 H224 0.940 . S
C239 C234 1.391 . S
C239 C238 1.396 . S
C240 P220 1.803 . S
C240 C241 1.378 . S
C240 C245 1.400 . S
C241 H225 0.939 . S
C241 C240 1.378 . S
C241 C242 1.361 . S
C242 H226 0.942 . S
C242 C241 1.361 . S
C242 C243 1.369 . S
C243 C242 1.369 . S
C243 C244 1.404 . S
C244 H227 0.940 . S
C244 C243 1.404 . S
C244 C245 1.389 . S
C245 H228 0.939 . S
C245 C240 1.400 . S
C245 C244 1.389 . S
C246 P220 1.819 . S
C246 C247 1.391 . S
C246 C251 1.391 . S
C247 H229 0.941 . S
C247 C246 1.391 . S
C247 C248 1.396 . S
C248 H232 0.939 . S
C248 C247 1.396 . S
C248 C249 1.397 . S
C249 C248 1.397 . S
C249 C250 1.385 . S
C250 H233 0.940 . S
C250 C249 1.385 . S
C250 C251 1.388 . S
C251 H230 0.939 . S
C251 C246 1.391 . S
C251 C250 1.388 . S
H252 C260 0.929 . S
H253 C262 0.930 . S
H254 C264 0.930 . S
H255 C267 0.929 . S
H256 C270 0.930 . S
H257 C272 0.960 . S
H258 C272 0.960 . S
H259 C272 0.960 . S
C260 H252 0.929 . S
C260 C261 1.377 . S
C260 C262 1.384 . S
C261 C260 1.377 . S
C261 C267 1.390 . S
C262 H253 0.930 . S
C262 C260 1.384 . S
C262 C263 1.372 . S
C263 C262 1.372 . S
C263 C264 1.400 . S
C263 C268 1.490 . S
C264 H254 0.930 . S
C264 C263 1.400 . S
C264 C267 1.386 . S
H265 C281 0.930 . S
H266 C282 0.931 . S
C267 H255 0.929 . S
C267 C261 1.390 . S
C267 C264 1.386 . S
C268 C263 1.490 . S
C268 C270 1.395 . S
C268 C271 1.403 . S
H269 C275 0.930 . S
C270 H256 0.930 . S
C270 C268 1.395 . S
C270 C273 1.403 . S
C271 C268 1.403 . S
C271 C272 1.524 . S
C271 C275 1.400 . S
C272 H257 0.960 . S
C272 H258 0.960 . S
C272 H259 0.960 . S
C272 C271 1.524 . S
C273 C270 1.403 . S
C273 C274 1.392 . S
C273 C277 1.495 . S
C274 C273 1.392 . S
C274 C275 1.385 . S
C274 C276 1.478 . S
C275 H269 0.930 . S
C275 C271 1.400 . S
C275 C274 1.385 . S
C276 C274 1.478 . S
C276 C278 1.381 . S
C276 C282 1.383 . S
C277 C273 1.495 . S
C277 H283 0.959 . S
C277 H284 0.961 . S
C277 H285 0.960 . S
C278 C276 1.381 . S
C278 C279 1.394 . S
C278 H286 0.930 . S
C279 C278 1.394 . S
C279 C280 1.383 . S
C279 H287 0.929 . S
C280 C279 1.383 . S
C280 C281 1.377 . S
C281 H265 0.930 . S
C281 C280 1.377 . S
C281 C282 1.379 . S
C282 H266 0.931 . S
C282 C276 1.383 . S
C282 C281 1.379 . S
H283 C277 0.959 . S
H284 C277 0.961 . S
H285 C277 0.960 . S
H286 C278 0.930 . S
H287 C279 0.929 . S
H288 C296 0.929 . S
H289 C298 0.930 . S
H290 C300 0.930 . S
H291 C303 0.929 . S
H292 C306 0.930 . S
H293 C308 0.960 . S
H294 C308 0.960 . S
H295 C308 0.960 . S
C296 H288 0.929 . S
C296 C297 1.377 . S
C296 C298 1.384 . S
C297 C296 1.377 . S
C297 C303 1.390 . S
C298 H289 0.930 . S
C298 C296 1.384 . S
C298 C299 1.372 . S
C299 C298 1.372 . S
C299 C300 1.400 . S
C299 C304 1.490 . S
C300 H290 0.930 . S
C300 C299 1.400 . S
C300 C303 1.386 . S
H301 C317 0.930 . S
H302 C318 0.931 . S
C303 H291 0.929 . S
C303 C297 1.390 . S
C303 C300 1.386 . S
C304 C299 1.490 . S
C304 C306 1.395 . S
C304 C307 1.403 . S
H305 C311 0.930 . S
C306 H292 0.930 . S
C306 C304 1.395 . S
C306 C309 1.403 . S
C307 C304 1.403 . S
C307 C308 1.524 . S
C307 C311 1.400 . S
C308 H293 0.960 . S
C308 H294 0.960 . S
C308 H295 0.960 . S
C308 C307 1.524 . S
C309 C306 1.403 . S
C309 C310 1.392 . S
C309 C313 1.495 . S
C310 C309 1.392 . S
C310 C311 1.385 . S
C310 C312 1.478 . S
C311 H305 0.930 . S
C311 C307 1.400 . S
C311 C310 1.385 . S
C312 C310 1.478 . S
C312 C314 1.381 . S
C312 C318 1.383 . S
C313 C309 1.495 . S
C313 H319 0.959 . S
C313 H320 0.961 . S
C313 H321 0.960 . S
C314 C312 1.381 . S
C314 C315 1.394 . S
C314 H322 0.930 . S
C315 C314 1.394 . S
C315 C316 1.383 . S
C315 H323 0.929 . S
C316 C315 1.383 . S
C316 C317 1.377 . S
C317 H301 0.930 . S
C317 C316 1.377 . S
C317 C318 1.379 . S
C318 H302 0.931 . S
C318 C312 1.383 . S
C318 C317 1.379 . S
H319 C313 0.959 . S
H320 C313 0.961 . S
H321 C313 0.960 . S
H322 C314 0.930 . S
H323 C315 0.929 . S
H324 C332 0.929 . S
H325 C334 0.930 . S
H326 C336 0.930 . S
H327 C339 0.929 . S
H328 C342 0.930 . S
H329 C344 0.960 . S
H330 C344 0.960 . S
H331 C344 0.960 . S
C332 H324 0.929 . S
C332 C333 1.377 . S
C332 C334 1.384 . S
C333 C332 1.377 . S
C333 C339 1.390 . S
C334 H325 0.930 . S
C334 C332 1.384 . S
C334 C335 1.372 . S
C335 C334 1.372 . S
C335 C336 1.400 . S
C335 C340 1.490 . S
C336 H326 0.930 . S
C336 C335 1.400 . S
C336 C339 1.386 . S
H337 C353 0.930 . S
H338 C354 0.931 . S
C339 H327 0.929 . S
C339 C333 1.390 . S
C339 C336 1.386 . S
C340 C335 1.490 . S
C340 C342 1.395 . S
C340 C343 1.403 . S
H341 C347 0.930 . S
C342 H328 0.930 . S
C342 C340 1.395 . S
C342 C345 1.403 . S
C343 C340 1.403 . S
C343 C344 1.524 . S
C343 C347 1.400 . S
C344 H329 0.960 . S
C344 H330 0.960 . S
C344 H331 0.960 . S
C344 C343 1.524 . S
C345 C342 1.403 . S
C345 C346 1.392 . S
C345 C349 1.495 . S
C346 C345 1.392 . S
C346 C347 1.385 . S
C346 C348 1.478 . S
C347 H341 0.930 . S
C347 C343 1.400 . S
C347 C346 1.385 . S
C348 C346 1.478 . S
C348 C350 1.381 . S
C348 C354 1.383 . S
C349 C345 1.495 . S
C349 H355 0.959 . S
C349 H356 0.961 . S
C349 H357 0.960 . S
C350 C348 1.381 . S
C350 C351 1.394 . S
C350 H358 0.930 . S
C351 C350 1.394 . S
C351 C352 1.383 . S
C351 H359 0.929 . S
C352 C351 1.383 . S
C352 C353 1.377 . S
C353 H337 0.930 . S
C353 C352 1.377 . S
C353 C354 1.379 . S
C354 H338 0.931 . S
C354 C348 1.383 . S
C354 C353 1.379 . S
H355 C349 0.959 . S
H356 C349 0.961 . S
H357 C349 0.960 . S
H358 C350 0.930 . S
H359 C351 0.929 . S
H360 C368 0.929 . S
H361 C370 0.930 . S
H362 C372 0.930 . S
H363 C375 0.929 . S
H364 C378 0.930 . S
H365 C380 0.960 . S
H366 C380 0.960 . S
H367 C380 0.960 . S
C368 H360 0.929 . S
C368 C369 1.377 . S
C368 C370 1.384 . S
C369 C368 1.377 . S
C369 C375 1.390 . S
C370 H361 0.930 . S
C370 C368 1.384 . S
C370 C371 1.372 . S
C371 C370 1.372 . S
C371 C372 1.400 . S
C371 C376 1.490 . S
C372 H362 0.930 . S
C372 C371 1.400 . S
C372 C375 1.386 . S
H373 C389 0.930 . S
H374 C390 0.931 . S
C375 H363 0.929 . S
C375 C369 1.390 . S
C375 C372 1.386 . S
C376 C371 1.490 . S
C376 C378 1.395 . S
C376 C379 1.403 . S
H377 C383 0.930 . S
C378 H364 0.930 . S
C378 C376 1.395 . S
C378 C381 1.403 . S
C379 C376 1.403 . S
C379 C380 1.524 . S
C379 C383 1.400 . S
C380 H365 0.960 . S
C380 H366 0.960 . S
C380 H367 0.960 . S
C380 C379 1.524 . S
C381 C378 1.403 . S
C381 C382 1.392 . S
C381 C385 1.495 . S
C382 C381 1.392 . S
C382 C383 1.385 . S
C382 C384 1.478 . S
C383 H377 0.930 . S
C383 C379 1.400 . S
C383 C382 1.385 . S
C384 C382 1.478 . S
C384 C386 1.381 . S
C384 C390 1.383 . S
C385 C381 1.495 . S
C385 H391 0.959 . S
C385 H392 0.961 . S
C385 H393 0.960 . S
C386 C384 1.381 . S
C386 C387 1.394 . S
C386 H394 0.930 . S
C387 C386 1.394 . S
C387 C388 1.383 . S
C387 H395 0.929 . S
C388 C387 1.383 . S
C388 C389 1.377 . S
C389 H373 0.930 . S
C389 C388 1.377 . S
C389 C390 1.379 . S
C390 H374 0.931 . S
C390 C384 1.383 . S
C390 C389 1.379 . S
H391 C385 0.959 . S
H392 C385 0.961 . S
H393 C385 0.960 . S
H394 C386 0.930 . S
H395 C387 0.929 . S
H396 C404 0.929 . S
H397 C406 0.930 . S
H398 C408 0.930 . S
H399 C411 0.929 . S
H400 C414 0.930 . S
H401 C416 0.960 . S
H402 C416 0.960 . S
H403 C416 0.960 . S
C404 H396 0.929 . S
C404 C405 1.377 . S
C404 C406 1.384 . S
C405 C404 1.377 . S
C405 C411 1.390 . S
C406 H397 0.930 . S
C406 C404 1.384 . S
C406 C407 1.372 . S
C407 C406 1.372 . S
C407 C408 1.400 . S
C407 C412 1.490 . S
C408 H398 0.930 . S
C408 C407 1.400 . S
C408 C411 1.386 . S
H409 C425 0.930 . S
H410 C426 0.931 . S
C411 H399 0.929 . S
C411 C405 1.390 . S
C411 C408 1.386 . S
C412 C407 1.490 . S
C412 C414 1.395 . S
C412 C415 1.403 . S
H413 C419 0.930 . S
C414 H400 0.930 . S
C414 C412 1.395 . S
C414 C417 1.403 . S
C415 C412 1.403 . S
C415 C416 1.524 . S
C415 C419 1.400 . S
C416 H401 0.960 . S
C416 H402 0.960 . S
C416 H403 0.960 . S
C416 C415 1.524 . S
C417 C414 1.403 . S
C417 C418 1.392 . S
C417 C421 1.495 . S
C418 C417 1.392 . S
C418 C419 1.385 . S
C418 C420 1.478 . S
C419 H413 0.930 . S
C419 C415 1.400 . S
C419 C418 1.385 . S
C420 C418 1.478 . S
C420 C422 1.381 . S
C420 C426 1.383 . S
C421 C417 1.495 . S
C421 H427 0.959 . S
C421 H428 0.961 . S
C421 H429 0.960 . S
C422 C420 1.381 . S
C422 C423 1.394 . S
C422 H430 0.930 . S
C423 C422 1.394 . S
C423 C424 1.383 . S
C423 H431 0.929 . S
C424 C423 1.383 . S
C424 C425 1.377 . S
C425 H409 0.930 . S
C425 C424 1.377 . S
C425 C426 1.379 . S
C426 H410 0.931 . S
C426 C420 1.383 . S
C426 C425 1.379 . S
H427 C421 0.959 . S
H428 C421 0.961 . S
H429 C421 0.960 . S
H430 C422 0.930 . S
H431 C423 0.929 . S
H432 C440 0.929 . S
H433 C442 0.930 . S
H434 C444 0.930 . S
H435 C447 0.929 . S
H436 C450 0.930 . S
H437 C452 0.960 . S
H438 C452 0.960 . S
H439 C452 0.960 . S
C440 H432 0.929 . S
C440 C441 1.377 . S
C440 C442 1.384 . S
C441 C440 1.377 . S
C441 C447 1.390 . S
C442 H433 0.930 . S
C442 C440 1.384 . S
C442 C443 1.372 . S
C443 C442 1.372 . S
C443 C444 1.400 . S
C443 C448 1.490 . S
C444 H434 0.930 . S
C444 C443 1.400 . S
C444 C447 1.386 . S
H445 C461 0.930 . S
H446 C462 0.931 . S
C447 H435 0.929 . S
C447 C441 1.390 . S
C447 C444 1.386 . S
C448 C443 1.490 . S
C448 C450 1.395 . S
C448 C451 1.403 . S
H449 C455 0.930 . S
C450 H436 0.930 . S
C450 C448 1.395 . S
C450 C453 1.403 . S
C451 C448 1.403 . S
C451 C452 1.524 . S
C451 C455 1.400 . S
C452 H437 0.960 . S
C452 H438 0.960 . S
C452 H439 0.960 . S
C452 C451 1.524 . S
C453 C450 1.403 . S
C453 C454 1.392 . S
C453 C457 1.495 . S
C454 C453 1.392 . S
C454 C455 1.385 . S
C454 C456 1.478 . S
C455 H449 0.930 . S
C455 C451 1.400 . S
C455 C454 1.385 . S
C456 C454 1.478 . S
C456 C458 1.381 . S
C456 C462 1.383 . S
C457 C453 1.495 . S
C457 H463 0.959 . S
C457 H464 0.961 . S
C457 H465 0.960 . S
C458 C456 1.381 . S
C458 C459 1.394 . S
C458 H466 0.930 . S
C459 C458 1.394 . S
C459 C460 1.383 . S
C459 H467 0.929 . S
C460 C459 1.383 . S
C460 C461 1.377 . S
C461 H445 0.930 . S
C461 C460 1.377 . S
C461 C462 1.379 . S
C462 H446 0.931 . S
C462 C456 1.383 . S
C462 C461 1.379 . S
H463 C457 0.959 . S
H464 C457 0.961 . S
H465 C457 0.960 . S
H466 C458 0.930 . S
H467 C459 0.929 . S
H468 C476 0.929 . S
H469 C478 0.930 . S
H470 C480 0.930 . S
H471 C483 0.929 . S
H472 C486 0.930 . S
H473 C488 0.960 . S
H474 C488 0.960 . S
H475 C488 0.960 . S
C476 H468 0.929 . S
C476 C477 1.377 . S
C476 C478 1.384 . S
C477 C476 1.377 . S
C477 C483 1.390 . S
C478 H469 0.930 . S
C478 C476 1.384 . S
C478 C479 1.372 . S
C479 C478 1.372 . S
C479 C480 1.400 . S
C479 C484 1.490 . S
C480 H470 0.930 . S
C480 C479 1.400 . S
C480 C483 1.386 . S
H481 C497 0.930 . S
H482 C498 0.931 . S
C483 H471 0.929 . S
C483 C477 1.390 . S
C483 C480 1.386 . S
C484 C479 1.490 . S
C484 C486 1.395 . S
C484 C487 1.403 . S
H485 C491 0.930 . S
C486 H472 0.930 . S
C486 C484 1.395 . S
C486 C489 1.403 . S
C487 C484 1.403 . S
C487 C488 1.524 . S
C487 C491 1.400 . S
C488 H473 0.960 . S
C488 H474 0.960 . S
C488 H475 0.960 . S
C488 C487 1.524 . S
C489 C486 1.403 . S
C489 C490 1.392 . S
C489 C493 1.495 . S
C490 C489 1.392 . S
C490 C491 1.385 . S
C490 C492 1.478 . S
C491 H485 0.930 . S
C491 C487 1.400 . S
C491 C490 1.385 . S
C492 C490 1.478 . S
C492 C494 1.381 . S
C492 C498 1.383 . S
C493 C489 1.495 . S
C493 H499 0.959 . S
C493 H500 0.961 . S
C493 H501 0.960 . S
C494 C492 1.381 . S
C494 C495 1.394 . S
C494 H502 0.930 . S
C495 C494 1.394 . S
C495 C496 1.383 . S
C495 H503 0.929 . S
C496 C495 1.383 . S
C496 C497 1.377 . S
C497 H481 0.930 . S
C497 C496 1.377 . S
C497 C498 1.379 . S
C498 H482 0.931 . S
C498 C492 1.383 . S
C498 C497 1.379 . S
H499 C493 0.959 . S
H500 C493 0.961 . S
H501 C493 0.960 . S
H502 C494 0.930 . S
H503 C495 0.929 . S
H504 C512 0.929 . S
H505 C514 0.930 . S
H506 C516 0.930 . S
H507 C519 0.929 . S
H508 C522 0.930 . S
H509 C524 0.960 . S
H510 C524 0.960 . S
H511 C524 0.960 . S
C512 H504 0.929 . S
C512 C513 1.377 . S
C512 C514 1.384 . S
C513 C512 1.377 . S
C513 C519 1.390 . S
C514 H505 0.930 . S
C514 C512 1.384 . S
C514 C515 1.372 . S
C515 C514 1.372 . S
C515 C516 1.400 . S
C515 C520 1.490 . S
C516 H506 0.930 . S
C516 C515 1.400 . S
C516 C519 1.386 . S
H517 C533 0.930 . S
H518 C534 0.931 . S
C519 H507 0.929 . S
C519 C513 1.390 . S
C519 C516 1.386 . S
C520 C515 1.490 . S
C520 C522 1.395 . S
C520 C523 1.403 . S
H521 C527 0.930 . S
C522 H508 0.930 . S
C522 C520 1.395 . S
C522 C525 1.403 . S
C523 C520 1.403 . S
C523 C524 1.524 . S
C523 C527 1.400 . S
C524 H509 0.960 . S
C524 H510 0.960 . S
C524 H511 0.960 . S
C524 C523 1.524 . S
C525 C522 1.403 . S
C525 C526 1.392 . S
C525 C529 1.495 . S
C526 C525 1.392 . S
C526 C527 1.385 . S
C526 C528 1.478 . S
C527 H521 0.930 . S
C527 C523 1.400 . S
C527 C526 1.385 . S
C528 C526 1.478 . S
C528 C530 1.381 . S
C528 C534 1.383 . S
C529 C525 1.495 . S
C529 H535 0.959 . S
C529 H536 0.961 . S
C529 H537 0.960 . S
C530 C528 1.381 . S
C530 C531 1.394 . S
C530 H538 0.930 . S
C531 C530 1.394 . S
C531 C532 1.383 . S
C531 H539 0.929 . S
C532 C531 1.383 . S
C532 C533 1.377 . S
C533 H517 0.930 . S
C533 C532 1.377 . S
C533 C534 1.379 . S
C534 H518 0.931 . S
C534 C528 1.383 . S
C534 C533 1.379 . S
H535 C529 0.959 . S
H536 C529 0.961 . S
H537 C529 0.960 . S
H538 C530 0.930 . S
H539 C531 0.929 . S
H540 C548 0.929 . S
H541 C550 0.930 . S
H542 C552 0.930 . S
H543 C555 0.929 . S
H544 C558 0.930 . S
H545 C560 0.960 . S
H546 C560 0.960 . S
H547 C560 0.960 . S
C548 H540 0.929 . S
C548 C549 1.377 . S
C548 C550 1.384 . S
C549 C548 1.377 . S
C549 C555 1.390 . S
C550 H541 0.930 . S
C550 C548 1.384 . S
C550 C551 1.372 . S
C551 C550 1.372 . S
C551 C552 1.400 . S
C551 C556 1.490 . S
C552 H542 0.930 . S
C552 C551 1.400 . S
C552 C555 1.386 . S
H553 C569 0.930 . S
H554 C570 0.931 . S
C555 H543 0.929 . S
C555 C549 1.390 . S
C555 C552 1.386 . S
C556 C551 1.490 . S
C556 C558 1.395 . S
C556 C559 1.403 . S
H557 C563 0.930 . S
C558 H544 0.930 . S
C558 C556 1.395 . S
C558 C561 1.403 . S
C559 C556 1.403 . S
C559 C560 1.524 . S
C559 C563 1.400 . S
C560 H545 0.960 . S
C560 H546 0.960 . S
C560 H547 0.960 . S
C560 C559 1.524 . S
C561 C558 1.403 . S
C561 C562 1.392 . S
C561 C565 1.495 . S
C562 C561 1.392 . S
C562 C563 1.385 . S
C562 C564 1.478 . S
C563 H557 0.930 . S
C563 C559 1.400 . S
C563 C562 1.385 . S
C564 C562 1.478 . S
C564 C566 1.381 . S
C564 C570 1.383 . S
C565 C561 1.495 . S
C565 H571 0.959 . S
C565 H572 0.961 . S
C565 H573 0.960 . S
C566 C564 1.381 . S
C566 C567 1.394 . S
C566 H574 0.930 . S
C567 C566 1.394 . S
C567 C568 1.383 . S
C567 H575 0.929 . S
C568 C567 1.383 . S
C568 C569 1.377 . S
C569 H553 0.930 . S
C569 C568 1.377 . S
C569 C570 1.379 . S
C570 H554 0.931 . S
C570 C564 1.383 . S
C570 C569 1.379 . S
H571 C565 0.959 . S
H572 C565 0.961 . S
H573 C565 0.960 . S
H574 C566 0.930 . S
H575 C567 0.929 . S
H576 C584 0.929 . S
H577 C586 0.930 . S
H578 C588 0.930 . S
H579 C591 0.929 . S
H580 C594 0.930 . S
H581 C596 0.960 . S
H582 C596 0.960 . S
H583 C596 0.960 . S
C584 H576 0.929 . S
C584 C585 1.377 . S
C584 C586 1.384 . S
C585 C584 1.377 . S
C585 C591 1.390 . S
C586 H577 0.930 . S
C586 C584 1.384 . S
C586 C587 1.372 . S
C587 C586 1.372 . S
C587 C588 1.400 . S
C587 C592 1.490 . S
C588 H578 0.930 . S
C588 C587 1.400 . S
C588 C591 1.386 . S
H589 C605 0.930 . S
H590 C606 0.931 . S
C591 H579 0.929 . S
C591 C585 1.390 . S
C591 C588 1.386 . S
C592 C587 1.490 . S
C592 C594 1.395 . S
C592 C595 1.403 . S
H593 C599 0.930 . S
C594 H580 0.930 . S
C594 C592 1.395 . S
C594 C597 1.403 . S
C595 C592 1.403 . S
C595 C596 1.524 . S
C595 C599 1.400 . S
C596 H581 0.960 . S
C596 H582 0.960 . S
C596 H583 0.960 . S
C596 C595 1.524 . S
C597 C594 1.403 . S
C597 C598 1.392 . S
C597 C601 1.495 . S
C598 C597 1.392 . S
C598 C599 1.385 . S
C598 C600 1.478 . S
C599 H593 0.930 . S
C599 C595 1.400 . S
C599 C598 1.385 . S
C600 C598 1.478 . S
C600 C602 1.381 . S
C600 C606 1.383 . S
C601 C597 1.495 . S
C601 H607 0.959 . S
C601 H608 0.961 . S
C601 H609 0.960 . S
C602 C600 1.381 . S
C602 C603 1.394 . S
C602 H610 0.930 . S
C603 C602 1.394 . S
C603 C604 1.383 . S
C603 H611 0.929 . S
C604 C603 1.383 . S
C604 C605 1.377 . S
C605 H589 0.930 . S
C605 C604 1.377 . S
C605 C606 1.379 . S
C606 H590 0.931 . S
C606 C600 1.383 . S
C606 C605 1.379 . S
H607 C601 0.959 . S
H608 C601 0.961 . S
H609 C601 0.960 . S
H610 C602 0.930 . S
H611 C603 0.929 . S
H612 C620 0.929 . S
H613 C622 0.930 . S
H614 C624 0.930 . S
H615 C627 0.929 . S
H616 C630 0.930 . S
H617 C632 0.960 . S
H618 C632 0.960 . S
H619 C632 0.960 . S
C620 H612 0.929 . S
C620 C621 1.377 . S
C620 C622 1.384 . S
C621 C620 1.377 . S
C621 C627 1.390 . S
C622 H613 0.930 . S
C622 C620 1.384 . S
C622 C623 1.372 . S
C623 C622 1.372 . S
C623 C624 1.400 . S
C623 C628 1.490 . S
C624 H614 0.930 . S
C624 C623 1.400 . S
C624 C627 1.386 . S
H625 C641 0.930 . S
H626 C642 0.931 . S
C627 H615 0.929 . S
C627 C621 1.390 . S
C627 C624 1.386 . S
C628 C623 1.490 . S
C628 C630 1.395 . S
C628 C631 1.403 . S
H629 C635 0.930 . S
C630 H616 0.930 . S
C630 C628 1.395 . S
C630 C633 1.403 . S
C631 C628 1.403 . S
C631 C632 1.524 . S
C631 C635 1.400 . S
C632 H617 0.960 . S
C632 H618 0.960 . S
C632 H619 0.960 . S
C632 C631 1.524 . S
C633 C630 1.403 . S
C633 C634 1.392 . S
C633 C637 1.495 . S
C634 C633 1.392 . S
C634 C635 1.385 . S
C634 C636 1.478 . S
C635 H629 0.930 . S
C635 C631 1.400 . S
C635 C634 1.385 . S
C636 C634 1.478 . S
C636 C638 1.381 . S
C636 C642 1.383 . S
C637 C633 1.495 . S
C637 H643 0.959 . S
C637 H644 0.961 . S
C637 H645 0.960 . S
C638 C636 1.381 . S
C638 C639 1.394 . S
C638 H646 0.930 . S
C639 C638 1.394 . S
C639 C640 1.383 . S
C639 H647 0.929 . S
C640 C639 1.383 . S
C640 C641 1.377 . S
C641 H625 0.930 . S
C641 C640 1.377 . S
C641 C642 1.379 . S
C642 H626 0.931 . S
C642 C636 1.383 . S
C642 C641 1.379 . S
H643 C637 0.959 . S
H644 C637 0.961 . S
H645 C637 0.960 . S
H646 C638 0.930 . S
H647 C639 0.929 . S
H648 C656 0.929 . S
H649 C658 0.930 . S
H650 C660 0.930 . S
H651 C663 0.929 . S
H652 C666 0.930 . S
H653 C668 0.960 . S
H654 C668 0.960 . S
H655 C668 0.960 . S
C656 H648 0.929 . S
C656 C657 1.377 . S
C656 C658 1.384 . S
C657 C656 1.377 . S
C657 C663 1.390 . S
C658 H649 0.930 . S
C658 C656 1.384 . S
C658 C659 1.372 . S
C659 C658 1.372 . S
C659 C660 1.400 . S
C659 C664 1.490 . S
C660 H650 0.930 . S
C660 C659 1.400 . S
C660 C663 1.386 . S
H661 C677 0.930 . S
H662 C678 0.931 . S
C663 H651 0.929 . S
C663 C657 1.390 . S
C663 C660 1.386 . S
C664 C659 1.490 . S
C664 C666 1.395 . S
C664 C667 1.403 . S
H665 C671 0.930 . S
C666 H652 0.930 . S
C666 C664 1.395 . S
C666 C669 1.403 . S
C667 C664 1.403 . S
C667 C668 1.524 . S
C667 C671 1.400 . S
C668 H653 0.960 . S
C668 H654 0.960 . S
C668 H655 0.960 . S
C668 C667 1.524 . S
C669 C666 1.403 . S
C669 C670 1.392 . S
C669 C673 1.495 . S
C670 C669 1.392 . S
C670 C671 1.385 . S
C670 C672 1.478 . S
C671 H665 0.930 . S
C671 C667 1.400 . S
C671 C670 1.385 . S
C672 C670 1.478 . S
C672 C674 1.381 . S
C672 C678 1.383 . S
C673 C669 1.495 . S
C673 H679 0.959 . S
C673 H680 0.961 . S
C673 H681 0.960 . S
C674 C672 1.381 . S
C674 C675 1.394 . S
C674 H682 0.930 . S
C675 C674 1.394 . S
C675 C676 1.383 . S
C675 H683 0.929 . S
C676 C675 1.383 . S
C676 C677 1.377 . S
C677 H661 0.930 . S
C677 C676 1.377 . S
C677 C678 1.379 . S
C678 H662 0.931 . S
C678 C672 1.383 . S
C678 C677 1.379 . S
H679 C673 0.959 . S
H680 C673 0.961 . S
H681 C673 0.960 . S
H682 C674 0.930 . S
H683 C675 0.929 . S
H684 C692 0.929 . S
H685 C694 0.930 . S
H686 C696 0.930 . S
H687 C699 0.929 . S
H688 C702 0.930 . S
H689 C704 0.960 . S
H690 C704 0.960 . S
H691 C704 0.960 . S
C692 H684 0.929 . S
C692 C693 1.377 1_655 S
C692 C694 1.384 . S
C693 C692 1.377 1_455 S
C693 C699 1.390 . S
C694 H685 0.930 . S
C694 C692 1.384 . S
C694 C695 1.372 1_655 S
C695 C694 1.372 1_455 S
C695 C696 1.400 . S
C695 C700 1.490 . S
C696 H686 0.930 . S
C696 C695 1.400 . S
C696 C699 1.386 . S
H697 C713 0.930 . S
H698 C714 0.931 1_554 S
C699 H687 0.929 . S
C699 C693 1.390 . S
C699 C696 1.386 . S
C700 C695 1.490 . S
C700 C702 1.395 1_455 S
C700 C703 1.403 . S
H701 C707 0.930 . S
C702 H688 0.930 . S
C702 C700 1.395 1_655 S
C702 C705 1.403 . S
C703 C700 1.403 . S
C703 C704 1.524 . S
C703 C707 1.400 . S
C704 H689 0.960 . S
C704 H690 0.960 . S
C704 H691 0.960 . S
C704 C703 1.524 . S
C705 C702 1.403 . S
C705 C706 1.392 1_655 S
C705 C709 1.495 . S
C706 C705 1.392 1_455 S
C706 C707 1.385 . S
C706 C708 1.478 . S
C707 H701 0.930 . S
C707 C703 1.400 . S
C707 C706 1.385 . S
C708 C706 1.478 . S
C708 C710 1.381 1_454 S
C708 C714 1.383 1_554 S
C709 C705 1.495 . S
C709 H715 0.959 . S
C709 H716 0.961 . S
C709 H717 0.960 . S
C710 C708 1.381 1_656 S
C710 C711 1.393 1_655 S
C710 H718 0.930 . S
C711 C710 1.393 1_455 S
C711 C712 1.386 . S
C711 H719 0.928 1_455 S
C712 C711 1.386 . S
C712 C713 1.377 . S
C713 H697 0.930 . S
C713 C712 1.377 . S
C713 C714 1.379 . S
C714 H698 0.931 1_556 S
C714 C708 1.383 1_556 S
C714 C713 1.379 . S
H715 C709 0.959 . S
H716 C709 0.961 . S
H717 C709 0.960 . S
H718 C710 0.930 . S
H719 C711 0.928 1_655 S
H720 C728 0.929 . S
H721 C730 0.930 . S
H722 C732 0.930 . S
H723 C735 0.929 . S
H724 C738 0.930 . S
H725 C740 0.960 . S
H726 C740 0.960 . S
H727 C740 0.960 . S
C728 H720 0.929 . S
C728 C729 1.377 1_565 S
C728 C730 1.384 . S
C729 C728 1.377 1_545 S
C729 C735 1.390 . S
C730 H721 0.930 . S
C730 C728 1.384 . S
C730 C731 1.372 1_565 S
C731 C730 1.372 1_545 S
C731 C732 1.400 . S
C731 C736 1.490 . S
C732 H722 0.930 . S
C732 C731 1.400 . S
C732 C735 1.386 . S
H733 C749 0.930 . S
H734 C750 0.931 . S
C735 H723 0.929 . S
C735 C729 1.390 . S
C735 C732 1.386 . S
C736 C731 1.490 . S
C736 C738 1.395 1_545 S
C736 C739 1.403 . S
H737 C743 0.930 . S
C738 H724 0.930 . S
C738 C736 1.395 1_565 S
C738 C741 1.403 . S
C739 C736 1.403 . S
C739 C740 1.524 . S
C739 C743 1.400 . S
C740 H725 0.960 . S
C740 H726 0.960 . S
C740 H727 0.960 . S
C740 C739 1.524 . S
C741 C738 1.403 . S
C741 C742 1.392 1_565 S
C741 C745 1.495 . S
C742 C741 1.392 1_545 S
C742 C743 1.385 . S
C742 C744 1.478 . S
C743 H737 0.930 . S
C743 C739 1.400 . S
C743 C742 1.385 . S
C744 C742 1.478 . S
C744 C746 1.377 1_545 S
C744 C750 1.383 . S
C745 C741 1.495 . S
C745 H751 0.959 . S
C745 H752 0.961 . S
C745 H753 0.960 . S
C746 C744 1.377 1_565 S
C746 C747 1.393 1_565 S
C746 H754 0.936 . S
C747 C746 1.393 1_545 S
C747 C748 1.383 . S
C747 H755 0.929 1_545 S
C748 C747 1.383 . S
C748 C749 1.377 . S
C749 H733 0.930 . S
C749 C748 1.377 . S
C749 C750 1.379 . S
C750 H734 0.931 . S
C750 C744 1.383 . S
C750 C749 1.379 . S
H751 C745 0.959 . S
H752 C745 0.961 . S
H753 C745 0.960 . S
H754 C746 0.936 . S
H755 C747 0.929 1_565 S
H756 C764 0.929 . S
H757 C766 0.930 . S
H758 C768 0.930 . S
H759 C771 0.929 . S
H760 C774 0.930 . S
H761 C776 0.960 . S
H762 C776 0.960 . S
H763 C776 0.960 . S
C764 H756 0.929 . S
C764 C765 1.377 . S
C764 C766 1.384 . S
C765 C764 1.377 . S
C765 C771 1.390 . S
C766 H757 0.930 . S
C766 C764 1.384 . S
C766 C767 1.372 . S
C767 C766 1.372 . S
C767 C768 1.400 . S
C767 C772 1.490 . S
C768 H758 0.930 . S
C768 C767 1.400 . S
C768 C771 1.386 . S
H769 C785 0.930 . S
H770 C786 0.931 . S
C771 H759 0.929 . S
C771 C765 1.390 . S
C771 C768 1.386 . S
C772 C767 1.490 . S
C772 C774 1.395 . S
C772 C775 1.403 . S
H773 C779 0.930 . S
C774 H760 0.930 . S
C774 C772 1.395 . S
C774 C777 1.403 . S
C775 C772 1.403 . S
C775 C776 1.524 . S
C775 C779 1.400 . S
C776 H761 0.960 . S
C776 H762 0.960 . S
C776 H763 0.960 . S
C776 C775 1.524 . S
C777 C774 1.403 . S
C777 C778 1.392 . S
C777 C781 1.495 . S
C778 C777 1.392 . S
C778 C779 1.385 . S
C778 C780 1.478 . S
C779 H773 0.930 . S
C779 C775 1.400 . S
C779 C778 1.385 . S
C780 C778 1.478 . S
C780 C782 1.381 . S
C780 C786 1.383 . S
C781 C777 1.495 . S
C781 H787 0.959 . S
C781 H788 0.961 . S
C781 H789 0.960 . S
C782 C780 1.381 . S
C782 C783 1.394 . S
C782 H790 0.930 . S
C783 C782 1.394 . S
C783 C784 1.383 . S
C783 H791 0.929 . S
C784 C783 1.383 . S
C784 C785 1.377 . S
C785 H769 0.930 . S
C785 C784 1.377 . S
C785 C786 1.379 . S
C786 H770 0.931 . S
C786 C780 1.383 . S
C786 C785 1.379 . S
H787 C781 0.959 . S
H788 C781 0.961 . S
H789 C781 0.960 . S
H790 C782 0.930 . S
H791 C783 0.929 . S
H792 C800 0.929 . S
H793 C802 0.930 . S
H794 C804 0.930 . S
H795 C807 0.929 . S
H796 C810 0.930 . S
H797 C812 0.960 . S
H798 C812 0.960 . S
H799 C812 0.960 . S
C800 H792 0.929 . S
C800 C801 1.377 1_565 S
C800 C802 1.384 . S
C801 C800 1.377 1_545 S
C801 C807 1.390 . S
C802 H793 0.930 . S
C802 C800 1.384 . S
C802 C803 1.372 1_565 S
C803 C802 1.372 1_545 S
C803 C804 1.400 . S
C803 C808 1.490 . S
C804 H794 0.930 . S
C804 C803 1.400 . S
C804 C807 1.386 . S
H805 C821 0.930 . S
H806 C822 0.931 . S
C807 H795 0.929 . S
C807 C801 1.390 . S
C807 C804 1.386 . S
C808 C803 1.490 . S
C808 C810 1.395 1_545 S
C808 C811 1.403 . S
H809 C815 0.930 . S
C810 H796 0.930 . S
C810 C808 1.395 1_565 S
C810 C813 1.403 . S
C811 C808 1.403 . S
C811 C812 1.524 . S
C811 C815 1.400 . S
C812 H797 0.960 . S
C812 H798 0.960 . S
C812 H799 0.960 . S
C812 C811 1.524 . S
C813 C810 1.403 . S
C813 C814 1.392 1_565 S
C813 C817 1.495 . S
C814 C813 1.392 1_545 S
C814 C815 1.385 . S
C814 C816 1.478 . S
C815 H809 0.930 . S
C815 C811 1.400 . S
C815 C814 1.385 . S
C816 C814 1.478 . S
C816 C818 1.381 1_545 S
C816 C822 1.383 . S
C817 C813 1.495 . S
C817 H823 0.959 . S
C817 H824 0.961 . S
C817 H825 0.960 . S
C818 C816 1.381 1_565 S
C818 C819 1.394 . S
C818 H826 0.930 . S
C819 C818 1.394 . S
C819 C820 1.383 1_565 S
C819 H827 0.929 . S
C820 C819 1.383 1_545 S
C820 C821 1.377 . S
C821 H805 0.930 . S
C821 C820 1.377 . S
C821 C822 1.379 . S
C822 H806 0.931 . S
C822 C816 1.383 . S
C822 C821 1.379 . S
H823 C817 0.959 . S
H824 C817 0.961 . S
H825 C817 0.960 . S
H826 C818 0.930 . S
H827 C819 0.929 . S
H828 C836 0.929 . S
H829 C838 0.930 . S
H830 C840 0.930 . S
H831 C843 0.929 . S
H832 C846 0.930 . S
H833 C848 0.960 . S
H834 C848 0.960 . S
H835 C848 0.960 . S
C836 H828 0.929 . S
C836 C837 1.377 . S
C836 C838 1.384 . S
C837 C836 1.377 . S
C837 C843 1.390 . S
C838 H829 0.930 . S
C838 C836 1.384 . S
C838 C839 1.372 . S
C839 C838 1.372 . S
C839 C840 1.400 . S
C839 C844 1.490 . S
C840 H830 0.930 . S
C840 C839 1.400 . S
C840 C843 1.386 . S
H841 C857 0.930 . S
H842 C858 0.931 1_556 S
C843 H831 0.929 . S
C843 C837 1.390 . S
C843 C840 1.386 . S
C844 C839 1.490 . S
C844 C846 1.395 . S
C844 C847 1.403 . S
H845 C851 0.930 . S
C846 H832 0.930 . S
C846 C844 1.395 . S
C846 C849 1.403 . S
C847 C844 1.403 . S
C847 C848 1.524 . S
C847 C851 1.400 . S
C848 H833 0.960 . S
C848 H834 0.960 . S
C848 H835 0.960 . S
C848 C847 1.524 . S
C849 C846 1.403 . S
C849 C850 1.392 . S
C849 C853 1.495 . S
C850 C849 1.392 . S
C850 C851 1.385 . S
C850 C852 1.478 . S
C851 H845 0.930 . S
C851 C847 1.400 . S
C851 C850 1.385 . S
C852 C850 1.478 . S
C852 C854 1.381 1_556 S
C852 C858 1.383 1_556 S
C853 C849 1.495 . S
C853 H859 0.959 . S
C853 H860 0.961 . S
C853 H861 0.960 . S
C854 C852 1.381 1_554 S
C854 C855 1.394 . S
C854 H862 0.930 . S
C855 C854 1.394 . S
C855 C856 1.383 . S
C855 H863 0.929 . S
C856 C855 1.383 . S
C856 C857 1.377 . S
C857 H841 0.930 . S
C857 C856 1.377 . S
C857 C858 1.379 . S
C858 H842 0.931 1_554 S
C858 C852 1.383 1_554 S
C858 C857 1.379 . S
H859 C853 0.959 . S
H860 C853 0.961 . S
H861 C853 0.960 . S
H862 C854 0.930 . S
H863 C855 0.929 . S
H864 C872 0.929 . S
H865 C874 0.930 . S
H866 C876 0.930 . S
H867 C879 0.929 . S
H868 C882 0.930 . S
H869 C884 0.960 . S
H870 C884 0.960 . S
H871 C884 0.960 . S
C872 H864 0.929 . S
C872 C873 1.389 . S
C872 C874 1.384 . S
C873 C872 1.389 . S
C873 C879 1.377 1_655 S
C874 H865 0.930 . S
C874 C872 1.384 . S
C874 C875 1.359 1_655 S
C875 C874 1.359 1_455 S
C875 C876 1.413 . S
C875 C880 1.491 . S
C876 H866 0.930 . S
C876 C875 1.413 . S
C876 C879 1.386 . S
H877 C893 0.930 . S
H878 C894 0.931 . S
C879 H867 0.929 . S
C879 C873 1.377 1_455 S
C879 C876 1.386 . S
C880 C875 1.491 . S
C880 C882 1.395 1_455 S
C880 C883 1.403 . S
H881 C887 0.930 . S
C882 H868 0.930 . S
C882 C880 1.395 1_655 S
C882 C885 1.403 . S
C883 C880 1.403 . S
C883 C884 1.524 . S
C883 C887 1.400 . S
C884 H869 0.960 . S
C884 H870 0.960 . S
C884 H871 0.960 . S
C884 C883 1.524 . S
C885 C882 1.403 . S
C885 C886 1.392 1_655 S
C885 C889 1.495 . S
C886 C885 1.392 1_455 S
C886 C887 1.385 . S
C886 C888 1.478 . S
C887 H881 0.930 . S
C887 C883 1.400 . S
C887 C886 1.385 . S
C888 C886 1.478 . S
C888 C890 1.381 1_455 S
C888 C894 1.383 . S
C889 C885 1.495 . S
C889 H895 0.959 . S
C889 H896 0.961 . S
C889 H897 0.960 . S
C890 C888 1.381 1_655 S
C890 C891 1.394 . S
C890 H898 0.930 . S
C891 C890 1.394 . S
C891 C892 1.383 1_655 S
C891 H899 0.929 . S
C892 C891 1.383 1_455 S
C892 C893 1.377 . S
C893 H877 0.930 . S
C893 C892 1.377 . S
C893 C894 1.379 . S
C894 H878 0.931 . S
C894 C888 1.383 . S
C894 C893 1.379 . S
H895 C889 0.959 . S
H896 C889 0.961 . S
H897 C889 0.960 . S
H898 C890 0.930 . S
H899 C891 0.929 . S
C261 C2 1.251 . S
C280 C243 1.271 . S
C297 C22 1.254 . S
C316 C179 1.308 . S
C333 C44 1.305 . S
C352 C211 1.391 . S
C369 C4 1.483 . S
C388 C237 1.565 . S
C424 C173 1.526 . S
C405 C24 1.487 . S
C460 C205 1.465 . S
C441 C42 1.422 . S
C477 C32 1.264 . S
C496 C115 1.265 . S
C513 C49 1.161 . S
C532 C147 1.187 . S
C549 C9 1.161 . S
C568 C77 1.139 . S
C604 C109 1.141 . S
C585 C29 1.140 . S
C640 C141 1.233 . S
C621 C52 1.216 . S
C657 C12 1.186 . S
C676 C83 1.211 . S
C712 C153 1.406 . S
C693 C18 1.434 1_455 S
C729 C38 1.425 . S
C748 C89 1.402 . S
C765 C58 1.426 . S
C784 C121 1.431 . S
C820 C217 1.462 . S
C801 C39 1.485 . S
C856 C249 1.466 . S
C837 C59 1.465 . S
C873 C19 1.469 1_655 S
C892 C185 1.446 . S
