# Generated by pormake.
# Topology zzz, (3,6)-cn, num edge types: 1
# Building blocks:
#     Node 0, Type 0, BuildingBlock: VETTIZ_charged_linker_0, # of connection points: 3
#     Node 1, Type 0, BuildingBlock: VETTIZ_charged_linker_0, # of connection points: 3
#     Node 2, Type 0, BuildingBlock: VETTIZ_charged_linker_0, # of connection points: 3
#     Node 3, Type 0, BuildingBlock: VETTIZ_charged_linker_0, # of connection points: 3
#     Node 4, Type 0, BuildingBlock: VETTIZ_charged_linker_0, # of connection points: 3
#     Node 5, Type 0, BuildingBlock: VETTIZ_charged_linker_0, # of connection points: 3
#     Node 6, Type 0, BuildingBlock: VETTIZ_charged_linker_0, # of connection points: 3
#     Node 7, Type 0, BuildingBlock: VETTIZ_charged_linker_0, # of connection points: 3
#     Node 8, Type 1, BuildingBlock: NUHQIS_clean_sbu_0, # of connection points: 6
#     Node 9, Type 1, BuildingBlock: NUHQIS_clean_sbu_0, # of connection points: 6
#     Node 10, Type 1, BuildingBlock: NUHQIS_clean_sbu_0, # of connection points: 6
#     Node 11, Type 1, BuildingBlock: NUHQIS_clean_sbu_0, # of connection points: 6
#     Edge 12, Type (0, 1), BuildingBlock: KIFKEQ_clean_linker_1, # of connection points: 2
#     Edge 13, Type (0, 1), BuildingBlock: KIFKEQ_clean_linker_1, # of connection points: 2
#     Edge 14, Type (0, 1), BuildingBlock: KIFKEQ_clean_linker_1, # of connection points: 2
#     Edge 15, Type (0, 1), BuildingBlock: KIFKEQ_clean_linker_1, # of connection points: 2
#     Edge 16, Type (0, 1), BuildingBlock: KIFKEQ_clean_linker_1, # of connection points: 2
#     Edge 17, Type (0, 1), BuildingBlock: KIFKEQ_clean_linker_1, # of connection points: 2
#     Edge 18, Type (0, 1), BuildingBlock: KIFKEQ_clean_linker_1, # of connection points: 2
#     Edge 19, Type (0, 1), BuildingBlock: KIFKEQ_clean_linker_1, # of connection points: 2
#     Edge 20, Type (0, 1), BuildingBlock: KIFKEQ_clean_linker_1, # of connection points: 2
#     Edge 21, Type (0, 1), BuildingBlock: KIFKEQ_clean_linker_1, # of connection points: 2
#     Edge 22, Type (0, 1), BuildingBlock: KIFKEQ_clean_linker_1, # of connection points: 2
#     Edge 23, Type (0, 1), BuildingBlock: KIFKEQ_clean_linker_1, # of connection points: 2
#     Edge 24, Type (0, 1), BuildingBlock: KIFKEQ_clean_linker_1, # of connection points: 2
#     Edge 25, Type (0, 1), BuildingBlock: KIFKEQ_clean_linker_1, # of connection points: 2
#     Edge 26, Type (0, 1), BuildingBlock: KIFKEQ_clean_linker_1, # of connection points: 2
#     Edge 27, Type (0, 1), BuildingBlock: KIFKEQ_clean_linker_1, # of connection points: 2
#     Edge 28, Type (0, 1), BuildingBlock: KIFKEQ_clean_linker_1, # of connection points: 2
#     Edge 29, Type (0, 1), BuildingBlock: KIFKEQ_clean_linker_1, # of connection points: 2
#     Edge 30, Type (0, 1), BuildingBlock: KIFKEQ_clean_linker_1, # of connection points: 2
#     Edge 31, Type (0, 1), BuildingBlock: KIFKEQ_clean_linker_1, # of connection points: 2
#     Edge 32, Type (0, 1), BuildingBlock: KIFKEQ_clean_linker_1, # of connection points: 2
#     Edge 33, Type (0, 1), BuildingBlock: KIFKEQ_clean_linker_1, # of connection points: 2
#     Edge 34, Type (0, 1), BuildingBlock: KIFKEQ_clean_linker_1, # of connection points: 2
#     Edge 35, Type (0, 1), BuildingBlock: KIFKEQ_clean_linker_1, # of connection points: 2
# Relax obj value: 0.426
# Max RMSD: 0.259
# Mean RMSD: 0.235
data_MOF--net-zzz--node1-NUHQIS_clean_sbu_0--node2-VETTIZ_charged_linker_0--edge1-KIFKEQ_clean_linker_1
_symmetry_space_group_name_H-M    P1
_symmetry_Int_Tables_number       1
_symmetry_cell_setting            triclinic
loop_
_symmetry_equiv_pos_as_xyz
'x, y, z'
_cell_length_a     59.706317
_cell_length_b     59.654042
_cell_length_c     19.188762
_cell_angle_alpha  89.814189
_cell_angle_beta   89.934288
_cell_angle_gamma 90.036399
loop_
_atom_site_label
_atom_site_type_symbol
_atom_site_fract_x
_atom_site_fract_y
_atom_site_fract_z
_atom_type_partial_charge
C0 C 0.81272 0.49985 0.36898 0.0
C1 C 0.83267 0.4892 0.3923 0.0
C2 C 0.83908 0.46891 0.36112 0.0
C3 C 0.80689 0.4699 0.28486 0.0
C4 C 0.79983 0.48963 0.31538 0.0
C5 C 0.77758 0.49722 0.28405 0.0
H6 H 0.69511 0.47474 0.04125 0.0
C7 C 0.7909 0.46355 0.22977 0.0
C8 C 0.77328 0.47924 0.22847 0.0
H9 H 0.69421 0.52923 0.18823 0.0
H10 H 0.73095 0.51753 0.23259 0.0
H11 H 0.74363 0.48222 0.99522 0.0
H12 H 0.71383 0.43665 0.14191 0.0
H13 H 0.73298 0.42126 0.09121 0.0
H14 H 0.70991 0.43518 0.04926 0.0
H15 H 0.73155 0.45621 0.9678 0.0
H16 H 0.76067 0.45834 0.99254 0.0
C17 C 0.78069 0.52063 0.25131 0.0
C18 C 0.75964 0.49672 0.34181 0.0
C19 C 0.81269 0.39973 0.07029 0.0
C20 C 0.80445 0.39271 1.00545 0.0
C21 C 0.78342 0.40053 0.98295 0.0
C22 C 0.77142 0.41617 0.02281 0.0
C23 C 0.78087 0.42451 0.08484 0.0
C24 C 0.80097 0.41592 0.10805 0.0
C25 C 0.8097 0.42806 0.17076 0.0
C26 C 0.79175 0.44578 0.18082 0.0
C27 C 0.77483 0.44345 0.13114 0.0
C28 C 0.83275 0.43855 0.15107 0.0
C29 C 0.81028 0.41112 0.23233 0.0
C30 C 0.70258 0.48408 0.08364 0.0
C31 C 0.69149 0.50257 0.11215 0.0
C32 C 0.70232 0.51473 0.16567 0.0
C33 C 0.72353 0.50783 0.19162 0.0
C34 C 0.73408 0.48874 0.16326 0.0
C35 C 0.72346 0.47756 0.10937 0.0
C36 C 0.73677 0.45835 0.08186 0.0
C37 C 0.75669 0.45872 0.13016 0.0
C38 C 0.75556 0.47661 0.17824 0.0
C39 C 0.74345 0.46383 1.00534 0.0
C40 C 0.72272 0.43665 0.09091 0.0
H41 H 0.83266 0.44392 0.2874 0.0
H42 H 0.80722 0.51538 0.39243 0.0
H43 H 0.76014 0.48046 0.37031 0.0
H44 H 0.74253 0.49844 0.32097 0.0
H45 H 0.76255 0.51036 0.38006 0.0
H46 H 0.79554 0.5208 0.21629 0.0
H47 H 0.78329 0.53347 0.29233 0.0
H48 H 0.76617 0.52568 0.21943 0.0
H49 H 0.82914 0.39456 0.08793 0.0
H50 H 0.77687 0.39546 0.93278 0.0
H51 H 0.75574 0.42186 1.00212 0.0
H52 H 0.83347 0.44297 0.09471 0.0
H53 H 0.84669 0.42672 0.16178 0.0
H54 H 0.83616 0.45456 0.17776 0.0
H55 H 0.79716 0.39798 0.22665 0.0
H56 H 0.80654 0.41904 0.28312 0.0
H57 H 0.8267 0.40245 0.23543 0.0
H58 H 0.85431 0.46047 0.3772 0.0
C59 C 0.82642 0.45928 0.30837 0.0
C60 C 0.12508 0.7879 0.0265 0.0
C61 C 0.13596 0.80851 0.03732 0.0
C62 C 0.13361 0.81919 0.10235 0.0
C63 C 0.10554 0.79205 0.13658 0.0
C64 C 0.10996 0.77999 0.07692 0.0
C65 C 0.09515 0.75968 0.07109 0.0
H66 H 1.00172 0.703 0.16343 0.0
C67 C 0.08545 0.7823 0.17008 0.0
C68 C 0.07938 0.7632 0.13272 0.0
H69 H 0.05431 0.68446 0.01965 0.0
H70 H 0.0748 0.71748 0.0487 0.0
H71 H 0.03698 0.72368 0.2938 0.0
H72 H 1.00408 0.75997 0.12568 0.0
H73 H 0.99987 0.77203 0.20897 0.0
H74 H 0.98803 0.745 0.19019 0.0
H75 H 1.007 0.723 0.284 0.0
H76 H 0.02058 0.74691 0.32172 0.0
C77 C 0.11012 0.73858 0.08049 0.0
C78 C 0.0826 0.76088 1.00041 0.0
C79 C 0.04802 0.82855 0.35618 0.0
C80 C 0.02704 0.82843 0.3889 0.0
C81 C 0.01203 0.81078 0.37284 0.0
C82 C 0.01817 0.79352 0.32563 0.0
C83 C 0.03935 0.79415 0.29288 0.0
C84 C 0.05362 0.81175 0.30858 0.0
C85 C 0.07457 0.8116 0.26598 0.0
C86 C 0.07106 0.7908 0.22253 0.0
C87 C 0.05057 0.78007 0.23829 0.0
C88 C 0.09471 0.80877 0.3162 0.0
C89 C 0.07508 0.83343 0.22118 0.0
C90 C 0.01775 0.70622 0.13895 0.0
C91 C 0.0265 0.69111 0.08883 0.0
C92 C 0.04732 0.69577 0.05808 0.0
C93 C 0.05927 0.715 0.07525 0.0
C94 C 0.05047 0.73016 0.12373 0.0
C95 C 0.03023 0.72574 0.15608 0.0
C96 C 0.02438 0.74426 0.2076 0.0
C97 C 0.04485 0.75975 0.20206 0.0
C98 C 0.0596 0.75135 0.15098 0.0
C99 C 0.02201 0.73398 0.28097 0.0
C100 C 1.00286 0.75598 0.18223 0.0
H101 H 0.11648 0.82069 0.19863 0.0
H102 H 0.12693 0.77915 0.97748 0.0
H103 H 0.06772 0.74996 0.99816 0.0
H104 H 0.09386 0.7563 0.9566 0.0
H105 H 0.07631 0.77816 0.99069 0.0
H106 H 0.12677 0.74269 0.10322 0.0
H107 H 0.11329 0.73015 0.02991 0.0
H108 H 0.10265 0.72633 0.11744 0.0
H109 H 0.05973 0.84211 0.36529 0.0
H110 H 0.99566 0.81027 0.39708 0.0
H111 H 1.00621 0.78048 0.31573 0.0
H112 H 0.09051 0.797 0.3594 0.0
H113 H 0.0995 0.82504 0.33991 0.0
H114 H 0.10954 0.80135 0.29059 0.0
H115 H 0.05823 0.84126 0.21654 0.0
H116 H 0.08014 0.83039 0.16657 0.0
H117 H 0.0864 0.84621 0.24413 0.0
H118 H 0.14179 0.83508 0.11232 0.0
C119 C 0.11851 0.81103 0.15206 0.0
C120 C 0.82804 1.00186 0.1317 0.0
C121 C 0.84049 0.99328 0.07438 0.0
C122 C 0.82957 0.9795 0.02549 0.0
C123 C 0.7942 0.98815 0.07828 0.0
C124 C 0.8046 0.99799 0.13404 0.0
C125 C 0.78737 1.00312 0.19085 0.0
H126 H 0.67608 0.01698 0.26707 0.0
C127 C 0.77016 0.99023 0.08583 0.0
C128 C 0.76533 0.99582 0.15522 0.0
H129 H 0.72431 0.99203 0.41536 0.0
H130 H 0.75192 0.98803 0.32078 0.0
H131 H 0.71221 0.04683 0.1549 0.0
H132 H 0.6833 0.98089 0.17432 0.0
H133 H 0.68795 0.98498 0.085 0.0
H134 H 0.66858 1.00304 0.13067 0.0
H135 H 0.68272 0.04073 0.15639 0.0
H136 H 0.69839 0.03913 0.07716 0.0
C137 C 0.78719 0.02841 0.20631 0.0
C138 C 0.79303 0.98939 0.25668 0.0
C139 C 0.73146 0.0183 0.8674 0.0
C140 C 0.70938 0.02513 0.85484 0.0
C141 C 0.69297 0.02185 0.90659 0.0
C142 C 0.69873 0.01321 0.97186 0.0
C143 C 0.72115 1.00784 0.98563 0.0
C144 C 0.73686 1.00913 0.93278 0.0
C145 C 0.75941 1.00066 0.95567 0.0
C146 C 0.75456 0.99497 0.03229 0.0
C147 C 0.73257 1.00069 0.04999 0.0
C148 C 0.77668 0.01985 0.94808 0.0
C149 C 0.76573 0.97999 0.91108 0.0
C150 C 0.69298 0.012 0.28067 0.0
C151 C 0.69823 1.00597 0.3495 0.0
C152 C 0.72003 0.99769 0.36339 0.0
C153 C 0.73626 0.99606 0.30959 0.0
C154 C 0.7308 1.00307 0.2417 0.0
C155 C 0.70905 1.00975 0.22791 0.0
C156 C 0.70423 0.01084 0.15126 0.0
C157 C 0.72644 1.00314 0.12112 0.0
C158 C 0.74251 1.00004 0.17398 0.0
C159 C 0.69903 0.03562 0.13342 0.0
C160 C 0.68494 0.99426 0.13405 0.0
H161 H 0.79842 0.96542 0.992 0.0
H162 H 0.83623 0.01138 0.17229 0.0
H163 H 0.7866 0.97196 0.25251 0.0
H164 H 0.78619 0.9974 0.30413 0.0
H165 H 0.81143 0.98855 0.26499 0.0
H166 H 0.784 0.0382 0.15791 0.0
H167 H 0.80352 0.03382 0.22836 0.0
H168 H 0.77382 0.03247 0.24454 0.0
H169 H 0.74418 0.02036 0.82761 0.0
H170 H 0.6758 0.027 0.89756 0.0
H171 H 0.68562 0.01174 0.00976 0.0
H172 H 0.77175 0.03448 0.98044 0.0
H173 H 0.778 0.02546 0.89298 0.0
H174 H 0.79366 0.01457 0.96413 0.0
H175 H 0.75711 0.97997 0.85978 0.0
H176 H 0.76116 0.9641 0.93796 0.0
H177 H 0.78384 0.97982 0.8982 0.0
H178 H 0.83887 0.97177 0.98343 0.0
C179 C 0.80641 0.9766 0.02805 0.0
C180 C 0.50799 0.71826 0.35609 0.0
C181 C 0.49834 0.69803 0.38113 0.0
C182 C 0.47698 0.69182 0.35773 0.0
C183 C 0.47545 0.7243 0.28201 0.0
C184 C 0.49602 0.73135 0.3066 0.0
C185 C 0.50266 0.75366 0.27344 0.0
H186 H 0.47445 0.83565 0.03438 0.0
C187 C 0.46761 0.74026 0.22842 0.0
C188 C 0.4832 0.75793 0.22292 0.0
H189 H 0.53202 0.83702 0.16979 0.0
H190 H 0.52135 0.80037 0.21781 0.0
H191 H 0.48085 0.78708 0.98891 0.0
H192 H 0.43876 0.81735 0.14343 0.0
H193 H 0.42225 0.79785 0.09777 0.0
H194 H 0.43503 0.82076 0.05115 0.0
H195 H 0.45428 0.79901 0.96657 0.0
H196 H 0.45704 0.76994 0.99191 0.0
C197 C 0.52507 0.7507 0.23465 0.0
C198 C 0.50369 0.77153 0.33119 0.0
C199 C 0.40141 0.71726 0.0802 0.0
C200 C 0.39314 0.72546 0.01657 0.0
C201 C 0.39993 0.74682 0.99342 0.0
C202 C 0.41589 0.75914 0.0309 0.0
C203 C 0.4256 0.74971 0.09115 0.0
C204 C 0.41788 0.72935 0.11563 0.0
C205 C 0.43131 0.72085 0.17632 0.0
C206 C 0.44885 0.73917 0.18318 0.0
C207 C 0.4453 0.75606 0.1338 0.0
C208 C 0.44181 0.698 0.15508 0.0
C209 C 0.41558 0.71988 0.24077 0.0
C210 C 0.48469 0.82833 0.07512 0.0
C211 C 0.50376 0.83954 0.09932 0.0
C212 C 0.51706 0.82885 0.1506 0.0
C213 C 0.51077 0.80768 0.17869 0.0
C214 C 0.49111 0.79703 0.15473 0.0
C215 C 0.47875 0.80751 0.10298 0.0
C216 C 0.45897 0.7941 0.08011 0.0
C217 C 0.46042 0.77429 0.12903 0.0
C218 C 0.47935 0.77557 0.17301 0.0
C219 C 0.46275 0.78722 1.00288 0.0
C220 C 0.43754 0.80816 0.09318 0.0
H221 H 0.44949 0.69867 0.29303 0.0
H222 H 0.52431 0.72358 0.37417 0.0
H223 H 0.48841 0.77073 0.3643 0.0
H224 H 0.50449 0.78872 0.31009 0.0
H225 H 0.51848 0.76877 0.36528 0.0
H226 H 0.52435 0.73579 0.20005 0.0
H227 H 0.53903 0.74823 0.27212 0.0
H228 H 0.52911 0.76521 0.20118 0.0
H229 H 0.39697 0.70061 0.09833 0.0
H230 H 0.39384 0.75338 0.94426 0.0
H231 H 0.42081 0.77503 1.00956 0.0
H232 H 0.44618 0.69787 0.09868 0.0
H233 H 0.42999 0.68395 0.16467 0.0
H234 H 0.45776 0.6943 0.18161 0.0
H235 H 0.40167 0.73221 0.2364 0.0
H236 H 0.42426 0.72447 0.28968 0.0
H237 H 0.4079 0.70302 0.24687 0.0
H238 H 0.46922 0.67652 0.37663 0.0
C239 C 0.46553 0.70477 0.30896 0.0
C240 C 0.3252 0.52098 0.30769 0.0
C241 C 0.34003 0.53035 0.35756 0.0
C242 C 0.33494 0.55128 0.38657 0.0
C243 C 0.30103 0.55368 0.31802 0.0
C244 C 0.3057 0.53314 0.28822 0.0
C245 C 0.28754 0.52671 0.23605 0.0
H246 H 0.19186 0.56115 0.06333 0.0
C247 C 0.28025 0.56265 0.28732 0.0
C248 C 0.27219 0.54734 0.2374 0.0
H249 H 0.22236 0.4959 0.04619 0.0
H250 H 0.25172 0.50726 0.12816 0.0
H251 H 0.19123 0.56204 0.2119 0.0
H252 H 0.2376 0.59109 0.06858 0.0
H253 H 0.23308 0.61131 0.13364 0.0
H254 H 0.20964 0.60101 0.08364 0.0
H255 H 0.1872 0.58982 0.17893 0.0
H256 H 0.20203 0.58456 0.25918 0.0
C257 C 0.27547 0.5056 0.26359 0.0
C258 C 0.29829 0.52326 0.16388 0.0
C259 C 0.24402 0.63097 0.39584 0.0
C260 C 0.22366 0.64188 0.38126 0.0
C261 C 0.21368 0.6387 0.31543 0.0
C262 C 0.2221 0.62273 0.26916 0.0
C263 C 0.24059 0.60967 0.28895 0.0
C264 C 0.25212 0.61488 0.349 0.0
C265 C 0.27191 0.59968 0.35988 0.0
C266 C 0.26866 0.58295 0.30083 0.0
C267 C 0.25018 0.58881 0.2602 0.0
C268 C 0.26958 0.58837 0.43248 0.0
C269 C 0.29349 0.61396 0.3503 0.0
C270 C 0.20505 0.54932 0.07583 0.0
C271 C 0.20492 0.52779 0.04704 0.0
C272 C 0.22205 0.5127 0.06738 0.0
C273 C 0.23904 0.5193 0.11498 0.0
C274 C 0.23863 0.54103 0.14388 0.0
C275 C 0.22152 0.55538 0.12398 0.0
C276 C 0.22172 0.57698 0.163 0.0
C277 C 0.24194 0.57376 0.20927 0.0
C278 C 0.25239 0.55283 0.19807 0.0
C279 C 0.19946 0.57866 0.20521 0.0
C280 C 0.22554 0.59624 0.10979 0.0
H281 H 0.31294 0.57862 0.3923 0.0
H282 H 0.32876 0.50485 0.28456 0.0
H283 H 0.30868 0.53804 0.14945 0.0
H284 H 0.28562 0.52119 0.12256 0.0
H285 H 0.30925 0.50822 0.16397 0.0
H286 H 0.27105 0.50763 0.31954 0.0
H287 H 0.28639 0.49061 0.25874 0.0
H288 H 0.25963 0.50233 0.23599 0.0
H289 H 0.25232 0.63345 0.44537 0.0
H290 H 0.19804 0.64688 0.30232 0.0
H291 H 0.21291 0.62013 0.22194 0.0
H292 H 0.27972 0.57303 0.43818 0.0
H293 H 0.25197 0.583 0.44172 0.0
H294 H 0.27431 0.60014 0.47473 0.0
H295 H 0.29014 0.63013 0.32315 0.0
H296 H 0.30606 0.60543 0.31708 0.0
H297 H 0.30124 0.61811 0.40125 0.0
H298 H 0.34599 0.55872 0.42489 0.0
C299 C 0.31571 0.56291 0.36719 0.0
C300 C 0.89297 0.24417 0.35461 0.0
C301 C 0.88341 0.22303 0.34008 0.0
C302 C 0.88901 0.21273 0.27605 0.0
C303 C 0.91768 0.2405 0.25491 0.0
C304 C 0.9104 0.25229 0.31225 0.0
C305 C 0.92508 0.2723 0.32657 0.0
H306 H 0.02375 0.32648 0.28699 0.0
C307 C 0.93921 0.25021 0.23167 0.0
C308 C 0.9437 0.26888 0.27306 0.0
H309 H 0.96487 0.34625 0.40284 0.0
H310 H 0.94509 0.31411 0.36118 0.0
H311 H 0.01783 0.26917 0.3157 0.0
H312 H 0.99473 0.30899 0.13964 0.0
H313 H 0.01133 0.28545 0.11598 0.0
H314 H 0.0239 0.30815 0.16303 0.0
H315 H 0.0373 0.28436 0.26168 0.0
H316 H 0.0257 0.25808 0.23365 0.0
C317 C 0.93389 0.2704 0.40238 0.0
C318 C 0.91116 0.29378 0.31161 0.0
C319 C 0.9836 0.20576 0.0565 0.0
C320 C 1.00584 0.20569 0.03384 0.0
C321 C 0.02048 0.22242 0.05933 0.0
C322 C 0.0127 0.2391 0.10623 0.0
C323 C 0.9902 0.2387 0.12901 0.0
C324 C 0.97634 0.22187 0.1042 0.0
C325 C 0.9538 0.22183 0.13784 0.0
C326 C 0.95571 0.24193 0.18528 0.0
C327 C 0.97693 0.25228 0.18026 0.0
C328 C 0.95119 0.19939 0.17898 0.0
C329 C 0.93598 0.2257 0.0803 0.0
C330 C 1.00661 0.32362 0.3032 0.0
C331 C 0.99581 0.33885 0.3489 0.0
C332 C 0.97348 0.33482 0.36812 0.0
C333 C 0.96197 0.31611 0.3437 0.0
C334 C 0.97274 0.30088 0.29939 0.0
C335 C 0.99454 0.30476 0.27821 0.0
C336 C 1.00228 0.28671 0.22753 0.0
C337 C 0.98131 0.27196 0.22124 0.0
C338 C 0.96443 0.28033 0.2656 0.0
C339 C 0.02193 0.27386 0.261 0.0
C340 C 1.0085 0.29784 0.15759 0.0
H341 H 0.90988 0.21221 0.18733 0.0
H342 H 0.88836 0.25337 0.40091 0.0
H343 H 0.89589 0.2902 0.28036 0.0
H344 H 0.92068 0.30617 0.28008 0.0
H345 H 0.90553 0.30186 0.36066 0.0
H346 H 0.93956 0.25299 0.41354 0.0
H347 H 0.92056 0.27467 0.44052 0.0
H348 H 0.94847 0.28119 0.41291 0.0
H349 H 0.97212 0.19282 0.03935 0.0
H350 H 0.03783 0.22263 0.04281 0.0
H351 H 0.02446 0.25147 0.12377 0.0
H352 H 0.96753 0.19086 0.18767 0.0
H353 H 0.94029 0.18737 0.1508 0.0
H354 H 0.9445 0.20187 0.2322 0.0
H355 H 0.94201 0.23818 0.04131 0.0
H356 H 0.92018 0.23274 0.10079 0.0
H357 H 0.93225 0.20991 0.05209 0.0
H358 H 0.88209 0.1967 0.26118 0.0
C359 C 0.9058 0.22151 0.23326 0.0
C360 C 0.30902 1.00481 0.0491 0.0
C361 C 0.32878 0.99384 0.0259 0.0
C362 C 0.33472 0.9733 0.05661 0.0
C363 C 0.30244 0.97473 0.13285 0.0
C364 C 0.29584 0.99468 0.10241 0.0
C365 C 0.27366 1.00262 0.13332 0.0
H366 H 0.19011 0.98095 0.37407 0.0
C367 C 0.28615 0.9685 0.18749 0.0
C368 C 0.26883 0.98454 0.18849 0.0
H369 H 0.19048 0.03593 0.22776 0.0
H370 H 0.22718 0.02376 0.1839 0.0
H371 H 0.20737 0.94343 0.27333 0.0
H372 H 0.23901 0.98711 0.42051 0.0
H373 H 0.2548 0.9624 0.42381 0.0
H374 H 0.2255 0.96169 0.44739 0.0
H375 H 0.20425 0.94079 0.36606 0.0
H376 H 0.22662 0.92698 0.32013 0.0
C377 C 0.25588 1.00269 0.07516 0.0
C378 C 0.27712 0.02585 0.16646 0.0
C379 C 0.30538 0.9032 0.34623 0.0
C380 C 0.29618 0.89567 0.40949 0.0
C381 C 0.27521 0.90393 0.43087 0.0
C382 C 0.26413 0.92033 0.39136 0.0
C383 C 0.27441 0.92898 0.3308 0.0
C384 C 0.29449 0.92007 0.30864 0.0
C385 C 0.30393 0.93237 0.24681 0.0
C386 C 0.2864 0.9505 0.2361 0.0
C387 C 0.26916 0.94831 0.28489 0.0
C388 C 0.30474 0.91574 0.18474 0.0
C389 C 0.32697 0.94232 0.26838 0.0
C390 C 0.19786 0.99034 0.33197 0.0
C391 C 0.18714 1.00906 0.30346 0.0
C392 C 0.1983 0.02124 0.25029 0.0
C393 C 0.21947 0.01407 0.22464 0.0
C394 C 0.22961 0.99467 0.25291 0.0
C395 C 0.21864 0.98352 0.30645 0.0
C396 C 0.23135 0.96384 0.33354 0.0
C397 C 0.25139 0.96397 0.28566 0.0
C398 C 0.25085 0.98211 0.23807 0.0
C399 C 0.21672 0.94257 0.32341 0.0
C400 C 0.23795 0.96878 0.41034 0.0
H401 H 0.32768 0.94822 0.13026 0.0
H402 H 0.3039 0.02054 0.02582 0.0
H403 H 0.29183 0.02559 0.20196 0.0
H404 H 0.26257 0.03109 0.19791 0.0
H405 H 0.28016 0.03877 0.1257 0.0
H406 H 0.25613 0.98652 0.04649 0.0
H407 H 0.2592 0.01639 0.03714 0.0
H408 H 0.23875 1.00471 0.09567 0.0
H409 H 0.32182 0.89764 0.32963 0.0
H410 H 0.26798 0.89849 0.47989 0.0
H411 H 0.24844 0.92627 0.41122 0.0
H412 H 0.29184 0.90236 0.19007 0.0
H413 H 0.3213 0.90735 0.18114 0.0
H414 H 0.30086 0.9239 0.13427 0.0
H415 H 0.32689 0.94742 0.32412 0.0
H416 H 0.33141 0.95779 0.23987 0.0
H417 H 0.34062 0.92987 0.26154 0.0
H418 H 0.34975 0.9646 0.04014 0.0
C419 C 0.3218 0.96377 0.10935 0.0
C420 C 0.50676 0.31269 0.08649 0.0
C421 C 0.50662 0.33651 0.0866 0.0
C422 C 0.50283 0.3477 0.14982 0.0
C423 C 0.50114 0.31244 0.21238 0.0
C424 C 0.50392 0.30093 0.15055 0.0
C425 C 0.50392 0.27567 0.16359 0.0
H426 H 0.49848 0.19164 0.41192 0.0
C427 C 0.4996 0.2962 0.27041 0.0
C428 C 0.50069 0.27431 0.24289 0.0
H429 H 0.50824 0.18125 0.19198 0.0
H430 H 0.50507 0.22188 0.17136 0.0
H431 H 0.53155 0.22612 0.42469 0.0
H432 H 0.46054 0.22993 0.40261 0.0
H433 H 0.46758 0.25023 0.46508 0.0
H434 H 0.47469 0.22123 0.48059 0.0
H435 H 0.51352 0.22537 0.49916 0.0
H436 H 0.52519 0.25128 0.46644 0.0
C437 C 0.52678 0.26614 0.14104 0.0
C438 C 0.48412 0.26512 0.12415 0.0
C439 C 0.50609 0.32458 0.51874 0.0
C440 C 0.50853 0.31318 0.58261 0.0
C441 C 0.50341 0.29023 0.58629 0.0
C442 C 0.49759 0.27844 0.52608 0.0
C443 C 0.49761 0.28957 0.46119 0.0
C444 C 0.50086 0.31243 0.45864 0.0
C445 C 0.50066 0.32132 0.38507 0.0
C446 C 0.49841 0.29969 0.34361 0.0
C447 C 0.49676 0.28132 0.38862 0.0
C448 C 0.52342 0.33313 0.37138 0.0
C449 C 0.47985 0.33669 0.37671 0.0
C450 C 0.49965 0.19797 0.35898 0.0
C451 C 0.50364 0.18335 0.30386 0.0
C452 C 0.50516 0.1923 0.2356 0.0
C453 C 0.50346 0.21582 0.22389 0.0
C454 C 0.50033 0.23037 0.28109 0.0
C455 C 0.49835 0.22096 0.34693 0.0
C456 C 0.49671 0.23786 0.40345 0.0
C457 C 0.49735 0.25931 0.36181 0.0
C458 C 0.49944 0.25538 0.28953 0.0
C459 C 0.51763 0.23508 0.45135 0.0
C460 C 0.4738 0.23468 0.44054 0.0
H461 H 0.49742 0.3457 0.25791 0.0
H462 H 0.50949 0.30361 0.03849 0.0
H463 H 0.46835 0.27428 0.13598 0.0
H464 H 0.48136 0.24747 0.13914 0.0
H465 H 0.48696 0.26589 0.06695 0.0
H466 H 0.54064 0.27616 0.16395 0.0
H467 H 0.52855 0.26663 0.0834 0.0
H468 H 0.52921 0.24871 0.15872 0.0
H469 H 0.51009 0.34225 0.51449 0.0
H470 H 0.50501 0.28123 0.63516 0.0
H471 H 0.4945 0.26086 0.53218 0.0
H472 H 0.53743 0.32311 0.39353 0.0
H473 H 0.52385 0.34996 0.39596 0.0
H474 H 0.52745 0.33511 0.31566 0.0
H475 H 0.467 0.33338 0.41755 0.0
H476 H 0.471 0.33377 0.32677 0.0
H477 H 0.48448 0.35468 0.38036 0.0
H478 H 0.50237 0.36587 0.15123 0.0
C479 C 0.49994 0.33592 0.212 0.0
Tb480 Tb 0.03187 0.01015 0.757 0.0
Eu481 Eu 0.99746 0.02921 0.63845 0.0
C482 C 0.04988 0.02286 0.60727 0.0
C483 C 0.01658 0.0612 0.75871 0.0
C484 C 0.07823 0.97901 0.84205 0.0
C485 C 0.10435 0.95517 0.77935 0.0
C486 C 0.08805 0.97202 0.77921 0.0
C487 C 0.085 0.96922 0.9048 0.0
C488 C 0.10113 0.95234 0.905 0.0
C489 C 0.11095 0.94497 0.84229 0.0
C490 C 0.06048 0.996 0.84313 0.0
O491 O 1.00081 0.01502 0.81567 0.0
O492 O 0.97553 0.01616 0.72557 0.0
O493 O 1.00615 0.9942 0.60304 0.0
O494 O 0.01889 0.9797 0.70676 0.0
C495 C 0.98009 0.01457 0.79241 0.0
O496 O 0.96691 0.02553 0.57705 0.0
O497 O 0.98811 0.05466 0.56237 0.0
O498 O 0.03258 0.03614 0.59793 0.0
O499 O 0.05017 1.00832 0.65878 0.0
O500 O 0.03315 0.04686 0.76642 0.0
O501 O 0.99914 0.05622 0.72025 0.0
C502 C 0.01199 0.97699 0.64196 0.0
O503 O 0.06354 0.01336 0.80284 0.0
O504 O 0.04003 0.98844 0.83963 0.0
C505 C 0.94929 0.0601 0.55565 0.0
C506 C 0.91491 0.09221 0.56351 0.0
C507 C 0.91777 0.07931 0.5029 0.0
C508 C 0.93492 0.06341 0.49895 0.0
C509 C 0.9456 0.07189 0.61778 0.0
C510 C 0.92859 0.08791 0.62159 0.0
C511 C 0.96882 0.04535 0.54882 0.0
H512 H 0.1116 0.95 0.73021 0.0
H513 H 0.08293 0.97939 0.73009 0.0
H514 H 0.07747 0.97433 0.95365 0.0
H515 H 0.10526 0.94451 0.95432 0.0
H516 H 0.90767 0.08248 0.45705 0.0
H517 H 0.93751 0.05435 0.45076 0.0
H518 H 0.95643 0.06934 0.66238 0.0
H519 H 0.9267 0.09757 0.66893 0.0
Tb520 Tb 0.52111 0.0262 0.74361 0.0
Eu521 Eu 0.50287 0.99052 0.62912 0.0
C522 C 0.50763 0.0425 0.59095 0.0
C523 C 0.46989 0.0125 0.74574 0.0
C524 C 0.55402 0.07306 0.8025 0.0
C525 C 0.57407 0.09179 0.7085 0.0
C526 C 0.55493 0.08094 0.73343 0.0
C527 C 0.57154 0.07813 0.84804 0.0
C528 C 0.59079 0.08875 0.82305 0.0
C529 C 0.59285 0.09446 0.75183 0.0
C530 C 0.53785 0.05551 0.82175 0.0
O531 O 0.52717 0.99294 0.79081 0.0
O532 O 0.50063 0.97281 0.73211 0.0
O533 O 0.5408 0.98868 0.62591 0.0
O534 O 0.54784 0.02387 0.66609 0.0
C535 C 0.51445 0.97496 0.78463 0.0
O536 O 0.50645 0.95776 0.58104 0.0
O537 O 0.48043 0.9804 0.54504 0.0
O538 O 0.50944 0.022 0.56706 0.0
O539 O 0.50712 0.04643 0.65844 0.0
O540 O 0.48762 0.01831 0.78222 0.0
O541 O 0.47179 1.00492 0.68145 0.0
C542 C 0.55443 1.00579 0.63313 0.0
O543 O 0.5179 0.0572 0.79471 0.0
O544 O 0.54574 0.03523 0.81617 0.0
C545 C 0.47237 0.94174 0.54455 0.0
C546 C 0.43902 0.90828 0.54838 0.0
C547 C 0.45189 0.91292 0.608 0.0
C548 C 0.46836 0.9296 0.6062 0.0
C549 C 0.46004 0.93679 0.48468 0.0
C550 C 0.44349 0.92032 0.48655 0.0
C551 C 0.48868 0.96015 0.54228 0.0
H552 H 0.57486 0.0963 0.65384 0.0
H553 H 0.54167 0.07701 0.69708 0.0
H554 H 0.57124 0.07201 0.90127 0.0
H555 H 0.60486 0.09026 0.85828 0.0
H556 H 0.44901 0.90394 0.65632 0.0
H557 H 0.47769 0.93324 0.65322 0.0
H558 H 0.46283 0.9461 0.43684 0.0
H559 H 0.43358 0.91773 0.44004 0.0
Tb560 Tb 0.50199 0.52569 0.78296 0.0
Eu561 Eu 0.53399 0.5057 0.66127 0.0
C562 C 0.48131 0.5118 0.63497 0.0
C563 C 0.51429 0.47404 0.78259 0.0
C564 C 0.45562 0.55441 0.87568 0.0
C565 C 0.42413 0.57153 0.81554 0.0
C566 C 0.44254 0.557 0.81542 0.0
C567 C 0.44983 0.56596 0.93628 0.0
C568 C 0.43162 0.58054 0.93638 0.0
C569 C 0.41867 0.5838 0.87579 0.0
C570 C 0.47609 0.54087 0.87537 0.0
O571 O 0.53634 0.53211 0.81979 0.0
O572 O 0.55339 0.50364 0.7615 0.0
O573 O 0.53585 0.54347 0.65044 0.0
O574 O 0.50294 0.55245 0.70475 0.0
C575 C 0.55337 0.51834 0.81197 0.0
O576 O 0.56663 0.50748 0.61023 0.0
O577 O 0.5425 0.4825 0.57758 0.0
O578 O 0.50127 0.51201 0.60589 0.0
O579 O 0.47885 0.51296 0.70324 0.0
O580 O 0.51155 0.49229 0.81994 0.0
O581 O 0.51863 0.47537 0.71547 0.0
C582 C 0.51973 0.55784 0.66351 0.0
O583 O 0.47441 0.52082 0.84911 0.0
O584 O 0.4941 0.55117 0.85398 0.0
C585 C 0.57928 0.47037 0.59563 0.0
C586 C 0.59352 0.42957 0.65375 0.0
C587 C 0.59622 0.44955 0.69113 0.0
C588 C 0.58919 0.46984 0.6622 0.0
C589 C 0.57967 0.45101 0.55465 0.0
C590 C 0.58685 0.43073 0.58338 0.0
C591 C 0.56356 0.48851 0.57786 0.0
H592 H 0.4145 0.5735 0.76815 0.0
H593 H 0.44687 0.54821 0.76796 0.0
H594 H 0.45987 0.56425 0.98302 0.0
H595 H 0.42841 0.59006 0.98328 0.0
H596 H 0.60154 0.44917 0.74509 0.0
H597 H 0.58939 0.4846 0.69483 0.0
H598 H 0.57212 0.45103 0.50331 0.0
H599 H 0.5845 0.41562 0.5531 0.0
Tb600 Tb 1.00684 0.49804 0.78823 0.0
Eu601 Eu 0.02547 0.53035 0.66173 0.0
C602 C 0.01919 0.47728 0.63895 0.0
C603 C 0.05813 0.51216 0.78407 0.0
C604 C 0.97887 0.45125 0.88012 0.0
C605 C 0.96094 0.42092 0.81679 0.0
C606 C 0.97613 0.43878 0.81876 0.0
C607 C 0.96681 0.44532 0.93982 0.0
C608 C 0.95152 0.42765 0.93782 0.0
C609 C 0.94807 0.41543 0.87596 0.0
C610 C 0.99277 0.47153 0.88116 0.0
O611 O 1.00079 0.53213 0.82724 0.0
O612 O 0.02449 0.55235 0.75665 0.0
O613 O 0.98786 0.53009 0.64865 0.0
O614 O 0.97842 0.49963 0.71629 0.0
C615 C 0.01152 0.55082 0.8117 0.0
O616 O 0.02213 0.56108 0.60141 0.0
O617 O 0.04925 0.53809 0.57839 0.0
O618 O 0.01895 0.4972 0.6097 0.0
O619 O 0.01854 0.47482 0.70724 0.0
O620 O 0.0403 0.5081 0.82243 0.0
O621 O 0.05631 0.51723 0.71752 0.0
C622 C 0.97327 0.51499 0.66955 0.0
O623 O 0.01245 0.46998 0.85213 0.0
O624 O 0.98252 0.48994 0.86325 0.0
C625 C 0.05641 0.57671 0.56579 0.0
C626 C 0.08792 0.61191 0.56283 0.0
C627 C 0.07689 0.60623 0.62527 0.0
C628 C 0.0613 0.58872 0.62678 0.0
C629 C 0.06704 0.58251 0.50338 0.0
C630 C 0.08268 0.59988 0.50185 0.0
C631 C 0.04064 0.55785 0.56678 0.0
H632 H 0.95888 0.41182 0.7685 0.0
H633 H 0.98526 0.44326 0.77189 0.0
H634 H 0.96858 0.45492 0.98737 0.0
H635 H 0.9416 0.42439 0.98401 0.0
H636 H 0.08044 0.61517 0.67304 0.0
H637 H 0.05324 0.5844 0.67563 0.0
H638 H 0.06354 0.57333 0.45598 0.0
H639 H 0.09123 0.60333 0.45319 0.0
H640 H 0.1717 0.04906 0.35838 0.0
H641 H 0.15128 0.98135 0.3126 0.0
H642 H 0.13716 0.05441 0.42698 0.0
H643 H 0.11726 0.98653 0.38082 0.0
H644 H 0.08264 0.99135 0.59331 0.0
H645 H 0.11377 0.9906 0.51173 0.0
H646 H 0.09259 0.05395 0.42519 0.0
H647 H 0.06087 0.05468 0.50732 0.0
C648 C 0.15957 0.03559 0.3612 0.0
C649 C 0.16432 0.01473 0.33045 0.0
C650 C 0.13985 0.03859 0.40076 0.0
C651 C 0.12465 0.02073 0.41057 0.0
C652 C 0.12877 1.00049 0.37558 0.0
C653 C 0.14823 0.99757 0.33605 0.0
C654 C 0.08448 1.00521 0.55713 0.0
C655 C 0.06907 0.02305 0.55704 0.0
C656 C 0.10234 1.0047 0.50992 0.0
C657 C 0.10563 0.02212 0.46139 0.0
C658 C 0.09055 0.04027 0.4619 0.0
C659 C 0.07233 0.04062 0.50875 0.0
H660 H 0.47675 0.14672 0.27867 0.0
H661 H 0.53836 0.16671 0.37743 0.0
H662 H 0.47801 0.11077 0.34222 0.0
H663 H 0.53947 0.13127 0.44131 0.0
H664 H 0.51125 0.08728 0.62025 0.0
H665 H 0.51217 0.11876 0.53919 0.0
H666 H 0.50234 0.07363 0.36683 0.0
H667 H 0.50204 0.04173 0.44812 0.0
C668 C 0.49101 0.14305 0.31163 0.0
C669 C 0.50761 0.1594 0.32239 0.0
C670 C 0.49163 0.12258 0.34859 0.0
C671 C 0.50865 0.11834 0.39774 0.0
C672 C 0.52598 0.13412 0.40462 0.0
C673 C 0.52551 0.1543 0.3673 0.0
C674 C 0.50937 0.0839 0.56519 0.0
C675 C 0.50679 0.06181 0.54103 0.0
C676 C 0.50995 0.10202 0.51857 0.0
C677 C 0.50754 0.09871 0.4464 0.0
C678 C 0.50427 0.07673 0.42207 0.0
C679 C 0.50414 0.05847 0.46876 0.0
H680 H 0.38237 0.53874 0.31288 0.0
H681 H 0.34509 0.50001 0.46297 0.0
H682 H 0.41692 0.53143 0.37699 0.0
H683 H 0.37968 0.49213 0.52704 0.0
H684 H 0.43708 0.51318 0.67484 0.0
H685 H 0.40386 0.51305 0.6014 0.0
H686 H 0.44562 0.50704 0.41851 0.0
H687 H 0.47894 0.50767 0.4921 0.0
C688 C 0.38178 0.52774 0.35789 0.0
C689 C 0.36109 0.51948 0.38185 0.0
C690 C 0.4016 0.52365 0.39521 0.0
C691 C 0.40127 0.51137 0.45813 0.0
C692 C 0.38067 0.50198 0.47965 0.0
C693 C 0.36085 0.50607 0.44216 0.0
C694 C 0.43926 0.51167 0.61901 0.0
C695 C 0.46087 0.51051 0.58977 0.0
C696 C 0.42008 0.51141 0.57664 0.0
C697 C 0.42183 0.50997 0.50349 0.0
C698 C 0.44346 0.50842 0.47436 0.0
C699 C 0.46266 0.50869 0.51678 0.0
H700 H 0.02575 0.34161 0.4564 0.0
H701 H 0.98803 0.38205 0.31217 0.0
H702 H 0.03469 0.37516 0.52466 0.0
H703 H 0.99644 0.41548 0.38015 0.0
H704 H 0.0232 0.47538 0.49631 0.0
H705 H 0.02243 0.44249 0.42138 0.0
H706 H 0.0152 0.3999 0.60244 0.0
H707 H 0.01653 0.43279 0.67753 0.0
C708 C 0.02006 0.35782 0.43796 0.0
C709 C 1.00664 0.35929 0.37803 0.0
C710 C 0.0248 0.37703 0.47775 0.0
C711 C 0.01615 0.39821 0.4587 0.0
C712 C 1.0037 0.39969 0.39646 0.0
C713 C 0.99894 0.38051 0.35701 0.0
C714 C 0.02161 0.45901 0.5204 0.0
C715 C 0.01984 0.45691 0.59335 0.0
C716 C 0.02106 0.44006 0.47716 0.0
C717 C 0.01867 0.41833 0.50532 0.0
C718 C 0.01739 0.41621 0.57845 0.0
C719 C 0.01799 0.43518 0.62175 0.0
H720 H 0.87737 0.96625 0.0769 0.0
H721 H 0.85604 0.03353 0.02921 0.0
H722 H 0.91288 0.97306 0.01612 0.0
H723 H 0.89136 0.04033 0.96735 0.0
H724 H 0.93632 0.02637 0.77158 0.0
H725 H 0.90501 0.02363 0.85305 0.0
H726 H 0.94914 0.99632 1.00961 0.0
H727 H 0.98072 0.99935 0.92812 0.0
C728 C 0.88071 0.9828 0.05591 0.0
C729 C 0.86413 0.99951 0.05907 0.0
C730 C 0.90097 0.98667 0.02056 0.0
C731 C 0.90489 1.00716 0.9861 0.0
C732 C 0.88881 0.0243 0.99278 0.0
C733 C 0.86872 0.02055 0.02918 0.0
C734 C 0.93943 0.01982 0.82339 0.0
C735 C 0.9611 0.01299 0.843 0.0
C736 C 0.92148 0.01845 0.8704 0.0
C737 C 0.92454 1.00987 0.93813 0.0
C738 C 0.94619 1.00299 0.95787 0.0
C739 C 0.96429 1.00477 0.91116 0.0
H740 H 0.54324 0.85564 0.04184 0.0
H741 H 0.47518 0.87472 0.08805 0.0
H742 H 0.54783 0.89008 0.97184 0.0
H743 H 0.47964 0.90864 0.01855 0.0
H744 H 0.48356 0.94195 0.80362 0.0
H745 H 0.48354 0.91152 0.88769 0.0
H746 H 0.5464 0.93484 0.97111 0.0
H747 H 0.5464 0.96595 0.88613 0.0
C748 C 0.5295 0.86744 0.03868 0.0
C749 C 0.50876 0.86228 0.06987 0.0
C750 C 0.53209 0.88712 0.99842 0.0
C751 C 0.51395 0.90193 0.98847 0.0
C752 C 0.49381 0.89744 0.02388 0.0
C753 C 0.49128 0.878 0.064 0.0
C754 C 0.49745 0.94079 0.83972 0.0
C755 C 0.51496 0.95659 0.8379 0.0
C756 C 0.49736 0.92329 0.88837 0.0
C757 C 0.51487 0.92076 0.93664 0.0
C758 C 0.53266 0.93631 0.9346 0.0
C759 C 0.53259 0.95418 0.88619 0.0
H760 H 0.65596 0.47449 0.1008 0.0
H761 H 0.67564 0.54279 0.05919 0.0
H762 H 0.62164 0.48005 0.03466 0.0
H763 H 0.64093 0.54846 0.992 0.0
H764 H 0.56554 0.55023 0.91018 0.0
H765 H 0.59742 0.54873 0.9915 0.0
H766 H 0.61622 0.48436 0.90791 0.0
H767 H 0.58484 0.48574 0.82805 0.0
C768 C 0.65273 0.49087 0.07845 0.0
C769 C 0.66867 0.50813 0.08485 0.0
C770 C 0.63308 0.49403 0.04006 0.0
C771 C 0.62865 0.51457 1.00661 0.0
C772 C 0.64379 0.53242 0.01698 0.0
C773 C 0.66364 0.52922 0.05567 0.0
C774 C 0.5765 0.53577 0.90938 0.0
C775 C 0.57253 0.51814 0.86225 0.0
C776 C 0.59483 0.53497 0.95574 0.0
C777 C 0.60934 0.51633 0.95684 0.0
C778 C 0.60528 0.49883 0.90953 0.0
C779 C 0.58728 0.49974 0.86306 0.0
H780 H 0.02899 0.64876 0.14252 0.0
H781 H 1.00032 0.68705 0.97433 0.0
H782 H 0.02161 0.61397 0.07866 0.0
H783 H 0.99286 0.65246 0.9103 0.0
H784 H 0.02192 0.59419 0.77913 0.0
H785 H 0.01995 0.62722 0.85267 0.0
H786 H 0.9943 0.58691 0.02203 0.0
H787 H 0.99616 0.5535 0.94761 0.0
C788 C 0.02009 0.64963 0.09342 0.0
C789 C 0.01476 0.67061 0.06416 0.0
C790 C 0.01604 0.62971 0.05641 0.0
C791 C 1.00692 0.63036 0.98872 0.0
C792 C 1.00017 0.65129 0.96182 0.0
C793 C 1.00407 0.67113 0.999 0.0
C794 C 0.01571 0.59225 0.83187 0.0
C795 C 1.00924 0.57103 0.85721 0.0
C796 C 0.01439 0.61133 0.87404 0.0
C797 C 1.0068 0.60988 0.94337 0.0
C798 C 1.00024 0.58868 0.96896 0.0
C799 C 1.00123 0.56953 0.92618 0.0
H800 H 0.88741 0.2272 0.48368 0.0
H801 H 0.85327 0.18764 0.32784 0.0
H802 H 0.88343 0.19706 0.56593 0.0
H803 H 0.8527 0.15623 0.40663 0.0
H804 H 0.87133 0.09579 0.51851 0.0
H805 H 0.85129 0.13042 0.49188 0.0
H806 H 0.90742 0.16843 0.57253 0.0
H807 H 0.92619 0.1342 0.60241 0.0
C808 C 0.87871 0.21232 0.46644 0.0
C809 C 0.87238 0.2094 0.3963 0.0
C810 C 0.87688 0.19463 0.51393 0.0
C811 C 0.86974 0.17335 0.49156 0.0
C812 C 0.85933 0.1719 0.42587 0.0
C813 C 0.86012 0.18998 0.37949 0.0
C814 C 0.8789 0.11168 0.53227 0.0
C815 C 0.90042 0.11235 0.5616 0.0
C816 C 0.86752 0.1316 0.51658 0.0
C817 C 0.87779 0.15259 0.52786 0.0
C818 C 0.8985 0.15295 0.56318 0.0
C819 C 0.90955 0.13313 0.58018 0.0
H820 H 0.30727 0.90871 0.5393 0.0
H821 H 0.31925 0.85654 0.38891 0.0
H822 H 0.34207 0.90003 0.59637 0.0
H823 H 0.35376 0.8464 0.44917 0.0
H824 H 0.40946 0.90166 0.65666 0.0
H825 H 0.37254 0.88485 0.64904 0.0
H826 H 0.38678 0.86488 0.43685 0.0
H827 H 0.42419 0.87954 0.44744 0.0
C828 C 0.31678 0.89442 0.52098 0.0
C829 C 0.31097 0.8837 0.4587 0.0
C830 C 0.33694 0.8893 0.55394 0.0
C831 C 0.35152 0.87312 0.52561 0.0
C832 C 0.34357 0.85972 0.47052 0.0
C833 C 0.32364 0.86527 0.43641 0.0
C834 C 0.40507 0.89278 0.6095 0.0
C835 C 0.41945 0.89285 0.5514 0.0
C836 C 0.38367 0.88335 0.60473 0.0
C837 C 0.37601 0.87446 0.54115 0.0
C838 C 0.39162 0.87178 0.48667 0.0
C839 C 0.41314 0.88066 0.49211 0.0
H840 H 0.49895 0.35363 0.64078 0.0
H841 H 0.5454 0.29833 0.65131 0.0
H842 H 0.52551 0.37712 0.70255 0.0
H843 H 0.57208 0.32189 0.71396 0.0
H844 H 0.6095 0.38834 0.61546 0.0
H845 H 0.59035 0.35343 0.64264 0.0
H846 H 0.55224 0.38684 0.80279 0.0
H847 H 0.57104 0.42185 0.77495 0.0
C848 C 0.51439 0.34623 0.65949 0.0
C849 C 0.52031 0.32437 0.64045 0.0
C850 C 0.52955 0.35958 0.69572 0.0
C851 C 0.55094 0.35133 0.71289 0.0
C852 C 0.55572 0.32862 0.70137 0.0
C853 C 0.54042 0.31517 0.66563 0.0
C854 C 0.59791 0.38796 0.65895 0.0
C855 C 0.5912 0.40794 0.6912 0.0
C856 C 0.58701 0.3679 0.67499 0.0
C857 C 0.56923 0.36771 0.72319 0.0
C858 C 0.56557 0.38672 0.76447 0.0
C859 C 0.5765 0.40678 0.74856 0.0
H860 H 0.19719 0.67974 0.38069 0.0
H861 H 0.21798 0.62435 0.51067 0.0
H862 H 0.16375 0.68434 0.45241 0.0
H863 H 0.18473 0.62821 0.57984 0.0
H864 H 0.12005 0.61973 0.66232 0.0
H865 H 0.15494 0.64012 0.64635 0.0
H866 H 0.13274 0.66126 0.44187 0.0
H867 H 0.09737 0.64256 0.46056 0.0
C868 C 0.19505 0.66911 0.42609 0.0
C869 C 0.20981 0.65119 0.4385 0.0
C870 C 0.17579 0.6716 0.46694 0.0
C871 C 0.17084 0.65594 0.51989 0.0
C872 C 0.18759 0.64053 0.53927 0.0
C873 C 0.20691 0.63826 0.49915 0.0
C874 C 0.12223 0.62954 0.61523 0.0
C875 C 0.10626 0.62878 0.56145 0.0
C876 C 0.1424 0.64109 0.60572 0.0
C877 C 0.14722 0.65164 0.54167 0.0
C878 C 0.12998 0.65326 0.49185 0.0
C879 C 0.1097 0.6421 0.50191 0.0
H880 H 0.11605 0.8141 0.91188 0.0
H881 H 0.17456 0.83365 0.02871 0.0
H882 H 0.12012 0.84647 0.83824 0.0
H883 H 0.17957 0.86594 0.95187 0.0
H884 H 0.11388 0.91054 0.74768 0.0
H885 H 0.13194 0.87451 0.76554 0.0
H886 H 0.1595 0.8986 0.95993 0.0
H887 H 0.14327 0.93497 0.93852 0.0
C888 C 0.13061 0.82467 0.91937 0.0
C889 C 0.14457 0.82174 0.97751 0.0
C890 C 0.13302 0.84346 0.87667 0.0
C891 C 0.14964 0.85959 0.89076 0.0
C892 C 0.16594 0.85446 0.94142 0.0
C893 C 0.16325 0.83583 0.98511 0.0
C894 C 0.1246 0.90845 0.7927 0.0
C895 C 0.12638 0.92539 0.8432 0.0
C896 C 0.13478 0.88761 0.80345 0.0
C897 C 0.14643 0.88311 0.86573 0.0
C898 C 0.15056 0.90106 0.91151 0.0
C899 C 0.14081 0.92197 0.89998 0.0
H900 H 0.72433 0.06632 0.81691 0.0
H901 H 0.67982 0.01316 0.75476 0.0
H902 H 0.70304 0.09295 0.74607 0.0
H903 H 0.65856 0.03928 0.68444 0.0
H904 H 0.62896 0.11694 0.80732 0.0
H905 H 0.66728 0.10511 0.78966 0.0
H906 H 0.64752 0.06866 0.60574 0.0
H907 H 0.60886 0.07898 0.62638 0.0
C908 C 0.71071 0.06015 0.78498 0.0
C909 C 0.70329 0.03793 0.79198 0.0
C910 C 0.69846 0.07539 0.7447 0.0
C911 C 0.67864 0.0685 0.7114 0.0
C912 C 0.67361 0.0454 0.7095 0.0
C913 C 0.68572 0.03029 0.75014 0.0
C914 C 0.63284 0.10697 0.7618 0.0
C915 C 0.6156 0.09767 0.72134 0.0
C916 C 0.655 0.1004 0.75087 0.0
C917 C 0.66017 0.08472 0.69858 0.0
C918 C 0.64376 0.07987 0.64847 0.0
C919 C 0.62151 0.08601 0.66025 0.0
H920 H 0.35674 0.69838 0.04047 0.0
H921 H 0.40638 0.71547 0.88582 0.0
H922 H 0.34996 0.6628 0.98185 0.0
H923 H 0.40101 0.67981 0.83014 0.0
H924 H 0.38954 0.59575 0.97964 0.0
H925 H 0.37168 0.63169 0.99226 0.0
H926 H 0.38841 0.64802 0.77848 0.0
H927 H 0.40838 0.61277 0.7686 0.0
C928 C 0.36559 0.69483 0.99243 0.0
C929 C 0.38243 0.70938 0.96849 0.0
C930 C 0.36198 0.67431 0.95924 0.0
C931 C 0.37572 0.66771 0.90315 0.0
C932 C 0.39011 0.68387 0.87335 0.0
C933 C 0.39329 0.70456 0.90549 0.0
C934 C 0.38926 0.60692 0.93504 0.0
C935 C 0.40142 0.60181 0.87446 0.0
C936 C 0.37854 0.62757 0.94172 0.0
C937 C 0.37931 0.64345 0.88725 0.0
C938 C 0.38832 0.63672 0.82273 0.0
C939 C 0.39956 0.61625 0.81667 0.0
H940 H 0.82986 0.35494 0.02508 0.0
H941 H 0.81576 0.40761 0.87721 0.0
H942 H 0.86574 0.34806 0.9681 0.0
H943 H 0.85171 0.40201 0.82318 0.0
H944 H 0.93388 0.38591 0.97654 0.0
H945 H 0.89721 0.3692 0.98469 0.0
H946 H 0.88351 0.38881 0.77161 0.0
H947 H 0.91955 0.40754 0.76619 0.0
C948 C 0.8341 0.36443 0.97866 0.0
C949 C 0.82034 0.38213 0.95643 0.0
C950 C 0.8548 0.36075 0.94649 0.0
C951 C 0.86231 0.3752 0.8931 0.0
C952 C 0.8469 0.39055 0.86436 0.0
C953 C 0.82605 0.39385 0.89551 0.0
C954 C 0.92313 0.3865 0.93113 0.0
C955 C 0.92929 0.39904 0.87205 0.0
C956 C 0.90207 0.37646 0.9352 0.0
C957 C 0.88678 0.37831 0.87958 0.0
C958 C 0.89439 0.38782 0.81659 0.0
C959 C 0.9153 0.39835 0.81313 0.0
H960 H 0.03432 0.17061 0.06015 0.0
H961 H 0.99188 0.19862 0.90099 0.0
H962 H 0.03848 0.13629 0.99149 0.0
H963 H 0.99665 0.16499 0.83063 0.0
H964 H 0.98345 0.09288 0.76673 0.0
H965 H 0.98368 0.1283 0.82856 0.0
H966 H 0.05182 0.11611 0.89406 0.0
H967 H 0.05123 0.08006 0.83381 0.0
C968 C 0.02656 0.16972 1.00924 0.0
C969 C 0.01297 0.18741 0.98564 0.0
C970 C 0.02884 0.14998 0.96973 0.0
C971 C 0.01763 0.14744 0.90542 0.0
C972 C 1.0051 0.16583 0.88044 0.0
C973 C 1.00263 0.18536 0.92022 0.0
C974 C 0.99856 0.09772 0.79398 0.0
C975 C 0.01733 0.08344 0.79489 0.0
C976 C 0.99878 0.11828 0.8293 0.0
C977 C 0.01785 0.12549 0.86641 0.0
C978 C 0.0367 0.11123 0.86695 0.0
C979 C 0.03642 0.09052 0.83189 0.0
H980 H 0.33886 0.9746 0.90188 0.0
H981 H 0.35488 0.03177 0.02892 0.0
H982 H 0.37155 0.98181 0.82933 0.0
H983 H 0.38755 0.03961 0.95502 0.0
H984 H 0.45981 0.02443 0.88031 0.0
H985 H 0.42366 0.02385 0.9387 0.0
H986 H 0.39206 1.0029 0.74726 0.0
H987 H 0.42849 1.00285 0.68926 0.0
C988 C 0.34894 0.98932 0.91249 0.0
C989 C 0.34411 1.00274 0.97076 0.0
C990 C 0.36783 0.99346 0.87088 0.0
C991 C 0.38262 0.01117 0.8863 0.0
C992 C 0.3769 0.02554 0.94199 0.0
C993 C 0.3579 0.02136 0.98373 0.0
C994 C 0.44517 0.01982 0.85028 0.0
C995 C 0.44728 0.01354 0.77984 0.0
C996 C 0.42426 0.01969 0.88386 0.0
C997 C 0.40464 0.01333 0.8482 0.0
C998 C 0.40669 1.0076 0.77714 0.0
C999 C 0.42766 1.00766 0.74357 0.0
H1000 H 0.54265 0.36312 0.06449 0.0
H1001 H 0.47995 0.34383 0.97145 0.0
H1002 H 0.54561 0.39466 0.98365 0.0
H1003 H 0.48281 0.37564 0.88978 0.0
H1004 H 0.50515 0.43197 0.7288 0.0
H1005 H 0.50446 0.39593 0.79178 0.0
H1006 H 0.5234 0.42986 0.98084 0.0
H1007 H 0.52335 0.4656 0.91927 0.0
C1008 C 0.52986 0.3652 0.025 0.0
C1009 C 0.51118 0.35081 0.02402 0.0
C1010 C 0.53138 0.38348 0.9792 0.0
C1011 C 0.51424 0.38805 0.93094 0.0
C1012 C 0.49634 0.37267 0.92618 0.0
C1013 C 0.49476 0.35431 0.97258 0.0
C1014 C 0.50917 0.43168 0.78381 0.0
C1015 C 0.51422 0.45178 0.81891 0.0
C1016 C 0.50877 0.41102 0.81986 0.0
C1017 C 0.51421 0.40984 0.89123 0.0
C1018 C 0.51947 0.42996 0.92574 0.0
C1019 C 0.51928 0.45056 0.89041 0.0
H1020 H 0.17704 0.49087 0.05121 0.0
H1021 H 0.18969 0.5515 0.93481 0.0
H1022 H 0.14259 0.48485 0.98396 0.0
H1023 H 0.15537 0.54584 0.86876 0.0
H1024 H 0.06889 0.50018 0.91853 0.0
H1025 H 0.10539 0.50126 0.97536 0.0
H1026 H 0.13561 0.52416 0.78344 0.0
H1027 H 0.09902 0.52339 0.72679 0.0
C1028 C 0.17273 0.50265 0.01031 0.0
C1029 C 0.18618 0.52167 0.99854 0.0
C1030 C 0.1528 0.4994 0.97229 0.0
C1031 C 0.1459 0.51495 0.92095 0.0
C1032 C 0.16002 0.53335 0.90715 0.0
C1033 C 0.17976 0.53667 0.94537 0.0
C1034 C 0.08331 0.50536 0.88813 0.0
C1035 C 0.0808 0.51182 0.81784 0.0
C1036 C 0.10437 0.5058 0.92079 0.0
C1037 C 0.12367 0.51282 0.88439 0.0
C1038 C 0.12121 0.51891 0.81371 0.0
C1039 C 0.10015 0.51837 0.78093 0.0
H1040 H 0.98914 0.85492 0.3909 0.0
H1041 H 0.05257 0.84556 0.49406 0.0
H1042 H 0.98327 0.88966 0.4567 0.0
H1043 H 0.04707 0.88022 0.55839 0.0
H1044 H 0.02609 0.93707 0.70011 0.0
H1045 H 0.02687 0.89998 0.64668 0.0
H1046 H 0.9981 0.92748 0.45867 0.0
H1047 H 0.99696 0.96442 0.51239 0.0
C1048 C 1.00161 0.86002 0.42858 0.0
C1049 C 0.02134 0.84741 0.43696 0.0
C1050 C 0.99843 0.88012 0.46574 0.0
C1051 C 0.01478 0.88805 0.51279 0.0
C1052 C 0.03397 0.87477 0.52338 0.0
C1053 C 0.03719 0.85485 0.48606 0.0
C1054 C 0.01974 0.93523 0.64752 0.0
C1055 C 0.01152 0.95395 0.61076 0.0
C1056 C 0.0203 0.91388 0.61662 0.0
C1057 C 0.0126 0.91052 0.54794 0.0
C1058 C 1.00392 0.92917 0.51182 0.0
C1059 C 1.00342 0.95052 0.54261 0.0
H1060 H 0.66919 0.04028 0.37619 0.0
H1061 H 0.68551 0.9732 0.44326 0.0
H1062 H 0.63599 0.03991 0.45021 0.0
H1063 H 0.65223 0.97283 0.51845 0.0
H1064 H 0.57509 0.97105 0.56384 0.0
H1065 H 0.61133 0.97125 0.50449 0.0
H1066 H 0.62176 0.03976 0.568 0.0
H1067 H 0.58559 0.03967 0.62703 0.0
C1068 C 0.66587 0.02554 0.40771 0.0
C1069 C 0.68008 1.00676 0.40358 0.0
C1070 C 0.64681 0.02535 0.45055 0.0
C1071 C 0.64117 1.00628 0.49029 0.0
C1072 C 0.65581 0.98773 0.48802 0.0
C1073 C 0.67508 0.98802 0.44557 0.0
C1074 C 0.58515 0.98612 0.56565 0.0
C1075 C 0.57719 1.00536 0.60011 0.0
C1076 C 0.60609 0.9862 0.53189 0.0
C1077 C 0.61963 1.00556 0.53109 0.0
C1078 C 0.61181 0.02463 0.56674 0.0
C1079 C 0.591 0.02451 0.60089 0.0
H1080 H 0.49399 0.69589 0.52226 0.0
H1081 H 0.52541 0.66304 0.34843 0.0
H1082 H 0.50199 0.66341 0.59635 0.0
H1083 H 0.53295 0.63022 0.42115 0.0
H1084 H 0.55176 0.57567 0.57589 0.0
H1085 H 0.55122 0.61165 0.51496 0.0
H1086 H 0.48717 0.62676 0.60851 0.0
H1087 H 0.48802 0.59114 0.67062 0.0
C1088 C 0.50341 0.68203 0.50069 0.0
C1089 C 0.50961 0.68226 0.43005 0.0
C1090 C 0.5076 0.66315 0.54269 0.0
C1091 C 0.51784 0.64383 0.5149 0.0
C1092 C 0.52525 0.64471 0.44509 0.0
C1093 C 0.52111 0.66364 0.40326 0.0
C1094 C 0.53763 0.58673 0.58395 0.0
C1095 C 0.51991 0.58032 0.62835 0.0
C1096 C 0.53726 0.60741 0.54858 0.0
C1097 C 0.51916 0.62237 0.55639 0.0
C1098 C 0.50164 0.61605 0.60176 0.0
C1099 C 0.50203 0.59541 0.63718 0.0
H1100 H 0.85449 0.52996 0.39835 0.0
H1101 H 0.84619 0.46768 0.50956 0.0
H1102 H 0.88653 0.53931 0.47267 0.0
H1103 H 0.87856 0.47604 0.58063 0.0
H1104 H 0.93465 0.49588 0.72017 0.0
H1105 H 0.898 0.49406 0.66515 0.0
H1106 H 0.92396 0.53039 0.48717 0.0
H1107 H 0.96017 0.53331 0.54456 0.0
C1108 C 0.85912 0.51857 0.43996 0.0
C1109 C 0.84771 0.49812 0.44812 0.0
C1110 C 0.87785 0.52365 0.48184 0.0
C1111 C 0.88576 0.50832 0.53261 0.0
C1112 C 0.87323 0.48857 0.54331 0.0
C1113 C 0.85451 0.48366 0.50218 0.0
C1114 C 0.93248 0.50365 0.66953 0.0
C1115 C 0.95051 0.51465 0.63687 0.0
C1116 C 0.91137 0.50249 0.6374 0.0
C1117 C 0.90766 0.51184 0.57065 0.0
C1118 C 0.9257 0.52325 0.53877 0.0
C1119 C 0.94669 0.52478 0.57159 0.0
loop_
_geom_bond_atom_site_label_1
_geom_bond_atom_site_label_2
_geom_bond_distance
_geom_bond_site_symmetry_2
_ccdc_geom_bond_type
C0 C1 1.391 . S
C0 C4 1.391 . S
C0 H42 0.948 . S
C1 C0 1.391 . S
C1 C2 1.391 . S
C2 C1 1.391 . S
C2 H58 0.947 . S
C2 C59 1.392 . S
C3 C4 1.391 . S
C3 C7 1.397 . S
C3 C59 1.419 . S
C4 C0 1.391 . S
C4 C3 1.391 . S
C4 C5 1.399 . S
C5 C4 1.399 . S
C5 C8 1.396 . S
C5 C17 1.453 . S
C5 C18 1.684 . S
H6 C30 0.948 . S
C7 C3 1.397 . S
C7 C8 1.394 . S
C7 C26 1.723 . S
C8 C5 1.396 . S
C8 C7 1.394 . S
C8 C38 1.723 . S
H9 C32 0.947 . S
H10 C33 0.948 . S
H11 C39 0.982 . S
H12 C40 0.979 . S
H13 C40 0.980 . S
H14 C40 0.983 . S
H15 C39 0.979 . S
H16 C39 0.977 . S
C17 C5 1.453 . S
C17 H46 0.982 . S
C17 H47 0.979 . S
C17 H48 0.977 . S
C18 C5 1.684 . S
C18 H43 0.979 . S
C18 H44 0.980 . S
C18 H45 0.983 . S
C19 C20 1.391 . S
C19 C24 1.391 . S
C19 H49 0.948 . S
C20 C19 1.391 . S
C20 C21 1.391 . S
C21 C20 1.391 . S
C21 C22 1.392 . S
C21 H50 0.947 . S
C22 C21 1.392 . S
C22 C23 1.419 . S
C22 H51 0.948 . S
C23 C22 1.419 . S
C23 C24 1.391 . S
C23 C27 1.397 . S
C24 C19 1.391 . S
C24 C23 1.391 . S
C24 C25 1.399 . S
C25 C24 1.399 . S
C25 C26 1.396 . S
C25 C28 1.453 . S
C25 C29 1.684 . S
C26 C7 1.723 . S
C26 C25 1.396 . S
C26 C27 1.394 . S
C27 C23 1.397 . S
C27 C26 1.394 . S
C27 C37 1.723 . S
C28 C25 1.453 . S
C28 H52 0.982 . S
C28 H53 0.979 . S
C28 H54 0.977 . S
C29 C25 1.684 . S
C29 H55 0.979 . S
C29 H56 0.980 . S
C29 H57 0.983 . S
C30 H6 0.948 . S
C30 C31 1.391 . S
C30 C35 1.391 . S
C31 C30 1.391 . S
C31 C32 1.391 . S
C32 H9 0.947 . S
C32 C31 1.391 . S
C32 C33 1.392 . S
C33 H10 0.948 . S
C33 C32 1.392 . S
C33 C34 1.419 . S
C34 C33 1.419 . S
C34 C35 1.391 . S
C34 C38 1.397 . S
C35 C30 1.391 . S
C35 C34 1.391 . S
C35 C36 1.399 . S
C36 C35 1.399 . S
C36 C37 1.396 . S
C36 C39 1.453 . S
C36 C40 1.684 . S
C37 C27 1.723 . S
C37 C36 1.396 . S
C37 C38 1.394 . S
C38 C8 1.723 . S
C38 C34 1.397 . S
C38 C37 1.394 . S
C39 H11 0.982 . S
C39 H15 0.979 . S
C39 H16 0.977 . S
C39 C36 1.453 . S
C40 H12 0.979 . S
C40 H13 0.980 . S
C40 H14 0.983 . S
C40 C36 1.684 . S
H41 C59 0.948 . S
H42 C0 0.948 . S
H43 C18 0.979 . S
H44 C18 0.980 . S
H45 C18 0.983 . S
H46 C17 0.982 . S
H47 C17 0.979 . S
H48 C17 0.977 . S
H49 C19 0.948 . S
H50 C21 0.947 . S
H51 C22 0.948 . S
H52 C28 0.982 . S
H53 C28 0.979 . S
H54 C28 0.977 . S
H55 C29 0.979 . S
H56 C29 0.980 . S
H57 C29 0.983 . S
H58 C2 0.947 . S
C59 C2 1.392 . S
C59 C3 1.419 . S
C59 H41 0.948 . S
C60 C61 1.391 . S
C60 C64 1.391 . S
C60 H102 0.948 . S
C61 C60 1.391 . S
C61 C62 1.391 . S
C62 C61 1.391 . S
C62 H118 0.947 . S
C62 C119 1.392 . S
C63 C64 1.391 . S
C63 C67 1.397 1_655 S
C63 C119 1.419 . S
C64 C60 1.391 . S
C64 C63 1.391 . S
C64 C65 1.399 . S
C65 C64 1.399 . S
C65 C68 1.396 1_655 S
C65 C77 1.453 1_655 S
C65 C78 1.684 . S
H66 C90 0.948 . S
C67 C63 1.397 1_455 S
C67 C68 1.394 . S
C67 C86 1.723 . S
C68 C65 1.396 1_455 S
C68 C67 1.394 . S
C68 C98 1.723 . S
H69 C92 0.947 . S
H70 C93 0.948 . S
H71 C99 0.982 . S
H72 C100 0.979 . S
H73 C100 0.980 . S
H74 C100 0.983 . S
H75 C99 0.979 . S
H76 C99 0.977 . S
C77 C65 1.453 1_455 S
C77 H106 0.982 . S
C77 H107 0.979 . S
C77 H108 0.977 . S
C78 C65 1.684 . S
C78 H103 0.979 . S
C78 H104 0.980 . S
C78 H105 0.983 . S
C79 C80 1.391 . S
C79 C84 1.391 . S
C79 H109 0.948 . S
C80 C79 1.391 . S
C80 C81 1.391 . S
C81 C80 1.391 . S
C81 C82 1.392 . S
C81 H110 0.947 . S
C82 C81 1.392 . S
C82 C83 1.419 . S
C82 H111 0.948 . S
C83 C82 1.419 . S
C83 C84 1.391 . S
C83 C87 1.397 1_655 S
C84 C79 1.391 . S
C84 C83 1.391 . S
C84 C85 1.399 . S
C85 C84 1.399 . S
C85 C86 1.396 1_655 S
C85 C88 1.453 1_655 S
C85 C89 1.684 . S
C86 C67 1.723 . S
C86 C85 1.396 1_455 S
C86 C87 1.394 . S
C87 C83 1.397 1_455 S
C87 C86 1.394 . S
C87 C97 1.723 . S
C88 C85 1.453 1_455 S
C88 H112 0.982 . S
C88 H113 0.979 . S
C88 H114 0.977 . S
C89 C85 1.684 . S
C89 H115 0.979 . S
C89 H116 0.980 . S
C89 H117 0.983 . S
C90 H66 0.948 . S
C90 C91 1.391 . S
C90 C95 1.391 . S
C91 C90 1.391 . S
C91 C92 1.391 . S
C92 H69 0.947 . S
C92 C91 1.391 . S
C92 C93 1.392 . S
C93 H70 0.948 . S
C93 C92 1.392 . S
C93 C94 1.419 . S
C94 C93 1.419 . S
C94 C95 1.391 . S
C94 C98 1.397 1_655 S
C95 C90 1.391 . S
C95 C94 1.391 . S
C95 C96 1.399 . S
C96 C95 1.399 . S
C96 C97 1.396 1_655 S
C96 C99 1.453 1_655 S
C96 C100 1.684 . S
C97 C87 1.723 . S
C97 C96 1.396 1_455 S
C97 C98 1.394 . S
C98 C68 1.723 . S
C98 C94 1.397 1_455 S
C98 C97 1.394 . S
C99 H71 0.982 . S
C99 H75 0.979 . S
C99 H76 0.977 . S
C99 C96 1.453 1_455 S
C100 H72 0.979 . S
C100 H73 0.980 . S
C100 H74 0.983 . S
C100 C96 1.684 . S
H101 C119 0.948 . S
H102 C60 0.948 . S
H103 C78 0.979 . S
H104 C78 0.980 . S
H105 C78 0.983 . S
H106 C77 0.982 . S
H107 C77 0.979 . S
H108 C77 0.977 . S
H109 C79 0.948 . S
H110 C81 0.947 . S
H111 C82 0.948 . S
H112 C88 0.982 . S
H113 C88 0.979 . S
H114 C88 0.977 . S
H115 C89 0.979 . S
H116 C89 0.980 . S
H117 C89 0.983 . S
H118 C62 0.947 . S
C119 C62 1.392 . S
C119 C63 1.419 . S
C119 H101 0.948 . S
C120 C121 1.391 . S
C120 C124 1.391 . S
C120 H162 0.948 . S
C121 C120 1.391 . S
C121 C122 1.391 . S
C122 C121 1.391 . S
C122 H178 0.947 . S
C122 C179 1.392 . S
C123 C124 1.391 . S
C123 C127 1.397 1_565 S
C123 C179 1.419 . S
C124 C120 1.391 . S
C124 C123 1.391 . S
C124 C125 1.399 . S
C125 C124 1.399 . S
C125 C128 1.396 1_565 S
C125 C137 1.453 1_565 S
C125 C138 1.684 . S
H126 C150 0.948 . S
C127 C123 1.397 1_545 S
C127 C128 1.394 . S
C127 C146 1.723 . S
C128 C125 1.396 1_545 S
C128 C127 1.394 . S
C128 C158 1.723 . S
H129 C152 0.947 . S
H130 C153 0.948 . S
H131 C159 0.982 . S
H132 C160 0.979 . S
H133 C160 0.980 . S
H134 C160 0.983 . S
H135 C159 0.979 . S
H136 C159 0.977 . S
C137 C125 1.453 1_545 S
C137 H166 0.982 . S
C137 H167 0.979 . S
C137 H168 0.977 . S
C138 C125 1.684 . S
C138 H163 0.979 . S
C138 H164 0.980 . S
C138 H165 0.983 . S
C139 C140 1.391 . S
C139 C144 1.391 . S
C139 H169 0.948 . S
C140 C139 1.391 . S
C140 C141 1.391 . S
C141 C140 1.391 . S
C141 C142 1.392 . S
C141 H170 0.947 . S
C142 C141 1.392 . S
C142 C143 1.419 . S
C142 H171 0.948 . S
C143 C142 1.419 . S
C143 C144 1.391 . S
C143 C147 1.397 1_565 S
C144 C139 1.391 . S
C144 C143 1.391 . S
C144 C145 1.399 . S
C145 C144 1.399 . S
C145 C146 1.396 1_565 S
C145 C148 1.453 1_565 S
C145 C149 1.684 . S
C146 C127 1.723 . S
C146 C145 1.396 1_545 S
C146 C147 1.394 . S
C147 C143 1.397 1_545 S
C147 C146 1.394 . S
C147 C157 1.723 . S
C148 C145 1.453 1_545 S
C148 H172 0.982 . S
C148 H173 0.979 . S
C148 H174 0.977 . S
C149 C145 1.684 . S
C149 H175 0.979 . S
C149 H176 0.980 . S
C149 H177 0.983 . S
C150 H126 0.948 . S
C150 C151 1.391 . S
C150 C155 1.391 . S
C151 C150 1.391 . S
C151 C152 1.391 . S
C152 H129 0.947 . S
C152 C151 1.391 . S
C152 C153 1.392 . S
C153 H130 0.948 . S
C153 C152 1.392 . S
C153 C154 1.419 . S
C154 C153 1.419 . S
C154 C155 1.391 . S
C154 C158 1.397 1_565 S
C155 C150 1.391 . S
C155 C154 1.391 . S
C155 C156 1.399 . S
C156 C155 1.399 . S
C156 C157 1.396 1_565 S
C156 C159 1.453 1_565 S
C156 C160 1.684 . S
C157 C147 1.723 . S
C157 C156 1.396 1_545 S
C157 C158 1.394 . S
C158 C128 1.723 . S
C158 C154 1.397 1_545 S
C158 C157 1.394 . S
C159 H131 0.982 . S
C159 H135 0.979 . S
C159 H136 0.977 . S
C159 C156 1.453 1_545 S
C160 H132 0.979 . S
C160 H133 0.980 . S
C160 H134 0.983 . S
C160 C156 1.684 . S
H161 C179 0.948 . S
H162 C120 0.948 . S
H163 C138 0.979 . S
H164 C138 0.980 . S
H165 C138 0.983 . S
H166 C137 0.982 . S
H167 C137 0.979 . S
H168 C137 0.977 . S
H169 C139 0.948 . S
H170 C141 0.947 . S
H171 C142 0.948 . S
H172 C148 0.982 . S
H173 C148 0.979 . S
H174 C148 0.977 . S
H175 C149 0.979 . S
H176 C149 0.980 . S
H177 C149 0.983 . S
H178 C122 0.947 . S
C179 C122 1.392 . S
C179 C123 1.419 . S
C179 H161 0.948 . S
C180 C181 1.391 . S
C180 C184 1.391 . S
C180 H222 0.948 . S
C181 C180 1.391 . S
C181 C182 1.391 . S
C182 C181 1.391 . S
C182 H238 0.947 . S
C182 C239 1.392 . S
C183 C184 1.391 . S
C183 C187 1.397 . S
C183 C239 1.419 . S
C184 C180 1.391 . S
C184 C183 1.391 . S
C184 C185 1.399 . S
C185 C184 1.399 . S
C185 C188 1.396 . S
C185 C197 1.453 . S
C185 C198 1.684 . S
H186 C210 0.948 . S
C187 C183 1.397 . S
C187 C188 1.394 . S
C187 C206 1.723 . S
C188 C185 1.396 . S
C188 C187 1.394 . S
C188 C218 1.723 . S
H189 C212 0.947 . S
H190 C213 0.948 . S
H191 C219 0.982 . S
H192 C220 0.979 . S
H193 C220 0.980 . S
H194 C220 0.983 . S
H195 C219 0.979 . S
H196 C219 0.977 . S
C197 C185 1.453 . S
C197 H226 0.982 . S
C197 H227 0.979 . S
C197 H228 0.977 . S
C198 C185 1.684 . S
C198 H223 0.979 . S
C198 H224 0.980 . S
C198 H225 0.983 . S
C199 C200 1.391 . S
C199 C204 1.391 . S
C199 H229 0.948 . S
C200 C199 1.391 . S
C200 C201 1.391 . S
C201 C200 1.391 . S
C201 C202 1.392 . S
C201 H230 0.947 . S
C202 C201 1.392 . S
C202 C203 1.419 . S
C202 H231 0.948 . S
C203 C202 1.419 . S
C203 C204 1.391 . S
C203 C207 1.397 . S
C204 C199 1.391 . S
C204 C203 1.391 . S
C204 C205 1.399 . S
C205 C204 1.399 . S
C205 C206 1.396 . S
C205 C208 1.453 . S
C205 C209 1.684 . S
C206 C187 1.723 . S
C206 C205 1.396 . S
C206 C207 1.394 . S
C207 C203 1.397 . S
C207 C206 1.394 . S
C207 C217 1.723 . S
C208 C205 1.453 . S
C208 H232 0.982 . S
C208 H233 0.979 . S
C208 H234 0.977 . S
C209 C205 1.684 . S
C209 H235 0.979 . S
C209 H236 0.980 . S
C209 H237 0.983 . S
C210 H186 0.948 . S
C210 C211 1.391 . S
C210 C215 1.391 . S
C211 C210 1.391 . S
C211 C212 1.391 . S
C212 H189 0.947 . S
C212 C211 1.391 . S
C212 C213 1.392 . S
C213 H190 0.948 . S
C213 C212 1.392 . S
C213 C214 1.419 . S
C214 C213 1.419 . S
C214 C215 1.391 . S
C214 C218 1.397 . S
C215 C210 1.391 . S
C215 C214 1.391 . S
C215 C216 1.399 . S
C216 C215 1.399 . S
C216 C217 1.396 . S
C216 C219 1.453 . S
C216 C220 1.684 . S
C217 C207 1.723 . S
C217 C216 1.396 . S
C217 C218 1.394 . S
C218 C188 1.723 . S
C218 C214 1.397 . S
C218 C217 1.394 . S
C219 H191 0.982 . S
C219 H195 0.979 . S
C219 H196 0.977 . S
C219 C216 1.453 . S
C220 H192 0.979 . S
C220 H193 0.980 . S
C220 H194 0.983 . S
C220 C216 1.684 . S
H221 C239 0.948 . S
H222 C180 0.948 . S
H223 C198 0.979 . S
H224 C198 0.980 . S
H225 C198 0.983 . S
H226 C197 0.982 . S
H227 C197 0.979 . S
H228 C197 0.977 . S
H229 C199 0.948 . S
H230 C201 0.947 . S
H231 C202 0.948 . S
H232 C208 0.982 . S
H233 C208 0.979 . S
H234 C208 0.977 . S
H235 C209 0.979 . S
H236 C209 0.980 . S
H237 C209 0.983 . S
H238 C182 0.947 . S
C239 C182 1.392 . S
C239 C183 1.419 . S
C239 H221 0.948 . S
C240 C241 1.391 . S
C240 C244 1.391 . S
C240 H282 0.948 . S
C241 C240 1.391 . S
C241 C242 1.391 . S
C242 C241 1.391 . S
C242 H298 0.947 . S
C242 C299 1.392 . S
C243 C244 1.391 . S
C243 C247 1.397 . S
C243 C299 1.419 . S
C244 C240 1.391 . S
C244 C243 1.391 . S
C244 C245 1.399 1_554 S
C245 C244 1.399 1_556 S
C245 C248 1.396 1_556 S
C245 C257 1.453 . S
C245 C258 1.684 . S
H246 C270 0.948 . S
C247 C243 1.397 . S
C247 C248 1.394 . S
C247 C266 1.723 . S
C248 C245 1.396 1_554 S
C248 C247 1.394 . S
C248 C278 1.723 1_554 S
H249 C272 0.947 . S
H250 C273 0.948 . S
H251 C279 0.982 . S
H252 C280 0.979 . S
H253 C280 0.980 1_554 S
H254 C280 0.983 . S
H255 C279 0.979 . S
H256 C279 0.977 1_554 S
C257 C245 1.453 . S
C257 H286 0.982 . S
C257 H287 0.979 . S
C257 H288 0.977 . S
C258 C245 1.684 . S
C258 H283 0.979 . S
C258 H284 0.980 . S
C258 H285 0.983 . S
C259 C260 1.391 . S
C259 C264 1.391 . S
C259 H289 0.948 . S
C260 C259 1.391 . S
C260 C261 1.391 . S
C261 C260 1.391 . S
C261 C262 1.392 . S
C261 H290 0.947 . S
C262 C261 1.392 . S
C262 C263 1.419 . S
C262 H291 0.948 . S
C263 C262 1.419 . S
C263 C264 1.391 . S
C263 C267 1.397 . S
C264 C259 1.391 . S
C264 C263 1.391 . S
C264 C265 1.399 . S
C265 C264 1.399 . S
C265 C266 1.396 . S
C265 C268 1.453 . S
C265 C269 1.684 . S
C266 C247 1.723 . S
C266 C265 1.396 . S
C266 C267 1.394 . S
C267 C263 1.397 . S
C267 C266 1.394 . S
C267 C277 1.723 . S
C268 C265 1.453 . S
C268 H292 0.982 . S
C268 H293 0.979 . S
C268 H294 0.977 . S
C269 C265 1.684 . S
C269 H295 0.979 . S
C269 H296 0.980 . S
C269 H297 0.983 . S
C270 H246 0.948 . S
C270 C271 1.391 . S
C270 C275 1.391 . S
C271 C270 1.391 . S
C271 C272 1.391 . S
C272 H249 0.947 . S
C272 C271 1.391 . S
C272 C273 1.392 . S
C273 H250 0.948 . S
C273 C272 1.392 . S
C273 C274 1.419 . S
C274 C273 1.419 . S
C274 C275 1.391 . S
C274 C278 1.397 . S
C275 C270 1.391 . S
C275 C274 1.391 . S
C275 C276 1.399 . S
C276 C275 1.399 . S
C276 C277 1.396 1_556 S
C276 C279 1.453 . S
C276 C280 1.684 . S
C277 C267 1.723 . S
C277 C276 1.396 1_554 S
C277 C278 1.394 1_554 S
C278 C248 1.723 1_556 S
C278 C274 1.397 . S
C278 C277 1.394 1_556 S
C279 H251 0.982 . S
C279 H255 0.979 . S
C279 H256 0.977 1_556 S
C279 C276 1.453 . S
C280 H252 0.979 . S
C280 H253 0.980 1_556 S
C280 H254 0.983 . S
C280 C276 1.684 . S
H281 C299 0.948 . S
H282 C240 0.948 . S
H283 C258 0.979 . S
H284 C258 0.980 . S
H285 C258 0.983 . S
H286 C257 0.982 . S
H287 C257 0.979 . S
H288 C257 0.977 . S
H289 C259 0.948 . S
H290 C261 0.947 . S
H291 C262 0.948 . S
H292 C268 0.982 . S
H293 C268 0.979 . S
H294 C268 0.977 . S
H295 C269 0.979 . S
H296 C269 0.980 . S
H297 C269 0.983 . S
H298 C242 0.947 . S
C299 C242 1.392 . S
C299 C243 1.419 . S
C299 H281 0.948 . S
C300 C301 1.391 . S
C300 C304 1.391 . S
C300 H342 0.948 . S
C301 C300 1.391 . S
C301 C302 1.391 . S
C302 C301 1.391 . S
C302 H358 0.947 . S
C302 C359 1.392 . S
C303 C304 1.391 . S
C303 C307 1.396 1_655 S
C303 C359 1.419 . S
C304 C300 1.391 . S
C304 C303 1.391 . S
C304 C305 1.399 . S
C305 C304 1.399 . S
C305 C308 1.396 1_655 S
C305 C317 1.453 1_655 S
C305 C318 1.684 . S
H306 C330 0.948 . S
C307 C303 1.396 1_455 S
C307 C308 1.395 . S
C307 C326 1.723 . S
C308 C305 1.396 1_455 S
C308 C307 1.395 . S
C308 C338 1.723 . S
H309 C332 0.947 . S
H310 C333 0.948 . S
H311 C339 0.982 . S
H312 C340 0.979 . S
H313 C340 0.980 . S
H314 C340 0.983 . S
H315 C339 0.979 . S
H316 C339 0.977 . S
C317 C305 1.453 1_455 S
C317 H346 0.982 . S
C317 H347 0.979 . S
C317 H348 0.977 . S
C318 C305 1.684 . S
C318 H343 0.979 . S
C318 H344 0.980 . S
C318 H345 0.983 . S
C319 C320 1.391 . S
C319 C324 1.391 . S
C319 H349 0.948 . S
C320 C319 1.391 . S
C320 C321 1.391 . S
C321 C320 1.391 . S
C321 C322 1.392 . S
C321 H350 0.947 . S
C322 C321 1.392 . S
C322 C323 1.419 . S
C322 H351 0.948 . S
C323 C322 1.419 . S
C323 C324 1.391 . S
C323 C327 1.396 1_655 S
C324 C319 1.391 . S
C324 C323 1.391 . S
C324 C325 1.399 . S
C325 C324 1.399 . S
C325 C326 1.396 1_656 S
C325 C328 1.453 1_655 S
C325 C329 1.684 . S
C326 C307 1.723 . S
C326 C325 1.396 1_454 S
C326 C327 1.395 1_554 S
C327 C323 1.396 1_455 S
C327 C326 1.395 1_556 S
C327 C337 1.723 1_556 S
C328 C325 1.453 1_455 S
C328 H352 0.982 . S
C328 H353 0.979 . S
C328 H354 0.977 1_556 S
C329 C325 1.684 . S
C329 H355 0.979 . S
C329 H356 0.980 1_556 S
C329 H357 0.983 . S
C330 H306 0.948 . S
C330 C331 1.391 . S
C330 C335 1.391 . S
C331 C330 1.391 . S
C331 C332 1.391 . S
C332 H309 0.947 . S
C332 C331 1.391 . S
C332 C333 1.392 . S
C333 H310 0.948 . S
C333 C332 1.392 . S
C333 C334 1.424 . S
C334 C333 1.424 . S
C334 C335 1.398 . S
C334 C338 1.395 1_655 S
C335 C330 1.391 . S
C335 C334 1.398 . S
C335 C336 1.399 1_554 S
C336 C335 1.399 1_556 S
C336 C337 1.396 1_656 S
C336 C339 1.453 1_655 S
C336 C340 1.684 . S
C337 C327 1.723 1_554 S
C337 C336 1.396 1_454 S
C337 C338 1.395 . S
C338 C308 1.723 . S
C338 C334 1.395 1_455 S
C338 C337 1.395 . S
C339 H311 0.982 . S
C339 H315 0.979 . S
C339 H316 0.977 . S
C339 C336 1.453 1_455 S
C340 H312 0.979 . S
C340 H313 0.980 . S
C340 H314 0.983 . S
C340 C336 1.684 . S
H341 C359 0.948 . S
H342 C300 0.948 . S
H343 C318 0.979 . S
H344 C318 0.980 . S
H345 C318 0.983 . S
H346 C317 0.982 . S
H347 C317 0.979 . S
H348 C317 0.977 . S
H349 C319 0.948 . S
H350 C321 0.947 . S
H351 C322 0.948 . S
H352 C328 0.982 . S
H353 C328 0.979 . S
H354 C328 0.977 1_554 S
H355 C329 0.979 . S
H356 C329 0.980 1_554 S
H357 C329 0.983 . S
H358 C302 0.947 . S
C359 C302 1.392 . S
C359 C303 1.419 . S
C359 H341 0.948 . S
C360 C361 1.391 . S
C360 C364 1.391 . S
C360 H402 0.948 . S
C361 C360 1.391 . S
C361 C362 1.391 . S
C362 C361 1.391 . S
C362 H418 0.947 . S
C362 C419 1.392 . S
C363 C364 1.391 . S
C363 C367 1.397 1_545 S
C363 C419 1.419 . S
C364 C360 1.391 . S
C364 C363 1.391 . S
C364 C365 1.399 . S
C365 C364 1.399 . S
C365 C368 1.396 1_545 S
C365 C377 1.453 1_545 S
C365 C378 1.684 . S
H366 C390 0.948 . S
C367 C363 1.397 1_565 S
C367 C368 1.394 . S
C367 C386 1.723 1_556 S
C368 C365 1.396 1_565 S
C368 C367 1.394 . S
C368 C398 1.723 1_556 S
H369 C392 0.947 . S
H370 C393 0.948 1_556 S
H371 C399 0.982 . S
H372 C400 0.979 . S
H373 C400 0.980 . S
H374 C400 0.983 . S
H375 C399 0.979 . S
H376 C399 0.977 . S
C377 C365 1.453 1_565 S
C377 H406 0.982 . S
C377 H407 0.979 . S
C377 H408 0.977 . S
C378 C365 1.684 . S
C378 H403 0.979 . S
C378 H404 0.980 . S
C378 H405 0.983 . S
C379 C380 1.391 . S
C379 C384 1.391 . S
C379 H409 0.948 . S
C380 C379 1.391 . S
C380 C381 1.391 . S
C381 C380 1.391 . S
C381 C382 1.392 . S
C381 H410 0.947 . S
C382 C381 1.392 . S
C382 C383 1.419 . S
C382 H411 0.948 . S
C383 C382 1.419 . S
C383 C384 1.391 . S
C383 C387 1.397 1_545 S
C384 C379 1.391 . S
C384 C383 1.391 . S
C384 C385 1.399 . S
C385 C384 1.399 . S
C385 C386 1.396 1_545 S
C385 C388 1.453 1_545 S
C385 C389 1.684 . S
C386 C367 1.723 1_554 S
C386 C385 1.396 1_565 S
C386 C387 1.394 . S
C387 C383 1.397 1_565 S
C387 C386 1.394 . S
C387 C397 1.723 . S
C388 C385 1.453 1_565 S
C388 H412 0.982 . S
C388 H413 0.979 . S
C388 H414 0.977 . S
C389 C385 1.684 . S
C389 H415 0.979 . S
C389 H416 0.980 1_554 S
C389 H417 0.983 . S
C390 H366 0.948 . S
C390 C391 1.391 . S
C390 C395 1.391 . S
C391 C390 1.391 . S
C391 C392 1.391 . S
C392 H369 0.947 . S
C392 C391 1.391 . S
C392 C393 1.392 . S
C393 H370 0.948 1_554 S
C393 C392 1.392 . S
C393 C394 1.419 . S
C394 C393 1.419 . S
C394 C395 1.391 . S
C394 C398 1.397 1_545 S
C395 C390 1.391 . S
C395 C394 1.391 . S
C395 C396 1.399 . S
C396 C395 1.399 . S
C396 C397 1.396 1_545 S
C396 C399 1.453 1_545 S
C396 C400 1.684 . S
C397 C387 1.723 . S
C397 C396 1.396 1_565 S
C397 C398 1.394 . S
C398 C368 1.723 1_554 S
C398 C394 1.397 1_565 S
C398 C397 1.394 . S
C399 H371 0.982 . S
C399 H375 0.979 . S
C399 H376 0.977 . S
C399 C396 1.453 1_565 S
C400 H372 0.979 . S
C400 H373 0.980 . S
C400 H374 0.983 . S
C400 C396 1.684 . S
H401 C419 0.948 . S
H402 C360 0.948 . S
H403 C378 0.979 . S
H404 C378 0.980 . S
H405 C378 0.983 . S
H406 C377 0.982 . S
H407 C377 0.979 . S
H408 C377 0.977 . S
H409 C379 0.948 . S
H410 C381 0.947 . S
H411 C382 0.948 . S
H412 C388 0.982 . S
H413 C388 0.979 . S
H414 C388 0.977 . S
H415 C389 0.979 . S
H416 C389 0.980 1_556 S
H417 C389 0.983 . S
H418 C362 0.947 . S
C419 C362 1.392 . S
C419 C363 1.419 . S
C419 H401 0.948 . S
C420 C421 1.391 . S
C420 C424 1.391 . S
C420 H462 0.948 . S
C421 C420 1.391 . S
C421 C422 1.391 . S
C422 C421 1.391 . S
C422 H478 0.947 . S
C422 C479 1.392 . S
C423 C424 1.391 . S
C423 C427 1.397 . S
C423 C479 1.419 . S
C424 C420 1.391 . S
C424 C423 1.391 . S
C424 C425 1.399 . S
C425 C424 1.399 . S
C425 C428 1.396 . S
C425 C437 1.453 . S
C425 C438 1.684 . S
H426 C450 0.948 . S
C427 C423 1.397 . S
C427 C428 1.394 . S
C427 C446 1.723 1_556 S
C428 C425 1.396 . S
C428 C427 1.394 . S
C428 C458 1.723 1_556 S
H429 C452 0.953 . S
H430 C453 0.948 1_556 S
H431 C459 0.982 . S
H432 C460 0.979 . S
H433 C460 0.980 . S
H434 C460 0.983 . S
H435 C459 0.979 . S
H436 C459 0.977 . S
C437 C425 1.453 . S
C437 H466 0.982 . S
C437 H467 0.979 . S
C437 H468 0.977 . S
C438 C425 1.684 . S
C438 H463 0.979 . S
C438 H464 0.980 . S
C438 H465 0.983 . S
C439 C440 1.391 . S
C439 C444 1.391 . S
C439 H469 0.948 . S
C440 C439 1.391 . S
C440 C441 1.391 . S
C441 C440 1.391 . S
C441 C442 1.392 . S
C441 H470 0.947 . S
C442 C441 1.392 . S
C442 C443 1.419 . S
C442 H471 0.948 . S
C443 C442 1.419 . S
C443 C444 1.391 . S
C443 C447 1.397 . S
C444 C439 1.391 . S
C444 C443 1.391 . S
C444 C445 1.399 . S
C445 C444 1.399 . S
C445 C446 1.396 . S
C445 C448 1.453 . S
C445 C449 1.684 . S
C446 C427 1.723 1_554 S
C446 C445 1.396 . S
C446 C447 1.394 . S
C447 C443 1.397 . S
C447 C446 1.394 . S
C447 C457 1.723 . S
C448 C445 1.453 . S
C448 H472 0.982 . S
C448 H473 0.979 . S
C448 H474 0.974 1_554 S
C449 C445 1.684 . S
C449 H475 0.979 . S
C449 H476 0.980 1_554 S
C449 H477 0.983 . S
C450 H426 0.948 . S
C450 C451 1.391 . S
C450 C455 1.391 . S
C451 C450 1.391 . S
C451 C452 1.391 . S
C452 H429 0.953 . S
C452 C451 1.391 . S
C452 C453 1.392 . S
C453 H430 0.948 1_554 S
C453 C452 1.392 . S
C453 C454 1.419 . S
C454 C453 1.419 . S
C454 C455 1.391 . S
C454 C458 1.397 . S
C455 C450 1.391 . S
C455 C454 1.391 . S
C455 C456 1.399 . S
C456 C455 1.399 . S
C456 C457 1.396 . S
C456 C459 1.453 . S
C456 C460 1.684 . S
C457 C447 1.723 . S
C457 C456 1.396 . S
C457 C458 1.394 . S
C458 C428 1.723 1_554 S
C458 C454 1.397 . S
C458 C457 1.394 . S
C459 H431 0.982 . S
C459 H435 0.979 . S
C459 H436 0.977 . S
C459 C456 1.453 . S
C460 H432 0.979 . S
C460 H433 0.980 . S
C460 H434 0.983 . S
C460 C456 1.684 . S
H461 C479 0.948 . S
H462 C420 0.948 . S
H463 C438 0.979 . S
H464 C438 0.980 . S
H465 C438 0.983 . S
H466 C437 0.982 . S
H467 C437 0.979 . S
H468 C437 0.977 . S
H469 C439 0.948 . S
H470 C441 0.947 . S
H471 C442 0.948 . S
H472 C448 0.982 . S
H473 C448 0.979 . S
H474 C448 0.974 1_556 S
H475 C449 0.979 . S
H476 C449 0.980 1_556 S
H477 C449 0.983 . S
H478 C422 0.947 . S
C479 C422 1.392 . S
C479 C423 1.419 . S
C479 H461 0.948 . S
Tb480 C490 2.825 . S
Tb480 O491 2.347 1_455 S
Tb480 O494 2.366 . S
Tb480 O499 2.418 . S
Tb480 O500 2.384 1_565 S
Tb480 O503 2.479 . S
Tb480 O504 2.471 . S
Eu481 O492 2.418 . S
Eu481 O493 2.384 1_545 S
Eu481 O496 2.479 . S
Eu481 O497 2.471 . S
Eu481 O498 2.347 1_655 S
Eu481 O501 2.366 . S
Eu481 C511 2.825 . S
C482 O498 1.259 1_565 S
C482 O499 1.265 . S
C483 O500 1.255 . S
C483 O501 1.265 1_455 S
C484 C486 1.380 . S
C484 C487 1.374 . S
C484 C490 1.507 . S
C485 C486 1.384 . S
C485 C489 1.387 . S
C485 H512 0.930 . S
C486 C484 1.380 . S
C486 C485 1.384 . S
C486 H513 0.931 . S
C487 C484 1.374 . S
C487 C488 1.390 . S
C487 H514 0.930 1_455 S
C488 C487 1.390 . S
C488 C489 1.391 . S
C488 H515 0.930 1_455 S
C489 C485 1.387 . S
C489 C488 1.391 . S
C490 Tb480 2.825 . S
C490 C484 1.507 . S
C490 O503 1.238 . S
C490 O504 1.247 . S
O491 Tb480 2.347 1_655 S
O491 C495 1.259 1_565 S
O492 Eu481 2.418 . S
O492 C495 1.265 . S
O493 Eu481 2.384 1_565 S
O493 C502 1.255 . S
O494 Tb480 2.366 . S
O494 C502 1.265 1_455 S
C495 O491 1.259 1_545 S
C495 O492 1.265 . S
O496 Eu481 2.479 . S
O496 C511 1.238 . S
O497 Eu481 2.471 . S
O497 C511 1.247 . S
O498 Eu481 2.347 1_455 S
O498 C482 1.259 1_545 S
O499 Tb480 2.418 . S
O499 C482 1.265 . S
O500 Tb480 2.384 1_545 S
O500 C483 1.255 . S
O501 Eu481 2.366 . S
O501 C483 1.265 1_655 S
C502 O493 1.255 . S
C502 O494 1.265 1_655 S
O503 Tb480 2.479 . S
O503 C490 1.238 . S
O504 Tb480 2.471 . S
O504 C490 1.247 . S
C505 C508 1.380 . S
C505 C509 1.374 . S
C505 C511 1.507 . S
C506 C507 1.387 . S
C506 C510 1.391 . S
C507 C506 1.387 . S
C507 C508 1.384 . S
C507 H516 0.930 . S
C508 C505 1.380 . S
C508 C507 1.384 . S
C508 H517 0.931 . S
C509 C505 1.374 . S
C509 C510 1.390 . S
C509 H518 0.930 1_655 S
C510 C506 1.391 . S
C510 C509 1.390 . S
C510 H519 0.930 1_655 S
C511 Eu481 2.825 . S
C511 O496 1.238 . S
C511 O497 1.247 . S
C511 C505 1.507 . S
H512 C485 0.930 . S
H513 C486 0.931 . S
H514 C487 0.930 1_655 S
H515 C488 0.930 1_655 S
H516 C507 0.930 . S
H517 C508 0.931 . S
H518 C509 0.930 1_455 S
H519 C510 0.930 1_455 S
Tb520 C530 2.825 . S
Tb520 O531 2.347 1_545 S
Tb520 O534 2.366 . S
Tb520 O539 2.418 . S
Tb520 O540 2.384 . S
Tb520 O543 2.479 . S
Tb520 O544 2.471 . S
Eu521 O532 2.418 . S
Eu521 O533 2.384 . S
Eu521 O536 2.479 . S
Eu521 O537 2.471 . S
Eu521 O538 2.347 1_565 S
Eu521 O541 2.366 . S
Eu521 C551 2.825 . S
C522 O538 1.259 . S
C522 O539 1.265 . S
C523 O540 1.255 . S
C523 O541 1.265 1_545 S
C524 C526 1.380 . S
C524 C527 1.374 . S
C524 C530 1.507 . S
C525 C526 1.384 . S
C525 C529 1.387 . S
C525 H552 0.930 . S
C526 C524 1.380 . S
C526 C525 1.384 . S
C526 H553 0.931 . S
C527 C524 1.374 . S
C527 C528 1.390 . S
C527 H554 0.930 1_545 S
C528 C527 1.390 . S
C528 C529 1.391 . S
C528 H555 0.930 1_545 S
C529 C525 1.387 . S
C529 C528 1.391 . S
C530 Tb520 2.825 . S
C530 C524 1.507 . S
C530 O543 1.238 . S
C530 O544 1.247 . S
O531 Tb520 2.347 1_565 S
O531 C535 1.259 . S
O532 Eu521 2.418 . S
O532 C535 1.265 . S
O533 Eu521 2.384 . S
O533 C542 1.255 . S
O534 Tb520 2.366 . S
O534 C542 1.265 1_545 S
C535 O531 1.259 . S
C535 O532 1.265 . S
O536 Eu521 2.479 . S
O536 C551 1.238 . S
O537 Eu521 2.471 . S
O537 C551 1.247 . S
O538 Eu521 2.347 1_545 S
O538 C522 1.259 . S
O539 Tb520 2.418 . S
O539 C522 1.265 . S
O540 Tb520 2.384 . S
O540 C523 1.255 . S
O541 Eu521 2.366 . S
O541 C523 1.265 1_565 S
C542 O533 1.255 . S
C542 O534 1.265 1_565 S
O543 Tb520 2.479 . S
O543 C530 1.238 . S
O544 Tb520 2.471 . S
O544 C530 1.247 . S
C545 C548 1.380 . S
C545 C549 1.374 . S
C545 C551 1.507 . S
C546 C547 1.387 . S
C546 C550 1.391 . S
C547 C546 1.387 . S
C547 C548 1.384 . S
C547 H556 0.930 . S
C548 C545 1.380 . S
C548 C547 1.384 . S
C548 H557 0.931 . S
C549 C545 1.374 . S
C549 C550 1.390 . S
C549 H558 0.930 1_565 S
C550 C546 1.391 . S
C550 C549 1.390 . S
C550 H559 0.930 1_565 S
C551 Eu521 2.825 . S
C551 O536 1.238 . S
C551 O537 1.247 . S
C551 C545 1.507 . S
H552 C525 0.930 . S
H553 C526 0.931 . S
H554 C527 0.930 1_565 S
H555 C528 0.930 1_565 S
H556 C547 0.930 . S
H557 C548 0.931 . S
H558 C549 0.930 1_545 S
H559 C550 0.930 1_545 S
Tb560 C570 2.825 . S
Tb560 O571 2.347 . S
Tb560 O574 2.366 . S
Tb560 O579 2.418 . S
Tb560 O580 2.384 . S
Tb560 O583 2.479 . S
Tb560 O584 2.471 . S
Eu561 O572 2.418 . S
Eu561 O573 2.384 . S
Eu561 O576 2.479 . S
Eu561 O577 2.471 . S
Eu561 O578 2.347 . S
Eu561 O581 2.366 . S
Eu561 C591 2.825 . S
C562 O578 1.259 . S
C562 O579 1.265 . S
C563 O580 1.255 . S
C563 O581 1.265 . S
C564 C566 1.380 . S
C564 C567 1.374 . S
C564 C570 1.507 . S
C565 C566 1.384 . S
C565 C569 1.387 . S
C565 H592 0.930 . S
C566 C564 1.380 . S
C566 C565 1.384 . S
C566 H593 0.931 . S
C567 C564 1.374 . S
C567 C568 1.390 . S
C567 H594 0.930 . S
C568 C567 1.390 . S
C568 C569 1.391 . S
C568 H595 0.930 . S
C569 C565 1.387 . S
C569 C568 1.391 . S
C570 Tb560 2.825 . S
C570 C564 1.507 . S
C570 O583 1.238 . S
C570 O584 1.247 . S
O571 Tb560 2.347 . S
O571 C575 1.259 . S
O572 Eu561 2.418 . S
O572 C575 1.265 . S
O573 Eu561 2.384 . S
O573 C582 1.255 . S
O574 Tb560 2.366 . S
O574 C582 1.265 . S
C575 O571 1.259 . S
C575 O572 1.265 . S
O576 Eu561 2.479 . S
O576 C591 1.238 . S
O577 Eu561 2.471 . S
O577 C591 1.247 . S
O578 Eu561 2.347 . S
O578 C562 1.259 . S
O579 Tb560 2.418 . S
O579 C562 1.265 . S
O580 Tb560 2.384 . S
O580 C563 1.255 . S
O581 Eu561 2.366 . S
O581 C563 1.265 . S
C582 O573 1.255 . S
C582 O574 1.265 . S
O583 Tb560 2.479 . S
O583 C570 1.238 . S
O584 Tb560 2.471 . S
O584 C570 1.247 . S
C585 C588 1.380 . S
C585 C589 1.374 . S
C585 C591 1.507 . S
C586 C587 1.387 . S
C586 C590 1.391 . S
C587 C586 1.387 . S
C587 C588 1.384 . S
C587 H596 0.930 . S
C588 C585 1.380 . S
C588 C587 1.384 . S
C588 H597 0.931 . S
C589 C585 1.374 . S
C589 C590 1.390 . S
C589 H598 0.930 . S
C590 C586 1.391 . S
C590 C589 1.390 . S
C590 H599 0.930 . S
C591 Eu561 2.825 . S
C591 O576 1.238 . S
C591 O577 1.247 . S
C591 C585 1.507 . S
H592 C565 0.930 . S
H593 C566 0.931 . S
H594 C567 0.930 . S
H595 C568 0.930 . S
H596 C587 0.930 . S
H597 C588 0.931 . S
H598 C589 0.930 . S
H599 C590 0.930 . S
Tb600 C610 2.825 . S
Tb600 O611 2.347 . S
Tb600 O614 2.366 . S
Tb600 O619 2.418 . S
Tb600 O620 2.384 1_655 S
Tb600 O623 2.479 . S
Tb600 O624 2.471 . S
Eu601 O612 2.418 . S
Eu601 O613 2.384 1_455 S
Eu601 O616 2.479 . S
Eu601 O617 2.471 . S
Eu601 O618 2.347 . S
Eu601 O621 2.366 . S
Eu601 C631 2.825 . S
C602 O618 1.259 1_655 S
C602 O619 1.265 . S
C603 O620 1.255 . S
C603 O621 1.265 . S
C604 C606 1.380 . S
C604 C607 1.374 . S
C604 C610 1.507 . S
C605 C606 1.384 . S
C605 C609 1.387 . S
C605 H632 0.930 . S
C606 C604 1.380 . S
C606 C605 1.384 . S
C606 H633 0.931 . S
C607 C604 1.374 . S
C607 C608 1.390 . S
C607 H634 0.930 . S
C608 C607 1.390 . S
C608 C609 1.391 . S
C608 H635 0.930 . S
C609 C605 1.387 . S
C609 C608 1.391 . S
C610 Tb600 2.825 . S
C610 C604 1.507 . S
C610 O623 1.238 . S
C610 O624 1.247 . S
O611 Tb600 2.347 . S
O611 C615 1.259 1_655 S
O612 Eu601 2.418 . S
O612 C615 1.265 . S
O613 Eu601 2.384 1_655 S
O613 C622 1.255 . S
O614 Tb600 2.366 . S
O614 C622 1.265 . S
C615 O611 1.259 1_455 S
C615 O612 1.265 . S
O616 Eu601 2.479 . S
O616 C631 1.238 . S
O617 Eu601 2.471 . S
O617 C631 1.247 . S
O618 Eu601 2.347 . S
O618 C602 1.259 1_455 S
O619 Tb600 2.418 . S
O619 C602 1.265 . S
O620 Tb600 2.384 1_455 S
O620 C603 1.255 . S
O621 Eu601 2.366 . S
O621 C603 1.265 . S
C622 O613 1.255 . S
C622 O614 1.265 . S
O623 Tb600 2.479 . S
O623 C610 1.238 . S
O624 Tb600 2.471 . S
O624 C610 1.247 . S
C625 C628 1.380 . S
C625 C629 1.374 . S
C625 C631 1.507 . S
C626 C627 1.387 . S
C626 C630 1.391 . S
C627 C626 1.387 . S
C627 C628 1.384 . S
C627 H636 0.930 . S
C628 C625 1.380 . S
C628 C627 1.384 . S
C628 H637 0.931 . S
C629 C625 1.374 . S
C629 C630 1.390 . S
C629 H638 0.930 . S
C630 C626 1.391 . S
C630 C629 1.390 . S
C630 H639 0.930 . S
C631 Eu601 2.825 . S
C631 O616 1.238 . S
C631 O617 1.247 . S
C631 C625 1.507 . S
H632 C605 0.930 . S
H633 C606 0.931 . S
H634 C607 0.930 . S
H635 C608 0.930 . S
H636 C627 0.930 . S
H637 C628 0.931 . S
H638 C629 0.930 . S
H639 C630 0.930 . S
H640 C648 0.950 . S
H641 C653 0.950 . S
H642 C650 0.950 . S
H643 C652 0.950 . S
H644 C654 0.950 . S
H645 C656 0.950 . S
H646 C658 0.950 . S
H647 C659 0.950 . S
C648 H640 0.950 . S
C648 C649 1.372 1_545 S
C648 C650 1.391 . S
C649 C648 1.372 1_565 S
C649 C653 1.406 . S
C650 H642 0.950 . S
C650 C648 1.391 . S
C650 C651 1.402 1_545 S
C651 C650 1.402 1_565 S
C651 C652 1.396 . S
C651 C657 1.490 1_565 S
C652 H643 0.950 . S
C652 C651 1.396 . S
C652 C653 1.391 . S
C653 H641 0.950 . S
C653 C649 1.406 . S
C653 C652 1.391 . S
C654 H644 0.950 . S
C654 C655 1.386 1_565 S
C654 C656 1.391 . S
C655 C654 1.386 1_545 S
C655 C659 1.393 . S
C656 H645 0.950 . S
C656 C654 1.391 . S
C656 C657 1.380 1_565 S
C657 C651 1.490 1_545 S
C657 C656 1.380 1_545 S
C657 C658 1.420 . S
C658 H646 0.950 . S
C658 C657 1.420 . S
C658 C659 1.391 . S
C659 H647 0.950 . S
C659 C655 1.393 . S
C659 C658 1.391 . S
H660 C668 0.950 . S
H661 C673 0.950 . S
H662 C670 0.950 . S
H663 C672 0.950 . S
H664 C674 0.950 . S
H665 C676 0.950 . S
H666 C678 0.950 . S
H667 C679 0.950 . S
C668 H660 0.950 . S
C668 C669 1.386 . S
C668 C670 1.391 . S
C669 C668 1.386 . S
C669 C673 1.393 . S
C670 H662 0.950 . S
C670 C668 1.391 . S
C670 C671 1.400 . S
C671 C670 1.400 . S
C671 C672 1.398 . S
C671 C677 1.491 . S
C672 H663 0.950 . S
C672 C671 1.398 . S
C672 C673 1.391 . S
C673 H661 0.950 . S
C673 C669 1.393 . S
C673 C672 1.391 . S
C674 H664 0.950 . S
C674 C675 1.386 . S
C674 C676 1.391 . S
C675 C674 1.386 . S
C675 C679 1.393 . S
C676 H665 0.950 . S
C676 C674 1.391 . S
C676 C677 1.400 . S
C677 C671 1.491 . S
C677 C676 1.400 . S
C677 C678 1.398 . S
C678 H666 0.950 . S
C678 C677 1.398 . S
C678 C679 1.391 . S
C679 H667 0.950 . S
C679 C675 1.393 . S
C679 C678 1.391 . S
H680 C688 0.950 . S
H681 C693 0.950 . S
H682 C690 0.950 . S
H683 C692 0.950 . S
H684 C694 0.950 . S
H685 C696 0.950 . S
H686 C698 0.950 . S
H687 C699 0.950 . S
C688 H680 0.950 . S
C688 C689 1.386 . S
C688 C690 1.391 . S
C689 C688 1.386 . S
C689 C693 1.393 . S
C690 H682 0.950 . S
C690 C688 1.391 . S
C690 C691 1.400 . S
C691 C690 1.400 . S
C691 C692 1.398 . S
C691 C697 1.491 . S
C692 H683 0.950 . S
C692 C691 1.398 . S
C692 C693 1.391 . S
C693 H681 0.950 . S
C693 C689 1.393 . S
C693 C692 1.391 . S
C694 H684 0.950 . S
C694 C695 1.386 . S
C694 C696 1.391 . S
C695 C694 1.386 . S
C695 C699 1.393 . S
C696 H685 0.950 . S
C696 C694 1.391 . S
C696 C697 1.400 . S
C697 C691 1.491 . S
C697 C696 1.400 . S
C697 C698 1.398 . S
C698 H686 0.950 . S
C698 C697 1.398 . S
C698 C699 1.391 . S
C699 H687 0.950 . S
C699 C695 1.393 . S
C699 C698 1.391 . S
H700 C708 0.950 . S
H701 C713 0.950 . S
H702 C710 0.950 . S
H703 C712 0.950 . S
H704 C714 0.950 . S
H705 C716 0.950 . S
H706 C718 0.950 . S
H707 C719 0.950 . S
C708 H700 0.950 . S
C708 C709 1.410 . S
C708 C710 1.391 . S
C709 C708 1.410 . S
C709 C713 1.370 1_455 S
C710 H702 0.950 . S
C710 C708 1.391 . S
C710 C711 1.428 . S
C711 C710 1.428 . S
C711 C712 1.372 1_455 S
C711 C717 1.491 . S
C712 H703 0.950 . S
C712 C711 1.372 1_655 S
C712 C713 1.391 . S
C713 H701 0.950 . S
C713 C709 1.370 1_655 S
C713 C712 1.391 . S
C714 H704 0.950 . S
C714 C715 1.366 1_655 S
C714 C716 1.391 . S
C715 C714 1.366 1_455 S
C715 C719 1.413 . S
C716 H705 0.950 . S
C716 C714 1.391 . S
C716 C717 1.385 1_655 S
C717 C711 1.491 . S
C717 C716 1.385 1_455 S
C717 C718 1.414 . S
C718 H706 0.950 . S
C718 C717 1.414 . S
C718 C719 1.391 . S
C719 H707 0.950 . S
C719 C715 1.413 . S
C719 C718 1.391 . S
H720 C728 0.950 . S
H721 C733 0.950 . S
H722 C730 0.950 . S
H723 C732 0.950 . S
H724 C734 0.950 . S
H725 C736 0.950 . S
H726 C738 0.950 1_554 S
H727 C739 0.950 . S
C728 H720 0.950 . S
C728 C729 1.399 . S
C728 C730 1.391 . S
C729 C728 1.399 . S
C729 C733 1.380 1_565 S
C730 H722 0.950 . S
C730 C728 1.391 . S
C730 C731 1.410 . S
C731 C730 1.410 . S
C731 C732 1.389 1_565 S
C731 C737 1.490 1_564 S
C732 H723 0.950 . S
C732 C731 1.389 1_545 S
C732 C733 1.391 . S
C733 H721 0.950 . S
C733 C729 1.380 1_545 S
C733 C732 1.391 . S
C734 H724 0.950 . S
C734 C735 1.388 . S
C734 C736 1.391 . S
C735 C734 1.388 . S
C735 C739 1.390 1_545 S
C736 H725 0.950 . S
C736 C734 1.391 . S
C736 C737 1.399 . S
C737 C731 1.490 1_546 S
C737 C736 1.399 . S
C737 C738 1.399 1_545 S
C738 H726 0.950 1_556 S
C738 C737 1.399 1_565 S
C738 C739 1.391 . S
C739 H727 0.950 . S
C739 C735 1.390 1_565 S
C739 C738 1.391 . S
H740 C748 0.950 . S
H741 C753 0.950 . S
H742 C750 0.950 . S
H743 C752 0.950 . S
H744 C754 0.950 . S
H745 C756 0.950 . S
H746 C758 0.950 1_554 S
H747 C759 0.950 . S
C748 H740 0.950 . S
C748 C749 1.386 . S
C748 C750 1.391 . S
C749 C748 1.386 . S
C749 C753 1.393 . S
C750 H742 0.950 . S
C750 C748 1.391 . S
C750 C751 1.400 . S
C751 C750 1.400 . S
C751 C752 1.398 . S
C751 C757 1.491 . S
C752 H743 0.950 . S
C752 C751 1.398 . S
C752 C753 1.391 . S
C753 H741 0.950 . S
C753 C749 1.393 . S
C753 C752 1.391 . S
C754 H744 0.950 . S
C754 C755 1.386 . S
C754 C756 1.391 . S
C755 C754 1.386 . S
C755 C759 1.393 . S
C756 H745 0.950 . S
C756 C754 1.391 . S
C756 C757 1.400 1_556 S
C757 C751 1.491 . S
C757 C756 1.400 1_554 S
C757 C758 1.398 1_554 S
C758 H746 0.950 1_556 S
C758 C757 1.398 1_556 S
C758 C759 1.391 . S
C759 H747 0.950 . S
C759 C755 1.393 . S
C759 C758 1.391 . S
H760 C768 0.950 . S
H761 C773 0.950 . S
H762 C770 0.950 . S
H763 C772 0.950 . S
H764 C774 0.950 . S
H765 C776 0.950 1_554 S
H766 C778 0.950 . S
H767 C779 0.950 . S
C768 H760 0.950 . S
C768 C769 1.386 . S
C768 C770 1.391 . S
C769 C768 1.386 . S
C769 C773 1.393 . S
C770 H762 0.950 . S
C770 C768 1.391 . S
C770 C771 1.400 . S
C771 C770 1.400 . S
C771 C772 1.398 . S
C771 C777 1.485 1_554 S
C772 H763 0.950 . S
C772 C771 1.398 . S
C772 C773 1.391 . S
C773 H761 0.950 . S
C773 C769 1.393 . S
C773 C772 1.391 . S
C774 H764 0.950 . S
C774 C775 1.386 . S
C774 C776 1.391 . S
C775 C774 1.386 . S
C775 C779 1.393 . S
C776 H765 0.950 1_556 S
C776 C774 1.391 . S
C776 C777 1.402 . S
C777 C771 1.485 1_556 S
C777 C776 1.402 . S
C777 C778 1.402 . S
C778 H766 0.950 . S
C778 C777 1.402 . S
C778 C779 1.391 . S
C779 H767 0.950 . S
C779 C775 1.393 . S
C779 C778 1.391 . S
H780 C788 0.950 . S
H781 C793 0.950 . S
H782 C790 0.950 . S
H783 C792 0.950 . S
H784 C794 0.950 . S
H785 C796 0.950 . S
H786 C798 0.950 1_554 S
H787 C799 0.950 . S
C788 H780 0.950 . S
C788 C789 1.357 1_455 S
C788 C790 1.391 . S
C789 C788 1.357 1_655 S
C789 C793 1.422 . S
C790 H782 0.950 . S
C790 C788 1.391 . S
C790 C791 1.369 1_455 S
C791 C790 1.369 1_655 S
C791 C792 1.430 . S
C791 C797 1.490 1_554 S
C792 H783 0.950 . S
C792 C791 1.430 . S
C792 C793 1.391 . S
C793 H781 0.950 . S
C793 C789 1.422 . S
C793 C792 1.391 . S
C794 H784 0.950 . S
C794 C795 1.405 . S
C794 C796 1.391 . S
C795 C794 1.405 . S
C795 C799 1.373 1_655 S
C796 H785 0.950 . S
C796 C794 1.391 . S
C796 C797 1.417 . S
C797 C791 1.490 1_556 S
C797 C796 1.417 . S
C797 C798 1.381 1_655 S
C798 H786 0.950 1_556 S
C798 C797 1.381 1_455 S
C798 C799 1.391 . S
C799 H787 0.950 . S
C799 C795 1.373 1_455 S
C799 C798 1.391 . S
H800 C808 0.948 1_455 S
H801 C813 0.951 1_455 S
H802 C810 0.950 . S
H803 C812 0.950 . S
H804 C814 0.950 . S
H805 C816 0.950 . S
H806 C818 0.950 . S
H807 C819 0.950 . S
C808 H800 0.948 1_655 S
C808 C809 1.384 1_655 S
C808 C810 1.395 . S
C809 C808 1.384 1_455 S
C809 C813 1.393 1_455 S
C810 H802 0.950 . S
C810 C808 1.395 . S
C810 C811 1.400 . S
C811 C810 1.400 . S
C811 C812 1.398 . S
C811 C817 1.491 . S
C812 H803 0.950 . S
C812 C811 1.398 . S
C812 C813 1.389 . S
C813 H801 0.951 1_655 S
C813 C809 1.393 1_655 S
C813 C812 1.389 . S
C814 H804 0.950 . S
C814 C815 1.386 . S
C814 C816 1.391 . S
C815 C814 1.386 . S
C815 C819 1.393 . S
C816 H805 0.950 . S
C816 C814 1.391 . S
C816 C817 1.400 . S
C817 C811 1.491 . S
C817 C816 1.400 . S
C817 C818 1.398 . S
C818 H806 0.950 . S
C818 C817 1.398 . S
C818 C819 1.391 . S
C819 H807 0.950 . S
C819 C815 1.393 . S
C819 C818 1.391 . S
H820 C828 0.950 . S
H821 C833 0.950 . S
H822 C830 0.950 . S
H823 C832 0.950 . S
H824 C834 0.950 . S
H825 C836 0.950 . S
H826 C838 0.950 . S
H827 C839 0.950 . S
C828 H820 0.950 . S
C828 C829 1.386 . S
C828 C830 1.391 . S
C829 C828 1.386 . S
C829 C833 1.393 1_545 S
C830 H822 0.950 . S
C830 C828 1.391 . S
C830 C831 1.400 1_545 S
C831 C830 1.400 1_565 S
C831 C832 1.398 . S
C831 C837 1.491 . S
C832 H823 0.950 . S
C832 C831 1.398 . S
C832 C833 1.391 . S
C833 H821 0.950 . S
C833 C829 1.393 1_565 S
C833 C832 1.391 . S
C834 H824 0.950 . S
C834 C835 1.386 . S
C834 C836 1.391 . S
C835 C834 1.386 . S
C835 C839 1.393 . S
C836 H825 0.950 . S
C836 C834 1.391 . S
C836 C837 1.400 . S
C837 C831 1.491 . S
C837 C836 1.400 . S
C837 C838 1.398 . S
C838 H826 0.950 . S
C838 C837 1.398 . S
C838 C839 1.391 . S
C839 H827 0.950 . S
C839 C835 1.393 . S
C839 C838 1.391 . S
H840 C848 0.950 . S
H841 C853 0.950 . S
H842 C850 0.950 . S
H843 C852 0.950 . S
H844 C854 0.950 . S
H845 C856 0.950 . S
H846 C858 0.950 . S
H847 C859 0.950 . S
C848 H840 0.950 . S
C848 C849 1.386 . S
C848 C850 1.391 . S
C849 C848 1.386 . S
C849 C853 1.393 . S
C850 H842 0.950 . S
C850 C848 1.391 . S
C850 C851 1.400 . S
C851 C850 1.400 . S
C851 C852 1.398 . S
C851 C857 1.491 . S
C852 H843 0.950 . S
C852 C851 1.398 . S
C852 C853 1.391 . S
C853 H841 0.950 . S
C853 C849 1.393 . S
C853 C852 1.391 . S
C854 H844 0.950 . S
C854 C855 1.386 . S
C854 C856 1.391 . S
C855 C854 1.386 . S
C855 C859 1.393 . S
C856 H845 0.950 . S
C856 C854 1.391 . S
C856 C857 1.400 . S
C857 C851 1.491 . S
C857 C856 1.400 . S
C857 C858 1.398 . S
C858 H846 0.950 . S
C858 C857 1.398 . S
C858 C859 1.391 . S
C859 H847 0.950 . S
C859 C855 1.393 . S
C859 C858 1.391 . S
H860 C868 0.950 . S
H861 C873 0.950 . S
H862 C870 0.950 . S
H863 C872 0.950 . S
H864 C874 0.950 . S
H865 C876 0.950 . S
H866 C878 0.950 . S
H867 C879 0.950 . S
C868 H860 0.950 . S
C868 C869 1.386 . S
C868 C870 1.391 . S
C869 C868 1.386 . S
C869 C873 1.393 . S
C870 H862 0.950 . S
C870 C868 1.391 . S
C870 C871 1.400 . S
C871 C870 1.400 . S
C871 C872 1.398 . S
C871 C877 1.491 . S
C872 H863 0.950 . S
C872 C871 1.398 . S
C872 C873 1.391 . S
C873 H861 0.950 . S
C873 C869 1.393 . S
C873 C872 1.391 . S
C874 H864 0.950 . S
C874 C875 1.386 . S
C874 C876 1.391 . S
C875 C874 1.386 . S
C875 C879 1.393 . S
C876 H865 0.950 . S
C876 C874 1.391 . S
C876 C877 1.400 . S
C877 C871 1.491 . S
C877 C876 1.400 . S
C877 C878 1.398 . S
C878 H866 0.950 . S
C878 C877 1.398 . S
C878 C879 1.391 . S
C879 H867 0.950 . S
C879 C875 1.393 . S
C879 C878 1.391 . S
H880 C888 0.950 . S
H881 C893 0.950 . S
H882 C890 0.950 . S
H883 C892 0.950 1_556 S
H884 C894 0.950 . S
H885 C896 0.950 . S
H886 C898 0.946 1_655 S
H887 C899 0.950 1_554 S
C888 H880 0.950 . S
C888 C889 1.386 . S
C888 C890 1.391 . S
C889 C888 1.386 . S
C889 C893 1.393 1_655 S
C890 H882 0.950 . S
C890 C888 1.391 . S
C890 C891 1.400 1_655 S
C891 C890 1.400 1_455 S
C891 C892 1.398 . S
C891 C897 1.491 . S
C892 H883 0.950 1_554 S
C892 C891 1.398 . S
C892 C893 1.391 . S
C893 H881 0.950 . S
C893 C889 1.393 1_455 S
C893 C892 1.391 . S
C894 H884 0.950 . S
C894 C895 1.386 . S
C894 C896 1.391 . S
C895 C894 1.386 . S
C895 C899 1.393 . S
C896 H885 0.950 . S
C896 C894 1.391 . S
C896 C897 1.400 1_556 S
C897 C891 1.491 . S
C897 C896 1.400 1_554 S
C897 C898 1.398 . S
C898 H886 0.946 1_455 S
C898 C897 1.398 . S
C898 C899 1.391 1_554 S
C899 H887 0.950 1_556 S
C899 C895 1.393 . S
C899 C898 1.391 1_556 S
H900 C908 0.950 . S
H901 C913 0.950 . S
H902 C910 0.950 . S
H903 C912 0.950 . S
H904 C914 0.950 1_565 S
H905 C916 0.950 1_564 S
H906 C918 0.950 . S
H907 C919 0.950 . S
C908 H900 0.950 . S
C908 C909 1.386 1_545 S
C908 C910 1.391 . S
C909 C908 1.386 1_565 S
C909 C913 1.393 . S
C910 H902 0.950 . S
C910 C908 1.391 . S
C910 C911 1.400 . S
C911 C910 1.400 . S
C911 C912 1.398 1_545 S
C911 C917 1.491 . S
C912 H903 0.950 . S
C912 C911 1.398 1_565 S
C912 C913 1.391 . S
C913 H901 0.950 . S
C913 C909 1.393 . S
C913 C912 1.391 . S
C914 H904 0.950 1_545 S
C914 C915 1.386 . S
C914 C916 1.391 . S
C915 C914 1.386 . S
C915 C919 1.393 . S
C916 H905 0.950 1_546 S
C916 C914 1.391 . S
C916 C917 1.400 1_556 S
C917 C911 1.491 . S
C917 C916 1.400 1_554 S
C917 C918 1.398 . S
C918 H906 0.950 . S
C918 C917 1.398 . S
C918 C919 1.391 1_554 S
C919 H907 0.950 . S
C919 C915 1.393 . S
C919 C918 1.391 1_556 S
H920 C928 0.950 . S
H921 C933 0.950 . S
H922 C930 0.950 . S
H923 C932 0.950 . S
H924 C934 0.950 . S
H925 C936 0.948 1_554 S
H926 C938 0.950 . S
H927 C939 0.950 . S
C928 H920 0.950 . S
C928 C929 1.386 . S
C928 C930 1.391 . S
C929 C928 1.386 . S
C929 C933 1.393 . S
C930 H922 0.950 . S
C930 C928 1.391 . S
C930 C931 1.400 . S
C931 C930 1.400 . S
C931 C932 1.398 . S
C931 C937 1.491 . S
C932 H923 0.950 . S
C932 C931 1.398 . S
C932 C933 1.391 . S
C933 H921 0.950 . S
C933 C929 1.393 . S
C933 C932 1.391 . S
C934 H924 0.950 . S
C934 C935 1.386 . S
C934 C936 1.391 . S
C935 C934 1.386 . S
C935 C939 1.393 . S
C936 H925 0.948 1_556 S
C936 C934 1.391 . S
C936 C937 1.400 1_556 S
C937 C931 1.491 . S
C937 C936 1.400 1_554 S
C937 C938 1.398 . S
C938 H926 0.950 . S
C938 C937 1.398 . S
C938 C939 1.391 1_554 S
C939 H927 0.950 . S
C939 C935 1.393 . S
C939 C938 1.391 1_556 S
H940 C948 0.950 . S
H941 C953 0.950 . S
H942 C950 0.950 1_556 S
H943 C952 0.950 . S
H944 C954 0.950 . S
H945 C956 0.950 . S
H946 C958 0.950 . S
H947 C959 0.950 . S
C948 H940 0.950 . S
C948 C949 1.386 . S
C948 C950 1.391 . S
C949 C948 1.386 . S
C949 C953 1.393 . S
C950 H942 0.950 1_554 S
C950 C948 1.391 . S
C950 C951 1.400 . S
C951 C950 1.400 . S
C951 C952 1.398 . S
C951 C957 1.491 . S
C952 H943 0.950 . S
C952 C951 1.398 . S
C952 C953 1.391 . S
C953 H941 0.950 . S
C953 C949 1.393 . S
C953 C952 1.391 . S
C954 H944 0.950 . S
C954 C955 1.386 1_554 S
C954 C956 1.391 . S
C955 C954 1.386 1_556 S
C955 C959 1.393 . S
C956 H945 0.950 . S
C956 C954 1.391 . S
C956 C957 1.400 . S
C957 C951 1.491 . S
C957 C956 1.400 . S
C957 C958 1.398 1_554 S
C958 H946 0.950 . S
C958 C957 1.398 1_556 S
C958 C959 1.391 . S
C959 H947 0.950 . S
C959 C955 1.393 . S
C959 C958 1.391 . S
H960 C968 0.950 . S
H961 C973 0.950 . S
H962 C970 0.949 1_655 S
H963 C972 0.950 . S
H964 C974 0.950 . S
H965 C976 0.950 . S
H966 C978 0.950 . S
H967 C979 0.950 . S
C968 H960 0.950 . S
C968 C969 1.386 1_655 S
C968 C970 1.391 1_655 S
C969 C968 1.386 1_455 S
C969 C973 1.393 . S
C970 H962 0.949 1_455 S
C970 C968 1.391 1_455 S
C970 C971 1.401 . S
C971 C970 1.401 . S
C971 C972 1.398 . S
C971 C977 1.491 . S
C972 H963 0.950 . S
C972 C971 1.398 . S
C972 C973 1.391 . S
C973 H961 0.950 . S
C973 C969 1.393 . S
C973 C972 1.391 . S
C974 H964 0.950 . S
C974 C975 1.386 . S
C974 C976 1.391 . S
C975 C974 1.386 . S
C975 C979 1.393 . S
C976 H965 0.950 . S
C976 C974 1.391 . S
C976 C977 1.400 . S
C977 C971 1.491 . S
C977 C976 1.400 . S
C977 C978 1.398 . S
C978 H966 0.950 . S
C978 C977 1.398 . S
C978 C979 1.391 . S
C979 H967 0.950 . S
C979 C975 1.393 . S
C979 C978 1.391 . S
H980 C988 0.950 . S
H981 C993 0.950 . S
H982 C990 0.950 . S
H983 C992 0.950 . S
H984 C994 0.950 . S
H985 C996 0.950 . S
H986 C998 0.950 . S
H987 C999 0.965 . S
C988 H980 0.950 . S
C988 C989 1.386 1_565 S
C988 C990 1.391 . S
C989 C988 1.386 1_545 S
C989 C993 1.393 . S
C990 H982 0.950 . S
C990 C988 1.391 . S
C990 C991 1.400 1_565 S
C991 C990 1.400 1_545 S
C991 C992 1.398 . S
C991 C997 1.491 . S
C992 H983 0.950 . S
C992 C991 1.398 . S
C992 C993 1.391 . S
C993 H981 0.950 . S
C993 C989 1.393 . S
C993 C992 1.391 . S
C994 H984 0.950 . S
C994 C995 1.386 . S
C994 C996 1.391 . S
C995 C994 1.386 . S
C995 C999 1.377 1_545 S
C996 H985 0.950 . S
C996 C994 1.391 . S
C996 C997 1.400 . S
C997 C991 1.491 . S
C997 C996 1.400 . S
C997 C998 1.398 1_545 S
C998 H986 0.950 . S
C998 C997 1.398 1_565 S
C998 C999 1.394 . S
C999 H987 0.965 . S
C999 C995 1.377 1_565 S
C999 C998 1.394 . S
H1000 C1008 0.950 . S
H1001 C1013 0.950 . S
H1002 C1010 0.950 . S
H1003 C1012 0.950 . S
H1004 C1014 0.950 . S
H1005 C1016 0.950 . S
H1006 C1018 0.950 . S
H1007 C1019 0.950 . S
C1008 H1000 0.950 . S
C1008 C1009 1.386 . S
C1008 C1010 1.391 . S
C1009 C1008 1.386 . S
C1009 C1013 1.393 . S
C1010 H1002 0.950 . S
C1010 C1008 1.391 . S
C1010 C1011 1.400 . S
C1011 C1010 1.400 . S
C1011 C1012 1.398 . S
C1011 C1017 1.491 . S
C1012 H1003 0.950 . S
C1012 C1011 1.398 . S
C1012 C1013 1.391 . S
C1013 H1001 0.950 . S
C1013 C1009 1.393 . S
C1013 C1012 1.391 . S
C1014 H1004 0.950 . S
C1014 C1015 1.386 . S
C1014 C1016 1.391 . S
C1015 C1014 1.386 . S
C1015 C1019 1.393 . S
C1016 H1005 0.950 . S
C1016 C1014 1.391 . S
C1016 C1017 1.400 . S
C1017 C1011 1.491 . S
C1017 C1016 1.400 . S
C1017 C1018 1.398 . S
C1018 H1006 0.950 . S
C1018 C1017 1.398 . S
C1018 C1019 1.391 . S
C1019 H1007 0.950 . S
C1019 C1015 1.393 . S
C1019 C1018 1.391 . S
H1020 C1028 0.950 . S
H1021 C1033 0.950 . S
H1022 C1030 0.950 . S
H1023 C1032 0.950 . S
H1024 C1034 0.950 . S
H1025 C1036 0.950 . S
H1026 C1038 0.950 . S
H1027 C1039 0.950 . S
C1028 H1020 0.950 . S
C1028 C1029 1.386 . S
C1028 C1030 1.391 . S
C1029 C1028 1.386 . S
C1029 C1033 1.393 . S
C1030 H1022 0.950 . S
C1030 C1028 1.391 . S
C1030 C1031 1.400 . S
C1031 C1030 1.400 . S
C1031 C1032 1.398 . S
C1031 C1037 1.491 . S
C1032 H1023 0.950 . S
C1032 C1031 1.398 . S
C1032 C1033 1.391 . S
C1033 H1021 0.950 . S
C1033 C1029 1.393 . S
C1033 C1032 1.391 . S
C1034 H1024 0.950 . S
C1034 C1035 1.386 . S
C1034 C1036 1.391 . S
C1035 C1034 1.386 . S
C1035 C1039 1.393 . S
C1036 H1025 0.950 . S
C1036 C1034 1.391 . S
C1036 C1037 1.400 . S
C1037 C1031 1.491 . S
C1037 C1036 1.400 . S
C1037 C1038 1.398 . S
C1038 H1026 0.950 . S
C1038 C1037 1.398 . S
C1038 C1039 1.391 . S
C1039 H1027 0.950 . S
C1039 C1035 1.393 . S
C1039 C1038 1.391 . S
H1040 C1048 0.950 . S
H1041 C1053 0.950 . S
H1042 C1050 0.950 . S
H1043 C1052 0.950 . S
H1044 C1054 0.950 . S
H1045 C1056 0.950 . S
H1046 C1058 0.950 . S
H1047 C1059 0.950 . S
C1048 H1040 0.950 . S
C1048 C1049 1.386 . S
C1048 C1050 1.391 . S
C1049 C1048 1.386 . S
C1049 C1053 1.393 1_655 S
C1050 H1042 0.950 . S
C1050 C1048 1.391 . S
C1050 C1051 1.400 . S
C1051 C1050 1.400 . S
C1051 C1052 1.398 1_655 S
C1051 C1057 1.491 . S
C1052 H1043 0.950 . S
C1052 C1051 1.398 1_455 S
C1052 C1053 1.391 . S
C1053 H1041 0.950 . S
C1053 C1049 1.393 1_455 S
C1053 C1052 1.391 . S
C1054 H1044 0.950 . S
C1054 C1055 1.386 1_455 S
C1054 C1056 1.391 . S
C1055 C1054 1.386 1_655 S
C1055 C1059 1.393 . S
C1056 H1045 0.950 . S
C1056 C1054 1.391 . S
C1056 C1057 1.400 1_455 S
C1057 C1051 1.491 . S
C1057 C1056 1.400 1_655 S
C1057 C1058 1.398 . S
C1058 H1046 0.950 . S
C1058 C1057 1.398 . S
C1058 C1059 1.391 . S
C1059 H1047 0.950 . S
C1059 C1055 1.393 . S
C1059 C1058 1.391 . S
H1060 C1068 0.950 . S
H1061 C1073 0.950 . S
H1062 C1070 0.950 . S
H1063 C1072 0.950 . S
H1064 C1074 0.950 . S
H1065 C1076 0.950 . S
H1066 C1078 0.950 . S
H1067 C1079 0.950 . S
C1068 H1060 0.950 . S
C1068 C1069 1.386 1_545 S
C1068 C1070 1.391 . S
C1069 C1068 1.386 1_565 S
C1069 C1073 1.393 . S
C1070 H1062 0.950 . S
C1070 C1068 1.391 . S
C1070 C1071 1.400 1_545 S
C1071 C1070 1.400 1_565 S
C1071 C1072 1.398 . S
C1071 C1077 1.491 . S
C1072 H1063 0.950 . S
C1072 C1071 1.398 . S
C1072 C1073 1.391 . S
C1073 H1061 0.950 . S
C1073 C1069 1.393 . S
C1073 C1072 1.391 . S
C1074 H1064 0.950 . S
C1074 C1075 1.386 . S
C1074 C1076 1.391 . S
C1075 C1074 1.386 . S
C1075 C1079 1.393 1_565 S
C1076 H1065 0.950 . S
C1076 C1074 1.391 . S
C1076 C1077 1.400 . S
C1077 C1071 1.491 . S
C1077 C1076 1.400 . S
C1077 C1078 1.398 1_565 S
C1078 H1066 0.950 . S
C1078 C1077 1.398 1_545 S
C1078 C1079 1.391 . S
C1079 H1067 0.950 . S
C1079 C1075 1.393 1_545 S
C1079 C1078 1.391 . S
H1080 C1088 0.950 . S
H1081 C1093 0.950 . S
H1082 C1090 0.950 . S
H1083 C1092 0.950 . S
H1084 C1094 0.950 . S
H1085 C1096 0.950 . S
H1086 C1098 0.950 . S
H1087 C1099 0.950 . S
C1088 H1080 0.950 . S
C1088 C1089 1.386 . S
C1088 C1090 1.391 . S
C1089 C1088 1.386 . S
C1089 C1093 1.393 . S
C1090 H1082 0.950 . S
C1090 C1088 1.391 . S
C1090 C1091 1.400 . S
C1091 C1090 1.400 . S
C1091 C1092 1.398 . S
C1091 C1097 1.491 . S
C1092 H1083 0.950 . S
C1092 C1091 1.398 . S
C1092 C1093 1.391 . S
C1093 H1081 0.950 . S
C1093 C1089 1.393 . S
C1093 C1092 1.391 . S
C1094 H1084 0.950 . S
C1094 C1095 1.386 . S
C1094 C1096 1.391 . S
C1095 C1094 1.386 . S
C1095 C1099 1.393 . S
C1096 H1085 0.950 . S
C1096 C1094 1.391 . S
C1096 C1097 1.400 . S
C1097 C1091 1.491 . S
C1097 C1096 1.400 . S
C1097 C1098 1.398 . S
C1098 H1086 0.950 . S
C1098 C1097 1.398 . S
C1098 C1099 1.391 . S
C1099 H1087 0.950 . S
C1099 C1095 1.393 . S
C1099 C1098 1.391 . S
H1100 C1108 0.950 . S
H1101 C1113 0.950 . S
H1102 C1110 0.950 . S
H1103 C1112 0.950 . S
H1104 C1114 0.950 . S
H1105 C1116 0.950 . S
H1106 C1118 0.950 . S
H1107 C1119 0.950 . S
C1108 H1100 0.950 . S
C1108 C1109 1.386 . S
C1108 C1110 1.391 . S
C1109 C1108 1.386 . S
C1109 C1113 1.393 . S
C1110 H1102 0.950 . S
C1110 C1108 1.391 . S
C1110 C1111 1.400 . S
C1111 C1110 1.400 . S
C1111 C1112 1.398 . S
C1111 C1117 1.491 . S
C1112 H1103 0.950 . S
C1112 C1111 1.398 . S
C1112 C1113 1.391 . S
C1113 H1101 0.950 . S
C1113 C1109 1.393 . S
C1113 C1112 1.391 . S
C1114 H1104 0.950 . S
C1114 C1115 1.386 . S
C1114 C1116 1.391 . S
C1115 C1114 1.386 . S
C1115 C1119 1.393 . S
C1116 H1105 0.950 . S
C1116 C1114 1.391 . S
C1116 C1117 1.400 . S
C1117 C1111 1.491 . S
C1117 C1116 1.400 . S
C1117 C1118 1.398 . S
C1118 H1106 0.950 . S
C1118 C1117 1.398 . S
C1118 C1119 1.391 . S
C1119 H1107 0.950 . S
C1119 C1115 1.393 . S
C1119 C1118 1.391 . S
C649 C391 2.275 1_565 S
C655 C482 2.356 1_545 S
C675 C522 2.371 . S
C669 C451 2.285 . S
C695 C562 2.369 . S
C689 C241 2.001 . S
C715 C602 2.358 1_455 S
C709 C331 2.015 1_455 S
C735 C495 2.351 . S
C729 C121 1.985 . S
C749 C211 2.278 . S
C755 C535 2.367 . S
C769 C31 2.299 . S
C775 C575 2.373 . S
C789 C91 2.014 . S
C795 C615 2.358 1_655 S
C815 C506 0.395 . S
C809 C301 0.565 1_455 S
C835 C546 0.390 . S
C829 C380 0.325 . S
C855 C586 0.327 . S
C849 C440 0.306 . S
C869 C260 0.501 . S
C875 C626 0.373 . S
C889 C61 0.436 . S
C895 C489 0.335 . S
C915 C529 0.368 . S
C909 C140 0.508 . S
C935 C569 0.359 . S
C929 C200 0.400 . S
C949 C20 0.427 . S
C955 C609 0.390 . S
C969 C320 2.972 1_455 S
C975 C483 3.191 . S
C989 C361 2.549 . S
C995 C523 3.167 . S
C1015 C563 3.162 . S
C1009 C421 2.543 . S
C1035 C603 3.180 . S
C1029 C271 2.955 . S
C1049 C80 2.966 . S
C1055 C502 3.200 . S
C1075 C542 3.165 . S
C1069 C151 2.923 . S
C1095 C582 3.154 . S
C1089 C181 2.544 . S
C1109 C1 2.589 . S
C1115 C622 3.193 . S
