# Generated by pormake.
# Topology pts, (4,4)-cn, num edge types: 1
# Building blocks:
#     Node 0, Type 0, BuildingBlock: MIFKUJ_clean_linker_1, # of connection points: 4
#     Node 1, Type 0, BuildingBlock: MIFKUJ_clean_linker_1, # of connection points: 4
#     Node 2, Type 1, BuildingBlock: UXUYUI_clean_sbu_0, # of connection points: 4
#     Node 3, Type 1, BuildingBlock: UXUYUI_clean_sbu_0, # of connection points: 4
#     Edge 4, Type (0, 1), BuildingBlock: UVAHIK_clean_linker_0, # of connection points: 2
#     Edge 5, Type (0, 1), BuildingBlock: UVAHIK_clean_linker_0, # of connection points: 2
#     Edge 6, Type (0, 1), BuildingBlock: UVAHIK_clean_linker_0, # of connection points: 2
#     Edge 7, Type (0, 1), BuildingBlock: UVAHIK_clean_linker_0, # of connection points: 2
#     Edge 8, Type (0, 1), BuildingBlock: UVAHIK_clean_linker_0, # of connection points: 2
#     Edge 9, Type (0, 1), BuildingBlock: UVAHIK_clean_linker_0, # of connection points: 2
#     Edge 10, Type (0, 1), BuildingBlock: UVAHIK_clean_linker_0, # of connection points: 2
#     Edge 11, Type (0, 1), BuildingBlock: UVAHIK_clean_linker_0, # of connection points: 2
# Relax obj value: 0.001
# Max RMSD: 0.016
# Mean RMSD: 0.014
data_MOF--net-pts--node1-UXUYUI_clean_sbu_0--node2-MIFKUJ_clean_linker_1--edge1-UVAHIK_clean_linker_0
_symmetry_space_group_name_H-M    P1
_symmetry_Int_Tables_number       1
_symmetry_cell_setting            triclinic
loop_
_symmetry_equiv_pos_as_xyz
'x, y, z'
_cell_length_a     43.426471
_cell_length_b     43.442907
_cell_length_c     59.618777
_cell_angle_alpha  90.024535
_cell_angle_beta   90.015672
_cell_angle_gamma 89.997353
loop_
_atom_site_label
_atom_site_type_symbol
_atom_site_fract_x
_atom_site_fract_y
_atom_site_fract_z
_atom_type_partial_charge
H0 H 0.5543 0.96047 0.04179 0.0
H1 H 0.60143 0.95982 0.06432 0.0
H2 H 0.62865 0.04674 0.03519 0.0
H3 H 0.58112 0.04767 0.01326 0.0
H4 H 0.50724 0.00109 0.0423 0.0
H5 H 0.57772 0.96263 0.98597 0.0
H6 H 0.62505 0.96233 0.96356 0.0
H7 H 0.60437 0.05399 0.93991 0.0
H8 H 0.55699 0.05412 0.96229 0.0
H9 H 0.4619 0.05244 0.95829 0.0
H10 H 0.41486 0.0538 0.9357 0.0
H11 H 0.3835 0.97035 0.96773 0.0
H12 H 0.43084 0.96864 0.9899 0.0
H13 H 0.50702 0.01312 0.95956 0.0
H14 H 0.43474 0.05048 0.01445 0.0
H15 H 0.38781 0.05092 0.03706 0.0
H16 H 0.41163 0.96156 0.06385 0.0
H17 H 0.45878 0.96162 0.0415 0.0
C18 C 0.56432 0.00397 0.0257 0.0
C19 C 0.57046 0.97936 0.04027 0.0
C20 C 0.5975 0.97891 0.053 0.0
C21 C 0.61881 0.00321 0.05151 0.0
C22 C 0.61258 0.02782 0.03687 0.0
C23 C 0.58557 0.02822 0.02415 0.0
C24 C 0.53526 0.00479 0.01263 0.0
C25 C 0.50715 0.00328 0.02417 0.0
C26 C 0.53514 0.00846 0.98907 0.0
C27 C 0.56397 0.00845 0.97582 0.0
C28 C 0.58347 0.98269 0.97602 0.0
C29 C 0.61036 0.98248 0.96315 0.0
C30 C 0.61833 0.00815 0.95004 0.0
C31 C 0.59888 0.03401 0.95002 0.0
C32 C 0.57179 0.03405 0.96266 0.0
C33 C 0.4498 0.01066 0.97601 0.0
C34 C 0.44493 0.03439 0.96043 0.0
C35 C 0.41808 0.03515 0.94752 0.0
C36 C 0.3955 0.01224 0.95002 0.0
C37 C 0.40032 0.98855 0.96568 0.0
C38 C 0.42733 0.98761 0.9784 0.0
C39 C 0.47882 0.0095 0.98921 0.0
C40 C 0.50699 0.01095 0.97769 0.0
C41 C 0.47894 0.00586 0.01282 0.0
C42 C 0.45016 0.00594 0.0262 0.0
C43 C 0.42972 0.03092 0.0251 0.0
C44 C 0.40283 0.03108 0.03799 0.0
C45 C 0.3959 0.00626 0.05229 0.0
C46 C 0.41645 0.98125 0.05329 0.0
C47 C 0.44336 0.98118 0.04046 0.0
H48 H 0.05353 0.45837 0.4616 0.0
H49 H 0.05451 0.4111 0.43938 0.0
H50 H 0.96444 0.38702 0.46487 0.0
H51 H 0.96412 0.43394 0.48747 0.0
H52 H 0.01158 0.5064 0.45969 0.0
H53 H 0.04934 0.43439 0.51525 0.0
H54 H 0.04902 0.38749 0.53784 0.0
H55 H 0.95838 0.41095 0.56259 0.0
H56 H 0.95941 0.45826 0.54045 0.0
H57 H 0.9637 0.55256 0.5447 0.0
H58 H 0.96413 0.59919 0.56749 0.0
H59 H 0.04658 0.62959 0.53338 0.0
H60 H 0.04701 0.58202 0.51163 0.0
H61 H 0.00157 0.50669 0.54256 0.0
H62 H 0.96622 0.58201 0.49024 0.0
H63 H 0.96648 0.62914 0.46779 0.0
H64 H 0.04964 0.59891 0.43473 0.0
H65 H 0.04971 0.55213 0.45754 0.0
C66 C 0.00886 0.44953 0.47627 0.0
C67 C 0.03407 0.44281 0.46242 0.0
C68 C 0.03449 0.41585 0.44964 0.0
C69 C 0.00951 0.39522 0.45026 0.0
C70 C 0.98429 0.40207 0.46423 0.0
C71 C 0.984 0.42895 0.47712 0.0
C72 C 0.00822 0.47851 0.48938 0.0
C73 C 0.00984 0.50659 0.47785 0.0
C74 C 0.00494 0.4786 0.51295 0.0
C75 C 0.00435 0.4497 0.52613 0.0
C76 C 0.02936 0.42928 0.52547 0.0
C77 C 0.02905 0.4024 0.53833 0.0
C78 C 0.00365 0.39535 0.55208 0.0
C79 C 0.97854 0.41584 0.55252 0.0
C80 C 0.97899 0.44283 0.53979 0.0
C81 C 0.00512 0.56386 0.52626 0.0
C82 C 0.98196 0.56921 0.5422 0.0
C83 C 0.98206 0.5961 0.55507 0.0
C84 C 0.0053 0.61833 0.55223 0.0
C85 C 0.0285 0.61288 0.53623 0.0
C86 C 0.02856 0.58582 0.52354 0.0
C87 C 0.00515 0.53493 0.51293 0.0
C88 C 0.00331 0.50675 0.52441 0.0
C89 C 0.00805 0.53484 0.48924 0.0
C90 C 0.00817 0.56365 0.4758 0.0
C91 C 0.98477 0.58571 0.4784 0.0
C92 C 0.98489 0.6126 0.46554 0.0
C93 C 0.0081 0.61767 0.44953 0.0
C94 C 0.03132 0.59547 0.4468 0.0
C95 C 0.03139 0.56876 0.45984 0.0
Li96 Li 0.00769 0.03534 0.26527 0.0
Li97 Li 0.00655 0.97875 0.26638 0.0
Li98 Li 0.03571 0.00774 0.23681 0.0
Li99 Li 0.97954 0.00538 0.23527 0.0
C100 C 0.05877 0.01836 0.28735 0.0
N101 N 0.09013 0.04325 0.32339 0.0
C102 C 0.05802 0.00373 0.30822 0.0
C103 C 0.07573 0.04548 0.28476 0.0
C104 C 0.07398 0.01671 0.32625 0.0
C105 C 0.09133 0.05775 0.3032 0.0
C106 C 0.94553 0.9996 0.27971 0.0
C107 C 0.89848 0.97033 0.28275 0.0
N108 N 0.89315 0.98315 0.3032 0.0
C109 C 0.93934 0.01279 0.30063 0.0
C110 C 0.92473 0.97845 0.27059 0.0
C111 C 0.91285 0.00405 0.31229 0.0
C112 C 0.00478 0.09942 0.27377 0.0
N113 N 0.00646 0.07128 0.28364 0.0
C114 C 0.0074 0.09431 0.32006 0.0
C115 C 0.00742 0.06829 0.30633 0.0
C116 C 0.0059 0.12378 0.31038 0.0
C117 C 0.00443 0.12609 0.28687 0.0
H118 H 0.00364 0.10115 0.2557 0.0
H119 H 0.00847 0.04566 0.31379 0.0
C120 C 0.02437 0.91904 0.27901 0.0
N121 N 0.00676 0.9434 0.28533 0.0
C122 C 0.02535 0.89246 0.29217 0.0
C123 C 0.99033 0.91668 0.31825 0.0
C124 C 0.99019 0.94282 0.30466 0.0
C125 C 0.00805 0.89095 0.31208 0.0
H126 H 0.03768 0.92029 0.2637 0.0
H127 H 0.97698 0.96267 0.30967 0.0
C128 C 0.01978 0.05797 0.21509 0.0
N129 N 0.04833 0.08796 0.17994 0.0
C130 C 0.00868 0.0545 0.19323 0.0
C131 C 0.04517 0.07696 0.21912 0.0
C132 C 0.02348 0.06982 0.17567 0.0
C133 C 0.05936 0.09183 0.20111 0.0
C134 C 0.9983 0.94435 0.22368 0.0
C135 C 0.01003 0.93445 0.20307 0.0
C136 C 0.9757 0.92686 0.23443 0.0
C137 C 0.99843 0.90759 0.19332 0.0
C138 C 0.96472 0.90011 0.22418 0.0
N139 N 0.97617 0.89113 0.20398 0.0
C140 C 0.09974 0.01228 0.22792 0.0
C141 C 0.06853 0.00303 0.19602 0.0
C142 C 0.12618 0.01275 0.2146 0.0
N143 N 0.07166 0.00761 0.21846 0.0
C144 C 0.09435 0.00325 0.18207 0.0
C145 C 0.12372 0.00818 0.19132 0.0
H146 H 0.10163 0.01568 0.24581 0.0
H147 H 0.04592 0.99934 0.18894 0.0
C148 C 0.91887 0.02062 0.22307 0.0
N149 N 0.94427 0.00492 0.21627 0.0
C150 C 0.8923 0.02079 0.20987 0.0
C151 C 0.9188 0.98927 0.1826 0.0
C152 C 0.94485 0.98974 0.19633 0.0
C153 C 0.892 0.00484 0.18936 0.0
H154 H 0.91919 0.03288 0.23887 0.0
H155 H 0.96561 0.97829 0.19093 0.0
O156 O 0.04308 0.00611 0.26956 0.0
O157 O 0.97139 0.00801 0.26807 0.0
O158 O 0.00598 0.04268 0.23243 0.0
O159 O 0.00944 0.97066 0.23341 0.0
H160 H 0.04515 0.98266 0.31052 0.0
H161 H 0.07657 0.0571 0.26874 0.0
H162 H 0.07349 0.00571 0.34252 0.0
H163 H 0.10435 0.07885 0.30146 0.0
H164 H 0.88226 0.95395 0.27588 0.0
H165 H 0.95489 0.02946 0.30787 0.0
H166 H 0.9285 0.96871 0.25416 0.0
H167 H 0.90794 0.01392 0.32857 0.0
H168 H 0.00898 0.0913 0.33804 0.0
H169 H 0.00268 0.14824 0.27865 0.0
H170 H 0.03981 0.87348 0.28691 0.0
H171 H 0.97641 0.91656 0.33331 0.0
H172 H 0.98903 0.03995 0.18983 0.0
H173 H 0.05396 0.07997 0.23595 0.0
H174 H 0.01526 0.0672 0.15865 0.0
H175 H 0.07917 0.10642 0.20396 0.0
H176 H 0.02782 0.94741 0.19461 0.0
H177 H 0.96701 0.93357 0.25066 0.0
H178 H 0.00716 0.8998 0.17731 0.0
H179 H 0.94718 0.88642 0.23232 0.0
H180 H 0.14826 0.01701 0.22246 0.0
H181 H 0.09134 0.99919 0.16429 0.0
H182 H 0.87211 0.03294 0.21581 0.0
H183 H 0.91981 0.97724 0.1667 0.0
Li184 Li 0.97779 0.00786 0.76565 0.0
Li185 Li 0.03434 0.00648 0.76673 0.0
Li186 Li 0.00534 0.03551 0.73687 0.0
Li187 Li 0.00744 0.97905 0.7359 0.0
C188 C 0.99476 0.05951 0.78699 0.0
N189 N 0.96941 0.09212 0.82223 0.0
C190 C 0.00848 0.05854 0.80818 0.0
C191 C 0.96837 0.07735 0.78364 0.0
C192 C 0.99526 0.07514 0.8258 0.0
C193 C 0.95583 0.09357 0.80169 0.0
C194 C 0.01385 0.94551 0.77997 0.0
C195 C 0.04424 0.89913 0.78227 0.0
N196 N 0.03149 0.89285 0.80259 0.0
C197 C 0.00079 0.93841 0.80076 0.0
C198 C 0.03554 0.92557 0.77054 0.0
C199 C 0.01011 0.91176 0.81199 0.0
C200 C 0.91374 0.00538 0.77418 0.0
N201 N 0.94192 0.00707 0.78404 0.0
C202 C 0.91899 0.00846 0.82047 0.0
C203 C 0.945 0.00814 0.80673 0.0
C204 C 0.88959 0.00695 0.81076 0.0
C205 C 0.8871 0.00515 0.78731 0.0
H206 H 0.91194 0.00421 0.75612 0.0
H207 H 0.96768 0.00881 0.81416 0.0
C208 C 0.09388 0.02497 0.77915 0.0
N209 N 0.06986 0.00688 0.78548 0.0
C210 C 0.12055 0.02628 0.79221 0.0
C211 C 0.09719 0.99048 0.81816 0.0
C212 C 0.07089 0.99008 0.8047 0.0
C213 C 0.12247 0.00872 0.81194 0.0
H214 H 0.0923 0.03833 0.76388 0.0
H215 H 0.05124 0.97661 0.80977 0.0
C216 C 0.95422 0.01822 0.71543 0.0
N217 N 0.92207 0.0438 0.68007 0.0
C218 C 0.95612 0.00511 0.69406 0.0
C219 C 0.9357 0.04409 0.71888 0.0
C220 C 0.93973 0.01844 0.67638 0.0
C221 C 0.91972 0.05677 0.70077 0.0
C222 C 0.06848 0.99951 0.72333 0.0
C223 C 0.07684 0.01246 0.70276 0.0
C224 C 0.08754 0.97745 0.73325 0.0
C225 C 0.10387 0.00268 0.69223 0.0
C226 C 0.11439 0.9683 0.72222 0.0
N227 N 0.12191 0.98096 0.70209 0.0
C228 C 0.00571 0.09951 0.72807 0.0
C229 C 0.00641 0.0679 0.69569 0.0
C230 C 0.00576 0.12601 0.71481 0.0
N231 N 0.00583 0.07122 0.71835 0.0
C232 C 0.00614 0.09374 0.68178 0.0
C233 C 0.00581 0.12337 0.69129 0.0
H234 H 0.00577 0.10152 0.74614 0.0
H235 H 0.00692 0.04513 0.68839 0.0
C236 C 0.99 0.91914 0.72353 0.0
N237 N 0.00767 0.94347 0.71722 0.0
C238 C 0.98924 0.89243 0.71048 0.0
C239 C 0.02467 0.91643 0.68457 0.0
C240 C 0.02453 0.94274 0.69801 0.0
C241 C 0.00689 0.89082 0.69078 0.0
H242 H 0.97657 0.92048 0.73878 0.0
H243 H 0.03763 0.96264 0.69295 0.0
O244 O 0.00719 0.04318 0.7696 0.0
O245 O 0.00491 0.97152 0.76879 0.0
O246 O 0.97037 0.0057 0.73288 0.0
O247 O 0.04206 0.00888 0.73382 0.0
H248 H 0.02898 0.04495 0.81104 0.0
H249 H 0.95758 0.07848 0.76731 0.0
H250 H 0.00553 0.07447 0.84233 0.0
H251 H 0.93528 0.1073 0.79938 0.0
H252 H 0.06103 0.88353 0.77517 0.0
H253 H 0.98375 0.95339 0.80822 0.0
H254 H 0.0453 0.93019 0.75423 0.0
H255 H 1.00033 0.9061 0.82815 0.0
H256 H 0.92185 0.00943 0.83851 0.0
H257 H 0.86479 0.00404 0.77922 0.0
H258 H 0.13961 0.04053 0.7868 0.0
H259 H 0.09755 0.97705 0.83346 0.0
H260 H 0.97026 0.98501 0.69112 0.0
H261 H 0.93385 0.05438 0.73535 0.0
H262 H 0.94111 0.00865 0.65973 0.0
H263 H 0.90546 0.07692 0.70316 0.0
H264 H 0.06253 0.02977 0.69493 0.0
H265 H 0.08191 0.96776 0.74941 0.0
H266 H 0.11051 0.01237 0.67624 0.0
H267 H 0.12932 0.95122 0.7297 0.0
H268 H 0.00615 0.14829 0.72294 0.0
H269 H 0.00582 0.09045 0.66378 0.0
H270 H 0.97533 0.87313 0.71589 0.0
H271 H 0.03815 0.9163 0.66929 0.0
C272 C 0.3397 0.01824 0.05783 0.0
C273 C 0.36758 0.00663 0.06635 0.0
C274 C 0.31321 0.0188 0.07115 0.0
C275 C 0.2878 0.01569 0.13048 0.0
H276 H 0.20843 0.9958 0.10443 0.0
C277 C 0.17927 0.99503 0.18428 0.0
C278 C 0.15161 0.00839 0.17681 0.0
C279 C 0.20548 0.99524 0.17069 0.0
C280 C 0.23039 0.0017 0.11189 0.0
H281 H 0.38941 0.98674 0.0957 0.0
H282 H 0.3431 0.98684 0.11864 0.0
H283 H 0.25438 0.99515 0.08091 0.0
H284 H 0.13004 0.03283 0.14922 0.0
H285 H 0.17573 0.03284 0.12542 0.0
H286 H 0.2638 0.02187 0.16152 0.0
C287 C 0.34178 0.99595 0.10177 0.0
C288 C 0.25673 0.00138 0.09841 0.0
C289 C 0.36827 0.9955 0.08849 0.0
C290 C 0.1508 0.02188 0.15537 0.0
C291 C 0.17698 0.02195 0.14173 0.0
C292 C 0.2615 0.01584 0.14397 0.0
C293 C 0.31392 0.00768 0.0933 0.0
C294 C 0.28579 0.00831 0.10755 0.0
C295 C 0.20463 0.00867 0.14926 0.0
C296 C 0.23251 0.0088 0.13484 0.0
H297 H 0.33824 0.02669 0.04077 0.0
H298 H 0.29225 0.02828 0.06415 0.0
H299 H 0.30969 0.02171 0.13801 0.0
H300 H 0.1806 0.98395 0.20052 0.0
H301 H 0.22631 0.98442 0.17683 0.0
C302 C 0.99086 0.36748 0.58786 0.0
C303 C 0.00357 0.36704 0.56616 0.0
C304 C 0.99098 0.34103 0.60117 0.0
C305 C 0.99996 0.25604 0.59818 0.0
H306 H 0.01359 0.26402 0.66222 0.0
C307 C 0.02221 0.15192 0.65653 0.0
C308 C 0.00559 0.1513 0.67679 0.0
C309 C 0.02187 0.17808 0.64289 0.0
C310 C 0.00952 0.26148 0.64439 0.0
H311 H 0.02609 0.33809 0.54144 0.0
H312 H 0.02737 0.29236 0.56496 0.0
H313 H 0.0136 0.30987 0.63867 0.0
H314 H 0.97522 0.17782 0.69833 0.0
H315 H 0.97531 0.22366 0.67477 0.0
H316 H 0.99652 0.20748 0.60398 0.0
C317 C 0.01677 0.31302 0.57155 0.0
C318 C 0.00941 0.28775 0.63087 0.0
C319 C 0.01643 0.33942 0.55815 0.0
C320 C 0.98876 0.1776 0.68309 0.0
C321 C 0.98869 0.20386 0.66955 0.0
C322 C 1.00039 0.22974 0.61168 0.0
C323 C 0.00406 0.31347 0.59325 0.0
C324 C 0.0045 0.28541 0.6076 0.0
C325 C 0.00519 0.20435 0.6493 0.0
C326 C 0.00505 0.23221 0.63493 0.0
H327 H 0.98112 0.3884 0.59473 0.0
H328 H 0.98057 0.34218 0.61766 0.0
H329 H 0.99559 0.25334 0.58041 0.0
H330 H 0.0359 0.13236 0.65131 0.0
H331 H 0.03511 0.17796 0.62749 0.0
C332 C 0.65713 0.03029 0.07611 0.0
C333 C 0.64717 0.00318 0.06547 0.0
C334 C 0.6836 0.03026 0.08944 0.0
C335 C 0.75545 0.98726 0.0999 0.0
H336 H 0.75501 0.03146 0.15643 0.0
C337 C 0.85467 0.9774 0.16411 0.0
C338 C 0.86395 0.00452 0.17507 0.0
C339 C 0.82824 0.97707 0.15073 0.0
C340 C 0.75564 0.0193 0.14057 0.0
H341 H 0.65743 0.95485 0.06028 0.0
H342 H 0.70344 0.9547 0.08381 0.0
H343 H 0.70894 0.03117 0.13307 0.0
H344 H 0.85299 0.05272 0.18021 0.0
H345 H 0.80693 0.05217 0.15683 0.0
H346 H 0.80219 0.97545 0.10738 0.0
C347 C 0.69088 0.97604 0.0817 0.0
C348 C 0.72922 0.01912 0.12719 0.0
C349 C 0.66435 0.97605 0.06841 0.0
C350 C 0.84621 0.03132 0.17229 0.0
C351 C 0.8198 0.031 0.15889 0.0
C352 C 0.7819 0.98746 0.11328 0.0
C353 C 0.70077 0.00314 0.09241 0.0
C354 C 0.72883 0.00314 0.10669 0.0
C355 C 0.81048 0.00386 0.14797 0.0
C356 C 0.78232 0.00352 0.13376 0.0
H357 H 0.64424 0.0515 0.07438 0.0
H358 H 0.69076 0.0516 0.09726 0.0
H359 H 0.75604 0.97508 0.08405 0.0
H360 H 0.86756 0.95624 0.16617 0.0
H361 H 0.82145 0.95566 0.14283 0.0
C362 C 0.03338 0.65934 0.57396 0.0
C363 C 0.0055 0.64687 0.56609 0.0
C364 C 0.03354 0.68588 0.58722 0.0
C365 C 0.98495 0.75263 0.60373 0.0
H366 H 0.04354 0.75898 0.65262 0.0
C367 C 0.97882 0.84784 0.67147 0.0
C368 C 0.00667 0.86267 0.67668 0.0
C369 C 0.97862 0.82158 0.6579 0.0
C370 C 0.02721 0.75762 0.63892 0.0
H371 H 0.95591 0.65305 0.56581 0.0
H372 H 0.9561 0.6985 0.58961 0.0
H373 H 0.04315 0.71304 0.62914 0.0
H374 H 0.05618 0.86139 0.67211 0.0
H375 H 0.05584 0.8154 0.64848 0.0
H376 H 0.96869 0.79706 0.6139 0.0
C377 C 0.97794 0.6881 0.58521 0.0
C378 C 0.02703 0.73134 0.62539 0.0
C379 C 0.9778 0.66171 0.5718 0.0
C380 C 0.03434 0.85057 0.66822 0.0
C381 C 0.03418 0.82413 0.65486 0.0
C382 C 0.98495 0.77877 0.61741 0.0
C383 C 0.00581 0.70053 0.59312 0.0
C384 C 0.00595 0.72852 0.60757 0.0
C385 C 0.0063 0.80943 0.64949 0.0
C386 C 0.00613 0.78157 0.6351 0.0
H387 H 0.05515 0.64837 0.57016 0.0
H388 H 0.05549 0.695 0.59271 0.0
H389 H 0.96875 0.75156 0.58995 0.0
H390 H 0.95713 0.85679 0.67762 0.0
H391 H 0.95682 0.81059 0.65417 0.0
C392 C 0.33823 0.00761 0.94575 0.0
C393 C 0.36724 0.01274 0.93606 0.0
C394 C 0.31165 0.00785 0.93253 0.0
C395 C 0.28214 0.03315 0.87694 0.0
H396 H 0.21674 0.97517 0.89007 0.0
C397 C 0.16494 0.0376 0.83121 0.0
C398 C 0.1506 0.0095 0.82605 0.0
C399 C 0.1912 0.03833 0.84477 0.0
C400 C 0.23489 0.99132 0.886 0.0
H401 H 0.39128 0.02168 0.90489 0.0
H402 H 0.34507 0.02143 0.8817 0.0
H403 H 0.26301 0.97535 0.91303 0.0
H404 H 0.15285 0.96007 0.83061 0.0
H405 H 0.19902 0.96118 0.85384 0.0
H406 H 0.25453 0.04831 0.84938 0.0
C407 C 0.34264 0.01802 0.8996 0.0
C408 C 0.26128 0.99174 0.89941 0.0
C409 C 0.36916 0.01807 0.91286 0.0
C410 C 0.16319 0.98211 0.83457 0.0
C411 C 0.1896 0.98279 0.84795 0.0
C412 C 0.25585 0.03256 0.86342 0.0
C413 C 0.31351 0.01292 0.90925 0.0
C414 C 0.28527 0.01266 0.89506 0.0
C415 C 0.20389 0.01092 0.85332 0.0
C416 C 0.23187 0.01164 0.86776 0.0
H417 H 0.33605 0.0038 0.96364 0.0
H418 H 0.2896 0.00439 0.94062 0.0
H419 H 0.29993 0.04985 0.87324 0.0
H420 H 0.15551 0.05911 0.8251 0.0
H421 H 0.20123 0.06045 0.84885 0.0
C422 C 0.02172 0.36761 0.41425 0.0
C423 C 0.00953 0.36696 0.43611 0.0
C424 C 0.02154 0.3412 0.40087 0.0
C425 C 0.98174 0.26754 0.39305 0.0
H426 H 0.05485 0.2446 0.35968 0.0
C427 C 0.99043 0.15211 0.34544 0.0
C428 C 0.00596 0.15184 0.32474 0.0
C429 C 0.99091 0.17827 0.35909 0.0
C430 C 0.03408 0.25088 0.36862 0.0
H431 H 0.98799 0.33769 0.46109 0.0
H432 H 0.98719 0.29175 0.43752 0.0
H433 H 0.05562 0.2904 0.38331 0.0
H434 H 0.03429 0.17908 0.30227 0.0
H435 H 0.03412 0.225 0.32563 0.0
H436 H 0.95994 0.22843 0.37812 0.0
C437 C 0.99671 0.31284 0.43076 0.0
C438 C 0.03459 0.27708 0.38222 0.0
C439 C 0.99711 0.3392 0.44422 0.0
C440 C 0.02176 0.17853 0.31796 0.0
C441 C 0.02205 0.20476 0.33154 0.0
C442 C 0.98113 0.24148 0.3793 0.0
C443 C 0.00894 0.31357 0.40895 0.0
C444 C 0.00844 0.28566 0.3946 0.0
C445 C 0.00672 0.20494 0.35233 0.0
C446 C 0.00731 0.23278 0.36692 0.0
H447 H 0.03093 0.38869 0.40727 0.0
H448 H 0.03076 0.34255 0.38402 0.0
H449 H 0.9611 0.27383 0.40217 0.0
H450 H 0.97767 0.13216 0.3511 0.0
H451 H 0.97915 0.17739 0.37509 0.0
C452 C 0.66707 0.03284 0.9365 0.0
C453 C 0.64661 0.0078 0.93614 0.0
C454 C 0.69359 0.03258 0.92322 0.0
C455 C 0.72547 0.99974 0.87185 0.0
H456 H 0.80484 0.02026 0.89761 0.0
C457 C 0.83813 0.98556 0.82159 0.0
C458 C 0.86168 0.00717 0.82505 0.0
C459 C 0.812 0.98551 0.83528 0.0
C460 C 0.78283 0.01494 0.89001 0.0
H461 H 0.63761 0.96302 0.92151 0.0
H462 H 0.68384 0.96273 0.89805 0.0
H463 H 0.75899 0.02086 0.9212 0.0
H464 H 0.8762 0.04606 0.84517 0.0
H465 H 0.83023 0.04672 0.86863 0.0
H466 H 0.74888 0.99459 0.84055 0.0
C467 C 0.6794 0.98246 0.90869 0.0
C468 C 0.7566 0.01516 0.9036 0.0
C469 C 0.65312 0.98253 0.92221 0.0
C470 C 0.85851 0.02891 0.84233 0.0
C471 C 0.83221 0.02915 0.85582 0.0
C472 C 0.75161 0.99991 0.85818 0.0
C473 C 0.6999 0.00747 0.90908 0.0
C474 C 0.7277 0.00744 0.89466 0.0
C475 C 0.80863 0.00736 0.85255 0.0
C476 C 0.78069 0.00741 0.86709 0.0
H477 H 0.66266 0.05252 0.94719 0.0
H478 H 0.70894 0.05223 0.92373 0.0
H479 H 0.70338 0.99407 0.86448 0.0
H480 H 0.84018 0.96831 0.80855 0.0
H481 H 0.79467 0.968 0.83249 0.0
C482 C 0.00282 0.67488 0.44526 0.0
C483 C 0.00792 0.64587 0.43552 0.0
C484 C 0.00293 0.70145 0.43203 0.0
C485 C 0.99171 0.72828 0.37426 0.0
H486 H 0.03785 0.79994 0.39362 0.0
C487 C 0.00934 0.83336 0.31651 0.0
C488 C 0.00847 0.8628 0.32631 0.0
C489 C 0.00946 0.80694 0.32988 0.0
C490 C 0.02448 0.78031 0.38809 0.0
H491 H 0.01664 0.62183 0.40429 0.0
H492 H 0.01671 0.66825 0.38116 0.0
H493 H 0.03709 0.75393 0.41703 0.0
H494 H 0.00752 0.88737 0.35802 0.0
H495 H 0.00656 0.8414 0.38124 0.0
H496 H 0.97861 0.75466 0.34554 0.0
C497 C 0.01267 0.67043 0.39902 0.0
C498 C 0.02413 0.75393 0.4015 0.0
C499 C 0.01289 0.64392 0.41227 0.0
C500 C 0.00777 0.86511 0.34984 0.0
C501 C 0.00767 0.83869 0.3632 0.0
C502 C 0.99182 0.75475 0.36095 0.0
C503 C 0.00779 0.69948 0.40877 0.0
C504 C 0.00783 0.72762 0.39469 0.0
C505 C 0.00851 0.80925 0.3534 0.0
C506 C 0.00829 0.78109 0.36765 0.0
H507 H 0.99912 0.67706 0.46316 0.0
H508 H 0.99888 0.72352 0.43997 0.0
H509 H 0.97862 0.70846 0.36873 0.0
H510 H 0.00952 0.83064 0.29845 0.0
H511 H 0.01055 0.78469 0.32173 0.0
loop_
_geom_bond_atom_site_label_1
_geom_bond_atom_site_label_2
_geom_bond_distance
_geom_bond_site_symmetry_2
_ccdc_geom_bond_type
H0 C19 0.949 . S
H1 C20 0.950 . S
H2 C22 0.950 . S
H3 C23 0.950 . S
H4 C25 0.950 1_565 S
H5 C28 0.950 . S
H6 C29 0.950 . S
H7 C31 0.951 . S
H8 C32 0.949 . S
H9 C34 0.949 . S
H10 C35 0.950 . S
H11 C37 0.950 . S
H12 C38 0.950 . S
H13 C40 0.950 . S
H14 C43 0.950 . S
H15 C44 0.950 . S
H16 C46 0.951 . S
H17 C47 0.949 . S
C18 C19 1.376 1_545 S
C18 C23 1.386 . S
C18 C24 1.483 . S
C19 H0 0.949 . S
C19 C18 1.376 1_565 S
C19 C20 1.397 . S
C20 H1 0.950 . S
C20 C19 1.397 . S
C20 C21 1.391 1_565 S
C21 C20 1.391 1_545 S
C21 C22 1.405 . S
C22 H2 0.950 . S
C22 C21 1.405 . S
C22 C23 1.367 . S
C23 H3 0.950 . S
C23 C18 1.386 . S
C23 C22 1.367 . S
C24 C18 1.483 . S
C24 C25 1.382 . S
C24 C26 1.403 1_554 S
C25 H4 0.950 1_545 S
C25 C24 1.382 . S
C25 C41 1.411 . S
C26 C24 1.403 1_556 S
C26 C27 1.489 . S
C26 C40 1.411 . S
C27 C26 1.489 . S
C27 C28 1.383 1_545 S
C27 C32 1.382 . S
C28 H5 0.950 . S
C28 C27 1.383 1_565 S
C28 C29 1.395 . S
C29 H6 0.950 . S
C29 C28 1.395 . S
C29 C30 1.288 1_565 S
C30 C29 1.288 1_545 S
C30 C31 1.392 . S
C31 H7 0.951 . S
C31 C30 1.392 . S
C31 C32 1.392 . S
C32 H8 0.949 . S
C32 C27 1.382 . S
C32 C31 1.392 . S
C33 C34 1.376 . S
C33 C38 1.386 1_545 S
C33 C39 1.483 . S
C34 H9 0.949 . S
C34 C33 1.376 . S
C34 C35 1.397 . S
C35 H10 0.950 . S
C35 C34 1.397 . S
C35 C36 1.391 . S
C36 C35 1.391 . S
C36 C37 1.405 1_545 S
C37 H11 0.950 . S
C37 C36 1.405 1_565 S
C37 C38 1.367 . S
C38 H12 0.950 . S
C38 C33 1.386 1_565 S
C38 C37 1.367 . S
C39 C33 1.483 . S
C39 C40 1.382 . S
C39 C41 1.403 1_556 S
C40 H13 0.950 . S
C40 C26 1.411 . S
C40 C39 1.382 . S
C41 C25 1.411 . S
C41 C39 1.403 1_554 S
C41 C42 1.489 . S
C42 C41 1.489 . S
C42 C43 1.383 . S
C42 C47 1.382 1_545 S
C43 H14 0.950 . S
C43 C42 1.383 . S
C43 C44 1.395 . S
C44 H15 0.950 . S
C44 C43 1.395 . S
C44 C45 1.288 . S
C45 C44 1.288 . S
C45 C46 1.392 1_545 S
C46 H16 0.951 . S
C46 C45 1.392 1_565 S
C46 C47 1.392 . S
C47 H17 0.949 . S
C47 C42 1.382 1_565 S
C47 C46 1.392 . S
H48 C67 0.949 . S
H49 C68 0.950 . S
H50 C70 0.950 . S
H51 C71 0.950 . S
H52 C73 0.950 . S
H53 C76 0.950 . S
H54 C77 0.950 . S
H55 C79 0.951 . S
H56 C80 0.949 . S
H57 C82 0.949 . S
H58 C83 0.950 . S
H59 C85 0.950 . S
H60 C86 0.950 . S
H61 C88 0.950 1_655 S
H62 C91 0.950 . S
H63 C92 0.950 . S
H64 C94 0.951 . S
H65 C95 0.949 . S
C66 C67 1.376 . S
C66 C71 1.386 1_455 S
C66 C72 1.483 . S
C67 H48 0.949 . S
C67 C66 1.376 . S
C67 C68 1.397 . S
C68 H49 0.950 . S
C68 C67 1.397 . S
C68 C69 1.391 . S
C69 C68 1.391 . S
C69 C70 1.405 1_455 S
C70 H50 0.950 . S
C70 C69 1.405 1_655 S
C70 C71 1.367 . S
C71 H51 0.950 . S
C71 C66 1.386 1_655 S
C71 C70 1.367 . S
C72 C66 1.483 . S
C72 C73 1.382 . S
C72 C74 1.403 . S
C73 H52 0.950 . S
C73 C72 1.382 . S
C73 C89 1.411 . S
C74 C72 1.403 . S
C74 C75 1.489 . S
C74 C88 1.411 . S
C75 C74 1.489 . S
C75 C76 1.383 . S
C75 C80 1.382 1_455 S
C76 H53 0.950 . S
C76 C75 1.383 . S
C76 C77 1.395 . S
C77 H54 0.950 . S
C77 C76 1.395 . S
C77 C78 1.288 . S
C78 C77 1.288 . S
C78 C79 1.392 1_455 S
C79 H55 0.951 . S
C79 C78 1.392 1_655 S
C79 C80 1.392 . S
C80 H56 0.949 . S
C80 C75 1.382 1_655 S
C80 C79 1.392 . S
C81 C82 1.376 1_455 S
C81 C86 1.386 . S
C81 C87 1.483 . S
C82 H57 0.949 . S
C82 C81 1.376 1_655 S
C82 C83 1.397 . S
C83 H58 0.950 . S
C83 C82 1.397 . S
C83 C84 1.391 1_655 S
C84 C83 1.391 1_455 S
C84 C85 1.405 . S
C85 H59 0.950 . S
C85 C84 1.405 . S
C85 C86 1.367 . S
C86 H60 0.950 . S
C86 C81 1.386 . S
C86 C85 1.367 . S
C87 C81 1.483 . S
C87 C88 1.382 . S
C87 C89 1.403 . S
C88 H61 0.950 1_455 S
C88 C74 1.411 . S
C88 C87 1.382 . S
C89 C73 1.411 . S
C89 C87 1.403 . S
C89 C90 1.489 . S
C90 C89 1.489 . S
C90 C91 1.383 1_455 S
C90 C95 1.382 . S
C91 H62 0.950 . S
C91 C90 1.383 1_655 S
C91 C92 1.395 . S
C92 H63 0.950 . S
C92 C91 1.395 . S
C92 C93 1.288 1_655 S
C93 C92 1.288 1_455 S
C93 C94 1.392 . S
C94 H64 0.951 . S
C94 C93 1.392 . S
C94 C95 1.392 . S
C95 H65 0.949 . S
C95 C90 1.382 . S
C95 C94 1.392 . S
Li96 N113 1.990 . S
Li96 O156 1.956 . S
Li96 O157 1.970 1_455 S
Li96 O158 1.961 . S
Li97 N121 1.990 . S
Li97 O156 1.970 1_565 S
Li97 O157 1.956 1_465 S
Li97 O159 1.961 . S
Li98 N143 1.990 . S
Li98 O156 1.961 . S
Li98 O158 1.956 . S
Li98 O159 1.970 1_545 S
Li99 N149 1.990 . S
Li99 O157 1.961 . S
Li99 O158 1.970 1_655 S
Li99 O159 1.956 1_645 S
C100 C102 1.348 1_545 S
C100 C103 1.356 . S
C100 O156 1.325 . S
N101 C104 1.314 1_545 S
N101 C105 1.279 . S
C102 C100 1.348 1_565 S
C102 C104 1.353 . S
C102 H160 0.929 . S
C103 C100 1.356 . S
C103 C105 1.358 . S
C103 H161 0.930 . S
C104 N101 1.314 1_565 S
C104 C102 1.353 . S
C104 H162 0.930 . S
C105 N101 1.279 . S
C105 C103 1.358 . S
C105 H163 0.930 . S
C106 C109 1.348 . S
C106 C110 1.356 1_545 S
C106 O157 1.325 . S
C107 N108 1.279 1_565 S
C107 C110 1.358 . S
C107 H164 0.930 . S
N108 C107 1.279 1_545 S
N108 C111 1.314 . S
C109 C106 1.348 . S
C109 C111 1.353 . S
C109 H165 0.929 . S
C110 C106 1.356 1_565 S
C110 C107 1.358 . S
C110 H166 0.930 . S
C111 N108 1.314 . S
C111 C109 1.353 . S
C111 H167 0.930 . S
C112 N113 1.314 1_655 S
C112 C117 1.353 . S
C112 H118 0.930 . S
N113 Li96 1.990 . S
N113 C112 1.314 1_455 S
N113 C115 1.279 . S
C114 C115 1.358 . S
C114 C116 1.356 . S
C114 H168 0.930 . S
C115 N113 1.279 . S
C115 C114 1.358 . S
C115 H119 0.930 . S
C116 C114 1.356 . S
C116 C117 1.348 1_455 S
C117 C112 1.353 . S
C117 C116 1.348 1_655 S
C117 H169 0.929 . S
H118 C112 0.930 . S
H119 C115 0.930 . S
C120 N121 1.314 . S
C120 C122 1.353 . S
C120 H126 0.930 . S
N121 Li97 1.990 . S
N121 C120 1.314 . S
N121 C124 1.279 1_455 S
C122 C120 1.353 . S
C122 C125 1.348 . S
C122 H170 0.929 . S
C123 C124 1.358 . S
C123 C125 1.356 1_655 S
C123 H171 0.930 . S
C124 N121 1.279 1_655 S
C124 C123 1.358 . S
C124 H127 0.930 . S
C125 C122 1.348 . S
C125 C123 1.356 1_455 S
H126 C120 0.930 . S
H127 C124 0.930 . S
C128 C130 1.348 1_455 S
C128 C131 1.356 . S
C128 O158 1.325 . S
N129 C132 1.314 1_455 S
N129 C133 1.279 . S
C130 C128 1.348 1_655 S
C130 C132 1.353 . S
C130 H172 0.929 . S
C131 C128 1.356 . S
C131 C133 1.358 . S
C131 H173 0.930 . S
C132 N129 1.314 1_655 S
C132 C130 1.353 . S
C132 H174 0.930 . S
C133 N129 1.279 . S
C133 C131 1.358 . S
C133 H175 0.930 . S
C134 C135 1.348 . S
C134 C136 1.356 1_455 S
C134 O159 1.325 . S
C135 C134 1.348 . S
C135 C137 1.353 . S
C135 H176 0.929 . S
C136 C134 1.356 1_655 S
C136 C138 1.358 . S
C136 H177 0.930 . S
C137 C135 1.353 . S
C137 N139 1.314 . S
C137 H178 0.930 . S
C138 C136 1.358 . S
C138 N139 1.279 1_655 S
C138 H179 0.930 . S
N139 C137 1.314 . S
N139 C138 1.279 1_455 S
C140 C142 1.353 . S
C140 N143 1.314 1_565 S
C140 H146 0.930 . S
C141 N143 1.279 . S
C141 C144 1.358 . S
C141 H147 0.930 . S
C142 C140 1.353 . S
C142 C145 1.348 1_565 S
C142 H180 0.929 . S
N143 Li98 1.990 . S
N143 C140 1.314 1_545 S
N143 C141 1.279 . S
C144 C141 1.358 . S
C144 C145 1.356 . S
C144 H181 0.930 . S
C145 C142 1.348 1_545 S
C145 C144 1.356 . S
H146 C140 0.930 . S
H147 C141 0.930 . S
C148 N149 1.314 . S
C148 C150 1.353 . S
C148 H154 0.930 . S
N149 Li99 1.990 . S
N149 C148 1.314 . S
N149 C152 1.279 1_545 S
C150 C148 1.353 . S
C150 C153 1.348 . S
C150 H182 0.929 . S
C151 C152 1.358 . S
C151 C153 1.356 1_565 S
C151 H183 0.930 . S
C152 N149 1.279 1_565 S
C152 C151 1.358 . S
C152 H155 0.930 . S
C153 C150 1.348 . S
C153 C151 1.356 1_545 S
H154 C148 0.930 . S
H155 C152 0.930 . S
O156 Li96 1.956 . S
O156 Li97 1.970 1_545 S
O156 Li98 1.961 . S
O156 C100 1.325 . S
O157 Li96 1.970 1_655 S
O157 Li97 1.956 1_645 S
O157 Li99 1.961 . S
O157 C106 1.325 . S
O158 Li96 1.961 . S
O158 Li98 1.956 . S
O158 Li99 1.970 1_455 S
O158 C128 1.325 . S
O159 Li97 1.961 . S
O159 Li98 1.970 1_565 S
O159 Li99 1.956 1_465 S
O159 C134 1.325 . S
H160 C102 0.929 . S
H161 C103 0.930 . S
H162 C104 0.930 . S
H163 C105 0.930 . S
H164 C107 0.930 . S
H165 C109 0.929 . S
H166 C110 0.930 . S
H167 C111 0.930 . S
H168 C114 0.930 . S
H169 C117 0.929 . S
H170 C122 0.929 . S
H171 C123 0.930 . S
H172 C130 0.929 . S
H173 C131 0.930 . S
H174 C132 0.930 . S
H175 C133 0.930 . S
H176 C135 0.929 . S
H177 C136 0.930 . S
H178 C137 0.930 . S
H179 C138 0.930 . S
H180 C142 0.929 . S
H181 C144 0.930 . S
H182 C150 0.929 . S
H183 C151 0.930 . S
Li184 N201 1.990 . S
Li184 O244 1.956 1_655 S
Li184 O245 1.970 1_645 S
Li184 O246 1.961 . S
Li185 N209 1.990 . S
Li185 O244 1.970 . S
Li185 O245 1.956 1_545 S
Li185 O247 1.961 . S
Li186 N231 1.990 . S
Li186 O244 1.961 . S
Li186 O246 1.956 1_455 S
Li186 O247 1.970 . S
Li187 N237 1.990 . S
Li187 O245 1.961 . S
Li187 O246 1.970 1_465 S
Li187 O247 1.956 1_565 S
C188 C190 1.348 . S
C188 C191 1.356 1_455 S
C188 O244 1.325 . S
N189 C192 1.314 . S
N189 C193 1.279 1_455 S
C190 C188 1.348 . S
C190 C192 1.353 . S
C190 H248 0.929 . S
C191 C188 1.356 1_655 S
C191 C193 1.358 . S
C191 H249 0.930 . S
C192 N189 1.314 . S
C192 C190 1.353 . S
C192 H250 0.930 . S
C193 N189 1.279 1_655 S
C193 C191 1.358 . S
C193 H251 0.930 . S
C194 C197 1.348 1_455 S
C194 C198 1.356 . S
C194 O245 1.325 . S
C195 N196 1.279 . S
C195 C198 1.358 . S
C195 H252 0.930 . S
N196 C195 1.279 . S
N196 C199 1.314 1_455 S
C197 C194 1.348 1_655 S
C197 C199 1.353 . S
C197 H253 0.929 . S
C198 C194 1.356 . S
C198 C195 1.358 . S
C198 H254 0.930 . S
C199 N196 1.314 1_655 S
C199 C197 1.353 . S
C199 H255 0.930 . S
C200 N201 1.314 1_565 S
C200 C205 1.353 . S
C200 H206 0.930 . S
N201 Li184 1.990 . S
N201 C200 1.314 1_545 S
N201 C203 1.279 . S
C202 C203 1.358 . S
C202 C204 1.356 . S
C202 H256 0.930 . S
C203 N201 1.279 . S
C203 C202 1.358 . S
C203 H207 0.930 . S
C204 C202 1.356 . S
C204 C205 1.348 1_545 S
C205 C200 1.353 . S
C205 C204 1.348 1_565 S
C205 H257 0.929 . S
H206 C200 0.930 . S
H207 C203 0.930 . S
C208 N209 1.314 . S
C208 C210 1.353 . S
C208 H214 0.930 . S
N209 Li185 1.990 . S
N209 C208 1.314 . S
N209 C212 1.279 1_545 S
C210 C208 1.353 . S
C210 C213 1.348 . S
C210 H258 0.929 . S
C211 C212 1.358 . S
C211 C213 1.356 1_565 S
C211 H259 0.930 . S
C212 N209 1.279 1_565 S
C212 C211 1.358 . S
C212 H215 0.930 . S
C213 C210 1.348 . S
C213 C211 1.356 1_545 S
H214 C208 0.930 . S
H215 C212 0.930 . S
C216 C218 1.348 1_545 S
C216 C219 1.356 . S
C216 O246 1.325 . S
N217 C220 1.314 1_545 S
N217 C221 1.279 . S
C218 C216 1.348 1_565 S
C218 C220 1.353 . S
C218 H260 0.929 . S
C219 C216 1.356 . S
C219 C221 1.358 . S
C219 H261 0.930 . S
C220 N217 1.314 1_565 S
C220 C218 1.353 . S
C220 H262 0.930 . S
C221 N217 1.279 . S
C221 C219 1.358 . S
C221 H263 0.930 . S
C222 C223 1.348 . S
C222 C224 1.356 1_545 S
C222 O247 1.325 . S
C223 C222 1.348 . S
C223 C225 1.353 . S
C223 H264 0.929 . S
C224 C222 1.356 1_565 S
C224 C226 1.358 . S
C224 H265 0.930 . S
C225 C223 1.353 . S
C225 N227 1.314 . S
C225 H266 0.930 . S
C226 C224 1.358 . S
C226 N227 1.279 1_565 S
C226 H267 0.930 . S
N227 C225 1.314 . S
N227 C226 1.279 1_545 S
C228 C230 1.353 . S
C228 N231 1.314 . S
C228 H234 0.930 . S
C229 N231 1.279 1_655 S
C229 C232 1.358 . S
C229 H235 0.930 . S
C230 C228 1.353 . S
C230 C233 1.348 . S
C230 H268 0.929 . S
N231 Li186 1.990 . S
N231 C228 1.314 . S
N231 C229 1.279 1_455 S
C232 C229 1.358 . S
C232 C233 1.356 1_655 S
C232 H269 0.930 . S
C233 C230 1.348 . S
C233 C232 1.356 1_455 S
H234 C228 0.930 . S
H235 C229 0.930 . S
C236 N237 1.314 1_655 S
C236 C238 1.353 . S
C236 H242 0.930 . S
N237 Li187 1.990 . S
N237 C236 1.314 1_455 S
N237 C240 1.279 . S
C238 C236 1.353 . S
C238 C241 1.348 1_655 S
C238 H270 0.929 . S
C239 C240 1.358 . S
C239 C241 1.356 . S
C239 H271 0.930 . S
C240 N237 1.279 . S
C240 C239 1.358 . S
C240 H243 0.930 . S
C241 C238 1.348 1_455 S
C241 C239 1.356 . S
H242 C236 0.930 . S
H243 C240 0.930 . S
O244 Li184 1.956 1_455 S
O244 Li185 1.970 . S
O244 Li186 1.961 . S
O244 C188 1.325 . S
O245 Li184 1.970 1_465 S
O245 Li185 1.956 1_565 S
O245 Li187 1.961 . S
O245 C194 1.325 . S
O246 Li184 1.961 . S
O246 Li186 1.956 1_655 S
O246 Li187 1.970 1_645 S
O246 C216 1.325 . S
O247 Li185 1.961 . S
O247 Li186 1.970 . S
O247 Li187 1.956 1_545 S
O247 C222 1.325 . S
H248 C190 0.929 . S
H249 C191 0.930 . S
H250 C192 0.930 . S
H251 C193 0.930 . S
H252 C195 0.930 . S
H253 C197 0.929 . S
H254 C198 0.930 . S
H255 C199 0.930 . S
H256 C202 0.930 . S
H257 C205 0.929 . S
H258 C210 0.929 . S
H259 C211 0.930 . S
H260 C218 0.929 . S
H261 C219 0.930 . S
H262 C220 0.930 . S
H263 C221 0.930 . S
H264 C223 0.929 . S
H265 C224 0.930 . S
H266 C225 0.930 . S
H267 C226 0.930 . S
H268 C230 0.929 . S
H269 C232 0.930 . S
H270 C238 0.929 . S
H271 C239 0.930 . S
C272 C273 1.349 . S
C272 C274 1.327 . S
C272 H297 0.950 . S
C273 C272 1.349 . S
C273 C289 1.349 1_545 S
C274 C272 1.327 . S
C274 C293 1.429 . S
C274 H298 0.950 . S
C275 C292 1.574 . S
C275 C294 1.368 1_565 S
C275 H299 0.949 . S
H276 C280 0.949 . S
C277 C278 1.349 1_565 S
C277 C279 1.327 . S
C277 H300 0.950 . S
C278 C277 1.349 1_545 S
C278 C290 1.349 . S
C279 C277 1.327 . S
C279 C295 1.429 1_565 S
C279 H301 0.950 . S
C280 H276 0.949 . S
C280 C288 1.574 . S
C280 C296 1.368 . S
H281 C289 0.950 . S
H282 C287 0.950 . S
H283 C288 0.949 . S
H284 C290 0.950 . S
H285 C291 0.950 . S
H286 C292 0.949 . S
C287 H282 0.950 . S
C287 C289 1.327 . S
C287 C293 1.429 1_565 S
C288 C280 1.574 . S
C288 H283 0.949 . S
C288 C294 1.368 . S
C289 C273 1.349 1_565 S
C289 H281 0.950 . S
C289 C287 1.327 . S
C290 C278 1.349 . S
C290 H284 0.950 . S
C290 C291 1.327 . S
C291 H285 0.950 . S
C291 C290 1.327 . S
C291 C295 1.429 . S
C292 C275 1.574 . S
C292 H286 0.949 . S
C292 C296 1.368 1_565 S
C293 C274 1.429 . S
C293 C287 1.429 1_545 S
C293 C294 1.523 . S
C294 C275 1.368 1_545 S
C294 C288 1.368 . S
C294 C293 1.523 . S
C295 C279 1.429 1_545 S
C295 C291 1.429 . S
C295 C296 1.523 . S
C296 C280 1.368 . S
C296 C292 1.368 1_545 S
C296 C295 1.523 . S
H297 C272 0.950 . S
H298 C274 0.950 . S
H299 C275 0.949 . S
H300 C277 0.950 . S
H301 C279 0.950 . S
C302 C303 1.349 . S
C302 C304 1.327 . S
C302 H327 0.950 . S
C303 C302 1.349 . S
C303 C319 1.349 1_455 S
C304 C302 1.327 . S
C304 C323 1.429 . S
C304 H328 0.950 . S
C305 C322 1.574 . S
C305 C324 1.368 1_655 S
C305 H329 0.949 . S
H306 C310 0.949 . S
C307 C308 1.349 1_655 S
C307 C309 1.327 . S
C307 H330 0.950 . S
C308 C307 1.349 1_455 S
C308 C320 1.349 . S
C309 C307 1.327 . S
C309 C325 1.429 1_655 S
C309 H331 0.950 . S
C310 H306 0.949 . S
C310 C318 1.574 . S
C310 C326 1.368 . S
H311 C319 0.950 . S
H312 C317 0.950 . S
H313 C318 0.949 . S
H314 C320 0.950 . S
H315 C321 0.950 . S
H316 C322 0.949 . S
C317 H312 0.950 . S
C317 C319 1.327 . S
C317 C323 1.429 1_655 S
C318 C310 1.574 . S
C318 H313 0.949 . S
C318 C324 1.368 . S
C319 C303 1.349 1_655 S
C319 H311 0.950 . S
C319 C317 1.327 . S
C320 C308 1.349 . S
C320 H314 0.950 . S
C320 C321 1.327 . S
C321 H315 0.950 . S
C321 C320 1.327 . S
C321 C325 1.429 . S
C322 C305 1.574 . S
C322 H316 0.949 . S
C322 C326 1.368 1_655 S
C323 C304 1.429 . S
C323 C317 1.429 1_455 S
C323 C324 1.523 . S
C324 C305 1.368 1_455 S
C324 C318 1.368 . S
C324 C323 1.523 . S
C325 C309 1.429 1_455 S
C325 C321 1.429 . S
C325 C326 1.523 . S
C326 C310 1.368 . S
C326 C322 1.368 1_455 S
C326 C325 1.523 . S
H327 C302 0.950 . S
H328 C304 0.950 . S
H329 C305 0.949 . S
H330 C307 0.950 . S
H331 C309 0.950 . S
C332 C333 1.349 . S
C332 C334 1.327 . S
C332 H357 0.950 . S
C333 C332 1.349 . S
C333 C349 1.349 1_545 S
C334 C332 1.327 . S
C334 C353 1.429 . S
C334 H358 0.950 . S
C335 C352 1.574 . S
C335 C354 1.368 1_565 S
C335 H359 0.949 . S
H336 C340 0.949 . S
C337 C338 1.349 1_565 S
C337 C339 1.327 . S
C337 H360 0.950 . S
C338 C337 1.349 1_545 S
C338 C350 1.349 . S
C339 C337 1.327 . S
C339 C355 1.429 1_565 S
C339 H361 0.950 . S
C340 H336 0.949 . S
C340 C348 1.574 . S
C340 C356 1.368 . S
H341 C349 0.950 . S
H342 C347 0.950 . S
H343 C348 0.949 . S
H344 C350 0.950 . S
H345 C351 0.950 . S
H346 C352 0.949 . S
C347 H342 0.950 . S
C347 C349 1.327 . S
C347 C353 1.429 1_565 S
C348 C340 1.574 . S
C348 H343 0.949 . S
C348 C354 1.368 . S
C349 C333 1.349 1_565 S
C349 H341 0.950 . S
C349 C347 1.327 . S
C350 C338 1.349 . S
C350 H344 0.950 . S
C350 C351 1.327 . S
C351 H345 0.950 . S
C351 C350 1.327 . S
C351 C355 1.429 . S
C352 C335 1.574 . S
C352 H346 0.949 . S
C352 C356 1.368 1_565 S
C353 C334 1.429 . S
C353 C347 1.429 1_545 S
C353 C354 1.523 . S
C354 C335 1.368 1_545 S
C354 C348 1.368 . S
C354 C353 1.523 . S
C355 C339 1.429 1_545 S
C355 C351 1.429 . S
C355 C356 1.523 . S
C356 C340 1.368 . S
C356 C352 1.368 1_545 S
C356 C355 1.523 . S
H357 C332 0.950 . S
H358 C334 0.950 . S
H359 C335 0.949 . S
H360 C337 0.950 . S
H361 C339 0.950 . S
C362 C363 1.349 . S
C362 C364 1.327 . S
C362 H387 0.950 . S
C363 C362 1.349 . S
C363 C379 1.349 1_455 S
C364 C362 1.327 . S
C364 C383 1.429 . S
C364 H388 0.950 . S
C365 C382 1.574 . S
C365 C384 1.368 1_655 S
C365 H389 0.949 . S
H366 C370 0.949 . S
C367 C368 1.349 1_655 S
C367 C369 1.327 . S
C367 H390 0.950 . S
C368 C367 1.349 1_455 S
C368 C380 1.349 . S
C369 C367 1.327 . S
C369 C385 1.429 1_655 S
C369 H391 0.950 . S
C370 H366 0.949 . S
C370 C378 1.574 . S
C370 C386 1.368 . S
H371 C379 0.950 . S
H372 C377 0.950 . S
H373 C378 0.949 . S
H374 C380 0.950 . S
H375 C381 0.950 . S
H376 C382 0.949 . S
C377 H372 0.950 . S
C377 C379 1.327 . S
C377 C383 1.429 1_655 S
C378 C370 1.574 . S
C378 H373 0.949 . S
C378 C384 1.368 . S
C379 C363 1.349 1_655 S
C379 H371 0.950 . S
C379 C377 1.327 . S
C380 C368 1.349 . S
C380 H374 0.950 . S
C380 C381 1.327 . S
C381 H375 0.950 . S
C381 C380 1.327 . S
C381 C385 1.429 . S
C382 C365 1.574 . S
C382 H376 0.949 . S
C382 C386 1.368 1_655 S
C383 C364 1.429 . S
C383 C377 1.429 1_455 S
C383 C384 1.523 . S
C384 C365 1.368 1_455 S
C384 C378 1.368 . S
C384 C383 1.523 . S
C385 C369 1.429 1_455 S
C385 C381 1.429 . S
C385 C386 1.523 . S
C386 C370 1.368 . S
C386 C382 1.368 1_455 S
C386 C385 1.523 . S
H387 C362 0.950 . S
H388 C364 0.950 . S
H389 C365 0.949 . S
H390 C367 0.950 . S
H391 C369 0.950 . S
C392 C393 1.349 1_565 S
C392 C394 1.327 . S
C392 H417 0.950 . S
C393 C392 1.349 1_545 S
C393 C409 1.349 . S
C394 C392 1.327 . S
C394 C413 1.429 1_565 S
C394 H418 0.950 . S
C395 C412 1.574 . S
C395 C414 1.368 . S
C395 H419 0.949 . S
H396 C400 0.949 . S
C397 C398 1.349 . S
C397 C399 1.327 . S
C397 H420 0.950 . S
C398 C397 1.349 . S
C398 C410 1.349 1_545 S
C399 C397 1.327 . S
C399 C415 1.429 . S
C399 H421 0.950 . S
C400 H396 0.949 . S
C400 C408 1.574 . S
C400 C416 1.368 1_565 S
H401 C409 0.950 . S
H402 C407 0.950 . S
H403 C408 0.949 . S
H404 C410 0.950 . S
H405 C411 0.950 . S
H406 C412 0.949 . S
C407 H402 0.950 . S
C407 C409 1.327 . S
C407 C413 1.429 . S
C408 C400 1.574 . S
C408 H403 0.949 . S
C408 C414 1.368 1_565 S
C409 C393 1.349 . S
C409 H401 0.950 . S
C409 C407 1.327 . S
C410 C398 1.349 1_565 S
C410 H404 0.950 . S
C410 C411 1.327 . S
C411 H405 0.950 . S
C411 C410 1.327 . S
C411 C415 1.429 1_565 S
C412 C395 1.574 . S
C412 H406 0.949 . S
C412 C416 1.368 . S
C413 C394 1.429 1_545 S
C413 C407 1.429 . S
C413 C414 1.523 . S
C414 C395 1.368 . S
C414 C408 1.368 1_545 S
C414 C413 1.523 . S
C415 C399 1.429 . S
C415 C411 1.429 1_545 S
C415 C416 1.523 . S
C416 C400 1.368 1_545 S
C416 C412 1.368 . S
C416 C415 1.523 . S
H417 C392 0.950 . S
H418 C394 0.950 . S
H419 C395 0.949 . S
H420 C397 0.950 . S
H421 C399 0.950 . S
C422 C423 1.349 . S
C422 C424 1.327 . S
C422 H447 0.950 . S
C423 C422 1.349 . S
C423 C439 1.349 1_455 S
C424 C422 1.327 . S
C424 C443 1.429 . S
C424 H448 0.950 . S
C425 C442 1.574 . S
C425 C444 1.368 1_655 S
C425 H449 0.949 . S
H426 C430 0.949 . S
C427 C428 1.349 1_655 S
C427 C429 1.327 . S
C427 H450 0.950 . S
C428 C427 1.349 1_455 S
C428 C440 1.349 . S
C429 C427 1.327 . S
C429 C445 1.429 1_655 S
C429 H451 0.950 . S
C430 H426 0.949 . S
C430 C438 1.574 . S
C430 C446 1.368 . S
H431 C439 0.950 . S
H432 C437 0.950 . S
H433 C438 0.949 . S
H434 C440 0.950 . S
H435 C441 0.950 . S
H436 C442 0.949 . S
C437 H432 0.950 . S
C437 C439 1.327 . S
C437 C443 1.429 1_655 S
C438 C430 1.574 . S
C438 H433 0.949 . S
C438 C444 1.368 . S
C439 C423 1.349 1_655 S
C439 H431 0.950 . S
C439 C437 1.327 . S
C440 C428 1.349 . S
C440 H434 0.950 . S
C440 C441 1.327 . S
C441 H435 0.950 . S
C441 C440 1.327 . S
C441 C445 1.429 . S
C442 C425 1.574 . S
C442 H436 0.949 . S
C442 C446 1.368 1_655 S
C443 C424 1.429 . S
C443 C437 1.429 1_455 S
C443 C444 1.523 . S
C444 C425 1.368 1_455 S
C444 C438 1.368 . S
C444 C443 1.523 . S
C445 C429 1.429 1_455 S
C445 C441 1.429 . S
C445 C446 1.523 . S
C446 C430 1.368 . S
C446 C442 1.368 1_455 S
C446 C445 1.523 . S
H447 C422 0.950 . S
H448 C424 0.950 . S
H449 C425 0.949 . S
H450 C427 0.950 . S
H451 C429 0.950 . S
C452 C453 1.349 . S
C452 C454 1.327 . S
C452 H477 0.950 . S
C453 C452 1.349 . S
C453 C469 1.349 1_545 S
C454 C452 1.327 . S
C454 C473 1.429 . S
C454 H478 0.950 . S
C455 C472 1.574 . S
C455 C474 1.368 1_565 S
C455 H479 0.949 . S
H456 C460 0.949 . S
C457 C458 1.349 1_565 S
C457 C459 1.327 . S
C457 H480 0.950 . S
C458 C457 1.349 1_545 S
C458 C470 1.349 . S
C459 C457 1.327 . S
C459 C475 1.429 1_565 S
C459 H481 0.950 . S
C460 H456 0.949 . S
C460 C468 1.574 . S
C460 C476 1.368 . S
H461 C469 0.950 . S
H462 C467 0.950 . S
H463 C468 0.949 . S
H464 C470 0.950 . S
H465 C471 0.950 . S
H466 C472 0.949 . S
C467 H462 0.950 . S
C467 C469 1.327 . S
C467 C473 1.429 1_565 S
C468 C460 1.574 . S
C468 H463 0.949 . S
C468 C474 1.368 . S
C469 C453 1.349 1_565 S
C469 H461 0.950 . S
C469 C467 1.327 . S
C470 C458 1.349 . S
C470 H464 0.950 . S
C470 C471 1.327 . S
C471 H465 0.950 . S
C471 C470 1.327 . S
C471 C475 1.429 . S
C472 C455 1.574 . S
C472 H466 0.949 . S
C472 C476 1.368 1_565 S
C473 C454 1.429 . S
C473 C467 1.429 1_545 S
C473 C474 1.523 . S
C474 C455 1.368 1_545 S
C474 C468 1.368 . S
C474 C473 1.523 . S
C475 C459 1.429 1_545 S
C475 C471 1.429 . S
C475 C476 1.523 . S
C476 C460 1.368 . S
C476 C472 1.368 1_545 S
C476 C475 1.523 . S
H477 C452 0.950 . S
H478 C454 0.950 . S
H479 C455 0.949 . S
H480 C457 0.950 . S
H481 C459 0.950 . S
C482 C483 1.349 . S
C482 C484 1.327 . S
C482 H507 0.950 . S
C483 C482 1.349 . S
C483 C499 1.349 1_455 S
C484 C482 1.327 . S
C484 C503 1.429 . S
C484 H508 0.950 . S
C485 C502 1.574 . S
C485 C504 1.368 1_655 S
C485 H509 0.949 . S
H486 C490 0.949 . S
C487 C488 1.349 1_655 S
C487 C489 1.327 . S
C487 H510 0.950 . S
C488 C487 1.349 1_455 S
C488 C500 1.349 . S
C489 C487 1.327 . S
C489 C505 1.429 1_655 S
C489 H511 0.950 . S
C490 H486 0.949 . S
C490 C498 1.574 . S
C490 C506 1.368 . S
H491 C499 0.950 . S
H492 C497 0.950 . S
H493 C498 0.949 . S
H494 C500 0.950 . S
H495 C501 0.950 . S
H496 C502 0.949 . S
C497 H492 0.950 . S
C497 C499 1.327 . S
C497 C503 1.429 1_655 S
C498 C490 1.574 . S
C498 H493 0.949 . S
C498 C504 1.368 . S
C499 C483 1.349 1_655 S
C499 H491 0.950 . S
C499 C497 1.327 . S
C500 C488 1.349 . S
C500 H494 0.950 . S
C500 C501 1.327 . S
C501 H495 0.950 . S
C501 C500 1.327 . S
C501 C505 1.429 . S
C502 C485 1.574 . S
C502 H496 0.949 . S
C502 C506 1.368 1_655 S
C503 C484 1.429 . S
C503 C497 1.429 1_455 S
C503 C504 1.523 . S
C504 C485 1.368 1_455 S
C504 C498 1.368 . S
C504 C503 1.523 . S
C505 C489 1.429 1_455 S
C505 C501 1.429 . S
C505 C506 1.523 . S
C506 C490 1.368 . S
C506 C502 1.368 1_455 S
C506 C505 1.523 . S
H507 C482 0.950 . S
H508 C484 0.950 . S
H509 C485 0.949 . S
H510 C487 0.950 . S
H511 C489 0.950 . S
C278 C145 1.518 . S
C273 C45 1.513 . S
C308 C233 1.518 . S
C303 C78 1.513 . S
C338 C153 1.518 . S
C333 C21 1.517 . S
C368 C241 1.518 . S
C363 C84 1.517 . S
C398 C213 1.518 . S
C393 C36 1.516 . S
C428 C116 1.518 . S
C423 C69 1.517 . S
C458 C204 1.518 . S
C453 C30 1.513 . S
C483 C93 1.513 . S
C488 C125 1.518 . S
