# Generated by pormake.
# Topology zzz, (3,6)-cn, num edge types: 1
# Building blocks:
#     Node 0, Type 0, BuildingBlock: MIDCAF_clean_linker_0, # of connection points: 3
#     Node 1, Type 0, BuildingBlock: MIDCAF_clean_linker_0, # of connection points: 3
#     Node 2, Type 0, BuildingBlock: MIDCAF_clean_linker_0, # of connection points: 3
#     Node 3, Type 0, BuildingBlock: MIDCAF_clean_linker_0, # of connection points: 3
#     Node 4, Type 0, BuildingBlock: MIDCAF_clean_linker_0, # of connection points: 3
#     Node 5, Type 0, BuildingBlock: MIDCAF_clean_linker_0, # of connection points: 3
#     Node 6, Type 0, BuildingBlock: MIDCAF_clean_linker_0, # of connection points: 3
#     Node 7, Type 0, BuildingBlock: MIDCAF_clean_linker_0, # of connection points: 3
#     Node 8, Type 1, BuildingBlock: CUWYAW_clean_sbu_0, # of connection points: 6
#     Node 9, Type 1, BuildingBlock: CUWYAW_clean_sbu_0, # of connection points: 6
#     Node 10, Type 1, BuildingBlock: CUWYAW_clean_sbu_0, # of connection points: 6
#     Node 11, Type 1, BuildingBlock: CUWYAW_clean_sbu_0, # of connection points: 6
#     Edge 12, Type (0, 1), BuildingBlock: MIFKUJ_clean_linker_0, # of connection points: 2
#     Edge 13, Type (0, 1), BuildingBlock: MIFKUJ_clean_linker_0, # of connection points: 2
#     Edge 14, Type (0, 1), BuildingBlock: MIFKUJ_clean_linker_0, # of connection points: 2
#     Edge 15, Type (0, 1), BuildingBlock: MIFKUJ_clean_linker_0, # of connection points: 2
#     Edge 16, Type (0, 1), BuildingBlock: MIFKUJ_clean_linker_0, # of connection points: 2
#     Edge 17, Type (0, 1), BuildingBlock: MIFKUJ_clean_linker_0, # of connection points: 2
#     Edge 18, Type (0, 1), BuildingBlock: MIFKUJ_clean_linker_0, # of connection points: 2
#     Edge 19, Type (0, 1), BuildingBlock: MIFKUJ_clean_linker_0, # of connection points: 2
#     Edge 20, Type (0, 1), BuildingBlock: MIFKUJ_clean_linker_0, # of connection points: 2
#     Edge 21, Type (0, 1), BuildingBlock: MIFKUJ_clean_linker_0, # of connection points: 2
#     Edge 22, Type (0, 1), BuildingBlock: MIFKUJ_clean_linker_0, # of connection points: 2
#     Edge 23, Type (0, 1), BuildingBlock: MIFKUJ_clean_linker_0, # of connection points: 2
#     Edge 24, Type (0, 1), BuildingBlock: MIFKUJ_clean_linker_0, # of connection points: 2
#     Edge 25, Type (0, 1), BuildingBlock: MIFKUJ_clean_linker_0, # of connection points: 2
#     Edge 26, Type (0, 1), BuildingBlock: MIFKUJ_clean_linker_0, # of connection points: 2
#     Edge 27, Type (0, 1), BuildingBlock: MIFKUJ_clean_linker_0, # of connection points: 2
#     Edge 28, Type (0, 1), BuildingBlock: MIFKUJ_clean_linker_0, # of connection points: 2
#     Edge 29, Type (0, 1), BuildingBlock: MIFKUJ_clean_linker_0, # of connection points: 2
#     Edge 30, Type (0, 1), BuildingBlock: MIFKUJ_clean_linker_0, # of connection points: 2
#     Edge 31, Type (0, 1), BuildingBlock: MIFKUJ_clean_linker_0, # of connection points: 2
#     Edge 32, Type (0, 1), BuildingBlock: MIFKUJ_clean_linker_0, # of connection points: 2
#     Edge 33, Type (0, 1), BuildingBlock: MIFKUJ_clean_linker_0, # of connection points: 2
#     Edge 34, Type (0, 1), BuildingBlock: MIFKUJ_clean_linker_0, # of connection points: 2
#     Edge 35, Type (0, 1), BuildingBlock: MIFKUJ_clean_linker_0, # of connection points: 2
# Relax obj value: 0.396
# Max RMSD: 0.254
# Mean RMSD: 0.230
data_MOF--net-zzz--node1-CUWYAW_clean_sbu_0--node2-MIDCAF_clean_linker_0--edge1-MIFKUJ_clean_linker_0
_symmetry_space_group_name_H-M    P1
_symmetry_Int_Tables_number       1
_symmetry_cell_setting            triclinic
loop_
_symmetry_equiv_pos_as_xyz
'x, y, z'
_cell_length_a     73.580561
_cell_length_b     73.661266
_cell_length_c     23.785967
_cell_angle_alpha  89.874536
_cell_angle_beta   90.016855
_cell_angle_gamma 90.043901
loop_
_atom_site_label
_atom_site_type_symbol
_atom_site_fract_x
_atom_site_fract_y
_atom_site_fract_z
_atom_type_partial_charge
C0 C 0.78719 0.54497 0.34291 0.0
C1 C 0.78911 0.52842 0.37182 0.0
C2 C 0.77561 0.51501 0.36443 0.0
C3 C 0.76088 0.51795 0.32768 0.0
H4 H 0.70649 0.50037 0.16579 0.0
H5 H 0.67704 0.49527 0.1209 0.0
H6 H 0.65736 0.54572 0.18956 0.0
H7 H 0.68695 0.55078 0.23417 0.0
H8 H 0.72297 0.55151 0.05766 0.0
H9 H 0.73602 0.55601 0.96461 0.0
H10 H 0.78946 0.56027 0.03868 0.0
H11 H 0.77652 0.55606 0.13152 0.0
H12 H 0.77217 0.56042 0.28258 0.0
H13 H 0.79737 0.55552 0.34689 0.0
H14 H 0.77664 0.50214 0.38628 0.0
H15 H 0.75108 0.50718 0.32121 0.0
N16 N 0.72892 0.53012 0.25229 0.0
N17 N 0.72415 0.54055 0.15978 0.0
N18 N 0.75247 0.54454 0.20189 0.0
C19 C 0.71771 0.53252 0.20697 0.0
C20 C 0.74146 0.54656 0.15662 0.0
C21 C 0.74642 0.53647 0.24985 0.0
C22 C 0.69887 0.52576 0.20451 0.0
C23 C 0.69553 0.50982 0.17396 0.0
C24 C 0.67877 0.50708 0.14741 0.0
C25 C 0.66496 0.52024 0.15092 0.0
C26 C 0.66767 0.53529 0.18628 0.0
C27 C 0.68454 0.5381 0.21244 0.0
C28 C 0.74876 0.55304 0.10212 0.0
C29 C 0.73747 0.55383 0.05434 0.0
C30 C 0.74491 0.55642 1.0009 0.0
C31 C 0.76376 0.55836 0.9942 0.0
C32 C 0.77484 0.55905 0.04236 0.0
C33 C 0.76742 0.55646 0.09574 0.0
C34 C 0.75958 0.53421 0.29684 0.0
C35 C 0.77273 0.54776 0.30578 0.0
C36 C 0.99045 0.79341 0.32642 0.0
C37 C 0.99596 0.79396 0.38318 0.0
C38 C 1.00459 0.7785 0.40584 0.0
C39 C 0.00881 0.76357 0.37174 0.0
H40 H 0.98122 0.7172 0.18309 0.0
H41 H 0.97172 0.69043 0.12847 0.0
H42 H 0.02611 0.66881 0.14117 0.0
H43 H 0.03542 0.69519 0.19494 0.0
H44 H 0.05252 0.74234 0.11342 0.0
H45 H 0.07455 0.76137 0.06553 0.0
H46 H 0.0882 0.78701 0.22345 0.0
H47 H 0.06523 0.76861 0.27066 0.0
H48 H 0.99146 0.77902 0.24802 0.0
H49 H 0.98402 0.80506 0.30699 0.0
H50 H 0.00878 0.77822 0.44947 0.0
H51 H 0.01668 0.7525 0.38933 0.0
N52 N 0.00646 0.73576 0.2548 0.0
N53 N 0.03279 0.73125 0.20019 0.0
N54 N 0.03065 0.75671 0.2581 0.0
C55 C 0.01615 0.72547 0.21748 0.0
C56 C 0.04011 0.74679 0.22029 0.0
C57 C 0.01396 0.75136 0.27567 0.0
C58 C 0.00906 0.70829 0.19332 0.0
C59 C 0.99095 0.70647 0.17524 0.0
C60 C 0.98559 0.69125 0.14353 0.0
C61 C 0.99815 0.67744 0.13038 0.0
C62 C 0.01599 0.67899 0.15098 0.0
C63 C 0.02136 0.6942 0.18166 0.0
C64 C 0.05686 0.75435 0.19544 0.0
C65 C 0.06061 0.75166 0.1382 0.0
C66 C 0.0734 0.76253 0.11077 0.0
C67 C 0.08291 0.77608 0.14035 0.0
C68 C 0.08073 0.7771 0.19906 0.0
C69 C 0.06763 0.76653 0.2262 0.0
C70 C 1.00422 0.76358 0.31448 0.0
C71 C 0.9946 0.77842 0.2925 0.0
C72 C 0.70492 0.96441 0.34477 0.0
C73 C 0.70397 0.98023 0.37751 0.0
C74 C 0.71825 0.99295 0.3734 0.0
C75 C 0.7329 0.99004 0.33637 0.0
H76 H 0.80424 0.952 0.22978 0.0
H77 H 0.83454 0.95652 0.19026 0.0
H78 H 0.82198 0.0129 0.15966 0.0
H79 H 0.79159 0.00825 0.19941 0.0
H80 H 0.77205 0.95819 0.06558 0.0
H81 H 0.76014 0.95302 0.97141 0.0
H82 H 0.70591 0.94862 0.03959 0.0
H83 H 0.7177 0.95356 0.1336 0.0
H84 H 0.71918 0.9496 0.28145 0.0
H85 H 0.69412 0.95442 0.34626 0.0
H86 H 0.71796 0.00525 0.39822 0.0
H87 H 0.74341 1.00028 0.3328 0.0
N88 N 0.7646 0.97769 0.26109 0.0
N89 N 0.77007 0.96782 0.16853 0.0
N90 N 0.741 0.9651 0.20653 0.0
C91 C 0.77627 0.97512 0.21706 0.0
C92 C 0.75251 0.96285 0.16261 0.0
C93 C 0.74682 0.9724 0.25585 0.0
C94 C 0.79571 0.97986 0.21874 0.0
C95 C 0.80833 0.96558 0.21752 0.0
C96 C 0.82557 0.96811 0.19394 0.0
C97 C 0.83056 0.98499 0.17089 0.0
C98 C 0.8186 0.99975 0.17729 0.0
C99 C 0.80126 0.99717 0.20067 0.0
C100 C 0.74577 0.95662 0.10721 0.0
C101 C 0.75762 0.95574 0.06076 0.0
C102 C 0.75084 0.95276 0.0067 0.0
C103 C 0.73213 0.95046 0.99803 0.0
C104 C 0.72047 0.95006 0.0449 0.0
C105 C 0.72721 0.95309 0.09889 0.0
C106 C 0.73331 0.97456 0.30193 0.0
C107 C 0.71929 0.96168 0.30734 0.0
C108 C 0.58935 0.71279 0.16411 0.0
C109 C 0.59231 0.7142 0.10584 0.0
C110 C 0.58636 0.72997 0.07779 0.0
C111 C 0.57592 0.74295 0.10604 0.0
H112 H 0.52778 0.77554 0.07203 0.0
H113 H 0.51933 0.80182 0.01607 0.0
H114 H 0.51598 0.83413 0.16736 0.0
H115 H 0.52336 0.8072 0.22356 0.0
H116 H 0.54955 0.74442 0.35911 0.0
H117 H 0.53943 0.72066 0.4237 0.0
H118 H 0.48959 0.71526 0.3295 0.0
H119 H 0.49968 0.73938 0.2653 0.0
H120 H 0.57609 0.72351 0.23637 0.0
H121 H 0.59357 0.70087 0.18739 0.0
H122 H 0.58873 0.73168 0.03316 0.0
H123 H 0.57044 0.75424 0.08227 0.0
N124 N 0.54895 0.76545 0.16233 0.0
N125 N 0.52632 0.76752 0.23224 0.0
N126 N 0.54909 0.74523 0.23797 0.0
C127 C 0.53405 0.77389 0.18377 0.0
C128 C 0.53403 0.75313 0.2596 0.0
C129 C 0.55665 0.75119 0.18947 0.0
C130 C 0.52626 0.78936 0.15206 0.0
C131 C 0.5249 0.7882 0.09334 0.0
C132 C 0.52027 0.8034 0.06121 0.0
C133 C 0.5174 0.8204 0.08667 0.0
C134 C 0.51798 0.82134 0.14595 0.0
C135 C 0.52222 0.80592 0.17834 0.0
C136 C 0.52528 0.74391 0.30773 0.0
C137 C 0.53606 0.73874 0.35384 0.0
C138 C 0.5303 0.72506 0.39064 0.0
C139 C 0.5138 0.71593 0.38136 0.0
C140 C 0.50243 0.72197 0.33748 0.0
C141 C 0.50807 0.73595 0.30124 0.0
C142 C 0.57131 0.74041 0.16291 0.0
C143 C 0.57905 0.72576 0.19228 0.0
C144 C 0.22153 0.49442 0.99877 0.0
C145 C 0.21848 0.4847 0.94862 0.0
C146 C 0.2313 0.47145 0.93295 0.0
C147 C 0.24564 0.46681 0.96896 0.0
H148 H 0.2991 0.44453 0.21611 0.0
H149 H 0.32409 0.45478 0.2735 0.0
H150 H 0.32512 0.50575 0.18398 0.0
H151 H 0.29946 0.49549 0.12539 0.0
H152 H 0.26429 0.42309 0.22855 0.0
H153 H 0.24267 0.4071 0.28834 0.0
H154 H 0.20156 0.41261 0.15977 0.0
H155 H 0.2231 0.42812 0.09964 0.0
H156 H 0.23699 0.49641 0.07518 0.0
H157 H 0.21193 0.50459 0.01273 0.0
H158 H 0.22972 0.46394 0.89418 0.0
H159 H 0.25426 0.45542 0.95807 0.0
N160 N 0.27288 0.47228 0.09136 0.0
N161 N 0.27166 0.44792 0.15545 0.0
N162 N 0.24919 0.45078 0.0871 0.0
C163 C 0.2803 0.46297 0.13574 0.0
C164 C 0.25615 0.44174 0.13166 0.0
C165 C 0.25738 0.46586 0.06645 0.0
C166 C 0.29691 0.46926 0.16625 0.0
C167 C 0.30448 0.45797 0.20807 0.0
C168 C 0.31888 0.46385 0.24141 0.0
C169 C 0.32639 0.48119 0.2341 0.0
C170 C 0.31953 0.49232 0.19073 0.0
C171 C 0.30485 0.48644 0.15721 0.0
C172 C 0.24524 0.42749 0.16006 0.0
C173 C 0.25082 0.42036 0.21219 0.0
C174 C 0.23845 0.41117 0.24654 0.0
C175 C 0.2203 0.40898 0.22939 0.0
C176 C 0.21543 0.41403 0.17439 0.0
C177 C 0.2278 0.42315 0.14 0.0
C178 C 0.24777 0.47553 0.02094 0.0
C179 C 0.23602 0.48987 0.03453 0.0
C180 C 0.01861 0.23225 0.98771 0.0
C181 C 0.03262 0.21979 0.97544 0.0
C182 C 0.05025 0.22369 0.99466 0.0
C183 C 0.05357 0.23871 0.0288 0.0
H184 H 0.0584 0.32221 0.12945 0.0
H185 H 0.051 0.35115 0.17369 0.0
H186 H 0.99724 0.33116 0.21207 0.0
H187 H 0.00475 0.30217 0.16702 0.0
H188 H 0.05818 0.28245 0.28583 0.0
H189 H 0.06713 0.2664 0.37119 0.0
H190 H 0.08549 0.22116 0.27097 0.0
H191 H 0.07668 0.23708 0.18596 0.0
H192 H 0.01078 0.2562 0.03381 0.0
H193 H 0.00487 0.22968 0.97349 0.0
H194 H 0.06148 0.21473 0.98486 0.0
H195 H 0.06719 0.24071 0.04498 0.0
N196 N 0.03519 0.28041 0.09347 0.0
N197 N 0.0496 0.2852 0.18082 0.0
N198 N 0.05339 0.25765 0.13436 0.0
C199 C 0.03899 0.29142 0.13834 0.0
C200 C 0.0568 0.26833 0.17936 0.0
C201 C 0.04274 0.26343 0.09128 0.0
C202 C 0.03203 0.31011 0.14383 0.0
C203 C 0.04472 0.32435 0.1449 0.0
C204 C 0.04056 0.3408 0.17113 0.0
C205 C 0.02364 0.34336 0.19743 0.0
C206 C 0.01037 0.32968 0.19205 0.0
C207 C 0.01458 0.31313 0.16574 0.0
C208 C 0.06625 0.26081 0.22914 0.0
C209 C 0.06463 0.2693 0.28185 0.0
C210 C 0.06976 0.26014 0.33084 0.0
C211 C 0.07675 0.24243 0.32789 0.0
C212 C 0.0802 0.23481 0.2748 0.0
C213 C 0.07495 0.24389 0.22593 0.0
C214 C 0.03941 0.25047 0.04452 0.0
C215 C 0.02199 0.24749 0.02201 0.0
C216 C 0.26931 0.0454 0.9574 0.0
C217 C 0.27741 0.02843 0.96765 0.0
C218 C 0.26952 0.01697 0.00853 0.0
C219 C 0.25463 0.02287 0.04075 0.0
H220 H 0.20214 0.01446 0.16307 0.0
H221 H 0.17517 1.00399 0.21527 0.0
H222 H 0.15603 0.05926 0.22568 0.0
H223 H 0.18283 0.06961 0.17484 0.0
H224 H 0.23938 0.07471 0.25554 0.0
H225 H 0.26439 0.08977 0.30138 0.0
H226 H 0.27625 0.11897 0.14732 0.0
H227 H 0.25207 0.10224 0.10038 0.0
H228 H 0.24963 0.065 0.98364 0.0
H229 H 0.27507 0.05469 0.92687 0.0
H230 H 0.27531 1.00374 0.01716 0.0
H231 H 0.24963 0.01431 0.07445 0.0
N232 N 0.22091 0.04143 0.09864 0.0
N233 N 0.21891 0.06538 0.16405 0.0
N234 N 0.24283 0.06469 0.09966 0.0
C235 C 0.21185 0.04997 0.14134 0.0
C236 C 0.23435 0.0728 0.14326 0.0
C237 C 0.23636 0.04909 0.07713 0.0
C238 C 0.1946 0.04284 0.165 0.0
C239 C 0.19196 0.02425 0.17567 0.0
C240 C 0.17662 0.01831 0.20585 0.0
C241 C 0.16347 0.03081 0.22461 0.0
C242 C 0.16578 0.04926 0.21144 0.0
C243 C 0.18119 0.0552 0.18251 0.0
C244 C 0.24413 0.08703 0.17426 0.0
C245 C 0.24695 0.08483 0.23209 0.0
C246 C 0.26142 0.09363 0.25848 0.0
C247 C 0.27309 0.10518 0.22772 0.0
C248 C 0.26827 0.1095 0.17189 0.0
C249 C 0.2542 0.10016 0.14501 0.0
C250 C 0.24753 0.04039 0.03305 0.0
C251 C 0.25467 0.05133 0.9899 0.0
C252 C 0.40033 0.27668 0.19631 0.0
C253 C 0.40444 0.27712 0.25411 0.0
C254 C 0.41466 0.26275 0.27719 0.0
C255 C 0.42267 0.24983 0.24228 0.0
H256 H 0.44014 0.1885 0.1467 0.0
H257 H 0.45033 0.16188 0.19902 0.0
H258 H 0.50241 0.18743 0.22635 0.0
H259 H 0.49214 0.21415 0.17273 0.0
H260 H 0.43788 0.26013 0.98821 0.0
H261 H 0.44654 0.28592 0.92992 0.0
H262 H 0.49952 0.28653 0.00829 0.0
H263 H 0.49088 0.2601 0.06543 0.0
H264 H 0.40689 0.26519 0.11619 0.0
H265 H 0.39201 0.28715 0.17733 0.0
H266 H 0.41822 0.26253 0.32133 0.0
H267 H 0.43192 0.24007 0.26084 0.0
N268 N 0.44253 0.22678 0.163 0.0
N269 N 0.46482 0.2305 0.09267 0.0
N270 N 0.44138 0.25194 0.10332 0.0
C271 C 0.45744 0.22053 0.13558 0.0
C272 C 0.45643 0.24615 0.07582 0.0
C273 C 0.43446 0.24248 0.1472 0.0
C274 C 0.46543 0.20325 0.15522 0.0
C275 C 0.45398 0.18816 0.1623 0.0
C276 C 0.45982 0.17293 0.19231 0.0
C277 C 0.47716 0.17256 0.21707 0.0
C278 C 0.48895 0.18736 0.20792 0.0
C279 C 0.48318 0.20254 0.17677 0.0
C280 C 0.46374 0.25807 0.03106 0.0
C281 C 0.45159 0.26541 0.99159 0.0
C282 C 0.45649 0.28038 0.9588 0.0
C283 C 0.47358 0.28869 0.96534 0.0
C284 C 0.48625 0.28051 1.00201 0.0
C285 C 0.48138 0.26529 0.03455 0.0
C286 C 0.42088 0.25125 0.18371 0.0
C287 C 0.40875 0.26404 0.16124 0.0
C288 C 0.9772 0.03373 0.56505 0.0
Eu289 Eu 0.98637 0.01337 0.64898 0.0
C290 C 0.9871 0.04999 0.54666 0.0
C291 C 0.97834 0.06424 0.51851 0.0
C292 C 0.98779 0.08035 0.50693 0.0
C293 C 0.00607 0.08233 0.52355 0.0
C294 C 0.01471 0.06793 0.55141 0.0
C295 C 0.00533 0.05199 0.56284 0.0
C296 C 0.96671 1.00214 0.73894 0.0
C297 C 0.00629 0.04083 0.73989 0.0
C298 C 0.01654 0.98032 0.8428 0.0
Eu299 Eu 0.00885 0.99765 0.75135 0.0
C300 C 0.02614 0.96305 0.85321 0.0
C301 C 0.04227 0.96301 0.88468 0.0
C302 C 0.05211 0.94696 0.89199 0.0
C303 C 0.04588 0.93064 0.86837 0.0
C304 C 0.02968 0.93064 0.83715 0.0
C305 C 0.01994 0.94671 0.82937 0.0
C306 C 0.03109 1.00223 0.66024 0.0
C307 C 0.99397 0.9705 0.65098 0.0
O308 O 0.98604 0.01842 0.55878 0.0
O309 O 0.9696 0.03513 0.61464 0.0
O310 O 0.96114 1.0006 0.68723 0.0
O311 O 0.98175 0.01035 0.74046 0.0
O312 O 0.99989 0.03815 0.68849 0.0
O313 O 0.00921 0.02725 0.77522 0.0
O314 O 1.00063 0.97919 0.8179 0.0
O315 O 0.02661 0.99369 0.82356 0.0
O316 O 0.03672 0.99628 0.7086 0.0
O317 O 0.0144 0.00553 0.66437 0.0
O318 O 1.00017 0.97238 0.70308 0.0
O319 O 0.98887 0.98445 0.61956 0.0
H320 H 0.96419 0.06303 0.50649 0.0
H321 H 0.98083 0.09124 0.48519 0.0
H322 H 0.02861 0.06915 0.56592 0.0
H323 H 0.01224 0.04139 0.58595 0.0
H324 H 0.04734 0.97544 0.90326 0.0
H325 H 0.06443 0.94725 0.91692 0.0
H326 H 0.02463 0.91824 0.81832 0.0
H327 H 0.00767 0.94629 0.80426 0.0
C328 C 0.46328 0.99063 0.53412 0.0
Eu329 Eu 0.48272 0.99502 0.62415 0.0
C330 C 0.44983 1.00259 0.50766 0.0
C331 C 0.4415 0.99767 0.45702 0.0
C332 C 0.42931 0.00956 0.43087 0.0
C333 C 0.42542 0.02657 0.45488 0.0
C334 C 0.4338 0.03138 0.50578 0.0
C335 C 0.44583 0.01944 0.53207 0.0
C336 C 0.49435 0.97093 0.70277 0.0
C337 C 0.4573 0.01241 0.72685 0.0
C338 C 0.52009 0.01324 0.82549 0.0
Eu339 Eu 0.50056 0.01205 0.73546 0.0
C340 C 0.53922 0.00756 0.82956 0.0
C341 C 0.55248 0.01987 0.84809 0.0
C342 C 0.57094 0.01604 0.84061 0.0
C343 C 0.5764 0.99985 0.81427 0.0
C344 C 0.56309 0.9873 0.79761 0.0
C345 C 0.54473 0.99107 0.80531 0.0
C346 C 0.49478 0.03785 0.65391 0.0
C347 C 0.52603 0.99929 0.62957 0.0
O348 O 0.47995 0.99684 0.53331 0.0
O349 O 0.45869 0.98387 0.58312 0.0
O350 O 0.49411 0.96744 0.64919 0.0
O351 O 0.4871 0.98614 0.71175 0.0
O352 O 0.45899 0.00771 0.67301 0.0
O353 O 0.47136 0.01398 0.76134 0.0
O354 O 0.50826 1.00029 0.81609 0.0
O355 O 0.51729 0.02756 0.79396 0.0
O356 O 0.5009 0.04173 0.70375 0.0
O357 O 0.49175 0.02115 0.653 0.0
O358 O 0.52436 1.00111 0.68476 0.0
O359 O 0.51175 0.999 0.59569 0.0
H360 H 0.44454 0.98475 0.43752 0.0
H361 H 0.42313 0.00557 0.39144 0.0
H362 H 0.4309 0.04428 0.52562 0.0
H363 H 0.45213 0.02344 0.57127 0.0
H364 H 0.54853 0.03277 0.86619 0.0
H365 H 0.58091 0.02584 0.85473 0.0
H366 H 0.56681 0.97486 0.77632 0.0
H367 H 0.53488 0.98141 0.78946 0.0
C368 C 0.51409 0.47817 0.53565 0.0
Eu369 Eu 0.5088 0.49579 0.628 0.0
C370 C 0.50462 0.46187 0.51601 0.0
C371 C 0.51285 0.45008 0.47762 0.0
C372 C 0.50444 0.43363 0.4638 0.0
C373 C 0.48775 0.42872 0.48859 0.0
C374 C 0.47964 0.44069 0.52712 0.0
C375 C 0.48797 0.45708 0.54058 0.0
C376 C 0.53207 0.50683 0.71174 0.0
C377 C 0.49523 0.46842 0.72939 0.0
C378 C 0.48376 0.52683 0.83841 0.0
Eu379 Eu 0.48774 0.51156 0.74122 0.0
C380 C 0.49658 0.53806 0.87044 0.0
C381 C 0.49547 0.53912 0.92917 0.0
C382 C 0.50854 0.5489 0.95937 0.0
C383 C 0.52304 0.55735 0.93108 0.0
C384 C 0.52406 0.55628 0.87233 0.0
C385 C 0.51086 0.54685 0.84224 0.0
C386 C 0.46405 0.50155 0.65772 0.0
C387 C 0.50218 0.53882 0.63957 0.0
O388 O 0.50422 0.49301 0.538 0.0
O389 O 0.52395 0.47559 0.58088 0.0
O390 O 0.53767 0.50142 0.66265 0.0
O391 O 0.51507 0.50627 0.71079 0.0
O392 O 0.49904 0.47076 0.67528 0.0
O393 O 0.49224 0.48212 0.76432 0.0
O394 O 0.48853 0.50979 0.83268 0.0
O395 O 0.47775 0.53406 0.79148 0.0
O396 O 0.45879 0.50755 0.70653 0.0
O397 O 0.48109 0.50073 0.65857 0.0
O398 O 0.49819 0.53652 0.69379 0.0
O399 O 0.50506 0.52514 0.60443 0.0
H400 H 0.52588 0.45344 0.45914 0.0
H401 H 0.51116 0.42464 0.43446 0.0
H402 H 0.46665 0.43757 0.54627 0.0
H403 H 0.48151 0.46593 0.5709 0.0
H404 H 0.48459 0.53232 0.95157 0.0
H405 H 0.50746 0.54974 0.00471 0.0
H406 H 0.53497 0.56293 0.84962 0.0
H407 H 0.51206 0.54608 0.79693 0.0
C408 C 0.03218 0.52487 0.52542 0.0
Eu409 Eu 0.01171 0.52033 0.61269 0.0
C410 C 0.04617 0.51201 0.50691 0.0
C411 C 0.05891 0.51654 0.46553 0.0
C412 C 0.07225 0.50394 0.44998 0.0
C413 C 0.07294 0.48668 0.47572 0.0
C414 C 0.06014 0.48234 0.5173 0.0
C415 C 0.04692 0.49486 0.53263 0.0
C416 C 1.00101 0.54234 0.69724 0.0
C417 C 0.03798 0.50198 0.71202 0.0
C418 C 0.97582 0.49727 0.81194 0.0
Eu419 Eu 0.99478 0.50066 0.72127 0.0
C420 C 0.95608 0.49511 0.81648 0.0
C421 C 0.9464 0.48666 0.77276 0.0
C422 C 0.92766 0.48915 0.76772 0.0
C423 C 0.91842 0.50032 0.8059 0.0
C424 C 0.92794 0.50768 0.85186 0.0
C425 C 0.94665 0.5051 0.85704 0.0
C426 C 0.99947 0.47684 0.63385 0.0
C427 C 0.96838 0.51474 0.61782 0.0
O428 O 0.01552 0.51869 0.52209 0.0
O429 O 0.0355 0.53279 0.57361 0.0
O430 O 1.00062 0.54721 0.6445 0.0
O431 O 0.00831 0.52692 0.70226 0.0
O432 O 0.03581 0.50767 0.65936 0.0
O433 O 0.02414 0.49942 0.74673 0.0
O434 O 0.98064 0.51306 0.79127 0.0
O435 O 0.98492 0.48367 0.79006 0.0
O436 O 0.99345 0.4719 0.68295 0.0
O437 O 1.00265 0.49353 0.6362 0.0
O438 O 0.97016 0.51044 0.67175 0.0
O439 O 0.98255 0.51751 0.58442 0.0
H440 H 0.05856 0.52974 0.4454 0.0
H441 H 0.08188 0.5076 0.41744 0.0
H442 H 0.06046 0.46933 0.53862 0.0
H443 H 0.03726 0.49112 0.56489 0.0
H444 H 0.95347 0.47923 0.74017 0.0
H445 H 0.92068 0.48342 0.73177 0.0
H446 H 0.92104 0.51609 0.88245 0.0
H447 H 0.95392 0.51196 0.89046 0.0
H448 H 0.12756 0.04005 0.21433 0.0
H449 H 0.10284 0.03369 0.28034 0.0
H450 H 0.13983 1.00318 0.38487 0.0
H451 H 0.16442 0.00905 0.31792 0.0
H452 H 0.10881 0.98695 0.38608 0.0
H453 H 0.1271 0.04911 0.40995 0.0
H454 H 0.13308 0.0808 0.3819 0.0
H455 H 0.07717 0.08725 0.33413 0.0
H456 H 0.07092 0.05548 0.36098 0.0
H457 H 0.0673 0.99607 0.65342 0.0
H458 H 0.08716 0.99934 0.5717 0.0
H459 H 0.0415 0.01664 0.47141 0.0
H460 H 0.02136 0.01267 0.55305 0.0
H461 H 0.07406 0.03911 0.46216 0.0
H462 H 0.05589 0.97692 0.4477 0.0
H463 H 0.05059 0.94587 0.48296 0.0
H464 H 0.10742 0.94027 0.52011 0.0
H465 H 0.11302 0.97142 0.48593 0.0
C466 C 0.13035 0.03182 0.25112 0.0
C467 C 0.14797 0.02512 0.26102 0.0
C468 C 0.11623 0.02828 0.28908 0.0
C469 C 0.11948 0.0183 0.33856 0.0
C470 C 0.13691 0.01097 0.34726 0.0
C471 C 0.15098 0.01428 0.30884 0.0
C472 C 0.10496 0.01593 0.38203 0.0
C473 C 0.10135 0.99842 0.40289 0.0
C474 C 0.09481 0.03079 0.4035 0.0
C475 C 0.0986 0.04983 0.38676 0.0
C476 C 0.11612 0.05723 0.39292 0.0
C477 C 0.11955 0.07522 0.37731 0.0
C478 C 0.10553 0.08602 0.35605 0.0
C479 C 0.08803 0.07886 0.35043 0.0
C480 C 0.08454 0.06086 0.3658 0.0
C481 C 0.06144 1.00054 0.61397 0.0
C482 C 0.04278 0.0044 0.60989 0.0
C483 C 0.07282 1.00237 0.56727 0.0
C484 C 0.06583 0.00822 0.51542 0.0
C485 C 0.0472 0.01218 0.51111 0.0
C486 C 0.03572 0.01004 0.55781 0.0
C487 C 0.07819 0.01026 0.46629 0.0
C488 C 0.08141 0.02768 0.44462 0.0
C489 C 0.08813 0.9954 0.4446 0.0
C490 C 0.08485 0.97658 0.46464 0.0
C491 C 0.06724 0.96913 0.46379 0.0
C492 C 0.06418 0.9515 0.48353 0.0
C493 C 0.07865 0.94112 0.50386 0.0
C494 C 0.09622 0.94833 0.50437 0.0
C495 C 0.09935 0.96597 0.48477 0.0
H496 H 0.07626 0.92747 0.51913 0.0
H497 H 0.1082 0.09995 0.34409 0.0
H498 H 0.47284 0.13594 0.20153 0.0
H499 H 0.47731 0.11169 0.27068 0.0
H500 H 0.49588 0.15109 0.39178 0.0
H501 H 0.49196 0.17527 0.32212 0.0
H502 H 0.5153 0.12136 0.40162 0.0
H503 H 0.4497 0.13294 0.39311 0.0
H504 H 0.42065 0.13588 0.34185 0.0
H505 H 0.42688 0.08185 0.27728 0.0
H506 H 0.45567 0.07847 0.32912 0.0
H507 H 0.50015 0.07437 0.65614 0.0
H508 H 0.49816 0.09584 0.5777 0.0
H509 H 0.48265 0.05223 0.46679 0.0
H510 H 0.48478 0.03075 0.54539 0.0
H511 H 0.4624 0.08213 0.44692 0.0
H512 H 0.52536 0.06862 0.46388 0.0
H513 H 0.55478 0.06483 0.51212 0.0
H514 H 0.55509 0.12143 0.55492 0.0
H515 H 0.52552 0.12551 0.50769 0.0
C516 C 0.47806 0.13938 0.24274 0.0
C517 C 0.48199 0.15754 0.25639 0.0
C518 C 0.48048 0.12553 0.28244 0.0
C519 C 0.48648 0.12955 0.33717 0.0
C520 C 0.49115 0.14758 0.35006 0.0
C521 C 0.48897 0.16141 0.31009 0.0
C522 C 0.48744 0.11517 0.38149 0.0
C523 C 0.50366 0.11295 0.41194 0.0
C524 C 0.47249 0.10369 0.39401 0.0
C525 C 0.45484 0.1055 0.36465 0.0
C526 C 0.44479 0.12168 0.36811 0.0
C527 C 0.42834 0.1234 0.3391 0.0
C528 C 0.42187 0.10904 0.30636 0.0
C529 C 0.4318 0.09292 0.30282 0.0
C530 C 0.44812 0.09105 0.33232 0.0
C531 C 0.49623 0.06938 0.61509 0.0
C532 C 0.49252 0.05087 0.60688 0.0
C533 C 0.49518 0.08165 0.5702 0.0
C534 C 0.49049 0.07565 0.51604 0.0
C535 C 0.48634 0.05721 0.50808 0.0
C536 C 0.48748 0.04492 0.55302 0.0
C537 C 0.49013 0.08863 0.46787 0.0
C538 C 0.47406 0.09053 0.43663 0.0
C539 C 0.50528 0.09971 0.45438 0.0
C540 C 0.52312 0.09734 0.48266 0.0
C541 C 0.53163 0.08024 0.48397 0.0
C542 C 0.54835 0.07803 0.51108 0.0
C543 C 0.55678 0.09287 0.53668 0.0
C544 C 0.54853 0.10994 0.53512 0.0
C545 C 0.53179 0.11221 0.50814 0.0
H546 H 0.56973 0.09115 0.55761 0.0
H547 H 0.40916 0.11039 0.28382 0.0
H548 H 0.32641 0.4789 0.34824 0.0
H549 H 0.35121 0.48552 0.41305 0.0
H550 H 0.38431 0.50395 0.27456 0.0
H551 H 0.35934 0.49708 0.20891 0.0
H552 H 0.40273 0.48038 0.34214 0.0
H553 H 0.36856 0.53426 0.37013 0.0
H554 H 0.34127 0.55281 0.38754 0.0
H555 H 0.33411 0.52706 0.54814 0.0
H556 H 0.36121 0.50815 0.53138 0.0
H557 H 0.47164 0.50457 0.54502 0.0
H558 H 0.45003 0.50334 0.46669 0.0
H559 H 0.40683 0.49091 0.58335 0.0
H560 H 0.42837 0.49265 0.66136 0.0
H561 H 0.39546 0.51576 0.51777 0.0
H562 H 0.42345 0.45674 0.47621 0.0
H563 H 0.44811 0.43538 0.45371 0.0
H564 H 0.46662 0.47073 0.32172 0.0
H565 H 0.44134 0.49181 0.34158 0.0
C566 C 0.33891 0.48452 0.33152 0.0
C567 C 0.34093 0.48739 0.27335 0.0
C568 C 0.35306 0.48843 0.36875 0.0
C569 C 0.36965 0.49538 0.34894 0.0
C570 C 0.37163 0.49865 0.29093 0.0
C571 C 0.35733 0.49485 0.2535 0.0
C572 C 0.38508 0.49807 0.38889 0.0
C573 C 0.40128 0.48846 0.37996 0.0
C574 C 0.38316 0.5083 0.43889 0.0
C575 C 0.36687 0.5197 0.44931 0.0
C576 C 0.3611 0.53245 0.409 0.0
C577 C 0.34567 0.54305 0.41878 0.0
C578 C 0.33595 0.54109 0.46887 0.0
C579 C 0.34165 0.52856 0.50935 0.0
C580 C 0.35706 0.51792 0.49976 0.0
C581 C 0.45765 0.50106 0.55358 0.0
C582 C 0.45177 0.49844 0.60919 0.0
C583 C 0.44522 0.5004 0.50874 0.0
C584 C 0.42666 0.49689 0.51859 0.0
C585 C 0.42097 0.49375 0.57423 0.0
C586 C 0.43333 0.49464 0.6189 0.0
C587 C 0.41289 0.49748 0.47211 0.0
C588 C 0.39702 0.50784 0.47968 0.0
C589 C 0.41507 0.48792 0.42096 0.0
C590 C 0.43072 0.47587 0.41077 0.0
C591 C 0.43287 0.45997 0.44263 0.0
C592 C 0.44689 0.44787 0.43012 0.0
C593 C 0.45914 0.45183 0.38686 0.0
C594 C 0.45719 0.46774 0.35539 0.0
C595 C 0.4429 0.47966 0.36683 0.0
H596 H 0.47008 0.44255 0.37738 0.0
H597 H 0.324 0.54931 0.47636 0.0
H598 H 0.99347 0.36536 0.20756 0.0
H599 H 0.98892 0.39052 0.27364 0.0
H600 H 0.04244 0.38134 0.34217 0.0
H601 H 0.04717 0.35673 0.27566 0.0
H602 H 0.98657 0.39239 0.38049 0.0
H603 H 0.0613 0.41764 0.39475 0.0
H604 H 0.08805 0.42077 0.33255 0.0
H605 H 0.05305 0.42426 0.18863 0.0
H606 H 0.02615 0.42115 0.24976 0.0
H607 H 0.99933 0.43994 0.63373 0.0
H608 H 1.00306 0.41952 0.55352 0.0
H609 H 0.00925 0.46566 0.4432 0.0
H610 H 0.00529 0.48608 0.52358 0.0
H611 H 0.03338 0.43954 0.41612 0.0
H612 H 0.96979 0.44305 0.44539 0.0
H613 H 0.94124 0.44237 0.49954 0.0
H614 H 0.95033 0.38634 0.54098 0.0
H615 H 0.97911 0.38676 0.48773 0.0
C616 C 1.00431 0.36886 0.23641 0.0
C617 C 0.02079 0.35919 0.23564 0.0
C618 C 1.0017 0.38324 0.27427 0.0
C619 C 0.01545 0.38818 0.31253 0.0
C620 C 0.03179 0.37832 0.31215 0.0
C621 C 0.03449 0.36416 0.27398 0.0
C622 C 0.01255 0.40303 0.3545 0.0
C623 C 0.9968 0.40272 0.38795 0.0
C624 C 0.02561 0.4169 0.3638 0.0
C625 C 0.04173 0.41909 0.32686 0.0
C626 C 0.05933 0.4192 0.34987 0.0
C627 C 0.07451 0.42093 0.31484 0.0
C628 C 0.07224 0.42275 0.25679 0.0
C629 C 0.05479 0.42282 0.23361 0.0
C630 C 0.03958 0.42102 0.2684 0.0
C631 C 1.00154 0.44573 0.59239 0.0
C632 C 1.00224 0.46465 0.58502 0.0
C633 C 1.00363 0.43404 0.5465 0.0
C634 C 0.00632 0.441 0.49204 0.0
C635 C 0.00728 0.45992 0.48472 0.0
C636 C 0.0051 0.47161 0.53071 0.0
C637 C 0.00769 0.42848 0.44291 0.0
C638 C 0.02313 0.42925 0.40827 0.0
C639 C 0.99408 0.4154 0.43129 0.0
C640 C 0.97669 0.41499 0.46293 0.0
C641 C 0.96577 0.43062 0.46637 0.0
C642 C 0.94953 0.43028 0.49686 0.0
C643 C 0.94399 0.41434 0.5238 0.0
C644 C 0.95465 0.39869 0.52014 0.0
C645 C 0.97092 0.39896 0.48974 0.0
H646 H 0.93142 0.4141 0.54742 0.0
H647 H 0.08401 0.42409 0.2298 0.0
H648 H 0.85703 0.0115 0.169 0.0
H649 H 0.88255 0.01429 0.10307 0.0
H650 H 0.8654 0.96508 0.02033 0.0
H651 H 0.8405 0.96192 0.08718 0.0
H652 H 0.89972 0.96458 0.02259 0.0
H653 H 0.85641 0.0102 0.96906 0.0
H654 H 0.83656 0.03682 0.98221 0.0
H655 H 0.88296 0.06957 0.02353 0.0
H656 H 0.90307 0.04307 0.01133 0.0
H657 H 0.9362 0.98122 0.74612 0.0
H658 H 0.91552 0.97808 0.82659 0.0
H659 H 0.94926 0.01431 0.92322 0.0
H660 H 0.9703 0.01705 0.84349 0.0
H661 H 0.90896 0.02224 0.91832 0.0
H662 H 0.95218 0.97512 0.96135 0.0
H663 H 0.97052 0.9481 0.93892 0.0
H664 H 0.92187 0.91751 0.90762 0.0
H665 H 0.90323 0.94447 0.92886 0.0
C666 C 0.85885 1.00123 0.13698 0.0
C667 C 0.8468 0.98644 0.1336 0.0
C668 C 0.87337 1.00287 0.099 0.0
C669 C 0.87585 0.99005 0.05578 0.0
C670 C 0.86396 0.97514 0.05317 0.0
C671 C 0.84969 0.97333 0.09161 0.0
C672 C 0.89047 0.99219 0.01243 0.0
C673 C 0.90157 0.97718 0.99966 0.0
C674 C 0.89326 0.00866 0.98256 0.0
C675 C 0.88121 0.02461 0.98995 0.0
C676 C 0.86236 0.02305 0.98138 0.0
C677 C 0.85107 0.03812 0.98859 0.0
C678 C 0.85849 0.05486 0.00387 0.0
C679 C 0.87723 0.05658 0.01182 0.0
C680 C 0.88858 0.04155 0.00474 0.0
C681 C 0.93929 0.98836 0.78472 0.0
C682 C 0.95485 0.99936 0.78857 0.0
C683 C 0.92748 0.98658 0.83059 0.0
C684 C 0.93083 0.99601 0.8808 0.0
C685 C 0.94641 0.00695 0.88483 0.0
C686 C 0.95844 0.00843 0.83937 0.0
C687 C 0.91787 0.99464 0.92859 0.0
C688 C 0.90711 0.00975 0.94189 0.0
C689 C 0.91515 0.97819 0.9581 0.0
C690 C 0.92631 0.96187 0.94618 0.0
C691 C 0.94539 0.96268 0.94921 0.0
C692 C 0.95584 0.94736 0.93679 0.0
C693 C 0.94737 0.93111 0.92173 0.0
C694 C 0.92841 0.93012 0.91924 0.0
C695 C 0.9179 0.94541 0.9315 0.0
H696 H 0.95548 0.91926 0.9121 0.0
H697 H 0.84973 0.06652 0.00942 0.0
H698 H 0.4967 0.85104 0.10852 0.0
H699 H 0.49344 0.87822 0.05026 0.0
H700 H 0.52818 0.85439 0.92442 0.0
H701 H 0.53269 0.82801 0.98391 0.0
H702 H 0.53705 0.88729 0.93298 0.0
H703 H 0.47903 0.85739 0.91515 0.0
H704 H 0.45039 0.84382 0.949 0.0
H705 H 0.43521 0.8946 0.02376 0.0
H706 H 0.46388 0.90842 0.99092 0.0
H707 H 0.5127 0.93902 0.6914 0.0
H708 H 0.51728 0.91534 0.76251 0.0
H709 H 0.48894 0.94796 0.88465 0.0
H710 H 0.48423 0.97163 0.81346 0.0
H711 H 0.47671 0.91279 0.88415 0.0
H712 H 0.53514 0.94229 0.89977 0.0
H713 H 0.56406 0.95511 0.86582 0.0
H714 H 0.5777 0.90414 0.78948 0.0
H715 H 0.54898 0.89089 0.82411 0.0
C716 C 0.50383 0.85163 0.06876 0.0
C717 C 0.51481 0.83705 0.05104 0.0
C718 C 0.50173 0.86715 0.03497 0.0
C719 C 0.51028 0.86835 0.98214 0.0
C720 C 0.52133 0.85389 0.96471 0.0
C721 C 0.52367 0.83857 0.9987 0.0
C722 C 0.50812 0.88464 0.945 0.0
C723 C 0.52379 0.89267 0.92196 0.0
C724 C 0.49092 0.89216 0.93139 0.0
C725 C 0.47369 0.88387 0.95113 0.0
C726 C 0.46965 0.86562 0.93917 0.0
C727 C 0.4534 0.85789 0.95811 0.0
C728 C 0.44102 0.86832 0.98866 0.0
C729 C 0.44483 0.88652 1.00019 0.0
C730 C 0.46107 0.89431 0.9814 0.0
C731 C 0.50761 0.94121 0.73357 0.0
C732 C 0.49821 0.95722 0.74693 0.0
C733 C 0.51029 0.9277 0.77428 0.0
C734 C 0.50357 0.92989 0.82919 0.0
C735 C 0.49429 0.94596 0.8427 0.0
C736 C 0.49172 0.95953 0.80207 0.0
C737 C 0.5056 0.91506 0.87158 0.0
C738 C 0.48992 0.90738 0.89558 0.0
C739 C 0.52275 0.90769 0.88561 0.0
C740 C 0.53987 0.91567 0.86408 0.0
C741 C 0.54426 0.93386 0.87542 0.0
C742 C 0.56064 0.94119 0.85614 0.0
C743 C 0.57265 0.93051 0.82495 0.0
C744 C 0.56837 0.91241 0.81349 0.0
C745 C 0.5521 0.90495 0.83322 0.0
H746 H 0.5853 0.93619 0.80987 0.0
H747 H 0.42844 0.86231 1.00328 0.0
H748 H 0.66576 0.51413 0.03828 0.0
H749 H 0.64058 0.515 0.97139 0.0
H750 H 0.6032 0.52621 0.10638 0.0
H751 H 0.62859 0.52563 0.17402 0.0
H752 H 0.59179 0.49784 0.02506 0.0
H753 H 0.6105 0.55967 0.0312 0.0
H754 H 0.63247 0.58495 0.03135 0.0
H755 H 0.65013 0.57023 0.86557 0.0
H756 H 0.62836 0.54474 0.86464 0.0
H757 H 0.52245 0.51018 0.82187 0.0
H758 H 0.5421 0.51662 0.90236 0.0
H759 H 0.58849 0.51865 0.79154 0.0
H760 H 0.5685 0.51349 0.71075 0.0
H761 H 0.59245 0.54328 0.87061 0.0
H762 H 0.57506 0.4797 0.86914 0.0
H763 H 0.55193 0.45549 0.86791 0.0
H764 H 0.5313 0.47377 0.02684 0.0
H765 H 0.55397 0.49849 0.02813 0.0
C766 C 0.65216 0.51655 0.05399 0.0
C767 C 0.64916 0.51963 0.11162 0.0
C768 C 0.63779 0.5172 0.01558 0.0
C769 C 0.62002 0.52074 0.03379 0.0
C770 C 0.61682 0.52346 0.09143 0.0
C771 C 0.63132 0.52314 0.12996 0.0
C772 C 0.605 0.52163 0.99186 0.0
C773 C 0.5917 0.50797 0.99189 0.0
C774 C 0.605 0.53472 0.9482 0.0
C775 C 0.61797 0.55015 0.94817 0.0
C776 C 0.6192 0.56171 0.99501 0.0
C777 C 0.6316 0.57609 0.9952 0.0
C778 C 0.64281 0.57909 0.9487 0.0
C779 C 0.64152 0.56782 0.9017 0.0
C780 C 0.62911 0.55343 0.90125 0.0
C781 C 0.53671 0.51258 0.81464 0.0
C782 C 0.54383 0.51166 0.76005 0.0
C783 C 0.54804 0.51596 0.86077 0.0
C784 C 0.56692 0.51781 0.85345 0.0
C785 C 0.57401 0.5173 0.79856 0.0
C786 C 0.56258 0.51424 0.75238 0.0
C787 C 0.57946 0.51917 0.90274 0.0
C788 C 0.59237 0.53323 0.90404 0.0
C789 C 0.57904 0.50647 0.94774 0.0
C790 C 0.5661 0.49103 0.94849 0.0
C791 C 0.56557 0.47857 0.90379 0.0
C792 C 0.55251 0.46479 0.903 0.0
C793 C 0.54013 0.46309 0.94726 0.0
C794 C 0.54087 0.47512 0.99254 0.0
C795 C 0.5538 0.48904 0.99328 0.0
H796 H 0.52998 0.45246 0.94646 0.0
H797 H 0.65239 0.59025 0.9489 0.0
H798 H 0.00701 0.64153 0.14264 0.0
H799 H 1.0039 0.61733 0.07315 0.0
H800 H 0.97584 0.65407 0.96172 0.0
H801 H 0.97891 0.67843 0.03131 0.0
H802 H 0.96163 0.61889 0.95653 0.0
H803 H 0.0204 0.64763 0.94578 0.0
H804 H 0.04953 0.65871 0.98389 0.0
H805 H 0.06365 0.6045 0.03425 0.0
H806 H 0.03445 0.59315 0.9972 0.0
H807 H 0.9833 0.57495 0.69536 0.0
H808 H 0.97931 0.59633 0.7734 0.0
H809 H 0.00717 0.55933 0.88455 0.0
H810 H 0.01108 0.5379 0.80688 0.0
H811 H 0.02063 0.59407 0.89117 0.0
H812 H 0.96305 0.5647 0.89864 0.0
H813 H 0.93414 0.55301 0.86081 0.0
H814 H 0.91778 0.6072 0.81732 0.0
H815 H 0.94676 0.6192 0.85403 0.0
C816 C 0.99998 0.64443 0.10362 0.0
C817 C 0.99342 0.66202 0.09232 0.0
C818 C 0.99819 0.63056 0.06391 0.0
C819 C 0.98994 0.63393 0.01165 0.0
C820 C 0.9823 0.65113 1.00163 0.0
C821 C 0.98403 0.66504 0.04156 0.0
C822 C 0.99072 0.62003 0.9661 0.0
C823 C 0.97452 0.61361 0.94178 0.0
C824 C 0.00752 0.6128 0.94749 0.0
C825 C 0.02517 0.61957 0.96921 0.0
C826 C 0.02966 0.6381 0.96533 0.0
C827 C 0.04619 0.64442 0.98671 0.0
C828 C 0.05841 0.63232 0.0116 0.0
C829 C 0.05415 0.61386 0.01503 0.0
C830 C 0.03762 0.60747 0.99383 0.0
C831 C 0.98841 0.57132 0.73659 0.0
C832 C 0.99749 0.55475 0.74501 0.0
C833 C 0.98607 0.58351 0.78119 0.0
C834 C 0.99289 0.57943 0.83498 0.0
C835 C 1.00179 0.56278 0.84351 0.0
C836 C 1.00395 0.55052 0.79911 0.0
C837 C 0.99156 0.59287 0.88159 0.0
C838 C 0.0077 0.59927 0.90599 0.0
C839 C 0.97472 0.59997 0.90024 0.0
C840 C 0.95718 0.59284 0.87858 0.0
C841 C 0.95336 0.57412 0.88057 0.0
C842 C 0.93695 0.56743 0.8594 0.0
C843 C 0.92415 0.57935 0.83655 0.0
C844 C 0.92772 0.59798 0.83498 0.0
C845 C 0.94414 0.60474 0.856 0.0
H846 H 0.91145 0.57414 0.82018 0.0
H847 H 0.0712 0.63725 0.02813 0.0
H848 H 0.10254 0.21755 0.36008 0.0
H849 H 0.09672 0.19104 0.41958 0.0
H850 H 0.04467 0.21328 0.46615 0.0
H851 H 0.0504 0.23971 0.40753 0.0
H852 H 0.0575 0.1898 0.5474 0.0
H853 H 0.04764 0.19118 0.34529 0.0
H854 H 0.05728 0.1957 0.24691 0.0
H855 H 0.09792 0.15433 0.26628 0.0
H856 H 0.08863 0.14974 0.36509 0.0
H857 H 0.99408 0.11719 0.53776 0.0
H858 H 0.01146 0.14524 0.52463 0.0
H859 H 0.0585 0.11394 0.47662 0.0
H860 H 0.04105 0.08598 0.48736 0.0
H861 H 0.05275 0.14067 0.40562 0.0
H862 H 0.05564 0.13507 0.60637 0.0
H863 H 0.04273 0.13094 0.70127 0.0
H864 H 0.01239 0.18035 0.6831 0.0
H865 H 0.02485 0.18466 0.58775 0.0
C866 C 0.09021 0.21712 0.38492 0.0
C867 C 0.07674 0.23047 0.37806 0.0
C868 C 0.08692 0.20201 0.419 0.0
C869 C 0.07003 0.2 0.44583 0.0
C870 C 0.05774 0.21452 0.44552 0.0
C871 C 0.06107 0.22968 0.41185 0.0
C872 C 0.06341 0.18179 0.46236 0.0
C873 C 0.05654 0.17897 0.51673 0.0
C874 C 0.06215 0.16771 0.42211 0.0
C875 C 0.06762 0.17029 0.36265 0.0
C876 C 0.0587 0.18313 0.32861 0.0
C877 C 0.06408 0.18569 0.2728 0.0
C878 C 0.07824 0.17535 0.25042 0.0
C879 C 0.08699 0.16237 0.28374 0.0
C880 C 0.08168 0.15978 0.33963 0.0
C881 C 0.00807 0.11633 0.52386 0.0
C882 C 0.01621 0.09941 0.5136 0.0
C883 C 0.01807 0.13232 0.51731 0.0
C884 C 0.03639 0.13163 0.50084 0.0
C885 C 0.04446 0.11476 0.49002 0.0
C886 C 0.03447 0.09881 0.49629 0.0
C887 C 0.04679 0.14853 0.49085 0.0
C888 C 0.05419 0.15119 0.4372 0.0
C889 C 0.04825 0.16244 0.53165 0.0
C890 C 0.0411 0.16012 0.58964 0.0
C891 C 0.04614 0.14502 0.62247 0.0
C892 C 0.03891 0.14264 0.67636 0.0
C893 C 0.0267 0.15534 0.69803 0.0
C894 C 0.02182 0.17052 0.66614 0.0
C895 C 0.02899 0.17294 0.61221 0.0
H896 H 0.021 0.15345 0.73948 0.0
H897 H 0.0824 0.17737 0.20721 0.0
H898 H 0.28454 0.10919 0.33822 0.0
H899 H 0.31524 0.10401 0.37169 0.0
H900 H 0.33534 0.10734 0.2016 0.0
H901 H 0.30468 0.11024 0.1671 0.0
H902 H 0.34492 0.07777 0.23822 0.0
H903 H 0.35041 0.13634 0.31473 0.0
H904 H 0.34182 0.16395 0.36665 0.0
H905 H 0.33906 0.13333 0.52019 0.0
H906 H 0.34737 0.10546 0.46913 0.0
H907 H 0.42914 0.06321 0.4386 0.0
H908 H 0.40734 0.08394 0.39469 0.0
H909 H 0.37059 0.03915 0.36693 0.0
H910 H 0.39229 0.01845 0.41049 0.0
H911 H 0.37535 0.09482 0.41636 0.0
H912 H 0.34593 0.04365 0.25141 0.0
H913 H 0.35668 0.01849 0.19189 0.0
H914 H 0.41126 0.03887 0.20192 0.0
H915 H 0.40076 0.06432 0.26063 0.0
C916 C 0.29544 0.10894 0.3077 0.0
C917 C 0.29174 0.10929 0.24956 0.0
C918 C 0.31318 0.10637 0.3272 0.0
C919 C 0.3277 0.10493 0.28912 0.0
C920 C 0.32435 0.10804 0.23185 0.0
C921 C 0.3066 0.10996 0.21216 0.0
C922 C 0.34526 0.09676 0.30719 0.0
C923 C 0.35167 0.08173 0.27682 0.0
C924 C 0.35445 0.10204 0.35684 0.0
C925 C 0.34944 0.11876 0.38795 0.0
C926 C 0.34785 0.13545 0.3595 0.0
C927 C 0.34305 0.15116 0.3888 0.0
C928 C 0.33988 0.15039 0.44667 0.0
C929 C 0.34153 0.13391 0.47537 0.0
C930 C 0.34632 0.11815 0.44627 0.0
C931 C 0.4164 0.05782 0.42298 0.0
C932 C 0.41247 0.03917 0.42743 0.0
C933 C 0.40401 0.06966 0.39766 0.0
C934 C 0.38754 0.06306 0.37593 0.0
C935 C 0.38346 0.0445 0.38154 0.0
C936 C 0.39586 0.03266 0.40654 0.0
C937 C 0.37432 0.07549 0.34853 0.0
C938 C 0.36877 0.09121 0.37715 0.0
C939 C 0.36621 0.07119 0.29627 0.0
C940 C 0.3726 0.05585 0.2609 0.0
C941 C 0.36022 0.04282 0.24075 0.0
C942 C 0.36626 0.02849 0.20717 0.0
C943 C 0.38465 0.02703 0.19335 0.0
C944 C 0.39703 0.03995 0.21287 0.0
C945 C 0.39105 0.05433 0.24634 0.0
H946 H 0.3893 0.01593 0.16732 0.0
H947 H 0.33616 0.16257 0.46927 0.0
H948 H 0.40742 0.31185 0.21466 0.0
H949 H 0.41539 0.33821 0.2696 0.0
H950 H 0.40641 0.30818 0.42266 0.0
H951 H 0.39757 0.28149 0.36775 0.0
H952 H 0.40096 0.35225 0.41699 0.0
H953 H 0.44359 0.30156 0.39341 0.0
H954 H 0.45655 0.27744 0.33387 0.0
H955 H 0.47452 0.31744 0.21457 0.0
H956 H 0.46127 0.34176 0.27286 0.0
H957 H 0.46836 0.40564 0.5568 0.0
H958 H 0.45003 0.37956 0.52834 0.0
H959 H 0.46737 0.38699 0.35661 0.0
H960 H 0.48566 0.41304 0.38446 0.0
H961 H 0.46767 0.35202 0.38448 0.0
H962 H 0.42505 0.40179 0.39848 0.0
H963 H 0.40932 0.42707 0.44569 0.0
H964 H 0.39096 0.39081 0.57536 0.0
H965 H 0.40642 0.36524 0.52846 0.0
C966 C 0.40603 0.31092 0.25986 0.0
C967 C 0.40231 0.29424 0.28665 0.0
C968 C 0.4107 0.32613 0.2913 0.0
C969 C 0.41184 0.32495 0.34991 0.0
C970 C 0.40568 0.30924 0.37728 0.0
C971 C 0.40084 0.29396 0.34575 0.0
C972 C 0.42347 0.33811 0.37964 0.0
C973 C 0.41559 0.35203 0.41124 0.0
C974 C 0.44248 0.33793 0.37077 0.0
C975 C 0.45134 0.32344 0.33728 0.0
C976 C 0.45024 0.30519 0.35437 0.0
C977 C 0.45762 0.29149 0.32083 0.0
C978 C 0.46633 0.2959 0.27042 0.0
C979 C 0.46776 0.31404 0.25362 0.0
C980 C 0.46033 0.32779 0.2869 0.0
C981 C 0.46826 0.40175 0.51292 0.0
C982 C 0.4783 0.41163 0.47277 0.0
C983 C 0.45777 0.38684 0.49679 0.0
C984 C 0.4571 0.38154 0.44023 0.0
C985 C 0.46767 0.39088 0.4005 0.0
C986 C 0.47819 0.40575 0.41658 0.0
C987 C 0.44524 0.36642 0.42187 0.0
C988 C 0.45312 0.35209 0.39189 0.0
C989 C 0.42625 0.36636 0.432 0.0
C990 C 0.41702 0.38167 0.46034 0.0
C991 C 0.41775 0.39924 0.43725 0.0
C992 C 0.40887 0.41361 0.46389 0.0
C993 C 0.39929 0.41059 0.51376 0.0
C994 C 0.39844 0.39314 0.53683 0.0
C995 C 0.40718 0.37869 0.51011 0.0
H996 H 0.39246 0.42175 0.53437 0.0
H997 H 0.47198 0.28527 0.24442 0.0
H998 H 0.18952 0.38793 0.21869 0.0
H999 H 0.16184 0.39109 0.27505 0.0
H1000 H 0.19037 0.42653 0.38925 0.0
H1001 H 0.21785 0.42324 0.33425 0.0
H1002 H 0.16424 0.41006 0.4441 0.0
H1003 H 0.17051 0.44212 0.26622 0.0
H1004 H 0.17402 0.44441 0.16332 0.0
H1005 H 0.12449 0.41445 0.14012 0.0
H1006 H 0.12088 0.41171 0.243 0.0
H1007 H 0.10908 0.49257 0.45595 0.0
H1008 H 0.13198 0.47016 0.42846 0.0
H1009 H 0.09157 0.42786 0.43402 0.0
H1010 H 0.0684 0.45016 0.45995 0.0
H1011 H 0.11891 0.44075 0.32219 0.0
H1012 H 0.11216 0.41242 0.50749 0.0
H1013 H 0.11059 0.41233 0.61111 0.0
H1014 H 0.16219 0.43945 0.61957 0.0
H1015 H 0.16401 0.43975 0.51591 0.0
C1016 C 0.19002 0.39585 0.25698 0.0
C1017 C 0.20578 0.4056 0.27139 0.0
C1018 C 0.1742 0.39766 0.2891 0.0
C1019 C 0.17391 0.40949 0.33535 0.0
C1020 C 0.19022 0.4174 0.35358 0.0
C1021 C 0.20602 0.41546 0.32196 0.0
C1022 C 0.15656 0.41633 0.35876 0.0
C1023 C 0.15421 0.41655 0.41736 0.0
C1024 C 0.14341 0.42483 0.32395 0.0
C1025 C 0.1456 0.42644 0.26218 0.0
C1026 C 0.16046 0.43588 0.23914 0.0
C1027 C 0.16246 0.43727 0.18085 0.0
C1028 C 0.14952 0.42951 0.1452 0.0
C1029 C 0.13454 0.42038 0.16778 0.0
C1030 C 0.13253 0.41888 0.22607 0.0
C1031 C 0.10503 0.47853 0.45096 0.0
C1032 C 0.08692 0.47316 0.45974 0.0
C1033 C 0.11815 0.46574 0.43606 0.0
C1034 C 0.11338 0.44743 0.42977 0.0
C1035 C 0.09543 0.44194 0.43912 0.0
C1036 C 0.08228 0.4547 0.45403 0.0
C1037 C 0.12683 0.43461 0.40714 0.0
C1038 C 0.12855 0.43356 0.34867 0.0
C1039 C 0.13952 0.4257 0.442 0.0
C1040 C 0.13813 0.42625 0.50406 0.0
C1041 C 0.12306 0.41854 0.53146 0.0
C1042 C 0.12221 0.41831 0.59018 0.0
C1043 C 0.13634 0.42579 0.62191 0.0
C1044 C 0.15131 0.43358 0.59495 0.0
C1045 C 0.15227 0.43376 0.53624 0.0
H1046 H 0.13561 0.42566 0.66735 0.0
H1047 H 0.15107 0.43063 0.10007 0.0
H1048 H 0.0822 0.81211 0.16608 0.0
H1049 H 0.08819 0.83712 0.10319 0.0
H1050 H 0.10883 0.80007 0.97844 0.0
H1051 H 0.10304 0.77455 0.04225 0.0
H1052 H 0.11283 0.85386 0.04009 0.0
H1053 H 0.0883 0.81226 0.85447 0.0
H1054 H 0.07351 0.78289 0.83388 0.0
H1055 H 0.04493 0.78532 0.99109 0.0
H1056 H 0.05933 0.81481 0.01207 0.0
H1057 H 0.08235 0.92425 0.85737 0.0
H1058 H 0.09883 0.89644 0.88249 0.0
H1059 H 0.04812 0.87104 0.92942 0.0
H1060 H 0.0317 0.89843 0.90265 0.0
H1061 H 0.06871 0.84686 0.88382 0.0
H1062 H 0.07728 0.89417 0.02613 0.0
H1063 H 0.08786 0.9242 0.05838 0.0
H1064 H 0.14214 0.91146 0.00522 0.0
H1065 H 0.1318 0.88142 0.97212 0.0
C1066 C 0.08882 0.80916 0.1265 0.0
C1067 C 0.09178 0.79117 0.10894 0.0
C1068 C 0.09222 0.82361 0.09028 0.0
C1069 C 0.09857 0.82045 0.03563 0.0
C1070 C 0.10363 0.80277 0.02019 0.0
C1071 C 0.10022 0.7882 0.05661 0.0
C1072 C 0.09631 0.83507 0.9933 0.0
C1073 C 0.10358 0.85227 0.0049 0.0
C1074 C 0.08407 0.83305 0.94777 0.0
C1075 C 0.07507 0.81555 0.93508 0.0
C1076 C 0.07882 0.80652 0.88449 0.0
C1077 C 0.0705 0.78987 0.87276 0.0
C1078 C 0.05834 0.78221 0.91125 0.0
C1079 C 0.05437 0.79124 0.96138 0.0
C1080 C 0.06259 0.80792 0.97317 0.0
C1081 C 0.07478 0.91261 0.87249 0.0
C1082 C 0.0558 0.91349 0.87862 0.0
C1083 C 0.08418 0.89675 0.88674 0.0
C1084 C 0.07476 0.88172 0.90861 0.0
C1085 C 0.05571 0.8824 0.91239 0.0
C1086 C 0.04632 0.89809 0.89729 0.0
C1087 C 0.08447 0.86583 0.93255 0.0
C1088 C 0.07867 0.84838 0.91714 0.0
C1089 C 0.09753 0.86773 0.97594 0.0
C1090 C 0.10374 0.8857 0.99606 0.0
C1091 C 0.09144 0.89784 0.02107 0.0
C1092 C 0.09739 0.91484 0.03951 0.0
C1093 C 0.11565 0.91976 0.03368 0.0
C1094 C 0.128 0.90765 0.00956 0.0
C1095 C 0.1221 0.89064 0.99096 0.0
H1096 H 0.12023 0.93293 0.04797 0.0
H1097 H 0.05196 0.7693 0.90216 0.0
H1098 H 0.74137 0.97378 0.91354 0.0
H1099 H 0.72187 0.98253 0.8352 0.0
H1100 H 0.68506 0.93889 0.87614 0.0
H1101 H 0.70474 0.92976 0.9538 0.0
H1102 H 0.68281 0.95055 0.76049 0.0
H1103 H 0.68203 0.97521 0.95463 0.0
H1104 H 0.69774 0.98995 0.03406 0.0
H1105 H 0.71236 0.03478 0.92746 0.0
H1106 H 0.69696 0.02009 0.84715 0.0
H1107 H 0.59384 0.96757 0.82726 0.0
H1108 H 0.62584 0.96098 0.81299 0.0
H1109 H 0.63542 0.01672 0.76554 0.0
H1110 H 0.60297 0.02331 0.778 0.0
H1111 H 0.65713 0.00575 0.84959 0.0
H1112 H 0.64379 0.98456 0.66938 0.0
H1113 H 0.6268 0.96885 0.59478 0.0
H1114 H 0.6376 0.91749 0.67324 0.0
H1115 H 0.65431 0.93285 0.74929 0.0
C1116 C 0.72966 0.96541 0.90406 0.0
C1117 C 0.72426 0.9514 0.94076 0.0
C1118 C 0.71853 0.97044 0.85912 0.0
C1119 C 0.70184 0.96162 0.85087 0.0
C1120 C 0.69785 0.94593 0.88206 0.0
C1121 C 0.70899 0.94086 0.92689 0.0
C1122 C 0.68667 0.97123 0.82306 0.0
C1123 C 0.67724 0.96276 0.77909 0.0
C1124 C 0.67974 0.98746 0.84653 0.0
C1125 C 0.68855 0.99651 0.89494 0.0
C1126 C 0.68866 0.98818 0.94819 0.0
C1127 C 0.69751 0.99651 0.9933 0.0
C1128 C 0.70608 0.01328 0.98578 0.0
C1129 C 0.70575 0.02178 0.93317 0.0
C1130 C 0.69698 0.01345 0.88784 0.0
C1131 C 0.6026 0.97832 0.81215 0.0
C1132 C 0.59585 0.99594 0.80376 0.0
C1133 C 0.62091 0.97452 0.80376 0.0
C1134 C 0.63294 0.98829 0.78708 0.0
C1135 C 0.62627 0.00587 0.77769 0.0
C1136 C 0.60782 0.00965 0.78558 0.0
C1137 C 0.65269 0.98463 0.78855 0.0
C1138 C 0.663 0.99414 0.82825 0.0
C1139 C 0.66028 0.96938 0.76109 0.0
C1140 C 0.65036 0.95991 0.71521 0.0
C1141 C 0.64248 0.96992 0.67101 0.0
C1142 C 0.63289 0.96107 0.62837 0.0
C1143 C 0.63116 0.94219 0.62912 0.0
C1144 C 0.639 0.93211 0.67262 0.0
C1145 C 0.64856 0.94089 0.71551 0.0
H1146 H 0.62373 0.93538 0.59604 0.0
H1147 H 0.71293 0.01971 0.02074 0.0
H1148 H 0.57922 0.70234 0.00485 0.0
H1149 H 0.57961 0.67124 0.97201 0.0
H1150 H 0.61754 0.65692 0.10285 0.0
H1151 H 0.61779 0.68839 0.13524 0.0
H1152 H 0.60128 0.6404 0.94468 0.0
H1153 H 0.59551 0.62473 0.17757 0.0
H1154 H 0.59044 0.64068 0.26752 0.0
H1155 H 0.55701 0.68003 0.18332 0.0
H1156 H 0.56167 0.66414 0.09326 0.0
H1157 H 0.55987 0.55389 0.92962 0.0
H1158 H 0.58219 0.57568 0.9659 0.0
H1159 H 0.53843 0.60815 0.03296 0.0
H1160 H 0.51638 0.58592 0.99932 0.0
H1161 H 0.56606 0.61129 0.09851 0.0
H1162 H 0.55724 0.61311 0.89308 0.0
H1163 H 0.55879 0.5983 0.80016 0.0
H1164 H 0.61604 0.58945 0.82211 0.0
H1165 H 0.61476 0.60422 0.91515 0.0
C1166 C 0.58848 0.69294 0.02495 0.0
C1167 C 0.59803 0.6978 0.07398 0.0
C1168 C 0.58866 0.67504 0.00595 0.0
C1169 C 0.59823 0.66172 0.0359 0.0
C1170 C 0.60988 0.667 0.07963 0.0
C1171 C 0.60985 0.68498 0.09839 0.0
C1172 C 0.59233 0.6426 0.03055 0.0
C1173 C 0.59395 0.63379 0.9786 0.0
C1174 C 0.58249 0.63415 0.07455 0.0
C1175 C 0.57912 0.64339 0.12879 0.0
C1176 C 0.58702 0.63674 0.17844 0.0
C1177 C 0.58422 0.64576 0.22938 0.0
C1178 C 0.57345 0.66139 0.2311 0.0
C1179 C 0.56536 0.66795 0.18195 0.0
C1180 C 0.56807 0.65894 0.13099 0.0
C1181 C 0.5552 0.56544 0.95361 0.0
C1182 C 0.53652 0.56839 0.96157 0.0
C1183 C 0.56789 0.57791 0.97407 0.0
C1184 C 0.56199 0.59379 1.00105 0.0
C1185 C 0.54336 0.59602 0.01229 0.0
C1186 C 0.53074 0.58336 0.99302 0.0
C1187 C 0.57456 0.60916 0.01206 0.0
C1188 C 0.5741 0.61738 0.06518 0.0
C1189 C 0.585 0.61727 0.96856 0.0
C1190 C 0.58587 0.60947 0.91129 0.0
C1191 C 0.57015 0.60801 0.87798 0.0
C1192 C 0.57097 0.59962 0.82537 0.0
C1193 C 0.58748 0.59281 0.80547 0.0
C1194 C 0.60325 0.59463 0.83775 0.0
C1195 C 0.60249 0.60302 0.89035 0.0
H1196 H 0.58808 0.58617 0.76498 0.0
H1197 H 0.57136 0.66839 0.27052 0.0
H1198 H 0.75479 0.53455 0.91094 0.0
H1199 H 0.77462 0.52484 0.83469 0.0
H1200 H 0.8124 0.56758 0.87586 0.0
H1201 H 0.79236 0.57773 0.95125 0.0
H1202 H 0.81461 0.55644 0.7615 0.0
H1203 H 0.81357 0.53037 0.95306 0.0
H1204 H 0.79759 0.5152 0.03132 0.0
H1205 H 0.78343 0.47091 0.92257 0.0
H1206 H 0.79908 0.48603 0.84339 0.0
H1207 H 0.90393 0.53415 0.81226 0.0
H1208 H 0.8722 0.5428 0.80273 0.0
H1209 H 0.85805 0.48738 0.76328 0.0
H1210 H 0.88997 0.47849 0.77501 0.0
H1211 H 0.83809 0.49929 0.84516 0.0
H1212 H 0.85104 0.52186 0.66497 0.0
H1213 H 0.86814 0.53767 0.59063 0.0
H1214 H 0.86107 0.58838 0.67605 0.0
H1215 H 0.84418 0.5729 0.7517 0.0
C1216 C 0.76683 0.54251 0.90197 0.0
C1217 C 0.77229 0.55663 0.93802 0.0
C1218 C 0.77817 0.5369 0.85831 0.0
C1219 C 0.79514 0.54522 0.85065 0.0
C1220 C 0.79939 0.5609 0.88136 0.0
C1221 C 0.78803 0.56657 0.92487 0.0
C1222 C 0.81006 0.53536 0.82255 0.0
C1223 C 0.81973 0.54384 0.77903 0.0
C1224 C 0.81636 0.51864 0.84457 0.0
C1225 C 0.80726 0.50941 0.89228 0.0
C1226 C 0.80696 0.51744 0.94584 0.0
C1227 C 0.79796 0.50886 0.99032 0.0
C1228 C 0.78946 0.49212 0.98189 0.0
C1229 C 0.78998 0.4839 0.92899 0.0
C1230 C 0.79889 0.49248 0.88429 0.0
C1231 C 0.89407 0.52379 0.80141 0.0
C1232 C 0.89932 0.50558 0.79548 0.0
C1233 C 0.87597 0.52882 0.79476 0.0
C1234 C 0.86274 0.51579 0.78139 0.0
C1235 C 0.86806 0.49768 0.77308 0.0
C1236 C 0.88625 0.49262 0.77987 0.0
C1237 C 0.84328 0.52075 0.78544 0.0
C1238 C 0.83271 0.51139 0.82505 0.0
C1239 C 0.83628 0.53665 0.75977 0.0
C1240 C 0.84632 0.54617 0.71416 0.0
C1241 C 0.8532 0.53637 0.66815 0.0
C1242 C 0.86285 0.54528 0.62569 0.0
C1243 C 0.86568 0.56399 0.62849 0.0
C1244 C 0.85884 0.57387 0.67384 0.0
C1245 C 0.84918 0.56504 0.71651 0.0
H1246 H 0.87319 0.57084 0.59556 0.0
H1247 H 0.7825 0.48549 0.01637 0.0
H1248 H 0.04556 0.18636 0.00421 0.0
H1249 H 0.04095 0.15748 0.95684 0.0
H1250 H 0.00669 0.18372 0.83405 0.0
H1251 H 0.01119 0.21295 0.88209 0.0
H1252 H 0.99236 0.15192 0.86227 0.0
H1253 H 0.05023 0.17061 0.79923 0.0
H1254 H 0.08154 0.1824 0.80509 0.0
H1255 H 0.09715 0.13657 0.90591 0.0
H1256 H 0.06586 0.1246 0.90123 0.0
H1257 H 0.99703 0.07255 0.68604 0.0
H1258 H 1.00129 0.10372 0.71911 0.0
H1259 H 0.02757 0.08364 0.86876 0.0
H1260 H 0.02322 0.05239 0.83642 0.0
H1261 H 0.04578 0.11367 0.81595 0.0
H1262 H 0.98509 0.09657 0.87792 0.0
H1263 H 0.95382 0.08563 0.86213 0.0
H1264 H 0.94393 0.13005 0.749 0.0
H1265 H 0.97526 0.14111 0.76356 0.0
C1266 C 0.03716 0.18611 0.9668 0.0
C1267 C 0.02899 0.20212 0.9465 0.0
C1268 C 0.03453 0.16951 0.93966 0.0
C1269 C 0.02378 0.16837 0.89101 0.0
C1270 C 0.01514 0.18421 0.87132 0.0
C1271 C 0.0177 0.20092 0.89884 0.0
C1272 C 0.02161 0.15053 0.86164 0.0
C1273 C 1.00408 0.14372 0.85139 0.0
C1274 C 0.03682 0.13967 0.84714 0.0
C1275 C 0.05565 0.1468 0.85031 0.0
C1276 C 0.0603 0.16312 0.82303 0.0
C1277 C 0.07805 0.16982 0.82606 0.0
C1278 C 0.09131 0.16026 0.85598 0.0
C1279 C 0.08686 0.14396 0.88281 0.0
C1280 C 0.06912 0.1372 0.87992 0.0
C1281 C 1.00378 0.0747 0.72596 0.0
C1282 C 0.00969 0.05985 0.7587 0.0
C1283 C 0.00615 0.09258 0.74484 0.0
C1284 C 0.01461 0.09604 0.79666 0.0
C1285 C 0.02097 0.08131 0.82869 0.0
C1286 C 0.01843 0.06342 0.81017 0.0
C1287 C 0.0166 0.11496 0.81815 0.0
C1288 C 0.03411 0.12196 0.82674 0.0
C1289 C 1.0014 0.12612 0.82975 0.0
C1290 C 0.98255 0.11956 0.82142 0.0
C1291 C 0.97629 0.10392 0.84936 0.0
C1292 C 0.95855 0.09771 0.84069 0.0
C1293 C 0.94691 0.10711 0.80448 0.0
C1294 C 0.95297 0.12277 0.77698 0.0
C1295 C 0.97071 0.12902 0.78546 0.0
H1296 H 0.93318 0.10228 0.79781 0.0
H1297 H 0.10505 0.16547 0.85828 0.0
H1298 H 0.30763 0.01277 0.01485 0.0
H1299 H 0.33768 0.00894 0.97255 0.0
H1300 H 0.31754 0.03052 0.81586 0.0
H1301 H 0.28732 0.03395 0.85744 0.0
H1302 H 0.34069 1.00213 0.79845 0.0
H1303 H 0.34066 0.05722 0.90922 0.0
H1304 H 0.3365 0.07486 0.99629 0.0
H1305 H 0.37715 0.04262 0.07888 0.0
H1306 H 0.38133 0.02457 0.99261 0.0
H1307 H 0.42578 0.02093 0.67059 0.0
H1308 H 0.39511 0.02352 0.70966 0.0
H1309 H 0.41604 0.01099 0.8748 0.0
H1310 H 0.44672 0.00941 0.83648 0.0
H1311 H 0.39208 0.03471 0.88805 0.0
H1312 H 0.39224 0.97901 0.78427 0.0
H1313 H 0.39658 0.95948 0.70126 0.0
H1314 H 0.35636 0.99004 0.61085 0.0
H1315 H 0.35194 0.0099 0.69314 0.0
C1316 C 0.30945 0.01632 0.971 0.0
C1317 C 0.29501 0.02377 0.9397 0.0
C1318 C 0.32674 0.01431 0.94702 0.0
C1319 C 0.33002 0.01976 0.89125 0.0
C1320 C 0.31543 0.02634 0.85906 0.0
C1321 C 0.29815 0.02838 0.88302 0.0
C1322 C 0.34876 0.01932 0.86711 0.0
C1323 C 0.3519 0.00941 0.81768 0.0
C1324 C 0.36354 0.02841 0.89291 0.0
C1325 C 0.36118 0.03943 0.94458 0.0
C1326 C 0.34862 0.0538 0.94607 0.0
C1327 C 0.34626 0.06388 0.99529 0.0
C1328 C 0.3565 0.05981 0.04317 0.0
C1329 C 0.36918 0.04571 0.04185 0.0
C1330 C 0.37156 0.03556 0.99279 0.0
C1331 C 0.42384 0.01886 0.7153 0.0
C1332 C 0.43873 0.01496 0.75035 0.0
C1333 C 0.40623 0.02018 0.73763 0.0
C1334 C 0.40301 0.01704 0.79525 0.0
C1335 C 0.41799 0.01347 0.8303 0.0
C1336 C 0.43561 0.01257 0.80825 0.0
C1337 C 0.38417 0.0174 0.81925 0.0
C1338 C 0.38095 0.02735 0.86868 0.0
C1339 C 0.36939 0.00805 0.79403 0.0
C1340 C 0.37189 0.99604 0.74467 0.0
C1341 C 0.3844 0.98163 0.74657 0.0
C1342 C 0.38686 0.97049 0.69966 0.0
C1343 C 0.37678 0.97355 0.65076 0.0
C1344 C 0.36417 0.98771 0.64873 0.0
C1345 C 0.36167 0.9989 0.6955 0.0
H1346 H 0.37872 0.96492 0.61448 0.0
H1347 H 0.35466 0.06762 0.08125 0.0
H1348 H 0.45024 0.31724 0.95158 0.0
H1349 H 0.45591 0.34644 0.90686 0.0
H1350 H 0.51122 0.33059 0.87302 0.0
H1351 H 0.50558 0.30102 0.91758 0.0
H1352 H 0.51006 0.36478 0.91091 0.0
H1353 H 0.47991 0.33159 0.76744 0.0
H1354 H 0.45613 0.31246 0.72478 0.0
H1355 H 0.41624 0.35358 0.75801 0.0
H1356 H 0.43974 0.37286 0.80166 0.0
H1357 H 0.49554 0.43663 0.66953 0.0
H1358 H 0.49442 0.4056 0.70566 0.0
H1359 H 0.49165 0.42602 0.87523 0.0
H1360 H 0.49296 0.45716 0.83949 0.0
H1361 H 0.46928 0.38796 0.76096 0.0
H1362 H 0.51211 0.39584 0.96542 0.0
H1363 H 0.53893 0.41258 0.99989 0.0
H1364 H 0.55777 0.41958 0.83041 0.0
H1365 H 0.53119 0.40272 0.79494 0.0
C1366 C 0.46356 0.31975 0.93385 0.0
C1367 C 0.47736 0.30655 0.93751 0.0
C1368 C 0.4668 0.33656 0.9084 0.0
C1369 C 0.48391 0.34069 0.88567 0.0
C1370 C 0.49787 0.32773 0.89006 0.0
C1371 C 0.49463 0.31082 0.91564 0.0
C1372 C 0.48711 0.35866 0.85813 0.0
C1373 C 0.50115 0.36985 0.87811 0.0
C1374 C 0.47578 0.36518 0.81432 0.0
C1375 C 0.46157 0.3536 0.78828 0.0
C1376 C 0.46604 0.33649 0.76609 0.0
C1377 C 0.45261 0.32563 0.74165 0.0
C1378 C 0.43468 0.33178 0.7388 0.0
C1379 C 0.43014 0.34883 0.7603 0.0
C1380 C 0.44351 0.35973 0.78486 0.0
C1381 C 0.49475 0.43458 0.71457 0.0
C1382 C 0.49431 0.44949 0.75153 0.0
C1383 C 0.49408 0.41677 0.73519 0.0
C1384 C 0.49312 0.41337 0.79327 0.0
C1385 C 0.49267 0.42822 0.8303 0.0
C1386 C 0.49326 0.44606 0.80971 0.0
C1387 C 0.49192 0.39433 0.81486 0.0
C1388 C 0.47822 0.38293 0.79377 0.0
C1389 C 0.50382 0.3875 0.85673 0.0
C1390 C 0.51956 0.39814 0.87753 0.0
C1391 C 0.52198 0.40095 0.93551 0.0
C1392 C 0.53716 0.41043 0.95523 0.0
C1393 C 0.55007 0.41708 0.91737 0.0
C1394 C 0.54776 0.4144 0.85968 0.0
C1395 C 0.53261 0.40494 0.83973 0.0
H1396 H 0.56185 0.42435 0.93275 0.0
H1397 H 0.42431 0.32336 0.71983 0.0
H1398 H 0.19895 0.51604 0.92773 0.0
H1399 H 0.16905 0.51874 0.88326 0.0
H1400 H 0.16853 0.46112 0.85207 0.0
H1401 H 0.19815 0.45822 0.8971 0.0
H1402 H 0.15444 0.47906 0.7632 0.0
H1403 H 0.14578 0.47811 0.96267 0.0
H1404 H 0.15065 0.48792 0.06057 0.0
H1405 H 0.13106 0.54121 0.01928 0.0
H1406 H 0.12629 0.53176 0.92087 0.0
H1407 H 0.04887 0.48604 0.81103 0.0
H1408 H 0.07986 0.48267 0.84684 0.0
H1409 H 0.1007 0.50938 0.69869 0.0
H1410 H 0.0699 0.51217 0.66173 0.0
H1411 H 0.10467 0.50556 0.8773 0.0
H1412 H 0.14312 0.4942 0.66724 0.0
H1413 H 0.13623 0.48247 0.5724 0.0
H1414 H 0.09414 0.44866 0.64078 0.0
H1415 H 0.1011 0.45974 0.73611 0.0
C1416 C 0.19253 0.50393 0.91134 0.0
C1417 C 0.2011 0.48691 0.91632 0.0
C1418 C 0.17542 0.5055 0.88572 0.0
C1419 C 0.1664 0.4901 0.86466 0.0
C1420 C 0.17519 0.47323 0.86765 0.0
C1421 C 0.19226 0.47163 0.89333 0.0
C1422 C 0.14744 0.49135 0.84242 0.0
C1423 C 0.14358 0.48493 0.78805 0.0
C1424 C 0.13308 0.49857 0.87516 0.0
C1425 C 0.13586 0.50428 0.9343 0.0
C1426 C 0.14264 0.49196 0.97438 0.0
C1427 C 0.14536 0.49744 0.02997 0.0
C1428 C 0.14122 0.51519 0.0461 0.0
C1429 C 0.13429 0.52747 0.0067 0.0
C1430 C 0.13157 0.52206 0.95102 0.0
C1431 C 0.06006 0.49106 0.7858 0.0
C1432 C 0.05683 0.49926 0.73326 0.0
C1433 C 0.0778 0.48921 0.80651 0.0
C1434 C 0.09275 0.4956 0.77538 0.0
C1435 C 0.08952 0.50398 0.72317 0.0
C1436 C 0.07182 0.50561 0.70209 0.0
C1437 C 0.11166 0.49357 0.79765 0.0
C1438 C 0.11552 0.4998 0.85217 0.0
C1439 C 0.12588 0.48576 0.76548 0.0
C1440 C 0.12249 0.47801 0.70879 0.0
C1441 C 0.13252 0.48413 0.66213 0.0
C1442 C 0.12856 0.47763 0.60826 0.0
C1443 C 0.11462 0.465 0.60059 0.0
C1444 C 0.10481 0.45859 0.64678 0.0
C1445 C 0.10881 0.4649 0.70074 0.0
H1446 H 0.11158 0.45995 0.559 0.0
H1447 H 0.14333 0.51942 0.08917 0.0
H1448 H 0.96808 0.81906 0.38214 0.0
H1449 H 0.96681 0.84829 0.43061 0.0
H1450 H 0.01843 0.83716 0.50907 0.0
H1451 H 0.02002 0.80813 0.46007 0.0
H1452 H 0.99477 0.85267 0.58347 0.0
H1453 H 0.01613 0.86472 0.39584 0.0
H1454 H 0.01483 0.86376 0.29228 0.0
H1455 H 0.96425 0.89279 0.29459 0.0
H1456 H 0.96513 0.89371 0.39827 0.0
H1457 H 0.01622 0.94182 0.67425 0.0
H1458 H 0.01614 0.91178 0.63113 0.0
H1459 H 0.96957 0.92689 0.531 0.0
H1460 H 0.97051 0.95743 0.57131 0.0
H1461 H 0.99012 0.90877 0.46863 0.0
H1462 H 0.9687 0.89713 0.65703 0.0
H1463 H 0.97056 0.89882 0.76046 0.0
H1464 H 0.02086 0.86933 0.75763 0.0
H1465 H 0.01939 0.86761 0.65412 0.0
C1466 C 0.9792 0.82279 0.40961 0.0
C1467 C 0.99419 0.81111 0.41678 0.0
C1468 C 0.97842 0.83954 0.43749 0.0
C1469 C 0.99262 0.84508 0.47316 0.0
C1470 C 0.00727 0.83322 0.48196 0.0
C1471 C 0.0081 0.8165 0.45399 0.0
C1472 C 0.99256 0.86349 0.4996 0.0
C1473 C 0.99388 0.86495 0.55836 0.0
C1474 C 0.9911 0.87956 0.46713 0.0
C1475 C 0.9906 0.87911 0.40481 0.0
C1476 C 1.00466 0.87078 0.37427 0.0
C1477 C 1.00401 0.87026 0.31556 0.0
C1478 C 0.98944 0.87816 0.28688 0.0
C1479 C 0.97552 0.88665 0.31686 0.0
C1480 C 0.97609 0.88718 0.3756 0.0
C1481 C 0.00591 0.9387 0.6432 0.0
C1482 C 0.99329 0.95198 0.62646 0.0
C1483 C 0.00577 0.92141 0.61876 0.0
C1484 C 0.99254 0.91669 0.57856 0.0
C1485 C 0.97991 0.93002 0.5619 0.0
C1486 C 0.9804 0.9475 0.58514 0.0
C1487 C 0.99209 0.89809 0.55289 0.0
C1488 C 0.99079 0.89655 0.49408 0.0
C1489 C 0.99345 0.88195 0.58544 0.0
C1490 C 0.99399 0.88235 0.6478 0.0
C1491 C 0.98016 0.89102 0.67848 0.0
C1492 C 0.98116 0.892 0.73711 0.0
C1493 C 0.99584 0.88422 0.76558 0.0
C1494 C 0.0095 0.87534 0.73551 0.0
C1495 C 0.00857 0.87433 0.67687 0.0
H1496 H 0.99663 0.88506 0.81095 0.0
H1497 H 0.98897 0.87775 0.24142 0.0
H1498 H 0.68633 0.95649 0.44782 0.0
H1499 H 0.65714 0.96076 0.49518 0.0
H1500 H 0.65465 0.01573 0.43294 0.0
H1501 H 0.68406 0.01161 0.38624 0.0
H1502 H 0.64094 0.01427 0.53676 0.0
H1503 H 0.63215 0.98068 0.36581 0.0
H1504 H 0.63772 0.95569 0.29917 0.0
H1505 H 0.62095 0.91688 0.42381 0.0
H1506 H 0.61551 0.94164 0.49144 0.0
H1507 H 0.53587 0.99607 0.51841 0.0
H1508 H 0.56654 0.99401 0.47926 0.0
H1509 H 0.58914 0.99611 0.6465 0.0
H1510 H 0.55862 0.99881 0.68559 0.0
H1511 H 0.59256 0.97014 0.48718 0.0
H1512 H 0.6308 0.01673 0.64414 0.0
H1513 H 0.62461 0.04331 0.70413 0.0
H1514 H 0.58066 0.05903 0.59581 0.0
H1515 H 0.58688 0.03287 0.53432 0.0
C1516 C 0.67966 0.96956 0.44465 0.0
C1517 C 0.68749 0.98366 0.41272 0.0
C1518 C 0.66292 0.97197 0.47167 0.0
C1519 C 0.6534 0.98844 0.46667 0.0
C1520 C 0.66164 1.00286 0.43733 0.0
C1521 C 0.6785 1.00051 0.41071 0.0
C1522 C 0.63451 0.99025 0.48928 0.0
C1523 C 0.63039 0.00459 0.52603 0.0
C1524 C 0.62053 0.97787 0.47461 0.0
C1525 C 0.62358 0.96299 0.43381 0.0
C1526 C 0.62975 0.9668 0.37909 0.0
C1527 C 0.63287 0.95268 0.34113 0.0
C1528 C 0.62973 0.9347 0.35728 0.0
C1529 C 0.62341 0.93081 0.41138 0.0
C1530 C 0.62029 0.94488 0.44952 0.0
C1531 C 0.54735 0.99612 0.54693 0.0
C1532 C 0.54467 0.99758 0.60534 0.0
C1533 C 0.56493 0.99488 0.52444 0.0
C1534 C 0.58028 0.99509 0.5597 0.0
C1535 C 0.57762 0.99624 0.6181 0.0
C1536 C 0.56007 0.99763 0.64054 0.0
C1537 C 0.59901 0.99402 0.53533 0.0
C1538 C 0.6031 0.97982 0.49813 0.0
C1539 C 0.61284 0.00673 0.54882 0.0
C1540 C 0.6092 0.02271 0.58497 0.0
C1541 C 0.61989 0.02592 0.63294 0.0
C1542 C 0.61637 0.04091 0.6672 0.0
C1543 C 0.6022 0.05278 0.65396 0.0
C1544 C 0.59159 0.04978 0.60614 0.0
C1545 C 0.59512 0.03488 0.57153 0.0
H1546 H 0.59946 0.06434 0.68068 0.0
H1547 H 0.63216 0.92379 0.32785 0.0
H1548 H 0.50338 0.68332 0.33814 0.0
H1549 H 0.50013 0.6544 0.38721 0.0
H1550 H 0.51188 0.6808 0.54492 0.0
H1551 H 0.51587 0.70975 0.49521 0.0
H1552 H 0.52961 0.65116 0.54298 0.0
H1553 H 0.46754 0.66463 0.50579 0.0
H1554 H 0.44075 0.67338 0.44965 0.0
H1555 H 0.44773 0.62632 0.34568 0.0
H1556 H 0.47471 0.61741 0.40073 0.0
H1557 H 0.50378 0.57094 0.69822 0.0
H1558 H 0.50459 0.60186 0.65991 0.0
H1559 H 0.50356 0.58033 0.49155 0.0
H1560 H 0.5028 0.54947 0.52923 0.0
H1561 H 0.47888 0.60837 0.50679 0.0
H1562 H 0.5425 0.59659 0.54462 0.0
H1563 H 0.56863 0.58837 0.60444 0.0
H1564 H 0.55688 0.63306 0.71414 0.0
H1565 H 0.53055 0.64145 0.6552 0.0
C1566 C 0.50491 0.68305 0.38343 0.0
C1567 C 0.50968 0.69888 0.41284 0.0
C1568 C 0.50304 0.66645 0.41161 0.0
C1569 C 0.50544 0.66531 0.4702 0.0
C1570 C 0.50993 0.68122 0.4998 0.0
C1571 C 0.51212 0.69779 0.47142 0.0
C1572 C 0.50409 0.6474 0.49985 0.0
C1573 C 0.5183 0.64199 0.53577 0.0
C1574 C 0.48951 0.63517 0.4903 0.0
C1575 C 0.47324 0.64044 0.45715 0.0
C1576 C 0.46343 0.65621 0.47072 0.0
C1577 C 0.4482 0.66119 0.43913 0.0
C1578 C 0.44256 0.65043 0.39406 0.0
C1579 C 0.45212 0.63465 0.38058 0.0
C1580 C 0.46737 0.62962 0.41201 0.0
C1581 C 0.50378 0.57277 0.65302 0.0
C1582 C 0.50326 0.55765 0.61687 0.0
C1583 C 0.5043 0.59047 0.63119 0.0
C1584 C 0.50419 0.59344 0.5728 0.0
C1585 C 0.50363 0.5784 0.53672 0.0
C1586 C 0.5033 0.56072 0.55843 0.0
C1587 C 0.50447 0.61218 0.54894 0.0
C1588 C 0.49005 0.61769 0.51423 0.0
C1589 C 0.51868 0.62459 0.56033 0.0
C1590 C 0.53447 0.61954 0.5958 0.0
C1591 C 0.5454 0.60457 0.58174 0.0
C1592 C 0.56027 0.59991 0.61542 0.0
C1593 C 0.5644 0.61018 0.66306 0.0
C1594 C 0.55366 0.62512 0.6772 0.0
C1595 C 0.53878 0.62985 0.64364 0.0
H1596 H 0.57596 0.60661 0.68887 0.0
H1597 H 0.43077 0.65431 0.36965 0.0
H1598 H 0.80575 0.55142 0.44643 0.0
H1599 H 0.83532 0.54768 0.49196 0.0
H1600 H 0.84029 0.49429 0.41968 0.0
H1601 H 0.81056 0.4979 0.3744 0.0
H1602 H 0.85441 0.4947 0.52472 0.0
H1603 H 0.86065 0.53087 0.35747 0.0
H1604 H 0.8534 0.55636 0.29393 0.0
H1605 H 0.86867 0.59439 0.42215 0.0
H1606 H 0.87577 0.56911 0.48673 0.0
H1607 H 0.95826 0.51821 0.50708 0.0
H1608 H 0.92748 0.51906 0.46829 0.0
H1609 H 0.9052 0.51536 0.63565 0.0
H1610 H 0.93591 0.51435 0.67466 0.0
H1611 H 0.90018 0.54196 0.47867 0.0
H1612 H 0.86462 0.49146 0.63097 0.0
H1613 H 0.87232 0.4647 0.68869 0.0
H1614 H 0.91754 0.45304 0.5807 0.0
H1615 H 0.90976 0.47934 0.52117 0.0
C1616 C 0.81304 0.5388 0.4406 0.0
C1617 C 0.80582 0.52504 0.40618 0.0
C1618 C 0.82999 0.53669 0.46665 0.0
C1619 C 0.8403 0.52085 0.45836 0.0
C1620 C 0.83268 0.50667 0.42663 0.0
C1621 C 0.81563 0.50873 0.40083 0.0
C1622 C 0.85938 0.51962 0.4798 0.0
C1623 C 0.8644 0.50505 0.51476 0.0
C1624 C 0.87262 0.5329 0.46604 0.0
C1625 C 0.8686 0.54811 0.42705 0.0
C1626 C 0.86236 0.54468 0.3722 0.0
C1627 C 0.85829 0.55908 0.336 0.0
C1628 C 0.86054 0.57699 0.35403 0.0
C1629 C 0.86692 0.58052 0.40826 0.0
C1630 C 0.87098 0.56615 0.44467 0.0
C1631 C 0.94684 0.51762 0.53573 0.0
C1632 C 0.94966 0.51606 0.59407 0.0
C1633 C 0.9292 0.51812 0.51344 0.0
C1634 C 0.91393 0.51702 0.54883 0.0
C1635 C 0.9167 0.51586 0.60721 0.0
C1636 C 0.93432 0.51532 0.62952 0.0
C1637 C 0.89517 0.51724 0.52459 0.0
C1638 C 0.89022 0.5316 0.48884 0.0
C1639 C 0.88211 0.50362 0.53704 0.0
C1640 C 0.88671 0.48754 0.57197 0.0
C1641 C 0.87614 0.48314 0.61933 0.0
C1642 C 0.88053 0.46805 0.65237 0.0
C1643 C 0.8955 0.45728 0.63868 0.0
C1644 C 0.90601 0.46146 0.59148 0.0
C1645 C 0.90159 0.47644 0.55799 0.0
H1646 H 0.89892 0.44566 0.6645 0.0
H1647 H 0.85737 0.58812 0.32594 0.0
loop_
_geom_bond_atom_site_label_1
_geom_bond_atom_site_label_2
_geom_bond_distance
_geom_bond_site_symmetry_2
_ccdc_geom_bond_type
C0 C1 1.384 . S
C0 H13 0.947 . S
C0 C35 1.382 . S
C1 C0 1.384 . S
C1 C2 1.378 . S
C2 C1 1.378 . S
C2 C3 1.378 . S
C2 H14 0.952 . S
C3 C2 1.378 . S
C3 H15 0.950 . S
C3 C34 1.383 . S
H4 C23 0.947 . S
H5 C24 0.946 . S
H6 C26 0.953 . S
H7 C27 0.945 . S
H8 C29 0.952 . S
H9 C30 0.949 . S
H10 C32 0.950 . S
H11 C33 0.948 . S
H12 C35 0.951 . S
H13 C0 0.947 . S
H14 C2 0.952 . S
H15 C3 0.950 . S
N16 C19 1.382 . S
N16 C21 1.363 . S
N17 C19 1.371 . S
N17 C20 1.372 . S
N18 C20 1.361 . S
N18 C21 1.377 . S
C19 N16 1.382 . S
C19 N17 1.371 . S
C19 C22 1.480 . S
C20 N17 1.372 . S
C20 N18 1.361 . S
C20 C28 1.457 . S
C21 N16 1.363 . S
C21 N18 1.377 . S
C21 C34 1.479 . S
C22 C19 1.480 . S
C22 C23 1.383 . S
C22 C27 1.385 . S
C23 H4 0.947 . S
C23 C22 1.383 . S
C23 C24 1.388 . S
C24 H5 0.946 . S
C24 C23 1.388 . S
C24 C25 1.384 . S
C25 C24 1.384 . S
C25 C26 1.377 . S
C26 H6 0.953 . S
C26 C25 1.377 . S
C26 C27 1.369 . S
C27 H7 0.945 . S
C27 C22 1.385 . S
C27 C26 1.369 . S
C28 C20 1.457 . S
C28 C29 1.372 . S
C28 C33 1.364 . S
C29 H8 0.952 . S
C29 C28 1.372 . S
C29 C30 1.389 . S
C30 H9 0.949 . S
C30 C29 1.389 . S
C30 C31 1.387 . S
C31 C30 1.387 . S
C31 C32 1.372 . S
C32 H10 0.950 . S
C32 C31 1.372 . S
C32 C33 1.379 . S
C33 H11 0.948 . S
C33 C28 1.364 . S
C33 C32 1.379 . S
C34 C3 1.383 . S
C34 C21 1.479 . S
C34 C35 1.398 . S
C35 C0 1.382 . S
C35 H12 0.951 . S
C35 C34 1.398 . S
C36 C37 1.381 1_655 S
C36 H49 0.948 . S
C36 C71 1.382 1_655 S
C37 C36 1.381 1_455 S
C37 C38 1.387 . S
C38 C37 1.387 . S
C38 C39 1.378 . S
C38 H50 0.952 . S
C39 C38 1.378 . S
C39 H51 0.950 . S
C39 C70 1.383 . S
H40 C59 0.947 . S
H41 C60 0.952 . S
H42 C62 0.953 . S
H43 C63 0.945 . S
H44 C65 0.949 1_655 S
H45 C66 0.956 . S
H46 C68 0.950 . S
H47 C69 0.948 . S
H48 C71 0.952 1_655 S
H49 C36 0.948 . S
H50 C38 0.952 . S
H51 C39 0.950 . S
N52 C55 1.382 . S
N52 C57 1.363 . S
N53 C55 1.371 . S
N53 C56 1.372 . S
N54 C56 1.361 . S
N54 C57 1.377 . S
C55 N52 1.382 . S
C55 N53 1.371 . S
C55 C58 1.480 . S
C56 N53 1.372 . S
C56 N54 1.361 . S
C56 C64 1.457 . S
C57 N52 1.363 . S
C57 N54 1.377 . S
C57 C70 1.479 . S
C58 C55 1.480 . S
C58 C59 1.383 . S
C58 C63 1.385 . S
C59 H40 0.947 . S
C59 C58 1.383 . S
C59 C60 1.386 1_455 S
C60 H41 0.952 . S
C60 C59 1.386 1_655 S
C60 C61 1.381 1_655 S
C61 C60 1.381 1_455 S
C61 C62 1.377 . S
C62 H42 0.953 . S
C62 C61 1.377 . S
C62 C63 1.369 . S
C63 H43 0.945 . S
C63 C58 1.385 . S
C63 C62 1.369 . S
C64 C56 1.457 . S
C64 C65 1.376 . S
C64 C69 1.364 . S
C65 H44 0.949 1_455 S
C65 C64 1.376 . S
C65 C66 1.387 1_455 S
C66 H45 0.956 . S
C66 C65 1.387 1_655 S
C66 C67 1.383 1_655 S
C67 C66 1.383 1_455 S
C67 C68 1.372 . S
C68 H46 0.950 . S
C68 C67 1.372 . S
C68 C69 1.379 . S
C69 H47 0.948 . S
C69 C64 1.364 . S
C69 C68 1.379 . S
C70 C39 1.383 . S
C70 C57 1.479 . S
C70 C71 1.398 . S
C71 C36 1.382 1_455 S
C71 H48 0.952 1_455 S
C71 C70 1.398 . S
C72 C73 1.381 1_565 S
C72 H85 0.948 . S
C72 C107 1.382 1_565 S
C73 C72 1.381 1_545 S
C73 C74 1.387 . S
C74 C73 1.387 . S
C74 C75 1.378 . S
C74 H86 0.952 . S
C75 C74 1.378 . S
C75 H87 0.950 . S
C75 C106 1.383 . S
H76 C95 0.947 . S
H77 C96 0.952 . S
H78 C98 0.953 . S
H79 C99 0.945 . S
H80 C101 0.949 1_565 S
H81 C102 0.956 . S
H82 C104 0.950 . S
H83 C105 0.948 . S
H84 C107 0.952 1_565 S
H85 C72 0.948 . S
H86 C74 0.952 . S
H87 C75 0.950 . S
N88 C91 1.382 . S
N88 C93 1.363 . S
N89 C91 1.371 . S
N89 C92 1.372 . S
N90 C92 1.361 . S
N90 C93 1.377 . S
C91 N88 1.382 . S
C91 N89 1.371 . S
C91 C94 1.480 . S
C92 N89 1.372 . S
C92 N90 1.361 . S
C92 C100 1.457 . S
C93 N88 1.363 . S
C93 N90 1.377 . S
C93 C106 1.479 . S
C94 C91 1.480 . S
C94 C95 1.383 . S
C94 C99 1.385 . S
C95 H76 0.947 . S
C95 C94 1.383 . S
C95 C96 1.386 1_545 S
C96 H77 0.952 . S
C96 C95 1.386 1_565 S
C96 C97 1.381 1_565 S
C97 C96 1.381 1_545 S
C97 C98 1.377 . S
C98 H78 0.953 . S
C98 C97 1.377 . S
C98 C99 1.369 . S
C99 H79 0.945 . S
C99 C94 1.385 . S
C99 C98 1.369 . S
C100 C92 1.457 . S
C100 C101 1.376 . S
C100 C105 1.364 . S
C101 H80 0.949 1_545 S
C101 C100 1.376 . S
C101 C102 1.386 1_545 S
C102 H81 0.956 . S
C102 C101 1.386 1_565 S
C102 C103 1.383 1_565 S
C103 C102 1.383 1_545 S
C103 C104 1.372 . S
C104 H82 0.950 . S
C104 C103 1.372 . S
C104 C105 1.379 . S
C105 H83 0.948 . S
C105 C100 1.364 . S
C105 C104 1.379 . S
C106 C75 1.383 . S
C106 C93 1.479 . S
C106 C107 1.398 . S
C107 C72 1.382 1_545 S
C107 H84 0.952 1_545 S
C107 C106 1.398 . S
C108 C109 1.384 . S
C108 H121 0.947 . S
C108 C143 1.382 . S
C109 C108 1.384 . S
C109 C110 1.378 . S
C110 C109 1.378 . S
C110 C111 1.378 . S
C110 H122 0.952 . S
C111 C110 1.378 . S
C111 H123 0.950 . S
C111 C142 1.383 . S
H112 C131 0.947 . S
H113 C132 0.946 . S
H114 C134 0.953 . S
H115 C135 0.945 . S
H116 C137 0.952 . S
H117 C138 0.949 . S
H118 C140 0.950 . S
H119 C141 0.948 . S
H120 C143 0.951 . S
H121 C108 0.947 . S
H122 C110 0.952 . S
H123 C111 0.950 . S
N124 C127 1.382 . S
N124 C129 1.363 . S
N125 C127 1.371 . S
N125 C128 1.372 . S
N126 C128 1.361 . S
N126 C129 1.377 . S
C127 N124 1.382 . S
C127 N125 1.371 . S
C127 C130 1.480 . S
C128 N125 1.372 . S
C128 N126 1.361 . S
C128 C136 1.457 . S
C129 N124 1.363 . S
C129 N126 1.377 . S
C129 C142 1.479 . S
C130 C127 1.480 . S
C130 C131 1.383 . S
C130 C135 1.385 . S
C131 H112 0.947 . S
C131 C130 1.383 . S
C131 C132 1.388 . S
C132 H113 0.946 . S
C132 C131 1.388 . S
C132 C133 1.384 . S
C133 C132 1.384 . S
C133 C134 1.377 . S
C134 H114 0.953 . S
C134 C133 1.377 . S
C134 C135 1.369 . S
C135 H115 0.945 . S
C135 C130 1.385 . S
C135 C134 1.369 . S
C136 C128 1.457 . S
C136 C137 1.372 . S
C136 C141 1.364 . S
C137 H116 0.952 . S
C137 C136 1.372 . S
C137 C138 1.389 . S
C138 H117 0.949 . S
C138 C137 1.389 . S
C138 C139 1.387 . S
C139 C138 1.387 . S
C139 C140 1.372 . S
C140 H118 0.950 . S
C140 C139 1.372 . S
C140 C141 1.379 . S
C141 H119 0.948 . S
C141 C136 1.364 . S
C141 C140 1.379 . S
C142 C111 1.383 . S
C142 C129 1.479 . S
C142 C143 1.398 . S
C143 C108 1.382 . S
C143 H120 0.951 . S
C143 C142 1.398 . S
C144 C145 1.384 . S
C144 H157 0.947 . S
C144 C179 1.382 . S
C145 C144 1.384 . S
C145 C146 1.378 . S
C146 C145 1.378 . S
C146 C147 1.378 . S
C146 H158 0.952 . S
C147 C146 1.378 . S
C147 H159 0.950 . S
C147 C178 1.383 . S
H148 C167 0.947 1_556 S
H149 C168 0.946 . S
H150 C170 0.953 . S
H151 C171 0.945 . S
H152 C173 0.952 . S
H153 C174 0.949 . S
H154 C176 0.950 . S
H155 C177 0.948 . S
H156 C179 0.951 . S
H157 C144 0.947 . S
H158 C146 0.952 . S
H159 C147 0.950 . S
N160 C163 1.382 . S
N160 C165 1.359 1_554 S
N161 C163 1.371 . S
N161 C164 1.372 . S
N162 C164 1.361 . S
N162 C165 1.361 1_554 S
C163 N160 1.382 . S
C163 N161 1.371 . S
C163 C166 1.480 . S
C164 N161 1.372 . S
C164 N162 1.361 . S
C164 C172 1.457 . S
C165 N160 1.359 1_556 S
C165 N162 1.361 1_556 S
C165 C178 1.500 . S
C166 C163 1.480 . S
C166 C167 1.383 . S
C166 C171 1.385 . S
C167 H148 0.947 1_554 S
C167 C166 1.383 . S
C167 C168 1.388 . S
C168 H149 0.946 . S
C168 C167 1.388 . S
C168 C169 1.384 . S
C169 C168 1.384 . S
C169 C170 1.377 . S
C170 H150 0.953 . S
C170 C169 1.377 . S
C170 C171 1.369 . S
C171 H151 0.945 . S
C171 C166 1.385 . S
C171 C170 1.369 . S
C172 C164 1.457 . S
C172 C173 1.372 . S
C172 C177 1.364 . S
C173 H152 0.952 . S
C173 C172 1.372 . S
C173 C174 1.389 . S
C174 H153 0.949 . S
C174 C173 1.389 . S
C174 C175 1.387 . S
C175 C174 1.387 . S
C175 C176 1.372 . S
C176 H154 0.950 . S
C176 C175 1.372 . S
C176 C177 1.379 . S
C177 H155 0.948 . S
C177 C172 1.364 . S
C177 C176 1.379 . S
C178 C147 1.383 . S
C178 C165 1.500 . S
C178 C179 1.398 . S
C179 C144 1.382 . S
C179 H156 0.951 . S
C179 C178 1.398 . S
C180 C181 1.384 . S
C180 H193 0.948 1_455 S
C180 C215 1.382 . S
C181 C180 1.384 . S
C181 C182 1.378 . S
C182 C181 1.378 . S
C182 C183 1.378 . S
C182 H194 0.952 . S
C183 C182 1.378 . S
C183 H195 0.950 . S
C183 C214 1.383 . S
H184 C203 0.947 1_556 S
H185 C204 0.948 . S
H186 C206 0.953 . S
H187 C207 0.945 . S
H188 C209 0.947 1_655 S
H189 C210 0.954 . S
H190 C212 0.950 . S
H191 C213 0.948 . S
H192 C215 0.950 1_655 S
H193 C180 0.948 1_655 S
H194 C182 0.952 . S
H195 C183 0.950 . S
N196 C199 1.382 . S
N196 C201 1.359 1_554 S
N197 C199 1.371 . S
N197 C200 1.372 . S
N198 C200 1.361 . S
N198 C201 1.363 1_554 S
C199 N196 1.382 . S
C199 N197 1.371 . S
C199 C202 1.480 . S
C200 N197 1.372 . S
C200 N198 1.361 . S
C200 C208 1.457 . S
C201 N196 1.359 1_556 S
C201 N198 1.363 1_556 S
C201 C214 1.497 . S
C202 C199 1.480 . S
C202 C203 1.383 . S
C202 C207 1.385 . S
C203 H184 0.947 1_554 S
C203 C202 1.383 . S
C203 C204 1.387 1_455 S
C204 H185 0.948 . S
C204 C203 1.387 1_655 S
C204 C205 1.383 1_655 S
C205 C204 1.383 1_455 S
C205 C206 1.377 . S
C206 H186 0.953 . S
C206 C205 1.377 . S
C206 C207 1.369 . S
C207 H187 0.945 . S
C207 C202 1.385 . S
C207 C206 1.369 . S
C208 C200 1.457 . S
C208 C209 1.379 . S
C208 C213 1.364 . S
C209 H188 0.947 1_455 S
C209 C208 1.379 . S
C209 C210 1.387 1_455 S
C210 H189 0.954 . S
C210 C209 1.387 1_655 S
C210 C211 1.384 1_655 S
C211 C210 1.384 1_455 S
C211 C212 1.372 . S
C212 H190 0.950 . S
C212 C211 1.372 . S
C212 C213 1.379 . S
C213 H191 0.948 . S
C213 C208 1.364 . S
C213 C212 1.379 . S
C214 C183 1.383 . S
C214 C201 1.497 . S
C214 C215 1.399 . S
C215 C180 1.382 . S
C215 H192 0.950 1_455 S
C215 C214 1.399 . S
C216 C217 1.384 . S
C216 H229 0.948 1_545 S
C216 C251 1.382 . S
C217 C216 1.384 . S
C217 C218 1.378 . S
C218 C217 1.378 . S
C218 C219 1.378 . S
C218 H230 0.952 . S
C219 C218 1.378 . S
C219 H231 0.950 . S
C219 C250 1.383 . S
H220 C239 0.947 1_556 S
H221 C240 0.948 . S
H222 C242 0.953 . S
H223 C243 0.945 . S
H224 C245 0.947 1_565 S
H225 C246 0.953 . S
H226 C248 0.950 . S
H227 C249 0.948 . S
H228 C251 0.950 1_565 S
H229 C216 0.948 1_565 S
H230 C218 0.952 . S
H231 C219 0.950 . S
N232 C235 1.382 . S
N232 C237 1.360 1_554 S
N233 C235 1.371 . S
N233 C236 1.372 . S
N234 C236 1.361 . S
N234 C237 1.363 1_554 S
C235 N232 1.382 . S
C235 N233 1.371 . S
C235 C238 1.480 . S
C236 N233 1.372 . S
C236 N234 1.361 . S
C236 C244 1.457 . S
C237 N232 1.360 1_556 S
C237 N234 1.363 1_556 S
C237 C250 1.497 . S
C238 C235 1.480 . S
C238 C239 1.383 . S
C238 C243 1.385 . S
C239 H220 0.947 1_554 S
C239 C238 1.383 . S
C239 C240 1.387 1_545 S
C240 H221 0.948 . S
C240 C239 1.387 1_565 S
C240 C241 1.383 1_565 S
C241 C240 1.383 1_545 S
C241 C242 1.377 . S
C242 H222 0.953 . S
C242 C241 1.377 . S
C242 C243 1.369 . S
C243 H223 0.945 . S
C243 C238 1.385 . S
C243 C242 1.369 . S
C244 C236 1.457 . S
C244 C245 1.379 . S
C244 C249 1.364 . S
C245 H224 0.947 1_545 S
C245 C244 1.379 . S
C245 C246 1.387 1_545 S
C246 H225 0.953 . S
C246 C245 1.387 1_565 S
C246 C247 1.384 1_565 S
C247 C246 1.384 1_545 S
C247 C248 1.372 . S
C248 H226 0.950 . S
C248 C247 1.372 . S
C248 C249 1.379 . S
C249 H227 0.948 . S
C249 C244 1.364 . S
C249 C248 1.379 . S
C250 C219 1.383 . S
C250 C237 1.497 . S
C250 C251 1.399 . S
C251 C216 1.382 . S
C251 H228 0.950 1_545 S
C251 C250 1.399 . S
C252 C253 1.384 . S
C252 H265 0.947 . S
C252 C287 1.382 . S
C253 C252 1.384 . S
C253 C254 1.378 . S
C254 C253 1.378 . S
C254 C255 1.378 . S
C254 H266 0.952 . S
C255 C254 1.378 . S
C255 H267 0.950 . S
C255 C286 1.383 . S
H256 C275 0.947 . S
H257 C276 0.946 . S
H258 C278 0.953 . S
H259 C279 0.945 1_556 S
H260 C281 0.952 . S
H261 C282 0.949 . S
H262 C284 0.950 . S
H263 C285 0.948 . S
H264 C287 0.951 . S
H265 C252 0.947 . S
H266 C254 0.952 . S
H267 C255 0.950 . S
N268 C271 1.382 . S
N268 C273 1.363 . S
N269 C271 1.371 . S
N269 C272 1.372 1_554 S
N270 C272 1.361 1_554 S
N270 C273 1.377 . S
C271 N268 1.382 . S
C271 N269 1.371 . S
C271 C274 1.480 . S
C272 N269 1.372 1_556 S
C272 N270 1.361 1_556 S
C272 C280 1.457 . S
C273 N268 1.363 . S
C273 N270 1.377 . S
C273 C286 1.479 . S
C274 C271 1.480 . S
C274 C275 1.383 . S
C274 C279 1.385 . S
C275 H256 0.947 . S
C275 C274 1.383 . S
C275 C276 1.388 . S
C276 H257 0.946 . S
C276 C275 1.388 . S
C276 C277 1.384 . S
C277 C276 1.384 . S
C277 C278 1.377 . S
C278 H258 0.953 . S
C278 C277 1.377 . S
C278 C279 1.369 . S
C279 H259 0.945 1_554 S
C279 C274 1.385 . S
C279 C278 1.369 . S
C280 C272 1.457 . S
C280 C281 1.372 . S
C280 C285 1.364 . S
C281 H260 0.952 . S
C281 C280 1.372 . S
C281 C282 1.389 . S
C282 H261 0.949 . S
C282 C281 1.389 . S
C282 C283 1.387 . S
C283 C282 1.387 . S
C283 C284 1.372 . S
C284 H262 0.950 . S
C284 C283 1.372 . S
C284 C285 1.379 . S
C285 H263 0.948 . S
C285 C280 1.364 . S
C285 C284 1.379 . S
C286 C255 1.383 . S
C286 C273 1.479 . S
C286 C287 1.398 . S
C287 C252 1.382 . S
C287 H264 0.951 . S
C287 C286 1.398 . S
C288 Eu289 2.835 . S
C288 C290 1.500 . S
C288 O308 1.257 . S
C288 O309 1.260 . S
Eu289 C288 2.835 . S
Eu289 O308 2.473 . S
Eu289 O309 2.480 . S
Eu289 O310 2.430 . S
Eu289 O311 2.670 1_545 S
Eu289 O312 2.394 . S
Eu289 O317 2.355 1_655 S
Eu289 O319 2.374 1_545 S
C290 C288 1.500 . S
C290 C291 1.377 . S
C290 C295 1.377 . S
C291 C290 1.377 . S
C291 C292 1.395 . S
C291 H320 0.931 . S
C292 C291 1.395 . S
C292 C293 1.383 . S
C292 H321 0.931 . S
C293 C292 1.383 . S
C293 C294 1.394 . S
C294 C293 1.394 . S
C294 C295 1.378 . S
C294 H322 0.931 1_655 S
C295 C290 1.377 . S
C295 C294 1.378 . S
C295 H323 0.931 1_655 S
C296 O310 1.281 . S
C296 O311 1.254 1_545 S
C297 O312 1.251 1_455 S
C297 O313 1.251 . S
C298 Eu299 2.835 . S
C298 C300 1.500 . S
C298 O314 1.257 . S
C298 O315 1.260 . S
Eu299 C298 2.835 . S
Eu299 O311 2.355 1_455 S
Eu299 O313 2.374 1_565 S
Eu299 O314 2.473 . S
Eu299 O315 2.480 . S
Eu299 O316 2.430 . S
Eu299 O317 2.670 1_565 S
Eu299 O318 2.394 . S
C300 C298 1.500 . S
C300 C301 1.377 . S
C300 C305 1.377 . S
C301 C300 1.377 . S
C301 C302 1.395 . S
C301 H324 0.931 . S
C302 C301 1.395 . S
C302 C303 1.383 . S
C302 H325 0.931 . S
C303 C302 1.383 . S
C303 C304 1.394 . S
C304 C303 1.394 . S
C304 C305 1.378 . S
C304 H326 0.931 1_455 S
C305 C300 1.377 . S
C305 C304 1.378 . S
C305 H327 0.931 1_455 S
C306 O316 1.274 . S
C306 O317 1.260 1_565 S
C307 O318 1.251 1_655 S
C307 O319 1.251 . S
O308 C288 1.257 . S
O308 Eu289 2.473 . S
O309 C288 1.260 . S
O309 Eu289 2.480 . S
O310 Eu289 2.430 . S
O310 C296 1.281 . S
O311 Eu289 2.670 1_565 S
O311 C296 1.254 1_565 S
O311 Eu299 2.355 1_655 S
O312 Eu289 2.394 . S
O312 C297 1.251 1_655 S
O313 C297 1.251 . S
O313 Eu299 2.374 1_545 S
O314 C298 1.257 . S
O314 Eu299 2.473 . S
O315 C298 1.260 . S
O315 Eu299 2.480 . S
O316 Eu299 2.430 . S
O316 C306 1.274 . S
O317 Eu289 2.355 1_455 S
O317 Eu299 2.670 1_545 S
O317 C306 1.260 1_545 S
O318 Eu299 2.394 . S
O318 C307 1.251 1_455 S
O319 Eu289 2.374 1_565 S
O319 C307 1.251 . S
H320 C291 0.931 . S
H321 C292 0.931 . S
H322 C294 0.931 1_455 S
H323 C295 0.931 1_455 S
H324 C301 0.931 . S
H325 C302 0.931 . S
H326 C304 0.931 1_655 S
H327 C305 0.931 1_655 S
C328 Eu329 2.835 . S
C328 C330 1.500 . S
C328 O348 1.257 . S
C328 O349 1.260 . S
Eu329 C328 2.835 . S
Eu329 O348 2.473 . S
Eu329 O349 2.480 . S
Eu329 O350 2.430 . S
Eu329 O351 2.670 . S
Eu329 O352 2.394 . S
Eu329 O357 2.355 1_565 S
Eu329 O359 2.374 . S
C330 C328 1.500 . S
C330 C331 1.377 . S
C330 C335 1.377 . S
C331 C330 1.377 . S
C331 C332 1.395 . S
C331 H360 0.931 . S
C332 C331 1.395 . S
C332 C333 1.383 . S
C332 H361 0.931 . S
C333 C332 1.383 . S
C333 C334 1.394 . S
C334 C333 1.394 . S
C334 C335 1.378 . S
C334 H362 0.931 1_565 S
C335 C330 1.377 . S
C335 C334 1.378 . S
C335 H363 0.931 1_565 S
C336 O350 1.259 . S
C336 O351 1.270 . S
C337 O352 1.251 1_545 S
C337 O353 1.251 . S
C338 Eu339 2.835 . S
C338 C340 1.500 . S
C338 O354 1.257 . S
C338 O355 1.260 . S
Eu339 C338 2.835 . S
Eu339 O351 2.355 1_545 S
Eu339 O353 2.374 . S
Eu339 O354 2.473 . S
Eu339 O355 2.480 . S
Eu339 O356 2.430 . S
Eu339 O357 2.670 . S
Eu339 O358 2.394 . S
C340 C338 1.500 . S
C340 C341 1.377 . S
C340 C345 1.377 . S
C341 C340 1.377 . S
C341 C342 1.395 . S
C341 H364 0.931 . S
C342 C341 1.395 . S
C342 C343 1.383 . S
C342 H365 0.931 . S
C343 C342 1.383 . S
C343 C344 1.394 . S
C344 C343 1.394 . S
C344 C345 1.378 . S
C344 H366 0.931 1_545 S
C345 C340 1.377 . S
C345 C344 1.378 . S
C345 H367 0.931 1_545 S
C346 O356 1.259 . S
C346 O357 1.270 . S
C347 O358 1.251 1_565 S
C347 O359 1.251 . S
O348 C328 1.257 . S
O348 Eu329 2.473 . S
O349 C328 1.260 . S
O349 Eu329 2.480 . S
O350 Eu329 2.430 . S
O350 C336 1.259 . S
O351 Eu329 2.670 . S
O351 C336 1.270 . S
O351 Eu339 2.355 1_565 S
O352 Eu329 2.394 . S
O352 C337 1.251 1_565 S
O353 C337 1.251 . S
O353 Eu339 2.374 . S
O354 C338 1.257 . S
O354 Eu339 2.473 . S
O355 C338 1.260 . S
O355 Eu339 2.480 . S
O356 Eu339 2.430 . S
O356 C346 1.259 . S
O357 Eu329 2.355 1_545 S
O357 Eu339 2.670 . S
O357 C346 1.270 . S
O358 Eu339 2.394 . S
O358 C347 1.251 1_545 S
O359 Eu329 2.374 . S
O359 C347 1.251 . S
H360 C331 0.931 . S
H361 C332 0.931 . S
H362 C334 0.931 1_545 S
H363 C335 0.931 1_545 S
H364 C341 0.931 . S
H365 C342 0.931 . S
H366 C344 0.931 1_565 S
H367 C345 0.931 1_565 S
C368 Eu369 2.835 . S
C368 C370 1.500 . S
C368 O388 1.257 . S
C368 O389 1.260 . S
Eu369 C368 2.835 . S
Eu369 O388 2.473 . S
Eu369 O389 2.480 . S
Eu369 O390 2.430 . S
Eu369 O391 2.670 . S
Eu369 O392 2.394 . S
Eu369 O397 2.355 . S
Eu369 O399 2.374 . S
C370 C368 1.500 . S
C370 C371 1.377 . S
C370 C375 1.377 . S
C371 C370 1.377 . S
C371 C372 1.395 . S
C371 H400 0.931 . S
C372 C371 1.395 . S
C372 C373 1.383 . S
C372 H401 0.931 . S
C373 C372 1.383 . S
C373 C374 1.394 . S
C374 C373 1.394 . S
C374 C375 1.378 . S
C374 H402 0.931 . S
C375 C370 1.377 . S
C375 C374 1.378 . S
C375 H403 0.931 . S
C376 O390 1.259 . S
C376 O391 1.270 . S
C377 O392 1.251 . S
C377 O393 1.251 . S
C378 Eu379 2.835 . S
C378 C380 1.500 . S
C378 O394 1.257 . S
C378 O395 1.260 . S
Eu379 C378 2.835 . S
Eu379 O391 2.355 . S
Eu379 O393 2.374 . S
Eu379 O394 2.473 . S
Eu379 O395 2.480 . S
Eu379 O396 2.430 . S
Eu379 O397 2.670 . S
Eu379 O398 2.394 . S
C380 C378 1.500 . S
C380 C381 1.377 . S
C380 C385 1.377 . S
C381 C380 1.377 . S
C381 C382 1.395 . S
C381 H404 0.931 . S
C382 C381 1.395 . S
C382 C383 1.383 . S
C382 H405 0.931 . S
C383 C382 1.383 . S
C383 C384 1.394 . S
C384 C383 1.394 . S
C384 C385 1.378 . S
C384 H406 0.931 . S
C385 C380 1.377 . S
C385 C384 1.378 . S
C385 H407 0.931 . S
C386 O396 1.259 . S
C386 O397 1.270 . S
C387 O398 1.251 . S
C387 O399 1.251 . S
O388 C368 1.257 . S
O388 Eu369 2.473 . S
O389 C368 1.260 . S
O389 Eu369 2.480 . S
O390 Eu369 2.430 . S
O390 C376 1.259 . S
O391 Eu369 2.670 . S
O391 C376 1.270 . S
O391 Eu379 2.355 . S
O392 Eu369 2.394 . S
O392 C377 1.251 . S
O393 C377 1.251 . S
O393 Eu379 2.374 . S
O394 C378 1.257 . S
O394 Eu379 2.473 . S
O395 C378 1.260 . S
O395 Eu379 2.480 . S
O396 Eu379 2.430 . S
O396 C386 1.259 . S
O397 Eu369 2.355 . S
O397 Eu379 2.670 . S
O397 C386 1.270 . S
O398 Eu379 2.394 . S
O398 C387 1.251 . S
O399 Eu369 2.374 . S
O399 C387 1.251 . S
H400 C371 0.931 . S
H401 C372 0.931 . S
H402 C374 0.931 . S
H403 C375 0.931 . S
H404 C381 0.931 . S
H405 C382 0.931 . S
H406 C384 0.931 . S
H407 C385 0.931 . S
C408 Eu409 2.835 . S
C408 C410 1.500 . S
C408 O428 1.257 . S
C408 O429 1.260 . S
Eu409 C408 2.835 . S
Eu409 O428 2.473 . S
Eu409 O429 2.480 . S
Eu409 O430 2.430 . S
Eu409 O431 2.670 1_455 S
Eu409 O432 2.394 . S
Eu409 O437 2.355 . S
Eu409 O439 2.374 1_455 S
C410 C408 1.500 . S
C410 C411 1.377 . S
C410 C415 1.377 . S
C411 C410 1.377 . S
C411 C412 1.395 . S
C411 H440 0.931 . S
C412 C411 1.395 . S
C412 C413 1.383 . S
C412 H441 0.931 . S
C413 C412 1.383 . S
C413 C414 1.394 . S
C414 C413 1.394 . S
C414 C415 1.378 . S
C414 H442 0.931 . S
C415 C410 1.377 . S
C415 C414 1.378 . S
C415 H443 0.931 . S
C416 O430 1.277 . S
C416 O431 1.258 1_455 S
C417 O432 1.251 . S
C417 O433 1.251 . S
C418 Eu419 2.835 . S
C418 C420 1.500 . S
C418 O434 1.257 . S
C418 O435 1.260 . S
Eu419 C418 2.835 . S
Eu419 O431 2.355 . S
Eu419 O433 2.374 1_655 S
Eu419 O434 2.473 . S
Eu419 O435 2.480 . S
Eu419 O436 2.430 . S
Eu419 O437 2.670 1_655 S
Eu419 O438 2.394 . S
C420 C418 1.500 . S
C420 C421 1.377 . S
C420 C425 1.377 . S
C421 C420 1.377 . S
C421 C422 1.395 . S
C421 H444 0.931 . S
C422 C421 1.395 . S
C422 C423 1.383 . S
C422 H445 0.931 . S
C423 C422 1.383 . S
C423 C424 1.394 . S
C424 C423 1.394 . S
C424 C425 1.378 . S
C424 H446 0.931 . S
C425 C420 1.377 . S
C425 C424 1.378 . S
C425 H447 0.931 . S
C426 O436 1.269 . S
C426 O437 1.263 1_655 S
C427 O438 1.251 . S
C427 O439 1.251 . S
O428 C408 1.257 . S
O428 Eu409 2.473 . S
O429 C408 1.260 . S
O429 Eu409 2.480 . S
O430 Eu409 2.430 . S
O430 C416 1.277 . S
O431 Eu409 2.670 1_655 S
O431 C416 1.258 1_655 S
O431 Eu419 2.355 . S
O432 Eu409 2.394 . S
O432 C417 1.251 . S
O433 C417 1.251 . S
O433 Eu419 2.374 1_455 S
O434 C418 1.257 . S
O434 Eu419 2.473 . S
O435 C418 1.260 . S
O435 Eu419 2.480 . S
O436 Eu419 2.430 . S
O436 C426 1.269 . S
O437 Eu409 2.355 . S
O437 Eu419 2.670 1_455 S
O437 C426 1.263 1_455 S
O438 Eu419 2.394 . S
O438 C427 1.251 . S
O439 Eu409 2.374 1_655 S
O439 C427 1.251 . S
H440 C411 0.931 . S
H441 C412 0.931 . S
H442 C414 0.931 . S
H443 C415 0.931 . S
H444 C421 0.931 . S
H445 C422 0.931 . S
H446 C424 0.931 . S
H447 C425 0.931 . S
H448 C466 0.951 . S
H449 C468 0.951 . S
H450 C470 0.950 . S
H451 C471 0.950 . S
H452 C473 0.950 . S
H453 C476 0.950 . S
H454 C477 0.950 . S
H455 C479 0.950 . S
H456 C480 0.950 . S
H457 C481 0.951 . S
H458 C483 0.951 . S
H459 C485 0.950 . S
H460 C486 0.950 . S
H461 C488 0.950 . S
H462 C491 0.950 . S
H463 C492 0.950 . S
H464 C494 0.950 . S
H465 C495 0.950 . S
C466 H448 0.951 . S
C466 C467 1.366 . S
C466 C468 1.388 . S
C467 C466 1.366 . S
C467 C471 1.384 1_545 S
C468 H449 0.951 . S
C468 C466 1.388 . S
C468 C469 1.366 . S
C469 C468 1.366 . S
C469 C470 1.414 1_545 S
C469 C472 1.499 . S
C470 H450 0.950 . S
C470 C469 1.414 1_565 S
C470 C471 1.374 . S
C471 H451 0.950 . S
C471 C467 1.384 1_565 S
C471 C470 1.374 . S
C472 C469 1.499 . S
C472 C473 1.373 1_545 S
C472 C474 1.389 . S
C473 H452 0.950 . S
C473 C472 1.373 1_565 S
C473 C489 1.377 . S
C474 C472 1.389 . S
C474 C475 1.524 . S
C474 C488 1.377 . S
C475 C474 1.524 . S
C475 C476 1.397 . S
C475 C480 1.363 . S
C476 H453 0.950 . S
C476 C475 1.397 . S
C476 C477 1.334 . S
C477 H454 0.950 . S
C477 C476 1.334 . S
C477 C478 1.287 . S
C478 C477 1.287 . S
C478 C479 1.524 . S
C478 H497 0.913 . S
C479 H455 0.950 . S
C479 C478 1.524 . S
C479 C480 1.415 . S
C480 H456 0.950 . S
C480 C475 1.363 . S
C480 C479 1.415 . S
C481 H457 0.951 . S
C481 C482 1.354 1_565 S
C481 C483 1.388 . S
C482 C481 1.354 1_545 S
C482 C486 1.397 . S
C483 H458 0.951 . S
C483 C481 1.388 . S
C483 C484 1.370 . S
C484 C483 1.370 . S
C484 C485 1.409 1_565 S
C484 C487 1.499 . S
C485 H459 0.950 . S
C485 C484 1.409 1_545 S
C485 C486 1.374 . S
C486 H460 0.950 . S
C486 C482 1.397 . S
C486 C485 1.374 . S
C487 C484 1.499 . S
C487 C488 1.360 1_565 S
C487 C489 1.402 . S
C488 H461 0.950 . S
C488 C474 1.377 . S
C488 C487 1.360 1_545 S
C489 C473 1.377 . S
C489 C487 1.402 . S
C489 C490 1.524 . S
C490 C489 1.524 . S
C490 C491 1.397 . S
C490 C495 1.363 . S
C491 H462 0.950 . S
C491 C490 1.397 . S
C491 C492 1.334 . S
C492 H463 0.950 . S
C492 C491 1.334 . S
C492 C493 1.287 . S
C493 C492 1.287 . S
C493 C494 1.524 . S
C493 H496 0.999 . S
C494 H464 0.950 . S
C494 C493 1.524 . S
C494 C495 1.415 . S
C495 H465 0.950 . S
C495 C490 1.363 . S
C495 C494 1.415 . S
H496 C493 0.999 . S
H497 C478 0.913 . S
H498 C516 0.951 . S
H499 C518 0.951 . S
H500 C520 0.950 . S
H501 C521 0.950 . S
H502 C523 0.950 . S
H503 C526 0.950 . S
H504 C527 0.950 . S
H505 C529 0.950 . S
H506 C530 0.950 . S
H507 C531 0.951 . S
H508 C533 0.951 . S
H509 C535 0.950 . S
H510 C536 0.950 . S
H511 C538 0.950 . S
H512 C541 0.950 . S
H513 C542 0.950 . S
H514 C544 0.950 . S
H515 C545 0.950 . S
C516 H498 0.951 . S
C516 C517 1.366 . S
C516 C518 1.388 . S
C517 C516 1.366 . S
C517 C521 1.385 . S
C518 H499 0.951 . S
C518 C516 1.388 . S
C518 C519 1.366 . S
C519 C518 1.366 . S
C519 C520 1.414 . S
C519 C522 1.499 . S
C520 H500 0.950 . S
C520 C519 1.414 . S
C520 C521 1.374 . S
C521 H501 0.950 . S
C521 C517 1.385 . S
C521 C520 1.374 . S
C522 C519 1.499 . S
C522 C523 1.373 . S
C522 C524 1.389 . S
C523 H502 0.950 . S
C523 C522 1.373 . S
C523 C539 1.377 . S
C524 C522 1.389 . S
C524 C525 1.524 . S
C524 C538 1.377 . S
C525 C524 1.524 . S
C525 C526 1.397 . S
C525 C530 1.363 . S
C526 H503 0.950 . S
C526 C525 1.397 . S
C526 C527 1.334 . S
C527 H504 0.950 . S
C527 C526 1.334 . S
C527 C528 1.287 . S
C528 C527 1.287 . S
C528 C529 1.524 . S
C528 H547 0.913 . S
C529 H505 0.950 . S
C529 C528 1.524 . S
C529 C530 1.415 . S
C530 H506 0.950 . S
C530 C525 1.363 . S
C530 C529 1.415 . S
C531 H507 0.951 . S
C531 C532 1.366 . S
C531 C533 1.388 . S
C532 C531 1.366 . S
C532 C536 1.385 . S
C533 H508 0.951 . S
C533 C531 1.388 . S
C533 C534 1.366 . S
C534 C533 1.366 . S
C534 C535 1.414 . S
C534 C537 1.499 . S
C535 H509 0.950 . S
C535 C534 1.414 . S
C535 C536 1.374 . S
C536 H510 0.950 . S
C536 C532 1.385 . S
C536 C535 1.374 . S
C537 C534 1.499 . S
C537 C538 1.373 . S
C537 C539 1.389 . S
C538 H511 0.950 . S
C538 C524 1.377 . S
C538 C537 1.373 . S
C539 C523 1.377 . S
C539 C537 1.389 . S
C539 C540 1.524 . S
C540 C539 1.524 . S
C540 C541 1.397 . S
C540 C545 1.363 . S
C541 H512 0.950 . S
C541 C540 1.397 . S
C541 C542 1.334 . S
C542 H513 0.950 . S
C542 C541 1.334 . S
C542 C543 1.287 . S
C543 C542 1.287 . S
C543 C544 1.524 . S
C543 H546 0.999 . S
C544 H514 0.950 . S
C544 C543 1.524 . S
C544 C545 1.415 . S
C545 H515 0.950 . S
C545 C540 1.363 . S
C545 C544 1.415 . S
H546 C543 0.999 . S
H547 C528 0.913 . S
H548 C566 0.951 . S
H549 C568 0.951 . S
H550 C570 0.950 . S
H551 C571 0.950 . S
H552 C573 0.950 . S
H553 C576 0.950 . S
H554 C577 0.950 . S
H555 C579 0.950 . S
H556 C580 0.950 . S
H557 C581 0.951 . S
H558 C583 0.951 . S
H559 C585 0.950 . S
H560 C586 0.950 . S
H561 C588 0.950 . S
H562 C591 0.950 . S
H563 C592 0.950 . S
H564 C594 0.950 . S
H565 C595 0.950 . S
C566 H548 0.951 . S
C566 C567 1.366 . S
C566 C568 1.388 . S
C567 C566 1.366 . S
C567 C571 1.385 . S
C568 H549 0.951 . S
C568 C566 1.388 . S
C568 C569 1.366 . S
C569 C568 1.366 . S
C569 C570 1.414 . S
C569 C572 1.499 . S
C570 H550 0.950 . S
C570 C569 1.414 . S
C570 C571 1.374 . S
C571 H551 0.950 . S
C571 C567 1.385 . S
C571 C570 1.374 . S
C572 C569 1.499 . S
C572 C573 1.373 . S
C572 C574 1.389 . S
C573 H552 0.950 . S
C573 C572 1.373 . S
C573 C589 1.377 . S
C574 C572 1.389 . S
C574 C575 1.524 . S
C574 C588 1.377 . S
C575 C574 1.524 . S
C575 C576 1.397 . S
C575 C580 1.363 . S
C576 H553 0.950 . S
C576 C575 1.397 . S
C576 C577 1.334 . S
C577 H554 0.950 . S
C577 C576 1.334 . S
C577 C578 1.287 . S
C578 C577 1.287 . S
C578 C579 1.524 . S
C578 H597 0.913 . S
C579 H555 0.950 . S
C579 C578 1.524 . S
C579 C580 1.415 . S
C580 H556 0.950 . S
C580 C575 1.363 . S
C580 C579 1.415 . S
C581 H557 0.951 . S
C581 C582 1.366 . S
C581 C583 1.388 . S
C582 C581 1.366 . S
C582 C586 1.385 . S
C583 H558 0.951 . S
C583 C581 1.388 . S
C583 C584 1.366 . S
C584 C583 1.366 . S
C584 C585 1.414 . S
C584 C587 1.499 . S
C585 H559 0.950 . S
C585 C584 1.414 . S
C585 C586 1.374 . S
C586 H560 0.950 . S
C586 C582 1.385 . S
C586 C585 1.374 . S
C587 C584 1.499 . S
C587 C588 1.373 . S
C587 C589 1.389 . S
C588 H561 0.950 . S
C588 C574 1.377 . S
C588 C587 1.373 . S
C589 C573 1.377 . S
C589 C587 1.389 . S
C589 C590 1.524 . S
C590 C589 1.524 . S
C590 C591 1.397 . S
C590 C595 1.363 . S
C591 H562 0.950 . S
C591 C590 1.397 . S
C591 C592 1.334 . S
C592 H563 0.950 . S
C592 C591 1.334 . S
C592 C593 1.287 . S
C593 C592 1.287 . S
C593 C594 1.524 . S
C593 H596 0.999 . S
C594 H564 0.950 . S
C594 C593 1.524 . S
C594 C595 1.415 . S
C595 H565 0.950 . S
C595 C590 1.363 . S
C595 C594 1.415 . S
H596 C593 0.999 . S
H597 C578 0.913 . S
H598 C616 0.951 . S
H599 C618 0.951 . S
H600 C620 0.950 . S
H601 C621 0.950 . S
H602 C623 0.950 . S
H603 C626 0.950 . S
H604 C627 0.950 . S
H605 C629 0.950 . S
H606 C630 0.950 . S
H607 C631 0.951 . S
H608 C633 0.951 . S
H609 C635 0.950 . S
H610 C636 0.950 . S
H611 C638 0.957 . S
H612 C641 0.950 . S
H613 C642 0.950 . S
H614 C644 0.950 . S
H615 C645 0.950 . S
C616 H598 0.951 . S
C616 C617 1.363 1_655 S
C616 C618 1.388 . S
C617 C616 1.363 1_455 S
C617 C621 1.387 . S
C618 H599 0.951 . S
C618 C616 1.388 . S
C618 C619 1.323 1_655 S
C619 C618 1.323 1_455 S
C619 C620 1.456 . S
C619 C622 1.502 . S
C620 H600 0.950 . S
C620 C619 1.456 . S
C620 C621 1.374 . S
C621 H601 0.950 . S
C621 C617 1.387 . S
C621 C620 1.374 . S
C622 C619 1.502 . S
C622 C623 1.373 . S
C622 C624 1.390 . S
C623 H602 0.950 . S
C623 C622 1.373 . S
C623 C639 1.380 . S
C624 C622 1.390 . S
C624 C625 1.525 . S
C624 C638 1.374 1_455 S
C625 C624 1.525 . S
C625 C626 1.397 . S
C625 C630 1.363 1_455 S
C626 H603 0.950 . S
C626 C625 1.397 . S
C626 C627 1.334 . S
C627 H604 0.950 . S
C627 C626 1.334 . S
C627 C628 1.287 . S
C628 C627 1.287 . S
C628 C629 1.524 1_455 S
C628 H647 0.913 . S
C629 H605 0.950 . S
C629 C628 1.524 1_655 S
C629 C630 1.415 . S
C630 H606 0.950 . S
C630 C625 1.363 1_655 S
C630 C629 1.415 . S
C631 H607 0.951 . S
C631 C632 1.401 . S
C631 C633 1.388 . S
C632 C631 1.401 . S
C632 C636 1.349 1_455 S
C633 H608 0.951 . S
C633 C631 1.388 . S
C633 C634 1.371 1_455 S
C634 C633 1.371 1_655 S
C634 C635 1.409 . S
C634 C637 1.498 . S
C635 H609 0.950 . S
C635 C634 1.409 . S
C635 C636 1.374 . S
C636 H610 0.950 . S
C636 C632 1.349 1_655 S
C636 C635 1.374 . S
C637 C634 1.498 . S
C637 C638 1.373 . S
C637 C639 1.386 1_655 S
C638 H611 0.957 . S
C638 C624 1.374 1_655 S
C638 C637 1.373 . S
C639 C623 1.380 . S
C639 C637 1.386 1_455 S
C639 C640 1.522 1_455 S
C640 C639 1.522 1_655 S
C640 C641 1.412 . S
C640 C645 1.350 1_655 S
C641 H612 0.950 . S
C641 C640 1.412 . S
C641 C642 1.334 . S
C642 H613 0.950 . S
C642 C641 1.334 . S
C642 C643 1.287 . S
C643 C642 1.287 . S
C643 C644 1.524 1_655 S
C643 H646 0.999 . S
C644 H614 0.950 . S
C644 C643 1.524 1_455 S
C644 C645 1.415 . S
C645 H615 0.950 . S
C645 C640 1.350 1_455 S
C645 C644 1.415 . S
H646 C643 0.999 . S
H647 C628 0.913 . S
H648 C666 0.951 . S
H649 C668 0.951 . S
H650 C670 0.950 . S
H651 C671 0.950 . S
H652 C673 0.950 . S
H653 C676 0.950 . S
H654 C677 0.950 . S
H655 C679 0.950 . S
H656 C680 0.950 . S
H657 C681 0.951 . S
H658 C683 0.951 . S
H659 C685 0.950 . S
H660 C686 0.950 . S
H661 C688 0.950 . S
H662 C691 0.950 . S
H663 C692 0.950 . S
H664 C694 0.950 . S
H665 C695 0.950 . S
C666 H648 0.951 . S
C666 C667 1.365 . S
C666 C668 1.388 . S
C667 C666 1.365 . S
C667 C671 1.386 1_545 S
C668 H649 0.951 . S
C668 C666 1.388 . S
C668 C669 1.373 . S
C669 C668 1.373 . S
C669 C670 1.406 1_545 S
C669 C672 1.499 . S
C670 H650 0.950 . S
C670 C669 1.406 1_565 S
C670 C671 1.374 . S
C671 H651 0.950 . S
C671 C667 1.386 1_565 S
C671 C670 1.374 . S
C672 C669 1.499 . S
C672 C673 1.335 1_544 S
C672 C674 1.425 . S
C673 H652 0.950 . S
C673 C672 1.335 1_566 S
C673 C689 1.377 . S
C674 C672 1.425 . S
C674 C675 1.524 . S
C674 C688 1.377 1_554 S
C675 C674 1.524 . S
C675 C676 1.397 . S
C675 C680 1.363 . S
C676 H653 0.950 . S
C676 C675 1.397 . S
C676 C677 1.334 . S
C677 H654 0.950 . S
C677 C676 1.334 . S
C677 C678 1.287 . S
C678 C677 1.287 . S
C678 C679 1.524 . S
C678 H697 0.913 . S
C679 H655 0.950 . S
C679 C678 1.524 . S
C679 C680 1.415 . S
C680 H656 0.950 . S
C680 C675 1.363 . S
C680 C679 1.415 . S
C681 H657 0.951 . S
C681 C682 1.370 . S
C681 C683 1.388 . S
C682 C681 1.370 . S
C682 C686 1.381 1_565 S
C683 H658 0.951 . S
C683 C681 1.388 . S
C683 C684 1.366 . S
C684 C683 1.366 . S
C684 C685 1.414 1_565 S
C684 C687 1.499 . S
C685 H659 0.950 . S
C685 C684 1.414 1_545 S
C685 C686 1.374 . S
C686 H660 0.950 . S
C686 C682 1.381 1_545 S
C686 C685 1.374 . S
C687 C684 1.499 . S
C687 C688 1.373 1_565 S
C687 C689 1.389 . S
C688 H661 0.950 . S
C688 C674 1.377 1_556 S
C688 C687 1.373 1_545 S
C689 C673 1.377 . S
C689 C687 1.389 . S
C689 C690 1.524 . S
C690 C689 1.524 . S
C690 C691 1.397 . S
C690 C695 1.363 . S
C691 H662 0.950 . S
C691 C690 1.397 . S
C691 C692 1.334 . S
C692 H663 0.950 . S
C692 C691 1.334 . S
C692 C693 1.287 . S
C693 C692 1.287 . S
C693 C694 1.524 . S
C693 H696 0.999 . S
C694 H664 0.950 . S
C694 C693 1.524 . S
C694 C695 1.415 . S
C695 H665 0.950 . S
C695 C690 1.363 . S
C695 C694 1.415 . S
H696 C693 0.999 . S
H697 C678 0.913 . S
H698 C716 0.951 . S
H699 C718 0.951 . S
H700 C720 0.950 . S
H701 C721 0.950 . S
H702 C723 0.950 . S
H703 C726 0.950 . S
H704 C727 0.950 . S
H705 C729 0.950 . S
H706 C730 0.950 . S
H707 C731 0.951 . S
H708 C733 0.951 . S
H709 C735 0.950 . S
H710 C736 0.950 . S
H711 C738 0.950 . S
H712 C741 0.950 . S
H713 C742 0.950 . S
H714 C744 0.950 . S
H715 C745 0.950 . S
C716 H698 0.951 . S
C716 C717 1.366 . S
C716 C718 1.388 . S
C717 C716 1.366 . S
C717 C721 1.385 . S
C718 H699 0.951 . S
C718 C716 1.388 . S
C718 C719 1.366 . S
C719 C718 1.366 . S
C719 C720 1.414 . S
C719 C722 1.499 . S
C720 H700 0.950 . S
C720 C719 1.414 . S
C720 C721 1.374 . S
C721 H701 0.950 . S
C721 C717 1.385 . S
C721 C720 1.374 . S
C722 C719 1.499 . S
C722 C723 1.373 1_554 S
C722 C724 1.389 . S
C723 H702 0.950 . S
C723 C722 1.373 1_556 S
C723 C739 1.377 . S
C724 C722 1.389 . S
C724 C725 1.524 . S
C724 C738 1.377 1_554 S
C725 C724 1.524 . S
C725 C726 1.397 . S
C725 C730 1.363 . S
C726 H703 0.950 . S
C726 C725 1.397 . S
C726 C727 1.334 . S
C727 H704 0.950 . S
C727 C726 1.334 . S
C727 C728 1.287 . S
C728 C727 1.287 . S
C728 C729 1.524 . S
C728 H747 0.913 . S
C729 H705 0.950 . S
C729 C728 1.524 . S
C729 C730 1.415 . S
C730 H706 0.950 . S
C730 C725 1.363 . S
C730 C729 1.415 . S
C731 H707 0.951 . S
C731 C732 1.366 . S
C731 C733 1.388 . S
C732 C731 1.366 . S
C732 C736 1.385 . S
C733 H708 0.951 . S
C733 C731 1.388 . S
C733 C734 1.366 . S
C734 C733 1.366 . S
C734 C735 1.414 . S
C734 C737 1.499 . S
C735 H709 0.950 . S
C735 C734 1.414 . S
C735 C736 1.374 . S
C736 H710 0.950 . S
C736 C732 1.385 . S
C736 C735 1.374 . S
C737 C734 1.499 . S
C737 C738 1.373 . S
C737 C739 1.389 . S
C738 H711 0.950 . S
C738 C724 1.377 1_556 S
C738 C737 1.373 . S
C739 C723 1.377 . S
C739 C737 1.389 . S
C739 C740 1.524 . S
C740 C739 1.524 . S
C740 C741 1.397 . S
C740 C745 1.363 . S
C741 H712 0.950 . S
C741 C740 1.397 . S
C741 C742 1.334 . S
C742 H713 0.950 . S
C742 C741 1.334 . S
C742 C743 1.287 . S
C743 C742 1.287 . S
C743 C744 1.524 . S
C743 H746 0.999 . S
C744 H714 0.950 . S
C744 C743 1.524 . S
C744 C745 1.415 . S
C745 H715 0.950 . S
C745 C740 1.363 . S
C745 C744 1.415 . S
H746 C743 0.999 . S
H747 C728 0.913 . S
H748 C766 0.951 . S
H749 C768 0.951 . S
H750 C770 0.950 . S
H751 C771 0.950 . S
H752 C773 0.950 . S
H753 C776 0.950 1_554 S
H754 C777 0.950 1_554 S
H755 C779 0.950 . S
H756 C780 0.950 . S
H757 C781 0.951 . S
H758 C783 0.951 . S
H759 C785 0.950 . S
H760 C786 0.950 . S
H761 C788 0.950 . S
H762 C791 0.950 . S
H763 C792 0.950 . S
H764 C794 0.950 . S
H765 C795 0.950 . S
C766 H748 0.951 . S
C766 C767 1.366 . S
C766 C768 1.388 . S
C767 C766 1.366 . S
C767 C771 1.385 . S
C768 H749 0.951 . S
C768 C766 1.388 . S
C768 C769 1.366 . S
C769 C768 1.366 . S
C769 C770 1.414 . S
C769 C772 1.499 . S
C770 H750 0.950 . S
C770 C769 1.414 . S
C770 C771 1.374 . S
C771 H751 0.950 . S
C771 C767 1.385 . S
C771 C770 1.374 . S
C772 C769 1.499 . S
C772 C773 1.373 . S
C772 C774 1.389 1_554 S
C773 H752 0.950 . S
C773 C772 1.373 . S
C773 C789 1.377 1_554 S
C774 C772 1.389 1_556 S
C774 C775 1.524 . S
C774 C788 1.377 . S
C775 C774 1.524 . S
C775 C776 1.397 . S
C775 C780 1.363 . S
C776 H753 0.950 1_556 S
C776 C775 1.397 . S
C776 C777 1.334 . S
C777 H754 0.950 1_556 S
C777 C776 1.334 . S
C777 C778 1.287 . S
C778 C777 1.287 . S
C778 C779 1.524 . S
C778 H797 0.913 . S
C779 H755 0.950 . S
C779 C778 1.524 . S
C779 C780 1.415 . S
C780 H756 0.950 . S
C780 C775 1.363 . S
C780 C779 1.415 . S
C781 H757 0.951 . S
C781 C782 1.366 . S
C781 C783 1.388 . S
C782 C781 1.366 . S
C782 C786 1.385 . S
C783 H758 0.951 . S
C783 C781 1.388 . S
C783 C784 1.366 . S
C784 C783 1.366 . S
C784 C785 1.414 . S
C784 C787 1.499 . S
C785 H759 0.950 . S
C785 C784 1.414 . S
C785 C786 1.374 . S
C786 H760 0.950 . S
C786 C782 1.385 . S
C786 C785 1.374 . S
C787 C784 1.499 . S
C787 C788 1.373 . S
C787 C789 1.389 . S
C788 H761 0.950 . S
C788 C774 1.377 . S
C788 C787 1.373 . S
C789 C773 1.377 1_556 S
C789 C787 1.389 . S
C789 C790 1.524 . S
C790 C789 1.524 . S
C790 C791 1.397 . S
C790 C795 1.363 1_556 S
C791 H762 0.950 . S
C791 C790 1.397 . S
C791 C792 1.334 . S
C792 H763 0.950 . S
C792 C791 1.334 . S
C792 C793 1.287 1_556 S
C793 C792 1.287 1_554 S
C793 C794 1.524 . S
C793 H796 0.999 . S
C794 H764 0.950 . S
C794 C793 1.524 . S
C794 C795 1.415 . S
C795 H765 0.950 . S
C795 C790 1.363 1_554 S
C795 C794 1.415 . S
H796 C793 0.999 . S
H797 C778 0.913 . S
H798 C816 0.951 . S
H799 C818 0.951 . S
H800 C820 0.950 . S
H801 C821 0.950 . S
H802 C823 0.950 . S
H803 C826 0.950 . S
H804 C827 0.950 . S
H805 C829 0.950 . S
H806 C830 0.950 . S
H807 C831 0.951 . S
H808 C833 0.951 . S
H809 C835 0.950 . S
H810 C836 0.950 . S
H811 C838 0.950 . S
H812 C841 0.950 . S
H813 C842 0.950 . S
H814 C844 0.950 . S
H815 C845 0.950 . S
C816 H798 0.951 . S
C816 C817 1.365 1_455 S
C816 C818 1.388 . S
C817 C816 1.365 1_655 S
C817 C821 1.386 . S
C818 H799 0.951 . S
C818 C816 1.388 . S
C818 C819 1.372 . S
C819 C818 1.372 . S
C819 C820 1.407 1_455 S
C819 C822 1.499 . S
C820 H800 0.950 . S
C820 C819 1.407 1_655 S
C820 C821 1.374 . S
C821 H801 0.950 . S
C821 C817 1.386 . S
C821 C820 1.374 . S
C822 C819 1.499 . S
C822 C823 1.350 1_454 S
C822 C824 1.412 . S
C823 H802 0.950 . S
C823 C822 1.350 1_656 S
C823 C839 1.377 . S
C824 C822 1.412 . S
C824 C825 1.524 . S
C824 C838 1.377 1_554 S
C825 C824 1.524 . S
C825 C826 1.397 . S
C825 C830 1.363 . S
C826 H803 0.950 . S
C826 C825 1.397 . S
C826 C827 1.334 . S
C827 H804 0.950 . S
C827 C826 1.334 . S
C827 C828 1.287 . S
C828 C827 1.287 . S
C828 C829 1.524 . S
C828 H847 0.913 . S
C829 H805 0.950 . S
C829 C828 1.524 . S
C829 C830 1.415 . S
C830 H806 0.950 . S
C830 C825 1.363 . S
C830 C829 1.415 . S
C831 H807 0.951 . S
C831 C832 1.375 . S
C831 C833 1.388 . S
C832 C831 1.375 . S
C832 C836 1.378 1_655 S
C833 H808 0.951 . S
C833 C831 1.388 . S
C833 C834 1.366 . S
C834 C833 1.366 . S
C834 C835 1.414 1_655 S
C834 C837 1.499 . S
C835 H809 0.950 . S
C835 C834 1.414 1_455 S
C835 C836 1.374 . S
C836 H810 0.950 . S
C836 C832 1.378 1_455 S
C836 C835 1.374 . S
C837 C834 1.499 . S
C837 C838 1.373 1_655 S
C837 C839 1.389 . S
C838 H811 0.950 . S
C838 C824 1.377 1_556 S
C838 C837 1.373 1_455 S
C839 C823 1.377 . S
C839 C837 1.389 . S
C839 C840 1.524 . S
C840 C839 1.524 . S
C840 C841 1.397 . S
C840 C845 1.363 . S
C841 H812 0.950 . S
C841 C840 1.397 . S
C841 C842 1.334 . S
C842 H813 0.950 . S
C842 C841 1.334 . S
C842 C843 1.287 . S
C843 C842 1.287 . S
C843 C844 1.524 . S
C843 H846 0.999 . S
C844 H814 0.950 . S
C844 C843 1.524 . S
C844 C845 1.415 . S
C845 H815 0.950 . S
C845 C840 1.363 . S
C845 C844 1.415 . S
H846 C843 0.999 . S
H847 C828 0.913 . S
H848 C866 0.951 . S
H849 C868 0.951 . S
H850 C870 0.950 . S
H851 C871 0.950 . S
H852 C873 0.950 . S
H853 C876 0.950 . S
H854 C877 0.950 . S
H855 C879 0.950 . S
H856 C880 0.950 1_455 S
H857 C881 0.951 . S
H858 C883 0.951 . S
H859 C885 0.923 1_455 S
H860 C886 0.950 . S
H861 C888 0.950 . S
H862 C891 0.950 . S
H863 C892 0.950 . S
H864 C894 0.950 . S
H865 C895 0.950 . S
C866 H848 0.951 . S
C866 C867 1.366 . S
C866 C868 1.388 . S
C867 C866 1.366 . S
C867 C871 1.385 1_455 S
C868 H849 0.951 . S
C868 C866 1.388 . S
C868 C869 1.366 1_455 S
C869 C868 1.366 1_655 S
C869 C870 1.414 . S
C869 C872 1.499 . S
C870 H850 0.950 . S
C870 C869 1.414 . S
C870 C871 1.374 . S
C871 H851 0.950 . S
C871 C867 1.385 1_655 S
C871 C870 1.374 . S
C872 C869 1.499 . S
C872 C873 1.373 . S
C872 C874 1.389 . S
C873 H852 0.950 . S
C873 C872 1.373 . S
C873 C889 1.377 . S
C874 C872 1.389 . S
C874 C875 1.524 . S
C874 C888 1.377 . S
C875 C874 1.524 . S
C875 C876 1.397 . S
C875 C880 1.363 . S
C876 H853 0.950 . S
C876 C875 1.397 . S
C876 C877 1.334 . S
C877 H854 0.950 . S
C877 C876 1.334 . S
C877 C878 1.287 . S
C878 C877 1.287 . S
C878 C879 1.524 . S
C878 H897 0.913 . S
C879 H855 0.950 . S
C879 C878 1.524 . S
C879 C880 1.415 . S
C880 H856 0.950 1_655 S
C880 C875 1.363 . S
C880 C879 1.415 . S
C881 H857 0.951 . S
C881 C882 1.366 . S
C881 C883 1.388 . S
C882 C881 1.366 . S
C882 C886 1.385 . S
C883 H858 0.951 . S
C883 C881 1.388 . S
C883 C884 1.366 . S
C884 C883 1.366 . S
C884 C885 1.414 . S
C884 C887 1.499 . S
C885 H859 0.923 1_655 S
C885 C884 1.414 . S
C885 C886 1.374 . S
C886 H860 0.950 . S
C886 C882 1.385 . S
C886 C885 1.374 . S
C887 C884 1.499 . S
C887 C888 1.373 . S
C887 C889 1.389 . S
C888 H861 0.950 . S
C888 C874 1.377 . S
C888 C887 1.373 . S
C889 C873 1.377 . S
C889 C887 1.389 . S
C889 C890 1.524 . S
C890 C889 1.524 . S
C890 C891 1.397 1_655 S
C890 C895 1.363 . S
C891 H862 0.950 . S
C891 C890 1.397 1_455 S
C891 C892 1.334 . S
C892 H863 0.950 . S
C892 C891 1.334 . S
C892 C893 1.294 . S
C893 C892 1.294 . S
C893 C894 1.513 1_455 S
C893 H896 1.001 . S
C894 H864 0.950 . S
C894 C893 1.513 1_655 S
C894 C895 1.415 . S
C895 H865 0.950 . S
C895 C890 1.363 . S
C895 C894 1.415 . S
H896 C893 1.001 . S
H897 C878 0.913 . S
H898 C916 0.951 . S
H899 C918 0.951 . S
H900 C920 0.950 . S
H901 C921 0.950 . S
H902 C923 0.950 . S
H903 C926 0.950 . S
H904 C927 0.950 . S
H905 C929 0.950 . S
H906 C930 0.950 . S
H907 C931 0.951 . S
H908 C933 0.951 . S
H909 C935 0.950 . S
H910 C936 0.950 . S
H911 C938 0.950 1_545 S
H912 C941 0.950 . S
H913 C942 0.950 . S
H914 C944 0.950 . S
H915 C945 0.950 . S
C916 H898 0.951 . S
C916 C917 1.366 1_565 S
C916 C918 1.388 . S
C917 C916 1.366 1_545 S
C917 C921 1.385 . S
C918 H899 0.951 . S
C918 C916 1.388 . S
C918 C919 1.366 . S
C919 C918 1.366 . S
C919 C920 1.422 . S
C919 C922 1.499 . S
C920 H900 0.950 . S
C920 C919 1.422 . S
C920 C921 1.367 1_565 S
C921 H901 0.950 . S
C921 C917 1.385 . S
C921 C920 1.367 1_545 S
C922 C919 1.499 . S
C922 C923 1.373 . S
C922 C924 1.389 1_565 S
C923 H902 0.950 . S
C923 C922 1.373 . S
C923 C939 1.377 . S
C924 C922 1.389 1_545 S
C924 C925 1.524 . S
C924 C938 1.377 1_545 S
C925 C924 1.524 . S
C925 C926 1.397 . S
C925 C930 1.363 . S
C926 H903 0.950 . S
C926 C925 1.397 . S
C926 C927 1.334 . S
C927 H904 0.950 . S
C927 C926 1.334 . S
C927 C928 1.287 . S
C928 C927 1.287 . S
C928 C929 1.524 . S
C928 H947 0.913 . S
C929 H905 0.950 . S
C929 C928 1.524 . S
C929 C930 1.415 . S
C930 H906 0.950 . S
C930 C925 1.363 . S
C930 C929 1.415 . S
C931 H907 0.951 . S
C931 C932 1.366 . S
C931 C933 1.388 . S
C932 C931 1.366 . S
C932 C936 1.385 . S
C933 H908 0.951 . S
C933 C931 1.388 . S
C933 C934 1.366 . S
C934 C933 1.366 . S
C934 C935 1.414 . S
C934 C937 1.499 . S
C935 H909 0.950 . S
C935 C934 1.414 . S
C935 C936 1.374 . S
C936 H910 0.950 . S
C936 C932 1.385 . S
C936 C935 1.374 . S
C937 C934 1.499 . S
C937 C938 1.373 . S
C937 C939 1.389 . S
C938 H911 0.950 1_565 S
C938 C924 1.377 1_565 S
C938 C937 1.373 . S
C939 C923 1.377 . S
C939 C937 1.389 . S
C939 C940 1.524 . S
C940 C939 1.524 . S
C940 C941 1.397 . S
C940 C945 1.363 . S
C941 H912 0.950 . S
C941 C940 1.397 . S
C941 C942 1.334 . S
C942 H913 0.950 . S
C942 C941 1.334 . S
C942 C943 1.287 . S
C943 C942 1.287 . S
C943 C944 1.524 . S
C943 H946 0.999 . S
C944 H914 0.950 . S
C944 C943 1.524 . S
C944 C945 1.415 . S
C945 H915 0.950 . S
C945 C940 1.363 . S
C945 C944 1.415 . S
H946 C943 0.999 . S
H947 C928 0.913 . S
H948 C966 0.951 . S
H949 C968 0.951 . S
H950 C970 0.950 . S
H951 C971 0.950 . S
H952 C973 0.950 . S
H953 C976 0.950 . S
H954 C977 0.950 . S
H955 C979 0.950 . S
H956 C980 0.950 . S
H957 C981 0.951 . S
H958 C983 0.951 . S
H959 C985 0.950 . S
H960 C986 0.950 . S
H961 C988 0.950 . S
H962 C991 0.950 . S
H963 C992 0.950 . S
H964 C994 0.950 . S
H965 C995 0.950 . S
C966 H948 0.951 . S
C966 C967 1.366 . S
C966 C968 1.388 . S
C967 C966 1.366 . S
C967 C971 1.385 . S
C968 H949 0.951 . S
C968 C966 1.388 . S
C968 C969 1.366 . S
C969 C968 1.366 . S
C969 C970 1.414 . S
C969 C972 1.499 . S
C970 H950 0.950 . S
C970 C969 1.414 . S
C970 C971 1.374 . S
C971 H951 0.950 . S
C971 C967 1.385 . S
C971 C970 1.374 . S
C972 C969 1.499 . S
C972 C973 1.373 . S
C972 C974 1.389 . S
C973 H952 0.950 . S
C973 C972 1.373 . S
C973 C989 1.377 . S
C974 C972 1.389 . S
C974 C975 1.524 . S
C974 C988 1.377 . S
C975 C974 1.524 . S
C975 C976 1.397 . S
C975 C980 1.363 . S
C976 H953 0.950 . S
C976 C975 1.397 . S
C976 C977 1.334 . S
C977 H954 0.950 . S
C977 C976 1.334 . S
C977 C978 1.287 . S
C978 C977 1.287 . S
C978 C979 1.524 . S
C978 H997 0.913 . S
C979 H955 0.950 . S
C979 C978 1.524 . S
C979 C980 1.415 . S
C980 H956 0.950 . S
C980 C975 1.363 . S
C980 C979 1.415 . S
C981 H957 0.951 . S
C981 C982 1.366 . S
C981 C983 1.388 . S
C982 C981 1.366 . S
C982 C986 1.385 . S
C983 H958 0.951 . S
C983 C981 1.388 . S
C983 C984 1.366 . S
C984 C983 1.366 . S
C984 C985 1.414 . S
C984 C987 1.499 . S
C985 H959 0.950 . S
C985 C984 1.414 . S
C985 C986 1.374 . S
C986 H960 0.950 . S
C986 C982 1.385 . S
C986 C985 1.374 . S
C987 C984 1.499 . S
C987 C988 1.373 . S
C987 C989 1.389 . S
C988 H961 0.950 . S
C988 C974 1.377 . S
C988 C987 1.373 . S
C989 C973 1.377 . S
C989 C987 1.389 . S
C989 C990 1.524 . S
C990 C989 1.524 . S
C990 C991 1.397 . S
C990 C995 1.363 . S
C991 H962 0.950 . S
C991 C990 1.397 . S
C991 C992 1.334 . S
C992 H963 0.950 . S
C992 C991 1.334 . S
C992 C993 1.287 . S
C993 C992 1.287 . S
C993 C994 1.524 . S
C993 H996 0.999 . S
C994 H964 0.950 . S
C994 C993 1.524 . S
C994 C995 1.415 . S
C995 H965 0.950 . S
C995 C990 1.363 . S
C995 C994 1.415 . S
H996 C993 0.999 . S
H997 C978 0.913 . S
H998 C1016 0.951 . S
H999 C1018 0.951 . S
H1000 C1020 0.950 . S
H1001 C1021 0.950 . S
H1002 C1023 0.950 . S
H1003 C1026 0.950 . S
H1004 C1027 0.950 . S
H1005 C1029 0.950 . S
H1006 C1030 0.950 . S
H1007 C1031 0.951 . S
H1008 C1033 0.951 . S
H1009 C1035 0.950 . S
H1010 C1036 0.950 . S
H1011 C1038 0.950 . S
H1012 C1041 0.950 . S
H1013 C1042 0.950 . S
H1014 C1044 0.950 . S
H1015 C1045 0.950 . S
C1016 H998 0.951 . S
C1016 C1017 1.366 . S
C1016 C1018 1.388 . S
C1017 C1016 1.366 . S
C1017 C1021 1.385 . S
C1018 H999 0.951 . S
C1018 C1016 1.388 . S
C1018 C1019 1.366 . S
C1019 C1018 1.366 . S
C1019 C1020 1.414 . S
C1019 C1022 1.499 . S
C1020 H1000 0.950 . S
C1020 C1019 1.414 . S
C1020 C1021 1.374 . S
C1021 H1001 0.950 . S
C1021 C1017 1.385 . S
C1021 C1020 1.374 . S
C1022 C1019 1.499 . S
C1022 C1023 1.373 . S
C1022 C1024 1.389 . S
C1023 H1002 0.950 . S
C1023 C1022 1.373 . S
C1023 C1039 1.377 . S
C1024 C1022 1.389 . S
C1024 C1025 1.524 . S
C1024 C1038 1.377 . S
C1025 C1024 1.524 . S
C1025 C1026 1.397 . S
C1025 C1030 1.363 . S
C1026 H1003 0.950 . S
C1026 C1025 1.397 . S
C1026 C1027 1.334 . S
C1027 H1004 0.950 . S
C1027 C1026 1.334 . S
C1027 C1028 1.287 . S
C1028 C1027 1.287 . S
C1028 C1029 1.524 . S
C1028 H1047 0.913 . S
C1029 H1005 0.950 . S
C1029 C1028 1.524 . S
C1029 C1030 1.415 . S
C1030 H1006 0.950 . S
C1030 C1025 1.363 . S
C1030 C1029 1.415 . S
C1031 H1007 0.951 . S
C1031 C1032 1.366 . S
C1031 C1033 1.388 . S
C1032 C1031 1.366 . S
C1032 C1036 1.385 . S
C1033 H1008 0.951 . S
C1033 C1031 1.388 . S
C1033 C1034 1.366 . S
C1034 C1033 1.366 . S
C1034 C1035 1.414 . S
C1034 C1037 1.499 . S
C1035 H1009 0.950 . S
C1035 C1034 1.414 . S
C1035 C1036 1.374 . S
C1036 H1010 0.950 . S
C1036 C1032 1.385 . S
C1036 C1035 1.374 . S
C1037 C1034 1.499 . S
C1037 C1038 1.373 . S
C1037 C1039 1.389 . S
C1038 H1011 0.950 . S
C1038 C1024 1.377 . S
C1038 C1037 1.373 . S
C1039 C1023 1.377 . S
C1039 C1037 1.389 . S
C1039 C1040 1.524 . S
C1040 C1039 1.524 . S
C1040 C1041 1.397 . S
C1040 C1045 1.363 . S
C1041 H1012 0.950 . S
C1041 C1040 1.397 . S
C1041 C1042 1.334 . S
C1042 H1013 0.950 . S
C1042 C1041 1.334 . S
C1042 C1043 1.287 . S
C1043 C1042 1.287 . S
C1043 C1044 1.524 . S
C1043 H1046 0.999 . S
C1044 H1014 0.950 . S
C1044 C1043 1.524 . S
C1044 C1045 1.415 . S
C1045 H1015 0.950 . S
C1045 C1040 1.363 . S
C1045 C1044 1.415 . S
H1046 C1043 0.999 . S
H1047 C1028 0.913 . S
H1048 C1066 0.951 . S
H1049 C1068 0.951 . S
H1050 C1070 0.952 1_556 S
H1051 C1071 0.950 . S
H1052 C1073 0.950 . S
H1053 C1076 0.950 . S
H1054 C1077 0.950 . S
H1055 C1079 0.950 . S
H1056 C1080 0.950 . S
H1057 C1081 0.951 . S
H1058 C1083 0.951 . S
H1059 C1085 0.950 . S
H1060 C1086 0.950 . S
H1061 C1088 0.950 1_654 S
H1062 C1091 0.950 . S
H1063 C1092 0.950 . S
H1064 C1094 0.950 . S
H1065 C1095 0.950 . S
C1066 H1048 0.951 . S
C1066 C1067 1.366 1_455 S
C1066 C1068 1.388 . S
C1067 C1066 1.366 1_655 S
C1067 C1071 1.385 . S
C1068 H1049 0.951 . S
C1068 C1066 1.388 . S
C1068 C1069 1.366 . S
C1069 C1068 1.366 . S
C1069 C1070 1.409 1_455 S
C1069 C1072 1.499 . S
C1070 H1050 0.952 1_554 S
C1070 C1069 1.409 1_655 S
C1070 C1071 1.377 . S
C1071 H1051 0.950 . S
C1071 C1067 1.385 . S
C1071 C1070 1.377 . S
C1072 C1069 1.499 . S
C1072 C1073 1.373 1_554 S
C1072 C1074 1.372 1_455 S
C1073 H1052 0.950 . S
C1073 C1072 1.373 1_556 S
C1073 C1089 1.377 . S
C1074 C1072 1.372 1_655 S
C1074 C1075 1.557 . S
C1074 C1088 1.367 1_654 S
C1075 C1074 1.557 . S
C1075 C1076 1.397 . S
C1075 C1080 1.363 . S
C1076 H1053 0.950 . S
C1076 C1075 1.397 . S
C1076 C1077 1.334 . S
C1077 H1054 0.950 . S
C1077 C1076 1.334 . S
C1077 C1078 1.287 . S
C1078 C1077 1.287 . S
C1078 C1079 1.524 . S
C1078 H1097 0.913 . S
C1079 H1055 0.950 . S
C1079 C1078 1.524 . S
C1079 C1080 1.415 . S
C1080 H1056 0.950 . S
C1080 C1075 1.363 . S
C1080 C1079 1.415 . S
C1081 H1057 0.951 . S
C1081 C1082 1.366 . S
C1081 C1083 1.388 . S
C1082 C1081 1.366 . S
C1082 C1086 1.385 . S
C1083 H1058 0.951 . S
C1083 C1081 1.388 . S
C1083 C1084 1.366 . S
C1084 C1083 1.366 . S
C1084 C1085 1.414 . S
C1084 C1087 1.499 . S
C1085 H1059 0.950 . S
C1085 C1084 1.414 . S
C1085 C1086 1.374 . S
C1086 H1060 0.950 . S
C1086 C1082 1.385 . S
C1086 C1085 1.374 . S
C1087 C1084 1.499 . S
C1087 C1088 1.373 . S
C1087 C1089 1.389 . S
C1088 H1061 0.950 1_456 S
C1088 C1074 1.367 1_456 S
C1088 C1087 1.373 . S
C1089 C1073 1.377 . S
C1089 C1087 1.389 . S
C1089 C1090 1.524 . S
C1090 C1089 1.524 . S
C1090 C1091 1.397 . S
C1090 C1095 1.363 . S
C1091 H1062 0.950 . S
C1091 C1090 1.397 . S
C1091 C1092 1.334 . S
C1092 H1063 0.950 . S
C1092 C1091 1.334 . S
C1092 C1093 1.287 . S
C1093 C1092 1.287 . S
C1093 C1094 1.524 . S
C1093 H1096 0.999 . S
C1094 H1064 0.950 . S
C1094 C1093 1.524 . S
C1094 C1095 1.415 . S
C1095 H1065 0.950 . S
C1095 C1090 1.363 . S
C1095 C1094 1.415 . S
H1096 C1093 0.999 . S
H1097 C1078 0.913 . S
H1098 C1116 0.951 . S
H1099 C1118 0.951 1_556 S
H1100 C1120 0.947 1_565 S
H1101 C1121 0.950 . S
H1102 C1123 0.950 . S
H1103 C1126 0.950 . S
H1104 C1127 0.950 . S
H1105 C1129 0.950 . S
H1106 C1130 0.950 . S
H1107 C1131 0.951 . S
H1108 C1133 0.951 . S
H1109 C1135 0.950 . S
H1110 C1136 0.950 . S
H1111 C1138 0.950 . S
H1112 C1141 0.950 . S
H1113 C1142 0.950 . S
H1114 C1144 0.950 . S
H1115 C1145 0.950 . S
C1116 H1098 0.951 . S
C1116 C1117 1.366 1_545 S
C1116 C1118 1.388 . S
C1117 C1116 1.366 1_565 S
C1117 C1121 1.385 . S
C1118 H1099 0.951 1_554 S
C1118 C1116 1.388 . S
C1118 C1119 1.366 . S
C1119 C1118 1.366 . S
C1119 C1120 1.428 . S
C1119 C1122 1.499 . S
C1120 H1100 0.947 1_545 S
C1120 C1119 1.428 . S
C1120 C1121 1.366 1_545 S
C1121 H1101 0.950 . S
C1121 C1117 1.385 . S
C1121 C1120 1.366 1_565 S
C1122 C1119 1.499 . S
C1122 C1123 1.373 1_545 S
C1122 C1124 1.389 1_554 S
C1123 H1102 0.950 . S
C1123 C1122 1.373 1_565 S
C1123 C1139 1.377 1_554 S
C1124 C1122 1.389 1_556 S
C1124 C1125 1.524 . S
C1124 C1138 1.377 . S
C1125 C1124 1.524 . S
C1125 C1126 1.397 1_556 S
C1125 C1130 1.363 . S
C1126 H1103 0.950 . S
C1126 C1125 1.397 1_554 S
C1126 C1127 1.334 . S
C1127 H1104 0.950 . S
C1127 C1126 1.334 . S
C1127 C1128 1.287 1_554 S
C1128 C1127 1.287 1_556 S
C1128 C1129 1.524 . S
C1128 H1147 0.913 . S
C1129 H1105 0.950 . S
C1129 C1128 1.524 . S
C1129 C1130 1.415 . S
C1130 H1106 0.950 . S
C1130 C1125 1.363 . S
C1130 C1129 1.415 . S
C1131 H1107 0.951 . S
C1131 C1132 1.366 . S
C1131 C1133 1.388 . S
C1132 C1131 1.366 . S
C1132 C1136 1.385 . S
C1133 H1108 0.951 . S
C1133 C1131 1.388 . S
C1133 C1134 1.366 . S
C1134 C1133 1.366 . S
C1134 C1135 1.414 . S
C1134 C1137 1.499 . S
C1135 H1109 0.950 . S
C1135 C1134 1.414 . S
C1135 C1136 1.374 . S
C1136 H1110 0.950 . S
C1136 C1132 1.385 . S
C1136 C1135 1.374 . S
C1137 C1134 1.499 . S
C1137 C1138 1.373 . S
C1137 C1139 1.389 1_545 S
C1138 H1111 0.950 . S
C1138 C1124 1.377 . S
C1138 C1137 1.373 . S
C1139 C1123 1.377 1_556 S
C1139 C1137 1.389 1_565 S
C1139 C1140 1.524 . S
C1140 C1139 1.524 . S
C1140 C1141 1.397 . S
C1140 C1145 1.363 1_556 S
C1141 H1112 0.950 . S
C1141 C1140 1.397 . S
C1141 C1142 1.334 . S
C1142 H1113 0.950 . S
C1142 C1141 1.334 . S
C1142 C1143 1.287 . S
C1143 C1142 1.287 . S
C1143 C1144 1.524 1_556 S
C1143 H1146 0.999 . S
C1144 H1114 0.950 . S
C1144 C1143 1.524 1_554 S
C1144 C1145 1.415 . S
C1145 H1115 0.950 . S
C1145 C1140 1.363 1_554 S
C1145 C1144 1.415 . S
H1146 C1143 0.999 . S
H1147 C1128 0.913 . S
H1148 C1166 0.951 . S
H1149 C1168 0.951 1_556 S
H1150 C1170 0.950 . S
H1151 C1171 0.950 . S
H1152 C1173 0.950 . S
H1153 C1176 0.950 . S
H1154 C1177 0.950 1_554 S
H1155 C1179 0.950 . S
H1156 C1180 0.950 . S
H1157 C1181 0.951 . S
H1158 C1183 0.951 . S
H1159 C1185 0.950 . S
H1160 C1186 0.950 . S
H1161 C1188 0.950 . S
H1162 C1191 0.950 . S
H1163 C1192 0.950 . S
H1164 C1194 0.950 . S
H1165 C1195 0.950 . S
C1166 H1148 0.951 . S
C1166 C1167 1.366 . S
C1166 C1168 1.388 . S
C1167 C1166 1.366 . S
C1167 C1171 1.385 . S
C1168 H1149 0.951 1_554 S
C1168 C1166 1.388 . S
C1168 C1169 1.366 . S
C1169 C1168 1.366 . S
C1169 C1170 1.414 . S
C1169 C1172 1.499 . S
C1170 H1150 0.950 . S
C1170 C1169 1.414 . S
C1170 C1171 1.374 . S
C1171 H1151 0.950 . S
C1171 C1167 1.385 . S
C1171 C1170 1.374 . S
C1172 C1169 1.499 . S
C1172 C1173 1.373 . S
C1172 C1174 1.389 1_554 S
C1173 H1152 0.950 . S
C1173 C1172 1.373 . S
C1173 C1189 1.377 1_554 S
C1174 C1172 1.389 1_556 S
C1174 C1175 1.524 . S
C1174 C1188 1.377 . S
C1175 C1174 1.524 . S
C1175 C1176 1.397 1_556 S
C1175 C1180 1.363 . S
C1176 H1153 0.950 . S
C1176 C1175 1.397 1_554 S
C1176 C1177 1.334 1_554 S
C1177 H1154 0.950 1_556 S
C1177 C1176 1.334 1_556 S
C1177 C1178 1.287 . S
C1178 C1177 1.287 . S
C1178 C1179 1.524 . S
C1178 H1197 0.913 . S
C1179 H1155 0.950 . S
C1179 C1178 1.524 . S
C1179 C1180 1.415 . S
C1180 H1156 0.950 . S
C1180 C1175 1.363 . S
C1180 C1179 1.415 . S
C1181 H1157 0.951 . S
C1181 C1182 1.366 . S
C1181 C1183 1.388 . S
C1182 C1181 1.366 . S
C1182 C1186 1.385 . S
C1183 H1158 0.951 . S
C1183 C1181 1.388 . S
C1183 C1184 1.366 . S
C1184 C1183 1.366 . S
C1184 C1185 1.414 . S
C1184 C1187 1.499 . S
C1185 H1159 0.950 . S
C1185 C1184 1.414 . S
C1185 C1186 1.374 . S
C1186 H1160 0.950 . S
C1186 C1182 1.385 . S
C1186 C1185 1.374 . S
C1187 C1184 1.499 . S
C1187 C1188 1.373 . S
C1187 C1189 1.389 . S
C1188 H1161 0.950 . S
C1188 C1174 1.377 . S
C1188 C1187 1.373 . S
C1189 C1173 1.377 1_556 S
C1189 C1187 1.389 . S
C1189 C1190 1.524 1_556 S
C1190 C1189 1.524 1_554 S
C1190 C1191 1.397 1_554 S
C1190 C1195 1.363 . S
C1191 H1162 0.950 . S
C1191 C1190 1.397 1_556 S
C1191 C1192 1.334 . S
C1192 H1163 0.950 . S
C1192 C1191 1.334 . S
C1192 C1193 1.287 1_556 S
C1193 C1192 1.287 1_554 S
C1193 C1194 1.524 . S
C1193 H1196 0.999 . S
C1194 H1164 0.950 . S
C1194 C1193 1.524 . S
C1194 C1195 1.415 . S
C1195 H1165 0.950 . S
C1195 C1190 1.363 . S
C1195 C1194 1.415 . S
H1196 C1193 0.999 . S
H1197 C1178 0.913 . S
H1198 C1216 0.951 . S
H1199 C1218 0.951 . S
H1200 C1220 0.950 . S
H1201 C1221 0.950 . S
H1202 C1223 0.950 . S
H1203 C1226 0.950 . S
H1204 C1227 0.950 . S
H1205 C1229 0.950 . S
H1206 C1230 0.950 . S
H1207 C1231 0.951 . S
H1208 C1233 0.951 . S
H1209 C1235 0.950 . S
H1210 C1236 0.950 . S
H1211 C1238 0.950 1_554 S
H1212 C1241 0.950 . S
H1213 C1242 0.950 . S
H1214 C1244 0.950 . S
H1215 C1245 0.950 . S
C1216 H1198 0.951 . S
C1216 C1217 1.366 . S
C1216 C1218 1.388 . S
C1217 C1216 1.366 . S
C1217 C1221 1.385 . S
C1218 H1199 0.951 . S
C1218 C1216 1.388 . S
C1218 C1219 1.366 . S
C1219 C1218 1.366 . S
C1219 C1220 1.414 . S
C1219 C1222 1.499 . S
C1220 H1200 0.950 . S
C1220 C1219 1.414 . S
C1220 C1221 1.374 . S
C1221 H1201 0.950 . S
C1221 C1217 1.385 . S
C1221 C1220 1.374 . S
C1222 C1219 1.499 . S
C1222 C1223 1.373 1_554 S
C1222 C1224 1.389 . S
C1223 H1202 0.950 . S
C1223 C1222 1.373 1_556 S
C1223 C1239 1.377 . S
C1224 C1222 1.389 . S
C1224 C1225 1.524 . S
C1224 C1238 1.376 1_554 S
C1225 C1224 1.524 . S
C1225 C1226 1.397 . S
C1225 C1230 1.363 . S
C1226 H1203 0.950 . S
C1226 C1225 1.397 . S
C1226 C1227 1.334 . S
C1227 H1204 0.950 . S
C1227 C1226 1.334 . S
C1227 C1228 1.287 . S
C1228 C1227 1.287 . S
C1228 C1229 1.524 . S
C1228 H1247 0.913 . S
C1229 H1205 0.950 . S
C1229 C1228 1.524 . S
C1229 C1230 1.415 . S
C1230 H1206 0.950 . S
C1230 C1225 1.363 . S
C1230 C1229 1.415 . S
C1231 H1207 0.951 . S
C1231 C1232 1.366 . S
C1231 C1233 1.388 . S
C1232 C1231 1.366 . S
C1232 C1236 1.385 . S
C1233 H1208 0.951 . S
C1233 C1231 1.388 . S
C1233 C1234 1.366 . S
C1234 C1233 1.366 . S
C1234 C1235 1.414 . S
C1234 C1237 1.499 . S
C1235 H1209 0.950 . S
C1235 C1234 1.414 . S
C1235 C1236 1.374 . S
C1236 H1210 0.950 . S
C1236 C1232 1.385 . S
C1236 C1235 1.374 . S
C1237 C1234 1.499 . S
C1237 C1238 1.374 . S
C1237 C1239 1.389 . S
C1238 H1211 0.950 1_556 S
C1238 C1224 1.376 1_556 S
C1238 C1237 1.374 . S
C1239 C1223 1.377 . S
C1239 C1237 1.389 . S
C1239 C1240 1.524 . S
C1240 C1239 1.524 . S
C1240 C1241 1.397 . S
C1240 C1245 1.363 . S
C1241 H1212 0.950 . S
C1241 C1240 1.397 . S
C1241 C1242 1.334 . S
C1242 H1213 0.950 . S
C1242 C1241 1.334 . S
C1242 C1243 1.287 . S
C1243 C1242 1.287 . S
C1243 C1244 1.524 . S
C1243 H1246 0.999 . S
C1244 H1214 0.950 . S
C1244 C1243 1.524 . S
C1244 C1245 1.415 . S
C1245 H1215 0.950 . S
C1245 C1240 1.363 . S
C1245 C1244 1.415 . S
H1246 C1243 0.999 . S
H1247 C1228 0.913 . S
H1248 C1266 0.951 . S
H1249 C1268 0.951 . S
H1250 C1270 0.950 . S
H1251 C1271 0.950 . S
H1252 C1273 0.950 . S
H1253 C1276 0.950 . S
H1254 C1277 0.950 . S
H1255 C1279 0.950 . S
H1256 C1280 0.950 . S
H1257 C1281 0.951 . S
H1258 C1283 0.951 . S
H1259 C1285 0.950 . S
H1260 C1286 0.950 . S
H1261 C1288 0.950 . S
H1262 C1291 0.950 1_455 S
H1263 C1292 0.950 . S
H1264 C1294 0.950 . S
H1265 C1295 0.950 . S
C1266 H1248 0.951 . S
C1266 C1267 1.366 . S
C1266 C1268 1.388 . S
C1267 C1266 1.366 . S
C1267 C1271 1.385 1_455 S
C1268 H1249 0.951 . S
C1268 C1266 1.388 . S
C1268 C1269 1.366 . S
C1269 C1268 1.366 . S
C1269 C1270 1.414 1_455 S
C1269 C1272 1.499 . S
C1270 H1250 0.950 . S
C1270 C1269 1.414 1_655 S
C1270 C1271 1.374 . S
C1271 H1251 0.950 . S
C1271 C1267 1.385 1_655 S
C1271 C1270 1.374 . S
C1272 C1269 1.499 . S
C1272 C1273 1.373 1_455 S
C1272 C1274 1.389 . S
C1273 H1252 0.950 . S
C1273 C1272 1.373 1_655 S
C1273 C1289 1.377 . S
C1274 C1272 1.389 . S
C1274 C1275 1.524 . S
C1274 C1288 1.377 . S
C1275 C1274 1.524 . S
C1275 C1276 1.397 . S
C1275 C1280 1.363 . S
C1276 H1253 0.950 . S
C1276 C1275 1.397 . S
C1276 C1277 1.334 . S
C1277 H1254 0.950 . S
C1277 C1276 1.334 . S
C1277 C1278 1.287 . S
C1278 C1277 1.287 . S
C1278 C1279 1.524 . S
C1278 H1297 0.913 . S
C1279 H1255 0.950 . S
C1279 C1278 1.524 . S
C1279 C1280 1.415 . S
C1280 H1256 0.950 . S
C1280 C1275 1.363 . S
C1280 C1279 1.415 . S
C1281 H1257 0.951 . S
C1281 C1282 1.366 1_655 S
C1281 C1283 1.388 . S
C1282 C1281 1.366 1_455 S
C1282 C1286 1.385 . S
C1283 H1258 0.951 . S
C1283 C1281 1.388 . S
C1283 C1284 1.366 1_655 S
C1284 C1283 1.366 1_455 S
C1284 C1285 1.414 . S
C1284 C1287 1.499 . S
C1285 H1259 0.950 . S
C1285 C1284 1.414 . S
C1285 C1286 1.374 . S
C1286 H1260 0.950 . S
C1286 C1282 1.385 . S
C1286 C1285 1.374 . S
C1287 C1284 1.499 . S
C1287 C1288 1.373 . S
C1287 C1289 1.389 1_455 S
C1288 H1261 0.950 . S
C1288 C1274 1.377 . S
C1288 C1287 1.373 . S
C1289 C1273 1.377 . S
C1289 C1287 1.389 1_655 S
C1289 C1290 1.524 . S
C1290 C1289 1.524 . S
C1290 C1291 1.397 . S
C1290 C1295 1.363 . S
C1291 H1262 0.950 1_655 S
C1291 C1290 1.397 . S
C1291 C1292 1.334 . S
C1292 H1263 0.950 . S
C1292 C1291 1.334 . S
C1292 C1293 1.287 . S
C1293 C1292 1.287 . S
C1293 C1294 1.524 . S
C1293 H1296 0.999 . S
C1294 H1264 0.950 . S
C1294 C1293 1.524 . S
C1294 C1295 1.415 . S
C1295 H1265 0.950 . S
C1295 C1290 1.363 . S
C1295 C1294 1.415 . S
H1296 C1293 0.999 . S
H1297 C1278 0.913 . S
H1298 C1316 0.951 . S
H1299 C1318 0.951 . S
H1300 C1320 0.950 . S
H1301 C1321 0.950 . S
H1302 C1323 0.956 . S
H1303 C1326 0.950 . S
H1304 C1327 0.950 . S
H1305 C1329 0.942 1_554 S
H1306 C1330 0.949 . S
H1307 C1331 0.951 . S
H1308 C1333 0.951 . S
H1309 C1335 0.950 . S
H1310 C1336 0.950 . S
H1311 C1338 0.950 . S
H1312 C1341 0.950 . S
H1313 C1342 0.950 . S
H1314 C1344 0.950 . S
H1315 C1345 0.950 1_545 S
C1316 H1298 0.951 . S
C1316 C1317 1.366 1_565 S
C1316 C1318 1.388 . S
C1317 C1316 1.366 1_545 S
C1317 C1321 1.385 . S
C1318 H1299 0.951 . S
C1318 C1316 1.388 . S
C1318 C1319 1.366 1_565 S
C1319 C1318 1.366 1_545 S
C1319 C1320 1.414 . S
C1319 C1322 1.499 . S
C1320 H1300 0.950 . S
C1320 C1319 1.414 . S
C1320 C1321 1.374 . S
C1321 H1301 0.950 . S
C1321 C1317 1.385 . S
C1321 C1320 1.374 . S
C1322 C1319 1.499 . S
C1322 C1323 1.368 1_545 S
C1322 C1324 1.389 . S
C1323 H1302 0.956 . S
C1323 C1322 1.368 1_565 S
C1323 C1339 1.376 . S
C1324 C1322 1.389 . S
C1324 C1325 1.524 . S
C1324 C1338 1.377 . S
C1325 C1324 1.524 . S
C1325 C1326 1.397 . S
C1325 C1330 1.363 . S
C1326 H1303 0.950 . S
C1326 C1325 1.397 . S
C1326 C1327 1.334 . S
C1327 H1304 0.950 . S
C1327 C1326 1.334 . S
C1327 C1328 1.287 . S
C1328 C1327 1.287 . S
C1328 C1329 1.524 . S
C1328 H1347 0.913 . S
C1329 H1305 0.942 1_556 S
C1329 C1328 1.524 . S
C1329 C1330 1.415 . S
C1330 H1306 0.949 . S
C1330 C1325 1.363 . S
C1330 C1329 1.415 . S
C1331 H1307 0.951 . S
C1331 C1332 1.366 . S
C1331 C1333 1.388 . S
C1332 C1331 1.366 . S
C1332 C1336 1.385 1_545 S
C1333 H1308 0.951 . S
C1333 C1331 1.388 . S
C1333 C1334 1.366 . S
C1334 C1333 1.366 . S
C1334 C1335 1.414 1_545 S
C1334 C1337 1.499 . S
C1335 H1309 0.950 . S
C1335 C1334 1.414 1_565 S
C1335 C1336 1.374 . S
C1336 H1310 0.950 . S
C1336 C1332 1.385 1_565 S
C1336 C1335 1.374 . S
C1337 C1334 1.499 . S
C1337 C1338 1.373 . S
C1337 C1339 1.375 1_545 S
C1338 H1311 0.950 . S
C1338 C1324 1.377 . S
C1338 C1337 1.373 . S
C1339 C1323 1.376 . S
C1339 C1337 1.375 1_565 S
C1339 C1340 1.549 . S
C1340 C1339 1.549 . S
C1340 C1341 1.397 . S
C1340 C1345 1.363 . S
C1341 H1312 0.950 . S
C1341 C1340 1.397 . S
C1341 C1342 1.334 . S
C1342 H1313 0.950 . S
C1342 C1341 1.334 . S
C1342 C1343 1.287 . S
C1343 C1342 1.287 . S
C1343 C1344 1.524 . S
C1343 H1346 0.999 . S
C1344 H1314 0.950 . S
C1344 C1343 1.524 . S
C1344 C1345 1.415 . S
C1345 H1315 0.950 1_565 S
C1345 C1340 1.363 . S
C1345 C1344 1.415 . S
H1346 C1343 0.999 . S
H1347 C1328 0.913 . S
H1348 C1366 0.951 . S
H1349 C1368 0.951 . S
H1350 C1370 0.950 . S
H1351 C1371 0.950 . S
H1352 C1373 0.950 . S
H1353 C1376 0.950 . S
H1354 C1377 0.950 . S
H1355 C1379 0.950 . S
H1356 C1380 0.950 . S
H1357 C1381 0.951 . S
H1358 C1383 0.951 . S
H1359 C1385 0.950 . S
H1360 C1386 0.950 . S
H1361 C1388 0.950 . S
H1362 C1391 0.950 . S
H1363 C1392 0.950 . S
H1364 C1394 0.950 . S
H1365 C1395 0.950 . S
C1366 H1348 0.951 . S
C1366 C1367 1.366 . S
C1366 C1368 1.388 . S
C1367 C1366 1.366 . S
C1367 C1371 1.385 . S
C1368 H1349 0.951 . S
C1368 C1366 1.388 . S
C1368 C1369 1.366 . S
C1369 C1368 1.366 . S
C1369 C1370 1.414 . S
C1369 C1372 1.499 . S
C1370 H1350 0.950 . S
C1370 C1369 1.414 . S
C1370 C1371 1.374 . S
C1371 H1351 0.950 . S
C1371 C1367 1.385 . S
C1371 C1370 1.374 . S
C1372 C1369 1.499 . S
C1372 C1373 1.373 . S
C1372 C1374 1.389 . S
C1373 H1352 0.950 . S
C1373 C1372 1.373 . S
C1373 C1389 1.377 . S
C1374 C1372 1.389 . S
C1374 C1375 1.524 . S
C1374 C1388 1.377 . S
C1375 C1374 1.524 . S
C1375 C1376 1.397 . S
C1375 C1380 1.363 . S
C1376 H1353 0.950 . S
C1376 C1375 1.397 . S
C1376 C1377 1.334 . S
C1377 H1354 0.950 . S
C1377 C1376 1.334 . S
C1377 C1378 1.287 . S
C1378 C1377 1.287 . S
C1378 C1379 1.524 . S
C1378 H1397 0.913 . S
C1379 H1355 0.950 . S
C1379 C1378 1.524 . S
C1379 C1380 1.415 . S
C1380 H1356 0.950 . S
C1380 C1375 1.363 . S
C1380 C1379 1.415 . S
C1381 H1357 0.951 . S
C1381 C1382 1.366 . S
C1381 C1383 1.388 . S
C1382 C1381 1.366 . S
C1382 C1386 1.385 . S
C1383 H1358 0.951 . S
C1383 C1381 1.388 . S
C1383 C1384 1.366 . S
C1384 C1383 1.366 . S
C1384 C1385 1.414 . S
C1384 C1387 1.499 . S
C1385 H1359 0.950 . S
C1385 C1384 1.414 . S
C1385 C1386 1.374 . S
C1386 H1360 0.950 . S
C1386 C1382 1.385 . S
C1386 C1385 1.374 . S
C1387 C1384 1.499 . S
C1387 C1388 1.373 . S
C1387 C1389 1.389 . S
C1388 H1361 0.950 . S
C1388 C1374 1.377 . S
C1388 C1387 1.373 . S
C1389 C1373 1.377 . S
C1389 C1387 1.389 . S
C1389 C1390 1.524 . S
C1390 C1389 1.524 . S
C1390 C1391 1.397 . S
C1390 C1395 1.363 . S
C1391 H1362 0.950 . S
C1391 C1390 1.397 . S
C1391 C1392 1.334 . S
C1392 H1363 0.950 . S
C1392 C1391 1.334 . S
C1392 C1393 1.287 . S
C1393 C1392 1.287 . S
C1393 C1394 1.524 . S
C1393 H1396 0.999 . S
C1394 H1364 0.950 . S
C1394 C1393 1.524 . S
C1394 C1395 1.415 . S
C1395 H1365 0.950 . S
C1395 C1390 1.363 . S
C1395 C1394 1.415 . S
H1396 C1393 0.999 . S
H1397 C1378 0.913 . S
H1398 C1416 0.951 . S
H1399 C1418 0.951 . S
H1400 C1420 0.950 . S
H1401 C1421 0.950 . S
H1402 C1423 0.950 . S
H1403 C1426 0.950 . S
H1404 C1427 0.950 . S
H1405 C1429 0.950 . S
H1406 C1430 0.950 . S
H1407 C1431 0.951 . S
H1408 C1433 0.951 . S
H1409 C1435 0.950 . S
H1410 C1436 0.950 . S
H1411 C1438 0.950 . S
H1412 C1441 0.950 . S
H1413 C1442 0.950 . S
H1414 C1444 0.950 . S
H1415 C1445 0.950 . S
C1416 H1398 0.951 . S
C1416 C1417 1.366 . S
C1416 C1418 1.388 . S
C1417 C1416 1.366 . S
C1417 C1421 1.385 . S
C1418 H1399 0.951 . S
C1418 C1416 1.388 . S
C1418 C1419 1.366 . S
C1419 C1418 1.366 . S
C1419 C1420 1.414 . S
C1419 C1422 1.499 . S
C1420 H1400 0.950 . S
C1420 C1419 1.414 . S
C1420 C1421 1.374 . S
C1421 H1401 0.950 . S
C1421 C1417 1.385 . S
C1421 C1420 1.374 . S
C1422 C1419 1.499 . S
C1422 C1423 1.373 . S
C1422 C1424 1.389 . S
C1423 H1402 0.950 . S
C1423 C1422 1.373 . S
C1423 C1439 1.377 . S
C1424 C1422 1.389 . S
C1424 C1425 1.524 . S
C1424 C1438 1.377 . S
C1425 C1424 1.524 . S
C1425 C1426 1.397 . S
C1425 C1430 1.363 . S
C1426 H1403 0.950 . S
C1426 C1425 1.397 . S
C1426 C1427 1.334 . S
C1427 H1404 0.950 . S
C1427 C1426 1.334 . S
C1427 C1428 1.287 . S
C1428 C1427 1.287 . S
C1428 C1429 1.524 . S
C1428 H1447 0.913 1_556 S
C1429 H1405 0.950 . S
C1429 C1428 1.524 . S
C1429 C1430 1.415 . S
C1430 H1406 0.950 . S
C1430 C1425 1.363 . S
C1430 C1429 1.415 . S
C1431 H1407 0.951 . S
C1431 C1432 1.366 . S
C1431 C1433 1.388 . S
C1432 C1431 1.366 . S
C1432 C1436 1.385 . S
C1433 H1408 0.951 . S
C1433 C1431 1.388 . S
C1433 C1434 1.366 . S
C1434 C1433 1.366 . S
C1434 C1435 1.414 . S
C1434 C1437 1.499 . S
C1435 H1409 0.950 . S
C1435 C1434 1.414 . S
C1435 C1436 1.374 . S
C1436 H1410 0.950 . S
C1436 C1432 1.385 . S
C1436 C1435 1.374 . S
C1437 C1434 1.499 . S
C1437 C1438 1.373 . S
C1437 C1439 1.389 . S
C1438 H1411 0.950 . S
C1438 C1424 1.377 . S
C1438 C1437 1.373 . S
C1439 C1423 1.377 . S
C1439 C1437 1.389 . S
C1439 C1440 1.524 . S
C1440 C1439 1.524 . S
C1440 C1441 1.397 . S
C1440 C1445 1.363 . S
C1441 H1412 0.950 . S
C1441 C1440 1.397 . S
C1441 C1442 1.334 . S
C1442 H1413 0.950 . S
C1442 C1441 1.334 . S
C1442 C1443 1.287 . S
C1443 C1442 1.287 . S
C1443 C1444 1.524 . S
C1443 H1446 0.999 . S
C1444 H1414 0.950 . S
C1444 C1443 1.524 . S
C1444 C1445 1.415 . S
C1445 H1415 0.950 . S
C1445 C1440 1.363 . S
C1445 C1444 1.415 . S
H1446 C1443 0.999 . S
H1447 C1428 0.913 1_554 S
H1448 C1466 0.951 . S
H1449 C1468 0.951 . S
H1450 C1470 0.950 . S
H1451 C1471 0.950 . S
H1452 C1473 0.956 . S
H1453 C1476 0.950 . S
H1454 C1477 0.950 . S
H1455 C1479 0.950 . S
H1456 C1480 0.950 . S
H1457 C1481 0.951 . S
H1458 C1483 0.951 . S
H1459 C1485 0.950 . S
H1460 C1486 0.950 . S
H1461 C1488 0.950 . S
H1462 C1491 0.950 . S
H1463 C1492 0.950 . S
H1464 C1494 0.950 . S
H1465 C1495 0.950 . S
C1466 H1448 0.951 . S
C1466 C1467 1.366 . S
C1466 C1468 1.388 . S
C1467 C1466 1.366 . S
C1467 C1471 1.385 1_655 S
C1468 H1449 0.951 . S
C1468 C1466 1.388 . S
C1468 C1469 1.366 . S
C1469 C1468 1.366 . S
C1469 C1470 1.414 1_655 S
C1469 C1472 1.499 . S
C1470 H1450 0.950 . S
C1470 C1469 1.414 1_455 S
C1470 C1471 1.374 . S
C1471 H1451 0.950 . S
C1471 C1467 1.385 1_455 S
C1471 C1470 1.374 . S
C1472 C1469 1.499 . S
C1472 C1473 1.370 1_655 S
C1472 C1474 1.389 . S
C1473 H1452 0.956 . S
C1473 C1472 1.370 1_455 S
C1473 C1489 1.375 1_455 S
C1474 C1472 1.389 . S
C1474 C1475 1.524 . S
C1474 C1488 1.377 . S
C1475 C1474 1.524 . S
C1475 C1476 1.397 1_655 S
C1475 C1480 1.363 . S
C1476 H1453 0.950 . S
C1476 C1475 1.397 1_455 S
C1476 C1477 1.334 . S
C1477 H1454 0.950 . S
C1477 C1476 1.334 . S
C1477 C1478 1.287 1_455 S
C1478 C1477 1.287 1_655 S
C1478 C1479 1.524 . S
C1478 H1497 0.913 . S
C1479 H1455 0.950 . S
C1479 C1478 1.524 . S
C1479 C1480 1.415 . S
C1480 H1456 0.950 . S
C1480 C1475 1.363 . S
C1480 C1479 1.415 . S
C1481 H1457 0.951 . S
C1481 C1482 1.366 1_455 S
C1481 C1483 1.388 . S
C1482 C1481 1.366 1_655 S
C1482 C1486 1.385 . S
C1483 H1458 0.951 . S
C1483 C1481 1.388 . S
C1483 C1484 1.366 1_455 S
C1484 C1483 1.366 1_655 S
C1484 C1485 1.414 . S
C1484 C1487 1.499 . S
C1485 H1459 0.950 . S
C1485 C1484 1.414 . S
C1485 C1486 1.374 . S
C1486 H1460 0.950 . S
C1486 C1482 1.385 . S
C1486 C1485 1.374 . S
C1487 C1484 1.499 . S
C1487 C1488 1.373 . S
C1487 C1489 1.389 . S
C1488 H1461 0.950 . S
C1488 C1474 1.377 . S
C1488 C1487 1.373 . S
C1489 C1473 1.375 1_655 S
C1489 C1487 1.389 . S
C1489 C1490 1.523 1_655 S
C1490 C1489 1.523 1_455 S
C1490 C1491 1.380 1_455 S
C1490 C1495 1.379 . S
C1491 H1462 0.950 . S
C1491 C1490 1.380 1_655 S
C1491 C1492 1.334 . S
C1492 H1463 0.950 . S
C1492 C1491 1.334 . S
C1492 C1493 1.326 . S
C1493 C1492 1.326 . S
C1493 C1494 1.482 1_655 S
C1493 H1496 0.997 1_655 S
C1494 H1464 0.950 . S
C1494 C1493 1.482 1_455 S
C1494 C1495 1.415 . S
C1495 H1465 0.950 . S
C1495 C1490 1.379 . S
C1495 C1494 1.415 . S
H1496 C1493 0.997 1_455 S
H1497 C1478 0.913 . S
H1498 C1516 0.951 . S
H1499 C1518 0.951 . S
H1500 C1520 0.950 . S
H1501 C1521 0.950 . S
H1502 C1523 0.950 . S
H1503 C1526 0.950 . S
H1504 C1527 0.950 . S
H1505 C1529 0.950 . S
H1506 C1530 0.950 . S
H1507 C1531 0.952 1_545 S
H1508 C1533 0.951 . S
H1509 C1535 0.950 . S
H1510 C1536 0.950 . S
H1511 C1538 0.950 . S
H1512 C1541 0.950 . S
H1513 C1542 0.950 . S
H1514 C1544 0.950 . S
H1515 C1545 0.950 . S
C1516 H1498 0.951 . S
C1516 C1517 1.390 . S
C1516 C1518 1.388 . S
C1517 C1516 1.390 . S
C1517 C1521 1.366 1_565 S
C1518 H1499 0.951 . S
C1518 C1516 1.388 . S
C1518 C1519 1.366 . S
C1519 C1518 1.366 . S
C1519 C1520 1.414 1_565 S
C1519 C1522 1.499 . S
C1520 H1500 0.950 . S
C1520 C1519 1.414 1_545 S
C1520 C1521 1.374 . S
C1521 H1501 0.950 . S
C1521 C1517 1.366 1_545 S
C1521 C1520 1.374 . S
C1522 C1519 1.499 . S
C1522 C1523 1.373 1_565 S
C1522 C1524 1.389 . S
C1523 H1502 0.950 . S
C1523 C1522 1.373 1_545 S
C1523 C1539 1.377 . S
C1524 C1522 1.389 . S
C1524 C1525 1.524 . S
C1524 C1538 1.377 . S
C1525 C1524 1.524 . S
C1525 C1526 1.397 . S
C1525 C1530 1.363 . S
C1526 H1503 0.950 . S
C1526 C1525 1.397 . S
C1526 C1527 1.334 . S
C1527 H1504 0.950 . S
C1527 C1526 1.334 . S
C1527 C1528 1.287 . S
C1528 C1527 1.287 . S
C1528 C1529 1.524 . S
C1528 H1547 0.913 . S
C1529 H1505 0.950 . S
C1529 C1528 1.524 . S
C1529 C1530 1.415 . S
C1530 H1506 0.950 . S
C1530 C1525 1.363 . S
C1530 C1529 1.415 . S
C1531 H1507 0.952 1_565 S
C1531 C1532 1.364 . S
C1531 C1533 1.388 1_565 S
C1532 C1531 1.364 . S
C1532 C1536 1.385 . S
C1533 H1508 0.951 . S
C1533 C1531 1.388 1_545 S
C1533 C1534 1.366 1_545 S
C1534 C1533 1.366 1_565 S
C1534 C1535 1.414 . S
C1534 C1537 1.499 . S
C1535 H1509 0.950 . S
C1535 C1534 1.414 . S
C1535 C1536 1.374 . S
C1536 H1510 0.950 . S
C1536 C1532 1.385 . S
C1536 C1535 1.374 . S
C1537 C1534 1.499 . S
C1537 C1538 1.373 . S
C1537 C1539 1.389 1_565 S
C1538 H1511 0.950 . S
C1538 C1524 1.377 . S
C1538 C1537 1.373 . S
C1539 C1523 1.377 . S
C1539 C1537 1.389 1_545 S
C1539 C1540 1.524 . S
C1540 C1539 1.524 . S
C1540 C1541 1.397 . S
C1540 C1545 1.363 . S
C1541 H1512 0.950 . S
C1541 C1540 1.397 . S
C1541 C1542 1.334 . S
C1542 H1513 0.950 . S
C1542 C1541 1.334 . S
C1542 C1543 1.287 . S
C1543 C1542 1.287 . S
C1543 C1544 1.524 . S
C1543 H1546 0.999 . S
C1544 H1514 0.950 . S
C1544 C1543 1.524 . S
C1544 C1545 1.415 . S
C1545 H1515 0.950 . S
C1545 C1540 1.363 . S
C1545 C1544 1.415 . S
H1546 C1543 0.999 . S
H1547 C1528 0.913 . S
H1548 C1566 0.951 . S
H1549 C1568 0.951 . S
H1550 C1570 0.950 . S
H1551 C1571 0.950 . S
H1552 C1573 0.950 . S
H1553 C1576 0.950 . S
H1554 C1577 0.950 . S
H1555 C1579 0.950 . S
H1556 C1580 0.950 . S
H1557 C1581 0.951 . S
H1558 C1583 0.951 . S
H1559 C1585 0.950 . S
H1560 C1586 0.950 . S
H1561 C1588 0.950 . S
H1562 C1591 0.950 . S
H1563 C1592 0.950 . S
H1564 C1594 0.950 . S
H1565 C1595 0.950 . S
C1566 H1548 0.951 . S
C1566 C1567 1.366 . S
C1566 C1568 1.388 . S
C1567 C1566 1.366 . S
C1567 C1571 1.385 . S
C1568 H1549 0.951 . S
C1568 C1566 1.388 . S
C1568 C1569 1.366 . S
C1569 C1568 1.366 . S
C1569 C1570 1.414 . S
C1569 C1572 1.499 . S
C1570 H1550 0.950 . S
C1570 C1569 1.414 . S
C1570 C1571 1.374 . S
C1571 H1551 0.950 . S
C1571 C1567 1.385 . S
C1571 C1570 1.374 . S
C1572 C1569 1.499 . S
C1572 C1573 1.373 . S
C1572 C1574 1.389 . S
C1573 H1552 0.950 . S
C1573 C1572 1.373 . S
C1573 C1589 1.377 . S
C1574 C1572 1.389 . S
C1574 C1575 1.524 . S
C1574 C1588 1.377 . S
C1575 C1574 1.524 . S
C1575 C1576 1.397 . S
C1575 C1580 1.363 . S
C1576 H1553 0.950 . S
C1576 C1575 1.397 . S
C1576 C1577 1.334 . S
C1577 H1554 0.950 . S
C1577 C1576 1.334 . S
C1577 C1578 1.287 . S
C1578 C1577 1.287 . S
C1578 C1579 1.524 . S
C1578 H1597 0.913 . S
C1579 H1555 0.950 . S
C1579 C1578 1.524 . S
C1579 C1580 1.415 . S
C1580 H1556 0.950 . S
C1580 C1575 1.363 . S
C1580 C1579 1.415 . S
C1581 H1557 0.951 . S
C1581 C1582 1.366 . S
C1581 C1583 1.388 . S
C1582 C1581 1.366 . S
C1582 C1586 1.385 . S
C1583 H1558 0.951 . S
C1583 C1581 1.388 . S
C1583 C1584 1.366 . S
C1584 C1583 1.366 . S
C1584 C1585 1.414 . S
C1584 C1587 1.499 . S
C1585 H1559 0.950 . S
C1585 C1584 1.414 . S
C1585 C1586 1.374 . S
C1586 H1560 0.950 . S
C1586 C1582 1.385 . S
C1586 C1585 1.374 . S
C1587 C1584 1.499 . S
C1587 C1588 1.373 . S
C1587 C1589 1.389 . S
C1588 H1561 0.950 . S
C1588 C1574 1.377 . S
C1588 C1587 1.373 . S
C1589 C1573 1.377 . S
C1589 C1587 1.389 . S
C1589 C1590 1.524 . S
C1590 C1589 1.524 . S
C1590 C1591 1.397 . S
C1590 C1595 1.363 . S
C1591 H1562 0.950 . S
C1591 C1590 1.397 . S
C1591 C1592 1.334 . S
C1592 H1563 0.950 . S
C1592 C1591 1.334 . S
C1592 C1593 1.287 . S
C1593 C1592 1.287 . S
C1593 C1594 1.524 . S
C1593 H1596 0.999 . S
C1594 H1564 0.950 . S
C1594 C1593 1.524 . S
C1594 C1595 1.415 . S
C1595 H1565 0.950 . S
C1595 C1590 1.363 . S
C1595 C1594 1.415 . S
H1596 C1593 0.999 . S
H1597 C1578 0.913 . S
H1598 C1616 0.951 . S
H1599 C1618 0.951 . S
H1600 C1620 0.950 . S
H1601 C1621 0.950 . S
H1602 C1623 0.950 . S
H1603 C1626 0.950 . S
H1604 C1627 0.950 . S
H1605 C1629 0.950 . S
H1606 C1630 0.950 . S
H1607 C1631 0.951 . S
H1608 C1633 0.951 . S
H1609 C1635 0.950 . S
H1610 C1636 0.950 . S
H1611 C1638 0.950 . S
H1612 C1641 0.950 . S
H1613 C1642 0.950 . S
H1614 C1644 0.950 . S
H1615 C1645 0.950 . S
C1616 H1598 0.951 . S
C1616 C1617 1.366 . S
C1616 C1618 1.388 . S
C1617 C1616 1.366 . S
C1617 C1621 1.385 . S
C1618 H1599 0.951 . S
C1618 C1616 1.388 . S
C1618 C1619 1.366 . S
C1619 C1618 1.366 . S
C1619 C1620 1.414 . S
C1619 C1622 1.499 . S
C1620 H1600 0.950 . S
C1620 C1619 1.414 . S
C1620 C1621 1.374 . S
C1621 H1601 0.950 . S
C1621 C1617 1.385 . S
C1621 C1620 1.374 . S
C1622 C1619 1.499 . S
C1622 C1623 1.373 . S
C1622 C1624 1.389 . S
C1623 H1602 0.950 . S
C1623 C1622 1.373 . S
C1623 C1639 1.377 . S
C1624 C1622 1.389 . S
C1624 C1625 1.524 . S
C1624 C1638 1.377 . S
C1625 C1624 1.524 . S
C1625 C1626 1.397 . S
C1625 C1630 1.363 . S
C1626 H1603 0.950 . S
C1626 C1625 1.397 . S
C1626 C1627 1.334 . S
C1627 H1604 0.950 . S
C1627 C1626 1.334 . S
C1627 C1628 1.287 . S
C1628 C1627 1.287 . S
C1628 C1629 1.524 . S
C1628 H1647 0.913 . S
C1629 H1605 0.950 . S
C1629 C1628 1.524 . S
C1629 C1630 1.415 . S
C1630 H1606 0.950 . S
C1630 C1625 1.363 . S
C1630 C1629 1.415 . S
C1631 H1607 0.951 . S
C1631 C1632 1.366 . S
C1631 C1633 1.388 . S
C1632 C1631 1.366 . S
C1632 C1636 1.385 . S
C1633 H1608 0.951 . S
C1633 C1631 1.388 . S
C1633 C1634 1.366 . S
C1634 C1633 1.366 . S
C1634 C1635 1.414 . S
C1634 C1637 1.499 . S
C1635 H1609 0.950 . S
C1635 C1634 1.414 . S
C1635 C1636 1.374 . S
C1636 H1610 0.950 . S
C1636 C1632 1.385 . S
C1636 C1635 1.374 . S
C1637 C1634 1.499 . S
C1637 C1638 1.373 . S
C1637 C1639 1.389 . S
C1638 H1611 0.950 . S
C1638 C1624 1.377 . S
C1638 C1637 1.373 . S
C1639 C1623 1.377 . S
C1639 C1637 1.389 . S
C1639 C1640 1.524 . S
C1640 C1639 1.524 . S
C1640 C1641 1.397 . S
C1640 C1645 1.363 . S
C1641 H1612 0.950 . S
C1641 C1640 1.397 . S
C1641 C1642 1.334 . S
C1642 H1613 0.950 . S
C1642 C1641 1.334 . S
C1642 C1643 1.287 . S
C1643 C1642 1.287 . S
C1643 C1644 1.524 . S
C1643 H1646 0.999 . S
C1644 H1614 0.950 . S
C1644 C1643 1.524 . S
C1644 C1645 1.415 . S
C1645 H1615 0.950 . S
C1645 C1640 1.363 . S
C1645 C1644 1.415 . S
H1646 C1643 0.999 . S
H1647 C1628 0.913 . S
C467 C241 1.910 . S
C482 C306 2.067 1_545 S
C532 C346 2.088 . S
C517 C277 1.968 . S
C582 C386 2.077 . S
C567 C169 1.914 . S
C632 C426 2.084 1_455 S
C617 C205 1.922 . S
C682 C296 2.072 1_565 S
C667 C97 1.916 . S
C717 C133 1.971 . S
C732 C336 2.092 . S
C767 C25 1.915 . S
C782 C376 2.076 . S
C817 C61 1.922 1_655 S
C832 C416 2.083 1_655 S
C882 C293 0.223 . S
C867 C211 0.245 . S
C932 C333 0.219 . S
C917 C247 0.241 . S
C982 C373 0.220 . S
C967 C253 0.249 . S
C1017 C175 0.243 . S
C1032 C413 0.219 . S
C1067 C67 0.322 1_655 S
C1082 C303 0.208 . S
C1132 C343 0.224 . S
C1117 C103 0.314 1_565 S
C1182 C383 0.219 . S
C1167 C109 0.164 . S
C1217 C31 0.320 . S
C1232 C423 0.223 . S
C1267 C181 2.533 . S
C1282 C297 2.789 . S
C1317 C217 2.516 . S
C1332 C337 2.778 . S
C1382 C377 2.784 . S
C1367 C283 2.460 . S
C1432 C417 2.781 . S
C1417 C145 2.513 . S
C1467 C37 2.536 1_655 S
C1482 C307 2.803 . S
C1532 C347 2.778 . S
C1517 C73 2.517 1_565 S
C1582 C387 2.784 . S
C1567 C139 2.454 . S
C1617 C1 2.524 . S
C1632 C427 2.787 . S
