# Generated by pormake.
# Topology pth, (4,4)-cn, num edge types: 1
# Building blocks:
#     Node 0, Type 0, BuildingBlock: QUQFOY_clean_sbu_1, # of connection points: 4
#     Node 1, Type 0, BuildingBlock: QUQFOY_clean_sbu_1, # of connection points: 4
#     Node 2, Type 0, BuildingBlock: QUQFOY_clean_sbu_1, # of connection points: 4
#     Node 3, Type 1, BuildingBlock: MIFKUJ_clean_linker_1, # of connection points: 4
#     Node 4, Type 1, BuildingBlock: MIFKUJ_clean_linker_1, # of connection points: 4
#     Node 5, Type 1, BuildingBlock: MIFKUJ_clean_linker_1, # of connection points: 4
#     Edge 6, Type (0, 1), BuildingBlock: XUDNAN_clean_linker_2, # of connection points: 2
#     Edge 7, Type (0, 1), BuildingBlock: XUDNAN_clean_linker_2, # of connection points: 2
#     Edge 8, Type (0, 1), BuildingBlock: XUDNAN_clean_linker_2, # of connection points: 2
#     Edge 9, Type (0, 1), BuildingBlock: XUDNAN_clean_linker_2, # of connection points: 2
#     Edge 10, Type (0, 1), BuildingBlock: XUDNAN_clean_linker_2, # of connection points: 2
#     Edge 11, Type (0, 1), BuildingBlock: XUDNAN_clean_linker_2, # of connection points: 2
#     Edge 12, Type (0, 1), BuildingBlock: XUDNAN_clean_linker_2, # of connection points: 2
#     Edge 13, Type (0, 1), BuildingBlock: XUDNAN_clean_linker_2, # of connection points: 2
#     Edge 14, Type (0, 1), BuildingBlock: XUDNAN_clean_linker_2, # of connection points: 2
#     Edge 15, Type (0, 1), BuildingBlock: XUDNAN_clean_linker_2, # of connection points: 2
#     Edge 16, Type (0, 1), BuildingBlock: XUDNAN_clean_linker_2, # of connection points: 2
#     Edge 17, Type (0, 1), BuildingBlock: XUDNAN_clean_linker_2, # of connection points: 2
# Relax obj value: 0.028
# Max RMSD: 0.131
# Mean RMSD: 0.087
data_MOF--net-pth--node1-QUQFOY_clean_sbu_1--node2-MIFKUJ_clean_linker_1--edge1-XUDNAN_clean_linker_2
_symmetry_space_group_name_H-M    P1
_symmetry_Int_Tables_number       1
_symmetry_cell_setting            triclinic
loop_
_symmetry_equiv_pos_as_xyz
'x, y, z'
_cell_length_a     28.582151
_cell_length_b     30.624368
_cell_length_c     64.774209
_cell_angle_alpha  90.234206
_cell_angle_beta   89.920637
_cell_angle_gamma 120.09624
loop_
_atom_site_label
_atom_site_type_symbol
_atom_site_fract_x
_atom_site_fract_y
_atom_site_fract_z
_atom_type_partial_charge
O0 O 0.04812 0.0843 0.05963 0.0
Cd1 Cd 0.98205 0.04355 0.0784 0.0
Cd2 Cd 0.01794 0.97449 0.07602 0.0
O3 O 0.08269 0.03426 0.06144 0.0
O4 O 0.96515 0.09493 0.08932 0.0
O5 O 0.99019 0.05171 0.10927 0.0
C6 C 0.97702 0.0862 0.10747 0.0
C7 C 0.0363 0.92265 0.09704 0.0
C8 C 0.0854 0.07477 0.05521 0.0
C9 C 0.90811 0.94589 0.05766 0.0
O10 O 0.94594 0.93593 0.06001 0.0
O11 O 0.91283 0.98659 0.06485 0.0
O12 O 0.04156 0.92353 0.07729 0.0
O13 O 0.02148 0.95234 0.10519 0.0
O14 O 0.99859 0.06418 0.42402 0.0
Cd15 Cd 0.05002 0.06566 0.40168 0.0
Cd16 Cd 0.98252 0.96534 0.404 0.0
O17 O 0.93361 0.98476 0.421 0.0
O18 O 0.08135 0.13337 0.38825 0.0
O19 O 0.02509 0.06145 0.37258 0.0
C20 C 0.05214 0.11017 0.37231 0.0
C21 C 0.95664 0.91226 0.37521 0.0
C22 C 0.95183 0.02857 0.42886 0.0
C23 C 0.09759 1.00829 0.41927 0.0
O24 O 0.04937 0.97137 0.4187 0.0
O25 O 0.10923 0.05074 0.4116 0.0
O26 O 0.942 0.89407 0.39355 0.0
O27 O 0.98231 0.96071 0.37317 0.0
O28 O 0.92652 0.95623 0.73 0.0
Cd29 Cd 0.98193 0.95452 0.74966 0.0
Cd30 Cd 0.03682 0.05449 0.7394 0.0
O31 O 0.96488 0.03841 0.72529 0.0
O32 O 0.94315 0.88408 0.76031 0.0
O33 O 0.96781 0.95048 0.78048 0.0
C34 C 0.94443 0.90212 0.77839 0.0
C35 C 0.08349 0.12417 0.76125 0.0
C36 C 0.9259 0.99387 0.72212 0.0
C37 C 0.08266 0.99095 0.7244 0.0
O38 O 0.08459 0.03322 0.72326 0.0
O39 O 0.04719 0.95589 0.73554 0.0
O40 O 0.08159 0.1292 0.74157 0.0
O41 O 0.05676 0.07914 0.76879 0.0
H42 H 0.07076 0.46954 0.20683 0.0
H43 H 0.06687 0.39711 0.18887 0.0
H44 H 0.92268 0.2963 0.22279 0.0
H45 H 0.9248 0.36855 0.23986 0.0
H46 H 0.0103 0.50874 0.20745 0.0
H47 H 0.08252 0.45835 0.26251 0.0
H48 H 0.08689 0.39035 0.28063 0.0
H49 H 0.92038 0.32754 0.29926 0.0
H50 H 0.9166 0.39665 0.28155 0.0
H51 H 0.91076 0.5388 0.27859 0.0
H52 H 0.90009 0.60552 0.29495 0.0
H53 H 0.05567 0.71745 0.27107 0.0
H54 H 0.06657 0.65065 0.25506 0.0
H55 H 0.98563 0.50917 0.28329 0.0
H56 H 0.93408 0.58484 0.22469 0.0
H57 H 0.949 0.65188 0.20032 0.0
H58 H 0.1096 0.67773 0.18797 0.0
H59 H 0.09388 0.6103 0.21178 0.0
C60 C 0.99872 0.42464 0.22507 0.0
C61 C 0.03814 0.43191 0.21035 0.0
C62 C 0.03599 0.39057 0.20013 0.0
C63 C 0.99479 0.34121 0.20464 0.0
C64 C 0.95539 0.33393 0.21931 0.0
C65 C 0.95686 0.37524 0.22918 0.0
C66 C 1.00027 0.4685 0.2358 0.0
C67 C 0.00541 0.50903 0.22405 0.0
C68 C 0.9952 0.46972 0.25749 0.0
C69 C 0.99921 0.43237 0.2707 0.0
C70 C 0.04731 0.43052 0.27087 0.0
C71 C 0.04978 0.39176 0.28118 0.0
C72 C 1.00388 0.35373 0.29118 0.0
C73 C 0.95618 0.3564 0.29154 0.0
C74 C 0.9541 0.39591 0.2816 0.0
C75 C 0.98902 0.58967 0.26528 0.0
C76 C 0.94274 0.57769 0.27699 0.0
C77 C 0.93668 0.61584 0.28634 0.0
C78 C 0.97678 0.66679 0.28412 0.0
C79 C 0.02358 0.67864 0.27272 0.0
C80 C 0.02983 0.64046 0.26354 0.0
C81 C 0.99407 0.54892 0.2548 0.0
C82 C 0.99031 0.50887 0.26668 0.0
C83 C 1.00345 0.54965 0.23329 0.0
C84 C 0.01277 0.59244 0.21991 0.0
C85 C 0.97258 0.60535 0.21682 0.0
C86 C 0.98129 0.6438 0.20298 0.0
C87 C 0.03028 0.66978 0.192 0.0
C88 C 0.07097 0.65777 0.19578 0.0
C89 C 0.06216 0.61936 0.20946 0.0
H90 H 0.63424 0.10988 0.54068 0.0
H91 H 0.70866 0.11835 0.51929 0.0
H92 H 0.67325 0.96926 0.53759 0.0
H93 H 0.59754 0.96044 0.55854 0.0
H94 H 0.52802 0.04077 0.53636 0.0
H95 H 0.66708 0.08131 0.58917 0.0
H96 H 0.72961 0.06742 0.61024 0.0
H97 H 0.59634 0.92361 0.62972 0.0
H98 H 0.53534 0.93636 0.6079 0.0
H99 H 0.41007 0.93245 0.60881 0.0
H100 H 0.33592 0.91756 0.63139 0.0
H101 H 0.34007 0.05141 0.60777 0.0
H102 H 0.41744 0.06802 0.58606 0.0
H103 H 0.50628 1.00289 0.61114 0.0
H104 H 0.37165 0.94591 0.55939 0.0
H105 H 0.30317 0.93657 0.53459 0.0
H106 H 0.41374 0.08436 0.51008 0.0
H107 H 0.48105 0.09458 0.53573 0.0
C108 C 0.61085 0.03487 0.55142 0.0
C109 C 0.64264 0.0791 0.54015 0.0
C110 C 0.68535 0.08397 0.52802 0.0
C111 C 0.69709 0.04458 0.52685 0.0
C112 C 0.66502 1.00013 0.53809 0.0
C113 C 0.62219 0.99529 0.55024 0.0
C114 C 0.56401 0.02934 0.56341 0.0
C115 C 0.52352 0.03338 0.55282 0.0
C116 C 0.55733 0.01749 0.58466 0.0
C117 C 0.59654 0.00968 0.5968 0.0
C118 C 0.65167 0.04644 0.59771 0.0
C119 C 0.68723 0.03871 0.60996 0.0
C120 C 0.66813 0.99425 0.62162 0.0
C121 C 0.61286 0.95778 0.62065 0.0
C122 C 0.57767 0.96529 0.60832 0.0
C123 C 0.41962 1.00147 0.59575 0.0
C124 C 0.39507 0.95867 0.60843 0.0
C125 C 0.35201 0.94984 0.62121 0.0
C126 C 0.33162 0.98316 0.62144 0.0
C127 C 0.35513 0.02528 0.60822 0.0
C128 C 0.39893 0.03449 0.59557 0.0
C129 C 0.4691 0.01268 0.58401 0.0
C130 C 0.51066 0.01067 0.5947 0.0
C131 C 0.47551 0.02402 0.56267 0.0
C132 C 0.43143 0.02117 0.5496 0.0
C133 C 0.3806 0.977 0.54914 0.0
C134 C 0.34175 0.97136 0.53467 0.0
C135 C 0.35319 0.00942 0.52011 0.0
C136 C 0.40335 0.05444 0.52113 0.0
C137 C 0.44203 0.06022 0.53573 0.0
H138 H 0.47293 0.43092 0.87112 0.0
H139 H 0.40723 0.37492 0.84548 0.0
H140 H 0.2777 0.3704 0.88132 0.0
H141 H 0.34357 0.42867 0.90656 0.0
H142 H 0.50272 0.5193 0.87923 0.0
H143 H 0.43012 0.37449 0.92073 0.0
H144 H 0.37059 0.29953 0.94083 0.0
H145 H 0.32371 0.38841 0.97832 0.0
H146 H 0.38104 0.46244 0.95749 0.0
H147 H 0.55443 0.65288 0.92568 0.0
H148 H 0.61188 0.72445 0.94802 0.0
H149 H 0.64101 0.62621 0.98693 0.0
H150 H 0.58481 0.55501 0.96413 0.0
H151 H 0.48311 0.51004 0.95538 0.0
H152 H 0.54389 0.61929 0.87665 0.0
H153 H 0.62576 0.68055 0.85823 0.0
H154 H 0.72247 0.64486 0.89831 0.0
H155 H 0.64081 0.58366 0.91653 0.0
C156 C 0.41351 0.43437 0.89086 0.0
C157 C 0.43044 0.41783 0.87361 0.0
C158 C 0.39296 0.38562 0.85902 0.0
C159 C 0.33769 0.36849 0.86155 0.0
C160 C 0.32017 0.38282 0.87922 0.0
C161 C 0.35784 0.41594 0.89366 0.0
C162 C 0.45434 0.47399 0.90481 0.0
C163 C 0.4981 0.51696 0.89588 0.0
C164 C 0.44999 0.47074 0.92663 0.0
C165 C 0.40985 0.42415 0.93747 0.0
C166 C 0.40599 0.37755 0.93294 0.0
C167 C 0.37249 0.33483 0.94467 0.0
C168 C 0.3426 0.33791 0.96133 0.0
C169 C 0.34557 0.38437 0.96548 0.0
C170 C 0.37874 0.42694 0.95366 0.0
C171 C 0.56563 0.59861 0.94312 0.0
C172 C 0.57369 0.64685 0.93889 0.0
C173 C 0.60605 0.68763 0.95181 0.0
C174 C 0.63089 0.681 0.96929 0.0
C175 C 0.6229 0.63268 0.97347 0.0
C176 C 0.59046 0.59187 0.96054 0.0
C177 C 0.52983 0.5551 0.92969 0.0
C178 C 0.48709 0.51188 0.9387 0.0
C179 C 0.53671 0.55672 0.90806 0.0
C180 C 0.58625 0.59702 0.89799 0.0
C181 C 0.58282 0.62512 0.88159 0.0
C182 C 0.62959 0.6603 0.87119 0.0
C183 C 0.68042 0.66735 0.87684 0.0
C184 C 0.6838 0.63998 0.89356 0.0
C185 C 0.63721 0.60525 0.90405 0.0
H186 H 0.98188 0.17741 0.10663 0.0
H187 H 0.97482 0.06434 0.14868 0.0
H188 H 0.97778 0.11693 0.17839 0.0
H189 H 0.07659 0.28431 0.13617 0.0
H190 H 0.04631 0.32191 0.12982 0.0
H191 H 0.04117 0.27432 0.11205 0.0
H192 H 0.93672 0.23258 0.11213 0.0
H193 H 0.94153 0.28014 0.12985 0.0
H194 H 0.90078 0.21429 0.13632 0.0
H195 H 0.9797 0.1819 0.20346 0.0
H196 H 0.9856 0.25577 0.22175 0.0
H197 H 0.99672 0.32763 0.16301 0.0
C198 C 0.98048 0.16343 0.12208 0.0
C199 C 0.97759 0.11657 0.12538 0.0
C200 C 0.97684 0.10007 0.14583 0.0
C201 C 0.97844 0.12965 0.16277 0.0
C202 C 0.9815 0.17582 0.15895 0.0
C203 C 0.98293 0.19275 0.13909 0.0
C204 C 0.98821 0.24447 0.13905 0.0
C205 C 0.04123 0.28355 0.12866 0.0
C206 C 0.93887 0.24274 0.12873 0.0
C207 C 0.98933 0.25407 0.16202 0.0
C208 C 0.98491 0.21389 0.17327 0.0
C209 C 0.98352 0.21367 0.19479 0.0
C210 C 0.98677 0.25561 0.20504 0.0
C211 C 0.99206 0.29736 0.19375 0.0
C212 C 0.9935 0.29648 0.17199 0.0
H213 H 0.84798 0.96439 0.44327 0.0
H214 H 0.98426 0.11703 0.44931 0.0
H215 H 0.93462 0.13611 0.47533 0.0
H216 H 0.74431 0.99839 0.44841 0.0
H217 H 0.6993 0.94316 0.46311 0.0
H218 H 0.7456 0.94056 0.44493 0.0
H219 H 0.78461 0.91002 0.47393 0.0
H220 H 0.7386 0.91278 0.49222 0.0
H221 H 0.81032 0.94714 0.49718 0.0
H222 H 0.87209 0.13965 0.5007 0.0
H223 H 0.79748 0.12791 0.52341 0.0
H224 H 0.69977 0.97409 0.50096 0.0
C225 C 0.86731 1.00179 0.45006 0.0
C226 C 0.92015 0.0391 0.44419 0.0
C227 C 0.94389 0.08766 0.45346 0.0
C228 C 0.91609 0.09898 0.46833 0.0
C229 C 0.86439 0.06147 0.47383 0.0
C230 C 0.83994 0.01394 0.46498 0.0
C231 C 0.78349 0.98102 0.47361 0.0
C232 C 0.74065 0.96485 0.45649 0.0
C233 C 0.77902 0.93502 0.48491 0.0
C234 C 0.78033 0.01765 0.48862 0.0
C235 C 0.82762 0.06374 0.4885 0.0
C236 C 0.83468 0.10382 0.5009 0.0
C237 C 0.79197 0.09686 0.51367 0.0
C238 C 0.74267 0.05024 0.51389 0.0
C239 C 0.73711 0.01002 0.50129 0.0
H240 H 0.87515 0.90477 0.8069 0.0
H241 H 0.95153 0.81964 0.78775 0.0
H242 H 0.89836 0.75436 0.81372 0.0
H243 H 0.85738 0.86956 0.86268 0.0
H244 H 0.79155 0.86393 0.86373 0.0
H245 H 0.8421 0.90817 0.84625 0.0
H246 H 0.77555 0.86689 0.81569 0.0
H247 H 0.72504 0.82231 0.83301 0.0
H248 H 0.746 0.8001 0.81102 0.0
H249 H 0.83252 0.6955 0.83942 0.0
H250 H 0.75447 0.64408 0.86202 0.0
H251 H 0.71551 0.76398 0.86311 0.0
C252 C 0.88181 0.87317 0.80874 0.0
C253 C 0.91815 0.8675 0.79577 0.0
C254 C 0.92436 0.82475 0.79785 0.0
C255 C 0.89445 0.78763 0.81254 0.0
C256 C 0.8579 0.79352 0.82481 0.0
C257 C 0.85118 0.83505 0.82303 0.0
C258 C 0.80476 0.8292 0.83641 0.0
C259 C 0.82518 0.87015 0.85327 0.0
C260 C 0.76022 0.82964 0.82324 0.0
C261 C 0.78581 0.77752 0.84559 0.0
C262 C 0.81777 0.75815 0.83899 0.0
C263 C 0.80753 0.71046 0.84488 0.0
C264 C 0.76322 0.6816 0.85776 0.0
C265 C 0.72918 0.70017 0.86439 0.0
C266 C 0.74091 0.7489 0.85827 0.0
H267 H 0.00606 0.89286 0.13743 0.0
H268 H 0.08579 0.87107 0.08453 0.0
H269 H 0.09517 0.80661 0.10362 0.0
H270 H 0.08598 0.87405 0.17726 0.0
H271 H 0.02894 0.84051 0.19425 0.0
H272 H 0.03156 0.88775 0.17703 0.0
H273 H 0.93861 0.82207 0.16179 0.0
H274 H 0.93589 0.77456 0.17884 0.0
H275 H 0.92966 0.76369 0.15136 0.0
H276 H 0.09161 0.74166 0.12708 0.0
H277 H 0.07719 0.68033 0.15425 0.0
H278 H 1.00037 0.74301 0.19269 0.0
C279 C 0.02625 0.87507 0.13002 0.0
C280 C 0.04536 0.88715 0.10949 0.0
C281 C 0.07082 0.86248 0.10022 0.0
C282 C 0.07642 0.82581 0.11094 0.0
C283 C 0.05635 0.81408 0.13096 0.0
C284 C 0.03197 0.83796 0.14051 0.0
C285 C 0.01212 0.8165 0.16192 0.0
C286 C 0.04141 0.85713 0.1786 0.0
C287 C 0.95041 0.7928 0.16356 0.0
C288 C 0.02864 0.77651 0.16271 0.0
C289 C 0.05429 0.77611 0.14468 0.0
C290 C 0.07222 0.74199 0.1414 0.0
C291 C 0.06407 0.70745 0.15701 0.0
C292 C 0.03829 0.70717 0.17577 0.0
C293 C 0.02016 0.74218 0.17855 0.0
H294 H 0.18337 0.07875 0.44203 0.0
H295 H 0.10244 0.92221 0.42221 0.0
H296 H 0.16304 0.90709 0.44437 0.0
H297 H 0.32107 0.0964 0.44765 0.0
H298 H 0.33511 0.1346 0.47056 0.0
H299 H 0.29033 0.13493 0.45107 0.0
H300 H 0.21561 0.11022 0.47869 0.0
H301 H 0.25986 0.10928 0.4982 0.0
H302 H 0.19452 0.0542 0.49389 0.0
H303 H 0.22704 0.90705 0.4703 0.0
H304 H 0.29139 0.92203 0.49839 0.0
H305 H 0.32765 0.0775 0.50316 0.0
C306 C 0.17961 0.04175 0.44193 0.0
C307 C 0.13881 1.00175 0.43024 0.0
C308 C 0.13375 0.95338 0.43097 0.0
C309 C 0.16797 0.94445 0.44347 0.0
C310 C 0.20676 0.98423 0.45528 0.0
C311 C 0.21294 0.03197 0.45462 0.0
C312 C 0.25484 0.06689 0.47015 0.0
C313 C 0.30321 0.1108 0.4592 0.0
C314 C 0.22968 0.08626 0.48618 0.0
C315 C 0.27055 0.03107 0.47981 0.0
C316 C 0.24267 0.98376 0.47085 0.0
C317 C 0.24924 0.94397 0.47743 0.0
C318 C 0.28547 0.95275 0.49358 0.0
C319 C 0.31436 1.00084 0.50317 0.0
C320 C 0.30669 0.04045 0.49606 0.0
H321 H 0.10293 0.12712 0.80318 0.0
H322 H 0.14419 0.22183 0.74876 0.0
H323 H 0.20972 0.29497 0.76917 0.0
H324 H 0.11643 0.22487 0.84053 0.0
H325 H 0.14508 0.20391 0.86024 0.0
H326 H 0.09798 0.15935 0.84181 0.0
H327 H 0.16824 0.13319 0.8317 0.0
H328 H 0.21564 0.17786 0.84997 0.0
H329 H 0.23457 0.18077 0.82324 0.0
H330 H 0.27697 0.35563 0.79404 0.0
H331 H 0.33822 0.4022 0.82305 0.0
H332 H 0.25235 0.27086 0.86216 0.0
C333 C 0.12503 0.16345 0.79567 0.0
C334 C 0.1183 0.16865 0.77434 0.0
C335 C 0.14845 0.21678 0.76505 0.0
C336 C 0.18585 0.25866 0.77652 0.0
C337 C 0.19241 0.25208 0.79734 0.0
C338 C 0.16248 0.20594 0.80696 0.0
C339 C 0.17903 0.20912 0.82943 0.0
C340 C 0.13181 0.1987 0.84385 0.0
C341 C 0.20066 0.1731 0.83383 0.0
C342 C 0.22374 0.2639 0.83074 0.0
C343 C 0.23066 0.28786 0.812 0.0
C344 C 0.27144 0.33758 0.80888 0.0
C345 C 0.3061 0.36363 0.82536 0.0
C346 C 0.29949 0.34008 0.84472 0.0
C347 C 0.25755 0.28974 0.84752 0.0
H348 H 0.9025 0.06341 0.70508 0.0
H349 H 0.8496 0.90334 0.70623 0.0
H350 H 0.78064 0.88733 0.68005 0.0
H351 H 0.76761 0.04661 0.69922 0.0
H352 H 0.78993 0.10021 0.68242 0.0
H353 H 0.83545 0.09946 0.70143 0.0
H354 H 0.90508 0.11512 0.67261 0.0
H355 H 0.85948 0.1153 0.65348 0.0
H356 H 0.88514 0.07246 0.6509 0.0
H357 H 0.72118 0.88846 0.65257 0.0
H358 H 0.66677 0.90528 0.62794 0.0
H359 H 0.75297 0.06361 0.64573 0.0
C360 C 0.87614 0.02498 0.69993 0.0
C361 C 0.88167 0.98469 0.70772 0.0
C362 C 0.84621 0.93489 0.70059 0.0
C363 C 0.807 0.92535 0.68562 0.0
C364 C 0.80324 0.96587 0.67802 0.0
C365 C 0.83614 0.01459 0.6851 0.0
C366 C 0.82245 0.05095 0.67457 0.0
C367 C 0.80267 0.07576 0.69035 0.0
C368 C 0.87093 0.09081 0.66215 0.0
C369 C 0.77702 0.01496 0.66041 0.0
C370 C 0.76711 0.96621 0.66256 0.0
C371 C 0.72793 0.92635 0.65095 0.0
C372 C 0.69703 0.9363 0.63706 0.0
C373 C 0.70484 0.98563 0.63508 0.0
C374 C 0.74606 0.02555 0.64675 0.0
H375 H 0.88766 0.85769 0.03892 0.0
H376 H 0.81815 0.95359 0.04939 0.0
H377 H 0.73857 0.89538 0.02845 0.0
H378 H 0.84613 0.82731 0.98663 0.0
H379 H 0.83241 0.76323 0.98847 0.0
H380 H 0.88269 0.81139 1.00491 0.0
H381 H 0.83306 0.75861 0.0372 0.0
H382 H 0.78263 0.7102 0.02085 0.0
H383 H 0.76254 0.73829 0.04096 0.0
H384 H 0.66768 0.82754 1.00549 0.0
H385 H 0.61063 0.75501 0.98276 0.0
H386 H 0.72794 0.70493 0.98714 0.0
C387 C 0.85562 0.86642 0.03698 0.0
C388 C 0.85918 0.91026 0.04586 0.0
C389 C 0.81634 0.92024 0.04279 0.0
C390 C 0.77098 0.8874 0.03091 0.0
C391 C 0.76909 0.84478 0.02226 0.0
C392 C 0.81025 0.83421 0.02519 0.0
C393 C 0.79907 0.78656 0.01391 0.0
C394 C 0.84266 0.79782 0.99751 0.0
C395 C 0.79402 0.74602 0.02914 0.0
C396 C 0.74522 0.77198 1.00406 0.0
C397 C 0.72854 0.80597 1.00906 0.0
C398 C 0.68035 0.80068 1.00149 0.0
C399 C 0.6484 0.75956 0.98849 0.0
C400 C 0.6648 0.72428 0.98316 0.0
C401 C 0.71389 0.73079 0.99114 0.0
H402 H 0.92493 0.81163 0.37597 0.0
H403 H 0.97692 0.93858 0.33445 0.0
H404 H 0.98096 0.88707 0.30583 0.0
H405 H 0.01163 0.77258 0.3574 0.0
H406 H 0.96524 0.70583 0.35999 0.0
H407 H 0.95876 0.74981 0.37653 0.0
H408 H 0.85939 0.71354 0.36481 0.0
H409 H 0.86533 0.66895 0.34836 0.0
H410 H 0.84413 0.7105 0.33766 0.0
H411 H 0.98954 0.8252 0.28279 0.0
H412 H 0.99774 0.75609 0.26663 0.0
H413 H 0.94109 0.66979 0.32323 0.0
C414 C 0.93558 0.82816 0.36073 0.0
C415 C 0.95017 0.87906 0.35743 0.0
C416 C 0.96518 0.89959 0.33734 0.0
C417 C 0.96764 0.87062 0.32097 0.0
C418 C 0.95478 0.82111 0.32492 0.0
C419 C 0.93849 0.79984 0.34426 0.0
C420 C 0.93071 0.74711 0.34479 0.0
C421 C 0.96887 0.74367 0.36061 0.0
C422 C 0.87135 0.7077 0.34916 0.0
C423 C 0.94642 0.7425 0.32289 0.0
C424 C 0.95985 0.78546 0.31164 0.0
C425 C 0.97847 0.79113 0.29138 0.0
C426 C 0.98342 0.75187 0.28238 0.0
C427 C 0.96992 0.7075 0.29364 0.0
C428 C 0.95082 0.70284 0.31412 0.0
H429 H 0.1744 0.05909 0.70353 0.0
H430 H 0.06928 0.89871 0.71441 0.0
H431 H 0.12048 0.87971 0.68882 0.0
H432 H 0.18998 0.05194 0.64963 0.0
H433 H 0.26049 0.09979 0.649 0.0
H434 H 0.21704 0.10162 0.66873 0.0
H435 H 0.28081 0.10174 0.69716 0.0
H436 H 0.32492 0.10074 0.67751 0.0
H437 H 0.29841 0.05285 0.69719 0.0
H438 H 0.17746 0.8776 0.66009 0.0
H439 H 0.2449 0.8925 0.6333 0.0
H440 H 0.31797 0.05432 0.6428 0.0
C441 C 0.16258 0.02001 0.70071 0.0
C442 C 0.11773 0.98039 0.71095 0.0
C443 C 0.10362 0.92974 0.70685 0.0
C444 C 0.13224 0.9185 0.69224 0.0
C445 C 0.17533 0.95833 0.68206 0.0
C446 C 0.19122 1.00808 0.68637 0.0
C447 C 0.23958 0.04369 0.6734 0.0
C448 C 0.22592 0.07617 0.65936 0.0
C449 C 0.28885 0.07669 0.68713 0.0
C450 C 0.24778 1.00607 0.66093 0.0
C451 C 0.20993 0.95709 0.66606 0.0
C452 C 0.20802 0.91578 0.65621 0.0
C453 C 0.24677 0.92471 0.64106 0.0
C454 C 0.28758 0.9746 0.63608 0.0
C455 C 0.28736 0.01572 0.64605 0.0
H456 H 0.09681 0.15801 0.03495 0.0
H457 H 0.17707 0.07145 0.04539 0.0
H458 H 0.25142 0.12897 0.02234 0.0
H459 H 0.1297 0.18181 0.98142 0.0
H460 H 0.13949 0.2447 0.98223 0.0
H461 H 0.09342 0.1976 0.99999 0.0
H462 H 0.14525 0.25621 0.03083 0.0
H463 H 0.19137 0.30358 0.01316 0.0
H464 H 0.217 0.28071 0.03328 0.0
H465 H 0.31692 0.19605 0.99803 0.0
H466 H 0.36892 0.26781 0.97461 0.0
H467 H 0.24356 0.30806 0.97915 0.0
C468 C 0.13015 0.15124 0.03254 0.0
C469 C 0.13113 0.11023 0.04205 0.0
C470 C 0.17539 0.1026 0.0383 0.0
C471 C 0.21781 0.13506 0.02523 0.0
C472 C 0.21526 0.17482 0.01597 0.0
C473 C 0.17257 0.183 0.01947 0.0
C474 C 0.17906 0.22798 1.00743 0.0
C475 C 0.13266 0.21205 0.99184 0.0
C476 C 0.18344 0.26958 0.02205 0.0
C477 C 0.23215 0.24391 0.99661 0.0
C478 C 0.25243 0.21284 1.00175 0.0
C479 C 0.30126 0.22046 0.9938 0.0
C480 C 0.33029 0.26112 0.98035 0.0
C481 C 0.31032 0.2936 0.97489 0.0
C482 C 0.26034 0.28439 0.98312 0.0
H483 H 0.10536 0.21287 0.36661 0.0
H484 H 0.98019 0.0716 0.34032 0.0
H485 H 0.95671 0.11884 0.31569 0.0
H486 H 0.03418 0.27716 0.3649 0.0
H487 H 0.09071 0.33754 0.35781 0.0
H488 H 0.10196 0.29323 0.372 0.0
H489 H 0.16783 0.2965 0.34372 0.0
H490 H 0.15744 0.34149 0.32956 0.0
H491 H 0.14561 0.28396 0.31722 0.0
H492 H 0.93912 0.18088 0.297 0.0
H493 H 0.9359 0.25423 0.28273 0.0
H494 H 0.07477 0.35519 0.31996 0.0
C495 C 0.07389 0.19186 0.35534 0.0
C496 C 0.04466 0.1385 0.35539 0.0
C497 C 1.0034 0.11245 0.34052 0.0
C498 C 0.9896 0.13896 0.3265 0.0
C499 C 0.01795 0.1915 0.32734 0.0
C500 C 0.05996 0.21774 0.3411 0.0
C501 C 0.08276 0.27418 0.33926 0.0
C502 C 0.07703 0.29683 0.35971 0.0
C503 C 0.14192 0.30058 0.332 0.0
C504 C 0.04604 0.27549 0.32274 0.0
C505 C 0.00882 0.22737 0.31611 0.0
C506 C 0.96859 0.21877 0.30183 0.0
C507 C 0.96676 0.26049 0.29395 0.0
C508 C 0.00515 0.31008 0.30025 0.0
C509 C 0.04535 0.31759 0.31476 0.0
loop_
_geom_bond_atom_site_label_1
_geom_bond_atom_site_label_2
_geom_bond_distance
_geom_bond_site_symmetry_2
_ccdc_geom_bond_type
O0 Cd1 2.223 1_455 S
O0 C8 1.315 . S
Cd1 O0 2.223 1_655 S
Cd1 O4 2.297 . S
Cd1 O5 2.439 . S
Cd1 O11 2.240 1_545 S
Cd2 O3 2.240 1_565 S
Cd2 O10 2.223 1_455 S
Cd2 O12 2.297 . S
Cd2 O13 2.439 . S
O3 Cd2 2.240 1_545 S
O3 C8 1.279 . S
O4 Cd1 2.297 . S
O4 C6 1.247 . S
O5 Cd1 2.439 . S
O5 C6 1.208 . S
C6 O4 1.247 . S
C6 O5 1.208 . S
C7 O12 1.247 . S
C7 O13 1.208 . S
C8 O0 1.315 . S
C8 O3 1.279 . S
C9 O10 1.315 . S
C9 O11 1.279 . S
O10 Cd2 2.223 1_655 S
O10 C9 1.315 . S
O11 Cd1 2.240 1_565 S
O11 C9 1.279 . S
O12 Cd2 2.297 . S
O12 C7 1.247 . S
O13 Cd2 2.439 . S
O13 C7 1.208 . S
O14 Cd15 2.223 1_655 S
O14 C22 1.315 . S
Cd15 O14 2.223 1_455 S
Cd15 O18 2.297 . S
Cd15 O19 2.439 . S
Cd15 O25 2.240 . S
Cd16 O17 2.240 . S
Cd16 O24 2.223 1_655 S
Cd16 O26 2.297 . S
Cd16 O27 2.439 1_655 S
O17 Cd16 2.240 . S
O17 C22 1.279 1_565 S
O18 Cd15 2.297 . S
O18 C20 1.247 . S
O19 Cd15 2.439 . S
O19 C20 1.208 . S
C20 O18 1.247 . S
C20 O19 1.208 . S
C21 O26 1.248 . S
C21 O27 1.217 1_655 S
C22 O14 1.315 . S
C22 O17 1.279 1_545 S
C23 O24 1.315 . S
C23 O25 1.279 1_565 S
O24 Cd16 2.223 1_455 S
O24 C23 1.315 . S
O25 Cd15 2.240 . S
O25 C23 1.279 1_545 S
O26 Cd16 2.297 . S
O26 C21 1.248 . S
O27 Cd16 2.439 1_455 S
O27 C21 1.217 1_455 S
O28 Cd29 2.223 . S
O28 C36 1.315 . S
Cd29 O28 2.223 . S
Cd29 O32 2.297 . S
Cd29 O33 2.439 . S
Cd29 O39 2.240 1_655 S
Cd30 O31 2.240 1_455 S
Cd30 O38 2.223 . S
Cd30 O40 2.297 . S
Cd30 O41 2.439 . S
O31 Cd30 2.240 1_655 S
O31 C36 1.279 1_545 S
O32 Cd29 2.297 . S
O32 C34 1.247 . S
O33 Cd29 2.439 . S
O33 C34 1.208 . S
C34 O32 1.247 . S
C34 O33 1.208 . S
C35 O40 1.247 . S
C35 O41 1.208 . S
C36 O28 1.315 . S
C36 O31 1.279 1_565 S
C37 O38 1.315 . S
C37 O39 1.279 1_545 S
O38 Cd30 2.223 . S
O38 C37 1.315 . S
O39 Cd29 2.240 1_455 S
O39 C37 1.279 1_565 S
O40 Cd30 2.297 . S
O40 C35 1.247 . S
O41 Cd30 2.439 . S
O41 C35 1.208 . S
H42 C61 0.949 . S
H43 C62 0.950 . S
H44 C64 0.950 . S
H45 C65 0.950 . S
H46 C67 0.950 . S
H47 C70 0.950 . S
H48 C71 0.950 . S
H49 C73 0.951 . S
H50 C74 0.949 . S
H51 C76 0.949 . S
H52 C77 0.950 . S
H53 C79 0.950 . S
H54 C80 0.950 . S
H55 C82 0.950 . S
H56 C85 0.950 . S
H57 C86 0.950 . S
H58 C88 0.951 . S
H59 C89 0.949 . S
C60 C61 1.376 . S
C60 C65 1.386 1_455 S
C60 C66 1.483 . S
C61 H42 0.949 . S
C61 C60 1.376 . S
C61 C62 1.397 . S
C62 H43 0.950 . S
C62 C61 1.397 . S
C62 C63 1.391 . S
C63 C62 1.391 . S
C63 C64 1.405 1_455 S
C64 H44 0.950 . S
C64 C63 1.405 1_655 S
C64 C65 1.367 . S
C65 H45 0.950 . S
C65 C60 1.386 1_655 S
C65 C64 1.367 . S
C66 C60 1.483 . S
C66 C67 1.382 . S
C66 C68 1.403 1_455 S
C67 H46 0.950 . S
C67 C66 1.382 . S
C67 C83 1.411 . S
C68 C66 1.403 1_655 S
C68 C69 1.489 . S
C68 C82 1.411 . S
C69 C68 1.489 . S
C69 C70 1.383 1_655 S
C69 C74 1.382 . S
C70 H47 0.950 . S
C70 C69 1.383 1_455 S
C70 C71 1.395 . S
C71 H48 0.950 . S
C71 C70 1.395 . S
C71 C72 1.288 1_455 S
C72 C71 1.288 1_655 S
C72 C73 1.392 . S
C73 H49 0.951 . S
C73 C72 1.392 . S
C73 C74 1.392 . S
C74 H50 0.949 . S
C74 C69 1.382 . S
C74 C73 1.392 . S
C75 C76 1.376 . S
C75 C80 1.386 1_655 S
C75 C81 1.483 . S
C76 H51 0.949 . S
C76 C75 1.376 . S
C76 C77 1.397 . S
C77 H52 0.950 . S
C77 C76 1.397 . S
C77 C78 1.393 . S
C78 C77 1.393 . S
C78 C79 1.401 1_655 S
C79 H53 0.950 . S
C79 C78 1.401 1_455 S
C79 C80 1.367 . S
C80 H54 0.950 . S
C80 C75 1.386 1_455 S
C80 C79 1.367 . S
C81 C75 1.483 . S
C81 C82 1.382 . S
C81 C83 1.403 1_655 S
C82 H55 0.950 . S
C82 C68 1.411 . S
C82 C81 1.382 . S
C83 C67 1.411 . S
C83 C81 1.403 1_455 S
C83 C84 1.489 . S
C84 C83 1.489 . S
C84 C85 1.383 1_455 S
C84 C89 1.382 . S
C85 H56 0.950 . S
C85 C84 1.383 1_655 S
C85 C86 1.395 . S
C86 H57 0.950 . S
C86 C85 1.395 . S
C86 C87 1.288 1_655 S
C87 C86 1.288 1_455 S
C87 C88 1.392 . S
C88 H58 0.951 . S
C88 C87 1.392 . S
C88 C89 1.392 . S
C89 H59 0.949 . S
C89 C84 1.382 . S
C89 C88 1.392 . S
H90 C109 0.949 . S
H91 C110 0.950 . S
H92 C112 0.950 . S
H93 C113 0.950 . S
H94 C115 0.950 . S
H95 C118 0.950 . S
H96 C119 0.950 . S
H97 C121 0.951 . S
H98 C122 0.949 . S
H99 C124 0.949 . S
H100 C125 0.950 . S
H101 C127 0.950 . S
H102 C128 0.950 . S
H103 C130 0.950 . S
H104 C133 0.950 . S
H105 C134 0.950 . S
H106 C136 0.951 . S
H107 C137 0.949 . S
C108 C109 1.376 . S
C108 C113 1.386 1_545 S
C108 C114 1.483 . S
C109 H90 0.949 . S
C109 C108 1.376 . S
C109 C110 1.397 . S
C110 H91 0.950 . S
C110 C109 1.397 . S
C110 C111 1.391 . S
C111 C110 1.391 . S
C111 C112 1.405 1_545 S
C112 H92 0.950 . S
C112 C111 1.405 1_565 S
C112 C113 1.367 . S
C113 H93 0.950 . S
C113 C108 1.386 1_565 S
C113 C112 1.367 . S
C114 C108 1.483 . S
C114 C115 1.382 . S
C114 C116 1.403 1_545 S
C115 H94 0.950 . S
C115 C114 1.382 . S
C115 C131 1.411 . S
C116 C114 1.403 1_565 S
C116 C117 1.489 . S
C116 C130 1.411 . S
C117 C116 1.489 . S
C117 C118 1.383 1_565 S
C117 C122 1.382 . S
C118 H95 0.950 . S
C118 C117 1.383 1_545 S
C118 C119 1.395 . S
C119 H96 0.950 . S
C119 C118 1.395 . S
C119 C120 1.288 1_545 S
C120 C119 1.288 1_565 S
C120 C121 1.392 . S
C121 H97 0.951 . S
C121 C120 1.392 . S
C121 C122 1.392 . S
C122 H98 0.949 . S
C122 C117 1.382 . S
C122 C121 1.392 . S
C123 C124 1.376 . S
C123 C128 1.386 1_565 S
C123 C129 1.483 . S
C124 H99 0.949 . S
C124 C123 1.376 . S
C124 C125 1.397 . S
C125 H100 0.950 . S
C125 C124 1.397 . S
C125 C126 1.398 . S
C126 C125 1.398 . S
C126 C127 1.401 1_565 S
C127 H101 0.950 . S
C127 C126 1.401 1_545 S
C127 C128 1.367 . S
C128 H102 0.950 . S
C128 C123 1.386 1_545 S
C128 C127 1.367 . S
C129 C123 1.483 . S
C129 C130 1.382 . S
C129 C131 1.403 1_565 S
C130 H103 0.950 . S
C130 C116 1.411 . S
C130 C129 1.382 . S
C131 C115 1.411 . S
C131 C129 1.403 1_545 S
C131 C132 1.489 . S
C132 C131 1.489 . S
C132 C133 1.383 1_545 S
C132 C137 1.382 . S
C133 H104 0.950 . S
C133 C132 1.383 1_565 S
C133 C134 1.395 . S
C134 H105 0.950 . S
C134 C133 1.395 . S
C134 C135 1.288 1_565 S
C135 C134 1.288 1_545 S
C135 C136 1.392 . S
C136 H106 0.951 . S
C136 C135 1.392 . S
C136 C137 1.392 . S
C137 H107 0.949 . S
C137 C132 1.382 . S
C137 C136 1.392 . S
H138 C157 0.949 . S
H139 C158 0.950 . S
H140 C160 0.950 . S
H141 C161 0.950 . S
H142 C163 0.950 . S
H143 C166 0.950 . S
H144 C167 0.950 . S
H145 C169 0.951 . S
H146 C170 0.949 . S
H147 C172 0.949 . S
H148 C173 0.950 . S
H149 C175 0.950 . S
H150 C176 0.950 . S
H151 C178 0.950 . S
H152 C181 0.950 . S
H153 C182 0.950 . S
H154 C184 0.951 . S
H155 C185 0.949 . S
C156 C157 1.376 . S
C156 C161 1.386 . S
C156 C162 1.483 . S
C157 H138 0.949 . S
C157 C156 1.376 . S
C157 C158 1.397 . S
C158 H139 0.950 . S
C158 C157 1.397 . S
C158 C159 1.391 . S
C159 C158 1.391 . S
C159 C160 1.405 . S
C160 H140 0.950 . S
C160 C159 1.405 . S
C160 C161 1.367 . S
C161 H141 0.950 . S
C161 C156 1.386 . S
C161 C160 1.367 . S
C162 C156 1.483 . S
C162 C163 1.382 . S
C162 C164 1.403 . S
C163 H142 0.950 . S
C163 C162 1.382 . S
C163 C179 1.411 . S
C164 C162 1.403 . S
C164 C165 1.489 . S
C164 C178 1.411 . S
C165 C164 1.489 . S
C165 C166 1.383 . S
C165 C170 1.382 . S
C166 H143 0.950 . S
C166 C165 1.383 . S
C166 C167 1.395 . S
C167 H144 0.950 . S
C167 C166 1.395 . S
C167 C168 1.288 . S
C168 C167 1.288 . S
C168 C169 1.392 . S
C169 H145 0.951 . S
C169 C168 1.392 . S
C169 C170 1.392 . S
C170 H146 0.949 . S
C170 C165 1.382 . S
C170 C169 1.392 . S
C171 C172 1.376 . S
C171 C176 1.386 . S
C171 C177 1.483 . S
C172 H147 0.949 . S
C172 C171 1.376 . S
C172 C173 1.397 . S
C173 H148 0.950 . S
C173 C172 1.397 . S
C173 C174 1.391 . S
C174 C173 1.391 . S
C174 C175 1.405 . S
C175 H149 0.950 . S
C175 C174 1.405 . S
C175 C176 1.367 . S
C176 H150 0.950 . S
C176 C171 1.386 . S
C176 C175 1.367 . S
C177 C171 1.483 . S
C177 C178 1.382 . S
C177 C179 1.403 . S
C178 H151 0.950 . S
C178 C164 1.411 . S
C178 C177 1.382 . S
C179 C163 1.411 . S
C179 C177 1.403 . S
C179 C180 1.489 . S
C180 C179 1.489 . S
C180 C181 1.383 . S
C180 C185 1.382 . S
C181 H152 0.950 . S
C181 C180 1.383 . S
C181 C182 1.395 . S
C182 H153 0.950 . S
C182 C181 1.395 . S
C182 C183 1.288 . S
C183 C182 1.288 . S
C183 C184 1.392 . S
C184 H154 0.951 . S
C184 C183 1.392 . S
C184 C185 1.392 . S
C185 H155 0.949 . S
C185 C180 1.382 . S
C185 C184 1.392 . S
H186 C198 0.930 . S
H187 C200 0.930 . S
H188 C201 0.930 . S
H189 C205 0.959 . S
H190 C205 0.959 . S
H191 C205 0.961 . S
H192 C206 0.960 . S
H193 C206 0.961 . S
H194 C206 0.959 . S
H195 C209 0.929 . S
H196 C210 0.931 . S
H197 C212 0.930 . S
C198 H186 0.930 . S
C198 C199 1.399 1_455 S
C198 C203 1.399 . S
C199 C198 1.399 1_655 S
C199 C200 1.376 . S
C200 H187 0.930 . S
C200 C199 1.376 . S
C200 C201 1.388 . S
C201 H188 0.930 . S
C201 C200 1.388 . S
C201 C202 1.390 . S
C202 C201 1.390 . S
C202 C203 1.394 1_655 S
C202 C208 1.465 . S
C203 C198 1.399 . S
C203 C202 1.394 1_455 S
C203 C204 1.516 . S
C204 C203 1.516 . S
C204 C205 1.502 . S
C204 C206 1.561 1_455 S
C204 C207 1.526 . S
C205 H189 0.959 . S
C205 H190 0.959 . S
C205 H191 0.961 . S
C205 C204 1.502 . S
C206 H192 0.960 . S
C206 H193 0.961 . S
C206 H194 0.959 . S
C206 C204 1.561 1_655 S
C207 C204 1.526 . S
C207 C208 1.396 1_455 S
C207 C212 1.390 . S
C208 C202 1.465 . S
C208 C207 1.396 1_655 S
C208 C209 1.399 . S
C209 H195 0.929 . S
C209 C208 1.399 . S
C209 C210 1.385 . S
C210 H196 0.931 . S
C210 C209 1.385 . S
C210 C211 1.389 . S
C211 C210 1.389 . S
C211 C212 1.387 1_655 S
C212 H197 0.930 . S
C212 C207 1.390 . S
C212 C211 1.387 1_455 S
H213 C225 0.930 . S
H214 C227 0.930 . S
H215 C228 0.930 . S
H216 C232 0.959 . S
H217 C232 0.959 . S
H218 C232 0.961 . S
H219 C233 0.960 . S
H220 C233 0.961 . S
H221 C233 0.959 . S
H222 C236 0.929 . S
H223 C237 0.931 . S
H224 C239 0.930 . S
C225 H213 0.930 . S
C225 C226 1.399 1_565 S
C225 C230 1.399 . S
C226 C225 1.399 1_545 S
C226 C227 1.376 . S
C227 H214 0.930 . S
C227 C226 1.376 . S
C227 C228 1.388 . S
C228 H215 0.930 . S
C228 C227 1.388 . S
C228 C229 1.390 . S
C229 C228 1.390 . S
C229 C230 1.394 1_545 S
C229 C235 1.465 . S
C230 C225 1.399 . S
C230 C229 1.394 1_565 S
C230 C231 1.516 . S
C231 C230 1.516 . S
C231 C232 1.502 . S
C231 C233 1.561 . S
C231 C234 1.526 . S
C232 H216 0.959 . S
C232 H217 0.959 . S
C232 H218 0.961 . S
C232 C231 1.502 . S
C233 H219 0.960 . S
C233 H220 0.961 . S
C233 H221 0.959 . S
C233 C231 1.561 . S
C234 C231 1.526 . S
C234 C235 1.396 1_565 S
C234 C239 1.390 . S
C235 C229 1.465 . S
C235 C234 1.396 1_545 S
C235 C236 1.399 . S
C236 H222 0.929 . S
C236 C235 1.399 . S
C236 C237 1.385 . S
C237 H223 0.931 . S
C237 C236 1.385 . S
C237 C238 1.389 . S
C238 C237 1.389 . S
C238 C239 1.387 1_545 S
C239 H224 0.930 . S
C239 C234 1.390 . S
C239 C238 1.387 1_565 S
H240 C252 0.930 . S
H241 C254 0.930 . S
H242 C255 0.930 . S
H243 C259 0.959 . S
H244 C259 0.959 . S
H245 C259 0.961 . S
H246 C260 0.960 . S
H247 C260 0.961 . S
H248 C260 0.959 . S
H249 C263 0.929 . S
H250 C264 0.931 . S
H251 C266 0.930 . S
C252 H240 0.930 . S
C252 C253 1.399 . S
C252 C257 1.399 . S
C253 C252 1.399 . S
C253 C254 1.376 . S
C254 H241 0.930 . S
C254 C253 1.376 . S
C254 C255 1.388 . S
C255 H242 0.930 . S
C255 C254 1.388 . S
C255 C256 1.390 . S
C256 C255 1.390 . S
C256 C257 1.394 . S
C256 C262 1.465 . S
C257 C252 1.399 . S
C257 C256 1.394 . S
C257 C258 1.516 . S
C258 C257 1.516 . S
C258 C259 1.502 . S
C258 C260 1.561 . S
C258 C261 1.526 . S
C259 H243 0.959 . S
C259 H244 0.959 . S
C259 H245 0.961 . S
C259 C258 1.502 . S
C260 H246 0.960 . S
C260 H247 0.961 . S
C260 H248 0.959 . S
C260 C258 1.561 . S
C261 C258 1.526 . S
C261 C262 1.396 . S
C261 C266 1.390 . S
C262 C256 1.465 . S
C262 C261 1.396 . S
C262 C263 1.399 . S
C263 H249 0.929 . S
C263 C262 1.399 . S
C263 C264 1.385 . S
C264 H250 0.931 . S
C264 C263 1.385 . S
C264 C265 1.389 . S
C265 C264 1.389 . S
C265 C266 1.387 . S
C266 H251 0.930 . S
C266 C261 1.390 . S
C266 C265 1.387 . S
H267 C279 0.930 . S
H268 C281 0.930 . S
H269 C282 0.930 . S
H270 C286 0.959 . S
H271 C286 0.961 . S
H272 C286 0.961 . S
H273 C287 0.960 . S
H274 C287 0.961 . S
H275 C287 0.959 . S
H276 C290 0.929 . S
H277 C291 0.931 . S
H278 C293 0.930 . S
C279 H267 0.930 . S
C279 C280 1.400 . S
C279 C284 1.399 . S
C280 C279 1.400 . S
C280 C281 1.372 1_655 S
C281 H268 0.930 . S
C281 C280 1.372 1_455 S
C281 C282 1.388 . S
C282 H269 0.930 . S
C282 C281 1.388 . S
C282 C283 1.390 . S
C283 C282 1.390 . S
C283 C284 1.394 1_455 S
C283 C289 1.465 . S
C284 C279 1.399 . S
C284 C283 1.394 1_655 S
C284 C285 1.516 . S
C285 C284 1.516 . S
C285 C286 1.502 1_655 S
C285 C287 1.561 . S
C285 C288 1.526 . S
C286 H270 0.959 . S
C286 H271 0.961 . S
C286 H272 0.961 . S
C286 C285 1.502 1_455 S
C287 H273 0.960 . S
C287 H274 0.961 . S
C287 H275 0.959 . S
C287 C285 1.561 . S
C288 C285 1.526 . S
C288 C289 1.396 1_655 S
C288 C293 1.390 . S
C289 C283 1.465 . S
C289 C288 1.396 1_455 S
C289 C290 1.399 . S
C290 H276 0.929 . S
C290 C289 1.399 . S
C290 C291 1.385 . S
C291 H277 0.931 . S
C291 C290 1.385 . S
C291 C292 1.389 . S
C292 C291 1.389 . S
C292 C293 1.387 1_455 S
C293 H278 0.930 . S
C293 C288 1.390 . S
C293 C292 1.387 1_655 S
H294 C306 0.930 . S
H295 C308 0.930 . S
H296 C309 0.930 . S
H297 C313 0.959 . S
H298 C313 0.959 . S
H299 C313 0.961 . S
H300 C314 0.960 . S
H301 C314 0.961 . S
H302 C314 0.959 . S
H303 C317 0.929 . S
H304 C318 0.931 . S
H305 C320 0.930 . S
C306 H294 0.930 . S
C306 C307 1.399 1_545 S
C306 C311 1.399 . S
C307 C306 1.399 1_565 S
C307 C308 1.376 . S
C308 H295 0.930 . S
C308 C307 1.376 . S
C308 C309 1.388 . S
C309 H296 0.930 . S
C309 C308 1.388 . S
C309 C310 1.390 . S
C310 C309 1.390 . S
C310 C311 1.394 1_565 S
C310 C316 1.465 . S
C311 C306 1.399 . S
C311 C310 1.394 1_545 S
C311 C312 1.516 . S
C312 C311 1.516 . S
C312 C313 1.502 . S
C312 C314 1.561 . S
C312 C315 1.526 . S
C313 H297 0.959 . S
C313 H298 0.959 . S
C313 H299 0.961 . S
C313 C312 1.502 . S
C314 H300 0.960 . S
C314 H301 0.961 . S
C314 H302 0.959 . S
C314 C312 1.561 . S
C315 C312 1.526 . S
C315 C316 1.396 1_545 S
C315 C320 1.390 . S
C316 C310 1.465 . S
C316 C315 1.396 1_565 S
C316 C317 1.399 . S
C317 H303 0.929 . S
C317 C316 1.399 . S
C317 C318 1.385 . S
C318 H304 0.931 . S
C318 C317 1.385 . S
C318 C319 1.389 . S
C319 C318 1.389 . S
C319 C320 1.387 1_565 S
C320 H305 0.930 . S
C320 C315 1.390 . S
C320 C319 1.387 1_545 S
H321 C333 0.930 . S
H322 C335 0.930 . S
H323 C336 0.930 . S
H324 C340 0.959 . S
H325 C340 0.959 . S
H326 C340 0.961 . S
H327 C341 0.960 . S
H328 C341 0.961 . S
H329 C341 0.959 . S
H330 C344 0.929 . S
H331 C345 0.931 . S
H332 C347 0.930 . S
C333 H321 0.930 . S
C333 C334 1.399 . S
C333 C338 1.399 . S
C334 C333 1.399 . S
C334 C335 1.376 . S
C335 H322 0.930 . S
C335 C334 1.376 . S
C335 C336 1.388 . S
C336 H323 0.930 . S
C336 C335 1.388 . S
C336 C337 1.390 . S
C337 C336 1.390 . S
C337 C338 1.394 . S
C337 C343 1.465 . S
C338 C333 1.399 . S
C338 C337 1.394 . S
C338 C339 1.516 . S
C339 C338 1.516 . S
C339 C340 1.502 . S
C339 C341 1.561 . S
C339 C342 1.526 . S
C340 H324 0.959 . S
C340 H325 0.959 . S
C340 H326 0.961 . S
C340 C339 1.502 . S
C341 H327 0.960 . S
C341 H328 0.961 . S
C341 H329 0.959 . S
C341 C339 1.561 . S
C342 C339 1.526 . S
C342 C343 1.396 . S
C342 C347 1.390 . S
C343 C337 1.465 . S
C343 C342 1.396 . S
C343 C344 1.399 . S
C344 H330 0.929 . S
C344 C343 1.399 . S
C344 C345 1.385 . S
C345 H331 0.931 . S
C345 C344 1.385 . S
C345 C346 1.389 . S
C346 C345 1.389 . S
C346 C347 1.387 . S
C347 H332 0.930 . S
C347 C342 1.390 . S
C347 C346 1.387 . S
H348 C360 0.930 . S
H349 C362 0.930 . S
H350 C363 0.930 . S
H351 C367 0.959 . S
H352 C367 0.959 . S
H353 C367 0.961 . S
H354 C368 0.960 . S
H355 C368 0.961 . S
H356 C368 0.959 . S
H357 C371 0.929 . S
H358 C372 0.931 . S
H359 C374 0.930 . S
C360 H348 0.930 . S
C360 C361 1.399 1_545 S
C360 C365 1.399 . S
C361 C360 1.399 1_565 S
C361 C362 1.376 . S
C362 H349 0.930 . S
C362 C361 1.376 . S
C362 C363 1.388 . S
C363 H350 0.930 . S
C363 C362 1.388 . S
C363 C364 1.390 . S
C364 C363 1.390 . S
C364 C365 1.394 1_565 S
C364 C370 1.465 . S
C365 C360 1.399 . S
C365 C364 1.394 1_545 S
C365 C366 1.516 . S
C366 C365 1.516 . S
C366 C367 1.502 . S
C366 C368 1.561 . S
C366 C369 1.526 . S
C367 H351 0.959 . S
C367 H352 0.959 . S
C367 H353 0.961 . S
C367 C366 1.502 . S
C368 H354 0.960 . S
C368 H355 0.961 . S
C368 H356 0.959 . S
C368 C366 1.561 . S
C369 C366 1.526 . S
C369 C370 1.396 1_545 S
C369 C374 1.390 . S
C370 C364 1.465 . S
C370 C369 1.396 1_565 S
C370 C371 1.399 . S
C371 H357 0.929 . S
C371 C370 1.399 . S
C371 C372 1.385 . S
C372 H358 0.931 . S
C372 C371 1.385 . S
C372 C373 1.389 . S
C373 C372 1.389 . S
C373 C374 1.387 1_565 S
C374 H359 0.930 . S
C374 C369 1.390 . S
C374 C373 1.387 1_545 S
H375 C387 0.930 1_556 S
H376 C389 0.930 . S
H377 C390 0.930 . S
H378 C394 0.959 . S
H379 C394 0.959 . S
H380 C394 0.961 . S
H381 C395 0.960 . S
H382 C395 0.961 . S
H383 C395 0.959 . S
H384 C398 0.923 1_554 S
H385 C399 0.931 . S
H386 C401 0.930 . S
C387 H375 0.930 1_554 S
C387 C388 1.399 . S
C387 C392 1.399 1_554 S
C388 C387 1.399 . S
C388 C389 1.376 . S
C389 H376 0.930 . S
C389 C388 1.376 . S
C389 C390 1.388 . S
C390 H377 0.930 . S
C390 C389 1.388 . S
C390 C391 1.390 . S
C391 C390 1.390 . S
C391 C392 1.394 1_554 S
C391 C397 1.465 1_554 S
C392 C387 1.399 1_556 S
C392 C391 1.394 1_556 S
C392 C393 1.516 . S
C393 C392 1.516 . S
C393 C394 1.502 . S
C393 C395 1.561 . S
C393 C396 1.526 . S
C394 H378 0.959 . S
C394 H379 0.959 . S
C394 H380 0.961 . S
C394 C393 1.502 . S
C395 H381 0.960 . S
C395 H382 0.961 . S
C395 H383 0.959 . S
C395 C393 1.561 . S
C396 C393 1.526 . S
C396 C397 1.396 . S
C396 C401 1.390 . S
C397 C391 1.465 1_556 S
C397 C396 1.396 . S
C397 C398 1.400 . S
C398 H384 0.923 1_556 S
C398 C397 1.400 . S
C398 C399 1.390 . S
C399 H385 0.931 . S
C399 C398 1.390 . S
C399 C400 1.389 . S
C400 C399 1.389 . S
C400 C401 1.387 . S
C401 H386 0.930 . S
C401 C396 1.390 . S
C401 C400 1.387 . S
H402 C414 0.930 . S
H403 C416 0.930 . S
H404 C417 0.930 . S
H405 C421 0.959 . S
H406 C421 0.959 . S
H407 C421 0.961 . S
H408 C422 0.960 . S
H409 C422 0.961 . S
H410 C422 0.959 . S
H411 C425 0.929 . S
H412 C426 0.931 . S
H413 C428 0.930 . S
C414 H402 0.930 . S
C414 C415 1.399 . S
C414 C419 1.399 . S
C415 C414 1.399 . S
C415 C416 1.376 1_455 S
C416 H403 0.930 . S
C416 C415 1.376 1_655 S
C416 C417 1.388 . S
C417 H404 0.930 . S
C417 C416 1.388 . S
C417 C418 1.390 . S
C418 C417 1.390 . S
C418 C419 1.394 1_655 S
C418 C424 1.465 . S
C419 C414 1.399 . S
C419 C418 1.394 1_455 S
C419 C420 1.516 . S
C420 C419 1.516 . S
C420 C421 1.502 . S
C420 C422 1.561 1_455 S
C420 C423 1.526 . S
C421 H405 0.959 . S
C421 H406 0.959 . S
C421 H407 0.961 . S
C421 C420 1.502 . S
C422 H408 0.960 . S
C422 H409 0.961 . S
C422 H410 0.959 . S
C422 C420 1.561 1_655 S
C423 C420 1.526 . S
C423 C424 1.396 1_455 S
C423 C428 1.390 . S
C424 C418 1.465 . S
C424 C423 1.396 1_655 S
C424 C425 1.399 . S
C425 H411 0.929 . S
C425 C424 1.399 . S
C425 C426 1.385 . S
C426 H412 0.931 . S
C426 C425 1.385 . S
C426 C427 1.382 1_655 S
C427 C426 1.382 1_455 S
C427 C428 1.387 . S
C428 H413 0.930 . S
C428 C423 1.390 . S
C428 C427 1.387 . S
H429 C441 0.930 . S
H430 C443 0.930 . S
H431 C444 0.930 . S
H432 C448 0.959 . S
H433 C448 0.959 . S
H434 C448 0.961 . S
H435 C449 0.960 . S
H436 C449 0.961 . S
H437 C449 0.959 . S
H438 C452 0.929 . S
H439 C453 0.931 . S
H440 C455 0.930 . S
C441 H429 0.930 . S
C441 C442 1.399 . S
C441 C446 1.399 . S
C442 C441 1.399 . S
C442 C443 1.376 1_545 S
C443 H430 0.930 . S
C443 C442 1.376 1_565 S
C443 C444 1.388 . S
C444 H431 0.930 . S
C444 C443 1.388 . S
C444 C445 1.390 . S
C445 C444 1.390 . S
C445 C446 1.394 1_565 S
C445 C451 1.465 . S
C446 C441 1.399 . S
C446 C445 1.394 1_545 S
C446 C447 1.516 . S
C447 C446 1.516 . S
C447 C448 1.502 . S
C447 C449 1.561 . S
C447 C450 1.526 . S
C448 H432 0.959 . S
C448 H433 0.959 . S
C448 H434 0.961 . S
C448 C447 1.502 . S
C449 H435 0.960 . S
C449 H436 0.961 . S
C449 H437 0.959 . S
C449 C447 1.561 . S
C450 C447 1.526 . S
C450 C451 1.396 1_545 S
C450 C455 1.390 . S
C451 C445 1.465 . S
C451 C450 1.396 1_565 S
C451 C452 1.399 . S
C452 H438 0.929 . S
C452 C451 1.399 . S
C452 C453 1.385 . S
C453 H439 0.931 . S
C453 C452 1.385 . S
C453 C454 1.389 . S
C454 C453 1.389 . S
C454 C455 1.387 1_565 S
C455 H440 0.930 . S
C455 C450 1.390 . S
C455 C454 1.387 1_545 S
H456 C468 0.930 . S
H457 C470 0.930 . S
H458 C471 0.930 . S
H459 C475 0.959 . S
H460 C475 0.959 . S
H461 C475 0.961 . S
H462 C476 0.960 1_554 S
H463 C476 0.961 . S
H464 C476 0.959 1_554 S
H465 C479 0.929 . S
H466 C480 0.931 . S
H467 C482 0.930 . S
C468 H456 0.930 . S
C468 C469 1.399 . S
C468 C473 1.426 . S
C469 C468 1.399 . S
C469 C470 1.376 . S
C470 H457 0.930 . S
C470 C469 1.376 . S
C470 C471 1.388 . S
C471 H458 0.930 . S
C471 C470 1.388 . S
C471 C472 1.390 . S
C472 C471 1.390 . S
C472 C473 1.405 . S
C472 C478 1.465 1_554 S
C473 C468 1.426 . S
C473 C472 1.405 . S
C473 C474 1.480 1_554 S
C474 C473 1.480 1_556 S
C474 C475 1.502 . S
C474 C476 1.561 . S
C474 C477 1.526 . S
C475 H459 0.959 . S
C475 H460 0.959 . S
C475 H461 0.961 . S
C475 C474 1.502 . S
C476 H462 0.960 1_556 S
C476 H463 0.961 . S
C476 H464 0.959 1_556 S
C476 C474 1.561 . S
C477 C474 1.526 . S
C477 C478 1.396 . S
C477 C482 1.390 . S
C478 C472 1.465 1_556 S
C478 C477 1.396 . S
C478 C479 1.399 . S
C479 H465 0.929 . S
C479 C478 1.399 . S
C479 C480 1.385 . S
C480 H466 0.931 . S
C480 C479 1.385 . S
C480 C481 1.389 . S
C481 C480 1.389 . S
C481 C482 1.387 . S
C482 H467 0.930 . S
C482 C477 1.390 . S
C482 C481 1.387 . S
H483 C495 0.930 . S
H484 C497 0.930 . S
H485 C498 0.930 . S
H486 C502 0.959 . S
H487 C502 0.959 . S
H488 C502 0.961 . S
H489 C503 0.960 . S
H490 C503 0.961 . S
H491 C503 0.959 . S
H492 C506 0.929 . S
H493 C507 0.931 . S
H494 C509 0.930 . S
C495 H483 0.930 . S
C495 C496 1.399 1_455 S
C495 C500 1.399 . S
C496 C495 1.399 1_655 S
C496 C497 1.376 . S
C497 H484 0.930 . S
C497 C496 1.376 . S
C497 C498 1.388 . S
C498 H485 0.930 . S
C498 C497 1.388 . S
C498 C499 1.390 . S
C499 C498 1.390 . S
C499 C500 1.394 1_655 S
C499 C505 1.465 . S
C500 C495 1.399 . S
C500 C499 1.394 1_455 S
C500 C501 1.516 . S
C501 C500 1.516 . S
C501 C502 1.502 . S
C501 C503 1.561 . S
C501 C504 1.526 . S
C502 H486 0.959 . S
C502 H487 0.959 . S
C502 H488 0.961 . S
C502 C501 1.502 . S
C503 H489 0.960 . S
C503 H490 0.961 . S
C503 H491 0.959 . S
C503 C501 1.561 . S
C504 C501 1.526 . S
C504 C505 1.396 1_455 S
C504 C509 1.390 . S
C505 C499 1.465 . S
C505 C504 1.396 1_655 S
C505 C506 1.399 . S
C506 H492 0.929 . S
C506 C505 1.399 . S
C506 C507 1.385 . S
C507 H493 0.931 . S
C507 C506 1.385 . S
C507 C508 1.389 . S
C508 C507 1.389 . S
C508 C509 1.387 1_655 S
C509 H494 0.930 . S
C509 C504 1.390 . S
C509 C508 1.387 1_455 S
C211 C63 1.491 1_655 S
C199 C6 1.466 . S
C226 C22 1.591 . S
C238 C111 1.614 . S
C253 C34 1.239 . S
C265 C183 1.260 . S
C280 C7 1.455 1_655 S
C292 C87 1.480 . S
C319 C135 1.624 1_565 S
C307 C23 1.585 . S
C334 C35 1.254 . S
C346 C159 1.271 . S
C373 C120 1.603 . S
C361 C36 1.594 . S
C388 C9 1.787 . S
C400 C174 1.850 . S
C427 C78 1.494 1_455 S
C415 C21 1.461 1_455 S
C454 C126 1.612 . S
C442 C37 1.606 . S
C481 C168 1.847 . S
C469 C8 1.813 . S
C496 C20 1.481 1_655 S
C508 C72 1.469 . S
