# Generated by pormake.
# Topology zzz, (3,6)-cn, num edge types: 1
# Building blocks:
#     Node 0, Type 0, BuildingBlock: VETTIZ_charged_linker_0, # of connection points: 3
#     Node 1, Type 0, BuildingBlock: VETTIZ_charged_linker_0, # of connection points: 3
#     Node 2, Type 0, BuildingBlock: VETTIZ_charged_linker_0, # of connection points: 3
#     Node 3, Type 0, BuildingBlock: VETTIZ_charged_linker_0, # of connection points: 3
#     Node 4, Type 0, BuildingBlock: VETTIZ_charged_linker_0, # of connection points: 3
#     Node 5, Type 0, BuildingBlock: VETTIZ_charged_linker_0, # of connection points: 3
#     Node 6, Type 0, BuildingBlock: VETTIZ_charged_linker_0, # of connection points: 3
#     Node 7, Type 0, BuildingBlock: VETTIZ_charged_linker_0, # of connection points: 3
#     Node 8, Type 1, BuildingBlock: KUMBUR_clean_sbu_0, # of connection points: 6
#     Node 9, Type 1, BuildingBlock: KUMBUR_clean_sbu_0, # of connection points: 6
#     Node 10, Type 1, BuildingBlock: KUMBUR_clean_sbu_0, # of connection points: 6
#     Node 11, Type 1, BuildingBlock: KUMBUR_clean_sbu_0, # of connection points: 6
#     Edge 12, Type (0, 1), BuildingBlock: TEMPAE_clean_linker_10, # of connection points: 2
#     Edge 13, Type (0, 1), BuildingBlock: TEMPAE_clean_linker_10, # of connection points: 2
#     Edge 14, Type (0, 1), BuildingBlock: TEMPAE_clean_linker_10, # of connection points: 2
#     Edge 15, Type (0, 1), BuildingBlock: TEMPAE_clean_linker_10, # of connection points: 2
#     Edge 16, Type (0, 1), BuildingBlock: TEMPAE_clean_linker_10, # of connection points: 2
#     Edge 17, Type (0, 1), BuildingBlock: TEMPAE_clean_linker_10, # of connection points: 2
#     Edge 18, Type (0, 1), BuildingBlock: TEMPAE_clean_linker_10, # of connection points: 2
#     Edge 19, Type (0, 1), BuildingBlock: TEMPAE_clean_linker_10, # of connection points: 2
#     Edge 20, Type (0, 1), BuildingBlock: TEMPAE_clean_linker_10, # of connection points: 2
#     Edge 21, Type (0, 1), BuildingBlock: TEMPAE_clean_linker_10, # of connection points: 2
#     Edge 22, Type (0, 1), BuildingBlock: TEMPAE_clean_linker_10, # of connection points: 2
#     Edge 23, Type (0, 1), BuildingBlock: TEMPAE_clean_linker_10, # of connection points: 2
#     Edge 24, Type (0, 1), BuildingBlock: TEMPAE_clean_linker_10, # of connection points: 2
#     Edge 25, Type (0, 1), BuildingBlock: TEMPAE_clean_linker_10, # of connection points: 2
#     Edge 26, Type (0, 1), BuildingBlock: TEMPAE_clean_linker_10, # of connection points: 2
#     Edge 27, Type (0, 1), BuildingBlock: TEMPAE_clean_linker_10, # of connection points: 2
#     Edge 28, Type (0, 1), BuildingBlock: TEMPAE_clean_linker_10, # of connection points: 2
#     Edge 29, Type (0, 1), BuildingBlock: TEMPAE_clean_linker_10, # of connection points: 2
#     Edge 30, Type (0, 1), BuildingBlock: TEMPAE_clean_linker_10, # of connection points: 2
#     Edge 31, Type (0, 1), BuildingBlock: TEMPAE_clean_linker_10, # of connection points: 2
#     Edge 32, Type (0, 1), BuildingBlock: TEMPAE_clean_linker_10, # of connection points: 2
#     Edge 33, Type (0, 1), BuildingBlock: TEMPAE_clean_linker_10, # of connection points: 2
#     Edge 34, Type (0, 1), BuildingBlock: TEMPAE_clean_linker_10, # of connection points: 2
#     Edge 35, Type (0, 1), BuildingBlock: TEMPAE_clean_linker_10, # of connection points: 2
# Relax obj value: 0.303
# Max RMSD: 0.229
# Mean RMSD: 0.215
data_MOF--net-zzz--node1-KUMBUR_clean_sbu_0--node2-VETTIZ_charged_linker_0--edge1-TEMPAE_clean_linker_10
_symmetry_space_group_name_H-M    P1
_symmetry_Int_Tables_number       1
_symmetry_cell_setting            triclinic
loop_
_symmetry_equiv_pos_as_xyz
'x, y, z'
_cell_length_a     57.232305
_cell_length_b     57.146366
_cell_length_c     20.114518
_cell_angle_alpha  90.492477
_cell_angle_beta   90.157964
_cell_angle_gamma 89.954683
loop_
_atom_site_label
_atom_site_type_symbol
_atom_site_fract_x
_atom_site_fract_y
_atom_site_fract_z
_atom_type_partial_charge
C0 C 0.80348 0.54686 0.27274 0.0
C1 C 0.82531 0.55583 0.29652 0.0
C2 C 0.83521 0.57483 0.26283 0.0
C3 C 0.80327 0.57554 0.18348 0.0
C4 C 0.7925 0.5574 0.21633 0.0
C5 C 0.76898 0.55172 0.18308 0.0
H6 H 0.69072 0.58112 0.93059 0.0
C7 C 0.78875 0.58259 0.12603 0.0
C8 C 0.76797 0.56933 0.12539 0.0
H9 H 0.68119 0.52546 0.07085 0.0
H10 H 0.71877 0.53517 0.12374 0.0
H11 H 0.71507 0.62062 0.0274 0.0
H12 H 0.73808 0.56616 0.89587 0.0
H13 H 0.76136 0.58595 0.89582 0.0
H14 H 0.73301 0.59514 0.86622 0.0
H15 H 0.71182 0.62064 0.93855 0.0
H16 H 0.73774 0.63208 0.97813 0.0
C17 C 0.74926 0.55602 0.23359 0.0
C18 C 0.76962 0.52628 0.15731 0.0
C19 C 0.82669 0.63222 0.94993 0.0
C20 C 0.8198 0.63732 0.88449 0.0
C21 C 0.79583 0.63633 0.86838 0.0
C22 C 0.77964 0.62724 0.91367 0.0
C23 C 0.7876 0.61864 0.97513 0.0
C24 C 0.81051 0.62241 0.99368 0.0
C25 C 0.81623 0.61157 0.05953 0.0
C26 C 0.79355 0.59876 0.07457 0.0
C27 C 0.77687 0.60303 0.02522 0.0
C28 C 0.82103 0.6318 0.10989 0.0
C29 C 0.83699 0.59438 0.04908 0.0
C30 C 0.69639 0.57129 0.97358 0.0
C31 C 0.68267 0.55291 0.99723 0.0
C32 C 0.6913 0.53994 0.05188 0.0
C33 C 0.71309 0.54557 0.0825 0.0
C34 C 0.72677 0.56401 0.05733 0.0
C35 C 0.71818 0.57617 1.00296 0.0
C36 C 0.73547 0.5932 0.97615 0.0
C37 C 0.75539 0.59066 0.02528 0.0
C38 C 0.75067 0.57359 0.07408 0.0
C39 C 0.72454 0.618 0.97965 0.0
C40 C 0.74233 0.58493 0.90484 0.0
H41 H 0.83345 0.59881 0.18493 0.0
H42 H 0.79517 0.5324 0.29772 0.0
H43 H 0.78547 0.52327 0.12653 0.0
H44 H 0.75437 0.52207 0.12573 0.0
H45 H 0.77004 0.51382 0.19941 0.0
H46 H 0.75063 0.57394 0.25524 0.0
H47 H 0.75032 0.54325 0.27487 0.0
H48 H 0.73181 0.55454 0.21044 0.0
H49 H 0.84495 0.6328 0.96413 0.0
H50 H 0.78997 0.64054 0.81863 0.0
H51 H 0.76187 0.62582 0.89723 0.0
H52 H 0.814 0.64885 0.09244 0.0
H53 H 0.84006 0.63424 0.11846 0.0
H54 H 0.81228 0.6289 0.15826 0.0
H55 H 0.83484 0.58441 1.0017 0.0
H56 H 0.83847 0.5809 0.08765 0.0
H57 H 0.85387 0.60392 0.04681 0.0
H58 H 0.85186 0.58202 0.27867 0.0
C59 C 0.82441 0.58466 0.20765 0.0
C60 C 0.90401 0.78857 0.87624 0.0
C61 C 0.90327 0.8124 0.85978 0.0
C62 C 0.90437 0.82914 0.91163 0.0
C63 C 0.91518 0.79885 0.98908 0.0
C64 C 0.91045 0.78214 0.94096 0.0
C65 C 0.91685 0.75791 0.96328 0.0
H66 H 0.9975 0.69415 0.06226 0.0
C67 C 0.92743 0.78735 0.0448 0.0
C68 C 0.92722 0.76323 0.03235 0.0
H69 H 0.92906 0.67238 0.99069 0.0
H70 H 0.91268 0.70866 0.03361 0.0
H71 H 0.99654 0.75497 0.03346 0.0
H72 H 0.96717 0.72777 0.21655 0.0
H73 H 0.99432 0.74396 0.21657 0.0
H74 H 0.99386 0.71454 0.18729 0.0
H75 H 0.01456 0.73632 0.08424 0.0
H76 H 1.00666 0.76516 0.1135 0.0
C77 C 0.93537 0.74774 0.91486 0.0
C78 C 0.89436 0.74287 0.96495 0.0
C79 C 0.96853 0.8399 0.21104 0.0
C80 C 0.97896 0.83653 0.27383 0.0
C81 C 0.98444 0.81287 0.29038 0.0
C82 C 0.9792 0.79373 0.24626 0.0
C83 C 0.96847 0.79792 0.18426 0.0
C84 C 0.96241 0.82081 0.17006 0.0
C85 C 0.94598 0.82242 0.1123 0.0
C86 C 0.94222 0.79681 0.0952 0.0
C87 C 0.95681 0.78213 0.13341 0.0
C88 C 0.95902 0.83567 0.05657 0.0
C89 C 0.923 0.83431 0.13634 0.0
C90 C 0.97913 0.69743 0.05347 0.0
C91 C 0.96502 0.68041 0.01867 0.0
C92 C 0.94077 0.68491 0.01386 0.0
C93 C 0.93127 0.70615 0.03543 0.0
C94 C 0.94607 0.72371 0.05887 0.0
C95 C 0.96871 0.71889 0.07605 0.0
C96 C 0.97833 0.73953 0.11808 0.0
C97 C 0.95792 0.75749 0.11596 0.0
C98 C 0.94084 0.74823 0.07265 0.0
C99 C 1.00035 0.74957 0.08536 0.0
C100 C 0.9836 0.73106 0.18886 0.0
H101 H 0.91255 0.83623 0.01201 0.0
H102 H 0.90238 0.77536 0.8376 0.0
H103 H 0.88039 0.74996 0.93227 0.0
H104 H 0.88706 0.74202 0.01602 0.0
H105 H 0.89754 0.72488 0.94591 0.0
H106 H 0.95106 0.75919 0.9134 0.0
H107 H 0.92825 0.74608 0.86365 0.0
H108 H 0.94112 0.73001 0.9288 0.0
H109 H 0.96408 0.85719 0.19379 0.0
H110 H 0.99189 0.80894 0.33846 0.0
H111 H 0.98216 0.77615 0.26304 0.0
H112 H 0.97749 0.82968 0.05297 0.0
H113 H 0.95923 0.8548 0.06684 0.0
H114 H 0.95168 0.83272 1.00658 0.0
H115 H 0.92037 0.83219 0.19075 0.0
H116 H 0.9072 0.82631 0.11382 0.0
H117 H 0.92306 0.85338 0.12602 0.0
H118 H 0.90362 0.84769 0.90115 0.0
C119 C 0.91015 0.82244 0.97626 0.0
C120 C 0.81569 0.98494 0.04306 0.0
C121 C 0.83099 0.97358 0.99692 0.0
C122 C 0.8249 0.95116 0.97357 0.0
C123 C 0.78878 0.95195 0.03592 0.0
C124 C 0.7947 0.97342 0.06306 0.0
C125 C 0.7763 0.981 0.11427 0.0
H126 H 0.66937 0.95344 0.25809 0.0
C127 C 0.76596 0.94448 0.06225 0.0
C128 C 0.75838 0.96089 0.11054 0.0
H129 H 0.71005 0.01481 0.30567 0.0
H130 H 0.7406 1.00167 0.22771 0.0
H131 H 0.6719 0.95808 0.11817 0.0
H132 H 0.71111 0.91616 0.25166 0.0
H133 H 0.70527 0.89816 0.18216 0.0
H134 H 0.6813 0.9112 0.22743 0.0
H135 H 0.66336 0.92864 0.13414 0.0
H136 H 0.68196 0.93597 0.06498 0.0
C137 C 0.76547 1.0044 0.09273 0.0
C138 C 0.78793 0.98256 0.18323 0.0
C139 C 0.7199 0.88457 0.93024 0.0
C140 C 0.69583 0.87947 0.93272 0.0
C141 C 0.68439 0.88179 0.99455 0.0
C142 C 0.69531 0.89319 0.04797 0.0
C143 C 0.71759 0.90292 0.03903 0.0
C144 C 0.73018 0.89715 0.98294 0.0
C145 C 0.75353 0.90926 0.98182 0.0
C146 C 0.75141 0.92551 0.04229 0.0
C147 C 0.73033 0.92167 0.07516 0.0
C148 C 0.75538 0.92302 0.9158 0.0
C149 C 0.77274 0.89033 0.9912 0.0
C150 C 0.68476 0.96426 0.25241 0.0
C151 C 0.68688 0.98533 0.28792 0.0
C152 C 0.70772 0.99844 0.279 0.0
C153 C 0.72541 0.99086 0.2336 0.0
C154 C 0.72236 0.96988 0.1968 0.0
C155 C 0.70212 0.95717 0.20766 0.0
C156 C 0.70007 0.9362 0.16357 0.0
C157 C 0.72277 0.93741 0.12555 0.0
C158 C 0.73631 0.95717 0.14391 0.0
C159 C 0.67824 0.93966 0.11802 0.0
C160 C 0.69921 0.91418 0.20812 0.0
H161 H 0.80094 0.92342 0.97258 0.0
H162 H 0.8201 1.00196 0.0634 0.0
H163 H 0.79734 0.96602 0.19449 0.0
H164 H 0.77501 0.98537 0.22314 0.0
H165 H 0.80076 0.99714 0.1851 0.0
H166 H 0.75885 1.00308 0.0408 0.0
H167 H 0.77867 0.01864 0.09502 0.0
H168 H 0.75058 0.00948 0.12455 0.0
H169 H 0.72963 0.88171 0.88485 0.0
H170 H 0.66608 0.87748 0.99985 0.0
H171 H 0.68513 0.89574 0.092 0.0
H172 H 0.73894 0.93286 0.90617 0.0
H173 H 0.75841 0.91098 0.87305 0.0
H174 H 0.76943 0.93614 0.9156 0.0
H175 H 0.76547 0.87322 1.00714 0.0
H176 H 0.78537 0.89531 0.03088 0.0
H177 H 0.78244 0.88701 0.94429 0.0
H178 H 0.8361 0.94193 0.93874 0.0
C179 C 0.80428 0.94036 0.9931 0.0
C180 C 0.54906 0.71438 0.25446 0.0
C181 C 0.55745 0.69216 0.27522 0.0
C182 C 0.57795 0.68331 0.24606 0.0
C183 C 0.57984 0.71618 0.17117 0.0
C184 C 0.56076 0.72623 0.20215 0.0
C185 C 0.55503 0.74983 0.17094 0.0
H186 H 0.58273 0.82989 0.92683 0.0
C187 C 0.58724 0.73114 0.11553 0.0
C188 C 0.57337 0.75153 0.11544 0.0
H189 H 0.52748 0.8371 0.07053 0.0
H190 H 0.53817 0.79939 0.11913 0.0
H191 H 0.62308 0.8062 0.02153 0.0
H192 H 0.56999 0.78253 0.88743 0.0
H193 H 0.58992 0.75928 0.88724 0.0
H194 H 0.59906 0.78774 0.85891 0.0
H195 H 0.62296 0.81019 0.93304 0.0
H196 H 0.63537 0.78433 0.96979 0.0
C197 C 0.55835 0.76911 0.22413 0.0
C198 C 0.52998 0.74885 0.14268 0.0
C199 C 0.63668 0.6945 0.93484 0.0
C200 C 0.64147 0.70189 0.86975 0.0
C201 C 0.64054 0.72604 0.85611 0.0
C202 C 0.63162 0.7419 0.90331 0.0
C203 C 0.62319 0.73345 0.96424 0.0
C204 C 0.62706 0.71037 0.98063 0.0
C205 C 0.61644 0.70419 0.04649 0.0
C206 C 0.60358 0.72679 0.06381 0.0
C207 C 0.60759 0.74379 0.01548 0.0
C208 C 0.63668 0.69903 0.09587 0.0
C209 C 0.59935 0.68343 0.0351 0.0
C210 C 0.57316 0.82356 0.96948 0.0
C211 C 0.55457 0.83661 0.99551 0.0
C212 C 0.54203 0.82739 0.04983 0.0
C213 C 0.54828 0.80555 0.07797 0.0
C214 C 0.56697 0.79256 0.05069 0.0
C215 C 0.57878 0.80175 0.99673 0.0
C216 C 0.59651 0.7852 0.96869 0.0
C217 C 0.59466 0.76499 0.01666 0.0
C218 C 0.57736 0.76903 0.06552 0.0
C219 C 0.62083 0.79703 0.97291 0.0
C220 C 0.5887 0.77834 0.89689 0.0
H221 H 0.60442 0.68708 0.17483 0.0
H222 H 0.53357 0.7219 0.27686 0.0
H223 H 0.52751 0.73272 0.11216 0.0
H224 H 0.52607 0.76373 0.10992 0.0
H225 H 0.51693 0.7487 0.18346 0.0
H226 H 0.57557 0.76713 0.24923 0.0
H227 H 0.54451 0.76804 0.26262 0.0
H228 H 0.55806 0.78681 0.20279 0.0
H229 H 0.63736 0.67612 0.94727 0.0
H230 H 0.64462 0.73232 0.80682 0.0
H231 H 0.63014 0.75984 0.88874 0.0
H232 H 0.65384 0.70541 0.0775 0.0
H233 H 0.63857 0.67996 0.10462 0.0
H234 H 0.63418 0.70814 0.14429 0.0
H235 H 0.58839 0.68648 0.99023 0.0
H236 H 0.58693 0.6808 0.07596 0.0
H237 H 0.60902 0.66676 0.02768 0.0
H238 H 0.58508 0.66668 0.26194 0.0
C239 C 0.58921 0.69521 0.1952 0.0
C240 C 0.32668 0.48248 0.22803 0.0
C241 C 0.33324 0.48468 0.297 0.0
C242 C 0.31468 0.48531 0.34349 0.0
C243 C 0.28703 0.47288 0.26021 0.0
C244 C 0.30279 0.47771 0.21083 0.0
C245 C 0.29006 0.47691 0.14314 0.0
H246 H 0.18356 0.44908 0.99003 0.0
C247 C 0.2652 0.46436 0.23104 0.0
C248 C 0.2649 0.46965 0.16297 0.0
H249 H 0.22183 0.51166 0.94328 0.0
H250 H 0.25003 0.50282 0.03279 0.0
H251 H 0.22871 0.41305 0.03863 0.0
H252 H 0.18022 0.46225 0.12312 0.0
H253 H 0.1848 0.44191 0.18573 0.0
H254 H 0.17225 0.43235 0.10783 0.0
H255 H 0.19795 0.40774 0.04668 0.0
H256 H 0.21816 0.40089 0.11285 0.0
C257 C 0.30124 0.45818 0.09802 0.0
C258 C 0.29113 0.50114 0.1107 0.0
C259 C 0.21963 0.40616 0.36937 0.0
C260 C 0.19735 0.39617 0.35907 0.0
C261 C 0.18933 0.39391 0.29273 0.0
C262 C 0.2011 0.40488 0.24057 0.0
C263 C 0.22055 0.41905 0.25495 0.0
C264 C 0.23006 0.41882 0.318 0.0
C265 C 0.24926 0.43663 0.32643 0.0
C266 C 0.24976 0.44736 0.25717 0.0
C267 C 0.23294 0.43702 0.21594 0.0
C268 C 0.27207 0.42349 0.34337 0.0
C269 C 0.24202 0.45478 0.38078 0.0
C270 C 0.19861 0.4604 0.99614 0.0
C271 C 0.2005 0.48079 0.95823 0.0
C272 C 0.22014 0.49543 0.97022 0.0
C273 C 0.23678 0.49013 0.02097 0.0
C274 C 0.23425 0.46966 0.05899 0.0
C275 C 0.2148 0.4557 0.04694 0.0
C276 C 0.21042 0.4388 0.10205 0.0
C277 C 0.22972 0.4453 0.15032 0.0
C278 C 0.245 0.4622 0.12378 0.0
C279 C 0.21379 0.41372 0.07395 0.0
C280 C 0.18568 0.4438 0.13123 0.0
H281 H 0.27889 0.47942 0.36356 0.0
H282 H 0.33956 0.48403 0.18911 0.0
H283 H 0.27895 0.51356 0.13557 0.0
H284 H 0.2869 0.49996 0.05704 0.0
H285 H 0.30908 0.50847 0.11412 0.0
H286 H 0.30118 0.44085 0.12274 0.0
H287 H 0.3196 0.46286 0.08627 0.0
H288 H 0.29134 0.45654 0.05059 0.0
H289 H 0.22727 0.40712 0.41857 0.0
H290 H 0.17265 0.38593 0.28132 0.0
H291 H 0.19327 0.40367 0.19216 0.0
H292 H 0.27691 0.41124 0.30241 0.0
H293 H 0.2699 0.41317 0.38952 0.0
H294 H 0.2869 0.43546 0.35201 0.0
H295 H 0.22448 0.45133 0.40216 0.0
H296 H 0.24076 0.47274 0.36036 0.0
H297 H 0.2545 0.4549 0.42318 0.0
H298 H 0.31744 0.49039 0.39478 0.0
C299 C 0.29201 0.47905 0.32576 0.0
C300 C 0.13091 0.22929 0.33312 0.0
C301 C 0.13603 0.20521 0.3274 0.0
C302 C 0.1354 0.19486 0.26345 0.0
C303 C 0.11574 0.22903 0.22068 0.0
C304 C 0.12015 0.24069 0.27955 0.0
C305 C 0.10929 0.26471 0.28036 0.0
H306 H 0.02037 0.33502 0.19613 0.0
C307 C 0.09814 0.24257 0.18308 0.0
C308 C 0.09434 0.26363 0.21703 0.0
H309 H 0.0813 0.34967 0.31786 0.0
H310 H 0.0984 0.31363 0.2832 0.0
H311 H 0.05552 0.30956 0.06253 0.0
H312 H 0.01764 0.27281 0.21736 0.0
H313 H 0.01091 0.26512 0.13299 0.0
H314 H 1.00257 0.29336 0.165 0.0
H315 H 0.02475 0.31481 0.07406 0.0
H316 H 0.03471 0.28805 0.03607 0.0
C317 C 0.12943 0.28287 0.2757 0.0
C318 C 0.09422 0.26733 0.34395 0.0
C319 C 0.05637 0.19697 1.00379 0.0
C320 C 0.03531 0.19864 0.96859 0.0
C321 C 0.02207 0.21953 0.97791 0.0
C322 C 0.02953 0.23758 0.02331 0.0
C323 C 0.0505 0.23488 0.05994 0.0
C324 C 0.06326 0.21457 0.04872 0.0
C325 C 0.084 0.21254 0.09301 0.0
C326 C 0.08268 0.23531 0.1317 0.0
C327 C 0.06311 0.24907 0.11339 0.0
C328 C 0.10615 0.21169 0.04868 0.0
C329 C 0.0804 0.19063 0.13778 0.0
C330 C 0.03727 0.33012 0.2159 0.0
C331 C 0.04924 0.34542 0.26159 0.0
C332 C 0.07152 0.33861 0.28372 0.0
C333 C 0.08147 0.31741 0.26405 0.0
C334 C 0.0692 0.30195 0.22241 0.0
C335 C 0.04801 0.30849 0.19557 0.0
C336 C 0.03999 0.28994 0.14428 0.0
C337 C 0.05964 0.27138 0.14746 0.0
C338 C 0.07599 0.2787 0.19626 0.0
C339 C 0.0386 0.30117 0.07521 0.0
C340 C 0.0164 0.2797 0.16594 0.0
H341 H 0.12443 0.19754 0.16357 0.0
H342 H 0.13266 0.23819 0.38055 0.0
H343 H 0.08224 0.25213 0.34893 0.0
H344 H 0.08322 0.28313 0.34425 0.0
H345 H 0.1054 0.26827 0.3891 0.0
H346 H 0.14685 0.27457 0.26851 0.0
H347 H 0.13078 0.29366 0.32176 0.0
H348 H 0.1271 0.29463 0.23249 0.0
H349 H 0.06734 0.18162 0.99806 0.0
H350 H 1.00568 0.22163 0.95163 0.0
H351 H 0.01864 0.25279 0.0296 0.0
H352 H 0.10424 0.22346 1.00518 0.0
H353 H 0.10935 0.19371 0.02931 0.0
H354 H 0.12199 0.21797 0.07491 0.0
H355 H 0.06239 0.18339 0.13434 0.0
H356 H 0.08259 0.19468 0.19138 0.0
H357 H 0.09242 0.17616 0.12371 0.0
H358 H 0.13984 0.17662 0.25588 0.0
C359 C 0.12562 0.20684 0.20986 0.0
C360 C 0.31071 0.03854 0.98417 0.0
C361 C 0.33536 0.03453 0.99064 0.0
C362 C 0.34436 0.03095 0.05513 0.0
C363 C 0.30817 0.04369 0.10365 0.0
C364 C 0.29709 0.04213 0.04309 0.0
C365 C 0.2708 0.0465 0.05325 0.0
H366 H 0.18739 0.0842 0.28096 0.0
C367 C 0.29231 0.05382 0.15295 0.0
C368 C 0.2694 0.05204 0.12871 0.0
H369 H 0.18119 0.01806 0.17788 0.0
H370 H 0.22074 0.0233 0.13127 0.0
H371 H 0.23243 0.06887 0.33746 0.0
H372 H 0.22327 0.11511 0.17046 0.0
H373 H 0.24483 0.1267 0.22418 0.0
H374 H 0.21528 0.12332 0.25377 0.0
H375 H 0.22158 0.09819 0.34746 0.0
H376 H 0.25231 0.09196 0.346 0.0
C377 C 0.25691 0.02451 0.0337 0.0
C378 C 0.26286 0.06765 0.01209 0.0
C379 C 0.33112 0.11332 0.3037 0.0
C380 C 0.32287 0.13009 0.34957 0.0
C381 C 0.29869 0.13491 0.35092 0.0
C382 C 0.28309 0.12222 0.30995 0.0
C383 C 0.2917 0.10389 0.26944 0.0
C384 C 0.31546 0.10023 0.26565 0.0
C385 C 0.32181 0.07881 0.22597 0.0
C386 C 0.29788 0.07121 0.20118 0.0
C387 C 0.28029 0.08549 0.22823 0.0
C388 C 0.33208 0.06057 0.27449 0.0
C389 C 0.33894 0.08575 0.16976 0.0
C390 C 0.19372 0.07149 0.24501 0.0
C391 C 0.18056 0.05128 0.23103 0.0
C392 C 0.19051 0.03419 0.18793 0.0
C393 C 0.21298 0.0374 0.1595 0.0
C394 C 0.22569 0.05789 0.17392 0.0
C395 C 0.21635 0.07395 0.21878 0.0
C396 C 0.23476 0.09014 0.24656 0.0
C397 C 0.25657 0.08045 0.21363 0.0
C398 C 0.25104 0.06308 0.16611 0.0
C399 C 0.23537 0.08742 0.32334 0.0
C400 C 0.2293 0.11524 0.2231 0.0
H401 H 0.33893 0.03329 0.15903 0.0
H402 H 0.30269 0.03991 0.93559 0.0
H403 H 0.27338 0.08339 0.02516 0.0
H404 H 0.24418 0.07168 0.0219 0.0
H405 H 0.26492 0.06401 0.95806 0.0
H406 H 0.26037 0.01008 0.06912 0.0
H407 H 0.26189 0.01844 0.98303 0.0
H408 H 0.23791 0.02829 0.03258 0.0
H409 H 0.34941 0.10851 0.30201 0.0
H410 H 0.29177 0.14768 0.38576 0.0
H411 H 0.26482 0.12621 0.31421 0.0
H412 H 0.32264 0.06107 0.32273 0.0
H413 H 0.35089 0.06398 0.2843 0.0
H414 H 0.32996 0.04241 0.25655 0.0
H415 H 0.3294 0.09028 0.12341 0.0
H416 H 0.35178 0.07177 0.15887 0.0
H417 H 0.34973 0.1012 0.18356 0.0
H418 H 0.36244 0.02592 0.06236 0.0
C419 C 0.33093 0.0355 0.11129 0.0
C420 C 0.48108 0.31206 0.98592 0.0
C421 C 0.4705 0.33168 0.95443 0.0
C422 C 0.44648 0.33569 0.9639 0.0
C423 C 0.44523 0.3056 0.04674 0.0
C424 C 0.46761 0.29875 0.03142 0.0
C425 C 0.47353 0.2761 0.06802 0.0
H426 H 0.43589 0.19773 0.30628 0.0
C427 C 0.43617 0.29119 0.10021 0.0
C428 C 0.45165 0.27252 0.11139 0.0
H429 H 0.50015 0.19222 0.19497 0.0
H430 H 0.4899 0.22772 0.13441 0.0
H431 H 0.44217 0.24223 0.34973 0.0
H432 H 0.40051 0.21702 0.19267 0.0
H433 H 0.38454 0.23891 0.23582 0.0
H434 H 0.3963 0.21444 0.28087 0.0
H435 H 0.4114 0.24367 0.35808 0.0
H436 H 0.42801 0.26848 0.32916 0.0
C437 C 0.49563 0.27993 0.11048 0.0
C438 C 0.47639 0.25635 0.01611 0.0
C439 C 0.38935 0.33227 0.27633 0.0
C440 C 0.38212 0.32468 0.33938 0.0
C441 C 0.37851 0.30053 0.34903 0.0
C442 C 0.38569 0.28424 0.30069 0.0
C443 C 0.3971 0.29223 0.24353 0.0
C444 C 0.39699 0.31577 0.22934 0.0
C445 C 0.40856 0.32092 0.16403 0.0
C446 C 0.41829 0.29664 0.14622 0.0
C447 C 0.41243 0.28033 0.19488 0.0
C448 C 0.42829 0.3391 0.17485 0.0
C449 C 0.38954 0.3298 0.11538 0.0
C450 C 0.44806 0.20392 0.26929 0.0
C451 C 0.469 0.19186 0.2566 0.0
C452 C 0.48375 0.20081 0.20615 0.0
C453 C 0.47784 0.22149 0.171 0.0
C454 C 0.45705 0.2336 0.18651 0.0
C455 C 0.44284 0.22467 0.23579 0.0
C456 C 0.42282 0.24046 0.25269 0.0
C457 C 0.42605 0.25968 0.20202 0.0
C458 C 0.4461 0.25585 0.1623 0.0
C459 C 0.42608 0.24919 0.32588 0.0
C460 C 0.39972 0.22704 0.24029 0.0
H461 H 0.41518 0.32462 0.01111 0.0
H462 H 0.49916 0.30764 0.97643 0.0
H463 H 0.46117 0.25597 0.98162 0.0
H464 H 0.47739 0.23894 0.0391 0.0
H465 H 0.49243 0.25907 0.98613 0.0
H466 H 0.49351 0.29559 0.14314 0.0
H467 H 0.51111 0.28273 0.07832 0.0
H468 H 0.49926 0.26489 0.143 0.0
H469 H 0.39168 0.35071 0.26654 0.0
H470 H 0.37209 0.2942 0.39618 0.0
H471 H 0.38338 0.26603 0.31107 0.0
H472 H 0.44101 0.33286 0.21266 0.0
H473 H 0.42114 0.3562 0.19178 0.0
H474 H 0.43795 0.34257 0.12845 0.0
H475 H 0.37411 0.33713 0.14188 0.0
H476 H 0.38307 0.31545 0.08257 0.0
H477 H 0.39602 0.34444 0.08462 0.0
H478 H 0.43764 0.34953 0.93721 0.0
C479 C 0.4337 0.32225 1.00844 0.0
Tb480 Tb 0.02733 1.00777 0.67375 0.0
C481 C 0.93413 1.0073 0.52792 0.0
C482 C 0.93919 0.9848 0.42699 0.0
C483 C 0.90116 0.98616 0.48015 0.0
C484 C 0.94847 0.99885 0.47867 0.0
C485 C 0.91021 1.00136 0.52902 0.0
C486 C 0.91562 0.97801 0.42886 0.0
C487 C 0.90549 0.02774 0.62225 0.0
N488 N 0.94345 0.02238 0.5729 0.0
C489 C 0.92921 0.03338 0.61831 0.0
C490 C 0.89598 0.01143 0.57789 0.0
Tb491 Tb 0.9831 0.02914 0.56642 0.0
N492 N 0.97113 1.0058 0.4788 0.0
C493 C 0.98507 1.00034 0.4257 0.0
C494 C 0.9536 0.97882 0.37364 0.0
C495 C 0.97664 0.98664 0.37295 0.0
H496 H 0.93625 0.04587 0.65351 0.0
H497 H 0.98791 0.98228 0.33152 0.0
H498 H 0.90829 0.96695 0.39008 0.0
H499 H 0.89457 0.03596 0.65963 0.0
H500 H 1.00286 1.00618 0.42323 0.0
H501 H 0.01987 0.05009 0.91605 0.0
H502 H 0.94688 0.96879 0.3319 0.0
H503 H 0.07615 0.99229 0.59261 0.0
H504 H 1.00701 0.02492 0.8253 0.0
H505 H 0.11719 1.00499 0.58894 0.0
H506 H 0.88289 0.98123 0.48035 0.0
H507 H 0.05895 0.06827 0.9132 0.0
H508 H 0.09679 0.07412 0.85406 0.0
H509 H 0.87756 1.00721 0.58073 0.0
H510 H 0.12335 0.06206 0.76417 0.0
N511 N 0.0372 0.03048 0.7648 0.0
C512 C 0.02351 0.03354 0.81998 0.0
C513 C 0.05291 0.05805 0.87107 0.0
C514 C 0.06748 0.05384 0.81678 0.0
C515 C 0.03095 0.04764 0.87301 0.0
C516 C 0.05925 0.03939 0.76449 0.0
H517 H 0.13128 0.03585 0.666 0.0
N518 N 0.06654 0.01642 0.66956 0.0
C519 C 0.10532 0.01288 0.62445 0.0
C520 C 0.07437 0.03227 0.71487 0.0
C521 C 0.082 1.0057 0.62685 0.0
C522 C 0.11317 0.03039 0.66777 0.0
C523 C 0.09784 0.03985 0.71493 0.0
O524 O 0.05013 0.9832 0.71676 0.0
O525 O 1.0023 0.99833 0.59633 0.0
O526 O 0.96687 1.00617 0.64027 0.0
O527 O 0.99323 0.01087 0.72693 0.0
O528 O 0.03446 0.98376 0.58948 0.0
O529 O 0.01309 0.97898 0.72417 0.0
O530 O 0.96529 0.06068 0.54934 0.0
O531 O 0.00887 0.0387 0.64268 0.0
O532 O 0.04398 0.03007 0.59851 0.0
O533 O 0.01705 0.02789 0.5128 0.0
O534 O 0.97741 0.05468 0.64755 0.0
O535 O 0.99306 0.04961 0.48455 0.0
C536 C 0.01421 0.98387 0.56207 0.0
C537 C 0.03501 0.94501 0.70043 0.0
C538 C 0.01626 0.90784 0.67293 0.0
C539 C 0.01601 0.92965 0.70559 0.0
C540 C 0.03586 0.90126 0.63549 0.0
C541 C 0.05461 0.93808 0.6629 0.0
C542 C 0.05495 0.91633 0.63064 0.0
C543 C 0.97171 1.00643 0.70467 0.0
C544 C 0.03328 0.96878 0.72969 0.0
C545 C 0.1055 0.05577 0.7638 0.0
C546 C 0.09037 0.06264 0.81494 0.0
C547 C 0.99751 0.05407 0.6754 0.0
C548 C 0.99378 0.08883 0.52399 0.0
C549 C 0.01737 0.09153 0.50561 0.0
C550 C 0.03096 0.10951 0.53384 0.0
C551 C 0.02077 0.12514 0.57948 0.0
C552 C 0.98374 0.10521 0.5681 0.0
C553 C 0.99721 0.12314 0.59576 0.0
C554 C 0.03861 0.03174 0.53475 0.0
C555 C 0.98074 0.0673 0.50604 0.0
H556 H 1.00074 0.93486 0.73393 0.0
H557 H 0.03656 0.8843 0.61117 0.0
H558 H 0.06952 0.94955 0.65749 0.0
H559 H 0.07004 0.91116 0.60171 0.0
H560 H 0.0254 0.07939 0.47083 0.0
H561 H 0.0309 0.13934 0.6009 0.0
H562 H 0.96566 0.10367 0.5832 0.0
H563 H 0.98934 0.13544 0.6302 0.0
Tb564 Tb 0.52385 0.03798 0.6986 0.0
C565 C 0.52389 0.94953 0.52751 0.0
C566 C 0.54184 0.95902 0.42267 0.0
C567 C 0.54447 0.9194 0.46469 0.0
C568 C 0.52953 0.9659 0.48032 0.0
C569 C 0.53098 0.926 0.51993 0.0
C570 C 0.54973 0.93585 0.41581 0.0
C571 C 0.50867 0.91671 0.61786 0.0
N572 N 0.51035 0.95643 0.57914 0.0
C573 C 0.50176 0.94013 0.6225 0.0
C574 C 0.52363 0.90966 0.56685 0.0
Tb575 Tb 0.50078 0.99552 0.58468 0.0
N576 N 0.52181 0.98822 0.48902 0.0
C577 C 0.52516 1.00425 0.43957 0.0
C578 C 0.54515 0.97539 0.37251 0.0
C579 C 0.5369 0.99812 0.38117 0.0
H580 H 0.49026 0.94544 0.66241 0.0
H581 H 0.53936 0.01092 0.34247 0.0
H582 H 0.5595 0.93038 0.3723 0.0
H583 H 0.50248 0.90414 0.65367 0.0
H584 H 0.519 0.02196 0.44352 0.0
H585 H 0.47805 0.0253 0.9314 0.0
H586 H 0.5535 0.9705 0.32624 0.0
H587 H 0.54524 0.08794 0.6421 0.0
H588 H 0.50185 0.01374 0.8366 0.0
H589 H 0.53595 0.12998 0.64824 0.0
H590 H 0.55025 0.90146 0.45822 0.0
H591 H 0.46394 0.066 0.94218 0.0
H592 H 0.46107 0.10629 0.8945 0.0
H593 H 0.52884 0.89146 0.56301 0.0
H594 H 0.47632 0.13501 0.81499 0.0
N595 N 0.50039 0.04694 0.78886 0.0
C596 C 0.49549 0.03135 0.83823 0.0
C597 C 0.47359 0.0607 0.89838 0.0
C598 C 0.47902 0.07681 0.84911 0.0
C599 C 0.48187 0.03786 0.89296 0.0
C600 C 0.49306 0.0694 0.79534 0.0
H601 H 0.50474 0.14411 0.72346 0.0
N602 N 0.51821 0.07783 0.70859 0.0
C603 C 0.52611 0.11765 0.67762 0.0
C604 C 0.5021 0.08548 0.75264 0.0
C605 C 0.53124 0.09374 0.67406 0.0
C606 C 0.50843 0.12555 0.71981 0.0
C607 C 0.49672 0.10948 0.75978 0.0
O608 O 0.55657 0.05325 0.71826 0.0
O609 O 0.5315 0.01388 0.61721 0.0
O610 O 0.52604 0.97836 0.6508 0.0
O611 O 0.52189 1.00246 0.74249 0.0
O612 O 0.54816 0.04514 0.61666 0.0
O613 O 0.5448 0.02431 0.77571 0.0
O614 O 0.47123 0.97441 0.57102 0.0
O615 O 0.49232 0.02077 0.66327 0.0
O616 O 0.50535 0.05835 0.62242 0.0
O617 O 0.49913 0.03054 0.53815 0.0
O618 O 0.4777 0.98842 0.66925 0.0
O619 O 0.47614 1.00528 0.51194 0.0
C620 C 0.54636 0.02567 0.58498 0.0
C621 C 0.58366 0.02291 0.73541 0.0
C622 C 0.60401 0.98558 0.72189 0.0
C623 C 0.58633 0.9991 0.75173 0.0
C624 C 0.61933 0.99606 0.6767 0.0
C625 C 0.59972 0.03317 0.69158 0.0
C626 C 0.61735 0.0198 0.66248 0.0
C627 C 0.52683 0.98175 0.71581 0.0
C628 C 0.56284 0.03635 0.75705 0.0
C629 C 0.48091 0.11671 0.80911 0.0
C630 C 0.47222 0.10038 0.85427 0.0
C631 C 0.47789 0.00875 0.69655 0.0
C632 C 0.43783 0.99705 0.55184 0.0
C633 C 0.43068 0.02046 0.54505 0.0
C634 C 0.40825 0.02742 0.56485 0.0
C635 C 0.39317 0.01099 0.59349 0.0
C636 C 0.42247 0.98088 0.58082 0.0
C637 C 0.40038 0.98792 0.60215 0.0
C638 C 0.49984 0.05252 0.5603 0.0
C639 C 0.4614 0.98932 0.53142 0.0
H640 H 0.57451 0.99095 0.78657 0.0
H641 H 0.63337 0.98603 0.6543 0.0
H642 H 0.5983 0.05145 0.6783 0.0
H643 H 0.6295 0.02795 0.6289 0.0
H644 H 0.44213 0.03311 0.52256 0.0
H645 H 0.37562 0.01596 0.60782 0.0
H646 H 0.4276 0.96278 0.58716 0.0
H647 H 0.38866 0.97537 0.62434 0.0
Tb648 Tb 0.53598 0.50467 0.57569 0.0
C649 C 0.44367 0.49937 0.72434 0.0
C650 C 0.41238 0.51092 0.65068 0.0
C651 C 0.40474 0.48327 0.73912 0.0
C652 C 0.43615 0.51147 0.66934 0.0
C653 C 0.42805 0.48529 0.76043 0.0
C654 C 0.39686 0.49622 0.68461 0.0
C655 C 0.45907 0.47809 0.83927 0.0
N656 N 0.46618 0.50223 0.74405 0.0
C657 C 0.47381 0.4925 0.80231 0.0
C658 C 0.43616 0.47424 0.81785 0.0
Tb659 Tb 0.48907 0.52587 0.67906 0.0
N660 N 0.45172 0.52528 0.63753 0.0
C661 C 0.44409 0.54065 0.59052 0.0
C662 C 0.40473 0.52597 0.60068 0.0
C663 C 0.4206 0.54112 0.57112 0.0
H664 H 0.49153 0.49505 0.81918 0.0
H665 H 0.41474 0.55327 0.53367 0.0
H666 H 0.37862 0.49526 0.67024 0.0
H667 H 0.46543 0.4699 0.88415 0.0
H668 H 0.45611 0.55274 0.56787 0.0
H669 H 0.60877 0.4791 0.73069 0.0
H670 H 0.38654 0.52642 0.58569 0.0
H671 H 0.53498 0.53402 0.42982 0.0
H672 H 0.56768 0.4802 0.69574 0.0
H673 H 0.56219 0.55667 0.36318 0.0
H674 H 0.3925 0.47238 0.7658 0.0
H675 H 0.63824 0.50291 0.6719 0.0
H676 H 0.64758 0.53089 0.58079 0.0
H677 H 0.42477 0.46314 0.84673 0.0
H678 H 0.63483 0.55213 0.48121 0.0
N679 N 0.57336 0.50442 0.61728 0.0
C680 C 0.5802 0.49079 0.66961 0.0
C681 C 0.62012 0.50349 0.65645 0.0
C682 C 0.61322 0.517 0.60225 0.0
C683 C 0.60357 0.49008 0.68972 0.0
C684 C 0.58952 0.51669 0.58273 0.0
H685 H 0.60315 0.56162 0.39949 0.0
N686 N 0.55983 0.52593 0.50623 0.0
C687 C 0.56815 0.54866 0.40875 0.0
C688 C 0.5825 0.52799 0.52567 0.0
C689 C 0.55271 0.53553 0.44715 0.0
C690 C 0.59123 0.55149 0.42949 0.0
C691 C 0.59878 0.54082 0.48801 0.0
O692 O 0.52764 0.48052 0.49876 0.0
O693 O 0.49838 0.50876 0.58723 0.0
O694 O 0.4877 0.48745 0.67373 0.0
O695 O 0.52715 0.48072 0.65827 0.0
O696 O 0.51108 0.51085 0.49368 0.0
O697 O 0.55551 0.47369 0.56652 0.0
O698 O 0.48509 0.54389 0.76973 0.0
O699 O 0.5264 0.52173 0.66787 0.0
O700 O 0.53837 0.54288 0.57614 0.0
O701 O 0.49977 0.55217 0.60327 0.0
O702 O 0.51436 0.52422 0.76181 0.0
O703 O 0.47612 0.56015 0.67642 0.0
C704 C 0.49211 0.51233 0.52749 0.0
C705 C 0.53175 0.44165 0.53877 0.0
C706 C 0.49864 0.41493 0.54323 0.0
C707 C 0.50883 0.43559 0.51987 0.0
C708 C 0.5116 0.39988 0.58373 0.0
C709 C 0.54466 0.42607 0.57843 0.0
C710 C 0.53461 0.40533 0.60066 0.0
C711 C 0.50622 0.47359 0.6778 0.0
C712 C 0.54173 0.46474 0.52205 0.0
C713 C 0.62213 0.54224 0.50923 0.0
C714 C 0.62938 0.53019 0.56597 0.0
C715 C 0.53319 0.52225 0.72806 0.0
C716 C 0.48947 0.58466 0.76174 0.0
C717 C 0.51381 0.58756 0.75739 0.0
C718 C 0.52409 0.60859 0.77903 0.0
C719 C 0.50968 0.6268 0.80292 0.0
C720 C 0.47544 0.60289 0.78599 0.0
C721 C 0.48553 0.62393 0.80625 0.0
C722 C 0.52061 0.55781 0.57831 0.0
C723 C 0.47818 0.56296 0.7404 0.0
H724 H 0.49881 0.44696 0.48778 0.0
H725 H 0.50404 0.38367 0.60086 0.0
H726 H 0.56239 0.43018 0.59351 0.0
H727 H 0.54459 0.39358 0.6317 0.0
H728 H 0.52466 0.57347 0.73847 0.0
H729 H 0.51711 0.64337 0.81879 0.0
H730 H 0.45664 0.60084 0.78903 0.0
H731 H 0.47464 0.63804 0.8247 0.0
Tb732 Tb 0.01938 0.53929 0.58184 0.0
C733 C 0.0257 0.44373 0.71347 0.0
C734 C 0.01094 0.41475 0.63585 0.0
C735 C 0.03961 0.40357 0.71908 0.0
C736 C 0.01196 0.43806 0.65924 0.0
C737 C 0.03954 0.42653 0.74452 0.0
C738 C 0.02517 0.39764 0.66519 0.0
C739 C 0.05034 0.45536 0.82746 0.0
N740 N 0.02481 0.46598 0.73736 0.0
C741 C 0.03606 0.47169 0.79563 0.0
C742 C 0.05233 0.43275 0.80134 0.0
Tb743 Tb 1.00089 0.49139 0.68091 0.0
N744 N 0.99872 0.45514 0.63147 0.0
C745 C 0.98293 0.4496 0.58253 0.0
C746 C 0.99518 0.40918 0.58498 0.0
C747 C 0.98095 0.42665 0.55866 0.0
H748 H 0.0348 0.48912 0.81636 0.0
H749 H 0.96832 0.42247 0.5203 0.0
H750 H 0.02486 0.37971 0.64723 0.0
H751 H 0.05979 0.46022 0.87216 0.0
H752 H 0.97172 0.46281 0.56149 0.0
H753 H 0.05024 0.60578 0.75378 0.0
H754 H 0.9935 0.39137 0.56692 0.0
H755 H 0.99412 0.547 0.4351 0.0
H756 H 0.04803 0.56653 0.70499 0.0
H757 H 0.96974 0.57664 0.37974 0.0
H758 H 0.05023 0.39013 0.74193 0.0
H759 H 0.02431 0.63724 0.71263 0.0
H760 H 0.99314 0.65005 0.63314 0.0
H761 H 0.06329 0.42009 0.82634 0.0
H762 H 0.97022 0.64173 0.53191 0.0
N763 N 0.02078 0.57488 0.63644 0.0
C764 C 0.03649 0.5798 0.68615 0.0
C765 C 0.02305 0.61982 0.69154 0.0
C766 C 0.00764 0.61506 0.63926 0.0
C767 C 0.03777 0.60218 0.71448 0.0
C768 C 1.00732 0.5923 0.61155 0.0
H769 H 0.96158 0.61439 0.4362 0.0
N770 N 0.99775 0.56662 0.52506 0.0
C771 C 0.97647 0.57996 0.42926 0.0
C772 C 0.99499 0.58786 0.55426 0.0
C773 C 0.99017 0.56312 0.46108 0.0
C774 C 0.97185 0.6012 0.46134 0.0
C775 C 0.98188 0.60572 0.52361 0.0
O776 O 0.03625 0.54159 0.48952 0.0
O777 O 0.01764 0.50132 0.58965 0.0
O778 O 0.0392 0.48924 0.67284 0.0
O779 O 0.04656 0.5285 0.65561 0.0
O780 O 0.01347 0.51491 0.49775 0.0
O781 O 0.05328 0.55328 0.57922 0.0
O782 O 0.98601 0.48838 0.77584 0.0
O783 O 1.0014 0.52956 0.67237 0.0
O784 O 0.98106 0.53905 0.57281 0.0
O785 O 0.97235 0.50148 0.61071 0.0
O786 O 0.00758 0.51588 0.76362 0.0
O787 O 0.96752 0.47659 0.68804 0.0
C788 C 0.01415 0.49549 0.52924 0.0
C789 C 0.07706 0.5385 0.49478 0.0
C790 C 0.10012 0.50379 0.47107 0.0
C791 C 0.07932 0.51402 0.49362 0.0
C792 C 0.11883 0.51825 0.45205 0.0
C793 C 0.09577 0.55266 0.47552 0.0
C794 C 0.11665 0.54253 0.45451 0.0
C795 C 0.05343 0.50749 0.67597 0.0
C796 C 0.05539 0.54973 0.51575 0.0
C797 C 0.98042 0.62785 0.55417 0.0
C798 C 0.99348 0.63259 0.61171 0.0
C799 C 1.00543 0.53527 0.7327 0.0
C800 C 0.94494 0.48984 0.77703 0.0
C801 C 0.94062 0.51402 0.77389 0.0
C802 C 0.91942 0.5231 0.79784 0.0
C803 C 0.90251 0.50765 0.82315 0.0
C804 C 0.92803 0.47478 0.80288 0.0
C805 C 0.90685 0.48368 0.82568 0.0
C806 C 0.96658 0.52106 0.57911 0.0
C807 C 0.96663 0.4797 0.75207 0.0
H808 H 0.06486 0.50306 0.50869 0.0
H809 H 0.13521 0.51072 0.43546 0.0
H810 H 0.09421 0.57157 0.47669 0.0
H811 H 0.13111 0.55349 0.43977 0.0
H812 H 0.95372 0.52563 0.75369 0.0
H813 H 0.8858 0.5141 0.84064 0.0
H814 H 0.93117 0.4561 0.80501 0.0
H815 H 0.89374 0.47198 0.84524 0.0
C816 C 0.15393 0.02694 0.30397 0.0
C817 C 0.15788 0.04747 0.26766 0.0
C818 C 0.13415 0.02455 0.34563 0.0
C819 C 0.11745 0.0429 0.35056 0.0
C820 C 0.12096 0.0633 0.31216 0.0
C821 C 0.14112 0.06545 0.27212 0.0
C822 C 0.13148 1.00261 0.38606 0.0
C823 C 0.1036 0.08314 0.31457 0.0
C824 C 0.05634 0.02881 0.4195 0.0
C825 C 0.05799 0.0363 0.4861 0.0
C826 C 0.07532 0.03101 0.37503 0.0
C827 C 0.0967 0.04107 0.39703 0.0
C828 C 0.09816 0.04941 0.4637 0.0
C829 C 0.07891 0.04696 0.50701 0.0
C830 C 0.0726 0.02214 0.30457 0.0
C831 C 0.12032 0.06027 0.49042 0.0
H832 H 0.16685 0.01308 0.30201 0.0
H833 H 0.14391 0.08142 0.24455 0.0
H834 H 0.13189 1.00713 0.43983 0.0
H835 H 0.11431 0.99435 0.3756 0.0
H836 H 0.14549 0.98964 0.3756 0.0
H837 H 0.10852 0.0977 0.28123 0.0
H838 H 0.086 0.07674 0.30005 0.0
H839 H 0.10227 0.08994 0.36622 0.0
H840 H 0.0404 0.02057 0.40233 0.0
H841 H 0.08038 0.05322 0.55787 0.0
H842 H 0.08521 1.00775 0.29513 0.0
H843 H 0.07663 0.0363 0.26902 0.0
H844 H 0.05468 0.01556 0.29422 0.0
H845 H 0.13328 0.04623 0.49995 0.0
H846 H 0.1173 0.07001 0.5377 0.0
H847 H 0.12807 0.07236 0.45381 0.0
C848 C 0.46801 0.16962 0.36514 0.0
C849 C 0.47519 0.17076 0.29821 0.0
C850 C 0.47181 0.14962 0.40411 0.0
C851 C 0.48415 0.13025 0.37735 0.0
C852 C 0.4921 0.13137 0.3106 0.0
C853 C 0.48739 0.15143 0.27178 0.0
C854 C 0.46258 0.14945 0.47442 0.0
C855 C 0.50541 0.11124 0.27999 0.0
C856 C 0.5114 0.09086 0.50961 0.0
C857 C 0.49604 0.07178 0.51141 0.0
C858 C 0.50825 0.10942 0.46474 0.0
C859 C 0.48901 0.10921 0.42016 0.0
C860 C 0.47388 0.08947 0.41993 0.0
C861 C 0.47788 0.07088 0.4645 0.0
C862 C 0.52567 0.12923 0.46492 0.0
C863 C 0.45343 0.08747 0.37276 0.0
H864 H 0.45934 0.18451 0.38784 0.0
H865 H 0.49296 0.15175 0.22038 0.0
H866 H 0.45567 0.13198 0.48758 0.0
H867 H 0.47699 0.15365 0.5095 0.0
H868 H 0.4485 0.1626 0.48183 0.0
H869 H 0.51197 0.11536 0.2295 0.0
H870 H 0.52047 0.10649 0.31211 0.0
H871 H 0.49387 0.09568 0.2764 0.0
H872 H 0.52645 0.09098 0.54191 0.0
H873 H 0.4665 0.0558 0.46306 0.0
H874 H 0.51712 0.14556 0.48247 0.0
H875 H 0.53203 0.13237 0.41368 0.0
H876 H 0.54092 0.12569 0.49762 0.0
H877 H 0.44772 0.1046 0.353 0.0
H878 H 0.43836 0.079 0.39763 0.0
H879 H 0.4585 0.07611 0.33017 0.0
C880 C 0.36289 0.48091 0.39122 0.0
C881 C 0.3583 0.48637 0.32399 0.0
C882 C 0.38466 0.48485 0.42197 0.0
C883 C 0.40414 0.49231 0.3839 0.0
C884 C 0.40049 0.49522 0.31396 0.0
C885 C 0.3777 0.49304 0.28564 0.0
C886 C 0.38586 0.48076 0.49605 0.0
C887 C 0.4204 0.50017 0.26723 0.0
C888 C 0.45865 0.52449 0.45388 0.0
C889 C 0.46897 0.50756 0.4948 0.0
C890 C 0.43737 0.5202 0.41975 0.0
C891 C 0.42766 0.49721 0.41775 0.0
C892 C 0.44003 0.47931 0.45249 0.0
C893 C 0.45947 0.48498 0.49338 0.0
C894 C 0.4255 0.54074 0.38721 0.0
C895 C 0.43337 0.45388 0.4466 0.0
H896 H 0.34932 0.47349 0.4218 0.0
H897 H 0.37531 0.49652 0.23324 0.0
H898 H 0.40169 0.48797 0.51999 0.0
H899 H 0.37039 0.48864 0.52088 0.0
H900 H 0.38513 0.46166 0.50546 0.0
H901 H 0.41941 0.48813 0.22366 0.0
H902 H 0.41859 0.51819 0.24773 0.0
H903 H 0.43783 0.49815 0.29066 0.0
H904 H 0.46656 0.5417 0.45156 0.0
H905 H 0.46794 0.47134 0.52174 0.0
H906 H 0.40628 0.53852 0.38398 0.0
H907 H 0.43262 0.54293 0.33644 0.0
H908 H 0.4292 0.55723 0.41493 0.0
H909 H 0.42601 0.44792 0.49451 0.0
H910 H 0.44924 0.44324 0.43697 0.0
H911 H 0.42071 0.4504 0.40597 0.0
C912 C 0.05413 0.38856 0.28812 0.0
C913 C 0.03992 0.36841 0.28909 0.0
C914 C 0.04891 0.40882 0.32642 0.0
C915 C 0.02896 0.40937 0.36825 0.0
C916 C 0.01388 0.38947 0.36685 0.0
C917 C 0.01957 0.36938 0.32786 0.0
C918 C 0.06509 0.42961 0.3227 0.0
C919 C 0.99224 0.38841 0.40901 0.0
C920 C 0.03255 0.45462 0.51342 0.0
C921 C 0.01721 0.4724 0.49265 0.0
C922 C 0.03555 0.43366 0.47542 0.0
C923 C 0.02422 0.43074 0.41269 0.0
C924 C 0.00933 0.44902 0.39087 0.0
C925 C 1.00591 0.46925 0.43091 0.0
C926 C 0.05071 0.41444 0.50274 0.0
C927 C 0.9972 0.44739 0.32432 0.0
H928 H 0.06999 0.38817 0.25878 0.0
H929 H 0.00865 0.35392 0.33061 0.0
H930 H 0.05509 0.44536 0.30761 0.0
H931 H 0.07269 0.43336 0.37236 0.0
H932 H 0.0796 0.42678 0.28695 0.0
H933 H 0.97825 0.37835 0.38323 0.0
H934 H 0.99651 0.37905 0.4555 0.0
H935 H 0.98538 0.40598 0.42187 0.0
H936 H 0.04217 0.45702 0.55944 0.0
H937 H 0.99442 0.48297 0.41323 0.0
H938 H 0.06688 0.41289 0.47285 0.0
H939 H 0.04145 0.39741 0.49931 0.0
H940 H 0.05556 0.41774 0.55542 0.0
H941 H 0.01032 0.44492 0.28433 0.0
H942 H 0.98668 0.46324 0.31331 0.0
H943 H 0.98549 0.43193 0.32313 0.0
C944 C 0.8534 1.00338 0.92922 0.0
C945 C 0.85342 0.98368 0.97055 0.0
C946 C 0.87304 0.00893 0.88934 0.0
C947 C 0.89324 0.99437 0.8901 0.0
C948 C 0.89372 0.97525 0.93456 0.0
C949 C 0.87402 0.97026 0.97402 0.0
C950 C 0.87169 0.02967 0.84367 0.0
C951 C 0.91458 0.9591 0.93761 0.0
C952 C 0.93224 0.98976 0.73477 0.0
C953 C 0.952 1.00296 0.75295 0.0
C954 C 0.91306 0.98709 0.77827 0.0
C955 C 0.91325 0.99807 0.84195 0.0
C956 C 0.93304 0.01168 0.86021 0.0
C957 C 0.95208 0.01388 0.81586 0.0
C958 C 0.89262 0.97229 0.75608 0.0
C959 C 0.93408 0.02408 0.92667 0.0
H960 H 0.83753 0.01362 0.92494 0.0
H961 H 0.87419 0.95485 1.00514 0.0
H962 H 0.88761 0.04062 0.84883 0.0
H963 H 0.87085 0.02349 0.79128 0.0
H964 H 0.85611 0.04072 0.85385 0.0
H965 H 0.91299 0.94599 0.97782 0.0
H966 H 0.91642 0.94965 0.88946 0.0
H967 H 0.93084 0.96929 0.94573 0.0
H968 H 0.9318 0.98135 0.68626 0.0
H969 H 0.9668 0.02471 0.83001 0.0
H970 H 0.8763 0.98276 0.75783 0.0
H971 H 0.89038 0.95738 0.7905 0.0
H972 H 0.89486 0.96527 0.70481 0.0
H973 H 0.91874 0.03581 0.93236 0.0
H974 H 0.95026 0.03462 0.93281 0.0
H975 H 0.93328 0.01111 0.96731 0.0
C976 C 0.52861 0.86108 0.92236 0.0
C977 C 0.54838 0.8593 0.9634 0.0
C978 C 0.52461 0.88119 0.88344 0.0
C979 C 0.54061 0.90017 0.88602 0.0
C980 C 0.56012 0.89871 0.92943 0.0
C981 C 0.56394 0.87824 0.96671 0.0
C982 C 0.5036 0.88185 0.838 0.0
C983 C 0.57716 0.91871 0.93586 0.0
C984 C 0.54415 0.94192 0.7377 0.0
C985 C 0.53128 0.96133 0.76019 0.0
C986 C 0.5472 0.92197 0.77776 0.0
C987 C 0.53729 0.92128 0.8424 0.0
C988 C 0.52446 0.94095 0.86548 0.0
C989 C 0.52169 0.96064 0.82436 0.0
C990 C 0.5613 0.90173 0.75101 0.0
C991 C 0.51329 0.94108 0.93337 0.0
H992 H 0.51676 0.84633 0.91873 0.0
H993 H 0.57936 0.87685 0.99785 0.0
H994 H 0.49302 0.89772 0.84846 0.0
H995 H 0.50943 0.88287 0.78553 0.0
H996 H 0.49231 0.86618 0.84346 0.0
H997 H 0.59231 0.9143 0.96801 0.0
H998 H 0.58356 0.92372 0.88607 0.0
H999 H 0.56822 0.93423 0.95737 0.0
H1000 H 0.55182 0.94229 0.6885 0.0
H1001 H 0.51142 0.97527 0.8421 0.0
H1002 H 0.56595 0.90396 0.69786 0.0
H1003 H 0.55155 0.88508 0.75642 0.0
H1004 H 0.57761 0.90023 0.7804 0.0
H1005 H 0.50065 0.92644 0.93695 0.0
H1006 H 0.50398 0.95774 0.94426 0.0
H1007 H 0.52677 0.93834 0.97226 0.0
C1008 C 0.64191 0.56331 0.95773 0.0
C1009 C 0.66027 0.547 0.96132 0.0
C1010 C 0.62171 0.55902 0.91858 0.0
C1011 C 0.61997 0.53825 0.87944 0.0
C1012 C 0.63858 0.52175 0.88311 0.0
C1013 C 0.65827 0.52624 0.92408 0.0
C1014 C 0.60196 0.57653 0.92038 0.0
C1015 C 0.63839 0.49971 0.84155 0.0
C1016 C 0.55982 0.51511 0.82408 0.0
C1017 C 0.55675 0.52477 0.76058 0.0
C1018 C 0.58 0.51945 0.86278 0.0
C1019 C 0.59834 0.5334 0.83732 0.0
C1020 C 0.59546 0.54314 0.77277 0.0
C1021 C 0.57445 0.53941 0.73629 0.0
C1022 C 0.58132 0.5096 0.93211 0.0
C1023 C 0.61449 0.5577 0.74225 0.0
H1024 H 0.64336 0.57951 0.98587 0.0
H1025 H 0.6726 0.51382 0.9251 0.0
H1026 H 0.59774 0.58252 0.86952 0.0
H1027 H 0.58602 0.56806 0.94022 0.0
H1028 H 0.60613 0.59207 0.95178 0.0
H1029 H 0.65164 0.48686 0.85863 0.0
H1030 H 0.62099 0.49122 0.84205 0.0
H1031 H 0.64245 0.50436 0.78953 0.0
H1032 H 0.54594 0.50448 0.84454 0.0
H1033 H 0.57188 0.54798 0.68898 0.0
H1034 H 0.58438 0.52395 0.96865 0.0
H1035 H 0.59625 0.49731 0.93599 0.0
H1036 H 0.56512 0.50018 0.94613 0.0
H1037 H 0.6146 0.57527 0.76585 0.0
H1038 H 0.61184 0.5599 0.68799 0.0
H1039 H 0.63187 0.54961 0.75076 0.0
C1040 C 0.96119 0.6375 0.98432 0.0
C1041 C 0.97432 0.65843 0.98447 0.0
C1042 C 0.96684 0.61816 0.94279 0.0
C1043 C 0.98638 0.61917 0.89951 0.0
C1044 C 1.00049 0.63976 0.90226 0.0
C1045 C 0.99424 0.65898 0.94391 0.0
C1046 C 0.95173 0.59654 0.94531 0.0
C1047 C 0.02189 0.64245 0.85978 0.0
C1048 C 0.01234 0.56117 0.83245 0.0
C1049 C 1.00096 0.55782 0.77091 0.0
C1050 C 0.00803 0.58091 0.87366 0.0
C1051 C 0.99201 0.59845 0.85347 0.0
C1052 C 0.98056 0.59532 0.79094 0.0
C1053 C 0.98463 0.57487 0.75148 0.0
C1054 C 0.0205 0.58283 0.93964 0.0
C1055 C 0.96397 0.61366 0.76548 0.0
H1056 H 0.94601 0.63633 0.01616 0.0
H1057 H 1.00453 0.67489 0.94244 0.0
H1058 H 0.94359 0.59327 0.89604 0.0
H1059 H 0.96263 0.58105 0.95712 0.0
H1060 H 0.9376 0.59807 0.98288 0.0
H1061 H 0.03607 0.65118 0.8885 0.0
H1062 H 0.02857 0.62556 0.84049 0.0
H1063 H 0.01752 0.65398 0.81745 0.0
H1064 H 0.0247 0.54803 0.84893 0.0
H1065 H 0.97507 0.57231 0.70542 0.0
H1066 H 0.00756 0.58451 0.98042 0.0
H1067 H 0.03148 0.59882 0.9407 0.0
H1068 H 0.03184 0.56746 0.94956 0.0
H1069 H 0.9473 0.61261 0.7931 0.0
H1070 H 0.96023 0.61127 0.71172 0.0
H1071 H 0.97129 0.63145 0.77358 0.0
C1072 C 0.14461 0.16732 0.38605 0.0
C1073 C 0.13452 0.18976 0.38673 0.0
C1074 C 0.13485 0.14913 0.42348 0.0
C1075 C 0.11471 0.15368 0.46212 0.0
C1076 C 0.10758 0.17711 0.473 0.0
C1077 C 0.11761 0.1949 0.43527 0.0
C1078 C 0.14441 0.12473 0.41479 0.0
C1079 C 0.0869 0.18307 0.51656 0.0
C1080 C 0.05896 0.11978 0.44536 0.0
C1081 C 0.05512 0.11368 0.5115 0.0
C1082 C 0.07984 0.1306 0.42663 0.0
C1083 C 0.09741 0.13487 0.47521 0.0
C1084 C 0.09484 0.12558 0.53977 0.0
C1085 C 0.07343 0.11545 0.55763 0.0
C1086 C 0.08172 0.14004 0.35689 0.0
C1087 C 0.11361 0.12824 0.59194 0.0
H1088 H 0.15856 0.16334 0.35138 0.0
H1089 H 0.10986 0.21217 0.43813 0.0
H1090 H 0.13933 0.1132 0.45637 0.0
H1091 H 0.13769 0.11715 0.36757 0.0
H1092 H 0.16377 0.12515 0.41123 0.0
H1093 H 0.08552 0.20217 0.52647 0.0
H1094 H 0.07055 0.17721 0.49166 0.0
H1095 H 0.08817 0.17393 0.5648 0.0
H1096 H 0.04479 0.11821 0.4097 0.0
H1097 H 0.07054 0.11016 0.60854 0.0
H1098 H 0.0994 0.13694 0.33626 0.0
H1099 H 0.07871 0.15924 0.358 0.0
H1100 H 0.06867 0.13196 0.32279 0.0
H1101 H 0.13122 0.12984 0.56945 0.0
H1102 H 0.11353 0.11307 0.62612 0.0
H1103 H 0.11014 0.1442 0.62215 0.0
C1104 C 0.36299 0.13885 0.39038 0.0
C1105 C 0.33899 0.13742 0.40423 0.0
C1106 C 0.37916 0.12802 0.43268 0.0
C1107 C 0.37103 0.11787 0.49225 0.0
C1108 C 0.34852 0.12403 0.51549 0.0
C1109 C 0.33227 0.13323 0.47015 0.0
C1110 C 0.40334 0.12327 0.40655 0.0
C1111 C 0.34034 0.11661 0.58319 0.0
C1112 C 0.37949 0.05245 0.50837 0.0
C1113 C 0.39938 0.05089 0.54808 0.0
C1114 C 0.37054 0.07411 0.48958 0.0
C1115 C 0.38115 0.09505 0.51358 0.0
C1116 C 0.40124 0.09354 0.55486 0.0
C1117 C 0.41055 0.07138 0.56988 0.0
C1118 C 0.34993 0.07422 0.44259 0.0
C1119 C 0.41275 0.11483 0.58529 0.0
H1120 H 0.36851 0.14379 0.34088 0.0
H1121 H 0.31393 0.13347 0.48348 0.0
H1122 H 0.41624 0.12157 0.44729 0.0
H1123 H 0.40306 0.10659 0.37787 0.0
H1124 H 0.40914 0.13737 0.37266 0.0
H1125 H 0.3265 0.12857 0.602 0.0
H1126 H 0.33285 0.09873 0.57995 0.0
H1127 H 0.35511 0.11633 0.61914 0.0
H1128 H 0.37124 0.03651 0.49043 0.0
H1129 H 0.42623 0.07008 0.59995 0.0
H1130 H 0.35372 0.08563 0.39987 0.0
H1131 H 0.33418 0.08103 0.46818 0.0
H1132 H 0.34574 0.05645 0.42321 0.0
H1133 H 0.43201 0.11363 0.57949 0.0
H1134 H 0.4091 0.11515 0.63947 0.0
H1135 H 0.40655 0.13154 0.56387 0.0
C1136 C 0.38074 0.36481 0.39098 0.0
C1137 C 0.38543 0.34079 0.39704 0.0
C1138 C 0.39331 0.38131 0.42886 0.0
C1139 C 0.41099 0.37345 0.47258 0.0
C1140 C 0.41252 0.34936 0.48765 0.0
C1141 C 0.39958 0.33326 0.44982 0.0
C1142 C 0.38975 0.40698 0.41565 0.0
C1143 C 0.43042 0.34025 0.53629 0.0
C1144 C 0.47165 0.39867 0.45873 0.0
C1145 C 0.47498 0.40809 0.52223 0.0
C1146 C 0.45019 0.38873 0.44057 0.0
C1147 C 0.43156 0.38852 0.48712 0.0
C1148 C 0.43442 0.39967 0.54976 0.0
C1149 C 0.45633 0.40901 0.56703 0.0
C1150 C 0.44802 0.37712 0.37299 0.0
C1151 C 0.41498 0.40093 0.60008 0.0
H1152 H 0.36914 0.37077 0.35192 0.0
H1153 H 0.40309 0.31477 0.456 0.0
H1154 H 0.3932 0.41762 0.46103 0.0
H1155 H 0.40202 0.41259 0.3763 0.0
H1156 H 0.37169 0.41053 0.398 0.0
H1157 H 0.42727 0.32164 0.549 0.0
H1158 H 0.44812 0.34168 0.51422 0.0
H1159 H 0.43026 0.35082 0.58276 0.0
H1160 H 0.48623 0.3981 0.42441 0.0
H1161 H 0.45901 0.41649 0.61605 0.0
H1162 H 0.43293 0.38447 0.34549 0.0
H1163 H 0.44488 0.35809 0.37889 0.0
H1164 H 0.46395 0.37943 0.34229 0.0
H1165 H 0.41559 0.41786 0.62762 0.0
H1166 H 0.41738 0.38682 0.63702 0.0
H1167 H 0.39748 0.39897 0.57682 0.0
C1168 C 0.15846 0.38407 0.40789 0.0
C1169 C 0.18 0.39578 0.41491 0.0
C1170 C 0.13812 0.39331 0.43735 0.0
C1171 C 0.13964 0.41469 0.47301 0.0
C1172 C 0.16188 0.42285 0.49372 0.0
C1173 C 0.18185 0.41292 0.46531 0.0
C1174 C 0.11477 0.38232 0.42183 0.0
C1175 C 0.16476 0.44509 0.53434 0.0
C1176 C 0.112 0.46866 0.40743 0.0
C1177 C 0.10279 0.47814 0.46592 0.0
C1178 C 0.12132 0.4461 0.4062 0.0
C1179 C 0.12101 0.43258 0.46518 0.0
C1180 C 0.10813 0.44068 0.52087 0.0
C1181 C 0.09931 0.46368 0.52097 0.0
C1182 C 0.13414 0.43826 0.34417 0.0
C1183 C 0.10522 0.42581 0.5819 0.0
H1184 H 0.15692 0.36942 0.37362 0.0
H1185 H 0.19832 0.42149 0.47539 0.0
H1186 H 0.11661 0.36324 0.41199 0.0
H1187 H 0.10237 0.3851 0.46346 0.0
H1188 H 0.10711 0.39042 0.37684 0.0
H1189 H 0.1831 0.4478 0.55089 0.0
H1190 H 0.1595 0.46038 0.50406 0.0
H1191 H 0.15357 0.44482 0.57904 0.0
H1192 H 0.11369 0.47968 0.36406 0.0
H1193 H 0.09137 0.47083 0.56559 0.0
H1194 H 0.12812 0.4207 0.32803 0.0
H1195 H 0.15318 0.43721 0.35443 0.0
H1196 H 0.13148 0.45043 0.30204 0.0
H1197 H 0.10215 0.40727 0.56762 0.0
H1198 H 0.09047 0.43209 0.61316 0.0
H1199 H 0.12125 0.4264 0.61274 0.0
C1200 C 0.90179 0.84167 0.76789 0.0
C1201 C 0.90942 0.81993 0.79154 0.0
C1202 C 0.91588 0.85461 0.72463 0.0
C1203 C 0.93794 0.84553 0.70603 0.0
C1204 C 0.94319 0.82179 0.71836 0.0
C1205 C 0.92866 0.80911 0.76069 0.0
C1206 C 0.90894 0.87934 0.70803 0.0
C1207 C 0.9662 0.81109 0.69768 0.0
C1208 C 0.98509 0.88217 0.62404 0.0
C1209 C 0.99624 0.89181 0.67998 0.0
C1210 C 0.96568 0.86735 0.63092 0.0
C1211 C 0.9576 0.86196 0.69542 0.0
C1212 C 0.96908 0.87156 0.75207 0.0
C1213 C 0.98812 0.8865 0.74348 0.0
C1214 C 0.9536 0.85811 0.56931 0.0
C1215 C 0.96148 0.86589 0.82212 0.0
H1216 H 0.88642 0.84978 0.78951 0.0
H1217 H 0.93454 0.79208 0.77716 0.0
H1218 H 0.91696 0.89155 0.74472 0.0
H1219 H 0.91526 0.88417 0.65788 0.0
H1220 H 0.88968 0.88164 0.71003 0.0
H1221 H 0.96536 0.79167 0.6972 0.0
H1222 H 0.97153 0.81713 0.64775 0.0
H1223 H 0.97994 0.81654 0.73367 0.0
H1224 H 0.99119 0.88668 0.57497 0.0
H1225 H 0.99693 0.89385 0.78665 0.0
H1226 H 0.93775 0.86879 0.55987 0.0
H1227 H 0.94783 0.83974 0.57546 0.0
H1228 H 0.96505 0.85913 0.5249 0.0
H1229 H 0.94337 0.87215 0.83049 0.0
H1230 H 0.97295 0.87409 0.86039 0.0
H1231 H 0.96163 0.84668 0.82968 0.0
C1232 C 0.65879 0.87039 0.86957 0.0
C1233 C 0.68149 0.87978 0.87055 0.0
C1234 C 0.64134 0.88032 0.82933 0.0
C1235 C 0.64697 0.89983 0.78962 0.0
C1236 C 0.67071 0.90561 0.77958 0.0
C1237 C 0.68775 0.89545 0.82011 0.0
C1238 C 0.61651 0.872 0.83594 0.0
C1239 C 0.6778 0.92535 0.73443 0.0
C1240 C 0.60977 0.94309 0.69562 0.0
C1241 C 0.60848 0.96127 0.74271 0.0
C1242 C 0.61969 0.9214 0.71217 0.0
C1243 C 0.62923 0.9183 0.77653 0.0
C1244 C 0.62602 0.93602 0.82565 0.0
C1245 C 0.61535 0.95716 0.80822 0.0
C1246 C 0.62153 0.90278 0.65893 0.0
C1247 C 0.63613 0.93384 0.89487 0.0
H1248 H 0.65402 0.85716 0.90537 0.0
H1249 H 0.70529 0.90246 0.81792 0.0
H1250 H 0.60655 0.88462 0.86691 0.0
H1251 H 0.60803 0.87102 0.78634 0.0
H1252 H 0.61554 0.85454 0.8597 0.0
H1253 H 0.69693 0.92547 0.7251 0.0
H1254 H 0.6686 0.92396 0.68602 0.0
H1255 H 0.6729 0.94235 0.75769 0.0
H1256 H 0.60408 0.94624 0.64504 0.0
H1257 H 0.61432 0.97129 0.84446 0.0
H1258 H 0.62424 0.8851 0.67999 0.0
H1259 H 0.63642 0.90686 0.62581 0.0
H1260 H 0.60549 0.90257 0.62769 0.0
H1261 H 0.63207 0.91651 0.9162 0.0
H1262 H 0.62938 0.94759 0.92919 0.0
H1263 H 0.65543 0.9355 0.89257 0.0
C1264 C 0.62215 0.68801 0.76669 0.0
C1265 C 0.63944 0.6843 0.81507 0.0
C1266 C 0.60978 0.6691 0.73933 0.0
C1267 C 0.61536 0.64611 0.75998 0.0
C1268 C 0.63662 0.64229 0.79432 0.0
C1269 C 0.64829 0.66155 0.82302 0.0
C1270 C 0.58819 0.67411 0.69847 0.0
C1271 C 0.64495 0.61784 0.80892 0.0
C1272 C 0.56047 0.62201 0.83394 0.0
C1273 C 0.54972 0.61203 0.77813 0.0
C1274 C 0.58306 0.63108 0.83044 0.0
C1275 C 0.59555 0.6296 0.76954 0.0
C1276 C 0.58593 0.61654 0.71575 0.0
C1277 C 0.56291 0.60804 0.72045 0.0
C1278 C 0.59236 0.64433 0.89034 0.0
C1279 C 0.59905 0.61273 0.65169 0.0
H1280 H 0.61567 0.70556 0.75811 0.0
H1281 H 0.66244 0.65859 0.85788 0.0
H1282 H 0.58796 0.66298 0.65317 0.0
H1283 H 0.57231 0.67004 0.72779 0.0
H1284 H 0.58723 0.69271 0.68303 0.0
H1285 H 0.66337 0.61771 0.82645 0.0
H1286 H 0.63389 0.60993 0.8479 0.0
H1287 H 0.64343 0.60675 0.76356 0.0
H1288 H 0.55051 0.62418 0.87938 0.0
H1289 H 0.55481 0.59969 0.67762 0.0
H1290 H 0.59491 0.66302 0.87775 0.0
H1291 H 0.60946 0.63711 0.90598 0.0
H1292 H 0.58037 0.64349 0.9336 0.0
H1293 H 0.59244 0.62499 0.61358 0.0
H1294 H 0.59582 0.59478 0.63214 0.0
H1295 H 0.61815 0.61535 0.65794 0.0
C1296 C 0.83492 0.61808 0.78307 0.0
C1297 C 0.83783 0.63561 0.83159 0.0
C1298 C 0.8543 0.60609 0.75746 0.0
C1299 C 0.87698 0.61251 0.7795 0.0
C1300 C 0.87997 0.63388 0.81453 0.0
C1301 C 0.86024 0.64504 0.84175 0.0
C1302 C 0.85012 0.58412 0.7168 0.0
C1303 C 0.90406 0.6429 0.83116 0.0
C1304 C 0.90395 0.55875 0.85295 0.0
C1305 C 0.91438 0.54851 0.79713 0.0
C1306 C 0.89356 0.5808 0.84954 0.0
C1307 C 0.89429 0.59336 0.78889 0.0
C1308 C 0.90771 0.58445 0.73515 0.0
C1309 C 0.91743 0.56188 0.73961 0.0
C1310 C 0.87984 0.58937 0.90922 0.0
C1311 C 0.91074 0.5979 0.67162 0.0
H1312 H 0.81763 0.61112 0.77314 0.0
H1313 H 0.86255 0.6593 0.87705 0.0
H1314 H 0.86064 0.58451 0.67075 0.0
H1315 H 0.85553 0.56851 0.74554 0.0
H1316 H 0.83147 0.58199 0.70253 0.0
H1317 H 0.90353 0.66116 0.85057 0.0
H1318 H 0.91241 0.63168 0.8692 0.0
H1319 H 0.91522 0.64226 0.78614 0.0
H1320 H 0.90254 0.54874 0.89833 0.0
H1321 H 0.92611 0.55425 0.69677 0.0
H1322 H 0.86118 0.59164 0.89564 0.0
H1323 H 0.8866 0.60653 0.92658 0.0
H1324 H 0.88078 0.57709 0.95166 0.0
H1325 H 0.89761 0.59203 0.63457 0.0
H1326 H 0.92817 0.59435 0.64956 0.0
H1327 H 0.90873 0.61703 0.67978 0.0
C1328 C 0.03097 0.15487 0.95042 0.0
C1329 C 0.02776 0.17772 0.92616 0.0
C1330 C 0.02693 0.13468 0.91092 0.0
C1331 C 0.01945 0.13673 0.84382 0.0
C1332 C 0.01542 0.15976 0.81937 0.0
C1333 C 0.01955 0.17983 0.86045 0.0
C1334 C 0.03181 0.11122 0.9416 0.0
C1335 C 1.00679 0.16323 0.74938 0.0
C1336 C 0.0271 0.08435 0.72003 0.0
C1337 C 1.00517 0.07331 0.72278 0.0
C1338 C 0.03218 0.10461 0.7595 0.0
C1339 C 0.01471 0.1149 0.80104 0.0
C1340 C 0.99261 0.10369 0.80348 0.0
C1341 C 0.98823 0.08331 0.76497 0.0
C1342 C 0.05626 0.11513 0.75616 0.0
C1343 C 0.97339 0.11328 0.84712 0.0
H1344 H 0.03703 0.15265 1.00111 0.0
H1345 H 0.01702 0.19718 0.84041 0.0
H1346 H 0.05056 0.10714 0.93406 0.0
H1347 H 0.02858 0.11163 0.99604 0.0
H1348 H 0.02116 0.097 0.91927 0.0
H1349 H 1.00443 0.18201 0.73719 0.0
H1350 H 0.01937 0.15538 0.71379 0.0
H1351 H 0.98983 0.1541 0.7425 0.0
H1352 H 0.04013 0.07751 0.68602 0.0
H1353 H 0.97108 0.0753 0.76699 0.0
H1354 H 0.06302 0.11877 0.80699 0.0
H1355 H 0.0554 0.132 0.72939 0.0
H1356 H 0.0688 0.10343 0.73003 0.0
H1357 H 0.97901 0.11281 0.89995 0.0
H1358 H 0.95688 0.10322 0.84187 0.0
H1359 H 0.96989 0.13184 0.8346 0.0
C1360 C 0.37406 0.04795 0.94699 0.0
C1361 C 0.35314 0.03562 0.93509 0.0
C1362 C 0.39369 0.04562 0.90549 0.0
C1363 C 0.39263 0.03135 0.84769 0.0
C1364 C 0.37087 0.02048 0.83179 0.0
C1365 C 0.35148 0.02249 0.87584 0.0
C1366 C 0.41615 0.05716 0.92669 0.0
C1367 C 0.36819 1.00654 0.7684 0.0
C1368 C 0.44478 0.0371 0.72568 0.0
C1369 C 0.45761 0.01665 0.7386 0.0
C1370 C 0.42351 0.04202 0.7596 0.0
C1371 C 0.41481 0.02628 0.80829 0.0
C1372 C 0.42826 1.00604 0.82254 0.0
C1373 C 0.44896 1.00129 0.78681 0.0
C1374 C 0.40999 0.06369 0.74127 0.0
C1375 C 0.42089 0.98934 0.87628 0.0
H1376 H 0.37554 0.05863 0.99163 0.0
H1377 H 0.33546 0.01306 0.86525 0.0
H1378 H 0.42879 0.04333 0.9408 0.0
H1379 H 0.42371 0.06721 0.88507 0.0
H1380 H 0.41382 0.06918 0.96987 0.0
H1381 H 0.35035 0.99917 0.76248 0.0
H1382 H 0.3719 0.0181 0.72576 0.0
H1383 H 0.38106 0.99203 0.76674 0.0
H1384 H 0.45088 0.0488 0.68735 0.0
H1385 H 0.4586 0.98535 0.79683 0.0
H1386 H 0.40122 0.07173 0.78488 0.0
H1387 H 0.39616 0.05877 0.70497 0.0
H1388 H 0.42147 0.07703 0.71844 0.0
H1389 H 0.41861 0.99898 0.92398 0.0
H1390 H 0.43383 0.9751 0.88393 0.0
H1391 H 0.40382 0.98134 0.86325 0.0
C1392 C 0.48652 0.37183 0.94 0.0
C1393 C 0.48337 0.3492 0.91379 0.0
C1394 C 0.49234 0.39085 0.8991 0.0
C1395 C 0.49511 0.38736 0.82967 0.0
C1396 C 0.4931 0.36428 0.80337 0.0
C1397 C 0.48712 0.34552 0.8456 0.0
C1398 C 0.49403 0.415 0.92978 0.0
C1399 C 0.49612 0.35959 0.73005 0.0
C1400 C 0.48149 0.44084 0.72257 0.0
C1401 C 0.5037 0.45046 0.71168 0.0
C1402 C 0.47853 0.42007 0.75894 0.0
C1403 C 0.4983 0.40817 0.7848 0.0
C1404 C 0.52087 0.41728 0.77164 0.0
C1405 C 0.52329 0.4383 0.73576 0.0
C1406 C 0.45408 0.41125 0.77127 0.0
C1407 C 0.5425 0.40515 0.79699 0.0
H1408 H 0.48304 0.37489 0.99234 0.0
H1409 H 0.4841 0.32824 0.8247 0.0
H1410 H 0.51059 0.42355 0.91503 0.0
H1411 H 0.47948 0.42602 0.91119 0.0
H1412 H 0.49317 0.4146 0.98493 0.0
H1413 H 0.49548 0.34061 0.71779 0.0
H1414 H 0.48214 0.3686 0.7018 0.0
H1415 H 0.51309 0.36672 0.7131 0.0
H1416 H 0.46622 0.44979 0.70343 0.0
H1417 H 0.54058 0.44541 0.72761 0.0
H1418 H 0.45051 0.41125 0.82547 0.0
H1419 H 0.45236 0.39295 0.75308 0.0
H1420 H 0.44059 0.42211 0.74637 0.0
H1421 H 0.54298 0.40617 0.85209 0.0
H1422 H 0.55877 0.41308 0.77734 0.0
H1423 H 0.54215 0.38634 0.78289 0.0
C1424 C 0.15728 0.48633 0.93723 0.0
C1425 C 0.18034 0.48737 0.9131 0.0
C1426 C 0.13771 0.49025 0.89581 0.0
C1427 C 0.14082 0.49521 0.82741 0.0
C1428 C 0.16407 0.49664 0.80269 0.0
C1429 C 0.18347 0.49293 0.84573 0.0
C1430 C 0.11353 0.48868 0.92532 0.0
C1431 C 0.16843 0.50152 0.73023 0.0
C1432 C 0.08727 0.48246 0.71589 0.0
C1433 C 0.07696 0.50467 0.70904 0.0
C1434 C 0.10833 0.47925 0.75187 0.0
C1435 C 0.11966 0.49868 0.78257 0.0
C1436 C 0.10964 0.52123 0.77424 0.0
C1437 C 0.08868 0.52395 0.73744 0.0
C1438 C 0.11825 0.45489 0.75781 0.0
C1439 C 0.1206 0.54249 0.80649 0.0
H1440 H 0.1545 0.48225 0.98915 0.0
H1441 H 0.20107 0.4936 0.82613 0.0
H1442 H 0.10368 0.50504 0.91573 0.0
H1443 H 0.10374 0.47414 0.90123 0.0
H1444 H 0.11396 0.48564 0.97978 0.0
H1445 H 0.18736 0.50288 0.71879 0.0
H1446 H 0.16077 0.48729 0.69926 0.0
H1447 H 0.1597 0.51804 0.71566 0.0
H1448 H 0.07866 0.4674 0.69371 0.0
H1449 H 0.08104 0.54121 0.73297 0.0
H1450 H 0.13564 0.45416 0.73362 0.0
H1451 H 0.10679 0.44146 0.73439 0.0
H1452 H 0.12078 0.45037 0.81086 0.0
H1453 H 0.12001 0.54074 0.86137 0.0
H1454 H 0.11154 0.55895 0.7926 0.0
H1455 H 0.13925 0.54385 0.79217 0.0
C1456 C 0.96955 0.87842 0.31342 0.0
C1457 C 0.98271 0.85762 0.3209 0.0
C1458 C 0.97398 0.89899 0.3511 0.0
C1459 C 0.99087 0.89911 0.4029 0.0
C1460 C 1.00361 0.87789 0.41318 0.0
C1461 C 0.99959 0.8578 0.37215 0.0
C1462 C 0.96118 0.92103 0.33263 0.0
C1463 C 0.02199 0.87582 0.46658 0.0
C1464 C 0.02165 0.95511 0.469 0.0
C1465 C 1.00632 0.96386 0.51774 0.0
C1466 C 0.01647 0.93485 0.43058 0.0
C1467 C 0.99585 0.92167 0.44282 0.0
C1468 C 0.98008 0.93068 0.49198 0.0
C1469 C 0.98542 0.95157 0.52808 0.0
C1470 C 0.03335 0.92765 0.37666 0.0
C1471 C 0.95739 0.91866 0.50813 0.0
H1472 H 0.95555 0.87904 0.27736 0.0
H1473 H 0.01015 0.84234 0.38003 0.0
H1474 H 0.97384 0.93559 0.32764 0.0
H1475 H 0.95142 0.91919 0.28505 0.0
H1476 H 0.94853 0.92573 0.3721 0.0
H1477 H 0.01735 0.86127 0.50032 0.0
H1478 H 0.039 0.8712 0.44348 0.0
H1479 H 0.02426 0.892 0.49651 0.0
H1480 H 0.03792 0.96432 0.46055 0.0
H1481 H 0.97349 0.95783 0.56606 0.0
H1482 H 0.02389 0.92146 0.33157 0.0
H1483 H 0.04443 0.9131 0.39473 0.0
H1484 H 0.04503 0.94229 0.36247 0.0
H1485 H 0.94265 0.92964 0.49053 0.0
H1486 H 0.95541 0.91722 0.56285 0.0
H1487 H 0.95584 0.90101 0.48545 0.0
C1488 C 0.64357 0.9903 0.30747 0.0
C1489 C 0.66659 0.99312 0.33098 0.0
C1490 C 0.62394 0.99468 0.348 0.0
C1491 C 0.62687 1.00219 0.41489 0.0
C1492 C 0.6501 1.00572 0.43857 0.0
C1493 C 0.66958 1.00121 0.39661 0.0
C1494 C 0.60004 0.99014 0.31937 0.0
C1495 C 0.65443 0.01395 0.50877 0.0
C1496 C 0.57553 0.03494 0.49693 0.0
C1497 C 0.56514 0.01794 0.53736 0.0
C1498 C 0.5954 0.03005 0.45769 0.0
C1499 C 0.60565 1.00744 0.45823 0.0
C1500 C 0.59499 0.98997 0.49827 0.0
C1501 C 0.57517 0.9955 0.53798 0.0
C1502 C 0.60547 0.04924 0.41543 0.0
C1503 C 0.60477 0.96551 0.50033 0.0
H1504 H 0.64081 0.98429 0.25678 0.0
H1505 H 0.68716 1.00333 0.41589 0.0
H1506 H 0.59386 0.97309 0.33835 0.0
H1507 H 0.58743 1.00388 0.33483 0.0
H1508 H 0.60025 0.98916 0.26419 0.0
H1509 H 0.67332 0.01631 0.51977 0.0
H1510 H 0.64531 0.03082 0.51757 0.0
H1511 H 0.64718 1.00098 0.5438 0.0
H1512 H 0.5682 0.05245 0.49671 0.0
H1513 H 0.5679 0.98241 0.57063 0.0
H1514 H 0.60489 0.04391 0.36226 0.0
H1515 H 0.62407 0.05218 0.42874 0.0
H1516 H 0.59586 0.06602 0.4213 0.0
H1517 H 0.60838 0.95892 0.44934 0.0
H1518 H 0.59265 0.95316 0.52502 0.0
H1519 H 0.62156 0.96569 0.52804 0.0
C1520 C 0.54477 0.68215 0.39227 0.0
C1521 C 0.54531 0.67672 0.32409 0.0
C1522 C 0.53877 0.66499 0.43977 0.0
C1523 C 0.53335 0.64179 0.41871 0.0
C1524 C 0.53275 0.63669 0.34963 0.0
C1525 C 0.53865 0.65413 0.30357 0.0
C1526 C 0.53948 0.67134 0.51268 0.0
C1527 C 0.5273 0.61234 0.32427 0.0
C1528 C 0.54628 0.58858 0.52713 0.0
C1529 C 0.52382 0.58102 0.5452 0.0
C1530 C 0.54965 0.60876 0.48851 0.0
C1531 C 0.53014 0.62225 0.46796 0.0
C1532 C 0.50753 0.61554 0.48952 0.0
C1533 C 0.50463 0.59503 0.52754 0.0
C1534 C 0.57411 0.61492 0.46693 0.0
C1535 C 0.48624 0.62949 0.47006 0.0
H1536 H 0.55032 0.69939 0.40872 0.0
H1537 H 0.5393 0.64971 0.25105 0.0
H1538 H 0.52361 0.66485 0.53813 0.0
H1539 H 0.55478 0.66283 0.53639 0.0
H1540 H 0.54086 0.69055 0.52083 0.0
H1541 H 0.52613 0.61153 0.26916 0.0
H1542 H 0.54116 0.60007 0.34072 0.0
H1543 H 0.51055 0.60612 0.34528 0.0
H1544 H 0.56135 0.57833 0.54166 0.0
H1545 H 0.48719 0.58959 0.54146 0.0
H1546 H 0.57801 0.63346 0.47932 0.0
H1547 H 0.57556 0.61287 0.41218 0.0
H1548 H 0.58754 0.60366 0.49065 0.0
H1549 H 0.48915 0.64839 0.48001 0.0
H1550 H 0.47036 0.6238 0.49715 0.0
H1551 H 0.48301 0.62738 0.41593 0.0
C1552 C 0.84824 0.56226 0.40218 0.0
C1553 C 0.83906 0.54642 0.35479 0.0
C1554 C 0.86669 0.55607 0.44536 0.0
C1555 C 0.87628 0.5332 0.44279 0.0
C1556 C 0.8656 0.51645 0.39959 0.0
C1557 C 0.84732 0.52326 0.35582 0.0
C1558 C 0.87708 0.57462 0.49037 0.0
C1559 C 0.87441 0.4916 0.39688 0.0
C1560 C 0.9421 0.52837 0.47734 0.0
C1561 C 0.94325 0.52244 0.54475 0.0
C1562 C 0.92063 0.53162 0.44408 0.0
C1563 C 0.89923 0.52803 0.47799 0.0
C1564 C 0.90022 0.52082 0.54558 0.0
C1565 C 0.92214 0.51818 0.57807 0.0
C1566 C 0.92094 0.53957 0.37267 0.0
C1567 C 0.87822 0.51647 0.58458 0.0
H1568 H 0.84197 0.58017 0.40236 0.0
H1569 H 0.8406 0.51084 0.31953 0.0
H1570 H 0.87772 0.5683 0.54228 0.0
H1571 H 0.89531 0.57831 0.47495 0.0
H1572 H 0.86699 0.59123 0.48931 0.0
H1573 H 0.86218 0.47986 0.36959 0.0
H1574 H 0.89158 0.49108 0.37147 0.0
H1575 H 0.87702 0.48481 0.44792 0.0
H1576 H 0.95812 0.53018 0.44989 0.0
H1577 H 0.92272 0.51326 0.62997 0.0
H1578 H 0.91192 0.55671 0.36856 0.0
H1579 H 0.91136 0.52691 0.34068 0.0
H1580 H 0.93897 0.54145 0.35312 0.0
H1581 H 0.87149 0.53336 0.60422 0.0
H1582 H 0.88157 0.50485 0.6276 0.0
H1583 H 0.86442 0.50851 0.55282 0.0
loop_
_geom_bond_atom_site_label_1
_geom_bond_atom_site_label_2
_geom_bond_distance
_geom_bond_site_symmetry_2
_ccdc_geom_bond_type
C0 C1 1.391 . S
C0 C4 1.391 . S
C0 H42 0.948 . S
C1 C0 1.391 . S
C1 C2 1.391 . S
C2 C1 1.391 . S
C2 H58 0.947 . S
C2 C59 1.392 . S
C3 C4 1.391 . S
C3 C7 1.397 . S
C3 C59 1.419 . S
C4 C0 1.391 . S
C4 C3 1.391 . S
C4 C5 1.399 . S
C5 C4 1.399 . S
C5 C8 1.396 . S
C5 C17 1.453 . S
C5 C18 1.684 . S
H6 C30 0.948 . S
C7 C3 1.397 . S
C7 C8 1.394 . S
C7 C26 1.723 . S
C8 C5 1.396 . S
C8 C7 1.394 . S
C8 C38 1.723 . S
H9 C32 0.947 . S
H10 C33 0.948 . S
H11 C39 0.982 . S
H12 C40 0.979 . S
H13 C40 0.980 . S
H14 C40 0.983 . S
H15 C39 0.979 . S
H16 C39 0.977 . S
C17 C5 1.453 . S
C17 H46 0.982 . S
C17 H47 0.979 . S
C17 H48 0.977 . S
C18 C5 1.684 . S
C18 H43 0.979 . S
C18 H44 0.980 . S
C18 H45 0.983 . S
C19 C20 1.396 . S
C19 C24 1.391 . S
C19 H49 0.948 . S
C20 C19 1.396 . S
C20 C21 1.390 1_554 S
C21 C20 1.390 1_556 S
C21 C22 1.392 1_556 S
C21 H50 0.947 . S
C22 C21 1.392 1_554 S
C22 C23 1.419 . S
C22 H51 0.948 . S
C23 C22 1.419 . S
C23 C24 1.391 . S
C23 C27 1.397 . S
C24 C19 1.391 . S
C24 C23 1.391 . S
C24 C25 1.399 . S
C25 C24 1.399 . S
C25 C26 1.396 . S
C25 C28 1.453 . S
C25 C29 1.684 . S
C26 C7 1.723 . S
C26 C25 1.396 . S
C26 C27 1.394 . S
C27 C23 1.397 . S
C27 C26 1.394 . S
C27 C37 1.723 . S
C28 C25 1.453 . S
C28 H52 0.982 . S
C28 H53 0.979 . S
C28 H54 0.977 . S
C29 C25 1.684 . S
C29 H55 0.979 . S
C29 H56 0.980 . S
C29 H57 0.983 . S
C30 H6 0.948 . S
C30 C31 1.391 . S
C30 C35 1.391 . S
C31 C30 1.391 . S
C31 C32 1.391 . S
C32 H9 0.947 . S
C32 C31 1.391 . S
C32 C33 1.392 . S
C33 H10 0.948 . S
C33 C32 1.392 . S
C33 C34 1.419 . S
C34 C33 1.419 . S
C34 C35 1.391 . S
C34 C38 1.397 . S
C35 C30 1.391 . S
C35 C34 1.391 . S
C35 C36 1.399 . S
C36 C35 1.399 . S
C36 C37 1.396 . S
C36 C39 1.453 . S
C36 C40 1.684 . S
C37 C27 1.723 . S
C37 C36 1.396 . S
C37 C38 1.394 . S
C38 C8 1.723 . S
C38 C34 1.397 . S
C38 C37 1.394 . S
C39 H11 0.982 . S
C39 H15 0.979 . S
C39 H16 0.977 . S
C39 C36 1.453 . S
C40 H12 0.979 . S
C40 H13 0.980 . S
C40 H14 0.983 . S
C40 C36 1.684 . S
H41 C59 0.948 . S
H42 C0 0.948 . S
H43 C18 0.979 . S
H44 C18 0.980 . S
H45 C18 0.983 . S
H46 C17 0.982 . S
H47 C17 0.979 . S
H48 C17 0.977 . S
H49 C19 0.948 . S
H50 C21 0.947 . S
H51 C22 0.948 . S
H52 C28 0.982 . S
H53 C28 0.979 . S
H54 C28 0.977 . S
H55 C29 0.979 . S
H56 C29 0.980 . S
H57 C29 0.983 . S
H58 C2 0.947 . S
C59 C2 1.392 . S
C59 C3 1.419 . S
C59 H41 0.948 . S
C60 C61 1.391 . S
C60 C64 1.391 . S
C60 H102 0.948 1_554 S
C61 C60 1.391 . S
C61 C62 1.391 . S
C62 C61 1.391 . S
C62 H118 0.947 . S
C62 C119 1.392 . S
C63 C64 1.391 . S
C63 C67 1.397 . S
C63 C119 1.419 . S
C64 C60 1.391 . S
C64 C63 1.391 . S
C64 C65 1.399 . S
C65 C64 1.399 . S
C65 C68 1.396 . S
C65 C77 1.453 . S
C65 C78 1.684 . S
H66 C90 0.948 . S
C67 C63 1.397 . S
C67 C68 1.394 . S
C67 C86 1.723 . S
C68 C65 1.396 . S
C68 C67 1.394 . S
C68 C98 1.723 . S
H69 C92 0.947 . S
H70 C93 0.948 . S
H71 C99 0.982 . S
H72 C100 0.979 . S
H73 C100 0.980 . S
H74 C100 0.983 . S
H75 C99 0.979 . S
H76 C99 0.977 . S
C77 C65 1.453 . S
C77 H106 0.982 . S
C77 H107 0.979 1_554 S
C77 H108 0.977 . S
C78 C65 1.684 . S
C78 H103 0.979 . S
C78 H104 0.980 . S
C78 H105 0.983 1_554 S
C79 C80 1.391 . S
C79 C84 1.391 . S
C79 H109 0.948 . S
C80 C79 1.391 . S
C80 C81 1.391 . S
C81 C80 1.391 . S
C81 C82 1.392 . S
C81 H110 0.947 . S
C82 C81 1.392 . S
C82 C83 1.419 . S
C82 H111 0.948 . S
C83 C82 1.419 . S
C83 C84 1.391 . S
C83 C87 1.397 . S
C84 C79 1.391 . S
C84 C83 1.391 . S
C84 C85 1.399 . S
C85 C84 1.399 . S
C85 C86 1.396 . S
C85 C88 1.453 . S
C85 C89 1.684 . S
C86 C67 1.723 . S
C86 C85 1.396 . S
C86 C87 1.394 . S
C87 C83 1.397 . S
C87 C86 1.394 . S
C87 C97 1.723 . S
C88 C85 1.453 . S
C88 H112 0.982 . S
C88 H113 0.979 . S
C88 H114 0.977 . S
C89 C85 1.684 . S
C89 H115 0.979 . S
C89 H116 0.980 . S
C89 H117 0.983 . S
C90 H66 0.948 . S
C90 C91 1.391 . S
C90 C95 1.391 . S
C91 C90 1.391 . S
C91 C92 1.391 . S
C92 H69 0.947 . S
C92 C91 1.391 . S
C92 C93 1.392 . S
C93 H70 0.948 . S
C93 C92 1.392 . S
C93 C94 1.419 . S
C94 C93 1.419 . S
C94 C95 1.391 . S
C94 C98 1.397 . S
C95 C90 1.391 . S
C95 C94 1.391 . S
C95 C96 1.399 . S
C96 C95 1.399 . S
C96 C97 1.396 . S
C96 C99 1.453 . S
C96 C100 1.684 . S
C97 C87 1.723 . S
C97 C96 1.396 . S
C97 C98 1.394 . S
C98 C68 1.723 . S
C98 C94 1.397 . S
C98 C97 1.394 . S
C99 H71 0.982 . S
C99 H75 0.979 . S
C99 H76 0.977 . S
C99 C96 1.453 . S
C100 H72 0.979 . S
C100 H73 0.980 . S
C100 H74 0.983 . S
C100 C96 1.684 . S
H101 C119 0.948 . S
H102 C60 0.948 1_556 S
H103 C78 0.979 . S
H104 C78 0.980 . S
H105 C78 0.983 1_556 S
H106 C77 0.982 . S
H107 C77 0.979 1_556 S
H108 C77 0.977 . S
H109 C79 0.948 . S
H110 C81 0.947 . S
H111 C82 0.948 . S
H112 C88 0.982 . S
H113 C88 0.979 . S
H114 C88 0.977 . S
H115 C89 0.979 . S
H116 C89 0.980 . S
H117 C89 0.983 . S
H118 C62 0.947 . S
C119 C62 1.392 . S
C119 C63 1.419 . S
C119 H101 0.948 . S
C120 C121 1.391 . S
C120 C124 1.391 . S
C120 H162 0.948 . S
C121 C120 1.391 . S
C121 C122 1.391 . S
C122 C121 1.391 . S
C122 H178 0.947 . S
C122 C179 1.392 . S
C123 C124 1.391 . S
C123 C127 1.397 . S
C123 C179 1.419 . S
C124 C120 1.391 . S
C124 C123 1.391 . S
C124 C125 1.399 . S
C125 C124 1.399 . S
C125 C128 1.396 . S
C125 C137 1.453 . S
C125 C138 1.684 . S
H126 C150 0.948 . S
C127 C123 1.397 . S
C127 C128 1.394 . S
C127 C146 1.723 . S
C128 C125 1.396 . S
C128 C127 1.394 . S
C128 C158 1.723 . S
H129 C152 0.947 . S
H130 C153 0.948 . S
H131 C159 0.982 . S
H132 C160 0.979 . S
H133 C160 0.980 . S
H134 C160 0.983 . S
H135 C159 0.979 . S
H136 C159 0.977 . S
C137 C125 1.453 . S
C137 H166 0.982 . S
C137 H167 0.979 . S
C137 H168 0.977 . S
C138 C125 1.684 . S
C138 H163 0.979 . S
C138 H164 0.980 . S
C138 H165 0.983 . S
C139 C140 1.391 . S
C139 C144 1.391 . S
C139 H169 0.948 1_554 S
C140 C139 1.391 . S
C140 C141 1.391 . S
C141 C140 1.391 . S
C141 C142 1.392 . S
C141 H170 0.947 . S
C142 C141 1.392 . S
C142 C143 1.419 . S
C142 H171 0.948 . S
C143 C142 1.419 . S
C143 C144 1.391 . S
C143 C147 1.397 . S
C144 C139 1.391 . S
C144 C143 1.391 . S
C144 C145 1.399 . S
C145 C144 1.399 . S
C145 C146 1.396 . S
C145 C148 1.453 . S
C145 C149 1.684 . S
C146 C127 1.723 . S
C146 C145 1.396 . S
C146 C147 1.394 . S
C147 C143 1.397 . S
C147 C146 1.394 . S
C147 C157 1.723 . S
C148 C145 1.453 . S
C148 H172 0.982 . S
C148 H173 0.979 1_554 S
C148 H174 0.977 . S
C149 C145 1.684 . S
C149 H175 0.979 . S
C149 H176 0.980 . S
C149 H177 0.983 1_554 S
C150 H126 0.948 . S
C150 C151 1.391 . S
C150 C155 1.391 . S
C151 C150 1.391 . S
C151 C152 1.391 . S
C152 H129 0.947 . S
C152 C151 1.391 . S
C152 C153 1.392 . S
C153 H130 0.948 . S
C153 C152 1.392 . S
C153 C154 1.419 . S
C154 C153 1.419 . S
C154 C155 1.391 . S
C154 C158 1.397 . S
C155 C150 1.391 . S
C155 C154 1.391 . S
C155 C156 1.399 . S
C156 C155 1.399 . S
C156 C157 1.396 . S
C156 C159 1.453 . S
C156 C160 1.684 . S
C157 C147 1.723 . S
C157 C156 1.396 . S
C157 C158 1.394 . S
C158 C128 1.723 . S
C158 C154 1.397 . S
C158 C157 1.394 . S
C159 H131 0.982 . S
C159 H135 0.979 . S
C159 H136 0.977 . S
C159 C156 1.453 . S
C160 H132 0.979 . S
C160 H133 0.980 . S
C160 H134 0.983 . S
C160 C156 1.684 . S
H161 C179 0.948 . S
H162 C120 0.948 . S
H163 C138 0.979 . S
H164 C138 0.980 . S
H165 C138 0.983 . S
H166 C137 0.982 . S
H167 C137 0.979 . S
H168 C137 0.977 . S
H169 C139 0.948 1_556 S
H170 C141 0.947 . S
H171 C142 0.948 . S
H172 C148 0.982 . S
H173 C148 0.979 1_556 S
H174 C148 0.977 . S
H175 C149 0.979 . S
H176 C149 0.980 . S
H177 C149 0.983 1_556 S
H178 C122 0.947 . S
C179 C122 1.392 . S
C179 C123 1.419 . S
C179 H161 0.948 . S
C180 C181 1.391 . S
C180 C184 1.391 . S
C180 H222 0.948 . S
C181 C180 1.391 . S
C181 C182 1.391 . S
C182 C181 1.391 . S
C182 H238 0.947 . S
C182 C239 1.392 . S
C183 C184 1.391 . S
C183 C187 1.397 . S
C183 C239 1.419 . S
C184 C180 1.391 . S
C184 C183 1.391 . S
C184 C185 1.399 . S
C185 C184 1.399 . S
C185 C188 1.396 . S
C185 C197 1.453 . S
C185 C198 1.684 . S
H186 C210 0.948 . S
C187 C183 1.397 . S
C187 C188 1.394 . S
C187 C206 1.723 . S
C188 C185 1.396 . S
C188 C187 1.394 . S
C188 C218 1.723 . S
H189 C212 0.947 . S
H190 C213 0.948 . S
H191 C219 0.982 . S
H192 C220 0.979 . S
H193 C220 0.980 . S
H194 C220 0.983 . S
H195 C219 0.979 . S
H196 C219 0.977 . S
C197 C185 1.453 . S
C197 H226 0.982 . S
C197 H227 0.979 . S
C197 H228 0.977 . S
C198 C185 1.684 . S
C198 H223 0.979 . S
C198 H224 0.980 . S
C198 H225 0.983 . S
C199 C200 1.391 . S
C199 C204 1.391 . S
C199 H229 0.948 . S
C200 C199 1.391 . S
C200 C201 1.391 1_554 S
C201 C200 1.391 1_556 S
C201 C202 1.392 1_556 S
C201 H230 0.947 . S
C202 C201 1.392 1_554 S
C202 C203 1.419 . S
C202 H231 0.948 . S
C203 C202 1.419 . S
C203 C204 1.391 . S
C203 C207 1.397 . S
C204 C199 1.391 . S
C204 C203 1.391 . S
C204 C205 1.399 . S
C205 C204 1.399 . S
C205 C206 1.396 . S
C205 C208 1.453 . S
C205 C209 1.684 . S
C206 C187 1.723 . S
C206 C205 1.396 . S
C206 C207 1.394 . S
C207 C203 1.397 . S
C207 C206 1.394 . S
C207 C217 1.723 . S
C208 C205 1.453 . S
C208 H232 0.982 . S
C208 H233 0.979 . S
C208 H234 0.977 . S
C209 C205 1.684 . S
C209 H235 0.979 . S
C209 H236 0.980 . S
C209 H237 0.983 . S
C210 H186 0.948 . S
C210 C211 1.391 . S
C210 C215 1.391 . S
C211 C210 1.391 . S
C211 C212 1.391 . S
C212 H189 0.947 . S
C212 C211 1.391 . S
C212 C213 1.392 . S
C213 H190 0.948 . S
C213 C212 1.392 . S
C213 C214 1.419 . S
C214 C213 1.419 . S
C214 C215 1.391 . S
C214 C218 1.397 . S
C215 C210 1.391 . S
C215 C214 1.391 . S
C215 C216 1.399 . S
C216 C215 1.399 . S
C216 C217 1.396 . S
C216 C219 1.453 . S
C216 C220 1.684 . S
C217 C207 1.723 . S
C217 C216 1.396 . S
C217 C218 1.394 . S
C218 C188 1.723 . S
C218 C214 1.397 . S
C218 C217 1.394 . S
C219 H191 0.982 . S
C219 H195 0.979 . S
C219 H196 0.977 . S
C219 C216 1.453 . S
C220 H192 0.979 . S
C220 H193 0.980 . S
C220 H194 0.983 . S
C220 C216 1.684 . S
H221 C239 0.948 . S
H222 C180 0.948 . S
H223 C198 0.979 . S
H224 C198 0.980 . S
H225 C198 0.983 . S
H226 C197 0.982 . S
H227 C197 0.979 . S
H228 C197 0.977 . S
H229 C199 0.948 . S
H230 C201 0.947 . S
H231 C202 0.948 . S
H232 C208 0.982 . S
H233 C208 0.979 . S
H234 C208 0.977 . S
H235 C209 0.979 . S
H236 C209 0.980 . S
H237 C209 0.983 . S
H238 C182 0.947 . S
C239 C182 1.392 . S
C239 C183 1.419 . S
C239 H221 0.948 . S
C240 C241 1.391 . S
C240 C244 1.391 . S
C240 H282 0.948 1_554 S
C241 C240 1.391 . S
C241 C242 1.391 . S
C242 C241 1.391 . S
C242 H298 0.947 . S
C242 C299 1.392 . S
C243 C244 1.391 . S
C243 C247 1.397 . S
C243 C299 1.419 . S
C244 C240 1.391 . S
C244 C243 1.391 . S
C244 C245 1.399 1_554 S
C245 C244 1.399 1_556 S
C245 C248 1.396 . S
C245 C257 1.453 . S
C245 C258 1.684 . S
H246 C270 0.948 . S
C247 C243 1.397 . S
C247 C248 1.394 1_554 S
C247 C266 1.723 . S
C248 C245 1.396 . S
C248 C247 1.394 1_556 S
C248 C278 1.723 . S
H249 C272 0.947 . S
H250 C273 0.948 . S
H251 C279 0.982 . S
H252 C280 0.979 . S
H253 C280 0.980 . S
H254 C280 0.983 . S
H255 C279 0.979 . S
H256 C279 0.977 . S
C257 C245 1.453 . S
C257 H286 0.982 . S
C257 H287 0.979 . S
C257 H288 0.977 . S
C258 C245 1.684 . S
C258 H283 0.979 . S
C258 H284 0.980 . S
C258 H285 0.983 . S
C259 C260 1.391 . S
C259 C264 1.391 . S
C259 H289 0.948 . S
C260 C259 1.391 . S
C260 C261 1.391 . S
C261 C260 1.391 . S
C261 C262 1.392 . S
C261 H290 0.947 . S
C262 C261 1.392 . S
C262 C263 1.419 . S
C262 H291 0.948 . S
C263 C262 1.419 . S
C263 C264 1.391 . S
C263 C267 1.397 . S
C264 C259 1.391 . S
C264 C263 1.391 . S
C264 C265 1.399 . S
C265 C264 1.399 . S
C265 C266 1.396 . S
C265 C268 1.453 . S
C265 C269 1.684 . S
C266 C247 1.723 . S
C266 C265 1.396 . S
C266 C267 1.394 . S
C267 C263 1.397 . S
C267 C266 1.394 . S
C267 C277 1.723 1_554 S
C268 C265 1.453 . S
C268 H292 0.982 . S
C268 H293 0.979 . S
C268 H294 0.977 . S
C269 C265 1.684 . S
C269 H295 0.979 . S
C269 H296 0.980 . S
C269 H297 0.983 . S
C270 H246 0.948 . S
C270 C271 1.391 . S
C270 C275 1.391 . S
C271 C270 1.391 . S
C271 C272 1.391 . S
C272 H249 0.947 . S
C272 C271 1.391 . S
C272 C273 1.392 . S
C273 H250 0.948 . S
C273 C272 1.392 . S
C273 C274 1.419 . S
C274 C273 1.419 . S
C274 C275 1.391 . S
C274 C278 1.397 . S
C275 C270 1.391 . S
C275 C274 1.391 . S
C275 C276 1.399 . S
C276 C275 1.399 . S
C276 C277 1.396 . S
C276 C279 1.453 . S
C276 C280 1.684 . S
C277 C267 1.723 1_556 S
C277 C276 1.396 . S
C277 C278 1.394 . S
C278 C248 1.723 . S
C278 C274 1.397 . S
C278 C277 1.394 . S
C279 H251 0.982 . S
C279 H255 0.979 . S
C279 H256 0.977 . S
C279 C276 1.453 . S
C280 H252 0.979 . S
C280 H253 0.980 . S
C280 H254 0.983 . S
C280 C276 1.684 . S
H281 C299 0.948 . S
H282 C240 0.948 1_556 S
H283 C258 0.979 . S
H284 C258 0.980 . S
H285 C258 0.983 . S
H286 C257 0.982 . S
H287 C257 0.979 . S
H288 C257 0.977 . S
H289 C259 0.948 . S
H290 C261 0.947 . S
H291 C262 0.948 . S
H292 C268 0.982 . S
H293 C268 0.979 . S
H294 C268 0.977 . S
H295 C269 0.979 . S
H296 C269 0.980 . S
H297 C269 0.983 . S
H298 C242 0.947 . S
C299 C242 1.392 . S
C299 C243 1.419 . S
C299 H281 0.948 . S
C300 C301 1.391 . S
C300 C304 1.391 . S
C300 H342 0.948 . S
C301 C300 1.391 . S
C301 C302 1.391 . S
C302 C301 1.391 . S
C302 H358 0.947 . S
C302 C359 1.392 . S
C303 C304 1.391 . S
C303 C307 1.397 . S
C303 C359 1.419 . S
C304 C300 1.391 . S
C304 C303 1.391 . S
C304 C305 1.399 . S
C305 C304 1.399 . S
C305 C308 1.396 . S
C305 C317 1.453 . S
C305 C318 1.684 . S
H306 C330 0.948 1_556 S
C307 C303 1.397 . S
C307 C308 1.394 . S
C307 C326 1.723 1_554 S
C308 C305 1.396 . S
C308 C307 1.394 . S
C308 C338 1.723 . S
H309 C332 0.947 . S
H310 C333 0.948 . S
H311 C339 0.982 . S
H312 C340 0.979 . S
H313 C340 0.980 . S
H314 C340 0.983 . S
H315 C339 0.979 . S
H316 C339 0.977 . S
C317 C305 1.453 . S
C317 H346 0.982 . S
C317 H347 0.979 . S
C317 H348 0.977 . S
C318 C305 1.684 . S
C318 H343 0.979 . S
C318 H344 0.980 . S
C318 H345 0.983 . S
C319 C320 1.391 . S
C319 C324 1.391 . S
C319 H349 0.948 . S
C320 C319 1.391 . S
C320 C321 1.391 . S
C321 C320 1.391 . S
C321 C322 1.392 . S
C321 H350 0.947 . S
C322 C321 1.392 . S
C322 C323 1.419 . S
C322 H351 0.948 . S
C323 C322 1.419 . S
C323 C324 1.391 . S
C323 C327 1.397 . S
C324 C319 1.391 . S
C324 C323 1.391 . S
C324 C325 1.399 . S
C325 C324 1.399 . S
C325 C326 1.396 . S
C325 C328 1.453 . S
C325 C329 1.684 . S
C326 C307 1.723 1_556 S
C326 C325 1.396 . S
C326 C327 1.394 . S
C327 C323 1.397 . S
C327 C326 1.394 . S
C327 C337 1.723 . S
C328 C325 1.453 . S
C328 H352 0.982 . S
C328 H353 0.979 . S
C328 H354 0.977 . S
C329 C325 1.684 . S
C329 H355 0.979 . S
C329 H356 0.980 . S
C329 H357 0.983 . S
C330 H306 0.948 1_554 S
C330 C331 1.391 . S
C330 C335 1.391 . S
C331 C330 1.391 . S
C331 C332 1.391 . S
C332 H309 0.947 . S
C332 C331 1.391 . S
C332 C333 1.392 . S
C333 H310 0.948 . S
C333 C332 1.392 . S
C333 C334 1.419 . S
C334 C333 1.419 . S
C334 C335 1.391 . S
C334 C338 1.397 . S
C335 C330 1.391 . S
C335 C334 1.391 . S
C335 C336 1.399 1_554 S
C336 C335 1.399 1_556 S
C336 C337 1.396 . S
C336 C339 1.453 . S
C336 C340 1.684 . S
C337 C327 1.723 . S
C337 C336 1.396 . S
C337 C338 1.394 1_556 S
C338 C308 1.723 . S
C338 C334 1.397 . S
C338 C337 1.394 1_554 S
C339 H311 0.982 . S
C339 H315 0.979 . S
C339 H316 0.977 . S
C339 C336 1.453 . S
C340 H312 0.979 . S
C340 H313 0.980 . S
C340 H314 0.983 . S
C340 C336 1.684 . S
H341 C359 0.948 . S
H342 C300 0.948 . S
H343 C318 0.979 . S
H344 C318 0.980 . S
H345 C318 0.983 . S
H346 C317 0.982 . S
H347 C317 0.979 . S
H348 C317 0.977 . S
H349 C319 0.948 . S
H350 C321 0.947 . S
H351 C322 0.948 . S
H352 C328 0.982 . S
H353 C328 0.979 . S
H354 C328 0.977 . S
H355 C329 0.979 . S
H356 C329 0.980 . S
H357 C329 0.983 . S
H358 C302 0.947 . S
C359 C302 1.392 . S
C359 C303 1.419 . S
C359 H341 0.948 . S
C360 C361 1.391 . S
C360 C364 1.391 . S
C360 H402 0.948 . S
C361 C360 1.391 . S
C361 C362 1.391 . S
C362 C361 1.391 . S
C362 H418 0.947 . S
C362 C419 1.392 . S
C363 C364 1.391 . S
C363 C367 1.397 . S
C363 C419 1.419 . S
C364 C360 1.391 . S
C364 C363 1.391 . S
C364 C365 1.399 . S
C365 C364 1.399 . S
C365 C368 1.396 . S
C365 C377 1.453 . S
C365 C378 1.684 . S
H366 C390 0.948 . S
C367 C363 1.397 . S
C367 C368 1.394 . S
C367 C386 1.723 1_556 S
C368 C365 1.396 . S
C368 C367 1.394 . S
C368 C398 1.723 1_556 S
H369 C392 0.942 1_556 S
H370 C393 0.948 . S
H371 C399 0.982 . S
H372 C400 0.979 . S
H373 C400 0.980 . S
H374 C400 0.983 . S
H375 C399 0.979 . S
H376 C399 0.977 . S
C377 C365 1.453 . S
C377 H406 0.982 . S
C377 H407 0.979 . S
C377 H408 0.977 . S
C378 C365 1.684 . S
C378 H403 0.979 . S
C378 H404 0.980 . S
C378 H405 0.983 . S
C379 C380 1.391 . S
C379 C384 1.391 . S
C379 H409 0.948 . S
C380 C379 1.391 . S
C380 C381 1.391 . S
C381 C380 1.391 . S
C381 C382 1.392 . S
C381 H410 0.947 . S
C382 C381 1.392 . S
C382 C383 1.419 . S
C382 H411 0.948 . S
C383 C382 1.419 . S
C383 C384 1.391 . S
C383 C387 1.397 . S
C384 C379 1.391 . S
C384 C383 1.391 . S
C384 C385 1.399 . S
C385 C384 1.399 . S
C385 C386 1.396 . S
C385 C388 1.453 . S
C385 C389 1.684 . S
C386 C367 1.723 1_554 S
C386 C385 1.396 . S
C386 C387 1.394 . S
C387 C383 1.397 . S
C387 C386 1.394 . S
C387 C397 1.723 . S
C388 C385 1.453 . S
C388 H412 0.982 . S
C388 H413 0.979 . S
C388 H414 0.977 1_554 S
C389 C385 1.684 . S
C389 H415 0.979 . S
C389 H416 0.980 1_554 S
C389 H417 0.983 . S
C390 H366 0.948 . S
C390 C391 1.391 . S
C390 C395 1.391 . S
C391 C390 1.391 . S
C391 C392 1.399 . S
C392 H369 0.942 1_554 S
C392 C391 1.399 . S
C392 C393 1.389 1_554 S
C393 H370 0.948 . S
C393 C392 1.389 1_556 S
C393 C394 1.419 1_556 S
C394 C393 1.419 1_554 S
C394 C395 1.391 . S
C394 C398 1.397 . S
C395 C390 1.391 . S
C395 C394 1.391 . S
C395 C396 1.399 . S
C396 C395 1.399 . S
C396 C397 1.396 . S
C396 C399 1.453 . S
C396 C400 1.684 . S
C397 C387 1.723 . S
C397 C396 1.396 . S
C397 C398 1.394 . S
C398 C368 1.723 1_554 S
C398 C394 1.397 . S
C398 C397 1.394 . S
C399 H371 0.982 . S
C399 H375 0.979 . S
C399 H376 0.977 . S
C399 C396 1.453 . S
C400 H372 0.979 . S
C400 H373 0.980 . S
C400 H374 0.983 . S
C400 C396 1.684 . S
H401 C419 0.948 . S
H402 C360 0.948 . S
H403 C378 0.979 . S
H404 C378 0.980 . S
H405 C378 0.983 . S
H406 C377 0.982 . S
H407 C377 0.979 . S
H408 C377 0.977 . S
H409 C379 0.948 . S
H410 C381 0.947 . S
H411 C382 0.948 . S
H412 C388 0.982 . S
H413 C388 0.979 . S
H414 C388 0.977 1_556 S
H415 C389 0.979 . S
H416 C389 0.980 1_556 S
H417 C389 0.983 . S
H418 C362 0.947 . S
C419 C362 1.392 . S
C419 C363 1.419 . S
C419 H401 0.948 . S
C420 C421 1.391 . S
C420 C424 1.391 . S
C420 H462 0.948 . S
C421 C420 1.391 . S
C421 C422 1.391 . S
C422 C421 1.391 . S
C422 H478 0.947 . S
C422 C479 1.392 . S
C423 C424 1.391 . S
C423 C427 1.397 . S
C423 C479 1.419 . S
C424 C420 1.391 . S
C424 C423 1.391 . S
C424 C425 1.399 . S
C425 C424 1.399 . S
C425 C428 1.396 . S
C425 C437 1.453 . S
C425 C438 1.684 . S
H426 C450 0.948 . S
C427 C423 1.397 . S
C427 C428 1.394 . S
C427 C446 1.723 1_556 S
C428 C425 1.396 . S
C428 C427 1.394 . S
C428 C458 1.723 1_556 S
H429 C452 0.947 1_556 S
H430 C453 0.948 . S
H431 C459 0.982 . S
H432 C460 0.979 . S
H433 C460 0.980 . S
H434 C460 0.983 . S
H435 C459 0.979 . S
H436 C459 0.977 . S
C437 C425 1.453 . S
C437 H466 0.982 . S
C437 H467 0.979 . S
C437 H468 0.977 . S
C438 C425 1.684 . S
C438 H463 0.979 . S
C438 H464 0.980 . S
C438 H465 0.983 . S
C439 C440 1.391 . S
C439 C444 1.391 . S
C439 H469 0.948 . S
C440 C439 1.391 . S
C440 C441 1.391 . S
C441 C440 1.391 . S
C441 C442 1.392 . S
C441 H470 0.947 . S
C442 C441 1.392 . S
C442 C443 1.419 . S
C442 H471 0.948 . S
C443 C442 1.419 . S
C443 C444 1.391 . S
C443 C447 1.397 . S
C444 C439 1.391 . S
C444 C443 1.391 . S
C444 C445 1.399 . S
C445 C444 1.399 . S
C445 C446 1.396 . S
C445 C448 1.453 . S
C445 C449 1.684 . S
C446 C427 1.723 1_554 S
C446 C445 1.396 . S
C446 C447 1.394 . S
C447 C443 1.397 . S
C447 C446 1.394 . S
C447 C457 1.723 . S
C448 C445 1.453 . S
C448 H472 0.982 . S
C448 H473 0.979 . S
C448 H474 0.977 1_554 S
C449 C445 1.684 . S
C449 H475 0.979 . S
C449 H476 0.980 1_554 S
C449 H477 0.983 . S
C450 H426 0.948 . S
C450 C451 1.391 . S
C450 C455 1.391 . S
C451 C450 1.391 . S
C451 C452 1.391 . S
C452 H429 0.947 1_554 S
C452 C451 1.391 . S
C452 C453 1.392 1_554 S
C453 H430 0.948 . S
C453 C452 1.392 1_556 S
C453 C454 1.419 1_556 S
C454 C453 1.419 1_554 S
C454 C455 1.391 . S
C454 C458 1.397 . S
C455 C450 1.391 . S
C455 C454 1.391 . S
C455 C456 1.399 . S
C456 C455 1.399 . S
C456 C457 1.396 . S
C456 C459 1.453 . S
C456 C460 1.684 . S
C457 C447 1.723 . S
C457 C456 1.396 . S
C457 C458 1.394 . S
C458 C428 1.723 1_554 S
C458 C454 1.397 . S
C458 C457 1.394 . S
C459 H431 0.982 . S
C459 H435 0.979 . S
C459 H436 0.977 . S
C459 C456 1.453 . S
C460 H432 0.979 . S
C460 H433 0.980 . S
C460 H434 0.983 . S
C460 C456 1.684 . S
H461 C479 0.948 . S
H462 C420 0.948 . S
H463 C438 0.979 . S
H464 C438 0.980 . S
H465 C438 0.983 . S
H466 C437 0.982 . S
H467 C437 0.979 . S
H468 C437 0.977 . S
H469 C439 0.948 . S
H470 C441 0.947 . S
H471 C442 0.948 . S
H472 C448 0.982 . S
H473 C448 0.979 . S
H474 C448 0.977 1_556 S
H475 C449 0.979 . S
H476 C449 0.980 1_556 S
H477 C449 0.983 . S
H478 C422 0.947 . S
C479 C422 1.392 . S
C479 C423 1.419 . S
C479 H461 0.948 . S
Tb480 N511 2.660 1_565 S
Tb480 N518 2.600 . S
Tb480 O524 2.546 . S
Tb480 O525 2.610 1_455 S
Tb480 O527 2.320 1_455 S
Tb480 O528 2.552 . S
Tb480 O529 2.413 . S
Tb480 O531 2.362 1_565 S
Tb480 O532 2.421 . S
Tb480 C544 2.833 . S
C481 C484 1.432 1_545 S
C481 C485 1.414 . S
C481 N488 1.359 . S
C482 C484 1.417 . S
C482 C486 1.432 . S
C482 C494 1.410 . S
C483 C485 1.444 1_565 S
C483 C486 1.317 . S
C483 H506 0.929 . S
C484 C481 1.432 1_565 S
C484 C482 1.417 . S
C484 N492 1.361 . S
C485 C481 1.414 . S
C485 C483 1.444 1_545 S
C485 C490 1.385 . S
C486 C482 1.432 . S
C486 C483 1.317 . S
C486 H498 0.930 . S
C487 C489 1.392 . S
C487 C490 1.370 . S
C487 H499 0.931 . S
N488 C481 1.359 . S
N488 C489 1.327 . S
N488 Tb491 2.600 . S
C489 C487 1.392 . S
C489 N488 1.327 . S
C489 H496 0.930 . S
C490 C485 1.385 . S
C490 C487 1.370 . S
C490 H509 0.930 . S
Tb491 N488 2.600 . S
Tb491 N492 2.657 1_545 S
Tb491 O525 2.362 1_545 S
Tb491 O526 2.421 . S
Tb491 O530 2.546 . S
Tb491 O531 2.610 1_655 S
Tb491 O533 2.320 1_655 S
Tb491 O534 2.552 1_655 S
Tb491 O535 2.413 . S
Tb491 C555 2.833 . S
N492 C484 1.361 . S
N492 Tb491 2.657 1_565 S
N492 C493 1.268 1_655 S
C493 N492 1.268 1_455 S
C493 C495 1.406 1_455 S
C493 H500 0.975 . S
C494 C482 1.410 . S
C494 C495 1.353 . S
C494 H502 0.930 . S
C495 C493 1.406 1_655 S
C495 C494 1.353 . S
C495 H497 0.922 1_655 S
H496 C489 0.930 . S
H497 C495 0.922 1_455 S
H498 C486 0.930 . S
H499 C487 0.931 . S
H500 C493 0.975 . S
H501 C515 0.930 1_655 S
H502 C494 0.930 . S
H503 C521 0.930 . S
H504 C512 0.930 1_655 S
H505 C519 0.931 . S
H506 C483 0.929 . S
H507 C513 0.930 . S
H508 C546 0.930 . S
H509 C490 0.930 . S
H510 C545 0.929 . S
N511 Tb480 2.660 1_545 S
N511 C512 1.305 . S
N511 C516 1.360 . S
C512 H504 0.930 1_455 S
C512 N511 1.305 . S
C512 C515 1.407 . S
C513 H507 0.930 . S
C513 C514 1.410 . S
C513 C515 1.345 . S
C514 C513 1.410 . S
C514 C516 1.417 . S
C514 C546 1.432 . S
C515 H501 0.930 1_455 S
C515 C512 1.407 . S
C515 C513 1.345 . S
C516 N511 1.360 . S
C516 C514 1.417 . S
C516 C520 1.432 . S
H517 C522 0.927 1_545 S
N518 Tb480 2.600 . S
N518 C520 1.359 1_565 S
N518 C521 1.327 . S
C519 H505 0.931 . S
C519 C521 1.392 . S
C519 C522 1.389 . S
C520 C516 1.432 . S
C520 N518 1.359 1_545 S
C520 C523 1.414 . S
C521 H503 0.930 . S
C521 N518 1.327 . S
C521 C519 1.392 . S
C522 H517 0.927 1_565 S
C522 C519 1.389 . S
C522 C523 1.369 1_565 S
C523 C520 1.414 . S
C523 C522 1.369 1_545 S
C523 C545 1.444 . S
O524 Tb480 2.546 . S
O524 C544 1.251 . S
O525 Tb480 2.610 1_655 S
O525 Tb491 2.362 1_565 S
O525 C536 1.283 . S
O526 Tb491 2.421 . S
O526 C543 1.262 . S
O527 Tb480 2.320 1_655 S
O527 C543 1.260 1_565 S
O528 Tb480 2.552 . S
O528 C536 1.243 1_455 S
O529 Tb480 2.413 . S
O529 C544 1.256 . S
O530 Tb491 2.546 . S
O530 C555 1.251 . S
O531 Tb480 2.362 1_545 S
O531 Tb491 2.610 1_455 S
O531 C547 1.283 . S
O532 Tb480 2.421 . S
O532 C554 1.262 1_565 S
O533 Tb491 2.320 1_455 S
O533 C554 1.260 . S
O534 Tb491 2.552 1_455 S
O534 C547 1.243 . S
O535 Tb491 2.413 . S
O535 C555 1.256 . S
C536 O525 1.283 . S
C536 O528 1.243 1_655 S
C537 C539 1.382 . S
C537 C541 1.393 . S
C537 C544 1.500 . S
C538 C539 1.400 . S
C538 C540 1.384 . S
C539 C537 1.382 . S
C539 C538 1.400 . S
C539 H556 0.925 1_455 S
C540 C538 1.384 . S
C540 C542 1.392 . S
C540 H557 0.931 . S
C541 C537 1.393 . S
C541 C542 1.401 . S
C541 H558 0.930 . S
C542 C540 1.392 . S
C542 C541 1.401 . S
C542 H559 0.930 . S
C543 O526 1.262 . S
C543 O527 1.260 1_545 S
C544 Tb480 2.833 . S
C544 O524 1.251 . S
C544 O529 1.256 . S
C544 C537 1.500 . S
C545 H510 0.929 . S
C545 C523 1.444 . S
C545 C546 1.317 . S
C546 H508 0.930 . S
C546 C514 1.432 . S
C546 C545 1.317 . S
C547 O531 1.283 . S
C547 O534 1.243 . S
C548 C549 1.382 . S
C548 C552 1.393 . S
C548 C555 1.500 . S
C549 C548 1.382 . S
C549 C550 1.400 . S
C549 H560 0.930 1_655 S
C550 C549 1.400 . S
C550 C551 1.384 . S
C551 C550 1.384 . S
C551 C553 1.392 . S
C551 H561 0.931 . S
C552 C548 1.393 . S
C552 C553 1.401 . S
C552 H562 0.930 . S
C553 C551 1.392 . S
C553 C552 1.401 . S
C553 H563 0.930 . S
C554 O532 1.262 1_545 S
C554 O533 1.260 . S
C555 Tb491 2.833 . S
C555 O530 1.251 . S
C555 O535 1.256 . S
C555 C548 1.500 . S
H556 C539 0.925 1_655 S
H557 C540 0.931 . S
H558 C541 0.930 . S
H559 C542 0.930 . S
H560 C549 0.930 1_455 S
H561 C551 0.931 . S
H562 C552 0.930 . S
H563 C553 0.930 . S
Tb564 N595 2.660 . S
Tb564 N602 2.600 . S
Tb564 O608 2.546 . S
Tb564 O609 2.610 1_545 S
Tb564 O611 2.320 1_545 S
Tb564 O612 2.552 . S
Tb564 O613 2.413 . S
Tb564 O615 2.362 . S
Tb564 O616 2.421 . S
Tb564 C628 2.833 . S
C565 C568 1.432 . S
C565 C569 1.414 . S
C565 N572 1.359 . S
C566 C568 1.417 . S
C566 C570 1.432 . S
C566 C578 1.410 . S
C567 C569 1.444 . S
C567 C570 1.317 . S
C567 H590 0.929 . S
C568 C565 1.432 . S
C568 C566 1.417 . S
C568 N576 1.360 . S
C569 C565 1.414 . S
C569 C567 1.444 . S
C569 C574 1.385 . S
C570 C566 1.432 . S
C570 C567 1.317 . S
C570 H582 0.930 . S
C571 C573 1.392 . S
C571 C574 1.370 . S
C571 H583 0.931 . S
N572 C565 1.359 . S
N572 C573 1.327 . S
N572 Tb575 2.600 . S
C573 C571 1.392 . S
C573 N572 1.327 . S
C573 H580 0.930 . S
C574 C569 1.385 . S
C574 C571 1.370 . S
C574 H593 0.930 . S
Tb575 N572 2.600 . S
Tb575 N576 2.660 . S
Tb575 O609 2.362 . S
Tb575 O610 2.421 . S
Tb575 O614 2.546 . S
Tb575 O615 2.610 1_565 S
Tb575 O617 2.320 1_565 S
Tb575 O618 2.552 1_565 S
Tb575 O619 2.413 . S
Tb575 C639 2.833 . S
N576 C568 1.360 . S
N576 Tb575 2.660 . S
N576 C577 1.305 1_565 S
C577 N576 1.305 1_545 S
C577 C579 1.407 . S
C577 H584 0.930 . S
C578 C566 1.410 . S
C578 C579 1.345 1_565 S
C578 H586 0.930 . S
C579 C577 1.407 . S
C579 C578 1.345 1_545 S
C579 H581 0.930 . S
H580 C573 0.930 . S
H581 C579 0.930 . S
H582 C570 0.930 . S
H583 C571 0.931 . S
H584 C577 0.930 . S
H585 C599 0.930 1_565 S
H586 C578 0.930 . S
H587 C605 0.930 . S
H588 C596 0.930 1_565 S
H589 C603 0.931 . S
H590 C567 0.929 . S
H591 C597 0.930 . S
H592 C630 0.930 . S
H593 C574 0.930 . S
H594 C629 0.929 . S
N595 Tb564 2.660 . S
N595 C596 1.305 . S
N595 C600 1.360 . S
C596 H588 0.930 1_545 S
C596 N595 1.305 . S
C596 C599 1.407 . S
C597 H591 0.930 . S
C597 C598 1.410 . S
C597 C599 1.345 . S
C598 C597 1.410 . S
C598 C600 1.417 . S
C598 C630 1.432 . S
C599 H585 0.930 1_545 S
C599 C596 1.407 . S
C599 C597 1.345 . S
C600 N595 1.360 . S
C600 C598 1.417 . S
C600 C604 1.432 . S
H601 C606 0.930 . S
N602 Tb564 2.600 . S
N602 C604 1.359 . S
N602 C605 1.327 . S
C603 H589 0.931 . S
C603 C605 1.392 . S
C603 C606 1.370 . S
C604 C600 1.432 . S
C604 N602 1.359 . S
C604 C607 1.414 . S
C605 H587 0.930 . S
C605 N602 1.327 . S
C605 C603 1.392 . S
C606 H601 0.930 . S
C606 C603 1.370 . S
C606 C607 1.385 . S
C607 C604 1.414 . S
C607 C606 1.385 . S
C607 C629 1.444 . S
O608 Tb564 2.546 . S
O608 C628 1.251 . S
O609 Tb564 2.610 1_565 S
O609 Tb575 2.362 . S
O609 C620 1.283 . S
O610 Tb575 2.421 . S
O610 C627 1.262 . S
O611 Tb564 2.320 1_565 S
O611 C627 1.260 . S
O612 Tb564 2.552 . S
O612 C620 1.243 1_545 S
O613 Tb564 2.413 . S
O613 C628 1.256 . S
O614 Tb575 2.546 . S
O614 C639 1.251 . S
O615 Tb564 2.362 . S
O615 Tb575 2.610 1_545 S
O615 C631 1.283 . S
O616 Tb564 2.421 . S
O616 C638 1.262 . S
O617 Tb575 2.320 1_545 S
O617 C638 1.260 . S
O618 Tb575 2.552 1_545 S
O618 C631 1.243 . S
O619 Tb575 2.413 . S
O619 C639 1.256 . S
C620 O609 1.283 . S
C620 O612 1.243 1_565 S
C621 C623 1.382 . S
C621 C625 1.393 . S
C621 C628 1.500 . S
C622 C623 1.400 . S
C622 C624 1.384 . S
C623 C621 1.382 . S
C623 C622 1.400 . S
C623 H640 0.930 . S
C624 C622 1.384 . S
C624 C626 1.392 . S
C624 H641 0.931 . S
C625 C621 1.393 . S
C625 C626 1.401 . S
C625 H642 0.930 . S
C626 C624 1.392 . S
C626 C625 1.401 . S
C626 H643 0.930 . S
C627 O610 1.262 . S
C627 O611 1.260 . S
C628 Tb564 2.833 . S
C628 O608 1.251 . S
C628 O613 1.256 . S
C628 C621 1.500 . S
C629 H594 0.929 . S
C629 C607 1.444 . S
C629 C630 1.317 . S
C630 H592 0.930 . S
C630 C598 1.432 . S
C630 C629 1.317 . S
C631 O615 1.283 . S
C631 O618 1.243 . S
C632 C633 1.382 . S
C632 C636 1.393 . S
C632 C639 1.500 . S
C633 C632 1.382 . S
C633 C634 1.400 . S
C633 H644 0.930 1_565 S
C634 C633 1.400 . S
C634 C635 1.384 . S
C635 C634 1.384 . S
C635 C637 1.392 . S
C635 H645 0.931 . S
C636 C632 1.393 . S
C636 C637 1.401 . S
C636 H646 0.930 . S
C637 C635 1.392 . S
C637 C636 1.401 . S
C637 H647 0.930 . S
C638 O616 1.262 . S
C638 O617 1.260 . S
C639 Tb575 2.833 . S
C639 O614 1.251 . S
C639 O619 1.256 . S
C639 C632 1.500 . S
H640 C623 0.930 . S
H641 C624 0.931 . S
H642 C625 0.930 . S
H643 C626 0.930 . S
H644 C633 0.930 1_545 S
H645 C635 0.931 . S
H646 C636 0.930 . S
H647 C637 0.930 . S
Tb648 N679 2.660 . S
Tb648 N686 2.600 . S
Tb648 O692 2.546 . S
Tb648 O693 2.610 . S
Tb648 O695 2.320 . S
Tb648 O696 2.552 . S
Tb648 O697 2.413 . S
Tb648 O699 2.362 . S
Tb648 O700 2.421 . S
Tb648 C712 2.833 . S
C649 C652 1.432 . S
C649 C653 1.414 . S
C649 N656 1.359 . S
C650 C652 1.417 . S
C650 C654 1.432 . S
C650 C662 1.410 . S
C651 C653 1.444 . S
C651 C654 1.317 . S
C651 H674 0.929 . S
C652 C649 1.432 . S
C652 C650 1.417 . S
C652 N660 1.360 . S
C653 C649 1.414 . S
C653 C651 1.444 . S
C653 C658 1.385 . S
C654 C650 1.432 . S
C654 C651 1.317 . S
C654 H666 0.930 . S
C655 C657 1.392 . S
C655 C658 1.370 . S
C655 H667 0.931 . S
N656 C649 1.359 . S
N656 C657 1.327 . S
N656 Tb659 2.600 . S
C657 C655 1.392 . S
C657 N656 1.327 . S
C657 H664 0.930 . S
C658 C653 1.385 . S
C658 C655 1.370 . S
C658 H677 0.930 . S
Tb659 N656 2.600 . S
Tb659 N660 2.660 . S
Tb659 O693 2.362 . S
Tb659 O694 2.421 . S
Tb659 O698 2.546 . S
Tb659 O699 2.610 . S
Tb659 O701 2.320 . S
Tb659 O702 2.552 . S
Tb659 O703 2.413 . S
Tb659 C723 2.833 . S
N660 C652 1.360 . S
N660 Tb659 2.660 . S
N660 C661 1.305 . S
C661 N660 1.305 . S
C661 C663 1.407 . S
C661 H668 0.930 . S
C662 C650 1.410 . S
C662 C663 1.345 . S
C662 H670 0.930 . S
C663 C661 1.407 . S
C663 C662 1.345 . S
C663 H665 0.930 . S
H664 C657 0.930 . S
H665 C663 0.930 . S
H666 C654 0.930 . S
H667 C655 0.931 . S
H668 C661 0.930 . S
H669 C683 0.930 . S
H670 C662 0.930 . S
H671 C689 0.930 . S
H672 C680 0.930 . S
H673 C687 0.931 . S
H674 C651 0.929 . S
H675 C681 0.930 . S
H676 C714 0.930 . S
H677 C658 0.930 . S
H678 C713 0.929 . S
N679 Tb648 2.660 . S
N679 C680 1.305 . S
N679 C684 1.360 . S
C680 H672 0.930 . S
C680 N679 1.305 . S
C680 C683 1.407 . S
C681 H675 0.930 . S
C681 C682 1.410 . S
C681 C683 1.345 . S
C682 C681 1.410 . S
C682 C684 1.417 . S
C682 C714 1.432 . S
C683 H669 0.930 . S
C683 C680 1.407 . S
C683 C681 1.345 . S
C684 N679 1.360 . S
C684 C682 1.417 . S
C684 C688 1.432 . S
H685 C690 0.930 . S
N686 Tb648 2.600 . S
N686 C688 1.359 . S
N686 C689 1.327 . S
C687 H673 0.931 . S
C687 C689 1.392 . S
C687 C690 1.370 . S
C688 C684 1.432 . S
C688 N686 1.359 . S
C688 C691 1.414 . S
C689 H671 0.930 . S
C689 N686 1.327 . S
C689 C687 1.392 . S
C690 H685 0.930 . S
C690 C687 1.370 . S
C690 C691 1.385 . S
C691 C688 1.414 . S
C691 C690 1.385 . S
C691 C713 1.444 . S
O692 Tb648 2.546 . S
O692 C712 1.251 . S
O693 Tb648 2.610 . S
O693 Tb659 2.362 . S
O693 C704 1.283 . S
O694 Tb659 2.421 . S
O694 C711 1.262 . S
O695 Tb648 2.320 . S
O695 C711 1.260 . S
O696 Tb648 2.552 . S
O696 C704 1.243 . S
O697 Tb648 2.413 . S
O697 C712 1.256 . S
O698 Tb659 2.546 . S
O698 C723 1.251 . S
O699 Tb648 2.362 . S
O699 Tb659 2.610 . S
O699 C715 1.283 . S
O700 Tb648 2.421 . S
O700 C722 1.262 . S
O701 Tb659 2.320 . S
O701 C722 1.260 . S
O702 Tb659 2.552 . S
O702 C715 1.243 . S
O703 Tb659 2.413 . S
O703 C723 1.256 . S
C704 O693 1.283 . S
C704 O696 1.243 . S
C705 C707 1.382 . S
C705 C709 1.393 . S
C705 C712 1.500 . S
C706 C707 1.400 . S
C706 C708 1.384 . S
C707 C705 1.382 . S
C707 C706 1.400 . S
C707 H724 0.930 . S
C708 C706 1.384 . S
C708 C710 1.392 . S
C708 H725 0.931 . S
C709 C705 1.393 . S
C709 C710 1.401 . S
C709 H726 0.930 . S
C710 C708 1.392 . S
C710 C709 1.401 . S
C710 H727 0.930 . S
C711 O694 1.262 . S
C711 O695 1.260 . S
C712 Tb648 2.833 . S
C712 O692 1.251 . S
C712 O697 1.256 . S
C712 C705 1.500 . S
C713 H678 0.929 . S
C713 C691 1.444 . S
C713 C714 1.317 . S
C714 H676 0.930 . S
C714 C682 1.432 . S
C714 C713 1.317 . S
C715 O699 1.283 . S
C715 O702 1.243 . S
C716 C717 1.382 . S
C716 C720 1.393 . S
C716 C723 1.500 . S
C717 C716 1.382 . S
C717 C718 1.400 . S
C717 H728 0.930 . S
C718 C717 1.400 . S
C718 C719 1.384 . S
C719 C718 1.384 . S
C719 C721 1.392 . S
C719 H729 0.931 . S
C720 C716 1.393 . S
C720 C721 1.401 . S
C720 H730 0.930 . S
C721 C719 1.392 . S
C721 C720 1.401 . S
C721 H731 0.930 . S
C722 O700 1.262 . S
C722 O701 1.260 . S
C723 Tb659 2.833 . S
C723 O698 1.251 . S
C723 O703 1.256 . S
C723 C716 1.500 . S
H724 C707 0.930 . S
H725 C708 0.931 . S
H726 C709 0.930 . S
H727 C710 0.930 . S
H728 C717 0.930 . S
H729 C719 0.931 . S
H730 C720 0.930 . S
H731 C721 0.930 . S
Tb732 N763 2.660 . S
Tb732 N770 2.600 . S
Tb732 O776 2.546 . S
Tb732 O777 2.610 . S
Tb732 O779 2.320 . S
Tb732 O780 2.552 . S
Tb732 O781 2.413 . S
Tb732 O783 2.373 . S
Tb732 O784 2.421 1_455 S
Tb732 C796 2.833 . S
C733 C736 1.432 . S
C733 C737 1.414 . S
C733 N740 1.359 . S
C734 C736 1.417 . S
C734 C738 1.432 . S
C734 C746 1.410 . S
C735 C737 1.444 . S
C735 C738 1.317 . S
C735 H758 0.929 . S
C736 C733 1.432 . S
C736 C734 1.417 . S
C736 N744 1.360 . S
C737 C733 1.414 . S
C737 C735 1.444 . S
C737 C742 1.385 . S
C738 C734 1.432 . S
C738 C735 1.317 . S
C738 H750 0.930 . S
C739 C741 1.392 . S
C739 C742 1.370 1_455 S
C739 H751 0.931 . S
N740 C733 1.359 . S
N740 C741 1.327 1_655 S
N740 Tb743 2.600 . S
C741 C739 1.392 . S
C741 N740 1.327 1_455 S
C741 H748 0.930 . S
C742 C737 1.385 . S
C742 C739 1.370 1_655 S
C742 H761 0.930 . S
Tb743 N740 2.600 . S
Tb743 N744 2.660 . S
Tb743 O777 2.362 1_655 S
Tb743 O778 2.421 1_655 S
Tb743 O782 2.546 . S
Tb743 O783 2.603 1_655 S
Tb743 O785 2.320 . S
Tb743 O786 2.552 . S
Tb743 O787 2.413 . S
Tb743 C807 2.833 . S
N744 C736 1.360 . S
N744 Tb743 2.660 . S
N744 C745 1.305 . S
C745 N744 1.305 . S
C745 C747 1.407 . S
C745 H752 0.930 . S
C746 C734 1.410 . S
C746 C747 1.345 . S
C746 H754 0.930 . S
C747 C745 1.407 . S
C747 C746 1.345 . S
C747 H749 0.930 . S
H748 C741 0.930 . S
H749 C747 0.930 . S
H750 C738 0.930 . S
H751 C739 0.931 . S
H752 C745 0.930 . S
H753 C767 0.930 . S
H754 C746 0.930 . S
H755 C773 0.930 1_655 S
H756 C764 0.930 . S
H757 C771 0.922 1_655 S
H758 C735 0.929 . S
H759 C765 0.930 . S
H760 C798 0.930 . S
H761 C742 0.930 . S
H762 C797 0.929 . S
N763 Tb732 2.660 . S
N763 C764 1.305 . S
N763 C768 1.360 . S
C764 H756 0.930 . S
C764 N763 1.305 . S
C764 C767 1.407 . S
C765 H759 0.930 . S
C765 C766 1.410 . S
C765 C767 1.345 . S
C766 C765 1.410 . S
C766 C768 1.417 . S
C766 C798 1.432 . S
C767 H753 0.930 . S
C767 C764 1.407 . S
C767 C765 1.345 . S
C768 N763 1.360 . S
C768 C766 1.417 . S
C768 C772 1.432 . S
H769 C774 0.930 . S
N770 Tb732 2.600 . S
N770 C772 1.359 . S
N770 C773 1.327 . S
C771 H757 0.922 1_455 S
C771 C773 1.394 . S
C771 C774 1.377 . S
C772 C768 1.432 . S
C772 N770 1.359 . S
C772 C775 1.414 . S
C773 H755 0.930 1_455 S
C773 N770 1.327 . S
C773 C771 1.394 . S
C774 H769 0.930 . S
C774 C771 1.377 . S
C774 C775 1.385 . S
C775 C772 1.414 . S
C775 C774 1.385 . S
C775 C797 1.444 . S
O776 Tb732 2.546 . S
O776 C796 1.251 . S
O777 Tb732 2.610 . S
O777 Tb743 2.362 1_455 S
O777 C788 1.283 . S
O778 Tb743 2.421 1_455 S
O778 C795 1.262 . S
O779 Tb732 2.320 . S
O779 C795 1.260 . S
O780 Tb732 2.552 . S
O780 C788 1.243 . S
O781 Tb732 2.413 . S
O781 C796 1.256 . S
O782 Tb743 2.546 . S
O782 C807 1.251 . S
O783 Tb732 2.373 . S
O783 Tb743 2.603 1_455 S
O783 C799 1.275 1_455 S
O784 Tb732 2.421 1_655 S
O784 C806 1.262 . S
O785 Tb743 2.320 . S
O785 C806 1.260 . S
O786 Tb743 2.552 . S
O786 C799 1.243 . S
O787 Tb743 2.413 . S
O787 C807 1.256 . S
C788 O777 1.283 . S
C788 O780 1.243 . S
C789 C791 1.382 . S
C789 C793 1.393 . S
C789 C796 1.500 . S
C790 C791 1.400 . S
C790 C792 1.384 . S
C791 C789 1.382 . S
C791 C790 1.400 . S
C791 H808 0.930 . S
C792 C790 1.384 . S
C792 C794 1.392 . S
C792 H809 0.931 . S
C793 C789 1.393 . S
C793 C794 1.401 . S
C793 H810 0.930 . S
C794 C792 1.392 . S
C794 C793 1.401 . S
C794 H811 0.930 . S
C795 O778 1.262 . S
C795 O779 1.260 . S
C796 Tb732 2.833 . S
C796 O776 1.251 . S
C796 O781 1.256 . S
C796 C789 1.500 . S
C797 H762 0.929 . S
C797 C775 1.444 . S
C797 C798 1.317 . S
C798 H760 0.930 . S
C798 C766 1.432 . S
C798 C797 1.317 . S
C799 O783 1.275 1_655 S
C799 O786 1.243 . S
C800 C801 1.382 . S
C800 C804 1.393 . S
C800 C807 1.500 . S
C801 C800 1.382 . S
C801 C802 1.400 . S
C801 H812 0.930 . S
C802 C801 1.400 . S
C802 C803 1.384 . S
C803 C802 1.384 . S
C803 C805 1.392 . S
C803 H813 0.931 . S
C804 C800 1.393 . S
C804 C805 1.401 . S
C804 H814 0.930 . S
C805 C803 1.392 . S
C805 C804 1.401 . S
C805 H815 0.930 . S
C806 O784 1.262 . S
C806 O785 1.260 . S
C807 Tb743 2.833 . S
C807 O782 1.251 . S
C807 O787 1.256 . S
C807 C800 1.500 . S
H808 C791 0.930 . S
H809 C792 0.931 . S
H810 C793 0.930 . S
H811 C794 0.930 . S
H812 C801 0.930 . S
H813 C803 0.931 . S
H814 C804 0.930 . S
H815 C805 0.930 . S
C816 C817 1.391 . S
C816 C818 1.394 . S
C816 H832 0.931 . S
C817 C816 1.391 . S
C817 C821 1.376 . S
C818 C816 1.394 . S
C818 C819 1.369 . S
C818 C822 1.531 . S
C819 C818 1.369 . S
C819 C820 1.410 . S
C819 C827 1.503 . S
C820 C819 1.410 . S
C820 C821 1.392 . S
C820 C823 1.511 . S
C821 C817 1.376 . S
C821 C820 1.392 . S
C821 H833 0.929 . S
C822 C818 1.531 . S
C822 H834 0.960 . S
C822 H835 0.962 . S
C822 H836 0.960 . S
C823 C820 1.511 . S
C823 H837 0.961 . S
C823 H838 0.961 . S
C823 H839 0.961 . S
C824 C825 1.370 . S
C824 C826 1.363 . S
C824 H840 0.931 . S
C825 C824 1.370 . S
C825 C829 1.408 . S
C826 C824 1.363 . S
C826 C827 1.370 . S
C826 C830 1.524 . S
C827 C819 1.503 . S
C827 C826 1.370 . S
C827 C828 1.403 . S
C828 C827 1.403 . S
C828 C829 1.404 . S
C828 C831 1.539 . S
C829 C825 1.408 . S
C829 C828 1.404 . S
C829 H841 0.930 1_545 S
C830 C826 1.524 . S
C830 H842 0.956 . S
C830 H843 0.961 . S
C830 H844 0.961 . S
C831 C828 1.539 . S
C831 H845 0.958 1_545 S
C831 H846 0.961 1_545 S
C831 H847 0.960 . S
H832 C816 0.931 . S
H833 C821 0.929 . S
H834 C822 0.960 . S
H835 C822 0.962 . S
H836 C822 0.960 . S
H837 C823 0.961 . S
H838 C823 0.961 . S
H839 C823 0.961 . S
H840 C824 0.931 . S
H841 C829 0.930 1_565 S
H842 C830 0.956 . S
H843 C830 0.961 . S
H844 C830 0.961 . S
H845 C831 0.958 1_565 S
H846 C831 0.961 1_565 S
H847 C831 0.960 . S
C848 C849 1.391 . S
C848 C850 1.394 . S
C848 H864 0.931 . S
C849 C848 1.391 . S
C849 C853 1.376 . S
C850 C848 1.394 . S
C850 C851 1.369 . S
C850 C854 1.531 . S
C851 C850 1.369 . S
C851 C852 1.410 . S
C851 C859 1.503 . S
C852 C851 1.410 . S
C852 C853 1.392 . S
C852 C855 1.511 . S
C853 C849 1.376 . S
C853 C852 1.392 . S
C853 H865 0.929 . S
C854 C850 1.531 . S
C854 H866 0.960 . S
C854 H867 0.962 . S
C854 H868 0.960 . S
C855 C852 1.511 . S
C855 H869 0.961 . S
C855 H870 0.961 . S
C855 H871 0.961 . S
C856 C857 1.370 . S
C856 C858 1.363 . S
C856 H872 0.931 . S
C857 C856 1.370 . S
C857 C861 1.408 . S
C858 C856 1.363 . S
C858 C859 1.370 . S
C858 C862 1.524 . S
C859 C851 1.503 . S
C859 C858 1.370 . S
C859 C860 1.403 . S
C860 C859 1.403 . S
C860 C861 1.404 . S
C860 C863 1.539 . S
C861 C857 1.408 . S
C861 C860 1.404 . S
C861 H873 0.930 . S
C862 C858 1.524 . S
C862 H874 0.956 . S
C862 H875 0.961 . S
C862 H876 0.961 . S
C863 C860 1.539 . S
C863 H877 0.958 . S
C863 H878 0.961 . S
C863 H879 0.960 . S
H864 C848 0.931 . S
H865 C853 0.929 . S
H866 C854 0.960 . S
H867 C854 0.962 . S
H868 C854 0.960 . S
H869 C855 0.961 . S
H870 C855 0.961 . S
H871 C855 0.961 . S
H872 C856 0.931 . S
H873 C861 0.930 . S
H874 C862 0.956 . S
H875 C862 0.961 . S
H876 C862 0.961 . S
H877 C863 0.958 . S
H878 C863 0.961 . S
H879 C863 0.960 . S
C880 C881 1.391 . S
C880 C882 1.394 . S
C880 H896 0.931 . S
C881 C880 1.391 . S
C881 C885 1.376 . S
C882 C880 1.394 . S
C882 C883 1.369 . S
C882 C886 1.531 . S
C883 C882 1.369 . S
C883 C884 1.410 . S
C883 C891 1.503 . S
C884 C883 1.410 . S
C884 C885 1.392 . S
C884 C887 1.511 . S
C885 C881 1.376 . S
C885 C884 1.392 . S
C885 H897 0.929 . S
C886 C882 1.531 . S
C886 H898 0.960 . S
C886 H899 0.962 . S
C886 H900 0.960 . S
C887 C884 1.511 . S
C887 H901 0.961 . S
C887 H902 0.961 . S
C887 H903 0.961 . S
C888 C889 1.370 . S
C888 C890 1.363 . S
C888 H904 0.931 . S
C889 C888 1.370 . S
C889 C893 1.408 . S
C890 C888 1.363 . S
C890 C891 1.370 . S
C890 C894 1.524 . S
C891 C883 1.503 . S
C891 C890 1.370 . S
C891 C892 1.403 . S
C892 C891 1.403 . S
C892 C893 1.404 . S
C892 C895 1.539 . S
C893 C889 1.408 . S
C893 C892 1.404 . S
C893 H905 0.930 . S
C894 C890 1.524 . S
C894 H906 0.956 . S
C894 H907 0.961 . S
C894 H908 0.961 . S
C895 C892 1.539 . S
C895 H909 0.958 . S
C895 H910 0.961 . S
C895 H911 0.960 . S
H896 C880 0.931 . S
H897 C885 0.929 . S
H898 C886 0.960 . S
H899 C886 0.962 . S
H900 C886 0.960 . S
H901 C887 0.961 . S
H902 C887 0.961 . S
H903 C887 0.961 . S
H904 C888 0.931 . S
H905 C893 0.930 . S
H906 C894 0.956 . S
H907 C894 0.961 . S
H908 C894 0.961 . S
H909 C895 0.958 . S
H910 C895 0.961 . S
H911 C895 0.960 . S
C912 C913 1.391 . S
C912 C914 1.394 . S
C912 H928 0.931 . S
C913 C912 1.391 . S
C913 C917 1.376 . S
C914 C912 1.394 . S
C914 C915 1.369 . S
C914 C918 1.531 . S
C915 C914 1.369 . S
C915 C916 1.410 . S
C915 C923 1.503 . S
C916 C915 1.410 . S
C916 C917 1.392 . S
C916 C919 1.511 . S
C917 C913 1.376 . S
C917 C916 1.392 . S
C917 H929 0.929 . S
C918 C914 1.531 . S
C918 H930 0.960 . S
C918 H931 0.962 . S
C918 H932 0.960 . S
C919 C916 1.511 . S
C919 H933 0.961 . S
C919 H934 0.961 . S
C919 H935 0.961 . S
C920 C921 1.370 . S
C920 C922 1.363 . S
C920 H936 0.931 . S
C921 C920 1.370 . S
C921 C925 1.408 . S
C922 C920 1.363 . S
C922 C923 1.370 . S
C922 C926 1.524 . S
C923 C915 1.503 . S
C923 C922 1.370 . S
C923 C924 1.403 . S
C924 C923 1.403 . S
C924 C925 1.404 . S
C924 C927 1.539 1_455 S
C925 C921 1.408 . S
C925 C924 1.404 . S
C925 H937 0.930 1_455 S
C926 C922 1.524 . S
C926 H938 0.956 . S
C926 H939 0.961 . S
C926 H940 0.961 . S
C927 C924 1.539 1_655 S
C927 H941 0.958 . S
C927 H942 0.961 . S
C927 H943 0.960 1_655 S
H928 C912 0.931 . S
H929 C917 0.929 . S
H930 C918 0.960 . S
H931 C918 0.962 . S
H932 C918 0.960 . S
H933 C919 0.961 . S
H934 C919 0.961 . S
H935 C919 0.961 . S
H936 C920 0.931 . S
H937 C925 0.930 1_655 S
H938 C926 0.956 . S
H939 C926 0.961 . S
H940 C926 0.961 . S
H941 C927 0.958 . S
H942 C927 0.961 . S
H943 C927 0.960 1_455 S
C944 C945 1.391 . S
C944 C946 1.394 1_554 S
C944 H960 0.931 . S
C945 C944 1.391 . S
C945 C949 1.376 . S
C946 C944 1.394 1_556 S
C946 C947 1.369 . S
C946 C950 1.531 1_565 S
C947 C946 1.369 . S
C947 C948 1.410 . S
C947 C955 1.503 . S
C948 C947 1.410 . S
C948 C949 1.392 1_556 S
C948 C951 1.511 . S
C949 C945 1.376 . S
C949 C948 1.392 1_554 S
C949 H961 0.929 . S
C950 C946 1.531 1_545 S
C950 H962 0.960 . S
C950 H963 0.962 1_545 S
C950 H964 0.960 . S
C951 C948 1.511 . S
C951 H965 0.961 . S
C951 H966 0.961 . S
C951 H967 0.961 . S
C952 C953 1.370 . S
C952 C954 1.363 . S
C952 H968 0.931 . S
C953 C952 1.370 . S
C953 C957 1.408 . S
C954 C952 1.363 . S
C954 C955 1.370 . S
C954 C958 1.524 . S
C955 C947 1.503 . S
C955 C954 1.370 . S
C955 C956 1.403 . S
C956 C955 1.403 . S
C956 C957 1.404 . S
C956 C959 1.556 . S
C957 C953 1.408 . S
C957 C956 1.404 . S
C957 H969 0.930 1_565 S
C958 C954 1.524 . S
C958 H970 0.956 . S
C958 H971 0.961 . S
C958 H972 0.961 . S
C959 C956 1.556 . S
C959 H973 0.917 1_565 S
C959 H974 0.956 1_565 S
C959 H975 0.990 . S
H960 C944 0.931 . S
H961 C949 0.929 . S
H962 C950 0.960 . S
H963 C950 0.962 1_565 S
H964 C950 0.960 . S
H965 C951 0.961 . S
H966 C951 0.961 . S
H967 C951 0.961 . S
H968 C952 0.931 . S
H969 C957 0.930 1_545 S
H970 C958 0.956 . S
H971 C958 0.961 . S
H972 C958 0.961 . S
H973 C959 0.917 1_545 S
H974 C959 0.956 1_545 S
H975 C959 0.990 . S
C976 C977 1.391 . S
C976 C978 1.394 1_554 S
C976 H992 0.931 . S
C977 C976 1.391 . S
C977 C981 1.376 . S
C978 C976 1.394 1_556 S
C978 C979 1.369 . S
C978 C982 1.531 . S
C979 C978 1.369 . S
C979 C980 1.410 1_556 S
C979 C987 1.503 . S
C980 C979 1.410 1_554 S
C980 C981 1.392 . S
C980 C983 1.511 . S
C981 C977 1.376 . S
C981 C980 1.392 . S
C981 H993 0.929 . S
C982 C978 1.531 . S
C982 H994 0.960 . S
C982 H995 0.962 . S
C982 H996 0.960 . S
C983 C980 1.511 . S
C983 H997 0.961 . S
C983 H998 0.961 1_554 S
C983 H999 0.961 . S
C984 C985 1.370 . S
C984 C986 1.363 . S
C984 H1000 0.931 . S
C985 C984 1.370 . S
C985 C989 1.408 . S
C986 C984 1.363 . S
C986 C987 1.370 . S
C986 C990 1.524 . S
C987 C979 1.503 . S
C987 C986 1.370 . S
C987 C988 1.403 . S
C988 C987 1.403 . S
C988 C989 1.404 . S
C988 C991 1.539 . S
C989 C985 1.408 . S
C989 C988 1.404 . S
C989 H1001 0.930 . S
C990 C986 1.524 . S
C990 H1002 0.956 . S
C990 H1003 0.961 . S
C990 H1004 0.961 . S
C991 C988 1.539 . S
C991 H1005 0.958 . S
C991 H1006 0.961 . S
C991 H1007 0.960 . S
H992 C976 0.931 . S
H993 C981 0.929 . S
H994 C982 0.960 . S
H995 C982 0.962 . S
H996 C982 0.960 . S
H997 C983 0.961 . S
H998 C983 0.961 1_556 S
H999 C983 0.961 . S
H1000 C984 0.931 . S
H1001 C989 0.930 . S
H1002 C990 0.956 . S
H1003 C990 0.961 . S
H1004 C990 0.961 . S
H1005 C991 0.958 . S
H1006 C991 0.961 . S
H1007 C991 0.960 . S
C1008 C1009 1.391 . S
C1008 C1010 1.394 1_554 S
C1008 H1024 0.931 . S
C1009 C1008 1.391 . S
C1009 C1013 1.376 . S
C1010 C1008 1.394 1_556 S
C1010 C1011 1.369 . S
C1010 C1014 1.531 . S
C1011 C1010 1.369 . S
C1011 C1012 1.410 . S
C1011 C1019 1.503 . S
C1012 C1011 1.410 . S
C1012 C1013 1.392 1_556 S
C1012 C1015 1.511 . S
C1013 C1009 1.376 . S
C1013 C1012 1.392 1_554 S
C1013 H1025 0.929 . S
C1014 C1010 1.531 . S
C1014 H1026 0.960 . S
C1014 H1027 0.962 . S
C1014 H1028 0.960 . S
C1015 C1012 1.511 . S
C1015 H1029 0.961 . S
C1015 H1030 0.961 . S
C1015 H1031 0.961 . S
C1016 C1017 1.370 . S
C1016 C1018 1.363 . S
C1016 H1032 0.931 . S
C1017 C1016 1.370 . S
C1017 C1021 1.408 . S
C1018 C1016 1.363 . S
C1018 C1019 1.370 . S
C1018 C1022 1.524 . S
C1019 C1011 1.503 . S
C1019 C1018 1.370 . S
C1019 C1020 1.403 . S
C1020 C1019 1.403 . S
C1020 C1021 1.404 . S
C1020 C1023 1.539 . S
C1021 C1017 1.408 . S
C1021 C1020 1.404 . S
C1021 H1033 0.930 . S
C1022 C1018 1.524 . S
C1022 H1034 0.956 . S
C1022 H1035 0.961 . S
C1022 H1036 0.961 . S
C1023 C1020 1.539 . S
C1023 H1037 0.958 . S
C1023 H1038 0.961 . S
C1023 H1039 0.960 . S
H1024 C1008 0.931 . S
H1025 C1013 0.929 . S
H1026 C1014 0.960 . S
H1027 C1014 0.962 . S
H1028 C1014 0.960 . S
H1029 C1015 0.961 . S
H1030 C1015 0.961 . S
H1031 C1015 0.961 . S
H1032 C1016 0.931 . S
H1033 C1021 0.930 . S
H1034 C1022 0.956 . S
H1035 C1022 0.961 . S
H1036 C1022 0.961 . S
H1037 C1023 0.958 . S
H1038 C1023 0.961 . S
H1039 C1023 0.960 . S
C1040 C1041 1.391 . S
C1040 C1042 1.394 . S
C1040 H1056 0.931 . S
C1041 C1040 1.391 . S
C1041 C1045 1.376 . S
C1042 C1040 1.394 . S
C1042 C1043 1.369 1_554 S
C1042 C1046 1.531 1_554 S
C1043 C1042 1.369 1_556 S
C1043 C1044 1.410 . S
C1043 C1051 1.503 . S
C1044 C1043 1.410 . S
C1044 C1045 1.392 1_556 S
C1044 C1047 1.511 . S
C1045 C1041 1.376 . S
C1045 C1044 1.392 1_554 S
C1045 H1057 0.929 . S
C1046 C1042 1.531 1_556 S
C1046 H1058 0.960 . S
C1046 H1059 0.962 1_556 S
C1046 H1060 0.960 1_556 S
C1047 C1044 1.511 . S
C1047 H1061 0.961 . S
C1047 H1062 0.961 . S
C1047 H1063 0.961 . S
C1048 C1049 1.370 . S
C1048 C1050 1.363 . S
C1048 H1064 0.931 1_655 S
C1049 C1048 1.370 . S
C1049 C1053 1.408 . S
C1050 C1048 1.363 . S
C1050 C1051 1.370 . S
C1050 C1054 1.524 1_655 S
C1051 C1043 1.503 . S
C1051 C1050 1.370 . S
C1051 C1052 1.403 . S
C1052 C1051 1.403 . S
C1052 C1053 1.404 . S
C1052 C1055 1.539 . S
C1053 C1049 1.408 . S
C1053 C1052 1.404 . S
C1053 H1065 0.930 . S
C1054 C1050 1.524 1_455 S
C1054 H1066 0.956 . S
C1054 H1067 0.959 1_455 S
C1054 H1068 0.961 . S
C1055 C1052 1.539 . S
C1055 H1069 0.958 . S
C1055 H1070 0.961 . S
C1055 H1071 0.960 . S
H1056 C1040 0.931 . S
H1057 C1045 0.929 . S
H1058 C1046 0.960 . S
H1059 C1046 0.962 1_554 S
H1060 C1046 0.960 1_554 S
H1061 C1047 0.961 . S
H1062 C1047 0.961 . S
H1063 C1047 0.961 . S
H1064 C1048 0.931 1_455 S
H1065 C1053 0.930 . S
H1066 C1054 0.956 . S
H1067 C1054 0.959 1_655 S
H1068 C1054 0.961 . S
H1069 C1055 0.958 . S
H1070 C1055 0.961 . S
H1071 C1055 0.960 . S
C1072 C1073 1.391 . S
C1072 C1074 1.394 . S
C1072 H1088 0.931 . S
C1073 C1072 1.391 . S
C1073 C1077 1.376 . S
C1074 C1072 1.394 . S
C1074 C1075 1.369 . S
C1074 C1078 1.531 . S
C1075 C1074 1.369 . S
C1075 C1076 1.410 . S
C1075 C1083 1.503 . S
C1076 C1075 1.410 . S
C1076 C1077 1.392 . S
C1076 C1079 1.511 . S
C1077 C1073 1.376 . S
C1077 C1076 1.392 . S
C1077 H1089 0.929 . S
C1078 C1074 1.531 . S
C1078 H1090 0.960 . S
C1078 H1091 0.962 . S
C1078 H1092 0.960 . S
C1079 C1076 1.511 . S
C1079 H1093 0.961 . S
C1079 H1094 0.961 . S
C1079 H1095 0.961 . S
C1080 C1081 1.370 . S
C1080 C1082 1.363 . S
C1080 H1096 0.931 . S
C1081 C1080 1.370 . S
C1081 C1085 1.408 . S
C1082 C1080 1.363 . S
C1082 C1083 1.370 . S
C1082 C1086 1.524 . S
C1083 C1075 1.503 . S
C1083 C1082 1.370 . S
C1083 C1084 1.403 . S
C1084 C1083 1.403 . S
C1084 C1085 1.404 . S
C1084 C1087 1.539 . S
C1085 C1081 1.408 . S
C1085 C1084 1.404 . S
C1085 H1097 0.930 1_455 S
C1086 C1082 1.524 . S
C1086 H1098 0.956 . S
C1086 H1099 0.961 . S
C1086 H1100 0.961 . S
C1087 C1084 1.539 . S
C1087 H1101 0.958 . S
C1087 H1102 0.944 1_455 S
C1087 H1103 0.960 . S
H1088 C1072 0.931 . S
H1089 C1077 0.929 . S
H1090 C1078 0.960 . S
H1091 C1078 0.962 . S
H1092 C1078 0.960 . S
H1093 C1079 0.961 . S
H1094 C1079 0.961 . S
H1095 C1079 0.961 . S
H1096 C1080 0.931 . S
H1097 C1085 0.930 1_655 S
H1098 C1086 0.956 . S
H1099 C1086 0.961 . S
H1100 C1086 0.961 . S
H1101 C1087 0.958 . S
H1102 C1087 0.944 1_655 S
H1103 C1087 0.960 . S
C1104 C1105 1.391 . S
C1104 C1106 1.394 . S
C1104 H1120 0.931 . S
C1105 C1104 1.391 . S
C1105 C1109 1.376 . S
C1106 C1104 1.394 . S
C1106 C1107 1.369 . S
C1106 C1110 1.531 . S
C1107 C1106 1.369 . S
C1107 C1108 1.410 . S
C1107 C1115 1.503 . S
C1108 C1107 1.410 . S
C1108 C1109 1.392 . S
C1108 C1111 1.511 . S
C1109 C1105 1.376 . S
C1109 C1108 1.392 . S
C1109 H1121 0.929 . S
C1110 C1106 1.531 . S
C1110 H1122 0.960 . S
C1110 H1123 0.962 . S
C1110 H1124 0.960 . S
C1111 C1108 1.511 . S
C1111 H1125 0.961 . S
C1111 H1126 0.961 . S
C1111 H1127 0.961 . S
C1112 C1113 1.365 1_565 S
C1112 C1114 1.363 1_565 S
C1112 H1128 0.931 . S
C1113 C1112 1.365 1_545 S
C1113 C1117 1.441 . S
C1114 C1112 1.363 1_545 S
C1114 C1115 1.370 . S
C1114 C1118 1.524 . S
C1115 C1107 1.503 . S
C1115 C1114 1.370 . S
C1115 C1116 1.403 . S
C1116 C1115 1.403 . S
C1116 C1117 1.404 . S
C1116 C1119 1.539 . S
C1117 C1113 1.441 . S
C1117 C1116 1.404 . S
C1117 H1129 0.930 . S
C1118 C1114 1.524 . S
C1118 H1130 0.956 . S
C1118 H1131 0.961 . S
C1118 H1132 0.961 1_545 S
C1119 C1116 1.539 . S
C1119 H1133 0.958 . S
C1119 H1134 0.961 . S
C1119 H1135 0.960 . S
H1120 C1104 0.931 . S
H1121 C1109 0.929 . S
H1122 C1110 0.960 . S
H1123 C1110 0.962 . S
H1124 C1110 0.960 . S
H1125 C1111 0.961 . S
H1126 C1111 0.961 . S
H1127 C1111 0.961 . S
H1128 C1112 0.931 . S
H1129 C1117 0.930 . S
H1130 C1118 0.956 . S
H1131 C1118 0.961 . S
H1132 C1118 0.961 1_565 S
H1133 C1119 0.958 . S
H1134 C1119 0.961 . S
H1135 C1119 0.960 . S
C1136 C1137 1.391 . S
C1136 C1138 1.394 . S
C1136 H1152 0.931 . S
C1137 C1136 1.391 . S
C1137 C1141 1.376 . S
C1138 C1136 1.394 . S
C1138 C1139 1.369 . S
C1138 C1142 1.531 . S
C1139 C1138 1.369 . S
C1139 C1140 1.410 . S
C1139 C1147 1.503 . S
C1140 C1139 1.410 . S
C1140 C1141 1.392 . S
C1140 C1143 1.511 . S
C1141 C1137 1.376 . S
C1141 C1140 1.392 . S
C1141 H1153 0.929 . S
C1142 C1138 1.531 . S
C1142 H1154 0.960 . S
C1142 H1155 0.962 . S
C1142 H1156 0.960 . S
C1143 C1140 1.511 . S
C1143 H1157 0.961 . S
C1143 H1158 0.961 . S
C1143 H1159 0.961 . S
C1144 C1145 1.370 . S
C1144 C1146 1.363 . S
C1144 H1160 0.931 . S
C1145 C1144 1.370 . S
C1145 C1149 1.408 . S
C1146 C1144 1.363 . S
C1146 C1147 1.370 . S
C1146 C1150 1.524 . S
C1147 C1139 1.503 . S
C1147 C1146 1.370 . S
C1147 C1148 1.403 . S
C1148 C1147 1.403 . S
C1148 C1149 1.404 . S
C1148 C1151 1.539 . S
C1149 C1145 1.408 . S
C1149 C1148 1.404 . S
C1149 H1161 0.930 . S
C1150 C1146 1.524 . S
C1150 H1162 0.956 . S
C1150 H1163 0.961 . S
C1150 H1164 0.961 . S
C1151 C1148 1.539 . S
C1151 H1165 0.958 . S
C1151 H1166 0.961 . S
C1151 H1167 0.960 . S
H1152 C1136 0.931 . S
H1153 C1141 0.929 . S
H1154 C1142 0.960 . S
H1155 C1142 0.962 . S
H1156 C1142 0.960 . S
H1157 C1143 0.961 . S
H1158 C1143 0.961 . S
H1159 C1143 0.961 . S
H1160 C1144 0.931 . S
H1161 C1149 0.930 . S
H1162 C1150 0.956 . S
H1163 C1150 0.961 . S
H1164 C1150 0.961 . S
H1165 C1151 0.958 . S
H1166 C1151 0.961 . S
H1167 C1151 0.960 . S
C1168 C1169 1.391 . S
C1168 C1170 1.394 . S
C1168 H1184 0.931 . S
C1169 C1168 1.391 . S
C1169 C1173 1.376 . S
C1170 C1168 1.394 . S
C1170 C1171 1.369 . S
C1170 C1174 1.531 . S
C1171 C1170 1.369 . S
C1171 C1172 1.410 . S
C1171 C1179 1.503 . S
C1172 C1171 1.410 . S
C1172 C1173 1.392 . S
C1172 C1175 1.511 . S
C1173 C1169 1.376 . S
C1173 C1172 1.392 . S
C1173 H1185 0.929 . S
C1174 C1170 1.531 . S
C1174 H1186 0.960 . S
C1174 H1187 0.962 . S
C1174 H1188 0.960 . S
C1175 C1172 1.511 . S
C1175 H1189 0.961 . S
C1175 H1190 0.961 . S
C1175 H1191 0.961 . S
C1176 C1177 1.370 . S
C1176 C1178 1.363 . S
C1176 H1192 0.931 . S
C1177 C1176 1.370 . S
C1177 C1181 1.408 . S
C1178 C1176 1.363 . S
C1178 C1179 1.370 . S
C1178 C1182 1.524 . S
C1179 C1171 1.503 . S
C1179 C1178 1.370 . S
C1179 C1180 1.403 . S
C1180 C1179 1.403 . S
C1180 C1181 1.404 . S
C1180 C1183 1.539 . S
C1181 C1177 1.408 . S
C1181 C1180 1.404 . S
C1181 H1193 0.930 . S
C1182 C1178 1.524 . S
C1182 H1194 0.956 . S
C1182 H1195 0.961 . S
C1182 H1196 0.961 . S
C1183 C1180 1.539 . S
C1183 H1197 0.958 . S
C1183 H1198 0.961 . S
C1183 H1199 0.960 . S
H1184 C1168 0.931 . S
H1185 C1173 0.929 . S
H1186 C1174 0.960 . S
H1187 C1174 0.962 . S
H1188 C1174 0.960 . S
H1189 C1175 0.961 . S
H1190 C1175 0.961 . S
H1191 C1175 0.961 . S
H1192 C1176 0.931 . S
H1193 C1181 0.930 . S
H1194 C1182 0.956 . S
H1195 C1182 0.961 . S
H1196 C1182 0.961 . S
H1197 C1183 0.958 . S
H1198 C1183 0.961 . S
H1199 C1183 0.960 . S
C1200 C1201 1.391 . S
C1200 C1202 1.394 . S
C1200 H1216 0.931 . S
C1201 C1200 1.391 . S
C1201 C1205 1.376 1_556 S
C1202 C1200 1.394 . S
C1202 C1203 1.369 . S
C1202 C1206 1.531 . S
C1203 C1202 1.369 . S
C1203 C1204 1.410 . S
C1203 C1211 1.503 . S
C1204 C1203 1.410 . S
C1204 C1205 1.392 1_556 S
C1204 C1207 1.511 . S
C1205 C1201 1.376 1_554 S
C1205 C1204 1.392 1_554 S
C1205 H1217 0.929 . S
C1206 C1202 1.531 . S
C1206 H1218 0.960 . S
C1206 H1219 0.962 . S
C1206 H1220 0.960 . S
C1207 C1204 1.511 . S
C1207 H1221 0.961 1_655 S
C1207 H1222 0.961 1_655 S
C1207 H1223 0.961 1_656 S
C1208 C1209 1.370 1_655 S
C1208 C1210 1.363 . S
C1208 H1224 0.931 1_655 S
C1209 C1208 1.370 1_455 S
C1209 C1213 1.410 . S
C1210 C1208 1.363 . S
C1210 C1211 1.370 . S
C1210 C1214 1.524 . S
C1211 C1203 1.503 . S
C1211 C1210 1.370 . S
C1211 C1212 1.403 . S
C1212 C1211 1.403 . S
C1212 C1213 1.400 1_655 S
C1212 C1215 1.539 1_556 S
C1213 C1209 1.410 . S
C1213 C1212 1.400 1_455 S
C1213 H1225 0.932 . S
C1214 C1210 1.524 . S
C1214 H1226 0.956 . S
C1214 H1227 0.961 . S
C1214 H1228 0.961 . S
C1215 C1212 1.539 1_554 S
C1215 H1229 0.958 . S
C1215 H1230 0.961 . S
C1215 H1231 0.960 . S
H1216 C1200 0.931 . S
H1217 C1205 0.929 . S
H1218 C1206 0.960 . S
H1219 C1206 0.962 . S
H1220 C1206 0.960 . S
H1221 C1207 0.961 1_455 S
H1222 C1207 0.961 1_455 S
H1223 C1207 0.961 1_454 S
H1224 C1208 0.931 1_455 S
H1225 C1213 0.932 . S
H1226 C1214 0.956 . S
H1227 C1214 0.961 . S
H1228 C1214 0.961 . S
H1229 C1215 0.958 . S
H1230 C1215 0.961 . S
H1231 C1215 0.960 . S
C1232 C1233 1.391 1_554 S
C1232 C1234 1.387 1_554 S
C1232 H1248 0.931 . S
C1233 C1232 1.391 1_556 S
C1233 C1237 1.376 . S
C1234 C1232 1.387 1_556 S
C1234 C1235 1.382 . S
C1234 C1238 1.524 1_556 S
C1235 C1234 1.382 . S
C1235 C1236 1.410 . S
C1235 C1243 1.503 . S
C1236 C1235 1.410 . S
C1236 C1237 1.392 . S
C1236 C1239 1.511 . S
C1237 C1233 1.376 . S
C1237 C1236 1.392 . S
C1237 H1249 0.929 . S
C1238 C1234 1.524 1_554 S
C1238 H1250 0.960 . S
C1238 H1251 0.962 . S
C1238 H1252 0.960 . S
C1239 C1236 1.511 . S
C1239 H1253 0.961 . S
C1239 H1254 0.961 . S
C1239 H1255 0.961 1_565 S
C1240 C1241 1.370 1_565 S
C1240 C1242 1.363 . S
C1240 H1256 0.931 . S
C1241 C1240 1.370 1_545 S
C1241 C1245 1.408 . S
C1242 C1240 1.363 . S
C1242 C1243 1.370 . S
C1242 C1246 1.524 . S
C1243 C1235 1.503 . S
C1243 C1242 1.370 . S
C1243 C1244 1.403 1_565 S
C1244 C1243 1.403 1_545 S
C1244 C1245 1.404 . S
C1244 C1247 1.539 . S
C1245 C1241 1.408 . S
C1245 C1244 1.404 . S
C1245 H1257 0.930 . S
C1246 C1242 1.524 . S
C1246 H1258 0.956 . S
C1246 H1259 0.961 . S
C1246 H1260 0.961 . S
C1247 C1244 1.539 . S
C1247 H1261 0.958 1_556 S
C1247 H1262 0.961 . S
C1247 H1263 0.960 . S
H1248 C1232 0.931 . S
H1249 C1237 0.929 . S
H1250 C1238 0.960 . S
H1251 C1238 0.962 . S
H1252 C1238 0.960 . S
H1253 C1239 0.961 . S
H1254 C1239 0.961 . S
H1255 C1239 0.961 1_545 S
H1256 C1240 0.931 . S
H1257 C1245 0.930 . S
H1258 C1246 0.956 . S
H1259 C1246 0.961 . S
H1260 C1246 0.961 . S
H1261 C1247 0.958 1_554 S
H1262 C1247 0.961 . S
H1263 C1247 0.960 . S
C1264 C1265 1.391 . S
C1264 C1266 1.394 . S
C1264 H1280 0.931 1_556 S
C1265 C1264 1.391 . S
C1265 C1269 1.376 . S
C1266 C1264 1.394 . S
C1266 C1267 1.369 . S
C1266 C1270 1.531 . S
C1267 C1266 1.369 . S
C1267 C1268 1.410 . S
C1267 C1275 1.503 . S
C1268 C1267 1.410 . S
C1268 C1269 1.392 . S
C1268 C1271 1.511 . S
C1269 C1265 1.376 . S
C1269 C1268 1.392 . S
C1269 H1281 0.929 . S
C1270 C1266 1.531 . S
C1270 H1282 0.960 . S
C1270 H1283 0.962 1_556 S
C1270 H1284 0.960 . S
C1271 C1268 1.511 . S
C1271 H1285 0.961 . S
C1271 H1286 0.961 . S
C1271 H1287 0.961 . S
C1272 C1273 1.370 . S
C1272 C1274 1.363 . S
C1272 H1288 0.931 . S
C1273 C1272 1.370 . S
C1273 C1277 1.408 . S
C1274 C1272 1.363 . S
C1274 C1275 1.370 . S
C1274 C1278 1.524 1_556 S
C1275 C1267 1.503 . S
C1275 C1274 1.370 . S
C1275 C1276 1.403 . S
C1276 C1275 1.403 . S
C1276 C1277 1.404 . S
C1276 C1279 1.539 . S
C1277 C1273 1.408 . S
C1277 C1276 1.404 . S
C1277 H1289 0.930 . S
C1278 C1274 1.524 1_554 S
C1278 H1290 0.956 . S
C1278 H1291 0.961 . S
C1278 H1292 0.961 . S
C1279 C1276 1.539 . S
C1279 H1293 0.958 . S
C1279 H1294 0.961 . S
C1279 H1295 0.960 . S
H1280 C1264 0.931 1_554 S
H1281 C1269 0.929 . S
H1282 C1270 0.960 . S
H1283 C1270 0.962 1_554 S
H1284 C1270 0.960 . S
H1285 C1271 0.961 . S
H1286 C1271 0.961 . S
H1287 C1271 0.961 . S
H1288 C1272 0.931 . S
H1289 C1277 0.930 . S
H1290 C1278 0.956 . S
H1291 C1278 0.961 . S
H1292 C1278 0.961 . S
H1293 C1279 0.958 . S
H1294 C1279 0.961 . S
H1295 C1279 0.960 . S
C1296 C1297 1.391 . S
C1296 C1298 1.394 . S
C1296 H1312 0.931 . S
C1297 C1296 1.391 . S
C1297 C1301 1.376 . S
C1298 C1296 1.394 . S
C1298 C1299 1.369 . S
C1298 C1302 1.531 . S
C1299 C1298 1.369 . S
C1299 C1300 1.410 . S
C1299 C1307 1.503 . S
C1300 C1299 1.410 . S
C1300 C1301 1.392 . S
C1300 C1303 1.511 . S
C1301 C1297 1.376 . S
C1301 C1300 1.392 . S
C1301 H1313 0.929 . S
C1302 C1298 1.531 . S
C1302 H1314 0.960 . S
C1302 H1315 0.962 . S
C1302 H1316 0.960 . S
C1303 C1300 1.511 . S
C1303 H1317 0.961 . S
C1303 H1318 0.961 . S
C1303 H1319 0.961 . S
C1304 C1305 1.370 . S
C1304 C1306 1.363 . S
C1304 H1320 0.931 . S
C1305 C1304 1.370 . S
C1305 C1309 1.408 . S
C1306 C1304 1.363 . S
C1306 C1307 1.370 . S
C1306 C1310 1.524 1_556 S
C1307 C1299 1.503 . S
C1307 C1306 1.370 . S
C1307 C1308 1.403 . S
C1308 C1307 1.403 . S
C1308 C1309 1.404 . S
C1308 C1311 1.539 . S
C1309 C1305 1.408 . S
C1309 C1308 1.404 . S
C1309 H1321 0.930 . S
C1310 C1306 1.524 1_554 S
C1310 H1322 0.956 . S
C1310 H1323 0.961 . S
C1310 H1324 0.961 . S
C1311 C1308 1.539 . S
C1311 H1325 0.958 . S
C1311 H1326 0.961 . S
C1311 H1327 0.960 . S
H1312 C1296 0.931 . S
H1313 C1301 0.929 . S
H1314 C1302 0.960 . S
H1315 C1302 0.962 . S
H1316 C1302 0.960 . S
H1317 C1303 0.961 . S
H1318 C1303 0.961 . S
H1319 C1303 0.961 . S
H1320 C1304 0.931 . S
H1321 C1309 0.930 . S
H1322 C1310 0.956 . S
H1323 C1310 0.961 . S
H1324 C1310 0.961 . S
H1325 C1311 0.958 . S
H1326 C1311 0.961 . S
H1327 C1311 0.960 . S
C1328 C1329 1.391 . S
C1328 C1330 1.394 . S
C1328 H1344 0.931 . S
C1329 C1328 1.391 . S
C1329 C1333 1.376 . S
C1330 C1328 1.394 . S
C1330 C1331 1.369 . S
C1330 C1334 1.531 . S
C1331 C1330 1.369 . S
C1331 C1332 1.410 . S
C1331 C1339 1.503 . S
C1332 C1331 1.410 . S
C1332 C1333 1.392 . S
C1332 C1335 1.511 . S
C1333 C1329 1.376 . S
C1333 C1332 1.392 . S
C1333 H1345 0.929 . S
C1334 C1330 1.531 . S
C1334 H1346 0.960 . S
C1334 H1347 0.962 . S
C1334 H1348 0.960 . S
C1335 C1332 1.511 . S
C1335 H1349 0.961 . S
C1335 H1350 0.961 . S
C1335 H1351 0.961 . S
C1336 C1337 1.370 . S
C1336 C1338 1.363 . S
C1336 H1352 0.931 . S
C1337 C1336 1.370 . S
C1337 C1341 1.408 . S
C1338 C1336 1.363 . S
C1338 C1339 1.370 . S
C1338 C1342 1.524 . S
C1339 C1331 1.503 . S
C1339 C1338 1.370 . S
C1339 C1340 1.403 . S
C1340 C1339 1.403 . S
C1340 C1341 1.404 . S
C1340 C1343 1.539 . S
C1341 C1337 1.408 . S
C1341 C1340 1.404 . S
C1341 H1353 0.930 . S
C1342 C1338 1.524 . S
C1342 H1354 0.956 . S
C1342 H1355 0.961 . S
C1342 H1356 0.961 . S
C1343 C1340 1.539 . S
C1343 H1357 0.958 . S
C1343 H1358 0.961 1_455 S
C1343 H1359 0.960 . S
H1344 C1328 0.931 . S
H1345 C1333 0.929 . S
H1346 C1334 0.960 . S
H1347 C1334 0.962 . S
H1348 C1334 0.960 . S
H1349 C1335 0.961 . S
H1350 C1335 0.961 . S
H1351 C1335 0.961 . S
H1352 C1336 0.931 . S
H1353 C1341 0.930 . S
H1354 C1342 0.956 . S
H1355 C1342 0.961 . S
H1356 C1342 0.961 . S
H1357 C1343 0.958 . S
H1358 C1343 0.961 1_655 S
H1359 C1343 0.960 . S
C1360 C1361 1.391 . S
C1360 C1362 1.394 . S
C1360 H1376 0.931 . S
C1361 C1360 1.391 . S
C1361 C1365 1.376 . S
C1362 C1360 1.394 . S
C1362 C1363 1.369 . S
C1362 C1366 1.531 . S
C1363 C1362 1.369 . S
C1363 C1364 1.410 . S
C1363 C1371 1.503 . S
C1364 C1363 1.410 . S
C1364 C1365 1.392 . S
C1364 C1367 1.511 . S
C1365 C1361 1.376 . S
C1365 C1364 1.392 . S
C1365 H1377 0.929 . S
C1366 C1362 1.531 . S
C1366 H1378 0.960 . S
C1366 H1379 0.962 . S
C1366 H1380 0.960 . S
C1367 C1364 1.511 . S
C1367 H1381 0.961 . S
C1367 H1382 0.961 . S
C1367 H1383 0.964 . S
C1368 C1369 1.370 . S
C1368 C1370 1.363 . S
C1368 H1384 0.931 . S
C1369 C1368 1.370 . S
C1369 C1373 1.408 . S
C1370 C1368 1.363 . S
C1370 C1371 1.370 . S
C1370 C1374 1.524 . S
C1371 C1363 1.503 . S
C1371 C1370 1.370 . S
C1371 C1372 1.403 . S
C1372 C1371 1.403 . S
C1372 C1373 1.404 . S
C1372 C1375 1.539 . S
C1373 C1369 1.408 . S
C1373 C1372 1.404 . S
C1373 H1385 0.930 . S
C1374 C1370 1.524 . S
C1374 H1386 0.956 . S
C1374 H1387 0.961 . S
C1374 H1388 0.961 . S
C1375 C1372 1.539 . S
C1375 H1389 0.958 . S
C1375 H1390 0.961 1_545 S
C1375 H1391 0.960 . S
H1376 C1360 0.931 . S
H1377 C1365 0.929 . S
H1378 C1366 0.960 . S
H1379 C1366 0.962 . S
H1380 C1366 0.960 . S
H1381 C1367 0.961 . S
H1382 C1367 0.961 . S
H1383 C1367 0.964 . S
H1384 C1368 0.931 . S
H1385 C1373 0.930 . S
H1386 C1374 0.956 . S
H1387 C1374 0.961 . S
H1388 C1374 0.961 . S
H1389 C1375 0.958 . S
H1390 C1375 0.961 1_565 S
H1391 C1375 0.960 . S
C1392 C1393 1.391 . S
C1392 C1394 1.394 . S
C1392 H1408 0.931 . S
C1393 C1392 1.391 . S
C1393 C1397 1.376 . S
C1394 C1392 1.394 . S
C1394 C1395 1.369 . S
C1394 C1398 1.531 . S
C1395 C1394 1.369 . S
C1395 C1396 1.410 . S
C1395 C1403 1.503 . S
C1396 C1395 1.410 . S
C1396 C1397 1.392 . S
C1396 C1399 1.511 . S
C1397 C1393 1.376 . S
C1397 C1396 1.392 . S
C1397 H1409 0.929 . S
C1398 C1394 1.531 . S
C1398 H1410 0.960 . S
C1398 H1411 0.962 . S
C1398 H1412 0.960 . S
C1399 C1396 1.511 . S
C1399 H1413 0.961 . S
C1399 H1414 0.961 . S
C1399 H1415 0.961 . S
C1400 C1401 1.370 . S
C1400 C1402 1.363 . S
C1400 H1416 0.931 . S
C1401 C1400 1.370 . S
C1401 C1405 1.408 . S
C1402 C1400 1.363 . S
C1402 C1403 1.370 . S
C1402 C1406 1.524 . S
C1403 C1395 1.503 . S
C1403 C1402 1.370 . S
C1403 C1404 1.403 . S
C1404 C1403 1.403 . S
C1404 C1405 1.404 . S
C1404 C1407 1.539 . S
C1405 C1401 1.408 . S
C1405 C1404 1.404 . S
C1405 H1417 0.930 . S
C1406 C1402 1.524 . S
C1406 H1418 0.956 . S
C1406 H1419 0.961 . S
C1406 H1420 0.961 . S
C1407 C1404 1.539 . S
C1407 H1421 0.958 . S
C1407 H1422 0.961 . S
C1407 H1423 0.960 . S
H1408 C1392 0.931 . S
H1409 C1397 0.929 . S
H1410 C1398 0.960 . S
H1411 C1398 0.962 . S
H1412 C1398 0.960 . S
H1413 C1399 0.961 . S
H1414 C1399 0.961 . S
H1415 C1399 0.961 . S
H1416 C1400 0.931 . S
H1417 C1405 0.930 . S
H1418 C1406 0.956 . S
H1419 C1406 0.961 . S
H1420 C1406 0.961 . S
H1421 C1407 0.958 . S
H1422 C1407 0.961 . S
H1423 C1407 0.960 . S
C1424 C1425 1.391 . S
C1424 C1426 1.394 . S
C1424 H1440 0.931 . S
C1425 C1424 1.391 . S
C1425 C1429 1.376 . S
C1426 C1424 1.394 . S
C1426 C1427 1.369 . S
C1426 C1430 1.531 . S
C1427 C1426 1.369 . S
C1427 C1428 1.410 . S
C1427 C1435 1.503 . S
C1428 C1427 1.410 . S
C1428 C1429 1.392 . S
C1428 C1431 1.511 . S
C1429 C1425 1.376 . S
C1429 C1428 1.392 . S
C1429 H1441 0.929 . S
C1430 C1426 1.531 . S
C1430 H1442 0.960 . S
C1430 H1443 0.962 . S
C1430 H1444 0.960 . S
C1431 C1428 1.511 . S
C1431 H1445 0.961 . S
C1431 H1446 0.961 . S
C1431 H1447 0.961 . S
C1432 C1433 1.370 . S
C1432 C1434 1.363 . S
C1432 H1448 0.931 . S
C1433 C1432 1.370 . S
C1433 C1437 1.408 . S
C1434 C1432 1.363 . S
C1434 C1435 1.370 . S
C1434 C1438 1.524 . S
C1435 C1427 1.503 . S
C1435 C1434 1.370 . S
C1435 C1436 1.403 . S
C1436 C1435 1.403 . S
C1436 C1437 1.404 . S
C1436 C1439 1.539 . S
C1437 C1433 1.408 . S
C1437 C1436 1.404 . S
C1437 H1449 0.930 . S
C1438 C1434 1.524 . S
C1438 H1450 0.956 . S
C1438 H1451 0.961 . S
C1438 H1452 0.961 . S
C1439 C1436 1.539 . S
C1439 H1453 0.958 . S
C1439 H1454 0.961 . S
C1439 H1455 0.960 . S
H1440 C1424 0.931 . S
H1441 C1429 0.929 . S
H1442 C1430 0.960 . S
H1443 C1430 0.962 . S
H1444 C1430 0.960 . S
H1445 C1431 0.961 . S
H1446 C1431 0.961 . S
H1447 C1431 0.961 . S
H1448 C1432 0.931 . S
H1449 C1437 0.930 . S
H1450 C1438 0.956 . S
H1451 C1438 0.961 . S
H1452 C1438 0.961 . S
H1453 C1439 0.958 . S
H1454 C1439 0.961 . S
H1455 C1439 0.960 . S
C1456 C1457 1.391 . S
C1456 C1458 1.394 . S
C1456 H1472 0.931 . S
C1457 C1456 1.391 . S
C1457 C1461 1.376 . S
C1458 C1456 1.394 . S
C1458 C1459 1.369 . S
C1458 C1462 1.531 . S
C1459 C1458 1.369 . S
C1459 C1460 1.410 . S
C1459 C1467 1.503 . S
C1460 C1459 1.410 . S
C1460 C1461 1.392 . S
C1460 C1463 1.511 . S
C1461 C1457 1.376 . S
C1461 C1460 1.392 . S
C1461 H1473 0.929 . S
C1462 C1458 1.531 . S
C1462 H1474 0.960 . S
C1462 H1475 0.962 . S
C1462 H1476 0.960 . S
C1463 C1460 1.511 . S
C1463 H1477 0.961 1_655 S
C1463 H1478 0.961 1_655 S
C1463 H1479 0.961 1_655 S
C1464 C1465 1.370 . S
C1464 C1466 1.363 . S
C1464 H1480 0.931 . S
C1465 C1464 1.370 . S
C1465 C1469 1.408 . S
C1466 C1464 1.363 . S
C1466 C1467 1.370 . S
C1466 C1470 1.524 . S
C1467 C1459 1.503 . S
C1467 C1466 1.370 . S
C1467 C1468 1.403 . S
C1468 C1467 1.403 . S
C1468 C1469 1.404 . S
C1468 C1471 1.539 . S
C1469 C1465 1.408 . S
C1469 C1468 1.404 . S
C1469 H1481 0.930 . S
C1470 C1466 1.524 . S
C1470 H1482 0.956 . S
C1470 H1483 0.961 . S
C1470 H1484 0.961 . S
C1471 C1468 1.539 . S
C1471 H1485 0.958 . S
C1471 H1486 0.961 . S
C1471 H1487 0.960 . S
H1472 C1456 0.931 . S
H1473 C1461 0.929 . S
H1474 C1462 0.960 . S
H1475 C1462 0.962 . S
H1476 C1462 0.960 . S
H1477 C1463 0.961 1_455 S
H1478 C1463 0.961 1_455 S
H1479 C1463 0.961 1_455 S
H1480 C1464 0.931 . S
H1481 C1469 0.930 . S
H1482 C1470 0.956 . S
H1483 C1470 0.961 . S
H1484 C1470 0.961 . S
H1485 C1471 0.958 . S
H1486 C1471 0.961 . S
H1487 C1471 0.960 . S
C1488 C1489 1.391 . S
C1488 C1490 1.394 . S
C1488 H1504 0.931 . S
C1489 C1488 1.391 . S
C1489 C1493 1.376 . S
C1490 C1488 1.394 . S
C1490 C1491 1.369 . S
C1490 C1494 1.531 . S
C1491 C1490 1.369 . S
C1491 C1492 1.410 . S
C1491 C1499 1.503 . S
C1492 C1491 1.410 . S
C1492 C1493 1.392 . S
C1492 C1495 1.511 . S
C1493 C1489 1.376 . S
C1493 C1492 1.392 . S
C1493 H1505 0.929 . S
C1494 C1490 1.531 . S
C1494 H1506 0.960 . S
C1494 H1507 0.962 1_565 S
C1494 H1508 0.960 1_565 S
C1495 C1492 1.511 . S
C1495 H1509 0.961 . S
C1495 H1510 0.961 . S
C1495 H1511 0.961 . S
C1496 C1497 1.370 . S
C1496 C1498 1.363 . S
C1496 H1512 0.931 . S
C1497 C1496 1.370 . S
C1497 C1501 1.408 . S
C1498 C1496 1.363 . S
C1498 C1499 1.370 . S
C1498 C1502 1.524 . S
C1499 C1491 1.503 . S
C1499 C1498 1.370 . S
C1499 C1500 1.403 . S
C1500 C1499 1.403 . S
C1500 C1501 1.404 . S
C1500 C1503 1.539 . S
C1501 C1497 1.408 . S
C1501 C1500 1.404 . S
C1501 H1513 0.930 . S
C1502 C1498 1.524 . S
C1502 H1514 0.956 . S
C1502 H1515 0.961 . S
C1502 H1516 0.961 . S
C1503 C1500 1.539 . S
C1503 H1517 0.958 . S
C1503 H1518 0.961 . S
C1503 H1519 0.960 . S
H1504 C1488 0.931 . S
H1505 C1493 0.929 . S
H1506 C1494 0.960 . S
H1507 C1494 0.962 1_545 S
H1508 C1494 0.960 1_545 S
H1509 C1495 0.961 . S
H1510 C1495 0.961 . S
H1511 C1495 0.961 . S
H1512 C1496 0.931 . S
H1513 C1501 0.930 . S
H1514 C1502 0.956 . S
H1515 C1502 0.961 . S
H1516 C1502 0.961 . S
H1517 C1503 0.958 . S
H1518 C1503 0.961 . S
H1519 C1503 0.960 . S
C1520 C1521 1.391 . S
C1520 C1522 1.394 . S
C1520 H1536 0.931 . S
C1521 C1520 1.391 . S
C1521 C1525 1.376 . S
C1522 C1520 1.394 . S
C1522 C1523 1.369 . S
C1522 C1526 1.531 . S
C1523 C1522 1.369 . S
C1523 C1524 1.410 . S
C1523 C1531 1.503 . S
C1524 C1523 1.410 . S
C1524 C1525 1.392 . S
C1524 C1527 1.511 . S
C1525 C1521 1.376 . S
C1525 C1524 1.392 . S
C1525 H1537 0.929 . S
C1526 C1522 1.531 . S
C1526 H1538 0.960 . S
C1526 H1539 0.962 . S
C1526 H1540 0.960 . S
C1527 C1524 1.511 . S
C1527 H1541 0.961 . S
C1527 H1542 0.961 . S
C1527 H1543 0.961 . S
C1528 C1529 1.370 . S
C1528 C1530 1.363 . S
C1528 H1544 0.931 . S
C1529 C1528 1.370 . S
C1529 C1533 1.408 . S
C1530 C1528 1.363 . S
C1530 C1531 1.370 . S
C1530 C1534 1.524 . S
C1531 C1523 1.503 . S
C1531 C1530 1.370 . S
C1531 C1532 1.403 . S
C1532 C1531 1.403 . S
C1532 C1533 1.404 . S
C1532 C1535 1.539 . S
C1533 C1529 1.408 . S
C1533 C1532 1.404 . S
C1533 H1545 0.930 . S
C1534 C1530 1.524 . S
C1534 H1546 0.956 . S
C1534 H1547 0.961 . S
C1534 H1548 0.961 . S
C1535 C1532 1.539 . S
C1535 H1549 0.958 . S
C1535 H1550 0.961 . S
C1535 H1551 0.960 . S
H1536 C1520 0.931 . S
H1537 C1525 0.929 . S
H1538 C1526 0.960 . S
H1539 C1526 0.962 . S
H1540 C1526 0.960 . S
H1541 C1527 0.961 . S
H1542 C1527 0.961 . S
H1543 C1527 0.961 . S
H1544 C1528 0.931 . S
H1545 C1533 0.930 . S
H1546 C1534 0.956 . S
H1547 C1534 0.961 . S
H1548 C1534 0.961 . S
H1549 C1535 0.958 . S
H1550 C1535 0.961 . S
H1551 C1535 0.960 . S
C1552 C1553 1.391 . S
C1552 C1554 1.394 . S
C1552 H1568 0.931 . S
C1553 C1552 1.391 . S
C1553 C1557 1.376 . S
C1554 C1552 1.394 . S
C1554 C1555 1.369 . S
C1554 C1558 1.531 . S
C1555 C1554 1.369 . S
C1555 C1556 1.410 . S
C1555 C1563 1.503 . S
C1556 C1555 1.410 . S
C1556 C1557 1.392 . S
C1556 C1559 1.511 . S
C1557 C1553 1.376 . S
C1557 C1556 1.392 . S
C1557 H1569 0.929 . S
C1558 C1554 1.531 . S
C1558 H1570 0.960 . S
C1558 H1571 0.962 . S
C1558 H1572 0.960 . S
C1559 C1556 1.511 . S
C1559 H1573 0.961 . S
C1559 H1574 0.961 . S
C1559 H1575 0.961 . S
C1560 C1561 1.370 . S
C1560 C1562 1.363 . S
C1560 H1576 0.931 . S
C1561 C1560 1.370 . S
C1561 C1565 1.408 . S
C1562 C1560 1.363 . S
C1562 C1563 1.370 . S
C1562 C1566 1.524 . S
C1563 C1555 1.503 . S
C1563 C1562 1.370 . S
C1563 C1564 1.403 . S
C1564 C1563 1.403 . S
C1564 C1565 1.404 . S
C1564 C1567 1.539 . S
C1565 C1561 1.408 . S
C1565 C1564 1.404 . S
C1565 H1577 0.930 . S
C1566 C1562 1.524 . S
C1566 H1578 0.956 . S
C1566 H1579 0.961 . S
C1566 H1580 0.961 . S
C1567 C1564 1.539 . S
C1567 H1581 0.958 . S
C1567 H1582 0.961 . S
C1567 H1583 0.960 . S
H1568 C1552 0.931 . S
H1569 C1557 0.929 . S
H1570 C1558 0.960 . S
H1571 C1558 0.962 . S
H1572 C1558 0.960 . S
H1573 C1559 0.961 . S
H1574 C1559 0.961 . S
H1575 C1559 0.961 . S
H1576 C1560 0.931 . S
H1577 C1565 0.930 . S
H1578 C1566 0.956 . S
H1579 C1566 0.961 . S
H1580 C1566 0.961 . S
H1581 C1567 0.958 . S
H1582 C1567 0.961 . S
H1583 C1567 0.960 . S
C817 C391 2.368 . S
C825 C554 2.345 . S
C857 C638 2.364 . S
C849 C451 2.404 . S
C889 C704 2.261 . S
C881 C241 2.200 . S
C921 C788 2.264 . S
C913 C331 2.150 . S
C953 C543 2.330 1_565 S
C945 C121 2.153 . S
C977 C211 2.315 . S
C985 C627 2.357 . S
C1009 C31 2.436 . S
C1017 C715 2.280 . S
C1041 C91 2.236 . S
C1049 C799 2.257 . S
C1081 C550 0.634 1_455 S
C1073 C301 0.735 . S
C1113 C634 0.559 1_545 S
C1105 C380 0.633 . S
C1145 C706 0.585 . S
C1137 C440 0.537 . S
C1169 C260 0.771 . S
C1177 C790 0.640 . S
C1201 C61 0.594 1_556 S
C1209 C538 0.638 . S
C1241 C622 0.559 . S
C1233 C140 0.545 1_556 S
C1273 C718 0.596 . S
C1265 C200 0.626 1_556 S
C1297 C20 0.673 1_556 S
C1305 C802 0.641 . S
C1329 C320 2.846 . S
C1337 C547 2.908 . S
C1361 C361 2.512 . S
C1369 C631 2.870 . S
C1401 C711 2.939 . S
C1393 C421 2.453 . S
C1433 C795 2.968 . S
C1425 C271 2.717 . S
C1457 C80 2.945 . S
C1465 C536 2.902 . S
C1497 C620 2.882 . S
C1489 C151 2.861 . S
C1529 C722 2.933 . S
C1521 C181 2.384 . S
C1553 C1 2.386 . S
C1561 C806 2.967 . S
