# Generated by pormake.
# Topology dag, (6,3)-cn, num edge types: 1
# Building blocks:
#     Node 0, Type 0, BuildingBlock: IZENUY_clean_sbu_0, # of connection points: 6
#     Node 1, Type 0, BuildingBlock: IZENUY_clean_sbu_0, # of connection points: 6
#     Node 2, Type 0, BuildingBlock: IZENUY_clean_sbu_0, # of connection points: 6
#     Node 3, Type 0, BuildingBlock: IZENUY_clean_sbu_0, # of connection points: 6
#     Node 4, Type 1, BuildingBlock: ESEHIV_clean_linker_0, # of connection points: 3
#     Node 5, Type 1, BuildingBlock: ESEHIV_clean_linker_0, # of connection points: 3
#     Node 6, Type 1, BuildingBlock: ESEHIV_clean_linker_0, # of connection points: 3
#     Node 7, Type 1, BuildingBlock: ESEHIV_clean_linker_0, # of connection points: 3
#     Node 8, Type 1, BuildingBlock: ESEHIV_clean_linker_0, # of connection points: 3
#     Node 9, Type 1, BuildingBlock: ESEHIV_clean_linker_0, # of connection points: 3
#     Node 10, Type 1, BuildingBlock: ESEHIV_clean_linker_0, # of connection points: 3
#     Node 11, Type 1, BuildingBlock: ESEHIV_clean_linker_0, # of connection points: 3
#     Edge 12, Type (0, 1), BuildingBlock: EYOCIG_clean_linker_4, # of connection points: 2
#     Edge 13, Type (0, 1), BuildingBlock: EYOCIG_clean_linker_4, # of connection points: 2
#     Edge 14, Type (0, 1), BuildingBlock: EYOCIG_clean_linker_4, # of connection points: 2
#     Edge 15, Type (0, 1), BuildingBlock: EYOCIG_clean_linker_4, # of connection points: 2
#     Edge 16, Type (0, 1), BuildingBlock: EYOCIG_clean_linker_4, # of connection points: 2
#     Edge 17, Type (0, 1), BuildingBlock: EYOCIG_clean_linker_4, # of connection points: 2
#     Edge 18, Type (0, 1), BuildingBlock: EYOCIG_clean_linker_4, # of connection points: 2
#     Edge 19, Type (0, 1), BuildingBlock: EYOCIG_clean_linker_4, # of connection points: 2
#     Edge 20, Type (0, 1), BuildingBlock: EYOCIG_clean_linker_4, # of connection points: 2
#     Edge 21, Type (0, 1), BuildingBlock: EYOCIG_clean_linker_4, # of connection points: 2
#     Edge 22, Type (0, 1), BuildingBlock: EYOCIG_clean_linker_4, # of connection points: 2
#     Edge 23, Type (0, 1), BuildingBlock: EYOCIG_clean_linker_4, # of connection points: 2
#     Edge 24, Type (0, 1), BuildingBlock: EYOCIG_clean_linker_4, # of connection points: 2
#     Edge 25, Type (0, 1), BuildingBlock: EYOCIG_clean_linker_4, # of connection points: 2
#     Edge 26, Type (0, 1), BuildingBlock: EYOCIG_clean_linker_4, # of connection points: 2
#     Edge 27, Type (0, 1), BuildingBlock: EYOCIG_clean_linker_4, # of connection points: 2
#     Edge 28, Type (0, 1), BuildingBlock: EYOCIG_clean_linker_4, # of connection points: 2
#     Edge 29, Type (0, 1), BuildingBlock: EYOCIG_clean_linker_4, # of connection points: 2
#     Edge 30, Type (0, 1), BuildingBlock: EYOCIG_clean_linker_4, # of connection points: 2
#     Edge 31, Type (0, 1), BuildingBlock: EYOCIG_clean_linker_4, # of connection points: 2
#     Edge 32, Type (0, 1), BuildingBlock: EYOCIG_clean_linker_4, # of connection points: 2
#     Edge 33, Type (0, 1), BuildingBlock: EYOCIG_clean_linker_4, # of connection points: 2
#     Edge 34, Type (0, 1), BuildingBlock: EYOCIG_clean_linker_4, # of connection points: 2
#     Edge 35, Type (0, 1), BuildingBlock: EYOCIG_clean_linker_4, # of connection points: 2
# Relax obj value: 0.254
# Max RMSD: 0.192
# Mean RMSD: 0.159
data_MOF--net-dag--node1-IZENUY_clean_sbu_0--node2-ESEHIV_clean_linker_0--edge1-EYOCIG_clean_linker_4
_symmetry_space_group_name_H-M    P1
_symmetry_Int_Tables_number       1
_symmetry_cell_setting            triclinic
loop_
_symmetry_equiv_pos_as_xyz
'x, y, z'
_cell_length_a     28.177317
_cell_length_b     29.106644
_cell_length_c     24.804047
_cell_angle_alpha  94.347788
_cell_angle_beta   90.159498
_cell_angle_gamma 89.930597
loop_
_atom_site_label
_atom_site_type_symbol
_atom_site_fract_x
_atom_site_fract_y
_atom_site_fract_z
_atom_type_partial_charge
Fe0 Fe 0.21161 0.85815 0.09872 0.0
Fe1 Fe 0.11102 0.88669 0.05585 0.0
O2 O 0.15395 0.84217 0.06936 0.0
Fe3 Fe 0.13927 0.78148 0.05404 0.0
O4 O 0.1551 0.76523 0.12098 0.0
O5 O 0.21164 0.81438 0.14685 0.0
O6 O 0.18732 0.89661 0.1526 0.0
C7 C 0.14972 0.91978 0.1571 0.0
C8 C 0.23675 0.78421 0.02501 0.0
O9 O 0.11837 0.91864 0.12092 0.0
C10 C 0.10127 0.82272 0.96388 0.0
O11 O 0.22259 0.9052 0.05684 0.0
O12 O 0.15307 0.92332 0.02396 0.0
O13 O 0.197 0.76495 0.02651 0.0
O14 O 0.24523 0.82253 0.0496 0.0
C15 C 0.05074 0.81758 0.09065 0.0
O16 O 0.09602 0.86175 0.9887 0.0
O17 O 0.12023 0.7892 0.98511 0.0
C18 C 0.1971 0.92919 0.02854 0.0
O19 O 0.0611 0.85884 0.08546 0.0
O20 O 0.0788 0.78517 0.07833 0.0
C21 C 0.18603 0.78023 0.15438 0.0
Fe22 Fe 0.70866 0.64797 0.48098 0.0
Fe23 Fe 0.6364 0.72568 0.52371 0.0
O24 O 0.65087 0.66476 0.50928 0.0
Fe25 Fe 0.60761 0.62065 0.52292 0.0
O26 O 0.64952 0.58292 0.55341 0.0
O27 O 0.72009 0.60375 0.52665 0.0
O28 O 0.74255 0.68599 0.52736 0.0
C29 C 0.73342 0.72311 0.55415 0.0
C30 C 0.64653 0.58531 0.42344 0.0
O31 O 0.69303 0.74129 0.55477 0.0
C32 C 0.54791 0.6902 0.48641 0.0
O33 O 0.70752 0.68918 0.43005 0.0
O34 O 0.65541 0.74229 0.45807 0.0
O35 O 0.61352 0.58942 0.45736 0.0
O36 O 0.68516 0.60654 0.4295 0.0
C37 C 0.598 0.68474 0.61409 0.0
O38 O 0.57701 0.72231 0.49562 0.0
O39 O 0.55722 0.64934 0.4951 0.0
C40 C 0.68459 0.72537 0.42383 0.0
O41 O 0.61451 0.71858 0.59154 0.0
O42 O 0.59455 0.64506 0.59056 0.0
C43 C 0.69385 0.57877 0.55264 0.0
Fe44 Fe 0.86125 0.22485 0.02717 0.0
Fe45 Fe 0.89043 0.11987 0.02594 0.0
O46 O 0.84707 0.16396 0.0121 0.0
Fe47 Fe 0.78953 0.14718 0.98286 0.0
O48 O 0.79083 0.18831 0.93199 0.0
O49 O 0.84062 0.24253 0.9626 0.0
O50 O 0.91977 0.22178 0.9973 0.0
C51 C 0.9494 0.18991 0.98946 0.0
C52 C 0.76461 0.22144 0.05748 0.0
O53 O 0.94087 0.14924 -0.00035 0.0
C54 C 0.80418 0.07749 0.05386 0.0
O55 O 0.88516 0.21754 0.09418 0.0
O56 O 0.90276 0.14354 0.09408 0.0
O57 O 0.75535 0.18524 0.02881 0.0
O58 O 0.80515 0.23929 0.05979 0.0
C59 C 0.85244 0.08524 0.9255 0.0
O60 O 0.8485 0.08152 0.05498 0.0
O61 O 0.77793 0.10288 0.02821 0.0
C62 C 0.90097 0.18351 0.11703 0.0
O63 O 0.88531 0.08939 0.9598 0.0
O64 O 0.81345 0.10589 0.93155 0.0
C65 C 0.81256 0.22531 0.92727 0.0
Fe66 Fe 0.38952 0.3871 0.55766 0.0
Fe67 Fe 0.28878 0.35959 0.60002 0.0
O68 O 0.34637 0.3429 0.57119 0.0
Fe69 Fe 0.36085 0.28206 0.55634 0.0
O70 O 0.41933 0.28524 0.58648 0.0
O71 O 0.44033 0.35756 0.5831 0.0
O72 O 0.38508 0.41657 0.62433 0.0
C73 C 0.35189 0.42128 0.65795 0.0
C74 C 0.39931 0.32386 0.46616 0.0
O75 O 0.31244 0.40169 0.6508 0.0
C76 C 0.2641 0.2846 0.52604 0.0
O77 O 0.34732 0.42607 0.52966 0.0
O78 O 0.27665 0.40312 0.55357 0.0
O79 O 0.38444 0.28964 0.48931 0.0
O80 O 0.40093 0.36391 0.48908 0.0
C81 C 0.31304 0.28216 0.6567 0.0
O82 O 0.25461 0.32072 0.55473 0.0
O83 O 0.30487 0.26726 0.52355 0.0
C84 C 0.30292 0.42938 0.5293 0.0
O85 O 0.29107 0.31909 0.65167 0.0
O86 O 0.34052 0.2645 0.62109 0.0
C87 C 0.44888 0.31711 0.59404 0.0
H88 H 0.02959 0.08792 0.27644 0.0
H89 H 0.14527 0.10128 0.38962 0.0
H90 H 0.04846 0.21439 0.37529 0.0
C91 C 0.04746 0.1073 0.30967 0.0
C92 C 0.03304 0.15243 0.325 0.0
C93 C 0.08777 0.08877 0.33297 0.0
C94 C 0.11266 0.11475 0.37355 0.0
C95 C 0.09851 0.1601 0.38883 0.0
C96 C 0.05802 0.17863 0.36543 0.0
H97 H 0.47381 0.59057 0.7759 0.0
H98 H 0.35682 0.60524 0.8864 0.0
H99 H 0.4558 0.71685 0.8755 0.0
C100 C 0.4558 0.6101 0.80883 0.0
C101 C 0.47072 0.65497 0.82477 0.0
C102 C 0.41496 0.59206 0.83117 0.0
C103 C 0.38983 0.61833 0.87115 0.0
C104 C 0.40457 0.6633 0.88734 0.0
C105 C 0.44572 0.68133 0.86503 0.0
H106 H 0.82816 0.87587 0.09542 0.0
H107 H 0.80835 0.76499 0.19763 0.0
H108 H 0.70169 0.87056 0.19124 0.0
C109 C 0.80535 0.85726 0.12146 0.0
C110 C 0.76199 0.87654 0.13882 0.0
C111 C 0.82208 0.81713 0.14262 0.0
C112 C 0.79419 0.79469 0.17904 0.0
C113 C 0.75071 0.8139 0.19658 0.0
C114 C 0.73393 0.85427 0.1754 0.0
H115 H 0.66974 0.37908 0.6011 0.0
H116 H 0.69105 0.26908 0.70431 0.0
H117 H 0.79809 0.37364 0.69465 0.0
C118 C 0.69294 0.36066 0.6271 0.0
C119 C 0.73669 0.37978 0.64341 0.0
C120 C 0.67657 0.32082 0.64898 0.0
C121 C 0.70494 0.29858 0.68521 0.0
C122 C 0.74882 0.31751 0.70164 0.0
C123 C 0.7654 0.35757 0.67971 0.0
H124 H 0.52762 0.41441 0.30614 0.0
H125 H 0.64423 0.39951 0.19514 0.0
H126 H 0.54528 0.28796 0.20681 0.0
C127 C 0.54556 0.39478 0.27323 0.0
C128 C 0.53039 0.35001 0.25727 0.0
C129 C 0.58645 0.41266 0.25086 0.0
C130 C 0.61129 0.38645 0.21062 0.0
C131 C 0.59646 0.34148 0.19465 0.0
C132 C 0.55539 0.32349 0.21717 0.0
H133 H 0.17173 0.13126 0.98519 0.0
H134 H 0.1916 0.24091 0.88123 0.0
H135 H 0.29969 0.13718 0.8919 0.0
C136 C 0.19465 0.14971 0.95912 0.0
C137 C 0.23853 0.13078 0.94303 0.0
C138 C 0.17777 0.18935 0.93695 0.0
C139 C 0.20585 0.21162 0.90057 0.0
C140 C 0.24993 0.19297 0.88439 0.0
C141 C 0.26691 0.15308 0.90665 0.0
H142 H 0.32552 0.63105 0.48485 0.0
H143 H 0.30333 0.74212 0.38338 0.0
H144 H 0.19775 0.63585 0.39029 0.0
C145 C 0.30217 0.64961 0.45916 0.0
C146 C 0.25876 0.63008 0.44222 0.0
C147 C 0.31828 0.68985 0.43791 0.0
C148 C 0.28964 0.71233 0.40205 0.0
C149 C 0.24612 0.69293 0.38477 0.0
C150 C 0.22998 0.65234 0.40596 0.0
H151 H 0.97159 0.91413 0.80581 0.0
H152 H 0.95288 0.78901 0.70419 0.0
H153 H 0.85331 0.90084 0.69629 0.0
C154 C 0.95316 0.89492 0.77285 0.0
C155 C 0.91198 0.91325 0.75131 0.0
C156 C 0.96812 0.85027 0.75598 0.0
C157 C 0.94271 0.82437 0.71552 0.0
C158 C 0.90125 0.84272 0.69388 0.0
C159 C 0.88648 0.8875 0.71108 0.0
C160 C 0.13386 0.97738 0.24237 0.0
C161 C 0.14293 0.95052 0.20442 0.0
C162 C 0.1208 0.01296 0.28127 0.0
C163 C 0.10822 0.04741 0.30733 0.0
C164 C 0.56128 0.69183 0.71201 0.0
C165 C 0.57895 0.69179 0.66775 0.0
C166 C 0.53432 0.68596 0.75892 0.0
C167 C 0.5056 0.67581 0.79196 0.0
C168 C 0.76695 0.0051 0.09555 0.0
C169 C 0.78319 0.03839 0.07625 0.0
C170 C 0.75415 0.96199 0.11333 0.0
C171 C 0.75261 0.92342 0.12761 0.0
C172 C 0.53686 0.30177 0.62316 0.0
C173 C 0.49608 0.30627 0.61016 0.0
C174 C 0.58591 0.30211 0.63377 0.0
C175 C 0.62747 0.30857 0.64235 0.0
C176 C 0.63246 0.52481 0.34044 0.0
C177 C 0.64071 0.55285 0.3775 0.0
C178 C 0.61988 0.48836 0.30245 0.0
C179 C 0.60705 0.45388 0.27662 0.0
C180 C 0.03765 0.20628 0.96224 0.0
C181 C 0.9968 0.20107 0.97444 0.0
C182 C 0.0868 0.20697 0.95209 0.0
C183 C 0.12846 0.20117 0.94343 0.0
C184 C 0.26557 0.50165 0.48668 0.0
C185 C 0.28172 0.46837 0.50641 0.0
C186 C 0.25238 0.54458 0.46827 0.0
C187 C 0.25005 0.58309 0.4537 0.0
C188 C 0.06188 0.81507 0.86688 0.0
C189 C 0.08087 0.81564 0.91065 0.0
C190 C 0.03351 0.81985 0.82049 0.0
C191 C 0.00402 0.82938 0.78775 0.0
C192 C 0.86739 0.02562 0.84181 0.0
C193 C 0.85881 0.05322 0.87921 0.0
C194 C 0.87982 0.98925 0.80359 0.0
C195 C 0.89212 0.95467 0.77757 0.0
C196 C 0.43763 0.31574 0.36894 0.0
C197 C 0.41946 0.31666 0.41301 0.0
C198 C 0.4655 0.32032 0.32237 0.0
C199 C 0.49478 0.32966 0.28956 0.0
C200 C 0.23468 1.00244 0.98843 0.0
C201 C 0.21818 0.96884 0.00703 0.0
C202 C 0.24722 0.04578 0.97065 0.0
C203 C 0.24839 0.08418 0.95556 0.0
C204 C 0.45896 0.70639 0.46071 0.0
C205 C 0.50006 0.70121 0.4723 0.0
C206 C 0.40954 0.70723 0.4517 0.0
C207 C 0.3677 0.70157 0.44372 0.0
C208 C 0.36805 0.47971 0.74242 0.0
C209 C 0.35862 0.45263 0.70477 0.0
C210 C 0.38168 0.51585 0.78037 0.0
C211 C 0.39464 0.55057 0.80564 0.0
C212 C 0.96217 0.80104 0.11682 0.0
C213 C 0.00298 0.80679 0.1048 0.0
C214 C 0.91301 0.79978 0.12686 0.0
C215 C 0.87136 0.80535 0.1358 0.0
C216 C 0.73115 0.50722 0.59653 0.0
C217 C 0.71487 0.54011 0.57623 0.0
C218 C 0.74421 0.46458 0.61566 0.0
C219 C 0.74611 0.42634 0.63096 0.0
C220 C 0.94131 0.19085 0.21324 0.0
C221 C 0.92206 0.1908 0.16974 0.0
C222 C 0.9696 0.18446 0.25916 0.0
C223 C 0.9984 0.17356 0.2919 0.0
C224 C 0.19831 0.74286 0.24711 0.0
C225 C 0.19152 0.75884 0.2043 0.0
C226 C 0.20948 0.72513 0.29704 0.0
C227 C 0.22431 0.7089 0.33708 0.0
C228 C 0.80375 0.76696 0.60627 0.0
C229 C 0.77153 0.74706 0.58254 0.0
C230 C 0.84062 0.79148 0.63425 0.0
C231 C 0.86939 0.81347 0.66139 0.0
C232 C 0.69398 0.26476 0.10911 0.0
C233 C 0.72634 0.24509 0.0856 0.0
C234 C 0.65697 0.28936 0.1364 0.0
C235 C 0.62819 0.31167 0.16296 0.0
C236 C 0.29977 0.24383 0.7485 0.0
C237 C 0.30695 0.26005 0.70597 0.0
C238 C 0.28771 0.22579 0.79789 0.0
C239 C 0.27228 0.20938 0.83742 0.0
C240 C 0.70037 0.76401 0.33285 0.0
C241 C 0.69195 0.74766 0.37497 0.0
C242 C 0.71342 0.7818 0.2837 0.0
C243 C 0.72902 0.79764 0.24395 0.0
C244 C 0.79809 0.2653 0.8369 0.0
C245 C 0.80562 0.24809 0.8787 0.0
C246 C 0.78629 0.28433 0.78807 0.0
C247 C 0.77123 0.3011 0.74857 0.0
C248 C 0.19439 0.23941 0.4745 0.0
C249 C 0.22601 0.26027 0.49816 0.0
C250 C 0.1585 0.21316 0.44705 0.0
C251 C 0.13043 0.18987 0.42046 0.0
C252 C 0.30713 0.74001 0.97353 0.0
C253 C 0.27495 0.76013 0.99701 0.0
C254 C 0.34404 0.71528 0.94598 0.0
C255 C 0.37281 0.69302 0.91926 0.0
loop_
_geom_bond_atom_site_label_1
_geom_bond_atom_site_label_2
_geom_bond_distance
_geom_bond_site_symmetry_2
_ccdc_geom_bond_type
Fe0 O2 1.918 . S
Fe0 O5 1.997 . S
Fe0 O6 2.002 . S
Fe0 O11 1.976 . S
Fe0 O14 1.996 . S
Fe1 O2 1.918 . S
Fe1 O9 1.997 . S
Fe1 O12 1.996 . S
Fe1 O16 1.976 1_554 S
Fe1 O19 2.002 . S
O2 Fe0 1.918 . S
O2 Fe1 1.918 . S
O2 Fe3 1.918 . S
Fe3 O2 1.918 . S
Fe3 O4 2.002 . S
Fe3 O13 1.976 . S
Fe3 O17 1.996 1_554 S
Fe3 O20 1.997 . S
O4 Fe3 2.002 . S
O4 C21 1.295 . S
O5 Fe0 1.997 . S
O5 C21 1.235 . S
O6 Fe0 2.002 . S
O6 C7 1.295 . S
C7 O6 1.295 . S
C7 O9 1.235 . S
C8 O13 1.287 . S
C8 O14 1.255 . S
O9 Fe1 1.997 . S
O9 C7 1.235 . S
C10 O16 1.287 . S
C10 O17 1.255 . S
O11 Fe0 1.976 . S
O11 C18 1.287 . S
O12 Fe1 1.996 . S
O12 C18 1.255 . S
O13 Fe3 1.976 . S
O13 C8 1.287 . S
O14 Fe0 1.996 . S
O14 C8 1.255 . S
C15 O19 1.295 . S
C15 O20 1.235 . S
O16 Fe1 1.976 1_556 S
O16 C10 1.287 . S
O17 Fe3 1.996 1_556 S
O17 C10 1.255 . S
C18 O11 1.287 . S
C18 O12 1.255 . S
O19 Fe1 2.002 . S
O19 C15 1.295 . S
O20 Fe3 1.997 . S
O20 C15 1.235 . S
C21 O4 1.295 . S
C21 O5 1.235 . S
Fe22 O24 1.918 . S
Fe22 O27 1.997 . S
Fe22 O28 2.002 . S
Fe22 O33 1.976 . S
Fe22 O36 1.996 . S
Fe23 O24 1.918 . S
Fe23 O31 1.997 . S
Fe23 O34 1.996 . S
Fe23 O38 1.976 . S
Fe23 O41 2.002 . S
O24 Fe22 1.918 . S
O24 Fe23 1.918 . S
O24 Fe25 1.918 . S
Fe25 O24 1.918 . S
Fe25 O26 2.002 . S
Fe25 O35 1.976 . S
Fe25 O39 1.996 . S
Fe25 O42 1.997 . S
O26 Fe25 2.002 . S
O26 C43 1.295 . S
O27 Fe22 1.997 . S
O27 C43 1.235 . S
O28 Fe22 2.002 . S
O28 C29 1.295 . S
C29 O28 1.295 . S
C29 O31 1.235 . S
C30 O35 1.287 . S
C30 O36 1.255 . S
O31 Fe23 1.997 . S
O31 C29 1.235 . S
C32 O38 1.287 . S
C32 O39 1.255 . S
O33 Fe22 1.976 . S
O33 C40 1.287 . S
O34 Fe23 1.996 . S
O34 C40 1.255 . S
O35 Fe25 1.976 . S
O35 C30 1.287 . S
O36 Fe22 1.996 . S
O36 C30 1.255 . S
C37 O41 1.295 . S
C37 O42 1.235 . S
O38 Fe23 1.976 . S
O38 C32 1.287 . S
O39 Fe25 1.996 . S
O39 C32 1.255 . S
C40 O33 1.287 . S
C40 O34 1.255 . S
O41 Fe23 2.002 . S
O41 C37 1.295 . S
O42 Fe25 1.997 . S
O42 C37 1.235 . S
C43 O26 1.295 . S
C43 O27 1.235 . S
Fe44 O46 1.918 . S
Fe44 O49 1.997 1_554 S
Fe44 O50 2.002 1_554 S
Fe44 O55 1.976 . S
Fe44 O58 1.996 . S
Fe45 O46 1.918 . S
Fe45 O53 1.997 1_554 S
Fe45 O56 1.996 . S
Fe45 O60 1.976 . S
Fe45 O63 2.002 1_554 S
O46 Fe44 1.918 . S
O46 Fe45 1.918 . S
O46 Fe47 1.918 1_554 S
Fe47 O46 1.918 1_556 S
Fe47 O48 2.002 . S
Fe47 O57 1.976 1_556 S
Fe47 O61 1.996 1_556 S
Fe47 O64 1.997 . S
O48 Fe47 2.002 . S
O48 C65 1.295 . S
O49 Fe44 1.997 1_556 S
O49 C65 1.235 . S
O50 Fe44 2.002 1_556 S
O50 C51 1.295 . S
C51 O50 1.295 . S
C51 O53 1.235 . S
C52 O57 1.287 . S
C52 O58 1.255 . S
O53 Fe45 1.997 1_556 S
O53 C51 1.235 . S
C54 O60 1.287 . S
C54 O61 1.255 . S
O55 Fe44 1.976 . S
O55 C62 1.287 . S
O56 Fe45 1.996 . S
O56 C62 1.255 . S
O57 Fe47 1.976 1_554 S
O57 C52 1.287 . S
O58 Fe44 1.996 . S
O58 C52 1.255 . S
C59 O63 1.295 . S
C59 O64 1.235 . S
O60 Fe45 1.976 . S
O60 C54 1.287 . S
O61 Fe47 1.996 1_554 S
O61 C54 1.255 . S
C62 O55 1.287 . S
C62 O56 1.255 . S
O63 Fe45 2.002 1_556 S
O63 C59 1.295 . S
O64 Fe47 1.997 . S
O64 C59 1.235 . S
C65 O48 1.295 . S
C65 O49 1.235 . S
Fe66 O68 1.918 . S
Fe66 O71 1.997 . S
Fe66 O72 2.002 . S
Fe66 O77 1.976 . S
Fe66 O80 1.996 . S
Fe67 O68 1.918 . S
Fe67 O75 1.997 . S
Fe67 O78 1.996 . S
Fe67 O82 1.976 . S
Fe67 O85 2.002 . S
O68 Fe66 1.918 . S
O68 Fe67 1.918 . S
O68 Fe69 1.918 . S
Fe69 O68 1.918 . S
Fe69 O70 2.002 . S
Fe69 O79 1.976 . S
Fe69 O83 1.996 . S
Fe69 O86 1.997 . S
O70 Fe69 2.002 . S
O70 C87 1.295 . S
O71 Fe66 1.997 . S
O71 C87 1.235 . S
O72 Fe66 2.002 . S
O72 C73 1.295 . S
C73 O72 1.295 . S
C73 O75 1.235 . S
C74 O79 1.287 . S
C74 O80 1.255 . S
O75 Fe67 1.997 . S
O75 C73 1.235 . S
C76 O82 1.287 . S
C76 O83 1.255 . S
O77 Fe66 1.976 . S
O77 C84 1.287 . S
O78 Fe67 1.996 . S
O78 C84 1.255 . S
O79 Fe69 1.976 . S
O79 C74 1.287 . S
O80 Fe66 1.996 . S
O80 C74 1.255 . S
C81 O85 1.295 . S
C81 O86 1.235 . S
O82 Fe67 1.976 . S
O82 C76 1.287 . S
O83 Fe69 1.996 . S
O83 C76 1.255 . S
C84 O77 1.287 . S
C84 O78 1.255 . S
O85 Fe67 2.002 . S
O85 C81 1.295 . S
O86 Fe69 1.997 . S
O86 C81 1.235 . S
C87 O70 1.295 . S
C87 O71 1.235 . S
H88 C91 0.931 . S
H89 C94 0.928 . S
H90 C96 0.930 . S
C91 H88 0.931 . S
C91 C92 1.413 . S
C91 C93 1.360 . S
C92 C91 1.413 . S
C92 C96 1.429 . S
C93 C91 1.360 . S
C93 C94 1.372 . S
C94 H89 0.928 . S
C94 C93 1.372 . S
C94 C95 1.404 . S
C95 C94 1.404 . S
C95 C96 1.391 . S
C96 H90 0.930 . S
C96 C92 1.429 . S
C96 C95 1.391 . S
H97 C100 0.931 . S
H98 C103 0.928 . S
H99 C105 0.930 . S
C100 H97 0.931 . S
C100 C101 1.413 . S
C100 C102 1.360 . S
C101 C100 1.413 . S
C101 C105 1.429 . S
C102 C100 1.360 . S
C102 C103 1.372 . S
C103 H98 0.928 . S
C103 C102 1.372 . S
C103 C104 1.404 . S
C104 C103 1.404 . S
C104 C105 1.391 . S
C105 H99 0.930 . S
C105 C101 1.429 . S
C105 C104 1.391 . S
H106 C109 0.931 . S
H107 C112 0.928 . S
H108 C114 0.930 . S
C109 H106 0.931 . S
C109 C110 1.413 . S
C109 C111 1.360 . S
C110 C109 1.413 . S
C110 C114 1.429 . S
C111 C109 1.360 . S
C111 C112 1.372 . S
C112 H107 0.928 . S
C112 C111 1.372 . S
C112 C113 1.404 . S
C113 C112 1.404 . S
C113 C114 1.391 . S
C114 H108 0.930 . S
C114 C110 1.429 . S
C114 C113 1.391 . S
H115 C118 0.931 . S
H116 C121 0.928 . S
H117 C123 0.930 . S
C118 H115 0.931 . S
C118 C119 1.413 . S
C118 C120 1.360 . S
C119 C118 1.413 . S
C119 C123 1.429 . S
C120 C118 1.360 . S
C120 C121 1.372 . S
C121 H116 0.928 . S
C121 C120 1.372 . S
C121 C122 1.404 . S
C122 C121 1.404 . S
C122 C123 1.391 . S
C123 H117 0.930 . S
C123 C119 1.429 . S
C123 C122 1.391 . S
H124 C127 0.931 . S
H125 C130 0.928 . S
H126 C132 0.930 . S
C127 H124 0.931 . S
C127 C128 1.413 . S
C127 C129 1.360 . S
C128 C127 1.413 . S
C128 C132 1.429 . S
C129 C127 1.360 . S
C129 C130 1.372 . S
C130 H125 0.928 . S
C130 C129 1.372 . S
C130 C131 1.404 . S
C131 C130 1.404 . S
C131 C132 1.391 . S
C132 H126 0.930 . S
C132 C128 1.429 . S
C132 C131 1.391 . S
H133 C136 0.931 . S
H134 C139 0.928 . S
H135 C141 0.930 . S
C136 H133 0.931 . S
C136 C137 1.413 . S
C136 C138 1.360 . S
C137 C136 1.413 . S
C137 C141 1.429 . S
C138 C136 1.360 . S
C138 C139 1.372 . S
C139 H134 0.928 . S
C139 C138 1.372 . S
C139 C140 1.404 . S
C140 C139 1.404 . S
C140 C141 1.391 . S
C141 H135 0.930 . S
C141 C137 1.429 . S
C141 C140 1.391 . S
H142 C145 0.931 . S
H143 C148 0.928 . S
H144 C150 0.930 . S
C145 H142 0.931 . S
C145 C146 1.413 . S
C145 C147 1.360 . S
C146 C145 1.413 . S
C146 C150 1.429 . S
C147 C145 1.360 . S
C147 C148 1.372 . S
C148 H143 0.928 . S
C148 C147 1.372 . S
C148 C149 1.404 . S
C149 C148 1.404 . S
C149 C150 1.391 . S
C150 H144 0.930 . S
C150 C146 1.429 . S
C150 C149 1.391 . S
H151 C154 0.931 . S
H152 C157 0.928 . S
H153 C159 0.930 . S
C154 H151 0.931 . S
C154 C155 1.413 . S
C154 C156 1.360 . S
C155 C154 1.413 . S
C155 C159 1.429 . S
C156 C154 1.360 . S
C156 C157 1.372 . S
C157 H152 0.928 . S
C157 C156 1.372 . S
C157 C158 1.404 . S
C158 C157 1.404 . S
C158 C159 1.391 . S
C159 H153 0.930 . S
C159 C155 1.429 . S
C159 C158 1.391 . S
C160 C161 1.170 . S
C160 C162 1.380 1_565 S
C161 C160 1.170 . S
C162 C160 1.380 1_545 S
C162 C163 1.170 . S
C163 C162 1.170 . S
C164 C165 1.170 . S
C164 C166 1.380 . S
C165 C164 1.170 . S
C166 C164 1.380 . S
C166 C167 1.170 . S
C167 C166 1.170 . S
C168 C169 1.170 1_565 S
C168 C170 1.380 . S
C169 C168 1.170 1_545 S
C170 C168 1.380 . S
C170 C171 1.170 . S
C171 C170 1.170 . S
C172 C173 1.170 . S
C172 C174 1.380 . S
C173 C172 1.170 . S
C174 C172 1.380 . S
C174 C175 1.170 . S
C175 C174 1.170 . S
C176 C177 1.170 . S
C176 C178 1.380 . S
C177 C176 1.170 . S
C178 C176 1.380 . S
C178 C179 1.170 . S
C179 C178 1.170 . S
C180 C181 1.192 . S
C180 C182 1.380 . S
C181 C180 1.192 . S
C182 C180 1.380 . S
C182 C183 1.170 . S
C183 C182 1.170 . S
C184 C185 1.170 . S
C184 C186 1.380 . S
C185 C184 1.170 . S
C186 C184 1.380 . S
C186 C187 1.170 . S
C187 C186 1.170 . S
C188 C189 1.170 . S
C188 C190 1.380 . S
C189 C188 1.170 . S
C190 C188 1.380 . S
C190 C191 1.170 . S
C191 C190 1.170 . S
C192 C193 1.170 . S
C192 C194 1.380 1_545 S
C193 C192 1.170 . S
C194 C192 1.380 1_565 S
C194 C195 1.170 . S
C195 C194 1.170 . S
C196 C197 1.170 . S
C196 C198 1.380 . S
C197 C196 1.170 . S
C198 C196 1.380 . S
C198 C199 1.170 . S
C199 C198 1.170 . S
C200 C201 1.170 1_546 S
C200 C202 1.380 . S
C201 C200 1.170 1_564 S
C202 C200 1.380 . S
C202 C203 1.170 . S
C203 C202 1.170 . S
C204 C205 1.170 . S
C204 C206 1.380 . S
C205 C204 1.170 . S
C206 C204 1.380 . S
C206 C207 1.170 . S
C207 C206 1.170 . S
C208 C209 1.170 . S
C208 C210 1.380 . S
C209 C208 1.170 . S
C210 C208 1.380 . S
C210 C211 1.170 . S
C211 C210 1.170 . S
C212 C213 1.174 . S
C212 C214 1.380 . S
C213 C212 1.174 . S
C214 C212 1.380 . S
C214 C215 1.170 . S
C215 C214 1.170 . S
C216 C217 1.170 . S
C216 C218 1.380 . S
C217 C216 1.170 . S
C218 C216 1.380 . S
C218 C219 1.170 . S
C219 C218 1.170 . S
C220 C221 1.170 . S
C220 C222 1.380 . S
C221 C220 1.170 . S
C222 C220 1.380 . S
C222 C223 1.170 1_655 S
C223 C222 1.170 1_455 S
C224 C225 1.170 . S
C224 C226 1.380 . S
C225 C224 1.170 . S
C226 C224 1.380 . S
C226 C227 1.170 . S
C227 C226 1.170 . S
C228 C229 1.170 . S
C228 C230 1.380 . S
C229 C228 1.170 . S
C230 C228 1.380 . S
C230 C231 1.170 . S
C231 C230 1.170 . S
C232 C233 1.170 . S
C232 C234 1.380 . S
C233 C232 1.170 . S
C234 C232 1.380 . S
C234 C235 1.170 . S
C235 C234 1.170 . S
C236 C237 1.170 . S
C236 C238 1.380 . S
C237 C236 1.170 . S
C238 C236 1.380 . S
C238 C239 1.170 . S
C239 C238 1.170 . S
C240 C241 1.170 . S
C240 C242 1.380 . S
C241 C240 1.170 . S
C242 C240 1.380 . S
C242 C243 1.170 . S
C243 C242 1.170 . S
C244 C245 1.170 . S
C244 C246 1.380 . S
C245 C244 1.170 . S
C246 C244 1.380 . S
C246 C247 1.170 . S
C247 C246 1.170 . S
C248 C249 1.170 . S
C248 C250 1.380 . S
C249 C248 1.170 . S
C250 C248 1.380 . S
C250 C251 1.170 . S
C251 C250 1.170 . S
C252 C253 1.170 . S
C252 C254 1.380 . S
C253 C252 1.170 . S
C254 C252 1.380 . S
C254 C255 1.170 . S
C255 C254 1.170 . S
C161 C7 1.450 . S
C163 C93 1.443 . S
C165 C37 1.352 . S
C167 C101 1.338 . S
C169 C54 1.427 . S
C171 C110 1.363 . S
C175 C120 1.436 . S
C173 C87 1.438 . S
C179 C129 1.382 . S
C177 C30 1.408 . S
C181 C51 1.396 1_455 S
C183 C138 1.447 . S
C185 C84 1.459 . S
C187 C146 1.389 . S
C189 C10 1.337 . S
C191 C156 1.320 1_455 S
C193 C59 1.432 . S
C195 C155 1.432 . S
C199 C128 1.303 . S
C197 C74 1.304 . S
C203 C137 1.387 . S
C201 C18 1.436 . S
C205 C32 1.428 . S
C207 C147 1.428 . S
C211 C102 1.444 . S
C209 C73 1.459 . S
C213 C15 1.397 1_655 S
C215 C111 1.439 . S
C219 C119 1.422 . S
C217 C43 1.458 . S
C223 C92 1.292 . S
C221 C62 1.330 . S
C227 C149 1.453 . S
C225 C21 1.481 . S
C231 C158 1.349 . S
C229 C29 1.333 . S
C233 C52 1.325 . S
C235 C131 1.317 . S
C239 C140 1.431 . S
C237 C81 1.465 . S
C243 C113 1.429 . S
C241 C40 1.456 . S
C245 C65 1.458 . S
C247 C122 1.394 . S
C251 C95 1.321 . S
C249 C76 1.331 . S
C255 C104 1.338 . S
C253 C8 1.350 1_556 S
