# Generated by pormake.
# Topology pyr, (3,6)-cn, num edge types: 1
# Building blocks:
#     Node 0, Type 0, BuildingBlock: MIDCAF_clean_linker_0, # of connection points: 3
#     Node 1, Type 0, BuildingBlock: MIDCAF_clean_linker_0, # of connection points: 3
#     Node 2, Type 0, BuildingBlock: MIDCAF_clean_linker_0, # of connection points: 3
#     Node 3, Type 0, BuildingBlock: MIDCAF_clean_linker_0, # of connection points: 3
#     Node 4, Type 0, BuildingBlock: MIDCAF_clean_linker_0, # of connection points: 3
#     Node 5, Type 0, BuildingBlock: MIDCAF_clean_linker_0, # of connection points: 3
#     Node 6, Type 0, BuildingBlock: MIDCAF_clean_linker_0, # of connection points: 3
#     Node 7, Type 0, BuildingBlock: MIDCAF_clean_linker_0, # of connection points: 3
#     Node 8, Type 1, BuildingBlock: VOLQOD_clean_sbu_1, # of connection points: 6
#     Node 9, Type 1, BuildingBlock: VOLQOD_clean_sbu_1, # of connection points: 6
#     Node 10, Type 1, BuildingBlock: VOLQOD_clean_sbu_1, # of connection points: 6
#     Node 11, Type 1, BuildingBlock: VOLQOD_clean_sbu_1, # of connection points: 6
#     Edge 12, Type (0, 1), BuildingBlock: TEMPAE_clean_linker_10, # of connection points: 2
#     Edge 13, Type (0, 1), BuildingBlock: TEMPAE_clean_linker_10, # of connection points: 2
#     Edge 14, Type (0, 1), BuildingBlock: TEMPAE_clean_linker_10, # of connection points: 2
#     Edge 15, Type (0, 1), BuildingBlock: TEMPAE_clean_linker_10, # of connection points: 2
#     Edge 16, Type (0, 1), BuildingBlock: TEMPAE_clean_linker_10, # of connection points: 2
#     Edge 17, Type (0, 1), BuildingBlock: TEMPAE_clean_linker_10, # of connection points: 2
#     Edge 18, Type (0, 1), BuildingBlock: TEMPAE_clean_linker_10, # of connection points: 2
#     Edge 19, Type (0, 1), BuildingBlock: TEMPAE_clean_linker_10, # of connection points: 2
#     Edge 20, Type (0, 1), BuildingBlock: TEMPAE_clean_linker_10, # of connection points: 2
#     Edge 21, Type (0, 1), BuildingBlock: TEMPAE_clean_linker_10, # of connection points: 2
#     Edge 22, Type (0, 1), BuildingBlock: TEMPAE_clean_linker_10, # of connection points: 2
#     Edge 23, Type (0, 1), BuildingBlock: TEMPAE_clean_linker_10, # of connection points: 2
#     Edge 24, Type (0, 1), BuildingBlock: TEMPAE_clean_linker_10, # of connection points: 2
#     Edge 25, Type (0, 1), BuildingBlock: TEMPAE_clean_linker_10, # of connection points: 2
#     Edge 26, Type (0, 1), BuildingBlock: TEMPAE_clean_linker_10, # of connection points: 2
#     Edge 27, Type (0, 1), BuildingBlock: TEMPAE_clean_linker_10, # of connection points: 2
#     Edge 28, Type (0, 1), BuildingBlock: TEMPAE_clean_linker_10, # of connection points: 2
#     Edge 29, Type (0, 1), BuildingBlock: TEMPAE_clean_linker_10, # of connection points: 2
#     Edge 30, Type (0, 1), BuildingBlock: TEMPAE_clean_linker_10, # of connection points: 2
#     Edge 31, Type (0, 1), BuildingBlock: TEMPAE_clean_linker_10, # of connection points: 2
#     Edge 32, Type (0, 1), BuildingBlock: TEMPAE_clean_linker_10, # of connection points: 2
#     Edge 33, Type (0, 1), BuildingBlock: TEMPAE_clean_linker_10, # of connection points: 2
#     Edge 34, Type (0, 1), BuildingBlock: TEMPAE_clean_linker_10, # of connection points: 2
#     Edge 35, Type (0, 1), BuildingBlock: TEMPAE_clean_linker_10, # of connection points: 2
# Relax obj value: 0.035
# Max RMSD: 0.119
# Mean RMSD: 0.044
data_MOF--net-pry--node1-VOLQOD_clean_sbu_1--node2-MIDCAF_clean_linker_0--edge1-TEMPAE_clean_linker_10
_symmetry_space_group_name_H-M    P1
_symmetry_Int_Tables_number       1
_symmetry_cell_setting            triclinic
loop_
_symmetry_equiv_pos_as_xyz
'x, y, z'
_cell_length_a     45.586297
_cell_length_b     45.636408
_cell_length_c     45.812787
_cell_angle_alpha  89.977508
_cell_angle_beta   90.116765
_cell_angle_gamma 90.121051
loop_
_atom_site_label
_atom_site_type_symbol
_atom_site_fract_x
_atom_site_fract_y
_atom_site_fract_z
_atom_type_partial_charge
C0 C 0.06666 0.11208 0.22138 0.0
C1 C 0.08239 0.09112 0.23757 0.0
C2 C 0.10965 0.08156 0.22698 0.0
C3 C 0.12105 0.09282 0.20104 0.0
H4 H 0.19537 0.09209 0.15104 0.0
H5 H 0.24175 0.07323 0.13243 0.0
H6 H 0.22619 0.1164 0.05003 0.0
H7 H 0.17979 0.13559 0.06858 0.0
H8 H 0.14563 0.2017 0.08473 0.0
H9 H 0.12617 0.24745 0.06533 0.0
H10 H 0.04343 0.23072 0.10784 0.0
H11 H 0.06289 0.18487 0.12769 0.0
H12 H 0.06552 0.13974 0.18366 0.0
H13 H 0.04541 0.11964 0.22872 0.0
H14 H 0.12261 0.06583 0.23911 0.0
H15 H 0.14231 0.08515 0.19386 0.0
N16 N 0.1436 0.11563 0.147 0.0
N17 N 0.1435 0.15115 0.1101 0.0
N18 N 0.10592 0.15047 0.14503 0.0
C19 C 0.15616 0.12751 0.1229 0.0
C20 C 0.1184 0.16279 0.12103 0.0
C21 C 0.11843 0.12685 0.15816 0.0
C22 C 0.18389 0.1154 0.11131 0.0
C23 C 0.20171 0.0975 0.1289 0.0
C24 C 0.22833 0.08681 0.11835 0.0
C25 C 0.23748 0.09344 0.08986 0.0
C26 C 0.2195 0.11087 0.07204 0.0
C27 C 0.19305 0.12195 0.08274 0.0
C28 C 0.10584 0.18964 0.10787 0.0
C29 C 0.1232 0.20756 0.08982 0.0
C30 C 0.11216 0.23384 0.07881 0.0
C31 C 0.08339 0.24257 0.08522 0.0
C32 C 0.06567 0.22435 0.10252 0.0
C33 C 0.07687 0.19823 0.11396 0.0
C34 C 0.10557 0.11412 0.18506 0.0
C35 C 0.07814 0.12351 0.19546 0.0
C36 C 0.30184 0.94118 0.61082 0.0
C37 C 0.28583 0.92582 0.58948 0.0
C38 C 0.29749 0.89965 0.57826 0.0
C39 C 0.32422 0.88879 0.58858 0.0
H40 H 0.39388 0.83164 0.56858 0.0
H41 H 0.41286 0.78574 0.54892 0.0
H42 H 0.4627 0.77209 0.62794 0.0
H43 H 0.4439 0.81794 0.64773 0.0
H44 H 0.45701 0.88026 0.68481 0.0
H45 H 0.47569 0.89881 0.73131 0.0
H46 H 0.39566 0.94754 0.7438 0.0
H47 H 0.37688 0.92922 0.69741 0.0
H48 H 0.33998 0.94254 0.63798 0.0
H49 H 0.29376 0.96168 0.61956 0.0
H50 H 0.28558 0.88706 0.56206 0.0
H51 H 0.33224 0.86827 0.57983 0.0
N52 N 0.37994 0.86748 0.61055 0.0
N53 N 0.4159 0.86719 0.64725 0.0
N54 N 0.37903 0.90289 0.64757 0.0
C55 C 0.40433 0.85531 0.62257 0.0
C56 C 0.40341 0.89103 0.65984 0.0
C57 C 0.36719 0.89133 0.62289 0.0
C58 C 0.41724 0.82844 0.60981 0.0
C59 C 0.40903 0.81899 0.58172 0.0
C60 C 0.42001 0.7928 0.57037 0.0
C61 C 0.43915 0.77538 0.58697 0.0
C62 C 0.44779 0.78503 0.6148 0.0
C63 C 0.4371 0.81137 0.62603 0.0
C64 C 0.4154 0.90317 0.68738 0.0
C65 C 0.44342 0.89502 0.69739 0.0
C66 C 0.45421 0.90574 0.72391 0.0
C67 C 0.43705 0.9245 0.74112 0.0
C68 C 0.40921 0.9329 0.73103 0.0
C69 C 0.39856 0.9225 0.70438 0.0
C70 C 0.33983 0.90375 0.61051 0.0
C71 C 0.32846 0.93025 0.62128 0.0
C72 C 0.60782 0.30116 0.95242 0.0
C73 C 0.58063 0.28925 0.94424 0.0
C74 C 0.56227 0.30527 0.92547 0.0
C75 C 0.57142 0.33232 0.91428 0.0
H76 H 0.55496 0.39282 0.84651 0.0
H77 H 0.53653 0.40778 0.7986 0.0
H78 H 0.61374 0.46104 0.78568 0.0
H79 H 0.63221 0.44643 0.83338 0.0
H80 H 0.66956 0.46242 0.89288 0.0
H81 H 0.71675 0.48226 0.90885 0.0
H82 H 0.73096 0.40556 0.96214 0.0
H83 H 0.68393 0.38561 0.94638 0.0
H84 H 0.63815 0.33656 0.94804 0.0
H85 H 0.62225 0.28935 0.96707 0.0
H86 H 0.54123 0.29645 0.91875 0.0
H87 H 0.55707 0.34387 0.89936 0.0
N88 N 0.59664 0.38307 0.88472 0.0
N89 N 0.6322 0.42027 0.88289 0.0
N90 N 0.63416 0.38481 0.91976 0.0
C91 C 0.6078 0.40739 0.87158 0.0
C92 C 0.64542 0.40921 0.90706 0.0
C93 C 0.60972 0.37169 0.90888 0.0
C94 C 0.59517 0.41826 0.84378 0.0
C95 C 0.5679 0.40793 0.83359 0.0
C96 C 0.55726 0.41656 0.80624 0.0
C97 C 0.57385 0.43536 0.78844 0.0
C98 C 0.60068 0.44628 0.79889 0.0
C99 C 0.61115 0.43798 0.82631 0.0
C100 C 0.673 0.42233 0.9182 0.0
C101 C 0.68263 0.44985 0.90815 0.0
C102 C 0.70955 0.46131 0.91739 0.0
C103 C 0.72749 0.44533 0.93657 0.0
C104 C 0.71763 0.41816 0.9471 0.0
C105 C 0.69061 0.40685 0.93815 0.0
C106 C 0.59895 0.344 0.922 0.0
C107 C 0.61681 0.3283 0.94158 0.0
C108 C 0.79915 0.59428 0.45152 0.0
C109 C 0.78833 0.5672 0.44167 0.0
C110 C 0.80534 0.55049 0.42236 0.0
C111 C 0.83225 0.56116 0.41227 0.0
H112 H 0.8794 0.56452 0.33387 0.0
H113 H 0.89689 0.54957 0.28583 0.0
H114 H 0.97709 0.59809 0.29967 0.0
H115 H 0.95973 0.61323 0.34771 0.0
H116 H 0.94781 0.67407 0.38485 0.0
H117 H 0.96405 0.72167 0.40236 0.0
H118 H 0.9096 0.71185 0.47886 0.0
H119 H 0.89259 0.66454 0.46094 0.0
H120 H 0.83358 0.62601 0.44939 0.0
H121 H 0.78654 0.60745 0.46662 0.0
H122 H 0.7974 0.5296 0.41433 0.0
H123 H 0.84454 0.54805 0.39687 0.0
N124 N 0.88219 0.58936 0.38478 0.0
N125 N 0.91841 0.6259 0.38482 0.0
N126 N 0.88253 0.62529 0.42134 0.0
C127 C 0.90637 0.60164 0.37247 0.0
C128 C 0.90669 0.63783 0.40929 0.0
C129 C 0.87022 0.60098 0.40932 0.0
C130 C 0.91808 0.59024 0.34458 0.0
C131 C 0.90091 0.57175 0.32688 0.0
C132 C 0.91082 0.56331 0.29931 0.0
C133 C 0.93823 0.57283 0.28905 0.0
C134 C 0.95592 0.59034 0.30715 0.0
C135 C 0.94588 0.59911 0.33457 0.0
C136 C 0.91868 0.66552 0.42135 0.0
C137 C 0.93945 0.68188 0.40554 0.0
C138 C 0.94891 0.70917 0.41567 0.0
C139 C 0.938 0.72068 0.44195 0.0
C140 C 0.91801 0.70387 0.45826 0.0
C141 C 0.90839 0.67665 0.44804 0.0
C142 C 0.8428 0.58861 0.42157 0.0
C143 C 0.82617 0.6048 0.44172 0.0
C144 C 0.81884 0.97469 0.94302 0.0
C145 C 0.81028 0.96611 0.97125 0.0
C146 C 0.83 0.94961 0.98824 0.0
C147 C 0.85702 0.94083 0.9768 0.0
H148 H 0.91854 0.87352 0.98526 0.0
H149 H 0.93552 0.82531 0.00063 0.0
H150 H 0.9853 0.81741 0.92084 0.0
H151 H 0.96929 0.86575 0.90597 0.0
H152 H 0.97484 0.92192 0.86467 0.0
H153 H 0.98681 0.93529 0.81456 0.0
H154 H 0.90803 0.98738 0.80938 0.0
H155 H 0.89584 0.97405 0.85944 0.0
H156 H 0.8513 0.97262 0.90961 0.0
H157 H 0.80412 0.98696 0.92905 0.0
H158 H 0.8244 0.94307 0.01027 0.0
H159 H 0.87137 0.92753 0.99021 0.0
N160 N 0.90603 0.91349 0.94672 0.0
N161 N 0.93885 0.91258 0.9074 0.0
N162 N 0.90188 0.94806 0.90905 0.0
C163 C 0.92941 0.90114 0.9331 0.0
C164 C 0.92533 0.93612 0.8953 0.0
C165 C 0.89222 0.93705 0.93486 0.0
C166 C 0.9423 0.87349 0.94424 0.0
C167 C 0.93344 0.86168 0.97118 0.0
C168 C 0.94303 0.83394 0.97993 0.0
C169 C 0.96154 0.81731 0.96186 0.0
C170 C 0.97134 0.82967 0.93551 0.0
C171 C 0.96196 0.85745 0.92688 0.0
C172 C 0.93424 0.94669 0.86605 0.0
C173 C 0.96018 0.93646 0.853 0.0
C174 C 0.96715 0.94422 0.82434 0.0
C175 C 0.94822 0.96218 0.80807 0.0
C176 C 0.92282 0.97321 0.82137 0.0
C177 C 0.91596 0.96568 0.85011 0.0
C178 C 0.86507 0.94866 0.94824 0.0
C179 C 0.84594 0.96627 0.93175 0.0
C180 C 0.58489 0.03572 0.32575 0.0
C181 C 0.55711 0.04358 0.31488 0.0
C182 C 0.53817 0.05975 0.33289 0.0
C183 C 0.54741 0.06932 0.36036 0.0
H184 H 0.54501 0.14871 0.40355 0.0
H185 H 0.52897 0.1977 0.41645 0.0
H186 H 0.57928 0.19308 0.49639 0.0
H187 H 0.59631 0.14439 0.48292 0.0
H188 H 0.65821 0.10963 0.47342 0.0
H189 H 0.70792 0.09761 0.48872 0.0
H190 H 0.70536 0.0193 0.43597 0.0
H191 H 0.6555 0.03112 0.42055 0.0
H192 H 0.61598 0.03951 0.36054 0.0
H193 H 0.60018 0.02354 0.3124 0.0
H194 H 0.51638 0.06562 0.32548 0.0
H195 H 0.53258 0.08254 0.37326 0.0
N196 N 0.57361 0.10032 0.40885 0.0
N197 N 0.6103 0.10463 0.44445 0.0
N198 N 0.61219 0.06647 0.41027 0.0
C199 C 0.58509 0.11463 0.4322 0.0
C200 C 0.62394 0.08049 0.43372 0.0
C201 C 0.5869 0.07613 0.39785 0.0
C202 C 0.57222 0.1427 0.44204 0.0
C203 C 0.5524 0.15793 0.42407 0.0
C204 C 0.54306 0.18606 0.43155 0.0
C205 C 0.55303 0.19951 0.45735 0.0
C206 C 0.57169 0.18365 0.47603 0.0
C207 C 0.5813 0.15564 0.4684 0.0
C208 C 0.65287 0.07149 0.4455 0.0
C209 C 0.668 0.08965 0.46528 0.0
C210 C 0.69657 0.08288 0.47397 0.0
C211 C 0.71054 0.05769 0.46332 0.0
C212 C 0.69504 0.03882 0.4446 0.0
C213 C 0.66653 0.04569 0.43568 0.0
C214 C 0.57571 0.06266 0.37061 0.0
C215 C 0.59402 0.04501 0.35337 0.0
C216 C 0.32132 0.5473 0.07681 0.0
C217 C 0.30501 0.56609 0.05867 0.0
C218 C 0.31756 0.59289 0.05005 0.0
C219 C 0.34537 0.60107 0.05999 0.0
H220 H 0.40337 0.66771 0.05685 0.0
H221 H 0.42221 0.71563 0.04384 0.0
H222 H 0.50098 0.69871 0.09371 0.0
H223 H 0.48154 0.65094 0.10776 0.0
H224 H 0.4786 0.59817 0.15574 0.0
H225 H 0.49405 0.57945 0.20314 0.0
H226 H 0.41258 0.5314 0.21042 0.0
H227 H 0.39764 0.54915 0.16274 0.0
H228 H 0.36073 0.54084 0.10137 0.0
H229 H 0.31254 0.52626 0.08343 0.0
H230 H 0.3055 0.60809 0.03644 0.0
H231 H 0.35397 0.62222 0.05347 0.0
N232 N 0.40284 0.61717 0.08125 0.0
N233 N 0.43922 0.61335 0.11727 0.0
N234 N 0.40105 0.57886 0.11522 0.0
C235 C 0.42781 0.62754 0.09378 0.0
C236 C 0.42596 0.58897 0.12813 0.0
C237 C 0.38945 0.59273 0.09167 0.0
C238 C 0.44083 0.65549 0.08355 0.0
C239 C 0.42485 0.67399 0.06486 0.0
C240 C 0.43577 0.70151 0.05721 0.0
C241 C 0.46313 0.71115 0.06775 0.0
C242 C 0.47961 0.69221 0.08561 0.0
C243 C 0.46852 0.66474 0.09353 0.0
C244 C 0.43677 0.57536 0.15547 0.0
C245 C 0.46413 0.58332 0.1673 0.0
C246 C 0.47293 0.57272 0.19457 0.0
C247 C 0.45445 0.55414 0.21078 0.0
C248 C 0.42756 0.54537 0.19845 0.0
C249 C 0.41891 0.55571 0.17108 0.0
C250 C 0.3612 0.58279 0.07903 0.0
C251 C 0.34903 0.55561 0.08698 0.0
C252 C 0.09087 0.30532 0.57002 0.0
C253 C 0.06264 0.29568 0.5775 0.0
C254 C 0.04322 0.31514 0.59115 0.0
C255 C 0.05228 0.34362 0.59806 0.0
H256 H 0.05244 0.39951 0.67163 0.0
H257 H 0.03769 0.42028 0.71799 0.0
H258 H 0.08296 0.50082 0.69668 0.0
H259 H 0.09883 0.47947 0.6506 0.0
H260 H 0.15357 0.47339 0.60494 0.0
H261 H 0.20114 0.48942 0.58652 0.0
H262 H 0.20936 0.40838 0.53849 0.0
H263 H 0.16172 0.39281 0.55595 0.0
H264 H 0.12183 0.34047 0.57068 0.0
H265 H 0.10612 0.29068 0.55931 0.0
H266 H 0.02135 0.30806 0.59713 0.0
H267 H 0.03709 0.35805 0.60912 0.0
N268 N 0.07834 0.39728 0.62185 0.0
N269 N 0.11321 0.43496 0.61761 0.0
N270 N 0.11512 0.3944 0.58637 0.0
C271 C 0.08923 0.42347 0.63106 0.0
C272 C 0.12623 0.42057 0.59515 0.0
C273 C 0.09112 0.3827 0.59942 0.0
C274 C 0.07709 0.43769 0.65746 0.0
C275 C 0.05898 0.42179 0.67659 0.0
C276 C 0.05035 0.43382 0.70322 0.0
C277 C 0.05925 0.46222 0.71127 0.0
C278 C 0.07619 0.47866 0.69149 0.0
C279 C 0.08515 0.46648 0.66496 0.0
C280 C 0.15383 0.43171 0.58212 0.0
C281 C 0.16538 0.45915 0.59017 0.0
C282 C 0.19272 0.46828 0.57974 0.0
C283 C 0.20918 0.45013 0.56115 0.0
C284 C 0.19716 0.42313 0.55241 0.0
C285 C 0.16981 0.4141 0.56265 0.0
C286 C 0.08071 0.35321 0.59089 0.0
C287 C 0.09974 0.33386 0.57642 0.0
O288 O 0.99382 0.07222 0.54192 0.0
Zn289 Zn 0.97884 0.03083 0.53997 0.0
O290 O 0.00396 0.00641 0.51553 0.0
Zn291 Zn 0.98212 0.99356 0.48098 0.0
Zn292 Zn 0.03834 0.02895 0.50335 0.0
Zn293 Zn 0.01643 0.97226 0.53805 0.0
O294 O 0.98091 0.94943 0.47862 0.0
O295 O 0.00182 0.93488 0.51996 0.0
O296 O 0.93742 0.03147 0.52469 0.0
O297 O 0.94017 0.00723 0.48277 0.0
O298 O 0.0002 0.00918 0.44388 0.0
O299 O 0.04059 0.03142 0.4596 0.0
O300 O 0.07592 0.01067 0.51807 0.0
O301 O 0.97759 0.01601 0.58116 0.0
O302 O 0.0604 0.96999 0.53975 0.0
O303 O 0.00213 0.97412 0.57964 0.0
C304 C 0.01693 0.08464 0.53241 0.0
C305 C 0.98881 0.92911 0.49602 0.0
C306 C 0.02377 0.02335 0.43887 0.0
C307 C 0.92544 0.02151 0.50158 0.0
C308 C 0.08113 0.98684 0.53159 0.0
C309 C 0.98743 0.99315 0.59369 0.0
O310 O 0.036 0.07055 0.51779 0.0
O311 O 0.50953 0.06905 0.9894 0.0
Zn312 Zn 0.4922 0.02875 0.993 0.0
O313 O 0.51528 0.00458 0.01963 0.0
Zn314 Zn 0.53426 0.97326 0.99773 0.0
Zn315 Zn 0.54505 0.0289 0.03868 0.0
Zn316 Zn 0.48941 0.9873 0.04889 0.0
O317 O 0.52456 0.93365 0.01461 0.0
O318 O 0.48905 0.94328 0.04627 0.0
O319 O 0.49019 0.01078 0.95287 0.0
O320 O 0.52 0.97251 0.95616 0.0
O321 O 0.57814 0.97809 0.99783 0.0
O322 O 0.5857 0.0148 0.02879 0.0
O323 O 0.541 0.02741 0.08239 0.0
O324 O 0.4509 0.0337 0.00785 0.0
O325 O 0.50297 0.9978 0.08942 0.0
O326 O 0.44819 0.00239 0.04487 0.0
C327 C 0.52843 0.08318 0.00432 0.0
C328 C 0.50519 0.92508 0.03271 0.0
C329 C 0.59543 0.99502 0.01179 0.0
C330 C 0.50249 0.98851 0.94149 0.0
C331 C 0.52349 0.01393 0.09939 0.0
C332 C 0.43639 0.02134 0.02817 0.0
O333 O 0.54262 0.07099 0.02501 0.0
O334 O 0.52832 0.5027 0.56837 0.0
Zn335 Zn 0.52747 0.51807 0.52709 0.0
O336 O 0.50218 0.4939 0.50213 0.0
Zn337 Zn 0.52534 0.47688 0.47048 0.0
Zn338 Zn 0.48477 0.46244 0.52541 0.0
Zn339 Zn 0.47097 0.51813 0.48552 0.0
O340 O 0.5103 0.4897 0.43122 0.0
O341 O 0.47258 0.51856 0.44151 0.0
O342 O 0.56901 0.51865 0.51209 0.0
O343 O 0.5674 0.4901 0.47288 0.0
O344 O 0.52441 0.43266 0.47177 0.0
O345 O 0.49617 0.42293 0.51 0.0
O346 O 0.44063 0.46486 0.52541 0.0
O347 O 0.51304 0.55978 0.52878 0.0
O348 O 0.43121 0.50346 0.49747 0.0
O349 O 0.4738 0.55962 0.50001 0.0
C350 C 0.51586 0.48114 0.58096 0.0
C351 C 0.48937 0.50624 0.42305 0.0
C352 C 0.51193 0.41439 0.48876 0.0
C353 C 0.58155 0.50658 0.49039 0.0
C354 C 0.42249 0.48231 0.51338 0.0
C355 C 0.49143 0.57297 0.51703 0.0
O356 O 0.49869 0.46407 0.56706 0.0
O357 O 0.98376 0.51302 0.06727 0.0
Zn358 Zn 0.98568 0.49793 0.02618 0.0
O359 O 0.01147 0.52205 0.00197 0.0
Zn360 Zn 0.98907 0.54021 0.97028 0.0
Zn361 Zn 0.02901 0.55275 0.0262 0.0
Zn362 Zn 0.04212 0.49724 0.9853 0.0
O363 O 0.00532 0.52923 0.93092 0.0
O364 O 0.04013 0.4969 0.94138 0.0
O365 O 0.9447 0.49723 0.00981 0.0
O366 O 0.94708 0.52638 0.97103 0.0
O367 O 0.9894 0.58432 0.97339 0.0
O368 O 0.01749 0.59279 0.01211 0.0
O369 O 0.07306 0.5502 0.0255 0.0
O370 O 0.00029 0.45644 0.02901 0.0
O371 O 0.08216 0.51183 0.99712 0.0
O372 O 0.03882 0.45559 -0.0005 0.0
C373 C 0.99704 0.53344 0.08086 0.0
C374 C 0.02498 0.5112 0.92285 0.0
C375 C 0.00167 0.60203 0.99113 0.0
C376 C 0.93264 0.50949 0.98788 0.0
C377 C 0.09105 0.53292 0.01308 0.0
C378 C 0.02142 0.44276 0.01709 0.0
O379 O 0.01537 0.55005 0.06796 0.0
C380 C 0.07457 0.0503 0.2735 0.0
C381 C 0.071 0.07987 0.26586 0.0
C382 C 0.06586 0.03985 0.30097 0.0
C383 C 0.05301 0.05938 0.32121 0.0
C384 C 0.04847 0.08902 0.31333 0.0
C385 C 0.05763 0.09894 0.28581 0.0
C386 C 0.07112 0.00809 0.3086 0.0
C387 C 0.03469 0.11048 0.33429 0.0
C388 C 0.01085 0.02857 0.38587 0.0
C389 C 0.03148 0.03143 0.40849 0.0
C390 C 0.01756 0.03744 0.35729 0.0
C391 C 0.04565 0.04918 0.35115 0.0
C392 C 0.06673 0.05162 0.37374 0.0
C393 C 0.05935 0.04284 0.40214 0.0
C394 C 0.99446 0.03473 0.33377 0.0
C395 C 0.09703 0.06375 0.36799 0.0
H396 H 0.08441 0.0353 0.25804 0.0
H397 H 0.0551 0.12189 0.28028 0.0
H398 H 0.08664 0.00664 0.32723 0.0
H399 H 0.05032 0.99757 0.31557 0.0
H400 H 0.08029 0.9955 0.29 0.0
H401 H 0.03093 0.13227 0.32414 0.0
H402 H 0.0134 0.10183 0.34228 0.0
H403 H 0.04914 0.11339 0.35359 0.0
H404 H 0.98922 0.01988 0.39058 0.0
H405 H 0.0755 0.045 0.41941 0.0
H406 H 0.00286 0.02128 0.31545 0.0
H407 H 0.98928 0.05672 0.32483 0.0
H408 H 0.97388 0.02462 0.34199 0.0
H409 H 0.10794 0.05083 0.35062 0.0
H410 H 0.11114 0.06345 0.38779 0.0
H411 H 0.09539 0.08666 0.36006 0.0
C412 C 0.42972 0.93239 0.79452 0.0
C413 C 0.44779 0.93471 0.76991 0.0
C414 C 0.43957 0.94156 0.82205 0.0
C415 C 0.46804 0.95368 0.82495 0.0
C416 C 0.48632 0.95629 0.80012 0.0
C417 C 0.47603 0.94655 0.77289 0.0
C418 C 0.4196 0.93801 0.84809 0.0
C419 C 0.51665 0.96945 0.80233 0.0
C420 C 0.4809 0.00012 0.89252 0.0
C421 C 0.49534 0.98031 0.91101 0.0
C422 C 0.47268 0.99203 0.8641 0.0
C423 C 0.47867 0.96332 0.8541 0.0
C424 C 0.49367 0.94338 0.87246 0.0
C425 C 0.502 0.95218 0.90062 0.0
C426 C 0.45708 0.01402 0.84497 0.0
C427 C 0.50015 0.91246 0.86268 0.0
H428 H 0.408 0.92291 0.79228 0.0
H429 H 0.48992 0.94854 0.7538 0.0
H430 H 0.43033 0.92405 0.86481 0.0
H431 H 0.41545 0.95965 0.85828 0.0
H432 H 0.39818 0.92797 0.84214 0.0
H433 H 0.5279 0.97038 0.78086 0.0
H434 H 0.5153 0.99197 0.81132 0.0
H435 H 0.53029 0.95639 0.8176 0.0
H436 H 0.47586 0.02197 0.9003 0.0
H437 H 0.51305 0.93668 0.91479 0.0
H438 H 0.43449 0.00626 0.84025 0.0
H439 H 0.46858 0.0162 0.82375 0.0
H440 H 0.45574 0.03599 0.85531 0.0
H441 H 0.47928 0.90065 0.8584 0.0
H442 H 0.51288 0.89998 0.87921 0.0
H443 H 0.51268 0.91275 0.84196 0.0
C444 C 0.53541 0.45264 0.75328 0.0
C445 C 0.56398 0.44259 0.75848 0.0
C446 C 0.52611 0.45972 0.7249 0.0
C447 C 0.54571 0.45614 0.70122 0.0
C448 C 0.57448 0.44569 0.70639 0.0
C449 C 0.58331 0.43924 0.73499 0.0
C450 C 0.49542 0.4712 0.72025 0.0
C451 C 0.59587 0.44112 0.68167 0.0
C452 C 0.51589 0.44772 0.62426 0.0
C453 C 0.52208 0.47529 0.61216 0.0
C454 C 0.52304 0.44133 0.65337 0.0
C455 C 0.53628 0.46318 0.67094 0.0
C456 C 0.5418 0.49132 0.65913 0.0
C457 C 0.53486 0.49697 0.62981 0.0
C458 C 0.51719 0.41093 0.66507 0.0
C459 C 0.55552 0.51531 0.67733 0.0
H460 H 0.52053 0.45538 0.7715 0.0
H461 H 0.60529 0.4311 0.73897 0.0
H462 H 0.49633 0.49309 0.70973 0.0
H463 H 0.48315 0.45647 0.7053 0.0
H464 H 0.48302 0.47308 0.74102 0.0
H465 H 0.61727 0.43242 0.68936 0.0
H466 H 0.58649 0.42559 0.66552 0.0
H467 H 0.59982 0.46214 0.67015 0.0
H468 H 0.50612 0.4308 0.61075 0.0
H469 H 0.53949 0.51841 0.62069 0.0
H470 H 0.50352 0.41214 0.68503 0.0
H471 H 0.53822 0.40042 0.67131 0.0
H472 H 0.50589 0.39672 0.64888 0.0
H473 H 0.54278 0.51851 0.6977 0.0
H474 H 0.55664 0.53651 0.66545 0.0
H475 H 0.57808 0.50892 0.6838 0.0
C476 C 0.97593 0.55488 0.25368 0.0
C477 C 0.94772 0.56577 0.25899 0.0
C478 C 0.98525 0.54877 0.22514 0.0
C479 C 0.96602 0.55415 0.20143 0.0
C480 C 0.93755 0.56525 0.20672 0.0
C481 C 0.92868 0.57073 0.23547 0.0
C482 C 0.0156 0.53652 0.22034 0.0
C483 C 0.91657 0.57166 0.18197 0.0
C484 C 0.9973 0.5651 0.12545 0.0
C485 C 0.99049 0.53827 0.11211 0.0
C486 C 0.9898 0.57045 0.15466 0.0
C487 C 0.97558 0.54827 0.17101 0.0
C488 C 0.9694 0.52086 0.15791 0.0
C489 C 0.97672 0.51627 0.12855 0.0
C490 C 0.99639 0.6001 0.16779 0.0
C491 C 0.95465 0.49653 0.17479 0.0
H492 H 0.99059 0.55089 0.27191 0.0
H493 H 0.907 0.57954 0.23955 0.0
H494 H 0.01412 0.5153 0.20862 0.0
H495 H 0.02855 0.55165 0.20644 0.0
H496 H 0.02764 0.53307 0.24117 0.0
H497 H 0.89532 0.58053 0.1898 0.0
H498 H 0.92655 0.58776 0.16677 0.0
H499 H 0.91221 0.55138 0.16933 0.0
H500 H 0.00784 0.58224 0.11285 0.0
H501 H 0.97162 0.49538 0.11846 0.0
H502 H 0.00982 0.59756 0.18784 0.0
H503 H 0.97561 0.61091 0.17425 0.0
H504 H 0.00826 0.6147 0.15239 0.0
H505 H 0.96703 0.49192 0.19516 0.0
H506 H 0.95293 0.47596 0.16193 0.0
H507 H 0.93225 0.50339 0.18125 0.0
C508 C 0.29147 0.08674 0.09567 0.0
C509 C 0.26601 0.08257 0.079 0.0
C510 C 0.31871 0.07658 0.08583 0.0
C511 C 0.32039 0.06148 0.05889 0.0
C512 C 0.29471 0.05715 0.04198 0.0
C513 C 0.2678 0.068 0.05215 0.0
C514 C 0.34568 0.08206 0.10425 0.0
C515 C 0.29561 0.04074 0.01339 0.0
C516 C 0.39552 0.05754 0.02356 0.0
C517 C 0.40576 0.03041 0.03373 0.0
C518 C 0.36749 0.06768 0.03104 0.0
C519 C 0.3491 0.05004 0.04869 0.0
C520 C 0.35884 0.02211 0.05799 0.0
C521 C 0.38716 0.01274 0.05062 0.0
C522 C 0.35802 0.09775 0.02105 0.0
C523 C 0.33964 0.00246 0.07641 0.0
H524 H 0.29009 0.0983 0.11629 0.0
H525 H 0.24804 0.06461 0.03938 0.0
H526 H 0.35559 0.06089 0.11088 0.0
H527 H 0.36237 0.09411 0.09133 0.0
H528 H 0.34073 0.09489 0.12423 0.0
H529 H 0.27367 0.03925 0.00288 0.0
H530 H 0.31092 0.05173 0.99809 0.0
H531 H 0.30401 0.01823 0.01705 0.0
H532 H 0.40983 0.07137 0.01062 0.0
H533 H 0.39484 0.99165 0.05834 0.0
H534 H 0.35498 0.11218 0.0403 0.0
H535 H 0.33662 0.09645 0.00957 0.0
H536 H 0.37429 0.1081 0.00624 0.0
H537 H 0.33597 0.01273 0.09803 0.0
H538 H 0.34952 0.9805 0.07985 0.0
H539 H 0.31784 -0.00035 0.06594 0.0
C540 C 0.23672 0.94797 0.60009 0.0
C541 C 0.2566 0.9365 0.57974 0.0
C542 C 0.20868 0.95721 0.59152 0.0
C543 C 0.20015 0.95468 0.56191 0.0
C544 C 0.22016 0.94344 0.54117 0.0
C545 C 0.24818 0.93457 0.55031 0.0
C546 C 0.18797 0.96914 0.61428 0.0
C547 C 0.21179 0.94033 0.50941 0.0
C548 C 0.11836 0.94986 0.54728 0.0
C549 C 0.11181 0.97852 0.53832 0.0
C550 C 0.14712 0.94169 0.55444 0.0
C551 C 0.16988 0.96278 0.55293 0.0
C552 C 0.16351 0.99168 0.54367 0.0
C553 C 0.13456 0.99917 0.5363 0.0
C554 C 0.1531 0.91056 0.56391 0.0
C555 C 0.18718 0.01482 0.54211 0.0
H556 H 0.24283 0.9491 0.62294 0.0
H557 H 0.26353 0.92612 0.53438 0.0
H558 H 0.17988 0.99106 0.6076 0.0
H559 H 0.16857 0.95455 0.61621 0.0
H560 H 0.19849 0.97106 0.63609 0.0
H561 H 0.23012 0.93186 0.49592 0.0
H562 H 0.19286 0.92515 0.50728 0.0
H563 H 0.20481 0.96182 0.5005 0.0
H564 H 0.10097 0.93369 0.54869 0.0
H565 H 0.12968 0.02138 0.52949 0.0
H566 H 0.16155 0.91036 0.58663 0.0
H567 H 0.17026 0.90072 0.54986 0.0
H568 H 0.13317 0.89655 0.56286 0.0
H569 H 0.19673 0.01838 0.56412 0.0
H570 H 0.17877 0.03607 0.53377 0.0
H571 H 0.20522 0.00737 0.5277 0.0
C572 C 0.76083 0.48521 0.9544 0.0
C573 C 0.75696 0.45634 0.94468 0.0
C574 C 0.78877 0.49568 0.96215 0.0
C575 C 0.81334 0.47692 0.95967 0.0
C576 C 0.80953 0.44784 0.94961 0.0
C577 C 0.78135 0.43785 0.9424 0.0
C578 C 0.79198 0.5267 0.97318 0.0
C579 C 0.83525 0.4273 0.94627 0.0
C580 C 0.89006 0.50866 0.95337 0.0
C581 C 0.90149 0.5031 0.98128 0.0
C582 C 0.86115 0.50082 0.9462 0.0
C583 C 0.84314 0.48752 0.96759 0.0
C584 C 0.8542 0.48281 0.99609 0.0
C585 C 0.88332 0.49045 0.00253 0.0
C586 C 0.85022 0.50586 0.91546 0.0
C587 C 0.83549 0.46907 0.01959 0.0
H588 H 0.74192 0.49944 0.95633 0.0
H589 H 0.77841 0.41564 0.93451 0.0
H590 H 0.80177 0.52657 0.99537 0.0
H591 H 0.80709 0.53918 0.95885 0.0
H592 H 0.77064 0.53838 0.97405 0.0
H593 H 0.82858 0.4055 0.93771 0.0
H594 H 0.85165 0.43697 0.9312 0.0
H595 H 0.84625 0.42415 0.96765 0.0
H596 H 0.90398 0.51834 0.93679 0.0
H597 H 0.89192 0.48633 0.02423 0.0
H598 H 0.82959 0.51868 0.91579 0.0
H599 H 0.8452 0.4845 0.905 0.0
H600 H 0.86652 0.51766 0.90179 0.0
H601 H 0.81448 0.48111 0.02169 0.0
H602 H 0.84665 0.46888 0.04116 0.0
H603 H 0.83004 0.44616 0.01351 0.0
C604 C 0.75421 0.52847 0.46048 0.0
C605 C 0.75872 0.55713 0.45043 0.0
C606 C 0.72606 0.5187 0.46828 0.0
C607 C 0.7019 0.53796 0.46547 0.0
C608 C 0.70638 0.56691 0.45529 0.0
C609 C 0.73478 0.5762 0.44808 0.0
C610 C 0.72215 0.48782 0.47945 0.0
C611 C 0.68112 0.58796 0.45158 0.0
C612 C 0.62496 0.50721 0.45709 0.0
C613 C 0.61293 0.51279 0.48469 0.0
C614 C 0.65409 0.51477 0.45071 0.0
C615 C 0.67175 0.52782 0.4726 0.0
C616 C 0.66007 0.5326 0.50079 0.0
C617 C 0.63071 0.52524 0.50645 0.0
C618 C 0.66566 0.50967 0.42026 0.0
C619 C 0.67839 0.54606 0.52481 0.0
H620 H 0.77278 0.51379 0.46247 0.0
H621 H 0.7382 0.59826 0.43994 0.0
H622 H 0.71158 0.48819 0.50124 0.0
H623 H 0.70743 0.47539 0.46462 0.0
H624 H 0.74332 0.47592 0.48122 0.0
H625 H 0.68835 0.60973 0.44343 0.0
H626 H 0.66489 0.57876 0.43598 0.0
H627 H 0.6697 0.59105 0.47271 0.0
H628 H 0.61135 0.49769 0.44012 0.0
H629 H 0.62165 0.52939 0.5279 0.0
H630 H 0.686 0.4964 0.42112 0.0
H631 H 0.67139 0.53097 0.41005 0.0
H632 H 0.64947 0.49829 0.40607 0.0
H633 H 0.69917 0.53372 0.52749 0.0
H634 H 0.66671 0.54637 0.54607 0.0
H635 H 0.6843 0.56889 0.5189 0.0
C636 C 0.04571 0.27301 0.05949 0.0
C637 C 0.07238 0.27115 0.07463 0.0
C638 C 0.03551 0.30004 0.0489 0.0
C639 C 0.05216 0.32576 0.05413 0.0
C640 C 0.0789 0.32397 0.0698 0.0
C641 C 0.0888 0.29663 0.07964 0.0
C642 C 0.00717 0.30105 0.03184 0.0
C643 C 0.09702 0.35095 0.0763 0.0
C644 C 0.04449 0.39402 0.00745 0.0
C645 C 0.02699 0.41187 0.0252 0.0
C646 C 0.05178 0.36542 0.01602 0.0
C647 C 0.04182 0.35465 0.04325 0.0
C648 C 0.02357 0.3723 0.06093 0.0
C649 C 0.01614 0.40061 0.05156 0.0
C650 C 0.07082 0.34702 0.99631 0.0
C651 C 0.01292 0.36178 0.09033 0.0
H652 H 0.03313 0.25322 0.05548 0.0
H653 H 0.10928 0.29519 0.09163 0.0
H654 H 0.99133 0.31579 0.0428 0.0
H655 H 0.01125 0.31016 0.00976 0.0
H656 H 0.99695 0.27905 0.02949 0.0
H657 H 0.11688 0.34588 0.08942 0.0
H658 H 0.10401 0.36146 0.05561 0.0
H659 H 0.08361 0.36718 0.08838 0.0
H660 H 0.05273 0.40251 0.98693 0.0
H661 H 0.00273 0.41434 0.06546 0.0
H662 H 0.06062 0.32522 0.99274 0.0
H663 H 0.09243 0.34332 0.00685 0.0
H664 H 0.07452 0.35758 0.97477 0.0
H665 H 0.00165 0.34034 0.08812 0.0
H666 H 0.99762 0.37755 0.10072 0.0
H667 H 0.03195 0.35849 0.10511 0.0
C668 C 0.59179 0.23626 0.95129 0.0
C669 C 0.57213 0.25961 0.95432 0.0
C670 C 0.58411 0.20787 0.96016 0.0
C671 C 0.55622 0.20283 0.97276 0.0
C672 C 0.53639 0.22642 0.97623 0.0
C673 C 0.54449 0.25454 0.96669 0.0
C674 C 0.60566 0.1832 0.95562 0.0
C675 C 0.50665 0.22193 0.98998 0.0
C676 C 0.52659 0.12516 0.96934 0.0
C677 C 0.53449 0.11417 0.99686 0.0
C678 C 0.53323 0.15409 0.96136 0.0
C679 C 0.54766 0.17265 0.98156 0.0
C680 C 0.55501 0.16195 0.00965 0.0
C681 C 0.54858 0.13273 0.01688 0.0
C682 C 0.52548 0.16454 0.93102 0.0
C683 C 0.56997 0.18128 0.03193 0.0
H684 H 0.61304 0.24012 0.9414 0.0
H685 H 0.52938 0.27268 0.96922 0.0
H686 H 0.61087 0.17262 0.97679 0.0
H687 H 0.59576 0.16619 0.94134 0.0
H688 H 0.62646 0.19084 0.94553 0.0
H689 H 0.49423 0.24275 0.99205 0.0
H690 H 0.49351 0.20639 0.97668 0.0
H691 H 0.50919 0.21209 0.01199 0.0
H692 H 0.51583 0.11091 0.9537 0.0
H693 H 0.55453 0.12445 0.03826 0.0
H694 H 0.54575 0.1708 0.91917 0.0
H695 H 0.51147 0.18434 0.93226 0.0
H696 H 0.51374 0.14755 0.91813 0.0
H697 H 0.59198 0.18779 0.0239 0.0
H698 H 0.5726 0.17018 0.05336 0.0
H699 H 0.55718 0.20167 0.03516 0.0
C700 C 0.97539 0.7607 0.44818 0.0
C701 C 0.94649 0.75063 0.45159 0.0
C702 C 0.98323 0.78947 0.45574 0.0
C703 C 0.9617 0.80854 0.46721 0.0
C704 C 0.93264 0.79837 0.47126 0.0
C705 C 0.92536 0.7696 0.46327 0.0
C706 C 0.01443 0.79958 0.45108 0.0
C707 C 0.90911 0.81804 0.48357 0.0
C708 C 0.98612 0.87595 0.50933 0.0
C709 C 0.98244 0.89818 0.48845 0.0
C710 C 0.97957 0.84665 0.50268 0.0
C711 C 0.96936 0.83936 0.47441 0.0
C712 C 0.96594 0.86159 0.45313 0.0
C713 C 0.97239 0.89075 0.46044 0.0
C714 C 0.98322 0.82355 0.52601 0.0
C715 C 0.95532 0.85459 0.42266 0.0
H716 H 0.99194 0.74606 0.43956 0.0
H717 H 0.90288 0.76219 0.46555 0.0
H718 H 0.01478 0.8183 0.43561 0.0
H719 H 0.02395 0.80744 0.47196 0.0
H720 H 0.02863 0.78192 0.4423 0.0
H721 H 0.88789 0.8064 0.48649 0.0
H722 H 0.91618 0.82695 0.505 0.0
H723 H 0.90556 0.83696 0.46878 0.0
H724 H 0.99377 0.88147 0.53106 0.0
H725 H 0.96962 0.90774 0.44413 0.0
H726 H 0.9985 0.80628 0.51841 0.0
H727 H 0.96182 0.8128 0.53037 0.0
H728 H 0.99176 0.83278 0.54681 0.0
H729 H 0.96996 0.83815 0.41244 0.0
H730 H 0.95454 0.8743 0.40845 0.0
H731 H 0.93304 0.84482 0.42361 0.0
C732 C 0.44664 0.72161 0.5935 0.0
C733 C 0.44904 0.74658 0.57584 0.0
C734 C 0.45465 0.69392 0.583 0.0
C735 C 0.46568 0.6912 0.55426 0.0
C736 C 0.4687 0.71643 0.53651 0.0
C737 C 0.4601 0.74384 0.54745 0.0
C738 C 0.4507 0.66747 0.60245 0.0
C739 C 0.48079 0.71443 0.50592 0.0
C740 C 0.50729 0.621 0.53845 0.0
C741 C 0.48571 0.604 0.52456 0.0
C742 C 0.50141 0.64983 0.54733 0.0
C743 C 0.47316 0.66176 0.54262 0.0
C744 C 0.45148 0.64494 0.52808 0.0
C745 C 0.45809 0.61636 0.51903 0.0
C746 C 0.52522 0.66729 0.56236 0.0
C747 C 0.42098 0.65677 0.52296 0.0
H748 H 0.43775 0.72366 0.61534 0.0
H749 H 0.46217 0.76319 0.53387 0.0
H750 H 0.43521 0.65179 0.59211 0.0
H751 H 0.47192 0.65595 0.60526 0.0
H752 H 0.44215 0.67339 0.62436 0.0
H753 H 0.48295 0.73628 0.49543 0.0
H754 H 0.50264 0.70377 0.50629 0.0
H755 H 0.46619 0.70061 0.49225 0.0
H756 H 0.52876 0.61169 0.5426 0.0
H757 H 0.44124 0.60336 0.50842 0.0
H758 H 0.51882 0.67168 0.58529 0.0
H759 H 0.52806 0.68882 0.55145 0.0
H760 H 0.54661 0.65567 0.5624 0.0
H761 H 0.41025 0.66118 0.54423 0.0
H762 H 0.40698 0.64131 0.51037 0.0
H763 H 0.42208 0.67786 0.51097 0.0
C764 C 0.93185 0.96433 0.75609 0.0
C765 C 0.95417 0.96809 0.77685 0.0
C766 C 0.93729 0.96855 0.72629 0.0
C767 C 0.9657 0.977 0.71707 0.0
C768 C 0.98825 0.98121 0.73796 0.0
C769 C 0.98225 0.97652 0.76764 0.0
C770 C 0.91277 0.96356 0.70462 0.0
C771 C 0.0187 0.99059 0.72896 0.0
C772 C 0.98708 0.9617 0.6385 0.0
C773 C 0.98202 0.98896 0.62527 0.0
C774 C 0.9819 0.95752 0.6684 0.0
C775 C 0.97178 0.98124 0.68551 0.0
C776 C 0.96694 0.00888 0.67238 0.0
C777 C 0.97194 0.01236 0.64239 0.0
C778 C 0.98699 0.92763 0.68163 0.0
C779 C 0.95645 0.03477 0.69001 0.0
H780 H 0.91023 0.9574 0.76314 0.0
H781 H -0.00053 0.97963 0.78371 0.0
H782 H 0.90887 0.98378 0.69175 0.0
H783 H 0.91906 0.94611 0.689 0.0
H784 H 0.89192 0.9571 0.71539 0.0
H785 H 0.03358 0.99352 0.74797 0.0
H786 H 0.02834 0.974 0.71414 0.0
H787 H 0.01762 0.01154 0.71669 0.0
H788 H 0.99478 0.9435 0.62543 0.0
H789 H 0.96819 0.03356 0.6324 0.0
H790 H 0.9663 0.91926 0.69129 0.0
H791 H 0.00333 0.9292 0.69954 0.0
H792 H 0.99495 0.91149 0.66534 0.0
H793 H 0.93472 0.02982 0.69971 0.0
H794 H 0.95451 0.05499 0.67664 0.0
H795 H 0.97183 0.03907 0.70831 0.0
C796 C 0.55702 0.01029 0.27116 0.0
C797 C 0.54891 0.03691 0.28414 0.0
C798 C 0.55179 0.00503 0.24141 0.0
C799 C 0.53788 0.02682 0.22432 0.0
C800 C 0.52867 0.05327 0.23749 0.0
C801 C 0.53445 0.05806 0.26717 0.0
C802 C 0.56196 0.97657 0.22808 0.0
C803 C 0.51359 0.07695 0.22001 0.0
C804 C 0.55263 0.02989 0.14293 0.0
C805 C 0.52723 0.01689 0.13139 0.0
C806 C 0.55654 0.0328 0.17316 0.0
C807 C 0.53439 0.02273 0.19233 0.0
C808 C 0.50871 0.00954 0.18089 0.0
C809 C 0.50549 0.00664 0.15055 0.0
C810 C 0.58435 0.04679 0.18458 0.0
C811 C 0.4845 0.99883 0.20068 0.0
H812 H 0.5678 0.99365 0.2842 0.0
H813 H 0.52853 0.0789 0.2768 0.0
H814 H 0.54348 0.96555 0.2167 0.0
H815 H 0.5791 0.98107 0.2115 0.0
H816 H 0.57111 0.9613 0.24463 0.0
H817 H 0.50584 0.09526 0.23397 0.0
H818 H 0.52898 0.08593 0.20353 0.0
H819 H 0.49453 0.06772 0.20803 0.0
H820 H 0.56963 0.03769 0.12833 0.0
H821 H 0.48575 0.99663 0.14183 0.0
H822 H 0.5956 0.03164 0.19985 0.0
H823 H 0.57895 0.06694 0.19698 0.0
H824 H 0.59981 0.05269 0.1668 0.0
H825 H 0.49327 0.98259 0.21644 0.0
H826 H 0.46616 0.98857 0.18834 0.0
H827 H 0.4757 0.01741 0.21356 0.0
C828 C 0.45527 0.51722 0.25153 0.0
C829 C 0.46227 0.5453 0.2411 0.0
C830 C 0.46029 0.50954 0.28078 0.0
C831 C 0.47296 0.53031 0.29999 0.0
C832 C 0.48097 0.55834 0.28942 0.0
C833 C 0.47535 0.56556 0.26018 0.0
C834 C 0.45137 0.47946 0.29131 0.0
C835 C 0.49478 0.581 0.30919 0.0
C836 C 0.45876 0.52441 0.3814 0.0
C837 C 0.48484 0.51161 0.39146 0.0
C838 C 0.45442 0.53011 0.35161 0.0
C839 C 0.47685 0.52319 0.33143 0.0
C840 C 0.50316 0.51015 0.34139 0.0
C841 C 0.50677 0.50435 0.37126 0.0
C842 C 0.4259 0.54372 0.34174 0.0
C843 C 0.52769 0.50279 0.32055 0.0
H844 H 0.44561 0.50126 0.23686 0.0
H845 H 0.48042 0.58746 0.25253 0.0
H846 H 0.47042 0.46816 0.30132 0.0
H847 H 0.43432 0.4815 0.30843 0.0
H848 H 0.44258 0.46555 0.27341 0.0
H849 H 0.50142 0.60107 0.29715 0.0
H850 H 0.47903 0.58729 0.32651 0.0
H851 H 0.5144 0.57174 0.32017 0.0
H852 H 0.44163 0.52992 0.39681 0.0
H853 H 0.52705 0.49457 0.37885 0.0
H854 H 0.41532 0.5297 0.32495 0.0
H855 H 0.43023 0.56534 0.33152 0.0
H856 H 0.41028 0.54684 0.36006 0.0
H857 H 0.51957 0.48788 0.3032 0.0
H858 H 0.54656 0.49222 0.33172 0.0
H859 H 0.53556 0.52305 0.30966 0.0
C860 C 0.07363 0.4897 0.75658 0.0
C861 C 0.05247 0.4737 0.74093 0.0
C862 C 0.06869 0.49824 0.78558 0.0
C863 C 0.04219 0.49016 0.79946 0.0
C864 C 0.02035 0.47486 0.78357 0.0
C865 C 0.02564 0.46706 0.75443 0.0
C866 C 0.09234 0.51493 0.80169 0.0
C867 C 0.99185 0.4657 0.79768 0.0
C868 C 0.04409 0.4808 0.88173 0.0
C869 C 0.02986 0.50625 0.89129 0.0
C870 C 0.0481 0.47529 0.8519 0.0
C871 C 0.0381 0.49598 0.83111 0.0
C872 C 0.02413 0.52194 0.8406 0.0
C873 C 0.01993 0.52665 0.87059 0.0
C874 C 0.06274 0.44714 0.84261 0.0
C875 C 0.01368 0.54473 0.81909 0.0
H876 H 0.09458 0.49465 0.74659 0.0
H877 H 0.00891 0.45525 0.74237 0.0
H878 H 0.08293 0.53454 0.81246 0.0
H879 H 0.10181 0.50088 0.81907 0.0
H880 H 0.11035 0.52208 0.78699 0.0
H881 H 0.97657 0.45514 0.78194 0.0
H882 H 0.99639 0.45003 0.81565 0.0
H883 H 0.98079 0.48497 0.80743 0.0
H884 H 0.05164 0.46485 0.89758 0.0
H885 H 0.00908 0.54646 0.87784 0.0
H886 H 0.08278 0.45209 0.82982 0.0
H887 H 0.04778 0.43444 0.82823 0.0
H888 H 0.06895 0.43319 0.8615 0.0
H889 H 0.03228 0.55227 0.80541 0.0
H890 H 0.00383 0.56405 0.83005 0.0
H891 H 0.9971 0.53503 0.80418 0.0
C892 C 0.76431 0.95164 0.99773 0.0
C893 C 0.78016 0.97272 0.9819 0.0
C894 C 0.73484 0.95622 0.00517 0.0
C895 C 0.72069 0.98225 0.99611 0.0
C896 C 0.73678 0.00409 0.98111 0.0
C897 C 0.76639 0.99919 0.97445 0.0
C898 C 0.71852 0.93262 0.02164 0.0
C899 C 0.72239 0.03208 0.97093 0.0
C900 C 0.6386 0.97753 0.98326 0.0
C901 C 0.62748 0.99177 0.00796 0.0
C902 C 0.6689 0.97457 0.97906 0.0
C903 C 0.68856 0.98565 0.00035 0.0
C904 C 0.6775 -0.0002 0.0255 0.0
C905 C 0.64706 0.00295 0.02887 0.0
C906 C 0.67989 0.95975 0.95171 0.0
C907 C 0.69779 0.01137 0.04891 0.0
H908 H 0.77453 0.93097 0.00333 0.0
H909 H 0.77859 0.01589 0.96281 0.0
H910 H 0.70658 0.94222 0.04041 0.0
H911 H 0.70197 0.92234 0.00709 0.0
H912 H 0.73341 0.91523 0.02987 0.0
H913 H 0.73836 0.04759 0.96105 0.0
H914 H 0.70529 0.02689 0.95444 0.0
H915 H 0.71133 0.04314 0.98942 0.0
H916 H 0.6236 0.96903 0.96692 0.0
H917 H 0.63857 0.01381 0.04812 0.0
H918 H 0.69289 0.94008 0.95756 0.0
H919 H 0.69462 0.9748 0.93957 0.0
H920 H 0.66172 0.95293 0.93699 0.0
H921 H 0.71149 0.99329 0.05763 0.0
H922 H 0.68566 0.02156 0.06729 0.0
H923 H 0.71293 0.02792 0.03953 0.0
C924 C 0.75099 0.02406 0.47909 0.0
C925 C 0.74174 0.05202 0.47043 0.0
C926 C 0.78067 0.01843 0.48506 0.0
C927 C 0.80155 0.04123 0.48188 0.0
C928 C 0.79229 0.06951 0.47319 0.0
C929 C 0.76247 0.07459 0.46771 0.0
C930 C 0.78971 0.9881 0.49463 0.0
C931 C 0.81394 0.09428 0.46922 0.0
C932 C 0.87566 0.03599 0.51945 0.0
C933 C 0.8937 0.02635 0.49661 0.0
C934 C 0.84552 0.04044 0.5151 0.0
C935 C 0.8332 0.03549 0.48715 0.0
C936 C 0.85125 0.02577 0.46401 0.0
C937 C 0.88125 0.02115 0.46906 0.0
C938 C 0.82688 0.05052 0.54037 0.0
C939 C 0.83893 0.02059 0.43381 0.0
H940 H 0.73494 0.00665 0.48139 0.0
H941 H 0.75542 0.09612 0.4606 0.0
H942 H 0.80523 0.97864 0.47859 0.0
H943 H 0.80134 0.98926 0.5159 0.0
H944 H 0.77067 0.97304 0.49685 0.0
H945 H 0.80312 0.11503 0.46255 0.0
H946 H 0.82612 0.09819 0.48984 0.0
H947 H 0.83031 0.0883 0.45236 0.0
H948 H 0.88505 0.03985 0.54087 0.0
H949 H 0.89502 0.01378 0.45127 0.0
H950 H 0.80852 0.03491 0.54391 0.0
H951 H 0.81705 0.07215 0.53531 0.0
H952 H 0.83965 0.05244 0.56096 0.0
H953 H 0.82107 0.00408 0.43473 0.0
H954 H 0.85588 0.01285 0.41824 0.0
H955 H 0.82927 0.04116 0.42522 0.0
C956 C 0.2553 0.54564 0.07024 0.0
C957 C 0.27444 0.55857 0.05 0.0
C958 C 0.22586 0.54019 0.06314 0.0
C959 C 0.21517 0.54818 0.03524 0.0
C960 C 0.23444 0.56068 0.01448 0.0
C961 C 0.26389 0.56558 0.02206 0.0
C962 C 0.206 0.52662 0.0858 0.0
C963 C 0.22377 0.56956 0.98454 0.0
C964 C 0.14289 0.51503 0.01024 0.0
C965 C 0.12294 0.53717 0.01772 0.0
C966 C 0.17304 0.51839 0.01555 0.0
C967 C 0.1835 0.54464 0.02834 0.0
C968 C 0.16358 0.5673 0.03538 0.0
C969 C 0.13353 0.56323 0.03015 0.0
C970 C 0.19362 0.49365 0.00804 0.0
C971 C 0.17397 0.59575 0.04875 0.0
H972 H 0.26308 0.54056 0.09203 0.0
H973 H 0.27862 0.57514 0.00613 0.0
H974 H 0.18878 0.54252 0.09214 0.0
H975 H 0.19473 0.5071 0.07664 0.0
H976 H 0.21816 0.51992 0.10575 0.0
H977 H 0.24179 0.57802 0.97055 0.0
H978 H 0.21335 0.55063 0.97341 0.0
H979 H 0.20683 0.58685 0.98661 0.0
H980 H 0.13489 0.49478 0.00072 0.0
H981 H 0.11831 0.58053 0.0358 0.0
H982 H 0.20456 0.48559 0.02815 0.0
H983 H 0.2111 0.50158 0.99316 0.0
H984 H 0.1821 0.47498 0.99746 0.0
H985 H 0.18433 0.59142 0.07025 0.0
H986 H 0.1558 0.61161 0.05189 0.0
H987 H 0.19087 0.60601 0.03464 0.0
C988 C 0.24968 0.45168 0.52412 0.0
C989 C 0.23946 0.45829 0.55224 0.0
C990 C 0.27906 0.45651 0.51643 0.0
C991 C 0.29861 0.46858 0.53724 0.0
C992 C 0.28822 0.47639 0.56526 0.0
C993 C 0.25881 0.471 0.57248 0.0
C994 C 0.28938 0.44786 0.48634 0.0
C995 C 0.30838 0.48958 0.58794 0.0
C996 C 0.37998 0.45247 0.53108 0.0
C997 C 0.39067 0.47843 0.51858 0.0
C998 C 0.34998 0.44883 0.53681 0.0
C999 C 0.33025 0.47183 0.53021 0.0
C1000 C 0.34084 0.49801 0.51743 0.0
C1001 C 0.37091 0.50094 0.51161 0.0
C1002 C 0.33942 0.42043 0.55014 0.0
C1003 C 0.32048 0.52311 0.51038 0.0
H1004 H 0.23476 0.44232 0.50819 0.0
H1005 H 0.25127 0.47582 0.59437 0.0
H1006 H 0.30002 0.46677 0.4754 0.0
H1007 H 0.30607 0.43028 0.48816 0.0
H1008 H 0.27115 0.43985 0.47231 0.0
H1009 H 0.29642 0.49635 0.60793 0.0
H1010 H 0.3254 0.4734 0.59419 0.0
H1011 H 0.31988 0.50898 0.57885 0.0
H1012 H 0.39506 0.43491 0.53637 0.0
H1013 H 0.37899 0.52113 0.50208 0.0
H1014 H 0.32228 0.41041 0.53607 0.0
H1015 H 0.32929 0.42476 0.5717 0.0
H1016 H 0.35745 0.40436 0.55312 0.0
H1017 H 0.30279 0.51561 0.49548 0.0
H1018 H 0.33212 0.54181 0.50002 0.0
H1019 H 0.30981 0.53098 0.53066 0.0
C1020 C 0.99701 0.77525 0.96302 0.0
C1021 C 0.9691 0.7865 0.96934 0.0
C1022 C 0.00344 0.74551 0.96734 0.0
C1023 C 0.98155 0.72663 0.97861 0.0
C1024 C 0.9537 0.73801 0.98604 0.0
C1025 C 0.94775 0.76775 0.98115 0.0
C1026 C 0.03338 0.73413 0.95911 0.0
C1027 C 0.92988 0.71859 0.99837 0.0
C1028 C 0.98525 0.64529 0.96175 0.0
C1029 C 0.9971 0.63397 0.98767 0.0
C1030 C 0.98048 0.67546 0.95838 0.0
C1031 C 0.98738 0.69474 0.98163 0.0
C1032 C -0.00063 0.68349 0.00783 0.0
C1033 C 0.00426 0.65326 0.01047 0.0
C1034 C 0.96795 0.68672 0.92997 0.0
C1035 C 0.00666 0.70334 0.03321 0.0
H1036 H 0.01379 0.78966 0.95434 0.0
H1037 H 0.92599 0.77607 0.9857 0.0
H1038 H 0.0437 0.72303 0.97805 0.0
H1039 H 0.03119 0.71761 0.94147 0.0
H1040 H 0.04826 0.75185 0.95148 0.0
H1041 H 0.9101 0.7312 0.0048 0.0
H1042 H 0.92333 0.702 0.98189 0.0
H1043 H 0.93816 0.70656 0.01775 0.0
H1044 H 0.97981 0.63057 0.94397 0.0
H1045 H 0.01329 0.6447 0.03064 0.0
H1046 H 0.9829 0.70335 0.9204 0.0
H1047 H 0.94662 0.69764 0.934 0.0
H1048 H 0.96452 0.66895 0.91375 0.0
H1049 H 0.02253 0.72043 0.02629 0.0
H1050 H 0.01613 0.69116 0.05198 0.0
H1051 H 0.98656 0.71478 0.04064 0.0
C1052 C 0.48724 0.75819 0.08315 0.0
C1053 C 0.47348 0.74144 0.06136 0.0
C1054 C 0.49472 0.78763 0.07829 0.0
C1055 C 0.48787 0.80077 0.05115 0.0
C1056 C 0.47481 0.78381 0.02875 0.0
C1057 C 0.46802 0.75429 0.03404 0.0
C1058 C 0.50901 0.80494 0.10257 0.0
C1059 C 0.46703 0.7971 -0.00044 0.0
C1060 C 0.47505 0.88287 0.05037 0.0
C1061 C 0.50107 0.8933 0.03779 0.0
C1062 C 0.47049 0.8528 0.05473 0.0
C1063 C 0.49268 0.83269 0.04677 0.0
C1064 C 0.51918 0.84308 0.03445 0.0
C1065 C 0.52297 0.87327 0.02987 0.0
C1066 C 0.44175 0.84251 0.06756 0.0
C1067 C 0.54353 0.82231 0.02617 0.0
H1068 H 0.49125 0.74865 0.10445 0.0
H1069 H 0.45796 0.74139 0.01686 0.0
H1070 H 0.52885 0.8164 0.09438 0.0
H1071 H 0.49363 0.82195 0.11052 0.0
H1072 H 0.51539 0.79084 0.1213 0.0
H1073 H 0.45812 0.78063 0.98403 0.0
H1074 H 0.4504 0.81455 0.00263 0.0
H1075 H 0.48663 0.80751 0.98964 0.0
H1076 H 0.45797 0.8982 0.05639 0.0
H1077 H 0.54322 0.8812 0.02032 0.0
H1078 H 0.44581 0.83024 0.08807 0.0
H1079 H 0.43067 0.82729 0.05218 0.0
H1080 H 0.42665 0.86096 0.07235 0.0
H1081 H 0.5503 0.80927 0.04549 0.0
H1082 H 0.56306 0.83397 0.01747 0.0
H1083 H 0.53561 0.80663 0.00941 0.0
C1084 C 0.02893 0.25869 0.55515 0.0
C1085 C 0.05399 0.26503 0.57172 0.0
C1086 C 0.0215 0.2296 0.54837 0.0
C1087 C 0.03925 0.20647 0.55899 0.0
C1088 C 0.06415 0.21284 0.57641 0.0
C1089 C 0.07138 0.2421 0.5823 0.0
C1090 C 0.9951 0.22364 0.52931 0.0
C1091 C 0.08327 0.18877 0.58862 0.0
C1092 C 0.00809 0.12937 0.56256 0.0
C1093 C 0.02185 0.11603 0.53867 0.0
C1094 C 0.01334 0.1589 0.56932 0.0
C1095 C 0.03233 0.17559 0.55139 0.0
C1096 C 0.04568 0.16244 0.52681 0.0
C1097 C 0.04053 0.13271 0.52092 0.0
C1098 C 0.99918 0.17204 0.59604 0.0
C1099 C 0.06564 0.17969 0.50687 0.0
H1100 H 0.01564 0.27654 0.54686 0.0
H1101 H 0.09062 0.24712 0.59536 0.0
H1102 H 0.00207 0.21225 0.50909 0.0
H1103 H 0.97953 0.20891 0.54077 0.0
H1104 H 0.98338 0.24405 0.52315 0.0
H1105 H 0.10098 0.1974 0.60294 0.0
H1106 H 0.06975 0.17311 0.60137 0.0
H1107 H 0.09347 0.17631 0.57052 0.0
H1108 H 0.99374 0.11652 0.57643 0.0
H1109 H 0.05099 0.12257 0.50226 0.0
H1110 H 0.98621 0.19165 0.58991 0.0
H1111 H 0.01638 0.17936 0.6116 0.0
H1112 H 0.9845 0.15626 0.60737 0.0
H1113 H 0.05424 0.19963 0.49892 0.0
H1114 H 0.0729 0.16668 0.48773 0.0
H1115 H 0.08534 0.18704 0.51911 0.0
C1116 C 0.51743 0.24151 0.45718 0.0
C1117 C 0.54541 0.23053 0.46378 0.0
C1118 C 0.51074 0.27123 0.46129 0.0
C1119 C 0.53243 0.29034 0.47263 0.0
C1120 C 0.56046 0.2793 0.48001 0.0
C1121 C 0.56667 0.24961 0.4753 0.0
C1122 C 0.48064 0.28228 0.45305 0.0
C1123 C 0.58408 0.29897 0.49241 0.0
C1124 C 0.52791 0.37207 0.45788 0.0
C1125 C 0.5163 0.38257 0.4842 0.0
C1126 C 0.53268 0.34201 0.4536 0.0
C1127 C 0.52607 0.32204 0.47633 0.0
C1128 C 0.5142 0.33246 0.50287 0.0
C1129 C 0.50928 0.36257 0.50641 0.0
C1130 C 0.54503 0.33164 0.42485 0.0
C1131 C 0.50724 0.31186 0.52773 0.0
H1132 H 0.50073 0.22688 0.44867 0.0
H1133 H 0.58852 0.24153 0.47998 0.0
H1134 H 0.47 0.29257 0.47222 0.0
H1135 H 0.48259 0.2994 0.43595 0.0
H1136 H 0.46616 0.26452 0.44475 0.0
H1137 H 0.60426 0.28668 0.49829 0.0
H1138 H 0.58995 0.3161 0.47623 0.0
H1139 H 0.57589 0.31034 0.51217 0.0
H1140 H 0.53321 0.38735 0.44054 0.0
H1141 H 0.50043 0.3705 0.52688 0.0
H1142 H 0.53031 0.31491 0.41506 0.0
H1143 H 0.56664 0.32109 0.42846 0.0
H1144 H 0.54788 0.34983 0.40898 0.0
H1145 H 0.49168 0.29466 0.52035 0.0
H1146 H 0.49755 0.3234 0.54674 0.0
H1147 H 0.52755 0.30061 0.53498 0.0
loop_
_geom_bond_atom_site_label_1
_geom_bond_atom_site_label_2
_geom_bond_distance
_geom_bond_site_symmetry_2
_ccdc_geom_bond_type
C0 C1 1.384 . S
C0 H13 0.947 . S
C0 C35 1.382 . S
C1 C0 1.384 . S
C1 C2 1.378 . S
C2 C1 1.378 . S
C2 C3 1.378 . S
C2 H14 0.952 . S
C3 C2 1.378 . S
C3 H15 0.950 . S
C3 C34 1.383 . S
H4 C23 0.947 . S
H5 C24 0.946 . S
H6 C26 0.953 . S
H7 C27 0.945 . S
H8 C29 0.952 . S
H9 C30 0.949 . S
H10 C32 0.950 . S
H11 C33 0.948 . S
H12 C35 0.951 . S
H13 C0 0.947 . S
H14 C2 0.952 . S
H15 C3 0.950 . S
N16 C19 1.382 . S
N16 C21 1.363 . S
N17 C19 1.371 . S
N17 C20 1.372 . S
N18 C20 1.361 . S
N18 C21 1.377 . S
C19 N16 1.382 . S
C19 N17 1.371 . S
C19 C22 1.480 . S
C20 N17 1.372 . S
C20 N18 1.361 . S
C20 C28 1.457 . S
C21 N16 1.363 . S
C21 N18 1.377 . S
C21 C34 1.479 . S
C22 C19 1.480 . S
C22 C23 1.383 . S
C22 C27 1.385 . S
C23 H4 0.947 . S
C23 C22 1.383 . S
C23 C24 1.388 . S
C24 H5 0.946 . S
C24 C23 1.388 . S
C24 C25 1.384 . S
C25 C24 1.384 . S
C25 C26 1.377 . S
C26 H6 0.953 . S
C26 C25 1.377 . S
C26 C27 1.369 . S
C27 H7 0.945 . S
C27 C22 1.385 . S
C27 C26 1.369 . S
C28 C20 1.457 . S
C28 C29 1.372 . S
C28 C33 1.364 . S
C29 H8 0.952 . S
C29 C28 1.372 . S
C29 C30 1.389 . S
C30 H9 0.949 . S
C30 C29 1.389 . S
C30 C31 1.387 . S
C31 C30 1.387 . S
C31 C32 1.372 . S
C32 H10 0.950 . S
C32 C31 1.372 . S
C32 C33 1.379 . S
C33 H11 0.948 . S
C33 C28 1.364 . S
C33 C32 1.379 . S
C34 C3 1.383 . S
C34 C21 1.479 . S
C34 C35 1.398 . S
C35 C0 1.382 . S
C35 H12 0.951 . S
C35 C34 1.398 . S
C36 C37 1.384 . S
C36 H49 0.947 . S
C36 C71 1.382 . S
C37 C36 1.384 . S
C37 C38 1.378 . S
C38 C37 1.378 . S
C38 C39 1.378 . S
C38 H50 0.952 . S
C39 C38 1.378 . S
C39 H51 0.950 . S
C39 C70 1.383 . S
H40 C59 0.947 . S
H41 C60 0.946 . S
H42 C62 0.953 . S
H43 C63 0.945 . S
H44 C65 0.952 . S
H45 C66 0.949 . S
H46 C68 0.950 . S
H47 C69 0.948 . S
H48 C71 0.951 . S
H49 C36 0.947 . S
H50 C38 0.952 . S
H51 C39 0.950 . S
N52 C55 1.382 . S
N52 C57 1.363 . S
N53 C55 1.371 . S
N53 C56 1.372 . S
N54 C56 1.361 . S
N54 C57 1.377 . S
C55 N52 1.382 . S
C55 N53 1.371 . S
C55 C58 1.480 . S
C56 N53 1.372 . S
C56 N54 1.361 . S
C56 C64 1.457 . S
C57 N52 1.363 . S
C57 N54 1.377 . S
C57 C70 1.479 . S
C58 C55 1.480 . S
C58 C59 1.383 . S
C58 C63 1.385 . S
C59 H40 0.947 . S
C59 C58 1.383 . S
C59 C60 1.388 . S
C60 H41 0.946 . S
C60 C59 1.388 . S
C60 C61 1.384 . S
C61 C60 1.384 . S
C61 C62 1.377 . S
C62 H42 0.953 . S
C62 C61 1.377 . S
C62 C63 1.369 . S
C63 H43 0.945 . S
C63 C58 1.385 . S
C63 C62 1.369 . S
C64 C56 1.457 . S
C64 C65 1.372 . S
C64 C69 1.364 . S
C65 H44 0.952 . S
C65 C64 1.372 . S
C65 C66 1.389 . S
C66 H45 0.949 . S
C66 C65 1.389 . S
C66 C67 1.387 . S
C67 C66 1.387 . S
C67 C68 1.372 . S
C68 H46 0.950 . S
C68 C67 1.372 . S
C68 C69 1.379 . S
C69 H47 0.948 . S
C69 C64 1.364 . S
C69 C68 1.379 . S
C70 C39 1.383 . S
C70 C57 1.479 . S
C70 C71 1.398 . S
C71 C36 1.382 . S
C71 H48 0.951 . S
C71 C70 1.398 . S
C72 C73 1.384 . S
C72 H85 0.947 . S
C72 C107 1.382 . S
C73 C72 1.384 . S
C73 C74 1.378 . S
C74 C73 1.378 . S
C74 C75 1.378 . S
C74 H86 0.952 . S
C75 C74 1.378 . S
C75 H87 0.950 . S
C75 C106 1.383 . S
H76 C95 0.947 . S
H77 C96 0.946 . S
H78 C98 0.953 . S
H79 C99 0.945 . S
H80 C101 0.952 . S
H81 C102 0.949 . S
H82 C104 0.950 . S
H83 C105 0.948 . S
H84 C107 0.951 . S
H85 C72 0.947 . S
H86 C74 0.952 . S
H87 C75 0.950 . S
N88 C91 1.382 . S
N88 C93 1.363 . S
N89 C91 1.371 . S
N89 C92 1.372 . S
N90 C92 1.361 . S
N90 C93 1.377 . S
C91 N88 1.382 . S
C91 N89 1.371 . S
C91 C94 1.480 . S
C92 N89 1.372 . S
C92 N90 1.361 . S
C92 C100 1.457 . S
C93 N88 1.363 . S
C93 N90 1.377 . S
C93 C106 1.479 . S
C94 C91 1.480 . S
C94 C95 1.383 . S
C94 C99 1.385 . S
C95 H76 0.947 . S
C95 C94 1.383 . S
C95 C96 1.388 . S
C96 H77 0.946 . S
C96 C95 1.388 . S
C96 C97 1.384 . S
C97 C96 1.384 . S
C97 C98 1.377 . S
C98 H78 0.953 . S
C98 C97 1.377 . S
C98 C99 1.369 . S
C99 H79 0.945 . S
C99 C94 1.385 . S
C99 C98 1.369 . S
C100 C92 1.457 . S
C100 C101 1.372 . S
C100 C105 1.364 . S
C101 H80 0.952 . S
C101 C100 1.372 . S
C101 C102 1.389 . S
C102 H81 0.949 . S
C102 C101 1.389 . S
C102 C103 1.387 . S
C103 C102 1.387 . S
C103 C104 1.372 . S
C104 H82 0.950 . S
C104 C103 1.372 . S
C104 C105 1.379 . S
C105 H83 0.948 . S
C105 C100 1.364 . S
C105 C104 1.379 . S
C106 C75 1.383 . S
C106 C93 1.479 . S
C106 C107 1.398 . S
C107 C72 1.382 . S
C107 H84 0.951 . S
C107 C106 1.398 . S
C108 C109 1.384 . S
C108 H121 0.947 . S
C108 C143 1.382 . S
C109 C108 1.384 . S
C109 C110 1.378 . S
C110 C109 1.378 . S
C110 C111 1.378 . S
C110 H122 0.952 . S
C111 C110 1.378 . S
C111 H123 0.950 . S
C111 C142 1.383 . S
H112 C131 0.947 . S
H113 C132 0.946 . S
H114 C134 0.953 . S
H115 C135 0.945 . S
H116 C137 0.952 . S
H117 C138 0.949 . S
H118 C140 0.950 . S
H119 C141 0.948 . S
H120 C143 0.951 . S
H121 C108 0.947 . S
H122 C110 0.952 . S
H123 C111 0.950 . S
N124 C127 1.382 . S
N124 C129 1.363 . S
N125 C127 1.371 . S
N125 C128 1.372 . S
N126 C128 1.361 . S
N126 C129 1.377 . S
C127 N124 1.382 . S
C127 N125 1.371 . S
C127 C130 1.480 . S
C128 N125 1.372 . S
C128 N126 1.361 . S
C128 C136 1.457 . S
C129 N124 1.363 . S
C129 N126 1.377 . S
C129 C142 1.479 . S
C130 C127 1.480 . S
C130 C131 1.383 . S
C130 C135 1.385 . S
C131 H112 0.947 . S
C131 C130 1.383 . S
C131 C132 1.388 . S
C132 H113 0.946 . S
C132 C131 1.388 . S
C132 C133 1.384 . S
C133 C132 1.384 . S
C133 C134 1.377 . S
C134 H114 0.953 . S
C134 C133 1.377 . S
C134 C135 1.369 . S
C135 H115 0.945 . S
C135 C130 1.385 . S
C135 C134 1.369 . S
C136 C128 1.457 . S
C136 C137 1.372 . S
C136 C141 1.364 . S
C137 H116 0.952 . S
C137 C136 1.372 . S
C137 C138 1.389 . S
C138 H117 0.949 . S
C138 C137 1.389 . S
C138 C139 1.387 . S
C139 C138 1.387 . S
C139 C140 1.372 . S
C140 H118 0.950 . S
C140 C139 1.372 . S
C140 C141 1.379 . S
C141 H119 0.948 . S
C141 C136 1.364 . S
C141 C140 1.379 . S
C142 C111 1.383 . S
C142 C129 1.479 . S
C142 C143 1.398 . S
C143 C108 1.382 . S
C143 H120 0.951 . S
C143 C142 1.398 . S
C144 C145 1.384 . S
C144 H157 0.947 1_565 S
C144 C179 1.382 . S
C145 C144 1.384 . S
C145 C146 1.378 . S
C146 C145 1.378 . S
C146 C147 1.378 . S
C146 H158 0.952 . S
C147 C146 1.378 . S
C147 H159 0.950 . S
C147 C178 1.383 . S
H148 C167 0.947 . S
H149 C168 0.946 . S
H150 C170 0.953 . S
H151 C171 0.945 . S
H152 C173 0.952 . S
H153 C174 0.949 . S
H154 C176 0.950 1_545 S
H155 C177 0.948 . S
H156 C179 0.951 . S
H157 C144 0.947 1_545 S
H158 C146 0.952 . S
H159 C147 0.950 . S
N160 C163 1.382 . S
N160 C165 1.363 . S
N161 C163 1.371 . S
N161 C164 1.372 . S
N162 C164 1.361 . S
N162 C165 1.377 . S
C163 N160 1.382 . S
C163 N161 1.371 . S
C163 C166 1.480 . S
C164 N161 1.372 . S
C164 N162 1.361 . S
C164 C172 1.457 . S
C165 N160 1.363 . S
C165 N162 1.377 . S
C165 C178 1.479 . S
C166 C163 1.480 . S
C166 C167 1.383 . S
C166 C171 1.385 . S
C167 H148 0.947 . S
C167 C166 1.383 . S
C167 C168 1.388 . S
C168 H149 0.946 . S
C168 C167 1.388 . S
C168 C169 1.384 . S
C169 C168 1.384 . S
C169 C170 1.377 . S
C170 H150 0.953 . S
C170 C169 1.377 . S
C170 C171 1.369 . S
C171 H151 0.945 . S
C171 C166 1.385 . S
C171 C170 1.369 . S
C172 C164 1.457 . S
C172 C173 1.372 . S
C172 C177 1.364 . S
C173 H152 0.952 . S
C173 C172 1.372 . S
C173 C174 1.389 . S
C174 H153 0.949 . S
C174 C173 1.389 . S
C174 C175 1.387 . S
C175 C174 1.387 . S
C175 C176 1.372 . S
C176 H154 0.950 1_565 S
C176 C175 1.372 . S
C176 C177 1.379 . S
C177 H155 0.948 . S
C177 C172 1.364 . S
C177 C176 1.379 . S
C178 C147 1.383 . S
C178 C165 1.479 . S
C178 C179 1.398 . S
C179 C144 1.382 . S
C179 H156 0.951 . S
C179 C178 1.398 . S
C180 C181 1.384 . S
C180 H193 0.947 . S
C180 C215 1.382 . S
C181 C180 1.384 . S
C181 C182 1.378 . S
C182 C181 1.378 . S
C182 C183 1.378 . S
C182 H194 0.952 . S
C183 C182 1.378 . S
C183 H195 0.950 . S
C183 C214 1.383 . S
H184 C203 0.947 . S
H185 C204 0.946 . S
H186 C206 0.953 . S
H187 C207 0.945 . S
H188 C209 0.952 . S
H189 C210 0.949 . S
H190 C212 0.950 . S
H191 C213 0.948 . S
H192 C215 0.951 . S
H193 C180 0.947 . S
H194 C182 0.952 . S
H195 C183 0.950 . S
N196 C199 1.382 . S
N196 C201 1.363 . S
N197 C199 1.371 . S
N197 C200 1.372 . S
N198 C200 1.361 . S
N198 C201 1.377 . S
C199 N196 1.382 . S
C199 N197 1.371 . S
C199 C202 1.480 . S
C200 N197 1.372 . S
C200 N198 1.361 . S
C200 C208 1.457 . S
C201 N196 1.363 . S
C201 N198 1.377 . S
C201 C214 1.479 . S
C202 C199 1.480 . S
C202 C203 1.383 . S
C202 C207 1.385 . S
C203 H184 0.947 . S
C203 C202 1.383 . S
C203 C204 1.388 . S
C204 H185 0.946 . S
C204 C203 1.388 . S
C204 C205 1.384 . S
C205 C204 1.384 . S
C205 C206 1.377 . S
C206 H186 0.953 . S
C206 C205 1.377 . S
C206 C207 1.369 . S
C207 H187 0.945 . S
C207 C202 1.385 . S
C207 C206 1.369 . S
C208 C200 1.457 . S
C208 C209 1.372 . S
C208 C213 1.364 . S
C209 H188 0.952 . S
C209 C208 1.372 . S
C209 C210 1.389 . S
C210 H189 0.949 . S
C210 C209 1.389 . S
C210 C211 1.387 . S
C211 C210 1.387 . S
C211 C212 1.372 . S
C212 H190 0.950 . S
C212 C211 1.372 . S
C212 C213 1.379 . S
C213 H191 0.948 . S
C213 C208 1.364 . S
C213 C212 1.379 . S
C214 C183 1.383 . S
C214 C201 1.479 . S
C214 C215 1.398 . S
C215 C180 1.382 . S
C215 H192 0.951 . S
C215 C214 1.398 . S
C216 C217 1.384 . S
C216 H229 0.947 . S
C216 C251 1.382 . S
C217 C216 1.384 . S
C217 C218 1.378 . S
C218 C217 1.378 . S
C218 C219 1.378 . S
C218 H230 0.952 . S
C219 C218 1.378 . S
C219 H231 0.950 . S
C219 C250 1.383 . S
H220 C239 0.947 . S
H221 C240 0.946 . S
H222 C242 0.953 . S
H223 C243 0.945 . S
H224 C245 0.952 . S
H225 C246 0.949 . S
H226 C248 0.950 . S
H227 C249 0.948 . S
H228 C251 0.951 . S
H229 C216 0.947 . S
H230 C218 0.952 . S
H231 C219 0.950 . S
N232 C235 1.382 . S
N232 C237 1.363 . S
N233 C235 1.371 . S
N233 C236 1.372 . S
N234 C236 1.361 . S
N234 C237 1.377 . S
C235 N232 1.382 . S
C235 N233 1.371 . S
C235 C238 1.480 . S
C236 N233 1.372 . S
C236 N234 1.361 . S
C236 C244 1.457 . S
C237 N232 1.363 . S
C237 N234 1.377 . S
C237 C250 1.479 . S
C238 C235 1.480 . S
C238 C239 1.383 . S
C238 C243 1.385 . S
C239 H220 0.947 . S
C239 C238 1.383 . S
C239 C240 1.388 . S
C240 H221 0.946 . S
C240 C239 1.388 . S
C240 C241 1.384 . S
C241 C240 1.384 . S
C241 C242 1.377 . S
C242 H222 0.953 . S
C242 C241 1.377 . S
C242 C243 1.369 . S
C243 H223 0.945 . S
C243 C238 1.385 . S
C243 C242 1.369 . S
C244 C236 1.457 . S
C244 C245 1.372 . S
C244 C249 1.364 . S
C245 H224 0.952 . S
C245 C244 1.372 . S
C245 C246 1.389 . S
C246 H225 0.949 . S
C246 C245 1.389 . S
C246 C247 1.387 . S
C247 C246 1.387 . S
C247 C248 1.372 . S
C248 H226 0.950 . S
C248 C247 1.372 . S
C248 C249 1.379 . S
C249 H227 0.948 . S
C249 C244 1.364 . S
C249 C248 1.379 . S
C250 C219 1.383 . S
C250 C237 1.479 . S
C250 C251 1.398 . S
C251 C216 1.382 . S
C251 H228 0.951 . S
C251 C250 1.398 . S
C252 C253 1.384 . S
C252 H265 0.947 . S
C252 C287 1.382 . S
C253 C252 1.384 . S
C253 C254 1.378 . S
C254 C253 1.378 . S
C254 C255 1.378 . S
C254 H266 0.952 . S
C255 C254 1.378 . S
C255 H267 0.950 . S
C255 C286 1.383 . S
H256 C275 0.947 . S
H257 C276 0.946 . S
H258 C278 0.953 . S
H259 C279 0.945 . S
H260 C281 0.952 . S
H261 C282 0.949 . S
H262 C284 0.950 . S
H263 C285 0.948 . S
H264 C287 0.951 . S
H265 C252 0.947 . S
H266 C254 0.952 . S
H267 C255 0.950 . S
N268 C271 1.382 . S
N268 C273 1.363 . S
N269 C271 1.371 . S
N269 C272 1.372 . S
N270 C272 1.361 . S
N270 C273 1.377 . S
C271 N268 1.382 . S
C271 N269 1.371 . S
C271 C274 1.480 . S
C272 N269 1.372 . S
C272 N270 1.361 . S
C272 C280 1.457 . S
C273 N268 1.363 . S
C273 N270 1.377 . S
C273 C286 1.479 . S
C274 C271 1.480 . S
C274 C275 1.383 . S
C274 C279 1.385 . S
C275 H256 0.947 . S
C275 C274 1.383 . S
C275 C276 1.388 . S
C276 H257 0.946 . S
C276 C275 1.388 . S
C276 C277 1.384 . S
C277 C276 1.384 . S
C277 C278 1.377 . S
C278 H258 0.953 . S
C278 C277 1.377 . S
C278 C279 1.369 . S
C279 H259 0.945 . S
C279 C274 1.385 . S
C279 C278 1.369 . S
C280 C272 1.457 . S
C280 C281 1.372 . S
C280 C285 1.364 . S
C281 H260 0.952 . S
C281 C280 1.372 . S
C281 C282 1.389 . S
C282 H261 0.949 . S
C282 C281 1.389 . S
C282 C283 1.387 . S
C283 C282 1.387 . S
C283 C284 1.372 . S
C284 H262 0.950 . S
C284 C283 1.372 . S
C284 C285 1.379 . S
C285 H263 0.948 . S
C285 C280 1.364 . S
C285 C284 1.379 . S
C286 C255 1.383 . S
C286 C273 1.479 . S
C286 C287 1.398 . S
C287 C252 1.382 . S
C287 H264 0.951 . S
C287 C286 1.398 . S
O288 Zn289 1.953 . S
O288 C304 1.225 1_655 S
Zn289 O288 1.953 . S
Zn289 O290 1.949 1_655 S
Zn289 O296 1.919 . S
Zn289 O301 1.924 . S
O290 Zn289 1.949 1_455 S
O290 Zn291 1.923 1_445 S
O290 Zn292 1.950 . S
O290 Zn293 1.945 1_545 S
Zn291 O290 1.923 1_665 S
Zn291 O294 1.933 . S
Zn291 O297 1.941 1_565 S
Zn291 O298 1.965 1_665 S
Zn292 O290 1.950 . S
Zn292 O299 1.938 . S
Zn292 O300 1.882 1_545 S
Zn292 O310 1.953 . S
Zn293 O290 1.945 1_565 S
Zn293 O295 1.932 1_455 S
Zn293 O302 1.977 . S
Zn293 O303 1.910 1_455 S
O294 Zn291 1.933 . S
O294 C305 1.226 . S
O295 Zn293 1.932 1_655 S
O295 C305 1.307 . S
O296 Zn289 1.919 . S
O296 C307 1.253 . S
O297 Zn291 1.941 1_545 S
O297 C307 1.283 . S
O298 Zn291 1.965 1_445 S
O298 C306 1.303 . S
O299 Zn292 1.938 . S
O299 C306 1.247 . S
O300 Zn292 1.882 1_565 S
O300 C308 1.339 . S
O301 Zn289 1.924 . S
O301 C309 1.311 1_545 S
O302 Zn293 1.977 . S
O302 C308 1.272 . S
O303 Zn293 1.910 1_655 S
O303 C309 1.231 . S
C304 O288 1.225 1_455 S
C304 O310 1.298 . S
C305 O294 1.226 . S
C305 O295 1.307 . S
C306 O298 1.303 . S
C306 O299 1.247 . S
C307 O296 1.253 . S
C307 O297 1.283 . S
C308 O300 1.339 . S
C308 O302 1.272 . S
C309 O301 1.311 1_565 S
C309 O303 1.231 . S
O310 Zn292 1.953 . S
O310 C304 1.298 . S
O311 Zn312 1.953 . S
O311 C327 1.225 . S
Zn312 O311 1.953 . S
Zn312 O313 1.949 1_556 S
Zn312 O319 1.919 . S
Zn312 O324 1.924 1_556 S
O313 Zn312 1.949 1_554 S
O313 Zn314 1.923 1_545 S
O313 Zn315 1.950 . S
O313 Zn316 1.945 1_545 S
Zn314 O313 1.923 1_565 S
Zn314 O317 1.933 . S
Zn314 O320 1.941 1_554 S
Zn314 O321 1.965 1_554 S
Zn315 O313 1.950 . S
Zn315 O322 1.938 . S
Zn315 O323 1.906 . S
Zn315 O333 1.953 . S
Zn316 O313 1.945 1_565 S
Zn316 O318 1.932 . S
Zn316 O325 1.977 1_565 S
Zn316 O326 1.910 1_565 S
O317 Zn314 1.933 . S
O317 C328 1.226 . S
O318 Zn316 1.932 . S
O318 C328 1.307 . S
O319 Zn312 1.919 . S
O319 C330 1.253 1_545 S
O320 Zn314 1.941 1_556 S
O320 C330 1.283 . S
O321 Zn314 1.965 1_556 S
O321 C329 1.305 . S
O322 Zn315 1.938 . S
O322 C329 1.227 1_544 S
O323 Zn315 1.906 . S
O323 C331 1.304 . S
O324 Zn312 1.924 1_554 S
O324 C332 1.311 . S
O325 Zn316 1.977 1_545 S
O325 C331 1.272 . S
O326 Zn316 1.910 1_545 S
O326 C332 1.231 . S
C327 O311 1.225 . S
C327 O333 1.298 1_556 S
C328 O317 1.226 . S
C328 O318 1.307 . S
C329 O321 1.305 . S
C329 O322 1.227 1_566 S
C330 O319 1.253 1_565 S
C330 O320 1.283 . S
C331 O323 1.304 . S
C331 O325 1.272 . S
C332 O324 1.311 . S
C332 O326 1.231 . S
O333 Zn315 1.953 . S
O333 C327 1.298 1_554 S
O334 Zn335 1.953 . S
O334 C350 1.225 . S
Zn335 O334 1.953 . S
Zn335 O336 1.949 . S
Zn335 O342 1.919 . S
Zn335 O347 1.924 . S
O336 Zn335 1.949 . S
O336 Zn337 1.923 . S
O336 Zn338 1.950 . S
O336 Zn339 1.945 . S
Zn337 O336 1.923 . S
Zn337 O340 1.933 . S
Zn337 O343 1.941 . S
Zn337 O344 1.965 . S
Zn338 O336 1.950 . S
Zn338 O345 1.938 . S
Zn338 O346 1.906 . S
Zn338 O356 1.953 . S
Zn339 O336 1.945 . S
Zn339 O341 1.932 . S
Zn339 O348 1.977 . S
Zn339 O349 1.910 . S
O340 Zn337 1.933 . S
O340 C351 1.226 . S
O341 Zn339 1.932 . S
O341 C351 1.307 . S
O342 Zn335 1.919 . S
O342 C353 1.253 . S
O343 Zn337 1.941 . S
O343 C353 1.283 . S
O344 Zn337 1.965 . S
O344 C352 1.303 . S
O345 Zn338 1.938 . S
O345 C352 1.247 . S
O346 Zn338 1.906 . S
O346 C354 1.304 . S
O347 Zn335 1.924 . S
O347 C355 1.311 . S
O348 Zn339 1.977 . S
O348 C354 1.272 . S
O349 Zn339 1.910 . S
O349 C355 1.231 . S
C350 O334 1.225 . S
C350 O356 1.298 . S
C351 O340 1.226 . S
C351 O341 1.307 . S
C352 O344 1.303 . S
C352 O345 1.247 . S
C353 O342 1.253 . S
C353 O343 1.283 . S
C354 O346 1.304 . S
C354 O348 1.272 . S
C355 O347 1.311 . S
C355 O349 1.231 . S
O356 Zn338 1.953 . S
O356 C350 1.298 . S
O357 Zn358 1.953 . S
O357 C373 1.225 . S
Zn358 O357 1.953 . S
Zn358 O359 1.949 1_655 S
Zn358 O365 1.919 . S
Zn358 O370 1.924 . S
O359 Zn358 1.949 1_455 S
O359 Zn360 1.923 1_454 S
O359 Zn361 1.950 . S
O359 Zn362 1.945 1_554 S
Zn360 O359 1.923 1_656 S
Zn360 O363 1.933 1_655 S
Zn360 O366 1.941 . S
Zn360 O367 1.965 . S
Zn361 O359 1.950 . S
Zn361 O368 1.938 . S
Zn361 O369 1.906 . S
Zn361 O379 1.953 . S
Zn362 O359 1.945 1_556 S
Zn362 O364 1.932 . S
Zn362 O371 1.977 1_556 S
Zn362 O372 1.910 1_556 S
O363 Zn360 1.933 1_455 S
O363 C374 1.226 . S
O364 Zn362 1.932 . S
O364 C374 1.307 . S
O365 Zn358 1.919 . S
O365 C376 1.253 1_554 S
O366 Zn360 1.941 . S
O366 C376 1.283 . S
O367 Zn360 1.965 . S
O367 C375 1.303 . S
O368 Zn361 1.938 . S
O368 C375 1.247 1_454 S
O369 Zn361 1.906 . S
O369 C377 1.304 . S
O370 Zn358 1.924 . S
O370 C378 1.311 1_655 S
O371 Zn362 1.977 1_554 S
O371 C377 1.272 . S
O372 Zn362 1.910 1_554 S
O372 C378 1.231 . S
C373 O357 1.225 . S
C373 O379 1.298 1_655 S
C374 O363 1.226 . S
C374 O364 1.307 . S
C375 O367 1.303 . S
C375 O368 1.247 1_656 S
C376 O365 1.253 1_556 S
C376 O366 1.283 . S
C377 O369 1.304 . S
C377 O371 1.272 . S
C378 O370 1.311 1_455 S
C378 O372 1.231 . S
O379 Zn361 1.953 . S
O379 C373 1.298 1_455 S
C380 C381 1.391 . S
C380 C382 1.394 . S
C380 H396 0.931 . S
C381 C380 1.391 . S
C381 C385 1.376 . S
C382 C380 1.394 . S
C382 C383 1.369 . S
C382 C386 1.531 . S
C383 C382 1.369 . S
C383 C384 1.410 . S
C383 C391 1.503 . S
C384 C383 1.410 . S
C384 C385 1.392 . S
C384 C387 1.511 . S
C385 C381 1.376 . S
C385 C384 1.392 . S
C385 H397 0.929 . S
C386 C382 1.531 . S
C386 H398 0.960 . S
C386 H399 0.962 . S
C386 H400 0.960 . S
C387 C384 1.511 . S
C387 H401 0.961 . S
C387 H402 0.961 . S
C387 H403 0.961 . S
C388 C389 1.370 . S
C388 C390 1.363 . S
C388 H404 0.931 . S
C389 C388 1.370 . S
C389 C393 1.408 . S
C390 C388 1.363 . S
C390 C391 1.370 . S
C390 C394 1.524 . S
C391 C383 1.503 . S
C391 C390 1.370 . S
C391 C392 1.403 . S
C392 C391 1.403 . S
C392 C393 1.404 . S
C392 C395 1.539 . S
C393 C389 1.408 . S
C393 C392 1.404 . S
C393 H405 0.930 . S
C394 C390 1.524 . S
C394 H406 0.956 . S
C394 H407 0.961 . S
C394 H408 0.961 1_455 S
C395 C392 1.539 . S
C395 H409 0.958 . S
C395 H410 0.961 . S
C395 H411 0.960 . S
H396 C380 0.931 . S
H397 C385 0.929 . S
H398 C386 0.960 . S
H399 C386 0.962 . S
H400 C386 0.960 . S
H401 C387 0.961 . S
H402 C387 0.961 . S
H403 C387 0.961 . S
H404 C388 0.931 . S
H405 C393 0.930 . S
H406 C394 0.956 . S
H407 C394 0.961 . S
H408 C394 0.961 1_655 S
H409 C395 0.958 . S
H410 C395 0.961 . S
H411 C395 0.960 . S
C412 C413 1.391 . S
C412 C414 1.394 . S
C412 H428 0.931 . S
C413 C412 1.391 . S
C413 C417 1.376 . S
C414 C412 1.394 . S
C414 C415 1.369 . S
C414 C418 1.531 . S
C415 C414 1.369 . S
C415 C416 1.410 . S
C415 C423 1.503 . S
C416 C415 1.410 . S
C416 C417 1.392 . S
C416 C419 1.511 . S
C417 C413 1.376 . S
C417 C416 1.392 . S
C417 H429 0.929 . S
C418 C414 1.531 . S
C418 H430 0.960 . S
C418 H431 0.962 . S
C418 H432 0.960 . S
C419 C416 1.511 . S
C419 H433 0.961 . S
C419 H434 0.961 . S
C419 H435 0.961 . S
C420 C421 1.370 . S
C420 C422 1.363 . S
C420 H436 0.929 . S
C421 C420 1.370 . S
C421 C425 1.408 . S
C422 C420 1.363 . S
C422 C423 1.370 . S
C422 C426 1.524 . S
C423 C415 1.503 . S
C423 C422 1.370 . S
C423 C424 1.403 . S
C424 C423 1.403 . S
C424 C425 1.404 . S
C424 C427 1.539 . S
C425 C421 1.408 . S
C425 C424 1.404 . S
C425 H437 0.930 . S
C426 C422 1.524 . S
C426 H438 0.956 . S
C426 H439 0.961 . S
C426 H440 0.961 1_565 S
C427 C424 1.539 . S
C427 H441 0.958 . S
C427 H442 0.961 . S
C427 H443 0.960 . S
H428 C412 0.931 . S
H429 C417 0.929 . S
H430 C418 0.960 . S
H431 C418 0.962 . S
H432 C418 0.960 . S
H433 C419 0.961 . S
H434 C419 0.961 . S
H435 C419 0.961 . S
H436 C420 0.929 . S
H437 C425 0.930 . S
H438 C426 0.956 . S
H439 C426 0.961 . S
H440 C426 0.961 1_545 S
H441 C427 0.958 . S
H442 C427 0.961 . S
H443 C427 0.960 . S
C444 C445 1.391 . S
C444 C446 1.394 . S
C444 H460 0.931 . S
C445 C444 1.391 . S
C445 C449 1.376 . S
C446 C444 1.394 . S
C446 C447 1.369 . S
C446 C450 1.531 . S
C447 C446 1.369 . S
C447 C448 1.410 . S
C447 C455 1.503 . S
C448 C447 1.410 . S
C448 C449 1.392 . S
C448 C451 1.511 . S
C449 C445 1.376 . S
C449 C448 1.392 . S
C449 H461 0.929 . S
C450 C446 1.531 . S
C450 H462 0.960 . S
C450 H463 0.962 . S
C450 H464 0.960 . S
C451 C448 1.511 . S
C451 H465 0.961 . S
C451 H466 0.961 . S
C451 H467 0.961 . S
C452 C453 1.370 . S
C452 C454 1.363 . S
C452 H468 0.931 . S
C453 C452 1.370 . S
C453 C457 1.408 . S
C454 C452 1.363 . S
C454 C455 1.370 . S
C454 C458 1.524 . S
C455 C447 1.503 . S
C455 C454 1.370 . S
C455 C456 1.403 . S
C456 C455 1.403 . S
C456 C457 1.404 . S
C456 C459 1.539 . S
C457 C453 1.408 . S
C457 C456 1.404 . S
C457 H469 0.930 . S
C458 C454 1.524 . S
C458 H470 0.956 . S
C458 H471 0.961 . S
C458 H472 0.961 . S
C459 C456 1.539 . S
C459 H473 0.958 . S
C459 H474 0.961 . S
C459 H475 0.960 . S
H460 C444 0.931 . S
H461 C449 0.929 . S
H462 C450 0.960 . S
H463 C450 0.962 . S
H464 C450 0.960 . S
H465 C451 0.961 . S
H466 C451 0.961 . S
H467 C451 0.961 . S
H468 C452 0.931 . S
H469 C457 0.930 . S
H470 C458 0.956 . S
H471 C458 0.961 . S
H472 C458 0.961 . S
H473 C459 0.958 . S
H474 C459 0.961 . S
H475 C459 0.960 . S
C476 C477 1.391 . S
C476 C478 1.394 . S
C476 H492 0.931 . S
C477 C476 1.391 . S
C477 C481 1.376 . S
C478 C476 1.394 . S
C478 C479 1.369 . S
C478 C482 1.531 1_655 S
C479 C478 1.369 . S
C479 C480 1.410 . S
C479 C487 1.503 . S
C480 C479 1.410 . S
C480 C481 1.392 . S
C480 C483 1.511 . S
C481 C477 1.376 . S
C481 C480 1.392 . S
C481 H493 0.929 . S
C482 C478 1.531 1_455 S
C482 H494 0.962 . S
C482 H495 0.962 . S
C482 H496 0.960 . S
C483 C480 1.511 . S
C483 H497 0.961 . S
C483 H498 0.961 . S
C483 H499 0.961 . S
C484 C485 1.370 . S
C484 C486 1.363 . S
C484 H500 0.931 . S
C485 C484 1.370 . S
C485 C489 1.408 . S
C486 C484 1.363 . S
C486 C487 1.370 . S
C486 C490 1.524 . S
C487 C479 1.503 . S
C487 C486 1.370 . S
C487 C488 1.403 . S
C488 C487 1.403 . S
C488 C489 1.404 . S
C488 C491 1.539 . S
C489 C485 1.408 . S
C489 C488 1.404 . S
C489 H501 0.930 . S
C490 C486 1.524 . S
C490 H502 0.956 . S
C490 H503 0.961 . S
C490 H504 0.961 . S
C491 C488 1.539 . S
C491 H505 0.958 . S
C491 H506 0.961 . S
C491 H507 0.960 . S
H492 C476 0.931 . S
H493 C481 0.929 . S
H494 C482 0.962 . S
H495 C482 0.962 . S
H496 C482 0.960 . S
H497 C483 0.961 . S
H498 C483 0.961 . S
H499 C483 0.961 . S
H500 C484 0.931 . S
H501 C489 0.930 . S
H502 C490 0.956 . S
H503 C490 0.961 . S
H504 C490 0.961 . S
H505 C491 0.958 . S
H506 C491 0.961 . S
H507 C491 0.960 . S
C508 C509 1.391 . S
C508 C510 1.394 . S
C508 H524 0.931 . S
C509 C508 1.391 . S
C509 C513 1.376 . S
C510 C508 1.394 . S
C510 C511 1.369 . S
C510 C514 1.531 . S
C511 C510 1.369 . S
C511 C512 1.410 . S
C511 C519 1.503 . S
C512 C511 1.410 . S
C512 C513 1.392 . S
C512 C515 1.511 . S
C513 C509 1.376 . S
C513 C512 1.392 . S
C513 H525 0.929 . S
C514 C510 1.531 . S
C514 H526 0.960 . S
C514 H527 0.962 . S
C514 H528 0.960 . S
C515 C512 1.511 . S
C515 H529 0.961 . S
C515 H530 0.961 . S
C515 H531 0.961 . S
C516 C517 1.370 . S
C516 C518 1.363 . S
C516 H532 0.931 . S
C517 C516 1.370 . S
C517 C521 1.408 . S
C518 C516 1.363 . S
C518 C519 1.370 . S
C518 C522 1.524 . S
C519 C511 1.503 . S
C519 C518 1.370 . S
C519 C520 1.403 . S
C520 C519 1.403 . S
C520 C521 1.404 . S
C520 C523 1.539 . S
C521 C517 1.408 . S
C521 C520 1.404 . S
C521 H533 0.930 . S
C522 C518 1.524 . S
C522 H534 0.956 . S
C522 H535 0.961 . S
C522 H536 0.961 . S
C523 C520 1.539 . S
C523 H537 0.958 . S
C523 H538 0.961 1_545 S
C523 H539 0.960 . S
H524 C508 0.931 . S
H525 C513 0.929 . S
H526 C514 0.960 . S
H527 C514 0.962 . S
H528 C514 0.960 . S
H529 C515 0.961 . S
H530 C515 0.961 . S
H531 C515 0.961 . S
H532 C516 0.931 . S
H533 C521 0.930 . S
H534 C522 0.956 . S
H535 C522 0.961 . S
H536 C522 0.961 . S
H537 C523 0.958 . S
H538 C523 0.961 1_565 S
H539 C523 0.960 . S
C540 C541 1.391 . S
C540 C542 1.394 . S
C540 H556 0.931 . S
C541 C540 1.391 . S
C541 C545 1.376 . S
C542 C540 1.394 . S
C542 C543 1.369 . S
C542 C546 1.531 . S
C543 C542 1.369 . S
C543 C544 1.410 . S
C543 C551 1.503 . S
C544 C543 1.410 . S
C544 C545 1.392 . S
C544 C547 1.511 . S
C545 C541 1.376 . S
C545 C544 1.392 . S
C545 H557 0.929 . S
C546 C542 1.531 . S
C546 H558 0.960 . S
C546 H559 0.962 . S
C546 H560 0.960 . S
C547 C544 1.511 . S
C547 H561 0.961 . S
C547 H562 0.961 . S
C547 H563 0.961 . S
C548 C549 1.370 . S
C548 C550 1.363 . S
C548 H564 0.931 . S
C549 C548 1.370 . S
C549 C553 1.408 . S
C550 C548 1.363 . S
C550 C551 1.370 . S
C550 C554 1.524 . S
C551 C543 1.503 . S
C551 C550 1.370 . S
C551 C552 1.403 . S
C552 C551 1.403 . S
C552 C553 1.404 . S
C552 C555 1.539 . S
C553 C549 1.408 . S
C553 C552 1.404 . S
C553 H565 0.930 . S
C554 C550 1.524 . S
C554 H566 0.956 . S
C554 H567 0.961 . S
C554 H568 0.961 . S
C555 C552 1.539 . S
C555 H569 0.958 . S
C555 H570 0.961 1_565 S
C555 H571 0.960 . S
H556 C540 0.931 . S
H557 C545 0.929 . S
H558 C546 0.960 . S
H559 C546 0.962 . S
H560 C546 0.960 . S
H561 C547 0.961 . S
H562 C547 0.961 . S
H563 C547 0.961 . S
H564 C548 0.931 . S
H565 C553 0.930 . S
H566 C554 0.956 . S
H567 C554 0.961 . S
H568 C554 0.961 . S
H569 C555 0.958 . S
H570 C555 0.961 1_545 S
H571 C555 0.960 . S
C572 C573 1.391 . S
C572 C574 1.394 . S
C572 H588 0.931 . S
C573 C572 1.391 . S
C573 C577 1.376 . S
C574 C572 1.394 . S
C574 C575 1.369 . S
C574 C578 1.531 . S
C575 C574 1.369 . S
C575 C576 1.410 . S
C575 C583 1.503 . S
C576 C575 1.410 . S
C576 C577 1.392 . S
C576 C579 1.511 . S
C577 C573 1.376 . S
C577 C576 1.392 . S
C577 H589 0.929 . S
C578 C574 1.531 . S
C578 H590 0.960 . S
C578 H591 0.962 . S
C578 H592 0.960 . S
C579 C576 1.511 . S
C579 H593 0.961 . S
C579 H594 0.961 . S
C579 H595 0.961 . S
C580 C581 1.370 . S
C580 C582 1.363 . S
C580 H596 0.931 . S
C581 C580 1.370 . S
C581 C585 1.408 . S
C582 C580 1.363 . S
C582 C583 1.370 . S
C582 C586 1.524 . S
C583 C575 1.503 . S
C583 C582 1.370 . S
C583 C584 1.403 . S
C584 C583 1.403 . S
C584 C585 1.404 . S
C584 C587 1.539 1_556 S
C585 C581 1.408 . S
C585 C584 1.404 . S
C585 H597 0.930 1_556 S
C586 C582 1.524 . S
C586 H598 0.956 . S
C586 H599 0.961 . S
C586 H600 0.961 . S
C587 C584 1.539 1_554 S
C587 H601 0.958 . S
C587 H602 0.961 . S
C587 H603 0.960 . S
H588 C572 0.931 . S
H589 C577 0.929 . S
H590 C578 0.960 . S
H591 C578 0.962 . S
H592 C578 0.960 . S
H593 C579 0.961 . S
H594 C579 0.961 . S
H595 C579 0.961 . S
H596 C580 0.931 . S
H597 C585 0.930 1_554 S
H598 C586 0.956 . S
H599 C586 0.961 . S
H600 C586 0.961 . S
H601 C587 0.958 . S
H602 C587 0.961 . S
H603 C587 0.960 . S
C604 C605 1.391 . S
C604 C606 1.394 . S
C604 H620 0.931 . S
C605 C604 1.391 . S
C605 C609 1.376 . S
C606 C604 1.394 . S
C606 C607 1.369 . S
C606 C610 1.531 . S
C607 C606 1.369 . S
C607 C608 1.410 . S
C607 C615 1.503 . S
C608 C607 1.410 . S
C608 C609 1.392 . S
C608 C611 1.511 . S
C609 C605 1.376 . S
C609 C608 1.392 . S
C609 H621 0.929 . S
C610 C606 1.531 . S
C610 H622 0.960 . S
C610 H623 0.962 . S
C610 H624 0.960 . S
C611 C608 1.511 . S
C611 H625 0.961 . S
C611 H626 0.961 . S
C611 H627 0.961 . S
C612 C613 1.370 . S
C612 C614 1.363 . S
C612 H628 0.931 . S
C613 C612 1.370 . S
C613 C617 1.408 . S
C614 C612 1.363 . S
C614 C615 1.370 . S
C614 C618 1.524 . S
C615 C607 1.503 . S
C615 C614 1.370 . S
C615 C616 1.403 . S
C616 C615 1.403 . S
C616 C617 1.404 . S
C616 C619 1.539 . S
C617 C613 1.408 . S
C617 C616 1.404 . S
C617 H629 0.930 . S
C618 C614 1.524 . S
C618 H630 0.956 . S
C618 H631 0.961 . S
C618 H632 0.961 . S
C619 C616 1.539 . S
C619 H633 0.958 . S
C619 H634 0.961 . S
C619 H635 0.960 . S
H620 C604 0.931 . S
H621 C609 0.929 . S
H622 C610 0.960 . S
H623 C610 0.962 . S
H624 C610 0.960 . S
H625 C611 0.961 . S
H626 C611 0.961 . S
H627 C611 0.961 . S
H628 C612 0.931 . S
H629 C617 0.930 . S
H630 C618 0.956 . S
H631 C618 0.961 . S
H632 C618 0.961 . S
H633 C619 0.958 . S
H634 C619 0.961 . S
H635 C619 0.960 . S
C636 C637 1.391 . S
C636 C638 1.394 . S
C636 H652 0.931 . S
C637 C636 1.391 . S
C637 C641 1.376 . S
C638 C636 1.394 . S
C638 C639 1.369 . S
C638 C642 1.531 . S
C639 C638 1.369 . S
C639 C640 1.410 . S
C639 C647 1.503 . S
C640 C639 1.410 . S
C640 C641 1.392 . S
C640 C643 1.511 . S
C641 C637 1.376 . S
C641 C640 1.392 . S
C641 H653 0.929 . S
C642 C638 1.531 . S
C642 H654 0.960 . S
C642 H655 0.962 . S
C642 H656 0.960 . S
C643 C640 1.511 . S
C643 H657 0.961 . S
C643 H658 0.961 . S
C643 H659 0.961 . S
C644 C645 1.370 . S
C644 C646 1.363 . S
C644 H660 0.931 . S
C645 C644 1.370 . S
C645 C649 1.408 . S
C646 C644 1.363 . S
C646 C647 1.370 . S
C646 C650 1.524 . S
C647 C639 1.503 . S
C647 C646 1.370 . S
C647 C648 1.403 . S
C648 C647 1.403 . S
C648 C649 1.404 . S
C648 C651 1.539 . S
C649 C645 1.408 . S
C649 C648 1.404 . S
C649 H661 0.930 . S
C650 C646 1.524 . S
C650 H662 0.956 . S
C650 H663 0.961 . S
C650 H664 0.961 . S
C651 C648 1.539 . S
C651 H665 0.958 . S
C651 H666 0.961 . S
C651 H667 0.960 . S
H652 C636 0.931 . S
H653 C641 0.929 . S
H654 C642 0.960 . S
H655 C642 0.962 . S
H656 C642 0.960 . S
H657 C643 0.961 . S
H658 C643 0.961 . S
H659 C643 0.961 . S
H660 C644 0.931 . S
H661 C649 0.930 . S
H662 C650 0.956 . S
H663 C650 0.961 . S
H664 C650 0.961 . S
H665 C651 0.958 . S
H666 C651 0.961 . S
H667 C651 0.960 . S
C668 C669 1.391 . S
C668 C670 1.394 . S
C668 H684 0.931 . S
C669 C668 1.391 . S
C669 C673 1.376 . S
C670 C668 1.394 . S
C670 C671 1.369 . S
C670 C674 1.531 . S
C671 C670 1.369 . S
C671 C672 1.410 . S
C671 C679 1.503 . S
C672 C671 1.410 . S
C672 C673 1.392 . S
C672 C675 1.511 . S
C673 C669 1.376 . S
C673 C672 1.392 . S
C673 H685 0.929 . S
C674 C670 1.531 . S
C674 H686 0.960 1_556 S
C674 H687 0.962 . S
C674 H688 0.960 1_556 S
C675 C672 1.511 . S
C675 H689 0.961 . S
C675 H690 0.961 . S
C675 H691 0.961 . S
C676 C677 1.370 . S
C676 C678 1.363 . S
C676 H692 0.931 . S
C677 C676 1.370 . S
C677 C681 1.408 1_556 S
C678 C676 1.363 . S
C678 C679 1.370 . S
C678 C682 1.524 . S
C679 C671 1.503 . S
C679 C678 1.370 . S
C679 C680 1.413 . S
C680 C679 1.413 . S
C680 C681 1.402 1_556 S
C680 C683 1.531 1_556 S
C681 C677 1.408 1_554 S
C681 C680 1.402 1_554 S
C681 H693 0.930 . S
C682 C678 1.524 . S
C682 H694 0.956 . S
C682 H695 0.961 . S
C682 H696 0.961 . S
C683 C680 1.531 1_554 S
C683 H697 0.958 . S
C683 H698 0.961 . S
C683 H699 0.960 . S
H684 C668 0.931 . S
H685 C673 0.929 . S
H686 C674 0.960 1_554 S
H687 C674 0.962 . S
H688 C674 0.960 1_554 S
H689 C675 0.961 . S
H690 C675 0.961 . S
H691 C675 0.961 . S
H692 C676 0.931 . S
H693 C681 0.930 . S
H694 C682 0.956 . S
H695 C682 0.961 . S
H696 C682 0.961 . S
H697 C683 0.958 . S
H698 C683 0.961 . S
H699 C683 0.960 . S
C700 C701 1.391 . S
C700 C702 1.394 . S
C700 H716 0.931 . S
C701 C700 1.391 . S
C701 C705 1.376 . S
C702 C700 1.394 . S
C702 C703 1.369 . S
C702 C706 1.531 1_655 S
C703 C702 1.369 . S
C703 C704 1.410 . S
C703 C711 1.503 . S
C704 C703 1.410 . S
C704 C705 1.392 . S
C704 C707 1.511 . S
C705 C701 1.376 . S
C705 C704 1.392 . S
C705 H717 0.929 . S
C706 C702 1.531 1_455 S
C706 H718 0.960 . S
C706 H719 0.962 . S
C706 H720 0.960 . S
C707 C704 1.511 . S
C707 H721 0.961 . S
C707 H722 0.961 . S
C707 H723 0.961 . S
C708 C709 1.370 . S
C708 C710 1.363 . S
C708 H724 0.931 . S
C709 C708 1.370 . S
C709 C713 1.408 . S
C710 C708 1.363 . S
C710 C711 1.370 . S
C710 C714 1.524 . S
C711 C703 1.503 . S
C711 C710 1.370 . S
C711 C712 1.403 . S
C712 C711 1.403 . S
C712 C713 1.404 . S
C712 C715 1.539 . S
C713 C709 1.408 . S
C713 C712 1.404 . S
C713 H725 0.930 . S
C714 C710 1.524 . S
C714 H726 0.956 . S
C714 H727 0.961 . S
C714 H728 0.961 . S
C715 C712 1.539 . S
C715 H729 0.958 . S
C715 H730 0.961 . S
C715 H731 0.960 . S
H716 C700 0.931 . S
H717 C705 0.929 . S
H718 C706 0.960 . S
H719 C706 0.962 . S
H720 C706 0.960 . S
H721 C707 0.961 . S
H722 C707 0.961 . S
H723 C707 0.961 . S
H724 C708 0.931 . S
H725 C713 0.930 . S
H726 C714 0.956 . S
H727 C714 0.961 . S
H728 C714 0.961 . S
H729 C715 0.958 . S
H730 C715 0.961 . S
H731 C715 0.960 . S
C732 C733 1.391 . S
C732 C734 1.394 . S
C732 H748 0.931 . S
C733 C732 1.391 . S
C733 C737 1.376 . S
C734 C732 1.394 . S
C734 C735 1.369 . S
C734 C738 1.531 . S
C735 C734 1.369 . S
C735 C736 1.410 . S
C735 C743 1.503 . S
C736 C735 1.410 . S
C736 C737 1.392 . S
C736 C739 1.511 . S
C737 C733 1.376 . S
C737 C736 1.392 . S
C737 H749 0.929 . S
C738 C734 1.531 . S
C738 H750 0.960 . S
C738 H751 0.962 . S
C738 H752 0.960 . S
C739 C736 1.511 . S
C739 H753 0.961 . S
C739 H754 0.961 . S
C739 H755 0.961 . S
C740 C741 1.370 . S
C740 C742 1.363 . S
C740 H756 0.931 . S
C741 C740 1.370 . S
C741 C745 1.408 . S
C742 C740 1.363 . S
C742 C743 1.370 . S
C742 C746 1.524 . S
C743 C735 1.503 . S
C743 C742 1.370 . S
C743 C744 1.403 . S
C744 C743 1.403 . S
C744 C745 1.404 . S
C744 C747 1.539 . S
C745 C741 1.408 . S
C745 C744 1.404 . S
C745 H757 0.930 . S
C746 C742 1.524 . S
C746 H758 0.956 . S
C746 H759 0.961 . S
C746 H760 0.961 . S
C747 C744 1.539 . S
C747 H761 0.958 . S
C747 H762 0.961 . S
C747 H763 0.960 . S
H748 C732 0.931 . S
H749 C737 0.929 . S
H750 C738 0.960 . S
H751 C738 0.962 . S
H752 C738 0.960 . S
H753 C739 0.961 . S
H754 C739 0.961 . S
H755 C739 0.961 . S
H756 C740 0.931 . S
H757 C745 0.930 . S
H758 C746 0.956 . S
H759 C746 0.961 . S
H760 C746 0.961 . S
H761 C747 0.958 . S
H762 C747 0.961 . S
H763 C747 0.960 . S
C764 C765 1.391 1_545 S
C764 C766 1.394 . S
C764 H780 0.931 . S
C765 C764 1.391 1_565 S
C765 C769 1.376 . S
C766 C764 1.394 . S
C766 C767 1.369 1_545 S
C766 C770 1.531 . S
C767 C766 1.369 1_565 S
C767 C768 1.410 . S
C767 C775 1.503 . S
C768 C767 1.410 . S
C768 C769 1.392 . S
C768 C771 1.511 1_655 S
C769 C765 1.376 . S
C769 C768 1.392 . S
C769 H781 0.929 . S
C770 C766 1.531 . S
C770 H782 0.960 . S
C770 H783 0.962 . S
C770 H784 0.960 . S
C771 C768 1.511 1_455 S
C771 H785 0.961 . S
C771 H786 0.961 . S
C771 H787 0.961 . S
C772 C773 1.382 . S
C772 C774 1.363 . S
C772 H788 0.931 . S
C773 C772 1.382 . S
C773 C777 1.406 1_565 S
C774 C772 1.363 . S
C774 C775 1.370 . S
C774 C778 1.524 . S
C775 C767 1.503 . S
C775 C774 1.370 . S
C775 C776 1.403 1_565 S
C776 C775 1.403 1_545 S
C776 C777 1.405 . S
C776 C779 1.539 1_655 S
C777 C773 1.406 1_545 S
C777 C776 1.405 . S
C777 H789 0.920 1_655 S
C778 C774 1.524 . S
C778 H790 0.956 . S
C778 H791 0.961 . S
C778 H792 0.961 . S
C779 C776 1.539 1_455 S
C779 H793 0.958 . S
C779 H794 0.961 . S
C779 H795 0.960 . S
H780 C764 0.931 . S
H781 C769 0.929 . S
H782 C770 0.960 . S
H783 C770 0.962 . S
H784 C770 0.960 . S
H785 C771 0.961 . S
H786 C771 0.961 . S
H787 C771 0.961 . S
H788 C772 0.931 . S
H789 C777 0.920 1_455 S
H790 C778 0.956 . S
H791 C778 0.961 . S
H792 C778 0.961 . S
H793 C779 0.958 . S
H794 C779 0.961 . S
H795 C779 0.960 . S
C796 C797 1.391 . S
C796 C798 1.394 1_545 S
C796 H812 0.931 1_545 S
C797 C796 1.391 . S
C797 C801 1.376 . S
C798 C796 1.394 1_565 S
C798 C799 1.369 1_565 S
C798 C802 1.531 . S
C799 C798 1.369 1_545 S
C799 C800 1.410 . S
C799 C807 1.503 . S
C800 C799 1.410 . S
C800 C801 1.392 . S
C800 C803 1.511 . S
C801 C797 1.376 . S
C801 C800 1.392 . S
C801 H813 0.929 . S
C802 C798 1.531 . S
C802 H814 0.960 . S
C802 H815 0.962 . S
C802 H816 0.960 . S
C803 C800 1.511 . S
C803 H817 0.961 . S
C803 H818 0.961 . S
C803 H819 0.961 . S
C804 C805 1.370 . S
C804 C806 1.363 . S
C804 H820 0.931 . S
C805 C804 1.370 . S
C805 C809 1.408 . S
C806 C804 1.363 . S
C806 C807 1.370 . S
C806 C810 1.524 . S
C807 C799 1.503 . S
C807 C806 1.370 . S
C807 C808 1.403 . S
C808 C807 1.403 . S
C808 C809 1.404 . S
C808 C811 1.539 . S
C809 C805 1.408 . S
C809 C808 1.404 . S
C809 H821 0.930 . S
C810 C806 1.524 . S
C810 H822 0.956 . S
C810 H823 0.961 . S
C810 H824 0.961 . S
C811 C808 1.539 . S
C811 H825 0.958 1_545 S
C811 H826 0.961 . S
C811 H827 0.960 . S
H812 C796 0.931 1_565 S
H813 C801 0.929 . S
H814 C802 0.960 . S
H815 C802 0.962 . S
H816 C802 0.960 . S
H817 C803 0.961 . S
H818 C803 0.961 . S
H819 C803 0.961 . S
H820 C804 0.931 . S
H821 C809 0.930 . S
H822 C810 0.956 . S
H823 C810 0.961 . S
H824 C810 0.961 . S
H825 C811 0.958 1_565 S
H826 C811 0.961 . S
H827 C811 0.960 . S
C828 C829 1.391 . S
C828 C830 1.394 . S
C828 H844 0.931 . S
C829 C828 1.391 . S
C829 C833 1.376 . S
C830 C828 1.394 . S
C830 C831 1.369 . S
C830 C834 1.531 . S
C831 C830 1.369 . S
C831 C832 1.410 . S
C831 C839 1.503 . S
C832 C831 1.410 . S
C832 C833 1.392 . S
C832 C835 1.511 . S
C833 C829 1.376 . S
C833 C832 1.392 . S
C833 H845 0.929 . S
C834 C830 1.531 . S
C834 H846 0.960 . S
C834 H847 0.962 . S
C834 H848 0.960 . S
C835 C832 1.511 . S
C835 H849 0.961 . S
C835 H850 0.961 . S
C835 H851 0.961 . S
C836 C837 1.370 . S
C836 C838 1.363 . S
C836 H852 0.931 . S
C837 C836 1.370 . S
C837 C841 1.408 . S
C838 C836 1.363 . S
C838 C839 1.370 . S
C838 C842 1.524 . S
C839 C831 1.503 . S
C839 C838 1.370 . S
C839 C840 1.403 . S
C840 C839 1.403 . S
C840 C841 1.404 . S
C840 C843 1.539 . S
C841 C837 1.408 . S
C841 C840 1.404 . S
C841 H853 0.930 . S
C842 C838 1.524 . S
C842 H854 0.956 . S
C842 H855 0.961 . S
C842 H856 0.961 . S
C843 C840 1.539 . S
C843 H857 0.958 . S
C843 H858 0.961 . S
C843 H859 0.960 . S
H844 C828 0.931 . S
H845 C833 0.929 . S
H846 C834 0.960 . S
H847 C834 0.962 . S
H848 C834 0.960 . S
H849 C835 0.961 . S
H850 C835 0.961 . S
H851 C835 0.961 . S
H852 C836 0.931 . S
H853 C841 0.930 . S
H854 C842 0.956 . S
H855 C842 0.961 . S
H856 C842 0.961 . S
H857 C843 0.958 . S
H858 C843 0.961 . S
H859 C843 0.960 . S
C860 C861 1.391 . S
C860 C862 1.394 . S
C860 H876 0.931 . S
C861 C860 1.391 . S
C861 C865 1.376 . S
C862 C860 1.394 . S
C862 C863 1.369 . S
C862 C866 1.531 . S
C863 C862 1.369 . S
C863 C864 1.410 . S
C863 C871 1.503 . S
C864 C863 1.410 . S
C864 C865 1.392 . S
C864 C867 1.538 . S
C865 C861 1.376 . S
C865 C864 1.392 . S
C865 H877 0.929 . S
C866 C862 1.531 . S
C866 H878 0.960 . S
C866 H879 0.962 . S
C866 H880 0.960 . S
C867 C864 1.538 . S
C867 H881 0.953 1_455 S
C867 H882 0.969 . S
C867 H883 0.935 1_455 S
C868 C869 1.370 . S
C868 C870 1.363 . S
C868 H884 0.931 . S
C869 C868 1.370 . S
C869 C873 1.408 . S
C870 C868 1.363 . S
C870 C871 1.370 . S
C870 C874 1.524 . S
C871 C863 1.503 . S
C871 C870 1.370 . S
C871 C872 1.403 . S
C872 C871 1.403 . S
C872 C873 1.404 . S
C872 C875 1.539 . S
C873 C869 1.408 . S
C873 C872 1.404 . S
C873 H885 0.930 . S
C874 C870 1.524 . S
C874 H886 0.956 . S
C874 H887 0.961 . S
C874 H888 0.961 . S
C875 C872 1.539 . S
C875 H889 0.958 . S
C875 H890 0.961 1_455 S
C875 H891 0.960 . S
H876 C860 0.931 . S
H877 C865 0.929 . S
H878 C866 0.960 . S
H879 C866 0.962 . S
H880 C866 0.960 . S
H881 C867 0.953 1_655 S
H882 C867 0.969 . S
H883 C867 0.935 1_655 S
H884 C868 0.931 . S
H885 C873 0.930 . S
H886 C874 0.956 . S
H887 C874 0.961 . S
H888 C874 0.961 . S
H889 C875 0.958 . S
H890 C875 0.961 1_655 S
H891 C875 0.960 . S
C892 C893 1.391 . S
C892 C894 1.394 . S
C892 H908 0.931 1_556 S
C893 C892 1.391 . S
C893 C897 1.376 1_565 S
C894 C892 1.394 . S
C894 C895 1.369 . S
C894 C898 1.531 1_556 S
C895 C894 1.369 . S
C895 C896 1.410 1_565 S
C895 C903 1.503 . S
C896 C895 1.410 1_545 S
C896 C897 1.392 . S
C896 C899 1.511 . S
C897 C893 1.376 1_545 S
C897 C896 1.392 . S
C897 H909 0.929 . S
C898 C894 1.531 1_554 S
C898 H910 0.960 . S
C898 H911 0.962 . S
C898 H912 0.960 . S
C899 C896 1.511 . S
C899 H913 0.961 . S
C899 H914 0.961 . S
C899 H915 0.961 . S
C900 C901 1.370 . S
C900 C902 1.363 . S
C900 H916 0.931 . S
C901 C900 1.370 . S
C901 C905 1.408 1_566 S
C902 C900 1.363 . S
C902 C903 1.370 . S
C902 C906 1.524 . S
C903 C895 1.503 . S
C903 C902 1.370 . S
C903 C904 1.403 1_566 S
C904 C903 1.403 1_544 S
C904 C905 1.404 . S
C904 C907 1.539 . S
C905 C901 1.408 1_544 S
C905 C904 1.404 . S
C905 H917 0.930 . S
C906 C902 1.524 . S
C906 H918 0.956 . S
C906 H919 0.961 . S
C906 H920 0.961 . S
C907 C904 1.539 . S
C907 H921 0.958 . S
C907 H922 0.961 . S
C907 H923 0.960 . S
H908 C892 0.931 1_554 S
H909 C897 0.929 . S
H910 C898 0.960 . S
H911 C898 0.962 . S
H912 C898 0.960 . S
H913 C899 0.961 . S
H914 C899 0.961 . S
H915 C899 0.961 . S
H916 C900 0.931 . S
H917 C905 0.930 . S
H918 C906 0.956 . S
H919 C906 0.961 . S
H920 C906 0.961 . S
H921 C907 0.958 . S
H922 C907 0.961 . S
H923 C907 0.960 . S
C924 C925 1.391 . S
C924 C926 1.394 . S
C924 H940 0.931 1_545 S
C925 C924 1.391 . S
C925 C929 1.376 . S
C926 C924 1.394 . S
C926 C927 1.369 . S
C926 C930 1.531 1_545 S
C927 C926 1.369 . S
C927 C928 1.410 . S
C927 C935 1.503 . S
C928 C927 1.410 . S
C928 C929 1.392 . S
C928 C931 1.511 . S
C929 C925 1.376 . S
C929 C928 1.392 . S
C929 H941 0.929 . S
C930 C926 1.531 1_565 S
C930 H942 0.960 . S
C930 H943 0.962 . S
C930 H944 0.960 . S
C931 C928 1.511 . S
C931 H945 0.961 . S
C931 H946 0.961 . S
C931 H947 0.961 . S
C932 C933 1.370 . S
C932 C934 1.363 . S
C932 H948 0.931 . S
C933 C932 1.370 . S
C933 C937 1.408 . S
C934 C932 1.363 . S
C934 C935 1.370 . S
C934 C938 1.524 . S
C935 C927 1.503 . S
C935 C934 1.370 . S
C935 C936 1.403 . S
C936 C935 1.403 . S
C936 C937 1.404 . S
C936 C939 1.539 1_545 S
C937 C933 1.408 . S
C937 C936 1.404 . S
C937 H949 0.930 1_545 S
C938 C934 1.524 . S
C938 H950 0.956 . S
C938 H951 0.961 . S
C938 H952 0.961 . S
C939 C936 1.539 1_565 S
C939 H953 0.958 . S
C939 H954 0.961 . S
C939 H955 0.960 . S
H940 C924 0.931 1_565 S
H941 C929 0.929 . S
H942 C930 0.960 . S
H943 C930 0.962 . S
H944 C930 0.960 . S
H945 C931 0.961 . S
H946 C931 0.961 . S
H947 C931 0.961 . S
H948 C932 0.931 . S
H949 C937 0.930 1_565 S
H950 C938 0.956 . S
H951 C938 0.961 . S
H952 C938 0.961 . S
H953 C939 0.958 . S
H954 C939 0.961 . S
H955 C939 0.960 . S
C956 C957 1.391 . S
C956 C958 1.394 . S
C956 H972 0.931 . S
C957 C956 1.391 . S
C957 C961 1.376 . S
C958 C956 1.394 . S
C958 C959 1.369 . S
C958 C962 1.531 . S
C959 C958 1.369 . S
C959 C960 1.410 . S
C959 C967 1.503 . S
C960 C959 1.410 . S
C960 C961 1.392 . S
C960 C963 1.511 1_554 S
C961 C957 1.376 . S
C961 C960 1.392 . S
C961 H973 0.929 . S
C962 C958 1.531 . S
C962 H974 0.960 . S
C962 H975 0.962 . S
C962 H976 0.960 . S
C963 C960 1.511 1_556 S
C963 H977 0.961 . S
C963 H978 0.961 . S
C963 H979 0.961 . S
C964 C965 1.370 . S
C964 C966 1.363 . S
C964 H980 0.931 . S
C965 C964 1.370 . S
C965 C969 1.408 . S
C966 C964 1.363 . S
C966 C967 1.370 . S
C966 C970 1.524 . S
C967 C959 1.503 . S
C967 C966 1.370 . S
C967 C968 1.403 . S
C968 C967 1.403 . S
C968 C969 1.404 . S
C968 C971 1.539 . S
C969 C965 1.408 . S
C969 C968 1.404 . S
C969 H981 0.930 . S
C970 C966 1.524 . S
C970 H982 0.956 . S
C970 H983 0.961 . S
C970 H984 0.961 . S
C971 C968 1.539 . S
C971 H985 0.958 . S
C971 H986 0.961 . S
C971 H987 0.960 . S
H972 C956 0.931 . S
H973 C961 0.929 . S
H974 C962 0.960 . S
H975 C962 0.962 . S
H976 C962 0.960 . S
H977 C963 0.961 . S
H978 C963 0.961 . S
H979 C963 0.961 . S
H980 C964 0.931 . S
H981 C969 0.930 . S
H982 C970 0.956 . S
H983 C970 0.961 . S
H984 C970 0.961 . S
H985 C971 0.958 . S
H986 C971 0.961 . S
H987 C971 0.960 . S
C988 C989 1.391 . S
C988 C990 1.394 . S
C988 H1004 0.931 . S
C989 C988 1.391 . S
C989 C993 1.376 . S
C990 C988 1.394 . S
C990 C991 1.369 . S
C990 C994 1.531 . S
C991 C990 1.369 . S
C991 C992 1.410 . S
C991 C999 1.503 . S
C992 C991 1.410 . S
C992 C993 1.392 . S
C992 C995 1.511 . S
C993 C989 1.376 . S
C993 C992 1.392 . S
C993 H1005 0.929 . S
C994 C990 1.531 . S
C994 H1006 0.960 . S
C994 H1007 0.962 . S
C994 H1008 0.960 . S
C995 C992 1.511 . S
C995 H1009 0.961 . S
C995 H1010 0.961 . S
C995 H1011 0.961 . S
C996 C997 1.370 . S
C996 C998 1.363 . S
C996 H1012 0.931 . S
C997 C996 1.370 . S
C997 C1001 1.408 . S
C998 C996 1.363 . S
C998 C999 1.370 . S
C998 C1002 1.524 . S
C999 C991 1.503 . S
C999 C998 1.370 . S
C999 C1000 1.403 . S
C1000 C999 1.403 . S
C1000 C1001 1.404 . S
C1000 C1003 1.539 . S
C1001 C997 1.408 . S
C1001 C1000 1.404 . S
C1001 H1013 0.930 . S
C1002 C998 1.524 . S
C1002 H1014 0.956 . S
C1002 H1015 0.961 . S
C1002 H1016 0.961 . S
C1003 C1000 1.539 . S
C1003 H1017 0.958 . S
C1003 H1018 0.961 . S
C1003 H1019 0.960 . S
H1004 C988 0.931 . S
H1005 C993 0.929 . S
H1006 C994 0.960 . S
H1007 C994 0.962 . S
H1008 C994 0.960 . S
H1009 C995 0.961 . S
H1010 C995 0.961 . S
H1011 C995 0.961 . S
H1012 C996 0.931 . S
H1013 C1001 0.930 . S
H1014 C1002 0.956 . S
H1015 C1002 0.961 . S
H1016 C1002 0.961 . S
H1017 C1003 0.958 . S
H1018 C1003 0.961 . S
H1019 C1003 0.960 . S
C1020 C1021 1.391 . S
C1020 C1022 1.394 . S
C1020 H1036 0.931 1_556 S
C1021 C1020 1.391 . S
C1021 C1025 1.376 . S
C1022 C1020 1.394 . S
C1022 C1023 1.369 . S
C1022 C1026 1.531 1_656 S
C1023 C1022 1.369 . S
C1023 C1024 1.410 . S
C1023 C1031 1.503 . S
C1024 C1023 1.410 . S
C1024 C1025 1.392 . S
C1024 C1027 1.511 . S
C1025 C1021 1.376 . S
C1025 C1024 1.392 . S
C1025 H1037 0.929 . S
C1026 C1022 1.531 1_454 S
C1026 H1038 0.965 . S
C1026 H1039 0.962 . S
C1026 H1040 0.960 . S
C1027 C1024 1.511 . S
C1027 H1041 0.961 . S
C1027 H1042 0.961 . S
C1027 H1043 0.961 . S
C1028 C1029 1.370 . S
C1028 C1030 1.363 . S
C1028 H1044 0.931 1_655 S
C1029 C1028 1.370 . S
C1029 C1033 1.408 1_556 S
C1030 C1028 1.363 . S
C1030 C1031 1.370 . S
C1030 C1034 1.524 1_655 S
C1031 C1023 1.503 . S
C1031 C1030 1.370 . S
C1031 C1032 1.403 1_556 S
C1032 C1031 1.403 1_554 S
C1032 C1033 1.404 . S
C1032 C1035 1.539 . S
C1033 C1029 1.408 1_554 S
C1033 C1032 1.404 . S
C1033 H1045 0.930 . S
C1034 C1030 1.524 1_455 S
C1034 H1046 0.956 . S
C1034 H1047 0.961 1_455 S
C1034 H1048 0.961 . S
C1035 C1032 1.539 . S
C1035 H1049 0.958 . S
C1035 H1050 0.961 . S
C1035 H1051 0.960 . S
H1036 C1020 0.931 1_554 S
H1037 C1025 0.929 . S
H1038 C1026 0.965 . S
H1039 C1026 0.962 . S
H1040 C1026 0.960 . S
H1041 C1027 0.961 . S
H1042 C1027 0.961 . S
H1043 C1027 0.961 . S
H1044 C1028 0.931 1_455 S
H1045 C1033 0.930 . S
H1046 C1034 0.956 . S
H1047 C1034 0.961 1_655 S
H1048 C1034 0.961 . S
H1049 C1035 0.958 . S
H1050 C1035 0.961 . S
H1051 C1035 0.960 . S
C1052 C1053 1.391 . S
C1052 C1054 1.394 . S
C1052 H1068 0.931 . S
C1053 C1052 1.391 . S
C1053 C1057 1.376 . S
C1054 C1052 1.394 . S
C1054 C1055 1.369 . S
C1054 C1058 1.531 . S
C1055 C1054 1.369 . S
C1055 C1056 1.410 . S
C1055 C1063 1.503 . S
C1056 C1055 1.410 . S
C1056 C1057 1.392 . S
C1056 C1059 1.511 1_554 S
C1057 C1053 1.376 . S
C1057 C1056 1.392 . S
C1057 H1069 0.929 . S
C1058 C1054 1.531 . S
C1058 H1070 0.960 . S
C1058 H1071 0.962 . S
C1058 H1072 0.960 . S
C1059 C1056 1.511 1_556 S
C1059 H1073 0.961 . S
C1059 H1074 0.961 . S
C1059 H1075 0.961 . S
C1060 C1061 1.370 . S
C1060 C1062 1.363 . S
C1060 H1076 0.931 . S
C1061 C1060 1.370 . S
C1061 C1065 1.408 . S
C1062 C1060 1.363 . S
C1062 C1063 1.370 . S
C1062 C1066 1.524 . S
C1063 C1055 1.503 . S
C1063 C1062 1.370 . S
C1063 C1064 1.403 . S
C1064 C1063 1.403 . S
C1064 C1065 1.404 . S
C1064 C1067 1.539 . S
C1065 C1061 1.408 . S
C1065 C1064 1.404 . S
C1065 H1077 0.930 . S
C1066 C1062 1.524 . S
C1066 H1078 0.956 . S
C1066 H1079 0.961 . S
C1066 H1080 0.961 . S
C1067 C1064 1.539 . S
C1067 H1081 0.958 . S
C1067 H1082 0.961 . S
C1067 H1083 0.960 . S
H1068 C1052 0.931 . S
H1069 C1057 0.929 . S
H1070 C1058 0.960 . S
H1071 C1058 0.962 . S
H1072 C1058 0.960 . S
H1073 C1059 0.961 . S
H1074 C1059 0.961 . S
H1075 C1059 0.961 . S
H1076 C1060 0.931 . S
H1077 C1065 0.930 . S
H1078 C1066 0.956 . S
H1079 C1066 0.961 . S
H1080 C1066 0.961 . S
H1081 C1067 0.958 . S
H1082 C1067 0.961 . S
H1083 C1067 0.960 . S
C1084 C1085 1.391 . S
C1084 C1086 1.394 . S
C1084 H1100 0.931 . S
C1085 C1084 1.391 . S
C1085 C1089 1.376 . S
C1086 C1084 1.394 . S
C1086 C1087 1.369 . S
C1086 C1090 1.531 1_455 S
C1087 C1086 1.369 . S
C1087 C1088 1.410 . S
C1087 C1095 1.503 . S
C1088 C1087 1.410 . S
C1088 C1089 1.392 . S
C1088 C1091 1.511 . S
C1089 C1085 1.376 . S
C1089 C1088 1.392 . S
C1089 H1101 0.929 . S
C1090 C1086 1.531 1_655 S
C1090 H1102 0.960 . S
C1090 H1103 0.962 . S
C1090 H1104 0.960 . S
C1091 C1088 1.511 . S
C1091 H1105 0.961 . S
C1091 H1106 0.961 . S
C1091 H1107 0.961 . S
C1092 C1093 1.370 . S
C1092 C1094 1.363 . S
C1092 H1108 0.931 . S
C1093 C1092 1.370 . S
C1093 C1097 1.408 . S
C1094 C1092 1.363 . S
C1094 C1095 1.370 . S
C1094 C1098 1.524 . S
C1095 C1087 1.503 . S
C1095 C1094 1.370 . S
C1095 C1096 1.403 . S
C1096 C1095 1.403 . S
C1096 C1097 1.404 . S
C1096 C1099 1.539 . S
C1097 C1093 1.408 . S
C1097 C1096 1.404 . S
C1097 H1109 0.930 . S
C1098 C1094 1.524 . S
C1098 H1110 0.956 . S
C1098 H1111 0.961 . S
C1098 H1112 0.961 . S
C1099 C1096 1.539 . S
C1099 H1113 0.958 . S
C1099 H1114 0.961 . S
C1099 H1115 0.960 . S
H1100 C1084 0.931 . S
H1101 C1089 0.929 . S
H1102 C1090 0.960 . S
H1103 C1090 0.962 . S
H1104 C1090 0.960 . S
H1105 C1091 0.961 . S
H1106 C1091 0.961 . S
H1107 C1091 0.961 . S
H1108 C1092 0.931 . S
H1109 C1097 0.930 . S
H1110 C1098 0.956 . S
H1111 C1098 0.961 . S
H1112 C1098 0.961 . S
H1113 C1099 0.958 . S
H1114 C1099 0.961 . S
H1115 C1099 0.960 . S
C1116 C1117 1.391 . S
C1116 C1118 1.394 . S
C1116 H1132 0.931 . S
C1117 C1116 1.391 . S
C1117 C1121 1.376 . S
C1118 C1116 1.394 . S
C1118 C1119 1.369 . S
C1118 C1122 1.531 . S
C1119 C1118 1.369 . S
C1119 C1120 1.410 . S
C1119 C1127 1.503 . S
C1120 C1119 1.410 . S
C1120 C1121 1.392 . S
C1120 C1123 1.511 . S
C1121 C1117 1.376 . S
C1121 C1120 1.392 . S
C1121 H1133 0.929 . S
C1122 C1118 1.531 . S
C1122 H1134 0.960 . S
C1122 H1135 0.962 . S
C1122 H1136 0.960 . S
C1123 C1120 1.511 . S
C1123 H1137 0.961 . S
C1123 H1138 0.961 . S
C1123 H1139 0.961 . S
C1124 C1125 1.370 . S
C1124 C1126 1.363 . S
C1124 H1140 0.931 . S
C1125 C1124 1.370 . S
C1125 C1129 1.408 . S
C1126 C1124 1.363 . S
C1126 C1127 1.370 . S
C1126 C1130 1.524 . S
C1127 C1119 1.503 . S
C1127 C1126 1.370 . S
C1127 C1128 1.403 . S
C1128 C1127 1.403 . S
C1128 C1129 1.404 . S
C1128 C1131 1.539 . S
C1129 C1125 1.408 . S
C1129 C1128 1.404 . S
C1129 H1141 0.930 . S
C1130 C1126 1.524 . S
C1130 H1142 0.956 . S
C1130 H1143 0.961 . S
C1130 H1144 0.961 . S
C1131 C1128 1.539 . S
C1131 H1145 0.958 . S
C1131 H1146 0.961 . S
C1131 H1147 0.960 . S
H1132 C1116 0.931 . S
H1133 C1121 0.929 . S
H1134 C1122 0.960 . S
H1135 C1122 0.962 . S
H1136 C1122 0.960 . S
H1137 C1123 0.961 . S
H1138 C1123 0.961 . S
H1139 C1123 0.961 . S
H1140 C1124 0.931 . S
H1141 C1129 0.930 . S
H1142 C1130 0.956 . S
H1143 C1130 0.961 . S
H1144 C1130 0.961 . S
H1145 C1131 0.958 . S
H1146 C1131 0.961 . S
H1147 C1131 0.960 . S
C381 C1 1.564 . S
C389 C306 1.584 . S
C413 C67 1.583 . S
C421 C330 1.578 . S
C453 C350 1.429 . S
C445 C97 1.395 . S
C477 C133 1.462 . S
C485 C373 1.461 . S
C517 C332 1.657 . S
C509 C25 1.702 . S
C549 C308 1.644 . S
C541 C37 1.684 . S
C581 C376 1.578 . S
C573 C103 1.624 . S
C613 C353 1.560 . S
C605 C109 1.631 . S
C637 C31 1.362 . S
C645 C378 1.374 . S
C677 C327 1.647 . S
C669 C73 1.633 . S
C701 C139 1.645 . S
C709 C305 1.660 . S
C733 C61 1.351 . S
C741 C355 1.344 . S
C773 C309 1.724 . S
C765 C175 1.722 . S
C797 C181 1.637 . S
C805 C331 1.651 . S
C829 C247 1.824 . S
C837 C351 1.831 . S
C861 C277 1.825 . S
C869 C374 1.822 . S
C893 C145 1.640 . S
C901 C329 1.600 . S
C933 C307 1.645 . S
C925 C211 1.563 . S
C965 C377 1.515 . S
C957 C217 1.514 . S
C997 C354 1.561 . S
C989 C283 1.610 . S
C1021 C169 1.948 . S
C1029 C375 1.912 . S
C1061 C328 1.602 . S
C1053 C241 1.609 . S
C1093 C304 1.617 . S
C1085 C253 1.623 . S
C1117 C205 1.864 . S
C1125 C352 1.894 . S
