# Generated by pormake.
# Topology nom, (4,4)-cn, num edge types: 1
# Building blocks:
#     Node 0, Type 0, BuildingBlock: KUFVIS_clean_linker_0, # of connection points: 4
#     Node 1, Type 0, BuildingBlock: KUFVIS_clean_linker_0, # of connection points: 4
#     Node 2, Type 0, BuildingBlock: KUFVIS_clean_linker_0, # of connection points: 4
#     Node 3, Type 0, BuildingBlock: KUFVIS_clean_linker_0, # of connection points: 4
#     Node 4, Type 0, BuildingBlock: KUFVIS_clean_linker_0, # of connection points: 4
#     Node 5, Type 0, BuildingBlock: KUFVIS_clean_linker_0, # of connection points: 4
#     Node 6, Type 1, BuildingBlock: NAHDIM_clean_sbu_0, # of connection points: 4
#     Node 7, Type 1, BuildingBlock: NAHDIM_clean_sbu_0, # of connection points: 4
#     Node 8, Type 1, BuildingBlock: NAHDIM_clean_sbu_0, # of connection points: 4
#     Node 9, Type 1, BuildingBlock: NAHDIM_clean_sbu_0, # of connection points: 4
#     Node 10, Type 1, BuildingBlock: NAHDIM_clean_sbu_0, # of connection points: 4
#     Node 11, Type 1, BuildingBlock: NAHDIM_clean_sbu_0, # of connection points: 4
#     Edge 12, Type (0, 1), BuildingBlock: CIFDUS_clean_linker_0, # of connection points: 2
#     Edge 13, Type (0, 1), BuildingBlock: CIFDUS_clean_linker_0, # of connection points: 2
#     Edge 14, Type (0, 1), BuildingBlock: CIFDUS_clean_linker_0, # of connection points: 2
#     Edge 15, Type (0, 1), BuildingBlock: CIFDUS_clean_linker_0, # of connection points: 2
#     Edge 16, Type (0, 1), BuildingBlock: CIFDUS_clean_linker_0, # of connection points: 2
#     Edge 17, Type (0, 1), BuildingBlock: CIFDUS_clean_linker_0, # of connection points: 2
#     Edge 18, Type (0, 1), BuildingBlock: CIFDUS_clean_linker_0, # of connection points: 2
#     Edge 19, Type (0, 1), BuildingBlock: CIFDUS_clean_linker_0, # of connection points: 2
#     Edge 20, Type (0, 1), BuildingBlock: CIFDUS_clean_linker_0, # of connection points: 2
#     Edge 21, Type (0, 1), BuildingBlock: CIFDUS_clean_linker_0, # of connection points: 2
#     Edge 22, Type (0, 1), BuildingBlock: CIFDUS_clean_linker_0, # of connection points: 2
#     Edge 23, Type (0, 1), BuildingBlock: CIFDUS_clean_linker_0, # of connection points: 2
#     Edge 24, Type (0, 1), BuildingBlock: CIFDUS_clean_linker_0, # of connection points: 2
#     Edge 25, Type (0, 1), BuildingBlock: CIFDUS_clean_linker_0, # of connection points: 2
#     Edge 26, Type (0, 1), BuildingBlock: CIFDUS_clean_linker_0, # of connection points: 2
#     Edge 27, Type (0, 1), BuildingBlock: CIFDUS_clean_linker_0, # of connection points: 2
#     Edge 28, Type (0, 1), BuildingBlock: CIFDUS_clean_linker_0, # of connection points: 2
#     Edge 29, Type (0, 1), BuildingBlock: CIFDUS_clean_linker_0, # of connection points: 2
#     Edge 30, Type (0, 1), BuildingBlock: CIFDUS_clean_linker_0, # of connection points: 2
#     Edge 31, Type (0, 1), BuildingBlock: CIFDUS_clean_linker_0, # of connection points: 2
#     Edge 32, Type (0, 1), BuildingBlock: CIFDUS_clean_linker_0, # of connection points: 2
#     Edge 33, Type (0, 1), BuildingBlock: CIFDUS_clean_linker_0, # of connection points: 2
#     Edge 34, Type (0, 1), BuildingBlock: CIFDUS_clean_linker_0, # of connection points: 2
#     Edge 35, Type (0, 1), BuildingBlock: CIFDUS_clean_linker_0, # of connection points: 2
# Relax obj value: 0.022
# Max RMSD: 0.123
# Mean RMSD: 0.082
data_MOF--net-nom--node1-NAHDIM_clean_sbu_0--node2-KUFVIS_clean_linker_0--edge1-CIFDUS_clean_linker_0
_symmetry_space_group_name_H-M    P1
_symmetry_Int_Tables_number       1
_symmetry_cell_setting            triclinic
loop_
_symmetry_equiv_pos_as_xyz
'x, y, z'
_cell_length_a     39.669966
_cell_length_b     40.944715
_cell_length_c     41.135585
_cell_angle_alpha  90.191515
_cell_angle_beta   90.414373
_cell_angle_gamma 121.19563
loop_
_atom_site_label
_atom_site_type_symbol
_atom_site_fract_x
_atom_site_fract_y
_atom_site_fract_z
_atom_type_partial_charge
H0 H 0.15066 0.59743 0.33999 0.0
H1 H 0.05674 0.57215 0.27305 0.0
H2 H 0.0313 0.52998 0.37171 0.0
H3 H 0.97765 0.53659 0.36177 0.0
H4 H 0.88222 0.47097 0.29532 0.0
H5 H 1.00091 0.51413 0.26412 0.0
C6 C 0.11936 0.58313 0.3345 0.0
C7 C 0.09239 0.56349 0.35917 0.0
C8 C 0.10683 0.58602 0.30335 0.0
C9 C 0.06626 0.5691 0.29699 0.0
C10 C 0.03824 0.54818 0.32135 0.0
C11 C 0.0519 0.546 0.35261 0.0
C12 C 0.99497 0.52769 0.31397 0.0
C13 C 0.96764 0.52366 0.33793 0.0
C14 C 0.9271 0.50334 0.33092 0.0
C15 C 0.91371 0.48724 0.30009 0.0
C16 C 0.94006 0.49176 0.27556 0.0
C17 C 0.98061 0.51145 0.28282 0.0
H18 H 0.57903 0.14724 0.49373 0.0
H19 H 0.51146 0.05583 0.4268 0.0
H20 H 0.5248 0.03193 0.52718 0.0
H21 H 0.46792 0.9784 0.51716 0.0
H22 H 0.42505 0.88744 0.44743 0.0
H23 H 0.50914 1.00099 0.41754 0.0
C24 C 0.56157 0.11675 0.48889 0.0
C25 C 0.55198 0.09098 0.51439 0.0
C26 C 0.54728 0.10412 0.45748 0.0
C27 C 0.5239 0.06488 0.45098 0.0
C28 C 0.5162 0.03788 0.47569 0.0
C29 C 0.53068 0.05158 0.50751 0.0
C30 C 0.49201 0.9958 0.4684 0.0
C31 C 0.46876 0.96916 0.49267 0.0
C32 C 0.44516 0.93013 0.48508 0.0
C33 C 0.44378 0.91759 0.45329 0.0
C34 C 0.46622 0.94313 0.42896 0.0
C35 C 0.49114 0.9819 0.43663 0.0
H36 H 0.53771 0.41501 0.61844 0.0
H37 H 0.48461 0.45464 0.68573 0.0
H38 H 0.51577 0.50294 0.5893 0.0
H39 H 0.45647 0.50271 0.59804 0.0
H40 H 0.44499 0.5766 0.66514 0.0
H41 H 0.50285 0.51787 0.6962 0.0
C42 C 0.52598 0.43322 0.62366 0.0
C43 C 0.52765 0.45845 0.6 0.0
C44 C 0.51089 0.432 0.65448 0.0
C45 C 0.49677 0.45624 0.6619 0.0
C46 C 0.49775 0.48183 0.63832 0.0
C47 C 0.51382 0.48296 0.60748 0.0
C48 C 0.48262 0.50768 0.64586 0.0
C49 C 0.46251 0.51608 0.62185 0.0
C50 C 0.44943 0.54129 0.62879 0.0
C51 C 0.45612 0.55795 0.65962 0.0
C52 C 0.47467 0.54909 0.68403 0.0
C53 C 0.48797 0.52405 0.67719 0.0
H54 H 0.14352 0.55743 0.7782 0.0
H55 H 0.05599 0.49497 0.84979 0.0
H56 H 0.02201 0.51137 0.7536 0.0
H57 H 0.96778 0.45518 0.76376 0.0
H58 H 0.87989 0.42072 0.83714 0.0
H59 H 1.00106 0.49428 0.86356 0.0
C60 C 0.11282 0.54242 0.78529 0.0
C61 C 0.08382 0.5358 0.76227 0.0
C62 C 0.10307 0.52878 0.817 0.0
C63 C 0.06319 0.5067 0.82556 0.0
C64 C 0.03307 0.50001 0.80295 0.0
C65 C 0.04407 0.51508 0.77129 0.0
C66 C 0.99046 0.4778 0.81234 0.0
C67 C 0.96047 0.45657 0.78882 0.0
C68 C 0.92054 0.43715 0.79749 0.0
C69 C 0.91061 0.43681 0.83005 0.0
C70 C 0.93957 0.45662 0.85378 0.0
C71 C 0.97927 0.47792 0.84491 0.0
H72 H 0.46659 0.88782 0.99212 0.0
H73 H 0.53039 0.98009 0.92645 0.0
H74 H 0.50868 1.00234 0.0248 0.0
H75 H 0.5661 0.05753 0.01654 0.0
H76 H 0.59758 0.14739 0.94822 0.0
H77 H 0.52471 0.0315 0.91647 0.0
C78 C 0.48263 0.9183 0.98766 0.0
C79 C 0.48728 0.94367 0.01262 0.0
C80 C 0.49825 0.93126 0.95686 0.0
C81 C 0.51763 0.97042 0.95023 0.0
C82 C 0.52156 0.9968 0.97454 0.0
C83 C 0.50602 0.98285 0.00573 0.0
C84 C 0.54227 0.0387 0.96755 0.0
C85 C 0.56377 0.06625 -0.00777 0.0
C86 C 0.58258 0.10547 0.98558 0.0
C87 C 0.58177 0.11716 0.95386 0.0
C88 C 0.5617 0.09064 0.929 0.0
C89 C 0.54108 0.05157 0.93592 0.0
H90 H 0.48562 0.6074 0.11863 0.0
H91 H 0.53982 0.57354 0.19047 0.0
H92 H 0.53043 0.53622 0.0904 0.0
H93 H 0.58841 0.54145 0.10291 0.0
H94 H 0.62018 0.48495 0.17294 0.0
H95 H 0.53711 0.51772 0.19888 0.0
C96 C 0.49982 0.59164 0.12496 0.0
C97 C 0.50702 0.57198 0.10075 0.0
C98 C 0.51097 0.59166 0.15727 0.0
C99 C 0.53021 0.57214 0.16553 0.0
C100 C 0.53822 0.55231 0.1415 0.0
C101 C 0.5259 0.55214 0.10916 0.0
C102 C 0.56001 0.53254 0.14992 0.0
C103 C 0.58464 0.52945 0.12696 0.0
C104 C 0.60572 0.51178 0.13527 0.0
C105 C 0.60286 0.49761 0.16658 0.0
C106 C 0.5784 0.49986 0.18972 0.0
C107 C 0.5568 0.51703 0.18118 0.0
C108 C 0.64077 0.3083 0.38321 0.0
O109 O 0.67374 0.33053 0.36777 0.0
O110 O 0.70046 0.41142 0.39773 0.0
Zn111 Zn 0.64071 0.37899 0.39595 0.0
O112 O 0.61532 0.3888 0.43405 0.0
C113 C 0.61238 0.41526 0.35181 0.0
O114 O 0.61561 0.43581 0.37751 0.0
O115 O 0.62254 0.32277 0.39645 0.0
C116 C 0.62661 0.42045 0.4484 0.0
O117 O 0.65901 0.45132 0.43901 0.0
C118 C 0.72169 0.40318 0.41508 0.0
O119 O 0.70446 0.37343 0.43427 0.0
O120 O 0.62141 0.38974 0.35414 0.0
C121 C 0.34367 0.73147 0.57098 0.0
O122 O 0.35614 0.71634 0.5925 0.0
O123 O 0.31241 0.62907 0.56601 0.0
Zn124 Zn 0.2785 0.65271 0.56114 0.0
O125 O 0.24108 0.6294 0.52297 0.0
C126 C 0.21059 0.61524 0.60301 0.0
O127 O 0.19475 0.59184 0.57808 0.0
O128 O 0.31207 0.70994 0.55501 0.0
C129 C 0.23709 0.60129 0.50648 0.0
O130 O 0.25916 0.58693 0.51343 0.0
C131 C 0.34486 0.64157 0.55123 0.0
O132 O 0.35738 0.67098 0.53185 0.0
O133 O 0.2461 0.64284 0.60139 0.0
C134 C 0.60015 0.32606 0.74453 0.0
O135 O 0.63247 0.34053 0.76231 0.0
O136 O 0.67823 0.31095 0.73235 0.0
Zn137 Zn 0.62067 0.2693 0.72817 0.0
O138 O 0.60895 0.24122 0.68536 0.0
C139 C 0.63156 0.22415 0.77494 0.0
O140 O 0.66649 0.24158 0.76151 0.0
O141 O 0.58853 0.29493 0.72911 0.0
C142 C 0.60949 0.21085 0.68008 0.0
O143 O 0.62027 0.19631 0.70346 0.0
C144 C 0.70816 0.31288 0.71922 0.0
O145 O 0.70339 0.28533 0.69968 0.0
O146 O 0.60588 0.23161 0.76495 0.0
C147 C 0.43419 0.72996 0.88314 0.0
O148 O 0.40688 0.71939 0.86049 0.0
O149 O 0.34683 0.63491 0.88218 0.0
Zn150 Zn 0.40258 0.64769 0.89082 0.0
O151 O 0.40525 0.62206 0.93154 0.0
C152 C 0.41056 0.59461 0.8511 0.0
O153 O 0.38619 0.57079 0.87283 0.0
O154 O 0.43774 0.70462 0.89791 0.0
C155 C 0.43607 0.62068 0.93698 0.0
O156 O 0.46475 0.63572 0.91577 0.0
C157 C 0.31595 0.60397 0.89038 0.0
O158 O 0.31946 0.57774 0.90565 0.0
O159 O 0.42168 0.6298 0.85335 0.0
C160 C 0.7017 0.41373 0.04198 0.0
O161 O 0.68383 0.38094 0.02624 0.0
O162 O 0.71819 0.33795 0.05302 0.0
Zn163 Zn 0.76098 0.39371 0.05738 0.0
O164 O 0.78789 0.40617 0.10106 0.0
C165 C 0.81172 0.38581 0.01287 0.0
O166 O 0.7962 0.35251 0.02715 0.0
O167 O 0.73506 0.42509 0.05529 0.0
C168 C 0.82057 0.40926 0.10855 0.0
O169 O 0.83925 0.40104 0.08687 0.0
C170 C 0.7166 0.30872 0.06534 0.0
O171 O 0.74568 0.31292 0.08393 0.0
O172 O 0.80107 0.40889 0.02167 0.0
C173 C 0.43062 0.71407 0.23408 0.0
O174 O 0.39865 0.69241 0.25092 0.0
O175 O 0.34373 0.72118 0.23056 0.0
Zn176 Zn 0.3996 0.76551 0.22467 0.0
O177 O 0.40733 0.79193 0.18189 0.0
C178 C 0.39032 0.81194 0.27144 0.0
O179 O 0.35518 0.79517 0.2578 0.0
O180 O 0.43654 0.74546 0.22275 0.0
C181 C 0.41036 0.8239 0.17647 0.0
O182 O 0.40434 0.8419 0.20007 0.0
C183 C 0.31219 0.71811 0.21937 0.0
O184 O 0.31428 0.74544 0.20123 0.0
O185 O 0.41525 0.80367 0.26142 0.0
H186 H 0.16929 0.57954 0.28844 0.0
H187 H 0.11308 0.6423 0.26321 0.0
H188 H 0.17068 0.68688 0.23126 0.0
H189 H 0.24051 0.71267 0.21693 0.0
H190 H 0.29721 0.65127 0.24601 0.0
H191 H 0.23611 0.6017 0.27017 0.0
C192 C 0.16946 0.60273 0.27558 0.0
C193 C 0.13726 0.60796 0.2785 0.0
C194 C 0.20307 0.62884 0.25838 0.0
C195 C 0.13749 0.63764 0.26127 0.0
C196 C 0.1706 0.66334 0.2433 0.0
C197 C 0.23928 0.68813 0.22808 0.0
C198 C 0.27356 0.68594 0.22998 0.0
C199 C 0.20412 0.65998 0.24264 0.0
C200 C 0.27145 0.65393 0.24454 0.0
C201 C 0.23649 0.62551 0.25835 0.0
H202 H 0.61556 0.15044 0.42684 0.0
H203 H 0.49631 0.12483 0.43641 0.0
H204 H 0.51413 0.18576 0.41114 0.0
H205 H 0.56607 0.25012 0.39433 0.0
H206 H 0.68543 0.27546 0.38433 0.0
H207 H 0.66526 0.21078 0.40144 0.0
C208 C 0.59328 0.1577 0.42214 0.0
C209 C 0.55469 0.13333 0.43306 0.0
C210 C 0.604 0.19304 0.40824 0.0
C211 C 0.52602 0.14303 0.42758 0.0
C212 C 0.53636 0.17806 0.4136 0.0
C213 C 0.5875 0.24124 0.39543 0.0
C214 C 0.62728 0.26767 0.38864 0.0
C215 C 0.57563 0.20393 0.40511 0.0
C216 C 0.65466 0.25568 0.3896 0.0
C217 C 0.64317 0.21873 0.39948 0.0
H218 H 0.47447 0.60461 0.59282 0.0
H219 H 0.37149 0.4965 0.61572 0.0
H220 H 0.32902 0.51721 0.59154 0.0
H221 H 0.3213 0.56945 0.57071 0.0
H222 H 0.42466 0.67734 0.54695 0.0
H223 H 0.46695 0.65346 0.56436 0.0
C224 C 0.44281 0.58521 0.59131 0.0
C225 C 0.42595 0.549 0.60554 0.0
C226 C 0.4187 0.59762 0.5779 0.0
C227 C 0.38494 0.52421 0.60427 0.0
C228 C 0.36072 0.53627 0.59088 0.0
C229 C 0.35308 0.58752 0.56902 0.0
C230 C 0.36987 0.6253 0.5581 0.0
C231 C 0.37723 0.57344 0.57876 0.0
C232 C 0.41103 0.64822 0.55545 0.0
C233 C 0.43525 0.63461 0.56545 0.0
H234 H 0.8585 0.44588 0.78857 0.0
H235 H 0.9096 0.38208 0.75323 0.0
H236 H 0.84896 0.33973 0.72227 0.0
H237 H 0.77838 0.31617 0.71146 0.0
H238 H 0.72759 0.3793 0.7499 0.0
H239 H 0.79105 0.42656 0.77342 0.0
C240 C 0.85652 0.42304 0.77363 0.0
C241 C 0.88812 0.41673 0.77337 0.0
C242 C 0.82139 0.39838 0.75686 0.0
C243 C 0.88559 0.38745 0.75369 0.0
C244 C 0.85081 0.36308 0.73628 0.0
C245 C 0.7814 0.34061 0.72451 0.0
C246 C 0.7481 0.34387 0.72928 0.0
C247 C 0.81802 0.3675 0.7386 0.0
C248 C 0.75254 0.37577 0.74622 0.0
C249 C 0.78886 0.40288 0.75968 0.0
H250 H 0.52572 0.88377 0.96197 0.0
H251 H 0.45884 0.91326 0.89862 0.0
H252 H 0.4361 0.85433 0.86704 0.0
H253 H 0.42753 0.79013 0.86317 0.0
H254 H 0.493 0.76057 0.92874 0.0
H255 H 0.52416 0.8238 0.9536 0.0
C256 C 0.50708 0.87771 0.94063 0.0
C257 C 0.49381 0.90252 0.93255 0.0
C258 C 0.49327 0.8434 0.92344 0.0
C259 C 0.46961 0.89461 0.90502 0.0
C260 C 0.45627 0.86072 0.88728 0.0
C261 C 0.4491 0.79773 0.88252 0.0
C262 C 0.45731 0.77029 0.89443 0.0
C263 C 0.46664 0.83417 0.89712 0.0
C264 C 0.48564 0.78082 0.91935 0.0
C265 C 0.50354 0.81704 0.93362 0.0
H266 H 0.58157 0.46163 0.08517 0.0
H267 H 0.68535 0.5492 0.13494 0.0
H268 H 0.726 0.52957 0.10635 0.0
H269 H 0.72996 0.48139 0.07397 0.0
H270 H 0.6254 0.39117 0.02643 0.0
H271 H 0.58723 0.41813 0.04688 0.0
C272 C 0.61329 0.47713 0.08876 0.0
C273 C 0.63072 0.50693 0.11176 0.0
C274 C 0.63615 0.46472 0.07311 0.0
C275 C 0.67162 0.52644 0.11699 0.0
C276 C 0.69471 0.51497 0.1009 0.0
C277 C 0.69897 0.46795 0.06758 0.0
C278 C 0.68048 0.43391 0.04915 0.0
C279 C 0.67702 0.48317 0.07995 0.0
C280 C 0.64038 0.41719 0.04081 0.0
C281 C 0.61845 0.43253 0.05259 0.0
H282 H 0.47028 0.89887 0.52957 0.0
H283 H 0.36624 0.89404 0.49195 0.0
H284 H 0.32452 0.83226 0.51792 0.0
H285 H 0.31854 0.7757 0.54412 0.0
H286 H 0.4226 0.77971 0.58121 0.0
H287 H 0.46347 0.84562 0.56285 0.0
C288 C 0.43842 0.88489 0.5283 0.0
C289 C 0.42114 0.90095 0.50936 0.0
C290 C 0.41476 0.8488 0.54243 0.0
C291 C 0.37993 0.88232 0.50697 0.0
C292 C 0.35618 0.8468 0.5214 0.0
C293 C 0.35011 0.79118 0.54851 0.0
C294 C 0.36761 0.77267 0.56347 0.0
C295 C 0.37337 0.82907 0.53799 0.0
C296 C 0.40845 0.79325 0.56955 0.0
C297 C 0.43185 0.83094 0.55902 0.0
H298 H 0.56069 0.45098 0.70579 0.0
H299 H 0.46651 0.35489 0.65429 0.0
H300 H 0.48295 0.31175 0.68142 0.0
H301 H 0.53104 0.30337 0.71239 0.0
H302 H 0.62724 0.40009 0.76225 0.0
H303 H 0.60299 0.4408 0.74358 0.0
C304 C 0.54287 0.42039 0.70164 0.0
C305 C 0.51225 0.40591 0.67843 0.0
C306 C 0.5535 0.39602 0.71643 0.0
C307 C 0.48985 0.36641 0.67247 0.0
C308 C 0.49959 0.34187 0.68765 0.0
C309 C 0.54632 0.3332 0.71967 0.0
C310 C 0.58133 0.34874 0.73819 0.0
C311 C 0.53247 0.35662 0.70851 0.0
C312 C 0.60043 0.38736 0.74776 0.0
C313 C 0.58663 0.41076 0.73702 0.0
H314 H 0.16699 0.5979 0.82953 0.0
H315 H 0.11275 0.47934 0.85527 0.0
H316 H 0.17351 0.49292 0.88343 0.0
H317 H 0.24465 0.53728 0.89436 0.0
H318 H 0.29873 0.65507 0.86516 0.0
H319 H 0.23557 0.64295 0.84449 0.0
C320 C 0.16833 0.57514 0.84176 0.0
C321 C 0.13571 0.53763 0.84008 0.0
C322 C 0.20357 0.58294 0.85674 0.0
C323 C 0.13748 0.50846 0.85635 0.0
C324 C 0.17235 0.51617 0.8721 0.0
C325 C 0.24251 0.56038 0.88382 0.0
C326 C 0.27658 0.59693 0.88092 0.0
C327 C 0.20603 0.55309 0.87145 0.0
C328 C 0.27319 0.62658 0.86735 0.0
C329 C 0.23703 0.61972 0.85556 0.0
H330 H 0.57338 0.16449 -0.0002 0.0
H331 H 0.64179 0.11425 0.0264 0.0
H332 H 0.68777 0.17212 0.05737 0.0
H333 H 0.71333 0.24039 0.06987 0.0
H334 H 0.64585 0.29067 0.0394 0.0
H335 H 0.59482 0.22956 0.01691 0.0
C336 C 0.59796 0.16599 0.01296 0.0
C337 C 0.6045 0.13546 0.01065 0.0
C338 C 0.62483 0.19966 0.0295 0.0
C339 C 0.63613 0.13741 0.02797 0.0
C340 C 0.66263 0.17065 0.04533 0.0
C341 C 0.68713 0.23776 0.0588 0.0
C342 C 0.6837 0.27022 0.05593 0.0
C343 C 0.65808 0.20252 0.04521 0.0
C344 C 0.64954 0.26633 0.04154 0.0
C345 C 0.62026 0.23135 0.0287 0.0
H346 H 0.53519 0.66645 0.15794 0.0
H347 H 0.46408 0.56201 0.2103 0.0
H348 H 0.43544 0.59236 0.24214 0.0
H349 H 0.42402 0.64587 0.24905 0.0
H350 H 0.4952 0.74984 0.1954 0.0
H351 H 0.53065 0.7226 0.17041 0.0
C352 C 0.51416 0.65075 0.17695 0.0
C353 C 0.50149 0.61214 0.18178 0.0
C354 C 0.4974 0.66813 0.19454 0.0
C355 C 0.47433 0.59188 0.20639 0.0
C356 C 0.45771 0.60912 0.22431 0.0
C357 C 0.44774 0.66281 0.23233 0.0
C358 C 0.45632 0.69961 0.22369 0.0
C359 C 0.46795 0.64682 0.2177 0.0
C360 C 0.48752 0.72129 0.20224 0.0
C361 C 0.50786 0.70573 0.18785 0.0
H362 H 0.89448 0.45025 0.37807 0.0
H363 H 0.89067 0.54353 0.33407 0.0
H364 H 0.82729 0.52288 0.35968 0.0
H365 H 0.76852 0.47242 0.38713 0.0
H366 H 0.77157 0.3781 0.43035 0.0
H367 H 0.8396 0.40507 0.41294 0.0
C368 C 0.88041 0.46683 0.3753 0.0
C369 C 0.89719 0.49857 0.35467 0.0
C370 C 0.8434 0.45405 0.38934 0.0
C371 C 0.87843 0.51941 0.35039 0.0
C372 C 0.84199 0.50729 0.36466 0.0
C373 C 0.78431 0.45812 0.39322 0.0
C374 C 0.76475 0.42298 0.40953 0.0
C375 C 0.82343 0.47371 0.383 0.0
C376 C 0.7858 0.40508 0.41766 0.0
C377 C 0.82473 0.42042 0.40761 0.0
H378 H 0.14225 0.53968 0.37503 0.0
H379 H 0.07846 0.58869 0.41592 0.0
H380 H 0.11651 0.60293 0.46668 0.0
H381 H 0.17329 0.60823 0.49651 0.0
H382 H 0.23689 0.55899 0.45517 0.0
H383 H 0.19359 0.53804 0.40739 0.0
C384 C 0.13616 0.55269 0.39541 0.0
C385 C 0.1079 0.56336 0.3919 0.0
C386 C 0.15859 0.56136 0.42408 0.0
C387 C 0.09995 0.58004 0.4183 0.0
C388 C 0.122 0.58856 0.4471 0.0
C389 C 0.17747 0.59269 0.47711 0.0
C390 C 0.20867 0.58576 0.47906 0.0
C391 C 0.15231 0.58053 0.4498 0.0
C392 C 0.21328 0.56492 0.45412 0.0
C393 C 0.18855 0.55295 0.42679 0.0
H394 H 0.54288 0.14638 0.54023 0.0
H395 H 0.58293 0.06953 0.56452 0.0
H396 H 0.60348 0.09924 0.61867 0.0
H397 H 0.61283 0.14948 0.65789 0.0
H398 H 0.57534 0.22779 0.63072 0.0
H399 H 0.55199 0.19561 0.57844 0.0
C400 C 0.55649 0.13629 0.55721 0.0
C401 C 0.56201 0.10623 0.54817 0.0
C402 C 0.56906 0.15405 0.58762 0.0
C403 C 0.5784 0.09265 0.57089 0.0
C404 C 0.59039 0.10983 0.60171 0.0
C405 C 0.59956 0.15948 0.64051 0.0
C406 C 0.59603 0.19115 0.64823 0.0
C407 C 0.58636 0.14095 0.61016 0.0
C408 C 0.57872 0.2037 0.62543 0.0
C409 C 0.56519 0.18523 0.59552 0.0
H410 H 0.43866 0.50798 0.73737 0.0
H411 H 0.51184 0.62322 0.70349 0.0
H412 H 0.50074 0.64803 0.75393 0.0
H413 H 0.46383 0.63639 0.80445 0.0
H414 H 0.38786 0.52071 0.83716 0.0
H415 H 0.40634 0.4966 0.79051 0.0
C416 C 0.4531 0.53852 0.74163 0.0
C417 C 0.47626 0.56385 0.71712 0.0
C418 C 0.44534 0.55242 0.77011 0.0
C419 C 0.4942 0.60335 0.72234 0.0
C420 C 0.48753 0.61746 0.75096 0.0
C421 C 0.45153 0.60592 0.80153 0.0
C422 C 0.42408 0.58041 0.82404 0.0
C423 C 0.46204 0.59219 0.7745 0.0
C424 C 0.40878 0.54102 0.82005 0.0
C425 C 0.41938 0.52716 0.79339 0.0
H426 H 0.9106 0.39443 0.89085 0.0
H427 H 0.93811 0.51084 0.89132 0.0
H428 H 0.90234 0.49993 0.9425 0.0
H429 H 0.85716 0.45484 0.98356 0.0
H430 H 0.82964 0.33804 0.98189 0.0
H431 H 0.87157 0.35147 0.9348 0.0
C432 C 0.90957 0.41759 0.90276 0.0
C433 C 0.92694 0.45336 0.8878 0.0
C434 C 0.8884 0.4108 0.93156 0.0
C435 C 0.92527 0.48324 0.90288 0.0
C436 C 0.90448 0.47683 0.93185 0.0
C437 C 0.8606 0.43243 0.97303 0.0
C438 C 0.83981 0.39534 0.98596 0.0
C439 C 0.88489 0.44036 0.94585 0.0
C440 C 0.84502 0.36675 0.97232 0.0
C441 C 0.86902 0.37438 0.94536 0.0
H442 H 0.49243 0.88766 0.04241 0.0
H443 H 0.45109 0.96539 0.05779 0.0
H444 H 0.42432 0.93587 0.11052 0.0
H445 H 0.41005 0.88556 0.15107 0.0
H446 H 0.44675 0.80488 0.13124 0.0
H447 H 0.47644 0.83708 0.08071 0.0
C448 C 0.477 0.8979 0.05692 0.0
C449 C 0.47327 0.92834 0.04579 0.0
C450 C 0.46029 0.87984 0.08625 0.0
C451 C 0.45457 0.9421 0.06573 0.0
C452 C 0.4389 0.92497 0.09574 0.0
C453 C 0.42441 0.875 0.13557 0.0
C454 C 0.42603 0.84277 0.14494 0.0
C455 C 0.44111 0.89342 0.10604 0.0
C456 C 0.44471 0.82938 0.12459 0.0
C457 C 0.46196 0.84792 0.09572 0.0
H458 H 0.57451 0.43393 0.20657 0.0
H459 H 0.57996 0.53366 0.2477 0.0
H460 H 0.58773 0.51444 0.30213 0.0
H461 H 0.59956 0.47275 0.33714 0.0
H462 H 0.59804 0.37519 0.29508 0.0
H463 H 0.58277 0.39052 0.2418 0.0
C464 C 0.57734 0.45145 0.22746 0.0
C465 C 0.57716 0.48542 0.22304 0.0
C466 C 0.58304 0.4409 0.25844 0.0
C467 C 0.57981 0.50728 0.25043 0.0
C468 C 0.58465 0.49651 0.28152 0.0
C469 C 0.59558 0.45464 0.31639 0.0
C470 C 0.60034 0.42308 0.32006 0.0
C471 C 0.58733 0.46391 0.28569 0.0
C472 C 0.5949 0.39985 0.29291 0.0
C473 C 0.58612 0.40855 0.26242 0.0
H474 H 0.39967 0.90918 0.39356 0.0
H475 H 0.52189 0.94256 0.39054 0.0
H476 H 0.50971 0.90594 0.33984 0.0
H477 H 0.46239 0.85931 0.29965 0.0
H478 H 0.33992 0.8262 0.30403 0.0
H479 H 0.35404 0.86781 0.35099 0.0
C480 C 0.42372 0.90896 0.38135 0.0
C481 C 0.46151 0.92824 0.39549 0.0
C482 C 0.41628 0.88745 0.35284 0.0
C483 C 0.49263 0.92802 0.37975 0.0
C484 C 0.48554 0.90682 0.35104 0.0
C485 C 0.43887 0.86139 0.31079 0.0
C486 C 0.40005 0.83926 0.2986 0.0
C487 C 0.4472 0.88554 0.33788 0.0
C488 C 0.37 0.84267 0.31302 0.0
C489 C 0.37801 0.86649 0.33989 0.0
H490 H 0.51121 0.39792 0.56216 0.0
H491 H 0.58429 0.5206 0.5669 0.0
H492 H 0.62096 0.52006 0.51934 0.0
H493 H 0.63558 0.48383 0.47937 0.0
H494 H 0.56266 0.36074 0.47663 0.0
H495 H 0.52308 0.36234 0.52078 0.0
C496 C 0.53498 0.42458 0.55258 0.0
C497 C 0.5453 0.45921 0.56812 0.0
C498 C 0.55639 0.42391 0.52595 0.0
C499 C 0.57569 0.4936 0.55522 0.0
C500 C 0.5969 0.49323 0.52827 0.0
C501 C 0.611 0.45738 0.48841 0.0
C502 C 0.60243 0.4222 0.47486 0.0
C503 C 0.58814 0.45843 0.51395 0.0
C504 C 0.57016 0.38823 0.48665 0.0
C505 C 0.54738 0.38906 0.51189 0.0
H506 H 0.14393 0.60478 0.74326 0.0
H507 H 0.05181 0.49603 0.70558 0.0
H508 H 0.08123 0.51276 0.65154 0.0
H509 H 0.13786 0.55476 0.61712 0.0
H510 H 0.23231 0.66139 0.65663 0.0
H511 H 0.1976 0.64869 0.708 0.0
C512 C 0.13007 0.58489 0.72311 0.0
C513 C 0.09611 0.54901 0.72848 0.0
C514 C 0.14803 0.594 0.69263 0.0
C515 C 0.07791 0.52388 0.70205 0.0
C516 C 0.09501 0.53325 0.67126 0.0
C517 C 0.15069 0.57539 0.63686 0.0
C518 C 0.18791 0.60873 0.63316 0.0
C519 C 0.13084 0.56765 0.66659 0.0
C520 C 0.20396 0.63528 0.65892 0.0
C521 C 0.18409 0.62811 0.6883 0.0
H522 H 0.62701 0.12534 0.89346 0.0
H523 H 0.50427 0.09019 0.89159 0.0
H524 H 0.51448 0.12756 0.84206 0.0
H525 H 0.56034 0.17547 0.80278 0.0
H526 H 0.68349 0.21059 0.8063 0.0
H527 H 0.6712 0.16809 0.85172 0.0
C528 C 0.60239 0.12522 0.88163 0.0
C529 C 0.56499 0.10515 0.89573 0.0
C530 C 0.60876 0.1473 0.85389 0.0
C531 C 0.53318 0.1052 0.88069 0.0
C532 C 0.53917 0.12687 0.85269 0.0
C533 C 0.5844 0.17364 0.8134 0.0
C534 C 0.62287 0.1966 0.80141 0.0
C535 C 0.57713 0.14895 0.83964 0.0
C536 C 0.65365 0.19352 0.81516 0.0
C537 C 0.64668 0.16916 0.84114 0.0
H538 H 0.43842 0.56353 0.07834 0.0
H539 H 0.5519 0.5861 0.04662 0.0
H540 H 0.53845 0.60019 0.99196 0.0
H541 H 0.49741 0.6126 0.95508 0.0
H542 H 0.38496 0.59232 0.98774 0.0
H543 H 0.39522 0.57114 0.04027 0.0
C544 C 0.46008 0.57129 0.05937 0.0
C545 C 0.49627 0.57423 0.06657 0.0
C546 C 0.45257 0.58025 0.02834 0.0
C547 C 0.52375 0.58349 0.04164 0.0
C548 C 0.51623 0.59191 0.01049 0.0
C549 C 0.47499 0.60327 0.97358 0.0
C550 C 0.44071 0.60456 0.96763 0.0
C551 C 0.48121 0.59142 0.00385 0.0
C552 C 0.41177 0.59195 0.99176 0.0
C553 C 0.4176 0.57982 0.02182 0.0
H554 H 0.88052 0.49251 0.24371 0.0
H555 H 0.96465 0.45652 0.2326 0.0
H556 H 0.93578 0.42847 0.17944 0.0
H557 H 0.88464 0.41209 0.13701 0.0
H558 H 0.79804 0.4445 0.15169 0.0
H559 H 0.82912 0.47477 0.20315 0.0
C560 C 0.8923 0.47803 0.23 0.0
C561 C 0.92446 0.4763 0.24242 0.0
C562 C 0.87478 0.46088 0.2002 0.0
C563 C 0.9401 0.45857 0.22362 0.0
C564 C 0.92335 0.4422 0.19333 0.0
C565 C 0.87255 0.42568 0.15155 0.0
C566 C 0.839 0.42591 0.14047 0.0
C567 C 0.89038 0.44284 0.18153 0.0
C568 C 0.82365 0.44361 0.15963 0.0
C569 C 0.84151 0.46114 0.18905 0.0
loop_
_geom_bond_atom_site_label_1
_geom_bond_atom_site_label_2
_geom_bond_distance
_geom_bond_site_symmetry_2
_ccdc_geom_bond_type
H0 C6 0.930 . S
H1 C9 0.931 . S
H2 C11 0.931 . S
H3 C13 0.930 . S
H4 C15 0.930 . S
H5 C17 0.931 . S
C6 H0 0.930 . S
C6 C7 1.380 . S
C6 C8 1.394 . S
C7 C6 1.380 . S
C7 C11 1.382 . S
C8 C6 1.394 . S
C8 C9 1.400 . S
C9 H1 0.931 . S
C9 C8 1.400 . S
C9 C10 1.375 . S
C10 C9 1.375 . S
C10 C11 1.415 . S
C10 C12 1.501 1_455 S
C11 H2 0.931 . S
C11 C7 1.382 . S
C11 C10 1.415 . S
C12 C10 1.501 1_655 S
C12 C13 1.384 . S
C12 C17 1.408 . S
C13 H3 0.930 . S
C13 C12 1.384 . S
C13 C14 1.389 . S
C14 C13 1.389 . S
C14 C15 1.405 . S
C15 H4 0.930 . S
C15 C14 1.405 . S
C15 C16 1.364 . S
C16 C15 1.364 . S
C16 C17 1.400 . S
C17 H5 0.931 . S
C17 C12 1.408 . S
C17 C16 1.400 . S
H18 C24 0.930 . S
H19 C27 0.931 . S
H20 C29 0.931 . S
H21 C31 0.930 . S
H22 C33 0.930 . S
H23 C35 0.950 . S
C24 H18 0.930 . S
C24 C25 1.380 . S
C24 C26 1.394 . S
C25 C24 1.380 . S
C25 C29 1.382 . S
C26 C24 1.394 . S
C26 C27 1.400 . S
C27 H19 0.931 . S
C27 C26 1.400 . S
C27 C28 1.375 . S
C28 C27 1.375 . S
C28 C29 1.415 . S
C28 C30 1.501 1_545 S
C29 H20 0.931 . S
C29 C25 1.382 . S
C29 C28 1.415 . S
C30 C28 1.501 1_565 S
C30 C31 1.384 . S
C30 C35 1.408 . S
C31 H21 0.930 . S
C31 C30 1.384 . S
C31 C32 1.389 . S
C32 C31 1.389 . S
C32 C33 1.405 . S
C33 H22 0.930 . S
C33 C32 1.405 . S
C33 C34 1.364 . S
C34 C33 1.364 . S
C34 C35 1.400 . S
C35 H23 0.950 . S
C35 C30 1.408 . S
C35 C34 1.400 . S
H36 C42 0.930 . S
H37 C45 0.931 . S
H38 C47 0.931 . S
H39 C49 0.930 . S
H40 C51 0.930 . S
H41 C53 0.931 . S
C42 H36 0.930 . S
C42 C43 1.380 . S
C42 C44 1.394 . S
C43 C42 1.380 . S
C43 C47 1.382 . S
C44 C42 1.394 . S
C44 C45 1.400 . S
C45 H37 0.931 . S
C45 C44 1.400 . S
C45 C46 1.375 . S
C46 C45 1.375 . S
C46 C47 1.415 . S
C46 C48 1.501 . S
C47 H38 0.931 . S
C47 C43 1.382 . S
C47 C46 1.415 . S
C48 C46 1.501 . S
C48 C49 1.384 . S
C48 C53 1.408 . S
C49 H39 0.930 . S
C49 C48 1.384 . S
C49 C50 1.389 . S
C50 C49 1.389 . S
C50 C51 1.405 . S
C51 H40 0.930 . S
C51 C50 1.405 . S
C51 C52 1.364 . S
C52 C51 1.364 . S
C52 C53 1.400 . S
C53 H41 0.931 . S
C53 C48 1.408 . S
C53 C52 1.400 . S
H54 C60 0.930 . S
H55 C63 0.931 . S
H56 C65 0.931 . S
H57 C67 0.930 . S
H58 C69 0.930 . S
H59 C71 0.931 . S
C60 H54 0.930 . S
C60 C61 1.380 . S
C60 C62 1.394 . S
C61 C60 1.380 . S
C61 C65 1.382 . S
C62 C60 1.394 . S
C62 C63 1.400 . S
C63 H55 0.931 . S
C63 C62 1.400 . S
C63 C64 1.375 . S
C64 C63 1.375 . S
C64 C65 1.415 . S
C64 C66 1.501 1_455 S
C65 H56 0.931 . S
C65 C61 1.382 . S
C65 C64 1.415 . S
C66 C64 1.501 1_655 S
C66 C67 1.384 . S
C66 C71 1.408 . S
C67 H57 0.930 . S
C67 C66 1.384 . S
C67 C68 1.389 . S
C68 C67 1.389 . S
C68 C69 1.405 . S
C69 H58 0.930 . S
C69 C68 1.405 . S
C69 C70 1.364 . S
C70 C69 1.364 . S
C70 C71 1.400 . S
C71 H59 0.931 . S
C71 C66 1.408 . S
C71 C70 1.400 . S
H72 C78 0.930 . S
H73 C81 0.931 . S
H74 C83 0.931 . S
H75 C85 0.930 . S
H76 C87 0.930 . S
H77 C89 0.931 . S
C78 H72 0.930 . S
C78 C79 1.380 . S
C78 C80 1.394 1_554 S
C79 C78 1.380 . S
C79 C83 1.382 . S
C80 C78 1.394 1_556 S
C80 C81 1.400 . S
C81 H73 0.931 . S
C81 C80 1.400 . S
C81 C82 1.375 . S
C82 C81 1.375 . S
C82 C83 1.415 1_556 S
C82 C84 1.501 1_565 S
C83 H74 0.931 . S
C83 C79 1.382 . S
C83 C82 1.415 1_554 S
C84 C82 1.501 1_545 S
C84 C85 1.384 1_556 S
C84 C89 1.408 . S
C85 H75 0.930 . S
C85 C84 1.384 1_554 S
C85 C86 1.380 1_554 S
C86 C85 1.380 1_556 S
C86 C87 1.439 . S
C87 H76 0.930 . S
C87 C86 1.439 . S
C87 C88 1.364 . S
C88 C87 1.364 . S
C88 C89 1.400 . S
C89 H77 0.931 . S
C89 C84 1.408 . S
C89 C88 1.400 . S
H90 C96 0.930 . S
H91 C99 0.931 . S
H92 C101 0.931 . S
H93 C103 0.930 . S
H94 C105 0.930 . S
H95 C107 0.931 . S
C96 H90 0.930 . S
C96 C97 1.380 . S
C96 C98 1.394 . S
C97 C96 1.380 . S
C97 C101 1.382 . S
C98 C96 1.394 . S
C98 C99 1.400 . S
C99 H91 0.931 . S
C99 C98 1.400 . S
C99 C100 1.375 . S
C100 C99 1.375 . S
C100 C101 1.415 . S
C100 C102 1.501 . S
C101 H92 0.931 . S
C101 C97 1.382 . S
C101 C100 1.415 . S
C102 C100 1.501 . S
C102 C103 1.384 . S
C102 C107 1.408 . S
C103 H93 0.930 . S
C103 C102 1.384 . S
C103 C104 1.389 . S
C104 C103 1.389 . S
C104 C105 1.405 . S
C105 H94 0.930 . S
C105 C104 1.405 . S
C105 C106 1.364 . S
C106 C105 1.364 . S
C106 C107 1.400 . S
C107 H95 0.931 . S
C107 C102 1.408 . S
C107 C106 1.400 . S
C108 O109 1.160 . S
C108 O115 1.185 . S
O109 C108 1.160 . S
O110 Zn111 1.899 . S
O110 C118 1.284 . S
Zn111 O110 1.899 . S
Zn111 O112 2.032 . S
Zn111 O115 2.086 . S
Zn111 O120 1.977 . S
O112 Zn111 2.032 . S
O112 C116 1.278 . S
C113 O114 1.203 . S
C113 O120 1.267 . S
O114 C113 1.203 . S
O115 C108 1.185 . S
O115 Zn111 2.086 . S
C116 O112 1.278 . S
C116 O117 1.211 . S
O117 C116 1.211 . S
C118 O110 1.284 . S
C118 O119 1.273 . S
O119 C118 1.273 . S
O120 Zn111 1.977 . S
O120 C113 1.267 . S
C121 O122 1.160 . S
C121 O128 1.185 . S
O122 C121 1.160 . S
O123 Zn124 1.899 . S
O123 C131 1.284 . S
Zn124 O123 1.899 . S
Zn124 O125 2.032 . S
Zn124 O128 2.086 . S
Zn124 O133 1.977 . S
O125 Zn124 2.032 . S
O125 C129 1.278 . S
C126 O127 1.203 . S
C126 O133 1.267 . S
O127 C126 1.203 . S
O128 C121 1.185 . S
O128 Zn124 2.086 . S
C129 O125 1.278 . S
C129 O130 1.211 . S
O130 C129 1.211 . S
C131 O123 1.284 . S
C131 O132 1.273 . S
O132 C131 1.273 . S
O133 Zn124 1.977 . S
O133 C126 1.267 . S
C134 O135 1.160 . S
C134 O141 1.185 . S
O135 C134 1.160 . S
O136 Zn137 1.899 . S
O136 C144 1.284 . S
Zn137 O136 1.899 . S
Zn137 O138 2.032 . S
Zn137 O141 2.086 . S
Zn137 O146 1.977 . S
O138 Zn137 2.032 . S
O138 C142 1.278 . S
C139 O140 1.203 . S
C139 O146 1.267 . S
O140 C139 1.203 . S
O141 C134 1.185 . S
O141 Zn137 2.086 . S
C142 O138 1.278 . S
C142 O143 1.211 . S
O143 C142 1.211 . S
C144 O136 1.284 . S
C144 O145 1.273 . S
O145 C144 1.273 . S
O146 Zn137 1.977 . S
O146 C139 1.267 . S
C147 O148 1.160 . S
C147 O154 1.185 . S
O148 C147 1.160 . S
O149 Zn150 1.899 . S
O149 C157 1.284 . S
Zn150 O149 1.899 . S
Zn150 O151 2.032 . S
Zn150 O154 2.086 . S
Zn150 O159 1.977 . S
O151 Zn150 2.032 . S
O151 C155 1.278 . S
C152 O153 1.203 . S
C152 O159 1.267 . S
O153 C152 1.203 . S
O154 C147 1.185 . S
O154 Zn150 2.086 . S
C155 O151 1.278 . S
C155 O156 1.211 . S
O156 C155 1.211 . S
C157 O149 1.284 . S
C157 O158 1.273 . S
O158 C157 1.273 . S
O159 Zn150 1.977 . S
O159 C152 1.267 . S
C160 O161 1.160 . S
C160 O167 1.185 . S
O161 C160 1.160 . S
O162 Zn163 1.899 . S
O162 C170 1.284 . S
Zn163 O162 1.899 . S
Zn163 O164 2.032 . S
Zn163 O167 2.086 . S
Zn163 O172 1.977 . S
O164 Zn163 2.032 . S
O164 C168 1.278 . S
C165 O166 1.203 . S
C165 O172 1.267 . S
O166 C165 1.203 . S
O167 C160 1.185 . S
O167 Zn163 2.086 . S
C168 O164 1.278 . S
C168 O169 1.211 . S
O169 C168 1.211 . S
C170 O162 1.284 . S
C170 O171 1.273 . S
O171 C170 1.273 . S
O172 Zn163 1.977 . S
O172 C165 1.267 . S
C173 O174 1.160 . S
C173 O180 1.185 . S
O174 C173 1.160 . S
O175 Zn176 1.899 . S
O175 C183 1.284 . S
Zn176 O175 1.899 . S
Zn176 O177 2.032 . S
Zn176 O180 2.086 . S
Zn176 O185 1.977 . S
O177 Zn176 2.032 . S
O177 C181 1.278 . S
C178 O179 1.203 . S
C178 O185 1.267 . S
O179 C178 1.203 . S
O180 C173 1.185 . S
O180 Zn176 2.086 . S
C181 O177 1.278 . S
C181 O182 1.211 . S
O182 C181 1.211 . S
C183 O175 1.284 . S
C183 O184 1.273 . S
O184 C183 1.273 . S
O185 Zn176 1.977 . S
O185 C178 1.267 . S
H186 C192 0.930 . S
H187 C195 0.930 . S
H188 C196 0.930 . S
H189 C197 0.930 . S
H190 C200 0.930 . S
H191 C201 0.930 . S
C192 H186 0.930 . S
C192 C193 1.355 . S
C192 C194 1.415 . S
C193 C192 1.355 . S
C193 C195 1.419 . S
C194 C192 1.415 . S
C194 C199 1.425 . S
C194 C201 1.409 . S
C195 H187 0.930 . S
C195 C193 1.419 . S
C195 C196 1.362 . S
C196 H188 0.930 . S
C196 C195 1.362 . S
C196 C199 1.409 . S
C197 H189 0.930 . S
C197 C198 1.355 . S
C197 C199 1.415 . S
C198 C197 1.355 . S
C198 C200 1.419 . S
C199 C194 1.425 . S
C199 C196 1.409 . S
C199 C197 1.415 . S
C200 H190 0.930 . S
C200 C198 1.419 . S
C200 C201 1.362 . S
C201 H191 0.930 . S
C201 C194 1.409 . S
C201 C200 1.362 . S
H202 C208 0.930 . S
H203 C211 0.930 . S
H204 C212 0.930 . S
H205 C213 0.930 . S
H206 C216 0.930 . S
H207 C217 0.930 . S
C208 H202 0.930 . S
C208 C209 1.355 . S
C208 C210 1.415 . S
C209 C208 1.355 . S
C209 C211 1.419 . S
C210 C208 1.415 . S
C210 C215 1.425 . S
C210 C217 1.409 . S
C211 H203 0.930 . S
C211 C209 1.419 . S
C211 C212 1.362 . S
C212 H204 0.930 . S
C212 C211 1.362 . S
C212 C215 1.409 . S
C213 H205 0.930 . S
C213 C214 1.355 . S
C213 C215 1.415 . S
C214 C213 1.355 . S
C214 C216 1.419 . S
C215 C210 1.425 . S
C215 C212 1.409 . S
C215 C213 1.415 . S
C216 H206 0.930 . S
C216 C214 1.419 . S
C216 C217 1.362 . S
C217 H207 0.930 . S
C217 C210 1.409 . S
C217 C216 1.362 . S
H218 C224 0.930 . S
H219 C227 0.930 . S
H220 C228 0.930 . S
H221 C229 0.930 . S
H222 C232 0.930 . S
H223 C233 0.930 . S
C224 H218 0.930 . S
C224 C225 1.355 . S
C224 C226 1.415 . S
C225 C224 1.355 . S
C225 C227 1.419 . S
C226 C224 1.415 . S
C226 C231 1.425 . S
C226 C233 1.409 . S
C227 H219 0.930 . S
C227 C225 1.419 . S
C227 C228 1.362 . S
C228 H220 0.930 . S
C228 C227 1.362 . S
C228 C231 1.409 . S
C229 H221 0.930 . S
C229 C230 1.355 . S
C229 C231 1.415 . S
C230 C229 1.355 . S
C230 C232 1.419 . S
C231 C226 1.425 . S
C231 C228 1.409 . S
C231 C229 1.415 . S
C232 H222 0.930 . S
C232 C230 1.419 . S
C232 C233 1.362 . S
C233 H223 0.930 . S
C233 C226 1.409 . S
C233 C232 1.362 . S
H234 C240 0.930 . S
H235 C243 0.930 . S
H236 C244 0.930 . S
H237 C245 0.930 . S
H238 C248 0.930 . S
H239 C249 0.930 . S
C240 H234 0.930 . S
C240 C241 1.355 . S
C240 C242 1.415 . S
C241 C240 1.355 . S
C241 C243 1.419 . S
C242 C240 1.415 . S
C242 C247 1.425 . S
C242 C249 1.409 . S
C243 H235 0.930 . S
C243 C241 1.419 . S
C243 C244 1.362 . S
C244 H236 0.930 . S
C244 C243 1.362 . S
C244 C247 1.409 . S
C245 H237 0.930 . S
C245 C246 1.355 . S
C245 C247 1.415 . S
C246 C245 1.355 . S
C246 C248 1.419 . S
C247 C242 1.425 . S
C247 C244 1.409 . S
C247 C245 1.415 . S
C248 H238 0.930 . S
C248 C246 1.419 . S
C248 C249 1.362 . S
C249 H239 0.930 . S
C249 C242 1.409 . S
C249 C248 1.362 . S
H250 C256 0.930 . S
H251 C259 0.930 . S
H252 C260 0.930 . S
H253 C261 0.930 . S
H254 C264 0.930 . S
H255 C265 0.930 . S
C256 H250 0.930 . S
C256 C257 1.355 . S
C256 C258 1.415 . S
C257 C256 1.355 . S
C257 C259 1.419 . S
C258 C256 1.415 . S
C258 C263 1.425 . S
C258 C265 1.409 . S
C259 H251 0.930 . S
C259 C257 1.419 . S
C259 C260 1.362 . S
C260 H252 0.930 . S
C260 C259 1.362 . S
C260 C263 1.409 . S
C261 H253 0.930 . S
C261 C262 1.355 . S
C261 C263 1.415 . S
C262 C261 1.355 . S
C262 C264 1.419 . S
C263 C258 1.425 . S
C263 C260 1.409 . S
C263 C261 1.415 . S
C264 H254 0.930 . S
C264 C262 1.419 . S
C264 C265 1.362 . S
C265 H255 0.930 . S
C265 C258 1.409 . S
C265 C264 1.362 . S
H266 C272 0.930 . S
H267 C275 0.930 . S
H268 C276 0.930 . S
H269 C277 0.930 . S
H270 C280 0.930 . S
H271 C281 0.930 . S
C272 H266 0.930 . S
C272 C273 1.355 . S
C272 C274 1.415 . S
C273 C272 1.355 . S
C273 C275 1.419 . S
C274 C272 1.415 . S
C274 C279 1.425 . S
C274 C281 1.409 . S
C275 H267 0.930 . S
C275 C273 1.419 . S
C275 C276 1.362 . S
C276 H268 0.930 . S
C276 C275 1.362 . S
C276 C279 1.409 . S
C277 H269 0.930 . S
C277 C278 1.355 . S
C277 C279 1.415 . S
C278 C277 1.355 . S
C278 C280 1.419 . S
C279 C274 1.425 . S
C279 C276 1.409 . S
C279 C277 1.415 . S
C280 H270 0.930 . S
C280 C278 1.419 . S
C280 C281 1.362 . S
C281 H271 0.930 . S
C281 C274 1.409 . S
C281 C280 1.362 . S
H282 C288 0.930 . S
H283 C291 0.930 . S
H284 C292 0.930 . S
H285 C293 0.930 . S
H286 C296 0.930 . S
H287 C297 0.930 . S
C288 H282 0.930 . S
C288 C289 1.355 . S
C288 C290 1.415 . S
C289 C288 1.355 . S
C289 C291 1.419 . S
C290 C288 1.415 . S
C290 C295 1.425 . S
C290 C297 1.409 . S
C291 H283 0.930 . S
C291 C289 1.419 . S
C291 C292 1.362 . S
C292 H284 0.930 . S
C292 C291 1.362 . S
C292 C295 1.409 . S
C293 H285 0.930 . S
C293 C294 1.355 . S
C293 C295 1.415 . S
C294 C293 1.355 . S
C294 C296 1.419 . S
C295 C290 1.425 . S
C295 C292 1.409 . S
C295 C293 1.415 . S
C296 H286 0.930 . S
C296 C294 1.419 . S
C296 C297 1.362 . S
C297 H287 0.930 . S
C297 C290 1.409 . S
C297 C296 1.362 . S
H298 C304 0.930 . S
H299 C307 0.930 . S
H300 C308 0.930 . S
H301 C309 0.930 . S
H302 C312 0.930 . S
H303 C313 0.930 . S
C304 H298 0.930 . S
C304 C305 1.355 . S
C304 C306 1.415 . S
C305 C304 1.355 . S
C305 C307 1.419 . S
C306 C304 1.415 . S
C306 C311 1.425 . S
C306 C313 1.409 . S
C307 H299 0.930 . S
C307 C305 1.419 . S
C307 C308 1.362 . S
C308 H300 0.930 . S
C308 C307 1.362 . S
C308 C311 1.409 . S
C309 H301 0.930 . S
C309 C310 1.355 . S
C309 C311 1.415 . S
C310 C309 1.355 . S
C310 C312 1.419 . S
C311 C306 1.425 . S
C311 C308 1.409 . S
C311 C309 1.415 . S
C312 H302 0.930 . S
C312 C310 1.419 . S
C312 C313 1.362 . S
C313 H303 0.930 . S
C313 C306 1.409 . S
C313 C312 1.362 . S
H314 C320 0.930 . S
H315 C323 0.930 . S
H316 C324 0.930 . S
H317 C325 0.930 . S
H318 C328 0.930 . S
H319 C329 0.930 . S
C320 H314 0.930 . S
C320 C321 1.355 . S
C320 C322 1.415 . S
C321 C320 1.355 . S
C321 C323 1.419 . S
C322 C320 1.415 . S
C322 C327 1.425 . S
C322 C329 1.409 . S
C323 H315 0.930 . S
C323 C321 1.419 . S
C323 C324 1.362 . S
C324 H316 0.930 . S
C324 C323 1.362 . S
C324 C327 1.409 . S
C325 H317 0.930 . S
C325 C326 1.355 . S
C325 C327 1.415 . S
C326 C325 1.355 . S
C326 C328 1.419 . S
C327 C322 1.425 . S
C327 C324 1.409 . S
C327 C325 1.415 . S
C328 H318 0.930 . S
C328 C326 1.419 . S
C328 C329 1.362 . S
C329 H319 0.930 . S
C329 C322 1.409 . S
C329 C328 1.362 . S
H330 C336 0.930 . S
H331 C339 0.930 . S
H332 C340 0.930 . S
H333 C341 0.930 . S
H334 C344 0.930 . S
H335 C345 0.930 . S
C336 H330 0.930 . S
C336 C337 1.355 . S
C336 C338 1.415 . S
C337 C336 1.355 . S
C337 C339 1.419 . S
C338 C336 1.415 . S
C338 C343 1.425 . S
C338 C345 1.409 . S
C339 H331 0.930 . S
C339 C337 1.419 . S
C339 C340 1.362 . S
C340 H332 0.930 . S
C340 C339 1.362 . S
C340 C343 1.409 . S
C341 H333 0.930 . S
C341 C342 1.355 . S
C341 C343 1.415 . S
C342 C341 1.355 . S
C342 C344 1.419 . S
C343 C338 1.425 . S
C343 C340 1.409 . S
C343 C341 1.415 . S
C344 H334 0.930 . S
C344 C342 1.419 . S
C344 C345 1.362 . S
C345 H335 0.930 . S
C345 C338 1.409 . S
C345 C344 1.362 . S
H346 C352 0.930 . S
H347 C355 0.930 . S
H348 C356 0.930 . S
H349 C357 0.930 . S
H350 C360 0.930 . S
H351 C361 0.930 . S
C352 H346 0.930 . S
C352 C353 1.355 . S
C352 C354 1.415 . S
C353 C352 1.355 . S
C353 C355 1.419 . S
C354 C352 1.415 . S
C354 C359 1.425 . S
C354 C361 1.409 . S
C355 H347 0.930 . S
C355 C353 1.419 . S
C355 C356 1.362 . S
C356 H348 0.930 . S
C356 C355 1.362 . S
C356 C359 1.409 . S
C357 H349 0.930 . S
C357 C358 1.355 . S
C357 C359 1.415 . S
C358 C357 1.355 . S
C358 C360 1.419 . S
C359 C354 1.425 . S
C359 C356 1.409 . S
C359 C357 1.415 . S
C360 H350 0.930 . S
C360 C358 1.419 . S
C360 C361 1.362 . S
C361 H351 0.930 . S
C361 C354 1.409 . S
C361 C360 1.362 . S
H362 C368 0.930 . S
H363 C371 0.930 . S
H364 C372 0.930 . S
H365 C373 0.930 . S
H366 C376 0.930 . S
H367 C377 0.930 . S
C368 H362 0.930 . S
C368 C369 1.355 . S
C368 C370 1.415 . S
C369 C368 1.355 . S
C369 C371 1.419 . S
C370 C368 1.415 . S
C370 C375 1.425 . S
C370 C377 1.409 . S
C371 H363 0.930 . S
C371 C369 1.419 . S
C371 C372 1.362 . S
C372 H364 0.930 . S
C372 C371 1.362 . S
C372 C375 1.409 . S
C373 H365 0.930 . S
C373 C374 1.355 . S
C373 C375 1.415 . S
C374 C373 1.355 . S
C374 C376 1.419 . S
C375 C370 1.425 . S
C375 C372 1.409 . S
C375 C373 1.415 . S
C376 H366 0.930 . S
C376 C374 1.419 . S
C376 C377 1.362 . S
C377 H367 0.930 . S
C377 C370 1.409 . S
C377 C376 1.362 . S
H378 C384 0.930 . S
H379 C387 0.930 . S
H380 C388 0.930 . S
H381 C389 0.930 . S
H382 C392 0.930 . S
H383 C393 0.930 . S
C384 H378 0.930 . S
C384 C385 1.355 . S
C384 C386 1.415 . S
C385 C384 1.355 . S
C385 C387 1.419 . S
C386 C384 1.415 . S
C386 C391 1.425 . S
C386 C393 1.409 . S
C387 H379 0.930 . S
C387 C385 1.419 . S
C387 C388 1.362 . S
C388 H380 0.930 . S
C388 C387 1.362 . S
C388 C391 1.409 . S
C389 H381 0.930 . S
C389 C390 1.355 . S
C389 C391 1.415 . S
C390 C389 1.355 . S
C390 C392 1.419 . S
C391 C386 1.425 . S
C391 C388 1.409 . S
C391 C389 1.415 . S
C392 H382 0.930 . S
C392 C390 1.419 . S
C392 C393 1.362 . S
C393 H383 0.930 . S
C393 C386 1.409 . S
C393 C392 1.362 . S
H394 C400 0.930 . S
H395 C403 0.930 . S
H396 C404 0.930 . S
H397 C405 0.930 . S
H398 C408 0.930 . S
H399 C409 0.930 . S
C400 H394 0.930 . S
C400 C401 1.355 . S
C400 C402 1.415 . S
C401 C400 1.355 . S
C401 C403 1.419 . S
C402 C400 1.415 . S
C402 C407 1.425 . S
C402 C409 1.409 . S
C403 H395 0.930 . S
C403 C401 1.419 . S
C403 C404 1.362 . S
C404 H396 0.930 . S
C404 C403 1.362 . S
C404 C407 1.409 . S
C405 H397 0.930 . S
C405 C406 1.355 . S
C405 C407 1.415 . S
C406 C405 1.355 . S
C406 C408 1.419 . S
C407 C402 1.425 . S
C407 C404 1.409 . S
C407 C405 1.415 . S
C408 H398 0.930 . S
C408 C406 1.419 . S
C408 C409 1.362 . S
C409 H399 0.930 . S
C409 C402 1.409 . S
C409 C408 1.362 . S
H410 C416 0.930 . S
H411 C419 0.930 . S
H412 C420 0.930 . S
H413 C421 0.930 . S
H414 C424 0.930 . S
H415 C425 0.930 . S
C416 H410 0.930 . S
C416 C417 1.355 . S
C416 C418 1.415 . S
C417 C416 1.355 . S
C417 C419 1.419 . S
C418 C416 1.415 . S
C418 C423 1.425 . S
C418 C425 1.409 . S
C419 H411 0.930 . S
C419 C417 1.419 . S
C419 C420 1.362 . S
C420 H412 0.930 . S
C420 C419 1.362 . S
C420 C423 1.409 . S
C421 H413 0.930 . S
C421 C422 1.355 . S
C421 C423 1.415 . S
C422 C421 1.355 . S
C422 C424 1.419 . S
C423 C418 1.425 . S
C423 C420 1.409 . S
C423 C421 1.415 . S
C424 H414 0.930 . S
C424 C422 1.419 . S
C424 C425 1.362 . S
C425 H415 0.930 . S
C425 C418 1.409 . S
C425 C424 1.362 . S
H426 C432 0.930 . S
H427 C435 0.930 . S
H428 C436 0.930 . S
H429 C437 0.930 . S
H430 C440 0.930 . S
H431 C441 0.930 . S
C432 H426 0.930 . S
C432 C433 1.355 . S
C432 C434 1.415 . S
C433 C432 1.355 . S
C433 C435 1.419 . S
C434 C432 1.415 . S
C434 C439 1.425 . S
C434 C441 1.409 . S
C435 H427 0.930 . S
C435 C433 1.419 . S
C435 C436 1.362 . S
C436 H428 0.930 . S
C436 C435 1.362 . S
C436 C439 1.409 . S
C437 H429 0.930 . S
C437 C438 1.355 . S
C437 C439 1.415 . S
C438 C437 1.355 . S
C438 C440 1.419 1_556 S
C439 C434 1.425 . S
C439 C436 1.409 . S
C439 C437 1.415 . S
C440 H430 0.930 . S
C440 C438 1.419 1_554 S
C440 C441 1.362 1_554 S
C441 H431 0.930 . S
C441 C434 1.409 . S
C441 C440 1.362 1_556 S
H442 C448 0.930 . S
H443 C451 0.930 . S
H444 C452 0.930 . S
H445 C453 0.930 . S
H446 C456 0.930 . S
H447 C457 0.930 . S
C448 H442 0.930 . S
C448 C449 1.355 . S
C448 C450 1.415 . S
C449 C448 1.355 . S
C449 C451 1.419 . S
C450 C448 1.415 . S
C450 C455 1.425 . S
C450 C457 1.409 . S
C451 H443 0.930 . S
C451 C449 1.419 . S
C451 C452 1.362 . S
C452 H444 0.930 . S
C452 C451 1.362 . S
C452 C455 1.409 . S
C453 H445 0.930 . S
C453 C454 1.355 . S
C453 C455 1.415 . S
C454 C453 1.355 . S
C454 C456 1.419 . S
C455 C450 1.425 . S
C455 C452 1.409 . S
C455 C453 1.415 . S
C456 H446 0.930 . S
C456 C454 1.419 . S
C456 C457 1.362 . S
C457 H447 0.930 . S
C457 C450 1.409 . S
C457 C456 1.362 . S
H458 C464 0.930 . S
H459 C467 0.930 . S
H460 C468 0.930 . S
H461 C469 0.930 . S
H462 C472 0.930 . S
H463 C473 0.930 . S
C464 H458 0.930 . S
C464 C465 1.355 . S
C464 C466 1.415 . S
C465 C464 1.355 . S
C465 C467 1.419 . S
C466 C464 1.415 . S
C466 C471 1.425 . S
C466 C473 1.409 . S
C467 H459 0.930 . S
C467 C465 1.419 . S
C467 C468 1.362 . S
C468 H460 0.930 . S
C468 C467 1.362 . S
C468 C471 1.409 . S
C469 H461 0.930 . S
C469 C470 1.355 . S
C469 C471 1.415 . S
C470 C469 1.355 . S
C470 C472 1.419 . S
C471 C466 1.425 . S
C471 C468 1.409 . S
C471 C469 1.415 . S
C472 H462 0.930 . S
C472 C470 1.419 . S
C472 C473 1.362 . S
C473 H463 0.930 . S
C473 C466 1.409 . S
C473 C472 1.362 . S
H474 C480 0.930 . S
H475 C483 0.930 . S
H476 C484 0.930 . S
H477 C485 0.930 . S
H478 C488 0.930 . S
H479 C489 0.930 . S
C480 H474 0.930 . S
C480 C481 1.355 . S
C480 C482 1.415 . S
C481 C480 1.355 . S
C481 C483 1.419 . S
C482 C480 1.415 . S
C482 C487 1.425 . S
C482 C489 1.409 . S
C483 H475 0.930 . S
C483 C481 1.419 . S
C483 C484 1.362 . S
C484 H476 0.930 . S
C484 C483 1.362 . S
C484 C487 1.409 . S
C485 H477 0.930 . S
C485 C486 1.355 . S
C485 C487 1.415 . S
C486 C485 1.355 . S
C486 C488 1.419 . S
C487 C482 1.425 . S
C487 C484 1.409 . S
C487 C485 1.415 . S
C488 H478 0.930 . S
C488 C486 1.419 . S
C488 C489 1.362 . S
C489 H479 0.930 . S
C489 C482 1.409 . S
C489 C488 1.362 . S
H490 C496 0.930 . S
H491 C499 0.930 . S
H492 C500 0.930 . S
H493 C501 0.930 . S
H494 C504 0.930 . S
H495 C505 0.930 . S
C496 H490 0.930 . S
C496 C497 1.355 . S
C496 C498 1.415 . S
C497 C496 1.355 . S
C497 C499 1.419 . S
C498 C496 1.415 . S
C498 C503 1.425 . S
C498 C505 1.409 . S
C499 H491 0.930 . S
C499 C497 1.419 . S
C499 C500 1.362 . S
C500 H492 0.930 . S
C500 C499 1.362 . S
C500 C503 1.409 . S
C501 H493 0.930 . S
C501 C502 1.355 . S
C501 C503 1.415 . S
C502 C501 1.355 . S
C502 C504 1.419 . S
C503 C498 1.425 . S
C503 C500 1.409 . S
C503 C501 1.415 . S
C504 H494 0.930 . S
C504 C502 1.419 . S
C504 C505 1.362 . S
C505 H495 0.930 . S
C505 C498 1.409 . S
C505 C504 1.362 . S
H506 C512 0.930 . S
H507 C515 0.930 . S
H508 C516 0.930 . S
H509 C517 0.930 . S
H510 C520 0.930 . S
H511 C521 0.930 . S
C512 H506 0.930 . S
C512 C513 1.355 . S
C512 C514 1.415 . S
C513 C512 1.355 . S
C513 C515 1.419 . S
C514 C512 1.415 . S
C514 C519 1.425 . S
C514 C521 1.409 . S
C515 H507 0.930 . S
C515 C513 1.419 . S
C515 C516 1.362 . S
C516 H508 0.930 . S
C516 C515 1.362 . S
C516 C519 1.409 . S
C517 H509 0.930 . S
C517 C518 1.355 . S
C517 C519 1.415 . S
C518 C517 1.355 . S
C518 C520 1.419 . S
C519 C514 1.425 . S
C519 C516 1.409 . S
C519 C517 1.415 . S
C520 H510 0.930 . S
C520 C518 1.419 . S
C520 C521 1.362 . S
C521 H511 0.930 . S
C521 C514 1.409 . S
C521 C520 1.362 . S
H522 C528 0.930 . S
H523 C531 0.930 . S
H524 C532 0.930 . S
H525 C533 0.930 . S
H526 C536 0.930 . S
H527 C537 0.930 . S
C528 H522 0.930 . S
C528 C529 1.355 . S
C528 C530 1.415 . S
C529 C528 1.355 . S
C529 C531 1.419 . S
C530 C528 1.415 . S
C530 C535 1.425 . S
C530 C537 1.409 . S
C531 H523 0.930 . S
C531 C529 1.419 . S
C531 C532 1.362 . S
C532 H524 0.930 . S
C532 C531 1.362 . S
C532 C535 1.409 . S
C533 H525 0.930 . S
C533 C534 1.355 . S
C533 C535 1.415 . S
C534 C533 1.355 . S
C534 C536 1.419 . S
C535 C530 1.425 . S
C535 C532 1.409 . S
C535 C533 1.415 . S
C536 H526 0.930 . S
C536 C534 1.419 . S
C536 C537 1.362 . S
C537 H527 0.930 . S
C537 C530 1.409 . S
C537 C536 1.362 . S
H538 C544 0.930 . S
H539 C547 0.930 . S
H540 C548 0.930 1_556 S
H541 C549 0.930 . S
H542 C552 0.930 . S
H543 C553 0.930 . S
C544 H538 0.930 . S
C544 C545 1.355 . S
C544 C546 1.415 . S
C545 C544 1.355 . S
C545 C547 1.419 . S
C546 C544 1.415 . S
C546 C551 1.425 . S
C546 C553 1.409 . S
C547 H539 0.930 . S
C547 C545 1.419 . S
C547 C548 1.362 . S
C548 H540 0.930 1_554 S
C548 C547 1.362 . S
C548 C551 1.409 . S
C549 H541 0.930 . S
C549 C550 1.355 . S
C549 C551 1.415 1_556 S
C550 C549 1.355 . S
C550 C552 1.419 1_556 S
C551 C546 1.425 . S
C551 C548 1.409 . S
C551 C549 1.415 1_554 S
C552 H542 0.930 . S
C552 C550 1.419 1_554 S
C552 C553 1.362 . S
C553 H543 0.930 . S
C553 C546 1.409 . S
C553 C552 1.362 . S
H554 C560 0.930 . S
H555 C563 0.930 . S
H556 C564 0.930 . S
H557 C565 0.930 . S
H558 C568 0.930 . S
H559 C569 0.930 . S
C560 H554 0.930 . S
C560 C561 1.355 . S
C560 C562 1.415 . S
C561 C560 1.355 . S
C561 C563 1.419 . S
C562 C560 1.415 . S
C562 C567 1.425 . S
C562 C569 1.409 . S
C563 H555 0.930 . S
C563 C561 1.419 . S
C563 C564 1.362 . S
C564 H556 0.930 . S
C564 C563 1.362 . S
C564 C567 1.409 . S
C565 H557 0.930 . S
C565 C566 1.355 . S
C565 C567 1.415 . S
C566 C565 1.355 . S
C566 C568 1.419 . S
C567 C562 1.425 . S
C567 C564 1.409 . S
C567 C565 1.415 . S
C568 H558 0.930 . S
C568 C566 1.419 . S
C568 C569 1.362 . S
C569 H559 0.930 . S
C569 C562 1.409 . S
C569 C568 1.362 . S
C198 C183 1.555 . S
C193 C8 1.520 . S
C209 C26 1.489 . S
C214 C108 1.437 . S
C225 C50 1.481 . S
C230 C131 1.569 . S
C241 C68 1.401 . S
C246 C144 1.471 . S
C262 C147 1.531 . S
C257 C80 1.519 . S
C273 C104 1.440 . S
C278 C160 1.404 . S
C289 C32 1.447 . S
C294 C121 1.410 . S
C305 C44 1.495 . S
C310 C134 1.463 . S
C321 C62 1.403 . S
C326 C157 1.468 . S
C342 C170 1.566 . S
C337 C86 1.481 1_554 S
C358 C173 1.484 . S
C353 C98 1.516 . S
C374 C118 1.554 . S
C369 C14 1.485 . S
C385 C7 1.457 . S
C390 C129 1.468 . S
C401 C25 1.447 . S
C406 C142 1.447 . S
C422 C152 1.441 . S
C417 C52 1.479 . S
C433 C70 1.402 . S
C438 C165 1.435 1_556 S
C454 C181 1.498 . S
C449 C79 1.498 . S
C470 C113 1.464 . S
C465 C106 1.399 . S
C486 C178 1.416 . S
C481 C34 1.398 . S
C497 C43 1.465 . S
C502 C116 1.463 . S
C518 C126 1.459 . S
C513 C61 1.472 . S
C529 C88 1.429 . S
C534 C139 1.445 . S
C545 C97 1.470 . S
C550 C155 1.475 . S
C561 C16 1.486 . S
C566 C168 1.480 . S
