# Generated by pormake.
# Topology zzz, (3,6)-cn, num edge types: 1
# Building blocks:
#     Node 0, Type 0, BuildingBlock: VETTIZ_charged_linker_0, # of connection points: 3
#     Node 1, Type 0, BuildingBlock: VETTIZ_charged_linker_0, # of connection points: 3
#     Node 2, Type 0, BuildingBlock: VETTIZ_charged_linker_0, # of connection points: 3
#     Node 3, Type 0, BuildingBlock: VETTIZ_charged_linker_0, # of connection points: 3
#     Node 4, Type 0, BuildingBlock: VETTIZ_charged_linker_0, # of connection points: 3
#     Node 5, Type 0, BuildingBlock: VETTIZ_charged_linker_0, # of connection points: 3
#     Node 6, Type 0, BuildingBlock: VETTIZ_charged_linker_0, # of connection points: 3
#     Node 7, Type 0, BuildingBlock: VETTIZ_charged_linker_0, # of connection points: 3
#     Node 8, Type 1, BuildingBlock: BETDAH_clean_sbu_0, # of connection points: 6
#     Node 9, Type 1, BuildingBlock: BETDAH_clean_sbu_0, # of connection points: 6
#     Node 10, Type 1, BuildingBlock: BETDAH_clean_sbu_0, # of connection points: 6
#     Node 11, Type 1, BuildingBlock: BETDAH_clean_sbu_0, # of connection points: 6
#     Edge 12, Type (0, 1), BuildingBlock: UVAHIK_clean_linker_0, # of connection points: 2
#     Edge 13, Type (0, 1), BuildingBlock: UVAHIK_clean_linker_0, # of connection points: 2
#     Edge 14, Type (0, 1), BuildingBlock: UVAHIK_clean_linker_0, # of connection points: 2
#     Edge 15, Type (0, 1), BuildingBlock: UVAHIK_clean_linker_0, # of connection points: 2
#     Edge 16, Type (0, 1), BuildingBlock: UVAHIK_clean_linker_0, # of connection points: 2
#     Edge 17, Type (0, 1), BuildingBlock: UVAHIK_clean_linker_0, # of connection points: 2
#     Edge 18, Type (0, 1), BuildingBlock: UVAHIK_clean_linker_0, # of connection points: 2
#     Edge 19, Type (0, 1), BuildingBlock: UVAHIK_clean_linker_0, # of connection points: 2
#     Edge 20, Type (0, 1), BuildingBlock: UVAHIK_clean_linker_0, # of connection points: 2
#     Edge 21, Type (0, 1), BuildingBlock: UVAHIK_clean_linker_0, # of connection points: 2
#     Edge 22, Type (0, 1), BuildingBlock: UVAHIK_clean_linker_0, # of connection points: 2
#     Edge 23, Type (0, 1), BuildingBlock: UVAHIK_clean_linker_0, # of connection points: 2
#     Edge 24, Type (0, 1), BuildingBlock: UVAHIK_clean_linker_0, # of connection points: 2
#     Edge 25, Type (0, 1), BuildingBlock: UVAHIK_clean_linker_0, # of connection points: 2
#     Edge 26, Type (0, 1), BuildingBlock: UVAHIK_clean_linker_0, # of connection points: 2
#     Edge 27, Type (0, 1), BuildingBlock: UVAHIK_clean_linker_0, # of connection points: 2
#     Edge 28, Type (0, 1), BuildingBlock: UVAHIK_clean_linker_0, # of connection points: 2
#     Edge 29, Type (0, 1), BuildingBlock: UVAHIK_clean_linker_0, # of connection points: 2
#     Edge 30, Type (0, 1), BuildingBlock: UVAHIK_clean_linker_0, # of connection points: 2
#     Edge 31, Type (0, 1), BuildingBlock: UVAHIK_clean_linker_0, # of connection points: 2
#     Edge 32, Type (0, 1), BuildingBlock: UVAHIK_clean_linker_0, # of connection points: 2
#     Edge 33, Type (0, 1), BuildingBlock: UVAHIK_clean_linker_0, # of connection points: 2
#     Edge 34, Type (0, 1), BuildingBlock: UVAHIK_clean_linker_0, # of connection points: 2
#     Edge 35, Type (0, 1), BuildingBlock: UVAHIK_clean_linker_0, # of connection points: 2
# Relax obj value: 0.419
# Max RMSD: 0.279
# Mean RMSD: 0.256
data_MOF--net-zzz--node1-BETDAH_clean_sbu_0--node2-VETTIZ_charged_linker_0--edge1-UVAHIK_clean_linker_0
_symmetry_space_group_name_H-M    P1
_symmetry_Int_Tables_number       1
_symmetry_cell_setting            triclinic
loop_
_symmetry_equiv_pos_as_xyz
'x, y, z'
_cell_length_a     73.82305
_cell_length_b     73.914098
_cell_length_c     22.400648
_cell_angle_alpha  89.964603
_cell_angle_beta   90.031049
_cell_angle_gamma 90.168948
loop_
_atom_site_label
_atom_site_type_symbol
_atom_site_fract_x
_atom_site_fract_y
_atom_site_fract_z
_atom_type_partial_charge
C0 C 0.79106 0.53045 0.29202 0.0
C1 C 0.81022 0.53154 0.28855 0.0
C2 C 0.81841 0.53188 0.23185 0.0
C3 C 0.78915 0.53077 0.1834 0.0
C4 C 0.78075 0.53023 0.23854 0.0
C5 C 0.76024 0.52977 0.23168 0.0
H6 H 0.68833 0.52636 0.03618 0.0
C7 C 0.77516 0.53066 0.1363 0.0
C8 C 0.75799 0.53016 0.16369 0.0
H9 H 0.68442 0.5265 0.22811 0.0
H10 H 0.7175 0.52891 0.23584 0.0
H11 H 0.71703 0.55771 0.02761 0.0
H12 H 0.71996 0.4998 0.02642 0.0
H13 H 0.73618 0.50695 0.97451 0.0
H14 H 0.71271 0.51262 0.9628 0.0
H15 H 0.71114 0.54447 0.96338 0.0
H16 H 0.73398 0.55249 0.97562 0.0
C17 C 0.75229 0.54682 0.26128 0.0
C18 C 0.75308 0.51198 0.25897 0.0
C19 C 0.79501 0.52808 0.91913 0.0
C20 C 0.78536 0.52665 0.86509 0.0
C21 C 0.76635 0.52805 0.86609 0.0
C22 C 0.75708 0.53005 0.92021 0.0
C23 C 0.76689 0.5305 0.97415 0.0
C24 C 0.78554 0.52994 0.97282 0.0
C25 C 0.79369 0.53037 0.03437 0.0
C26 C 0.77678 0.53083 0.07308 0.0
C27 C 0.76123 0.5308 0.03752 0.0
C28 C 0.80503 0.54801 0.04006 0.0
C29 C 0.80457 0.51262 0.04334 0.0
C30 C 0.69456 0.52688 0.08002 0.0
C31 C 0.68391 0.526 0.1314 0.0
C32 C 0.69247 0.52704 0.18775 0.0
C33 C 0.7116 0.52838 0.19206 0.0
C34 C 0.72213 0.52887 0.13945 0.0
C35 C 0.71331 0.52835 0.08489 0.0
C36 C 0.72589 0.52915 0.03294 0.0
C37 C 0.74393 0.53011 0.06434 0.0
C38 C 0.74203 0.52987 0.12705 0.0
C39 C 0.72183 0.54675 0.9975 0.0
C40 C 0.7236 0.51134 0.99675 0.0
H41 H 0.8154 0.53189 0.13855 0.0
H42 H 0.78435 0.5302 0.33496 0.0
H43 H 0.76108 0.50029 0.24238 0.0
H44 H 0.73886 0.50925 0.2469 0.0
H45 H 0.75418 0.51227 0.30844 0.0
H46 H 0.76002 0.55906 0.24745 0.0
H47 H 0.75298 0.54579 0.31071 0.0
H48 H 0.7381 0.54923 0.2482 0.0
H49 H 0.80962 0.52677 0.92016 0.0
H50 H 0.75862 0.52714 0.82508 0.0
H51 H 0.74259 0.53061 0.91786 0.0
H52 H 0.79964 0.55889 0.01071 0.0
H53 H 0.81937 0.54574 0.02722 0.0
H54 H 0.80455 0.55386 0.08547 0.0
H55 H 0.7978 0.50107 0.02052 0.0
H56 H 0.80551 0.50839 0.09051 0.0
H57 H 0.81845 0.51385 0.02465 0.0
H58 H 0.83303 0.53237 0.22765 0.0
C59 C 0.80809 0.53154 0.17979 0.0
C60 C 1.00048 0.78103 0.89108 0.0
C61 C 1.00303 0.79952 0.87931 0.0
C62 C 1.00165 0.812 0.92669 0.0
C63 C 0.99639 0.78756 0.99653 0.0
C64 C 0.99711 0.77541 0.94981 0.0
C65 C 0.99441 0.75626 0.97035 0.0
H66 H 0.98846 0.69456 0.19155 0.0
C67 C 0.99398 0.77718 0.05242 0.0
C68 C 0.99277 0.75888 0.03754 0.0
H69 H 0.98533 0.68718 1.00029 0.0
H70 H 0.98746 0.71903 0.98521 0.0
H71 H 0.01917 0.72879 0.19181 0.0
H72 H 0.96044 0.73199 0.19059 0.0
H73 H 0.97027 0.74585 0.24633 0.0
H74 H 0.97246 0.72168 0.25155 0.0
H75 H 0.00583 0.71981 0.25216 0.0
H76 H 0.01075 0.7436 0.24733 0.0
C77 C 0.01162 0.74542 0.95333 0.0
C78 C 0.97653 0.74908 0.94217 0.0
C79 C 0.99329 0.81143 0.24689 0.0
C80 C 0.99224 0.80664 0.30733 0.0
C81 C 0.9918 0.78807 0.3224 0.0
C82 C 0.99179 0.77461 0.27736 0.0
C83 C 0.99239 0.7798 0.21675 0.0
C84 C 0.99333 0.79804 0.20305 0.0
C85 C 0.99454 0.8016 0.13748 0.0
C86 C 0.99365 0.78258 0.11309 0.0
C87 C 0.99236 0.76961 0.15916 0.0
C88 C 0.0131 0.81079 0.12477 0.0
C89 C 0.97777 0.81289 0.11876 0.0
C90 C 0.98819 0.70002 0.1467 0.0
C91 C 0.98673 0.6884 0.09677 0.0
C92 C 0.9863 0.69587 0.03916 0.0
C93 C 0.9876 0.71444 0.03046 0.0
C94 C 0.98931 0.72595 0.07982 0.0
C95 C 0.98917 0.71893 0.13705 0.0
C96 C 0.99003 0.73393 0.18331 0.0
C97 C 0.9911 0.75083 0.1439 0.0
C98 C 0.99096 0.74574 0.08334 0.0
C99 C 0.00732 0.73144 0.22111 0.0
C100 C 0.97242 0.73338 0.22037 0.0
H101 H 0.99777 0.81633 0.01904 0.0
H102 H 1.00128 0.77115 0.8555 0.0
H103 H 0.96745 0.76028 0.92791 0.0
H104 H 0.9683 0.74117 0.97434 0.0
H105 H 0.97924 0.74065 0.90216 0.0
H106 H 0.02404 0.75362 0.96154 0.0
H107 H 0.01145 0.74169 0.9053 0.0
H108 H 0.01348 0.73303 0.98004 0.0
H109 H 0.99418 0.82551 0.23362 0.0
H110 H 0.99113 0.78399 0.36879 0.0
H111 H 0.99131 0.76072 0.29124 0.0
H112 H 0.02355 0.80646 0.15759 0.0
H113 H 0.01207 0.82576 0.12746 0.0
H114 H 0.01884 0.80702 0.08099 0.0
H115 H 0.96561 0.80887 0.14504 0.0
H116 H 0.9738 0.81076 0.07172 0.0
H117 H 0.98011 0.82756 0.12636 0.0
H118 H 1.0038 0.82632 0.91902 0.0
C119 C 0.99833 0.80614 0.98504 0.0
C120 C 0.82397 1.00449 0.1742 0.0
C121 C 0.83447 0.01259 0.12832 0.0
C122 C 0.82556 0.02258 0.08349 0.0
C123 C 0.79656 0.01405 0.12372 0.0
C124 C 0.80486 0.00595 0.17195 0.0
C125 C 0.7908 0.99914 0.21634 0.0
H126 H 0.70132 0.98086 0.26752 0.0
C127 C 0.77704 0.01086 0.12718 0.0
C128 C 0.77306 1.00398 0.18402 0.0
H129 H 0.73579 0.0082 0.39414 0.0
H130 H 0.75938 0.01085 0.31785 0.0
H131 H 0.70878 0.0111 0.18039 0.0
H132 H 0.73279 0.95784 0.18105 0.0
H133 H 0.72738 0.96375 0.107 0.0
H134 H 0.70949 0.96146 0.16147 0.0
H135 H 0.69594 0.99102 0.16378 0.0
H136 H 0.70861 1.00262 0.10727 0.0
C137 C 0.79341 0.00894 0.27636 0.0
C138 C 0.79253 0.97851 0.22405 0.0
C139 C 0.74298 0.00932 0.93071 0.0
C140 C 0.7264 1.00166 0.91339 0.0
C141 C 0.71669 0.99093 0.9545 0.0
C142 C 0.72289 0.98892 0.0134 0.0
C143 C 0.73883 0.99787 0.03125 0.0
C144 C 0.74902 0.00708 0.98935 0.0
C145 C 0.76616 0.01482 0.01495 0.0
C146 C 0.76444 0.00886 0.07976 0.0
C147 C 0.74812 0.99957 0.08943 0.0
C148 C 0.76526 0.03569 0.00953 0.0
C149 C 0.78263 0.00626 0.98208 0.0
C150 C 0.71447 0.98608 0.28054 0.0
C151 C 0.71704 0.99335 0.33787 0.0
C152 C 0.7338 1.00168 0.35135 0.0
C153 C 0.74773 1.00261 0.30835 0.0
C154 C 0.74508 0.99483 0.25187 0.0
C155 C 0.72823 0.98771 0.23765 0.0
C156 C 0.72543 0.98654 0.17105 0.0
C157 C 0.74308 0.99459 0.14835 0.0
C158 C 0.75509 0.99788 0.19576 0.0
C159 C 0.7088 0.9983 0.15425 0.0
C160 C 0.72353 0.96638 0.15383 0.0
H161 H 0.80073 0.03135 0.04663 0.0
H162 H 0.83045 0.99717 0.21019 0.0
H163 H 0.79141 0.97154 0.18021 0.0
H164 H 0.78162 0.97327 0.25359 0.0
H165 H 0.80579 0.97497 0.24438 0.0
H166 H 0.78791 0.02291 0.27443 0.0
H167 H 0.808 0.00985 0.28825 0.0
H168 H 0.78694 1.00131 0.31327 0.0
H169 H 0.75083 0.01739 0.89962 0.0
H170 H 0.70385 0.98489 0.94198 0.0
H171 H 0.71473 0.98103 0.04337 0.0
H172 H 0.75139 0.04068 0.01972 0.0
H173 H 0.76877 0.04016 0.96359 0.0
H174 H 0.77427 0.04263 0.04165 0.0
H175 H 0.79019 0.99678 0.01134 0.0
H176 H 0.79214 0.01669 0.96495 0.0
H177 H 0.77855 0.99824 0.94229 0.0
H178 H 0.83314 0.02915 0.04816 0.0
C179 C 0.80675 0.02347 0.0814 0.0
C180 C 0.50522 0.73354 0.30279 0.0
C181 C 0.50363 0.71447 0.3009 0.0
C182 C 0.49912 0.70604 0.24671 0.0
C183 C 0.49817 0.73502 0.19666 0.0
C184 C 0.50248 0.74359 0.24971 0.0
C185 C 0.50405 0.76393 0.24098 0.0
H186 H 0.49493 0.83531 0.04687 0.0
C187 C 0.49629 0.74879 0.1494 0.0
C188 C 0.49957 0.76594 0.17461 0.0
H189 H 0.51187 0.839 0.23063 0.0
H190 H 0.5094 0.80604 0.24062 0.0
H191 H 0.52018 0.80365 0.01554 0.0
H192 H 0.46403 0.80637 0.06369 0.0
H193 H 0.46538 0.79001 0.00721 0.0
H194 H 0.47229 0.81297 0.99157 0.0
H195 H 0.50302 0.81052 0.96364 0.0
H196 H 0.50947 0.78712 0.97197 0.0
C197 C 0.52372 0.76968 0.2548 0.0
C198 C 0.4899 0.7733 0.28092 0.0
C199 C 0.48127 0.72839 0.93835 0.0
C200 C 0.47803 0.73783 0.88486 0.0
C201 C 0.4785 0.75685 0.88511 0.0
C202 C 0.48242 0.76633 0.93772 0.0
C203 C 0.48583 0.75669 0.99081 0.0
C204 C 0.48506 0.73805 0.99052 0.0
C205 C 0.48854 0.73007 0.0512 0.0
C206 C 0.49191 0.74704 0.08791 0.0
C207 C 0.49037 0.76247 0.05225 0.0
C208 C 0.50573 0.71812 0.04682 0.0
C209 C 0.47114 0.71989 0.07127 0.0
C210 C 0.49796 0.82907 0.08955 0.0
C211 C 0.50329 0.83964 0.13815 0.0
C212 C 0.50758 0.83102 0.19261 0.0
C213 C 0.50615 0.81197 0.1982 0.0
C214 C 0.50066 0.80155 0.14849 0.0
C215 C 0.4969 0.81035 0.09536 0.0
C216 C 0.49218 0.79777 0.04569 0.0
C217 C 0.49343 0.77978 0.07712 0.0
C218 C 0.49822 0.78175 0.13775 0.0
C219 C 0.50681 0.79985 0.99623 0.0
C220 C 0.47252 0.80196 0.02535 0.0
H221 H 0.49304 0.7087 0.15541 0.0
H222 H 0.50881 0.74033 0.34396 0.0
H223 H 0.4882 0.78773 0.26979 0.0
H224 H 0.49375 0.77223 0.32875 0.0
H225 H 0.47639 0.76685 0.27519 0.0
H226 H 0.53347 0.76012 0.23399 0.0
H227 H 0.52624 0.76974 0.30371 0.0
H228 H 0.52709 0.78314 0.23665 0.0
H229 H 0.48059 0.71375 0.93985 0.0
H230 H 0.47603 0.76438 0.84443 0.0
H231 H 0.48267 0.78081 0.93482 0.0
H232 H 0.51586 0.7243 0.01613 0.0
H233 H 0.50239 0.70446 0.02932 0.0
H234 H 0.51295 0.71669 0.08975 0.0
H235 H 0.46859 0.72108 0.11977 0.0
H236 H 0.47169 0.70535 0.05894 0.0
H237 H 0.45881 0.72569 0.05013 0.0
H238 H 0.49781 0.69144 0.24439 0.0
C239 C 0.49635 0.71613 0.19496 0.0
C240 C 0.32641 0.48782 0.16203 0.0
C241 C 0.34029 0.47968 0.19668 0.0
C242 C 0.33742 0.46217 0.21999 0.0
C243 C 0.30638 0.46317 0.18833 0.0
C244 C 0.30956 0.47878 0.15663 0.0
C245 C 0.2934 0.48303 0.11674 0.0
H246 H 0.20373 0.46409 0.05959 0.0
C247 C 0.2875 0.45797 0.18193 0.0
C248 C 0.27963 0.46865 0.13706 0.0
H249 H 0.23765 0.50046 0.95776 0.0
H250 H 0.26315 0.49359 0.02342 0.0
H251 H 0.23265 0.43142 0.07364 0.0
H252 H 0.21189 0.47503 0.17214 0.0
H253 H 0.22425 0.46435 0.22918 0.0
H254 H 0.20567 0.4527 0.19319 0.0
H255 H 0.21073 0.43365 0.10769 0.0
H256 H 0.22948 0.42379 0.14767 0.0
C257 C 0.29925 0.48018 0.05132 0.0
C258 C 0.28679 0.50238 0.12957 0.0
C259 C 0.25637 0.4353 0.3673 0.0
C260 C 0.23782 0.43293 0.37966 0.0
C261 C 0.22584 0.42992 0.33144 0.0
C262 C 0.23175 0.43188 0.27253 0.0
C263 C 0.24962 0.43738 0.26173 0.0
C264 C 0.26196 0.43767 0.30796 0.0
C265 C 0.28063 0.4429 0.28697 0.0
C266 C 0.27664 0.44775 0.22164 0.0
C267 C 0.25831 0.4452 0.20842 0.0
C268 C 0.29322 0.42631 0.29447 0.0
C269 C 0.28736 0.45947 0.32303 0.0
C270 C 0.2167 0.47028 0.04976 0.0
C271 C 0.21862 0.48246 1.00208 0.0
C272 C 0.23571 0.49086 0.99374 0.0
C273 C 0.25057 0.48671 0.0314 0.0
C274 C 0.24835 0.47403 0.07788 0.0
C275 C 0.23148 0.46626 0.08631 0.0
C276 C 0.23084 0.45371 0.1387 0.0
C277 C 0.25043 0.45422 0.15879 0.0
C278 C 0.26082 0.46623 0.12356 0.0
C279 C 0.22554 0.4346 0.11613 0.0
C280 C 0.21752 0.46171 0.18577 0.0
H281 H 0.31901 0.44013 0.23017 0.0
H282 H 0.32864 0.50073 0.14034 0.0
H283 H 0.28431 0.50418 0.17817 0.0
H284 H 0.27399 0.50545 0.10628 0.0
H285 H 0.29709 0.5125 0.11537 0.0
H286 H 0.30724 0.46751 0.04677 0.0
H287 H 0.30785 0.4916 0.03573 0.0
H288 H 0.28765 0.47868 0.02078 0.0
H289 H 0.26602 0.43676 0.40336 0.0
H290 H 0.21151 0.42773 0.33881 0.0
H291 H 0.22196 0.43012 0.23775 0.0
H292 H 0.2879 0.41647 0.32773 0.0
H293 H 0.30674 0.43029 0.31178 0.0
H294 H 0.29486 0.41889 0.25168 0.0
H295 H 0.27774 0.47094 0.31862 0.0
H296 H 0.30083 0.46415 0.30787 0.0
H297 H 0.28879 0.45611 0.37111 0.0
H298 H 0.34803 0.45524 0.24429 0.0
C299 C 0.32059 0.45376 0.21474 0.0
C300 C 0.99443 0.24739 0.42127 0.0
C301 C 1.00159 0.23096 0.44167 0.0
C302 C 0.0123 0.22045 0.40303 0.0
C303 C 0.00714 0.24191 0.3231 0.0
C304 C 0.99776 0.25282 0.3624 0.0
C305 C 0.99167 0.27023 0.33414 0.0
H306 H 0.02394 0.33149 0.15359 0.0
C307 C 0.00725 0.2509 0.26433 0.0
C308 C 0.99883 0.2678 0.27079 0.0
H309 H 0.98528 0.33824 0.29686 0.0
H310 H 0.97787 0.30623 0.29224 0.0
H311 H 0.04201 0.28987 0.18873 0.0
H312 H 0.99476 0.29331 0.07276 0.0
H313 H 0.0173 0.28902 0.04353 0.0
H314 H 0.01122 0.31119 0.06561 0.0
H315 H 0.0431 0.30469 0.1248 0.0
H316 H 0.04207 0.28057 0.11443 0.0
C317 C 1.00056 0.28633 0.36808 0.0
C318 C 0.97073 0.27068 0.33506 0.0
C319 C 0.02415 0.21624 0.07834 0.0
C320 C 0.01914 0.21943 0.01875 0.0
C321 C 0.0125 0.23668 1.00285 0.0
C322 C 0.01112 0.25056 0.04576 0.0
C323 C 0.01676 0.24727 0.10457 0.0
C324 C 0.02209 0.23001 0.12084 0.0
C325 C 0.0212 0.22727 0.18755 0.0
C326 C 0.01366 0.24538 0.20753 0.0
C327 C 0.01273 0.25744 0.15941 0.0
C328 C 0.04068 0.22423 0.21094 0.0
C329 C 0.00796 0.21143 0.20077 0.0
C330 C 0.01395 0.32598 0.184 0.0
C331 C 0.00569 0.3371 0.22747 0.0
C332 C 0.99221 0.32976 0.26473 0.0
C333 C 0.98831 0.3113 0.26348 0.0
C334 C 0.99827 0.30009 0.22573 0.0
C335 C 0.00948 0.30738 0.1827 0.0
C336 C 0.01624 0.29277 0.14067 0.0
C337 C 0.00785 0.27576 0.16902 0.0
C338 C 0.99928 0.28037 0.22277 0.0
C339 C 0.03709 0.29195 0.1423 0.0
C340 C 0.00939 0.29666 0.07708 0.0
H341 H 0.02303 0.21712 0.31588 0.0
H342 H 0.98633 0.25577 0.45052 0.0
H343 H 0.965 0.25727 0.3226 0.0
H344 H 0.96515 0.28042 0.30252 0.0
H345 H 0.96567 0.27419 0.38029 0.0
H346 H 1.00523 0.2825 0.41351 0.0
H347 H 0.99094 0.29757 0.37553 0.0
H348 H 0.01266 0.29157 0.34408 0.0
H349 H 0.02803 0.20279 0.09256 0.0
H350 H 0.00766 0.23915 0.95792 0.0
H351 H 1.00418 0.26281 0.03383 0.0
H352 H 0.05069 0.23212 0.18436 0.0
H353 H 0.04452 0.20974 0.20809 0.0
H354 H 0.0425 0.22899 0.25733 0.0
H355 H 0.99568 0.21247 0.17215 0.0
H356 H 1.00288 0.21125 0.24693 0.0
H357 H 0.01443 0.19818 0.19165 0.0
H358 H 0.01788 0.20769 0.41806 0.0
C359 C 0.01511 0.22584 0.34375 0.0
C360 C 0.28907 0.01894 0.05945 0.0
C361 C 0.30819 0.01762 0.06193 0.0
C362 C 0.31656 0.01449 0.11736 0.0
C363 C 0.28749 0.01459 0.16713 0.0
C364 C 0.27896 0.01754 0.11302 0.0
C365 C 0.25859 0.01929 0.12113 0.0
H366 H 0.18786 0.0229 0.32023 0.0
C367 C 0.27369 0.01417 0.21476 0.0
C368 C 0.25656 0.01702 0.18873 0.0
H369 H 0.18342 0.02763 0.12902 0.0
H370 H 0.2162 0.02323 0.11925 0.0
H371 H 0.21242 0.98958 0.31781 0.0
H372 H 0.22329 0.04629 0.33721 0.0
H373 H 0.23729 0.03524 0.38896 0.0
H374 H 0.21306 0.03272 0.39452 0.0
H375 H 0.20975 1.00095 0.3879 0.0
H376 H 0.23096 0.9907 0.36649 0.0
C377 C 0.24924 1.00381 0.08662 0.0
C378 C 0.25277 0.03828 0.10011 0.0
C379 C 0.29382 1.0027 0.4286 0.0
C380 C 0.28431 1.00104 0.48276 0.0
C381 C 0.26544 1.00357 0.4831 0.0
C382 C 0.25615 0.0076 0.43022 0.0
C383 C 0.26581 0.00895 0.37617 0.0
C384 C 0.28432 0.00656 0.37611 0.0
C385 C 0.29231 0.00814 0.31456 0.0
C386 C 0.27545 0.01168 0.2774 0.0
C387 C 0.26009 0.01221 0.31378 0.0
C388 C 0.30115 0.98973 0.29873 0.0
C389 C 0.30549 0.02455 0.31433 0.0
C390 C 0.19393 0.02316 0.27617 0.0
C391 C 0.18323 0.02591 0.22558 0.0
C392 C 0.19153 0.02567 0.16878 0.0
C393 C 0.2105 0.02316 0.16331 0.0
C394 C 0.22109 0.02066 0.21516 0.0
C395 C 0.2125 0.02048 0.2701 0.0
C396 C 0.22505 0.01686 0.32087 0.0
C397 C 0.24285 0.0153 0.28837 0.0
C398 C 0.24082 0.0176 0.22619 0.0
C399 C 0.21929 0.99868 0.35034 0.0
C400 C 0.22467 0.03351 0.36309 0.0
H401 H 0.3138 0.01061 0.20992 0.0
H402 H 0.28229 0.0214 0.01737 0.0
H403 H 0.26182 0.0488 0.11952 0.0
H404 H 0.23891 0.04173 0.11425 0.0
H405 H 0.25352 0.03936 0.05069 0.0
H406 H 0.25614 0.99072 0.09562 0.0
H407 H 0.24973 0.00633 0.03774 0.0
H408 H 0.235 1.00189 0.10003 0.0
H409 H 0.30831 1.00052 0.42672 0.0
H410 H 0.25786 1.00243 0.52436 0.0
H411 H 0.24179 0.00941 0.43362 0.0
H412 H 0.29322 0.97828 0.31784 0.0
H413 H 0.31513 0.98885 0.31683 0.0
H414 H 0.30148 0.98702 0.25027 0.0
H415 H 0.30132 0.03497 0.34741 0.0
H416 H 0.30563 0.03184 0.27119 0.0
H417 H 0.3195 0.02036 0.32575 0.0
H418 H 0.33116 0.01327 0.12033 0.0
C419 C 0.3064 0.01294 0.16953 0.0
C420 C 0.49138 0.29113 0.04149 0.0
C421 C 0.49064 0.31024 0.04231 0.0
C422 C 0.48752 0.31917 0.09662 0.0
C423 C 0.48674 0.29055 0.14908 0.0
C424 C 0.48919 0.2815 0.09568 0.0
C425 C 0.48912 0.26115 0.10499 0.0
H426 H 0.48083 0.19124 0.30545 0.0
C427 C 0.48542 0.27714 0.19767 0.0
C428 C 0.48643 0.2597 0.17254 0.0
H429 H 0.4896 0.18576 0.11616 0.0
H430 H 0.48994 0.21877 0.10541 0.0
H431 H 0.50988 0.21871 0.32308 0.0
H432 H 0.45251 0.22406 0.30271 0.0
H433 H 0.45893 0.23875 0.36082 0.0
H434 H 0.4634 0.21487 0.36763 0.0
H435 H 0.49496 0.21696 0.38581 0.0
H436 H 0.50481 0.23831 0.36343 0.0
C437 C 0.50766 0.25362 0.08542 0.0
C438 C 0.47302 0.253 0.07014 0.0
C439 C 0.48745 0.29882 0.41277 0.0
C440 C 0.48888 0.28941 0.46714 0.0
C441 C 0.48599 0.27061 0.46806 0.0
C442 C 0.48277 0.26114 0.41502 0.0
C443 C 0.48286 0.2705 0.36028 0.0
C444 C 0.48463 0.28909 0.35991 0.0
C445 C 0.48495 0.29668 0.29752 0.0
C446 C 0.48408 0.27943 0.26051 0.0
C447 C 0.48284 0.26426 0.29758 0.0
C448 C 0.50315 0.30688 0.2889 0.0
C449 C 0.46782 0.30855 0.28904 0.0
C450 C 0.48259 0.19712 0.26146 0.0
C451 C 0.48487 0.18604 0.21159 0.0
C452 C 0.48767 0.19415 0.15524 0.0
C453 C 0.48782 0.21324 0.14919 0.0
C454 C 0.4854 0.2242 0.2002 0.0
C455 C 0.48305 0.21586 0.25503 0.0
C456 C 0.48201 0.22891 0.30568 0.0
C457 C 0.4833 0.24668 0.27275 0.0
C458 C 0.48524 0.24416 0.21067 0.0
C459 C 0.49863 0.22559 0.34703 0.0
C460 C 0.46332 0.22655 0.33639 0.0
H461 H 0.48339 0.31723 0.18942 0.0
H462 H 0.4936 0.28396 1.00002 0.0
H463 H 0.46997 0.23897 0.08354 0.0
H464 H 0.4757 0.25325 0.02134 0.0
H465 H 0.46049 0.26091 0.07865 0.0
H466 H 0.51884 0.26213 0.10348 0.0
H467 H 0.50883 0.25351 0.03598 0.0
H468 H 0.5101 0.23981 0.10223 0.0
H469 H 0.48982 0.31328 0.41084 0.0
H470 H 0.48694 0.26316 0.50962 0.0
H471 H 0.48103 0.24678 0.41866 0.0
H472 H 0.5145 0.29912 0.30911 0.0
H473 H 0.50278 0.32038 0.31063 0.0
H474 H 0.50695 0.30874 0.24172 0.0
H475 H 0.45691 0.30483 0.32108 0.0
H476 H 0.46158 0.30671 0.24444 0.0
H477 H 0.47093 0.32311 0.29587 0.0
H478 H 0.48685 0.33382 0.09802 0.0
C479 C 0.48554 0.30949 0.14969 0.0
Ho480 Ho 0.02245 0.00585 0.71271 0.0
Ho481 Ho 0.99343 0.01643 0.63859 0.0
C482 C 1.00529 0.97658 0.6193 0.0
C483 C 0.04537 0.98803 0.77613 0.0
C484 C 0.05574 0.97207 0.75733 0.0
C485 C 0.05685 0.95706 0.79518 0.0
C486 C 0.0626 0.9404 0.77293 0.0
C487 C 0.06738 0.93846 0.71231 0.0
C488 C 0.06751 0.9539 0.67568 0.0
C489 C 0.06162 0.97051 0.69783 0.0
C490 C 0.03406 0.02042 0.6079 0.0
C491 C 0.0107 0.04572 0.73024 0.0
C492 C 0.97027 0.03479 0.57812 0.0
C493 C 0.96082 0.05086 0.60064 0.0
C494 C 0.95767 0.06563 0.56301 0.0
C495 C 0.95315 0.08245 0.58729 0.0
C496 C 0.95186 0.08472 0.64963 0.0
C497 C 0.95369 0.06954 0.68675 0.0
C498 C 0.95818 0.05278 0.66251 0.0
C499 C 0.98178 1.00181 0.74327 0.0
O500 O 0.01339 0.97911 0.67131 0.0
O501 O 0.99835 0.99048 0.59056 0.0
O502 O 0.04944 1.00322 0.74946 0.0
O503 O 0.02789 0.98537 0.77941 0.0
O504 O 0.04065 0.02426 0.65983 0.0
O505 O 0.02133 0.00914 0.61373 0.0
O506 O 1.00344 0.0431 0.6771 0.0
O507 O 0.01686 0.0318 0.76069 0.0
O508 O 0.96616 0.01957 0.60447 0.0
O509 O 0.98774 0.03693 0.57209 0.0
O510 O 0.97529 0.99804 0.69122 0.0
O511 O 0.99455 0.01308 0.73763 0.0
H512 H 0.05211 0.95792 0.84086 0.0
H513 H 0.06201 0.92878 0.80235 0.0
H514 H 0.0713 0.95296 0.62909 0.0
H515 H 0.06066 0.98186 0.66737 0.0
H516 H 0.95993 0.06449 0.51538 0.0
H517 H 0.95209 0.09394 0.5575 0.0
H518 H 0.9527 0.07085 0.7348 0.0
H519 H 0.96081 0.04161 0.69264 0.0
Ho520 Ho 0.51127 0.02402 0.70245 0.0
Ho521 Ho 0.50091 0.99533 0.62686 0.0
C522 C 0.54096 0.00695 0.61203 0.0
C523 C 0.52953 0.04697 0.76461 0.0
C524 C 0.54646 0.05568 0.74523 0.0
C525 C 0.56097 0.05737 0.78507 0.0
C526 C 0.57841 0.06087 0.76354 0.0
C527 C 0.58157 0.06263 0.70174 0.0
C528 C 0.56673 0.06242 0.66256 0.0
C529 C 0.54935 0.05891 0.68405 0.0
C530 C 0.49683 0.03578 0.59778 0.0
C531 C 0.47119 0.01192 0.72005 0.0
C532 C 0.48355 0.97262 0.56111 0.0
C533 C 0.46816 0.96125 0.57933 0.0
C534 C 0.45302 0.95978 0.54209 0.0
C535 C 0.43673 0.95292 0.56447 0.0
C536 C 0.43535 0.9474 0.62457 0.0
C537 C 0.45096 0.94764 0.66038 0.0
C538 C 0.46719 0.95462 0.63812 0.0
C539 C 0.51483 0.98317 0.73193 0.0
O540 O 0.53813 0.01393 0.6654 0.0
O541 O 0.52709 1.0012 0.58037 0.0
O542 O 0.51505 0.0514 0.73465 0.0
O543 O 0.53077 0.0295 0.7725 0.0
O544 O 0.49259 0.04189 0.64988 0.0
O545 O 0.50834 0.02332 0.60329 0.0
O546 O 0.47396 1.00366 0.66846 0.0
O547 O 0.48492 0.01925 0.74891 0.0
O548 O 0.49908 0.96886 0.5861 0.0
O549 O 0.48017 0.98996 0.56084 0.0
O550 O 0.51869 0.97676 0.67986 0.0
O551 O 0.50379 0.99606 0.72607 0.0
H552 H 0.55907 0.05466 0.83219 0.0
H553 H 0.58958 0.06069 0.79489 0.0
H554 H 0.56871 0.06385 0.61488 0.0
H555 H 0.5384 0.05743 0.65216 0.0
H556 H 0.45343 0.96507 0.49699 0.0
H557 H 0.42493 0.95324 0.53577 0.0
H558 H 0.45042 0.94331 0.70655 0.0
H559 H 0.47866 0.95582 0.6681 0.0
Ho560 Ho 0.49264 0.51808 0.7221 0.0
Ho561 Ho 0.52098 0.50843 0.64477 0.0
C562 C 0.50843 0.54838 0.62973 0.0
C563 C 0.46997 0.53472 0.78949 0.0
C564 C 0.45808 0.54963 0.77135 0.0
C565 C 0.45525 0.56423 0.80985 0.0
C566 C 0.44752 0.58017 0.78828 0.0
C567 C 0.44251 0.58175 0.72774 0.0
C568 C 0.44431 0.56663 0.69032 0.0
C569 C 0.45212 0.55076 0.71182 0.0
C570 C 0.47985 0.50471 0.6169 0.0
C571 C 0.5046 0.47814 0.73454 0.0
C572 C 0.54398 0.49116 0.5799 0.0
C573 C 0.55379 0.47485 0.59844 0.0
C574 C 0.55814 0.46143 0.5568 0.0
C575 C 0.56305 0.44414 0.57638 0.0
C576 C 0.5634 0.44008 0.63779 0.0
C577 C 0.56052 0.454 0.67923 0.0
C578 C 0.55574 0.47123 0.65972 0.0
C579 C 0.53338 0.52216 0.74997 0.0
O580 O 0.50058 0.54532 0.68183 0.0
O581 O 0.51561 0.53485 0.59979 0.0
O582 O 0.46644 0.51905 0.76517 0.0
O583 O 0.48723 0.53867 0.78837 0.0
O584 O 0.47385 0.50041 0.66917 0.0
O585 O 0.49281 0.51576 0.62255 0.0
O586 O 0.51126 0.48126 0.68084 0.0
O587 O 0.49899 0.49183 0.7671 0.0
O588 O 0.54811 0.50588 0.60904 0.0
O589 O 0.52649 0.48894 0.57495 0.0
O590 O 0.53931 0.52663 0.6978 0.0
O591 O 0.52074 0.51077 0.7442 0.0
H592 H 0.46004 0.56371 0.85556 0.0
H593 H 0.44663 0.59165 0.81817 0.0
H594 H 0.44045 0.56734 0.64372 0.0
H595 H 0.45442 0.53973 0.68092 0.0
H596 H 0.55649 0.46393 0.50945 0.0
H597 H 0.56496 0.43357 0.54353 0.0
H598 H 0.56066 0.45119 0.72671 0.0
H599 H 0.55224 0.48135 0.69274 0.0
Ho600 Ho 0.99957 0.4994 0.72916 0.0
Ho601 Ho 0.01638 0.52332 0.62558 0.0
C602 C 0.97289 0.51813 0.63184 0.0
C603 C 0.98521 0.48251 0.81687 0.0
C604 C 0.96864 0.47139 0.81288 0.0
C605 C 0.95343 0.4762 0.8467 0.0
C606 C 0.93617 0.47053 0.82903 0.0
C607 C 0.93392 0.46005 0.7771 0.0
C608 C 0.94928 0.45363 0.74724 0.0
C609 C 0.96651 0.45915 0.76519 0.0
C610 C 1.00339 0.48306 0.62199 0.0
C611 C 0.04252 0.50833 0.73188 0.0
C612 C 0.03612 0.5314 0.53506 0.0
C613 C 0.05518 0.52598 0.52841 0.0
C614 C 0.06116 0.51046 0.55851 0.0
C615 C 0.0795 0.50677 0.56407 0.0
C616 C 0.09245 0.51862 0.54017 0.0
C617 C 0.08657 0.53389 0.50794 0.0
C618 C 0.068 0.53762 0.50247 0.0
C619 C 0.00676 0.54438 0.72041 0.0
O620 O 0.97465 0.51157 0.68683 0.0
O621 O 0.98702 0.52226 0.59749 0.0
O622 O 0.99942 0.4763 0.78838 0.0
O623 O 0.98256 0.49986 0.80764 0.0
O624 O 0.99025 0.48009 0.65876 0.0
O625 O 0.0146 0.494 0.64525 0.0
O626 O 0.04112 0.51558 0.67817 0.0
O627 O 0.02831 0.50227 0.76203 0.0
O628 O 0.03341 0.54259 0.57926 0.0
O629 O 0.0241 0.51827 0.53372 0.0
O630 O 0.01299 0.55071 0.67041 0.0
O631 O 1.00534 0.52755 0.71453 0.0
H632 H 0.95471 0.48569 0.88332 0.0
H633 H 0.92453 0.47575 0.8528 0.0
H634 H 0.9479 0.44536 0.70757 0.0
H635 H 0.97798 0.45505 0.73834 0.0
H636 H 0.05171 0.50159 0.58072 0.0
H637 H 0.08354 0.49471 0.58814 0.0
H638 H 0.0963 0.54326 0.489 0.0
H639 H 0.06371 0.54991 0.48029 0.0
C640 C 0.15092 0.01533 0.22077 0.0
C641 C 0.16357 0.02886 0.23514 0.0
C642 C 0.13347 0.01562 0.24583 0.0
C643 C 0.10184 0.04407 0.33838 0.0
H644 H 0.08664 0.99772 0.40247 0.0
C645 C 0.05804 0.03668 0.55023 0.0
C646 C 0.04469 0.02311 0.55243 0.0
C647 C 0.0696 0.03819 0.50098 0.0
C648 C 0.09048 0.01074 0.38413 0.0
H649 H 0.16767 0.05376 0.28402 0.0
H650 H 0.13754 0.05438 0.32741 0.0
H651 H 0.11188 0.99912 0.33251 0.0
H652 H 0.0327 1.00071 0.50404 0.0
H653 H 0.05316 1.00316 0.41801 0.0
H654 H 0.08098 0.05572 0.39261 0.0
C655 C 0.14072 0.04362 0.29643 0.0
C656 C 0.10496 0.01156 0.34369 0.0
C657 C 0.15807 0.04331 0.27149 0.0
C658 C 0.04281 0.01135 0.50347 0.0
C659 C 0.0546 0.01269 0.45444 0.0
C660 C 0.08749 0.04326 0.37923 0.0
C661 C 0.12836 0.02944 0.28584 0.0
C662 C 0.11117 0.02829 0.32133 0.0
C663 C 0.06828 0.026 0.45295 0.0
C664 C 0.0819 0.02663 0.4037 0.0
H665 H 0.15493 1.00389 0.19364 0.0
H666 H 0.12425 1.00461 0.23578 0.0
H667 H 0.1059 0.05717 0.32127 0.0
H668 H 0.05982 0.04591 0.58734 0.0
H669 H 0.08008 0.04847 0.50167 0.0
C670 C 0.50056 0.15618 0.22287 0.0
C671 C 0.48442 0.1662 0.22165 0.0
C672 C 0.50115 0.13926 0.25156 0.0
C673 C 0.47923 0.11795 0.37896 0.0
H674 H 0.50372 0.07376 0.33343 0.0
C675 C 0.47838 0.05734 0.53818 0.0
C676 C 0.49403 0.04676 0.54326 0.0
C677 C 0.47648 0.06977 0.49155 0.0
C678 C 0.49698 0.08606 0.3472 0.0
H679 H 0.45604 0.16596 0.24559 0.0
H680 H 0.45694 0.13646 0.29458 0.0
H681 H 0.50196 0.09903 0.26262 0.0
H682 H 0.51984 0.04047 0.50254 0.0
H683 H 0.51695 0.06274 0.42214 0.0
H684 H 0.47492 0.10576 0.46394 0.0
C685 C 0.46919 0.14162 0.27398 0.0
C686 C 0.49592 0.1005 0.30639 0.0
C687 C 0.4686 0.15841 0.24531 0.0
C688 C 0.50754 0.04838 0.49938 0.0
C689 C 0.50583 0.06115 0.4532 0.0
C690 C 0.48052 0.10374 0.41981 0.0
C691 C 0.48563 0.13223 0.27989 0.0
C692 C 0.48685 0.11655 0.32171 0.0
C693 C 0.49044 0.07238 0.44946 0.0
C694 C 0.48924 0.08745 0.40462 0.0
H695 H 0.51301 0.16207 0.20606 0.0
H696 H 0.51403 0.13238 0.25552 0.0
H697 H 0.47257 0.13029 0.39284 0.0
H698 H 0.46769 0.05625 0.57116 0.0
H699 H 0.46413 0.0776 0.48939 0.0
C700 C 0.37401 0.48032 0.20827 0.0
C701 C 0.35727 0.48919 0.21412 0.0
C702 C 0.38906 0.48583 0.2418 0.0
C703 C 0.39759 0.50638 0.38786 0.0
H704 H 0.44816 0.50062 0.3453 0.0
C705 C 0.45183 0.49355 0.56623 0.0
C706 C 0.46812 0.5034 0.56315 0.0
C707 C 0.43951 0.49377 0.51883 0.0
C708 C 0.43412 0.50245 0.35779 0.0
H709 H 0.34361 0.51171 0.25589 0.0
H710 H 0.36997 0.52162 0.31377 0.0
H711 H 0.42485 0.49952 0.26737 0.0
H712 H 0.48456 0.52068 0.50672 0.0
H713 H 0.46302 0.52087 0.42299 0.0
H714 H 0.40672 0.50895 0.47817 0.0
C715 C 0.37141 0.51021 0.28386 0.0
C716 C 0.42074 0.50172 0.31319 0.0
C717 C 0.35637 0.50473 0.24998 0.0
C718 C 0.47213 0.51293 0.51038 0.0
C719 C 0.4598 0.51304 0.46249 0.0
C720 C 0.4109 0.50696 0.4323 0.0
C721 C 0.3877 0.5003 0.28231 0.0
C722 C 0.40225 0.5034 0.32778 0.0
C723 C 0.44315 0.50377 0.46673 0.0
C724 C 0.4293 0.50465 0.41811 0.0
H725 H 0.37506 0.46821 0.18125 0.0
H726 H 0.40129 0.47782 0.23941 0.0
H727 H 0.38353 0.5075 0.40113 0.0
H728 H 0.44835 0.48597 0.60604 0.0
H729 H 0.42702 0.48616 0.52318 0.0
C730 C 0.02438 0.35824 0.28717 0.0
C731 C 0.01192 0.3557 0.24064 0.0
C732 C 0.02629 0.37515 0.31448 0.0
C733 C 0.99883 0.41644 0.33978 0.0
H734 H 0.04067 0.4303 0.43396 0.0
C735 C 0.99159 0.46079 0.54826 0.0
C736 C 0.00575 0.47224 0.56666 0.0
C737 C 0.99365 0.4493 0.4993 0.0
C738 C 0.02892 0.4269 0.40728 0.0
H739 H 0.99238 0.36892 0.18373 0.0
H740 H 0.99641 0.39883 0.22875 0.0
H741 H 0.04336 0.40621 0.36063 0.0
H742 H 0.03311 0.48068 0.54705 0.0
H743 H 0.03669 0.46109 0.45998 0.0
H744 H 0.9845 0.43736 0.38532 0.0
C745 C 1.00441 0.3877 0.24562 0.0
C746 C 0.03039 0.41282 0.36561 0.0
C747 C 1.00232 0.37065 0.21889 0.0
C748 C 0.02193 0.47222 0.53379 0.0
C749 C 0.024 0.46077 0.48419 0.0
C750 C 0.99744 0.43065 0.38073 0.0
C751 C 0.01581 0.39001 0.29571 0.0
C752 C 0.01521 0.40696 0.33258 0.0
C753 C 0.00992 0.44898 0.46659 0.0
C754 C 0.01227 0.43569 0.41667 0.0
H755 H 0.03159 0.34677 0.30564 0.0
H756 H 0.03502 0.37612 0.35318 0.0
H757 H 0.98673 0.41239 0.31596 0.0
H758 H 0.97892 0.46037 0.57265 0.0
H759 H 0.9826 0.44022 0.48845 0.0
C760 C 0.86189 0.99257 0.12088 0.0
C761 C 0.85441 0.01001 0.12227 0.0
C762 C 0.87929 0.98975 0.09726 0.0
C763 C 0.91994 0.01442 0.03249 0.0
H764 H 0.92186 0.97222 0.93041 0.0
C765 C 0.97636 0.00674 0.85334 0.0
C766 C 0.97085 0.99941 0.79836 0.0
C767 C 0.96491 0.00582 0.90342 0.0
C768 C 0.92155 0.9842 0.95817 0.0
H769 H 0.86007 0.03836 0.10614 0.0
H770 H 0.88977 0.03356 0.0636 0.0
H771 H 0.89732 0.9753 1.00112 0.0
H772 H 0.94922 0.98498 0.75327 0.0
H773 H 0.9292 0.98395 0.83865 0.0
H774 H 0.94335 0.024 0.98587 0.0
C775 C 0.88258 0.02191 0.08087 0.0
C776 C 0.90755 0.98581 1.0 0.0
C777 C 0.86538 0.02471 0.10507 0.0
C778 C 0.95393 0.99072 0.79498 0.0
C779 C 0.94246 0.98999 0.84451 0.0
C780 C 0.93375 0.01297 0.9898 0.0
C781 C 0.88953 1.0043 0.074 0.0
C782 C 0.90618 1.0012 0.03676 0.0
C783 C 0.94762 0.99769 0.8995 0.0
C784 C 0.93447 0.99808 0.95069 0.0
H785 H 0.8538 0.98096 0.13377 0.0
H786 H 0.8843 0.97602 0.09466 0.0
H787 H 0.91977 0.02626 0.06085 0.0
H788 H 0.98935 0.01348 0.85736 0.0
H789 H 0.96958 0.01165 0.94499 0.0
C790 C 0.52135 0.86796 0.12171 0.0
C791 C 0.50442 0.85946 0.1285 0.0
C792 C 0.52271 0.88465 0.09188 0.0
C793 C 0.50008 0.90611 0.96797 0.0
H794 H 0.52928 0.94875 0.99974 0.0
C795 C 0.52337 0.95429 0.78249 0.0
C796 C 0.51631 0.9719 0.78658 0.0
C797 C 0.52269 0.94255 0.83134 0.0
C798 C 0.52103 0.93693 0.99062 0.0
H799 H 0.4756 0.86231 0.11396 0.0
H800 H 0.47791 0.89138 0.06262 0.0
H801 H 0.52611 0.92513 0.07699 0.0
H802 H 0.50391 0.99131 0.84625 0.0
H803 H 0.50319 0.97073 0.93278 0.0
H804 H 0.49556 0.9174 0.88115 0.0
C805 C 0.49013 0.88521 0.07991 0.0
C806 C 0.51927 0.92343 0.03457 0.0
C807 C 0.48878 0.86867 0.10985 0.0
C808 C 0.50945 0.97782 0.84179 0.0
C809 C 0.50906 0.9661 0.89122 0.0
C810 C 0.50214 0.91933 0.92393 0.0
C811 C 0.50716 0.89295 0.06802 0.0
C812 C 0.50872 0.90789 0.02363 0.0
C813 C 0.51527 0.94821 0.88585 0.0
C814 C 0.51266 0.93483 0.93462 0.0
H815 H 0.53362 0.86097 0.13461 0.0
H816 H 0.53601 0.89026 0.08315 0.0
H817 H 0.49208 0.89419 0.95782 0.0
H818 H 0.52881 0.9493 0.74075 0.0
H819 H 0.52761 0.92884 0.82615 0.0
C820 C 0.6523 0.53843 0.1326 0.0
C821 C 0.66406 0.52383 0.12302 0.0
C822 C 0.63483 0.53835 0.10754 0.0
C823 C 0.60129 0.50927 0.02385 0.0
H824 H 0.58925 0.55448 0.94596 0.0
C825 C 0.54113 0.5144 0.85676 0.0
C826 C 0.54466 0.52434 0.8045 0.0
C827 C 0.5531 0.51523 0.90552 0.0
C828 C 0.59239 0.5417 0.96721 0.0
H829 H 0.66653 0.49738 0.08277 0.0
H830 H 0.63635 0.49712 0.03942 0.0
H831 H 0.61451 0.55341 0.01548 0.0
H832 H 0.56318 0.54337 0.76323 0.0
H833 H 0.58403 0.54466 0.84706 0.0
H834 H 0.57982 0.49735 0.97273 0.0
C835 C 0.64024 0.50858 0.06669 0.0
C836 C 0.60677 0.54115 0.00803 0.0
C837 C 0.65761 0.50867 0.09166 0.0
C838 C 0.56004 0.53556 0.80284 0.0
C839 C 0.57197 0.53639 0.85132 0.0
C840 C 0.58695 0.50981 0.98274 0.0
C841 C 0.62881 0.5237 0.07221 0.0
C842 C 0.61175 0.52482 0.03591 0.0
C843 C 0.56886 0.52605 0.90316 0.0
C844 C 0.58258 0.52594 0.95261 0.0
H845 H 0.65704 0.5504 0.15576 0.0
H846 H 0.62634 0.55013 0.11371 0.0
H847 H 0.60446 0.49649 0.04502 0.0
H848 H 0.52937 0.50562 0.8594 0.0
H849 H 0.55009 0.50724 0.94483 0.0
C850 C 1.00286 0.65913 0.10944 0.0
C851 C 0.98651 0.6684 0.10077 0.0
C852 C 1.00487 0.64138 0.08833 0.0
C853 C 0.9807 0.60296 0.01094 0.0
H854 H 0.02426 0.60247 0.91446 0.0
C855 C 0.99752 0.54797 0.82865 0.0
C856 C 1.00325 0.55551 0.77416 0.0
C857 C 0.99553 0.55898 0.8795 0.0
C858 C 0.01207 0.6023 0.94138 0.0
H859 H 0.95898 0.66592 0.06884 0.0
H860 H 0.96233 0.63511 0.03245 0.0
H861 H 0.02052 0.62563 0.99013 0.0
H862 H 0.01105 0.58044 0.72995 0.0
H863 H 0.00769 0.5994 0.81766 0.0
H864 H 0.97198 0.58004 0.95915 0.0
C865 C 0.97364 0.64126 0.05571 0.0
C866 C 0.01001 0.61548 0.98551 0.0
C867 C 0.97164 0.65895 0.07686 0.0
C868 C 0.00667 0.57418 0.77127 0.0
C869 C 1.00488 0.58506 0.82173 0.0
C870 C 0.98283 0.58966 0.96672 0.0
C871 C 0.9906 0.63264 0.05784 0.0
C872 C 0.99406 0.61638 0.01976 0.0
C873 C 0.99951 0.57762 0.87669 0.0
C874 C 0.99829 0.5896 0.93007 0.0
H875 H 0.0146 0.66618 0.12694 0.0
H876 H 0.01802 0.63502 0.09194 0.0
H877 H 0.96832 0.60311 0.03681 0.0
H878 H 0.99488 0.53361 0.8322 0.0
H879 H 0.99135 0.55287 0.92124 0.0
C880 C 0.00964 0.21808 0.54157 0.0
C881 C 0.99645 0.22386 0.50082 0.0
C882 C 1.00455 0.20872 0.59323 0.0
C883 C 0.96334 0.18953 0.67204 0.0
H884 H 0.99461 0.14771 0.6843 0.0
C885 C 0.9642 0.10773 0.72067 0.0
C886 C 0.95174 0.10319 0.67546 0.0
C887 C 0.96801 0.12583 0.73341 0.0
C888 C 0.98584 0.15944 0.68309 0.0
H889 H 0.96771 0.22549 0.48307 0.0
H890 H 0.9588 0.20832 0.5702 0.0
H891 H 0.00619 0.17513 0.64058 0.0
H892 H 0.93164 0.11388 0.61456 0.0
H893 H 0.93829 0.14548 0.63668 0.0
H894 H 0.94235 0.17266 0.70824 0.0
C895 C 0.97303 0.21144 0.56473 0.0
C896 C 0.99252 0.17535 0.6579 0.0
C897 C 0.9781 0.22118 0.51411 0.0
C898 C 0.94154 0.11701 0.64877 0.0
C899 C 0.94521 0.1351 0.66203 0.0
C900 C 0.95652 0.17341 0.69587 0.0
C901 C 0.98621 0.20442 0.60391 0.0
C902 C 0.98101 0.19023 0.64823 0.0
C903 C 0.95926 0.13966 0.70173 0.0
C904 C 0.96744 0.15792 0.69813 0.0
H905 H 0.02389 0.22027 0.53243 0.0
H906 H 0.01509 0.20409 0.62309 0.0
H907 H 0.95428 0.20096 0.66795 0.0
H908 H 0.9722 0.0974 0.7424 0.0
H909 H 0.97882 0.12902 0.76438 0.0
C910 C 0.31086 1.00372 0.55116 0.0
C911 C 0.29408 0.99577 0.53775 0.0
C912 C 0.32165 0.99669 0.59658 0.0
C913 C 0.33103 0.95259 0.65853 0.0
H914 H 0.37027 0.98033 0.72817 0.0
C915 C 0.40341 0.93598 0.61766 0.0
C916 C 0.41723 0.94414 0.65136 0.0
C917 C 0.38538 0.93748 0.63542 0.0
C918 C 0.35928 0.97212 0.71095 0.0
H919 H 0.27469 0.97522 0.56443 0.0
H920 H 0.2936 0.96291 0.64432 0.0
H921 H 0.34197 0.99518 0.70465 0.0
H922 H 0.42312 0.9581 0.73452 0.0
H923 H 0.39176 0.95994 0.76659 0.0
H924 H 0.34858 0.92967 0.66276 0.0
C925 C 0.29847 0.97449 0.61933 0.0
C926 C 0.34307 0.98076 0.69675 0.0
C927 C 0.28762 0.98158 0.57381 0.0
C928 C 0.41284 0.95173 0.70711 0.0
C929 C 0.3948 0.953 0.7253 0.0
C930 C 0.34716 0.94388 0.67355 0.0
C931 C 0.31591 0.98152 0.62962 0.0
C932 C 0.32939 0.97141 0.66577 0.0
C933 C 0.38078 0.947 0.68771 0.0
C934 C 0.362 0.95389 0.69512 0.0
H935 H 0.31603 0.01485 0.52461 0.0
H936 H 0.33507 1.00237 0.60257 0.0
H937 H 0.32069 0.94487 0.63544 0.0
H938 H 0.40639 0.9296 0.5753 0.0
H939 H 0.37505 0.93261 0.60505 0.0
C940 C 0.48925 0.31554 0.53814 0.0
C941 C 0.49624 0.29878 0.52013 0.0
C942 C 0.49878 0.32624 0.57894 0.0
C943 C 0.52423 0.34242 0.68148 0.0
H944 H 0.56192 0.36053 0.57689 0.0
C945 C 0.54808 0.41526 0.69263 0.0
C946 C 0.56271 0.421 0.65749 0.0
C947 C 0.54398 0.39693 0.69811 0.0
C948 C 0.55206 0.35545 0.60843 0.0
H949 H 0.51796 0.27949 0.53309 0.0
H950 H 0.53495 0.29857 0.60272 0.0
H951 H 0.54547 0.3336 0.54982 0.0
H952 H 0.5862 0.41219 0.60795 0.0
H953 H 0.5802 0.38003 0.62197 0.0
H954 H 0.5308 0.36405 0.74077 0.0
C955 C 0.5219 0.30314 0.5866 0.0
C956 C 0.54249 0.33997 0.59226 0.0
C957 C 0.51219 0.29229 0.5468 0.0
C958 C 0.57459 0.40805 0.63423 0.0
C959 C 0.57092 0.38961 0.64167 0.0
C960 C 0.53426 0.35763 0.69892 0.0
C961 C 0.51555 0.32042 0.60126 0.0
C962 C 0.52801 0.33385 0.6272 0.0
C963 C 0.5548 0.3838 0.66984 0.0
C964 C 0.54766 0.36501 0.6609 0.0
H965 H 0.47699 0.3208 0.51805 0.0
H966 H 0.49383 0.33968 0.58905 0.0
H967 H 0.51311 0.33778 0.70914 0.0
H968 H 0.53884 0.42502 0.71147 0.0
H969 H 0.53147 0.3934 0.72035 0.0
C970 C 0.21384 0.43038 0.45884 0.0
C971 C 0.23031 0.43786 0.4391 0.0
C972 C 0.20318 0.43966 0.50013 0.0
C973 C 0.19534 0.48732 0.52684 0.0
H974 H 0.15399 0.46856 0.61367 0.0
C975 C 0.12413 0.51568 0.50142 0.0
C976 C 0.11193 0.51467 0.54926 0.0
C977 C 0.14175 0.50911 0.50777 0.0
C978 C 0.16563 0.47418 0.59068 0.0
H979 H 0.24994 0.45929 0.45577 0.0
H980 H 0.23177 0.47483 0.5294 0.0
H981 H 0.18047 0.44945 0.59906 0.0
H982 H 0.10905 0.50757 0.64281 0.0
H983 H 0.13979 0.49599 0.65365 0.0
H984 H 0.18023 0.51176 0.51639 0.0
C985 C 0.2267 0.46225 0.51097 0.0
C986 C 0.18074 0.46316 0.58194 0.0
C987 C 0.23725 0.45313 0.46909 0.0
C988 C 0.11807 0.50817 0.60475 0.0
C989 C 0.13565 0.50157 0.61107 0.0
C990 C 0.18027 0.49831 0.53567 0.0
C991 C 0.20896 0.45643 0.52309 0.0
C992 C 0.19541 0.4693 0.54742 0.0
C993 C 0.1475 0.50145 0.56213 0.0
C994 C 0.16492 0.49156 0.56513 0.0
H995 H 0.20837 0.41831 0.43814 0.0
H996 H 0.18966 0.4346 0.50889 0.0
H997 H 0.20629 0.49254 0.49963 0.0
H998 H 0.11976 0.52053 0.45812 0.0
H999 H 0.15049 0.50903 0.46894 0.0
C1000 C 0.02267 0.79735 0.78833 0.0
C1001 C 0.00853 0.80592 0.8193 0.0
C1002 C 0.03067 0.80573 0.73886 0.0
C1003 C 0.02823 0.84797 0.64526 0.0
H1004 H 0.07932 0.8507 0.68378 0.0
C1005 C 0.06141 0.91578 0.6312 0.0
C1006 C 0.06953 0.92009 0.68628 0.0
C1007 C 0.05905 0.89774 0.61417 0.0
C1008 C 0.06511 0.8501 0.67196 0.0
H1009 H 0.99021 0.82872 0.81868 0.0
H1010 H 1.00431 0.84359 0.73445 0.0
H1011 H 0.06183 0.82469 0.71568 0.0
H1012 H 0.08401 0.90897 0.76196 0.0
H1013 H 0.07905 0.87777 0.73467 0.0
H1014 H 0.03092 0.87438 0.60874 0.0
C1015 C 0.00932 0.8304 0.74724 0.0
C1016 C 0.05506 0.83496 0.68949 0.0
C1017 C 1.00133 0.82201 0.79635 0.0
C1018 C 0.07717 0.90609 0.72023 0.0
C1019 C 0.07457 0.88808 0.70376 0.0
C1020 C 0.03817 0.86329 0.62904 0.0
C1021 C 0.02469 0.82284 0.71972 0.0
C1022 C 0.03619 0.83447 0.68072 0.0
C1023 C 0.06446 0.88364 0.65238 0.0
C1024 C 0.05638 0.86518 0.64678 0.0
H1025 H 0.02845 0.78486 0.8049 0.0
H1026 H 0.04226 0.79937 0.71809 0.0
H1027 H 0.01386 0.84766 0.63557 0.0
H1028 H 0.05545 0.92619 0.60349 0.0
H1029 H 0.05171 0.8949 0.57335 0.0
C1030 C 0.71044 0.99397 0.8175 0.0
C1031 C 0.71819 0.00687 0.85574 0.0
C1032 C 0.70073 0.9995 0.76698 0.0
C1033 C 0.68542 0.04169 0.68529 0.0
H1034 H 0.64032 0.01491 0.67743 0.0
C1035 C 0.60418 0.04909 0.63197 0.0
C1036 C 0.60032 0.06135 0.67828 0.0
C1037 C 0.62197 0.04362 0.62131 0.0
C1038 C 0.65297 0.02239 0.67763 0.0
H1039 H 0.72253 0.03551 0.8704 0.0
H1040 H 0.70499 0.04519 0.78552 0.0
H1041 H 0.66658 1.00092 0.72181 0.0
H1042 H 0.61221 0.07949 0.74342 0.0
H1043 H 0.64331 0.07001 0.72451 0.0
H1044 H 0.67073 0.064 0.64782 0.0
C1045 C 0.70684 0.0308 0.79185 0.0
C1046 C 0.66818 0.01432 0.70307 0.0
C1047 C 0.71682 0.02527 0.84127 0.0
C1048 C 0.61476 0.06978 0.70827 0.0
C1049 C 0.63257 0.06449 0.69695 0.0
C1050 C 0.67001 0.04996 0.66152 0.0
C1051 C 0.69815 0.01805 0.75485 0.0
C1052 C 0.68429 0.02428 0.71088 0.0
C1053 C 0.63617 0.05057 0.65596 0.0
C1054 C 0.65345 0.04066 0.66064 0.0
H1055 H 0.71153 0.97968 0.82746 0.0
H1056 H 0.69466 0.98922 0.73893 0.0
H1057 H 0.69781 0.04953 0.68786 0.0
H1058 H 0.59338 0.04245 0.60765 0.0
H1059 H 0.6245 0.03294 0.5894 0.0
C1060 C 0.45893 0.73243 0.79383 0.0
C1061 C 0.47383 0.72769 0.82962 0.0
C1062 C 0.45338 0.7211 0.74721 0.0
C1063 C 0.46585 0.67852 0.66613 0.0
H1064 H 0.41562 0.66598 0.69512 0.0
C1065 C 0.44568 0.6055 0.64844 0.0
C1066 C 0.43791 0.59975 0.7026 0.0
C1067 C 0.44522 0.62373 0.63201 0.0
C1068 C 0.42962 0.66935 0.68582 0.0
H1069 H 0.49562 0.70846 0.84137 0.0
H1070 H 0.48582 0.68855 0.76176 0.0
H1071 H 0.42693 0.69536 0.72602 0.0
H1072 H 0.42145 0.6081 0.77763 0.0
H1073 H 0.42125 0.6398 0.75086 0.0
H1074 H 0.46916 0.65179 0.63273 0.0
C1075 C 0.4784 0.701 0.76867 0.0
C1076 C 0.43609 0.68636 0.70284 0.0
C1077 C 0.48389 0.71225 0.81511 0.0
C1078 C 0.42796 0.61221 0.73645 0.0
C1079 C 0.42762 0.63042 0.72036 0.0
C1080 C 0.45947 0.66142 0.65008 0.0
C1081 C 0.46268 0.7049 0.73555 0.0
C1082 C 0.45461 0.69054 0.69743 0.0
C1083 C 0.43713 0.63659 0.6697 0.0
C1084 C 0.44163 0.65616 0.66419 0.0
H1085 H 0.45096 0.74431 0.80401 0.0
H1086 H 0.44131 0.72457 0.72221 0.0
H1087 H 0.48006 0.68161 0.65941 0.0
H1088 H 0.45339 0.59625 0.621 0.0
H1089 H 0.45234 0.62792 0.59202 0.0
C1090 C 0.78841 0.50734 0.77388 0.0
C1091 C 0.79503 0.52152 0.80967 0.0
C1092 C 0.79956 0.49925 0.73123 0.0
C1093 C 0.84666 0.50054 0.66807 0.0
H1094 H 0.84701 0.45063 0.72139 0.0
C1095 C 0.91348 0.46386 0.68919 0.0
C1096 C 0.91582 0.45862 0.74911 0.0
C1097 C 0.89615 0.46692 0.66634 0.0
C1098 C 0.84701 0.46442 0.70497 0.0
H1099 H 0.8175 0.53997 0.82329 0.0
H1100 H 0.83712 0.52563 0.75072 0.0
H1101 H 0.81962 0.46833 0.7315 0.0
H1102 H 0.90197 0.45076 0.83019 0.0
H1103 H 0.87178 0.45619 0.79094 0.0
H1104 H 0.8747 0.49713 0.64783 0.0
C1105 C 0.82335 0.52069 0.75485 0.0
C1106 C 0.8312 0.47459 0.71015 0.0
C1107 C 0.81219 0.5288 0.79725 0.0
C1108 C 0.90052 0.45489 0.78403 0.0
C1109 C 0.88321 0.45784 0.76114 0.0
C1110 C 0.86252 0.49039 0.66328 0.0
C1111 C 0.81755 0.50514 0.72393 0.0
C1112 C 0.83129 0.49315 0.69612 0.0
C1113 C 0.88087 0.46471 0.70297 0.0
C1114 C 0.86317 0.47266 0.68609 0.0
H1115 H 0.77519 0.50146 0.78219 0.0
H1116 H 0.79458 0.4875 0.70738 0.0
H1117 H 0.84699 0.51467 0.65525 0.0
H1118 H 0.92508 0.46698 0.66133 0.0
H1119 H 0.89476 0.47208 0.62131 0.0
C1120 C 1.00206 0.19863 0.95012 0.0
C1121 C 0.01854 0.20394 0.97637 0.0
C1122 C 1.00083 0.18243 0.91771 0.0
C1123 C 0.02628 0.14866 0.83322 0.0
H1124 H 0.99137 0.11367 0.89247 0.0
C1125 C 0.01063 0.07952 0.71786 0.0
C1126 C 0.01147 0.0643 0.75555 0.0
C1127 C 0.01139 0.09707 0.74151 0.0
C1128 C 1.00116 0.12331 0.87542 0.0
H1129 H 0.04676 0.19684 0.98751 0.0
H1130 H 0.04479 0.16888 0.92878 0.0
H1131 H 0.99271 0.144 0.93647 0.0
H1132 H 0.01338 0.05562 0.84773 0.0
H1133 H 0.01404 0.08629 0.88915 0.0
H1134 H 0.03457 0.12801 0.77161 0.0
C1135 C 0.0328 0.17715 0.93382 0.0
C1136 C 1.00183 0.1407 0.90026 0.0
C1137 C 0.03393 0.19312 0.96738 0.0
C1138 C 0.01282 0.06704 0.81748 0.0
C1139 C 0.0131 0.08459 0.84122 0.0
C1140 C 0.02532 0.13139 0.80738 0.0
C1141 C 0.01614 0.17142 0.90982 0.0
C1142 C 0.01458 0.15347 0.88003 0.0
C1143 C 0.01247 0.0998 0.80349 0.0
C1144 C 0.01294 0.11843 0.82886 0.0
H1145 H 0.98993 0.20657 0.95702 0.0
H1146 H 0.98784 0.17835 0.89959 0.0
H1147 H 0.0362 0.15826 0.81669 0.0
H1148 H 0.00954 0.07788 0.66994 0.0
H1149 H 0.01074 0.10852 0.7114 0.0
C1150 C 0.33404 0.03285 0.0107 0.0
C1151 C 0.32014 0.01985 0.00887 0.0
C1152 C 0.34804 0.03272 0.96872 0.0
C1153 C 0.37229 1.00125 0.86804 0.0
H1154 H 0.39795 0.04509 0.82371 0.0
C1155 C 0.43852 1.00164 0.72415 0.0
C1156 C 0.4526 0.01272 0.74597 0.0
C1157 C 0.42106 1.00251 0.74898 0.0
C1158 C 0.39099 0.0327 0.83583 0.0
H1159 H 0.3096 0.99691 0.95992 0.0
H1160 H 0.33397 0.99683 0.8851 0.0
H1161 H 0.36904 0.04718 0.87562 0.0
H1162 H 0.45923 0.03343 0.81098 0.0
H1163 H 0.42889 0.03505 0.85361 0.0
H1164 H 0.3945 0.98686 0.82864 0.0
C1165 C 0.33415 0.00705 0.91971 0.0
C1166 C 0.37437 0.03388 0.86573 0.0
C1167 C 0.32002 0.00724 0.96195 0.0
C1168 C 0.44876 0.0247 0.793 0.0
C1169 C 0.4313 0.02572 0.81722 0.0
C1170 C 0.38891 1.00009 0.83773 0.0
C1171 C 0.34863 0.01952 0.92344 0.0
C1172 C 0.36497 0.01819 0.8838 0.0
C1173 C 0.4172 0.01466 0.79562 0.0
C1174 C 0.39868 0.0158 0.8225 0.0
H1175 H 0.33458 0.04262 0.04673 0.0
H1176 H 0.35896 0.0424 0.97402 0.0
H1177 H 0.36564 0.98884 0.88153 0.0
H1178 H 0.441 0.99219 0.68813 0.0
H1179 H 0.41051 0.99385 0.73112 0.0
C1180 C 0.51089 0.32785 0.97449 0.0
C1181 C 0.49342 0.32163 0.98851 0.0
C1182 C 0.51332 0.34272 0.93631 0.0
C1183 C 0.49017 0.37381 0.82912 0.0
H1184 H 0.52229 0.40992 0.89723 0.0
C1185 C 0.50358 0.44441 0.71934 0.0
C1186 C 0.50376 0.45935 0.75823 0.0
C1187 C 0.50273 0.42668 0.74177 0.0
C1188 C 0.51323 0.40002 0.87759 0.0
H1189 H 0.46484 0.3256 0.97225 0.0
H1190 H 0.469 0.3513 0.90459 0.0
H1191 H 0.52046 0.37995 0.94221 0.0
H1192 H 0.50328 0.46734 0.85123 0.0
H1193 H 0.5024 0.43649 0.89037 0.0
H1194 H 0.48267 0.39413 0.76526 0.0
C1195 C 0.48088 0.34464 0.92239 0.0
C1196 C 0.51236 0.38271 0.90295 0.0
C1197 C 0.47847 0.32986 0.96092 0.0
C1198 C 0.50317 0.45615 0.82004 0.0
C1199 C 0.50278 0.43844 0.84246 0.0
C1200 C 0.49117 0.39112 0.80336 0.0
C1201 C 0.4983 0.35172 0.9114 0.0
C1202 C 0.50058 0.36944 0.87977 0.0
C1203 C 0.50264 0.42344 0.80368 0.0
C1204 C 0.50245 0.40458 0.82806 0.0
H1205 H 0.5226 0.32199 0.99624 0.0
H1206 H 0.52693 0.34765 0.92833 0.0
H1207 H 0.48106 0.3639 0.8098 0.0
H1208 H 0.50398 0.44641 0.67145 0.0
H1209 H 0.50269 0.4155 0.71057 0.0
C1210 C 0.19844 0.50379 0.94273 0.0
C1211 C 0.20251 0.48622 0.96315 0.0
C1212 C 0.18194 0.50734 0.91339 0.0
C1213 C 0.13542 0.49341 0.91489 0.0
H1214 H 0.12965 0.51005 0.75206 0.0
C1215 C 0.06466 0.49417 0.8036 0.0
C1216 C 0.06096 0.50683 0.75849 0.0
C1217 C 0.08221 0.49242 0.82698 0.0
C1218 C 0.13089 0.50572 0.79799 0.0
H1219 H 0.19288 0.4584 0.96358 0.0
H1220 H 0.16408 0.46481 0.91524 0.0
H1221 H 0.16003 0.50644 0.79383 0.0
H1222 H 0.07287 0.52784 0.7033 0.0
H1223 H 0.10302 0.52558 0.74611 0.0
H1224 H 0.10657 0.49317 0.92078 0.0
C1225 C 0.17357 0.47581 0.92233 0.0
C1226 C 0.14838 0.50359 0.82173 0.0
C1227 C 0.19007 0.47221 0.95042 0.0
C1228 C 0.07522 0.51787 0.7379 0.0
C1229 C 0.09266 0.51643 0.76224 0.0
C1230 C 0.11797 0.49587 0.89175 0.0
C1231 C 0.16916 0.49344 0.90455 0.0
C1232 C 0.15079 0.49717 0.88015 0.0
C1233 C 0.09654 0.50359 0.80699 0.0
C1234 C 0.11534 0.50178 0.83251 0.0
H1235 H 0.20759 0.51493 0.95173 0.0
H1236 H 0.17884 0.52106 0.89994 0.0
H1237 H 0.13692 0.48856 0.96028 0.0
H1238 H 0.05408 0.48528 0.81999 0.0
H1239 H 0.08451 0.48203 0.86014 0.0
C1240 C 1.00338 0.82185 0.40201 0.0
C1241 C 0.99158 0.82144 0.35264 0.0
C1242 C 1.00484 0.83753 0.43746 0.0
C1243 C 0.99959 0.88657 0.42114 0.0
H1244 H 0.99955 0.88944 0.59386 0.0
C1245 C 0.99425 0.95517 0.54024 0.0
C1246 C 1.00428 0.95814 0.59267 0.0
C1247 C 0.99321 0.93794 0.51468 0.0
C1248 C 0.99986 0.88886 0.54557 0.0
H1249 H 0.97096 0.83654 0.30517 0.0
H1250 H 0.97358 0.86364 0.36616 0.0
H1251 H 0.99661 0.85989 0.54471 0.0
H1252 H 0.02114 0.94513 0.65936 0.0
H1253 H 0.01944 0.91501 0.61431 0.0
H1254 H 1.00309 0.91526 0.42115 0.0
C1255 C 0.98198 0.85209 0.37696 0.0
C1256 C 0.99814 0.87192 0.51752 0.0
C1257 C 0.98044 0.83652 0.34211 0.0
C1258 C 0.01322 0.94334 0.61906 0.0
C1259 C 0.01219 0.92603 0.59334 0.0
C1260 C 1.0015 0.90338 0.44897 0.0
C1261 C 0.99458 0.85305 0.42382 0.0
C1262 C 0.99764 0.87065 0.45491 0.0
C1263 C 1.00226 0.92312 0.54049 0.0
C1264 C 1.00135 0.90486 0.51158 0.0
H1265 H 0.01217 0.81048 0.41119 0.0
H1266 H 0.01463 0.83784 0.47347 0.0
H1267 H 0.99964 0.88603 0.3728 0.0
H1268 H 0.98707 0.96617 0.51887 0.0
H1269 H 0.9851 0.93622 0.47476 0.0
C1270 C 0.69051 0.97917 0.39106 0.0
C1271 C 0.70124 0.99452 0.3792 0.0
C1272 C 0.67426 0.9807 0.42306 0.0
C1273 C 0.63749 0.01234 0.44857 0.0
H1274 H 0.62308 0.98054 0.57802 0.0
C1275 C 0.56286 1.00464 0.52638 0.0
C1276 C 0.55971 0.00562 0.58817 0.0
C1277 C 0.58056 1.00358 0.50395 0.0
C1278 C 0.62692 0.98954 0.54198 0.0
H1279 H 0.70338 0.02348 0.39226 0.0
H1280 H 0.67478 0.02621 0.44717 0.0
H1281 H 0.65368 0.97828 0.53593 0.0
H1282 H 0.57274 0.00599 0.67492 0.0
H1283 H 0.60361 1.00346 0.63578 0.0
H1284 H 0.61065 0.0233 0.45346 0.0
C1285 C 0.6791 0.01296 0.43229 0.0
C1286 C 0.64441 0.9882 0.51779 0.0
C1287 C 0.69554 0.01137 0.40135 0.0
C1288 C 0.57469 0.00526 0.62706 0.0
C1289 C 0.59237 1.0037 0.60468 0.0
C1290 C 0.61991 0.01342 0.47186 0.0
C1291 C 0.66814 0.99768 0.44278 0.0
C1292 C 0.64989 0.99957 0.47071 0.0
C1293 C 0.59554 1.00305 0.54281 0.0
C1294 C 0.61437 1.00198 0.51869 0.0
H1295 H 0.6945 0.96603 0.37427 0.0
H1296 H 0.66607 0.9687 0.43012 0.0
H1297 H 0.64126 0.02122 0.41211 0.0
H1298 H 0.55163 1.00493 0.49523 0.0
H1299 H 0.58253 1.00295 0.45609 0.0
C1300 C 0.52188 0.69067 0.35085 0.0
C1301 C 0.5071 0.70256 0.35303 0.0
C1302 C 0.52271 0.67568 0.38882 0.0
C1303 C 0.5039 0.65305 0.52291 0.0
H1304 H 0.51384 0.60957 0.43208 0.0
C1305 C 0.49673 0.58043 0.62468 0.0
C1306 C 0.50854 0.56693 0.60372 0.0
C1307 C 0.49653 0.59769 0.59832 0.0
C1308 C 0.51138 0.62151 0.45878 0.0
H1309 H 0.48201 0.70859 0.39857 0.0
H1310 H 0.48359 0.6824 0.46623 0.0
H1311 H 0.51447 0.63873 0.38273 0.0
H1312 H 0.52984 0.56126 0.54001 0.0
H1313 H 0.53002 0.59125 0.49579 0.0
H1314 H 0.50107 0.63576 0.59936 0.0
C1315 C 0.4946 0.68478 0.43524 0.0
C1316 C 0.51167 0.63832 0.43019 0.0
C1317 C 0.49374 0.69984 0.39686 0.0
C1318 C 0.5204 0.57123 0.55679 0.0
C1319 C 0.52038 0.58849 0.53105 0.0
C1320 C 0.50383 0.63615 0.55193 0.0
C1321 C 0.50872 0.6721 0.42983 0.0
C1322 C 0.50813 0.65434 0.46181 0.0
C1323 C 0.50826 0.60196 0.55063 0.0
C1324 C 0.50776 0.62011 0.52034 0.0
H1325 H 0.53222 0.69234 0.31695 0.0
H1326 H 0.53393 0.66637 0.38413 0.0
H1327 H 0.50103 0.66513 0.54854 0.0
H1328 H 0.48735 0.57756 0.66067 0.0
H1329 H 0.4869 0.60754 0.61456 0.0
C1330 C 0.83631 0.5456 0.3428 0.0
C1331 C 0.82233 0.53264 0.34198 0.0
C1332 C 0.85023 0.54476 0.38498 0.0
C1333 C 0.87341 0.51203 0.48614 0.0
H1334 H 0.90099 0.55495 0.5277 0.0
C1335 C 0.93944 0.51085 0.6317 0.0
C1336 C 0.95423 0.52042 0.60723 0.0
C1337 C 0.92201 0.51246 0.60708 0.0
C1338 C 0.89346 0.54281 0.51644 0.0
H1339 H 0.81147 0.50921 0.38763 0.0
H1340 H 0.83554 0.50804 0.46337 0.0
H1341 H 0.87215 0.55802 0.4761 0.0
H1342 H 0.96207 0.53936 0.53796 0.0
H1343 H 0.93167 0.54246 0.496 0.0
H1344 H 0.89482 0.49692 0.52784 0.0
C1345 C 0.83599 0.51864 0.43004 0.0
C1346 C 0.87689 0.54454 0.48646 0.0
C1347 C 0.822 0.51945 0.38722 0.0
C1348 C 0.95105 0.5318 0.55802 0.0
C1349 C 0.93359 0.53365 0.53412 0.0
C1350 C 0.88989 0.51033 0.51716 0.0
C1351 C 0.85061 0.53102 0.42857 0.0
C1352 C 0.86685 0.52917 0.46891 0.0
C1353 C 0.91885 0.52393 0.55807 0.0
C1354 C 0.90038 0.52569 0.53109 0.0
H1355 H 0.83696 0.55598 0.3087 0.0
H1356 H 0.86119 0.55443 0.3811 0.0
H1357 H 0.86628 0.49981 0.4734 0.0
H1358 H 0.94137 0.50184 0.66933 0.0
H1359 H 0.91096 0.50486 0.62676 0.0
loop_
_geom_bond_atom_site_label_1
_geom_bond_atom_site_label_2
_geom_bond_distance
_geom_bond_site_symmetry_2
_ccdc_geom_bond_type
C0 C1 1.391 . S
C0 C4 1.391 . S
C0 H42 0.948 . S
C1 C0 1.391 . S
C1 C2 1.391 . S
C2 C1 1.391 . S
C2 H58 0.947 . S
C2 C59 1.392 . S
C3 C4 1.391 . S
C3 C7 1.397 . S
C3 C59 1.419 . S
C4 C0 1.391 . S
C4 C3 1.391 . S
C4 C5 1.399 . S
C5 C4 1.399 . S
C5 C8 1.396 . S
C5 C17 1.453 . S
C5 C18 1.684 . S
H6 C30 0.948 . S
C7 C3 1.397 . S
C7 C8 1.394 . S
C7 C26 1.723 . S
C8 C5 1.396 . S
C8 C7 1.394 . S
C8 C38 1.723 . S
H9 C32 0.947 . S
H10 C33 0.948 . S
H11 C39 0.982 . S
H12 C40 0.979 . S
H13 C40 0.980 . S
H14 C40 0.983 . S
H15 C39 0.979 . S
H16 C39 0.977 . S
C17 C5 1.453 . S
C17 H46 0.982 . S
C17 H47 0.979 . S
C17 H48 0.977 . S
C18 C5 1.684 . S
C18 H43 0.979 . S
C18 H44 0.980 . S
C18 H45 0.983 . S
C19 C20 1.391 . S
C19 C24 1.391 . S
C19 H49 0.948 . S
C20 C19 1.391 . S
C20 C21 1.391 . S
C21 C20 1.391 . S
C21 C22 1.392 . S
C21 H50 0.947 . S
C22 C21 1.392 . S
C22 C23 1.419 . S
C22 H51 0.948 . S
C23 C22 1.419 . S
C23 C24 1.391 . S
C23 C27 1.397 . S
C24 C19 1.391 . S
C24 C23 1.391 . S
C24 C25 1.399 . S
C25 C24 1.399 . S
C25 C26 1.396 . S
C25 C28 1.453 . S
C25 C29 1.684 . S
C26 C7 1.723 . S
C26 C25 1.396 . S
C26 C27 1.394 . S
C27 C23 1.397 . S
C27 C26 1.394 . S
C27 C37 1.723 . S
C28 C25 1.453 . S
C28 H52 0.982 . S
C28 H53 0.979 . S
C28 H54 0.977 . S
C29 C25 1.684 . S
C29 H55 0.979 . S
C29 H56 0.980 . S
C29 H57 0.983 . S
C30 H6 0.948 . S
C30 C31 1.391 . S
C30 C35 1.391 . S
C31 C30 1.391 . S
C31 C32 1.391 . S
C32 H9 0.947 . S
C32 C31 1.391 . S
C32 C33 1.392 . S
C33 H10 0.948 . S
C33 C32 1.392 . S
C33 C34 1.419 . S
C34 C33 1.419 . S
C34 C35 1.391 . S
C34 C38 1.397 . S
C35 C30 1.391 . S
C35 C34 1.391 . S
C35 C36 1.399 . S
C36 C35 1.399 . S
C36 C37 1.396 . S
C36 C39 1.453 . S
C36 C40 1.684 . S
C37 C27 1.723 . S
C37 C36 1.396 . S
C37 C38 1.394 . S
C38 C8 1.723 . S
C38 C34 1.397 . S
C38 C37 1.394 . S
C39 H11 0.982 . S
C39 H15 0.979 . S
C39 H16 0.977 . S
C39 C36 1.453 . S
C40 H12 0.979 . S
C40 H13 0.980 . S
C40 H14 0.983 . S
C40 C36 1.684 . S
H41 C59 0.948 . S
H42 C0 0.948 . S
H43 C18 0.979 . S
H44 C18 0.980 . S
H45 C18 0.983 . S
H46 C17 0.982 . S
H47 C17 0.979 . S
H48 C17 0.977 . S
H49 C19 0.948 . S
H50 C21 0.947 . S
H51 C22 0.948 . S
H52 C28 0.982 . S
H53 C28 0.979 . S
H54 C28 0.977 . S
H55 C29 0.979 . S
H56 C29 0.980 . S
H57 C29 0.983 . S
H58 C2 0.947 . S
C59 C2 1.392 . S
C59 C3 1.419 . S
C59 H41 0.948 . S
C60 C61 1.391 . S
C60 C64 1.391 . S
C60 H102 0.948 . S
C61 C60 1.391 . S
C61 C62 1.391 . S
C62 C61 1.391 . S
C62 H118 0.947 . S
C62 C119 1.392 . S
C63 C64 1.400 . S
C63 C67 1.395 1_655 S
C63 C119 1.426 . S
C64 C60 1.391 . S
C64 C63 1.400 . S
C64 C65 1.399 . S
C65 C64 1.399 . S
C65 C68 1.388 1_655 S
C65 C77 1.453 1_655 S
C65 C78 1.684 . S
H66 C90 0.948 . S
C67 C63 1.395 1_455 S
C67 C68 1.393 . S
C67 C86 1.722 . S
C68 C65 1.388 1_455 S
C68 C67 1.393 . S
C68 C98 1.722 . S
H69 C92 0.947 . S
H70 C93 0.948 . S
H71 C99 0.982 . S
H72 C100 0.979 . S
H73 C100 0.980 . S
H74 C100 0.983 . S
H75 C99 0.979 . S
H76 C99 0.977 . S
C77 C65 1.453 1_455 S
C77 H106 0.982 . S
C77 H107 0.979 . S
C77 H108 0.977 . S
C78 C65 1.684 . S
C78 H103 0.979 . S
C78 H104 0.980 . S
C78 H105 0.983 . S
C79 C80 1.391 . S
C79 C84 1.391 . S
C79 H109 0.948 . S
C80 C79 1.391 . S
C80 C81 1.391 . S
C81 C80 1.391 . S
C81 C82 1.392 . S
C81 H110 0.947 . S
C82 C81 1.392 . S
C82 C83 1.425 . S
C82 H111 0.948 . S
C83 C82 1.425 . S
C83 C84 1.400 . S
C83 C87 1.395 1_655 S
C84 C79 1.391 . S
C84 C83 1.400 . S
C84 C85 1.399 . S
C85 C84 1.399 . S
C85 C86 1.388 1_655 S
C85 C88 1.453 1_655 S
C85 C89 1.684 . S
C86 C67 1.722 . S
C86 C85 1.388 1_455 S
C86 C87 1.393 . S
C87 C83 1.395 1_455 S
C87 C86 1.393 . S
C87 C97 1.722 . S
C88 C85 1.453 1_455 S
C88 H112 0.982 . S
C88 H113 0.979 . S
C88 H114 0.977 . S
C89 C85 1.684 . S
C89 H115 0.979 . S
C89 H116 0.980 . S
C89 H117 0.983 . S
C90 H66 0.948 . S
C90 C91 1.391 . S
C90 C95 1.391 . S
C91 C90 1.391 . S
C91 C92 1.391 . S
C92 H69 0.947 . S
C92 C91 1.391 . S
C92 C93 1.392 . S
C93 H70 0.948 . S
C93 C92 1.392 . S
C93 C94 1.425 . S
C94 C93 1.425 . S
C94 C95 1.400 . S
C94 C98 1.395 1_655 S
C95 C90 1.391 . S
C95 C94 1.400 . S
C95 C96 1.399 . S
C96 C95 1.399 . S
C96 C97 1.389 1_655 S
C96 C99 1.453 1_655 S
C96 C100 1.684 . S
C97 C87 1.722 . S
C97 C96 1.389 1_455 S
C97 C98 1.393 . S
C98 C68 1.722 . S
C98 C94 1.395 1_455 S
C98 C97 1.393 . S
C99 H71 0.982 . S
C99 H75 0.979 . S
C99 H76 0.977 . S
C99 C96 1.453 1_455 S
C100 H72 0.979 . S
C100 H73 0.980 . S
C100 H74 0.983 . S
C100 C96 1.684 . S
H101 C119 0.948 . S
H102 C60 0.948 . S
H103 C78 0.979 . S
H104 C78 0.980 . S
H105 C78 0.983 . S
H106 C77 0.982 . S
H107 C77 0.979 . S
H108 C77 0.977 . S
H109 C79 0.948 . S
H110 C81 0.947 . S
H111 C82 0.948 . S
H112 C88 0.982 . S
H113 C88 0.979 . S
H114 C88 0.977 . S
H115 C89 0.979 . S
H116 C89 0.980 . S
H117 C89 0.983 . S
H118 C62 0.947 . S
C119 C62 1.392 . S
C119 C63 1.426 . S
C119 H101 0.948 . S
C120 C121 1.391 . S
C120 C124 1.391 . S
C120 H162 0.948 . S
C121 C120 1.391 . S
C121 C122 1.391 . S
C122 C121 1.391 . S
C122 H178 0.947 . S
C122 C179 1.392 . S
C123 C124 1.391 . S
C123 C127 1.397 . S
C123 C179 1.419 . S
C124 C120 1.391 . S
C124 C123 1.391 . S
C124 C125 1.399 . S
C125 C124 1.399 . S
C125 C128 1.396 . S
C125 C137 1.453 1_565 S
C125 C138 1.684 . S
H126 C150 0.948 . S
C127 C123 1.397 . S
C127 C128 1.394 . S
C127 C146 1.723 . S
C128 C125 1.396 . S
C128 C127 1.394 . S
C128 C158 1.723 . S
H129 C152 0.947 . S
H130 C153 0.948 . S
H131 C159 0.982 . S
H132 C160 0.979 . S
H133 C160 0.980 . S
H134 C160 0.983 . S
H135 C159 0.979 . S
H136 C159 0.977 . S
C137 C125 1.453 1_545 S
C137 H166 0.982 . S
C137 H167 0.979 . S
C137 H168 0.977 . S
C138 C125 1.684 . S
C138 H163 0.979 . S
C138 H164 0.980 . S
C138 H165 0.983 . S
C139 C140 1.391 . S
C139 C144 1.391 . S
C139 H169 0.948 . S
C140 C139 1.391 . S
C140 C141 1.391 . S
C141 C140 1.391 . S
C141 C142 1.392 . S
C141 H170 0.947 . S
C142 C141 1.392 . S
C142 C143 1.419 . S
C142 H171 0.948 . S
C143 C142 1.419 . S
C143 C144 1.391 . S
C143 C147 1.397 . S
C144 C139 1.391 . S
C144 C143 1.391 . S
C144 C145 1.399 . S
C145 C144 1.399 . S
C145 C146 1.396 . S
C145 C148 1.453 1_565 S
C145 C149 1.684 . S
C146 C127 1.723 . S
C146 C145 1.396 . S
C146 C147 1.394 . S
C147 C143 1.397 . S
C147 C146 1.394 . S
C147 C157 1.723 . S
C148 C145 1.453 1_545 S
C148 H172 0.982 . S
C148 H173 0.979 . S
C148 H174 0.977 . S
C149 C145 1.684 . S
C149 H175 0.979 . S
C149 H176 0.980 . S
C149 H177 0.983 . S
C150 H126 0.948 . S
C150 C151 1.391 . S
C150 C155 1.391 . S
C151 C150 1.391 . S
C151 C152 1.391 . S
C152 H129 0.947 . S
C152 C151 1.391 . S
C152 C153 1.392 . S
C153 H130 0.948 . S
C153 C152 1.392 . S
C153 C154 1.419 . S
C154 C153 1.419 . S
C154 C155 1.391 . S
C154 C158 1.397 . S
C155 C150 1.391 . S
C155 C154 1.391 . S
C155 C156 1.399 . S
C156 C155 1.399 . S
C156 C157 1.396 . S
C156 C159 1.453 1_565 S
C156 C160 1.684 . S
C157 C147 1.723 . S
C157 C156 1.396 . S
C157 C158 1.394 . S
C158 C128 1.723 . S
C158 C154 1.397 . S
C158 C157 1.394 . S
C159 H131 0.982 . S
C159 H135 0.979 . S
C159 H136 0.977 . S
C159 C156 1.453 1_545 S
C160 H132 0.979 . S
C160 H133 0.980 . S
C160 H134 0.983 . S
C160 C156 1.684 . S
H161 C179 0.948 . S
H162 C120 0.948 . S
H163 C138 0.979 . S
H164 C138 0.980 . S
H165 C138 0.983 . S
H166 C137 0.982 . S
H167 C137 0.979 . S
H168 C137 0.977 . S
H169 C139 0.948 . S
H170 C141 0.947 . S
H171 C142 0.948 . S
H172 C148 0.982 . S
H173 C148 0.979 . S
H174 C148 0.977 . S
H175 C149 0.979 . S
H176 C149 0.980 . S
H177 C149 0.983 . S
H178 C122 0.947 . S
C179 C122 1.392 . S
C179 C123 1.419 . S
C179 H161 0.948 . S
C180 C181 1.391 . S
C180 C184 1.391 . S
C180 H222 0.948 . S
C181 C180 1.391 . S
C181 C182 1.391 . S
C182 C181 1.391 . S
C182 H238 0.947 . S
C182 C239 1.392 . S
C183 C184 1.391 . S
C183 C187 1.397 . S
C183 C239 1.419 . S
C184 C180 1.391 . S
C184 C183 1.391 . S
C184 C185 1.399 . S
C185 C184 1.399 . S
C185 C188 1.396 . S
C185 C197 1.453 . S
C185 C198 1.684 . S
H186 C210 0.948 . S
C187 C183 1.397 . S
C187 C188 1.394 . S
C187 C206 1.723 . S
C188 C185 1.396 . S
C188 C187 1.394 . S
C188 C218 1.723 . S
H189 C212 0.947 . S
H190 C213 0.948 . S
H191 C219 0.982 . S
H192 C220 0.979 . S
H193 C220 0.980 . S
H194 C220 0.983 . S
H195 C219 0.979 . S
H196 C219 0.977 . S
C197 C185 1.453 . S
C197 H226 0.982 . S
C197 H227 0.979 . S
C197 H228 0.977 . S
C198 C185 1.684 . S
C198 H223 0.979 . S
C198 H224 0.980 . S
C198 H225 0.983 . S
C199 C200 1.391 . S
C199 C204 1.391 . S
C199 H229 0.948 . S
C200 C199 1.391 . S
C200 C201 1.391 . S
C201 C200 1.391 . S
C201 C202 1.392 . S
C201 H230 0.947 . S
C202 C201 1.392 . S
C202 C203 1.419 . S
C202 H231 0.948 . S
C203 C202 1.419 . S
C203 C204 1.391 . S
C203 C207 1.397 . S
C204 C199 1.391 . S
C204 C203 1.391 . S
C204 C205 1.399 . S
C205 C204 1.399 . S
C205 C206 1.396 . S
C205 C208 1.453 . S
C205 C209 1.684 . S
C206 C187 1.723 . S
C206 C205 1.396 . S
C206 C207 1.394 . S
C207 C203 1.397 . S
C207 C206 1.394 . S
C207 C217 1.723 . S
C208 C205 1.453 . S
C208 H232 0.982 . S
C208 H233 0.979 . S
C208 H234 0.977 . S
C209 C205 1.684 . S
C209 H235 0.979 . S
C209 H236 0.980 . S
C209 H237 0.983 . S
C210 H186 0.948 . S
C210 C211 1.391 . S
C210 C215 1.391 . S
C211 C210 1.391 . S
C211 C212 1.391 . S
C212 H189 0.947 . S
C212 C211 1.391 . S
C212 C213 1.392 . S
C213 H190 0.948 . S
C213 C212 1.392 . S
C213 C214 1.419 . S
C214 C213 1.419 . S
C214 C215 1.391 . S
C214 C218 1.397 . S
C215 C210 1.391 . S
C215 C214 1.391 . S
C215 C216 1.399 . S
C216 C215 1.399 . S
C216 C217 1.396 . S
C216 C219 1.453 . S
C216 C220 1.684 . S
C217 C207 1.723 . S
C217 C216 1.396 . S
C217 C218 1.394 . S
C218 C188 1.723 . S
C218 C214 1.397 . S
C218 C217 1.394 . S
C219 H191 0.982 . S
C219 H195 0.979 . S
C219 H196 0.977 . S
C219 C216 1.453 . S
C220 H192 0.979 . S
C220 H193 0.980 . S
C220 H194 0.983 . S
C220 C216 1.684 . S
H221 C239 0.948 . S
H222 C180 0.948 . S
H223 C198 0.979 . S
H224 C198 0.980 . S
H225 C198 0.983 . S
H226 C197 0.982 . S
H227 C197 0.979 . S
H228 C197 0.977 . S
H229 C199 0.948 . S
H230 C201 0.947 . S
H231 C202 0.948 . S
H232 C208 0.982 . S
H233 C208 0.979 . S
H234 C208 0.977 . S
H235 C209 0.979 . S
H236 C209 0.980 . S
H237 C209 0.983 . S
H238 C182 0.947 . S
C239 C182 1.392 . S
C239 C183 1.419 . S
C239 H221 0.948 . S
C240 C241 1.391 . S
C240 C244 1.391 . S
C240 H282 0.948 . S
C241 C240 1.391 . S
C241 C242 1.391 . S
C242 C241 1.391 . S
C242 H298 0.947 . S
C242 C299 1.392 . S
C243 C244 1.391 . S
C243 C247 1.397 . S
C243 C299 1.419 . S
C244 C240 1.391 . S
C244 C243 1.391 . S
C244 C245 1.399 1_554 S
C245 C244 1.399 1_556 S
C245 C248 1.400 . S
C245 C257 1.453 . S
C245 C258 1.684 . S
H246 C270 0.948 . S
C247 C243 1.397 . S
C247 C248 1.383 1_554 S
C247 C266 1.723 . S
C248 C245 1.400 . S
C248 C247 1.383 1_556 S
C248 C278 1.727 . S
H249 C272 0.947 . S
H250 C273 0.948 . S
H251 C279 0.982 . S
H252 C280 0.979 . S
H253 C280 0.980 1_554 S
H254 C280 0.983 . S
H255 C279 0.979 . S
H256 C279 0.977 1_554 S
C257 C245 1.453 . S
C257 H286 0.982 . S
C257 H287 0.979 . S
C257 H288 0.977 . S
C258 C245 1.684 . S
C258 H283 0.979 . S
C258 H284 0.980 . S
C258 H285 0.983 . S
C259 C260 1.391 . S
C259 C264 1.391 . S
C259 H289 0.948 . S
C260 C259 1.391 . S
C260 C261 1.391 . S
C261 C260 1.391 . S
C261 C262 1.392 . S
C261 H290 0.947 . S
C262 C261 1.392 . S
C262 C263 1.419 . S
C262 H291 0.948 . S
C263 C262 1.419 . S
C263 C264 1.391 . S
C263 C267 1.397 . S
C264 C259 1.391 . S
C264 C263 1.391 . S
C264 C265 1.399 . S
C265 C264 1.399 . S
C265 C266 1.396 . S
C265 C268 1.453 . S
C265 C269 1.684 . S
C266 C247 1.723 . S
C266 C265 1.396 . S
C266 C267 1.394 . S
C267 C263 1.397 . S
C267 C266 1.394 . S
C267 C277 1.741 . S
C268 C265 1.453 . S
C268 H292 0.982 . S
C268 H293 0.979 . S
C268 H294 0.977 . S
C269 C265 1.684 . S
C269 H295 0.979 . S
C269 H296 0.980 . S
C269 H297 0.983 . S
C270 H246 0.948 . S
C270 C271 1.391 . S
C270 C275 1.391 . S
C271 C270 1.391 . S
C271 C272 1.391 . S
C272 H249 0.947 . S
C272 C271 1.391 . S
C272 C273 1.392 . S
C273 H250 0.948 . S
C273 C272 1.392 . S
C273 C274 1.419 . S
C274 C273 1.419 . S
C274 C275 1.391 . S
C274 C278 1.397 . S
C275 C270 1.391 . S
C275 C274 1.391 . S
C275 C276 1.399 . S
C276 C275 1.399 . S
C276 C277 1.384 1_556 S
C276 C279 1.453 . S
C276 C280 1.684 . S
C277 C267 1.741 . S
C277 C276 1.384 1_554 S
C277 C278 1.386 1_554 S
C278 C248 1.727 . S
C278 C274 1.397 . S
C278 C277 1.386 1_556 S
C279 H251 0.982 . S
C279 H255 0.979 . S
C279 H256 0.977 1_556 S
C279 C276 1.453 . S
C280 H252 0.979 . S
C280 H253 0.980 1_556 S
C280 H254 0.983 . S
C280 C276 1.684 . S
H281 C299 0.948 . S
H282 C240 0.948 . S
H283 C258 0.979 . S
H284 C258 0.980 . S
H285 C258 0.983 . S
H286 C257 0.982 . S
H287 C257 0.979 . S
H288 C257 0.977 . S
H289 C259 0.948 . S
H290 C261 0.947 . S
H291 C262 0.948 . S
H292 C268 0.982 . S
H293 C268 0.979 . S
H294 C268 0.977 . S
H295 C269 0.979 . S
H296 C269 0.980 . S
H297 C269 0.983 . S
H298 C242 0.947 . S
C299 C242 1.392 . S
C299 C243 1.419 . S
C299 H281 0.948 . S
C300 C301 1.391 . S
C300 C304 1.391 . S
C300 H342 0.948 . S
C301 C300 1.391 . S
C301 C302 1.391 . S
C302 C301 1.391 . S
C302 H358 0.947 . S
C302 C359 1.392 . S
C303 C304 1.398 . S
C303 C307 1.395 1_655 S
C303 C359 1.424 . S
C304 C300 1.391 . S
C304 C303 1.398 . S
C304 C305 1.399 . S
C305 C304 1.399 . S
C305 C308 1.396 1_655 S
C305 C317 1.453 1_655 S
C305 C318 1.684 . S
H306 C330 0.948 . S
C307 C303 1.395 1_455 S
C307 C308 1.395 . S
C307 C326 1.738 . S
C308 C305 1.396 1_455 S
C308 C307 1.395 . S
C308 C338 1.723 . S
H309 C332 0.947 . S
H310 C333 0.948 . S
H311 C339 0.982 . S
H312 C340 0.979 . S
H313 C340 0.980 . S
H314 C340 0.983 . S
H315 C339 0.979 . S
H316 C339 0.977 . S
C317 C305 1.453 1_455 S
C317 H346 0.982 . S
C317 H347 0.979 . S
C317 H348 0.977 . S
C318 C305 1.684 . S
C318 H343 0.979 . S
C318 H344 0.980 . S
C318 H345 0.983 . S
C319 C320 1.391 . S
C319 C324 1.391 . S
C319 H349 0.948 . S
C320 C319 1.391 . S
C320 C321 1.391 . S
C321 C320 1.391 . S
C321 C322 1.392 . S
C321 H350 0.947 . S
C322 C321 1.392 . S
C322 C323 1.424 . S
C322 H351 0.948 . S
C323 C322 1.424 . S
C323 C324 1.397 . S
C323 C327 1.395 1_655 S
C324 C319 1.391 . S
C324 C323 1.397 . S
C324 C325 1.399 . S
C325 C324 1.399 . S
C325 C326 1.386 1_656 S
C325 C328 1.453 1_655 S
C325 C329 1.684 . S
C326 C307 1.738 . S
C326 C325 1.386 1_454 S
C326 C327 1.388 1_554 S
C327 C323 1.395 1_455 S
C327 C326 1.388 1_556 S
C327 C337 1.728 . S
C328 C325 1.453 1_455 S
C328 H352 0.982 . S
C328 H353 0.979 . S
C328 H354 0.977 1_556 S
C329 C325 1.684 . S
C329 H355 0.979 . S
C329 H356 0.980 1_556 S
C329 H357 0.983 . S
C330 H306 0.948 . S
C330 C331 1.391 . S
C330 C335 1.391 . S
C331 C330 1.391 . S
C331 C332 1.391 . S
C332 H309 0.947 . S
C332 C331 1.391 . S
C332 C333 1.392 . S
C333 H310 0.948 . S
C333 C332 1.392 . S
C333 C334 1.424 . S
C334 C333 1.424 . S
C334 C335 1.398 . S
C334 C338 1.395 1_655 S
C335 C330 1.391 . S
C335 C334 1.398 . S
C335 C336 1.399 1_554 S
C336 C335 1.399 1_556 S
C336 C337 1.400 1_655 S
C336 C339 1.453 1_655 S
C336 C340 1.684 . S
C337 C327 1.728 . S
C337 C336 1.400 1_455 S
C337 C338 1.381 1_556 S
C338 C308 1.723 . S
C338 C334 1.395 1_455 S
C338 C337 1.381 1_554 S
C339 H311 0.982 . S
C339 H315 0.979 . S
C339 H316 0.977 . S
C339 C336 1.453 1_455 S
C340 H312 0.979 . S
C340 H313 0.980 . S
C340 H314 0.983 . S
C340 C336 1.684 . S
H341 C359 0.948 . S
H342 C300 0.948 . S
H343 C318 0.979 . S
H344 C318 0.980 . S
H345 C318 0.983 . S
H346 C317 0.982 . S
H347 C317 0.979 . S
H348 C317 0.977 . S
H349 C319 0.948 . S
H350 C321 0.947 . S
H351 C322 0.948 . S
H352 C328 0.982 . S
H353 C328 0.979 . S
H354 C328 0.977 1_554 S
H355 C329 0.979 . S
H356 C329 0.980 1_554 S
H357 C329 0.983 . S
H358 C302 0.947 . S
C359 C302 1.392 . S
C359 C303 1.424 . S
C359 H341 0.948 . S
C360 C361 1.391 . S
C360 C364 1.391 . S
C360 H402 0.948 . S
C361 C360 1.391 . S
C361 C362 1.391 . S
C362 C361 1.391 . S
C362 H418 0.947 . S
C362 C419 1.392 . S
C363 C364 1.391 . S
C363 C367 1.397 . S
C363 C419 1.419 . S
C364 C360 1.391 . S
C364 C363 1.391 . S
C364 C365 1.399 . S
C365 C364 1.399 . S
C365 C368 1.396 . S
C365 C377 1.405 1_545 S
C365 C378 1.684 . S
H366 C390 0.948 . S
C367 C363 1.397 . S
C367 C368 1.394 . S
C367 C386 1.723 1_556 S
C368 C365 1.396 . S
C368 C367 1.394 . S
C368 C398 1.723 1_556 S
H369 C392 0.947 1_556 S
H370 C393 0.938 1_556 S
H371 C399 1.040 . S
H372 C400 0.979 . S
H373 C400 0.980 . S
H374 C400 0.983 . S
H375 C399 0.978 . S
H376 C399 0.973 1_545 S
C377 C365 1.405 1_565 S
C377 H406 1.040 . S
C377 H407 0.978 . S
C377 H408 0.973 1_565 S
C378 C365 1.684 . S
C378 H403 0.979 . S
C378 H404 0.980 . S
C378 H405 0.983 . S
C379 C380 1.391 . S
C379 C384 1.391 . S
C379 H409 0.948 . S
C380 C379 1.391 . S
C380 C381 1.391 . S
C381 C380 1.391 . S
C381 C382 1.392 . S
C381 H410 0.947 . S
C382 C381 1.392 . S
C382 C383 1.419 . S
C382 H411 0.948 . S
C383 C382 1.419 . S
C383 C384 1.391 . S
C383 C387 1.397 . S
C384 C379 1.391 . S
C384 C383 1.391 . S
C384 C385 1.399 . S
C385 C384 1.399 . S
C385 C386 1.396 . S
C385 C388 1.405 1_545 S
C385 C389 1.684 . S
C386 C367 1.723 1_554 S
C386 C385 1.396 . S
C386 C387 1.394 . S
C387 C383 1.397 . S
C387 C386 1.394 . S
C387 C397 1.723 . S
C388 C385 1.405 1_565 S
C388 H412 1.039 . S
C388 H413 0.978 . S
C388 H414 0.973 1_564 S
C389 C385 1.684 . S
C389 H415 0.979 . S
C389 H416 0.980 1_554 S
C389 H417 0.983 . S
C390 H366 0.948 . S
C390 C391 1.391 . S
C390 C395 1.391 . S
C391 C390 1.391 . S
C391 C392 1.391 . S
C392 H369 0.947 1_554 S
C392 C391 1.391 . S
C392 C393 1.395 . S
C393 H370 0.938 1_554 S
C393 C392 1.395 . S
C393 C394 1.426 . S
C394 C393 1.426 . S
C394 C395 1.391 . S
C394 C398 1.397 . S
C395 C390 1.391 . S
C395 C394 1.391 . S
C395 C396 1.399 . S
C396 C395 1.399 . S
C396 C397 1.396 . S
C396 C399 1.405 1_545 S
C396 C400 1.684 . S
C397 C387 1.723 . S
C397 C396 1.396 . S
C397 C398 1.394 . S
C398 C368 1.723 1_554 S
C398 C394 1.397 . S
C398 C397 1.394 . S
C399 H371 1.040 . S
C399 H375 0.978 . S
C399 H376 0.973 1_565 S
C399 C396 1.405 1_565 S
C400 H372 0.979 . S
C400 H373 0.980 . S
C400 H374 0.983 . S
C400 C396 1.684 . S
H401 C419 0.948 . S
H402 C360 0.948 . S
H403 C378 0.979 . S
H404 C378 0.980 . S
H405 C378 0.983 . S
H406 C377 1.040 . S
H407 C377 0.978 . S
H408 C377 0.973 1_545 S
H409 C379 0.948 . S
H410 C381 0.947 . S
H411 C382 0.948 . S
H412 C388 1.039 . S
H413 C388 0.978 . S
H414 C388 0.973 1_546 S
H415 C389 0.979 . S
H416 C389 0.980 1_556 S
H417 C389 0.983 . S
H418 C362 0.947 . S
C419 C362 1.392 . S
C419 C363 1.419 . S
C419 H401 0.948 . S
C420 C421 1.391 . S
C420 C424 1.391 . S
C420 H462 0.948 . S
C421 C420 1.391 . S
C421 C422 1.391 . S
C422 C421 1.391 . S
C422 H478 0.947 . S
C422 C479 1.392 . S
C423 C424 1.391 . S
C423 C427 1.397 . S
C423 C479 1.419 . S
C424 C420 1.391 . S
C424 C423 1.391 . S
C424 C425 1.399 . S
C425 C424 1.399 . S
C425 C428 1.396 . S
C425 C437 1.453 . S
C425 C438 1.684 . S
H426 C450 0.948 . S
C427 C423 1.397 . S
C427 C428 1.394 . S
C427 C446 1.723 1_556 S
C428 C425 1.396 . S
C428 C427 1.394 . S
C428 C458 1.723 1_556 S
H429 C452 0.947 1_556 S
H430 C453 0.950 1_556 S
H431 C459 0.982 . S
H432 C460 0.979 . S
H433 C460 0.980 . S
H434 C460 0.983 . S
H435 C459 0.979 . S
H436 C459 0.977 . S
C437 C425 1.453 . S
C437 H466 0.982 . S
C437 H467 0.979 . S
C437 H468 0.977 . S
C438 C425 1.684 . S
C438 H463 0.979 . S
C438 H464 0.980 . S
C438 H465 0.983 . S
C439 C440 1.391 . S
C439 C444 1.391 . S
C439 H469 0.948 . S
C440 C439 1.391 . S
C440 C441 1.391 . S
C441 C440 1.391 . S
C441 C442 1.392 . S
C441 H470 0.947 . S
C442 C441 1.392 . S
C442 C443 1.419 . S
C442 H471 0.948 . S
C443 C442 1.419 . S
C443 C444 1.391 . S
C443 C447 1.397 . S
C444 C439 1.391 . S
C444 C443 1.391 . S
C444 C445 1.399 . S
C445 C444 1.399 . S
C445 C446 1.396 . S
C445 C448 1.453 . S
C445 C449 1.684 . S
C446 C427 1.723 1_554 S
C446 C445 1.396 . S
C446 C447 1.394 . S
C447 C443 1.397 . S
C447 C446 1.394 . S
C447 C457 1.723 . S
C448 C445 1.453 . S
C448 H472 0.982 . S
C448 H473 0.979 . S
C448 H474 0.977 1_554 S
C449 C445 1.684 . S
C449 H475 0.979 . S
C449 H476 0.980 1_554 S
C449 H477 0.983 . S
C450 H426 0.948 . S
C450 C451 1.391 . S
C450 C455 1.391 . S
C451 C450 1.391 . S
C451 C452 1.391 . S
C452 H429 0.947 1_554 S
C452 C451 1.391 . S
C452 C453 1.391 . S
C453 H430 0.950 1_554 S
C453 C452 1.391 . S
C453 C454 1.418 . S
C454 C453 1.418 . S
C454 C455 1.391 . S
C454 C458 1.397 . S
C455 C450 1.391 . S
C455 C454 1.391 . S
C455 C456 1.399 . S
C456 C455 1.399 . S
C456 C457 1.396 . S
C456 C459 1.453 . S
C456 C460 1.684 . S
C457 C447 1.723 . S
C457 C456 1.396 . S
C457 C458 1.394 . S
C458 C428 1.723 1_554 S
C458 C454 1.397 . S
C458 C457 1.394 . S
C459 H431 0.982 . S
C459 H435 0.979 . S
C459 H436 0.977 . S
C459 C456 1.453 . S
C460 H432 0.979 . S
C460 H433 0.980 . S
C460 H434 0.983 . S
C460 C456 1.684 . S
H461 C479 0.948 . S
H462 C420 0.948 . S
H463 C438 0.979 . S
H464 C438 0.980 . S
H465 C438 0.983 . S
H466 C437 0.982 . S
H467 C437 0.979 . S
H468 C437 0.977 . S
H469 C439 0.948 . S
H470 C441 0.947 . S
H471 C442 0.948 . S
H472 C448 0.982 . S
H473 C448 0.979 . S
H474 C448 0.977 1_556 S
H475 C449 0.979 . S
H476 C449 0.980 1_556 S
H477 C449 0.983 . S
H478 C422 0.947 . S
C479 C422 1.392 . S
C479 C423 1.419 . S
C479 H461 0.948 . S
Ho480 C483 2.811 . S
Ho480 O500 2.322 . S
Ho480 O502 2.378 . S
Ho480 O503 2.543 . S
Ho480 O504 2.381 . S
Ho480 O505 2.669 1_565 S
Ho480 O507 2.346 1_565 S
Ho480 O511 2.305 1_455 S
Ho481 C492 2.811 . S
Ho481 O501 2.346 1_545 S
Ho481 O505 2.305 1_655 S
Ho481 O506 2.322 . S
Ho481 O508 2.378 . S
Ho481 O509 2.537 . S
Ho481 O510 2.381 . S
Ho481 O511 2.669 1_545 S
C482 O500 1.259 1_655 S
C482 O501 1.268 . S
C483 Ho480 2.811 . S
C483 C484 1.488 . S
C483 O502 1.215 . S
C483 O503 1.335 . S
C484 C483 1.488 . S
C484 C485 1.348 . S
C484 C489 1.413 . S
C485 C484 1.348 . S
C485 C486 1.442 . S
C485 H512 0.930 1_455 S
C486 C485 1.442 . S
C486 C487 1.381 . S
C486 H513 0.931 1_455 S
C487 C486 1.381 . S
C487 C488 1.321 . S
C488 C487 1.321 . S
C488 C489 1.403 . S
C488 H514 0.934 . S
C489 C484 1.413 . S
C489 C488 1.403 . S
C489 H515 0.930 . S
C490 O504 1.275 1_545 S
C490 O505 1.256 . S
C491 O506 1.259 1_455 S
C491 O507 1.268 . S
C492 Ho481 2.811 . S
C492 C493 1.488 . S
C492 O508 1.215 . S
C492 O509 1.321 . S
C493 C492 1.488 . S
C493 C494 1.348 . S
C493 C498 1.413 . S
C494 C493 1.348 . S
C494 C495 1.442 . S
C494 H516 0.930 1_655 S
C495 C494 1.442 . S
C495 C496 1.381 . S
C495 H517 0.931 1_655 S
C496 C495 1.381 . S
C496 C497 1.321 . S
C497 C496 1.321 . S
C497 C498 1.403 . S
C497 H518 0.934 . S
C498 C493 1.413 . S
C498 C497 1.403 . S
C498 H519 0.930 . S
C499 O510 1.275 . S
C499 O511 1.256 1_545 S
O500 Ho480 2.322 . S
O500 C482 1.259 1_455 S
O501 Ho481 2.346 1_565 S
O501 C482 1.268 . S
O502 Ho480 2.378 . S
O502 C483 1.215 . S
O503 Ho480 2.543 . S
O503 C483 1.335 . S
O504 Ho480 2.381 . S
O504 C490 1.275 1_565 S
O505 Ho480 2.669 1_545 S
O505 Ho481 2.305 1_455 S
O505 C490 1.256 . S
O506 Ho481 2.322 . S
O506 C491 1.259 1_655 S
O507 Ho480 2.346 1_545 S
O507 C491 1.268 . S
O508 Ho481 2.378 . S
O508 C492 1.215 . S
O509 Ho481 2.537 . S
O509 C492 1.321 . S
O510 Ho481 2.381 . S
O510 C499 1.275 . S
O511 Ho480 2.305 1_655 S
O511 Ho481 2.669 1_565 S
O511 C499 1.256 1_565 S
H512 C485 0.930 1_655 S
H513 C486 0.931 1_655 S
H514 C488 0.934 . S
H515 C489 0.930 . S
H516 C494 0.930 1_455 S
H517 C495 0.931 1_455 S
H518 C497 0.934 . S
H519 C498 0.930 . S
Ho520 C523 2.811 . S
Ho520 O540 2.322 . S
Ho520 O542 2.378 . S
Ho520 O543 2.524 . S
Ho520 O544 2.381 . S
Ho520 O545 2.669 . S
Ho520 O547 2.346 . S
Ho520 O551 2.305 1_545 S
Ho521 C532 2.811 . S
Ho521 O541 2.346 . S
Ho521 O545 2.305 1_565 S
Ho521 O546 2.322 . S
Ho521 O548 2.378 . S
Ho521 O549 2.524 1_565 S
Ho521 O550 2.381 . S
Ho521 O551 2.669 . S
C522 O540 1.259 1_565 S
C522 O541 1.268 . S
C523 Ho520 2.811 . S
C523 C524 1.488 . S
C523 O542 1.215 . S
C523 O543 1.289 . S
C524 C523 1.488 . S
C524 C525 1.348 . S
C524 C529 1.413 . S
C525 C524 1.348 . S
C525 C526 1.442 . S
C525 H552 0.930 1_545 S
C526 C525 1.442 . S
C526 C527 1.381 . S
C526 H553 0.931 1_545 S
C527 C526 1.381 . S
C527 C528 1.321 . S
C528 C527 1.321 . S
C528 C529 1.403 . S
C528 H554 0.934 . S
C529 C524 1.413 . S
C529 C528 1.403 . S
C529 H555 0.930 . S
C530 O544 1.275 . S
C530 O545 1.256 . S
C531 O546 1.259 1_545 S
C531 O547 1.268 . S
C532 Ho521 2.811 . S
C532 C533 1.488 . S
C532 O548 1.215 . S
C532 O549 1.289 1_565 S
C533 C532 1.488 . S
C533 C534 1.304 1_565 S
C533 C538 1.413 . S
C534 C533 1.304 1_545 S
C534 C535 1.437 1_545 S
C534 H556 0.981 . S
C535 C534 1.437 1_565 S
C535 C536 1.381 . S
C535 H557 0.931 1_565 S
C536 C535 1.381 . S
C536 C537 1.321 . S
C537 C536 1.321 . S
C537 C538 1.403 . S
C537 H558 0.934 . S
C538 C533 1.413 . S
C538 C537 1.403 . S
C538 H559 0.930 . S
C539 O550 1.275 . S
C539 O551 1.256 . S
O540 Ho520 2.322 . S
O540 C522 1.259 1_545 S
O541 Ho521 2.346 . S
O541 C522 1.268 . S
O542 Ho520 2.378 . S
O542 C523 1.215 . S
O543 Ho520 2.524 . S
O543 C523 1.289 . S
O544 Ho520 2.381 . S
O544 C530 1.275 . S
O545 Ho520 2.669 . S
O545 Ho521 2.305 1_545 S
O545 C530 1.256 . S
O546 Ho521 2.322 . S
O546 C531 1.259 1_565 S
O547 Ho520 2.346 . S
O547 C531 1.268 . S
O548 Ho521 2.378 . S
O548 C532 1.215 . S
O549 Ho521 2.524 1_545 S
O549 C532 1.289 1_545 S
O550 Ho521 2.381 . S
O550 C539 1.275 . S
O551 Ho520 2.305 1_565 S
O551 Ho521 2.669 . S
O551 C539 1.256 . S
H552 C525 0.930 1_565 S
H553 C526 0.931 1_565 S
H554 C528 0.934 . S
H555 C529 0.930 . S
H556 C534 0.981 . S
H557 C535 0.931 1_545 S
H558 C537 0.934 . S
H559 C538 0.930 . S
Ho560 C563 2.811 . S
Ho560 O580 2.322 . S
Ho560 O582 2.378 . S
Ho560 O583 2.524 . S
Ho560 O584 2.381 . S
Ho560 O585 2.669 . S
Ho560 O587 2.346 . S
Ho560 O591 2.305 . S
Ho561 C572 2.811 . S
Ho561 O581 2.346 . S
Ho561 O585 2.305 . S
Ho561 O586 2.322 . S
Ho561 O588 2.378 . S
Ho561 O589 2.524 . S
Ho561 O590 2.381 . S
Ho561 O591 2.669 . S
C562 O580 1.259 . S
C562 O581 1.268 . S
C563 Ho560 2.811 . S
C563 C564 1.488 . S
C563 O582 1.215 . S
C563 O583 1.289 . S
C564 C563 1.488 . S
C564 C565 1.348 . S
C564 C569 1.413 . S
C565 C564 1.348 . S
C565 C566 1.442 . S
C565 H592 0.930 . S
C566 C565 1.442 . S
C566 C567 1.381 . S
C566 H593 0.931 . S
C567 C566 1.381 . S
C567 C568 1.321 . S
C568 C567 1.321 . S
C568 C569 1.403 . S
C568 H594 0.934 . S
C569 C564 1.413 . S
C569 C568 1.403 . S
C569 H595 0.930 . S
C570 O584 1.275 . S
C570 O585 1.256 . S
C571 O586 1.259 . S
C571 O587 1.268 . S
C572 Ho561 2.811 . S
C572 C573 1.488 . S
C572 O588 1.215 . S
C572 O589 1.289 . S
C573 C572 1.488 . S
C573 C574 1.348 . S
C573 C578 1.413 . S
C574 C573 1.348 . S
C574 C575 1.442 . S
C574 H596 0.930 . S
C575 C574 1.442 . S
C575 C576 1.381 . S
C575 H597 0.931 . S
C576 C575 1.381 . S
C576 C577 1.321 . S
C577 C576 1.321 . S
C577 C578 1.403 . S
C577 H598 0.934 . S
C578 C573 1.413 . S
C578 C577 1.403 . S
C578 H599 0.930 . S
C579 O590 1.275 . S
C579 O591 1.256 . S
O580 Ho560 2.322 . S
O580 C562 1.259 . S
O581 Ho561 2.346 . S
O581 C562 1.268 . S
O582 Ho560 2.378 . S
O582 C563 1.215 . S
O583 Ho560 2.524 . S
O583 C563 1.289 . S
O584 Ho560 2.381 . S
O584 C570 1.275 . S
O585 Ho560 2.669 . S
O585 Ho561 2.305 . S
O585 C570 1.256 . S
O586 Ho561 2.322 . S
O586 C571 1.259 . S
O587 Ho560 2.346 . S
O587 C571 1.268 . S
O588 Ho561 2.378 . S
O588 C572 1.215 . S
O589 Ho561 2.524 . S
O589 C572 1.289 . S
O590 Ho561 2.381 . S
O590 C579 1.275 . S
O591 Ho560 2.305 . S
O591 Ho561 2.669 . S
O591 C579 1.256 . S
H592 C565 0.930 . S
H593 C566 0.931 . S
H594 C568 0.934 . S
H595 C569 0.930 . S
H596 C574 0.930 . S
H597 C575 0.931 . S
H598 C577 0.934 . S
H599 C578 0.930 . S
Ho600 C603 2.811 . S
Ho600 O620 2.322 . S
Ho600 O622 2.378 . S
Ho600 O623 2.524 . S
Ho600 O624 2.381 . S
Ho600 O625 2.669 1_655 S
Ho600 O627 2.346 1_655 S
Ho600 O631 2.305 . S
Ho601 C612 2.811 . S
Ho601 O621 2.346 1_455 S
Ho601 O625 2.305 . S
Ho601 O626 2.322 . S
Ho601 O628 2.378 . S
Ho601 O629 2.524 . S
Ho601 O630 2.381 . S
Ho601 O631 2.669 1_455 S
C602 O620 1.259 . S
C602 O621 1.268 . S
C603 Ho600 2.811 . S
C603 C604 1.488 . S
C603 O622 1.215 . S
C603 O623 1.289 . S
C604 C603 1.488 . S
C604 C605 1.348 . S
C604 C609 1.413 . S
C605 C604 1.348 . S
C605 C606 1.442 . S
C605 H632 0.930 . S
C606 C605 1.442 . S
C606 C607 1.381 . S
C606 H633 0.931 . S
C607 C606 1.381 . S
C607 C608 1.321 . S
C608 C607 1.321 . S
C608 C609 1.403 . S
C608 H634 0.934 . S
C609 C604 1.413 . S
C609 C608 1.403 . S
C609 H635 0.930 . S
C610 O624 1.275 . S
C610 O625 1.256 1_655 S
C611 O626 1.259 . S
C611 O627 1.268 . S
C612 Ho601 2.811 . S
C612 C613 1.488 . S
C612 O628 1.215 . S
C612 O629 1.289 . S
C613 C612 1.488 . S
C613 C614 1.348 . S
C613 C618 1.413 . S
C614 C613 1.348 . S
C614 C615 1.442 . S
C614 H636 0.930 . S
C615 C614 1.442 . S
C615 C616 1.381 . S
C615 H637 0.931 . S
C616 C615 1.381 . S
C616 C617 1.321 . S
C617 C616 1.321 . S
C617 C618 1.403 . S
C617 H638 0.934 . S
C618 C613 1.413 . S
C618 C617 1.403 . S
C618 H639 0.930 . S
C619 O630 1.275 . S
C619 O631 1.256 1_455 S
O620 Ho600 2.322 . S
O620 C602 1.259 . S
O621 Ho601 2.346 1_655 S
O621 C602 1.268 . S
O622 Ho600 2.378 . S
O622 C603 1.215 . S
O623 Ho600 2.524 . S
O623 C603 1.289 . S
O624 Ho600 2.381 . S
O624 C610 1.275 . S
O625 Ho600 2.669 1_455 S
O625 Ho601 2.305 . S
O625 C610 1.256 1_455 S
O626 Ho601 2.322 . S
O626 C611 1.259 . S
O627 Ho600 2.346 1_455 S
O627 C611 1.268 . S
O628 Ho601 2.378 . S
O628 C612 1.215 . S
O629 Ho601 2.524 . S
O629 C612 1.289 . S
O630 Ho601 2.381 . S
O630 C619 1.275 . S
O631 Ho600 2.305 . S
O631 Ho601 2.669 1_655 S
O631 C619 1.256 1_655 S
H632 C605 0.930 . S
H633 C606 0.931 . S
H634 C608 0.934 . S
H635 C609 0.930 . S
H636 C614 0.930 . S
H637 C615 0.931 . S
H638 C617 0.934 . S
H639 C618 0.930 . S
C640 C641 1.349 1_565 S
C640 C642 1.327 . S
C640 H665 0.950 . S
C641 C640 1.349 1_545 S
C641 C657 1.349 . S
C642 C640 1.327 . S
C642 C661 1.429 1_565 S
C642 H666 0.950 . S
C643 C660 1.574 . S
C643 C662 1.368 . S
C643 H667 0.949 . S
H644 C648 0.949 . S
C645 C646 1.349 . S
C645 C647 1.327 . S
C645 H668 0.950 . S
C646 C645 1.349 . S
C646 C658 1.349 1_545 S
C647 C645 1.327 . S
C647 C663 1.429 . S
C647 H669 0.950 . S
C648 H644 0.949 . S
C648 C656 1.574 . S
C648 C664 1.368 1_565 S
H649 C657 0.950 . S
H650 C655 0.950 . S
H651 C656 0.949 . S
H652 C658 0.950 . S
H653 C659 0.950 . S
H654 C660 0.949 . S
C655 H650 0.950 . S
C655 C657 1.327 . S
C655 C661 1.429 . S
C656 C648 1.574 . S
C656 H651 0.949 . S
C656 C662 1.368 1_565 S
C657 C641 1.349 . S
C657 H649 0.950 . S
C657 C655 1.327 . S
C658 C646 1.349 1_565 S
C658 H652 0.950 . S
C658 C659 1.327 . S
C659 H653 0.950 . S
C659 C658 1.327 . S
C659 C663 1.429 1_565 S
C660 C643 1.574 . S
C660 H654 0.949 . S
C660 C664 1.368 . S
C661 C642 1.429 1_545 S
C661 C655 1.429 . S
C661 C662 1.523 . S
C662 C643 1.368 . S
C662 C656 1.368 1_545 S
C662 C661 1.523 . S
C663 C647 1.429 . S
C663 C659 1.429 1_545 S
C663 C664 1.523 . S
C664 C648 1.368 1_545 S
C664 C660 1.368 . S
C664 C663 1.523 . S
H665 C640 0.950 . S
H666 C642 0.950 . S
H667 C643 0.949 . S
H668 C645 0.950 . S
H669 C647 0.950 . S
C670 C671 1.349 . S
C670 C672 1.327 . S
C670 H695 0.950 . S
C671 C670 1.349 . S
C671 C687 1.349 . S
C672 C670 1.327 . S
C672 C691 1.429 . S
C672 H696 0.950 . S
C673 C690 1.574 . S
C673 C692 1.368 . S
C673 H697 0.949 . S
H674 C678 0.949 . S
C675 C676 1.349 . S
C675 C677 1.327 . S
C675 H698 0.950 . S
C676 C675 1.349 . S
C676 C688 1.349 . S
C677 C675 1.327 . S
C677 C693 1.429 . S
C677 H699 0.950 . S
C678 H674 0.949 . S
C678 C686 1.574 . S
C678 C694 1.368 . S
H679 C687 0.950 . S
H680 C685 0.950 . S
H681 C686 0.949 . S
H682 C688 0.950 . S
H683 C689 0.950 . S
H684 C690 0.949 . S
C685 H680 0.950 . S
C685 C687 1.327 . S
C685 C691 1.429 . S
C686 C678 1.574 . S
C686 H681 0.949 . S
C686 C692 1.368 . S
C687 C671 1.349 . S
C687 H679 0.950 . S
C687 C685 1.327 . S
C688 C676 1.349 . S
C688 H682 0.950 . S
C688 C689 1.327 . S
C689 H683 0.950 . S
C689 C688 1.327 . S
C689 C693 1.429 . S
C690 C673 1.574 . S
C690 H684 0.949 . S
C690 C694 1.368 . S
C691 C672 1.429 . S
C691 C685 1.429 . S
C691 C692 1.523 . S
C692 C673 1.368 . S
C692 C686 1.368 . S
C692 C691 1.523 . S
C693 C677 1.429 . S
C693 C689 1.429 . S
C693 C694 1.523 . S
C694 C678 1.368 . S
C694 C690 1.368 . S
C694 C693 1.523 . S
H695 C670 0.950 . S
H696 C672 0.950 . S
H697 C673 0.949 . S
H698 C675 0.950 . S
H699 C677 0.950 . S
C700 C701 1.349 . S
C700 C702 1.327 . S
C700 H725 0.950 . S
C701 C700 1.349 . S
C701 C717 1.349 . S
C702 C700 1.327 . S
C702 C721 1.429 . S
C702 H726 0.950 . S
C703 C720 1.574 . S
C703 C722 1.368 . S
C703 H727 0.949 . S
H704 C708 0.949 . S
C705 C706 1.349 . S
C705 C707 1.327 . S
C705 H728 0.950 . S
C706 C705 1.349 . S
C706 C718 1.349 . S
C707 C705 1.327 . S
C707 C723 1.429 . S
C707 H729 0.950 . S
C708 H704 0.949 . S
C708 C716 1.574 . S
C708 C724 1.368 . S
H709 C717 0.950 . S
H710 C715 0.950 . S
H711 C716 0.949 . S
H712 C718 0.950 . S
H713 C719 0.950 . S
H714 C720 0.949 . S
C715 H710 0.950 . S
C715 C717 1.327 . S
C715 C721 1.429 . S
C716 C708 1.574 . S
C716 H711 0.949 . S
C716 C722 1.368 . S
C717 C701 1.349 . S
C717 H709 0.950 . S
C717 C715 1.327 . S
C718 C706 1.349 . S
C718 H712 0.950 . S
C718 C719 1.327 . S
C719 H713 0.950 . S
C719 C718 1.327 . S
C719 C723 1.429 . S
C720 C703 1.574 . S
C720 H714 0.949 . S
C720 C724 1.368 . S
C721 C702 1.429 . S
C721 C715 1.429 . S
C721 C722 1.523 . S
C722 C703 1.368 . S
C722 C716 1.368 . S
C722 C721 1.523 . S
C723 C707 1.429 . S
C723 C719 1.429 . S
C723 C724 1.523 . S
C724 C708 1.368 . S
C724 C720 1.368 . S
C724 C723 1.523 . S
H725 C700 0.950 . S
H726 C702 0.950 . S
H727 C703 0.949 . S
H728 C705 0.950 . S
H729 C707 0.950 . S
C730 C731 1.353 . S
C730 C732 1.327 . S
C730 H755 0.950 . S
C731 C730 1.353 . S
C731 C747 1.344 1_455 S
C732 C730 1.327 . S
C732 C751 1.443 . S
C732 H756 0.950 . S
C733 C750 1.574 . S
C733 C752 1.347 1_655 S
C733 H757 0.949 . S
H734 C738 0.949 . S
C735 C736 1.304 1_655 S
C735 C737 1.327 . S
C735 H758 0.950 . S
C736 C735 1.304 1_455 S
C736 C748 1.394 . S
C737 C735 1.327 . S
C737 C753 1.395 1_655 S
C737 H759 0.950 . S
C738 H734 0.949 . S
C738 C746 1.574 . S
C738 C754 1.400 . S
H739 C747 0.950 . S
H740 C745 0.950 . S
H741 C746 0.949 . S
H742 C748 0.950 . S
H743 C749 0.950 . S
H744 C750 0.949 . S
C745 H740 0.950 . S
C745 C747 1.327 . S
C745 C751 1.415 1_655 S
C746 C738 1.574 . S
C746 H741 0.949 . S
C746 C752 1.390 . S
C747 C731 1.344 1_655 S
C747 H739 0.950 . S
C747 C745 1.327 . S
C748 C736 1.394 . S
C748 H742 0.950 . S
C748 C749 1.327 . S
C749 H743 0.950 . S
C749 C748 1.327 . S
C749 C753 1.463 . S
C750 C733 1.574 . S
C750 H744 0.949 . S
C750 C754 1.337 1_655 S
C751 C732 1.443 . S
C751 C745 1.415 1_455 S
C751 C752 1.523 . S
C752 C733 1.347 1_455 S
C752 C746 1.390 . S
C752 C751 1.523 . S
C753 C737 1.395 1_455 S
C753 C749 1.463 . S
C753 C754 1.523 . S
C754 C738 1.400 . S
C754 C750 1.337 1_455 S
C754 C753 1.523 . S
H755 C730 0.950 . S
H756 C732 0.950 . S
H757 C733 0.949 . S
H758 C735 0.950 . S
H759 C737 0.950 . S
C760 C761 1.349 . S
C760 C762 1.327 . S
C760 H785 0.950 . S
C761 C760 1.349 . S
C761 C777 1.349 1_565 S
C762 C760 1.327 . S
C762 C781 1.429 . S
C762 H786 0.950 . S
C763 C780 1.574 1_554 S
C763 C782 1.368 1_545 S
C763 H787 0.949 . S
H764 C768 0.949 . S
C765 C766 1.369 . S
C765 C767 1.327 . S
C765 H788 0.950 . S
C766 C765 1.369 . S
C766 C778 1.329 1_545 S
C767 C765 1.327 . S
C767 C783 1.397 1_545 S
C767 H789 0.950 . S
C768 H764 0.949 . S
C768 C776 1.574 . S
C768 C784 1.368 . S
H769 C777 0.950 . S
H770 C775 0.950 . S
H771 C776 0.949 1_554 S
H772 C778 0.950 . S
H773 C779 0.950 . S
H774 C780 0.949 . S
C775 H770 0.950 . S
C775 C777 1.327 . S
C775 C781 1.429 1_545 S
C776 C768 1.574 . S
C776 H771 0.949 1_556 S
C776 C782 1.368 1_556 S
C777 C761 1.349 1_545 S
C777 H769 0.950 . S
C777 C775 1.327 . S
C778 C766 1.329 1_565 S
C778 H772 0.950 . S
C778 C779 1.327 . S
C779 H773 0.950 . S
C779 C778 1.327 . S
C779 C783 1.459 . S
C780 C763 1.574 1_556 S
C780 H774 0.949 . S
C780 C784 1.368 1_545 S
C781 C762 1.429 . S
C781 C775 1.429 1_565 S
C781 C782 1.523 . S
C782 C763 1.368 1_565 S
C782 C776 1.368 1_554 S
C782 C781 1.523 . S
C783 C767 1.397 1_565 S
C783 C779 1.459 . S
C783 C784 1.525 . S
C784 C768 1.368 . S
C784 C780 1.368 1_565 S
C784 C783 1.525 . S
H785 C760 0.950 . S
H786 C762 0.950 . S
H787 C763 0.949 . S
H788 C765 0.950 . S
H789 C767 0.950 . S
C790 C791 1.349 . S
C790 C792 1.327 . S
C790 H815 0.950 . S
C791 C790 1.349 . S
C791 C807 1.349 . S
C792 C790 1.327 . S
C792 C811 1.429 . S
C792 H816 0.950 . S
C793 C810 1.574 . S
C793 C812 1.368 1_556 S
C793 H817 0.949 . S
H794 C798 0.949 . S
C795 C796 1.349 . S
C795 C797 1.327 . S
C795 H818 0.950 . S
C796 C795 1.349 . S
C796 C808 1.349 . S
C797 C795 1.327 . S
C797 C813 1.429 . S
C797 H819 0.950 . S
C798 H794 0.949 . S
C798 C806 1.574 1_556 S
C798 C814 1.368 . S
H799 C807 0.950 . S
H800 C805 0.950 . S
H801 C806 0.949 . S
H802 C808 0.950 . S
H803 C809 0.950 . S
H804 C810 0.949 . S
C805 H800 0.950 . S
C805 C807 1.327 . S
C805 C811 1.429 . S
C806 C798 1.574 1_554 S
C806 H801 0.949 . S
C806 C812 1.368 . S
C807 C791 1.349 . S
C807 H799 0.950 . S
C807 C805 1.327 . S
C808 C796 1.349 . S
C808 H802 0.950 . S
C808 C809 1.327 . S
C809 H803 0.950 . S
C809 C808 1.327 . S
C809 C813 1.429 . S
C810 C793 1.574 . S
C810 H804 0.949 . S
C810 C814 1.368 . S
C811 C792 1.429 . S
C811 C805 1.429 . S
C811 C812 1.523 . S
C812 C793 1.368 1_554 S
C812 C806 1.368 . S
C812 C811 1.523 . S
C813 C797 1.429 . S
C813 C809 1.429 . S
C813 C814 1.523 . S
C814 C798 1.368 . S
C814 C810 1.368 . S
C814 C813 1.523 . S
H815 C790 0.950 . S
H816 C792 0.950 . S
H817 C793 0.949 . S
H818 C795 0.950 . S
H819 C797 0.950 . S
C820 C821 1.349 . S
C820 C822 1.327 . S
C820 H845 0.950 . S
C821 C820 1.349 . S
C821 C837 1.349 . S
C822 C820 1.327 . S
C822 C841 1.429 . S
C822 H846 0.950 . S
C823 C840 1.574 1_554 S
C823 C842 1.368 . S
C823 H847 0.949 . S
H824 C828 0.949 . S
C825 C826 1.349 . S
C825 C827 1.327 . S
C825 H848 0.950 . S
C826 C825 1.349 . S
C826 C838 1.349 . S
C827 C825 1.327 . S
C827 C843 1.429 . S
C827 H849 0.950 . S
C828 H824 0.949 . S
C828 C836 1.574 . S
C828 C844 1.368 . S
H829 C837 0.950 . S
H830 C835 0.950 . S
H831 C836 0.949 . S
H832 C838 0.950 . S
H833 C839 0.950 . S
H834 C840 0.949 . S
C835 H830 0.950 . S
C835 C837 1.327 . S
C835 C841 1.429 . S
C836 C828 1.574 . S
C836 H831 0.949 . S
C836 C842 1.368 1_556 S
C837 C821 1.349 . S
C837 H829 0.950 . S
C837 C835 1.327 . S
C838 C826 1.349 . S
C838 H832 0.950 . S
C838 C839 1.327 . S
C839 H833 0.950 . S
C839 C838 1.327 . S
C839 C843 1.429 . S
C840 C823 1.574 1_556 S
C840 H834 0.949 . S
C840 C844 1.368 . S
C841 C822 1.429 . S
C841 C835 1.429 . S
C841 C842 1.523 . S
C842 C823 1.368 . S
C842 C836 1.368 1_554 S
C842 C841 1.523 . S
C843 C827 1.429 . S
C843 C839 1.429 . S
C843 C844 1.523 . S
C844 C828 1.368 . S
C844 C840 1.368 . S
C844 C843 1.523 . S
H845 C820 0.950 . S
H846 C822 0.950 . S
H847 C823 0.949 . S
H848 C825 0.950 . S
H849 C827 0.950 . S
C850 C851 1.346 1_455 S
C850 C852 1.327 . S
C850 H875 0.950 . S
C851 C850 1.346 1_655 S
C851 C867 1.351 . S
C852 C850 1.327 . S
C852 C871 1.421 1_455 S
C852 H876 0.950 . S
C853 C870 1.574 1_554 S
C853 C872 1.380 . S
C853 H877 0.949 . S
H854 C858 0.949 . S
C855 C856 1.374 . S
C855 C857 1.327 . S
C855 H878 0.950 . S
C856 C855 1.374 . S
C856 C868 1.325 1_655 S
C857 C855 1.327 . S
C857 C873 1.448 . S
C857 H879 0.950 . S
C858 H854 0.949 . S
C858 C866 1.574 . S
C858 C874 1.351 1_455 S
H859 C867 0.950 . S
H860 C865 0.950 . S
H861 C866 0.949 . S
H862 C868 0.950 . S
H863 C869 0.950 . S
H864 C870 0.949 . S
C865 H860 0.950 . S
C865 C867 1.327 . S
C865 C871 1.436 . S
C866 C858 1.574 . S
C866 H861 0.949 . S
C866 C872 1.357 1_456 S
C867 C851 1.351 . S
C867 H859 0.950 . S
C867 C865 1.327 . S
C868 C856 1.325 1_455 S
C868 H862 0.950 . S
C868 C869 1.327 . S
C869 H863 0.950 . S
C869 C868 1.327 . S
C869 C873 1.411 1_455 S
C870 C853 1.574 1_556 S
C870 H864 0.949 . S
C870 C874 1.386 . S
C871 C852 1.421 1_655 S
C871 C865 1.436 . S
C871 C872 1.523 . S
C872 C853 1.380 . S
C872 C866 1.357 1_654 S
C872 C871 1.523 . S
C873 C857 1.448 . S
C873 C869 1.411 1_655 S
C873 C874 1.523 . S
C874 C858 1.351 1_655 S
C874 C870 1.386 . S
C874 C873 1.523 . S
H875 C850 0.950 . S
H876 C852 0.950 . S
H877 C853 0.949 . S
H878 C855 0.950 . S
H879 C857 0.950 . S
C880 C881 1.349 . S
C880 C882 1.327 . S
C880 H905 0.950 . S
C881 C880 1.349 . S
C881 C897 1.349 1_455 S
C882 C880 1.327 . S
C882 C901 1.429 1_455 S
C882 H906 0.950 . S
C883 C900 1.574 . S
C883 C902 1.368 . S
C883 H907 0.949 . S
H884 C888 0.949 1_455 S
C885 C886 1.349 . S
C885 C887 1.327 . S
C885 H908 0.950 . S
C886 C885 1.349 . S
C886 C898 1.349 . S
C887 C885 1.327 . S
C887 C903 1.429 . S
C887 H909 0.950 . S
C888 H884 0.949 1_655 S
C888 C896 1.574 1_655 S
C888 C904 1.368 . S
H889 C897 0.950 . S
H890 C895 0.950 . S
H891 C896 0.949 . S
H892 C898 0.950 . S
H893 C899 0.950 . S
H894 C900 0.949 . S
C895 H890 0.950 . S
C895 C897 1.327 . S
C895 C901 1.429 . S
C896 C888 1.574 1_455 S
C896 H891 0.949 . S
C896 C902 1.368 1_455 S
C897 C881 1.349 1_655 S
C897 H889 0.950 . S
C897 C895 1.327 . S
C898 C886 1.349 . S
C898 H892 0.950 . S
C898 C899 1.327 . S
C899 H893 0.950 . S
C899 C898 1.327 . S
C899 C903 1.429 . S
C900 C883 1.574 . S
C900 H894 0.949 . S
C900 C904 1.368 . S
C901 C882 1.429 1_655 S
C901 C895 1.429 . S
C901 C902 1.523 . S
C902 C883 1.368 . S
C902 C896 1.368 1_655 S
C902 C901 1.523 . S
C903 C887 1.429 . S
C903 C899 1.429 . S
C903 C904 1.523 . S
C904 C888 1.368 . S
C904 C900 1.368 . S
C904 C903 1.523 . S
H905 C880 0.950 . S
H906 C882 0.950 . S
H907 C883 0.949 . S
H908 C885 0.950 . S
H909 C887 0.950 . S
C910 C911 1.349 . S
C910 C912 1.327 . S
C910 H935 0.950 . S
C911 C910 1.349 . S
C911 C927 1.349 1_545 S
C912 C910 1.327 . S
C912 C931 1.429 . S
C912 H936 0.950 . S
C913 C930 1.574 . S
C913 C932 1.367 . S
C913 H937 0.949 . S
H914 C918 0.949 . S
C915 C916 1.349 . S
C915 C917 1.327 . S
C915 H938 0.950 . S
C916 C915 1.349 . S
C916 C928 1.349 . S
C917 C915 1.327 . S
C917 C933 1.429 . S
C917 H939 0.950 . S
C918 H914 0.949 . S
C918 C926 1.574 . S
C918 C934 1.368 1_545 S
H919 C927 0.950 . S
H920 C925 0.950 . S
H921 C926 0.949 . S
H922 C928 0.943 1_545 S
H923 C929 0.950 1_545 S
H924 C930 0.949 . S
C925 H920 0.950 . S
C925 C927 1.327 . S
C925 C931 1.429 1_565 S
C926 C918 1.574 . S
C926 H921 0.949 . S
C926 C932 1.370 1_545 S
C927 C911 1.349 1_565 S
C927 H919 0.950 . S
C927 C925 1.327 . S
C928 C916 1.349 . S
C928 H922 0.943 1_565 S
C928 C929 1.327 . S
C929 H923 0.950 1_565 S
C929 C928 1.327 . S
C929 C933 1.429 . S
C930 C913 1.574 . S
C930 H924 0.949 . S
C930 C934 1.368 . S
C931 C912 1.429 . S
C931 C925 1.429 1_545 S
C931 C932 1.523 1_545 S
C932 C913 1.367 . S
C932 C926 1.370 1_565 S
C932 C931 1.523 1_565 S
C933 C917 1.429 . S
C933 C929 1.429 . S
C933 C934 1.523 . S
C934 C918 1.368 1_565 S
C934 C930 1.368 . S
C934 C933 1.523 . S
H935 C910 0.950 . S
H936 C912 0.950 . S
H937 C913 0.949 . S
H938 C915 0.950 . S
H939 C917 0.950 . S
C940 C941 1.349 . S
C940 C942 1.327 . S
C940 H965 0.950 . S
C941 C940 1.349 . S
C941 C957 1.349 . S
C942 C940 1.327 . S
C942 C961 1.429 . S
C942 H966 0.950 . S
C943 C960 1.574 . S
C943 C962 1.368 . S
C943 H967 0.949 . S
H944 C948 0.949 . S
C945 C946 1.349 . S
C945 C947 1.327 . S
C945 H968 0.950 . S
C946 C945 1.349 . S
C946 C958 1.349 . S
C947 C945 1.327 . S
C947 C963 1.429 . S
C947 H969 0.950 . S
C948 H944 0.949 . S
C948 C956 1.574 . S
C948 C964 1.368 . S
H949 C957 0.950 . S
H950 C955 0.950 . S
H951 C956 0.949 . S
H952 C958 0.950 . S
H953 C959 0.950 . S
H954 C960 0.949 . S
C955 H950 0.950 . S
C955 C957 1.327 . S
C955 C961 1.429 . S
C956 C948 1.574 . S
C956 H951 0.949 . S
C956 C962 1.368 . S
C957 C941 1.349 . S
C957 H949 0.950 . S
C957 C955 1.327 . S
C958 C946 1.349 . S
C958 H952 0.950 . S
C958 C959 1.327 . S
C959 H953 0.950 . S
C959 C958 1.327 . S
C959 C963 1.429 . S
C960 C943 1.574 . S
C960 H954 0.949 . S
C960 C964 1.368 . S
C961 C942 1.429 . S
C961 C955 1.429 . S
C961 C962 1.523 . S
C962 C943 1.368 . S
C962 C956 1.368 . S
C962 C961 1.523 . S
C963 C947 1.429 . S
C963 C959 1.429 . S
C963 C964 1.523 . S
C964 C948 1.368 . S
C964 C960 1.368 . S
C964 C963 1.523 . S
H965 C940 0.950 . S
H966 C942 0.950 . S
H967 C943 0.949 . S
H968 C945 0.950 . S
H969 C947 0.950 . S
C970 C971 1.349 . S
C970 C972 1.327 . S
C970 H995 0.950 . S
C971 C970 1.349 . S
C971 C987 1.349 . S
C972 C970 1.327 . S
C972 C991 1.429 . S
C972 H996 0.950 . S
C973 C990 1.574 . S
C973 C992 1.368 . S
C973 H997 0.949 . S
H974 C978 0.949 . S
C975 C976 1.349 . S
C975 C977 1.327 . S
C975 H998 0.950 . S
C976 C975 1.349 . S
C976 C988 1.349 . S
C977 C975 1.327 . S
C977 C993 1.429 . S
C977 H999 0.950 . S
C978 H974 0.949 . S
C978 C986 1.574 . S
C978 C994 1.368 . S
H979 C987 0.950 . S
H980 C985 0.950 . S
H981 C986 0.949 . S
H982 C988 0.950 . S
H983 C989 0.950 . S
H984 C990 0.949 . S
C985 H980 0.950 . S
C985 C987 1.327 . S
C985 C991 1.429 . S
C986 C978 1.574 . S
C986 H981 0.949 . S
C986 C992 1.368 . S
C987 C971 1.349 . S
C987 H979 0.950 . S
C987 C985 1.327 . S
C988 C976 1.349 . S
C988 H982 0.950 . S
C988 C989 1.327 . S
C989 H983 0.950 . S
C989 C988 1.327 . S
C989 C993 1.429 . S
C990 C973 1.574 . S
C990 H984 0.949 . S
C990 C994 1.368 . S
C991 C972 1.429 . S
C991 C985 1.429 . S
C991 C992 1.523 . S
C992 C973 1.368 . S
C992 C986 1.368 . S
C992 C991 1.523 . S
C993 C977 1.429 . S
C993 C989 1.429 . S
C993 C994 1.523 . S
C994 C978 1.368 . S
C994 C990 1.368 . S
C994 C993 1.523 . S
H995 C970 0.950 . S
H996 C972 0.950 . S
H997 C973 0.949 . S
H998 C975 0.950 . S
H999 C977 0.950 . S
C1000 C1001 1.349 1_455 S
C1000 C1002 1.327 . S
C1000 H1025 0.950 . S
C1001 C1000 1.349 1_655 S
C1001 C1017 1.349 . S
C1002 C1000 1.327 . S
C1002 C1021 1.429 . S
C1002 H1026 0.950 . S
C1003 C1020 1.580 . S
C1003 C1022 1.384 1_556 S
C1003 H1027 0.930 1_455 S
H1004 C1008 0.949 . S
C1005 C1006 1.349 . S
C1005 C1007 1.327 . S
C1005 H1028 0.950 . S
C1006 C1005 1.349 . S
C1006 C1018 1.349 . S
C1007 C1005 1.327 . S
C1007 C1023 1.429 . S
C1007 H1029 0.950 . S
C1008 H1004 0.949 . S
C1008 C1016 1.574 . S
C1008 C1024 1.368 1_554 S
H1009 C1017 0.950 . S
H1010 C1015 0.950 1_556 S
H1011 C1016 0.949 . S
H1012 C1018 0.950 . S
H1013 C1019 0.950 . S
H1014 C1020 0.939 1_655 S
C1015 H1010 0.950 1_554 S
C1015 C1017 1.327 . S
C1015 C1021 1.429 1_655 S
C1016 C1008 1.574 . S
C1016 H1011 0.949 . S
C1016 C1022 1.368 . S
C1017 C1001 1.349 . S
C1017 H1009 0.950 . S
C1017 C1015 1.327 . S
C1018 C1006 1.349 . S
C1018 H1012 0.950 . S
C1018 C1019 1.327 . S
C1019 H1013 0.950 . S
C1019 C1018 1.327 . S
C1019 C1023 1.429 . S
C1020 C1003 1.580 . S
C1020 H1014 0.939 1_455 S
C1020 C1024 1.368 . S
C1021 C1002 1.429 . S
C1021 C1015 1.429 1_455 S
C1021 C1022 1.523 . S
C1022 C1003 1.384 1_554 S
C1022 C1016 1.368 . S
C1022 C1021 1.523 . S
C1023 C1007 1.429 . S
C1023 C1019 1.429 . S
C1023 C1024 1.523 . S
C1024 C1008 1.368 1_556 S
C1024 C1020 1.368 . S
C1024 C1023 1.523 . S
H1025 C1000 0.950 . S
H1026 C1002 0.950 . S
H1027 C1003 0.930 1_655 S
H1028 C1005 0.950 . S
H1029 C1007 0.950 . S
C1030 C1031 1.349 . S
C1030 C1032 1.327 . S
C1030 H1055 0.950 . S
C1031 C1030 1.349 . S
C1031 C1047 1.349 1_565 S
C1032 C1030 1.327 . S
C1032 C1051 1.429 1_565 S
C1032 H1056 0.950 . S
C1033 C1050 1.574 . S
C1033 C1052 1.368 1_556 S
C1033 H1057 0.949 . S
H1034 C1038 0.949 . S
C1035 C1036 1.349 . S
C1035 C1037 1.327 . S
C1035 H1058 0.950 . S
C1036 C1035 1.349 . S
C1036 C1048 1.349 . S
C1037 C1035 1.327 . S
C1037 C1053 1.429 . S
C1037 H1059 0.950 . S
C1038 H1034 0.949 . S
C1038 C1046 1.574 1_556 S
C1038 C1054 1.368 1_565 S
H1039 C1047 0.950 . S
H1040 C1045 0.950 . S
H1041 C1046 0.949 . S
H1042 C1048 0.950 . S
H1043 C1049 0.950 1_565 S
H1044 C1050 0.949 . S
C1045 H1040 0.950 . S
C1045 C1047 1.327 . S
C1045 C1051 1.429 . S
C1046 C1038 1.574 1_554 S
C1046 H1041 0.949 . S
C1046 C1052 1.368 1_565 S
C1047 C1031 1.349 1_545 S
C1047 H1039 0.950 . S
C1047 C1045 1.327 . S
C1048 C1036 1.349 . S
C1048 H1042 0.950 . S
C1048 C1049 1.327 . S
C1049 H1043 0.950 1_545 S
C1049 C1048 1.327 . S
C1049 C1053 1.429 . S
C1050 C1033 1.574 . S
C1050 H1044 0.949 . S
C1050 C1054 1.368 . S
C1051 C1032 1.429 1_545 S
C1051 C1045 1.429 . S
C1051 C1052 1.523 . S
C1052 C1033 1.368 1_554 S
C1052 C1046 1.368 1_545 S
C1052 C1051 1.523 . S
C1053 C1037 1.429 . S
C1053 C1049 1.429 . S
C1053 C1054 1.523 . S
C1054 C1038 1.368 1_545 S
C1054 C1050 1.368 . S
C1054 C1053 1.523 . S
H1055 C1030 0.950 . S
H1056 C1032 0.950 . S
H1057 C1033 0.949 . S
H1058 C1035 0.950 . S
H1059 C1037 0.950 . S
C1060 C1061 1.349 . S
C1060 C1062 1.327 . S
C1060 H1085 0.950 . S
C1061 C1060 1.349 . S
C1061 C1077 1.349 . S
C1062 C1060 1.327 . S
C1062 C1081 1.429 . S
C1062 H1086 0.950 . S
C1063 C1080 1.574 . S
C1063 C1082 1.368 1_556 S
C1063 H1087 0.949 . S
H1064 C1068 0.949 . S
C1065 C1066 1.349 . S
C1065 C1067 1.327 . S
C1065 H1088 0.950 . S
C1066 C1065 1.349 . S
C1066 C1078 1.349 . S
C1067 C1065 1.327 . S
C1067 C1083 1.429 . S
C1067 H1089 0.950 . S
C1068 H1064 0.949 . S
C1068 C1076 1.574 . S
C1068 C1084 1.368 1_554 S
H1069 C1077 0.950 . S
H1070 C1075 0.950 1_556 S
H1071 C1076 0.949 . S
H1072 C1078 0.950 . S
H1073 C1079 0.950 . S
H1074 C1080 0.949 . S
C1075 H1070 0.950 1_554 S
C1075 C1077 1.327 . S
C1075 C1081 1.429 . S
C1076 C1068 1.574 . S
C1076 H1071 0.949 . S
C1076 C1082 1.368 . S
C1077 C1061 1.349 . S
C1077 H1069 0.950 . S
C1077 C1075 1.327 . S
C1078 C1066 1.349 . S
C1078 H1072 0.950 . S
C1078 C1079 1.327 . S
C1079 H1073 0.950 . S
C1079 C1078 1.327 . S
C1079 C1083 1.429 . S
C1080 C1063 1.574 . S
C1080 H1074 0.949 . S
C1080 C1084 1.368 . S
C1081 C1062 1.429 . S
C1081 C1075 1.429 . S
C1081 C1082 1.523 . S
C1082 C1063 1.368 1_554 S
C1082 C1076 1.368 . S
C1082 C1081 1.523 . S
C1083 C1067 1.429 . S
C1083 C1079 1.429 . S
C1083 C1084 1.523 . S
C1084 C1068 1.368 1_556 S
C1084 C1080 1.368 . S
C1084 C1083 1.523 . S
H1085 C1060 0.950 . S
H1086 C1062 0.950 . S
H1087 C1063 0.949 . S
H1088 C1065 0.950 . S
H1089 C1067 0.950 . S
C1090 C1091 1.349 . S
C1090 C1092 1.327 . S
C1090 H1115 0.950 . S
C1091 C1090 1.349 . S
C1091 C1107 1.349 . S
C1092 C1090 1.327 . S
C1092 C1111 1.429 . S
C1092 H1116 0.950 . S
C1093 C1110 1.574 . S
C1093 C1112 1.368 1_556 S
C1093 H1117 0.949 . S
H1094 C1098 0.949 . S
C1095 C1096 1.349 . S
C1095 C1097 1.327 . S
C1095 H1118 0.950 . S
C1096 C1095 1.349 . S
C1096 C1108 1.349 . S
C1097 C1095 1.327 . S
C1097 C1113 1.429 . S
C1097 H1119 0.950 . S
C1098 H1094 0.949 . S
C1098 C1106 1.574 . S
C1098 C1114 1.368 1_554 S
H1099 C1107 0.950 . S
H1100 C1105 0.950 1_556 S
H1101 C1106 0.949 . S
H1102 C1108 0.950 . S
H1103 C1109 0.950 . S
H1104 C1110 0.949 . S
C1105 H1100 0.950 1_554 S
C1105 C1107 1.327 . S
C1105 C1111 1.429 . S
C1106 C1098 1.574 . S
C1106 H1101 0.949 . S
C1106 C1112 1.368 . S
C1107 C1091 1.349 . S
C1107 H1099 0.950 . S
C1107 C1105 1.327 . S
C1108 C1096 1.349 . S
C1108 H1102 0.950 . S
C1108 C1109 1.327 . S
C1109 H1103 0.950 . S
C1109 C1108 1.327 . S
C1109 C1113 1.429 . S
C1110 C1093 1.574 . S
C1110 H1104 0.949 . S
C1110 C1114 1.368 . S
C1111 C1092 1.429 . S
C1111 C1105 1.429 . S
C1111 C1112 1.523 . S
C1112 C1093 1.368 1_554 S
C1112 C1106 1.368 . S
C1112 C1111 1.523 . S
C1113 C1097 1.429 . S
C1113 C1109 1.429 . S
C1113 C1114 1.523 . S
C1114 C1098 1.368 1_556 S
C1114 C1110 1.368 . S
C1114 C1113 1.523 . S
H1115 C1090 0.950 . S
H1116 C1092 0.950 . S
H1117 C1093 0.949 . S
H1118 C1095 0.950 . S
H1119 C1097 0.950 . S
C1120 C1121 1.349 1_655 S
C1120 C1122 1.327 . S
C1120 H1145 0.950 . S
C1121 C1120 1.349 1_455 S
C1121 C1137 1.349 . S
C1122 C1120 1.327 . S
C1122 C1141 1.429 1_655 S
C1122 H1146 0.950 . S
C1123 C1140 1.574 . S
C1123 C1142 1.368 . S
C1123 H1147 0.949 . S
H1124 C1128 0.964 . S
C1125 C1126 1.349 . S
C1125 C1127 1.327 . S
C1125 H1148 0.950 . S
C1126 C1125 1.349 . S
C1126 C1138 1.349 . S
C1127 C1125 1.327 . S
C1127 C1143 1.429 . S
C1127 H1149 0.950 . S
C1128 H1124 0.964 . S
C1128 C1136 1.577 . S
C1128 C1144 1.352 1_655 S
H1129 C1137 0.950 . S
H1130 C1135 0.950 . S
H1131 C1136 0.949 . S
H1132 C1138 0.950 1_655 S
H1133 C1139 0.950 1_655 S
H1134 C1140 0.949 . S
C1135 H1130 0.950 . S
C1135 C1137 1.327 . S
C1135 C1141 1.429 . S
C1136 C1128 1.577 . S
C1136 H1131 0.949 . S
C1136 C1142 1.368 1_655 S
C1137 C1121 1.349 . S
C1137 H1129 0.950 . S
C1137 C1135 1.327 . S
C1138 C1126 1.349 . S
C1138 H1132 0.950 1_455 S
C1138 C1139 1.327 . S
C1139 H1133 0.950 1_455 S
C1139 C1138 1.327 . S
C1139 C1143 1.429 . S
C1140 C1123 1.574 . S
C1140 H1134 0.949 . S
C1140 C1144 1.368 . S
C1141 C1122 1.429 1_455 S
C1141 C1135 1.429 . S
C1141 C1142 1.523 . S
C1142 C1123 1.368 . S
C1142 C1136 1.368 1_455 S
C1142 C1141 1.523 . S
C1143 C1127 1.429 . S
C1143 C1139 1.429 . S
C1143 C1144 1.523 . S
C1144 C1128 1.352 1_455 S
C1144 C1140 1.368 . S
C1144 C1143 1.523 . S
H1145 C1120 0.950 . S
H1146 C1122 0.950 . S
H1147 C1123 0.949 . S
H1148 C1125 0.950 . S
H1149 C1127 0.950 . S
C1150 C1151 1.349 . S
C1150 C1152 1.327 . S
C1150 H1175 0.950 . S
C1151 C1150 1.349 . S
C1151 C1167 1.349 1_545 S
C1152 C1150 1.327 . S
C1152 C1171 1.429 . S
C1152 H1176 0.950 . S
C1153 C1170 1.574 . S
C1153 C1172 1.368 1_565 S
C1153 H1177 0.949 . S
H1154 C1158 0.949 . S
C1155 C1156 1.303 1_565 S
C1155 C1157 1.330 . S
C1155 H1178 0.996 . S
C1156 C1155 1.303 1_545 S
C1156 C1168 1.349 . S
C1157 C1155 1.330 . S
C1157 C1173 1.429 1_565 S
C1157 H1179 0.950 . S
C1158 H1154 0.949 . S
C1158 C1166 1.574 . S
C1158 C1174 1.368 . S
H1159 C1167 0.950 . S
H1160 C1165 0.950 . S
H1161 C1166 0.949 . S
H1162 C1168 0.950 . S
H1163 C1169 0.950 . S
H1164 C1170 0.949 . S
C1165 H1160 0.950 . S
C1165 C1167 1.327 . S
C1165 C1171 1.429 1_565 S
C1166 C1158 1.574 . S
C1166 H1161 0.949 . S
C1166 C1172 1.368 . S
C1167 C1151 1.349 1_565 S
C1167 H1159 0.950 . S
C1167 C1165 1.327 . S
C1168 C1156 1.349 . S
C1168 H1162 0.950 . S
C1168 C1169 1.327 . S
C1169 H1163 0.950 . S
C1169 C1168 1.327 . S
C1169 C1173 1.429 . S
C1170 C1153 1.574 . S
C1170 H1164 0.949 . S
C1170 C1174 1.368 1_565 S
C1171 C1152 1.429 . S
C1171 C1165 1.429 1_545 S
C1171 C1172 1.523 . S
C1172 C1153 1.368 1_545 S
C1172 C1166 1.368 . S
C1172 C1171 1.523 . S
C1173 C1157 1.429 1_545 S
C1173 C1169 1.429 . S
C1173 C1174 1.523 . S
C1174 C1158 1.368 . S
C1174 C1170 1.368 1_545 S
C1174 C1173 1.523 . S
H1175 C1150 0.950 . S
H1176 C1152 0.950 . S
H1177 C1153 0.949 . S
H1178 C1155 0.996 . S
H1179 C1157 0.950 . S
C1180 C1181 1.349 . S
C1180 C1182 1.327 . S
C1180 H1205 0.950 . S
C1181 C1180 1.349 . S
C1181 C1197 1.349 . S
C1182 C1180 1.327 . S
C1182 C1201 1.429 . S
C1182 H1206 0.950 . S
C1183 C1200 1.574 . S
C1183 C1202 1.368 . S
C1183 H1207 0.949 . S
H1184 C1188 0.949 . S
C1185 C1186 1.349 . S
C1185 C1187 1.327 . S
C1185 H1208 0.950 . S
C1186 C1185 1.349 . S
C1186 C1198 1.349 . S
C1187 C1185 1.327 . S
C1187 C1203 1.429 . S
C1187 H1209 0.950 . S
C1188 H1184 0.949 . S
C1188 C1196 1.574 . S
C1188 C1204 1.368 . S
H1189 C1197 0.950 . S
H1190 C1195 0.950 . S
H1191 C1196 0.949 . S
H1192 C1198 0.950 . S
H1193 C1199 0.950 . S
H1194 C1200 0.949 . S
C1195 H1190 0.950 . S
C1195 C1197 1.327 . S
C1195 C1201 1.429 . S
C1196 C1188 1.574 . S
C1196 H1191 0.949 . S
C1196 C1202 1.368 . S
C1197 C1181 1.349 . S
C1197 H1189 0.950 . S
C1197 C1195 1.327 . S
C1198 C1186 1.349 . S
C1198 H1192 0.950 . S
C1198 C1199 1.327 . S
C1199 H1193 0.950 . S
C1199 C1198 1.327 . S
C1199 C1203 1.429 . S
C1200 C1183 1.574 . S
C1200 H1194 0.949 . S
C1200 C1204 1.368 . S
C1201 C1182 1.429 . S
C1201 C1195 1.429 . S
C1201 C1202 1.523 . S
C1202 C1183 1.368 . S
C1202 C1196 1.368 . S
C1202 C1201 1.523 . S
C1203 C1187 1.429 . S
C1203 C1199 1.429 . S
C1203 C1204 1.523 . S
C1204 C1188 1.368 . S
C1204 C1200 1.368 . S
C1204 C1203 1.523 . S
H1205 C1180 0.950 . S
H1206 C1182 0.950 . S
H1207 C1183 0.949 . S
H1208 C1185 0.950 . S
H1209 C1187 0.950 . S
C1210 C1211 1.349 . S
C1210 C1212 1.327 . S
C1210 H1235 0.950 . S
C1211 C1210 1.349 . S
C1211 C1227 1.349 . S
C1212 C1210 1.327 . S
C1212 C1231 1.429 . S
C1212 H1236 0.950 . S
C1213 C1230 1.574 . S
C1213 C1232 1.368 . S
C1213 H1237 0.949 . S
H1214 C1218 0.949 . S
C1215 C1216 1.349 . S
C1215 C1217 1.327 . S
C1215 H1238 0.950 . S
C1216 C1215 1.349 . S
C1216 C1228 1.349 . S
C1217 C1215 1.327 . S
C1217 C1233 1.429 . S
C1217 H1239 0.950 . S
C1218 H1214 0.949 . S
C1218 C1226 1.574 . S
C1218 C1234 1.368 . S
H1219 C1227 0.950 . S
H1220 C1225 0.950 . S
H1221 C1226 0.949 . S
H1222 C1228 0.950 . S
H1223 C1229 0.950 . S
H1224 C1230 0.949 . S
C1225 H1220 0.950 . S
C1225 C1227 1.327 . S
C1225 C1231 1.429 . S
C1226 C1218 1.574 . S
C1226 H1221 0.949 . S
C1226 C1232 1.368 . S
C1227 C1211 1.349 . S
C1227 H1219 0.950 . S
C1227 C1225 1.327 . S
C1228 C1216 1.349 . S
C1228 H1222 0.950 . S
C1228 C1229 1.327 . S
C1229 H1223 0.950 . S
C1229 C1228 1.327 . S
C1229 C1233 1.429 . S
C1230 C1213 1.574 . S
C1230 H1224 0.949 . S
C1230 C1234 1.368 . S
C1231 C1212 1.429 . S
C1231 C1225 1.429 . S
C1231 C1232 1.523 . S
C1232 C1213 1.368 . S
C1232 C1226 1.368 . S
C1232 C1231 1.523 . S
C1233 C1217 1.429 . S
C1233 C1229 1.429 . S
C1233 C1234 1.523 . S
C1234 C1218 1.368 . S
C1234 C1230 1.368 . S
C1234 C1233 1.523 . S
H1235 C1210 0.950 . S
H1236 C1212 0.950 . S
H1237 C1213 0.949 . S
H1238 C1215 0.950 . S
H1239 C1217 0.950 . S
C1240 C1241 1.349 1_455 S
C1240 C1242 1.327 . S
C1240 H1265 0.950 . S
C1241 C1240 1.349 1_655 S
C1241 C1257 1.349 . S
C1242 C1240 1.327 . S
C1242 C1261 1.429 1_455 S
C1242 H1266 0.950 . S
C1243 C1260 1.574 . S
C1243 C1262 1.368 . S
C1243 H1267 0.949 . S
H1244 C1248 0.949 . S
C1245 C1246 1.349 . S
C1245 C1247 1.327 . S
C1245 H1268 0.950 . S
C1246 C1245 1.349 . S
C1246 C1258 1.349 1_655 S
C1247 C1245 1.327 . S
C1247 C1263 1.429 . S
C1247 H1269 0.950 . S
C1248 H1244 0.949 . S
C1248 C1256 1.574 . S
C1248 C1264 1.368 1_455 S
H1249 C1257 0.950 . S
H1250 C1255 0.950 . S
H1251 C1256 0.949 . S
H1252 C1258 0.950 . S
H1253 C1259 0.950 . S
H1254 C1260 0.949 . S
C1255 H1250 0.950 . S
C1255 C1257 1.327 . S
C1255 C1261 1.429 . S
C1256 C1248 1.574 . S
C1256 H1251 0.949 . S
C1256 C1262 1.368 1_455 S
C1257 C1241 1.349 . S
C1257 H1249 0.950 . S
C1257 C1255 1.327 . S
C1258 C1246 1.349 1_455 S
C1258 H1252 0.950 . S
C1258 C1259 1.327 . S
C1259 H1253 0.950 . S
C1259 C1258 1.327 . S
C1259 C1263 1.429 1_455 S
C1260 C1243 1.574 . S
C1260 H1254 0.949 . S
C1260 C1264 1.368 . S
C1261 C1242 1.429 1_655 S
C1261 C1255 1.429 . S
C1261 C1262 1.523 . S
C1262 C1243 1.368 . S
C1262 C1256 1.368 1_655 S
C1262 C1261 1.523 . S
C1263 C1247 1.429 . S
C1263 C1259 1.429 1_655 S
C1263 C1264 1.523 . S
C1264 C1248 1.368 1_655 S
C1264 C1260 1.368 . S
C1264 C1263 1.523 . S
H1265 C1240 0.950 . S
H1266 C1242 0.950 . S
H1267 C1243 0.949 . S
H1268 C1245 0.950 . S
H1269 C1247 0.950 . S
C1270 C1271 1.349 . S
C1270 C1272 1.327 . S
C1270 H1295 0.950 . S
C1271 C1270 1.349 . S
C1271 C1287 1.349 1_565 S
C1272 C1270 1.327 . S
C1272 C1291 1.429 . S
C1272 H1296 0.950 . S
C1273 C1290 1.574 . S
C1273 C1292 1.368 1_545 S
C1273 H1297 0.949 . S
H1274 C1278 0.949 . S
C1275 C1276 1.349 1_545 S
C1275 C1277 1.327 . S
C1275 H1298 0.950 . S
C1276 C1275 1.349 1_565 S
C1276 C1288 1.349 . S
C1277 C1275 1.327 . S
C1277 C1293 1.429 1_545 S
C1277 H1299 0.950 . S
C1278 H1274 0.949 . S
C1278 C1286 1.574 . S
C1278 C1294 1.368 . S
H1279 C1287 0.950 . S
H1280 C1285 0.950 . S
H1281 C1286 0.949 . S
H1282 C1288 0.950 . S
H1283 C1289 0.950 . S
H1284 C1290 0.949 . S
C1285 H1280 0.950 . S
C1285 C1287 1.327 . S
C1285 C1291 1.429 1_545 S
C1286 C1278 1.574 . S
C1286 H1281 0.949 . S
C1286 C1292 1.368 . S
C1287 C1271 1.349 1_545 S
C1287 H1279 0.950 . S
C1287 C1285 1.327 . S
C1288 C1276 1.349 . S
C1288 H1282 0.950 . S
C1288 C1289 1.327 . S
C1289 H1283 0.950 . S
C1289 C1288 1.327 . S
C1289 C1293 1.429 . S
C1290 C1273 1.574 . S
C1290 H1284 0.949 . S
C1290 C1294 1.368 1_545 S
C1291 C1272 1.429 . S
C1291 C1285 1.429 1_565 S
C1291 C1292 1.523 . S
C1292 C1273 1.368 1_565 S
C1292 C1286 1.368 . S
C1292 C1291 1.523 . S
C1293 C1277 1.429 1_565 S
C1293 C1289 1.429 . S
C1293 C1294 1.523 . S
C1294 C1278 1.368 . S
C1294 C1290 1.368 1_565 S
C1294 C1293 1.523 . S
H1295 C1270 0.950 . S
H1296 C1272 0.950 . S
H1297 C1273 0.949 . S
H1298 C1275 0.950 . S
H1299 C1277 0.950 . S
C1300 C1301 1.349 . S
C1300 C1302 1.327 . S
C1300 H1325 0.950 . S
C1301 C1300 1.349 . S
C1301 C1317 1.349 . S
C1302 C1300 1.327 . S
C1302 C1321 1.429 . S
C1302 H1326 0.950 . S
C1303 C1320 1.574 . S
C1303 C1322 1.368 . S
C1303 H1327 0.949 . S
H1304 C1308 0.949 . S
C1305 C1306 1.349 . S
C1305 C1307 1.327 . S
C1305 H1328 0.950 . S
C1306 C1305 1.349 . S
C1306 C1318 1.349 . S
C1307 C1305 1.327 . S
C1307 C1323 1.429 . S
C1307 H1329 0.950 . S
C1308 H1304 0.949 . S
C1308 C1316 1.574 . S
C1308 C1324 1.368 . S
H1309 C1317 0.950 . S
H1310 C1315 0.950 . S
H1311 C1316 0.949 . S
H1312 C1318 0.950 . S
H1313 C1319 0.950 . S
H1314 C1320 0.949 . S
C1315 H1310 0.950 . S
C1315 C1317 1.327 . S
C1315 C1321 1.429 . S
C1316 C1308 1.574 . S
C1316 H1311 0.949 . S
C1316 C1322 1.368 . S
C1317 C1301 1.349 . S
C1317 H1309 0.950 . S
C1317 C1315 1.327 . S
C1318 C1306 1.349 . S
C1318 H1312 0.950 . S
C1318 C1319 1.327 . S
C1319 H1313 0.950 . S
C1319 C1318 1.327 . S
C1319 C1323 1.429 . S
C1320 C1303 1.574 . S
C1320 H1314 0.949 . S
C1320 C1324 1.368 . S
C1321 C1302 1.429 . S
C1321 C1315 1.429 . S
C1321 C1322 1.523 . S
C1322 C1303 1.368 . S
C1322 C1316 1.368 . S
C1322 C1321 1.523 . S
C1323 C1307 1.429 . S
C1323 C1319 1.429 . S
C1323 C1324 1.523 . S
C1324 C1308 1.368 . S
C1324 C1320 1.368 . S
C1324 C1323 1.523 . S
H1325 C1300 0.950 . S
H1326 C1302 0.950 . S
H1327 C1303 0.949 . S
H1328 C1305 0.950 . S
H1329 C1307 0.950 . S
C1330 C1331 1.349 . S
C1330 C1332 1.327 . S
C1330 H1355 0.950 . S
C1331 C1330 1.349 . S
C1331 C1347 1.349 . S
C1332 C1330 1.327 . S
C1332 C1351 1.429 . S
C1332 H1356 0.950 . S
C1333 C1350 1.574 . S
C1333 C1352 1.368 . S
C1333 H1357 0.949 . S
H1334 C1338 0.949 . S
C1335 C1336 1.349 . S
C1335 C1337 1.327 . S
C1335 H1358 0.950 . S
C1336 C1335 1.349 . S
C1336 C1348 1.349 . S
C1337 C1335 1.327 . S
C1337 C1353 1.429 . S
C1337 H1359 0.950 . S
C1338 H1334 0.949 . S
C1338 C1346 1.574 . S
C1338 C1354 1.368 . S
H1339 C1347 0.950 . S
H1340 C1345 0.950 . S
H1341 C1346 0.949 . S
H1342 C1348 0.950 . S
H1343 C1349 0.950 . S
H1344 C1350 0.949 . S
C1345 H1340 0.950 . S
C1345 C1347 1.327 . S
C1345 C1351 1.429 . S
C1346 C1338 1.574 . S
C1346 H1341 0.949 . S
C1346 C1352 1.368 . S
C1347 C1331 1.349 . S
C1347 H1339 0.950 . S
C1347 C1345 1.327 . S
C1348 C1336 1.349 . S
C1348 H1342 0.950 . S
C1348 C1349 1.327 . S
C1349 H1343 0.950 . S
C1349 C1348 1.327 . S
C1349 C1353 1.429 . S
C1350 C1333 1.574 . S
C1350 H1344 0.949 . S
C1350 C1354 1.368 . S
C1351 C1332 1.429 . S
C1351 C1345 1.429 . S
C1351 C1352 1.523 . S
C1352 C1333 1.368 . S
C1352 C1346 1.368 . S
C1352 C1351 1.523 . S
C1353 C1337 1.429 . S
C1353 C1349 1.429 . S
C1353 C1354 1.523 . S
C1354 C1338 1.368 . S
C1354 C1350 1.368 . S
C1354 C1353 1.523 . S
H1355 C1330 0.950 . S
H1356 C1332 0.950 . S
H1357 C1333 0.949 . S
H1358 C1335 0.950 . S
H1359 C1337 0.950 . S
C641 C391 1.978 . S
C646 C490 2.016 . S
C676 C530 2.019 . S
C671 C451 1.975 . S
C706 C570 2.020 . S
C701 C241 1.762 . S
C736 C610 2.012 1_455 S
C731 C331 1.762 1_455 S
C766 C499 2.023 . S
C761 C121 1.773 . S
C791 C211 1.976 . S
C796 C539 2.018 . S
C821 C31 1.974 . S
C826 C579 2.022 . S
C851 C91 1.763 . S
C856 C619 2.014 1_655 S
C886 C496 0.269 . S
C881 C301 0.508 1_455 S
C916 C536 0.279 . S
C911 C380 0.124 . S
C946 C576 0.267 . S
C941 C440 0.104 . S
C971 C260 0.517 . S
C976 C616 0.277 . S
C1001 C61 0.435 . S
C1006 C487 0.256 . S
C1036 C527 0.279 . S
C1031 C140 0.432 . S
C1066 C567 0.267 . S
C1061 C200 0.278 . S
C1091 C20 0.308 . S
C1096 C607 0.283 . S
C1121 C320 2.673 1_455 S
C1126 C491 2.836 . S
C1151 C361 2.309 . S
C1156 C531 2.831 . S
C1186 C571 2.832 . S
C1181 C421 2.305 . S
C1216 C611 2.838 . S
C1211 C271 2.665 . S
C1241 C80 2.664 . S
C1246 C482 2.837 . S
C1276 C522 2.831 . S
C1271 C151 2.662 . S
C1306 C562 2.832 . S
C1301 C181 2.318 . S
C1331 C1 2.320 . S
C1336 C602 2.847 . S
