# Generated by pormake.
# Topology ftw, (4,12)-cn, num edge types: 1
# Building blocks:
#     Node 0, Type 0, BuildingBlock: NAWXER_clean_linker_0, # of connection points: 4
#     Node 1, Type 0, BuildingBlock: NAWXER_clean_linker_0, # of connection points: 4
#     Node 2, Type 0, BuildingBlock: NAWXER_clean_linker_0, # of connection points: 4
#     Node 3, Type 1, BuildingBlock: QEWDON_clean_sbu_0, # of connection points: 12
#     Edge 4, Type (0, 1), BuildingBlock: TEMPAE_clean_linker_10, # of connection points: 2
#     Edge 5, Type (0, 1), BuildingBlock: TEMPAE_clean_linker_10, # of connection points: 2
#     Edge 6, Type (0, 1), BuildingBlock: TEMPAE_clean_linker_10, # of connection points: 2
#     Edge 7, Type (0, 1), BuildingBlock: TEMPAE_clean_linker_10, # of connection points: 2
#     Edge 8, Type (0, 1), BuildingBlock: TEMPAE_clean_linker_10, # of connection points: 2
#     Edge 9, Type (0, 1), BuildingBlock: TEMPAE_clean_linker_10, # of connection points: 2
#     Edge 10, Type (0, 1), BuildingBlock: TEMPAE_clean_linker_10, # of connection points: 2
#     Edge 11, Type (0, 1), BuildingBlock: TEMPAE_clean_linker_10, # of connection points: 2
#     Edge 12, Type (0, 1), BuildingBlock: TEMPAE_clean_linker_10, # of connection points: 2
#     Edge 13, Type (0, 1), BuildingBlock: TEMPAE_clean_linker_10, # of connection points: 2
#     Edge 14, Type (0, 1), BuildingBlock: TEMPAE_clean_linker_10, # of connection points: 2
#     Edge 15, Type (0, 1), BuildingBlock: TEMPAE_clean_linker_10, # of connection points: 2
# Relax obj value: 0.055
# Max RMSD: 0.158
# Mean RMSD: 0.117
data_MOF--net-ftw--node1-QEWDON_clean_sbu_0--node2-NAWXER_clean_linker_0--edge1-TEMPAE_clean_linker_10
_symmetry_space_group_name_H-M    P1
_symmetry_Int_Tables_number       1
_symmetry_cell_setting            triclinic
loop_
_symmetry_equiv_pos_as_xyz
'x, y, z'
_cell_length_a     28.313995
_cell_length_b     30.41457
_cell_length_c     28.278282
_cell_angle_alpha  90.379195
_cell_angle_beta   90.274824
_cell_angle_gamma 90.872127
loop_
_atom_site_label
_atom_site_type_symbol
_atom_site_fract_x
_atom_site_fract_y
_atom_site_fract_z
_atom_type_partial_charge
C0 C -0.00341 0.62984 0.60427 0.0
C1 C 0.96413 0.63294 0.64168 0.0
C2 C -0.0071 0.59557 0.57098 0.0
C3 C 0.95638 0.56386 0.57408 0.0
C4 C 0.92678 0.60199 0.64373 0.0
C5 C 0.92313 0.5678 0.61052 0.0
C6 C 0.95623 0.52343 0.54416 0.0
C7 C 0.93328 0.63068 0.43611 0.0
C8 C 0.96674 0.63323 0.39951 0.0
C9 C 0.93383 0.59585 0.46841 0.0
C10 C 0.96816 0.56299 0.46513 0.0
C11 C 0.00155 0.60075 0.397 0.0
C12 C 0.00203 0.56601 0.42915 0.0
C13 C 0.96595 0.52293 0.4951 0.0
C14 C 0.93496 0.33564 0.43405 0.0
C15 C -0.0265 0.33109 0.40318 0.0
C16 C 0.93286 0.37132 0.46555 0.0
C17 C 0.96926 0.40323 0.46683 0.0
C18 C 0.01037 0.36252 0.40536 0.0
C19 C 0.00803 0.39838 0.43651 0.0
C20 C 0.96511 0.44399 0.49567 0.0
C21 C -0.02573 0.33563 0.60614 0.0
C22 C 0.93572 0.33368 0.63742 0.0
C23 C -0.02056 0.37069 0.57445 0.0
C24 C 0.94613 0.40449 0.57338 0.0
C25 C 0.90217 0.36726 0.63565 0.0
C26 C 0.90749 0.4023 0.60428 0.0
C27 C 0.95332 0.44453 0.54423 0.0
H28 H 0.02618 0.6527 0.60194 0.0
H29 H 0.01997 0.59273 0.54427 0.0
H30 H 0.90073 0.60371 0.67157 0.0
H31 H 0.89479 0.54371 0.614 0.0
H32 H 0.90564 0.65477 0.43886 0.0
H33 H 0.90631 0.59379 0.49479 0.0
H34 H 0.02848 0.60201 0.36995 0.0
H35 H 0.02875 0.54108 0.42554 0.0
H36 H 0.90609 0.31186 0.4334 0.0
H37 H 0.90202 0.37472 0.48771 0.0
H38 H 0.04026 0.36026 0.38175 0.0
H39 H 0.03629 0.42281 0.43641 0.0
H40 H 0.00066 0.31024 0.60645 0.0
H41 H 0.01023 0.37203 0.55191 0.0
H42 H 0.87246 0.36724 0.65964 0.0
H43 H 0.88162 0.42819 0.60464 0.0
N44 N 0.94972 0.48422 0.56633 0.0
N45 N 0.97062 0.4832 0.4732 0.0
C46 C 0.54783 0.02058 0.70484 0.0
C47 C 0.58672 -0.00698 0.71136 0.0
C48 C 0.51921 0.01616 0.66454 0.0
C49 C 0.52879 0.98391 0.63019 0.0
C50 C 0.59633 0.96104 0.67671 0.0
C51 C 0.56782 0.9567 0.63649 0.0
C52 C 0.50064 0.98029 0.58602 0.0
C53 C 0.39645 0.9439 0.70087 0.0
C54 C 0.35535 0.96918 0.70152 0.0
C55 C 0.42857 0.94805 0.66363 0.0
C56 C 0.42049 0.97826 0.62711 0.0
C57 C 0.34773 -0.00033 0.66531 0.0
C58 C 0.3799 0.00408 0.6285 0.0
C59 C 0.45085 0.98019 0.58473 0.0
C60 C 0.39752 0.94404 0.38272 0.0
C61 C 0.35699 0.97018 0.38202 0.0
C62 C 0.43022 0.94805 0.42001 0.0
C63 C 0.42322 0.97891 0.45651 0.0
C64 C 0.35099 0.00182 0.41775 0.0
C65 C 0.38367 0.0061 0.4545 0.0
C66 C 0.45241 0.97968 0.50015 0.0
C67 C 0.55985 0.01349 0.38635 0.0
C68 C 0.59947 -0.01382 0.38577 0.0
C69 C 0.5268 0.01023 0.42293 0.0
C70 C 0.53258 0.97912 0.45899 0.0
C71 C 0.60433 0.95439 0.4212 0.0
C72 C 0.57138 0.95104 0.45746 0.0
C73 C 0.50225 0.97866 0.50139 0.0
H74 H 0.5395 0.0455 0.7309 0.0
H75 H 0.49011 0.03845 0.65988 0.0
H76 H 0.62654 0.93985 0.6802 0.0
H77 H 0.57636 0.93206 0.61017 0.0
H78 H 0.40291 0.92 0.72829 0.0
H79 H 0.4588 0.92669 0.66267 0.0
H80 H 0.31669 0.02006 0.66538 0.0
H81 H 0.37273 0.02741 0.60066 0.0
H82 H 0.40281 0.91931 0.35559 0.0
H83 H 0.45967 0.9258 0.42129 0.0
H84 H 0.32047 0.02289 0.41765 0.0
H85 H 0.37733 0.03005 0.48221 0.0
H86 H 0.55542 0.03845 0.35961 0.0
H87 H 0.49789 0.03311 0.42399 0.0
H88 H 0.63404 0.93236 0.42119 0.0
H89 H 0.5767 0.92693 0.48494 0.0
N90 N 0.52424 0.97902 0.5443 0.0
N91 N 0.42897 0.98029 0.54192 0.0
C92 C 0.35412 0.36966 0.05342 0.0
C93 C 0.31959 0.37672 0.08808 0.0
C94 C 0.39517 0.39554 0.05262 0.0
C95 C 0.40277 0.42845 0.08695 0.0
C96 C 0.32707 0.40983 0.12223 0.0
C97 C 0.3683 0.43554 0.12158 0.0
C98 C 0.44384 0.4587 0.08405 0.0
C99 C 0.51115 0.32578 0.10864 0.0
C100 C 0.54348 0.31337 0.07359 0.0
C101 C 0.49216 0.36809 0.1087 0.0
C102 C 0.50479 0.39832 0.07334 0.0
C103 C 0.55452 0.34316 0.03737 0.0
C104 C 0.53558 0.38518 0.0374 0.0
C105 C 0.49034 0.4449 0.07556 0.0
C106 C 0.60283 0.61621 0.08511 0.0
C107 C 0.63965 0.6034 0.0548 0.0
C108 C 0.56312 0.58922 0.09147 0.0
C109 C 0.5576 0.55003 0.06538 0.0
C110 C 0.6349 0.56307 0.03046 0.0
C111 C 0.5942 0.53716 0.03516 0.0
C112 C 0.51629 0.52005 0.0716 0.0
C113 C 0.44533 0.65088 0.04171 0.0
C114 C 0.41389 0.66429 0.07711 0.0
C115 C 0.46493 0.60886 0.04303 0.0
C116 C 0.45414 0.58012 0.08036 0.0
C117 C 0.40414 0.63589 0.11489 0.0
C118 C 0.424 0.59427 0.11644 0.0
C119 C 0.46953 0.53382 0.08005 0.0
H120 H 0.34877 0.34489 1.02613 0.0
H121 H 0.42023 0.39061 1.02434 0.0
H122 H 0.30109 0.41576 0.14944 0.0
H123 H 0.37316 0.46122 0.14797 0.0
H124 H 0.50236 0.30359 0.13718 0.0
H125 H 0.46926 0.3777 0.13741 0.0
H126 H 0.57882 0.33429 1.00954 0.0
H127 H 0.54583 0.40784 1.00973 0.0
H128 H 0.60426 0.64718 0.10412 0.0
H129 H 0.53717 0.59909 0.11722 0.0
H130 H 0.66273 0.55092 1.00804 0.0
H131 H 0.59163 0.5066 1.01532 0.0
H132 H 0.45284 0.672 1.0119 0.0
H133 H 0.48712 0.59832 1.01413 0.0
H134 H 0.38011 0.64553 0.14267 0.0
H135 H 0.4149 0.57262 0.14539 0.0
N136 N 0.43545 0.50249 0.0862 0.0
N137 N 0.52447 0.47616 0.06965 0.0
Zn138 Zn 0.04436 0.07757 0.99396 0.0
Zn139 Zn 0.03002 0.07114 0.10694 0.0
O140 O 0.03016 0.03568 0.0475 0.0
H141 H 0.02664 0.00416 0.04458 0.0
C142 C 0.89164 0.10821 0.8968 0.0
O143 O 0.89679 0.06597 0.88885 0.0
Zn144 Zn 0.9275 0.90186 0.10275 0.0
Zn145 Zn 0.91216 0.92948 0.99304 0.0
O146 O 0.93651 0.95098 0.05663 0.0
H147 H 0.95019 0.97953 0.06374 0.0
Zn148 Zn 0.85719 0.07642 0.99066 0.0
O149 O 0.90303 0.06164 0.04361 0.0
Zn150 Zn 0.86589 0.04952 0.10309 0.0
H151 H 0.93655 0.05794 0.03933 0.0
Zn152 Zn 0.08689 0.89479 0.98336 0.0
O153 O 0.04424 0.90515 0.03984 0.0
H154 H 0.0104 0.90076 0.0393 0.0
Zn155 Zn 0.08567 0.91669 0.0971 0.0
C156 C 0.02489 0.85176 0.90818 0.0
O157 O -0.00833 0.87731 0.92462 0.0
O158 O 0.05923 0.14076 1.01698 0.0
O159 O 0.05354 0.13275 0.0948 0.0
O160 O 0.88684 0.86601 0.99535 0.0
O161 O 0.90085 0.84756 0.0702 0.0
O162 O 0.78978 0.08225 1.01656 0.0
O163 O 0.79628 0.06464 0.09274 0.0
C164 C 0.09253 0.00616 0.15002 0.0
O165 O 0.15612 0.88908 1.00415 0.0
O166 O 0.15479 0.90358 0.08142 0.0
O167 O 0.87056 0.96928 0.95149 0.0
C168 C 0.06274 0.15632 0.05882 0.0
O169 O 0.09108 0.05488 0.94386 0.0
C170 C 0.86095 0.95797 0.15031 0.0
O171 O 0.87684 0.12075 0.93707 0.0
C172 C 0.88566 0.83822 0.02878 0.0
O173 O 0.06577 0.85357 0.92705 0.0
C174 C 0.93723 0.09332 0.15821 0.0
O175 O 0.07561 0.04462 0.15333 0.0
O176 O 0.07565 0.98004 0.11851 0.0
C177 C 0.77158 0.07701 0.05735 0.0
O178 O 0.87946 0.92008 0.15125 0.0
O179 O 0.87678 -0.01412 0.12074 0.0
C180 C 0.02042 0.86912 0.15619 0.0
O181 O 0.89277 0.08789 0.15588 0.0
O182 O 0.96238 0.0737 0.1278 0.0
C183 C 0.17718 0.89304 0.04392 0.0
O184 O 0.06423 0.87583 0.14949 0.0
O185 O -0.00804 0.88843 0.12864 0.0
C186 C 0.82995 0.98002 0.96621 0.0
O187 O 0.8178 0.96972 1.00959 0.0
C188 C 0.10487 0.01532 0.94253 0.0
O189 O 0.08729 -0.01323 0.97257 0.0
C190 C 0.93362 0.28543 0.34006 0.0
C191 C -0.02589 0.295 0.36721 0.0
C192 C 0.93352 0.25216 0.30536 0.0
C193 C -0.0252 0.22731 0.2978 0.0
C194 C 0.0159 0.23687 0.32496 0.0
C195 C 0.01516 0.27077 0.35913 0.0
C196 C 0.88907 0.24354 0.27681 0.0
C197 C 0.06036 0.2108 0.31847 0.0
C198 C 0.94762 0.1159 0.2419 0.0
C199 C 0.95703 0.12381 0.19413 0.0
C200 C 0.95647 0.14836 0.27649 0.0
C201 C -0.02622 0.19029 0.26274 0.0
C202 C -0.01484 0.19782 0.21461 0.0
C203 C -0.02306 0.16426 0.18084 0.0
C204 C 0.94447 0.13858 0.32735 0.0
C205 C 0.00299 0.2422 0.19835 0.0
H206 H 0.90205 0.30451 0.34548 0.0
H207 H 0.04652 0.27785 0.38013 0.0
H208 H 0.89686 0.24584 0.23847 0.0
H209 H 0.87564 0.20971 0.2835 0.0
H210 H 0.86071 0.26706 0.28548 0.0
H211 H 0.08955 0.22268 0.34187 0.0
H212 H 0.05309 0.17561 0.32613 0.0
H213 H 0.07226 0.21273 0.28121 0.0
H214 H 0.93155 0.08476 0.25195 0.0
H215 H -0.01708 0.17074 0.1437 0.0
H216 H 0.91276 0.15724 0.33775 0.0
H217 H -0.02616 0.14924 0.35109 0.0
H218 H 0.93709 0.10303 0.33307 0.0
H219 H -0.02355 0.26762 0.20638 0.0
H220 H 0.0103 0.24274 0.1598 0.0
H221 H 0.0358 0.25149 0.21777 0.0
C222 C 0.62506 -0.00594 0.30131 0.0
C223 C 0.63672 -0.00883 0.34942 0.0
C224 C 0.66047 -0.00592 0.26664 0.0
C225 C 0.70844 -0.00874 0.28063 0.0
C226 C 0.72041 -0.00901 0.32925 0.0
C227 C 0.6844 -0.0091 0.36302 0.0
C228 C 0.64646 -0.0052 0.21508 0.0
C229 C 0.77115 -0.01147 0.34565 0.0
C230 C 0.79544 0.9325 0.20213 0.0
C231 C 0.82113 0.96758 0.18237 0.0
C232 C 0.75777 0.93993 0.23291 0.0
C233 C 0.74577 0.98359 0.24488 0.0
C234 C 0.77115 0.01923 0.22477 0.0
C235 C 0.80834 0.01073 0.19344 0.0
C236 C 0.73134 0.90095 0.25328 0.0
C237 C 0.75997 0.06621 0.23742 0.0
H238 H 0.58822 -0.00562 0.29071 0.0
H239 H 0.69356 -0.01029 0.40026 0.0
H240 H 0.66724 0.02026 0.19602 0.0
H241 H 0.6544 0.96259 0.1985 0.0
H242 H 0.60827 0.00136 0.21015 0.0
H243 H 0.77476 -0.00669 0.38449 0.0
H244 H 0.78551 0.9559 0.33622 0.0
H245 H 0.79318 0.01376 0.32765 0.0
H246 H 0.80466 0.89895 0.19339 0.0
H247 H 0.82794 0.03787 0.17859 0.0
H248 H 0.69295 0.90377 0.24609 0.0
H249 H 0.73612 0.9004 0.29223 0.0
H250 H 0.74355 0.86918 0.23848 0.0
H251 H 0.72178 0.07227 0.23219 0.0
H252 H 0.78061 0.09022 0.2161 0.0
H253 H 0.76799 0.07227 0.27536 0.0
C254 C -0.0253 0.65969 0.31576 0.0
C255 C 0.96523 0.66901 0.36347 0.0
C256 C -0.0229 0.69324 0.28187 0.0
C257 C 0.96961 0.73741 0.29574 0.0
C258 C 0.95763 0.74683 0.34331 0.0
C259 C 0.95568 0.71259 0.3766 0.0
C260 C -0.01006 0.68157 0.23161 0.0
C261 C 0.94911 0.79338 0.35959 0.0
C262 C 0.0389 0.82232 0.22562 0.0
C263 C 0.00508 0.83788 0.19357 0.0
C264 C 0.02732 0.79066 0.25958 0.0
C265 C -0.01947 0.77383 0.26201 0.0
C266 C 0.94567 0.79028 0.23078 0.0
C267 C 0.95836 0.82218 0.19685 0.0
C268 C 0.06573 0.77431 0.29203 0.0
C269 C 0.89534 0.77339 0.23237 0.0
H270 H -0.01907 0.62605 0.30489 0.0
H271 H 0.94843 0.72027 0.4133 0.0
H272 H 0.96458 0.69628 0.20646 0.0
H273 H 0.02547 0.69534 0.22343 0.0
H274 H -0.0096 0.64546 0.2255 0.0
H275 H 0.93418 0.79467 0.39582 0.0
H276 H -0.01705 0.81226 0.35952 0.0
H277 H 0.92463 0.81001 0.33498 0.0
H278 H 0.07504 0.83449 0.22382 0.0
H279 H 0.932 0.83405 0.17233 0.0
H280 H 0.07121 0.73871 0.28565 0.0
H281 H 0.05509 0.77829 0.3295 0.0
H282 H 0.09992 0.79199 0.28681 0.0
H283 H 0.89395 0.7385 0.22068 0.0
H284 H 0.87154 0.79257 0.20925 0.0
H285 H 0.88184 0.77458 0.26912 0.0
C286 C 0.27232 0.96068 0.35912 0.0
C287 C 0.31975 0.96414 0.34542 0.0
C288 C 0.2358 0.96087 0.32553 0.0
C289 C 0.24697 0.96503 0.27704 0.0
C290 C 0.29489 0.96558 0.26273 0.0
C291 C 0.33085 0.96501 0.2972 0.0
C292 C 0.18523 0.95934 0.34225 0.0
C293 C 0.30822 0.96979 0.21133 0.0
C294 C 0.1471 0.95094 0.18721 0.0
C295 C 0.1325 -0.00559 0.18158 0.0
C296 C 0.18464 0.94058 0.21772 0.0
C297 C 0.20877 0.97477 0.24251 0.0
C298 C 0.19503 0.01886 0.23608 0.0
C299 C 0.15698 0.02805 0.2061 0.0
C300 C 0.19744 0.89302 0.22443 0.0
C301 C 0.22015 0.05646 0.26139 0.0
H302 H 0.26375 0.95912 0.39641 0.0
H303 H 0.36752 0.96759 0.28656 0.0
H304 H 0.1691 -0.00798 0.33726 0.0
H305 H 0.1642 0.93516 0.3211 0.0
H306 H 0.18253 0.95052 0.38022 0.0
H307 H 0.34583 0.96164 0.20526 0.0
H308 H 0.28563 0.94807 0.18876 0.0
H309 H 0.30255 0.00413 0.19982 0.0
H310 H 0.12897 0.9249 0.16847 0.0
H311 H 0.14662 0.06195 0.20169 0.0
H312 H 0.18599 0.88218 0.26001 0.0
H313 H 0.23623 0.88892 0.22261 0.0
H314 H 0.18024 0.87113 0.19763 0.0
H315 H 0.21577 0.05299 0.30016 0.0
H316 H 0.20655 0.08903 0.25077 0.0
H317 H 0.25856 0.05569 0.25391 0.0
C318 C 0.96401 0.6551 0.72749 0.0
C319 C 0.97069 0.66664 0.67994 0.0
C320 C 0.97157 0.68579 0.76422 0.0
C321 C -0.01373 0.72926 0.75336 0.0
C322 C -0.0074 0.74133 0.70546 0.0
C323 C -0.01518 0.7099 0.66937 0.0
C324 C 0.96462 0.67143 0.81477 0.0
C325 C 0.00801 0.78738 0.69236 0.0
C326 C 0.96969 0.81772 0.84786 0.0
C327 C 0.01501 0.82097 0.86808 0.0
C328 C 0.95992 0.78842 0.81022 0.0
C329 C -0.0037 0.76161 0.79229 0.0
C330 C 0.04217 0.76495 0.81234 0.0
C331 C 0.05096 0.79453 0.84987 0.0
C332 C 0.91055 0.78587 0.7899 0.0
C333 C 0.08196 0.73696 0.79439 0.0
H334 H 0.9539 0.62162 0.73617 0.0
H335 H -0.01038 0.71929 0.63278 0.0
H336 H -0.00151 0.67461 0.83448 0.0
H337 H 0.93889 0.69304 0.83262 0.0
H338 H 0.95172 0.63685 0.81724 0.0
H339 H 0.01019 0.79188 0.65348 0.0
H340 H -0.01708 0.81155 0.70697 0.0
H341 H 0.04317 0.79499 0.70814 0.0
H342 H 0.94165 0.83797 0.86159 0.0
H343 H 0.08613 0.79679 0.86508 0.0
H344 H 0.89564 0.75223 0.79451 0.0
H345 H 0.91144 0.79242 0.75136 0.0
H346 H 0.88651 0.8097 0.80694 0.0
H347 H 0.07277 0.70164 0.79884 0.0
H348 H 0.1158 0.74402 0.8132 0.0
H349 H 0.08726 0.74258 0.75605 0.0
C350 C 0.27178 0.96062 0.72744 0.0
C351 C 0.31981 0.96402 0.73934 0.0
C352 C 0.23697 0.96204 0.76237 0.0
C353 C 0.25059 0.96725 0.8103 0.0
C354 C 0.2991 0.96753 0.82283 0.0
C355 C 0.33328 0.96583 0.78706 0.0
C356 C 0.18562 0.96102 0.7476 0.0
C357 C 0.31494 0.97282 0.87362 0.0
C358 C 0.16664 0.03483 0.88349 0.0
C359 C 0.14224 0.00244 0.90906 0.0
C360 C 0.20265 0.02367 0.85211 0.0
C361 C 0.21446 0.97894 0.84588 0.0
C362 C 0.19025 0.946 0.87178 0.0
C363 C 0.15434 0.95819 0.90312 0.0
C364 C 0.22771 0.05982 0.82519 0.0
C365 C 0.2019 0.898 0.86601 0.0
H366 H 0.26141 0.9583 0.69054 0.0
H367 H 0.37044 0.96836 0.79627 0.0
H368 H 0.16507 0.93791 0.76999 0.0
H369 H 0.17051 -0.00582 0.75253 0.0
H370 H 0.18092 0.95114 0.70996 0.0
H371 H 0.35313 0.96602 0.87814 0.0
H372 H 0.30846 0.00701 0.88559 0.0
H373 H 0.29437 0.95055 0.89694 0.0
H374 H 0.15774 0.06913 0.88809 0.0
H375 H 0.13544 0.93301 0.92257 0.0
H376 H 0.22172 0.05518 0.78666 0.0
H377 H 0.26635 0.05841 0.83157 0.0
H378 H 0.21541 0.09306 0.83539 0.0
H379 H 0.19644 0.88762 0.82867 0.0
H380 H 0.1799 0.8765 0.889 0.0
H381 H 0.23964 0.89277 0.87469 0.0
C382 C 0.97052 0.28465 0.69954 0.0
C383 C 0.93116 0.29793 0.67315 0.0
C384 C 0.96604 0.2531 0.73551 0.0
C385 C 0.92115 0.23415 0.74532 0.0
C386 C 0.88148 0.24672 0.71812 0.0
C387 C 0.88695 0.27843 0.68252 0.0
C388 C 0.0092 0.24075 0.76372 0.0
C389 C 0.83307 0.22709 0.72707 0.0
C390 C 0.91276 0.12621 0.81288 0.0
C391 C 0.90095 0.14059 0.85856 0.0
C392 C 0.91993 0.15625 0.77588 0.0
C393 C 0.91533 0.20189 0.78463 0.0
C394 C 0.90406 0.21666 0.8308 0.0
C395 C 0.89694 0.18589 0.86712 0.0
C396 C 0.93178 0.13907 0.72721 0.0
C397 C 0.89898 0.26501 0.84173 0.0
H398 H 0.0047 0.29988 0.693 0.0
H399 H 0.85645 0.28804 0.66194 0.0
H400 H 0.00425 0.2498 0.80142 0.0
H401 H 0.01417 0.20466 0.76216 0.0
H402 H 0.04182 0.25732 0.75071 0.0
H403 H 0.80609 0.2394 0.70198 0.0
H404 H 0.83415 0.19074 0.72402 0.0
H405 H 0.82179 0.23507 0.76362 0.0
H406 H 0.91587 0.09132 0.80576 0.0
H407 H 0.8879 0.19741 0.90223 0.0
H408 H 0.96542 0.15415 0.7149 0.0
H409 H 0.90387 0.14843 0.70169 0.0
H410 H 0.93518 0.10273 0.72641 0.0
H411 H 0.93182 0.28314 0.83215 0.0
H412 H 0.89142 0.27127 0.87967 0.0
H413 H 0.8699 0.27869 0.82019 0.0
C414 C 0.63416 0.96032 0.77674 0.0
C415 C 0.61796 -0.00218 0.75354 0.0
C416 C 0.66679 0.96376 0.81404 0.0
C417 C 0.68358 0.00579 0.82876 0.0
C418 C 0.66595 0.04395 0.80686 0.0
C419 C 0.63335 0.03951 0.76939 0.0
C420 C 0.68446 0.9222 0.83665 0.0
C421 C 0.68291 0.08929 0.82171 0.0
C422 C 0.74735 0.00246 0.9468 0.0
C423 C 0.79402 -0.0043 0.93225 0.0
C424 C 0.71116 0.0091 0.91356 0.0
C425 C 0.72201 0.00893 0.86474 0.0
C426 C 0.7696 0.00571 0.85017 0.0
C427 C 0.80498 -0.001 0.88407 0.0
C428 C 0.66094 0.01325 0.93052 0.0
C429 C 0.78284 0.0059 0.79849 0.0
H430 H 0.6217 0.92808 0.76527 0.0
H431 H 0.62119 0.06863 0.75142 0.0
H432 H 0.72289 0.91907 0.83013 0.0
H433 H 0.67941 0.92366 0.8755 0.0
H434 H 0.66613 0.89225 0.82268 0.0
H435 H 0.66185 0.1156 0.80508 0.0
H436 H 0.6812 0.09311 0.8607 0.0
H437 H 0.7204 0.09394 0.81139 0.0
H438 H 0.73858 0.00042 0.984 0.0
H439 H 0.84088 -0.00611 0.87241 0.0
H440 H 0.65901 0.01765 0.96949 0.0
H441 H 0.64044 0.98318 0.92057 0.0
H442 H 0.64368 0.04149 0.91328 0.0
H443 H 0.77055 0.97469 0.78163 0.0
H444 H 0.82162 0.00918 0.79339 0.0
H445 H 0.76536 0.03322 0.77983 0.0
C446 C 0.23151 0.3697 0.09273 0.0
C447 C 0.27566 0.34985 0.088 0.0
C448 C 0.18962 0.34449 0.09049 0.0
C449 C 0.19225 0.29852 0.08344 0.0
C450 C 0.23683 0.27829 0.07963 0.0
C451 C 0.27797 0.30424 0.08191 0.0
C452 C 0.14269 0.36709 0.09443 0.0
C453 C 0.24113 0.22922 0.07247 0.0
C454 C 0.09874 0.21369 0.11182 0.0
C455 C 0.08517 0.20006 0.06615 0.0
C456 C 0.13052 0.24894 0.1185 0.0
C457 C 0.14889 0.27097 0.07856 0.0
C458 C 0.13119 0.26061 0.03289 0.0
C459 C 0.09944 0.22518 0.0272 0.0
C460 C 0.14797 0.25955 0.16787 0.0
C461 C 0.14935 0.2839 0.98948 0.0
H462 H 0.22971 0.40509 0.09699 0.0
H463 H 0.31212 0.28883 0.07893 0.0
H464 H 0.1237 0.36478 0.06008 0.0
H465 H 0.12014 0.35056 0.12114 0.0
H466 H 0.14683 0.40236 0.10427 0.0
H467 H 0.27849 0.21864 0.07135 0.0
H468 H 0.22299 0.21142 0.10148 0.0
H469 H 0.22364 0.21914 0.03882 0.0
H470 H 0.08731 0.19492 0.14227 0.0
H471 H 0.08844 0.2154 0.99185 0.0
H472 H 0.1497 0.29561 0.17383 0.0
H473 H 0.18425 0.24685 0.17236 0.0
H474 H 0.12508 0.24446 0.19535 0.0
H475 H 0.15192 0.31989 0.99568 0.0
H476 H 0.1264 0.2775 0.95813 0.0
H477 H 0.18536 0.27219 0.98129 0.0
C478 C 0.33806 0.70421 0.07566 0.0
C479 C 0.38738 0.70567 0.07258 0.0
C480 C 0.31146 0.74232 0.07093 0.0
C481 C 0.33478 0.78323 0.06348 0.0
C482 C 0.38473 0.78511 0.06087 0.0
C483 C 0.41053 0.74607 0.06495 0.0
C484 C 0.25822 0.73861 0.07337 0.0
C485 C 0.41074 0.82827 0.05422 0.0
C486 C 0.24857 0.86004 1.00733 0.0
C487 C 0.22639 0.87723 0.0476 0.0
C488 C 0.28783 0.83281 1.01152 0.0
C489 C 0.30577 0.82316 0.05702 0.0
C490 C 0.28784 0.84553 0.09704 0.0
C491 C 0.24809 0.87221 0.09191 0.0
C492 C 0.30607 0.81022 0.96771 0.0
C493 C 0.30699 0.83761 0.14607 0.0
H494 H 0.32013 0.67288 0.08096 0.0
H495 H 0.44875 0.74716 0.06285 0.0
H496 H 0.24501 0.75911 0.10292 0.0
H497 H 0.2423 0.75105 0.0402 0.0
H498 H 0.24568 0.70422 0.07869 0.0
H499 H 0.44963 0.82415 0.05295 0.0
H500 H 0.39904 0.84408 1.02103 0.0
H501 H 0.40227 0.85106 0.08368 0.0
H502 H 0.23293 0.86467 0.97268 0.0
H503 H 0.23208 0.88632 0.12313 0.0
H504 H 0.29147 0.77616 0.96607 0.0
H505 H 0.34511 0.80807 0.96854 0.0
H506 H 0.29535 0.82752 0.93496 0.0
H507 H 0.28776 0.80928 0.16187 0.0
H508 H 0.30174 0.86669 0.16929 0.0
H509 H 0.34515 0.82993 0.14548 0.0
C510 C 0.5449 0.23118 0.08443 0.0
C511 C 0.56889 0.27113 0.0764 0.0
C512 C 0.5694 0.19121 0.08513 0.0
C513 C 0.61888 0.1915 0.07785 0.0
C514 C 0.64324 0.232 0.07111 0.0
C515 C 0.61798 0.27115 0.07047 0.0
C516 C 0.54223 0.14875 0.09236 0.0
C517 C 0.69609 0.23407 0.06379 0.0
C518 C 0.70883 0.10676 0.11014 0.0
C519 C 0.72317 0.09344 0.06491 0.0
C520 C 0.67052 0.13511 0.1158 0.0
C521 C 0.64606 0.15004 0.0753 0.0
C522 C 0.65622 0.1316 0.03046 0.0
C523 C 0.69481 0.1036 1.02577 0.0
C524 C 0.66019 0.15313 0.16443 0.0
C525 C 0.63021 0.14554 0.98646 0.0
H526 H 0.50691 0.2311 0.089 0.0
H527 H 0.63678 0.30206 0.06531 0.0
H528 H 0.54036 0.1302 0.05848 0.0
H529 H 0.56042 0.1277 0.1184 0.0
H530 H 0.50563 0.15455 0.10466 0.0
H531 H 0.70972 0.26834 0.06044 0.0
H532 H 0.71446 0.21839 0.09389 0.0
H533 H 0.70542 0.21563 0.03125 0.0
H534 H 0.73006 0.09854 0.1407 0.0
H535 H 0.70498 0.09261 0.99077 0.0
H536 H 0.62177 0.15787 0.1694 0.0
H537 H 0.67805 0.18566 0.16872 0.0
H538 H 0.67336 0.13112 0.1926 0.0
H539 H 0.59181 0.14809 0.99324 0.0
H540 H 0.63562 0.12223 0.95662 0.0
H541 H 0.64341 0.17849 0.97559 0.0
C542 C 0.7078 0.63171 1.00581 0.0
C543 C 0.68253 0.63197 0.04856 0.0
C544 C 0.74708 0.65956 0.99911 0.0
C545 C 0.75972 0.6903 0.0348 0.0
C546 C 0.73509 0.69047 0.0782 0.0
C547 C 0.69784 0.66044 0.08504 0.0
C548 C 0.77413 0.65693 0.9533 0.0
C549 C 0.74669 0.72364 0.11675 0.0
C550 C 0.87262 0.75813 0.04242 0.0
C551 C 0.858 0.79752 1.02215 0.0
C552 C 0.84223 0.72127 0.04308 0.0
C553 C 0.79556 0.72511 1.0255 0.0
C554 C 0.78142 0.76446 1.00342 0.0
C555 C 0.81333 0.7999 1.00106 0.0
C556 C 0.85937 0.6791 0.06461 0.0
C557 C 0.73145 0.77055 0.9859 0.0
H558 H 0.69649 0.61059 0.97683 0.0
H559 H 0.68033 0.66 0.11897 0.0
H560 H 0.76522 0.68525 0.93062 0.0
H561 H 0.81275 0.65853 0.96019 0.0
H562 H 0.76569 0.6262 0.93334 0.0
H563 H 0.72302 0.72027 0.14778 0.0
H564 H 0.78364 0.71978 0.12894 0.0
H565 H 0.74356 0.75749 0.10274 0.0
H566 H 0.90733 0.75649 0.05863 0.0
H567 H 0.80197 0.83072 0.98599 0.0
H568 H 0.84607 0.65013 0.0442 0.0
H569 H 0.84593 0.67617 0.10123 0.0
H570 H 0.89857 0.6782 0.06604 0.0
H571 H 0.72134 0.7441 0.96053 0.0
H572 H 0.72671 0.80277 0.96833 0.0
H573 H 0.70668 0.76841 1.01614 0.0
loop_
_geom_bond_atom_site_label_1
_geom_bond_atom_site_label_2
_geom_bond_distance
_geom_bond_site_symmetry_2
_ccdc_geom_bond_type
C0 C1 1.384 1_455 S
C0 C2 1.384 . S
C0 H28 0.931 . S
C1 C0 1.384 1_655 S
C1 C4 1.382 . S
C2 C0 1.384 . S
C2 C3 1.381 1_455 S
C2 H29 0.930 . S
C3 C2 1.381 1_655 S
C3 C5 1.381 . S
C3 C6 1.487 . S
C4 C1 1.382 . S
C4 C5 1.387 . S
C4 H30 0.930 . S
C5 C3 1.381 . S
C5 C4 1.387 . S
C5 H31 0.931 . S
C6 C3 1.487 . S
C6 C13 1.399 1_655 S
C6 N44 1.343 . S
C7 C8 1.384 1_655 S
C7 C9 1.384 . S
C7 H32 0.931 . S
C8 C7 1.384 1_455 S
C8 C11 1.382 . S
C9 C7 1.384 . S
C9 C10 1.381 1_655 S
C9 H33 0.930 . S
C10 C9 1.381 1_455 S
C10 C12 1.381 . S
C10 C13 1.487 . S
C11 C8 1.382 . S
C11 C12 1.387 . S
C11 H34 0.930 . S
C12 C10 1.381 . S
C12 C11 1.387 . S
C12 H35 0.931 . S
C13 C6 1.399 1_455 S
C13 C10 1.487 . S
C13 N45 1.343 . S
C14 C15 1.384 1_655 S
C14 C16 1.384 . S
C14 H36 0.931 . S
C15 C14 1.384 1_455 S
C15 C18 1.382 . S
C16 C14 1.384 . S
C16 C17 1.381 1_655 S
C16 H37 0.930 . S
C17 C16 1.381 1_455 S
C17 C19 1.381 . S
C17 C20 1.487 . S
C18 C15 1.382 . S
C18 C19 1.387 . S
C18 H38 0.930 . S
C19 C17 1.381 . S
C19 C18 1.387 . S
C19 H39 0.931 . S
C20 C17 1.487 . S
C20 C27 1.399 1_455 S
C20 N45 1.343 . S
C21 C22 1.384 1_455 S
C21 C23 1.384 . S
C21 H40 0.931 . S
C22 C21 1.384 1_655 S
C22 C25 1.382 . S
C23 C21 1.384 . S
C23 C24 1.381 1_455 S
C23 H41 0.930 . S
C24 C23 1.381 1_655 S
C24 C26 1.381 . S
C24 C27 1.487 . S
C25 C22 1.382 . S
C25 C26 1.387 . S
C25 H42 0.930 . S
C26 C24 1.381 . S
C26 C25 1.387 . S
C26 H43 0.931 . S
C27 C20 1.399 1_655 S
C27 C24 1.487 . S
C27 N44 1.343 . S
H28 C0 0.931 . S
H29 C2 0.930 . S
H30 C4 0.930 . S
H31 C5 0.931 . S
H32 C7 0.931 . S
H33 C9 0.930 . S
H34 C11 0.930 . S
H35 C12 0.931 . S
H36 C14 0.931 . S
H37 C16 0.930 . S
H38 C18 0.930 . S
H39 C19 0.931 . S
H40 C21 0.931 . S
H41 C23 0.930 . S
H42 C25 0.930 . S
H43 C26 0.931 . S
N44 C6 1.343 . S
N44 C27 1.343 . S
N45 C13 1.343 . S
N45 C20 1.343 . S
C46 C47 1.384 1_545 S
C46 C48 1.384 . S
C46 H74 0.931 . S
C47 C46 1.384 1_565 S
C47 C50 1.382 . S
C48 C46 1.384 . S
C48 C49 1.381 1_545 S
C48 H75 0.930 . S
C49 C48 1.381 1_565 S
C49 C51 1.381 . S
C49 C52 1.487 . S
C50 C47 1.382 . S
C50 C51 1.387 . S
C50 H76 0.930 . S
C51 C49 1.381 . S
C51 C50 1.387 . S
C51 H77 0.931 . S
C52 C49 1.487 . S
C52 C59 1.399 1_565 S
C52 N90 1.343 . S
C53 C54 1.384 1_565 S
C53 C55 1.384 . S
C53 H78 0.931 . S
C54 C53 1.384 1_545 S
C54 C57 1.382 . S
C55 C53 1.384 . S
C55 C56 1.381 1_565 S
C55 H79 0.930 . S
C56 C55 1.381 1_545 S
C56 C58 1.381 . S
C56 C59 1.487 . S
C57 C54 1.382 . S
C57 C58 1.387 . S
C57 H80 0.930 . S
C58 C56 1.381 . S
C58 C57 1.387 . S
C58 H81 0.931 . S
C59 C52 1.399 1_545 S
C59 C56 1.487 . S
C59 N91 1.343 . S
C60 C61 1.384 1_565 S
C60 C62 1.384 . S
C60 H82 0.931 . S
C61 C60 1.384 1_545 S
C61 C64 1.382 . S
C62 C60 1.384 . S
C62 C63 1.381 1_565 S
C62 H83 0.930 . S
C63 C62 1.381 1_545 S
C63 C65 1.381 . S
C63 C66 1.487 . S
C64 C61 1.382 . S
C64 C65 1.387 . S
C64 H84 0.930 . S
C65 C63 1.381 . S
C65 C64 1.387 . S
C65 H85 0.931 . S
C66 C63 1.487 . S
C66 C73 1.399 1_545 S
C66 N91 1.343 . S
C67 C68 1.384 1_545 S
C67 C69 1.384 . S
C67 H86 0.931 . S
C68 C67 1.384 1_565 S
C68 C71 1.382 . S
C69 C67 1.384 . S
C69 C70 1.381 1_545 S
C69 H87 0.930 . S
C70 C69 1.381 1_565 S
C70 C72 1.381 . S
C70 C73 1.487 . S
C71 C68 1.382 . S
C71 C72 1.387 . S
C71 H88 0.930 . S
C72 C70 1.381 . S
C72 C71 1.387 . S
C72 H89 0.931 . S
C73 C66 1.399 1_565 S
C73 C70 1.487 . S
C73 N90 1.343 . S
H74 C46 0.931 . S
H75 C48 0.930 . S
H76 C50 0.930 . S
H77 C51 0.931 . S
H78 C53 0.931 . S
H79 C55 0.930 . S
H80 C57 0.930 . S
H81 C58 0.931 . S
H82 C60 0.931 . S
H83 C62 0.930 . S
H84 C64 0.930 . S
H85 C65 0.931 . S
H86 C67 0.931 . S
H87 C69 0.930 . S
H88 C71 0.930 . S
H89 C72 0.931 . S
N90 C52 1.343 . S
N90 C73 1.343 . S
N91 C59 1.343 . S
N91 C66 1.343 . S
C92 C93 1.384 1_556 S
C92 C94 1.384 . S
C92 H120 0.931 . S
C93 C92 1.384 1_554 S
C93 C96 1.382 . S
C94 C92 1.384 . S
C94 C95 1.381 1_556 S
C94 H121 0.930 . S
C95 C94 1.381 1_554 S
C95 C97 1.381 . S
C95 C98 1.487 . S
C96 C93 1.382 . S
C96 C97 1.387 . S
C96 H122 0.930 . S
C97 C95 1.381 . S
C97 C96 1.387 . S
C97 H123 0.931 . S
C98 C95 1.487 . S
C98 C105 1.399 . S
C98 N136 1.343 . S
C99 C100 1.384 . S
C99 C101 1.384 . S
C99 H124 0.931 . S
C100 C99 1.384 . S
C100 C103 1.382 1_554 S
C101 C99 1.384 . S
C101 C102 1.381 . S
C101 H125 0.930 . S
C102 C101 1.381 . S
C102 C104 1.381 1_554 S
C102 C105 1.487 . S
C103 C100 1.382 1_556 S
C103 C104 1.387 . S
C103 H126 0.930 . S
C104 C102 1.381 1_556 S
C104 C103 1.387 . S
C104 H127 0.931 . S
C105 C98 1.399 . S
C105 C102 1.487 . S
C105 N137 1.343 . S
C106 C107 1.384 . S
C106 C108 1.384 . S
C106 H128 0.931 . S
C107 C106 1.384 . S
C107 C110 1.382 1_554 S
C108 C106 1.384 . S
C108 C109 1.381 . S
C108 H129 0.930 . S
C109 C108 1.381 . S
C109 C111 1.381 1_554 S
C109 C112 1.487 . S
C110 C107 1.382 1_556 S
C110 C111 1.387 . S
C110 H130 0.930 . S
C111 C109 1.381 1_556 S
C111 C110 1.387 . S
C111 H131 0.931 . S
C112 C109 1.487 . S
C112 C119 1.399 . S
C112 N137 1.343 . S
C113 C114 1.384 1_556 S
C113 C115 1.384 . S
C113 H132 0.931 . S
C114 C113 1.384 1_554 S
C114 C117 1.382 . S
C115 C113 1.384 . S
C115 C116 1.381 1_556 S
C115 H133 0.930 . S
C116 C115 1.381 1_554 S
C116 C118 1.381 . S
C116 C119 1.487 . S
C117 C114 1.382 . S
C117 C118 1.387 . S
C117 H134 0.930 . S
C118 C116 1.381 . S
C118 C117 1.387 . S
C118 H135 0.931 . S
C119 C112 1.399 . S
C119 C116 1.487 . S
C119 N136 1.343 . S
H120 C92 0.931 . S
H121 C94 0.930 . S
H122 C96 0.930 . S
H123 C97 0.931 . S
H124 C99 0.931 . S
H125 C101 0.930 . S
H126 C103 0.930 . S
H127 C104 0.931 . S
H128 C106 0.931 . S
H129 C108 0.930 . S
H130 C110 0.930 . S
H131 C111 0.931 . S
H132 C113 0.931 . S
H133 C115 0.930 . S
H134 C117 0.930 . S
H135 C118 0.931 . S
N136 C98 1.343 . S
N136 C119 1.343 . S
N137 C105 1.343 . S
N137 C112 1.343 . S
Zn138 O140 1.933 1_556 S
Zn138 O158 1.985 . S
Zn138 O169 1.955 . S
Zn139 O140 1.911 . S
Zn139 O159 1.970 . S
Zn139 O175 1.945 . S
Zn139 O182 1.981 . S
O140 Zn138 1.933 1_554 S
O140 Zn139 1.911 . S
O140 H141 0.841 . S
H141 O140 0.841 . S
C142 O143 1.246 . S
C142 O171 1.276 1_455 S
O143 C142 1.246 . S
Zn144 O146 1.911 . S
Zn144 O161 1.970 . S
Zn144 O178 1.945 . S
Zn144 O185 1.981 . S
Zn145 O146 1.933 1_556 S
Zn145 O160 1.985 . S
Zn145 O167 1.955 . S
O146 Zn144 1.911 . S
O146 Zn145 1.933 1_554 S
O146 H147 0.841 . S
H147 O146 0.841 . S
Zn148 O149 1.933 1_556 S
Zn148 O162 1.985 . S
Zn148 O171 1.955 . S
O149 Zn148 1.933 1_554 S
O149 Zn150 1.911 . S
O149 H151 0.841 . S
Zn150 O149 1.911 . S
Zn150 O163 1.970 . S
Zn150 O179 1.981 . S
Zn150 O181 1.945 . S
H151 O149 0.841 . S
Zn152 O153 1.933 1_556 S
Zn152 O165 1.985 . S
Zn152 O173 1.955 . S
O153 Zn152 1.933 1_554 S
O153 H154 0.841 . S
O153 Zn155 1.911 . S
H154 O153 0.841 . S
Zn155 O153 1.911 . S
Zn155 O166 1.970 . S
Zn155 O176 1.981 . S
Zn155 O184 1.945 . S
C156 O157 1.246 . S
C156 O173 1.276 1_655 S
O157 C156 1.246 . S
O158 Zn138 1.985 . S
O158 C168 1.245 1_556 S
O159 Zn139 1.970 . S
O159 C168 1.263 . S
O160 Zn145 1.985 . S
O160 C172 1.245 1_556 S
O161 Zn144 1.970 . S
O161 C172 1.263 . S
O162 Zn148 1.985 . S
O162 C177 1.245 1_556 S
O163 Zn150 1.970 . S
O163 C177 1.263 . S
C164 O175 1.262 . S
C164 O176 1.245 1_545 S
O165 Zn152 1.985 . S
O165 C183 1.245 1_556 S
O166 Zn155 1.970 . S
O166 C183 1.263 . S
O167 Zn145 1.955 . S
O167 C186 1.276 1_565 S
C168 O158 1.245 1_554 S
C168 O159 1.263 . S
O169 Zn138 1.955 . S
O169 C188 1.276 1_545 S
C170 O178 1.262 1_545 S
C170 O179 1.245 . S
O171 C142 1.276 1_655 S
O171 Zn148 1.955 . S
C172 O160 1.245 1_554 S
C172 O161 1.263 . S
O173 Zn152 1.955 . S
O173 C156 1.276 1_455 S
C174 O181 1.262 1_455 S
C174 O182 1.245 . S
O175 Zn139 1.945 . S
O175 C164 1.262 . S
O176 Zn155 1.981 . S
O176 C164 1.245 1_565 S
C177 O162 1.245 1_554 S
C177 O163 1.263 . S
O178 Zn144 1.945 . S
O178 C170 1.262 1_565 S
O179 Zn150 1.981 . S
O179 C170 1.245 . S
C180 O184 1.262 . S
C180 O185 1.245 1_455 S
O181 Zn150 1.945 . S
O181 C174 1.262 1_655 S
O182 Zn139 1.981 . S
O182 C174 1.245 . S
C183 O165 1.245 1_554 S
C183 O166 1.263 . S
O184 Zn155 1.945 . S
O184 C180 1.262 . S
O185 Zn144 1.981 . S
O185 C180 1.245 1_655 S
C186 O167 1.276 1_545 S
C186 O187 1.246 . S
O187 C186 1.246 . S
C188 O169 1.276 1_565 S
C188 O189 1.246 . S
O189 C188 1.246 . S
C190 C191 1.391 1_655 S
C190 C192 1.394 . S
C190 H206 0.931 . S
C191 C190 1.391 1_455 S
C191 C195 1.376 . S
C192 C190 1.394 . S
C192 C193 1.369 1_655 S
C192 C196 1.531 . S
C193 C192 1.369 1_455 S
C193 C194 1.410 . S
C193 C201 1.503 . S
C194 C193 1.410 . S
C194 C195 1.392 . S
C194 C197 1.511 . S
C195 C191 1.376 . S
C195 C194 1.392 . S
C195 H207 0.929 . S
C196 C192 1.531 . S
C196 H208 0.960 . S
C196 H209 0.962 . S
C196 H210 0.960 . S
C197 C194 1.511 . S
C197 H211 0.961 . S
C197 H212 0.961 . S
C197 H213 0.961 . S
C198 C199 1.370 1_655 S
C198 C200 1.363 . S
C198 H214 0.931 . S
C199 C198 1.370 1_455 S
C199 C203 1.408 . S
C200 C198 1.363 . S
C200 C201 1.370 1_655 S
C200 C204 1.524 . S
C201 C193 1.503 . S
C201 C200 1.370 1_455 S
C201 C202 1.403 . S
C202 C201 1.403 . S
C202 C203 1.404 . S
C202 C205 1.539 . S
C203 C199 1.408 . S
C203 C202 1.404 . S
C203 H215 0.930 . S
C204 C200 1.524 . S
C204 H216 0.956 . S
C204 H217 0.975 . S
C204 H218 0.961 . S
C205 C202 1.539 . S
C205 H219 0.958 . S
C205 H220 0.961 . S
C205 H221 0.960 . S
H206 C190 0.931 . S
H207 C195 0.929 . S
H208 C196 0.960 . S
H209 C196 0.962 . S
H210 C196 0.960 . S
H211 C197 0.961 . S
H212 C197 0.961 . S
H213 C197 0.961 . S
H214 C198 0.931 . S
H215 C203 0.930 . S
H216 C204 0.956 . S
H217 C204 0.975 . S
H218 C204 0.961 . S
H219 C205 0.958 . S
H220 C205 0.961 . S
H221 C205 0.960 . S
C222 C223 1.391 . S
C222 C224 1.394 . S
C222 H238 0.931 . S
C223 C222 1.391 . S
C223 C227 1.376 1_545 S
C224 C222 1.394 . S
C224 C225 1.369 . S
C224 C228 1.531 . S
C225 C224 1.369 . S
C225 C226 1.410 1_545 S
C225 C233 1.503 . S
C226 C225 1.410 1_565 S
C226 C227 1.392 . S
C226 C229 1.511 . S
C227 C223 1.376 1_565 S
C227 C226 1.392 . S
C227 H239 0.929 . S
C228 C224 1.531 . S
C228 H240 0.960 . S
C228 H241 0.962 . S
C228 H242 0.960 . S
C229 C226 1.511 . S
C229 H243 0.961 . S
C229 H244 0.961 . S
C229 H245 0.961 1_565 S
C230 C231 1.370 1_565 S
C230 C232 1.363 . S
C230 H246 0.931 . S
C231 C230 1.370 1_545 S
C231 C235 1.408 . S
C232 C230 1.363 . S
C232 C233 1.370 1_565 S
C232 C236 1.524 . S
C233 C225 1.503 . S
C233 C232 1.370 1_545 S
C233 C234 1.403 . S
C234 C233 1.403 . S
C234 C235 1.404 . S
C234 C237 1.539 . S
C235 C231 1.408 . S
C235 C234 1.404 . S
C235 H247 0.930 . S
C236 C232 1.524 . S
C236 H248 0.956 . S
C236 H249 0.961 . S
C236 H250 0.961 . S
C237 C234 1.539 . S
C237 H251 0.958 . S
C237 H252 0.961 . S
C237 H253 0.960 . S
H238 C222 0.931 . S
H239 C227 0.929 . S
H240 C228 0.960 . S
H241 C228 0.962 . S
H242 C228 0.960 . S
H243 C229 0.961 . S
H244 C229 0.961 . S
H245 C229 0.961 1_545 S
H246 C230 0.931 . S
H247 C235 0.930 . S
H248 C236 0.956 . S
H249 C236 0.961 . S
H250 C236 0.961 . S
H251 C237 0.958 . S
H252 C237 0.961 . S
H253 C237 0.960 . S
C254 C255 1.391 1_455 S
C254 C256 1.394 . S
C254 H270 0.931 . S
C255 C254 1.391 1_655 S
C255 C259 1.376 . S
C256 C254 1.394 . S
C256 C257 1.369 1_455 S
C256 C260 1.531 . S
C257 C256 1.369 1_655 S
C257 C258 1.410 . S
C257 C265 1.503 . S
C258 C257 1.410 . S
C258 C259 1.392 . S
C258 C261 1.511 . S
C259 C255 1.376 . S
C259 C258 1.392 . S
C259 H271 0.929 . S
C260 C256 1.531 . S
C260 H272 0.960 . S
C260 H273 0.962 . S
C260 H274 0.960 . S
C261 C258 1.511 . S
C261 H275 0.961 . S
C261 H276 0.961 . S
C261 H277 0.961 . S
C262 C263 1.370 1_455 S
C262 C264 1.363 . S
C262 H278 0.931 . S
C263 C262 1.370 1_655 S
C263 C267 1.408 . S
C264 C262 1.363 . S
C264 C265 1.370 1_455 S
C264 C268 1.524 . S
C265 C257 1.503 . S
C265 C264 1.370 1_655 S
C265 C266 1.403 . S
C266 C265 1.403 . S
C266 C267 1.404 . S
C266 C269 1.539 . S
C267 C263 1.408 . S
C267 C266 1.404 . S
C267 H279 0.930 . S
C268 C264 1.524 . S
C268 H280 0.956 . S
C268 H281 0.961 . S
C268 H282 0.961 . S
C269 C266 1.539 . S
C269 H283 0.958 . S
C269 H284 0.961 . S
C269 H285 0.960 . S
H270 C254 0.931 . S
H271 C259 0.929 . S
H272 C260 0.960 . S
H273 C260 0.962 . S
H274 C260 0.960 . S
H275 C261 0.961 . S
H276 C261 0.961 . S
H277 C261 0.961 . S
H278 C262 0.931 . S
H279 C267 0.930 . S
H280 C268 0.956 . S
H281 C268 0.961 . S
H282 C268 0.961 . S
H283 C269 0.958 . S
H284 C269 0.961 . S
H285 C269 0.960 . S
C286 C287 1.391 1_565 S
C286 C288 1.394 . S
C286 H302 0.931 . S
C287 C286 1.391 1_545 S
C287 C291 1.376 . S
C288 C286 1.394 . S
C288 C289 1.369 1_565 S
C288 C292 1.531 . S
C289 C288 1.369 1_545 S
C289 C290 1.410 . S
C289 C297 1.503 . S
C290 C289 1.410 . S
C290 C291 1.392 . S
C290 C293 1.511 . S
C291 C287 1.376 . S
C291 C290 1.392 . S
C291 H303 0.929 . S
C292 C288 1.531 . S
C292 H304 0.966 . S
C292 H305 0.962 . S
C292 H306 0.960 . S
C293 C290 1.511 . S
C293 H307 0.961 . S
C293 H308 0.961 . S
C293 H309 0.961 . S
C294 C295 1.370 . S
C294 C296 1.363 . S
C294 H310 0.931 . S
C295 C294 1.370 . S
C295 C299 1.408 1_565 S
C296 C294 1.363 . S
C296 C297 1.370 1_565 S
C296 C300 1.524 . S
C297 C289 1.503 . S
C297 C296 1.370 1_545 S
C297 C298 1.403 . S
C298 C297 1.403 . S
C298 C299 1.404 . S
C298 C301 1.539 . S
C299 C295 1.408 1_545 S
C299 C298 1.404 . S
C299 H311 0.930 . S
C300 C296 1.524 . S
C300 H312 0.956 . S
C300 H313 0.961 . S
C300 H314 0.961 . S
C301 C298 1.539 . S
C301 H315 0.958 . S
C301 H316 0.961 . S
C301 H317 0.960 . S
H302 C286 0.931 . S
H303 C291 0.929 . S
H304 C292 0.966 . S
H305 C292 0.962 . S
H306 C292 0.960 . S
H307 C293 0.961 . S
H308 C293 0.961 . S
H309 C293 0.961 . S
H310 C294 0.931 . S
H311 C299 0.930 . S
H312 C300 0.956 . S
H313 C300 0.961 . S
H314 C300 0.961 . S
H315 C301 0.958 . S
H316 C301 0.961 . S
H317 C301 0.960 . S
C318 C319 1.391 1_655 S
C318 C320 1.394 . S
C318 H334 0.931 . S
C319 C318 1.391 1_455 S
C319 C323 1.376 . S
C320 C318 1.394 . S
C320 C321 1.369 1_655 S
C320 C324 1.531 . S
C321 C320 1.369 1_455 S
C321 C322 1.410 . S
C321 C329 1.503 1_455 S
C322 C321 1.410 . S
C322 C323 1.392 . S
C322 C325 1.511 . S
C323 C319 1.376 . S
C323 C322 1.392 . S
C323 H335 0.929 . S
C324 C320 1.531 . S
C324 H336 0.960 . S
C324 H337 0.962 . S
C324 H338 0.960 . S
C325 C322 1.511 . S
C325 H339 0.961 . S
C325 H340 0.961 . S
C325 H341 0.961 . S
C326 C327 1.370 . S
C326 C328 1.363 . S
C326 H342 0.931 . S
C327 C326 1.370 . S
C327 C331 1.408 1_655 S
C328 C326 1.363 . S
C328 C329 1.370 . S
C328 C332 1.524 . S
C329 C321 1.503 1_655 S
C329 C328 1.370 . S
C329 C330 1.403 1_655 S
C330 C329 1.403 1_455 S
C330 C331 1.404 . S
C330 C333 1.539 . S
C331 C327 1.408 1_455 S
C331 C330 1.404 . S
C331 H343 0.930 . S
C332 C328 1.524 . S
C332 H344 0.956 . S
C332 H345 0.961 . S
C332 H346 0.961 . S
C333 C330 1.539 . S
C333 H347 0.958 . S
C333 H348 0.961 . S
C333 H349 0.960 . S
H334 C318 0.931 . S
H335 C323 0.929 . S
H336 C324 0.960 . S
H337 C324 0.962 . S
H338 C324 0.960 . S
H339 C325 0.961 . S
H340 C325 0.961 . S
H341 C325 0.961 . S
H342 C326 0.931 . S
H343 C331 0.930 . S
H344 C332 0.956 . S
H345 C332 0.961 . S
H346 C332 0.961 . S
H347 C333 0.958 . S
H348 C333 0.961 . S
H349 C333 0.960 . S
C350 C351 1.393 . S
C350 C352 1.396 . S
C350 H366 0.926 1_565 S
C351 C350 1.393 . S
C351 C355 1.376 . S
C352 C350 1.396 . S
C352 C353 1.369 . S
C352 C356 1.533 . S
C353 C352 1.369 . S
C353 C354 1.410 . S
C353 C361 1.503 . S
C354 C353 1.410 . S
C354 C355 1.392 . S
C354 C357 1.511 . S
C355 C351 1.376 . S
C355 C354 1.392 . S
C355 H367 0.929 . S
C356 C352 1.533 . S
C356 H368 0.973 . S
C356 H369 0.941 1_565 S
C356 H370 0.967 . S
C357 C354 1.511 . S
C357 H371 0.961 . S
C357 H372 0.961 . S
C357 H373 0.961 . S
C358 C359 1.370 1_545 S
C358 C360 1.363 . S
C358 H374 0.931 . S
C359 C358 1.370 1_565 S
C359 C363 1.408 . S
C360 C358 1.363 . S
C360 C361 1.370 1_545 S
C360 C364 1.524 . S
C361 C353 1.503 . S
C361 C360 1.370 1_565 S
C361 C362 1.403 . S
C362 C361 1.403 . S
C362 C363 1.404 . S
C362 C365 1.539 . S
C363 C359 1.408 . S
C363 C362 1.404 . S
C363 H375 0.930 . S
C364 C360 1.524 . S
C364 H376 0.956 . S
C364 H377 0.961 . S
C364 H378 0.961 . S
C365 C362 1.539 . S
C365 H379 0.958 . S
C365 H380 0.961 . S
C365 H381 0.960 . S
H366 C350 0.926 1_545 S
H367 C355 0.929 . S
H368 C356 0.973 . S
H369 C356 0.941 1_545 S
H370 C356 0.967 . S
H371 C357 0.961 . S
H372 C357 0.961 . S
H373 C357 0.961 . S
H374 C358 0.931 . S
H375 C363 0.930 . S
H376 C364 0.956 . S
H377 C364 0.961 . S
H378 C364 0.961 . S
H379 C365 0.958 . S
H380 C365 0.961 . S
H381 C365 0.960 . S
C382 C383 1.386 1_455 S
C382 C384 1.394 . S
C382 H398 0.931 . S
C383 C382 1.386 1_655 S
C383 C387 1.381 . S
C384 C382 1.394 . S
C384 C385 1.376 . S
C384 C388 1.531 . S
C385 C384 1.376 . S
C385 C386 1.402 1_455 S
C385 C393 1.504 . S
C386 C385 1.402 1_655 S
C386 C387 1.392 . S
C386 C389 1.511 . S
C387 C383 1.381 . S
C387 C386 1.392 . S
C387 H399 0.929 . S
C388 C384 1.531 . S
C388 H400 0.960 . S
C388 H401 0.962 . S
C388 H402 0.960 . S
C389 C386 1.511 . S
C389 H403 0.961 . S
C389 H404 0.961 . S
C389 H405 0.961 . S
C390 C391 1.370 . S
C390 C392 1.363 . S
C390 H406 0.931 . S
C391 C390 1.370 . S
C391 C395 1.408 1_455 S
C392 C390 1.363 . S
C392 C393 1.370 . S
C392 C396 1.524 . S
C393 C385 1.504 . S
C393 C392 1.370 . S
C393 C394 1.403 1_455 S
C394 C393 1.403 1_655 S
C394 C395 1.404 . S
C394 C397 1.539 . S
C395 C391 1.408 1_655 S
C395 C394 1.404 . S
C395 H407 0.930 . S
C396 C392 1.524 . S
C396 H408 0.956 . S
C396 H409 0.961 . S
C396 H410 0.961 . S
C397 C394 1.539 . S
C397 H411 0.958 . S
C397 H412 0.961 . S
C397 H413 0.960 . S
H398 C382 0.931 . S
H399 C387 0.929 . S
H400 C388 0.960 . S
H401 C388 0.962 . S
H402 C388 0.960 . S
H403 C389 0.961 . S
H404 C389 0.961 . S
H405 C389 0.961 . S
H406 C390 0.931 . S
H407 C395 0.930 . S
H408 C396 0.956 . S
H409 C396 0.961 . S
H410 C396 0.961 . S
H411 C397 0.958 . S
H412 C397 0.961 . S
H413 C397 0.960 . S
C414 C415 1.391 . S
C414 C416 1.394 . S
C414 H430 0.931 . S
C415 C414 1.391 . S
C415 C419 1.376 1_565 S
C416 C414 1.394 . S
C416 C417 1.369 . S
C416 C420 1.531 . S
C417 C416 1.369 . S
C417 C418 1.410 1_565 S
C417 C425 1.503 1_565 S
C418 C417 1.410 1_545 S
C418 C419 1.392 . S
C418 C421 1.511 . S
C419 C415 1.376 1_545 S
C419 C418 1.392 . S
C419 H431 0.929 . S
C420 C416 1.531 . S
C420 H432 0.960 . S
C420 H433 0.962 . S
C420 H434 0.960 . S
C421 C418 1.511 . S
C421 H435 0.961 . S
C421 H436 0.961 . S
C421 H437 0.961 . S
C422 C423 1.370 . S
C422 C424 1.363 . S
C422 H438 0.931 . S
C423 C422 1.370 . S
C423 C427 1.408 1_545 S
C424 C422 1.363 . S
C424 C425 1.370 . S
C424 C428 1.524 . S
C425 C417 1.503 1_545 S
C425 C424 1.370 . S
C425 C426 1.403 1_545 S
C426 C425 1.403 1_565 S
C426 C427 1.404 . S
C426 C429 1.539 . S
C427 C423 1.408 1_565 S
C427 C426 1.404 . S
C427 H439 0.930 . S
C428 C424 1.524 . S
C428 H440 0.956 . S
C428 H441 0.961 . S
C428 H442 0.961 . S
C429 C426 1.539 . S
C429 H443 0.958 . S
C429 H444 0.961 . S
C429 H445 0.960 . S
H430 C414 0.931 . S
H431 C419 0.929 . S
H432 C420 0.960 . S
H433 C420 0.962 . S
H434 C420 0.960 . S
H435 C421 0.961 . S
H436 C421 0.961 . S
H437 C421 0.961 . S
H438 C422 0.931 . S
H439 C427 0.930 . S
H440 C428 0.956 . S
H441 C428 0.961 . S
H442 C428 0.961 . S
H443 C429 0.958 . S
H444 C429 0.961 . S
H445 C429 0.960 . S
C446 C447 1.391 . S
C446 C448 1.394 . S
C446 H462 0.931 . S
C447 C446 1.391 . S
C447 C451 1.376 . S
C448 C446 1.394 . S
C448 C449 1.369 . S
C448 C452 1.535 . S
C449 C448 1.369 . S
C449 C450 1.410 . S
C449 C457 1.503 . S
C450 C449 1.410 . S
C450 C451 1.392 . S
C450 C453 1.511 . S
C451 C447 1.376 . S
C451 C450 1.392 . S
C451 H463 0.929 . S
C452 C448 1.535 . S
C452 H464 0.947 1_554 S
C452 H465 0.985 . S
C452 H466 0.947 1_554 S
C453 C450 1.511 . S
C453 H467 0.961 . S
C453 H468 0.961 . S
C453 H469 0.961 1_554 S
C454 C455 1.370 . S
C454 C456 1.363 . S
C454 H470 0.931 . S
C455 C454 1.370 . S
C455 C459 1.408 1_554 S
C456 C454 1.363 . S
C456 C457 1.370 . S
C456 C460 1.524 . S
C457 C449 1.503 . S
C457 C456 1.370 . S
C457 C458 1.403 1_554 S
C458 C457 1.403 1_556 S
C458 C459 1.404 . S
C458 C461 1.539 . S
C459 C455 1.408 1_556 S
C459 C458 1.404 . S
C459 H471 0.930 . S
C460 C456 1.524 . S
C460 H472 0.956 . S
C460 H473 0.961 . S
C460 H474 0.961 . S
C461 C458 1.539 . S
C461 H475 0.958 . S
C461 H476 0.961 . S
C461 H477 0.960 . S
H462 C446 0.931 . S
H463 C451 0.929 . S
H464 C452 0.947 1_556 S
H465 C452 0.985 . S
H466 C452 0.947 1_556 S
H467 C453 0.961 . S
H468 C453 0.961 . S
H469 C453 0.961 1_556 S
H470 C454 0.931 . S
H471 C459 0.930 . S
H472 C460 0.956 . S
H473 C460 0.961 . S
H474 C460 0.961 . S
H475 C461 0.958 . S
H476 C461 0.961 . S
H477 C461 0.960 . S
C478 C479 1.391 1_556 S
C478 C480 1.394 . S
C478 H494 0.931 . S
C479 C478 1.391 1_554 S
C479 C483 1.376 . S
C480 C478 1.394 . S
C480 C481 1.369 1_556 S
C480 C484 1.531 . S
C481 C480 1.369 1_554 S
C481 C482 1.410 . S
C481 C489 1.503 . S
C482 C481 1.410 . S
C482 C483 1.392 . S
C482 C485 1.511 . S
C483 C479 1.376 . S
C483 C482 1.392 . S
C483 H495 0.929 . S
C484 C480 1.531 . S
C484 H496 0.960 . S
C484 H497 0.962 . S
C484 H498 0.960 . S
C485 C482 1.511 . S
C485 H499 0.961 . S
C485 H500 0.961 . S
C485 H501 0.961 . S
C486 C487 1.370 . S
C486 C488 1.363 . S
C486 H502 0.931 1_554 S
C487 C486 1.370 . S
C487 C491 1.408 . S
C488 C486 1.363 . S
C488 C489 1.370 . S
C488 C492 1.524 1_554 S
C489 C481 1.503 . S
C489 C488 1.370 . S
C489 C490 1.403 . S
C490 C489 1.403 . S
C490 C491 1.404 . S
C490 C493 1.539 . S
C491 C487 1.408 . S
C491 C490 1.404 . S
C491 H503 0.930 . S
C492 C488 1.524 1_556 S
C492 H504 0.956 . S
C492 H505 0.961 1_556 S
C492 H506 0.961 . S
C493 C490 1.539 . S
C493 H507 0.958 . S
C493 H508 0.961 . S
C493 H509 0.960 . S
H494 C478 0.931 . S
H495 C483 0.929 . S
H496 C484 0.960 . S
H497 C484 0.962 . S
H498 C484 0.960 . S
H499 C485 0.961 . S
H500 C485 0.961 . S
H501 C485 0.961 . S
H502 C486 0.931 1_556 S
H503 C491 0.930 . S
H504 C492 0.956 . S
H505 C492 0.961 1_554 S
H506 C492 0.961 . S
H507 C493 0.958 . S
H508 C493 0.961 . S
H509 C493 0.960 . S
C510 C511 1.391 . S
C510 C512 1.394 . S
C510 H526 0.931 . S
C511 C510 1.391 . S
C511 C515 1.376 1_554 S
C512 C510 1.394 . S
C512 C513 1.369 . S
C512 C516 1.531 . S
C513 C512 1.369 . S
C513 C514 1.410 1_554 S
C513 C521 1.503 . S
C514 C513 1.410 1_556 S
C514 C515 1.392 . S
C514 C517 1.511 . S
C515 C511 1.376 1_556 S
C515 C514 1.392 . S
C515 H527 0.929 . S
C516 C512 1.531 . S
C516 H528 0.960 . S
C516 H529 0.962 . S
C516 H530 0.960 . S
C517 C514 1.511 . S
C517 H531 0.961 . S
C517 H532 0.961 . S
C517 H533 0.961 . S
C518 C519 1.370 . S
C518 C520 1.363 . S
C518 H534 0.931 . S
C519 C518 1.370 . S
C519 C523 1.408 1_554 S
C520 C518 1.363 . S
C520 C521 1.370 . S
C520 C524 1.524 . S
C521 C513 1.503 . S
C521 C520 1.370 . S
C521 C522 1.403 1_554 S
C522 C521 1.403 1_556 S
C522 C523 1.404 . S
C522 C525 1.539 . S
C523 C519 1.408 1_556 S
C523 C522 1.404 . S
C523 H535 0.930 . S
C524 C520 1.524 . S
C524 H536 0.956 . S
C524 H537 0.961 . S
C524 H538 0.961 . S
C525 C522 1.539 . S
C525 H539 0.958 . S
C525 H540 0.961 . S
C525 H541 0.960 . S
H526 C510 0.931 . S
H527 C515 0.929 . S
H528 C516 0.960 . S
H529 C516 0.962 . S
H530 C516 0.960 . S
H531 C517 0.961 . S
H532 C517 0.961 . S
H533 C517 0.961 . S
H534 C518 0.931 . S
H535 C523 0.930 . S
H536 C524 0.956 . S
H537 C524 0.961 . S
H538 C524 0.961 . S
H539 C525 0.958 . S
H540 C525 0.961 . S
H541 C525 0.960 . S
C542 C543 1.391 1_556 S
C542 C544 1.394 . S
C542 H558 0.931 . S
C543 C542 1.391 1_554 S
C543 C547 1.376 . S
C544 C542 1.394 . S
C544 C545 1.369 1_556 S
C544 C548 1.531 . S
C545 C544 1.369 1_554 S
C545 C546 1.410 . S
C545 C553 1.503 . S
C546 C545 1.410 . S
C546 C547 1.392 . S
C546 C549 1.511 . S
C547 C543 1.376 . S
C547 C546 1.392 . S
C547 H559 0.929 . S
C548 C544 1.531 . S
C548 H560 0.960 . S
C548 H561 0.962 . S
C548 H562 0.960 . S
C549 C546 1.511 . S
C549 H563 0.961 . S
C549 H564 0.961 . S
C549 H565 0.961 . S
C550 C551 1.370 . S
C550 C552 1.363 . S
C550 H566 0.931 . S
C551 C550 1.370 . S
C551 C555 1.408 . S
C552 C550 1.363 . S
C552 C553 1.370 . S
C552 C556 1.524 . S
C553 C545 1.503 . S
C553 C552 1.370 . S
C553 C554 1.404 . S
C554 C553 1.404 . S
C554 C555 1.404 . S
C554 C557 1.538 1_554 S
C555 C551 1.408 . S
C555 C554 1.404 . S
C555 H567 0.930 1_554 S
C556 C552 1.524 . S
C556 H568 0.956 . S
C556 H569 0.961 . S
C556 H570 0.961 . S
C557 C554 1.538 1_556 S
C557 H571 0.958 . S
C557 H572 0.961 . S
C557 H573 0.960 . S
H558 C542 0.931 . S
H559 C547 0.929 . S
H560 C548 0.960 . S
H561 C548 0.962 . S
H562 C548 0.960 . S
H563 C549 0.961 . S
H564 C549 0.961 . S
H565 C549 0.961 . S
H566 C550 0.931 . S
H567 C555 0.930 1_556 S
H568 C556 0.956 . S
H569 C556 0.961 . S
H570 C556 0.961 . S
H571 C557 0.958 . S
H572 C557 0.961 . S
H573 C557 0.960 . S
C199 C174 1.887 . S
C191 C15 1.954 . S
C231 C170 1.407 . S
C223 C68 1.469 1_545 S
C263 C180 1.891 1_655 S
C255 C8 1.962 1_655 S
C295 C164 1.379 1_565 S
C287 C61 1.465 . S
C319 C1 2.086 1_455 S
C327 C156 1.978 . S
C359 C188 1.501 . S
C351 C54 1.588 1_565 S
C383 C22 2.081 . S
C391 C142 1.973 . S
C415 C47 1.587 . S
C423 C186 1.488 . S
C447 C93 1.014 . S
C455 C168 0.985 . S
C479 C114 1.011 . S
C487 C183 0.979 . S
C519 C177 1.005 . S
C511 C100 1.009 . S
C551 C172 0.977 . S
C543 C107 1.024 . S
