# Generated by pormake.
# Topology ptr, (4,4)-cn, num edge types: 1
# Building blocks:
#     Node 0, Type 0, BuildingBlock: UXUYUI_clean_sbu_0, # of connection points: 4
#     Node 1, Type 0, BuildingBlock: UXUYUI_clean_sbu_0, # of connection points: 4
#     Node 2, Type 0, BuildingBlock: UXUYUI_clean_sbu_0, # of connection points: 4
#     Node 3, Type 0, BuildingBlock: UXUYUI_clean_sbu_0, # of connection points: 4
#     Node 4, Type 0, BuildingBlock: UXUYUI_clean_sbu_0, # of connection points: 4
#     Node 5, Type 0, BuildingBlock: UXUYUI_clean_sbu_0, # of connection points: 4
#     Node 6, Type 0, BuildingBlock: UXUYUI_clean_sbu_0, # of connection points: 4
#     Node 7, Type 0, BuildingBlock: UXUYUI_clean_sbu_0, # of connection points: 4
#     Node 8, Type 0, BuildingBlock: UXUYUI_clean_sbu_0, # of connection points: 4
#     Node 9, Type 0, BuildingBlock: UXUYUI_clean_sbu_0, # of connection points: 4
#     Node 10, Type 0, BuildingBlock: UXUYUI_clean_sbu_0, # of connection points: 4
#     Node 11, Type 0, BuildingBlock: UXUYUI_clean_sbu_0, # of connection points: 4
#     Node 12, Type 0, BuildingBlock: UXUYUI_clean_sbu_0, # of connection points: 4
#     Node 13, Type 0, BuildingBlock: UXUYUI_clean_sbu_0, # of connection points: 4
#     Node 14, Type 0, BuildingBlock: UXUYUI_clean_sbu_0, # of connection points: 4
#     Node 15, Type 0, BuildingBlock: UXUYUI_clean_sbu_0, # of connection points: 4
#     Node 16, Type 0, BuildingBlock: UXUYUI_clean_sbu_0, # of connection points: 4
#     Node 17, Type 0, BuildingBlock: UXUYUI_clean_sbu_0, # of connection points: 4
#     Node 18, Type 1, BuildingBlock: GIZVER_clean_linker_0, # of connection points: 4
#     Node 19, Type 1, BuildingBlock: GIZVER_clean_linker_0, # of connection points: 4
#     Node 20, Type 1, BuildingBlock: GIZVER_clean_linker_0, # of connection points: 4
#     Node 21, Type 1, BuildingBlock: GIZVER_clean_linker_0, # of connection points: 4
#     Node 22, Type 1, BuildingBlock: GIZVER_clean_linker_0, # of connection points: 4
#     Node 23, Type 1, BuildingBlock: GIZVER_clean_linker_0, # of connection points: 4
#     Node 24, Type 1, BuildingBlock: GIZVER_clean_linker_0, # of connection points: 4
#     Node 25, Type 1, BuildingBlock: GIZVER_clean_linker_0, # of connection points: 4
#     Node 26, Type 1, BuildingBlock: GIZVER_clean_linker_0, # of connection points: 4
#     Node 27, Type 1, BuildingBlock: GIZVER_clean_linker_0, # of connection points: 4
#     Node 28, Type 1, BuildingBlock: GIZVER_clean_linker_0, # of connection points: 4
#     Node 29, Type 1, BuildingBlock: GIZVER_clean_linker_0, # of connection points: 4
#     Node 30, Type 1, BuildingBlock: GIZVER_clean_linker_0, # of connection points: 4
#     Node 31, Type 1, BuildingBlock: GIZVER_clean_linker_0, # of connection points: 4
#     Node 32, Type 1, BuildingBlock: GIZVER_clean_linker_0, # of connection points: 4
#     Node 33, Type 1, BuildingBlock: GIZVER_clean_linker_0, # of connection points: 4
#     Node 34, Type 1, BuildingBlock: GIZVER_clean_linker_0, # of connection points: 4
#     Node 35, Type 1, BuildingBlock: GIZVER_clean_linker_0, # of connection points: 4
#     Edge 36, Type (0, 1), BuildingBlock: AJUNOK_clean_linker_0, # of connection points: 2
#     Edge 37, Type (0, 1), BuildingBlock: AJUNOK_clean_linker_0, # of connection points: 2
#     Edge 38, Type (0, 1), BuildingBlock: AJUNOK_clean_linker_0, # of connection points: 2
#     Edge 39, Type (0, 1), BuildingBlock: AJUNOK_clean_linker_0, # of connection points: 2
#     Edge 40, Type (0, 1), BuildingBlock: AJUNOK_clean_linker_0, # of connection points: 2
#     Edge 41, Type (0, 1), BuildingBlock: AJUNOK_clean_linker_0, # of connection points: 2
#     Edge 42, Type (0, 1), BuildingBlock: AJUNOK_clean_linker_0, # of connection points: 2
#     Edge 43, Type (0, 1), BuildingBlock: AJUNOK_clean_linker_0, # of connection points: 2
#     Edge 44, Type (0, 1), BuildingBlock: AJUNOK_clean_linker_0, # of connection points: 2
#     Edge 45, Type (0, 1), BuildingBlock: AJUNOK_clean_linker_0, # of connection points: 2
#     Edge 46, Type (0, 1), BuildingBlock: AJUNOK_clean_linker_0, # of connection points: 2
#     Edge 47, Type (0, 1), BuildingBlock: AJUNOK_clean_linker_0, # of connection points: 2
#     Edge 48, Type (0, 1), BuildingBlock: AJUNOK_clean_linker_0, # of connection points: 2
#     Edge 49, Type (0, 1), BuildingBlock: AJUNOK_clean_linker_0, # of connection points: 2
#     Edge 50, Type (0, 1), BuildingBlock: AJUNOK_clean_linker_0, # of connection points: 2
#     Edge 51, Type (0, 1), BuildingBlock: AJUNOK_clean_linker_0, # of connection points: 2
#     Edge 52, Type (0, 1), BuildingBlock: AJUNOK_clean_linker_0, # of connection points: 2
#     Edge 53, Type (0, 1), BuildingBlock: AJUNOK_clean_linker_0, # of connection points: 2
#     Edge 54, Type (0, 1), BuildingBlock: AJUNOK_clean_linker_0, # of connection points: 2
#     Edge 55, Type (0, 1), BuildingBlock: AJUNOK_clean_linker_0, # of connection points: 2
#     Edge 56, Type (0, 1), BuildingBlock: AJUNOK_clean_linker_0, # of connection points: 2
#     Edge 57, Type (0, 1), BuildingBlock: AJUNOK_clean_linker_0, # of connection points: 2
#     Edge 58, Type (0, 1), BuildingBlock: AJUNOK_clean_linker_0, # of connection points: 2
#     Edge 59, Type (0, 1), BuildingBlock: AJUNOK_clean_linker_0, # of connection points: 2
#     Edge 60, Type (0, 1), BuildingBlock: AJUNOK_clean_linker_0, # of connection points: 2
#     Edge 61, Type (0, 1), BuildingBlock: AJUNOK_clean_linker_0, # of connection points: 2
#     Edge 62, Type (0, 1), BuildingBlock: AJUNOK_clean_linker_0, # of connection points: 2
#     Edge 63, Type (0, 1), BuildingBlock: AJUNOK_clean_linker_0, # of connection points: 2
#     Edge 64, Type (0, 1), BuildingBlock: AJUNOK_clean_linker_0, # of connection points: 2
#     Edge 65, Type (0, 1), BuildingBlock: AJUNOK_clean_linker_0, # of connection points: 2
#     Edge 66, Type (0, 1), BuildingBlock: AJUNOK_clean_linker_0, # of connection points: 2
#     Edge 67, Type (0, 1), BuildingBlock: AJUNOK_clean_linker_0, # of connection points: 2
#     Edge 68, Type (0, 1), BuildingBlock: AJUNOK_clean_linker_0, # of connection points: 2
#     Edge 69, Type (0, 1), BuildingBlock: AJUNOK_clean_linker_0, # of connection points: 2
#     Edge 70, Type (0, 1), BuildingBlock: AJUNOK_clean_linker_0, # of connection points: 2
#     Edge 71, Type (0, 1), BuildingBlock: AJUNOK_clean_linker_0, # of connection points: 2
#     Edge 72, Type (0, 1), BuildingBlock: AJUNOK_clean_linker_0, # of connection points: 2
#     Edge 73, Type (0, 1), BuildingBlock: AJUNOK_clean_linker_0, # of connection points: 2
#     Edge 74, Type (0, 1), BuildingBlock: AJUNOK_clean_linker_0, # of connection points: 2
#     Edge 75, Type (0, 1), BuildingBlock: AJUNOK_clean_linker_0, # of connection points: 2
#     Edge 76, Type (0, 1), BuildingBlock: AJUNOK_clean_linker_0, # of connection points: 2
#     Edge 77, Type (0, 1), BuildingBlock: AJUNOK_clean_linker_0, # of connection points: 2
#     Edge 78, Type (0, 1), BuildingBlock: AJUNOK_clean_linker_0, # of connection points: 2
#     Edge 79, Type (0, 1), BuildingBlock: AJUNOK_clean_linker_0, # of connection points: 2
#     Edge 80, Type (0, 1), BuildingBlock: AJUNOK_clean_linker_0, # of connection points: 2
#     Edge 81, Type (0, 1), BuildingBlock: AJUNOK_clean_linker_0, # of connection points: 2
#     Edge 82, Type (0, 1), BuildingBlock: AJUNOK_clean_linker_0, # of connection points: 2
#     Edge 83, Type (0, 1), BuildingBlock: AJUNOK_clean_linker_0, # of connection points: 2
#     Edge 84, Type (0, 1), BuildingBlock: AJUNOK_clean_linker_0, # of connection points: 2
#     Edge 85, Type (0, 1), BuildingBlock: AJUNOK_clean_linker_0, # of connection points: 2
#     Edge 86, Type (0, 1), BuildingBlock: AJUNOK_clean_linker_0, # of connection points: 2
#     Edge 87, Type (0, 1), BuildingBlock: AJUNOK_clean_linker_0, # of connection points: 2
#     Edge 88, Type (0, 1), BuildingBlock: AJUNOK_clean_linker_0, # of connection points: 2
#     Edge 89, Type (0, 1), BuildingBlock: AJUNOK_clean_linker_0, # of connection points: 2
#     Edge 90, Type (0, 1), BuildingBlock: AJUNOK_clean_linker_0, # of connection points: 2
#     Edge 91, Type (0, 1), BuildingBlock: AJUNOK_clean_linker_0, # of connection points: 2
#     Edge 92, Type (0, 1), BuildingBlock: AJUNOK_clean_linker_0, # of connection points: 2
#     Edge 93, Type (0, 1), BuildingBlock: AJUNOK_clean_linker_0, # of connection points: 2
#     Edge 94, Type (0, 1), BuildingBlock: AJUNOK_clean_linker_0, # of connection points: 2
#     Edge 95, Type (0, 1), BuildingBlock: AJUNOK_clean_linker_0, # of connection points: 2
#     Edge 96, Type (0, 1), BuildingBlock: AJUNOK_clean_linker_0, # of connection points: 2
#     Edge 97, Type (0, 1), BuildingBlock: AJUNOK_clean_linker_0, # of connection points: 2
#     Edge 98, Type (0, 1), BuildingBlock: AJUNOK_clean_linker_0, # of connection points: 2
#     Edge 99, Type (0, 1), BuildingBlock: AJUNOK_clean_linker_0, # of connection points: 2
#     Edge 100, Type (0, 1), BuildingBlock: AJUNOK_clean_linker_0, # of connection points: 2
#     Edge 101, Type (0, 1), BuildingBlock: AJUNOK_clean_linker_0, # of connection points: 2
#     Edge 102, Type (0, 1), BuildingBlock: AJUNOK_clean_linker_0, # of connection points: 2
#     Edge 103, Type (0, 1), BuildingBlock: AJUNOK_clean_linker_0, # of connection points: 2
#     Edge 104, Type (0, 1), BuildingBlock: AJUNOK_clean_linker_0, # of connection points: 2
#     Edge 105, Type (0, 1), BuildingBlock: AJUNOK_clean_linker_0, # of connection points: 2
#     Edge 106, Type (0, 1), BuildingBlock: AJUNOK_clean_linker_0, # of connection points: 2
#     Edge 107, Type (0, 1), BuildingBlock: AJUNOK_clean_linker_0, # of connection points: 2
# Relax obj value: 0.092
# Max RMSD: 0.230
# Mean RMSD: 0.120
data_MOF--net-ptr--node1-UXUYUI_clean_sbu_0--node2-GIZVER_clean_linker_0--edge1-AJUNOK_clean_linker_0
_symmetry_space_group_name_H-M    P1
_symmetry_Int_Tables_number       1
_symmetry_cell_setting            triclinic
loop_
_symmetry_equiv_pos_as_xyz
'x, y, z'
_cell_length_a     78.517008
_cell_length_b     78.557443
_cell_length_c     44.799661
_cell_angle_alpha  90.328652
_cell_angle_beta   90.281836
_cell_angle_gamma 120.07601
loop_
_atom_site_label
_atom_site_type_symbol
_atom_site_fract_x
_atom_site_fract_y
_atom_site_fract_z
_atom_type_partial_charge
Li0 Li 0.98683 0.35398 0.00939 0.0
Li1 Li 0.02182 0.37151 0.01048 0.0
Li2 Li 1.0034 0.38405 0.03931 0.0
Li3 Li 1.00427 0.38482 0.98227 0.0
C4 C 0.99728 0.34743 0.06866 0.0
N5 N 0.98348 0.32286 0.11737 0.0
C6 C 1.00289 0.33333 0.0732 0.0
C7 C 0.98496 0.34929 0.08922 0.0
C8 C 0.99566 0.32096 0.09786 0.0
C9 C 0.97806 0.33666 0.11361 0.0
C10 C 0.00522 0.34416 0.96389 0.0
C11 C 0.0072 0.32515 0.923 0.0
N12 N 0.006 0.31147 0.94268 0.0
C13 C 1.00398 0.32992 0.98369 0.0
C14 C 0.0068 0.34177 0.93329 0.0
C15 C 1.00441 0.3135 0.97255 0.0
C16 C 0.95606 0.32383 0.97704 0.0
N17 N 0.96342 0.32826 0.00535 0.0
C18 C 0.93765 0.29701 0.02235 0.0
C19 C 0.9545 0.31531 0.02797 0.0
C20 C 0.92985 0.29211 0.99326 0.0
C21 C 0.93923 0.30587 0.97052 0.0
H22 H 0.96333 0.33433 0.95942 0.0
H23 H 0.96033 0.31903 0.05036 0.0
C24 C 0.05365 0.37337 0.04079 0.0
N25 N 0.04551 0.37008 0.01303 0.0
C26 C 0.07108 0.37312 0.04564 0.0
C27 C 0.07142 0.36571 0.99329 0.0
C28 C 0.05404 0.36641 0.98933 0.0
C29 C 0.0802 0.36928 0.02173 0.0
H30 H 0.04657 0.37627 0.05921 0.0
H31 H 0.04742 0.36405 0.96737 0.0
C32 C 0.96162 0.36674 0.00771 0.0
N33 N 0.92105 0.34579 0.00293 0.0
C34 C 0.95246 0.36422 0.97991 0.0
C35 C 0.95014 0.35881 0.03313 0.0
C36 C 0.93194 0.35353 0.97794 0.0
C37 C 0.92966 0.3482 0.03024 0.0
C38 C 0.0458 0.40956 0.0068 0.0
C39 C 0.05888 0.41852 0.03071 0.0
C40 C 0.05308 0.41084 0.978 0.0
C41 C 0.07911 0.42854 0.02539 0.0
C42 C 0.07341 0.42101 0.97361 0.0
N43 N 0.08589 0.42956 0.9972 0.0
C44 C 0.01794 0.4044 0.0939 0.0
C45 C 0.99049 0.40547 0.0738 0.0
C46 C 0.01956 0.41702 0.11722 0.0
N47 N 1.00368 0.39907 0.07273 0.0
C48 C 0.99145 0.41796 0.09691 0.0
C49 C 0.00625 0.424 0.11879 0.0
H50 H 0.02824 0.3991 0.09236 0.0
H51 H 0.97947 0.40119 0.05638 0.0
C52 C 0.99504 0.39148 0.9239 0.0
N53 N 1.00434 0.40025 0.94991 0.0
C54 C 0.99345 0.4027 0.90113 0.0
C55 C 0.01169 0.43182 0.93194 0.0
C56 C 0.01274 0.42001 0.95426 0.0
C57 C 1.00161 0.42308 0.90524 0.0
H58 H 0.98847 0.37573 0.92115 0.0
H59 H 0.01995 0.42653 0.9753 0.0
O60 O 1.00451 0.35989 0.04493 0.0
O61 O 1.00475 0.36033 0.97421 0.0
O62 O 0.98172 0.37664 0.00994 0.0
O63 O 0.02598 0.39898 0.01166 0.0
H64 H 0.01282 0.33199 0.05794 0.0
H65 H 0.98076 0.36034 0.08642 0.0
H66 H 0.99981 0.30992 0.10156 0.0
H67 H 0.96842 0.33786 0.1296 0.0
H68 H 0.00844 0.32311 0.89938 0.0
H69 H 1.00261 0.33149 0.00735 0.0
H70 H 0.00773 0.35267 0.91767 0.0
H71 H 1.00345 0.30235 0.98764 0.0
H72 H 0.93074 0.28685 0.04054 0.0
H73 H 0.93382 0.3026 0.94772 0.0
H74 H 0.07721 0.37558 0.06801 0.0
H75 H 0.078 0.3626 0.97439 0.0
H76 H 0.96111 0.37024 0.96001 0.0
H77 H 0.95696 0.3607 0.05482 0.0
H78 H 0.92466 0.35134 0.95653 0.0
H79 H 0.9206 0.34187 0.0497 0.0
H80 H 0.05347 0.41756 0.05315 0.0
H81 H 0.04313 0.4038 0.95932 0.0
H82 H 0.08942 0.43544 0.04369 0.0
H83 H 0.07926 0.42203 0.95147 0.0
H84 H 0.03108 0.42127 0.13387 0.0
H85 H 0.98105 0.4232 0.0973 0.0
H86 H 0.98587 0.39552 0.88057 0.0
H87 H 0.01822 0.4475 0.93579 0.0
Li88 Li 0.65268 0.63452 0.00639 0.0
Li89 Li 0.63563 0.65293 0.0066 0.0
Li90 Li 0.62239 0.62134 0.03296 0.0
Li91 Li 0.62109 0.6214 0.97861 0.0
C92 C 0.66549 0.65591 0.05342 0.0
N93 N 0.70369 0.67475 0.07511 0.0
C94 C 0.67855 0.67544 0.04579 0.0
C95 C 0.67186 0.64596 0.07207 0.0
C96 C 0.69779 0.68471 0.05701 0.0
C97 C 0.69123 0.65575 0.0828 0.0
C98 C 0.64492 0.65506 0.9458 0.0
C99 C 0.62511 0.66128 0.91109 0.0
N100 N 0.64127 0.67197 0.894 0.0
C101 C 0.6613 0.66602 0.9278 0.0
C102 C 0.62666 0.6526 0.93731 0.0
C103 C 0.65917 0.6745 0.90175 0.0
C104 C 0.68264 0.62376 0.01451 0.0
N105 N 0.67856 0.63756 0.00405 0.0
C106 C 0.71126 0.65657 0.98528 0.0
C107 C 0.6925 0.65388 0.99002 0.0
C108 C 0.71593 0.64248 0.9955 0.0
C109 C 0.70134 0.62598 0.01059 0.0
H110 H 0.67133 0.61084 0.0254 0.0
H111 H 0.68888 0.66461 0.98186 0.0
C112 C 0.63636 0.6837 0.03867 0.0
N113 N 0.63835 0.67882 0.01025 0.0
C114 C 0.63764 0.70171 0.04502 0.0
C115 C 0.6438 0.71002 0.99291 0.0
C116 C 0.64221 0.69168 0.98748 0.0
C117 C 0.64142 0.71516 0.02201 0.0
H118 H 0.63394 0.67361 0.0566 0.0
H119 H 0.64428 0.68798 0.96514 0.0
C120 C 0.62116 0.58889 0.01652 0.0
N121 N 0.60152 0.55221 0.04252 0.0
C122 C 0.60351 0.57407 0.00408 0.0
C123 C 0.62886 0.58501 0.04211 0.0
C124 C 0.59381 0.55563 0.01755 0.0
C125 C 0.61869 0.56639 0.05496 0.0
C126 C 0.59621 0.63711 0.01763 0.0
C127 C 0.5963 0.64095 0.04816 0.0
C128 C 0.58426 0.64059 -0.00169 0.0
C129 C 0.58449 0.64824 0.05884 0.0
C130 C 0.57266 0.64789 0.00985 0.0
N131 N 0.57301 0.65154 0.03963 0.0
C132 C 0.61422 0.60625 0.0928 0.0
C133 C 0.58707 0.59367 0.0592 0.0
C134 C 0.60208 0.59416 0.11546 0.0
N135 N 0.60655 0.60571 0.06531 0.0
C136 C 0.57438 0.58156 0.08129 0.0
C137 C 0.58191 0.58166 0.10976 0.0
H138 H 0.62971 0.61601 0.09712 0.0
H139 H 0.58141 0.59352 0.03708 0.0
C140 C 0.61502 0.59976 0.92597 0.0
N141 N 0.60611 0.60614 0.94531 0.0
C142 C 0.60423 0.58685 0.90277 0.0
C143 C 0.57539 0.58768 0.91939 0.0
C144 C 0.58671 0.60046 0.94249 0.0
C145 C 0.58411 0.58048 0.89954 0.0
H146 H 0.63043 0.60442 0.92901 0.0
H147 H 0.57996 0.60551 0.95857 0.0
O148 O 0.64677 0.6464 0.04192 0.0
O149 O 0.64671 0.64628 0.97098 0.0
O150 O 0.63062 0.60722 0.00411 0.0
O151 O 0.60782 0.63013 0.00662 0.0
H152 H 0.67397 0.68328 0.03105 0.0
H153 H 0.66208 0.63075 0.07777 0.0
H154 H 0.70808 0.69979 0.05119 0.0
H155 H 0.69639 0.64819 0.0971 0.0
H156 H 0.61107 0.65953 0.90434 0.0
H157 H 0.67552 0.66791 0.93381 0.0
H158 H 0.61385 0.64423 0.95092 0.0
H159 H 0.67173 0.68305 0.88765 0.0
H160 H 0.7217 0.66919 0.97265 0.0
H161 H 0.70423 0.61472 0.01878 0.0
H162 H 0.63612 0.70527 0.06789 0.0
H163 H 0.64682 0.72004 0.97458 0.0
H164 H 0.59724 0.57678 0.9844 0.0
H165 H 0.64226 0.59639 0.05245 0.0
H166 H 0.5801 0.54405 0.00821 0.0
H167 H 0.62437 0.56326 0.07496 0.0
H168 H 0.60567 0.63871 0.06345 0.0
H169 H 0.58394 0.63772 0.97461 0.0
H170 H 0.58453 0.65138 0.08239 0.0
H171 H 0.56337 0.65067 0.99513 0.0
H172 H 0.60831 0.59486 0.13738 0.0
H173 H 0.55888 0.57217 0.0762 0.0
H174 H 0.61152 0.58186 0.88752 0.0
H175 H 0.55991 0.58308 0.91747 0.0
Li176 Li 0.38619 1.00041 0.97884 0.0
Li177 Li 0.3878 0.00357 0.03507 0.0
Li178 Li 0.35587 0.98503 0.009 0.0
Li179 Li 0.37387 0.01939 0.00599 0.0
C180 C 0.37584 0.9639 0.0253 0.0
N181 N 0.37226 0.933 0.05919 0.0
C182 C 0.36323 0.95735 0.04978 0.0
C183 C 0.38658 0.95469 0.018 0.0
C184 C 0.36163 0.94172 0.06664 0.0
C185 C 0.38458 0.93911 0.03543 0.0
C186 C 0.4126 0.04339 -0.00099 0.0
C187 C 0.4349 0.07668 0.0152 0.0
N188 N 0.4345 0.08311 0.98722 0.0
C189 C 0.4125 0.05027 0.97036 0.0
C190 C 0.42394 0.05664 0.02161 0.0
C191 C 0.42363 0.07043 0.96486 0.0
C192 C 0.39718 1.00321 0.91805 0.0
N193 N 0.40071 0.99908 0.94603 0.0
C194 C 0.4266 0.9941 0.92824 0.0
C195 C 0.41514 0.99472 0.95157 0.0
C196 C 0.42315 0.99809 0.89905 0.0
C197 C 0.40822 1.00269 0.89409 0.0
H198 H 0.38587 0.00701 0.9144 0.0
H199 H 0.4178 0.99182 0.97418 0.0
C200 C 0.39415 0.99393 0.09298 0.0
N201 N 0.40327 0.0035 0.06762 0.0
C202 C 0.40485 0.99129 0.11558 0.0
C203 C 0.43435 0.00933 0.08631 0.0
C204 C 0.42299 0.01133 0.06397 0.0
C205 C 0.42512 0.99884 0.11214 0.0
H206 H 0.37846 0.9879 0.09528 0.0
H207 H 0.42977 0.01867 0.04338 0.0
C208 C 0.3443 0.98867 0.95718 0.0
N209 N 0.30917 0.96272 0.92919 0.0
C210 C 0.32712 0.98906 0.96391 0.0
C211 C 0.3436 0.97508 0.93623 0.0
C212 C 0.30951 0.9758 0.94954 0.0
C213 C 0.3257 0.9621 0.92228 0.0
C214 C 0.35992 0.01631 0.05987 0.0
C215 C 0.34378 0.01873 0.05368 0.0
C216 C 0.37281 0.02704 0.08321 0.0
C217 C 0.34087 0.03192 0.07091 0.0
C218 C 0.36936 0.04005 0.09997 0.0
N219 N 0.35361 0.04221 0.09351 0.0
C220 C 0.32511 0.94499 0.99731 0.0
C221 C 0.31735 0.9634 0.03104 0.0
C222 C 0.30649 0.92836 0.00123 0.0
N223 N 0.33012 0.96206 0.01218 0.0
C224 C 0.29869 0.94723 0.03558 0.0
C225 C 0.29299 0.9294 0.02058 0.0
H226 H 0.33566 0.94422 0.98277 0.0
H227 H 0.32181 0.9769 0.04316 0.0
C228 C 0.38114 0.05855 0.02191 0.0
N229 N 0.37197 0.04298 0.00265 0.0
C230 C 0.37912 0.07517 0.01839 0.0
C231 C 0.35832 0.05945 0.97536 0.0
C232 C 0.36088 0.0433 0.97952 0.0
C233 C 0.36738 0.07562 0.99503 0.0
H234 H 0.39004 0.05812 0.04003 0.0
H235 H 0.35416 0.03108 0.96401 0.0
O236 O 0.37787 0.97937 0.00871 0.0
O237 O 0.40148 0.02379 0.00498 0.0
O238 O 0.3616 1.00121 0.97155 0.0
O239 O 0.36306 0.00349 0.04323 0.0
H240 H 0.35495 0.96442 0.05598 0.0
H241 H 0.39639 0.95956 -0.00089 0.0
H242 H 0.35199 0.93657 0.08572 0.0
H243 H 0.39284 0.93188 0.03007 0.0
H244 H 0.44367 0.08714 0.0325 0.0
H245 H 0.40371 0.04017 0.95268 0.0
H246 H 0.42411 0.05149 0.04393 0.0
H247 H 0.42359 0.07601 0.94286 0.0
H248 H 0.43785 0.99034 0.93293 0.0
H249 H 0.40525 0.00605 0.87191 0.0
H250 H 0.39738 0.9833 0.13547 0.0
H251 H 0.44999 0.01537 0.08312 0.0
H252 H 0.32732 0.99926 0.98041 0.0
H253 H 0.35666 0.97433 0.93111 0.0
H254 H 0.29609 0.97585 0.95468 0.0
H255 H 0.32493 0.95145 0.90611 0.0
H256 H 0.3338 0.01079 0.03541 0.0
H257 H 0.38546 0.0255 0.08819 0.0
H258 H 0.32853 0.03404 0.06622 0.0
H259 H 0.37926 0.0485 0.11804 0.0
H260 H 0.30277 0.91481 0.98957 0.0
H261 H 0.28908 0.94851 0.05158 0.0
H262 H 0.38657 0.08748 0.03376 0.0
H263 H 0.34969 0.05949 0.95644 0.0
Li264 Li 0.02295 0.65143 0.01591 0.0
Li265 Li 1.00373 0.61976 0.04048 0.0
Li266 Li 0.00645 0.62099 0.98704 0.0
Li267 Li 0.98674 0.63279 0.0113 0.0
C268 C 0.04516 0.63362 0.00277 0.0
N269 N 0.07999 0.64293 0.97471 0.0
C270 C 0.05642 0.62548 0.01265 0.0
C271 C 0.05162 0.64651 0.97864 0.0
C272 C 0.07399 0.63037 -0.00184 0.0
C273 C 0.06926 0.65103 0.96475 0.0
C274 C 0.01242 0.65352 0.07442 0.0
C275 C 0.01619 0.67389 0.11729 0.0
N276 N 0.03145 0.6718 0.1271 0.0
C277 C 0.02812 0.65155 0.08497 0.0
C278 C 0.00637 0.66476 0.09072 0.0
C279 C 0.03756 0.66091 0.11163 0.0
C280 C 0.04542 0.6927 0.00564 0.0
N281 N 0.04562 0.6773 0.01902 0.0
C282 C 0.07763 0.69876 0.03947 0.0
C283 C 0.06148 0.67994 0.03516 0.0
C284 C 0.07771 0.71511 0.02668 0.0
C285 C 0.06149 0.71179 0.00888 0.0
H286 H 0.03266 0.69019 0.99279 0.0
H287 H 0.06144 0.66747 0.04528 0.0
C288 C 0.00869 0.59061 0.06606 0.0
N289 N 1.00266 0.60364 0.07281 0.0
C290 C 0.00975 0.57874 0.08819 0.0
C291 C 0.99779 0.59349 0.12372 0.0
C292 C 0.99682 0.605 0.10081 0.0
C293 C 1.0047 0.58044 0.11763 0.0
H294 H 0.01296 0.58967 0.04346 0.0
H295 H 0.99186 0.61532 0.10553 0.0
C296 C 1.00152 0.64674 0.95057 0.0
N297 N 0.99166 0.64772 0.89158 0.0
C298 C 0.98453 0.63098 0.93817 0.0
C299 C 0.01363 0.66291 0.93289 0.0
C300 C 0.97975 0.63178 0.90833 0.0
C301 C 0.00836 0.66316 0.90313 0.0
C302 C 0.96507 0.59335 0.02499 0.0
C303 C 0.95248 0.57446 0.01366 0.0
C304 C 0.9599 0.59969 0.05085 0.0
C305 C 0.93493 0.56219 0.02846 0.0
C306 C 0.94223 0.58698 0.06499 0.0
N307 N 0.93022 0.56865 0.0536 0.0
C308 C 0.99866 0.58655 0.95792 0.0
C309 C 0.01764 0.61479 0.92848 0.0
C310 C 0.9985 0.57428 0.93513 0.0
N311 N 0.00795 0.60635 0.95412 0.0
C312 C 0.01798 0.60307 0.90517 0.0
C313 C 0.00824 0.58254 0.90836 0.0
H314 H 0.99129 0.58027 0.9787 0.0
H315 H 0.02495 0.63058 0.92598 0.0
C316 C 0.96345 0.65088 0.0204 0.0
N317 N 0.96365 0.63517 0.00784 0.0
C318 C 0.94706 0.65329 0.01674 0.0
C319 C 0.93135 0.62322 0.98761 0.0
C320 C 0.94789 0.62128 0.99212 0.0
C321 C 0.93075 0.63944 -0.00014 0.0
H322 H 0.97618 0.66173 0.03281 0.0
H323 H 0.9483 0.60887 0.98242 0.0
O324 O 0.02795 0.62895 0.01684 0.0
O325 O 1.00286 0.64447 0.04841 0.0
O326 O 0.00676 0.64606 0.97951 0.0
O327 O 0.98226 0.60549 0.01058 0.0
H328 H 0.05163 0.61551 0.03134 0.0
H329 H 0.04314 0.65299 0.97069 0.0
H330 H 0.08286 0.62418 0.00557 0.0
H331 H 0.07442 0.66097 0.94605 0.0
H332 H 0.01166 0.68263 0.13013 0.0
H333 H 0.03294 0.64283 0.0728 0.0
H334 H 0.9942 0.66638 0.08292 0.0
H335 H 0.04973 0.6595 0.12002 0.0
H336 H 0.08967 0.70053 0.05356 0.0
H337 H 0.06106 0.72381 0.9979 0.0
H338 H 0.01471 0.56854 0.08241 0.0
H339 H 0.99377 0.59525 0.14615 0.0
H340 H 0.9754 0.61807 0.95124 0.0
H341 H 0.02704 0.67508 0.942 0.0
H342 H 0.96666 0.61965 0.89842 0.0
H343 H 0.01758 0.67559 0.8892 0.0
H344 H 0.9562 0.56935 0.99359 0.0
H345 H 0.96935 0.61427 0.05992 0.0
H346 H 0.92505 0.54753 0.01992 0.0
H347 H 0.93806 0.5917 0.08502 0.0
H348 H 0.99083 0.55851 0.93836 0.0
H349 H 0.02536 0.60994 0.8846 0.0
H350 H 0.94729 0.66605 0.02649 0.0
H351 H 0.9195 0.6125 0.9736 0.0
Li352 Li 0.35566 0.37171 0.00219 0.0
Li353 Li 0.38801 0.38393 0.02963 0.0
Li354 Li 0.38526 0.38337 0.97333 0.0
Li355 Li 0.37291 0.35331 0.00015 0.0
C356 C 0.37114 0.41001 0.00866 0.0
N357 N 0.35329 0.43191 0.02091 0.0
C358 C 0.37043 0.4158 0.03798 0.0
C359 C 0.36284 0.41544 0.98556 0.0
C360 C 0.36134 0.42686 0.04371 0.0
C361 C 0.35385 0.42648 0.99221 0.0
C362 C 0.35069 0.34145 0.04766 0.0
C363 C 0.34576 0.31521 0.0806 0.0
N364 N 0.32765 0.30355 0.06824 0.0
C365 C 0.33203 0.32919 0.03525 0.0
C366 C 0.35764 0.33441 0.07049 0.0
C367 C 0.3206 0.31009 0.04598 0.0
C368 C 0.31708 0.3648 0.9841 0.0
N369 N 0.33056 0.3702 0.00666 0.0
C370 C 0.30872 0.37321 0.04045 0.0
C371 C 0.32662 0.37421 0.03449 0.0
C372 C 0.29449 0.36768 0.01772 0.0
C373 C 0.29883 0.36346 0.98917 0.0
H374 H 0.32033 0.36124 0.96232 0.0
H375 H 0.33736 0.37799 0.05221 0.0
C376 C 0.41636 0.41898 0.05647 0.0
N377 N 0.40444 0.39949 0.06192 0.0
C378 C 0.4284 0.43169 0.07908 0.0
C379 C 0.41629 0.40391 0.11223 0.0
C380 C 0.40427 0.39176 0.08906 0.0
C381 C 0.42843 0.42417 0.10737 0.0
H382 H 0.41623 0.4247 0.03461 0.0
H383 H 0.39468 0.37624 0.09282 0.0
C384 C 0.35912 0.35945 0.93639 0.0
N385 N 0.35934 0.36174 0.87481 0.0
C386 C 0.36447 0.34802 0.91907 0.0
C387 C 0.35392 0.37205 0.92234 0.0
C388 C 0.36445 0.34937 0.88798 0.0
C389 C 0.35413 0.37302 0.89121 0.0
C390 C 0.41213 0.36707 0.0007 0.0
C391 C 0.41232 0.35557 0.9769 0.0
C392 C 0.42391 0.36999 0.02586 0.0
C393 C 0.42421 0.34706 0.9788 0.0
C394 C 0.43563 0.36125 0.02688 0.0
N395 N 0.43552 0.35005 0.00353 0.0
C396 C 0.40471 0.41745 0.93696 0.0
C397 C 0.40826 0.39053 0.92139 0.0
C398 C 0.4175 0.42927 0.9146 0.0
N399 N 0.4004 0.39847 0.93997 0.0
C400 C 0.42107 0.40177 0.89884 0.0
C401 C 0.42613 0.42151 0.89558 0.0
H402 H 0.39866 0.4236 0.95239 0.0
H403 H 0.40484 0.37555 0.92432 0.0
C404 C 0.35466 0.31384 0.98046 0.0
N405 N 0.36867 0.32677 -0.00028 0.0
C406 C 0.35163 0.29486 0.97684 0.0
C407 C 0.37657 0.30222 0.01444 0.0
C408 C 0.37908 0.32111 0.01739 0.0
C409 C 0.36287 0.2889 0.99362 0.0
H410 H 0.34607 0.3184 0.96738 0.0
H411 H 0.38967 0.33136 0.03335 0.0
O412 O 0.37957 0.39877 0.00268 0.0
O413 O 0.36232 0.35998 0.03673 0.0
O414 O 0.35922 0.35851 0.96691 0.0
O415 O 0.40062 0.37557 -0.00064 0.0
H416 H 0.3765 0.41151 0.05622 0.0
H417 H 0.36323 0.41109 0.96276 0.0
H418 H 0.36058 0.43134 0.06632 0.0
H419 H 0.3473 0.4307 0.97456 0.0
H420 H 0.351 0.30955 0.09817 0.0
H421 H 0.32654 0.33425 0.0172 0.0
H422 H 0.37217 0.34354 0.07998 0.0
H423 H 0.30617 0.30042 0.0365 0.0
H424 H 0.30583 0.37623 0.06291 0.0
H425 H 0.28824 0.35911 0.97106 0.0
H426 H 0.43752 0.44725 0.07459 0.0
H427 H 0.4157 0.39765 0.13394 0.0
H428 H 0.36892 0.33846 0.92944 0.0
H429 H 0.34993 0.38113 0.93533 0.0
H430 H 0.36862 0.34066 0.87432 0.0
H431 H 0.3502 0.38277 0.88008 0.0
H432 H 0.40299 0.35278 0.95756 0.0
H433 H 0.42401 0.3789 0.04443 0.0
H434 H 0.42434 0.33796 0.96069 0.0
H435 H 0.44479 0.36336 0.04624 0.0
H436 H 0.42102 0.44443 0.91271 0.0
H437 H 0.42704 0.39509 0.88414 0.0
H438 H 0.34113 0.28524 0.96016 0.0
H439 H 0.38545 0.29817 0.02794 0.0
Li440 Li 0.63435 0.98588 0.01212 0.0
Li441 Li 0.62421 0.00643 0.03991 0.0
Li442 Li 0.62011 0.00471 0.98652 0.0
Li443 Li 0.65227 0.02314 0.00915 0.0
C444 C 0.5896 0.97374 0.02666 0.0
N445 N 0.55309 0.957 0.05319 0.0
C446 C 0.58285 0.95671 0.04364 0.0
C447 C 0.57774 0.98219 0.02303 0.0
C448 C 0.56435 0.94848 0.0569 0.0
C449 C 0.55934 0.97353 0.03668 0.0
C450 C 0.65082 0.00455 0.07406 0.0
C451 C 0.65755 0.019 0.12344 0.0
N452 N 0.65345 1.00142 0.13514 0.0
C453 C 0.64674 0.98664 0.08657 0.0
C454 C 0.65635 0.02089 0.09263 0.0
C455 C 0.64814 0.98535 0.11749 0.0
C456 C 0.65501 0.96542 0.01836 0.0
N457 N 0.63692 0.9629 0.01227 0.0
C458 C 0.62292 0.92792 0.0108 0.0
C459 C 0.62104 0.94465 0.0079 0.0
C460 C 0.64132 0.93003 0.01813 0.0
C461 C 0.65754 0.94914 0.02157 0.0
H462 H 0.66735 0.9801 0.0219 0.0
H463 H 0.60684 0.94306 0.0028 0.0
C464 C 0.60371 0.0194 0.07715 0.0
N465 N 0.61022 0.00631 0.0751 0.0
C466 C 0.59087 0.0178 0.0999 0.0
C467 C 0.59156 0.98921 0.1179 0.0
C468 C 0.60452 0.99149 0.09507 0.0
C469 C 0.58434 1.00228 0.12017 0.0
H470 H 0.6078 0.0306 0.0604 0.0
H471 H 0.60925 0.98082 0.09243 0.0
C472 C 0.64065 0.99807 0.94646 0.0
N473 N 0.63236 0.98717 0.88702 0.0
C474 C 0.64098 0.01137 0.92551 0.0
C475 C 0.63622 0.97928 0.93709 0.0
C476 C 0.63669 0.00556 0.89559 0.0
C477 C 0.63206 0.97405 0.90696 0.0
C478 C 0.64086 0.04823 0.01282 0.0
C479 C 0.64593 0.05865 0.98605 0.0
C480 C 0.64782 0.05845 0.03987 0.0
C481 C 0.65795 0.0791 0.98681 0.0
C482 C 0.6598 0.0789 0.03969 0.0
N483 N 0.6646 0.08871 0.01338 0.0
C484 C 0.5994 0.01778 0.94972 0.0
C485 C 0.59258 0.98531 0.93964 0.0
C486 C 0.58715 0.01667 0.92618 0.0
N487 N 0.60232 1.00244 0.9554 0.0
C488 C 0.58013 0.98352 0.91597 0.0
C489 C 0.57752 0.99945 0.90868 0.0
H490 H 0.60677 0.03099 0.9632 0.0
H491 H 0.59482 0.97317 0.94509 0.0
C492 C 0.69105 0.05437 0.02753 0.0
N493 N 0.67823 0.04576 0.00425 0.0
C494 C 0.70957 0.07105 0.02291 0.0
C495 C 0.70129 0.06959 0.97062 0.0
C496 C 0.68318 0.05287 0.97613 0.0
C497 C 0.71468 0.07898 0.99418 0.0
H498 H 0.68695 0.04834 0.04965 0.0
H499 H 0.67294 0.04569 0.95795 0.0
O500 O 0.60794 0.98241 0.01436 0.0
O501 O 0.64953 0.00609 0.04381 0.0
O502 O 0.64451 0.00335 0.97598 0.0
O503 O 0.62962 0.02812 0.01252 0.0
H504 H 0.59195 0.95012 0.04699 0.0
H505 H 0.58284 0.99551 0.01027 0.0
H506 H 0.55899 0.93539 0.07028 0.0
H507 H 0.55008 0.98 0.03426 0.0
H508 H 0.66172 0.03151 0.13806 0.0
H509 H 0.64229 0.97378 0.07267 0.0
H510 H 0.65959 0.03486 0.0834 0.0
H511 H 0.64494 0.97156 0.12747 0.0
H512 H 0.61004 0.91347 0.00803 0.0
H513 H 0.67187 0.95152 0.02811 0.0
H514 H 0.58551 0.02809 0.10097 0.0
H515 H 0.58693 0.97714 0.13333 0.0
H516 H 0.64399 0.02584 0.93233 0.0
H517 H 0.63597 0.9688 0.95287 0.0
H518 H 0.63668 0.01563 0.87923 0.0
H519 H 0.62857 0.95953 0.89944 0.0
H520 H 0.64107 0.05102 0.96484 0.0
H521 H 0.64411 0.05068 0.06081 0.0
H522 H 0.66214 0.0873 0.96624 0.0
H523 H 0.66534 0.08696 0.06047 0.0
H524 H 0.58584 0.02942 0.92107 0.0
H525 H 0.57289 0.96995 0.90312 0.0
H526 H 0.71966 0.07779 0.04154 0.0
H527 H 0.70489 0.07502 0.94802 0.0
Li528 Li 0.65371 0.6905 0.33389 0.0
Li529 Li 0.69025 0.70674 0.33446 0.0
Li530 Li 0.67276 0.72032 0.36267 0.0
Li531 Li 0.67396 0.72227 0.30861 0.0
C532 C 0.67276 0.69488 0.39844 0.0
N533 N 0.67607 0.69794 0.45993 0.0
C534 C 0.6908 0.70048 0.4124 0.0
C535 C 0.65639 0.69072 0.41575 0.0
C536 C 0.69217 0.70195 0.44352 0.0
C537 C 0.65837 0.69239 0.4468 0.0
C538 C 0.67899 0.68821 0.28031 0.0
C539 C 0.70448 0.69081 0.24759 0.0
N540 N 0.69409 0.67101 0.24291 0.0
C541 C 0.66859 0.66789 0.27524 0.0
C542 C 0.69709 0.69977 0.26641 0.0
C543 C 0.67646 0.65948 0.25622 0.0
C544 C 0.62097 0.6612 0.30263 0.0
N545 N 0.6298 0.66551 0.32997 0.0
C546 C 0.60515 0.63417 0.34837 0.0
C547 C 0.62224 0.65249 0.35279 0.0
C548 C 0.59585 0.6293 0.32022 0.0
C549 C 0.6039 0.6432 0.2973 0.0
H550 H 0.62743 0.67168 0.28475 0.0
H551 H 0.62959 0.65618 0.37428 0.0
C552 C 0.72931 0.71729 0.34914 0.0
N553 N 0.71247 0.70273 0.33643 0.0
C554 C 0.745 0.71419 0.35559 0.0
C555 C 0.72638 0.68173 0.33367 0.0
C556 C 0.71082 0.68523 0.32847 0.0
C557 C 0.74347 0.696 0.3486 0.0
H558 H 0.73015 0.73095 0.35577 0.0
H559 H 0.6972 0.67366 0.31906 0.0
C560 C 0.63128 0.70616 0.33018 0.0
N561 N 0.59118 0.68776 0.31971 0.0
C562 C 0.62405 0.70561 0.30139 0.0
C563 C 0.61811 0.69737 0.35363 0.0
C564 C 0.60372 0.69625 0.29657 0.0
C565 C 0.59789 0.68812 0.34788 0.0
C566 C 0.70763 0.75241 0.32617 0.0
C567 C 0.70363 0.76735 0.3336 0.0
C568 C 0.7228 0.75623 0.30636 0.0
C569 C 0.71478 0.78587 0.32078 0.0
C570 C 0.73362 0.77495 0.29401 0.0
N571 N 0.72941 0.78925 0.30139 0.0
C572 C 0.69399 0.74687 0.40816 0.0
C573 C 0.66029 0.73779 0.40786 0.0
C574 C 0.6979 0.76013 0.43157 0.0
N575 N 0.67545 0.73605 0.39684 0.0
C576 C 0.66351 0.75079 0.43155 0.0
C577 C 0.68258 0.76228 0.44357 0.0
H578 H 0.70581 0.74538 0.39863 0.0
H579 H 0.64575 0.72923 0.39816 0.0
C580 C 0.68369 0.73994 0.25044 0.0
N581 N 0.67521 0.73916 0.27715 0.0
C582 C 0.6841 0.75253 0.22819 0.0
C583 C 0.66707 0.76328 0.26133 0.0
C584 C 0.66718 0.75066 0.28303 0.0
C585 C 0.67559 0.76429 0.23351 0.0
H586 H 0.68993 0.73066 0.24625 0.0
H587 H 0.66067 0.74986 0.30456 0.0
O588 O 0.67125 0.69391 0.36798 0.0
O589 O 0.67154 0.6967 0.2989 0.0
O590 O 0.65112 0.71484 0.33526 0.0
O591 O 0.69648 0.73403 0.33776 0.0
H592 H 0.70362 0.70377 0.39937 0.0
H593 H 0.64236 0.6865 0.40531 0.0
H594 H 0.70606 0.70634 0.45461 0.0
H595 H 0.64585 0.68935 0.46046 0.0
H596 H 0.71851 0.69957 0.23679 0.0
H597 H 0.65465 0.65867 0.286 0.0
H598 H 0.70549 0.71545 0.27048 0.0
H599 H 0.66857 0.64377 0.25211 0.0
H600 H 0.59936 0.62393 0.36669 0.0
H601 H 0.5974 0.63995 0.27514 0.0
H602 H 0.75774 0.72559 0.36736 0.0
H603 H 0.7247 0.6677 0.32702 0.0
H604 H 0.63397 0.71201 0.28284 0.0
H605 H 0.62341 0.69746 0.37597 0.0
H606 H 0.59793 0.69563 0.27438 0.0
H607 H 0.58754 0.68117 0.3658 0.0
H608 H 0.69183 0.76458 0.34875 0.0
H609 H 0.72613 0.74484 0.30048 0.0
H610 H 0.71175 0.79754 0.32614 0.0
H611 H 0.74535 0.7781 0.27853 0.0
H612 H 0.71282 0.76872 0.44008 0.0
H613 H 0.65119 0.75162 0.4406 0.0
H614 H 0.69048 0.75265 0.20675 0.0
H615 H 0.66032 0.77209 0.26615 0.0
Li616 Li 0.29101 0.9576 0.31768 0.0
Li617 Li 0.29055 0.95473 0.37178 0.0
Li618 Li 0.303 0.98701 0.34748 0.0
Li619 Li 0.32228 0.96975 0.34586 0.0
C620 C 0.265 0.97237 0.35171 0.0
N621 N 0.24436 0.99157 0.36361 0.0
C622 C 0.25908 0.97315 0.38083 0.0
C623 C 0.26038 0.98132 0.32864 0.0
C624 C 0.24864 0.98292 0.38638 0.0
C625 C 0.24996 0.99098 0.33512 0.0
C626 C 0.29215 0.92397 0.35187 0.0
C627 C 0.29386 0.89969 0.38238 0.0
N628 N 0.27513 0.88626 0.37402 0.0
C629 C 0.27297 0.90993 0.34343 0.0
C630 C 0.30274 0.91883 0.37137 0.0
C631 C 0.26461 0.89094 0.35492 0.0
C632 C 0.28506 0.93418 0.26697 0.0
N633 N 0.27691 0.94284 0.28333 0.0
C634 C 0.24719 0.92641 0.25443 0.0
C635 C 0.25839 0.9393 0.27752 0.0
C636 C 0.25509 0.91694 0.23756 0.0
C637 C 0.27442 0.92124 0.2437 0.0
H638 H 0.29968 0.937 0.27248 0.0
H639 H 0.25209 0.94601 0.29137 0.0
C640 C 0.28224 0.936 0.4293 0.0
N641 N 0.2746 0.93758 0.40285 0.0
C642 C 0.26987 0.92331 0.45125 0.0
C643 C 0.24203 0.91409 0.41838 0.0
C644 C 0.25495 0.92679 0.39696 0.0
C645 C 0.24948 0.91227 0.44593 0.0
H646 H 0.29785 0.94471 0.43355 0.0
H647 H 0.24928 0.92821 0.37565 0.0
C648 C 0.31752 0.98343 0.28259 0.0
N649 N 0.31891 0.98254 0.22101 0.0
C650 C 0.33108 0.97955 0.26851 0.0
C651 C 0.30479 0.98703 0.26536 0.0
C652 C 0.33153 0.97914 0.23735 0.0
C653 C 0.30567 0.98645 0.23426 0.0
C654 C 0.33 0.98718 0.40136 0.0
C655 C 0.34031 0.00726 0.40835 0.0
C656 C 0.33582 0.9747 0.41419 0.0
C657 C 0.35625 0.01451 0.42823 0.0
C658 C 0.35185 0.98252 0.43392 0.0
N659 N 0.36164 1.00209 0.44049 0.0
C660 C 0.30089 0.01709 0.37862 0.0
C661 C 0.30973 0.02472 0.32792 0.0
C662 C 0.30175 0.03509 0.3831 0.0
N663 N 0.30481 0.01222 0.35138 0.0
C664 C 0.3109 0.04302 0.33148 0.0
C665 C 0.30693 0.0484 0.35942 0.0
H666 H 0.2972 0.00697 0.39696 0.0
H667 H 0.31285 0.02055 0.3065 0.0
C668 C 0.34943 0.95804 0.32957 0.0
N669 N 0.34811 0.97266 0.3438 0.0
C670 C 0.36781 0.96005 0.32363 0.0
C671 C 0.38322 0.99155 0.34891 0.0
C672 C 0.36454 0.98919 0.35358 0.0
C673 C 0.38513 0.97719 0.33276 0.0
H674 H 0.33619 0.94517 0.32157 0.0
H675 H 0.36326 1.00084 0.36432 0.0
O676 O 0.27566 0.96331 0.34592 0.0
O677 O 0.30037 0.94278 0.34158 0.0
O678 O 0.31658 0.98352 0.31306 0.0
O679 O 0.31435 0.97984 0.38196 0.0
H680 H 0.26279 0.9666 0.39905 0.0
H681 H 0.26497 0.981 0.30603 0.0
H682 H 0.24407 0.98373 0.40882 0.0
H683 H 0.24638 0.99806 0.31751 0.0
H684 H 0.30184 0.89551 0.3976 0.0
H685 H 0.26453 0.91372 0.32849 0.0
H686 H 0.31763 0.92953 0.37801 0.0
H687 H 0.24973 0.87994 0.34875 0.0
H688 H 0.23235 0.92347 0.25034 0.0
H689 H 0.28121 0.91458 0.23076 0.0
H690 H 0.2761 0.92257 0.47249 0.0
H691 H 0.22639 0.90587 0.41355 0.0
H692 H 0.3411 0.97682 0.28148 0.0
H693 H 0.29416 0.98997 0.27589 0.0
H694 H 0.3419 0.97608 0.22616 0.0
H695 H 0.29581 0.98906 0.22065 0.0
H696 H 0.33611 0.01717 0.39846 0.0
H697 H 0.32824 0.9592 0.40858 0.0
H698 H 0.36436 0.03002 0.43386 0.0
H699 H 0.35656 0.97304 0.44391 0.0
H700 H 0.29886 0.03878 0.40512 0.0
H701 H 0.31486 0.05283 0.31264 0.0
H702 H 0.36842 0.94865 0.3108 0.0
H703 H 0.39601 0.00474 0.35726 0.0
Li704 Li 0.05463 0.33556 0.30973 0.0
Li705 Li 0.05437 0.33609 0.36434 0.0
Li706 Li 0.02281 0.31731 0.33654 0.0
Li707 Li 0.04078 0.3531 0.33831 0.0
C708 C 0.04225 0.29481 0.34276 0.0
N709 N 0.03475 0.25721 0.35485 0.0
C710 C 0.03995 0.28827 0.37221 0.0
C711 C 0.04098 0.28227 0.31949 0.0
C712 C 0.0361 0.2692 0.37786 0.0
C713 C 0.03711 0.2633 0.32605 0.0
C714 C 0.08647 0.36845 0.35005 0.0
C715 C 0.10766 0.38738 0.39112 0.0
N716 N 0.1229 0.3867 0.37802 0.0
C717 C 0.10237 0.36804 0.33693 0.0
C718 C 0.08915 0.37832 0.37727 0.0
C719 C 0.12066 0.37733 0.35143 0.0
C720 C 0.07184 0.34742 0.25292 0.0
N721 N 0.06986 0.33597 0.27674 0.0
C722 C 0.09274 0.32759 0.25599 0.0
C723 C 0.07988 0.32604 0.27864 0.0
C724 C 0.09544 0.33967 0.23144 0.0
C725 C 0.08455 0.3494 0.2298 0.0
H726 H 0.06382 0.35529 0.25217 0.0
H727 H 0.07833 0.31738 0.29819 0.0
C728 C 0.06654 0.33936 0.42544 0.0
N729 N 0.06959 0.33535 0.39707 0.0
C730 C 0.078 0.33872 0.44888 0.0
C731 C 0.09524 0.32954 0.41353 0.0
C732 C 0.08357 0.33051 0.39075 0.0
C733 C 0.09257 0.33378 0.44299 0.0
H734 H 0.05518 0.34293 0.42986 0.0
H735 H 0.08557 0.32732 0.36793 0.0
C736 C 0.02189 0.32708 0.27506 0.0
N737 N 0.00781 0.31029 0.2195 0.0
C738 C 0.0174 0.33712 0.25362 0.0
C739 C 0.01936 0.30858 0.26818 0.0
C740 C 0.01026 0.32836 0.22567 0.0
C741 C 0.01218 0.30031 0.24 0.0
C742 C 0.01881 0.34285 0.38457 0.0
C743 C 0.99937 0.33626 0.37574 0.0
C744 C 0.0281 0.35849 0.40491 0.0
C745 C 0.98954 0.34548 0.38738 0.0
C746 C 0.01777 0.36733 0.41602 0.0
N747 N 0.99887 0.3607 0.40709 0.0
C748 C 0.99383 0.28245 0.36209 0.0
C749 C 0.98236 0.28991 0.31786 0.0
C750 C 0.97552 0.26574 0.36645 0.0
N751 N 0.99708 0.29402 0.33792 0.0
C752 C 0.96363 0.27339 0.32159 0.0
C753 C 0.96008 0.2611 0.3462 0.0
H754 H 0.00528 0.28658 0.37865 0.0
H755 H 0.98491 0.29969 0.29945 0.0
C756 C 0.04988 0.3929 0.35076 0.0
N757 N 0.03709 0.37552 0.33722 0.0
C758 C 0.04728 0.40921 0.34806 0.0
C759 C 0.01838 0.3894 0.31766 0.0
C760 C 0.02141 0.37346 0.32123 0.0
C761 C 0.03146 0.40767 0.33105 0.0
H762 H 0.06227 0.39424 0.36327 0.0
H763 H 0.01148 0.3595 0.31062 0.0
O764 O 0.0463 0.31355 0.33676 0.0
O765 O 0.06833 0.35904 0.33652 0.0
O766 O 0.02936 0.33566 0.30227 0.0
O767 O 0.02886 0.33441 0.37269 0.0
H768 H 0.04085 0.29771 0.39055 0.0
H769 H 0.04303 0.28714 0.29657 0.0
H770 H 0.03415 0.26392 0.40054 0.0
H771 H 0.03604 0.25345 0.30824 0.0
H772 H 0.10987 0.39485 0.41236 0.0
H773 H 0.10063 0.36058 0.31583 0.0
H774 H 0.07696 0.37853 0.38801 0.0
H775 H 0.13308 0.37706 0.34157 0.0
H776 H 0.10089 0.31987 0.25801 0.0
H777 H 0.08592 0.35853 0.2109 0.0
H778 H 0.07523 0.34166 0.47145 0.0
H779 H 0.10627 0.32559 0.4082 0.0
H780 H 0.0195 0.35156 0.25848 0.0
H781 H 0.02276 0.30065 0.28452 0.0
H782 H 0.0067 0.33594 0.20886 0.0
H783 H 0.01008 0.28596 0.23443 0.0
H784 H 0.99201 0.32431 0.35981 0.0
H785 H 0.04321 0.36396 0.41168 0.0
H786 H 0.97452 0.34058 0.38065 0.0
H787 H 0.02481 0.37952 0.43163 0.0
H788 H 0.97321 0.25698 0.38621 0.0
H789 H 0.95198 0.27043 0.30574 0.0
H790 H 0.05775 0.42298 0.35869 0.0
H791 H 0.00636 0.38759 0.3035 0.0
Li792 Li 0.69049 0.9829 0.34651 0.0
Li793 Li 0.6715 0.95124 0.36992 0.0
Li794 Li 0.67383 0.95331 0.31627 0.0
Li795 Li 0.65477 0.96502 0.3423 0.0
C796 C 0.71106 0.96423 0.36336 0.0
N797 N 0.74263 0.97166 0.3997 0.0
C798 C 0.7142 0.97452 0.3903 0.0
C799 C 0.72396 0.95772 0.35493 0.0
C800 C 0.73025 0.97813 0.40834 0.0
C801 C 0.73984 0.96162 0.37361 0.0
C802 C 0.65887 0.97335 0.40274 0.0
C803 C 0.63019 0.95261 0.432 0.0
N804 N 0.63434 0.96821 0.45007 0.0
C805 C 0.66286 0.98917 0.42163 0.0
C806 C 0.64242 0.95491 0.40798 0.0
C807 C 0.65028 0.98627 0.44543 0.0
C808 C 0.71159 0.02244 0.3658 0.0
N809 N 0.71348 0.00851 0.35052 0.0
C810 C 0.74799 0.03077 0.34433 0.0
C811 C 0.7312 0.01236 0.33958 0.0
C812 C 0.74663 0.04524 0.36101 0.0
C813 C 0.72802 0.04094 0.37141 0.0
H814 H 0.69735 0.01902 0.37422 0.0
H815 H 0.73242 1.00103 0.32763 0.0
C816 C 0.66844 0.91712 0.39413 0.0
N817 N 0.67081 0.93497 0.40185 0.0
C818 C 0.66898 0.90476 0.41598 0.0
C819 C 0.67393 0.92921 0.45333 0.0
C820 C 0.67367 0.94124 0.43075 0.0
C821 C 0.67172 0.91083 0.44594 0.0
H822 H 0.66649 0.91268 0.37088 0.0
H823 H 0.67613 0.95571 0.43628 0.0
C824 C 0.68639 0.98887 0.28683 0.0
N825 N 0.7108 0.00937 0.24005 0.0
C826 C 0.6823 1.00102 0.26917 0.0
C827 C 0.70288 0.9871 0.2806 0.0
C828 C 0.69483 0.01127 0.24564 0.0
C829 C 0.71504 0.99759 0.25689 0.0
C830 C 0.63426 0.92623 0.32201 0.0
C831 C 0.63069 0.93432 0.29666 0.0
C832 C 0.62172 0.90641 0.32852 0.0
C833 C 0.61458 0.92241 0.27825 0.0
C834 C 0.60576 0.89497 0.30953 0.0
N835 N 0.60256 0.90314 0.28501 0.0
C836 C 0.68078 0.92584 0.28646 0.0
C837 C 0.6703 0.94287 0.25455 0.0
C838 C 0.68198 0.91517 0.26227 0.0
N839 N 0.67514 0.93944 0.28214 0.0
C840 C 0.67146 0.93269 0.22977 0.0
C841 C 0.67751 0.91876 0.23347 0.0
H842 H 0.68436 0.92331 0.30875 0.0
H843 H 0.66554 0.95351 0.25176 0.0
C844 C 0.63358 0.98365 0.32539 0.0
N845 N 0.63178 0.96767 0.33982 0.0
C846 C 0.61708 0.98563 0.32036 0.0
C847 C 0.59728 0.9552 0.34653 0.0
C848 C 0.61412 0.95363 0.35061 0.0
C849 C 0.59851 0.97111 0.33052 0.0
H850 H 0.64777 0.9946 0.31706 0.0
H851 H 0.61295 0.94094 0.36178 0.0
O852 O 0.69542 0.9604 0.34526 0.0
O853 O 0.6711 0.97604 0.37935 0.0
O854 O 0.67414 0.97867 0.30982 0.0
O855 O 0.64988 0.93755 0.34054 0.0
H856 H 0.7044 0.97969 0.39724 0.0
H857 H 0.7217 0.94972 0.33416 0.0
H858 H 0.73286 0.98608 0.42922 0.0
H859 H 0.74994 0.95667 0.36736 0.0
H860 H 0.61741 0.93841 0.43629 0.0
H861 H 0.67557 0.00353 0.41799 0.0
H862 H 0.63915 0.94244 0.39381 0.0
H863 H 0.65321 0.99839 0.46023 0.0
H864 H 0.76191 0.03353 0.33533 0.0
H865 H 0.72626 0.05155 0.38459 0.0
H866 H 0.6674 0.89072 0.4096 0.0
H867 H 0.67641 0.93443 0.47625 0.0
H868 H 0.66956 1.00249 0.27353 0.0
H869 H 0.70623 0.97766 0.29377 0.0
H870 H 0.69183 0.02073 0.23181 0.0
H871 H 0.72783 0.99635 0.25185 0.0
H872 H 0.64019 0.94964 0.29125 0.0
H873 H 0.62429 0.89994 0.34807 0.0
H874 H 0.61164 0.92849 0.25859 0.0
H875 H 0.59593 0.8796 0.31431 0.0
H876 H 0.68658 0.90444 0.26592 0.0
H877 H 0.66749 0.93554 0.20793 0.0
H878 H 0.61877 0.99806 0.30766 0.0
H879 H 0.58341 0.94388 0.35537 0.0
Li880 Li 0.05457 0.72071 0.36976 0.0
Li881 Li 0.02182 0.70756 0.34406 0.0
Li882 Li 0.0392 0.68889 0.33999 0.0
Li883 Li 0.05088 0.7197 0.31542 0.0
C884 C 0.01939 0.67787 0.39031 0.0
N885 N 0.9996 0.64073 0.41466 0.0
C886 C 1.00038 0.66431 0.38042 0.0
C887 C 0.02835 0.67258 0.41256 0.0
C888 C 0.99062 0.64559 0.39302 0.0
C889 C 0.01809 0.65372 0.4246 0.0
C890 C 0.03521 0.74512 0.34703 0.0
C891 C 0.01808 0.76032 0.32495 0.0
N892 N 0.01356 0.7639 0.35269 0.0
C893 C 0.03046 0.74904 0.37532 0.0
C894 C 0.02902 0.75086 0.32163 0.0
C895 C 0.01949 0.75853 0.37771 0.0
C896 C 0.07625 0.75416 0.4066 0.0
N897 N 0.07175 0.73524 0.40191 0.0
C898 C 0.09309 0.73764 0.44196 0.0
C899 C 0.08011 0.72696 0.41865 0.0
C900 C 0.09746 0.75702 0.44808 0.0
C901 C 0.08888 0.76526 0.42991 0.0
H902 H 0.06997 0.76065 0.3923 0.0
H903 H 0.07672 0.71207 0.41386 0.0
C904 C 0.98373 0.70264 0.32723 0.0
N905 N 0.99644 0.70523 0.34994 0.0
C906 C 0.96573 0.70164 0.33322 0.0
C907 C 0.97427 0.70589 0.38568 0.0
C908 C 0.99187 0.7065 0.37877 0.0
C909 C 0.96102 0.7036 0.36276 0.0
H910 H 0.98752 0.70136 0.30452 0.0
H911 H 1.00208 0.70827 0.39644 0.0
C912 C 0.08445 0.71908 0.32838 0.0
N913 N 0.12108 0.73621 0.30226 0.0
C914 C 0.08985 0.70767 0.3112 0.0
C915 C 0.09772 0.73913 0.33261 0.0
C916 C 0.10844 0.71663 0.29811 0.0
C917 C 0.11615 0.74754 0.3191 0.0
C918 C 0.02443 0.6945 0.27776 0.0
C919 C 0.02833 0.68162 0.26142 0.0
C920 C 0.01976 0.70717 0.26268 0.0
C921 C 0.02763 0.68177 0.23025 0.0
C922 C 0.01925 0.7069 0.2315 0.0
N923 N 0.02316 0.69431 0.21606 0.0
C924 C 0.02049 0.64862 0.32394 0.0
C925 C 0.05012 0.65989 0.35144 0.0
C926 C 0.01876 0.63018 0.3199 0.0
N927 N 0.03627 0.66318 0.33873 0.0
C928 C 0.04881 0.64151 0.34833 0.0
C929 C 0.03328 0.62652 0.33156 0.0
H930 H 0.00955 0.65157 0.31439 0.0
H931 H 0.06239 0.67166 0.36347 0.0
C932 C 0.07307 0.75446 0.28184 0.0
N933 N 0.0661 0.73472 0.28203 0.0
C934 C 0.0867 0.76631 0.26041 0.0
C935 C 0.08574 0.73734 0.23985 0.0
C936 C 0.07206 0.72606 0.26145 0.0
C937 C 0.09347 0.75777 0.23951 0.0
H938 H 0.06867 0.76113 0.29903 0.0
H939 H 0.06692 0.71051 0.26263 0.0
O940 O 0.02942 0.69602 0.37755 0.0
O941 O 0.04538 0.73525 0.34419 0.0
O942 O 0.06612 0.7107 0.34062 0.0
O943 O 0.02504 0.6946 0.30831 0.0
H944 H 0.99335 0.6681 0.36294 0.0
H945 H 0.0431 0.68288 0.42029 0.0
H946 H 0.97593 0.63491 0.38551 0.0
H947 H 0.02485 0.64939 0.44179 0.0
H948 H 0.01315 0.76477 0.30547 0.0
H949 H 0.03475 0.74436 0.39524 0.0
H950 H 0.03257 0.748 0.29957 0.0
H951 H 0.01554 0.76146 0.39946 0.0
H952 H 0.09948 0.73074 0.45524 0.0
H953 H 0.09141 0.77994 0.43412 0.0
H954 H 0.95572 0.6996 0.31503 0.0
H955 H 0.97094 0.70698 0.40881 0.0
H956 H 0.07969 0.69213 0.30768 0.0
H957 H 0.0937 0.74816 0.34576 0.0
H958 H 0.11279 0.70803 0.28455 0.0
H959 H 0.12651 0.76308 0.32191 0.0
H960 H 0.0322 0.67186 0.27261 0.0
H961 H 0.01669 0.7172 0.2749 0.0
H962 H 0.03074 0.67197 0.21734 0.0
H963 H 0.01575 0.71671 0.21957 0.0
H964 H 0.00657 0.61917 0.3067 0.0
H965 H 0.06004 0.63923 0.35847 0.0
H966 H 0.09237 0.78204 0.26077 0.0
H967 H 0.09042 0.73019 0.22378 0.0
Li968 Li 0.29113 0.33956 0.36995 0.0
Li969 Li 0.30309 0.3213 0.34299 0.0
Li970 Li 0.31966 0.35758 0.34059 0.0
Li971 Li 0.28666 0.33722 0.31531 0.0
C972 C 0.31876 0.34023 0.40531 0.0
N973 N 0.32181 0.33866 0.4666 0.0
C974 C 0.315 0.32272 0.41891 0.0
C975 C 0.32419 0.35697 0.42288 0.0
C976 C 0.31661 0.32223 0.44993 0.0
C977 C 0.32559 0.35586 0.45383 0.0
C978 C 0.25996 0.30345 0.36218 0.0
C979 C 0.22883 0.29529 0.3843 0.0
N980 N 0.22887 0.28029 0.39924 0.0
C981 C 0.25971 0.28799 0.37788 0.0
C982 C 0.2444 0.30717 0.36548 0.0
C983 C 0.24384 0.27643 0.39643 0.0
C984 C 0.27036 0.35268 0.40644 0.0
N985 N 0.27728 0.33988 0.40527 0.0
C986 C 0.25979 0.32411 0.44961 0.0
C987 C 0.2725 0.32599 0.42662 0.0
C988 C 0.25195 0.33668 0.45076 0.0
C989 C 0.25774 0.35145 0.42932 0.0
H990 H 0.27401 0.36335 0.38896 0.0
H991 H 0.27771 0.31567 0.42502 0.0
C992 C 0.32484 0.30211 0.35332 0.0
N993 N 0.30764 0.29945 0.34168 0.0
C994 C 0.32803 0.28622 0.35595 0.0
C995 C 0.29627 0.26529 0.33289 0.0
C996 C 0.2937 0.28164 0.33066 0.0
C997 C 0.31347 0.26739 0.34622 0.0
H998 H 0.33575 0.31646 0.36171 0.0
H999 H 0.28024 0.27997 0.32118 0.0
C1000 C 0.30452 0.38052 0.3395 0.0
N1001 N 0.32374 0.42096 0.3341 0.0
C1002 C 0.30517 0.389 0.31189 0.0
C1003 C 0.31343 0.3926 0.36444 0.0
C1004 C 0.31501 0.40948 0.30959 0.0
C1005 C 0.32313 0.41301 0.36123 0.0
C1006 C 0.32047 0.33032 0.29027 0.0
C1007 C 0.3402 0.33588 0.29499 0.0
C1008 C 0.30917 0.31554 0.26947 0.0
C1009 C 0.3483 0.32644 0.2788 0.0
C1010 C 0.31782 0.30646 0.25373 0.0
N1011 N 0.33704 0.31205 0.25869 0.0
C1012 C 0.35819 0.38993 0.35677 0.0
C1013 C 0.34805 0.38817 0.3064 0.0
C1014 C 0.37635 0.40669 0.35074 0.0
N1015 N 0.34453 0.38104 0.33462 0.0
C1016 C 0.3659 0.40485 0.29944 0.0
C1017 C 0.38044 0.41426 0.32166 0.0
H1018 H 0.35511 0.38391 0.37899 0.0
H1019 H 0.337 0.38073 0.28917 0.0
C1020 C 0.25104 0.32649 0.2834 0.0
N1021 N 0.27102 0.33592 0.28174 0.0
C1022 C 0.23985 0.32714 0.25952 0.0
C1023 C 0.26997 0.3467 0.23236 0.0
C1024 C 0.28055 0.34565 0.25672 0.0
C1025 C 0.24935 0.33752 0.2337 0.0
H1026 H 0.24378 0.31873 0.30338 0.0
H1027 H 0.29645 0.35296 0.25598 0.0
O1028 O 0.31736 0.34104 0.37495 0.0
O1029 O 0.27546 0.31502 0.34404 0.0
O1030 O 0.2955 0.36051 0.34203 0.0
O1031 O 0.31212 0.33894 0.30655 0.0
H1032 H 0.31055 0.30954 0.40578 0.0
H1033 H 0.3272 0.37064 0.41277 0.0
H1034 H 0.31363 0.30875 0.46076 0.0
H1035 H 0.32969 0.36869 0.4677 0.0
H1036 H 0.2168 0.29812 0.38725 0.0
H1037 H 0.27176 0.28512 0.37619 0.0
H1038 H 0.24462 0.31944 0.35436 0.0
H1039 H 0.24351 0.26447 0.40876 0.0
H1040 H 0.25577 0.31265 0.46599 0.0
H1041 H 0.25196 0.36141 0.42961 0.0
H1042 H 0.34131 0.28848 0.367 0.0
H1043 H 0.28468 0.25105 0.32512 0.0
H1044 H 0.29833 0.3799 0.29238 0.0
H1045 H 0.31294 0.38628 0.386 0.0
H1046 H 0.31575 0.41624 0.28831 0.0
H1047 H 0.3302 0.42253 0.38032 0.0
H1048 H 0.34908 0.34722 0.3112 0.0
H1049 H 0.29383 0.31102 0.26575 0.0
H1050 H 0.36353 0.33052 0.28229 0.0
H1051 H 0.30924 0.29493 0.23763 0.0
H1052 H 0.38708 0.41359 0.36857 0.0
H1053 H 0.36852 0.41002 0.27664 0.0
H1054 H 0.22401 0.32 0.26152 0.0
H1055 H 0.27782 0.35469 0.2127 0.0
Li1056 Li 0.32401 0.02398 0.66557 0.0
Li1057 Li 0.36023 0.0404 0.66481 0.0
Li1058 Li 0.34185 0.05467 0.69429 0.0
Li1059 Li 0.34193 0.05437 0.64057 0.0
C1060 C 0.33193 0.01259 0.71524 0.0
N1061 N 0.30936 0.97711 0.74348 0.0
C1062 C 0.33493 0.99681 0.70935 0.0
C1063 C 0.31755 0.01041 0.73557 0.0
C1064 C 0.32334 0.97897 0.72384 0.0
C1065 C 0.30627 0.99233 0.74961 0.0
C1066 C 0.34669 0.02782 0.60246 0.0
C1067 C 0.37152 0.03563 0.56511 0.0
N1068 N 0.35721 0.02437 0.5449 0.0
C1069 C 0.33225 0.01615 0.58139 0.0
C1070 C 0.36651 0.0375 0.59434 0.0
C1071 C 0.33785 0.01468 0.55237 0.0
C1072 C 0.28364 0.99427 0.67656 0.0
N1073 N 0.30102 0.99814 0.66422 0.0
C1074 C 0.28636 0.9652 0.6453 0.0
C1075 C 0.3027 0.98398 0.64919 0.0
C1076 C 0.26803 0.96096 0.65674 0.0
C1077 C 0.26684 0.97569 0.67296 0.0
H1078 H 0.28272 0.00571 0.68872 0.0
H1079 H 0.31669 0.98742 0.63968 0.0
C1080 C 0.39766 0.04941 0.68531 0.0
N1081 N 0.38261 0.03691 0.66708 0.0
C1082 C 0.41345 0.04637 0.69094 0.0
C1083 C 0.39841 0.0181 0.6579 0.0
C1084 C 0.38275 0.02153 0.65323 0.0
C1085 C 0.41392 0.0304 0.67741 0.0
H1086 H 0.39697 0.0613 0.69647 0.0
H1087 H 0.37042 0.01158 0.63925 0.0
C1088 C 0.30192 0.04131 0.65249 0.0
N1089 N 0.2672 0.0308 0.62233 0.0
C1090 C 0.29861 0.03292 0.62395 0.0
C1091 C 0.28759 0.04441 0.66567 0.0
C1092 C 0.28096 0.02769 0.60907 0.0
C1093 C 0.27013 0.03898 0.65007 0.0
C1094 C 0.37568 0.08591 0.65532 0.0
C1095 C 0.37096 0.10048 0.66174 0.0
C1096 C 0.391 0.08991 0.63571 0.0
C1097 C 0.38147 0.11877 0.64799 0.0
C1098 C 0.40117 0.10839 0.62243 0.0
N1099 N 0.39621 0.12231 0.62875 0.0
C1100 C 0.3627 0.083 0.73775 0.0
C1101 C 0.32821 0.06985 0.74094 0.0
C1102 C 0.36596 0.09597 0.76134 0.0
N1103 N 0.34409 0.07031 0.72809 0.0
C1104 C 0.33079 0.08254 0.76481 0.0
C1105 C 0.3499 0.09584 0.77525 0.0
H1106 H 0.37505 0.08316 0.72689 0.0
H1107 H 0.31357 0.05964 0.73266 0.0
C1108 C 0.35083 0.073 0.58211 0.0
N1109 N 0.34199 0.07102 0.60892 0.0
C1110 C 0.3502 0.08539 0.56041 0.0
C1111 C 0.33199 0.09406 0.59452 0.0
C1112 C 0.33303 0.08158 0.61556 0.0
C1113 C 0.3404 0.09585 0.56638 0.0
H1114 H 0.35838 0.06505 0.5774 0.0
H1115 H 0.32675 0.08041 0.63738 0.0
O1116 O 0.34265 0.02994 0.70055 0.0
O1117 O 0.34146 0.02907 0.63114 0.0
O1118 O 0.319 0.04636 0.66769 0.0
O1119 O 0.36521 0.06776 0.66795 0.0
H1120 H 0.34594 0.99827 0.6935 0.0
H1121 H 0.315 0.02249 0.74018 0.0
H1122 H 0.3254 0.96658 0.71939 0.0
H1123 H 0.295 0.99037 0.76528 0.0
H1124 H 0.3868 0.04315 0.5585 0.0
H1125 H 0.31686 0.00819 0.58741 0.0
H1126 H 0.37789 0.04652 0.6103 0.0
H1127 H 0.32682 0.00576 0.53582 0.0
H1128 H 0.28787 0.95431 0.63246 0.0
H1129 H 0.25301 0.97293 0.68236 0.0
H1130 H 0.4246 0.05584 0.70698 0.0
H1131 H 0.39808 0.00556 0.6471 0.0
H1132 H 0.30955 0.03053 0.61339 0.0
H1133 H 0.28993 0.05089 0.68777 0.0
H1134 H 0.27822 0.02118 0.58697 0.0
H1135 H 0.25889 0.04126 0.66002 0.0
H1136 H 0.35909 0.09759 0.67682 0.0
H1137 H 0.395 0.07888 0.63079 0.0
H1138 H 0.37785 0.13013 0.65252 0.0
H1139 H 0.413 0.11167 0.60708 0.0
H1140 H 0.38091 0.106 0.76866 0.0
H1141 H 0.318 0.08166 0.77535 0.0
H1142 H 0.35691 0.08644 0.53892 0.0
H1143 H 0.32465 0.10219 0.60016 0.0
Li1144 Li 0.98911 0.30192 0.68072 0.0
Li1145 Li 0.96981 0.31921 0.68179 0.0
Li1146 Li 0.95721 0.2869 0.70611 0.0
Li1147 Li 0.95807 0.28976 0.65213 0.0
C1148 C 0.99666 0.32008 0.73573 0.0
N1149 N 0.02852 0.33653 0.77449 0.0
C1150 C 0.00695 0.34038 0.74099 0.0
C1151 C 1.00259 0.30815 0.75014 0.0
C1152 C 0.02301 0.34841 0.7607 0.0
C1153 C 0.01874 0.31674 0.76965 0.0
C1154 C 0.98406 0.31536 0.61718 0.0
C1155 C 0.97212 0.31903 0.56932 0.0
N1156 N 0.98401 0.3135 0.55557 0.0
C1157 C 0.99623 0.3098 0.60258 0.0
C1158 C 0.97197 0.32011 0.60045 0.0
C1159 C 0.99598 0.30893 0.57141 0.0
C1160 C 0.01618 0.29028 0.66417 0.0
N1161 N 0.0149 0.30474 0.67895 0.0
C1162 C 0.04999 0.32339 0.68446 0.0
C1163 C 0.03134 0.32107 0.68924 0.0
C1164 C 0.05187 0.30926 0.66759 0.0
C1165 C 0.03454 0.2923 0.65803 0.0
H1166 H 1.00294 0.27757 0.65579 0.0
H1167 H 0.03012 0.33263 0.70036 0.0
C1168 C 0.9664 0.34858 0.71255 0.0
N1169 N 0.97173 0.34446 0.68585 0.0
C1170 C 0.96721 0.36653 0.71732 0.0
C1171 C 0.97953 0.3761 0.66729 0.0
C1172 C 0.97828 0.35779 0.66335 0.0
C1173 C 0.97376 0.38055 0.6945 0.0
H1174 H 0.96169 0.33792 0.7303 0.0
H1175 H 0.98271 0.3543 0.64246 0.0
C1176 C 0.95985 0.25643 0.68728 0.0
N1177 N 0.94444 0.21912 0.71045 0.0
C1178 C 0.94103 0.24158 0.67871 0.0
C1179 C 0.97091 0.25229 0.70741 0.0
C1180 C 0.93348 0.22281 0.69074 0.0
C1181 C 0.96284 0.23334 0.71894 0.0
C1182 C 0.93155 0.30427 0.68581 0.0
C1183 C 0.92468 0.30395 0.71465 0.0
C1184 C 0.92761 0.31404 0.66319 0.0
C1185 C 0.914 0.31345 0.72039 0.0
C1186 C 0.91694 0.32341 0.66985 0.0
N1187 N 0.91041 0.32292 0.69807 0.0
C1188 C 0.94855 0.26965 0.76459 0.0
C1189 C 0.92188 0.25785 0.73024 0.0
C1190 C 0.93607 0.25721 0.78666 0.0
N1191 N 0.94125 0.26984 0.7371 0.0
C1192 C 0.90886 0.24532 0.75168 0.0
C1193 C 0.91592 0.24509 0.78039 0.0
H1194 H 0.96395 0.27934 0.76957 0.0
H1195 H 0.9165 0.25826 0.70813 0.0
C1196 C 0.95188 0.2644 0.60446 0.0
N1197 N 0.94458 0.27507 0.61738 0.0
C1198 C 0.94219 0.25208 0.58017 0.0
C1199 C 0.91759 0.26194 0.58275 0.0
C1200 C 0.92773 0.27403 0.60721 0.0
C1201 C 0.92477 0.2507 0.56902 0.0
H1202 H 0.96515 0.26531 0.61336 0.0
H1203 H 0.9221 0.28245 0.61818 0.0
O1204 O 0.9809 0.31198 0.71653 0.0
O1205 O 0.98364 0.31572 0.64769 0.0
O1206 O 0.96729 0.27501 0.67636 0.0
O1207 O 0.94242 0.29544 0.67985 0.0
H1208 H 1.00265 0.34986 0.72989 0.0
H1209 H 0.99499 0.29247 0.74598 0.0
H1210 H 0.03111 0.3641 0.76498 0.0
H1211 H 0.02354 0.30769 0.78086 0.0
H1212 H 0.96273 0.32253 0.5561 0.0
H1213 H 0.00568 0.30609 0.61515 0.0
H1214 H 0.96237 0.32432 0.61139 0.0
H1215 H 0.00526 0.30457 0.55982 0.0
H1216 H 0.06278 0.33642 0.69319 0.0
H1217 H 0.03512 0.28108 0.64466 0.0
H1218 H 0.96321 0.36961 0.73896 0.0
H1219 H 0.98492 0.38666 0.64933 0.0
H1220 H 0.93225 0.24459 0.66324 0.0
H1221 H 0.98553 0.26362 0.71413 0.0
H1222 H 0.91889 0.2112 0.68448 0.0
H1223 H 0.97119 0.22993 0.73464 0.0
H1224 H 0.92782 0.29675 0.73257 0.0
H1225 H 0.93296 0.31461 0.64082 0.0
H1226 H 0.90869 0.3134 0.74264 0.0
H1227 H 0.9139 0.33112 0.6526 0.0
H1228 H 0.94198 0.25751 0.80868 0.0
H1229 H 0.89343 0.23607 0.746 0.0
H1230 H 0.94818 0.2436 0.57032 0.0
H1231 H 0.90444 0.26161 0.57448 0.0
Li1232 Li 0.7075 0.69004 0.67873 0.0
Li1233 Li 0.69138 0.65346 0.67853 0.0
Li1234 Li 0.72346 0.67421 0.70403 0.0
Li1235 Li 0.72108 0.67245 0.64949 0.0
C1236 C 0.68822 0.67752 0.73245 0.0
N1237 N 0.66873 0.68975 0.77038 0.0
C1238 C 0.66773 0.66649 0.7348 0.0
C1239 C 0.69879 0.69473 0.74943 0.0
C1240 C 0.65815 0.67293 0.75412 0.0
C1241 C 0.68867 0.70069 0.76845 0.0
C1242 C 0.6929 0.67166 0.61465 0.0
C1243 C 0.68747 0.65651 0.56594 0.0
N1244 N 0.68981 0.67327 0.55341 0.0
C1245 C 0.69513 0.6887 0.60134 0.0
C1246 C 0.68891 0.65538 0.59688 0.0
C1247 C 0.69354 0.68924 0.57032 0.0
C1248 C 0.71808 0.72884 0.66511 0.0
N1249 N 0.70358 0.71231 0.67795 0.0
C1250 C 0.68397 0.72759 0.68417 0.0
C1251 C 0.68674 0.71143 0.68752 0.0
C1252 C 0.69827 0.74452 0.66956 0.0
C1253 C 0.71568 0.74509 0.66051 0.0
H1254 H 0.73121 0.72909 0.65725 0.0
H1255 H 0.67517 0.69805 0.69704 0.0
C1256 C 0.66313 0.61853 0.70606 0.0
N1257 N 0.66656 0.62955 0.68115 0.0
C1258 C 0.64498 0.6015 0.71005 0.0
C1259 C 0.63394 0.60754 0.66292 0.0
C1260 C 0.65248 0.62436 0.65961 0.0
C1261 C 0.63002 0.59596 0.68852 0.0
H1262 H 0.67435 0.62326 0.72324 0.0
H1263 H 0.65548 0.63352 0.6402 0.0
C1264 C 0.75324 0.70821 0.68676 0.0
N1265 N 0.79006 0.73148 0.71198 0.0
C1266 C 0.76927 0.70674 0.67665 0.0
C1267 C 0.75594 0.72162 0.70946 0.0
C1268 C 0.78777 0.71861 0.68975 0.0
C1269 C 0.77467 0.73323 0.72199 0.0
C1270 C 0.70886 0.63168 0.6806 0.0
C1271 C 0.70971 0.62425 0.70849 0.0
C1272 C 0.70075 0.6189 0.65616 0.0
C1273 C 0.70223 0.60404 0.71151 0.0
C1274 C 0.6934 0.59878 0.66011 0.0
N1275 N 0.69428 0.59183 0.68748 0.0
C1276 C 0.73728 0.67905 0.76443 0.0
C1277 C 0.75459 0.67127 0.72876 0.0
C1278 C 0.74897 0.67838 0.78747 0.0
N1279 N 0.74018 0.67535 0.73581 0.0
C1280 C 0.76662 0.67044 0.75108 0.0
C1281 C 0.76363 0.67368 0.78094 0.0
H1282 H 0.72555 0.68198 0.7695 0.0
H1283 H 0.75644 0.66822 0.7058 0.0
C1284 C 0.74057 0.68694 0.59392 0.0
N1285 N 0.73616 0.67336 0.6156 0.0
C1286 C 0.75319 0.68867 0.57075 0.0
C1287 C 0.75695 0.66282 0.59311 0.0
C1288 C 0.74403 0.66139 0.61559 0.0
C1289 C 0.76185 0.67674 0.57042 0.0
H1290 H 0.73457 0.69667 0.59485 0.0
H1291 H 0.74071 0.65107 0.63352 0.0
O1292 O 0.69784 0.6714 0.71375 0.0
O1293 O 0.69454 0.6709 0.64494 0.0
O1294 O 0.73495 0.69642 0.6747 0.0
O1295 O 0.71588 0.65138 0.67723 0.0
H1296 H 0.6593 0.65317 0.72177 0.0
H1297 H 0.71463 0.70349 0.74776 0.0
H1298 H 0.64231 0.66457 0.75613 0.0
H1299 H 0.69665 0.71402 0.78164 0.0
H1300 H 0.68449 0.64406 0.55188 0.0
H1301 H 0.69812 0.7014 0.61479 0.0
H1302 H 0.68705 0.64206 0.60687 0.0
H1303 H 0.6953 0.70235 0.55969 0.0
H1304 H 0.67054 0.72657 0.69229 0.0
H1305 H 0.72703 0.75762 0.64875 0.0
H1306 H 0.64238 0.59314 0.73034 0.0
H1307 H 0.62272 0.60376 0.64592 0.0
H1308 H 0.7674 0.69641 0.65909 0.0
H1309 H 0.74369 0.723 0.71736 0.0
H1310 H 0.8003 0.71755 0.6823 0.0
H1311 H 0.77698 0.74362 0.73968 0.0
H1312 H 0.71587 0.63392 0.72767 0.0
H1313 H 0.7001 0.62445 0.6344 0.0
H1314 H 0.70269 0.59805 0.73299 0.0
H1315 H 0.687 0.5887 0.64143 0.0
H1316 H 0.74609 0.68077 0.81028 0.0
H1317 H 0.7779 0.66697 0.74512 0.0
H1318 H 0.75608 0.69924 0.5533 0.0
H1319 H 0.76333 0.65339 0.59382 0.0
Li1320 Li 0.35487 0.31728 0.67893 0.0
Li1321 Li 0.33756 0.28692 0.70525 0.0
Li1322 Li 0.33833 0.28515 0.65064 0.0
Li1323 Li 0.31854 0.29756 0.67788 0.0
C1324 C 0.37432 0.29407 0.69681 0.0
N1325 N 0.4001 0.28991 0.73427 0.0
C1326 C 0.38863 0.31022 0.7131 0.0
C1327 C 0.37316 0.27579 0.69966 0.0
C1328 C 0.40154 0.30783 0.73185 0.0
C1329 C 0.3863 0.27398 0.71872 0.0
C1330 C 0.3361 0.31276 0.7424 0.0
C1331 C 0.31901 0.30269 0.78927 0.0
N1332 N 0.33594 0.31543 0.80393 0.0
C1333 C 0.35331 0.32584 0.75792 0.0
C1334 C 0.31878 0.30118 0.75816 0.0
C1335 C 0.35293 0.32695 0.78903 0.0
C1336 C 0.37469 0.35764 0.69354 0.0
N1337 N 0.37648 0.34379 0.67784 0.0
C1338 C 0.40959 0.36744 0.6649 0.0
C1339 C 0.39331 0.34839 0.66301 0.0
C1340 C 0.40849 0.38187 0.68216 0.0
C1341 C 0.3906 0.37676 0.69625 0.0
H1342 H 0.36108 0.35363 0.70489 0.0
H1343 H 0.39429 0.33709 0.65052 0.0
C1344 C 0.32538 0.25238 0.73873 0.0
N1345 N 0.3379 0.27219 0.73921 0.0
C1346 C 0.32675 0.24047 0.76057 0.0
C1347 C 0.35373 0.26955 0.78321 0.0
C1348 C 0.35171 0.28089 0.76117 0.0
C1349 C 0.34139 0.24905 0.7827 0.0
H1350 H 0.31474 0.24571 0.7208 0.0
H1351 H 0.36179 0.29653 0.76091 0.0
C1352 C 0.34372 0.32626 0.62837 0.0
N1353 N 0.35978 0.36196 0.59966 0.0
C1354 C 0.33797 0.33988 0.63622 0.0
C1355 C 0.35758 0.33074 0.60592 0.0
C1356 C 0.34627 0.35786 0.62143 0.0
C1357 C 0.36554 0.34889 0.59166 0.0
C1358 C 0.29603 0.25832 0.6742 0.0
C1359 C 0.28833 0.24948 0.64646 0.0
C1360 C 0.28339 0.25447 0.69826 0.0
C1361 C 0.26801 0.23718 0.64314 0.0
C1362 C 0.26315 0.2421 0.69403 0.0
N1363 N 0.25595 0.2338 0.66678 0.0
C1364 C 0.34386 0.2567 0.61999 0.0
C1365 C 0.33232 0.27366 0.58997 0.0
C1366 C 0.34301 0.24509 0.59567 0.0
N1367 N 0.33859 0.27065 0.61672 0.0
C1368 C 0.33104 0.26223 0.56513 0.0
C1369 C 0.33643 0.24775 0.56788 0.0
H1370 H 0.34836 0.25433 0.64159 0.0
H1371 H 0.32797 0.28468 0.58811 0.0
C1372 C 0.28991 0.30844 0.69467 0.0
N1373 N 0.29507 0.29913 0.67395 0.0
C1374 C 0.27346 0.31063 0.68985 0.0
C1375 C 0.26779 0.29325 0.64287 0.0
C1376 C 0.28445 0.29168 0.64835 0.0
C1377 C 0.26225 0.30303 0.66357 0.0
H1378 H 0.29884 0.31462 0.71456 0.0
H1379 H 0.28922 0.28493 0.63182 0.0
O1380 O 0.36141 0.29609 0.67853 0.0
O1381 O 0.33612 0.31154 0.71192 0.0
O1382 O 0.33622 0.30885 0.6432 0.0
O1383 O 0.31585 0.27064 0.67781 0.0
H1384 H 0.38958 0.32439 0.71176 0.0
H1385 H 0.36195 0.263 0.68788 0.0
H1386 H 0.4126 0.3202 0.74464 0.0
H1387 H 0.38542 0.25988 0.72132 0.0
H1388 H 0.30573 0.29376 0.80175 0.0
H1389 H 0.3669 0.3348 0.74615 0.0
H1390 H 0.3053 0.29116 0.74651 0.0
H1391 H 0.36617 0.3369 0.80134 0.0
H1392 H 0.42307 0.37071 0.65367 0.0
H1393 H 0.38914 0.38712 0.71051 0.0
H1394 H 0.31695 0.2247 0.75961 0.0
H1395 H 0.36502 0.2767 0.80025 0.0
H1396 H 0.32737 0.33667 0.65375 0.0
H1397 H 0.36227 0.32038 0.59979 0.0
H1398 H 0.34203 0.36859 0.62734 0.0
H1399 H 0.37635 0.35261 0.57431 0.0
H1400 H 0.29789 0.25221 0.62763 0.0
H1401 H 0.28914 0.26099 0.71995 0.0
H1402 H 0.26183 0.23035 0.62175 0.0
H1403 H 0.25319 0.23909 0.71242 0.0
H1404 H 0.34703 0.23388 0.59868 0.0
H1405 H 0.32592 0.26469 0.54397 0.0
H1406 H 0.26969 0.31837 0.70621 0.0
H1407 H 0.25973 0.28754 0.62208 0.0
Li1408 Li 0.68898 0.04179 0.67114 0.0
Li1409 Li 0.72168 0.05446 0.69831 0.0
Li1410 Li 0.72033 0.05614 0.64294 0.0
Li1411 Li 0.70748 0.02513 0.66738 0.0
C1412 C 0.71191 0.08571 0.67822 0.0
N1413 N 0.7113 0.12008 0.68891 0.0
C1414 C 0.70866 0.09033 0.70703 0.0
C1415 C 0.71505 0.09868 0.65489 0.0
C1416 C 0.70835 0.10774 0.71197 0.0
C1417 C 0.71462 0.11595 0.66073 0.0
C1418 C 0.68854 0.01194 0.71693 0.0
C1419 C 0.69158 0.98937 0.7497 0.0
N1420 N 0.67352 0.9748 0.74052 0.0
C1421 C 0.66997 0.99681 0.70793 0.0
C1422 C 0.69942 0.00827 0.73806 0.0
C1423 C 0.66266 0.9781 0.72008 0.0
C1424 C 0.64815 0.02927 0.65649 0.0
N1425 N 0.66343 0.03938 0.67595 0.0
C1426 C 0.64277 0.04543 0.70817 0.0
C1427 C 0.66097 0.04725 0.70152 0.0
C1428 C 0.62679 0.03541 0.68829 0.0
C1429 C 0.62969 0.02724 0.66214 0.0
H1430 H 0.65005 0.02236 0.63689 0.0
H1431 H 0.673 0.05441 0.71731 0.0
C1432 C 0.75645 0.08184 0.72811 0.0
N1433 N 0.73692 0.06897 0.73186 0.0
C1434 C 0.76778 0.09415 0.75166 0.0
C1435 C 0.73867 0.07958 0.78236 0.0
C1436 C 0.72798 0.06739 0.7584 0.0
C1437 C 0.75875 0.09334 0.77895 0.0
H1438 H 0.76309 0.08283 0.70662 0.0
H1439 H 0.71241 0.05705 0.76063 0.0
C1440 C 0.68579 0.03419 0.60964 0.0
N1441 N 0.66825 0.04018 0.56028 0.0
C1442 C 0.67847 0.02034 0.58638 0.0
C1443 C 0.68422 0.0511 0.60774 0.0
C1444 C 0.66965 0.02363 0.56162 0.0
C1445 C 0.67529 0.05386 0.58264 0.0
C1446 C 0.74679 0.04292 0.6504 0.0
C1447 C 0.73971 0.03348 0.62282 0.0
C1448 C 0.76586 0.04827 0.65966 0.0
C1449 C 0.75188 0.02954 0.60494 0.0
C1450 C 0.77757 0.04407 0.64112 0.0
N1451 N 0.7704 0.03487 0.61438 0.0
C1452 C 0.75284 0.08951 0.62057 0.0
C1453 C 0.73177 0.06844 0.58223 0.0
C1454 C 0.76623 0.10213 0.59951 0.0
N1455 N 0.73608 0.073 0.61165 0.0
C1456 C 0.74459 0.08078 0.56044 0.0
C1457 C 0.76217 0.09771 0.56903 0.0
H1458 H 0.75599 0.09262 0.64415 0.0
H1459 H 0.7187 0.05499 0.57558 0.0
C1460 C 0.69061 0.98603 0.64593 0.0
N1461 N 0.70501 0.99958 0.66404 0.0
C1462 C 0.68896 0.96767 0.64117 0.0
C1463 C 0.71664 0.97725 0.67449 0.0
C1464 C 0.71782 0.99551 0.6785 0.0
C1465 C 0.70226 0.96315 0.65518 0.0
H1466 H 0.6806 0.98963 0.63475 0.0
H1467 H 0.72912 0.00655 0.69287 0.0
O1468 O 0.71253 0.06884 0.67296 0.0
O1469 O 0.69617 0.03017 0.70467 0.0
O1470 O 0.69475 0.03123 0.63373 0.0
O1471 O 0.73521 0.047 0.66836 0.0
H1472 H 0.70636 0.08057 0.72539 0.0
H1473 H 0.71781 0.09548 0.6325 0.0
H1474 H 0.70578 0.11145 0.73415 0.0
H1475 H 0.71697 0.12609 0.64287 0.0
H1476 H 0.69987 0.98626 0.76595 0.0
H1477 H 0.66143 0.99945 0.69148 0.0
H1478 H 0.71385 0.01987 0.74513 0.0
H1479 H 0.64836 0.9662 0.7132 0.0
H1480 H 0.64108 0.05118 0.72927 0.0
H1481 H 0.61772 0.0191 0.64645 0.0
H1482 H 0.78324 0.10457 0.74834 0.0
H1483 H 0.73132 0.07841 0.80329 0.0
H1484 H 0.67969 0.00723 0.58738 0.0
H1485 H 0.68965 0.06189 0.62554 0.0
H1486 H 0.66394 0.01304 0.54345 0.0
H1487 H 0.67393 0.06686 0.58095 0.0
H1488 H 0.72501 0.02921 0.61524 0.0
H1489 H 0.77154 0.05559 0.68095 0.0
H1490 H 0.74659 0.02224 0.58355 0.0
H1491 H 0.79236 0.04813 0.648 0.0
H1492 H 0.77967 0.11504 0.6069 0.0
H1493 H 0.74116 0.07676 0.5371 0.0
H1494 H 0.67775 0.95734 0.6259 0.0
H1495 H 0.72697 0.97428 0.68617 0.0
Li1496 Li 0.95919 0.6719 0.7046 0.0
Li1497 Li 0.97143 0.65262 0.67939 0.0
Li1498 Li 0.98998 0.6902 0.67708 0.0
Li1499 Li 0.95842 0.67039 0.65029 0.0
C1500 C 0.98674 0.67619 0.74201 0.0
N1501 N 0.98981 0.68336 0.80277 0.0
C1502 C 0.98362 0.66128 0.76189 0.0
C1503 C 0.99154 0.69478 0.75295 0.0
C1504 C 0.98522 0.66519 0.79256 0.0
C1505 C 0.99298 0.6981 0.78377 0.0
C1506 C 0.93108 0.62986 0.67047 0.0
C1507 C 0.91726 0.60397 0.63333 0.0
N1508 N 0.90431 0.5916 0.65382 0.0
C1509 C 0.91755 0.61693 0.69111 0.0
C1510 C 0.93087 0.62337 0.64133 0.0
C1511 C 0.90417 0.59763 0.68228 0.0
C1512 C 0.9386 0.68507 0.74136 0.0
N1513 N 0.94387 0.67112 0.73791 0.0
C1514 C 0.92357 0.65283 0.77868 0.0
C1515 C 0.93676 0.65526 0.75609 0.0
C1516 C 0.91752 0.66677 0.7824 0.0
C1517 C 0.92548 0.68326 0.76377 0.0
H1518 H 0.94418 0.69732 0.72624 0.0
H1519 H 0.94103 0.64429 0.75261 0.0
C1520 C 0.98692 0.627 0.66676 0.0
N1521 N 0.97381 0.62958 0.68311 0.0
C1522 C 0.98891 0.61044 0.67108 0.0
C1523 C 0.9643 0.59979 0.70953 0.0
C1524 C 0.96259 0.61637 0.70417 0.0
C1525 C 0.97757 0.59656 0.69285 0.0
H1526 H 0.99615 0.638 0.6508 0.0
H1527 H 0.95271 0.61905 0.71751 0.0
C1528 C 0.97138 0.71089 0.66124 0.0
N1529 N 0.98092 0.74475 0.63004 0.0
C1530 C 0.97745 0.71279 0.63159 0.0
C1531 C 0.97015 0.72625 0.67501 0.0
C1532 C 0.9822 0.72999 0.61618 0.0
C1533 C 0.97505 0.74325 0.65888 0.0
C1534 C 0.98843 0.66867 0.61563 0.0
C1535 C 1.00106 0.68555 0.59961 0.0
C1536 C 0.9813 0.65015 0.60229 0.0
C1537 C 0.00594 0.68365 0.57032 0.0
C1538 C 0.98654 0.64887 0.57296 0.0
N1539 N 0.99862 0.6655 0.5577 0.0
C1540 C 0.03043 0.71024 0.66437 0.0
C1541 C 0.01954 0.73118 0.68396 0.0
C1542 C 0.04933 0.72626 0.66028 0.0
N1543 N 0.01589 0.71297 0.67547 0.0
C1544 C 0.03824 0.74767 0.68007 0.0
C1545 C 0.05339 0.74533 0.66784 0.0
H1546 H 0.02717 0.69562 0.65785 0.0
H1547 H 0.00788 0.733 0.69325 0.0
C1548 C 0.92874 0.67503 0.62523 0.0
N1549 N 0.94202 0.66946 0.61766 0.0
C1550 C 0.91627 0.6758 0.60365 0.0
C1551 C 0.93078 0.66435 0.56695 0.0
C1552 C 0.9432 0.66408 0.58917 0.0
C1553 C 0.91729 0.67049 0.57409 0.0
H1554 H 0.92806 0.67915 0.64809 0.0
H1555 H 0.95378 0.65969 0.58353 0.0
O1556 O 0.98484 0.67257 0.71195 0.0
O1557 O 0.94446 0.64874 0.6789 0.0
O1558 O 0.96675 0.69419 0.67685 0.0
O1559 O 0.98367 0.67023 0.64452 0.0
H1560 H 0.97988 0.64681 0.75373 0.0
H1561 H 0.9939 0.70643 0.73779 0.0
H1562 H 0.98277 0.65378 0.80825 0.0
H1563 H 0.99658 0.71237 0.79259 0.0
H1564 H 0.91699 0.59875 0.61084 0.0
H1565 H 0.91742 0.62172 0.71375 0.0
H1566 H 0.94109 0.63319 0.62505 0.0
H1567 H 0.89367 0.58745 0.69806 0.0
H1568 H 0.91811 0.64014 0.79305 0.0
H1569 H 0.9212 0.69434 0.76605 0.0
H1570 H 0.99949 0.60871 0.65793 0.0
H1571 H 0.95586 0.59006 0.72744 0.0
H1572 H 0.97832 0.70105 0.6205 0.0
H1573 H 0.96566 0.72518 0.69803 0.0
H1574 H 0.98687 0.73159 0.59319 0.0
H1575 H 0.97423 0.75526 0.66932 0.0
H1576 H 0.00712 0.70001 0.60968 0.0
H1577 H 0.97179 0.63688 0.61437 0.0
H1578 H 0.01561 0.6966 0.55766 0.0
H1579 H 0.98102 0.63463 0.56235 0.0
H1580 H 0.06042 0.72381 0.65012 0.0
H1581 H 0.04075 0.76213 0.68612 0.0
H1582 H 0.90597 0.68053 0.60994 0.0
H1583 H 0.93204 0.66029 0.54426 0.0
H1584 H 0.15457 0.33101 0.13376 0.0
H1585 H 0.15271 0.3464 0.04186 0.0
H1586 H 0.12475 0.36206 0.11017 0.0
H1587 H 0.15916 0.31295 0.0882 0.0
H1588 H 0.16531 0.32504 0.05315 0.0
H1589 H 0.18253 0.33014 0.13359 0.0
H1590 H 0.24326 0.35836 0.10933 0.0
H1591 H 0.19937 0.34529 0.04166 0.0
C1592 C 0.15101 0.33866 0.11708 0.0
C1593 C 0.14011 0.34757 0.12555 0.0
C1594 C 0.15648 0.33888 0.08704 0.0
C1595 C 0.14977 0.34721 0.06527 0.0
C1596 C 0.13847 0.35578 0.07366 0.0
C1597 C 0.13417 0.35623 0.10381 0.0
C1598 C 0.16678 0.3277 0.07769 0.0
C1599 C 0.18836 0.33777 0.08685 0.0
C1600 C 0.19372 0.33721 0.11681 0.0
C1601 C 0.21355 0.34499 0.12505 0.0
C1602 C 0.22803 0.35319 0.10319 0.0
C1603 C 0.22311 0.35318 0.07314 0.0
C1604 C 0.20325 0.34566 0.065 0.0
H1605 H 0.68273 0.83079 0.1333 0.0
H1606 H 0.66441 0.81043 0.04275 0.0
H1607 H 0.6521 0.76918 0.11339 0.0
H1608 H 0.69931 0.85171 0.08516 0.0
H1609 H 0.68511 0.84473 0.05165 0.0
H1610 H 0.68654 0.86101 0.13164 0.0
H1611 H 0.65669 0.89238 0.11031 0.0
H1612 H 0.66308 0.85698 0.04276 0.0
C1613 C 0.67472 0.81901 0.11734 0.0
C1614 C 0.66663 0.79952 0.12684 0.0
C1615 C 0.67332 0.8232 0.08713 0.0
C1616 C 0.66452 0.80745 0.06632 0.0
C1617 C 0.65682 0.7879 0.07573 0.0
C1618 C 0.65741 0.78416 0.1061 0.0
C1619 C 0.68395 0.84433 0.07641 0.0
C1620 C 0.67462 0.85626 0.08657 0.0
C1621 C 0.67787 0.86398 0.11593 0.0
C1622 C 0.67126 0.87686 0.12442 0.0
C1623 C 0.6612 0.88191 0.10377 0.0
C1624 C 0.65832 0.87503 0.07428 0.0
C1625 C 0.66486 0.86199 0.06575 0.0
H1626 H 0.17216 0.81005 0.15294 0.0
H1627 H 0.1646 0.79629 0.05874 0.0
H1628 H 0.11445 0.77437 0.1162 0.0
H1629 H 0.19888 0.80987 0.12003 0.0
H1630 H 0.19663 0.81013 0.08053 0.0
H1631 H 0.20021 0.83896 0.15071 0.0
H1632 H 0.2386 0.89421 0.10957 0.0
H1633 H 0.21333 0.84121 0.05691 0.0
C1634 C 0.16275 0.80397 0.13349 0.0
C1635 C 0.1423 0.7931 0.13734 0.0
C1636 C 0.17102 0.80584 0.10497 0.0
C1637 C 0.15841 0.79605 0.08042 0.0
C1638 C 0.1379 0.78482 0.08425 0.0
C1639 C 0.1301 0.78391 0.11263 0.0
C1640 C 0.19315 0.81517 0.10171 0.0
C1641 C 0.20415 0.83748 0.10316 0.0
C1642 C 0.20683 0.84729 0.13076 0.0
C1643 C 0.21913 0.86778 0.13316 0.0
C1644 C 0.22839 0.87851 0.1076 0.0
C1645 C 0.22644 0.86908 0.08017 0.0
C1646 C 0.21425 0.84857 0.0779 0.0
H1647 H 0.367 0.19589 0.86913 0.0
H1648 H 0.37547 0.2112 0.9628 0.0
H1649 H 0.34452 0.23092 0.90657 0.0
H1650 H 0.39572 0.19814 0.902 0.0
H1651 H 0.39262 0.19644 0.94134 0.0
H1652 H 0.3723 0.16968 0.8683 0.0
H1653 H 0.352 0.11325 0.90771 0.0
H1654 H 0.37549 0.16466 0.96384 0.0
C1655 C 0.364 0.20215 0.88859 0.0
C1656 C 0.35416 0.2128 0.88491 0.0
C1657 C 0.37119 0.20083 0.91689 0.0
C1658 C 0.36882 0.21086 0.94138 0.0
C1659 C 0.35892 0.22148 0.93778 0.0
C1660 C 0.35118 0.22182 0.90974 0.0
C1661 C 0.38439 0.19194 0.91976 0.0
C1662 C 0.37354 0.16969 0.91667 0.0
C1663 C 0.36873 0.16073 0.88808 0.0
C1664 C 0.36098 0.14036 0.88485 0.0
C1665 C 0.35749 0.12891 0.9103 0.0
C1666 C 0.36281 0.1375 0.93872 0.0
C1667 C 0.37072 0.1579 0.94196 0.0
H1668 H 0.85635 0.1779 0.87861 0.0
H1669 H 0.85726 0.19675 0.96965 0.0
H1670 H 0.88723 0.23918 0.90085 0.0
H1671 H 0.84942 0.15536 0.92397 0.0
H1672 H 0.84419 0.16242 0.95906 0.0
H1673 H 0.82623 0.15131 0.87851 0.0
H1674 H 0.76568 0.12067 0.90385 0.0
H1675 H 0.81041 0.14933 0.97121 0.0
C1676 C 0.85997 0.18943 0.89496 0.0
C1677 C 0.87144 0.20908 0.88624 0.0
C1678 C 0.8539 0.18474 0.92485 0.0
C1679 C 0.86072 0.20013 0.94628 0.0
C1680 C 0.87282 0.21984 0.93769 0.0
C1681 C 0.87749 0.22408 0.90754 0.0
C1682 C 0.84266 0.16338 0.93451 0.0
C1683 C 0.821 0.15281 0.9257 0.0
C1684 C 0.81526 0.14747 0.8956 0.0
C1685 C 0.79529 0.13639 0.88754 0.0
C1686 C 0.78105 0.13025 0.9098 0.0
C1687 C 0.78629 0.13481 0.93988 0.0
C1688 C 0.8063 0.14619 0.94785 0.0
H1689 H 0.83996 0.64321 0.86927 0.0
H1690 H 0.84514 0.63684 0.96391 0.0
H1691 H 0.89639 0.66172 0.90838 0.0
H1692 H 0.81166 0.61758 0.90125 0.0
H1693 H 0.81344 0.61998 0.94078 0.0
H1694 H 0.8144 0.64798 0.87126 0.0
H1695 H 0.77503 0.6649 0.90909 0.0
H1696 H 0.79578 0.63382 0.96262 0.0
C1697 C 0.8489 0.64599 0.8891 0.0
C1698 C 0.86933 0.65432 0.88605 0.0
C1699 C 0.83999 0.6402 0.91732 0.0
C1700 C 0.85189 0.64221 0.94239 0.0
C1701 C 0.8723 0.64989 0.93928 0.0
C1702 C 0.88082 0.65648 0.91124 0.0
C1703 C 0.8177 0.62858 0.91977 0.0
C1704 C 0.80781 0.64095 0.91796 0.0
C1705 C 0.80697 0.64929 0.89059 0.0
C1706 C 0.79526 0.65805 0.88731 0.0
C1707 C 0.78481 0.65898 0.91187 0.0
C1708 C 0.78486 0.65025 0.93895 0.0
C1709 C 0.79642 0.6413 0.94204 0.0
H1710 H 0.82306 0.66821 0.4759 0.0
H1711 H 0.8155 0.67432 0.38179 0.0
H1712 H 0.78758 0.69229 0.44681 0.0
H1713 H 0.82585 0.6465 0.43163 0.0
H1714 H 0.83253 0.65788 0.39616 0.0
H1715 H 0.84835 0.66209 0.47657 0.0
H1716 H 0.90957 0.69428 0.45553 0.0
H1717 H 0.86658 0.68112 0.38619 0.0
C1718 C 0.81793 0.67367 0.45792 0.0
C1719 C 0.80578 0.6815 0.46471 0.0
C1720 C 0.82243 0.67186 0.42799 0.0
C1721 C 0.8136 0.6771 0.40491 0.0
C1722 C 0.801 0.68443 0.41176 0.0
C1723 C 0.79785 0.68728 0.44159 0.0
C1724 C 0.83343 0.66106 0.42053 0.0
C1725 C 0.85484 0.67174 0.43064 0.0
C1726 C 0.85977 0.67043 0.46055 0.0
C1727 C 0.87952 0.67906 0.46957 0.0
C1728 C 0.89438 0.68863 0.44863 0.0
C1729 C 0.88994 0.68927 0.41851 0.0
C1730 C 0.87011 0.68102 0.40958 0.0
H1731 H 0.34836 0.16348 0.46842 0.0
H1732 H 0.33011 0.14444 0.3774 0.0
H1733 H 0.31619 0.10213 0.44692 0.0
H1734 H 0.36449 0.18557 0.42298 0.0
H1735 H 0.35232 0.17856 0.38764 0.0
H1736 H 0.3445 0.18963 0.46756 0.0
H1737 H 0.31919 0.2242 0.43965 0.0
H1738 H 0.33396 0.19387 0.37394 0.0
C1739 C 0.34005 0.15196 0.45221 0.0
C1740 C 0.33125 0.13231 0.46125 0.0
C1741 C 0.33886 0.15661 0.42215 0.0
C1742 C 0.32993 0.14114 0.40088 0.0
C1743 C 0.32177 0.12143 0.40979 0.0
C1744 C 0.32191 0.11726 0.44006 0.0
C1745 C 0.34971 0.17789 0.4121 0.0
C1746 C 0.33933 0.18925 0.41996 0.0
C1747 C 0.3386 0.19451 0.44991 0.0
C1748 C 0.3311 0.2069 0.45715 0.0
C1749 C 0.32417 0.21393 0.43427 0.0
C1750 C 0.32519 0.20942 0.40432 0.0
C1751 C 0.33268 0.19697 0.39716 0.0
H1752 H 0.84024 0.14995 0.4808 0.0
H1753 H 0.83525 0.12664 0.39171 0.0
H1754 H 0.78376 0.10743 0.445 0.0
H1755 H 0.86807 0.14633 0.45276 0.0
H1756 H 0.86696 0.14564 0.41317 0.0
H1757 H 0.8727 0.17578 0.48128 0.0
H1758 H 0.90545 0.23018 0.43471 0.0
H1759 H 0.8788 0.17563 0.38576 0.0
C1760 C 0.83129 0.14121 0.46212 0.0
C1761 C 0.81084 0.12929 0.46576 0.0
C1762 C 0.8403 0.14081 0.43514 0.0
C1763 C 0.82848 0.12811 0.41185 0.0
C1764 C 0.80803 0.11631 0.4153 0.0
C1765 C 0.79939 0.11739 0.44189 0.0
C1766 C 0.86254 0.15088 0.43322 0.0
C1767 C 0.87276 0.17316 0.43319 0.0
C1768 C 0.87715 0.18369 0.46044 0.0
C1769 C 0.889 0.20428 0.46106 0.0
C1770 C 0.89581 0.21434 0.43414 0.0
C1771 C 0.89254 0.2042 0.40702 0.0
C1772 C 0.88075 0.18359 0.40652 0.0
H1773 H 0.02956 0.5288 0.20717 0.0
H1774 H 0.042 0.54574 0.29996 0.0
H1775 H 0.01236 0.56785 0.24561 0.0
H1776 H 0.05813 0.52909 0.23825 0.0
H1777 H 0.05617 0.52827 0.27777 0.0
H1778 H 0.03049 0.50102 0.20668 0.0
H1779 H 0.00987 0.44467 0.24619 0.0
H1780 H 0.04036 0.49679 0.30046 0.0
C1781 C 0.02783 0.53584 0.22678 0.0
C1782 C 0.01922 0.54768 0.22357 0.0
C1783 C 0.03542 0.53429 0.2546 0.0
C1784 C 0.03489 0.54548 0.27903 0.0
C1785 C 0.0264 0.55746 0.27582 0.0
C1786 C 0.01804 0.55788 0.2484 0.0
C1787 C 0.04732 0.52391 0.25676 0.0
C1788 C 0.03509 0.50161 0.25451 0.0
C1789 C 0.0278 0.49233 0.22655 0.0
C1790 C 0.01822 0.47177 0.22368 0.0
C1791 C 0.01611 0.46044 0.24881 0.0
C1792 C 0.02427 0.46931 0.27637 0.0
C1793 C 0.03351 0.48989 0.27934 0.0
H1794 H 0.52219 0.51434 0.20799 0.0
H1795 H 0.52333 0.53335 0.29897 0.0
H1796 H 0.55277 0.57567 0.22989 0.0
H1797 H 0.51677 0.49246 0.25492 0.0
H1798 H 0.50981 0.4991 0.28884 0.0
H1799 H 0.49463 0.48498 0.20801 0.0
H1800 H 0.43325 0.45424 0.22832 0.0
H1801 H 0.47553 0.48604 0.29788 0.0
C1802 C 0.52573 0.52587 0.22426 0.0
C1803 C 0.5372 0.54552 0.21544 0.0
C1804 C 0.51979 0.52121 0.2542 0.0
C1805 C 0.52659 0.53667 0.27554 0.0
C1806 C 0.53849 0.55638 0.26679 0.0
C1807 C 0.54307 0.56057 0.23661 0.0
C1808 C 0.50901 0.49989 0.26412 0.0
C1809 C 0.48767 0.48835 0.2537 0.0
C1810 C 0.48305 0.48166 0.22385 0.0
C1811 C 0.46341 0.46978 0.21461 0.0
C1812 C 0.44833 0.46423 0.23531 0.0
C1813 C 0.45253 0.46967 0.26542 0.0
C1814 C 0.47222 0.48204 0.27451 0.0
H1815 H 0.50604 0.97748 0.20593 0.0
H1816 H 0.50997 0.96394 0.298 0.0
H1817 H 0.56208 0.99421 0.24526 0.0
H1818 H 0.47763 0.94759 0.23703 0.0
H1819 H 0.47839 0.9511 0.27629 0.0
H1820 H 0.47553 0.97213 0.2023 0.0
H1821 H 0.44054 0.99507 0.23706 0.0
H1822 H 0.46455 0.9697 0.29691 0.0
C1823 C 0.51466 0.97898 0.22564 0.0
C1824 C 0.53516 0.98762 0.2229 0.0
C1825 C 0.50534 0.97109 0.25308 0.0
C1826 C 0.51694 0.97132 0.27748 0.0
C1827 C 0.53743 0.97982 0.2747 0.0
C1828 C 0.5464 0.98854 0.24778 0.0
C1829 C 0.48302 0.95912 0.25479 0.0
C1830 C 0.47278 0.97101 0.25048 0.0
C1831 C 0.47 0.97617 0.22152 0.0
C1832 C 0.45897 0.98548 0.21697 0.0
C1833 C 0.4502 0.98918 0.24125 0.0
C1834 C 0.4519 0.98343 0.27016 0.0
C1835 C 0.46352 0.97461 0.27477 0.0
H1836 H 0.48332 0.98929 0.80271 0.0
H1837 H 0.48341 0.00438 0.71006 0.0
H1838 H 0.44843 0.01416 0.77352 0.0
H1839 H 0.49075 0.97243 0.7588 0.0
H1840 H 0.4968 0.98411 0.72351 0.0
H1841 H 0.51304 0.98917 0.80383 0.0
H1842 H 0.57419 0.02104 0.78091 0.0
H1843 H 0.53041 0.00751 0.71302 0.0
C1844 C 0.4792 0.99606 0.78528 0.0
C1845 C 0.46558 1.00219 0.79164 0.0
C1846 C 0.48612 0.99713 0.7559 0.0
C1847 C 0.47915 0.00447 0.73301 0.0
C1848 C 0.46556 0.01061 0.73948 0.0
C1849 C 0.45927 0.00981 0.76878 0.0
C1850 C 0.49774 0.98709 0.74796 0.0
C1851 C 0.51915 0.99842 0.75778 0.0
C1852 C 0.52438 0.99739 0.78763 0.0
C1853 C 0.54423 0.00542 0.79599 0.0
C1854 C 0.55886 0.01513 0.77464 0.0
C1855 C 0.55405 0.01586 0.7448 0.0
C1856 C 0.53418 0.00759 0.73635 0.0
H1857 H 0.01289 0.4927 0.80976 0.0
H1858 H 0.99974 0.47687 0.71655 0.0
H1859 H 0.98128 0.43212 0.78308 0.0
H1860 H 0.03281 0.51568 0.76565 0.0
H1861 H 0.02143 0.51054 0.72973 0.0
H1862 H 0.0163 0.52291 0.80968 0.0
H1863 H 0.98828 0.55549 0.78434 0.0
H1864 H 1.00149 0.52468 0.7172 0.0
C1865 C 0.00553 0.48175 0.7924 0.0
C1866 C 0.99597 0.46177 0.8 0.0
C1867 C 0.00633 0.48749 0.76238 0.0
C1868 C 0.99822 0.47278 0.73985 0.0
C1869 C 0.98892 0.45276 0.7474 0.0
C1870 C 0.98759 0.44753 0.77742 0.0
C1871 C 0.01828 0.50906 0.75406 0.0
C1872 C 0.00859 0.52093 0.76271 0.0
C1873 C 0.00921 0.52695 0.79264 0.0
C1874 C 1.00152 0.53906 0.80049 0.0
C1875 C 0.99343 0.54541 0.77841 0.0
C1876 C 0.99365 0.54057 0.74842 0.0
C1877 C 1.00096 0.52809 0.74054 0.0
H1878 H 0.50302 0.47582 0.8086 0.0
H1879 H 0.49788 0.46209 0.71452 0.0
H1880 H 0.4463 0.43913 0.7688 0.0
H1881 H 0.53086 0.47625 0.77688 0.0
H1882 H 0.52955 0.47752 0.73741 0.0
H1883 H 0.53074 0.50426 0.80884 0.0
H1884 H 0.56984 0.5607 0.77212 0.0
H1885 H 0.54709 0.50924 0.71619 0.0
C1886 C 0.4941 0.4696 0.78875 0.0
C1887 C 0.47358 0.45802 0.79172 0.0
C1888 C 0.5031 0.4719 0.76074 0.0
C1889 C 0.49117 0.46178 0.73575 0.0
C1890 C 0.47064 0.45016 0.73862 0.0
C1891 C 0.46202 0.44893 0.76636 0.0
C1892 C 0.52537 0.48184 0.75863 0.0
C1893 C 0.53599 0.50413 0.76144 0.0
C1894 C 0.53769 0.51313 0.78949 0.0
C1895 C 0.54965 0.53355 0.79329 0.0
C1896 C 0.55975 0.54508 0.76879 0.0
C1897 C 0.55908 0.53646 0.74107 0.0
C1898 C 0.54704 0.51599 0.73733 0.0
H1899 H 0.69583 0.85949 0.53889 0.0
H1900 H 0.7122 0.88296 0.62843 0.0
H1901 H 0.68091 0.90175 0.57146 0.0
H1902 H 0.72824 0.86517 0.57103 0.0
H1903 H 0.7244 0.86295 0.6101 0.0
H1904 H 0.70677 0.83744 0.53608 0.0
H1905 H 0.68312 0.78033 0.5745 0.0
H1906 H 0.70413 0.83102 0.63186 0.0
C1907 C 0.69528 0.86825 0.55712 0.0
C1908 C 0.68677 0.88005 0.55218 0.0
C1909 C 0.70417 0.86878 0.58483 0.0
C1910 C 0.70444 0.88145 0.60762 0.0
C1911 C 0.69569 0.89306 0.60294 0.0
C1912 C 0.68662 0.89192 0.57551 0.0
C1913 C 0.71653 0.85898 0.58821 0.0
C1914 C 0.70519 0.83676 0.58441 0.0
C1915 C 0.70185 0.82818 0.55561 0.0
C1916 C 0.69374 0.80779 0.55207 0.0
C1917 C 0.68871 0.79598 0.57738 0.0
C1918 C 0.69248 0.80411 0.60619 0.0
C1919 C 0.70055 0.82454 0.60967 0.0
H1920 H 0.19057 0.84554 0.54639 0.0
H1921 H 0.19517 0.86621 0.63721 0.0
H1922 H 0.2216 0.9073 0.56581 0.0
H1923 H 0.18796 0.82496 0.59408 0.0
H1924 H 0.18183 0.83195 0.62839 0.0
H1925 H 0.1642 0.81481 0.54961 0.0
H1926 H 0.10355 0.78379 0.57497 0.0
H1927 H 0.14782 0.81919 0.63997 0.0
C1928 C 0.19469 0.85738 0.56234 0.0
C1929 C 0.20576 0.87688 0.55256 0.0
C1930 C 0.19 0.85326 0.59279 0.0
C1931 C 0.19742 0.86909 0.61351 0.0
C1932 C 0.20866 0.88864 0.60376 0.0
C1933 C 0.2122 0.8923 0.57325 0.0
C1934 C 0.18013 0.83219 0.60375 0.0
C1935 C 0.15851 0.8199 0.59512 0.0
C1936 C 0.15302 0.8119 0.56601 0.0
C1937 C 0.1332 0.79886 0.55868 0.0
C1938 C 0.11884 0.79409 0.58046 0.0
C1939 C 0.12392 0.80103 0.6098 0.0
C1940 C 0.14378 0.81415 0.61709 0.0
H1941 H 0.17341 0.31176 0.53551 0.0
H1942 H 0.17692 0.2998 0.62846 0.0
H1943 H 0.22937 0.32971 0.57622 0.0
H1944 H 0.145 0.28293 0.56553 0.0
H1945 H 0.14556 0.28515 0.60505 0.0
H1946 H 0.14376 0.30933 0.53344 0.0
H1947 H 0.10649 0.32877 0.57108 0.0
H1948 H 0.13117 0.30258 0.62773 0.0
C1949 C 0.18199 0.31369 0.55548 0.0
C1950 C 0.20252 0.32252 0.55315 0.0
C1951 C 0.17253 0.30608 0.58291 0.0
C1952 C 0.18402 0.30689 0.60782 0.0
C1953 C 0.20458 0.31562 0.60556 0.0
C1954 C 0.21366 0.32393 0.57846 0.0
C1955 C 0.15022 0.29386 0.58416 0.0
C1956 C 0.13987 0.30573 0.5813 0.0
C1957 C 0.1375 0.31211 0.55301 0.0
C1958 C 0.12608 0.32114 0.54955 0.0
C1959 C 0.11657 0.32328 0.57436 0.0
C1960 C 0.11834 0.3168 0.60266 0.0
C1961 C 0.1302 0.30817 0.60611 0.0
C1962 C 0.02619 0.45478 0.14879 0.0
C1963 C 0.00803 0.43761 0.14322 0.0
C1964 C 0.02889 0.4668 0.17369 0.0
C1965 C 0.01358 0.46193 0.19404 0.0
H1966 H 0.03857 0.45862 0.13426 0.0
H1967 H 0.0434 0.4793 0.17802 0.0
S1968 S 0.96289 0.41932 0.1885 0.0
N1969 N 0.97419 0.41699 0.15909 0.0
N1970 N 0.97935 0.43953 0.20608 0.0
C1971 C 0.9951 0.44534 0.18795 0.0
C1972 C 0.9923 0.4332 0.16247 0.0
C1973 C 0.55278 0.57229 0.14215 0.0
C1974 C 0.5686 0.56968 0.13399 0.0
C1975 C 0.54162 0.5632 0.16756 0.0
C1976 C 0.54565 0.55089 0.18523 0.0
H1977 H 0.54971 0.58227 0.12975 0.0
H1978 H 0.53035 0.56653 0.17425 0.0
S1979 S 0.58424 0.53783 0.17173 0.0
N1980 N 0.58685 0.55289 0.14427 0.0
N1981 N 0.56567 0.5356 0.19189 0.0
C1982 C 0.56065 0.54725 0.17631 0.0
C1983 C 0.57221 0.55672 0.15071 0.0
C1984 C 0.45032 0.01141 0.15301 0.0
C1985 C 0.43638 0.99554 0.1356 0.0
C1986 C 0.45879 0.00816 0.17841 0.0
C1987 C 0.45387 0.989 0.18673 0.0
H1988 H 0.45382 0.02628 0.14792 0.0
H1989 H 0.46851 0.0206 0.19245 0.0
S1990 S 0.41945 0.94276 0.14689 0.0
N1991 N 0.41895 0.96022 0.12716 0.0
N1992 N 0.43514 0.95413 0.17465 0.0
C1993 C 0.44087 0.97316 0.16843 0.0
C1994 C 0.43203 0.97643 0.1429 0.0
C1995 C 0.42478 0.98676 0.84757 0.0
C1996 C 0.43473 0.99727 0.8735 0.0
C1997 C 0.43509 0.98746 0.82182 0.0
C1998 C 0.45575 0.99871 0.82092 0.0
H1999 H 0.40884 0.97833 0.84693 0.0
H2000 H 0.42677 0.97972 0.80199 0.0
S2001 S 0.48888 0.02802 0.88319 0.0
N2002 N 0.46653 0.01853 0.89718 0.0
N2003 N 0.48591 0.01976 0.84845 0.0
C2004 C 0.46599 0.00848 0.84705 0.0
C2005 C 0.45547 0.00779 0.87343 0.0
C2006 C 0.01643 0.45133 0.86967 0.0
C2007 C 0.99962 0.43508 0.88156 0.0
C2008 C 0.01501 0.46116 0.84452 0.0
C2009 C 0.99671 0.45512 0.83065 0.0
H2010 H 0.03087 0.45575 0.87883 0.0
H2011 H 0.02842 0.47267 0.83474 0.0
S2012 S 0.94804 0.41571 0.85644 0.0
N2013 N 0.96396 0.41506 0.87998 0.0
N2014 N 0.96127 0.4336 0.83292 0.0
C2015 C 0.97969 0.43993 0.84383 0.0
C2016 C 0.98115 0.42987 0.8692 0.0
C2017 C 0.56243 0.57173 0.85428 0.0
C2018 C 0.57247 0.56659 0.87517 0.0
C2019 C 0.55377 0.56015 0.82865 0.0
C2020 C 0.55461 0.54291 0.82332 0.0
H2021 H 0.5622 0.58533 0.85694 0.0
H2022 H 0.54715 0.56517 0.8122 0.0
S2023 S 0.57736 0.52205 0.87297 0.0
N2024 N 0.5813 0.54235 0.89028 0.0
N2025 N 0.56513 0.52062 0.84208 0.0
C2026 C 0.56354 0.537 0.84501 0.0
C2027 C 0.57248 0.54886 0.87093 0.0
C2028 C 0.9887 0.55476 0.87277 0.0
C2029 C 0.00717 0.5697 0.88318 0.0
C2030 C 0.98704 0.54391 0.84689 0.0
C2031 C 1.00381 0.54737 0.83089 0.0
H2032 H 0.97536 0.55209 0.88388 0.0
H2033 H 0.9725 0.53329 0.8386 0.0
S2034 S 0.0556 0.58365 0.85017 0.0
N2035 N 0.04262 0.58654 0.87659 0.0
N2036 N 0.03946 0.56598 0.82797 0.0
C2037 C 0.0224 0.56153 0.84188 0.0
C2038 C 0.02409 0.57277 0.86801 0.0
C2039 C 0.43485 0.44374 0.85147 0.0
C2040 C 0.44013 0.4337 0.87206 0.0
C2041 C 0.44655 0.45289 0.82651 0.0
C2042 C 0.46403 0.45248 0.8214 0.0
H2043 H 0.42106 0.44362 0.85379 0.0
H2044 H 0.44143 0.45955 0.81032 0.0
S2045 S 0.48545 0.43009 0.87069 0.0
N2046 N 0.46493 0.42559 0.88742 0.0
N2047 N 0.48671 0.44241 0.84025 0.0
C2048 C 0.47008 0.44357 0.84287 0.0
C2049 C 0.45816 0.43424 0.86822 0.0
C2050 C 0.57075 0.99241 0.85425 0.0
C2051 C 0.56661 0.99888 0.88111 0.0
C2052 C 0.56268 0.99381 0.82714 0.0
C2053 C 0.55015 1.00178 0.8257 0.0
H2054 H 0.581 0.98697 0.85391 0.0
H2055 H 0.56674 0.98912 0.80693 0.0
S2056 S 0.53293 0.01889 0.8899 0.0
N2057 N 0.54774 0.01197 0.90497 0.0
N2058 N 0.53278 0.01489 0.85362 0.0
C2059 C 0.54504 0.00739 0.85247 0.0
C2060 C 0.5533 0.00597 0.88025 0.0
C2061 C 0.57419 0.01443 0.1646 0.0
C2062 C 0.56988 0.99946 0.1435 0.0
C2063 C 0.562 0.01099 0.18931 0.0
C2064 C 0.54493 0.99259 0.19344 0.0
H2065 H 0.58761 0.02851 0.16286 0.0
H2066 H 0.56643 0.02247 0.20609 0.0
S2067 S 0.52616 0.94934 0.14265 0.0
N2068 N 0.54662 0.96621 0.12684 0.0
N2069 N 0.5237 0.95972 0.17324 0.0
C2070 C 0.53983 0.97796 0.17144 0.0
C2071 C 0.55234 0.98139 0.14649 0.0
C2072 C 0.99288 0.55987 0.16376 0.0
C2073 C 0.0076 0.56949 0.14224 0.0
C2074 C 0.99622 0.55151 0.18909 0.0
C2075 C 0.01438 0.55239 0.1938 0.0
H2076 H 0.97886 0.5593 0.16142 0.0
H2077 H 0.98481 0.545 0.20576 0.0
S2078 S 0.0577 0.57574 0.14416 0.0
N2079 N 0.04095 0.57914 0.12717 0.0
N2080 N 0.04713 0.56333 0.17468 0.0
C2081 C 0.02893 0.56123 0.17188 0.0
C2082 C 0.02556 0.56981 0.14614 0.0
C2083 C 0.43704 0.45325 0.14021 0.0
C2084 C 0.43999 0.43756 0.13231 0.0
C2085 C 0.44578 0.46458 0.166 0.0
C2086 C 0.4581 0.46087 0.18439 0.0
H2087 H 0.42709 0.45613 0.12722 0.0
H2088 H 0.44224 0.47577 0.17233 0.0
S2089 S 0.4719 0.42268 0.17213 0.0
N2090 N 0.45705 0.41973 0.14384 0.0
N2091 N 0.47368 0.44123 0.19219 0.0
C2092 C 0.46203 0.44596 0.17589 0.0
C2093 C 0.4529 0.43423 0.14988 0.0
C2094 C 0.6977 0.77496 0.49379 0.0
C2095 C 0.68642 0.77551 0.46974 0.0
C2096 C 0.70074 0.78624 0.51958 0.0
C2097 C 0.69252 0.79848 0.5226 0.0
H2098 H 0.70376 0.76524 0.49312 0.0
H2099 H 0.70918 0.78495 0.53773 0.0
S2100 S 0.66338 0.80676 0.46522 0.0
N2101 N 0.66832 0.79062 0.44963 0.0
N2102 N 0.67368 0.81152 0.49877 0.0
C2103 C 0.68191 0.79988 0.49837 0.0
C2104 C 0.67883 0.78838 0.47188 0.0
C2105 C 0.22094 0.90373 0.4793 0.0
C2106 C 0.23596 0.90016 0.46995 0.0
C2107 C 0.20998 0.89482 0.50494 0.0
C2108 C 0.21342 0.88177 0.52179 0.0
H2109 H 0.21845 0.91438 0.46776 0.0
H2110 H 0.19947 0.89895 0.51258 0.0
S2111 S 0.2495 0.86585 0.5048 0.0
N2112 N 0.25254 0.88145 0.47798 0.0
N2113 N 0.23182 0.8646 0.52615 0.0
C2114 C 0.22746 0.87707 0.51155 0.0
C2115 C 0.23879 0.88632 0.48565 0.0
C2116 C 0.10469 0.3146 0.47165 0.0
C2117 C 0.1042 0.33213 0.4678 0.0
C2118 C 0.11322 0.31165 0.49727 0.0
C2119 C 0.12161 0.32618 0.51976 0.0
H2120 H 0.09747 0.30268 0.45557 0.0
H2121 H 0.11213 0.29747 0.50033 0.0
S2122 S 0.12704 0.37585 0.51783 0.0
N2123 N 0.11494 0.36505 0.48674 0.0
N2124 N 0.13108 0.35957 0.53477 0.0
C2125 C 0.1225 0.34429 0.51504 0.0
C2126 C 0.11374 0.34724 0.48912 0.0
C2127 C 0.1083 0.32545 0.1934 0.0
C2128 C 0.10941 0.34207 0.20743 0.0
C2129 C 0.11962 0.32738 0.16811 0.0
C2130 C 0.13245 0.34599 0.15617 0.0
H2131 H 0.09784 0.31081 0.20102 0.0
H2132 H 0.11736 0.31419 0.15674 0.0
S2133 S 0.14318 0.39415 0.18757 0.0
N2134 N 0.12622 0.37779 0.20978 0.0
N2135 N 0.14734 0.38137 0.16218 0.0
C2136 C 0.13474 0.36274 0.17129 0.0
C2137 C 0.12324 0.36079 0.19692 0.0
C2138 C 0.65562 0.77322 0.20049 0.0
C2139 C 0.67419 0.77629 0.20926 0.0
C2140 C 0.65343 0.78208 0.17481 0.0
C2141 C 0.66978 0.79459 0.15741 0.0
H2142 H 0.64255 0.763 0.21255 0.0
H2143 H 0.63875 0.77835 0.16765 0.0
S2144 S 0.72174 0.80901 0.17259 0.0
N2145 N 0.70936 0.79388 0.19995 0.0
N2146 N 0.70523 0.81068 0.15174 0.0
C2147 C 0.68855 0.79877 0.16699 0.0
C2148 C 0.69076 0.78955 0.1929 0.0
C2149 C 0.23422 0.90818 0.1913 0.0
C2150 C 0.2434 0.90281 0.21336 0.0
C2151 C 0.22517 0.89609 0.16629 0.0
C2152 C 0.22484 0.87811 0.16253 0.0
H2153 H 0.23485 0.92226 0.19264 0.0
H2154 H 0.21909 0.90121 0.14912 0.0
S2155 S 0.24491 0.85638 0.21567 0.0
N2156 N 0.24995 0.87749 0.23135 0.0
N2157 N 0.23337 0.85497 0.18403 0.0
C2158 C 0.23297 0.87206 0.1853 0.0
C2159 C 0.24219 0.88438 0.21074 0.0
C2160 C 0.6681 0.88722 0.20619 0.0
C2161 C 0.6788 0.90794 0.20719 0.0
C2162 C 0.66681 0.8769 0.17973 0.0
C2163 C 0.67632 0.88704 0.15371 0.0
H2164 H 0.6598 0.87902 0.22542 0.0
H2165 H 0.65746 0.86105 0.17913 0.0
S2166 S 0.70848 0.94094 0.14608 0.0
N2167 N 0.70079 0.93798 0.18092 0.0
N2168 N 0.69836 0.91861 0.13135 0.0
C2169 C 0.68813 0.90761 0.15511 0.0
C2170 C 0.68937 0.91806 0.18183 0.0
C2171 C 0.10479 0.78184 0.19768 0.0
C2172 C 0.10834 0.76991 0.21702 0.0
C2173 C 0.11696 0.7908 0.1731 0.0
C2174 C 0.13321 0.78834 0.16728 0.0
H2175 H 0.09186 0.78326 0.2005 0.0
H2176 H 0.113 0.7988 0.15756 0.0
S2177 S 0.1502 0.76068 0.21363 0.0
N2178 N 0.13035 0.75782 0.23069 0.0
N2179 N 0.15314 0.77455 0.18435 0.0
C2180 C 0.13773 0.77767 0.18774 0.0
C2181 C 0.12527 0.76844 0.21263 0.0
C2182 C 0.24421 0.35774 0.1957 0.0
C2183 C 0.23805 0.33921 0.20832 0.0
C2184 C 0.23518 0.35963 0.16989 0.0
C2185 C 0.21964 0.34306 0.15567 0.0
H2186 H 0.25646 0.37085 0.20544 0.0
H2187 H 0.24093 0.37408 0.16024 0.0
S2188 S 0.19754 0.29133 0.18027 0.0
N2189 N 0.21497 0.30404 0.20529 0.0
N2190 N 0.19803 0.30761 0.15661 0.0
C2191 C 0.21272 0.32455 0.16879 0.0
C2192 C 0.22193 0.32262 0.19515 0.0
C2193 C 0.24157 0.34909 0.49465 0.0
C2194 C 0.23747 0.33394 0.47401 0.0
C2195 C 0.22935 0.34573 0.51933 0.0
C2196 C 0.21247 0.32724 0.52381 0.0
H2197 H 0.25484 0.36326 0.49258 0.0
H2198 H 0.2336 0.35738 0.53574 0.0
S2199 S 0.1944 0.28342 0.47438 0.0
N2200 N 0.2147 0.30034 0.45827 0.0
N2201 N 0.19171 0.29403 0.50451 0.0
C2202 C 0.20762 0.31238 0.50229 0.0
C2203 C 0.22015 0.31573 0.47742 0.0
C2204 C 0.65994 0.89199 0.49316 0.0
C2205 C 0.67342 0.89876 0.46962 0.0
C2206 C 0.66336 0.88393 0.51874 0.0
C2207 C 0.68061 0.88276 0.52195 0.0
H2208 H 0.64714 0.8938 0.49237 0.0
H2209 H 0.65308 0.87979 0.53701 0.0
S2210 S 0.71974 0.89729 0.46528 0.0
N2211 N 0.70373 0.90239 0.44971 0.0
N2212 N 0.71065 0.88791 0.49823 0.0
C2213 C 0.69355 0.88832 0.4976 0.0
C2214 C 0.68987 0.89624 0.47136 0.0
C2215 C 0.10543 0.75787 0.50229 0.0
C2216 C 0.10928 0.76781 0.47497 0.0
C2217 C 0.11418 0.76795 0.52887 0.0
C2218 C 0.12703 0.78845 0.5294 0.0
H2219 H 0.09483 0.74229 0.50348 0.0
H2220 H 0.11027 0.75968 0.54943 0.0
S2221 S 0.14416 0.82103 0.46359 0.0
N2222 N 0.12872 0.79903 0.44959 0.0
N2223 N 0.14464 0.8181 0.50001 0.0
C2224 C 0.13199 0.79844 0.50212 0.0
C2225 C 0.12317 0.78812 0.47484 0.0
C2226 C 0.36581 0.10908 0.8248 0.0
C2227 C 0.35323 0.10853 0.80192 0.0
C2228 C 0.36871 0.12005 0.85089 0.0
C2229 C 0.35914 0.13094 0.85531 0.0
H2230 H 0.37311 0.10051 0.82292 0.0
H2231 H 0.37827 0.11969 0.86811 0.0
S2232 S 0.32582 0.13568 0.80153 0.0
N2233 N 0.332 0.12083 0.78459 0.0
N2234 N 0.33734 0.14134 0.83418 0.0
C2235 C 0.34704 0.13112 0.83232 0.0
C2236 C 0.34402 0.11986 0.80558 0.0
C2237 C 0.90595 0.22052 0.82156 0.0
C2238 C 0.90223 0.23327 0.8044 0.0
C2239 C 0.89464 0.21118 0.84679 0.0
C2240 C 0.87943 0.21451 0.8558 0.0
H2241 H 0.9181 0.21828 0.816 0.0
H2242 H 0.8986 0.2023 0.86037 0.0
S2243 S 0.86325 0.24584 0.81795 0.0
N2244 N 0.88165 0.24798 0.79748 0.0
N2245 N 0.86064 0.23063 0.84515 0.0
C2246 C 0.87503 0.22653 0.83816 0.0
C2247 C 0.88637 0.23586 0.81236 0.0
C2248 C 0.78319 0.68497 0.82856 0.0
C2249 C 0.77469 0.67086 0.80553 0.0
C2250 C 0.79126 0.68136 0.85408 0.0
C2251 C 0.79107 0.66346 0.85756 0.0
H2252 H 0.78301 0.69865 0.82727 0.0
H2253 H 0.79689 0.69227 0.87186 0.0
S2254 S 0.77089 0.62185 0.80338 0.0
N2255 N 0.76708 0.63855 0.7874 0.0
N2256 N 0.7821 0.63169 0.83542 0.0
C2257 C 0.78342 0.6496 0.83407 0.0
C2258 C 0.77525 0.6533 0.80806 0.0
C2259 C 0.77334 0.66131 0.53213 0.0
C2260 C 0.77549 0.67841 0.54609 0.0
C2261 C 0.78454 0.66246 0.5071 0.0
C2262 C 0.79824 0.68074 0.49513 0.0
H2263 H 0.76223 0.6469 0.53962 0.0
H2264 H 0.78157 0.64897 0.49593 0.0
S2265 S 0.81155 0.72984 0.5255 0.0
N2266 N 0.79421 0.71422 0.548 0.0
N2267 N 0.81465 0.71623 0.50027 0.0
C2268 C 0.80134 0.69791 0.50973 0.0
C2269 C 0.79012 0.69679 0.53537 0.0
C2270 C 0.35466 0.12149 0.52658 0.0
C2271 C 0.33818 0.10774 0.54272 0.0
C2272 C 0.35249 0.13096 0.50159 0.0
C2273 C 0.33375 0.12681 0.49179 0.0
H2274 H 0.36926 0.12441 0.53271 0.0
H2275 H 0.36541 0.14057 0.48872 0.0
S2276 S 0.28609 0.09294 0.52715 0.0
N2277 N 0.30262 0.09131 0.54799 0.0
N2278 N 0.29861 0.10903 0.50092 0.0
C2279 C 0.31729 0.11389 0.50859 0.0
C2280 C 0.31948 0.10437 0.5341 0.0
C2281 C 0.92637 0.23948 0.51749 0.0
C2282 C 0.91491 0.2383 0.54223 0.0
C2283 C 0.91779 0.2282 0.49177 0.0
C2284 C 0.89732 0.21531 0.48948 0.0
H2285 H 0.94214 0.24941 0.51783 0.0
H2286 H 0.92734 0.2296 0.47343 0.0
S2287 S 0.86078 0.20606 0.5484 0.0
N2288 N 0.88205 0.22256 0.56341 0.0
N2289 N 0.86582 0.2016 0.51446 0.0
C2290 C 0.88565 0.21369 0.51417 0.0
C2291 C 0.89445 0.22521 0.54058 0.0
C2292 C 0.31703 0.22524 0.52583 0.0
C2293 C 0.33486 0.23534 0.54182 0.0
C2294 C 0.3156 0.21489 0.49951 0.0
C2295 C 0.33202 0.2144 0.488 0.0
H2296 H 0.30418 0.2257 0.5334 0.0
H2297 H 0.30171 0.2078 0.48744 0.0
S2298 S 0.38198 0.23814 0.52204 0.0
N2299 N 0.36908 0.24367 0.54508 0.0
N2300 N 0.36657 0.22458 0.49516 0.0
C2301 C 0.34976 0.22382 0.50444 0.0
C2302 C 0.35114 0.23423 0.53143 0.0
C2303 C 0.77072 0.1171 0.52198 0.0
C2304 C 0.77662 0.10979 0.54602 0.0
C2305 C 0.78288 0.12536 0.49718 0.0
C2306 C 0.80126 0.12633 0.49532 0.0
H2307 H 0.75623 0.1156 0.52176 0.0
H2308 H 0.77732 0.12986 0.47846 0.0
S2309 S 0.82392 0.11033 0.5535 0.0
N2310 N 0.80251 0.1053 0.5676 0.0
N2311 N 0.82521 0.12035 0.52067 0.0
C2312 C 0.80784 0.12023 0.52013 0.0
C2313 C 0.79552 0.11201 0.54554 0.0
C2314 C 0.89291 0.65591 0.53204 0.0
C2315 C 0.90506 0.67221 0.55035 0.0
C2316 C 0.88306 0.65785 0.50721 0.0
C2317 C 0.88528 0.6762 0.49974 0.0
H2318 H 0.89153 0.64172 0.5364 0.0
H2319 H 0.87467 0.64522 0.49271 0.0
S2320 S 0.91481 0.72317 0.54099 0.0
N2321 N 0.91805 0.70706 0.56005 0.0
N2322 N 0.89985 0.71074 0.51299 0.0
C2323 C 0.89675 0.69241 0.51849 0.0
C2324 C 0.90656 0.6904 0.54394 0.0
C2325 C 0.90801 0.67957 0.82677 0.0
C2326 C 0.90333 0.66428 0.8061 0.0
C2327 C 0.89608 0.67667 0.8516 0.0
C2328 C 0.87893 0.65847 0.85646 0.0
H2329 H 0.92151 0.69354 0.82459 0.0
H2330 H 0.90077 0.68847 0.86788 0.0
S2331 S 0.85905 0.61448 0.80706 0.0
N2332 N 0.87945 0.63091 0.79056 0.0
N2333 N 0.85716 0.62541 0.83744 0.0
C2334 C 0.87345 0.64347 0.83498 0.0
C2335 C 0.88565 0.64638 0.80979 0.0
C2336 C 0.32828 0.22465 0.82411 0.0
C2337 C 0.34394 0.23683 0.80535 0.0
C2338 C 0.33128 0.21543 0.84868 0.0
C2339 C 0.34997 0.21787 0.85499 0.0
H2340 H 0.31391 0.22317 0.82081 0.0
H2341 H 0.31919 0.20722 0.8638 0.0
S2342 S 0.39514 0.24639 0.81035 0.0
N2343 N 0.37824 0.24934 0.79288 0.0
N2344 N 0.38393 0.23208 0.83906 0.0
C2345 C 0.36537 0.22888 0.83511 0.0
C2346 C 0.36235 0.23839 0.81031 0.0
C2347 C 0.78663 0.10705 0.816 0.0
C2348 C 0.77001 0.10691 0.80383 0.0
C2349 C 0.79583 0.1179 0.84208 0.0
C2350 C 0.78875 0.12903 0.8566 0.0
H2351 H 0.7919 0.09792 0.80622 0.0
H2352 H 0.80775 0.11659 0.8519 0.0
S2353 S 0.74783 0.13613 0.83057 0.0
N2354 N 0.74836 0.12062 0.80606 0.0
N2355 N 0.76576 0.14121 0.8547 0.0
C2356 C 0.77309 0.13016 0.84325 0.0
C2357 C 0.76367 0.11902 0.81698 0.0
C2358 C 0.09821 0.35043 0.02187 0.0
C2359 C 0.09824 0.3681 0.02741 0.0
C2360 C 0.11298 0.34729 0.03395 0.0
C2361 C 0.12825 0.36177 0.05177 0.0
H2362 H 0.08587 0.33838 0.0103 0.0
H2363 H 0.11141 0.33283 0.03169 0.0
S2364 S 0.13695 0.41186 0.06779 0.0
N2365 N 0.11632 0.40123 0.048 0.0
N2366 N 0.14402 0.39535 0.07057 0.0
C2367 C 0.12949 0.38018 0.0547 0.0
C2368 C 0.11447 0.38333 0.04261 0.0
C2369 C 0.62937 0.73571 0.04686 0.0
C2370 C 0.64361 0.73467 0.02921 0.0
C2371 C 0.63284 0.75361 0.05924 0.0
C2372 C 0.65072 0.77116 0.05456 0.0
H2373 H 0.61588 0.72239 0.05246 0.0
H2374 H 0.62207 0.7535 0.07439 0.0
S2375 S 0.69202 0.77668 0.00789 0.0
N2376 N 0.67557 0.75299 0.00567 0.0
N2377 N 0.68215 0.78664 0.02917 0.0
C2378 C 0.66441 0.77059 0.03508 0.0
C2379 C 0.66086 0.75233 0.02238 0.0
C2380 C 0.27333 0.89424 0.03664 0.0
C2381 C 0.27384 0.91166 0.02779 0.0
C2382 C 0.25669 0.87909 0.05062 0.0
C2383 C 0.24004 0.88089 0.05615 0.0
H2384 H 0.28641 0.89296 0.03504 0.0
H2385 H 0.25754 0.86675 0.05956 0.0
S2386 S 0.23247 0.92165 0.03209 0.0
N2387 N 0.25501 0.9283 0.0212 0.0
N2388 N 0.22401 0.90005 0.0482 0.0
C2389 C 0.23967 0.89732 0.04485 0.0
C2390 C 0.2565 0.91265 0.03048 0.0
C2391 C 0.38258 0.11171 0.98521 0.0
C2392 C 0.36557 0.09327 0.98934 0.0
C2393 C 0.38139 0.12733 0.97221 0.0
C2394 C 0.36316 0.12498 0.96305 0.0
H2395 H 0.397 0.11355 0.98961 0.0
H2396 H 0.39493 0.14059 0.96659 0.0
S2397 S 0.31415 0.08108 0.97469 0.0
N2398 N 0.32982 0.07468 0.98781 0.0
N2399 N 0.32766 0.10395 0.96308 0.0
C2400 C 0.34599 0.10738 0.97008 0.0
C2401 C 0.34717 0.09152 0.98325 0.0
C2402 C 0.8971 0.27157 0.96822 0.0
C2403 C 0.91251 0.27259 0.98577 0.0
C2404 C 0.88273 0.25375 0.95536 0.0
C2405 C 0.88323 0.23626 0.9595 0.0
H2406 H 0.89679 0.28487 0.96301 0.0
H2407 H 0.87201 0.25392 0.94024 0.0
S2408 S 0.91933 0.23064 0.0058 0.0
N2409 N 0.92641 0.25425 0.00869 0.0
N2410 N 0.89942 0.22075 0.98436 0.0
C2411 C 0.89759 0.23676 0.97894 0.0
C2412 C 0.91225 0.25494 0.99209 0.0
C2413 C 0.73546 0.62749 0.97596 0.0
C2414 C 0.73512 0.64403 0.98761 0.0
C2415 C 0.75251 0.62927 0.96298 0.0
C2416 C 0.76983 0.64764 0.96111 0.0
H2417 H 0.7221 0.61329 0.9749 0.0
H2418 H 0.75167 0.61648 0.9522 0.0
S2419 S 0.77789 0.69479 0.99271 0.0
N2420 N 0.75468 0.67886 0.00033 0.0
N2421 N 0.78641 0.68221 0.97478 0.0
C2422 C 0.77019 0.66396 0.97464 0.0
C2423 C 0.75293 0.66216 0.98817 0.0
C2424 C 0.91845 0.66158 0.98205 0.0
C2425 C 0.91424 0.64291 0.99202 0.0
C2426 C 0.90399 0.66428 0.96799 0.0
C2427 C 0.88479 0.64841 0.9631 0.0
H2428 H 0.93336 0.67391 0.98297 0.0
H2429 H 0.9083 0.67857 0.95872 0.0
S2430 S 0.86521 0.59752 0.9905 0.0
N2431 N 0.8886 0.60913 0.00085 0.0
N2432 N 0.86166 0.614 0.97316 0.0
C2433 C 0.87988 0.63016 0.97566 0.0
C2434 C 0.89457 0.62745 0.99029 0.0
C2435 C 0.37877 0.26893 0.98102 0.0
C2436 C 0.36153 0.26964 0.98705 0.0
C2437 C 0.37781 0.25214 0.96808 0.0
C2438 C 0.35961 0.2355 0.96075 0.0
H2439 H 0.39309 0.28195 0.9841 0.0
H2440 H 0.39139 0.25285 0.96135 0.0
S2441 S 0.31031 0.22841 0.97746 0.0
N2442 N 0.32579 0.25104 0.98912 0.0
N2443 N 0.32407 0.2197 0.96423 0.0
C2444 C 0.34234 0.23534 0.96928 0.0
C2445 C 0.34329 0.25236 0.98254 0.0
C2446 C 0.75154 0.09585 0.99261 0.0
C2447 C 0.73412 0.09646 0.98784 0.0
C2448 C 0.76941 0.10998 0.97985 0.0
C2449 C 0.77036 0.12517 0.96212 0.0
H2450 H 0.75102 0.08352 0.00414 0.0
H2451 H 0.78205 0.10797 0.98159 0.0
S2452 S 0.72972 0.13523 0.94775 0.0
N2453 N 0.71958 0.115 0.96789 0.0
N2454 N 0.75307 0.1415 0.94405 0.0
C2455 C 0.75349 0.127 0.95986 0.0
C2456 C 0.73538 0.11263 0.97264 0.0
C2457 C 0.62993 0.89863 0.04598 0.0
C2458 C 0.64325 0.91261 0.02585 0.0
C2459 C 0.63378 0.88473 0.05914 0.0
C2460 C 0.65104 0.88422 0.05262 0.0
H2461 H 0.61724 0.8994 0.05348 0.0
H2462 H 0.62398 0.87536 0.07637 0.0
S2463 S 0.68876 0.91515 0.99735 0.0
N2464 N 0.67284 0.92307 0.99663 0.0
N2465 N 0.68026 0.89721 0.02195 0.0
C2466 C 0.66346 0.8968 0.03041 0.0
C2467 C 0.65956 0.91098 0.01697 0.0
C2468 C 0.11359 0.73922 0.03594 0.0
C2469 C 0.09404 0.73538 0.03404 0.0
C2470 C 0.12853 0.75657 0.04927 0.0
C2471 C 0.12451 0.7708 0.06102 0.0
H2472 H 0.11715 0.7282 0.02869 0.0
H2473 H 0.14287 0.75801 0.05265 0.0
S2474 S 0.07681 0.76973 0.057 0.0
N2475 N 0.07216 0.74856 0.04203 0.0
N2476 N 0.10046 0.78144 0.06573 0.0
C2477 C 0.10561 0.76817 0.0563 0.0
C2478 C 0.09031 0.7504 0.04316 0.0
C2479 C 0.27405 0.38032 0.04117 0.0
C2480 C 0.27497 0.36544 0.02484 0.0
C2481 C 0.2564 0.37701 0.05401 0.0
C2482 C 0.239 0.35871 0.05099 0.0
H2483 H 0.28733 0.39424 0.04554 0.0
H2484 H 0.25671 0.38833 0.06832 0.0
S2485 S 0.23306 0.31559 0.00804 0.0
N2486 N 0.25653 0.33229 0.00425 0.0
N2487 N 0.22337 0.32612 0.02845 0.0
C2488 C 0.23933 0.34429 0.03268 0.0
C2489 C 0.25732 0.34764 0.0196 0.0
C2490 C 0.7789 0.70583 0.35922 0.0
C2491 C 0.75872 0.6914 0.35968 0.0
C2492 C 0.79312 0.70296 0.37398 0.0
C2493 C 0.78768 0.68543 0.38926 0.0
H2494 H 0.78365 0.71979 0.34845 0.0
H2495 H 0.80824 0.71489 0.37486 0.0
S2496 S 0.73735 0.64279 0.3967 0.0
N2497 N 0.73441 0.65871 0.37669 0.0
N2498 N 0.76124 0.65322 0.40311 0.0
C2499 C 0.76787 0.67051 0.3885 0.0
C2500 C 0.75336 0.67348 0.37399 0.0
C2501 C 0.29428 0.06952 0.38045 0.0
C2502 C 0.30905 0.06807 0.36491 0.0
C2503 C 0.29763 0.08759 0.39192 0.0
C2504 C 0.31588 0.10491 0.38831 0.0
H2505 H 0.28046 0.05637 0.38535 0.0
H2506 H 0.28645 0.08776 0.40581 0.0
S2507 S 0.3586 0.10945 0.34667 0.0
N2508 N 0.34194 0.08584 0.34413 0.0
N2509 N 0.34821 0.11981 0.36581 0.0
C2510 C 0.33011 0.10398 0.37059 0.0
C2511 C 0.32672 0.08554 0.35889 0.0
C2512 C 0.93771 0.22592 0.35989 0.0
C2513 C 0.94014 0.24446 0.35291 0.0
C2514 C 0.92063 0.21154 0.37395 0.0
C2515 C 0.9055 0.2153 0.38183 0.0
H2516 H 0.9497 0.22306 0.3564 0.0
H2517 H 0.92019 0.19822 0.38139 0.0
S2518 S 0.90342 0.2603 0.3646 0.0
N2519 N 0.92495 0.26484 0.35166 0.0
N2520 N 0.89293 0.23784 0.37832 0.0
C2521 C 0.90693 0.23299 0.37233 0.0
C2522 C 0.92425 0.24759 0.35783 0.0
C2523 C 0.0465 0.44301 0.31586 0.0
C2524 C 0.02973 0.42536 0.32451 0.0
C2525 C 0.04482 0.45848 0.30345 0.0
C2526 C 0.02631 0.45684 0.29917 0.0
H2527 H 0.06092 0.44434 0.31649 0.0
H2528 H 0.0579 0.47103 0.29469 0.0
S2529 S 0.97831 0.41558 0.32326 0.0
N2530 N 0.99434 0.40867 0.33238 0.0
N2531 N 0.99122 0.43748 0.30797 0.0
C2532 C 0.00966 0.44011 0.31013 0.0
C2533 C 0.01135 0.42444 0.32304 0.0
C2534 C 0.5624 0.60805 0.29741 0.0
C2535 C 0.57852 0.60953 0.31361 0.0
C2536 C 0.54797 0.59006 0.28505 0.0
C2537 C 0.54905 0.57283 0.28848 0.0
H2538 H 0.56156 0.62114 0.29278 0.0
H2539 H 0.5367 0.58991 0.2708 0.0
S2540 S 0.5871 0.56832 0.33121 0.0
N2541 N 0.59375 0.59181 0.33442 0.0
N2542 N 0.56655 0.55801 0.31123 0.0
C2543 C 0.56412 0.57375 0.30666 0.0
C2544 C 0.57889 0.59211 0.31921 0.0
C2545 C 0.40847 0.96466 0.32204 0.0
C2546 C 0.40478 0.98049 0.32301 0.0
C2547 C 0.42504 0.96629 0.3075 0.0
C2548 C 0.43868 0.98386 0.29354 0.0
H2549 H 0.39794 0.95055 0.33126 0.0
H2550 H 0.42634 0.95325 0.30522 0.0
S2551 S 0.43779 0.03061 0.29349 0.0
N2552 N 0.41748 0.01498 0.31097 0.0
N2553 N 0.44899 0.01819 0.28524 0.0
C2554 C 0.43624 1.00033 0.29691 0.0
C2555 C 0.41923 0.99863 0.31121 0.0
C2556 C 0.58107 0.9903 0.323 0.0
C2557 C 0.58056 0.9721 0.32236 0.0
C2558 C 0.5659 0.99241 0.31012 0.0
C2559 C 0.54948 0.97633 0.29665 0.0
H2560 H 0.59377 1.00326 0.33217 0.0
H2561 H 0.56761 0.00696 0.309 0.0
S2562 S 0.54022 0.92535 0.29039 0.0
N2563 N 0.56163 0.93751 0.30795 0.0
N2564 N 0.53296 0.94149 0.28474 0.0
C2565 C 0.54806 0.95781 0.29771 0.0
C2566 C 0.56362 0.95567 0.31036 0.0
C2567 C 0.01465 0.58982 0.32345 0.0
C2568 C 0.03274 0.60769 0.324 0.0
C2569 C 0.01296 0.57272 0.31051 0.0
C2570 C 0.02938 0.57271 0.29816 0.0
H2571 H 1.00144 0.58931 0.33161 0.0
H2572 H 0.9985 0.55977 0.30836 0.0
S2573 S 0.0803 0.61492 0.29564 0.0
N2574 N 0.06764 0.62381 0.31222 0.0
N2575 N 0.06443 0.59148 0.28886 0.0
C2576 C 0.04779 0.58995 0.30058 0.0
C2577 C 0.0495 0.60747 0.31332 0.0
C2578 C 0.40095 0.44626 0.29541 0.0
C2579 C 0.39998 0.43122 0.31355 0.0
C2580 C 0.41868 0.46017 0.2823 0.0
C2581 C 0.43615 0.45965 0.28691 0.0
H2582 H 0.38768 0.44664 0.29002 0.0
H2583 H 0.41845 0.47059 0.2668 0.0
S2584 S 0.44196 0.42439 0.33442 0.0
N2585 N 0.41842 0.41756 0.33711 0.0
N2586 N 0.45173 0.44381 0.31254 0.0
C2587 C 0.43573 0.44567 0.30678 0.0
C2588 C 0.41764 0.43142 0.32009 0.0
C2589 C 0.29968 0.23404 0.36884 0.0
C2590 C 0.31519 0.24984 0.35377 0.0
C2591 C 0.30237 0.21953 0.38253 0.0
C2592 C 0.32059 0.22018 0.38147 0.0
H2593 H 0.28586 0.23369 0.37217 0.0
H2594 H 0.29058 0.20858 0.396 0.0
S2595 S 0.36475 0.25647 0.34053 0.0
N2596 N 0.34852 0.26369 0.33507 0.0
N2597 N 0.35361 0.23652 0.36121 0.0
C2598 C 0.33559 0.2348 0.36414 0.0
C2599 C 0.3329 0.24964 0.35027 0.0
C2600 C 0.76377 0.08191 0.36859 0.0
C2601 C 0.76446 0.06433 0.36923 0.0
C2602 C 0.77897 0.09943 0.38108 0.0
C2603 C 0.7956 0.10011 0.39424 0.0
H2604 H 0.75095 0.08193 0.35959 0.0
H2605 H 0.7772 0.11224 0.38204 0.0
S2606 S 0.80528 0.05872 0.4005 0.0
N2607 N 0.78372 0.04909 0.38333 0.0
N2608 N 0.81242 0.08217 0.406 0.0
C2609 C 0.79713 0.08307 0.39333 0.0
C2610 C 0.78155 0.06514 0.38098 0.0
C2611 C 0.92409 0.6854 0.36361 0.0
C2612 C 0.9421 0.70247 0.37042 0.0
C2613 C 0.90645 0.68211 0.37672 0.0
C2614 C 0.9063 0.69584 0.39689 0.0
H2615 H 0.92387 0.67385 0.34998 0.0
H2616 H 0.89324 0.66801 0.3731 0.0
S2617 S 0.94888 0.74448 0.41731 0.0
N2618 N 0.9582 0.73445 0.39505 0.0
N2619 N 0.92513 0.72832 0.4195 0.0
C2620 C 0.92387 0.71379 0.40138 0.0
C2621 C 0.94177 0.71707 0.38824 0.0
C2622 C 0.42294 0.00554 0.6942 0.0
C2623 C 0.429 0.02516 0.68674 0.0
C2624 C 0.43575 1.00062 0.70859 0.0
C2625 C 0.45513 0.01508 0.71601 0.0
H2626 H 0.40778 0.99406 0.69091 0.0
H2627 H 0.43002 0.98563 0.716 0.0
S2628 S 0.47932 0.06795 0.69754 0.0
N2629 N 0.45664 0.05869 0.68445 0.0
N2630 N 0.48046 0.04935 0.71247 0.0
C2631 C 0.46188 0.03443 0.70682 0.0
C2632 C 0.44888 0.03949 0.69195 0.0
C2633 C 0.99417 0.41737 0.69692 0.0
C2634 C 0.9758 0.40014 0.70035 0.0
C2635 C 0.99775 0.43543 0.70912 0.0
C2636 C 0.98305 0.43679 0.72496 0.0
H2637 H 0.00631 0.41659 0.68698 0.0
H2638 H 0.01259 0.44789 0.70858 0.0
S2639 S 0.93148 0.39691 0.7349 0.0
N2640 N 0.94197 0.38631 0.71661 0.0
N2641 N 0.94876 0.42014 0.73964 0.0
C2642 C 0.96411 0.42015 0.72575 0.0
C2643 C 0.96048 0.40183 0.71347 0.0
C2644 C 0.60787 0.56072 0.70231 0.0
C2645 C 0.61011 0.57905 0.69442 0.0
C2646 C 0.59015 0.54581 0.71419 0.0
C2647 C 0.57416 0.54884 0.71895 0.0
H2648 H 0.62027 0.55831 0.70087 0.0
H2649 H 0.58956 0.53252 0.7221 0.0
S2650 S 0.57185 0.5934 0.69939 0.0
N2651 N 0.59426 0.5987 0.68976 0.0
N2652 N 0.56108 0.57078 0.71252 0.0
C2653 C 0.57574 0.56653 0.70914 0.0
C2654 C 0.59369 0.58162 0.69676 0.0
C2655 C 0.71017 0.78046 0.66135 0.0
C2656 C 0.69458 0.76078 0.6609 0.0
C2657 C 0.70859 0.79536 0.64664 0.0
C2658 C 0.69128 0.79116 0.63115 0.0
H2659 H 0.72418 0.78416 0.67147 0.0
H2660 H 0.72159 0.80978 0.64506 0.0
S2661 S 0.64491 0.74314 0.62783 0.0
N2662 N 0.66035 0.73864 0.6466 0.0
N2663 N 0.65723 0.76687 0.62043 0.0
C2664 C 0.67485 0.77217 0.63363 0.0
C2665 C 0.67653 0.7569 0.64807 0.0
C2666 C 0.25038 0.92407 0.65358 0.0
C2667 C 0.2502 0.94174 0.6495 0.0
C2668 C 0.23543 0.90619 0.64152 0.0
C2669 C 0.21989 0.90542 0.62468 0.0
H2670 H 0.26271 0.92425 0.66485 0.0
H2671 H 0.23692 0.89325 0.64328 0.0
S2672 S 0.21157 0.94705 0.60982 0.0
N2673 N 0.23224 0.95696 0.62948 0.0
N2674 N 0.20429 0.92341 0.60669 0.0
C2675 C 0.2188 0.92268 0.62226 0.0
C2676 C 0.23392 0.94083 0.6347 0.0
C2677 C 0.07517 0.29695 0.65518 0.0
C2678 C 0.0715 0.31276 0.65737 0.0
C2679 C 0.09166 0.29885 0.64001 0.0
C2680 C 0.10522 0.3167 0.62666 0.0
H2681 H 0.06467 0.28266 0.66391 0.0
H2682 H 0.09293 0.28586 0.63676 0.0
S2683 S 0.10439 0.36345 0.62975 0.0
N2684 N 0.08416 0.34749 0.64705 0.0
N2685 N 0.11556 0.35119 0.62026 0.0
C2686 C 0.10285 0.33311 0.63129 0.0
C2687 C 0.0859 0.33113 0.64618 0.0
C2688 C 0.22739 0.29053 0.64728 0.0
C2689 C 0.24576 0.30644 0.65608 0.0
C2690 C 0.21297 0.29364 0.63394 0.0
C2691 C 0.21656 0.31278 0.62856 0.0
H2692 H 0.22457 0.27559 0.64921 0.0
H2693 H 0.19963 0.28102 0.62549 0.0
S2694 S 0.26145 0.35933 0.65004 0.0
N2695 N 0.26605 0.34196 0.66088 0.0
N2696 N 0.23904 0.34778 0.63541 0.0
C2697 C 0.23429 0.32875 0.63921 0.0
C2698 C 0.24888 0.32559 0.65307 0.0
C2699 C 0.68326 0.92661 0.64632 0.0
C2700 C 0.70154 0.94421 0.64806 0.0
C2701 C 0.68168 0.90932 0.63436 0.0
C2702 C 0.69834 0.90888 0.62397 0.0
H2703 H 0.66992 0.92644 0.65292 0.0
H2704 H 0.66718 0.89652 0.63146 0.0
S2705 S 0.7497 0.95042 0.62513 0.0
N2706 N 0.73679 0.95971 0.63968 0.0
N2707 N 0.73374 0.92709 0.61769 0.0
C2708 C 0.71683 0.92592 0.62745 0.0
C2709 C 0.71846 0.94361 0.6394 0.0
C2710 C 0.07313 0.7777 0.64232 0.0
C2711 C 0.07269 0.76269 0.65992 0.0
C2712 C 0.09059 0.79181 0.62875 0.0
C2713 C 0.10828 0.79158 0.63255 0.0
H2714 H 0.05961 0.77762 0.63703 0.0
H2715 H 0.08991 0.802 0.61325 0.0
S2716 S 0.11566 0.75749 0.68047 0.0
N2717 N 0.09201 0.75011 0.68365 0.0
N2718 N 0.12477 0.77657 0.65793 0.0
C2719 C 0.10843 0.77785 0.65234 0.0
C2720 C 0.09063 0.76339 0.66601 0.0
C2721 C 1.00046 0.58365 0.70352 0.0
C2722 C 0.98104 0.58004 0.70046 0.0
C2723 C 1.00437 0.56963 0.71612 0.0
C2724 C 0.98903 0.55149 0.72611 0.0
H2725 H 0.01284 0.59793 0.69818 0.0
H2726 H 0.01954 0.57364 0.7203 0.0
S2727 S 0.93566 0.53337 0.71892 0.0
N2728 N 0.94624 0.55569 0.70467 0.0
N2729 N 0.95378 0.52976 0.72949 0.0
C2730 C 0.96958 0.54707 0.7212 0.0
C2731 C 0.96554 0.56123 0.70809 0.0
C2732 C 0.44405 0.40205 0.6972 0.0
C2733 C 0.42637 0.40129 0.68865 0.0
C2734 C 0.45962 0.41908 0.71023 0.0
C2735 C 0.45805 0.43591 0.71525 0.0
H2736 H 0.4453 0.38894 0.6961 0.0
H2737 H 0.47219 0.41844 0.71893 0.0
S2738 S 0.41678 0.44298 0.69158 0.0
N2739 N 0.40974 0.4201 0.68157 0.0
N2740 N 0.43876 0.4518 0.70715 0.0
C2741 C 0.44132 0.43599 0.70432 0.0
C2742 C 0.42554 0.41876 0.69076 0.0
C2743 C 0.59037 0.01279 0.69402 0.0
C2744 C 0.60687 0.03187 0.6965 0.0
C2745 C 0.5723 0.00815 0.70697 0.0
C2746 C 0.5701 0.02241 0.72281 0.0
H2747 H 0.59177 1.00099 0.68394 0.0
H2748 H 0.56051 0.99296 0.70671 0.0
S2749 S 0.60745 0.07515 0.73134 0.0
N2750 N 0.61877 0.06573 0.71225 0.0
N2751 N 0.585 0.05672 0.73741 0.0
C2752 C 0.58589 0.04182 0.72338 0.0
C2753 C 0.60423 0.04662 0.71002 0.0
loop_
_geom_bond_atom_site_label_1
_geom_bond_atom_site_label_2
_geom_bond_distance
_geom_bond_site_symmetry_2
_ccdc_geom_bond_type
Li0 N17 1.990 . S
Li0 O60 1.956 . S
Li0 O61 1.970 1_654 S
Li0 O62 1.961 . S
Li1 N25 1.990 . S
Li1 O60 1.970 1_455 S
Li1 O61 1.956 1_554 S
Li1 O63 1.961 . S
Li2 N47 1.990 . S
Li2 O60 1.961 . S
Li2 O62 1.956 . S
Li2 O63 1.970 1_655 S
Li3 N53 1.990 . S
Li3 O61 1.961 . S
Li3 O62 1.970 1_456 S
Li3 O63 1.956 1_556 S
C4 C6 1.348 1_655 S
C4 C7 1.356 . S
C4 O60 1.325 . S
N5 C8 1.314 . S
N5 C9 1.279 . S
C6 C4 1.348 1_455 S
C6 C8 1.353 1_455 S
C6 H64 0.929 . S
C7 C4 1.356 . S
C7 C9 1.358 . S
C7 H65 0.930 . S
C8 N5 1.314 . S
C8 C6 1.353 1_655 S
C8 H66 0.930 1_655 S
C9 N5 1.279 . S
C9 C7 1.358 . S
C9 H67 0.930 . S
C10 C13 1.348 1_455 S
C10 C14 1.356 . S
C10 O61 1.325 . S
C11 N12 1.279 . S
C11 C14 1.358 . S
C11 H68 0.930 . S
N12 C11 1.279 . S
N12 C15 1.314 . S
C13 C10 1.348 1_655 S
C13 C15 1.353 1_655 S
C13 H69 0.929 . S
C14 C10 1.356 . S
C14 C11 1.358 . S
C14 H70 0.930 . S
C15 N12 1.314 . S
C15 C13 1.353 1_455 S
C15 H71 0.930 1_455 S
C16 N17 1.316 1_556 S
C16 C21 1.353 . S
C16 H22 0.930 . S
N17 Li0 1.990 . S
N17 C16 1.316 1_554 S
N17 C19 1.278 . S
C18 C19 1.358 . S
C18 C20 1.356 1_554 S
C18 H72 0.930 . S
C19 N17 1.278 . S
C19 C18 1.358 . S
C19 H23 0.930 . S
C20 C18 1.356 1_556 S
C20 C21 1.348 . S
C21 C16 1.353 . S
C21 C20 1.348 . S
C21 H73 0.929 . S
H22 C16 0.930 . S
H23 C19 0.930 . S
C24 N25 1.314 . S
C24 C26 1.353 . S
C24 H30 0.930 . S
N25 Li1 1.990 . S
N25 C24 1.314 . S
N25 C28 1.279 . S
C26 C24 1.353 . S
C26 C29 1.348 . S
C26 H74 0.929 . S
C27 C28 1.358 . S
C27 C29 1.356 . S
C27 H75 0.930 . S
C28 N25 1.279 . S
C28 C27 1.358 . S
C28 H31 0.930 1_554 S
C29 C26 1.348 . S
C29 C27 1.356 . S
H30 C24 0.930 . S
H31 C28 0.930 1_556 S
C32 C34 1.348 . S
C32 C35 1.356 1_556 S
C32 O62 1.325 1_556 S
N33 C36 1.314 . S
N33 C37 1.279 1_556 S
C34 C32 1.348 . S
C34 C36 1.353 . S
C34 H76 0.929 . S
C35 C32 1.356 1_554 S
C35 C37 1.358 . S
C35 H77 0.930 . S
C36 N33 1.314 . S
C36 C34 1.353 . S
C36 H78 0.930 . S
C37 N33 1.279 1_554 S
C37 C35 1.358 . S
C37 H79 0.930 . S
C38 C39 1.348 . S
C38 C40 1.356 . S
C38 O63 1.325 . S
C39 C38 1.348 . S
C39 C41 1.353 . S
C39 H80 0.929 . S
C40 C38 1.356 . S
C40 C42 1.358 . S
C40 H81 0.930 1_554 S
C41 C39 1.353 . S
C41 N43 1.314 . S
C41 H82 0.930 . S
C42 C40 1.358 . S
C42 N43 1.279 . S
C42 H83 0.930 . S
N43 C41 1.314 . S
N43 C42 1.279 . S
C44 C46 1.353 . S
C44 N47 1.314 . S
C44 H50 0.930 1_655 S
C45 N47 1.279 . S
C45 C48 1.358 . S
C45 H51 0.930 . S
C46 C44 1.353 . S
C46 C49 1.348 . S
C46 H84 0.932 1_655 S
N47 Li2 1.990 . S
N47 C44 1.314 . S
N47 C45 1.279 . S
C48 C45 1.358 . S
C48 C49 1.356 . S
C48 H85 0.930 . S
C49 C46 1.348 . S
C49 C48 1.356 . S
H50 C44 0.930 1_455 S
H51 C45 0.930 . S
C52 N53 1.314 . S
C52 C54 1.353 . S
C52 H58 0.930 1_455 S
N53 Li3 1.990 . S
N53 C52 1.314 . S
N53 C56 1.279 . S
C54 C52 1.353 . S
C54 C57 1.348 . S
C54 H86 0.944 . S
C55 C56 1.358 . S
C55 C57 1.356 . S
C55 H87 0.930 . S
C56 N53 1.279 . S
C56 C55 1.358 . S
C56 H59 0.930 . S
C57 C54 1.348 . S
C57 C55 1.356 . S
H58 C52 0.930 1_655 S
H59 C56 0.930 . S
O60 Li0 1.956 . S
O60 Li1 1.970 1_655 S
O60 Li2 1.961 . S
O60 C4 1.325 . S
O61 Li0 1.970 1_456 S
O61 Li1 1.956 1_556 S
O61 Li3 1.961 . S
O61 C10 1.325 . S
O62 Li0 1.961 . S
O62 Li2 1.956 . S
O62 Li3 1.970 1_654 S
O62 C32 1.325 1_554 S
O63 Li1 1.961 . S
O63 Li2 1.970 1_455 S
O63 Li3 1.956 1_554 S
O63 C38 1.325 . S
H64 C6 0.929 . S
H65 C7 0.930 . S
H66 C8 0.930 1_455 S
H67 C9 0.930 . S
H68 C11 0.930 . S
H69 C13 0.929 . S
H70 C14 0.930 . S
H71 C15 0.930 1_655 S
H72 C18 0.930 . S
H73 C21 0.929 . S
H74 C26 0.929 . S
H75 C27 0.930 . S
H76 C34 0.929 . S
H77 C35 0.930 . S
H78 C36 0.930 . S
H79 C37 0.930 . S
H80 C39 0.929 . S
H81 C40 0.930 1_556 S
H82 C41 0.930 . S
H83 C42 0.930 . S
H84 C46 0.932 1_455 S
H85 C48 0.930 . S
H86 C54 0.944 . S
H87 C55 0.930 . S
Li88 N105 1.990 1_554 S
Li88 O148 1.956 . S
Li88 O149 1.970 1_554 S
Li88 O150 1.961 1_554 S
Li89 N113 1.990 . S
Li89 O148 1.970 . S
Li89 O149 1.956 1_554 S
Li89 O151 1.961 . S
Li90 N135 1.990 . S
Li90 O148 1.961 . S
Li90 O150 1.957 1_554 S
Li90 O151 1.970 . S
Li91 N141 1.990 . S
Li91 O149 1.961 . S
Li91 O150 1.970 . S
Li91 O151 1.956 1_556 S
C92 C94 1.348 . S
C92 C95 1.356 . S
C92 O148 1.325 . S
N93 C96 1.314 . S
N93 C97 1.279 . S
C94 C92 1.348 . S
C94 C96 1.353 . S
C94 H152 0.929 . S
C95 C92 1.356 . S
C95 C97 1.358 . S
C95 H153 0.930 . S
C96 N93 1.314 . S
C96 C94 1.353 . S
C96 H154 0.930 . S
C97 N93 1.279 . S
C97 C95 1.358 . S
C97 H155 0.930 . S
C98 C101 1.348 . S
C98 C102 1.356 . S
C98 O149 1.325 . S
C99 N100 1.279 . S
C99 C102 1.358 . S
C99 H156 0.930 . S
N100 C99 1.279 . S
N100 C103 1.314 . S
C101 C98 1.348 . S
C101 C103 1.353 . S
C101 H157 0.929 . S
C102 C98 1.356 . S
C102 C99 1.358 . S
C102 H158 0.930 . S
C103 N100 1.314 . S
C103 C101 1.353 . S
C103 H159 0.930 . S
C104 N105 1.314 . S
C104 C109 1.353 . S
C104 H110 0.930 . S
N105 Li88 1.990 1_556 S
N105 C104 1.314 . S
N105 C107 1.279 1_556 S
C106 C107 1.358 . S
C106 C108 1.356 1_554 S
C106 H160 0.930 . S
C107 N105 1.279 1_554 S
C107 C106 1.358 . S
C107 H111 0.930 . S
C108 C106 1.356 1_556 S
C108 C109 1.348 . S
C109 C104 1.353 . S
C109 C108 1.348 . S
C109 H161 0.929 . S
H110 C104 0.930 . S
H111 C107 0.930 . S
C112 N113 1.314 . S
C112 C114 1.353 . S
C112 H118 0.930 . S
N113 Li89 1.990 . S
N113 C112 1.314 . S
N113 C116 1.279 . S
C114 C112 1.353 . S
C114 C117 1.348 . S
C114 H162 0.929 . S
C115 C116 1.358 . S
C115 C117 1.356 . S
C115 H163 0.930 . S
C116 N113 1.279 . S
C116 C115 1.358 . S
C116 H119 0.930 1_554 S
C117 C114 1.348 . S
C117 C115 1.356 . S
H118 C112 0.930 . S
H119 C116 0.930 1_556 S
C120 C122 1.348 . S
C120 C123 1.356 1_556 S
C120 O150 1.325 . S
N121 C124 1.314 . S
N121 C125 1.290 . S
C122 C120 1.348 . S
C122 C124 1.353 . S
C122 H164 0.929 . S
C123 C120 1.356 1_554 S
C123 C125 1.355 1_554 S
C123 H165 0.930 . S
C124 N121 1.314 . S
C124 C122 1.353 . S
C124 H166 0.930 . S
C125 N121 1.290 . S
C125 C123 1.355 1_556 S
C125 H167 0.923 1_556 S
C126 C127 1.348 . S
C126 C128 1.356 . S
C126 O151 1.325 . S
C127 C126 1.348 . S
C127 C129 1.353 . S
C127 H168 0.929 . S
C128 C126 1.356 . S
C128 C130 1.358 . S
C128 H169 0.930 . S
C129 C127 1.353 . S
C129 N131 1.314 . S
C129 H170 0.930 . S
C130 C128 1.358 . S
C130 N131 1.279 . S
C130 H171 0.930 . S
N131 C129 1.314 . S
N131 C130 1.279 . S
C132 C134 1.353 . S
C132 N135 1.314 . S
C132 H138 0.930 . S
C133 N135 1.279 . S
C133 C136 1.358 . S
C133 H139 0.930 . S
C134 C132 1.353 . S
C134 C137 1.348 . S
C134 H172 0.929 . S
N135 Li90 1.990 . S
N135 C132 1.314 . S
N135 C133 1.279 . S
C136 C133 1.358 . S
C136 C137 1.356 . S
C136 H173 0.930 . S
C137 C134 1.348 . S
C137 C136 1.356 . S
H138 C132 0.930 . S
H139 C133 0.930 . S
C140 N141 1.314 . S
C140 C142 1.353 . S
C140 H146 0.930 . S
N141 Li91 1.990 . S
N141 C140 1.314 . S
N141 C144 1.279 . S
C142 C140 1.353 . S
C142 C145 1.348 . S
C142 H174 0.929 . S
C143 C144 1.358 . S
C143 C145 1.356 . S
C143 H175 0.930 . S
C144 N141 1.279 . S
C144 C143 1.358 . S
C144 H147 0.930 . S
C145 C142 1.348 . S
C145 C143 1.356 . S
H146 C140 0.930 . S
H147 C144 0.930 . S
O148 Li88 1.956 . S
O148 Li89 1.970 . S
O148 Li90 1.961 . S
O148 C92 1.325 . S
O149 Li88 1.970 1_556 S
O149 Li89 1.956 1_556 S
O149 Li91 1.961 . S
O149 C98 1.325 . S
O150 Li88 1.961 1_556 S
O150 Li90 1.957 1_556 S
O150 Li91 1.970 . S
O150 C120 1.325 . S
O151 Li89 1.961 . S
O151 Li90 1.970 . S
O151 Li91 1.956 1_554 S
O151 C126 1.325 . S
H152 C94 0.929 . S
H153 C95 0.930 . S
H154 C96 0.930 . S
H155 C97 0.930 . S
H156 C99 0.930 . S
H157 C101 0.929 . S
H158 C102 0.930 . S
H159 C103 0.930 . S
H160 C106 0.930 . S
H161 C109 0.929 . S
H162 C114 0.929 . S
H163 C115 0.930 . S
H164 C122 0.929 . S
H165 C123 0.930 . S
H166 C124 0.930 . S
H167 C125 0.923 1_554 S
H168 C127 0.929 . S
H169 C128 0.930 . S
H170 C129 0.930 . S
H171 C130 0.930 . S
H172 C134 0.929 . S
H173 C136 0.930 . S
H174 C142 0.929 . S
H175 C143 0.930 . S
Li176 N193 1.990 . S
Li176 O236 1.956 1_556 S
Li176 O237 1.970 1_566 S
Li176 O238 1.961 . S
Li177 N201 1.990 . S
Li177 O236 1.970 1_545 S
Li177 O237 1.956 . S
Li177 O239 1.961 . S
Li178 N223 1.990 . S
Li178 O236 1.961 . S
Li178 O238 1.956 1_554 S
Li178 O239 1.970 1_565 S
Li179 N229 1.988 1_554 S
Li179 O237 1.961 . S
Li179 O238 1.970 1_544 S
Li179 O239 1.956 . S
C180 C182 1.348 . S
C180 C183 1.356 . S
C180 O236 1.325 . S
N181 C184 1.314 . S
N181 C185 1.279 . S
C182 C180 1.348 . S
C182 C184 1.353 . S
C182 H240 0.929 . S
C183 C180 1.356 . S
C183 C185 1.358 . S
C183 H241 0.930 1_554 S
C184 N181 1.314 . S
C184 C182 1.353 . S
C184 H242 0.930 . S
C185 N181 1.279 . S
C185 C183 1.358 . S
C185 H243 0.930 . S
C186 C189 1.348 . S
C186 C190 1.356 1_556 S
C186 O237 1.325 1_556 S
C187 N188 1.279 1_554 S
C187 C190 1.358 . S
C187 H244 0.930 . S
N188 C187 1.279 1_556 S
N188 C191 1.314 . S
C189 C186 1.348 . S
C189 C191 1.353 . S
C189 H245 0.929 . S
C190 C186 1.356 1_554 S
C190 C187 1.358 . S
C190 H246 0.930 . S
C191 N188 1.314 . S
C191 C189 1.353 . S
C191 H247 0.930 . S
C192 N193 1.314 . S
C192 C197 1.353 . S
C192 H198 0.930 1_565 S
N193 Li176 1.990 . S
N193 C192 1.314 . S
N193 C195 1.279 . S
C194 C195 1.358 . S
C194 C196 1.356 . S
C194 H248 0.930 . S
C195 N193 1.279 . S
C195 C194 1.358 . S
C195 H199 0.930 . S
C196 C194 1.356 . S
C196 C197 1.348 . S
C197 C192 1.353 . S
C197 C196 1.348 . S
C197 H249 0.952 . S
H198 C192 0.930 1_545 S
H199 C195 0.930 . S
C200 N201 1.314 . S
C200 C202 1.353 . S
C200 H206 0.930 1_545 S
N201 Li177 1.990 . S
N201 C200 1.314 . S
N201 C204 1.279 . S
C202 C200 1.353 . S
C202 C205 1.348 . S
C202 H250 0.929 . S
C203 C204 1.358 . S
C203 C205 1.356 . S
C203 H251 0.930 . S
C204 N201 1.279 . S
C204 C203 1.358 . S
C204 H207 0.930 . S
C205 C202 1.348 . S
C205 C203 1.356 . S
H206 C200 0.930 1_565 S
H207 C204 0.930 . S
C208 C210 1.348 1_565 S
C208 C211 1.356 . S
C208 O238 1.325 . S
N209 C212 1.314 . S
N209 C213 1.279 . S
C210 C208 1.348 1_545 S
C210 C212 1.353 1_545 S
C210 H252 0.929 . S
C211 C208 1.356 . S
C211 C213 1.358 . S
C211 H253 0.930 . S
C212 N209 1.314 . S
C212 C210 1.353 1_565 S
C212 H254 0.930 1_565 S
C213 N209 1.279 . S
C213 C211 1.358 . S
C213 H255 0.930 . S
C214 C215 1.348 1_545 S
C214 C216 1.356 . S
C214 O239 1.325 . S
C215 C214 1.348 1_565 S
C215 C217 1.334 1_565 S
C215 H256 0.949 . S
C216 C214 1.356 . S
C216 C218 1.358 . S
C216 H257 0.930 . S
C217 C215 1.334 1_545 S
C217 N219 1.314 . S
C217 H258 0.930 1_545 S
C218 C216 1.358 . S
C218 N219 1.279 . S
C218 H259 0.930 . S
N219 C217 1.314 . S
N219 C218 1.279 . S
C220 C222 1.353 . S
C220 N223 1.314 . S
C220 H226 0.930 . S
C221 N223 1.279 . S
C221 C224 1.358 . S
C221 H227 0.930 1_554 S
C222 C220 1.353 . S
C222 C225 1.348 . S
C222 H260 0.929 . S
N223 Li178 1.990 . S
N223 C220 1.314 . S
N223 C221 1.279 . S
C224 C221 1.358 . S
C224 C225 1.356 . S
C224 H261 0.911 1_554 S
C225 C222 1.348 . S
C225 C224 1.356 . S
H226 C220 0.930 . S
H227 C221 0.930 1_556 S
C228 N229 1.327 . S
C228 C230 1.353 . S
C228 H234 0.930 . S
N229 Li179 1.988 1_556 S
N229 C228 1.327 . S
N229 C232 1.271 1_556 S
C230 C228 1.353 . S
C230 C233 1.348 . S
C230 H262 0.929 . S
C231 C232 1.358 . S
C231 C233 1.356 1_554 S
C231 H263 0.930 . S
C232 N229 1.271 1_554 S
C232 C231 1.358 . S
C232 H235 0.930 . S
C233 C230 1.348 . S
C233 C231 1.356 1_556 S
H234 C228 0.930 . S
H235 C232 0.930 . S
O236 Li176 1.956 1_554 S
O236 Li177 1.970 1_565 S
O236 Li178 1.961 . S
O236 C180 1.325 . S
O237 Li176 1.970 1_544 S
O237 Li177 1.956 . S
O237 Li179 1.961 . S
O237 C186 1.325 1_554 S
O238 Li176 1.961 . S
O238 Li178 1.956 1_556 S
O238 Li179 1.970 1_566 S
O238 C208 1.325 . S
O239 Li177 1.961 . S
O239 Li178 1.970 1_545 S
O239 Li179 1.956 . S
O239 C214 1.325 . S
H240 C182 0.929 . S
H241 C183 0.930 1_556 S
H242 C184 0.930 . S
H243 C185 0.930 . S
H244 C187 0.930 . S
H245 C189 0.929 . S
H246 C190 0.930 . S
H247 C191 0.930 . S
H248 C194 0.930 . S
H249 C197 0.952 . S
H250 C202 0.929 . S
H251 C203 0.930 . S
H252 C210 0.929 . S
H253 C211 0.930 . S
H254 C212 0.930 1_545 S
H255 C213 0.930 . S
H256 C215 0.949 . S
H257 C216 0.930 . S
H258 C217 0.930 1_565 S
H259 C218 0.930 . S
H260 C222 0.929 . S
H261 C224 0.911 1_556 S
H262 C230 0.929 . S
H263 C231 0.930 . S
Li264 N281 1.990 . S
Li264 O324 1.956 . S
Li264 O325 1.970 1_455 S
Li264 O326 1.961 1_554 S
Li265 N289 1.990 . S
Li265 O324 1.970 1_655 S
Li265 O325 1.956 . S
Li265 O327 1.991 . S
Li266 N311 1.990 . S
Li266 O324 1.961 1_556 S
Li266 O326 1.956 . S
Li266 O327 1.953 1_456 S
Li267 N317 1.990 1_554 S
Li267 O325 1.961 . S
Li267 O326 1.970 1_654 S
Li267 O327 1.957 . S
C268 C270 1.348 . S
C268 C271 1.356 . S
C268 O324 1.325 . S
N269 C272 1.314 . S
N269 C273 1.279 . S
C270 C268 1.348 . S
C270 C272 1.353 . S
C270 H328 0.929 . S
C271 C268 1.356 . S
C271 C273 1.358 . S
C271 H329 0.930 1_554 S
C272 N269 1.314 . S
C272 C270 1.353 . S
C272 H330 0.930 . S
C273 N269 1.279 . S
C273 C271 1.358 . S
C273 H331 0.930 1_554 S
C274 C277 1.348 1_655 S
C274 C278 1.356 . S
C274 O325 1.325 . S
C275 N276 1.279 . S
C275 C278 1.358 . S
C275 H332 0.930 . S
N276 C275 1.279 . S
N276 C279 1.314 1_655 S
C277 C274 1.348 1_455 S
C277 C279 1.353 . S
C277 H333 0.929 . S
C278 C274 1.356 . S
C278 C275 1.358 . S
C278 H334 0.930 . S
C279 N276 1.314 1_455 S
C279 C277 1.353 . S
C279 H335 0.930 . S
C280 N281 1.314 . S
C280 C285 1.353 . S
C280 H286 0.930 . S
N281 Li264 1.990 . S
N281 C280 1.314 . S
N281 C283 1.279 . S
C282 C283 1.358 . S
C282 C284 1.356 . S
C282 H336 0.930 . S
C283 N281 1.279 . S
C283 C282 1.358 . S
C283 H287 0.930 . S
C284 C282 1.356 . S
C284 C285 1.348 . S
C285 C280 1.353 . S
C285 C284 1.348 . S
C285 H337 0.929 . S
H286 C280 0.930 . S
H287 C283 0.930 . S
C288 N289 1.314 . S
C288 C290 1.353 . S
C288 H294 0.930 . S
N289 Li265 1.990 . S
N289 C288 1.314 . S
N289 C292 1.279 . S
C290 C288 1.353 . S
C290 C293 1.348 . S
C290 H338 0.929 . S
C291 C292 1.358 . S
C291 C293 1.356 . S
C291 H339 0.930 . S
C292 N289 1.279 . S
C292 C291 1.358 . S
C292 H295 0.930 . S
C293 C290 1.348 . S
C293 C291 1.356 . S
H294 C288 0.930 . S
H295 C292 0.930 . S
C296 C298 1.348 1_455 S
C296 C299 1.356 . S
C296 O326 1.325 . S
N297 C300 1.314 1_455 S
N297 C301 1.279 . S
C298 C296 1.348 1_655 S
C298 C300 1.353 . S
C298 H340 0.929 . S
C299 C296 1.356 . S
C299 C301 1.358 . S
C299 H341 0.930 . S
C300 N297 1.314 1_655 S
C300 C298 1.353 . S
C300 H342 0.930 . S
C301 N297 1.279 . S
C301 C299 1.358 . S
C301 H343 0.930 . S
C302 C303 1.348 . S
C302 C304 1.356 1_556 S
C302 O327 1.319 1_556 S
C303 C302 1.348 . S
C303 C305 1.353 . S
C303 H344 0.929 . S
C304 C302 1.356 1_554 S
C304 C306 1.358 . S
C304 H345 0.930 . S
C305 C303 1.353 . S
C305 N307 1.314 . S
C305 H346 0.930 . S
C306 C304 1.358 . S
C306 N307 1.279 1_554 S
C306 H347 0.930 . S
N307 C305 1.314 . S
N307 C306 1.279 1_556 S
C308 C310 1.353 . S
C308 N311 1.314 . S
C308 H314 0.930 . S
C309 N311 1.279 . S
C309 C312 1.358 . S
C309 H315 0.930 . S
C310 C308 1.353 . S
C310 C313 1.348 . S
C310 H348 0.929 . S
N311 Li266 1.990 . S
N311 C308 1.314 . S
N311 C309 1.279 . S
C312 C309 1.358 . S
C312 C313 1.356 . S
C312 H349 0.930 . S
C313 C310 1.348 . S
C313 C312 1.356 . S
H314 C308 0.930 . S
H315 C309 0.930 . S
C316 N317 1.314 1_554 S
C316 C318 1.353 1_554 S
C316 H322 0.930 . S
N317 Li267 1.990 1_556 S
N317 C316 1.314 1_556 S
N317 C320 1.279 . S
C318 C316 1.353 1_556 S
C318 C321 1.348 . S
C318 H350 0.929 1_556 S
C319 C320 1.358 . S
C319 C321 1.356 . S
C319 H351 0.930 . S
C320 N317 1.279 . S
C320 C319 1.358 . S
C320 H323 0.930 . S
C321 C318 1.348 . S
C321 C319 1.356 . S
H322 C316 0.930 . S
H323 C320 0.930 . S
O324 Li264 1.956 . S
O324 Li265 1.970 1_455 S
O324 Li266 1.961 1_554 S
O324 C268 1.325 . S
O325 Li264 1.970 1_655 S
O325 Li265 1.956 . S
O325 Li267 1.961 . S
O325 C274 1.325 . S
O326 Li264 1.961 1_556 S
O326 Li266 1.956 . S
O326 Li267 1.970 1_456 S
O326 C296 1.325 . S
O327 Li265 1.991 . S
O327 Li266 1.953 1_654 S
O327 Li267 1.957 . S
O327 C302 1.319 1_554 S
H328 C270 0.929 . S
H329 C271 0.930 1_556 S
H330 C272 0.930 . S
H331 C273 0.930 1_556 S
H332 C275 0.930 . S
H333 C277 0.929 . S
H334 C278 0.930 . S
H335 C279 0.930 . S
H336 C282 0.930 . S
H337 C285 0.929 . S
H338 C290 0.929 . S
H339 C291 0.930 . S
H340 C298 0.929 . S
H341 C299 0.930 . S
H342 C300 0.930 . S
H343 C301 0.930 . S
H344 C303 0.929 . S
H345 C304 0.930 . S
H346 C305 0.930 . S
H347 C306 0.930 . S
H348 C310 0.929 . S
H349 C312 0.930 . S
H350 C318 0.929 1_554 S
H351 C319 0.930 . S
Li352 N369 1.990 . S
Li352 O412 1.956 . S
Li352 O413 1.970 . S
Li352 O414 1.961 1_554 S
Li353 N377 1.990 . S
Li353 O412 1.970 . S
Li353 O413 1.956 . S
Li353 O415 1.988 . S
Li354 N399 1.990 . S
Li354 O412 1.961 1_556 S
Li354 O414 1.956 . S
Li354 O415 1.956 1_556 S
Li355 N405 1.990 1_554 S
Li355 O413 1.961 . S
Li355 O414 1.970 1_554 S
Li355 O415 1.957 . S
C356 C358 1.348 . S
C356 C359 1.356 . S
C356 O412 1.325 . S
N357 C360 1.314 . S
N357 C361 1.279 . S
C358 C356 1.348 . S
C358 C360 1.353 . S
C358 H416 0.929 . S
C359 C356 1.356 . S
C359 C361 1.358 . S
C359 H417 0.930 1_554 S
C360 N357 1.314 . S
C360 C358 1.353 . S
C360 H418 0.930 . S
C361 N357 1.279 . S
C361 C359 1.358 . S
C361 H419 0.952 . S
C362 C365 1.348 . S
C362 C366 1.356 . S
C362 O413 1.325 . S
C363 N364 1.279 . S
C363 C366 1.358 . S
C363 H420 0.930 . S
N364 C363 1.279 . S
N364 C367 1.314 . S
C365 C362 1.348 . S
C365 C367 1.353 . S
C365 H421 0.929 . S
C366 C362 1.356 . S
C366 C363 1.358 . S
C366 H422 0.930 . S
C367 N364 1.314 . S
C367 C365 1.353 . S
C367 H423 0.930 . S
C368 N369 1.314 . S
C368 C373 1.353 . S
C368 H374 0.930 . S
N369 Li352 1.990 . S
N369 C368 1.314 . S
N369 C371 1.279 . S
C370 C371 1.358 . S
C370 C372 1.356 . S
C370 H424 0.930 . S
C371 N369 1.279 . S
C371 C370 1.358 . S
C371 H375 0.930 . S
C372 C370 1.356 . S
C372 C373 1.348 . S
C373 C368 1.353 . S
C373 C372 1.348 . S
C373 H425 0.929 . S
H374 C368 0.930 . S
H375 C371 0.930 . S
C376 N377 1.314 . S
C376 C378 1.353 . S
C376 H382 0.930 . S
N377 Li353 1.990 . S
N377 C376 1.314 . S
N377 C380 1.279 . S
C378 C376 1.353 . S
C378 C381 1.348 . S
C378 H426 0.929 . S
C379 C380 1.358 . S
C379 C381 1.356 . S
C379 H427 0.930 . S
C380 N377 1.279 . S
C380 C379 1.358 . S
C380 H383 0.930 . S
C381 C378 1.348 . S
C381 C379 1.356 . S
H382 C376 0.930 . S
H383 C380 0.930 . S
C384 C386 1.348 . S
C384 C387 1.356 . S
C384 O414 1.325 . S
N385 C388 1.314 . S
N385 C389 1.279 . S
C386 C384 1.348 . S
C386 C388 1.353 . S
C386 H428 0.929 . S
C387 C384 1.356 . S
C387 C389 1.358 . S
C387 H429 0.930 . S
C388 N385 1.314 . S
C388 C386 1.353 . S
C388 H430 0.930 . S
C389 N385 1.279 . S
C389 C387 1.358 . S
C389 H431 0.930 . S
C390 C391 1.348 . S
C390 C392 1.356 1_556 S
C390 O415 1.318 1_556 S
C391 C390 1.348 . S
C391 C393 1.353 . S
C391 H432 0.929 . S
C392 C390 1.356 1_554 S
C392 C394 1.358 . S
C392 H433 0.930 . S
C393 C391 1.353 . S
C393 N395 1.314 . S
C393 H434 0.930 . S
C394 C392 1.358 . S
C394 N395 1.279 1_554 S
C394 H435 0.930 . S
N395 C393 1.314 . S
N395 C394 1.279 1_556 S
C396 C398 1.353 . S
C396 N399 1.314 . S
C396 H402 0.930 . S
C397 N399 1.279 . S
C397 C400 1.358 . S
C397 H403 0.930 . S
C398 C396 1.353 . S
C398 C401 1.348 . S
C398 H436 0.929 . S
N399 Li354 1.990 . S
N399 C396 1.314 . S
N399 C397 1.279 . S
C400 C397 1.358 . S
C400 C401 1.356 . S
C400 H437 0.930 . S
C401 C398 1.348 . S
C401 C400 1.356 . S
H402 C396 0.930 . S
H403 C397 0.930 . S
C404 N405 1.314 . S
C404 C406 1.353 . S
C404 H410 0.930 1_556 S
N405 Li355 1.990 1_556 S
N405 C404 1.314 . S
N405 C408 1.279 . S
C406 C404 1.353 . S
C406 C409 1.348 . S
C406 H438 0.929 . S
C407 C408 1.358 . S
C407 C409 1.356 . S
C407 H439 0.930 . S
C408 N405 1.279 . S
C408 C407 1.358 . S
C408 H411 0.930 . S
C409 C406 1.348 . S
C409 C407 1.356 . S
H410 C404 0.930 1_554 S
H411 C408 0.930 . S
O412 Li352 1.956 . S
O412 Li353 1.970 . S
O412 Li354 1.961 1_554 S
O412 C356 1.325 . S
O413 Li352 1.970 . S
O413 Li353 1.956 . S
O413 Li355 1.961 . S
O413 C362 1.325 . S
O414 Li352 1.961 1_556 S
O414 Li354 1.956 . S
O414 Li355 1.970 1_556 S
O414 C384 1.325 . S
O415 Li353 1.988 . S
O415 Li354 1.956 1_554 S
O415 Li355 1.957 . S
O415 C390 1.318 1_554 S
H416 C358 0.929 . S
H417 C359 0.930 1_556 S
H418 C360 0.930 . S
H419 C361 0.952 . S
H420 C363 0.930 . S
H421 C365 0.929 . S
H422 C366 0.930 . S
H423 C367 0.930 . S
H424 C370 0.930 . S
H425 C373 0.929 . S
H426 C378 0.929 . S
H427 C379 0.930 . S
H428 C386 0.929 . S
H429 C387 0.930 . S
H430 C388 0.930 . S
H431 C389 0.930 . S
H432 C391 0.929 . S
H433 C392 0.930 . S
H434 C393 0.930 . S
H435 C394 0.930 . S
H436 C398 0.929 . S
H437 C400 0.930 . S
H438 C406 0.929 . S
H439 C407 0.930 . S
Li440 N457 1.990 . S
Li440 O500 1.956 . S
Li440 O501 1.970 1_565 S
Li440 O502 1.961 1_554 S
Li441 N465 1.990 . S
Li441 O500 1.970 1_545 S
Li441 O501 1.956 . S
Li441 O503 1.961 . S
Li442 N487 1.990 . S
Li442 O500 1.961 1_556 S
Li442 O502 1.956 . S
Li442 O503 1.970 1_566 S
Li443 N493 1.990 1_554 S
Li443 O501 1.961 . S
Li443 O502 1.970 1_544 S
Li443 O503 1.956 . S
C444 C446 1.348 . S
C444 C447 1.356 . S
C444 O500 1.325 . S
N445 C448 1.314 . S
N445 C449 1.279 . S
C446 C444 1.348 . S
C446 C448 1.353 . S
C446 H504 0.929 . S
C447 C444 1.356 . S
C447 C449 1.358 . S
C447 H505 0.930 1_554 S
C448 N445 1.314 . S
C448 C446 1.353 . S
C448 H506 0.930 . S
C449 N445 1.279 . S
C449 C447 1.358 . S
C449 H507 0.930 1_554 S
C450 C453 1.348 1_545 S
C450 C454 1.356 . S
C450 O501 1.325 . S
C451 N452 1.279 . S
C451 C454 1.358 . S
C451 H508 0.930 . S
N452 C451 1.279 . S
N452 C455 1.281 1_545 S
C453 C450 1.348 1_565 S
C453 C455 1.351 . S
C453 H509 0.929 . S
C454 C450 1.356 . S
C454 C451 1.358 . S
C454 H510 0.930 . S
C455 N452 1.281 1_565 S
C455 C453 1.351 . S
C455 H511 0.970 . S
C456 N457 1.314 . S
C456 C461 1.353 . S
C456 H462 0.930 . S
N457 Li440 1.990 . S
N457 C456 1.314 . S
N457 C459 1.279 . S
C458 C459 1.358 . S
C458 C460 1.356 . S
C458 H512 0.930 . S
C459 N457 1.279 . S
C459 C458 1.358 . S
C459 H463 0.930 . S
C460 C458 1.356 . S
C460 C461 1.348 . S
C461 C456 1.353 . S
C461 C460 1.348 . S
C461 H513 0.929 . S
H462 C456 0.930 . S
H463 C459 0.930 . S
C464 N465 1.314 . S
C464 C466 1.353 . S
C464 H470 0.930 . S
N465 Li441 1.990 . S
N465 C464 1.314 . S
N465 C468 1.279 . S
C466 C464 1.353 . S
C466 C469 1.348 . S
C466 H514 0.929 . S
C467 C468 1.358 . S
C467 C469 1.356 . S
C467 H515 0.930 . S
C468 N465 1.279 . S
C468 C467 1.358 . S
C468 H471 0.930 . S
C469 C466 1.348 . S
C469 C467 1.356 . S
H470 C464 0.930 . S
H471 C468 0.930 . S
C472 C474 1.348 1_565 S
C472 C475 1.356 . S
C472 O502 1.325 . S
N473 C476 1.286 1_565 S
N473 C477 1.279 . S
C474 C472 1.348 1_545 S
C474 C476 1.370 . S
C474 H516 0.929 . S
C475 C472 1.356 . S
C475 C477 1.358 . S
C475 H517 0.930 . S
C476 N473 1.286 1_545 S
C476 C474 1.370 . S
C476 H518 0.944 . S
C477 N473 1.279 . S
C477 C475 1.358 . S
C477 H519 0.930 . S
C478 C479 1.348 . S
C478 C480 1.356 1_556 S
C478 O503 1.325 1_556 S
C479 C478 1.348 . S
C479 C481 1.353 . S
C479 H520 0.929 . S
C480 C478 1.356 1_554 S
C480 C482 1.358 . S
C480 H521 0.930 . S
C481 C479 1.353 . S
C481 N483 1.314 . S
C481 H522 0.930 . S
C482 C480 1.358 . S
C482 N483 1.279 1_554 S
C482 H523 0.930 . S
N483 C481 1.314 . S
N483 C482 1.279 1_556 S
C484 C486 1.353 . S
C484 N487 1.314 . S
C484 H490 0.930 . S
C485 N487 1.279 . S
C485 C488 1.358 . S
C485 H491 0.930 . S
C486 C484 1.353 . S
C486 C489 1.348 . S
C486 H524 0.929 . S
N487 Li442 1.990 . S
N487 C484 1.314 . S
N487 C485 1.279 . S
C488 C485 1.358 . S
C488 C489 1.356 . S
C488 H525 0.930 . S
C489 C486 1.348 . S
C489 C488 1.356 . S
H490 C484 0.930 . S
H491 C485 0.930 . S
C492 N493 1.314 1_554 S
C492 C494 1.347 1_554 S
C492 H498 0.930 . S
N493 Li443 1.990 1_556 S
N493 C492 1.314 1_556 S
N493 C496 1.279 . S
C494 C492 1.347 1_556 S
C494 C497 1.367 . S
C494 H526 0.918 1_556 S
C495 C496 1.358 . S
C495 C497 1.356 . S
C495 H527 0.930 . S
C496 N493 1.279 . S
C496 C495 1.358 . S
C496 H499 0.930 . S
C497 C494 1.367 . S
C497 C495 1.356 . S
H498 C492 0.930 . S
H499 C496 0.930 . S
O500 Li440 1.956 . S
O500 Li441 1.970 1_565 S
O500 Li442 1.961 1_554 S
O500 C444 1.325 . S
O501 Li440 1.970 1_545 S
O501 Li441 1.956 . S
O501 Li443 1.961 . S
O501 C450 1.325 . S
O502 Li440 1.961 1_556 S
O502 Li442 1.956 . S
O502 Li443 1.970 1_566 S
O502 C472 1.325 . S
O503 Li441 1.961 . S
O503 Li442 1.970 1_544 S
O503 Li443 1.956 . S
O503 C478 1.325 1_554 S
H504 C446 0.929 . S
H505 C447 0.930 1_556 S
H506 C448 0.930 . S
H507 C449 0.930 1_556 S
H508 C451 0.930 . S
H509 C453 0.929 . S
H510 C454 0.930 . S
H511 C455 0.970 . S
H512 C458 0.930 . S
H513 C461 0.929 . S
H514 C466 0.929 . S
H515 C467 0.930 . S
H516 C474 0.929 . S
H517 C475 0.930 . S
H518 C476 0.944 . S
H519 C477 0.930 . S
H520 C479 0.929 . S
H521 C480 0.930 . S
H522 C481 0.930 . S
H523 C482 0.930 . S
H524 C486 0.929 . S
H525 C488 0.930 . S
H526 C494 0.918 1_554 S
H527 C495 0.930 . S
Li528 N545 1.990 . S
Li528 O588 1.956 . S
Li528 O589 1.970 . S
Li528 O590 1.961 . S
Li529 N553 1.990 . S
Li529 O588 1.970 . S
Li529 O589 1.956 . S
Li529 O591 1.961 . S
Li530 N575 1.990 . S
Li530 O588 1.961 . S
Li530 O590 1.956 . S
Li530 O591 1.970 . S
Li531 N581 1.990 . S
Li531 O589 1.961 . S
Li531 O590 1.970 . S
Li531 O591 1.956 . S
C532 C534 1.348 . S
C532 C535 1.356 . S
C532 O588 1.325 . S
N533 C536 1.314 . S
N533 C537 1.279 . S
C534 C532 1.348 . S
C534 C536 1.353 . S
C534 H592 0.929 . S
C535 C532 1.356 . S
C535 C537 1.358 . S
C535 H593 0.930 . S
C536 N533 1.314 . S
C536 C534 1.353 . S
C536 H594 0.930 . S
C537 N533 1.279 . S
C537 C535 1.358 . S
C537 H595 0.930 . S
C538 C541 1.348 . S
C538 C542 1.356 . S
C538 O589 1.325 . S
C539 N540 1.279 . S
C539 C542 1.358 . S
C539 H596 0.930 . S
N540 C539 1.279 . S
N540 C543 1.314 . S
C541 C538 1.348 . S
C541 C543 1.353 . S
C541 H597 0.929 . S
C542 C538 1.356 . S
C542 C539 1.358 . S
C542 H598 0.930 . S
C543 N540 1.314 . S
C543 C541 1.353 . S
C543 H599 0.930 . S
C544 N545 1.314 . S
C544 C549 1.353 . S
C544 H550 0.930 . S
N545 Li528 1.990 . S
N545 C544 1.314 . S
N545 C547 1.279 . S
C546 C547 1.358 . S
C546 C548 1.356 . S
C546 H600 0.930 . S
C547 N545 1.279 . S
C547 C546 1.358 . S
C547 H551 0.930 . S
C548 C546 1.356 . S
C548 C549 1.348 . S
C549 C544 1.353 . S
C549 C548 1.348 . S
C549 H601 0.929 . S
H550 C544 0.930 . S
H551 C547 0.930 . S
C552 N553 1.314 . S
C552 C554 1.353 . S
C552 H558 0.930 . S
N553 Li529 1.990 . S
N553 C552 1.314 . S
N553 C556 1.279 . S
C554 C552 1.353 . S
C554 C557 1.348 . S
C554 H602 0.929 . S
C555 C556 1.358 . S
C555 C557 1.356 . S
C555 H603 0.930 . S
C556 N553 1.279 . S
C556 C555 1.358 . S
C556 H559 0.930 . S
C557 C554 1.348 . S
C557 C555 1.356 . S
H558 C552 0.930 . S
H559 C556 0.930 . S
C560 C562 1.348 . S
C560 C563 1.356 . S
C560 O590 1.325 . S
N561 C564 1.314 . S
N561 C565 1.279 . S
C562 C560 1.348 . S
C562 C564 1.353 . S
C562 H604 0.929 . S
C563 C560 1.356 . S
C563 C565 1.358 . S
C563 H605 0.930 . S
C564 N561 1.314 . S
C564 C562 1.353 . S
C564 H606 0.930 . S
C565 N561 1.279 . S
C565 C563 1.358 . S
C565 H607 0.930 . S
C566 C567 1.348 . S
C566 C568 1.356 . S
C566 O591 1.325 . S
C567 C566 1.348 . S
C567 C569 1.353 . S
C567 H608 0.929 . S
C568 C566 1.356 . S
C568 C570 1.358 . S
C568 H609 0.930 . S
C569 C567 1.353 . S
C569 N571 1.314 . S
C569 H610 0.930 . S
C570 C568 1.358 . S
C570 N571 1.279 . S
C570 H611 0.930 . S
N571 C569 1.314 . S
N571 C570 1.279 . S
C572 C574 1.353 . S
C572 N575 1.314 . S
C572 H578 0.930 . S
C573 N575 1.279 . S
C573 C576 1.358 . S
C573 H579 0.930 . S
C574 C572 1.353 . S
C574 C577 1.348 . S
C574 H612 0.929 . S
N575 Li530 1.990 . S
N575 C572 1.314 . S
N575 C573 1.279 . S
C576 C573 1.358 . S
C576 C577 1.356 . S
C576 H613 0.930 . S
C577 C574 1.348 . S
C577 C576 1.356 . S
H578 C572 0.930 . S
H579 C573 0.930 . S
C580 N581 1.314 . S
C580 C582 1.353 . S
C580 H586 0.930 . S
N581 Li531 1.990 . S
N581 C580 1.314 . S
N581 C584 1.279 . S
C582 C580 1.353 . S
C582 C585 1.348 . S
C582 H614 0.929 . S
C583 C584 1.358 . S
C583 C585 1.356 . S
C583 H615 0.930 . S
C584 N581 1.279 . S
C584 C583 1.358 . S
C584 H587 0.930 . S
C585 C582 1.348 . S
C585 C583 1.356 . S
H586 C580 0.930 . S
H587 C584 0.930 . S
O588 Li528 1.956 . S
O588 Li529 1.970 . S
O588 Li530 1.961 . S
O588 C532 1.325 . S
O589 Li528 1.970 . S
O589 Li529 1.956 . S
O589 Li531 1.961 . S
O589 C538 1.325 . S
O590 Li528 1.961 . S
O590 Li530 1.956 . S
O590 Li531 1.970 . S
O590 C560 1.325 . S
O591 Li529 1.961 . S
O591 Li530 1.970 . S
O591 Li531 1.956 . S
O591 C566 1.325 . S
H592 C534 0.929 . S
H593 C535 0.930 . S
H594 C536 0.930 . S
H595 C537 0.930 . S
H596 C539 0.930 . S
H597 C541 0.929 . S
H598 C542 0.930 . S
H599 C543 0.930 . S
H600 C546 0.930 . S
H601 C549 0.929 . S
H602 C554 0.929 . S
H603 C555 0.930 . S
H604 C562 0.929 . S
H605 C563 0.930 . S
H606 C564 0.930 . S
H607 C565 0.930 . S
H608 C567 0.929 . S
H609 C568 0.930 . S
H610 C569 0.930 . S
H611 C570 0.930 . S
H612 C574 0.929 . S
H613 C576 0.930 . S
H614 C582 0.929 . S
H615 C583 0.930 . S
Li616 N633 1.990 . S
Li616 O676 1.956 . S
Li616 O677 1.970 . S
Li616 O678 1.961 . S
Li617 N641 1.990 . S
Li617 O676 1.970 . S
Li617 O677 1.956 . S
Li617 O679 1.961 . S
Li618 N663 1.990 . S
Li618 O676 1.961 1_545 S
Li618 O678 1.956 1_545 S
Li618 O679 1.970 1_545 S
Li619 N669 1.990 . S
Li619 O677 1.961 . S
Li619 O678 1.970 . S
Li619 O679 1.956 . S
C620 C622 1.348 . S
C620 C623 1.356 . S
C620 O676 1.325 . S
N621 C624 1.314 . S
N621 C625 1.279 . S
C622 C620 1.348 . S
C622 C624 1.353 . S
C622 H680 0.929 . S
C623 C620 1.356 . S
C623 C625 1.358 . S
C623 H681 0.958 . S
C624 N621 1.314 . S
C624 C622 1.353 . S
C624 H682 0.930 . S
C625 N621 1.279 . S
C625 C623 1.358 . S
C625 H683 0.930 . S
C626 C629 1.348 . S
C626 C630 1.356 . S
C626 O677 1.325 . S
C627 N628 1.279 . S
C627 C630 1.358 . S
C627 H684 0.930 . S
N628 C627 1.279 . S
N628 C631 1.314 . S
C629 C626 1.348 . S
C629 C631 1.353 . S
C629 H685 0.929 . S
C630 C626 1.356 . S
C630 C627 1.358 . S
C630 H686 0.930 . S
C631 N628 1.314 . S
C631 C629 1.353 . S
C631 H687 0.930 . S
C632 N633 1.314 . S
C632 C637 1.353 . S
C632 H638 0.930 . S
N633 Li616 1.990 . S
N633 C632 1.314 . S
N633 C635 1.279 . S
C634 C635 1.358 . S
C634 C636 1.356 . S
C634 H688 0.930 . S
C635 N633 1.279 . S
C635 C634 1.358 . S
C635 H639 0.930 . S
C636 C634 1.356 . S
C636 C637 1.348 . S
C637 C632 1.353 . S
C637 C636 1.348 . S
C637 H689 0.929 . S
H638 C632 0.930 . S
H639 C635 0.930 . S
C640 N641 1.314 . S
C640 C642 1.353 . S
C640 H646 0.930 . S
N641 Li617 1.990 . S
N641 C640 1.314 . S
N641 C644 1.279 . S
C642 C640 1.353 . S
C642 C645 1.348 . S
C642 H690 0.929 . S
C643 C644 1.358 . S
C643 C645 1.356 . S
C643 H691 0.930 . S
C644 N641 1.279 . S
C644 C643 1.358 . S
C644 H647 0.930 . S
C645 C642 1.348 . S
C645 C643 1.356 . S
H646 C640 0.930 . S
H647 C644 0.930 . S
C648 C650 1.348 . S
C648 C651 1.356 . S
C648 O678 1.325 1_545 S
N649 C652 1.314 . S
N649 C653 1.279 . S
C650 C648 1.348 . S
C650 C652 1.353 . S
C650 H692 0.929 . S
C651 C648 1.356 . S
C651 C653 1.358 . S
C651 H693 0.930 . S
C652 N649 1.314 . S
C652 C650 1.353 . S
C652 H694 0.930 . S
C653 N649 1.279 . S
C653 C651 1.358 . S
C653 H695 0.930 . S
C654 C655 1.348 1_565 S
C654 C656 1.356 . S
C654 O679 1.325 . S
C655 C654 1.348 1_545 S
C655 C657 1.353 . S
C655 H696 0.929 . S
C656 C654 1.356 . S
C656 C658 1.358 . S
C656 H697 0.930 . S
C657 C655 1.353 . S
C657 N659 1.314 . S
C657 H698 0.930 . S
C658 C656 1.358 . S
C658 N659 1.279 1_565 S
C658 H699 0.930 . S
N659 C657 1.314 . S
N659 C658 1.279 1_545 S
C660 C662 1.353 . S
C660 N663 1.314 . S
C660 H666 0.930 . S
C661 N663 1.279 . S
C661 C664 1.358 . S
C661 H667 0.930 . S
C662 C660 1.353 . S
C662 C665 1.348 . S
C662 H700 0.929 . S
N663 Li618 1.990 . S
N663 C660 1.314 . S
N663 C661 1.279 . S
C664 C661 1.358 . S
C664 C665 1.356 . S
C664 H701 0.930 . S
C665 C662 1.348 . S
C665 C664 1.356 . S
H666 C660 0.930 . S
H667 C661 0.930 . S
C668 N669 1.314 . S
C668 C670 1.353 . S
C668 H674 0.930 . S
N669 Li619 1.990 . S
N669 C668 1.314 . S
N669 C672 1.279 . S
C670 C668 1.353 . S
C670 C673 1.348 . S
C670 H702 0.929 . S
C671 C672 1.358 . S
C671 C673 1.356 . S
C671 H703 0.930 1_565 S
C672 N669 1.279 . S
C672 C671 1.358 . S
C672 H675 0.930 1_565 S
C673 C670 1.348 . S
C673 C671 1.356 . S
H674 C668 0.930 . S
H675 C672 0.930 1_545 S
O676 Li616 1.956 . S
O676 Li617 1.970 . S
O676 Li618 1.961 1_565 S
O676 C620 1.325 . S
O677 Li616 1.970 . S
O677 Li617 1.956 . S
O677 Li619 1.961 . S
O677 C626 1.325 . S
O678 Li616 1.961 . S
O678 Li618 1.956 1_565 S
O678 Li619 1.970 . S
O678 C648 1.325 1_565 S
O679 Li617 1.961 . S
O679 Li618 1.970 1_565 S
O679 Li619 1.956 . S
O679 C654 1.325 . S
H680 C622 0.929 . S
H681 C623 0.958 . S
H682 C624 0.930 . S
H683 C625 0.930 . S
H684 C627 0.930 . S
H685 C629 0.929 . S
H686 C630 0.930 . S
H687 C631 0.930 . S
H688 C634 0.930 . S
H689 C637 0.929 . S
H690 C642 0.929 . S
H691 C643 0.930 . S
H692 C650 0.929 . S
H693 C651 0.930 . S
H694 C652 0.930 . S
H695 C653 0.930 . S
H696 C655 0.929 . S
H697 C656 0.930 . S
H698 C657 0.930 . S
H699 C658 0.930 . S
H700 C662 0.929 . S
H701 C664 0.930 . S
H702 C670 0.929 . S
H703 C671 0.930 1_545 S
Li704 N721 1.990 . S
Li704 O764 1.956 . S
Li704 O765 1.970 . S
Li704 O766 1.961 . S
Li705 N729 1.990 . S
Li705 O764 1.970 . S
Li705 O765 1.956 . S
Li705 O767 1.961 . S
Li706 N751 1.990 . S
Li706 O764 1.961 1_655 S
Li706 O766 1.956 1_655 S
Li706 O767 1.970 1_655 S
Li707 N757 1.990 . S
Li707 O765 1.961 . S
Li707 O766 1.970 . S
Li707 O767 1.956 . S
C708 C710 1.348 . S
C708 C711 1.356 . S
C708 O764 1.325 . S
N709 C712 1.314 . S
N709 C713 1.279 . S
C710 C708 1.348 . S
C710 C712 1.353 . S
C710 H768 0.929 . S
C711 C708 1.356 . S
C711 C713 1.358 . S
C711 H769 0.930 . S
C712 N709 1.314 . S
C712 C710 1.353 . S
C712 H770 0.930 . S
C713 N709 1.279 . S
C713 C711 1.358 . S
C713 H771 0.930 . S
C714 C717 1.348 . S
C714 C718 1.356 . S
C714 O765 1.325 . S
C715 N716 1.279 . S
C715 C718 1.358 . S
C715 H772 0.930 . S
N716 C715 1.279 . S
N716 C719 1.314 . S
C717 C714 1.348 . S
C717 C719 1.353 . S
C717 H773 0.929 . S
C718 C714 1.356 . S
C718 C715 1.358 . S
C718 H774 0.930 . S
C719 N716 1.314 . S
C719 C717 1.353 . S
C719 H775 0.930 . S
C720 N721 1.314 . S
C720 C725 1.353 . S
C720 H726 0.930 . S
N721 Li704 1.990 . S
N721 C720 1.314 . S
N721 C723 1.279 . S
C722 C723 1.358 . S
C722 C724 1.356 . S
C722 H776 0.930 . S
C723 N721 1.279 . S
C723 C722 1.358 . S
C723 H727 0.930 . S
C724 C722 1.356 . S
C724 C725 1.348 . S
C725 C720 1.353 . S
C725 C724 1.348 . S
C725 H777 0.929 . S
H726 C720 0.930 . S
H727 C723 0.930 . S
C728 N729 1.314 . S
C728 C730 1.353 . S
C728 H734 0.930 . S
N729 Li705 1.990 . S
N729 C728 1.314 . S
N729 C732 1.279 . S
C730 C728 1.353 . S
C730 C733 1.348 . S
C730 H778 0.929 . S
C731 C732 1.358 . S
C731 C733 1.356 . S
C731 H779 0.930 . S
C732 N729 1.279 . S
C732 C731 1.358 . S
C732 H735 0.930 . S
C733 C730 1.348 . S
C733 C731 1.356 . S
H734 C728 0.930 . S
H735 C732 0.930 . S
C736 C738 1.348 . S
C736 C739 1.356 . S
C736 O766 1.325 1_655 S
N737 C740 1.314 . S
N737 C741 1.279 . S
C738 C736 1.348 . S
C738 C740 1.353 . S
C738 H780 0.929 . S
C739 C736 1.356 . S
C739 C741 1.358 . S
C739 H781 0.930 . S
C740 N737 1.314 . S
C740 C738 1.353 . S
C740 H782 0.930 . S
C741 N737 1.279 . S
C741 C739 1.358 . S
C741 H783 0.930 . S
C742 C743 1.348 1_455 S
C742 C744 1.356 . S
C742 O767 1.325 . S
C743 C742 1.348 1_655 S
C743 C745 1.353 . S
C743 H784 0.929 . S
C744 C742 1.356 . S
C744 C746 1.358 . S
C744 H785 0.930 . S
C745 C743 1.353 . S
C745 N747 1.314 . S
C745 H786 0.930 . S
C746 C744 1.358 . S
C746 N747 1.279 1_455 S
C746 H787 0.930 . S
N747 C745 1.314 . S
N747 C746 1.279 1_655 S
C748 C750 1.353 . S
C748 N751 1.314 . S
C748 H754 0.930 . S
C749 N751 1.279 . S
C749 C752 1.358 . S
C749 H755 0.930 . S
C750 C748 1.353 . S
C750 C753 1.348 . S
C750 H788 0.929 . S
N751 Li706 1.990 . S
N751 C748 1.314 . S
N751 C749 1.279 . S
C752 C749 1.358 . S
C752 C753 1.356 . S
C752 H789 0.930 . S
C753 C750 1.348 . S
C753 C752 1.356 . S
H754 C748 0.930 . S
H755 C749 0.930 . S
C756 N757 1.314 . S
C756 C758 1.353 . S
C756 H762 0.930 . S
N757 Li707 1.990 . S
N757 C756 1.314 . S
N757 C760 1.279 . S
C758 C756 1.353 . S
C758 C761 1.348 . S
C758 H790 0.929 . S
C759 C760 1.358 . S
C759 C761 1.356 . S
C759 H791 0.930 1_455 S
C760 N757 1.279 . S
C760 C759 1.358 . S
C760 H763 0.930 . S
C761 C758 1.348 . S
C761 C759 1.356 . S
H762 C756 0.930 . S
H763 C760 0.930 . S
O764 Li704 1.956 . S
O764 Li705 1.970 . S
O764 Li706 1.961 1_455 S
O764 C708 1.325 . S
O765 Li704 1.970 . S
O765 Li705 1.956 . S
O765 Li707 1.961 . S
O765 C714 1.325 . S
O766 Li704 1.961 . S
O766 Li706 1.956 1_455 S
O766 Li707 1.970 . S
O766 C736 1.325 1_455 S
O767 Li705 1.961 . S
O767 Li706 1.970 1_455 S
O767 Li707 1.956 . S
O767 C742 1.325 . S
H768 C710 0.929 . S
H769 C711 0.930 . S
H770 C712 0.930 . S
H771 C713 0.930 . S
H772 C715 0.930 . S
H773 C717 0.929 . S
H774 C718 0.930 . S
H775 C719 0.930 . S
H776 C722 0.930 . S
H777 C725 0.929 . S
H778 C730 0.929 . S
H779 C731 0.930 . S
H780 C738 0.929 . S
H781 C739 0.930 . S
H782 C740 0.930 . S
H783 C741 0.930 . S
H784 C743 0.929 . S
H785 C744 0.930 . S
H786 C745 0.930 . S
H787 C746 0.930 . S
H788 C750 0.929 . S
H789 C752 0.930 . S
H790 C758 0.929 . S
H791 C759 0.930 1_655 S
Li792 N809 1.990 . S
Li792 O852 1.956 1_545 S
Li792 O853 1.970 1_545 S
Li792 O854 1.961 1_545 S
Li793 N817 1.990 . S
Li793 O852 1.970 . S
Li793 O853 1.956 . S
Li793 O855 1.961 . S
Li794 N839 1.990 . S
Li794 O852 1.961 . S
Li794 O854 1.956 . S
Li794 O855 1.970 . S
Li795 N845 1.990 . S
Li795 O853 1.961 . S
Li795 O854 1.970 . S
Li795 O855 1.956 . S
C796 C798 1.348 . S
C796 C799 1.356 . S
C796 O852 1.325 . S
N797 C800 1.314 . S
N797 C801 1.279 . S
C798 C796 1.348 . S
C798 C800 1.353 . S
C798 H856 0.929 . S
C799 C796 1.356 . S
C799 C801 1.358 . S
C799 H857 0.930 . S
C800 N797 1.314 . S
C800 C798 1.353 . S
C800 H858 0.930 . S
C801 N797 1.279 . S
C801 C799 1.358 . S
C801 H859 0.930 . S
C802 C805 1.348 1_565 S
C802 C806 1.356 . S
C802 O853 1.325 . S
C803 N804 1.279 1_565 S
C803 C806 1.358 . S
C803 H860 0.930 . S
N804 C803 1.279 1_545 S
N804 C807 1.314 . S
C805 C802 1.348 1_545 S
C805 C807 1.353 . S
C805 H861 0.929 . S
C806 C802 1.356 . S
C806 C803 1.358 . S
C806 H862 0.930 . S
C807 N804 1.314 . S
C807 C805 1.353 . S
C807 H863 0.930 . S
C808 N809 1.314 . S
C808 C813 1.353 . S
C808 H814 0.930 . S
N809 Li792 1.990 . S
N809 C808 1.314 . S
N809 C811 1.279 . S
C810 C811 1.358 . S
C810 C812 1.356 . S
C810 H864 0.930 . S
C811 N809 1.279 . S
C811 C810 1.358 . S
C811 H815 0.930 . S
C812 C810 1.356 . S
C812 C813 1.348 . S
C813 C808 1.353 . S
C813 C812 1.348 . S
C813 H865 0.929 . S
H814 C808 0.930 . S
H815 C811 0.930 . S
C816 N817 1.314 . S
C816 C818 1.353 . S
C816 H822 0.930 . S
N817 Li793 1.990 . S
N817 C816 1.314 . S
N817 C820 1.279 . S
C818 C816 1.353 . S
C818 C821 1.348 . S
C818 H866 0.929 . S
C819 C820 1.358 . S
C819 C821 1.356 . S
C819 H867 0.930 . S
C820 N817 1.279 . S
C820 C819 1.358 . S
C820 H823 0.930 . S
C821 C818 1.348 . S
C821 C819 1.356 . S
H822 C816 0.930 . S
H823 C820 0.930 . S
C824 C826 1.348 . S
C824 C827 1.356 . S
C824 O854 1.325 1_545 S
N825 C828 1.314 . S
N825 C829 1.279 . S
C826 C824 1.348 . S
C826 C828 1.353 . S
C826 H868 0.924 1_545 S
C827 C824 1.356 . S
C827 C829 1.358 . S
C827 H869 0.930 . S
C828 N825 1.314 . S
C828 C826 1.353 . S
C828 H870 0.930 . S
C829 N825 1.279 . S
C829 C827 1.358 . S
C829 H871 0.930 . S
C830 C831 1.348 . S
C830 C832 1.356 . S
C830 O855 1.325 . S
C831 C830 1.348 . S
C831 C833 1.353 . S
C831 H872 0.929 . S
C832 C830 1.356 . S
C832 C834 1.358 . S
C832 H873 0.930 . S
C833 C831 1.353 . S
C833 N835 1.314 . S
C833 H874 0.930 . S
C834 C832 1.358 . S
C834 N835 1.279 . S
C834 H875 0.930 . S
N835 C833 1.314 . S
N835 C834 1.279 . S
C836 C838 1.353 . S
C836 N839 1.314 . S
C836 H842 0.930 . S
C837 N839 1.279 . S
C837 C840 1.358 . S
C837 H843 0.930 . S
C838 C836 1.353 . S
C838 C841 1.348 . S
C838 H876 0.929 . S
N839 Li794 1.990 . S
N839 C836 1.314 . S
N839 C837 1.279 . S
C840 C837 1.358 . S
C840 C841 1.356 . S
C840 H877 0.930 . S
C841 C838 1.348 . S
C841 C840 1.356 . S
H842 C836 0.930 . S
H843 C837 0.930 . S
C844 N845 1.314 . S
C844 C846 1.323 1_565 S
C844 H850 0.930 1_565 S
N845 Li795 1.990 . S
N845 C844 1.314 . S
N845 C848 1.279 . S
C846 C844 1.323 1_545 S
C846 C849 1.331 1_545 S
C846 H878 0.977 . S
C847 C848 1.358 . S
C847 C849 1.356 . S
C847 H879 0.930 . S
C848 N845 1.279 . S
C848 C847 1.358 . S
C848 H851 0.930 . S
C849 C846 1.331 1_565 S
C849 C847 1.356 . S
H850 C844 0.930 1_545 S
H851 C848 0.930 . S
O852 Li792 1.956 1_565 S
O852 Li793 1.970 . S
O852 Li794 1.961 . S
O852 C796 1.325 . S
O853 Li792 1.970 1_565 S
O853 Li793 1.956 . S
O853 Li795 1.961 . S
O853 C802 1.325 . S
O854 Li792 1.961 1_565 S
O854 Li794 1.956 . S
O854 Li795 1.970 . S
O854 C824 1.325 1_565 S
O855 Li793 1.961 . S
O855 Li794 1.970 . S
O855 Li795 1.956 . S
O855 C830 1.325 . S
H856 C798 0.929 . S
H857 C799 0.930 . S
H858 C800 0.930 . S
H859 C801 0.930 . S
H860 C803 0.930 . S
H861 C805 0.929 . S
H862 C806 0.930 . S
H863 C807 0.930 . S
H864 C810 0.930 . S
H865 C813 0.929 . S
H866 C818 0.929 . S
H867 C819 0.930 . S
H868 C826 0.924 1_565 S
H869 C827 0.930 . S
H870 C828 0.930 . S
H871 C829 0.930 . S
H872 C831 0.929 . S
H873 C832 0.930 . S
H874 C833 0.930 . S
H875 C834 0.930 . S
H876 C838 0.929 . S
H877 C840 0.930 . S
H878 C846 0.977 . S
H879 C847 0.930 . S
Li880 N897 1.990 . S
Li880 O940 1.956 . S
Li880 O941 1.970 . S
Li880 O942 1.961 . S
Li881 N905 1.990 . S
Li881 O940 1.970 1_655 S
Li881 O941 1.956 1_655 S
Li881 O943 1.961 1_655 S
Li882 N927 1.990 . S
Li882 O940 1.961 . S
Li882 O942 1.956 . S
Li882 O943 1.970 . S
Li883 N933 1.990 . S
Li883 O941 1.961 . S
Li883 O942 1.970 . S
Li883 O943 1.956 . S
C884 C886 1.348 1_455 S
C884 C887 1.356 . S
C884 O940 1.325 . S
N885 C888 1.314 . S
N885 C889 1.279 1_655 S
C886 C884 1.348 1_655 S
C886 C888 1.353 . S
C886 H944 0.929 . S
C887 C884 1.356 . S
C887 C889 1.358 . S
C887 H945 0.930 . S
C888 N885 1.314 . S
C888 C886 1.353 . S
C888 H946 0.930 . S
C889 N885 1.279 1_455 S
C889 C887 1.358 . S
C889 H947 0.930 . S
C890 C893 1.348 . S
C890 C894 1.356 . S
C890 O941 1.325 . S
C891 N892 1.279 . S
C891 C894 1.358 . S
C891 H948 0.930 . S
N892 C891 1.279 . S
N892 C895 1.314 . S
C893 C890 1.348 . S
C893 C895 1.353 . S
C893 H949 0.929 . S
C894 C890 1.356 . S
C894 C891 1.358 . S
C894 H950 0.930 . S
C895 N892 1.314 . S
C895 C893 1.353 . S
C895 H951 0.930 . S
C896 N897 1.314 . S
C896 C901 1.353 . S
C896 H902 0.930 . S
N897 Li880 1.990 . S
N897 C896 1.314 . S
N897 C899 1.279 . S
C898 C899 1.358 . S
C898 C900 1.356 . S
C898 H952 0.930 . S
C899 N897 1.279 . S
C899 C898 1.358 . S
C899 H903 0.930 . S
C900 C898 1.356 . S
C900 C901 1.348 . S
C901 C896 1.353 . S
C901 C900 1.348 . S
C901 H953 0.929 . S
H902 C896 0.930 . S
H903 C899 0.930 . S
C904 N905 1.314 . S
C904 C906 1.353 . S
C904 H910 0.930 . S
N905 Li881 1.990 . S
N905 C904 1.314 . S
N905 C908 1.279 . S
C906 C904 1.353 . S
C906 C909 1.348 . S
C906 H954 0.929 . S
C907 C908 1.358 . S
C907 C909 1.356 . S
C907 H955 0.930 . S
C908 N905 1.279 . S
C908 C907 1.358 . S
C908 H911 0.930 . S
C909 C906 1.348 . S
C909 C907 1.356 . S
H910 C904 0.930 . S
H911 C908 0.930 . S
C912 C914 1.348 . S
C912 C915 1.356 . S
C912 O942 1.325 . S
N913 C916 1.314 . S
N913 C917 1.279 . S
C914 C912 1.348 . S
C914 C916 1.353 . S
C914 H956 0.929 . S
C915 C912 1.356 . S
C915 C917 1.358 . S
C915 H957 0.930 . S
C916 N913 1.314 . S
C916 C914 1.353 . S
C916 H958 0.930 . S
C917 N913 1.279 . S
C917 C915 1.358 . S
C917 H959 0.930 . S
C918 C919 1.348 . S
C918 C920 1.356 . S
C918 O943 1.325 1_655 S
C919 C918 1.348 . S
C919 C921 1.353 . S
C919 H960 0.915 1_655 S
C920 C918 1.356 . S
C920 C922 1.358 . S
C920 H961 0.930 . S
C921 C919 1.353 . S
C921 N923 1.314 . S
C921 H962 0.930 . S
C922 C920 1.358 . S
C922 N923 1.279 . S
C922 H963 0.930 . S
N923 C921 1.314 . S
N923 C922 1.279 . S
C924 C926 1.367 1_455 S
C924 N927 1.314 . S
C924 H930 0.930 1_455 S
C925 N927 1.279 . S
C925 C928 1.358 . S
C925 H931 0.930 . S
C926 C924 1.367 1_655 S
C926 C929 1.315 1_655 S
C926 H964 0.949 . S
N927 Li882 1.990 . S
N927 C924 1.314 . S
N927 C925 1.279 . S
C928 C925 1.358 . S
C928 C929 1.356 . S
C928 H965 0.930 . S
C929 C926 1.315 1_455 S
C929 C928 1.356 . S
H930 C924 0.930 1_655 S
H931 C925 0.930 . S
C932 N933 1.314 . S
C932 C934 1.353 . S
C932 H938 0.930 . S
N933 Li883 1.990 . S
N933 C932 1.314 . S
N933 C936 1.279 . S
C934 C932 1.353 . S
C934 C937 1.348 . S
C934 H966 0.929 . S
C935 C936 1.358 . S
C935 C937 1.356 . S
C935 H967 0.930 . S
C936 N933 1.279 . S
C936 C935 1.358 . S
C936 H939 0.930 . S
C937 C934 1.348 . S
C937 C935 1.356 . S
H938 C932 0.930 . S
H939 C936 0.930 . S
O940 Li880 1.956 . S
O940 Li881 1.970 1_455 S
O940 Li882 1.961 . S
O940 C884 1.325 . S
O941 Li880 1.970 . S
O941 Li881 1.956 1_455 S
O941 Li883 1.961 . S
O941 C890 1.325 . S
O942 Li880 1.961 . S
O942 Li882 1.956 . S
O942 Li883 1.970 . S
O942 C912 1.325 . S
O943 Li881 1.961 1_455 S
O943 Li882 1.970 . S
O943 Li883 1.956 . S
O943 C918 1.325 1_455 S
H944 C886 0.929 . S
H945 C887 0.930 . S
H946 C888 0.930 . S
H947 C889 0.930 . S
H948 C891 0.930 . S
H949 C893 0.929 . S
H950 C894 0.930 . S
H951 C895 0.930 . S
H952 C898 0.930 . S
H953 C901 0.929 . S
H954 C906 0.929 . S
H955 C907 0.930 . S
H956 C914 0.929 . S
H957 C915 0.930 . S
H958 C916 0.930 . S
H959 C917 0.930 . S
H960 C919 0.915 1_455 S
H961 C920 0.930 . S
H962 C921 0.930 . S
H963 C922 0.930 . S
H964 C926 0.949 . S
H965 C928 0.930 . S
H966 C934 0.929 . S
H967 C935 0.930 . S
Li968 N985 1.990 . S
Li968 O1028 1.956 . S
Li968 O1029 1.970 . S
Li968 O1030 1.961 . S
Li969 N993 1.990 . S
Li969 O1028 1.970 . S
Li969 O1029 1.956 . S
Li969 O1031 1.961 . S
Li970 N1015 1.990 . S
Li970 O1028 1.961 . S
Li970 O1030 1.956 . S
Li970 O1031 1.970 . S
Li971 N1021 1.990 . S
Li971 O1029 1.961 . S
Li971 O1030 1.970 . S
Li971 O1031 1.956 . S
C972 C974 1.348 . S
C972 C975 1.356 . S
C972 O1028 1.325 . S
N973 C976 1.314 . S
N973 C977 1.279 . S
C974 C972 1.348 . S
C974 C976 1.353 . S
C974 H1032 0.929 . S
C975 C972 1.356 . S
C975 C977 1.358 . S
C975 H1033 0.930 . S
C976 N973 1.314 . S
C976 C974 1.353 . S
C976 H1034 0.930 . S
C977 N973 1.279 . S
C977 C975 1.358 . S
C977 H1035 0.930 . S
C978 C981 1.348 . S
C978 C982 1.356 . S
C978 O1029 1.325 . S
C979 N980 1.279 . S
C979 C982 1.358 . S
C979 H1036 0.930 . S
N980 C979 1.279 . S
N980 C983 1.314 . S
C981 C978 1.348 . S
C981 C983 1.353 . S
C981 H1037 0.929 . S
C982 C978 1.356 . S
C982 C979 1.358 . S
C982 H1038 0.930 . S
C983 N980 1.314 . S
C983 C981 1.353 . S
C983 H1039 0.930 . S
C984 N985 1.314 . S
C984 C989 1.353 . S
C984 H990 0.930 . S
N985 Li968 1.990 . S
N985 C984 1.314 . S
N985 C987 1.279 . S
C986 C987 1.358 . S
C986 C988 1.356 . S
C986 H1040 0.930 . S
C987 N985 1.279 . S
C987 C986 1.358 . S
C987 H991 0.930 . S
C988 C986 1.356 . S
C988 C989 1.348 . S
C989 C984 1.353 . S
C989 C988 1.348 . S
C989 H1041 0.929 . S
H990 C984 0.930 . S
H991 C987 0.930 . S
C992 N993 1.314 . S
C992 C994 1.353 . S
C992 H998 0.930 . S
N993 Li969 1.990 . S
N993 C992 1.314 . S
N993 C996 1.279 . S
C994 C992 1.353 . S
C994 C997 1.348 . S
C994 H1042 0.929 . S
C995 C996 1.358 . S
C995 C997 1.356 . S
C995 H1043 0.930 . S
C996 N993 1.279 . S
C996 C995 1.358 . S
C996 H999 0.930 . S
C997 C994 1.348 . S
C997 C995 1.356 . S
H998 C992 0.930 . S
H999 C996 0.930 . S
C1000 C1002 1.348 . S
C1000 C1003 1.356 . S
C1000 O1030 1.325 . S
N1001 C1004 1.314 . S
N1001 C1005 1.279 . S
C1002 C1000 1.348 . S
C1002 C1004 1.353 . S
C1002 H1044 0.929 . S
C1003 C1000 1.356 . S
C1003 C1005 1.358 . S
C1003 H1045 0.930 . S
C1004 N1001 1.314 . S
C1004 C1002 1.353 . S
C1004 H1046 0.930 . S
C1005 N1001 1.279 . S
C1005 C1003 1.358 . S
C1005 H1047 0.930 . S
C1006 C1007 1.348 . S
C1006 C1008 1.356 . S
C1006 O1031 1.325 . S
C1007 C1006 1.348 . S
C1007 C1009 1.353 . S
C1007 H1048 0.929 . S
C1008 C1006 1.356 . S
C1008 C1010 1.358 . S
C1008 H1049 0.930 . S
C1009 C1007 1.353 . S
C1009 N1011 1.314 . S
C1009 H1050 0.930 . S
C1010 C1008 1.358 . S
C1010 N1011 1.279 . S
C1010 H1051 0.930 . S
N1011 C1009 1.314 . S
N1011 C1010 1.279 . S
C1012 C1014 1.353 . S
C1012 N1015 1.314 . S
C1012 H1018 0.930 . S
C1013 N1015 1.279 . S
C1013 C1016 1.358 . S
C1013 H1019 0.930 . S
C1014 C1012 1.353 . S
C1014 C1017 1.348 . S
C1014 H1052 0.929 . S
N1015 Li970 1.990 . S
N1015 C1012 1.314 . S
N1015 C1013 1.279 . S
C1016 C1013 1.358 . S
C1016 C1017 1.356 . S
C1016 H1053 0.930 . S
C1017 C1014 1.348 . S
C1017 C1016 1.356 . S
H1018 C1012 0.930 . S
H1019 C1013 0.930 . S
C1020 N1021 1.314 . S
C1020 C1022 1.353 . S
C1020 H1026 0.930 . S
N1021 Li971 1.990 . S
N1021 C1020 1.314 . S
N1021 C1024 1.279 . S
C1022 C1020 1.353 . S
C1022 C1025 1.348 . S
C1022 H1054 0.929 . S
C1023 C1024 1.358 . S
C1023 C1025 1.356 . S
C1023 H1055 0.930 . S
C1024 N1021 1.279 . S
C1024 C1023 1.358 . S
C1024 H1027 0.930 . S
C1025 C1022 1.348 . S
C1025 C1023 1.356 . S
H1026 C1020 0.930 . S
H1027 C1024 0.930 . S
O1028 Li968 1.956 . S
O1028 Li969 1.970 . S
O1028 Li970 1.961 . S
O1028 C972 1.325 . S
O1029 Li968 1.970 . S
O1029 Li969 1.956 . S
O1029 Li971 1.961 . S
O1029 C978 1.325 . S
O1030 Li968 1.961 . S
O1030 Li970 1.956 . S
O1030 Li971 1.970 . S
O1030 C1000 1.325 . S
O1031 Li969 1.961 . S
O1031 Li970 1.970 . S
O1031 Li971 1.956 . S
O1031 C1006 1.325 . S
H1032 C974 0.929 . S
H1033 C975 0.930 . S
H1034 C976 0.930 . S
H1035 C977 0.930 . S
H1036 C979 0.930 . S
H1037 C981 0.929 . S
H1038 C982 0.930 . S
H1039 C983 0.930 . S
H1040 C986 0.930 . S
H1041 C989 0.929 . S
H1042 C994 0.929 . S
H1043 C995 0.930 . S
H1044 C1002 0.929 . S
H1045 C1003 0.930 . S
H1046 C1004 0.930 . S
H1047 C1005 0.930 . S
H1048 C1007 0.929 . S
H1049 C1008 0.930 . S
H1050 C1009 0.930 . S
H1051 C1010 0.930 . S
H1052 C1014 0.929 . S
H1053 C1016 0.930 . S
H1054 C1022 0.929 . S
H1055 C1023 0.930 . S
Li1056 N1073 1.990 . S
Li1056 O1116 1.956 1_565 S
Li1056 O1117 1.970 1_565 S
Li1056 O1118 1.961 1_565 S
Li1057 N1081 1.990 . S
Li1057 O1116 1.970 . S
Li1057 O1117 1.956 . S
Li1057 O1119 1.961 . S
Li1058 N1103 1.990 . S
Li1058 O1116 1.961 . S
Li1058 O1118 1.956 . S
Li1058 O1119 1.970 . S
Li1059 N1109 1.990 . S
Li1059 O1117 1.961 . S
Li1059 O1118 1.970 . S
Li1059 O1119 1.956 . S
C1060 C1062 1.348 . S
C1060 C1063 1.356 . S
C1060 O1116 1.325 1_565 S
N1061 C1064 1.314 . S
N1061 C1065 1.279 . S
C1062 C1060 1.348 . S
C1062 C1064 1.353 . S
C1062 H1120 0.929 . S
C1063 C1060 1.356 . S
C1063 C1065 1.358 . S
C1063 H1121 0.930 . S
C1064 N1061 1.314 . S
C1064 C1062 1.353 . S
C1064 H1122 0.930 . S
C1065 N1061 1.279 . S
C1065 C1063 1.358 . S
C1065 H1123 0.930 . S
C1066 C1069 1.348 1_545 S
C1066 C1070 1.356 . S
C1066 O1117 1.325 . S
C1067 N1068 1.279 1_545 S
C1067 C1070 1.358 . S
C1067 H1124 0.930 . S
N1068 C1067 1.279 1_565 S
N1068 C1071 1.314 . S
C1069 C1066 1.348 1_565 S
C1069 C1071 1.353 . S
C1069 H1125 0.929 . S
C1070 C1066 1.356 . S
C1070 C1067 1.358 . S
C1070 H1126 0.930 . S
C1071 N1068 1.314 . S
C1071 C1069 1.353 . S
C1071 H1127 0.930 . S
C1072 N1073 1.314 . S
C1072 C1077 1.353 . S
C1072 H1078 0.930 . S
N1073 Li1056 1.990 . S
N1073 C1072 1.314 . S
N1073 C1075 1.279 . S
C1074 C1075 1.358 . S
C1074 C1076 1.356 . S
C1074 H1128 0.930 . S
C1075 N1073 1.279 . S
C1075 C1074 1.358 . S
C1075 H1079 0.930 . S
C1076 C1074 1.356 . S
C1076 C1077 1.348 . S
C1077 C1072 1.353 . S
C1077 C1076 1.348 . S
C1077 H1129 0.929 . S
H1078 C1072 0.930 . S
H1079 C1075 0.930 . S
C1080 N1081 1.314 . S
C1080 C1082 1.353 . S
C1080 H1086 0.930 . S
N1081 Li1057 1.990 . S
N1081 C1080 1.314 . S
N1081 C1084 1.279 . S
C1082 C1080 1.353 . S
C1082 C1085 1.348 . S
C1082 H1130 0.929 . S
C1083 C1084 1.358 . S
C1083 C1085 1.356 . S
C1083 H1131 0.930 1_545 S
C1084 N1081 1.279 . S
C1084 C1083 1.358 . S
C1084 H1087 0.926 1_545 S
C1085 C1082 1.348 . S
C1085 C1083 1.356 . S
H1086 C1080 0.930 . S
H1087 C1084 0.926 1_565 S
C1088 C1090 1.348 . S
C1088 C1091 1.356 . S
C1088 O1118 1.325 . S
N1089 C1092 1.314 . S
N1089 C1093 1.279 . S
C1090 C1088 1.348 . S
C1090 C1092 1.353 . S
C1090 H1132 0.929 . S
C1091 C1088 1.356 . S
C1091 C1093 1.358 . S
C1091 H1133 0.930 . S
C1092 N1089 1.314 . S
C1092 C1090 1.353 . S
C1092 H1134 0.930 . S
C1093 N1089 1.279 . S
C1093 C1091 1.358 . S
C1093 H1135 0.930 . S
C1094 C1095 1.348 . S
C1094 C1096 1.356 . S
C1094 O1119 1.325 . S
C1095 C1094 1.348 . S
C1095 C1097 1.353 . S
C1095 H1136 0.929 . S
C1096 C1094 1.356 . S
C1096 C1098 1.358 . S
C1096 H1137 0.930 . S
C1097 C1095 1.353 . S
C1097 N1099 1.314 . S
C1097 H1138 0.930 . S
C1098 C1096 1.358 . S
C1098 N1099 1.279 . S
C1098 H1139 0.930 . S
N1099 C1097 1.314 . S
N1099 C1098 1.279 . S
C1100 C1102 1.353 . S
C1100 N1103 1.314 . S
C1100 H1106 0.930 . S
C1101 N1103 1.279 . S
C1101 C1104 1.358 . S
C1101 H1107 0.930 . S
C1102 C1100 1.353 . S
C1102 C1105 1.348 . S
C1102 H1140 0.929 . S
N1103 Li1058 1.990 . S
N1103 C1100 1.314 . S
N1103 C1101 1.279 . S
C1104 C1101 1.358 . S
C1104 C1105 1.356 . S
C1104 H1141 0.930 . S
C1105 C1102 1.348 . S
C1105 C1104 1.356 . S
H1106 C1100 0.930 . S
H1107 C1101 0.930 . S
C1108 N1109 1.314 . S
C1108 C1110 1.353 . S
C1108 H1114 0.930 . S
N1109 Li1059 1.990 . S
N1109 C1108 1.314 . S
N1109 C1112 1.279 . S
C1110 C1108 1.353 . S
C1110 C1113 1.348 . S
C1110 H1142 0.929 . S
C1111 C1112 1.358 . S
C1111 C1113 1.356 . S
C1111 H1143 0.930 . S
C1112 N1109 1.279 . S
C1112 C1111 1.358 . S
C1112 H1115 0.930 . S
C1113 C1110 1.348 . S
C1113 C1111 1.356 . S
H1114 C1108 0.930 . S
H1115 C1112 0.930 . S
O1116 Li1056 1.956 1_545 S
O1116 Li1057 1.970 . S
O1116 Li1058 1.961 . S
O1116 C1060 1.325 1_545 S
O1117 Li1056 1.970 1_545 S
O1117 Li1057 1.956 . S
O1117 Li1059 1.961 . S
O1117 C1066 1.325 . S
O1118 Li1056 1.961 1_545 S
O1118 Li1058 1.956 . S
O1118 Li1059 1.970 . S
O1118 C1088 1.325 . S
O1119 Li1057 1.961 . S
O1119 Li1058 1.970 . S
O1119 Li1059 1.956 . S
O1119 C1094 1.325 . S
H1120 C1062 0.929 . S
H1121 C1063 0.930 . S
H1122 C1064 0.930 . S
H1123 C1065 0.930 . S
H1124 C1067 0.930 . S
H1125 C1069 0.929 . S
H1126 C1070 0.930 . S
H1127 C1071 0.930 . S
H1128 C1074 0.930 . S
H1129 C1077 0.929 . S
H1130 C1082 0.929 . S
H1131 C1083 0.930 1_565 S
H1132 C1090 0.929 . S
H1133 C1091 0.930 . S
H1134 C1092 0.930 . S
H1135 C1093 0.930 . S
H1136 C1095 0.929 . S
H1137 C1096 0.930 . S
H1138 C1097 0.930 . S
H1139 C1098 0.930 . S
H1140 C1102 0.929 . S
H1141 C1104 0.930 . S
H1142 C1110 0.929 . S
H1143 C1111 0.930 . S
Li1144 N1161 1.990 . S
Li1144 O1204 1.956 1_455 S
Li1144 O1205 1.970 1_455 S
Li1144 O1206 1.961 1_455 S
Li1145 N1169 1.990 . S
Li1145 O1204 1.970 . S
Li1145 O1205 1.956 . S
Li1145 O1207 1.961 . S
Li1146 N1191 1.990 . S
Li1146 O1204 1.961 . S
Li1146 O1206 1.956 . S
Li1146 O1207 1.970 . S
Li1147 N1197 1.990 . S
Li1147 O1205 1.961 . S
Li1147 O1206 1.970 . S
Li1147 O1207 1.956 . S
C1148 C1150 1.348 . S
C1148 C1151 1.356 . S
C1148 O1204 1.325 1_455 S
N1149 C1152 1.314 . S
N1149 C1153 1.279 . S
C1150 C1148 1.348 . S
C1150 C1152 1.353 . S
C1150 H1208 0.929 . S
C1151 C1148 1.356 . S
C1151 C1153 1.358 . S
C1151 H1209 0.930 . S
C1152 N1149 1.314 . S
C1152 C1150 1.353 . S
C1152 H1210 0.930 . S
C1153 N1149 1.279 . S
C1153 C1151 1.358 . S
C1153 H1211 0.930 . S
C1154 C1157 1.348 1_655 S
C1154 C1158 1.356 . S
C1154 O1205 1.325 . S
C1155 N1156 1.279 1_655 S
C1155 C1158 1.358 . S
C1155 H1212 0.930 . S
N1156 C1155 1.279 1_455 S
N1156 C1159 1.314 . S
C1157 C1154 1.348 1_455 S
C1157 C1159 1.353 . S
C1157 H1213 0.929 . S
C1158 C1154 1.356 . S
C1158 C1155 1.358 . S
C1158 H1214 0.930 . S
C1159 N1156 1.314 . S
C1159 C1157 1.353 . S
C1159 H1215 0.930 . S
C1160 N1161 1.314 . S
C1160 C1165 1.353 . S
C1160 H1166 0.930 . S
N1161 Li1144 1.990 . S
N1161 C1160 1.314 . S
N1161 C1163 1.279 . S
C1162 C1163 1.358 . S
C1162 C1164 1.356 . S
C1162 H1216 0.930 . S
C1163 N1161 1.279 . S
C1163 C1162 1.358 . S
C1163 H1167 0.930 . S
C1164 C1162 1.356 . S
C1164 C1165 1.348 . S
C1165 C1160 1.353 . S
C1165 C1164 1.348 . S
C1165 H1217 0.929 . S
H1166 C1160 0.930 . S
H1167 C1163 0.930 . S
C1168 N1169 1.314 . S
C1168 C1170 1.353 . S
C1168 H1174 0.930 . S
N1169 Li1145 1.990 . S
N1169 C1168 1.314 . S
N1169 C1172 1.279 . S
C1170 C1168 1.353 . S
C1170 C1173 1.348 . S
C1170 H1218 0.929 . S
C1171 C1172 1.358 . S
C1171 C1173 1.356 . S
C1171 H1219 0.930 1_655 S
C1172 N1169 1.279 . S
C1172 C1171 1.358 . S
C1172 H1175 0.912 1_655 S
C1173 C1170 1.348 . S
C1173 C1171 1.356 . S
H1174 C1168 0.930 . S
H1175 C1172 0.912 1_455 S
C1176 C1178 1.348 . S
C1176 C1179 1.356 . S
C1176 O1206 1.325 . S
N1177 C1180 1.314 . S
N1177 C1181 1.279 . S
C1178 C1176 1.348 . S
C1178 C1180 1.353 . S
C1178 H1220 0.929 . S
C1179 C1176 1.356 . S
C1179 C1181 1.358 . S
C1179 H1221 0.930 . S
C1180 N1177 1.314 . S
C1180 C1178 1.353 . S
C1180 H1222 0.930 . S
C1181 N1177 1.279 . S
C1181 C1179 1.358 . S
C1181 H1223 0.930 . S
C1182 C1183 1.348 . S
C1182 C1184 1.356 . S
C1182 O1207 1.325 . S
C1183 C1182 1.348 . S
C1183 C1185 1.353 . S
C1183 H1224 0.929 . S
C1184 C1182 1.356 . S
C1184 C1186 1.358 . S
C1184 H1225 0.930 . S
C1185 C1183 1.353 . S
C1185 N1187 1.314 . S
C1185 H1226 0.930 . S
C1186 C1184 1.358 . S
C1186 N1187 1.279 . S
C1186 H1227 0.930 . S
N1187 C1185 1.314 . S
N1187 C1186 1.279 . S
C1188 C1190 1.353 . S
C1188 N1191 1.314 . S
C1188 H1194 0.930 . S
C1189 N1191 1.279 . S
C1189 C1192 1.358 . S
C1189 H1195 0.930 . S
C1190 C1188 1.353 . S
C1190 C1193 1.348 . S
C1190 H1228 0.929 . S
N1191 Li1146 1.990 . S
N1191 C1188 1.314 . S
N1191 C1189 1.279 . S
C1192 C1189 1.358 . S
C1192 C1193 1.356 . S
C1192 H1229 0.930 . S
C1193 C1190 1.348 . S
C1193 C1192 1.356 . S
H1194 C1188 0.930 . S
H1195 C1189 0.930 . S
C1196 N1197 1.314 . S
C1196 C1198 1.353 . S
C1196 H1202 0.930 . S
N1197 Li1147 1.990 . S
N1197 C1196 1.314 . S
N1197 C1200 1.279 . S
C1198 C1196 1.353 . S
C1198 C1201 1.348 . S
C1198 H1230 0.929 . S
C1199 C1200 1.358 . S
C1199 C1201 1.356 . S
C1199 H1231 0.930 . S
C1200 N1197 1.279 . S
C1200 C1199 1.358 . S
C1200 H1203 0.930 . S
C1201 C1198 1.348 . S
C1201 C1199 1.356 . S
H1202 C1196 0.930 . S
H1203 C1200 0.930 . S
O1204 Li1144 1.956 1_655 S
O1204 Li1145 1.970 . S
O1204 Li1146 1.961 . S
O1204 C1148 1.325 1_655 S
O1205 Li1144 1.970 1_655 S
O1205 Li1145 1.956 . S
O1205 Li1147 1.961 . S
O1205 C1154 1.325 . S
O1206 Li1144 1.961 1_655 S
O1206 Li1146 1.956 . S
O1206 Li1147 1.970 . S
O1206 C1176 1.325 . S
O1207 Li1145 1.961 . S
O1207 Li1146 1.970 . S
O1207 Li1147 1.956 . S
O1207 C1182 1.325 . S
H1208 C1150 0.929 . S
H1209 C1151 0.930 . S
H1210 C1152 0.930 . S
H1211 C1153 0.930 . S
H1212 C1155 0.930 . S
H1213 C1157 0.929 . S
H1214 C1158 0.930 . S
H1215 C1159 0.930 . S
H1216 C1162 0.930 . S
H1217 C1165 0.929 . S
H1218 C1170 0.929 . S
H1219 C1171 0.930 1_455 S
H1220 C1178 0.929 . S
H1221 C1179 0.930 . S
H1222 C1180 0.930 . S
H1223 C1181 0.930 . S
H1224 C1183 0.929 . S
H1225 C1184 0.930 . S
H1226 C1185 0.930 . S
H1227 C1186 0.930 . S
H1228 C1190 0.929 . S
H1229 C1192 0.930 . S
H1230 C1198 0.929 . S
H1231 C1199 0.930 . S
Li1232 N1249 1.990 . S
Li1232 O1292 1.956 . S
Li1232 O1293 1.970 . S
Li1232 O1294 1.961 . S
Li1233 N1257 1.990 . S
Li1233 O1292 1.970 . S
Li1233 O1293 1.956 . S
Li1233 O1295 1.961 . S
Li1234 N1279 1.990 . S
Li1234 O1292 1.961 . S
Li1234 O1294 1.956 . S
Li1234 O1295 1.970 . S
Li1235 N1285 1.990 . S
Li1235 O1293 1.961 . S
Li1235 O1294 1.970 . S
Li1235 O1295 1.956 . S
C1236 C1238 1.348 . S
C1236 C1239 1.356 . S
C1236 O1292 1.325 . S
N1237 C1240 1.314 . S
N1237 C1241 1.279 . S
C1238 C1236 1.348 . S
C1238 C1240 1.353 . S
C1238 H1296 0.929 . S
C1239 C1236 1.356 . S
C1239 C1241 1.358 . S
C1239 H1297 0.930 . S
C1240 N1237 1.314 . S
C1240 C1238 1.353 . S
C1240 H1298 0.930 . S
C1241 N1237 1.279 . S
C1241 C1239 1.358 . S
C1241 H1299 0.930 . S
C1242 C1245 1.348 . S
C1242 C1246 1.356 . S
C1242 O1293 1.325 . S
C1243 N1244 1.279 . S
C1243 C1246 1.358 . S
C1243 H1300 0.930 . S
N1244 C1243 1.279 . S
N1244 C1247 1.314 . S
C1245 C1242 1.348 . S
C1245 C1247 1.353 . S
C1245 H1301 0.929 . S
C1246 C1242 1.356 . S
C1246 C1243 1.358 . S
C1246 H1302 0.930 . S
C1247 N1244 1.314 . S
C1247 C1245 1.353 . S
C1247 H1303 0.930 . S
C1248 N1249 1.314 . S
C1248 C1253 1.353 . S
C1248 H1254 0.930 . S
N1249 Li1232 1.990 . S
N1249 C1248 1.314 . S
N1249 C1251 1.279 . S
C1250 C1251 1.358 . S
C1250 C1252 1.356 . S
C1250 H1304 0.930 . S
C1251 N1249 1.279 . S
C1251 C1250 1.358 . S
C1251 H1255 0.930 . S
C1252 C1250 1.356 . S
C1252 C1253 1.348 . S
C1253 C1248 1.353 . S
C1253 C1252 1.348 . S
C1253 H1305 0.929 . S
H1254 C1248 0.930 . S
H1255 C1251 0.930 . S
C1256 N1257 1.314 . S
C1256 C1258 1.353 . S
C1256 H1262 0.930 . S
N1257 Li1233 1.990 . S
N1257 C1256 1.314 . S
N1257 C1260 1.279 . S
C1258 C1256 1.353 . S
C1258 C1261 1.348 . S
C1258 H1306 0.929 . S
C1259 C1260 1.358 . S
C1259 C1261 1.356 . S
C1259 H1307 0.930 . S
C1260 N1257 1.279 . S
C1260 C1259 1.358 . S
C1260 H1263 0.930 . S
C1261 C1258 1.348 . S
C1261 C1259 1.356 . S
H1262 C1256 0.930 . S
H1263 C1260 0.930 . S
C1264 C1266 1.348 . S
C1264 C1267 1.356 . S
C1264 O1294 1.325 . S
N1265 C1268 1.314 . S
N1265 C1269 1.279 . S
C1266 C1264 1.348 . S
C1266 C1268 1.353 . S
C1266 H1308 0.929 . S
C1267 C1264 1.356 . S
C1267 C1269 1.358 . S
C1267 H1309 0.930 . S
C1268 N1265 1.314 . S
C1268 C1266 1.353 . S
C1268 H1310 0.930 . S
C1269 N1265 1.279 . S
C1269 C1267 1.358 . S
C1269 H1311 0.930 . S
C1270 C1271 1.348 . S
C1270 C1272 1.356 . S
C1270 O1295 1.325 . S
C1271 C1270 1.348 . S
C1271 C1273 1.353 . S
C1271 H1312 0.929 . S
C1272 C1270 1.356 . S
C1272 C1274 1.358 . S
C1272 H1313 0.930 . S
C1273 C1271 1.353 . S
C1273 N1275 1.314 . S
C1273 H1314 0.930 . S
C1274 C1272 1.358 . S
C1274 N1275 1.279 . S
C1274 H1315 0.930 . S
N1275 C1273 1.314 . S
N1275 C1274 1.279 . S
C1276 C1278 1.353 . S
C1276 N1279 1.314 . S
C1276 H1282 0.930 . S
C1277 N1279 1.279 . S
C1277 C1280 1.358 . S
C1277 H1283 0.930 . S
C1278 C1276 1.353 . S
C1278 C1281 1.348 . S
C1278 H1316 0.929 . S
N1279 Li1234 1.990 . S
N1279 C1276 1.314 . S
N1279 C1277 1.279 . S
C1280 C1277 1.358 . S
C1280 C1281 1.356 . S
C1280 H1317 0.930 . S
C1281 C1278 1.348 . S
C1281 C1280 1.356 . S
H1282 C1276 0.930 . S
H1283 C1277 0.930 . S
C1284 N1285 1.314 . S
C1284 C1286 1.353 . S
C1284 H1290 0.930 . S
N1285 Li1235 1.990 . S
N1285 C1284 1.314 . S
N1285 C1288 1.279 . S
C1286 C1284 1.353 . S
C1286 C1289 1.348 . S
C1286 H1318 0.929 . S
C1287 C1288 1.358 . S
C1287 C1289 1.356 . S
C1287 H1319 0.930 . S
C1288 N1285 1.279 . S
C1288 C1287 1.358 . S
C1288 H1291 0.930 . S
C1289 C1286 1.348 . S
C1289 C1287 1.356 . S
H1290 C1284 0.930 . S
H1291 C1288 0.930 . S
O1292 Li1232 1.956 . S
O1292 Li1233 1.970 . S
O1292 Li1234 1.961 . S
O1292 C1236 1.325 . S
O1293 Li1232 1.970 . S
O1293 Li1233 1.956 . S
O1293 Li1235 1.961 . S
O1293 C1242 1.325 . S
O1294 Li1232 1.961 . S
O1294 Li1234 1.956 . S
O1294 Li1235 1.970 . S
O1294 C1264 1.325 . S
O1295 Li1233 1.961 . S
O1295 Li1234 1.970 . S
O1295 Li1235 1.956 . S
O1295 C1270 1.325 . S
H1296 C1238 0.929 . S
H1297 C1239 0.930 . S
H1298 C1240 0.930 . S
H1299 C1241 0.930 . S
H1300 C1243 0.930 . S
H1301 C1245 0.929 . S
H1302 C1246 0.930 . S
H1303 C1247 0.930 . S
H1304 C1250 0.930 . S
H1305 C1253 0.929 . S
H1306 C1258 0.929 . S
H1307 C1259 0.930 . S
H1308 C1266 0.929 . S
H1309 C1267 0.930 . S
H1310 C1268 0.930 . S
H1311 C1269 0.930 . S
H1312 C1271 0.929 . S
H1313 C1272 0.930 . S
H1314 C1273 0.930 . S
H1315 C1274 0.930 . S
H1316 C1278 0.929 . S
H1317 C1280 0.930 . S
H1318 C1286 0.929 . S
H1319 C1287 0.930 . S
Li1320 N1337 1.990 . S
Li1320 O1380 1.956 . S
Li1320 O1381 1.970 . S
Li1320 O1382 1.961 . S
Li1321 N1345 1.990 . S
Li1321 O1380 1.970 . S
Li1321 O1381 1.956 . S
Li1321 O1383 1.961 . S
Li1322 N1367 1.990 . S
Li1322 O1380 1.961 . S
Li1322 O1382 1.956 . S
Li1322 O1383 1.970 . S
Li1323 N1373 1.990 . S
Li1323 O1381 1.961 . S
Li1323 O1382 1.970 . S
Li1323 O1383 1.956 . S
C1324 C1326 1.348 . S
C1324 C1327 1.356 . S
C1324 O1380 1.325 . S
N1325 C1328 1.314 . S
N1325 C1329 1.279 . S
C1326 C1324 1.348 . S
C1326 C1328 1.353 . S
C1326 H1384 0.929 . S
C1327 C1324 1.356 . S
C1327 C1329 1.358 . S
C1327 H1385 0.930 . S
C1328 N1325 1.314 . S
C1328 C1326 1.353 . S
C1328 H1386 0.930 . S
C1329 N1325 1.279 . S
C1329 C1327 1.358 . S
C1329 H1387 0.930 . S
C1330 C1333 1.348 . S
C1330 C1334 1.356 . S
C1330 O1381 1.325 . S
C1331 N1332 1.279 . S
C1331 C1334 1.358 . S
C1331 H1388 0.930 . S
N1332 C1331 1.279 . S
N1332 C1335 1.314 . S
C1333 C1330 1.348 . S
C1333 C1335 1.353 . S
C1333 H1389 0.929 . S
C1334 C1330 1.356 . S
C1334 C1331 1.358 . S
C1334 H1390 0.930 . S
C1335 N1332 1.314 . S
C1335 C1333 1.353 . S
C1335 H1391 0.930 . S
C1336 N1337 1.314 . S
C1336 C1341 1.353 . S
C1336 H1342 0.930 . S
N1337 Li1320 1.990 . S
N1337 C1336 1.314 . S
N1337 C1339 1.279 . S
C1338 C1339 1.358 . S
C1338 C1340 1.356 . S
C1338 H1392 0.930 . S
C1339 N1337 1.279 . S
C1339 C1338 1.358 . S
C1339 H1343 0.930 . S
C1340 C1338 1.356 . S
C1340 C1341 1.348 . S
C1341 C1336 1.353 . S
C1341 C1340 1.348 . S
C1341 H1393 0.929 . S
H1342 C1336 0.930 . S
H1343 C1339 0.930 . S
C1344 N1345 1.314 . S
C1344 C1346 1.353 . S
C1344 H1350 0.930 . S
N1345 Li1321 1.990 . S
N1345 C1344 1.314 . S
N1345 C1348 1.279 . S
C1346 C1344 1.353 . S
C1346 C1349 1.348 . S
C1346 H1394 0.929 . S
C1347 C1348 1.358 . S
C1347 C1349 1.356 . S
C1347 H1395 0.930 . S
C1348 N1345 1.279 . S
C1348 C1347 1.358 . S
C1348 H1351 0.930 . S
C1349 C1346 1.348 . S
C1349 C1347 1.356 . S
H1350 C1344 0.930 . S
H1351 C1348 0.930 . S
C1352 C1354 1.348 . S
C1352 C1355 1.356 . S
C1352 O1382 1.325 . S
N1353 C1356 1.314 . S
N1353 C1357 1.279 . S
C1354 C1352 1.348 . S
C1354 C1356 1.353 . S
C1354 H1396 0.929 . S
C1355 C1352 1.356 . S
C1355 C1357 1.358 . S
C1355 H1397 0.930 . S
C1356 N1353 1.314 . S
C1356 C1354 1.353 . S
C1356 H1398 0.930 . S
C1357 N1353 1.279 . S
C1357 C1355 1.358 . S
C1357 H1399 0.930 . S
C1358 C1359 1.348 . S
C1358 C1360 1.356 . S
C1358 O1383 1.325 . S
C1359 C1358 1.348 . S
C1359 C1361 1.353 . S
C1359 H1400 0.929 . S
C1360 C1358 1.356 . S
C1360 C1362 1.358 . S
C1360 H1401 0.930 . S
C1361 C1359 1.353 . S
C1361 N1363 1.314 . S
C1361 H1402 0.930 . S
C1362 C1360 1.358 . S
C1362 N1363 1.279 . S
C1362 H1403 0.930 . S
N1363 C1361 1.314 . S
N1363 C1362 1.279 . S
C1364 C1366 1.353 . S
C1364 N1367 1.314 . S
C1364 H1370 0.930 . S
C1365 N1367 1.279 . S
C1365 C1368 1.358 . S
C1365 H1371 0.930 . S
C1366 C1364 1.353 . S
C1366 C1369 1.348 . S
C1366 H1404 0.929 . S
N1367 Li1322 1.990 . S
N1367 C1364 1.314 . S
N1367 C1365 1.279 . S
C1368 C1365 1.358 . S
C1368 C1369 1.356 . S
C1368 H1405 0.930 . S
C1369 C1366 1.348 . S
C1369 C1368 1.356 . S
H1370 C1364 0.930 . S
H1371 C1365 0.930 . S
C1372 N1373 1.314 . S
C1372 C1374 1.353 . S
C1372 H1378 0.930 . S
N1373 Li1323 1.990 . S
N1373 C1372 1.314 . S
N1373 C1376 1.279 . S
C1374 C1372 1.353 . S
C1374 C1377 1.348 . S
C1374 H1406 0.929 . S
C1375 C1376 1.358 . S
C1375 C1377 1.356 . S
C1375 H1407 0.930 . S
C1376 N1373 1.279 . S
C1376 C1375 1.358 . S
C1376 H1379 0.930 . S
C1377 C1374 1.348 . S
C1377 C1375 1.356 . S
H1378 C1372 0.930 . S
H1379 C1376 0.930 . S
O1380 Li1320 1.956 . S
O1380 Li1321 1.970 . S
O1380 Li1322 1.961 . S
O1380 C1324 1.325 . S
O1381 Li1320 1.970 . S
O1381 Li1321 1.956 . S
O1381 Li1323 1.961 . S
O1381 C1330 1.325 . S
O1382 Li1320 1.961 . S
O1382 Li1322 1.956 . S
O1382 Li1323 1.970 . S
O1382 C1352 1.325 . S
O1383 Li1321 1.961 . S
O1383 Li1322 1.970 . S
O1383 Li1323 1.956 . S
O1383 C1358 1.325 . S
H1384 C1326 0.929 . S
H1385 C1327 0.930 . S
H1386 C1328 0.930 . S
H1387 C1329 0.930 . S
H1388 C1331 0.930 . S
H1389 C1333 0.929 . S
H1390 C1334 0.930 . S
H1391 C1335 0.930 . S
H1392 C1338 0.930 . S
H1393 C1341 0.929 . S
H1394 C1346 0.929 . S
H1395 C1347 0.930 . S
H1396 C1354 0.929 . S
H1397 C1355 0.930 . S
H1398 C1356 0.930 . S
H1399 C1357 0.930 . S
H1400 C1359 0.929 . S
H1401 C1360 0.930 . S
H1402 C1361 0.930 . S
H1403 C1362 0.930 . S
H1404 C1366 0.929 . S
H1405 C1368 0.930 . S
H1406 C1374 0.929 . S
H1407 C1375 0.930 . S
Li1408 N1425 1.990 . S
Li1408 O1468 1.956 . S
Li1408 O1469 1.970 . S
Li1408 O1470 1.961 . S
Li1409 N1433 1.990 . S
Li1409 O1468 1.970 . S
Li1409 O1469 1.956 . S
Li1409 O1471 1.961 . S
Li1410 N1455 1.990 . S
Li1410 O1468 1.961 . S
Li1410 O1470 1.956 . S
Li1410 O1471 1.970 . S
Li1411 N1461 1.990 . S
Li1411 O1469 1.961 1_565 S
Li1411 O1470 1.970 1_565 S
Li1411 O1471 1.956 1_565 S
C1412 C1414 1.348 . S
C1412 C1415 1.356 . S
C1412 O1468 1.325 . S
N1413 C1416 1.314 . S
N1413 C1417 1.279 . S
C1414 C1412 1.348 . S
C1414 C1416 1.353 . S
C1414 H1472 0.929 . S
C1415 C1412 1.356 . S
C1415 C1417 1.358 . S
C1415 H1473 0.930 . S
C1416 N1413 1.314 . S
C1416 C1414 1.353 . S
C1416 H1474 0.930 . S
C1417 N1413 1.279 . S
C1417 C1415 1.358 . S
C1417 H1475 0.930 . S
C1418 C1421 1.348 . S
C1418 C1422 1.356 . S
C1418 O1469 1.325 1_565 S
C1419 N1420 1.279 . S
C1419 C1422 1.358 . S
C1419 H1476 0.930 . S
N1420 C1419 1.279 . S
N1420 C1423 1.314 . S
C1421 C1418 1.348 . S
C1421 C1423 1.353 . S
C1421 H1477 0.909 1_565 S
C1422 C1418 1.356 . S
C1422 C1419 1.358 . S
C1422 H1478 0.930 . S
C1423 N1420 1.314 . S
C1423 C1421 1.353 . S
C1423 H1479 0.930 . S
C1424 N1425 1.314 . S
C1424 C1429 1.353 1_545 S
C1424 H1430 0.930 1_545 S
N1425 Li1408 1.990 . S
N1425 C1424 1.314 . S
N1425 C1427 1.279 . S
C1426 C1427 1.358 . S
C1426 C1428 1.356 . S
C1426 H1480 0.930 . S
C1427 N1425 1.279 . S
C1427 C1426 1.358 . S
C1427 H1431 0.930 . S
C1428 C1426 1.356 . S
C1428 C1429 1.348 1_545 S
C1429 C1424 1.353 1_565 S
C1429 C1428 1.348 1_565 S
C1429 H1481 0.929 . S
H1430 C1424 0.930 1_565 S
H1431 C1427 0.930 . S
C1432 N1433 1.314 . S
C1432 C1434 1.353 . S
C1432 H1438 0.930 . S
N1433 Li1409 1.990 . S
N1433 C1432 1.314 . S
N1433 C1436 1.279 . S
C1434 C1432 1.353 . S
C1434 C1437 1.348 . S
C1434 H1482 0.929 . S
C1435 C1436 1.358 . S
C1435 C1437 1.356 . S
C1435 H1483 0.930 . S
C1436 N1433 1.279 . S
C1436 C1435 1.358 . S
C1436 H1439 0.930 . S
C1437 C1434 1.348 . S
C1437 C1435 1.356 . S
H1438 C1432 0.930 . S
H1439 C1436 0.930 . S
C1440 C1442 1.348 1_545 S
C1440 C1443 1.356 . S
C1440 O1470 1.325 . S
N1441 C1444 1.314 . S
N1441 C1445 1.279 1_565 S
C1442 C1440 1.348 1_565 S
C1442 C1444 1.353 . S
C1442 H1484 0.929 . S
C1443 C1440 1.356 . S
C1443 C1445 1.358 . S
C1443 H1485 0.930 . S
C1444 N1441 1.314 . S
C1444 C1442 1.353 . S
C1444 H1486 0.930 . S
C1445 N1441 1.279 1_545 S
C1445 C1443 1.358 . S
C1445 H1487 0.930 . S
C1446 C1447 1.348 . S
C1446 C1448 1.356 . S
C1446 O1471 1.325 . S
C1447 C1446 1.348 . S
C1447 C1449 1.353 . S
C1447 H1488 0.929 . S
C1448 C1446 1.356 . S
C1448 C1450 1.358 . S
C1448 H1489 0.930 . S
C1449 C1447 1.353 . S
C1449 N1451 1.314 . S
C1449 H1490 0.930 . S
C1450 C1448 1.358 . S
C1450 N1451 1.279 . S
C1450 H1491 0.930 . S
N1451 C1449 1.314 . S
N1451 C1450 1.279 . S
C1452 C1454 1.353 . S
C1452 N1455 1.314 . S
C1452 H1458 0.930 . S
C1453 N1455 1.279 . S
C1453 C1456 1.358 . S
C1453 H1459 0.930 . S
C1454 C1452 1.353 . S
C1454 C1457 1.348 . S
C1454 H1492 0.929 . S
N1455 Li1410 1.990 . S
N1455 C1452 1.314 . S
N1455 C1453 1.279 . S
C1456 C1453 1.358 . S
C1456 C1457 1.356 . S
C1456 H1493 0.930 . S
C1457 C1454 1.348 . S
C1457 C1456 1.356 . S
H1458 C1452 0.930 . S
H1459 C1453 0.930 . S
C1460 N1461 1.314 . S
C1460 C1462 1.353 . S
C1460 H1466 0.930 . S
N1461 Li1411 1.990 . S
N1461 C1460 1.314 . S
N1461 C1464 1.279 . S
C1462 C1460 1.353 . S
C1462 C1465 1.348 . S
C1462 H1494 0.929 . S
C1463 C1464 1.358 . S
C1463 C1465 1.356 . S
C1463 H1495 0.930 . S
C1464 N1461 1.279 . S
C1464 C1463 1.358 . S
C1464 H1467 0.930 . S
C1465 C1462 1.348 . S
C1465 C1463 1.356 . S
H1466 C1460 0.930 . S
H1467 C1464 0.930 . S
O1468 Li1408 1.956 . S
O1468 Li1409 1.970 . S
O1468 Li1410 1.961 . S
O1468 C1412 1.325 . S
O1469 Li1408 1.970 . S
O1469 Li1409 1.956 . S
O1469 Li1411 1.961 1_545 S
O1469 C1418 1.325 1_545 S
O1470 Li1408 1.961 . S
O1470 Li1410 1.956 . S
O1470 Li1411 1.970 1_545 S
O1470 C1440 1.325 . S
O1471 Li1409 1.961 . S
O1471 Li1410 1.970 . S
O1471 Li1411 1.956 1_545 S
O1471 C1446 1.325 . S
H1472 C1414 0.929 . S
H1473 C1415 0.930 . S
H1474 C1416 0.930 . S
H1475 C1417 0.930 . S
H1476 C1419 0.930 . S
H1477 C1421 0.909 1_545 S
H1478 C1422 0.930 . S
H1479 C1423 0.930 . S
H1480 C1426 0.930 . S
H1481 C1429 0.929 . S
H1482 C1434 0.929 . S
H1483 C1435 0.930 . S
H1484 C1442 0.929 . S
H1485 C1443 0.930 . S
H1486 C1444 0.930 . S
H1487 C1445 0.930 . S
H1488 C1447 0.929 . S
H1489 C1448 0.930 . S
H1490 C1449 0.930 . S
H1491 C1450 0.930 . S
H1492 C1454 0.929 . S
H1493 C1456 0.930 . S
H1494 C1462 0.929 . S
H1495 C1463 0.930 . S
Li1496 N1513 1.990 . S
Li1496 O1556 1.956 . S
Li1496 O1557 1.970 . S
Li1496 O1558 1.961 . S
Li1497 N1521 1.990 . S
Li1497 O1556 1.970 . S
Li1497 O1557 1.956 . S
Li1497 O1559 1.961 . S
Li1498 N1543 1.990 . S
Li1498 O1556 1.961 1_455 S
Li1498 O1558 1.956 1_455 S
Li1498 O1559 1.970 1_455 S
Li1499 N1549 1.990 . S
Li1499 O1557 1.961 . S
Li1499 O1558 1.970 . S
Li1499 O1559 1.956 . S
C1500 C1502 1.348 . S
C1500 C1503 1.356 . S
C1500 O1556 1.325 1_455 S
N1501 C1504 1.314 . S
N1501 C1505 1.279 . S
C1502 C1500 1.348 . S
C1502 C1504 1.353 . S
C1502 H1560 0.925 1_455 S
C1503 C1500 1.356 . S
C1503 C1505 1.358 . S
C1503 H1561 0.930 . S
C1504 N1501 1.314 . S
C1504 C1502 1.353 . S
C1504 H1562 0.930 . S
C1505 N1501 1.279 . S
C1505 C1503 1.358 . S
C1505 H1563 0.930 . S
C1506 C1509 1.348 . S
C1506 C1510 1.356 . S
C1506 O1557 1.325 . S
C1507 N1508 1.279 . S
C1507 C1510 1.358 . S
C1507 H1564 0.930 . S
N1508 C1507 1.279 . S
N1508 C1511 1.314 . S
C1509 C1506 1.348 . S
C1509 C1511 1.353 . S
C1509 H1565 0.929 . S
C1510 C1506 1.356 . S
C1510 C1507 1.358 . S
C1510 H1566 0.930 . S
C1511 N1508 1.314 . S
C1511 C1509 1.353 . S
C1511 H1567 0.930 . S
C1512 N1513 1.314 . S
C1512 C1517 1.353 . S
C1512 H1518 0.930 . S
N1513 Li1496 1.990 . S
N1513 C1512 1.314 . S
N1513 C1515 1.279 . S
C1514 C1515 1.358 . S
C1514 C1516 1.356 . S
C1514 H1568 0.930 . S
C1515 N1513 1.279 . S
C1515 C1514 1.358 . S
C1515 H1519 0.930 . S
C1516 C1514 1.356 . S
C1516 C1517 1.348 . S
C1517 C1512 1.353 . S
C1517 C1516 1.348 . S
C1517 H1569 0.929 . S
H1518 C1512 0.930 . S
H1519 C1515 0.930 . S
C1520 N1521 1.314 . S
C1520 C1522 1.335 1_655 S
C1520 H1526 0.930 1_655 S
N1521 Li1497 1.990 . S
N1521 C1520 1.314 . S
N1521 C1524 1.279 . S
C1522 C1520 1.335 1_455 S
C1522 C1525 1.337 1_455 S
C1522 H1570 0.958 . S
C1523 C1524 1.358 . S
C1523 C1525 1.356 . S
C1523 H1571 0.930 . S
C1524 N1521 1.279 . S
C1524 C1523 1.358 . S
C1524 H1527 0.930 . S
C1525 C1522 1.337 1_655 S
C1525 C1523 1.356 . S
H1526 C1520 0.930 1_455 S
H1527 C1524 0.930 . S
C1528 C1530 1.348 . S
C1528 C1531 1.356 . S
C1528 O1558 1.325 . S
N1529 C1532 1.314 . S
N1529 C1533 1.279 . S
C1530 C1528 1.348 . S
C1530 C1532 1.353 . S
C1530 H1572 0.929 . S
C1531 C1528 1.356 . S
C1531 C1533 1.358 . S
C1531 H1573 0.930 . S
C1532 N1529 1.314 . S
C1532 C1530 1.353 . S
C1532 H1574 0.930 . S
C1533 N1529 1.279 . S
C1533 C1531 1.358 . S
C1533 H1575 0.930 . S
C1534 C1535 1.348 1_655 S
C1534 C1536 1.356 . S
C1534 O1559 1.325 . S
C1535 C1534 1.348 1_455 S
C1535 C1537 1.353 . S
C1535 H1576 0.929 . S
C1536 C1534 1.356 . S
C1536 C1538 1.358 . S
C1536 H1577 0.930 . S
C1537 C1535 1.353 . S
C1537 N1539 1.314 . S
C1537 H1578 0.930 . S
C1538 C1536 1.358 . S
C1538 N1539 1.279 1_655 S
C1538 H1579 0.930 . S
N1539 C1537 1.314 . S
N1539 C1538 1.279 1_455 S
C1540 C1542 1.353 . S
C1540 N1543 1.314 . S
C1540 H1546 0.930 . S
C1541 N1543 1.279 . S
C1541 C1544 1.358 . S
C1541 H1547 0.930 . S
C1542 C1540 1.353 . S
C1542 C1545 1.348 . S
C1542 H1580 0.929 . S
N1543 Li1498 1.990 . S
N1543 C1540 1.314 . S
N1543 C1541 1.279 . S
C1544 C1541 1.358 . S
C1544 C1545 1.356 . S
C1544 H1581 0.930 . S
C1545 C1542 1.348 . S
C1545 C1544 1.356 . S
H1546 C1540 0.930 . S
H1547 C1541 0.930 . S
C1548 N1549 1.314 . S
C1548 C1550 1.353 . S
C1548 H1554 0.930 . S
N1549 Li1499 1.990 . S
N1549 C1548 1.314 . S
N1549 C1552 1.279 . S
C1550 C1548 1.353 . S
C1550 C1553 1.348 . S
C1550 H1582 0.929 . S
C1551 C1552 1.358 . S
C1551 C1553 1.356 . S
C1551 H1583 0.930 . S
C1552 N1549 1.279 . S
C1552 C1551 1.358 . S
C1552 H1555 0.930 . S
C1553 C1550 1.348 . S
C1553 C1551 1.356 . S
H1554 C1548 0.930 . S
H1555 C1552 0.930 . S
O1556 Li1496 1.956 . S
O1556 Li1497 1.970 . S
O1556 Li1498 1.961 1_655 S
O1556 C1500 1.325 1_655 S
O1557 Li1496 1.970 . S
O1557 Li1497 1.956 . S
O1557 Li1499 1.961 . S
O1557 C1506 1.325 . S
O1558 Li1496 1.961 . S
O1558 Li1498 1.956 1_655 S
O1558 Li1499 1.970 . S
O1558 C1528 1.325 . S
O1559 Li1497 1.961 . S
O1559 Li1498 1.970 1_655 S
O1559 Li1499 1.956 . S
O1559 C1534 1.325 . S
H1560 C1502 0.925 1_655 S
H1561 C1503 0.930 . S
H1562 C1504 0.930 . S
H1563 C1505 0.930 . S
H1564 C1507 0.930 . S
H1565 C1509 0.929 . S
H1566 C1510 0.930 . S
H1567 C1511 0.930 . S
H1568 C1514 0.930 . S
H1569 C1517 0.929 . S
H1570 C1522 0.958 . S
H1571 C1523 0.930 . S
H1572 C1530 0.929 . S
H1573 C1531 0.930 . S
H1574 C1532 0.930 . S
H1575 C1533 0.930 . S
H1576 C1535 0.929 . S
H1577 C1536 0.930 . S
H1578 C1537 0.930 . S
H1579 C1538 0.930 . S
H1580 C1542 0.929 . S
H1581 C1544 0.930 . S
H1582 C1550 0.929 . S
H1583 C1551 0.930 . S
H1584 C1592 0.930 . S
H1585 C1595 0.930 . S
H1586 C1597 0.930 . S
H1587 C1598 0.970 . S
H1588 C1598 0.970 . S
H1589 C1600 0.930 . S
H1590 C1602 0.930 . S
H1591 C1604 0.930 . S
C1592 H1584 0.930 . S
C1592 C1593 1.382 . S
C1592 C1594 1.426 . S
C1593 C1592 1.382 . S
C1593 C1597 1.389 . S
C1594 C1592 1.426 . S
C1594 C1595 1.375 . S
C1594 C1598 1.532 . S
C1595 H1585 0.930 . S
C1595 C1594 1.375 . S
C1595 C1596 1.416 . S
C1596 C1595 1.416 . S
C1596 C1597 1.371 . S
C1597 H1586 0.930 . S
C1597 C1593 1.389 . S
C1597 C1596 1.371 . S
C1598 H1587 0.970 . S
C1598 H1588 0.970 . S
C1598 C1594 1.532 . S
C1598 C1599 1.499 . S
C1599 C1598 1.499 . S
C1599 C1600 1.370 . S
C1599 C1604 1.415 . S
C1600 H1589 0.930 . S
C1600 C1599 1.370 . S
C1600 C1601 1.407 . S
C1601 C1600 1.407 . S
C1601 C1602 1.365 . S
C1602 H1590 0.930 . S
C1602 C1601 1.365 . S
C1602 C1603 1.393 . S
C1603 C1602 1.393 . S
C1603 C1604 1.387 . S
C1604 H1591 0.930 . S
C1604 C1599 1.415 . S
C1604 C1603 1.387 . S
H1605 C1613 0.930 . S
H1606 C1616 0.930 . S
H1607 C1618 0.930 . S
H1608 C1619 0.970 . S
H1609 C1619 0.970 . S
H1610 C1621 0.930 . S
H1611 C1623 0.930 . S
H1612 C1625 0.930 . S
C1613 H1605 0.930 . S
C1613 C1614 1.382 . S
C1613 C1615 1.426 . S
C1614 C1613 1.382 . S
C1614 C1618 1.389 . S
C1615 C1613 1.426 . S
C1615 C1616 1.375 . S
C1615 C1619 1.532 . S
C1616 H1606 0.930 . S
C1616 C1615 1.375 . S
C1616 C1617 1.416 . S
C1617 C1616 1.416 . S
C1617 C1618 1.371 . S
C1618 H1607 0.930 . S
C1618 C1614 1.389 . S
C1618 C1617 1.371 . S
C1619 H1608 0.970 . S
C1619 H1609 0.970 . S
C1619 C1615 1.532 . S
C1619 C1620 1.499 . S
C1620 C1619 1.499 . S
C1620 C1621 1.370 . S
C1620 C1625 1.415 . S
C1621 H1610 0.930 . S
C1621 C1620 1.370 . S
C1621 C1622 1.407 . S
C1622 C1621 1.407 . S
C1622 C1623 1.365 . S
C1623 H1611 0.930 . S
C1623 C1622 1.365 . S
C1623 C1624 1.393 . S
C1624 C1623 1.393 . S
C1624 C1625 1.387 . S
C1625 H1612 0.930 . S
C1625 C1620 1.415 . S
C1625 C1624 1.387 . S
H1626 C1634 0.930 . S
H1627 C1637 0.930 . S
H1628 C1639 0.930 . S
H1629 C1640 0.970 . S
H1630 C1640 0.970 . S
H1631 C1642 0.930 . S
H1632 C1644 0.930 . S
H1633 C1646 0.930 . S
C1634 H1626 0.930 . S
C1634 C1635 1.382 . S
C1634 C1636 1.426 . S
C1635 C1634 1.382 . S
C1635 C1639 1.389 . S
C1636 C1634 1.426 . S
C1636 C1637 1.375 . S
C1636 C1640 1.532 . S
C1637 H1627 0.930 . S
C1637 C1636 1.375 . S
C1637 C1638 1.416 . S
C1638 C1637 1.416 . S
C1638 C1639 1.371 . S
C1639 H1628 0.930 . S
C1639 C1635 1.389 . S
C1639 C1638 1.371 . S
C1640 H1629 0.970 . S
C1640 H1630 0.970 . S
C1640 C1636 1.532 . S
C1640 C1641 1.499 . S
C1641 C1640 1.499 . S
C1641 C1642 1.370 . S
C1641 C1646 1.415 . S
C1642 H1631 0.930 . S
C1642 C1641 1.370 . S
C1642 C1643 1.407 . S
C1643 C1642 1.407 . S
C1643 C1644 1.365 . S
C1644 H1632 0.930 . S
C1644 C1643 1.365 . S
C1644 C1645 1.393 . S
C1645 C1644 1.393 . S
C1645 C1646 1.387 . S
C1646 H1633 0.930 . S
C1646 C1641 1.415 . S
C1646 C1645 1.387 . S
H1647 C1655 0.930 . S
H1648 C1658 0.930 . S
H1649 C1660 0.930 . S
H1650 C1661 0.970 . S
H1651 C1661 0.970 . S
H1652 C1663 0.930 . S
H1653 C1665 0.930 . S
H1654 C1667 0.930 . S
C1655 H1647 0.930 . S
C1655 C1656 1.382 . S
C1655 C1657 1.426 . S
C1656 C1655 1.382 . S
C1656 C1660 1.389 . S
C1657 C1655 1.426 . S
C1657 C1658 1.375 . S
C1657 C1661 1.532 . S
C1658 H1648 0.930 . S
C1658 C1657 1.375 . S
C1658 C1659 1.416 . S
C1659 C1658 1.416 . S
C1659 C1660 1.371 . S
C1660 H1649 0.930 . S
C1660 C1656 1.389 . S
C1660 C1659 1.371 . S
C1661 H1650 0.970 . S
C1661 H1651 0.970 . S
C1661 C1657 1.532 . S
C1661 C1662 1.499 . S
C1662 C1661 1.499 . S
C1662 C1663 1.370 . S
C1662 C1667 1.415 . S
C1663 H1652 0.930 . S
C1663 C1662 1.370 . S
C1663 C1664 1.407 . S
C1664 C1663 1.407 . S
C1664 C1665 1.365 . S
C1665 H1653 0.930 . S
C1665 C1664 1.365 . S
C1665 C1666 1.393 . S
C1666 C1665 1.393 . S
C1666 C1667 1.387 . S
C1667 H1654 0.930 . S
C1667 C1662 1.415 . S
C1667 C1666 1.387 . S
H1668 C1676 0.930 . S
H1669 C1679 0.930 . S
H1670 C1681 0.930 . S
H1671 C1682 0.970 . S
H1672 C1682 0.970 . S
H1673 C1684 0.930 . S
H1674 C1686 0.930 . S
H1675 C1688 0.930 . S
C1676 H1668 0.930 . S
C1676 C1677 1.382 . S
C1676 C1678 1.426 . S
C1677 C1676 1.382 . S
C1677 C1681 1.389 . S
C1678 C1676 1.426 . S
C1678 C1679 1.375 . S
C1678 C1682 1.532 . S
C1679 H1669 0.930 . S
C1679 C1678 1.375 . S
C1679 C1680 1.416 . S
C1680 C1679 1.416 . S
C1680 C1681 1.371 . S
C1681 H1670 0.930 . S
C1681 C1677 1.389 . S
C1681 C1680 1.371 . S
C1682 H1671 0.970 . S
C1682 H1672 0.970 . S
C1682 C1678 1.532 . S
C1682 C1683 1.499 . S
C1683 C1682 1.499 . S
C1683 C1684 1.370 . S
C1683 C1688 1.415 . S
C1684 H1673 0.930 . S
C1684 C1683 1.370 . S
C1684 C1685 1.407 . S
C1685 C1684 1.407 . S
C1685 C1686 1.365 . S
C1686 H1674 0.930 . S
C1686 C1685 1.365 . S
C1686 C1687 1.393 . S
C1687 C1686 1.393 . S
C1687 C1688 1.387 . S
C1688 H1675 0.930 . S
C1688 C1683 1.415 . S
C1688 C1687 1.387 . S
H1689 C1697 0.930 . S
H1690 C1700 0.930 . S
H1691 C1702 0.930 . S
H1692 C1703 0.970 . S
H1693 C1703 0.970 . S
H1694 C1705 0.930 . S
H1695 C1707 0.930 . S
H1696 C1709 0.930 . S
C1697 H1689 0.930 . S
C1697 C1698 1.382 . S
C1697 C1699 1.426 . S
C1698 C1697 1.382 . S
C1698 C1702 1.389 . S
C1699 C1697 1.426 . S
C1699 C1700 1.375 . S
C1699 C1703 1.532 . S
C1700 H1690 0.930 . S
C1700 C1699 1.375 . S
C1700 C1701 1.416 . S
C1701 C1700 1.416 . S
C1701 C1702 1.371 . S
C1702 H1691 0.930 . S
C1702 C1698 1.389 . S
C1702 C1701 1.371 . S
C1703 H1692 0.970 . S
C1703 H1693 0.970 . S
C1703 C1699 1.532 . S
C1703 C1704 1.499 . S
C1704 C1703 1.499 . S
C1704 C1705 1.370 . S
C1704 C1709 1.415 . S
C1705 H1694 0.930 . S
C1705 C1704 1.370 . S
C1705 C1706 1.407 . S
C1706 C1705 1.407 . S
C1706 C1707 1.365 . S
C1707 H1695 0.930 . S
C1707 C1706 1.365 . S
C1707 C1708 1.393 . S
C1708 C1707 1.393 . S
C1708 C1709 1.387 . S
C1709 H1696 0.930 . S
C1709 C1704 1.415 . S
C1709 C1708 1.387 . S
H1710 C1718 0.930 . S
H1711 C1721 0.930 . S
H1712 C1723 0.930 . S
H1713 C1724 0.970 . S
H1714 C1724 0.970 . S
H1715 C1726 0.930 . S
H1716 C1728 0.930 . S
H1717 C1730 0.930 . S
C1718 H1710 0.930 . S
C1718 C1719 1.382 . S
C1718 C1720 1.426 . S
C1719 C1718 1.382 . S
C1719 C1723 1.389 . S
C1720 C1718 1.426 . S
C1720 C1721 1.375 . S
C1720 C1724 1.532 . S
C1721 H1711 0.930 . S
C1721 C1720 1.375 . S
C1721 C1722 1.416 . S
C1722 C1721 1.416 . S
C1722 C1723 1.371 . S
C1723 H1712 0.930 . S
C1723 C1719 1.389 . S
C1723 C1722 1.371 . S
C1724 H1713 0.970 . S
C1724 H1714 0.970 . S
C1724 C1720 1.532 . S
C1724 C1725 1.499 . S
C1725 C1724 1.499 . S
C1725 C1726 1.370 . S
C1725 C1730 1.415 . S
C1726 H1715 0.930 . S
C1726 C1725 1.370 . S
C1726 C1727 1.407 . S
C1727 C1726 1.407 . S
C1727 C1728 1.365 . S
C1728 H1716 0.930 . S
C1728 C1727 1.365 . S
C1728 C1729 1.393 . S
C1729 C1728 1.393 . S
C1729 C1730 1.387 . S
C1730 H1717 0.930 . S
C1730 C1725 1.415 . S
C1730 C1729 1.387 . S
H1731 C1739 0.930 . S
H1732 C1742 0.930 . S
H1733 C1744 0.930 . S
H1734 C1745 0.970 . S
H1735 C1745 0.970 . S
H1736 C1747 0.930 . S
H1737 C1749 0.930 . S
H1738 C1751 0.930 . S
C1739 H1731 0.930 . S
C1739 C1740 1.382 . S
C1739 C1741 1.426 . S
C1740 C1739 1.382 . S
C1740 C1744 1.389 . S
C1741 C1739 1.426 . S
C1741 C1742 1.375 . S
C1741 C1745 1.532 . S
C1742 H1732 0.930 . S
C1742 C1741 1.375 . S
C1742 C1743 1.416 . S
C1743 C1742 1.416 . S
C1743 C1744 1.371 . S
C1744 H1733 0.930 . S
C1744 C1740 1.389 . S
C1744 C1743 1.371 . S
C1745 H1734 0.970 . S
C1745 H1735 0.970 . S
C1745 C1741 1.532 . S
C1745 C1746 1.499 . S
C1746 C1745 1.499 . S
C1746 C1747 1.370 . S
C1746 C1751 1.415 . S
C1747 H1736 0.930 . S
C1747 C1746 1.370 . S
C1747 C1748 1.407 . S
C1748 C1747 1.407 . S
C1748 C1749 1.365 . S
C1749 H1737 0.930 . S
C1749 C1748 1.365 . S
C1749 C1750 1.393 . S
C1750 C1749 1.393 . S
C1750 C1751 1.387 . S
C1751 H1738 0.930 . S
C1751 C1746 1.415 . S
C1751 C1750 1.387 . S
H1752 C1760 0.930 . S
H1753 C1763 0.930 . S
H1754 C1765 0.930 . S
H1755 C1766 0.970 . S
H1756 C1766 0.970 . S
H1757 C1768 0.930 . S
H1758 C1770 0.930 . S
H1759 C1772 0.930 . S
C1760 H1752 0.930 . S
C1760 C1761 1.382 . S
C1760 C1762 1.426 . S
C1761 C1760 1.382 . S
C1761 C1765 1.389 . S
C1762 C1760 1.426 . S
C1762 C1763 1.375 . S
C1762 C1766 1.532 . S
C1763 H1753 0.930 . S
C1763 C1762 1.375 . S
C1763 C1764 1.416 . S
C1764 C1763 1.416 . S
C1764 C1765 1.371 . S
C1765 H1754 0.930 . S
C1765 C1761 1.389 . S
C1765 C1764 1.371 . S
C1766 H1755 0.970 . S
C1766 H1756 0.970 . S
C1766 C1762 1.532 . S
C1766 C1767 1.499 . S
C1767 C1766 1.499 . S
C1767 C1768 1.370 . S
C1767 C1772 1.415 . S
C1768 H1757 0.930 . S
C1768 C1767 1.370 . S
C1768 C1769 1.407 . S
C1769 C1768 1.407 . S
C1769 C1770 1.365 . S
C1770 H1758 0.930 . S
C1770 C1769 1.365 . S
C1770 C1771 1.393 . S
C1771 C1770 1.393 . S
C1771 C1772 1.387 . S
C1772 H1759 0.930 . S
C1772 C1767 1.415 . S
C1772 C1771 1.387 . S
H1773 C1781 0.930 . S
H1774 C1784 0.930 . S
H1775 C1786 0.930 . S
H1776 C1787 0.970 . S
H1777 C1787 0.970 . S
H1778 C1789 0.930 . S
H1779 C1791 0.930 . S
H1780 C1793 0.930 . S
C1781 H1773 0.930 . S
C1781 C1782 1.382 . S
C1781 C1783 1.426 . S
C1782 C1781 1.382 . S
C1782 C1786 1.389 1_455 S
C1783 C1781 1.426 . S
C1783 C1784 1.375 . S
C1783 C1787 1.532 . S
C1784 H1774 0.930 . S
C1784 C1783 1.375 . S
C1784 C1785 1.416 . S
C1785 C1784 1.416 . S
C1785 C1786 1.371 1_455 S
C1786 H1775 0.930 . S
C1786 C1782 1.389 1_655 S
C1786 C1785 1.371 1_655 S
C1787 H1776 0.970 . S
C1787 H1777 0.970 . S
C1787 C1783 1.532 . S
C1787 C1788 1.499 . S
C1788 C1787 1.499 . S
C1788 C1789 1.370 . S
C1788 C1793 1.415 . S
C1789 H1778 0.930 . S
C1789 C1788 1.370 . S
C1789 C1790 1.409 . S
C1790 C1789 1.409 . S
C1790 C1791 1.368 1_455 S
C1791 H1779 0.930 . S
C1791 C1790 1.368 1_655 S
C1791 C1792 1.393 1_655 S
C1792 C1791 1.393 1_455 S
C1792 C1793 1.387 . S
C1793 H1780 0.930 . S
C1793 C1788 1.415 . S
C1793 C1792 1.387 . S
H1794 C1802 0.930 . S
H1795 C1805 0.930 . S
H1796 C1807 0.930 . S
H1797 C1808 0.970 . S
H1798 C1808 0.970 . S
H1799 C1810 0.930 . S
H1800 C1812 0.930 . S
H1801 C1814 0.930 . S
C1802 H1794 0.930 . S
C1802 C1803 1.382 . S
C1802 C1804 1.426 . S
C1803 C1802 1.382 . S
C1803 C1807 1.389 . S
C1804 C1802 1.426 . S
C1804 C1805 1.375 . S
C1804 C1808 1.532 . S
C1805 H1795 0.930 . S
C1805 C1804 1.375 . S
C1805 C1806 1.416 . S
C1806 C1805 1.416 . S
C1806 C1807 1.371 . S
C1807 H1796 0.930 . S
C1807 C1803 1.389 . S
C1807 C1806 1.371 . S
C1808 H1797 0.970 . S
C1808 H1798 0.970 . S
C1808 C1804 1.532 . S
C1808 C1809 1.499 . S
C1809 C1808 1.499 . S
C1809 C1810 1.370 . S
C1809 C1814 1.415 . S
C1810 H1799 0.930 . S
C1810 C1809 1.370 . S
C1810 C1811 1.407 . S
C1811 C1810 1.407 . S
C1811 C1812 1.365 . S
C1812 H1800 0.930 . S
C1812 C1811 1.365 . S
C1812 C1813 1.393 . S
C1813 C1812 1.393 . S
C1813 C1814 1.387 . S
C1814 H1801 0.930 . S
C1814 C1809 1.415 . S
C1814 C1813 1.387 . S
H1815 C1823 0.930 . S
H1816 C1826 0.930 . S
H1817 C1828 0.930 . S
H1818 C1829 0.970 . S
H1819 C1829 0.970 . S
H1820 C1831 0.930 . S
H1821 C1833 0.930 . S
H1822 C1835 0.930 . S
C1823 H1815 0.930 . S
C1823 C1824 1.382 . S
C1823 C1825 1.426 . S
C1824 C1823 1.382 . S
C1824 C1828 1.389 1_565 S
C1825 C1823 1.426 . S
C1825 C1826 1.375 . S
C1825 C1829 1.532 . S
C1826 H1816 0.930 . S
C1826 C1825 1.375 . S
C1826 C1827 1.416 . S
C1827 C1826 1.416 . S
C1827 C1828 1.371 1_565 S
C1828 H1817 0.930 . S
C1828 C1824 1.389 1_545 S
C1828 C1827 1.371 1_545 S
C1829 H1818 0.970 . S
C1829 H1819 0.970 . S
C1829 C1825 1.532 . S
C1829 C1830 1.499 . S
C1830 C1829 1.499 . S
C1830 C1831 1.370 . S
C1830 C1835 1.415 . S
C1831 H1820 0.930 . S
C1831 C1830 1.370 . S
C1831 C1832 1.427 . S
C1832 C1831 1.427 . S
C1832 C1833 1.357 1_565 S
C1833 H1821 0.930 . S
C1833 C1832 1.357 1_545 S
C1833 C1834 1.393 1_545 S
C1834 C1833 1.393 1_565 S
C1834 C1835 1.387 . S
C1835 H1822 0.930 . S
C1835 C1830 1.415 . S
C1835 C1834 1.387 . S
H1836 C1844 0.930 . S
H1837 C1847 0.930 . S
H1838 C1849 0.930 . S
H1839 C1850 0.970 . S
H1840 C1850 0.970 . S
H1841 C1852 0.930 . S
H1842 C1854 0.930 . S
H1843 C1856 0.930 . S
C1844 H1836 0.930 . S
C1844 C1845 1.382 . S
C1844 C1846 1.426 . S
C1845 C1844 1.382 . S
C1845 C1849 1.389 1_565 S
C1846 C1844 1.426 . S
C1846 C1847 1.375 . S
C1846 C1850 1.532 . S
C1847 H1837 0.930 . S
C1847 C1846 1.375 . S
C1847 C1848 1.477 . S
C1848 C1847 1.477 . S
C1848 C1849 1.349 1_565 S
C1849 H1838 0.930 . S
C1849 C1845 1.389 1_545 S
C1849 C1848 1.349 1_545 S
C1850 H1839 0.970 . S
C1850 H1840 0.970 . S
C1850 C1846 1.532 . S
C1850 C1851 1.499 . S
C1851 C1850 1.499 . S
C1851 C1852 1.370 . S
C1851 C1856 1.415 . S
C1852 H1841 0.930 . S
C1852 C1851 1.370 . S
C1852 C1853 1.407 . S
C1853 C1852 1.407 . S
C1853 C1854 1.365 1_565 S
C1854 H1842 0.930 . S
C1854 C1853 1.365 1_545 S
C1854 C1855 1.393 1_545 S
C1855 C1854 1.393 1_565 S
C1855 C1856 1.387 . S
C1856 H1843 0.930 . S
C1856 C1851 1.415 . S
C1856 C1855 1.387 . S
H1857 C1865 0.930 . S
H1858 C1868 0.930 . S
H1859 C1870 0.930 . S
H1860 C1871 0.970 . S
H1861 C1871 0.970 . S
H1862 C1873 0.930 . S
H1863 C1875 0.930 . S
H1864 C1877 0.930 . S
C1865 H1857 0.930 . S
C1865 C1866 1.382 . S
C1865 C1867 1.426 . S
C1866 C1865 1.382 . S
C1866 C1870 1.389 1_455 S
C1867 C1865 1.426 . S
C1867 C1868 1.375 . S
C1867 C1871 1.532 . S
C1868 H1858 0.930 . S
C1868 C1867 1.375 . S
C1868 C1869 1.416 . S
C1869 C1868 1.416 . S
C1869 C1870 1.371 1_455 S
C1870 H1859 0.930 . S
C1870 C1866 1.389 1_655 S
C1870 C1869 1.371 1_655 S
C1871 H1860 0.970 . S
C1871 H1861 0.970 . S
C1871 C1867 1.532 . S
C1871 C1872 1.499 . S
C1872 C1871 1.499 . S
C1872 C1873 1.370 . S
C1872 C1877 1.415 . S
C1873 H1862 0.930 . S
C1873 C1872 1.370 . S
C1873 C1874 1.407 . S
C1874 C1873 1.407 . S
C1874 C1875 1.365 1_455 S
C1875 H1863 0.930 . S
C1875 C1874 1.365 1_655 S
C1875 C1876 1.393 1_655 S
C1876 C1875 1.393 1_455 S
C1876 C1877 1.387 . S
C1877 H1864 0.930 . S
C1877 C1872 1.415 . S
C1877 C1876 1.387 . S
H1878 C1886 0.930 . S
H1879 C1889 0.930 . S
H1880 C1891 0.930 . S
H1881 C1892 0.970 . S
H1882 C1892 0.970 . S
H1883 C1894 0.930 . S
H1884 C1896 0.930 . S
H1885 C1898 0.930 . S
C1886 H1878 0.930 . S
C1886 C1887 1.382 . S
C1886 C1888 1.426 . S
C1887 C1886 1.382 . S
C1887 C1891 1.389 . S
C1888 C1886 1.426 . S
C1888 C1889 1.375 . S
C1888 C1892 1.532 . S
C1889 H1879 0.930 . S
C1889 C1888 1.375 . S
C1889 C1890 1.416 . S
C1890 C1889 1.416 . S
C1890 C1891 1.371 . S
C1891 H1880 0.930 . S
C1891 C1887 1.389 . S
C1891 C1890 1.371 . S
C1892 H1881 0.970 . S
C1892 H1882 0.970 . S
C1892 C1888 1.532 . S
C1892 C1893 1.499 . S
C1893 C1892 1.499 . S
C1893 C1894 1.370 . S
C1893 C1898 1.415 . S
C1894 H1883 0.930 . S
C1894 C1893 1.370 . S
C1894 C1895 1.407 . S
C1895 C1894 1.407 . S
C1895 C1896 1.365 . S
C1896 H1884 0.930 . S
C1896 C1895 1.365 . S
C1896 C1897 1.393 . S
C1897 C1896 1.393 . S
C1897 C1898 1.387 . S
C1898 H1885 0.930 . S
C1898 C1893 1.415 . S
C1898 C1897 1.387 . S
H1899 C1907 0.930 . S
H1900 C1910 0.930 . S
H1901 C1912 0.930 . S
H1902 C1913 0.970 . S
H1903 C1913 0.970 . S
H1904 C1915 0.930 . S
H1905 C1917 0.930 . S
H1906 C1919 0.930 . S
C1907 H1899 0.930 . S
C1907 C1908 1.382 . S
C1907 C1909 1.426 . S
C1908 C1907 1.382 . S
C1908 C1912 1.389 . S
C1909 C1907 1.426 . S
C1909 C1910 1.375 . S
C1909 C1913 1.532 . S
C1910 H1900 0.930 . S
C1910 C1909 1.375 . S
C1910 C1911 1.416 . S
C1911 C1910 1.416 . S
C1911 C1912 1.371 . S
C1912 H1901 0.930 . S
C1912 C1908 1.389 . S
C1912 C1911 1.371 . S
C1913 H1902 0.970 . S
C1913 H1903 0.970 . S
C1913 C1909 1.532 . S
C1913 C1914 1.499 . S
C1914 C1913 1.499 . S
C1914 C1915 1.370 . S
C1914 C1919 1.415 . S
C1915 H1904 0.930 . S
C1915 C1914 1.370 . S
C1915 C1916 1.407 . S
C1916 C1915 1.407 . S
C1916 C1917 1.365 . S
C1917 H1905 0.930 . S
C1917 C1916 1.365 . S
C1917 C1918 1.393 . S
C1918 C1917 1.393 . S
C1918 C1919 1.387 . S
C1919 H1906 0.930 . S
C1919 C1914 1.415 . S
C1919 C1918 1.387 . S
H1920 C1928 0.930 . S
H1921 C1931 0.930 . S
H1922 C1933 0.930 . S
H1923 C1934 0.970 . S
H1924 C1934 0.970 . S
H1925 C1936 0.930 . S
H1926 C1938 0.930 . S
H1927 C1940 0.930 . S
C1928 H1920 0.930 . S
C1928 C1929 1.382 . S
C1928 C1930 1.426 . S
C1929 C1928 1.382 . S
C1929 C1933 1.389 . S
C1930 C1928 1.426 . S
C1930 C1931 1.375 . S
C1930 C1934 1.532 . S
C1931 H1921 0.930 . S
C1931 C1930 1.375 . S
C1931 C1932 1.416 . S
C1932 C1931 1.416 . S
C1932 C1933 1.371 . S
C1933 H1922 0.930 . S
C1933 C1929 1.389 . S
C1933 C1932 1.371 . S
C1934 H1923 0.970 . S
C1934 H1924 0.970 . S
C1934 C1930 1.532 . S
C1934 C1935 1.499 . S
C1935 C1934 1.499 . S
C1935 C1936 1.370 . S
C1935 C1940 1.415 . S
C1936 H1925 0.930 . S
C1936 C1935 1.370 . S
C1936 C1937 1.407 . S
C1937 C1936 1.407 . S
C1937 C1938 1.365 . S
C1938 H1926 0.930 . S
C1938 C1937 1.365 . S
C1938 C1939 1.393 . S
C1939 C1938 1.393 . S
C1939 C1940 1.387 . S
C1940 H1927 0.930 . S
C1940 C1935 1.415 . S
C1940 C1939 1.387 . S
H1941 C1949 0.930 . S
H1942 C1952 0.930 . S
H1943 C1954 0.930 . S
H1944 C1955 0.970 . S
H1945 C1955 0.970 . S
H1946 C1957 0.930 . S
H1947 C1959 0.930 . S
H1948 C1961 0.930 . S
C1949 H1941 0.930 . S
C1949 C1950 1.382 . S
C1949 C1951 1.426 . S
C1950 C1949 1.382 . S
C1950 C1954 1.389 . S
C1951 C1949 1.426 . S
C1951 C1952 1.375 . S
C1951 C1955 1.532 . S
C1952 H1942 0.930 . S
C1952 C1951 1.375 . S
C1952 C1953 1.416 . S
C1953 C1952 1.416 . S
C1953 C1954 1.371 . S
C1954 H1943 0.930 . S
C1954 C1950 1.389 . S
C1954 C1953 1.371 . S
C1955 H1944 0.970 . S
C1955 H1945 0.970 . S
C1955 C1951 1.532 . S
C1955 C1956 1.499 . S
C1956 C1955 1.499 . S
C1956 C1957 1.370 . S
C1956 C1961 1.415 . S
C1957 H1946 0.930 . S
C1957 C1956 1.370 . S
C1957 C1958 1.407 . S
C1958 C1957 1.407 . S
C1958 C1959 1.365 . S
C1959 H1947 0.930 . S
C1959 C1958 1.365 . S
C1959 C1960 1.393 . S
C1960 C1959 1.393 . S
C1960 C1961 1.387 . S
C1961 H1948 0.930 . S
C1961 C1956 1.415 . S
C1961 C1960 1.387 . S
C1962 C1963 1.356 1_455 S
C1962 C1964 1.413 . S
C1962 H1966 0.950 . S
C1963 C1962 1.356 1_655 S
C1963 C1972 1.429 . S
C1964 C1962 1.413 . S
C1964 C1965 1.363 1_455 S
C1964 H1967 0.929 . S
C1965 C1964 1.363 1_655 S
C1965 C1971 1.428 . S
H1966 C1962 0.950 . S
H1967 C1964 0.929 . S
S1968 N1969 1.613 . S
S1968 N1970 1.610 . S
N1969 S1968 1.613 . S
N1969 C1972 1.350 . S
N1970 S1968 1.610 . S
N1970 C1971 1.351 . S
C1971 C1965 1.428 . S
C1971 N1970 1.351 . S
C1971 C1972 1.434 . S
C1972 C1963 1.429 . S
C1972 N1969 1.350 . S
C1972 C1971 1.434 . S
C1973 C1974 1.369 . S
C1973 C1975 1.419 . S
C1973 H1977 0.930 . S
C1974 C1973 1.369 . S
C1974 C1983 1.429 . S
C1975 C1973 1.419 . S
C1975 C1976 1.363 . S
C1975 H1978 0.929 . S
C1976 C1975 1.363 . S
C1976 C1982 1.428 . S
H1977 C1973 0.930 . S
H1978 C1975 0.929 . S
S1979 N1980 1.613 . S
S1979 N1981 1.610 . S
N1980 S1979 1.613 . S
N1980 C1983 1.350 . S
N1981 S1979 1.610 . S
N1981 C1982 1.351 . S
C1982 C1976 1.428 . S
C1982 N1981 1.351 . S
C1982 C1983 1.434 . S
C1983 C1974 1.429 . S
C1983 N1980 1.350 . S
C1983 C1982 1.434 . S
C1984 C1985 1.369 . S
C1984 C1986 1.419 . S
C1984 H1988 0.930 . S
C1985 C1984 1.369 . S
C1985 C1994 1.429 . S
C1986 C1984 1.419 . S
C1986 C1987 1.363 . S
C1986 H1989 0.929 . S
C1987 C1986 1.363 . S
C1987 C1993 1.435 1_545 S
H1988 C1984 0.930 . S
H1989 C1986 0.929 . S
S1990 N1991 1.613 . S
S1990 N1992 1.610 . S
N1991 S1990 1.613 . S
N1991 C1994 1.350 1_565 S
N1992 S1990 1.610 . S
N1992 C1993 1.378 . S
C1993 C1987 1.435 1_565 S
C1993 N1992 1.378 . S
C1993 C1994 1.398 1_565 S
C1994 C1985 1.429 . S
C1994 N1991 1.350 1_545 S
C1994 C1993 1.398 1_545 S
C1995 C1996 1.369 . S
C1995 C1997 1.419 . S
C1995 H1999 0.930 . S
C1996 C1995 1.369 . S
C1996 C2005 1.429 . S
C1997 C1995 1.419 . S
C1997 C1998 1.363 . S
C1997 H2000 0.929 . S
C1998 C1997 1.363 . S
C1998 C2004 1.428 . S
H1999 C1995 0.930 . S
H2000 C1997 0.929 . S
S2001 N2002 1.613 . S
S2001 N2003 1.610 . S
N2002 S2001 1.613 . S
N2002 C2005 1.350 . S
N2003 S2001 1.610 . S
N2003 C2004 1.351 . S
C2004 C1998 1.428 . S
C2004 N2003 1.351 . S
C2004 C2005 1.434 . S
C2005 C1996 1.429 . S
C2005 N2002 1.350 . S
C2005 C2004 1.434 . S
C2006 C2007 1.369 . S
C2006 C2008 1.419 . S
C2006 H2010 0.930 . S
C2007 C2006 1.369 . S
C2007 C2016 1.429 1_455 S
C2008 C2006 1.419 . S
C2008 C2009 1.363 . S
C2008 H2011 0.929 . S
C2009 C2008 1.363 . S
C2009 C2015 1.428 1_455 S
H2010 C2006 0.930 . S
H2011 C2008 0.929 . S
S2012 N2013 1.613 . S
S2012 N2014 1.610 . S
N2013 S2012 1.613 . S
N2013 C2016 1.350 . S
N2014 S2012 1.610 . S
N2014 C2015 1.351 . S
C2015 C2009 1.428 1_655 S
C2015 N2014 1.351 . S
C2015 C2016 1.434 . S
C2016 C2007 1.429 1_655 S
C2016 N2013 1.350 . S
C2016 C2015 1.434 . S
C2017 C2018 1.369 . S
C2017 C2019 1.419 . S
C2017 H2021 0.930 . S
C2018 C2017 1.369 . S
C2018 C2027 1.429 . S
C2019 C2017 1.419 . S
C2019 C2020 1.363 . S
C2019 H2022 0.929 . S
C2020 C2019 1.363 . S
C2020 C2026 1.428 . S
H2021 C2017 0.930 . S
H2022 C2019 0.929 . S
S2023 N2024 1.613 . S
S2023 N2025 1.610 . S
N2024 S2023 1.613 . S
N2024 C2027 1.350 . S
N2025 S2023 1.610 . S
N2025 C2026 1.351 . S
C2026 C2020 1.428 . S
C2026 N2025 1.351 . S
C2026 C2027 1.434 . S
C2027 C2018 1.429 . S
C2027 N2024 1.350 . S
C2027 C2026 1.434 . S
C2028 C2029 1.369 . S
C2028 C2030 1.419 . S
C2028 H2032 0.930 . S
C2029 C2028 1.369 . S
C2029 C2038 1.429 . S
C2030 C2028 1.419 . S
C2030 C2031 1.363 . S
C2030 H2033 0.929 . S
C2031 C2030 1.363 . S
C2031 C2037 1.428 . S
H2032 C2028 0.930 . S
H2033 C2030 0.929 . S
S2034 N2035 1.613 . S
S2034 N2036 1.610 . S
N2035 S2034 1.613 . S
N2035 C2038 1.350 . S
N2036 S2034 1.610 . S
N2036 C2037 1.351 . S
C2037 C2031 1.428 . S
C2037 N2036 1.351 . S
C2037 C2038 1.434 . S
C2038 C2029 1.429 . S
C2038 N2035 1.350 . S
C2038 C2037 1.434 . S
C2039 C2040 1.369 . S
C2039 C2041 1.419 . S
C2039 H2043 0.930 . S
C2040 C2039 1.369 . S
C2040 C2049 1.429 . S
C2041 C2039 1.419 . S
C2041 C2042 1.363 . S
C2041 H2044 0.929 . S
C2042 C2041 1.363 . S
C2042 C2048 1.428 . S
H2043 C2039 0.930 . S
H2044 C2041 0.929 . S
S2045 N2046 1.613 . S
S2045 N2047 1.610 . S
N2046 S2045 1.613 . S
N2046 C2049 1.350 . S
N2047 S2045 1.610 . S
N2047 C2048 1.351 . S
C2048 C2042 1.428 . S
C2048 N2047 1.351 . S
C2048 C2049 1.434 . S
C2049 C2040 1.429 . S
C2049 N2046 1.350 . S
C2049 C2048 1.434 . S
C2050 C2051 1.369 . S
C2050 C2052 1.419 . S
C2050 H2054 0.930 . S
C2051 C2050 1.369 . S
C2051 C2060 1.429 . S
C2052 C2050 1.419 . S
C2052 C2053 1.363 . S
C2052 H2055 0.917 1_565 S
C2053 C2052 1.363 . S
C2053 C2059 1.428 . S
H2054 C2050 0.930 . S
H2055 C2052 0.917 1_545 S
S2056 N2057 1.613 . S
S2056 N2058 1.610 . S
N2057 S2056 1.613 . S
N2057 C2060 1.350 . S
N2058 S2056 1.610 . S
N2058 C2059 1.351 . S
C2059 C2053 1.428 . S
C2059 N2058 1.351 . S
C2059 C2060 1.434 . S
C2060 C2051 1.429 . S
C2060 N2057 1.350 . S
C2060 C2059 1.434 . S
C2061 C2062 1.369 . S
C2061 C2063 1.419 . S
C2061 H2065 0.930 . S
C2062 C2061 1.369 . S
C2062 C2071 1.385 1_545 S
C2063 C2061 1.419 . S
C2063 C2064 1.363 . S
C2063 H2066 0.929 . S
C2064 C2063 1.363 . S
C2064 C2070 1.428 1_545 S
H2065 C2061 0.930 . S
H2066 C2063 0.929 . S
S2067 N2068 1.613 . S
S2067 N2069 1.610 . S
N2068 S2067 1.613 . S
N2068 C2071 1.413 . S
N2069 S2067 1.610 . S
N2069 C2070 1.351 . S
C2070 C2064 1.428 1_565 S
C2070 N2069 1.351 . S
C2070 C2071 1.421 . S
C2071 C2062 1.385 1_565 S
C2071 N2068 1.413 . S
C2071 C2070 1.421 . S
C2072 C2073 1.369 . S
C2072 C2074 1.419 . S
C2072 H2076 0.930 . S
C2073 C2072 1.369 . S
C2073 C2082 1.429 1_655 S
C2074 C2072 1.419 . S
C2074 C2075 1.363 . S
C2074 H2077 0.929 . S
C2075 C2074 1.363 . S
C2075 C2081 1.428 1_655 S
H2076 C2072 0.930 . S
H2077 C2074 0.929 . S
S2078 N2079 1.613 . S
S2078 N2080 1.610 . S
N2079 S2078 1.613 . S
N2079 C2082 1.350 . S
N2080 S2078 1.610 . S
N2080 C2081 1.351 . S
C2081 C2075 1.428 1_455 S
C2081 N2080 1.351 . S
C2081 C2082 1.434 . S
C2082 C2073 1.429 1_455 S
C2082 N2079 1.350 . S
C2082 C2081 1.434 . S
C2083 C2084 1.369 . S
C2083 C2085 1.419 . S
C2083 H2087 0.930 . S
C2084 C2083 1.369 . S
C2084 C2093 1.429 . S
C2085 C2083 1.419 . S
C2085 C2086 1.363 . S
C2085 H2088 0.929 . S
C2086 C2085 1.363 . S
C2086 C2092 1.428 . S
H2087 C2083 0.930 . S
H2088 C2085 0.929 . S
S2089 N2090 1.613 . S
S2089 N2091 1.610 . S
N2090 S2089 1.613 . S
N2090 C2093 1.350 . S
N2091 S2089 1.610 . S
N2091 C2092 1.351 . S
C2092 C2086 1.428 . S
C2092 N2091 1.351 . S
C2092 C2093 1.434 . S
C2093 C2084 1.429 . S
C2093 N2090 1.350 . S
C2093 C2092 1.434 . S
C2094 C2095 1.369 . S
C2094 C2096 1.419 . S
C2094 H2098 0.930 . S
C2095 C2094 1.369 . S
C2095 C2104 1.429 . S
C2096 C2094 1.419 . S
C2096 C2097 1.363 . S
C2096 H2099 0.929 . S
C2097 C2096 1.363 . S
C2097 C2103 1.428 . S
H2098 C2094 0.930 . S
H2099 C2096 0.929 . S
S2100 N2101 1.613 . S
S2100 N2102 1.610 . S
N2101 S2100 1.613 . S
N2101 C2104 1.350 . S
N2102 S2100 1.610 . S
N2102 C2103 1.351 . S
C2103 C2097 1.428 . S
C2103 N2102 1.351 . S
C2103 C2104 1.434 . S
C2104 C2095 1.429 . S
C2104 N2101 1.350 . S
C2104 C2103 1.434 . S
C2105 C2106 1.369 . S
C2105 C2107 1.419 . S
C2105 H2109 0.930 . S
C2106 C2105 1.369 . S
C2106 C2115 1.429 . S
C2107 C2105 1.419 . S
C2107 C2108 1.363 . S
C2107 H2110 0.929 . S
C2108 C2107 1.363 . S
C2108 C2114 1.428 . S
H2109 C2105 0.930 . S
H2110 C2107 0.929 . S
S2111 N2112 1.613 . S
S2111 N2113 1.610 . S
N2112 S2111 1.613 . S
N2112 C2115 1.350 . S
N2113 S2111 1.610 . S
N2113 C2114 1.351 . S
C2114 C2108 1.428 . S
C2114 N2113 1.351 . S
C2114 C2115 1.434 . S
C2115 C2106 1.429 . S
C2115 N2112 1.350 . S
C2115 C2114 1.434 . S
C2116 C2117 1.369 . S
C2116 C2118 1.419 . S
C2116 H2120 0.930 . S
C2117 C2116 1.369 . S
C2117 C2126 1.429 . S
C2118 C2116 1.419 . S
C2118 C2119 1.363 . S
C2118 H2121 0.929 . S
C2119 C2118 1.363 . S
C2119 C2125 1.428 . S
H2120 C2116 0.930 . S
H2121 C2118 0.929 . S
S2122 N2123 1.613 . S
S2122 N2124 1.610 . S
N2123 S2122 1.613 . S
N2123 C2126 1.350 . S
N2124 S2122 1.610 . S
N2124 C2125 1.351 . S
C2125 C2119 1.428 . S
C2125 N2124 1.351 . S
C2125 C2126 1.434 . S
C2126 C2117 1.429 . S
C2126 N2123 1.350 . S
C2126 C2125 1.434 . S
C2127 C2128 1.369 . S
C2127 C2129 1.419 . S
C2127 H2131 0.930 . S
C2128 C2127 1.369 . S
C2128 C2137 1.429 . S
C2129 C2127 1.419 . S
C2129 C2130 1.363 . S
C2129 H2132 0.929 . S
C2130 C2129 1.363 . S
C2130 C2136 1.428 . S
H2131 C2127 0.930 . S
H2132 C2129 0.929 . S
S2133 N2134 1.613 . S
S2133 N2135 1.610 . S
N2134 S2133 1.613 . S
N2134 C2137 1.350 . S
N2135 S2133 1.610 . S
N2135 C2136 1.351 . S
C2136 C2130 1.428 . S
C2136 N2135 1.351 . S
C2136 C2137 1.434 . S
C2137 C2128 1.429 . S
C2137 N2134 1.350 . S
C2137 C2136 1.434 . S
C2138 C2139 1.369 . S
C2138 C2140 1.419 . S
C2138 H2142 0.930 . S
C2139 C2138 1.369 . S
C2139 C2148 1.429 . S
C2140 C2138 1.419 . S
C2140 C2141 1.363 . S
C2140 H2143 0.929 . S
C2141 C2140 1.363 . S
C2141 C2147 1.428 . S
H2142 C2138 0.930 . S
H2143 C2140 0.929 . S
S2144 N2145 1.613 . S
S2144 N2146 1.610 . S
N2145 S2144 1.613 . S
N2145 C2148 1.350 . S
N2146 S2144 1.610 . S
N2146 C2147 1.351 . S
C2147 C2141 1.428 . S
C2147 N2146 1.351 . S
C2147 C2148 1.434 . S
C2148 C2139 1.429 . S
C2148 N2145 1.350 . S
C2148 C2147 1.434 . S
C2149 C2150 1.369 . S
C2149 C2151 1.419 . S
C2149 H2153 0.930 . S
C2150 C2149 1.369 . S
C2150 C2159 1.429 . S
C2151 C2149 1.419 . S
C2151 C2152 1.363 . S
C2151 H2154 0.929 . S
C2152 C2151 1.363 . S
C2152 C2158 1.428 . S
H2153 C2149 0.930 . S
H2154 C2151 0.929 . S
S2155 N2156 1.613 . S
S2155 N2157 1.610 . S
N2156 S2155 1.613 . S
N2156 C2159 1.350 . S
N2157 S2155 1.610 . S
N2157 C2158 1.351 . S
C2158 C2152 1.428 . S
C2158 N2157 1.351 . S
C2158 C2159 1.434 . S
C2159 C2150 1.429 . S
C2159 N2156 1.350 . S
C2159 C2158 1.434 . S
C2160 C2161 1.369 . S
C2160 C2162 1.419 . S
C2160 H2164 0.930 . S
C2161 C2160 1.369 . S
C2161 C2170 1.429 . S
C2162 C2160 1.419 . S
C2162 C2163 1.363 . S
C2162 H2165 0.929 . S
C2163 C2162 1.363 . S
C2163 C2169 1.428 . S
H2164 C2160 0.930 . S
H2165 C2162 0.929 . S
S2166 N2167 1.613 . S
S2166 N2168 1.610 . S
N2167 S2166 1.613 . S
N2167 C2170 1.350 . S
N2168 S2166 1.610 . S
N2168 C2169 1.351 . S
C2169 C2163 1.428 . S
C2169 N2168 1.351 . S
C2169 C2170 1.434 . S
C2170 C2161 1.429 . S
C2170 N2167 1.350 . S
C2170 C2169 1.434 . S
C2171 C2172 1.369 . S
C2171 C2173 1.419 . S
C2171 H2175 0.930 . S
C2172 C2171 1.369 . S
C2172 C2181 1.429 . S
C2173 C2171 1.419 . S
C2173 C2174 1.363 . S
C2173 H2176 0.929 . S
C2174 C2173 1.363 . S
C2174 C2180 1.428 . S
H2175 C2171 0.930 . S
H2176 C2173 0.929 . S
S2177 N2178 1.613 . S
S2177 N2179 1.610 . S
N2178 S2177 1.613 . S
N2178 C2181 1.350 . S
N2179 S2177 1.610 . S
N2179 C2180 1.351 . S
C2180 C2174 1.428 . S
C2180 N2179 1.351 . S
C2180 C2181 1.434 . S
C2181 C2172 1.429 . S
C2181 N2178 1.350 . S
C2181 C2180 1.434 . S
C2182 C2183 1.369 . S
C2182 C2184 1.419 . S
C2182 H2186 0.930 . S
C2183 C2182 1.369 . S
C2183 C2192 1.429 . S
C2184 C2182 1.419 . S
C2184 C2185 1.363 . S
C2184 H2187 0.929 . S
C2185 C2184 1.363 . S
C2185 C2191 1.428 . S
H2186 C2182 0.930 . S
H2187 C2184 0.929 . S
S2188 N2189 1.613 . S
S2188 N2190 1.610 . S
N2189 S2188 1.613 . S
N2189 C2192 1.350 . S
N2190 S2188 1.610 . S
N2190 C2191 1.351 . S
C2191 C2185 1.428 . S
C2191 N2190 1.351 . S
C2191 C2192 1.434 . S
C2192 C2183 1.429 . S
C2192 N2189 1.350 . S
C2192 C2191 1.434 . S
C2193 C2194 1.369 . S
C2193 C2195 1.419 . S
C2193 H2197 0.930 . S
C2194 C2193 1.369 . S
C2194 C2203 1.429 . S
C2195 C2193 1.419 . S
C2195 C2196 1.363 . S
C2195 H2198 0.929 . S
C2196 C2195 1.363 . S
C2196 C2202 1.428 . S
H2197 C2193 0.930 . S
H2198 C2195 0.929 . S
S2199 N2200 1.613 . S
S2199 N2201 1.610 . S
N2200 S2199 1.613 . S
N2200 C2203 1.350 . S
N2201 S2199 1.610 . S
N2201 C2202 1.351 . S
C2202 C2196 1.428 . S
C2202 N2201 1.351 . S
C2202 C2203 1.434 . S
C2203 C2194 1.429 . S
C2203 N2200 1.350 . S
C2203 C2202 1.434 . S
C2204 C2205 1.369 . S
C2204 C2206 1.419 . S
C2204 H2208 0.930 . S
C2205 C2204 1.369 . S
C2205 C2214 1.429 . S
C2206 C2204 1.419 . S
C2206 C2207 1.363 . S
C2206 H2209 0.929 . S
C2207 C2206 1.363 . S
C2207 C2213 1.428 . S
H2208 C2204 0.930 . S
H2209 C2206 0.929 . S
S2210 N2211 1.613 . S
S2210 N2212 1.610 . S
N2211 S2210 1.613 . S
N2211 C2214 1.350 . S
N2212 S2210 1.610 . S
N2212 C2213 1.351 . S
C2213 C2207 1.428 . S
C2213 N2212 1.351 . S
C2213 C2214 1.434 . S
C2214 C2205 1.429 . S
C2214 N2211 1.350 . S
C2214 C2213 1.434 . S
C2215 C2216 1.369 . S
C2215 C2217 1.419 . S
C2215 H2219 0.930 . S
C2216 C2215 1.369 . S
C2216 C2225 1.429 . S
C2217 C2215 1.419 . S
C2217 C2218 1.363 . S
C2217 H2220 0.929 . S
C2218 C2217 1.363 . S
C2218 C2224 1.428 . S
H2219 C2215 0.930 . S
H2220 C2217 0.929 . S
S2221 N2222 1.613 . S
S2221 N2223 1.610 . S
N2222 S2221 1.613 . S
N2222 C2225 1.350 . S
N2223 S2221 1.610 . S
N2223 C2224 1.351 . S
C2224 C2218 1.428 . S
C2224 N2223 1.351 . S
C2224 C2225 1.434 . S
C2225 C2216 1.429 . S
C2225 N2222 1.350 . S
C2225 C2224 1.434 . S
C2226 C2227 1.369 . S
C2226 C2228 1.419 . S
C2226 H2230 0.930 . S
C2227 C2226 1.369 . S
C2227 C2236 1.429 . S
C2228 C2226 1.419 . S
C2228 C2229 1.363 . S
C2228 H2231 0.929 . S
C2229 C2228 1.363 . S
C2229 C2235 1.428 . S
H2230 C2226 0.930 . S
H2231 C2228 0.929 . S
S2232 N2233 1.613 . S
S2232 N2234 1.610 . S
N2233 S2232 1.613 . S
N2233 C2236 1.350 . S
N2234 S2232 1.610 . S
N2234 C2235 1.351 . S
C2235 C2229 1.428 . S
C2235 N2234 1.351 . S
C2235 C2236 1.434 . S
C2236 C2227 1.429 . S
C2236 N2233 1.350 . S
C2236 C2235 1.434 . S
C2237 C2238 1.369 . S
C2237 C2239 1.419 . S
C2237 H2241 0.930 . S
C2238 C2237 1.369 . S
C2238 C2247 1.429 . S
C2239 C2237 1.419 . S
C2239 C2240 1.363 . S
C2239 H2242 0.929 . S
C2240 C2239 1.363 . S
C2240 C2246 1.428 . S
H2241 C2237 0.930 . S
H2242 C2239 0.929 . S
S2243 N2244 1.613 . S
S2243 N2245 1.610 . S
N2244 S2243 1.613 . S
N2244 C2247 1.350 . S
N2245 S2243 1.610 . S
N2245 C2246 1.351 . S
C2246 C2240 1.428 . S
C2246 N2245 1.351 . S
C2246 C2247 1.434 . S
C2247 C2238 1.429 . S
C2247 N2244 1.350 . S
C2247 C2246 1.434 . S
C2248 C2249 1.369 . S
C2248 C2250 1.419 . S
C2248 H2252 0.930 . S
C2249 C2248 1.369 . S
C2249 C2258 1.429 . S
C2250 C2248 1.419 . S
C2250 C2251 1.363 . S
C2250 H2253 0.929 . S
C2251 C2250 1.363 . S
C2251 C2257 1.428 . S
H2252 C2248 0.930 . S
H2253 C2250 0.929 . S
S2254 N2255 1.613 . S
S2254 N2256 1.610 . S
N2255 S2254 1.613 . S
N2255 C2258 1.350 . S
N2256 S2254 1.610 . S
N2256 C2257 1.351 . S
C2257 C2251 1.428 . S
C2257 N2256 1.351 . S
C2257 C2258 1.434 . S
C2258 C2249 1.429 . S
C2258 N2255 1.350 . S
C2258 C2257 1.434 . S
C2259 C2260 1.369 . S
C2259 C2261 1.419 . S
C2259 H2263 0.930 . S
C2260 C2259 1.369 . S
C2260 C2269 1.429 . S
C2261 C2259 1.419 . S
C2261 C2262 1.363 . S
C2261 H2264 0.929 . S
C2262 C2261 1.363 . S
C2262 C2268 1.428 . S
H2263 C2259 0.930 . S
H2264 C2261 0.929 . S
S2265 N2266 1.613 . S
S2265 N2267 1.610 . S
N2266 S2265 1.613 . S
N2266 C2269 1.350 . S
N2267 S2265 1.610 . S
N2267 C2268 1.351 . S
C2268 C2262 1.428 . S
C2268 N2267 1.351 . S
C2268 C2269 1.434 . S
C2269 C2260 1.429 . S
C2269 N2266 1.350 . S
C2269 C2268 1.434 . S
C2270 C2271 1.369 . S
C2270 C2272 1.419 . S
C2270 H2274 0.930 . S
C2271 C2270 1.369 . S
C2271 C2280 1.429 . S
C2272 C2270 1.419 . S
C2272 C2273 1.363 . S
C2272 H2275 0.929 . S
C2273 C2272 1.363 . S
C2273 C2279 1.428 . S
H2274 C2270 0.930 . S
H2275 C2272 0.929 . S
S2276 N2277 1.613 . S
S2276 N2278 1.610 . S
N2277 S2276 1.613 . S
N2277 C2280 1.350 . S
N2278 S2276 1.610 . S
N2278 C2279 1.351 . S
C2279 C2273 1.428 . S
C2279 N2278 1.351 . S
C2279 C2280 1.434 . S
C2280 C2271 1.429 . S
C2280 N2277 1.350 . S
C2280 C2279 1.434 . S
C2281 C2282 1.369 . S
C2281 C2283 1.419 . S
C2281 H2285 0.930 . S
C2282 C2281 1.369 . S
C2282 C2291 1.429 . S
C2283 C2281 1.419 . S
C2283 C2284 1.363 . S
C2283 H2286 0.929 . S
C2284 C2283 1.363 . S
C2284 C2290 1.428 . S
H2285 C2281 0.930 . S
H2286 C2283 0.929 . S
S2287 N2288 1.613 . S
S2287 N2289 1.610 . S
N2288 S2287 1.613 . S
N2288 C2291 1.350 . S
N2289 S2287 1.610 . S
N2289 C2290 1.351 . S
C2290 C2284 1.428 . S
C2290 N2289 1.351 . S
C2290 C2291 1.434 . S
C2291 C2282 1.429 . S
C2291 N2288 1.350 . S
C2291 C2290 1.434 . S
C2292 C2293 1.369 . S
C2292 C2294 1.419 . S
C2292 H2296 0.930 . S
C2293 C2292 1.369 . S
C2293 C2302 1.429 . S
C2294 C2292 1.419 . S
C2294 C2295 1.363 . S
C2294 H2297 0.929 . S
C2295 C2294 1.363 . S
C2295 C2301 1.428 . S
H2296 C2292 0.930 . S
H2297 C2294 0.929 . S
S2298 N2299 1.613 . S
S2298 N2300 1.610 . S
N2299 S2298 1.613 . S
N2299 C2302 1.350 . S
N2300 S2298 1.610 . S
N2300 C2301 1.351 . S
C2301 C2295 1.428 . S
C2301 N2300 1.351 . S
C2301 C2302 1.434 . S
C2302 C2293 1.429 . S
C2302 N2299 1.350 . S
C2302 C2301 1.434 . S
C2303 C2304 1.369 . S
C2303 C2305 1.419 . S
C2303 H2307 0.930 . S
C2304 C2303 1.369 . S
C2304 C2313 1.429 . S
C2305 C2303 1.419 . S
C2305 C2306 1.363 . S
C2305 H2308 0.929 . S
C2306 C2305 1.363 . S
C2306 C2312 1.428 . S
H2307 C2303 0.930 . S
H2308 C2305 0.929 . S
S2309 N2310 1.613 . S
S2309 N2311 1.610 . S
N2310 S2309 1.613 . S
N2310 C2313 1.350 . S
N2311 S2309 1.610 . S
N2311 C2312 1.351 . S
C2312 C2306 1.428 . S
C2312 N2311 1.351 . S
C2312 C2313 1.434 . S
C2313 C2304 1.429 . S
C2313 N2310 1.350 . S
C2313 C2312 1.434 . S
C2314 C2315 1.369 . S
C2314 C2316 1.419 . S
C2314 H2318 0.930 . S
C2315 C2314 1.369 . S
C2315 C2324 1.429 . S
C2316 C2314 1.419 . S
C2316 C2317 1.363 . S
C2316 H2319 0.929 . S
C2317 C2316 1.363 . S
C2317 C2323 1.428 . S
H2318 C2314 0.930 . S
H2319 C2316 0.929 . S
S2320 N2321 1.613 . S
S2320 N2322 1.610 . S
N2321 S2320 1.613 . S
N2321 C2324 1.350 . S
N2322 S2320 1.610 . S
N2322 C2323 1.351 . S
C2323 C2317 1.428 . S
C2323 N2322 1.351 . S
C2323 C2324 1.434 . S
C2324 C2315 1.429 . S
C2324 N2321 1.350 . S
C2324 C2323 1.434 . S
C2325 C2326 1.369 . S
C2325 C2327 1.419 . S
C2325 H2329 0.930 . S
C2326 C2325 1.369 . S
C2326 C2335 1.429 . S
C2327 C2325 1.419 . S
C2327 C2328 1.363 . S
C2327 H2330 0.929 . S
C2328 C2327 1.363 . S
C2328 C2334 1.428 . S
H2329 C2325 0.930 . S
H2330 C2327 0.929 . S
S2331 N2332 1.613 . S
S2331 N2333 1.610 . S
N2332 S2331 1.613 . S
N2332 C2335 1.350 . S
N2333 S2331 1.610 . S
N2333 C2334 1.351 . S
C2334 C2328 1.428 . S
C2334 N2333 1.351 . S
C2334 C2335 1.434 . S
C2335 C2326 1.429 . S
C2335 N2332 1.350 . S
C2335 C2334 1.434 . S
C2336 C2337 1.369 . S
C2336 C2338 1.419 . S
C2336 H2340 0.930 . S
C2337 C2336 1.369 . S
C2337 C2346 1.429 . S
C2338 C2336 1.419 . S
C2338 C2339 1.363 . S
C2338 H2341 0.929 . S
C2339 C2338 1.363 . S
C2339 C2345 1.428 . S
H2340 C2336 0.930 . S
H2341 C2338 0.929 . S
S2342 N2343 1.613 . S
S2342 N2344 1.610 . S
N2343 S2342 1.613 . S
N2343 C2346 1.350 . S
N2344 S2342 1.610 . S
N2344 C2345 1.351 . S
C2345 C2339 1.428 . S
C2345 N2344 1.351 . S
C2345 C2346 1.434 . S
C2346 C2337 1.429 . S
C2346 N2343 1.350 . S
C2346 C2345 1.434 . S
C2347 C2348 1.369 . S
C2347 C2349 1.419 . S
C2347 H2351 0.930 . S
C2348 C2347 1.369 . S
C2348 C2357 1.429 . S
C2349 C2347 1.419 . S
C2349 C2350 1.363 . S
C2349 H2352 0.929 . S
C2350 C2349 1.363 . S
C2350 C2356 1.428 . S
H2351 C2347 0.930 . S
H2352 C2349 0.929 . S
S2353 N2354 1.613 . S
S2353 N2355 1.610 . S
N2354 S2353 1.613 . S
N2354 C2357 1.350 . S
N2355 S2353 1.610 . S
N2355 C2356 1.351 . S
C2356 C2350 1.428 . S
C2356 N2355 1.351 . S
C2356 C2357 1.434 . S
C2357 C2348 1.429 . S
C2357 N2354 1.350 . S
C2357 C2356 1.434 . S
C2358 C2359 1.369 . S
C2358 C2360 1.419 . S
C2358 H2362 0.930 . S
C2359 C2358 1.369 . S
C2359 C2368 1.429 . S
C2360 C2358 1.419 . S
C2360 C2361 1.363 . S
C2360 H2363 0.929 . S
C2361 C2360 1.363 . S
C2361 C2367 1.428 . S
H2362 C2358 0.930 . S
H2363 C2360 0.929 . S
S2364 N2365 1.613 . S
S2364 N2366 1.610 . S
N2365 S2364 1.613 . S
N2365 C2368 1.350 . S
N2366 S2364 1.610 . S
N2366 C2367 1.351 . S
C2367 C2361 1.428 . S
C2367 N2366 1.351 . S
C2367 C2368 1.434 . S
C2368 C2359 1.429 . S
C2368 N2365 1.350 . S
C2368 C2367 1.434 . S
C2369 C2370 1.369 . S
C2369 C2371 1.419 . S
C2369 H2373 0.930 . S
C2370 C2369 1.369 . S
C2370 C2379 1.429 . S
C2371 C2369 1.419 . S
C2371 C2372 1.363 . S
C2371 H2374 0.929 . S
C2372 C2371 1.363 . S
C2372 C2378 1.428 . S
H2373 C2369 0.930 . S
H2374 C2371 0.929 . S
S2375 N2376 1.613 . S
S2375 N2377 1.610 . S
N2376 S2375 1.613 . S
N2376 C2379 1.350 . S
N2377 S2375 1.610 . S
N2377 C2378 1.351 . S
C2378 C2372 1.428 . S
C2378 N2377 1.351 . S
C2378 C2379 1.434 . S
C2379 C2370 1.429 . S
C2379 N2376 1.350 . S
C2379 C2378 1.434 . S
C2380 C2381 1.369 . S
C2380 C2382 1.419 . S
C2380 H2384 0.930 . S
C2381 C2380 1.369 . S
C2381 C2390 1.429 . S
C2382 C2380 1.419 . S
C2382 C2383 1.363 . S
C2382 H2385 0.929 . S
C2383 C2382 1.363 . S
C2383 C2389 1.428 . S
H2384 C2380 0.930 . S
H2385 C2382 0.929 . S
S2386 N2387 1.610 1_556 S
S2386 N2388 1.610 1_556 S
N2387 S2386 1.610 1_554 S
N2387 C2390 1.365 . S
N2388 S2386 1.610 1_554 S
N2388 C2389 1.351 . S
C2389 C2383 1.428 . S
C2389 N2388 1.351 . S
C2389 C2390 1.434 . S
C2390 C2381 1.429 . S
C2390 N2387 1.365 . S
C2390 C2389 1.434 . S
C2391 C2392 1.369 . S
C2391 C2393 1.419 . S
C2391 H2395 0.930 . S
C2392 C2391 1.369 . S
C2392 C2401 1.429 . S
C2393 C2391 1.419 . S
C2393 C2394 1.363 . S
C2393 H2396 0.929 . S
C2394 C2393 1.363 . S
C2394 C2400 1.428 . S
H2395 C2391 0.930 . S
H2396 C2393 0.929 . S
S2397 N2398 1.613 . S
S2397 N2399 1.607 . S
N2398 S2397 1.613 . S
N2398 C2401 1.350 1_554 S
N2399 S2397 1.607 . S
N2399 C2400 1.353 1_554 S
C2400 C2394 1.428 . S
C2400 N2399 1.353 1_556 S
C2400 C2401 1.434 . S
C2401 C2392 1.429 . S
C2401 N2398 1.350 1_556 S
C2401 C2400 1.434 . S
C2402 C2403 1.369 . S
C2402 C2404 1.419 . S
C2402 H2406 0.930 . S
C2403 C2402 1.369 . S
C2403 C2412 1.429 . S
C2404 C2402 1.419 . S
C2404 C2405 1.363 . S
C2404 H2407 0.929 . S
C2405 C2404 1.363 . S
C2405 C2411 1.428 . S
H2406 C2402 0.930 . S
H2407 C2404 0.929 . S
S2408 N2409 1.613 . S
S2408 N2410 1.610 . S
N2409 S2408 1.613 . S
N2409 C2412 1.350 . S
N2410 S2408 1.610 . S
N2410 C2411 1.351 . S
C2411 C2405 1.428 . S
C2411 N2410 1.351 . S
C2411 C2412 1.434 . S
C2412 C2403 1.429 . S
C2412 N2409 1.350 . S
C2412 C2411 1.434 . S
C2413 C2414 1.369 . S
C2413 C2415 1.419 . S
C2413 H2417 0.930 . S
C2414 C2413 1.369 . S
C2414 C2423 1.429 . S
C2415 C2413 1.419 . S
C2415 C2416 1.363 . S
C2415 H2418 0.929 . S
C2416 C2415 1.363 . S
C2416 C2422 1.428 . S
H2417 C2413 0.930 . S
H2418 C2415 0.929 . S
S2419 N2420 1.613 . S
S2419 N2421 1.610 1_554 S
N2420 S2419 1.613 . S
N2420 C2423 1.350 1_554 S
N2421 S2419 1.610 1_556 S
N2421 C2422 1.351 . S
C2422 C2416 1.428 . S
C2422 N2421 1.351 . S
C2422 C2423 1.434 . S
C2423 C2414 1.429 . S
C2423 N2420 1.350 1_556 S
C2423 C2422 1.434 . S
C2424 C2425 1.369 . S
C2424 C2426 1.419 . S
C2424 H2428 0.930 . S
C2425 C2424 1.369 . S
C2425 C2434 1.429 . S
C2426 C2424 1.419 . S
C2426 C2427 1.363 . S
C2426 H2429 0.929 . S
C2427 C2426 1.363 . S
C2427 C2433 1.428 . S
H2428 C2424 0.930 . S
H2429 C2426 0.929 . S
S2430 N2431 1.613 . S
S2430 N2432 1.610 . S
N2431 S2430 1.613 . S
N2431 C2434 1.350 . S
N2432 S2430 1.610 . S
N2432 C2433 1.351 . S
C2433 C2427 1.428 . S
C2433 N2432 1.351 . S
C2433 C2434 1.434 . S
C2434 C2425 1.429 . S
C2434 N2431 1.350 . S
C2434 C2433 1.434 . S
C2435 C2436 1.369 . S
C2435 C2437 1.419 . S
C2435 H2439 0.930 . S
C2436 C2435 1.369 . S
C2436 C2445 1.429 . S
C2437 C2435 1.419 . S
C2437 C2438 1.363 . S
C2437 H2440 0.929 . S
C2438 C2437 1.363 . S
C2438 C2444 1.428 . S
H2439 C2435 0.930 . S
H2440 C2437 0.929 . S
S2441 N2442 1.613 . S
S2441 N2443 1.610 1_554 S
N2442 S2441 1.613 . S
N2442 C2445 1.350 1_554 S
N2443 S2441 1.610 1_556 S
N2443 C2444 1.351 . S
C2444 C2438 1.428 . S
C2444 N2443 1.351 . S
C2444 C2445 1.434 . S
C2445 C2436 1.429 . S
C2445 N2442 1.350 1_556 S
C2445 C2444 1.434 . S
C2446 C2447 1.369 . S
C2446 C2448 1.419 . S
C2446 H2450 0.930 . S
C2447 C2446 1.369 . S
C2447 C2456 1.429 . S
C2448 C2446 1.419 . S
C2448 C2449 1.363 . S
C2448 H2451 0.929 . S
C2449 C2448 1.363 . S
C2449 C2455 1.428 . S
H2450 C2446 0.930 . S
H2451 C2448 0.929 . S
S2452 N2453 1.613 . S
S2452 N2454 1.610 1_554 S
N2453 S2452 1.613 . S
N2453 C2456 1.350 1_554 S
N2454 S2452 1.610 1_556 S
N2454 C2455 1.351 . S
C2455 C2449 1.428 . S
C2455 N2454 1.351 . S
C2455 C2456 1.434 . S
C2456 C2447 1.429 . S
C2456 N2453 1.350 1_556 S
C2456 C2455 1.434 . S
C2457 C2458 1.369 . S
C2457 C2459 1.419 . S
C2457 H2461 0.930 . S
C2458 C2457 1.369 . S
C2458 C2467 1.429 . S
C2459 C2457 1.419 . S
C2459 C2460 1.363 . S
C2459 H2462 0.929 . S
C2460 C2459 1.363 . S
C2460 C2466 1.428 . S
H2461 C2457 0.930 . S
H2462 C2459 0.929 . S
S2463 N2464 1.613 1_556 S
S2463 N2465 1.610 1_556 S
N2464 S2463 1.613 1_554 S
N2464 C2467 1.350 . S
N2465 S2463 1.610 1_554 S
N2465 C2466 1.351 . S
C2466 C2460 1.428 . S
C2466 N2465 1.351 . S
C2466 C2467 1.434 . S
C2467 C2458 1.429 . S
C2467 N2464 1.350 . S
C2467 C2466 1.434 . S
C2468 C2469 1.369 . S
C2468 C2470 1.419 . S
C2468 H2472 0.930 . S
C2469 C2468 1.369 . S
C2469 C2478 1.429 . S
C2470 C2468 1.419 . S
C2470 C2471 1.363 . S
C2470 H2473 0.929 . S
C2471 C2470 1.363 . S
C2471 C2477 1.428 . S
H2472 C2468 0.930 . S
H2473 C2470 0.929 . S
S2474 N2475 1.613 . S
S2474 N2476 1.610 . S
N2475 S2474 1.613 . S
N2475 C2478 1.350 . S
N2476 S2474 1.610 . S
N2476 C2477 1.351 . S
C2477 C2471 1.428 . S
C2477 N2476 1.351 . S
C2477 C2478 1.434 . S
C2478 C2469 1.429 . S
C2478 N2475 1.350 . S
C2478 C2477 1.434 . S
C2479 C2480 1.369 . S
C2479 C2481 1.419 . S
C2479 H2483 0.930 . S
C2480 C2479 1.369 . S
C2480 C2489 1.429 . S
C2481 C2479 1.419 . S
C2481 C2482 1.363 . S
C2481 H2484 0.929 . S
C2482 C2481 1.363 . S
C2482 C2488 1.428 . S
H2483 C2479 0.930 . S
H2484 C2481 0.929 . S
S2485 N2486 1.613 . S
S2485 N2487 1.610 . S
N2486 S2485 1.613 . S
N2486 C2489 1.350 . S
N2487 S2485 1.610 . S
N2487 C2488 1.351 . S
C2488 C2482 1.428 . S
C2488 N2487 1.351 . S
C2488 C2489 1.434 . S
C2489 C2480 1.429 . S
C2489 N2486 1.350 . S
C2489 C2488 1.434 . S
C2490 C2491 1.369 . S
C2490 C2492 1.419 . S
C2490 H2494 0.930 . S
C2491 C2490 1.369 . S
C2491 C2500 1.429 . S
C2492 C2490 1.419 . S
C2492 C2493 1.363 . S
C2492 H2495 0.929 . S
C2493 C2492 1.363 . S
C2493 C2499 1.428 . S
H2494 C2490 0.930 . S
H2495 C2492 0.929 . S
S2496 N2497 1.613 . S
S2496 N2498 1.610 . S
N2497 S2496 1.613 . S
N2497 C2500 1.350 . S
N2498 S2496 1.610 . S
N2498 C2499 1.351 . S
C2499 C2493 1.428 . S
C2499 N2498 1.351 . S
C2499 C2500 1.434 . S
C2500 C2491 1.429 . S
C2500 N2497 1.350 . S
C2500 C2499 1.434 . S
C2501 C2502 1.369 . S
C2501 C2503 1.419 . S
C2501 H2505 0.930 . S
C2502 C2501 1.369 . S
C2502 C2511 1.429 . S
C2503 C2501 1.419 . S
C2503 C2504 1.363 . S
C2503 H2506 0.929 . S
C2504 C2503 1.363 . S
C2504 C2510 1.428 . S
H2505 C2501 0.930 . S
H2506 C2503 0.929 . S
S2507 N2508 1.613 . S
S2507 N2509 1.610 . S
N2508 S2507 1.613 . S
N2508 C2511 1.350 . S
N2509 S2507 1.610 . S
N2509 C2510 1.351 . S
C2510 C2504 1.428 . S
C2510 N2509 1.351 . S
C2510 C2511 1.434 . S
C2511 C2502 1.429 . S
C2511 N2508 1.350 . S
C2511 C2510 1.434 . S
C2512 C2513 1.369 . S
C2512 C2514 1.419 . S
C2512 H2516 0.930 . S
C2513 C2512 1.369 . S
C2513 C2522 1.429 . S
C2514 C2512 1.419 . S
C2514 C2515 1.363 . S
C2514 H2517 0.929 . S
C2515 C2514 1.363 . S
C2515 C2521 1.428 . S
H2516 C2512 0.930 . S
H2517 C2514 0.929 . S
S2518 N2519 1.613 . S
S2518 N2520 1.610 . S
N2519 S2518 1.613 . S
N2519 C2522 1.350 . S
N2520 S2518 1.610 . S
N2520 C2521 1.351 . S
C2521 C2515 1.428 . S
C2521 N2520 1.351 . S
C2521 C2522 1.434 . S
C2522 C2513 1.429 . S
C2522 N2519 1.350 . S
C2522 C2521 1.434 . S
C2523 C2524 1.369 . S
C2523 C2525 1.419 . S
C2523 H2527 0.930 . S
C2524 C2523 1.369 . S
C2524 C2533 1.429 . S
C2525 C2523 1.419 . S
C2525 C2526 1.363 . S
C2525 H2528 0.929 . S
C2526 C2525 1.363 . S
C2526 C2532 1.426 1_455 S
H2527 C2523 0.930 . S
H2528 C2525 0.929 . S
S2529 N2530 1.613 . S
S2529 N2531 1.610 . S
N2530 S2529 1.613 . S
N2530 C2533 1.350 1_655 S
N2531 S2529 1.610 . S
N2531 C2532 1.366 . S
C2532 C2526 1.426 1_655 S
C2532 N2531 1.366 . S
C2532 C2533 1.422 1_655 S
C2533 C2524 1.429 . S
C2533 N2530 1.350 1_455 S
C2533 C2532 1.422 1_455 S
C2534 C2535 1.369 . S
C2534 C2536 1.419 . S
C2534 H2538 0.930 . S
C2535 C2534 1.369 . S
C2535 C2544 1.429 . S
C2536 C2534 1.419 . S
C2536 C2537 1.363 . S
C2536 H2539 0.929 . S
C2537 C2536 1.363 . S
C2537 C2543 1.428 . S
H2538 C2534 0.930 . S
H2539 C2536 0.929 . S
S2540 N2541 1.613 . S
S2540 N2542 1.610 . S
N2541 S2540 1.613 . S
N2541 C2544 1.350 . S
N2542 S2540 1.610 . S
N2542 C2543 1.351 . S
C2543 C2537 1.428 . S
C2543 N2542 1.351 . S
C2543 C2544 1.434 . S
C2544 C2535 1.429 . S
C2544 N2541 1.350 . S
C2544 C2543 1.434 . S
C2545 C2546 1.369 . S
C2545 C2547 1.419 . S
C2545 H2549 0.930 . S
C2546 C2545 1.369 . S
C2546 C2555 1.425 1_565 S
C2547 C2545 1.419 . S
C2547 C2548 1.363 . S
C2547 H2550 0.929 . S
C2548 C2547 1.363 . S
C2548 C2554 1.428 1_565 S
H2549 C2545 0.930 . S
H2550 C2547 0.929 . S
S2551 N2552 1.613 . S
S2551 N2553 1.610 . S
N2552 S2551 1.613 . S
N2552 C2555 1.373 . S
N2553 S2551 1.610 . S
N2553 C2554 1.351 . S
C2554 C2548 1.428 1_545 S
C2554 N2553 1.351 . S
C2554 C2555 1.417 . S
C2555 C2546 1.425 1_545 S
C2555 N2552 1.373 . S
C2555 C2554 1.417 . S
C2556 C2557 1.369 1_545 S
C2556 C2558 1.419 . S
C2556 H2560 0.930 . S
C2557 C2556 1.369 1_565 S
C2557 C2566 1.429 . S
C2558 C2556 1.419 . S
C2558 C2559 1.363 1_545 S
C2558 H2561 0.929 . S
C2559 C2558 1.363 1_565 S
C2559 C2565 1.428 . S
H2560 C2556 0.930 . S
H2561 C2558 0.929 . S
S2562 N2563 1.613 . S
S2562 N2564 1.610 . S
N2563 S2562 1.613 . S
N2563 C2566 1.350 . S
N2564 S2562 1.610 . S
N2564 C2565 1.351 . S
C2565 C2559 1.428 . S
C2565 N2564 1.351 . S
C2565 C2566 1.434 . S
C2566 C2557 1.429 . S
C2566 N2563 1.350 . S
C2566 C2565 1.434 . S
C2567 C2568 1.369 . S
C2567 C2569 1.419 . S
C2567 H2571 0.930 . S
C2568 C2567 1.369 . S
C2568 C2577 1.429 . S
C2569 C2567 1.419 . S
C2569 C2570 1.363 . S
C2569 H2572 0.929 . S
C2570 C2569 1.363 . S
C2570 C2576 1.428 . S
H2571 C2567 0.930 . S
H2572 C2569 0.929 . S
S2573 N2574 1.613 1_655 S
S2573 N2575 1.610 . S
N2574 S2573 1.613 1_455 S
N2574 C2577 1.350 . S
N2575 S2573 1.610 . S
N2575 C2576 1.351 1_655 S
C2576 C2570 1.428 . S
C2576 N2575 1.351 1_455 S
C2576 C2577 1.434 . S
C2577 C2568 1.429 . S
C2577 N2574 1.350 . S
C2577 C2576 1.434 . S
C2578 C2579 1.369 . S
C2578 C2580 1.419 . S
C2578 H2582 0.930 . S
C2579 C2578 1.369 . S
C2579 C2588 1.429 . S
C2580 C2578 1.419 . S
C2580 C2581 1.363 . S
C2580 H2583 0.929 . S
C2581 C2580 1.363 . S
C2581 C2587 1.428 . S
H2582 C2578 0.930 . S
H2583 C2580 0.929 . S
S2584 N2585 1.613 . S
S2584 N2586 1.610 . S
N2585 S2584 1.613 . S
N2585 C2588 1.350 . S
N2586 S2584 1.610 . S
N2586 C2587 1.351 . S
C2587 C2581 1.428 . S
C2587 N2586 1.351 . S
C2587 C2588 1.434 . S
C2588 C2579 1.429 . S
C2588 N2585 1.350 . S
C2588 C2587 1.434 . S
C2589 C2590 1.369 . S
C2589 C2591 1.419 . S
C2589 H2593 0.930 . S
C2590 C2589 1.369 . S
C2590 C2599 1.429 . S
C2591 C2589 1.419 . S
C2591 C2592 1.363 . S
C2591 H2594 0.929 . S
C2592 C2591 1.363 . S
C2592 C2598 1.428 . S
H2593 C2589 0.930 . S
H2594 C2591 0.929 . S
S2595 N2596 1.613 . S
S2595 N2597 1.610 . S
N2596 S2595 1.613 . S
N2596 C2599 1.350 . S
N2597 S2595 1.610 . S
N2597 C2598 1.351 . S
C2598 C2592 1.428 . S
C2598 N2597 1.351 . S
C2598 C2599 1.434 . S
C2599 C2590 1.429 . S
C2599 N2596 1.350 . S
C2599 C2598 1.434 . S
C2600 C2601 1.369 . S
C2600 C2602 1.419 . S
C2600 H2604 0.930 . S
C2601 C2600 1.369 . S
C2601 C2610 1.429 . S
C2602 C2600 1.419 . S
C2602 C2603 1.363 . S
C2602 H2605 0.929 . S
C2603 C2602 1.363 . S
C2603 C2609 1.428 . S
H2604 C2600 0.930 . S
H2605 C2602 0.929 . S
S2606 N2607 1.613 . S
S2606 N2608 1.610 . S
N2607 S2606 1.613 . S
N2607 C2610 1.350 . S
N2608 S2606 1.610 . S
N2608 C2609 1.351 . S
C2609 C2603 1.428 . S
C2609 N2608 1.351 . S
C2609 C2610 1.434 . S
C2610 C2601 1.429 . S
C2610 N2607 1.350 . S
C2610 C2609 1.434 . S
C2611 C2612 1.369 . S
C2611 C2613 1.419 . S
C2611 H2615 0.930 . S
C2612 C2611 1.369 . S
C2612 C2621 1.429 . S
C2613 C2611 1.419 . S
C2613 C2614 1.363 . S
C2613 H2616 0.929 . S
C2614 C2613 1.363 . S
C2614 C2620 1.428 . S
H2615 C2611 0.930 . S
H2616 C2613 0.929 . S
S2617 N2618 1.613 . S
S2617 N2619 1.610 . S
N2618 S2617 1.613 . S
N2618 C2621 1.350 . S
N2619 S2617 1.610 . S
N2619 C2620 1.351 . S
C2620 C2614 1.428 . S
C2620 N2619 1.351 . S
C2620 C2621 1.434 . S
C2621 C2612 1.429 . S
C2621 N2618 1.350 . S
C2621 C2620 1.434 . S
C2622 C2623 1.338 1_565 S
C2622 C2624 1.440 . S
C2622 H2626 0.941 . S
C2623 C2622 1.338 1_545 S
C2623 C2632 1.429 . S
C2624 C2622 1.440 . S
C2624 C2625 1.363 1_565 S
C2624 H2627 0.929 . S
C2625 C2624 1.363 1_545 S
C2625 C2631 1.428 . S
H2626 C2622 0.941 . S
H2627 C2624 0.929 . S
S2628 N2629 1.613 . S
S2628 N2630 1.610 . S
N2629 S2628 1.613 . S
N2629 C2632 1.350 . S
N2630 S2628 1.610 . S
N2630 C2631 1.351 . S
C2631 C2625 1.428 . S
C2631 N2630 1.351 . S
C2631 C2632 1.434 . S
C2632 C2623 1.429 . S
C2632 N2629 1.350 . S
C2632 C2631 1.434 . S
C2633 C2634 1.360 1_455 S
C2633 C2635 1.410 . S
C2633 H2637 0.948 . S
C2634 C2633 1.360 1_655 S
C2634 C2643 1.429 . S
C2635 C2633 1.410 . S
C2635 C2636 1.363 1_455 S
C2635 H2638 0.929 . S
C2636 C2635 1.363 1_655 S
C2636 C2642 1.428 . S
H2637 C2633 0.948 . S
H2638 C2635 0.929 . S
S2639 N2640 1.613 . S
S2639 N2641 1.610 . S
N2640 S2639 1.613 . S
N2640 C2643 1.350 . S
N2641 S2639 1.610 . S
N2641 C2642 1.351 . S
C2642 C2636 1.428 . S
C2642 N2641 1.351 . S
C2642 C2643 1.434 . S
C2643 C2634 1.429 . S
C2643 N2640 1.350 . S
C2643 C2642 1.434 . S
C2644 C2645 1.369 . S
C2644 C2646 1.419 . S
C2644 H2648 0.930 . S
C2645 C2644 1.369 . S
C2645 C2654 1.429 . S
C2646 C2644 1.419 . S
C2646 C2647 1.363 . S
C2646 H2649 0.929 . S
C2647 C2646 1.363 . S
C2647 C2653 1.428 . S
H2648 C2644 0.930 . S
H2649 C2646 0.929 . S
S2650 N2651 1.613 . S
S2650 N2652 1.610 . S
N2651 S2650 1.613 . S
N2651 C2654 1.350 . S
N2652 S2650 1.610 . S
N2652 C2653 1.351 . S
C2653 C2647 1.428 . S
C2653 N2652 1.351 . S
C2653 C2654 1.434 . S
C2654 C2645 1.429 . S
C2654 N2651 1.350 . S
C2654 C2653 1.434 . S
C2655 C2656 1.369 . S
C2655 C2657 1.419 . S
C2655 H2659 0.930 . S
C2656 C2655 1.369 . S
C2656 C2665 1.429 . S
C2657 C2655 1.419 . S
C2657 C2658 1.363 . S
C2657 H2660 0.929 . S
C2658 C2657 1.363 . S
C2658 C2664 1.428 . S
H2659 C2655 0.930 . S
H2660 C2657 0.929 . S
S2661 N2662 1.613 . S
S2661 N2663 1.610 . S
N2662 S2661 1.613 . S
N2662 C2665 1.350 . S
N2663 S2661 1.610 . S
N2663 C2664 1.351 . S
C2664 C2658 1.428 . S
C2664 N2663 1.351 . S
C2664 C2665 1.434 . S
C2665 C2656 1.429 . S
C2665 N2662 1.350 . S
C2665 C2664 1.434 . S
C2666 C2667 1.369 . S
C2666 C2668 1.419 . S
C2666 H2670 0.930 . S
C2667 C2666 1.369 . S
C2667 C2676 1.429 . S
C2668 C2666 1.419 . S
C2668 C2669 1.363 . S
C2668 H2671 0.929 . S
C2669 C2668 1.363 . S
C2669 C2675 1.428 . S
H2670 C2666 0.930 . S
H2671 C2668 0.929 . S
S2672 N2673 1.613 . S
S2672 N2674 1.610 . S
N2673 S2672 1.613 . S
N2673 C2676 1.350 . S
N2674 S2672 1.610 . S
N2674 C2675 1.351 . S
C2675 C2669 1.428 . S
C2675 N2674 1.351 . S
C2675 C2676 1.434 . S
C2676 C2667 1.429 . S
C2676 N2673 1.350 . S
C2676 C2675 1.434 . S
C2677 C2678 1.369 . S
C2677 C2679 1.419 . S
C2677 H2681 0.930 . S
C2678 C2677 1.369 . S
C2678 C2687 1.429 . S
C2679 C2677 1.419 . S
C2679 C2680 1.363 . S
C2679 H2682 0.929 . S
C2680 C2679 1.363 . S
C2680 C2686 1.428 . S
H2681 C2677 0.930 . S
H2682 C2679 0.929 . S
S2683 N2684 1.613 . S
S2683 N2685 1.610 . S
N2684 S2683 1.613 . S
N2684 C2687 1.350 . S
N2685 S2683 1.610 . S
N2685 C2686 1.351 . S
C2686 C2680 1.428 . S
C2686 N2685 1.351 . S
C2686 C2687 1.434 . S
C2687 C2678 1.429 . S
C2687 N2684 1.350 . S
C2687 C2686 1.434 . S
C2688 C2689 1.369 . S
C2688 C2690 1.419 . S
C2688 H2692 0.930 . S
C2689 C2688 1.369 . S
C2689 C2698 1.429 . S
C2690 C2688 1.419 . S
C2690 C2691 1.363 . S
C2690 H2693 0.929 . S
C2691 C2690 1.363 . S
C2691 C2697 1.428 . S
H2692 C2688 0.930 . S
H2693 C2690 0.929 . S
S2694 N2695 1.613 . S
S2694 N2696 1.610 . S
N2695 S2694 1.613 . S
N2695 C2698 1.350 . S
N2696 S2694 1.610 . S
N2696 C2697 1.351 . S
C2697 C2691 1.428 . S
C2697 N2696 1.351 . S
C2697 C2698 1.434 . S
C2698 C2689 1.429 . S
C2698 N2695 1.350 . S
C2698 C2697 1.434 . S
C2699 C2700 1.369 . S
C2699 C2701 1.419 . S
C2699 H2703 0.930 . S
C2700 C2699 1.369 . S
C2700 C2709 1.429 . S
C2701 C2699 1.419 . S
C2701 C2702 1.363 . S
C2701 H2704 0.929 . S
C2702 C2701 1.363 . S
C2702 C2708 1.428 . S
H2703 C2699 0.930 . S
H2704 C2701 0.929 . S
S2705 N2706 1.613 . S
S2705 N2707 1.610 . S
N2706 S2705 1.613 . S
N2706 C2709 1.350 . S
N2707 S2705 1.610 . S
N2707 C2708 1.351 . S
C2708 C2702 1.428 . S
C2708 N2707 1.351 . S
C2708 C2709 1.434 . S
C2709 C2700 1.429 . S
C2709 N2706 1.350 . S
C2709 C2708 1.434 . S
C2710 C2711 1.369 . S
C2710 C2712 1.419 . S
C2710 H2714 0.930 . S
C2711 C2710 1.369 . S
C2711 C2720 1.429 . S
C2712 C2710 1.419 . S
C2712 C2713 1.363 . S
C2712 H2715 0.929 . S
C2713 C2712 1.363 . S
C2713 C2719 1.428 . S
H2714 C2710 0.930 . S
H2715 C2712 0.929 . S
S2716 N2717 1.613 . S
S2716 N2718 1.610 . S
N2717 S2716 1.613 . S
N2717 C2720 1.350 . S
N2718 S2716 1.610 . S
N2718 C2719 1.351 . S
C2719 C2713 1.428 . S
C2719 N2718 1.351 . S
C2719 C2720 1.434 . S
C2720 C2711 1.429 . S
C2720 N2717 1.350 . S
C2720 C2719 1.434 . S
C2721 C2722 1.369 1_455 S
C2721 C2723 1.419 . S
C2721 H2725 0.930 . S
C2722 C2721 1.369 1_655 S
C2722 C2731 1.429 . S
C2723 C2721 1.419 . S
C2723 C2724 1.363 1_455 S
C2723 H2726 0.929 . S
C2724 C2723 1.363 1_655 S
C2724 C2730 1.428 . S
H2725 C2721 0.930 . S
H2726 C2723 0.929 . S
S2727 N2728 1.613 . S
S2727 N2729 1.610 . S
N2728 S2727 1.613 . S
N2728 C2731 1.350 . S
N2729 S2727 1.610 . S
N2729 C2730 1.351 . S
C2730 C2724 1.428 . S
C2730 N2729 1.351 . S
C2730 C2731 1.434 . S
C2731 C2722 1.429 . S
C2731 N2728 1.350 . S
C2731 C2730 1.434 . S
C2732 C2733 1.369 . S
C2732 C2734 1.419 . S
C2732 H2736 0.930 . S
C2733 C2732 1.369 . S
C2733 C2742 1.429 . S
C2734 C2732 1.419 . S
C2734 C2735 1.363 . S
C2734 H2737 0.929 . S
C2735 C2734 1.363 . S
C2735 C2741 1.428 . S
H2736 C2732 0.930 . S
H2737 C2734 0.929 . S
S2738 N2739 1.613 . S
S2738 N2740 1.610 . S
N2739 S2738 1.613 . S
N2739 C2742 1.350 . S
N2740 S2738 1.610 . S
N2740 C2741 1.351 . S
C2741 C2735 1.428 . S
C2741 N2740 1.351 . S
C2741 C2742 1.434 . S
C2742 C2733 1.429 . S
C2742 N2739 1.350 . S
C2742 C2741 1.434 . S
C2743 C2744 1.369 1_565 S
C2743 C2745 1.419 . S
C2743 H2747 0.930 . S
C2744 C2743 1.369 1_545 S
C2744 C2753 1.429 . S
C2745 C2743 1.419 . S
C2745 C2746 1.363 1_565 S
C2745 H2748 0.929 . S
C2746 C2745 1.363 1_545 S
C2746 C2752 1.428 . S
H2747 C2743 0.930 . S
H2748 C2745 0.929 . S
S2749 N2750 1.613 . S
S2749 N2751 1.610 . S
N2750 S2749 1.613 . S
N2750 C2753 1.350 . S
N2751 S2749 1.610 . S
N2751 C2752 1.351 . S
C2752 C2746 1.428 . S
C2752 N2751 1.351 . S
C2752 C2753 1.434 . S
C2753 C2744 1.429 . S
C2753 N2750 1.350 . S
C2753 C2752 1.434 . S
C1963 C49 1.718 . S
C1965 C1790 1.694 1_655 S
C1974 C137 1.697 . S
C1976 C1803 1.649 . S
C1987 C1832 1.671 1_545 S
C1985 C205 1.722 . S
C1996 C196 1.697 . S
C1998 C1845 1.644 . S
C2007 C57 1.715 . S
C2009 C1866 1.659 . S
C2018 C145 1.699 . S
C2020 C1895 1.628 . S
C2029 C313 1.738 . S
C2031 C1874 1.645 . S
C2042 C1887 1.645 . S
C2040 C401 1.693 . S
C2053 C1853 1.650 . S
C2051 C489 1.729 . S
C2062 C469 1.716 . S
C2064 C1824 1.709 1_545 S
C2075 C1782 1.718 1_655 S
C2073 C293 1.724 . S
C2084 C381 1.699 . S
C2086 C1811 1.626 . S
C2095 C577 1.723 . S
C2097 C1916 1.655 . S
C2106 C645 1.704 . S
C2108 C1929 1.653 . S
C2119 C1958 1.617 . S
C2117 C733 1.689 . S
C2128 C724 1.690 . S
C2130 C1593 1.647 . S
C2139 C585 1.716 . S
C2141 C1614 1.664 . S
C2150 C636 1.716 . S
C2152 C1643 1.646 . S
C2161 C841 1.708 . S
C2163 C1622 1.637 . S
C2172 C937 1.711 . S
C2174 C1635 1.661 . S
C2185 C1601 1.643 . S
C2183 C1025 1.709 . S
C2196 C1950 1.652 . S
C2194 C988 1.705 . S
C2207 C1908 1.625 . S
C2205 C821 1.683 . S
C2218 C1937 1.635 . S
C2216 C900 1.694 . S
C2227 C1105 1.706 . S
C2229 C1664 1.644 . S
C2238 C1193 1.714 . S
C2240 C1677 1.678 . S
C2249 C1281 1.708 . S
C2251 C1706 1.642 . S
C2260 C1289 1.708 . S
C2262 C1719 1.662 . S
C2273 C1740 1.647 . S
C2271 C1113 1.691 . S
C2284 C1769 1.625 . S
C2282 C1201 1.699 . S
C2295 C1748 1.656 . S
C2293 C1369 1.725 . S
C2306 C1761 1.634 . S
C2304 C1457 1.691 . S
C2315 C1553 1.681 . S
C2317 C1727 1.623 . S
C2328 C1698 1.642 . S
C2326 C1516 1.685 . S
C2337 C1349 1.710 . S
C2339 C1656 1.657 . S
C2350 C1685 1.654 . S
C2348 C1437 1.713 . S
C2361 C1596 1.388 . S
C2359 C29 1.438 . S
C2370 C117 1.380 . S
C2372 C1617 1.304 . S
C2383 C1645 1.333 . S
C2381 C225 1.441 . S
C2394 C1666 1.323 . S
C2392 C233 1.422 . S
C2405 C1680 1.388 . S
C2403 C20 1.438 . S
C2416 C1708 1.266 . S
C2414 C108 1.391 . S
C2425 C321 1.475 . S
C2427 C1701 1.298 . S
C2436 C409 1.418 . S
C2438 C1659 1.234 . S
C2447 C497 1.482 . S
C2449 C1687 1.441 . S
C2458 C460 1.460 . S
C2460 C1624 1.429 . S
C2471 C1638 1.304 . S
C2469 C284 1.473 . S
C2480 C372 1.425 . S
C2482 C1603 1.359 . S
C2493 C1722 1.323 . S
C2491 C557 1.401 . S
C2502 C665 1.427 . S
C2504 C1743 1.341 . S
C2513 C753 1.435 . S
C2515 C1771 1.307 . S
C2526 C1792 1.201 . S
C2524 C761 1.284 . S
C2535 C548 1.386 . S
C2537 C1806 1.306 . S
C2546 C673 1.300 . S
C2548 C1834 1.214 . S
C2557 C849 1.315 . S
C2559 C1827 1.169 . S
C2568 C929 1.307 . S
C2570 C1785 1.172 . S
C2581 C1813 1.353 . S
C2579 C1017 1.420 . S
C2590 C997 1.423 . S
C2592 C1750 1.363 . S
C2601 C812 1.468 . S
C2603 C1764 1.273 . S
C2614 C1729 1.400 . S
C2612 C909 1.470 . S
C2625 C1848 1.157 1_545 S
C2623 C1085 1.299 . S
C2634 C1173 1.294 . S
C2636 C1869 1.198 1_655 S
C2645 C1261 1.384 . S
C2647 C1897 1.258 . S
C2658 C1918 1.262 . S
C2656 C1252 1.383 . S
C2669 C1932 1.349 . S
C2667 C1076 1.438 . S
C2678 C1164 1.434 . S
C2680 C1960 1.302 . S
C2689 C1377 1.439 . S
C2691 C1953 1.251 . S
C2700 C1465 1.460 . S
C2702 C1911 1.266 . S
C2713 C1939 1.399 . S
C2711 C1545 1.469 . S
C2724 C1876 1.226 1_655 S
C2722 C1525 1.296 . S
C2735 C1890 1.243 . S
C2733 C1340 1.422 . S
C2744 C1428 1.316 . S
C2746 C1855 1.242 1_545 S
