# Generated by pormake.
# Topology zzz, (3,6)-cn, num edge types: 1
# Building blocks:
#     Node 0, Type 0, BuildingBlock: BELTOD_clean_linker_0, # of connection points: 3
#     Node 1, Type 0, BuildingBlock: BELTOD_clean_linker_0, # of connection points: 3
#     Node 2, Type 0, BuildingBlock: BELTOD_clean_linker_0, # of connection points: 3
#     Node 3, Type 0, BuildingBlock: BELTOD_clean_linker_0, # of connection points: 3
#     Node 4, Type 0, BuildingBlock: BELTOD_clean_linker_0, # of connection points: 3
#     Node 5, Type 0, BuildingBlock: BELTOD_clean_linker_0, # of connection points: 3
#     Node 6, Type 0, BuildingBlock: BELTOD_clean_linker_0, # of connection points: 3
#     Node 7, Type 0, BuildingBlock: BELTOD_clean_linker_0, # of connection points: 3
#     Node 8, Type 1, BuildingBlock: PAMTOO_clean_sbu_0, # of connection points: 6
#     Node 9, Type 1, BuildingBlock: PAMTOO_clean_sbu_0, # of connection points: 6
#     Node 10, Type 1, BuildingBlock: PAMTOO_clean_sbu_0, # of connection points: 6
#     Node 11, Type 1, BuildingBlock: PAMTOO_clean_sbu_0, # of connection points: 6
#     Edge 12, Type (0, 1), BuildingBlock: MIFKUJ_clean_linker_0, # of connection points: 2
#     Edge 13, Type (0, 1), BuildingBlock: MIFKUJ_clean_linker_0, # of connection points: 2
#     Edge 14, Type (0, 1), BuildingBlock: MIFKUJ_clean_linker_0, # of connection points: 2
#     Edge 15, Type (0, 1), BuildingBlock: MIFKUJ_clean_linker_0, # of connection points: 2
#     Edge 16, Type (0, 1), BuildingBlock: MIFKUJ_clean_linker_0, # of connection points: 2
#     Edge 17, Type (0, 1), BuildingBlock: MIFKUJ_clean_linker_0, # of connection points: 2
#     Edge 18, Type (0, 1), BuildingBlock: MIFKUJ_clean_linker_0, # of connection points: 2
#     Edge 19, Type (0, 1), BuildingBlock: MIFKUJ_clean_linker_0, # of connection points: 2
#     Edge 20, Type (0, 1), BuildingBlock: MIFKUJ_clean_linker_0, # of connection points: 2
#     Edge 21, Type (0, 1), BuildingBlock: MIFKUJ_clean_linker_0, # of connection points: 2
#     Edge 22, Type (0, 1), BuildingBlock: MIFKUJ_clean_linker_0, # of connection points: 2
#     Edge 23, Type (0, 1), BuildingBlock: MIFKUJ_clean_linker_0, # of connection points: 2
#     Edge 24, Type (0, 1), BuildingBlock: MIFKUJ_clean_linker_0, # of connection points: 2
#     Edge 25, Type (0, 1), BuildingBlock: MIFKUJ_clean_linker_0, # of connection points: 2
#     Edge 26, Type (0, 1), BuildingBlock: MIFKUJ_clean_linker_0, # of connection points: 2
#     Edge 27, Type (0, 1), BuildingBlock: MIFKUJ_clean_linker_0, # of connection points: 2
#     Edge 28, Type (0, 1), BuildingBlock: MIFKUJ_clean_linker_0, # of connection points: 2
#     Edge 29, Type (0, 1), BuildingBlock: MIFKUJ_clean_linker_0, # of connection points: 2
#     Edge 30, Type (0, 1), BuildingBlock: MIFKUJ_clean_linker_0, # of connection points: 2
#     Edge 31, Type (0, 1), BuildingBlock: MIFKUJ_clean_linker_0, # of connection points: 2
#     Edge 32, Type (0, 1), BuildingBlock: MIFKUJ_clean_linker_0, # of connection points: 2
#     Edge 33, Type (0, 1), BuildingBlock: MIFKUJ_clean_linker_0, # of connection points: 2
#     Edge 34, Type (0, 1), BuildingBlock: MIFKUJ_clean_linker_0, # of connection points: 2
#     Edge 35, Type (0, 1), BuildingBlock: MIFKUJ_clean_linker_0, # of connection points: 2
# Relax obj value: 0.311
# Max RMSD: 0.258
# Mean RMSD: 0.207
data_MOF--net-zzz--node1-PAMTOO_clean_sbu_0--node2-BELTOD_clean_linker_0--edge1-MIFKUJ_clean_linker_0
_symmetry_space_group_name_H-M    P1
_symmetry_Int_Tables_number       1
_symmetry_cell_setting            triclinic
loop_
_symmetry_equiv_pos_as_xyz
'x, y, z'
_cell_length_a     75.48482
_cell_length_b     66.03165
_cell_length_c     24.478053
_cell_angle_alpha  90.639163
_cell_angle_beta   82.54902
_cell_angle_gamma 85.088776
loop_
_atom_site_label
_atom_site_type_symbol
_atom_site_fract_x
_atom_site_fract_y
_atom_site_fract_z
_atom_type_partial_charge
P0 P 0.7549 0.49262 0.39274 0.0
H1 H 0.76026 0.50156 0.50649 0.0
H2 H 0.78646 0.51116 0.54588 0.0
H3 H 0.81212 0.52366 0.38315 0.0
H4 H 0.78564 0.51441 0.34398 0.0
H5 H 0.71851 0.48283 0.38886 0.0
H6 H 0.69553 0.49493 0.33379 0.0
H7 H 0.72779 0.54276 0.27188 0.0
H8 H 0.75109 0.53034 0.32811 0.0
H9 H 0.77154 0.45087 0.39301 0.0
H10 H 0.76663 0.49864 0.27577 0.0
O11 O 0.74601 0.47785 0.44211 0.0
H12 H 0.79124 0.43001 0.32305 0.0
H13 H 0.78667 0.47847 0.2069 0.0
C14 C 0.77099 0.5069 0.42204 0.0
C15 C 0.77126 0.50692 0.47925 0.0
C16 C 0.7864 0.5122 0.50178 0.0
C17 C 0.80164 0.51765 0.4676 0.0
C18 C 0.80068 0.51946 0.41075 0.0
C19 C 0.78548 0.51415 0.38821 0.0
C20 C 0.73646 0.50585 0.36353 0.0
C21 C 0.72049 0.49637 0.36507 0.0
C22 C 0.70726 0.50333 0.33326 0.0
C23 C 0.70971 0.51989 0.29829 0.0
C24 C 0.72549 0.52991 0.29816 0.0
C25 C 0.73874 0.52298 0.33072 0.0
C26 C 0.76737 0.47621 0.33946 0.0
C27 C 0.77443 0.45675 0.35201 0.0
C28 C 0.78581 0.4449 0.31206 0.0
C29 C 0.79053 0.45249 0.25915 0.0
C30 C 0.78302 0.47184 0.2466 0.0
C31 C 0.77156 0.48354 0.2863 0.0
P32 P 0.01676 0.70634 0.3675 0.0
H33 H 0.02738 0.7202 0.47045 0.0
H34 H 0.01704 0.75038 0.52677 0.0
H35 H 0.96992 0.75848 0.44339 0.0
H36 H 0.98073 0.72835 0.38586 0.0
H37 H 0.01595 0.66203 0.36555 0.0
H38 H 0.00457 0.6392 0.30196 0.0
H39 H 0.97755 0.69079 0.23066 0.0
H40 H 0.98944 0.71357 0.29342 0.0
H41 H 0.01906 0.75091 0.36554 0.0
H42 H 0.03444 0.69922 0.25443 0.0
O43 O 0.03398 0.69269 0.38951 0.0
H44 H 0.02658 0.77372 0.29096 0.0
H45 H 0.04235 0.72246 0.17916 0.0
C46 C 0.00482 0.72186 0.42397 0.0
C47 C 0.01441 0.72787 0.46587 0.0
C48 C 0.00846 0.74531 0.49814 0.0
C49 C 0.99276 0.75719 0.48912 0.0
C50 C 0.98226 0.74997 0.45072 0.0
C51 C 0.98828 0.73249 0.41828 0.0
C52 C 0.0036 0.68953 0.33422 0.0
C53 C 0.00716 0.66841 0.33734 0.0
C54 C 1.0006 0.65533 0.30086 0.0
C55 C 0.99036 0.66316 0.26051 0.0
C56 C 0.98567 0.68426 0.26051 0.0
C57 C 0.99224 0.69731 0.297 0.0
C58 C 0.02564 0.72322 0.31539 0.0
C59 C 0.02414 0.74431 0.3254 0.0
C60 C 0.02848 0.75746 0.28267 0.0
C61 C 0.0347 0.74979 0.22935 0.0
C62 C 0.03748 0.72868 0.22002 0.0
C63 C 0.03295 0.71545 0.26289 0.0
P64 P 0.76368 0.02732 0.28227 0.0
H65 H 0.75614 0.02718 0.4028 0.0
H66 H 0.73102 0.01485 0.46212 0.0
H67 H 0.71715 0.98092 0.3242 0.0
H68 H 0.74264 0.99288 0.26549 0.0
H69 H 0.79796 0.04479 0.26462 0.0
H70 H 0.82624 0.03452 0.20832 0.0
H71 H 0.80604 0.97786 0.16666 0.0
H72 H 0.77741 0.98833 0.22424 0.0
H73 H 0.72873 0.0495 0.29455 0.0
H74 H 0.76513 0.01961 0.1617 0.0
O75 O 0.76621 0.04861 0.31678 0.0
H76 H 0.7053 0.05319 0.23442 0.0
H77 H 0.74168 0.02316 0.10165 0.0
C78 C 0.75119 0.01118 0.32941 0.0
C79 C 0.74816 0.01644 0.38571 0.0
C80 C 0.73358 0.00959 0.41953 0.0
C81 C 0.72168 0.99738 0.39765 0.0
C82 C 0.72595 0.99033 0.34259 0.0
C83 C 0.74064 0.99711 0.30887 0.0
C84 C 0.78556 0.01725 0.2493 0.0
C85 C 0.79965 0.02991 0.24471 0.0
C86 C 0.81592 0.02399 0.21233 0.0
C87 C 0.81847 0.00534 0.18295 0.0
C88 C 0.80449 0.99237 0.18862 0.0
C89 C 0.78819 0.99823 0.22189 0.0
C90 C 0.74867 0.03425 0.23281 0.0
C91 C 0.73183 0.04417 0.25208 0.0
C92 C 0.7184 0.0461 0.21791 0.0
C93 C 0.72164 0.03822 0.16368 0.0
C94 C 0.73886 0.0294 0.14329 0.0
C95 C 0.75228 0.02732 0.17777 0.0
P96 P 0.5053 0.7564 0.24961 0.0
H97 H 0.50758 0.75113 0.36719 0.0
H98 H 0.52147 0.72302 0.41463 0.0
H99 H 0.55104 0.70035 0.25997 0.0
H100 H 0.53683 0.72845 0.21252 0.0
H101 H 0.48708 0.79317 0.21424 0.0
H102 H 0.4969 0.82125 0.15797 0.0
H103 H 0.55165 0.79455 0.14448 0.0
H104 H 0.54156 0.76615 0.20089 0.0
H105 H 0.48347 0.72268 0.27021 0.0
H106 H 0.51246 0.7492 0.12918 0.0
O107 O 0.48754 0.76498 0.29422 0.0
H108 H 0.47802 0.69399 0.21245 0.0
H109 H 0.50701 0.72057 0.07119 0.0
C110 C 0.52102 0.74178 0.28622 0.0
C111 C 0.51757 0.74061 0.3437 0.0
C112 C 0.52558 0.72447 0.37089 0.0
C113 C 0.5371 0.70921 0.34089 0.0
C114 C 0.54199 0.71169 0.28407 0.0
C115 C 0.53401 0.72788 0.25698 0.0
C116 C 0.51361 0.77779 0.21267 0.0
C117 C 0.50125 0.79351 0.20008 0.0
C118 C 0.50692 0.80963 0.168 0.0
C119 C 0.52512 0.81032 0.14729 0.0
C120 C 0.53755 0.79447 0.15988 0.0
C121 C 0.53182 0.7783 0.19236 0.0
C122 C 0.49808 0.73823 0.20385 0.0
C123 C 0.48823 0.7226 0.22651 0.0
C124 C 0.4853 0.70613 0.19363 0.0
C125 C 0.49215 0.70503 0.13742 0.0
C126 C 0.5014 0.72114 0.11428 0.0
C127 C 0.50449 0.73754 0.1474 0.0
P128 P 0.25805 0.45642 0.01832 0.0
H129 H 0.25254 0.45876 0.90209 0.0
H130 H 0.22657 0.4722 0.86023 0.0
H131 H 0.20517 0.50413 0.01265 0.0
H132 H 0.23123 0.49048 0.0545 0.0
H133 H 0.2904 0.43657 0.05141 0.0
H134 H 0.31248 0.44696 0.10743 0.0
H135 H 0.28591 0.50777 0.12164 0.0
H136 H 0.26349 0.49699 0.06538 0.0
H137 H 0.2336 0.42512 0.00925 0.0
H138 H 0.24613 0.46573 0.13512 0.0
O139 O 0.26768 0.43778 0.97495 0.0
H140 H 0.20622 0.41785 0.06785 0.0
H141 H 0.21876 0.45922 0.19273 0.0
C142 C 0.24396 0.47355 0.98163 0.0
C143 C 0.24268 0.46932 0.926 0.0
C144 C 0.22769 0.47699 0.90201 0.0
C145 C 0.21355 0.48896 0.93329 0.0
C146 C 0.21564 0.49466 0.98758 0.0
C147 C 0.23072 0.4871 0.01138 0.0
C148 C 0.27549 0.46608 0.05299 0.0
C149 C 0.28949 0.45228 0.06545 0.0
C150 C 0.30219 0.45828 0.09763 0.0
C151 C 0.30117 0.47829 0.11883 0.0
C152 C 0.28711 0.49222 0.10616 0.0
C153 C 0.27436 0.48615 0.07353 0.0
C154 C 0.24205 0.44573 0.0681 0.0
C155 C 0.23082 0.43186 0.05033 0.0
C156 C 0.21504 0.42794 0.08359 0.0
C157 C 0.21015 0.43807 0.13488 0.0
C158 C 0.22216 0.45082 0.15401 0.0
C159 C 0.23793 0.45463 0.12089 0.0
P160 P 0.06699 0.28085 0.04538 0.0
H161 H 0.06374 0.27341 0.92863 0.0
H162 H 0.04914 0.24714 0.88458 0.0
H163 H 0.02159 0.23248 0.04292 0.0
H164 H 0.03602 0.25887 0.08674 0.0
H165 H 0.08439 0.31738 0.06485 0.0
H166 H 0.07586 0.34681 0.12675 0.0
H167 H 0.02362 0.32531 0.17137 0.0
H168 H 0.03213 0.29597 0.10819 0.0
H169 H 0.09061 0.24353 0.02976 0.0
H170 H 0.05797 0.27648 0.16521 0.0
O171 O 0.08461 0.28493 0.99943 0.0
H172 H 0.09307 0.2136 0.08692 0.0
H173 H 0.05965 0.24666 0.22134 0.0
C174 C 0.05109 0.26811 0.01113 0.0
C175 C 0.05402 0.26514 0.95368 0.0
C176 C 0.04569 0.25005 0.92847 0.0
C177 C 0.03445 0.23753 0.96046 0.0
C178 C 0.03035 0.24174 0.01733 0.0
C179 C 0.03848 0.257 0.04234 0.0
C180 C 0.05884 0.30455 0.0813 0.0
C181 C 0.0709 0.31927 0.08656 0.0
C182 C 0.06602 0.33611 0.12209 0.0
C183 C 0.04909 0.33834 0.15405 0.0
C184 C 0.03679 0.32393 0.1474 0.0
C185 C 0.04159 0.30724 0.11099 0.0
C186 C 0.07418 0.26231 0.0931 0.0
C187 C 0.0845 0.24458 0.07237 0.0
C188 C 0.08568 0.22737 0.10489 0.0
C189 C 0.0763 0.22755 0.1585 0.0
C190 C 0.06721 0.24593 0.18054 0.0
C191 C 0.06618 0.26312 0.14813 0.0
P192 P 0.24246 0.05332 0.13813 0.0
H193 H 0.25425 0.06413 0.02433 0.0
H194 H 0.2801 0.05018 0.96119 0.0
H195 H 0.28469 0.9972 0.06188 0.0
H196 H 0.25863 0.01129 0.1251 0.0
H197 H 0.22081 0.06779 0.23835 0.0
H198 H 0.19326 0.05773 0.29006 0.0
H199 H 0.18974 0.01231 0.16467 0.0
H200 H 0.21792 0.02225 0.11301 0.0
H201 H 0.27553 0.07255 0.14135 0.0
H202 H 0.24569 0.02936 0.23736 0.0
O203 O 0.2388 0.07753 0.12068 0.0
H204 H 0.30084 0.06485 0.19268 0.0
H205 H 0.27039 0.02247 0.29082 0.0
C206 C 0.25444 0.0388 0.07969 0.0
C207 C 0.26022 0.04907 0.03162 0.0
C208 C 0.27516 0.04109 0.99549 0.0
C209 C 0.28473 0.02276 0.00704 0.0
C210 C 0.2778 0.01153 0.05228 0.0
C211 C 0.26271 0.01943 0.08804 0.0
C212 C 0.22153 0.04559 0.17227 0.0
C213 C 0.21417 0.05562 0.22187 0.0
C214 C 0.19845 0.04983 0.25152 0.0
C215 C 0.18946 0.03411 0.23169 0.0
C216 C 0.19646 0.02445 0.18088 0.0
C217 C 0.21252 0.03007 0.15145 0.0
C218 C 0.25856 0.05193 0.1863 0.0
C219 C 0.27415 0.06206 0.17502 0.0
C220 C 0.28861 0.05761 0.20445 0.0
C221 C 0.2877 0.04293 0.24571 0.0
C222 C 0.27166 0.03361 0.25873 0.0
C223 C 0.25734 0.03785 0.22876 0.0
P224 P 0.43353 0.26557 0.24699 0.0
H225 H 0.41256 0.27308 0.15508 0.0
H226 H 0.41941 0.29029 0.06829 0.0
H227 H 0.47455 0.29124 0.09881 0.0
H228 H 0.46775 0.27284 0.18328 0.0
H229 H 0.41688 0.22722 0.26147 0.0
H230 H 0.42726 0.1944 0.29674 0.0
H231 H 0.47974 0.21534 0.30066 0.0
H232 H 0.46931 0.24813 0.26487 0.0
H233 H 0.44133 0.30801 0.23079 0.0
H234 H 0.44325 0.26415 0.35971 0.0
O235 O 0.41123 0.26755 0.2619 0.0
H236 H 0.45577 0.33147 0.28347 0.0
H237 H 0.4569 0.28818 0.41461 0.0
C238 C 0.4396 0.27196 0.17599 0.0
C239 C 0.42626 0.27638 0.14206 0.0
C240 C 0.43017 0.28652 0.09265 0.0
C241 C 0.44744 0.2928 0.07686 0.0
C242 C 0.46111 0.28666 0.1089 0.0
C243 C 0.45725 0.27611 0.1576 0.0
C244 C 0.44224 0.24022 0.2616 0.0
C245 C 0.43072 0.22463 0.2689 0.0
C246 C 0.43668 0.20585 0.28889 0.0
C247 C 0.45424 0.20242 0.30214 0.0
C248 C 0.46606 0.21768 0.29155 0.0
C249 C 0.46015 0.23636 0.27086 0.0
C250 C 0.44203 0.28387 0.28997 0.0
C251 C 0.44486 0.30337 0.27052 0.0
C252 C 0.45291 0.31699 0.30131 0.0
C253 C 0.45777 0.31169 0.35323 0.0
C254 C 0.45383 0.29257 0.37417 0.0
C255 C 0.44595 0.27883 0.34288 0.0
Dy256 Dy 0.99087 0.01226 0.65324 0.0
Dy257 Dy 0.01773 0.99461 0.74062 0.0
C258 C 0.03301 0.00703 0.61778 0.0
O259 O 0.99741 0.97901 0.63338 0.0
O260 O 0.00368 0.96809 0.71763 0.0
O261 O 0.98109 0.0093 0.57482 0.0
O262 O 0.97085 0.03475 0.62938 0.0
O263 O 0.9907 0.00241 0.78996 0.0
O264 O 0.9724 0.00074 0.72232 0.0
O265 O 0.02177 0.02756 0.73656 0.0
O266 O 0.99512 0.03879 0.70675 0.0
O267 O 0.02545 0.99261 0.82264 0.0
O268 O 0.04148 0.97592 0.75441 0.0
C269 C 0.99942 0.96436 0.66852 0.0
O270 O 0.01817 0.01855 0.61502 0.0
O271 O 0.03442 0.99411 0.65772 0.0
C272 C 0.97823 0.04171 0.53509 0.0
C273 C 0.9933 0.07055 0.46295 0.0
C274 C 0.99953 0.04991 0.45678 0.0
C275 C 0.99209 0.03564 0.49237 0.0
C276 C 0.97133 0.06218 0.53935 0.0
C277 C 0.97882 0.07649 0.50371 0.0
C278 C 0.97269 0.02745 0.57902 0.0
C279 C 0.97475 0.00101 0.77458 0.0
C280 C 0.00952 0.04225 0.7292 0.0
C281 C 0.03884 0.96015 0.8393 0.0
C282 C 0.04078 0.92255 0.89205 0.0
C283 C 0.02608 0.92853 0.8642 0.0
C284 C 0.02512 0.94718 0.83806 0.0
C285 C 0.05339 0.95445 0.86754 0.0
C286 C 0.05436 0.93579 0.89386 0.0
C287 C 0.03865 0.97881 0.80762 0.0
H288 H 0.01077 0.04488 0.42614 0.0
H289 H 0.9978 0.02 0.4878 0.0
H290 H 0.96064 0.06727 0.57173 0.0
H291 H 0.97357 0.09227 0.50886 0.0
H292 H 0.01553 0.91858 0.86143 0.0
H293 H 0.01387 0.95131 0.8159 0.0
H294 H 0.06413 0.96429 0.86854 0.0
H295 H 0.06572 0.93173 0.91559 0.0
Dy296 Dy 0.49831 0.9814 0.64876 0.0
Dy297 Dy 0.5078 0.01321 0.74163 0.0
C298 C 0.49312 0.02956 0.63324 0.0
O299 O 0.52833 0.9786 0.64093 0.0
O300 O 0.53153 0.01018 0.67607 0.0
O301 O 0.50231 0.96919 0.56546 0.0
O302 O 0.48278 0.95731 0.62664 0.0
O303 O 0.52133 0.98309 0.75941 0.0
O304 O 0.50184 0.96345 0.72409 0.0
O305 O 0.48063 0.00338 0.77186 0.0
O306 O 0.47201 0.99661 0.68813 0.0
O307 O 0.50705 0.02165 0.82725 0.0
O308 O 0.51888 0.04083 0.76369 0.0
C309 C 0.53822 0.99368 0.64753 0.0
O310 O 0.49841 0.01176 0.60952 0.0
O311 O 0.49232 0.03242 0.68668 0.0
C312 C 0.47449 0.96346 0.53937 0.0
C313 C 0.447 0.974 0.47485 0.0
C314 C 0.45138 0.98793 0.51374 0.0
C315 C 0.46499 0.98272 0.54554 0.0
C316 C 0.4703 0.94944 0.50071 0.0
C317 C 0.4566 0.95468 0.46858 0.0
C318 C 0.48853 0.95846 0.57425 0.0
C319 C 0.51408 0.96584 0.75657 0.0
C320 C 0.46799 0.00061 0.74112 0.0
C321 C 0.53309 0.03702 0.84336 0.0
C322 C 0.56536 0.03732 0.88932 0.0
C323 C 0.55661 0.01941 0.8884 0.0
C324 C 0.54068 0.01921 0.86531 0.0
C325 C 0.54172 0.05496 0.8448 0.0
C326 C 0.55778 0.05511 0.86739 0.0
C327 C 0.51686 0.03679 0.81604 0.0
H328 H 0.44404 0.00276 0.52049 0.0
H329 H 0.46802 0.9937 0.57543 0.0
H330 H 0.47755 0.93452 0.49551 0.0
H331 H 0.45358 0.94368 0.43873 0.0
H332 H 0.5623 0.00545 0.90452 0.0
H333 H 0.53446 0.00505 0.86404 0.0
H334 H 0.53613 0.06881 0.8278 0.0
H335 H 0.56421 0.06914 0.86803 0.0
Dy336 Dy 0.52563 0.49503 0.73498 0.0
Dy337 Dy 0.48567 0.50365 0.68768 0.0
C338 C 0.49396 0.46715 0.76608 0.0
O339 O 0.52931 0.47693 0.65565 0.0
O340 O 0.50009 0.47857 0.63424 0.0
O341 O 0.5405 0.48084 0.7958 0.0
O342 O 0.55392 0.49935 0.73351 0.0
O343 O 0.50637 0.51703 0.62884 0.0
O344 O 0.52509 0.5246 0.69127 0.0
O345 O 0.48743 0.52851 0.7486 0.0
O346 O 0.50707 0.51223 0.80122 0.0
O347 O 0.46601 0.52414 0.65383 0.0
O348 O 0.46025 0.49328 0.67358 0.0
C349 C 0.51706 0.47142 0.62598 0.0
O350 O 0.51097 0.46737 0.74714 0.0
O351 O 0.48241 0.4827 0.75932 0.0
C352 C 0.56525 0.49694 0.82124 0.0
C353 C 0.58636 0.50926 0.90163 0.0
C354 C 0.57709 0.49168 0.90856 0.0
C355 C 0.56675 0.4856 0.86892 0.0
C356 C 0.57437 0.51464 0.8142 0.0
C357 C 0.58481 0.52073 0.85399 0.0
C358 C 0.55525 0.48902 0.77828 0.0
C359 C 0.5188 0.52778 0.64422 0.0
C360 C 0.49516 0.52727 0.79363 0.0
C361 C 0.44569 0.50898 0.60168 0.0
C362 C 0.4245 0.50637 0.51439 0.0
C363 C 0.42486 0.52487 0.54328 0.0
C364 C 0.43528 0.52612 0.58638 0.0
C365 C 0.44585 0.49062 0.5718 0.0
C366 C 0.4354 0.48935 0.52864 0.0
C367 C 0.4548 0.51026 0.65175 0.0
H368 H 0.57822 0.48221 0.94398 0.0
H369 H 0.56017 0.4717 0.87514 0.0
H370 H 0.57364 0.52365 0.77774 0.0
H371 H 0.59166 0.53442 0.84743 0.0
H372 H 0.41694 0.5384 0.53294 0.0
H373 H 0.43487 0.54045 0.60873 0.0
H374 H 0.45369 0.47709 0.58261 0.0
H375 H 0.4354 0.47481 0.50774 0.0
Dy376 Dy 0.013 0.52801 0.65941 0.0
Dy377 Dy 0.00265 0.48868 0.73383 0.0
C378 C 0.01925 0.48315 0.60843 0.0
O379 O 0.98299 0.52984 0.6696 0.0
O380 O 0.97918 0.4964 0.68835 0.0
O381 O 0.00734 0.54917 0.59595 0.0
O382 O 0.03133 0.55073 0.63465 0.0
O383 O 0.98958 0.51581 0.78392 0.0
O384 O 0.00696 0.54034 0.74557 0.0
O385 O 0.02845 0.4973 0.75855 0.0
O386 O 0.03906 0.51229 0.67871 0.0
O387 O 1.00023 0.47288 0.81081 0.0
O388 O 0.99461 0.45809 0.73642 0.0
C389 C 0.9731 0.51433 0.67244 0.0
O390 O 0.01322 0.50194 0.60082 0.0
O391 O 0.02042 0.47646 0.65822 0.0
C392 C 0.0345 0.55227 0.53804 0.0
C393 C 0.05951 0.53617 0.44937 0.0
C394 C 0.04156 0.53159 0.45394 0.0
C395 C 0.02919 0.53955 0.49774 0.0
C396 C 0.05199 0.5584 0.53064 0.0
C397 C 0.06439 0.55043 0.48664 0.0
C398 C 0.02328 0.55563 0.592 0.0
C399 C 0.99574 0.53384 0.78588 0.0
C400 C 0.04169 0.50426 0.72624 0.0
C401 C 0.97771 0.45033 0.81943 0.0
C402 C 0.9464 0.43766 0.87941 0.0
C403 C 0.94604 0.45652 0.85314 0.0
C404 C 0.96159 0.4628 0.82334 0.0
C405 C 0.9781 0.43139 0.84452 0.0
C406 C 0.96256 0.42507 0.87432 0.0
C407 C 0.99417 0.45707 0.78968 0.0
H408 H 0.03733 0.52061 0.42623 0.0
H409 H 0.01582 0.53447 0.50203 0.0
H410 H 0.0564 0.56822 0.56099 0.0
H411 H 0.07805 0.55461 0.48347 0.0
H412 H 0.93389 0.46669 0.85693 0.0
H413 H 0.96111 0.47749 0.804 0.0
H414 H 0.99046 0.42157 0.84148 0.0
H415 H 0.96321 0.41039 0.89357 0.0
H416 H 0.18548 0.02393 0.33957 0.0
H417 H 0.15788 0.01714 0.39802 0.0
H418 H 0.12846 0.02442 0.2588 0.0
H419 H 0.15625 0.03104 0.19972 0.0
H420 H 0.11269 0.04738 0.35652 0.0
H421 H 0.13506 0.97887 0.30284 0.0
H422 H 0.15786 0.94959 0.28885 0.0
H423 H 0.16222 0.94983 0.46201 0.0
H424 H 0.13962 0.9793 0.47694 0.0
H425 H 0.0324 0.02035 0.51266 0.0
H426 H 0.05781 0.02271 0.44098 0.0
H427 H 0.09407 0.00057 0.55392 0.0
H428 H 0.06857 0.99708 0.62466 0.0
H429 H 0.10538 0.98409 0.4612 0.0
H430 H 0.08609 0.05338 0.51645 0.0
H431 H 0.06461 0.08374 0.53437 0.0
H432 H 0.05606 0.08385 0.36434 0.0
H433 H 0.07728 0.05328 0.34559 0.0
C434 C 0.17316 0.02386 0.32129 0.0
C435 C 0.17299 0.02798 0.26512 0.0
C436 C 0.15741 0.01995 0.35468 0.0
C437 C 0.14111 0.02024 0.33279 0.0
C438 C 0.1409 0.0241 0.2765 0.0
C439 C 0.15677 0.02773 0.24276 0.0
C440 C 0.12429 0.01721 0.36959 0.0
C441 C 0.11089 0.03342 0.37871 0.0
C442 C 0.12222 0.99922 0.39973 0.0
C443 C 0.13574 0.9814 0.39092 0.0
C444 C 0.14098 0.97278 0.33787 0.0
C445 C 0.15385 0.95613 0.32979 0.0
C446 C 0.16151 0.94788 0.37449 0.0
C447 C 0.15628 0.95624 0.42741 0.0
C448 C 0.14343 0.9729 0.43572 0.0
C449 C 0.0458 0.01598 0.52219 0.0
C450 C 0.04848 0.0086 0.57445 0.0
C451 C 0.06037 0.01745 0.48119 0.0
C452 C 0.07802 0.01223 0.49203 0.0
C453 C 0.08066 0.00472 0.54422 0.0
C454 C 0.06606 0.00278 0.5848 0.0
C455 C 0.09375 0.01443 0.44923 0.0
C456 C 0.107 0.99805 0.43888 0.0
C457 C 0.09582 0.03243 0.41868 0.0
C458 C 0.08312 0.0509 0.42977 0.0
C459 C 0.07953 0.05978 0.48297 0.0
C460 C 0.0674 0.07703 0.49328 0.0
C461 C 0.05891 0.08566 0.45059 0.0
C462 C 0.06258 0.07711 0.39743 0.0
C463 C 0.07467 0.05982 0.38693 0.0
H464 H 0.04956 0.09902 0.45874 0.0
H465 H 0.17147 0.93499 0.36815 0.0
H466 H 0.44928 0.16295 0.27666 0.0
H467 H 0.45639 0.13258 0.32905 0.0
H468 H 0.47772 0.16964 0.44698 0.0
H469 H 0.47114 0.19982 0.39386 0.0
H470 H 0.49815 0.13634 0.42994 0.0
H471 H 0.43443 0.15208 0.46956 0.0
H472 H 0.40348 0.15892 0.44808 0.0
H473 H 0.4063 0.09972 0.37139 0.0
H474 H 0.43738 0.09264 0.39175 0.0
H475 H 0.49206 0.07017 0.65791 0.0
H476 H 0.48573 0.09862 0.59793 0.0
H477 H 0.47691 0.05653 0.47029 0.0
H478 H 0.48345 0.02796 0.52965 0.0
H479 H 0.45051 0.09095 0.48946 0.0
H480 H 0.51449 0.07546 0.45513 0.0
H481 H 0.54483 0.06916 0.48196 0.0
H482 H 0.54051 0.12908 0.55513 0.0
H483 H 0.51002 0.13562 0.52948 0.0
C484 C 0.45559 0.16454 0.31359 0.0
C485 C 0.45966 0.18373 0.33118 0.0
C486 C 0.45957 0.14721 0.34368 0.0
C487 C 0.46731 0.14883 0.39264 0.0
C488 C 0.47177 0.16795 0.40941 0.0
C489 C 0.46804 0.1852 0.37894 0.0
C490 C 0.47055 0.13075 0.427 0.0
C491 C 0.48764 0.12659 0.44336 0.0
C492 C 0.45698 0.1177 0.44392 0.0
C493 C 0.4383 0.12193 0.43163 0.0
C494 C 0.4285 0.14059 0.44773 0.0
C495 C 0.41093 0.1445 0.43582 0.0
C496 C 0.40295 0.12979 0.40824 0.0
C497 C 0.41251 0.11112 0.39265 0.0
C498 C 0.4301 0.10714 0.40438 0.0
C499 C 0.48866 0.06697 0.61721 0.0
C500 C 0.48835 0.04683 0.59838 0.0
C501 C 0.48512 0.08322 0.58297 0.0
C502 C 0.48099 0.07963 0.5296 0.0
C503 C 0.48012 0.05958 0.5113 0.0
C504 C 0.48393 0.04331 0.54519 0.0
C505 C 0.47796 0.09681 0.49252 0.0
C506 C 0.46096 0.10074 0.47573 0.0
C507 C 0.49151 0.10979 0.4758 0.0
C508 C 0.5099 0.10596 0.49086 0.0
C509 C 0.51995 0.08723 0.47736 0.0
C510 C 0.53718 0.08363 0.49227 0.0
C511 C 0.54457 0.09869 0.52036 0.0
C512 C 0.53476 0.11741 0.53344 0.0
C513 C 0.51751 0.12109 0.51869 0.0
H514 H 0.55792 0.09587 0.53187 0.0
H515 H 0.38934 0.13284 0.39908 0.0
H516 H 0.33734 0.46707 0.10825 0.0
H517 H 0.35836 0.47327 0.17316 0.0
H518 H 0.31641 0.50882 0.2777 0.0
H519 H 0.29514 0.50245 0.21313 0.0
H520 H 0.34853 0.52624 0.27033 0.0
H521 H 0.32798 0.46044 0.30897 0.0
H522 H 0.32183 0.42544 0.2865 0.0
H523 H 0.37784 0.41004 0.23264 0.0
H524 H 0.38429 0.44505 0.25405 0.0
H525 H 0.39009 0.5238 0.51534 0.0
H526 H 0.36996 0.52069 0.44591 0.0
H527 H 0.41076 0.48179 0.34621 0.0
H528 H 0.43107 0.48492 0.41554 0.0
H529 H 0.37929 0.46638 0.35027 0.0
H530 H 0.40016 0.53176 0.31222 0.0
H531 H 0.40657 0.56677 0.33353 0.0
H532 H 0.35054 0.58305 0.38495 0.0
H533 H 0.34382 0.54804 0.36466 0.0
C534 C 0.33252 0.4762 0.14506 0.0
C535 C 0.31442 0.48404 0.15561 0.0
C536 C 0.3446 0.47976 0.18215 0.0
C537 C 0.33894 0.49123 0.23091 0.0
C538 C 0.32111 0.49988 0.24047 0.0
C539 C 0.30896 0.49628 0.20333 0.0
C540 C 0.3515 0.49357 0.27254 0.0
C541 C 0.35508 0.51316 0.28835 0.0
C542 C 0.36042 0.47652 0.29522 0.0
C543 C 0.35659 0.45543 0.2826 0.0
C544 C 0.33897 0.44964 0.29193 0.0
C545 C 0.33543 0.42979 0.27945 0.0
C546 C 0.34943 0.41554 0.25802 0.0
C547 C 0.36701 0.4211 0.24917 0.0
C548 C 0.37061 0.44094 0.2615 0.0
C549 C 0.39494 0.51482 0.47832 0.0
C550 C 0.41233 0.50472 0.47112 0.0
C551 C 0.38335 0.51302 0.43855 0.0
C552 C 0.38885 0.5012 0.39027 0.0
C553 C 0.40615 0.49101 0.38303 0.0
C554 C 0.41776 0.49277 0.42287 0.0
C555 C 0.3764 0.49908 0.3481 0.0
C556 C 0.3728 0.4795 0.33223 0.0
C557 C 0.36752 0.51615 0.32528 0.0
C558 C 0.37151 0.53722 0.33742 0.0
C559 C 0.38922 0.54276 0.32849 0.0
C560 C 0.39291 0.56261 0.34031 0.0
C561 C 0.37898 0.57711 0.36072 0.0
C562 C 0.36132 0.5718 0.36921 0.0
C563 C 0.35756 0.55196 0.35751 0.0
H564 H 0.38186 0.59247 0.36983 0.0
H565 H 0.34667 0.40018 0.24839 0.0
H566 H 0.05394 0.37891 0.14444 0.0
H567 H 0.04884 0.40522 0.21757 0.0
H568 H 0.03093 0.36055 0.3349 0.0
H569 H 0.03536 0.33453 0.26158 0.0
H570 H 0.01042 0.39274 0.35572 0.0
H571 H 0.07483 0.38016 0.31761 0.0
H572 H 0.10522 0.37865 0.26591 0.0
H573 H 0.09794 0.44239 0.23355 0.0
H574 H 0.06737 0.44421 0.28405 0.0
H575 H 0.02168 0.44152 0.60661 0.0
H576 H 0.02646 0.4187 0.52543 0.0
H577 H 0.03189 0.47018 0.41959 0.0
H578 H 0.02686 0.49309 0.50046 0.0
H579 H 0.05752 0.43754 0.38852 0.0
H580 H 0.99426 0.45022 0.42969 0.0
H581 H 0.96505 0.45279 0.48864 0.0
H582 H 0.97169 0.38899 0.52085 0.0
H583 H 1.0011 0.38609 0.46274 0.0
C584 C 0.04881 0.3748 0.18585 0.0
C585 C 0.04499 0.35468 0.19727 0.0
C586 C 0.04604 0.3898 0.22776 0.0
C587 C 0.0398 0.38489 0.28226 0.0
C588 C 0.03573 0.36483 0.29336 0.0
C589 C 0.03821 0.34994 0.25136 0.0
C590 C 0.03726 0.4005 0.32785 0.0
C591 C 0.02092 0.40225 0.36326 0.0
C592 C 0.05062 0.4136 0.33694 0.0
C593 C 0.06865 0.41223 0.30388 0.0
C594 C 0.07958 0.39378 0.29868 0.0
C595 C 0.09688 0.39289 0.26974 0.0
C596 C 0.10348 0.41039 0.24628 0.0
C597 C 0.09278 0.42882 0.25151 0.0
C598 C 0.07545 0.42977 0.28018 0.0
C599 C 0.02405 0.44797 0.5661 0.0
C600 C 0.0238 0.46913 0.55996 0.0
C601 C 0.02667 0.43493 0.51975 0.0
C602 C 0.02928 0.44278 0.46647 0.0
C603 C 0.02977 0.46382 0.46029 0.0
C604 C 0.02688 0.47689 0.50656 0.0
C605 C 0.03122 0.42899 0.41728 0.0
C606 C 0.04724 0.42782 0.38101 0.0
C607 C 0.01771 0.41635 0.4076 0.0
C608 C 0.99997 0.41798 0.44228 0.0
C609 C 0.98957 0.43677 0.44972 0.0
C610 C 0.97296 0.43828 0.48291 0.0
C611 C 0.96654 0.42108 0.50858 0.0
C612 C 0.9767 0.40231 0.50098 0.0
C613 C 0.99333 0.40072 0.46788 0.0
H614 H 0.95368 0.42228 0.53426 0.0
H615 H 0.11692 0.4097 0.22423 0.0
H616 H 0.82194 0.98981 0.07726 0.0
H617 H 0.849 0.98634 0.00968 0.0
H618 H 0.87999 0.00664 0.13268 0.0
H619 H 0.853 0.01024 0.20016 0.0
H620 H 0.88652 0.02726 0.04274 0.0
H621 H 0.88456 0.95667 0.08209 0.0
H622 H 0.87117 0.92395 0.09285 0.0
H623 H 0.86316 0.9239 0.92236 0.0
H624 H 0.87627 0.95679 0.91074 0.0
H625 H 0.97284 0.00757 0.88619 0.0
H626 H 0.9467 0.00642 0.95619 0.0
H627 H 0.91474 0.99097 0.83061 0.0
H628 H 0.94079 0.99212 0.76026 0.0
H629 H 0.90891 0.96735 0.92165 0.0
H630 H 0.91072 0.03839 0.88374 0.0
H631 H 0.92285 0.0719 0.87527 0.0
H632 H 0.93099 0.07103 0.04562 0.0
H633 H 0.9192 0.03736 0.05491 0.0
C634 C 0.83459 0.99308 0.09025 0.0
C635 C 0.83527 0.00039 0.1441 0.0
C636 C 0.85008 0.99112 0.0515 0.0
C637 C 0.86662 0.9962 0.06592 0.0
C638 C 0.86742 0.00274 0.1203 0.0
C639 C 0.85195 0.00479 0.15889 0.0
C640 C 0.88281 0.99611 0.02371 0.0
C641 C 0.89159 0.01401 0.01698 0.0
C642 C 0.88917 0.97906 0.98883 0.0
C643 C 0.88123 0.95931 0.9957 0.0
C644 C 0.87979 0.94978 0.047 0.0
C645 C 0.87228 0.93118 0.05323 0.0
C646 C 0.86627 0.92188 0.00836 0.0
C647 C 0.86779 0.93114 0.95711 0.0
C648 C 0.87528 0.94975 0.95066 0.0
C649 C 0.96027 0.0039 0.87335 0.0
C650 C 0.95894 1.00002 0.81742 0.0
C651 C 0.9453 0.00333 0.91348 0.0
C652 C 0.92868 0.99877 0.89868 0.0
C653 C 0.92739 0.99455 0.84306 0.0
C654 C 0.94231 0.9953 0.80282 0.0
C655 C 0.91266 0.99844 0.94117 0.0
C656 C 0.90388 0.98052 0.94774 0.0
C657 C 0.90633 0.01545 0.97619 0.0
C658 C 0.91423 0.03525 0.96987 0.0
C659 C 0.91534 0.0452 0.91919 0.0
C660 C 0.9221 0.06426 0.91429 0.0
C661 C 0.92765 0.07359 0.95992 0.0
C662 C 0.92666 0.06378 0.01035 0.0
C663 C 0.91996 0.04472 0.01544 0.0
H664 H 0.93262 0.08847 0.95636 0.0
H665 H 0.86047 0.90747 0.01326 0.0
H666 H 0.51385 0.85079 0.15877 0.0
H667 H 0.51837 0.87695 0.08997 0.0
H668 H 0.55379 0.8342 0.98387 0.0
H669 H 0.54873 0.80765 0.05173 0.0
H670 H 0.54477 0.89608 0.03487 0.0
H671 H 0.54444 0.84078 0.85265 0.0
H672 H 0.53489 0.80685 0.83357 0.0
H673 H 0.49347 0.81462 0.9719 0.0
H674 H 0.50263 0.84867 0.99129 0.0
H675 H 0.54594 0.9582 0.79757 0.0
H676 H 0.55402 0.93092 0.85911 0.0
H677 H 0.50158 0.9093 0.85997 0.0
H678 H 0.49395 0.93568 0.79594 0.0
H679 H 0.52402 0.8786 0.85741 0.0
H680 H 0.51515 0.94179 0.96687 0.0
H681 H 0.52205 0.97678 0.98669 0.0
H682 H 0.57663 0.95531 0.99972 0.0
H683 H 0.5701 0.92021 0.97928 0.0
C684 C 0.52272 0.84698 0.12097 0.0
C685 C 0.53063 0.82702 0.11025 0.0
C686 C 0.52546 0.86203 0.08191 0.0
C687 C 0.53617 0.85746 0.03134 0.0
C688 C 0.54526 0.83799 0.02232 0.0
C689 C 0.54245 0.82286 0.06133 0.0
C690 C 0.53603 0.87236 0.98629 0.0
C691 C 0.5404 0.89224 0.99583 0.0
C692 C 0.53017 0.86744 0.9355 0.0
C693 C 0.52437 0.84713 0.92377 0.0
C694 C 0.53327 0.83524 0.87886 0.0
C695 C 0.52792 0.816 0.86801 0.0
C696 C 0.51362 0.80856 0.90163 0.0
C697 C 0.50458 0.82038 0.94601 0.0
C698 C 0.50985 0.83964 0.95696 0.0
C699 C 0.53622 0.9475 0.81068 0.0
C700 C 0.5193 0.94906 0.7922 0.0
C701 C 0.54081 0.93197 0.84609 0.0
C702 C 0.52831 0.91821 0.86522 0.0
C703 C 0.51151 0.91964 0.84586 0.0
C704 C 0.50712 0.93478 0.80935 0.0
C705 C 0.53228 0.90257 0.90633 0.0
C706 C 0.5287 0.88246 0.89597 0.0
C707 C 0.53844 0.90746 0.95681 0.0
C708 C 0.54217 0.92842 0.97109 0.0
C709 C 0.52862 0.94455 0.97389 0.0
C710 C 0.53247 0.9644 0.98517 0.0
C711 C 0.54978 0.96827 0.99431 0.0
C712 C 0.56324 0.95228 0.99254 0.0
C713 C 0.55947 0.93241 0.98117 0.0
H714 H 0.55275 0.98366 0.00283 0.0
H715 H 0.50953 0.79365 0.89321 0.0
H716 H 0.67301 0.52152 0.31873 0.0
H717 H 0.65169 0.52403 0.25155 0.0
H718 H 0.69465 0.53283 0.12225 0.0
H719 H 0.7162 0.52996 0.18918 0.0
H720 H 0.66187 0.55703 0.11143 0.0
H721 H 0.68258 0.48721 0.1382 0.0
H722 H 0.68881 0.45712 0.1937 0.0
H723 H 0.63294 0.45849 0.25717 0.0
H724 H 0.62643 0.48882 0.20269 0.0
H725 H 0.61968 0.5238 0.88357 0.0
H726 H 0.63975 0.53015 0.9516 0.0
H727 H 0.5998 0.51363 0.08185 0.0
H728 H 0.57963 0.50745 0.01428 0.0
H729 H 0.63134 0.49421 0.09195 0.0
H730 H 0.6099 0.56303 0.06561 0.0
H731 H 0.60294 0.59372 0.01323 0.0
H732 H 0.65874 0.59497 0.95161 0.0
H733 H 0.66601 0.56411 0.0031 0.0
C734 C 0.67795 0.52418 0.27611 0.0
C735 C 0.69641 0.52523 0.25935 0.0
C736 C 0.66571 0.52568 0.23775 0.0
C737 C 0.6716 0.52831 0.18169 0.0
C738 C 0.6898 0.53079 0.16528 0.0
C739 C 0.70211 0.52921 0.2037 0.0
C740 C 0.65902 0.52663 0.14 0.0
C741 C 0.65534 0.54323 0.10662 0.0
C742 C 0.65019 0.50878 0.13451 0.0
C743 C 0.65405 0.4904 0.16679 0.0
C744 C 0.67165 0.48119 0.16431 0.0
C745 C 0.67523 0.46408 0.19554 0.0
C746 C 0.66129 0.45593 0.22905 0.0
C747 C 0.64373 0.46484 0.23126 0.0
C748 C 0.64008 0.48198 0.20019 0.0
C749 C 0.61501 0.5219 0.92678 0.0
C750 C 0.59803 0.51498 0.94326 0.0
C751 C 0.62654 0.52551 0.96571 0.0
C752 C 0.62132 0.52241 0.02204 0.0
C753 C 0.60421 0.51602 0.03868 0.0
C754 C 0.5927 0.51242 0.99988 0.0
C755 C 0.634 0.52467 0.06333 0.0
C756 C 0.63778 0.50808 0.09662 0.0
C757 C 0.64278 0.54258 0.06886 0.0
C758 C 0.63848 0.56112 0.03775 0.0
C759 C 0.62067 0.56974 0.0405 0.0
C760 C 0.61667 0.58719 0.01105 0.0
C761 C 0.63038 0.59626 0.97897 0.0
C762 C 0.64813 0.58791 0.97641 0.0
C763 C 0.6522 0.57045 0.00576 0.0
H764 H 0.62727 0.60977 0.95622 0.0
H765 H 0.66409 0.44268 0.2532 0.0
H766 H 0.99243 0.67132 0.15085 0.0
H767 H 0.9886 0.64852 0.07524 0.0
H768 H 0.97598 0.60136 0.19073 0.0
H769 H 0.97979 0.62424 0.26711 0.0
H770 H 0.99986 0.58666 0.10763 0.0
H771 H 0.94342 0.62575 0.12159 0.0
H772 H 0.92254 0.65677 0.12837 0.0
H773 H 0.94673 0.6753 0.97042 0.0
H774 H 0.96793 0.64453 0.96302 0.0
H775 H 0.98078 0.52297 0.88839 0.0
H776 H 0.97543 0.54407 0.97294 0.0
H777 H 0.99402 0.59531 0.88154 0.0
H778 H 0.99949 0.5744 0.79711 0.0
H779 H 0.96357 0.60575 0.95799 0.0
H780 H 0.02193 0.56863 0.95016 0.0
H781 H 0.0428 0.53758 0.943 0.0
H782 H 0.0144 0.51529 0.09045 0.0
H783 H 0.99317 0.54609 0.09796 0.0
C784 C 0.9884 0.65628 0.16049 0.0
C785 C 0.98629 0.6497 0.21526 0.0
C786 C 0.98626 0.6432 0.11704 0.0
C787 C 0.98178 0.62326 0.12718 0.0
C788 C 0.97941 0.61668 0.18184 0.0
C789 C 0.98161 0.62977 0.22545 0.0
C790 C 0.98064 0.60906 0.08028 0.0
C791 C 0.9916 0.59066 0.07559 0.0
C792 C 0.97013 0.61436 0.03778 0.0
C793 C 0.95736 0.63288 0.04194 0.0
C794 C 0.94438 0.63651 0.08847 0.0
C795 C 0.93246 0.65404 0.0924 0.0
C796 C 0.93333 0.66801 0.0499 0.0
C797 C 0.94608 0.66446 0.00332 0.0
C798 C 0.95803 0.64696 0.9992 0.0
C799 C 0.9835 0.5388 0.88613 0.0
C800 C 0.99067 0.54696 0.83601 0.0
C801 C 0.9805 0.55081 0.93453 0.0
C802 C 0.98447 0.57122 0.93358 0.0
C803 C 0.99087 0.57961 0.88321 0.0
C804 C 0.99405 0.56759 0.83501 0.0
C805 C 0.98294 0.58361 0.98528 0.0
C806 C 0.97155 0.60166 0.99067 0.0
C807 C 0.99301 0.57798 0.02847 0.0
C808 C 0.00584 0.55954 0.02424 0.0
C809 C 0.02004 0.55702 0.98078 0.0
C810 C 0.03195 0.53949 0.9767 0.0
C811 C 0.02989 0.52445 0.01615 0.0
C812 C 0.01595 0.52694 0.05986 0.0
C813 C 0.00398 0.54443 0.06405 0.0
H814 H 0.03913 0.51088 0.01293 0.0
H815 H 0.92409 0.68157 0.05302 0.0
H816 H 0.0745 0.22104 0.26984 0.0
H817 H 0.06366 0.19162 0.31884 0.0
H818 H 0.06163 0.16077 0.16374 0.0
H819 H 0.07136 0.19051 0.11457 0.0
H820 H 0.03119 0.16007 0.22439 0.0
H821 H 0.09181 0.1445 0.25531 0.0
H822 H 0.12117 0.15051 0.28331 0.0
H823 H 0.09635 0.16384 0.44918 0.0
H824 H 0.06678 0.1582 0.42204 0.0
H825 H 0.00529 0.06859 0.35239 0.0
H826 H 0.02235 0.09313 0.29844 0.0
H827 H 0.01964 0.13159 0.44341 0.0
H828 H 0.00292 0.10694 0.49786 0.0
H829 H 0.05386 0.12619 0.38457 0.0
H830 H 0.993 0.14388 0.34949 0.0
H831 H 0.96398 0.13704 0.32035 0.0
H832 H 0.9904 0.11838 0.15946 0.0
H833 H 0.01963 0.12484 0.18792 0.0
C834 C 0.07194 0.20791 0.24611 0.0
C835 C 0.07367 0.20828 0.18821 0.0
C836 C 0.06593 0.19097 0.27422 0.0
C837 C 0.06184 0.17393 0.24499 0.0
C838 C 0.06467 0.17375 0.18719 0.0
C839 C 0.07047 0.19074 0.15908 0.0
C840 C 0.05278 0.15733 0.27439 0.0
C841 C 0.0364 0.15237 0.25867 0.0
C842 C 0.05928 0.1476 0.32001 0.0
C843 C 0.07704 0.15111 0.33647 0.0
C844 C 0.09258 0.14889 0.29765 0.0
C845 C 0.10927 0.15219 0.31339 0.0
C846 C 0.11062 0.1576 0.36795 0.0
C847 C 0.09528 0.15967 0.40691 0.0
C848 C 0.07856 0.1564 0.39138 0.0
C849 C 0.00834 0.08228 0.37274 0.0
C850 C 0.00266 0.08591 0.42927 0.0
C851 C 0.018 0.0963 0.34186 0.0
C852 C 0.02217 0.11418 0.36697 0.0
C853 C 0.01653 0.11787 0.42332 0.0
C854 C 0.00682 0.10389 0.45419 0.0
C855 C 0.03239 0.12911 0.3345 0.0
C856 C 0.04889 0.13377 0.3498 0.0
C857 C 0.0261 0.13846 0.28821 0.0
C858 C 0.00852 0.13463 0.27103 0.0
C859 C 0.99264 0.13815 0.30805 0.0
C860 C 0.97615 0.13437 0.29163 0.0
C861 C 0.97535 0.12722 0.23814 0.0
C862 C 0.99104 0.12388 0.20091 0.0
C863 C 0.00757 0.12761 0.21715 0.0
H864 H 0.96257 0.12431 0.2255 0.0
H865 H 0.12355 0.16014 0.38006 0.0
H866 H 0.29885 0.00412 0.27128 0.0
H867 H 0.32603 0.99239 0.30958 0.0
H868 H 0.34101 0.05389 0.31407 0.0
H869 H 0.31343 0.06599 0.2773 0.0
H870 H 0.36856 0.02523 0.2648 0.0
H871 H 0.32657 0.03383 0.43031 0.0
H872 H 0.29845 0.02915 0.49042 0.0
H873 H 0.31169 0.96455 0.4853 0.0
H874 H 0.33978 0.96882 0.42445 0.0
H875 H 0.43919 0.01045 0.42779 0.0
H876 H 0.41252 0.02124 0.38565 0.0
H877 H 0.39453 0.96113 0.40514 0.0
H878 H 0.42083 0.95049 0.45003 0.0
H879 H 0.36833 0.98869 0.44087 0.0
H880 H 0.41021 0.97938 0.27689 0.0
H881 H 0.43818 0.98329 0.21524 0.0
H882 H 0.42522 0.04788 0.21494 0.0
H883 H 0.39727 0.0444 0.27722 0.0
C884 C 0.30766 0.01528 0.28154 0.0
C885 C 0.30385 0.03606 0.2716 0.0
C886 C 0.32327 0.00849 0.30306 0.0
C887 C 0.33543 0.0223 0.31481 0.0
C888 C 0.33175 0.04303 0.30509 0.0
C889 C 0.31603 0.04988 0.28397 0.0
C890 C 0.35222 0.0149 0.33594 0.0
C891 C 0.36858 0.01749 0.30366 0.0
C892 C 0.35209 0.00424 0.38572 0.0
C893 C 0.3352 0.00163 0.42234 0.0
C894 C 0.32341 0.01861 0.44157 0.0
C895 C 0.30749 0.01604 0.47587 0.0
C896 C 0.30326 0.99656 0.49155 0.0
C897 C 0.31497 0.97962 0.47306 0.0
C898 C 0.3309 0.98211 0.4387 0.0
C899 C 0.42958 0.9995 0.42304 0.0
C900 C 0.43205 0.97965 0.44268 0.0
C901 C 0.41443 0.00563 0.39833 0.0
C902 C 0.40159 0.99195 0.39184 0.0
C903 C 0.40429 0.97192 0.4097 0.0
C904 C 0.41941 0.9658 0.43485 0.0
C905 C 0.38481 0.99898 0.36975 0.0
C906 C 0.36839 0.99635 0.40187 0.0
C907 C 0.3849 0.00947 0.31959 0.0
C908 C 0.40171 0.01163 0.28212 0.0
C909 C 0.41339 0.99444 0.26404 0.0
C910 C 0.42923 0.99658 0.22891 0.0
C911 C 0.4335 0.01583 0.21128 0.0
C912 C 0.42191 0.03298 0.22866 0.0
C913 C 0.40605 0.03093 0.26383 0.0
H914 H 0.44577 0.01745 0.18407 0.0
H915 H 0.29094 0.9946 0.51813 0.0
H916 H 0.48469 0.30237 0.41707 0.0
H917 H 0.50165 0.32608 0.46251 0.0
H918 H 0.47028 0.37667 0.40265 0.0
H919 H 0.45264 0.35331 0.35971 0.0
H920 H 0.50929 0.37717 0.37983 0.0
H921 H 0.46127 0.36682 0.52616 0.0
H922 H 0.44321 0.34716 0.59406 0.0
H923 H 0.49019 0.32831 0.66863 0.0
H924 H 0.50864 0.34748 0.60022 0.0
H925 H 0.50517 0.46823 0.52715 0.0
H926 H 0.50424 0.43687 0.47483 0.0
H927 H 0.53675 0.40444 0.58367 0.0
H928 H 0.53772 0.4361 0.63642 0.0
H929 H 0.50506 0.38874 0.5818 0.0
H930 H 0.55189 0.40479 0.44685 0.0
H931 H 0.56952 0.42594 0.38181 0.0
H932 H 0.52534 0.43494 0.28793 0.0
H933 H 0.50733 0.41411 0.35282 0.0
C934 C 0.48111 0.31853 0.41451 0.0
C935 C 0.46734 0.32589 0.38422 0.0
C936 C 0.49094 0.33203 0.44012 0.0
C937 C 0.4873 0.35305 0.43534 0.0
C938 C 0.47341 0.36045 0.40614 0.0
C939 C 0.4634 0.34704 0.38138 0.0
C940 C 0.49804 0.3676 0.4597 0.0
C941 C 0.50844 0.37974 0.42399 0.0
C942 C 0.49743 0.37028 0.5173 0.0
C943 C 0.48641 0.35822 0.55725 0.0
C944 C 0.46783 0.35815 0.55627 0.0
C945 C 0.45751 0.34714 0.59498 0.0
C946 C 0.46557 0.33637 0.63539 0.0
C947 C 0.48398 0.33656 0.63711 0.0
C948 C 0.49438 0.34746 0.5983 0.0
C949 C 0.51275 0.45459 0.5385 0.0
C950 C 0.52152 0.45451 0.58565 0.0
C951 C 0.51225 0.43665 0.50852 0.0
C952 C 0.52044 0.41829 0.52532 0.0
C953 C 0.53042 0.41848 0.56992 0.0
C954 C 0.5311 0.43657 0.59968 0.0
C955 C 0.51585 0.39892 0.5019 0.0
C956 C 0.50651 0.38581 0.53767 0.0
C957 C 0.51746 0.39533 0.44434 0.0
C958 C 0.52823 0.40789 0.40492 0.0
C959 C 0.54588 0.41138 0.41256 0.0
C960 C 0.55595 0.4233 0.37566 0.0
C961 C 0.54855 0.43179 0.33078 0.0
C962 C 0.53107 0.42834 0.32268 0.0
C963 C 0.52093 0.41643 0.35946 0.0
H964 H 0.55637 0.44102 0.30227 0.0
H965 H 0.45753 0.32799 0.66558 0.0
H966 H 0.17859 0.43816 0.09049 0.0
H967 H 0.14846 0.44666 0.13825 0.0
H968 H 0.16971 0.4483 0.29346 0.0
H969 H 0.1997 0.43834 0.24653 0.0
H970 H 0.13706 0.43799 0.31119 0.0
H971 H 0.16664 0.49083 0.20873 0.0
H972 H 0.18061 0.50771 0.12669 0.0
H973 H 0.13266 0.5049 0.05079 0.0
H974 H 0.11849 0.48774 0.13217 0.0
H975 H 0.09279 0.52085 0.46864 0.0
H976 H 0.11436 0.49817 0.40919 0.0
H977 H 0.07876 0.50017 0.28464 0.0
H978 H 0.05733 0.5237 0.34309 0.0
H979 H 0.11322 0.50383 0.24206 0.0
H980 H 0.08226 0.46089 0.37047 0.0
H981 H 0.07074 0.45007 0.46362 0.0
H982 H 0.12451 0.43775 0.50092 0.0
H983 H 0.13641 0.44941 0.40935 0.0
C984 C 0.17681 0.43942 0.13504 0.0
C985 C 0.19168 0.43803 0.16459 0.0
C986 C 0.15954 0.44454 0.16224 0.0
C987 C 0.15691 0.44882 0.21915 0.0
C988 C 0.17142 0.44533 0.24939 0.0
C989 C 0.18862 0.43986 0.22239 0.0
C990 C 0.13993 0.45962 0.24619 0.0
C991 C 0.1318 0.45238 0.29618 0.0
C992 C 0.13286 0.47822 0.22595 0.0
C993 C 0.14159 0.48781 0.17619 0.0
C994 C 0.15915 0.49362 0.17429 0.0
C995 C 0.16708 0.50328 0.128 0.0
C996 C 0.1575 0.50743 0.08368 0.0
C997 C 0.14004 0.5017 0.08522 0.0
C998 C 0.13206 0.49199 0.13137 0.0
C999 C 0.08967 0.51688 0.42814 0.0
C1000 C 0.07333 0.52416 0.41058 0.0
C1001 C 0.10189 0.5036 0.39459 0.0
C1002 C 0.09794 0.49709 0.34315 0.0
C1003 C 0.08193 0.50481 0.32458 0.0
C1004 C 0.06971 0.51821 0.35804 0.0
C1005 C 0.11085 0.48268 0.30829 0.0
C1006 C 0.11812 0.48919 0.25658 0.0
C1007 C 0.11747 0.46379 0.32805 0.0
C1008 C 0.11025 0.45609 0.38271 0.0
C1009 C 0.09165 0.45597 0.39854 0.0
C1010 C 0.08504 0.44972 0.45113 0.0
C1011 C 0.09687 0.4431 0.48789 0.0
C1012 C 0.11535 0.44283 0.47232 0.0
C1013 C 0.12204 0.44932 0.42011 0.0
H1014 H 0.09171 0.43824 0.52851 0.0
H1015 H 0.16356 0.51518 0.04825 0.0
H1016 H 0.06436 0.75281 0.15359 0.0
H1017 H 0.06832 0.7786 0.08214 0.0
H1018 H 0.01393 0.80414 0.13089 0.0
H1019 H 0.01003 0.77868 0.20214 0.0
H1020 H 0.02382 0.80103 0.01538 0.0
H1021 H 0.04549 0.82524 0.18098 0.0
H1022 H 0.06477 0.82263 0.25502 0.0
H1023 H 0.11173 0.81935 0.13458 0.0
H1024 H 0.09267 0.82167 0.05975 0.0
H1025 H 0.01389 0.90423 0.95257 0.0
H1026 H 0.0158 0.87112 0.99566 0.0
H1027 H 0.07227 0.86239 0.93534 0.0
H1028 H 0.07044 0.89553 0.89152 0.0
H1029 H 0.06571 0.85312 0.04265 0.0
H1030 H 0.04336 0.83552 0.87737 0.0
H1031 H 0.02377 0.83823 0.80417 0.0
H1032 H 0.97811 0.82898 0.92231 0.0
H1033 H 0.99737 0.82651 0.99644 0.0
C1034 C 0.05325 0.76382 0.14838 0.0
C1035 C 0.03697 0.764 0.18343 0.0
C1036 C 0.05551 0.77849 0.10781 0.0
C1037 C 0.04141 0.79325 0.10155 0.0
C1038 C 0.02493 0.79283 0.13504 0.0
C1039 C 0.02276 0.77842 0.17589 0.0
C1040 C 0.04397 0.81011 0.063 0.0
C1041 C 0.03297 0.81244 0.02113 0.0
C1042 C 0.05624 0.82464 0.06991 0.0
C1043 C 0.06768 0.82335 0.11481 0.0
C1044 C 0.05992 0.82378 0.17029 0.0
C1045 C 0.07081 0.82239 0.21239 0.0
C1046 C 0.08947 0.82075 0.1995 0.0
C1047 C 0.09727 0.82057 0.14449 0.0
C1048 C 0.08644 0.82192 0.10222 0.0
C1049 C 0.02667 0.89517 0.94785 0.0
C1050 C 0.042 0.90248 0.91853 0.0
C1051 C 0.02774 0.87624 0.97246 0.0
C1052 C 0.04413 0.86418 0.96796 0.0
C1053 C 0.0595 0.87146 0.93909 0.0
C1054 C 0.05844 0.89042 0.9144 0.0
C1055 C 0.04521 0.84439 0.99566 0.0
C1056 C 0.05686 0.84151 0.0357 0.0
C1057 C 0.03352 0.82935 0.98698 0.0
C1058 C 0.02182 0.83093 0.94257 0.0
C1059 C 0.02912 0.83422 0.88786 0.0
C1060 C 0.01808 0.83569 0.84617 0.0
C1061 C 0.99971 0.83377 0.8586 0.0
C1062 C 0.99234 0.83044 0.91276 0.0
C1063 C 0.00332 0.82897 0.95462 0.0
H1064 H 0.99121 0.83479 0.82625 0.0
H1065 H 0.09787 0.81968 0.23215 0.0
H1066 H 0.72121 0.0491 0.05615 0.0
H1067 H 0.69614 0.04819 0.00164 0.0
H1068 H 0.66359 0.02517 0.1413 0.0
H1069 H 0.6885 0.02599 0.19567 0.0
H1070 H 0.66156 0.0044 0.04189 0.0
H1071 H 0.65766 0.07343 0.11459 0.0
H1072 H 0.66928 0.10656 0.1295 0.0
H1073 H 0.67816 0.11495 0.95468 0.0
H1074 H 0.66682 0.08171 0.93873 0.0
H1075 H 0.57273 0.02207 0.98746 0.0
H1076 H 0.60092 0.02185 0.02656 0.0
H1077 H 0.62468 0.05204 0.8832 0.0
H1078 H 0.59628 0.05271 0.84449 0.0
H1079 H 0.63344 0.0684 0.97431 0.0
H1080 H 0.63454 0.00117 0.90072 0.0
H1081 H 0.62206 0.96862 0.88518 0.0
H1082 H 0.61872 0.95648 0.05802 0.0
H1083 H 0.6309 0.98915 0.07479 0.0
C1084 C 0.70871 0.0438 0.07499 0.0
C1085 C 0.70669 0.03782 0.1302 0.0
C1086 C 0.69443 0.04332 0.04397 0.0
C1087 C 0.67804 0.03669 0.06764 0.0
C1088 C 0.67615 0.03034 0.12236 0.0
C1089 C 0.69031 0.031 0.15348 0.0
C1090 C 0.66259 0.03681 0.03614 0.0
C1091 C 0.65533 0.01837 0.02728 0.0
C1092 C 0.65484 0.05499 0.01588 0.0
C1093 C 0.66161 0.07498 0.02546 0.0
C1094 C 0.66225 0.08226 0.07932 0.0
C1095 C 0.66875 0.10107 0.08796 0.0
C1096 C 0.67451 0.11282 0.04306 0.0
C1097 C 0.67373 0.10581 0.98942 0.0
C1098 C 0.66726 0.08699 0.98056 0.0
C1099 C 0.584 0.02859 0.96427 0.0
C1100 C 0.58239 0.03737 0.91299 0.0
C1101 C 0.6001 0.02842 0.98651 0.0
C1102 C 0.61499 0.03664 0.95736 0.0
C1103 C 0.61336 0.04561 0.90634 0.0
C1104 C 0.59716 0.04601 0.88436 0.0
C1105 C 0.63217 0.03601 0.98071 0.0
C1106 C 0.63979 0.05434 0.98807 0.0
C1107 C 0.64033 0.01769 0.99918 0.0
C1108 C 0.63356 0.99769 0.98906 0.0
C1109 C 0.63109 0.9916 0.93547 0.0
C1110 C 0.62406 0.97313 0.92644 0.0
C1111 C 0.61958 0.9605 0.9706 0.0
C1112 C 0.6222 0.96628 0.02386 0.0
C1113 C 0.6292 0.98477 0.03314 0.0
H1114 H 0.61409 0.94622 0.96356 0.0
H1115 H 0.67954 0.12738 0.04983 0.0
H1116 H 0.49925 0.66567 0.16541 0.0
H1117 H 0.49805 0.63497 0.10959 0.0
H1118 H 0.48104 0.67176 0.9782 0.0
H1119 H 0.48218 0.70263 0.03407 0.0
H1120 H 0.46116 0.63749 0.00153 0.0
H1121 H 0.52251 0.65362 0.96643 0.0
H1122 H 0.55194 0.6613 0.99072 0.0
H1123 H 0.55765 0.60364 0.06887 0.0
H1124 H 0.52808 0.59576 0.04591 0.0
H1125 H 0.4781 0.5648 0.78148 0.0
H1126 H 0.47563 0.59417 0.84397 0.0
H1127 H 0.50173 0.55786 0.96089 0.0
H1128 H 0.5048 0.5285 0.89762 0.0
H1129 H 0.51646 0.59176 0.94755 0.0
H1130 H 0.45582 0.57483 0.98302 0.0
H1131 H 0.42638 0.56652 0.96016 0.0
H1132 H 0.419 0.62449 0.88463 0.0
H1133 H 0.44852 0.63304 0.90638 0.0
C1134 C 0.49506 0.6672 0.12486 0.0
C1135 C 0.49075 0.68651 0.10406 0.0
C1136 C 0.4945 0.64968 0.09293 0.0
C1137 C 0.48956 0.65114 0.03974 0.0
C1138 C 0.4849 0.67036 0.0192 0.0
C1139 C 0.48564 0.68794 0.05093 0.0
C1140 C 0.48952 0.63257 0.00535 0.0
C1141 C 0.47326 0.62757 0.9891 0.0
C1142 C 0.50524 0.6194 0.99068 0.0
C1143 C 0.52296 0.62421 0.00502 0.0
C1144 C 0.52993 0.64268 0.98936 0.0
C1145 C 0.54667 0.64705 0.00278 0.0
C1146 C 0.55664 0.633 0.03148 0.0
C1147 C 0.5499 0.61453 0.04676 0.0
C1148 C 0.53315 0.61011 0.03355 0.0
C1149 C 0.48307 0.56293 0.82086 0.0
C1150 C 0.49166 0.54428 0.83454 0.0
C1151 C 0.48159 0.57977 0.8567 0.0
C1152 C 0.48834 0.57822 0.90745 0.0
C1153 C 0.49644 0.55944 0.92194 0.0
C1154 C 0.49812 0.54264 0.8858 0.0
C1155 C 0.48804 0.59649 0.94363 0.0
C1156 C 0.50428 0.60152 0.96018 0.0
C1157 C 0.47225 0.60957 0.95898 0.0
C1158 C 0.45447 0.6045 0.94592 0.0
C1159 C 0.44799 0.58574 0.96116 0.0
C1160 C 0.43127 0.581 0.94847 0.0
C1161 C 0.42084 0.59495 0.92085 0.0
C1162 C 0.4271 0.61369 0.90598 0.0
C1163 C 0.44381 0.6185 0.91854 0.0
H1164 H 0.4079 0.59125 0.91106 0.0
H1165 H 0.56961 0.63639 0.04173 0.0
H1166 H 0.82123 0.43053 0.28058 0.0
H1167 H 0.84704 0.41871 0.21434 0.0
H1168 H 0.81841 0.43906 0.08075 0.0
H1169 H 0.79204 0.44974 0.14658 0.0
H1170 H 0.84141 0.40661 0.04821 0.0
H1171 H 0.84348 0.47089 0.14089 0.0
H1172 H 0.84208 0.49387 0.22175 0.0
H1173 H 0.88681 0.45859 0.27555 0.0
H1174 H 0.88829 0.4352 0.19537 0.0
H1175 H 0.91149 0.44215 0.85862 0.0
H1176 H 0.88469 0.43632 0.92198 0.0
H1177 H 0.91795 0.41379 0.04258 0.0
H1178 H 0.94476 0.42018 0.98027 0.0
H1179 H 0.89343 0.44356 0.08406 0.0
H1180 H 0.89327 0.38194 0.97857 0.0
H1181 H 0.89406 0.3612 0.89377 0.0
H1182 H 0.84543 0.3941 0.85851 0.0
H1183 H 0.84448 0.41524 0.94272 0.0
C1184 C 0.82009 0.43178 0.23709 0.0
C1185 C 0.80465 0.44151 0.21899 0.0
C1186 C 0.83496 0.42517 0.19924 0.0
C1187 C 0.8348 0.42857 0.1428 0.0
C1188 C 0.81888 0.4365 0.1242 0.0
C1189 C 0.8039 0.44284 0.16197 0.0
C1190 C 0.85174 0.42652 0.10436 0.0
C1191 C 0.8528 0.41468 0.05586 0.0
C1192 C 0.86661 0.43701 0.1146 0.0
C1193 C 0.86586 0.45117 0.16252 0.0
C1194 C 0.85294 0.46796 0.17017 0.0
C1195 C 0.85213 0.48106 0.21586 0.0
C1196 C 0.86431 0.47765 0.25386 0.0
C1197 C 0.87736 0.46117 0.24615 0.0
C1198 C 0.87819 0.44799 0.2006 0.0
C1199 C 0.91308 0.43581 0.89849 0.0
C1200 C 0.93023 0.43176 0.9146 0.0
C1201 C 0.89777 0.43225 0.93437 0.0
C1202 C 0.89935 0.42448 0.98682 0.0
C1203 C 0.91646 0.41969 0.00215 0.0
C1204 C 0.93177 0.42325 0.96636 0.0
C1205 C 0.88323 0.42353 0.02785 0.0
C1206 C 0.88224 0.43507 0.07676 0.0
C1207 C 0.8684 0.41305 0.01733 0.0
C1208 C 0.86888 0.40027 0.96682 0.0
C1209 C 0.88281 0.38485 0.95255 0.0
C1210 C 0.88328 0.37301 0.90461 0.0
C1211 C 0.86982 0.37635 0.87072 0.0
C1212 C 0.85585 0.39152 0.88479 0.0
C1213 C 0.85533 0.40342 0.93267 0.0
H1214 H 0.87021 0.36717 0.83362 0.0
H1215 H 0.86367 0.48781 0.2892 0.0
H1216 H 0.03792 0.19929 0.99995 0.0
H1217 H 0.03218 0.16749 0.95584 0.0
H1218 H 0.01343 0.20096 0.82128 0.0
H1219 H 0.01947 0.233 0.8649 0.0
H1220 H 0.99181 0.16533 0.87457 0.0
H1221 H 0.05006 0.18293 0.78739 0.0
H1222 H 0.08048 0.1935 0.79024 0.0
H1223 H 0.09357 0.14088 0.88355 0.0
H1224 H 0.0631 0.13018 0.882 0.0
H1225 H 0.99231 0.07815 0.70101 0.0
H1226 H 0.99568 0.11245 0.73474 0.0
H1227 H 0.03471 0.08786 0.83601 0.0
H1228 H 0.03191 0.05372 0.80088 0.0
H1229 H 0.04548 0.12081 0.79495 0.0
H1230 H 0.98987 0.10215 0.8857 0.0
H1231 H 0.95985 0.08987 0.89127 0.0
H1232 H 0.94127 0.14249 0.80633 0.0
H1233 H 0.97147 0.15473 0.79836 0.0
C1234 C 0.03225 0.19994 0.96147 0.0
C1235 C 0.02905 0.21866 0.93599 0.0
C1236 C 0.02906 0.18176 0.93625 0.0
C1237 C 0.02239 0.18191 0.88538 0.0
C1238 C 0.01853 0.20058 0.86067 0.0
C1239 C 0.02203 0.21881 0.88546 0.0
C1240 C 0.02058 0.16239 0.85687 0.0
C1241 C 0.00347 0.15571 0.85613 0.0
C1242 C 0.03586 0.1496 0.83475 0.0
C1243 C 0.05426 0.15586 0.83501 0.0
C1244 C 0.05937 0.17371 0.80892 0.0
C1245 C 0.07663 0.17971 0.81022 0.0
C1246 C 0.08894 0.1679 0.83717 0.0
C1247 C 0.08402 0.15003 0.86273 0.0
C1248 C 0.06676 0.14398 0.86161 0.0
C1249 C 1.00165 0.08007 0.73035 0.0
C1250 C 0.01177 0.06316 0.74845 0.0
C1251 C 0.00353 0.0997 0.74978 0.0
C1252 C 0.01526 0.10282 0.78871 0.0
C1253 C 0.02558 0.08595 0.80601 0.0
C1254 C 0.02392 0.06638 0.78597 0.0
C1255 C 0.01662 0.1235 0.81228 0.0
C1256 C 0.0337 0.13042 0.81253 0.0
C1257 C 1.00129 0.13627 0.83513 0.0
C1258 C 0.983 0.12924 0.84085 0.0
C1259 C 0.97943 0.11104 0.86781 0.0
C1260 C 0.96236 0.10408 0.87142 0.0
C1261 C 0.94861 0.11541 0.8493 0.0
C1262 C 0.95194 0.13372 0.82342 0.0
C1263 C 0.96905 0.14065 0.81919 0.0
H1264 H 0.93539 0.11001 0.85225 0.0
H1265 H 0.1023 0.17256 0.83815 0.0
H1266 H 0.29584 0.02372 0.89541 0.0
H1267 H 0.32663 0.01827 0.84817 0.0
H1268 H 0.34575 0.00395 0.00292 0.0
H1269 H 0.31513 0.00953 0.05033 0.0
H1270 H 0.36484 0.03239 0.946 0.0
H1271 H 0.34489 0.96698 0.90831 0.0
H1272 H 0.32489 0.94354 0.87403 0.0
H1273 H 0.33556 0.96703 0.71131 0.0
H1274 H 0.35545 0.99082 0.7448 0.0
H1275 H 0.45512 0.99988 0.85076 0.0
H1276 H 0.42391 0.00197 0.8932 0.0
H1277 H 0.40637 0.00711 0.73263 0.0
H1278 H 0.43767 0.00418 0.68972 0.0
H1279 H 0.38599 0.98372 0.79072 0.0
H1280 H 0.40533 0.04918 0.82563 0.0
H1281 H 0.42481 0.07369 0.85781 0.0
H1282 H 0.41454 0.05196 0.02259 0.0
H1283 H 0.39518 0.02712 0.99125 0.0
C1284 C 0.30658 0.01918 0.91925 0.0
C1285 C 0.30296 0.01695 0.97665 0.0
C1286 C 0.32418 0.016 0.89216 0.0
C1287 C 0.33854 0.01065 0.92194 0.0
C1288 C 0.33491 0.00804 0.97902 0.0
C1289 C 0.31734 0.01103 0.006 0.0
C1290 C 0.35744 0.00878 0.89431 0.0
C1291 C 0.36953 0.02155 0.91253 0.0
C1292 C 0.36344 0.99514 0.84941 0.0
C1293 C 0.35151 0.98083 0.8292 0.0
C1294 C 0.34285 0.96728 0.86532 0.0
C1295 C 0.33156 0.9539 0.84601 0.0
C1296 C 0.32891 0.95383 0.79056 0.0
C1297 C 0.3376 0.96711 0.75427 0.0
C1298 C 0.34889 0.98054 0.77338 0.0
C1299 C 0.44464 0.0015 0.8244 0.0
C1300 C 0.44894 0.00201 0.7668 0.0
C1301 C 0.42674 0.00279 0.8488 0.0
C1302 C 0.41264 0.00514 0.81638 0.0
C1303 C 0.41692 0.00538 0.75874 0.0
C1304 C 0.43486 0.00377 0.73421 0.0
C1305 C 0.39351 0.00726 0.84263 0.0
C1306 C 0.38134 0.99459 0.82413 0.0
C1307 C 0.38735 0.02119 0.88693 0.0
C1308 C 0.39893 0.03617 0.90597 0.0
C1309 C 0.40732 0.04954 0.86865 0.0
C1310 C 0.41833 0.0635 0.88675 0.0
C1311 C 0.42095 0.06435 0.94218 0.0
C1312 C 0.41252 0.05127 0.97965 0.0
C1313 C 0.40151 0.03726 0.96175 0.0
H1314 H 0.42947 0.07517 0.95611 0.0
H1315 H 0.32017 0.94346 0.77569 0.0
H1316 H 0.47842 0.29629 0.00519 0.0
H1317 H 0.48509 0.32453 0.94441 0.0
H1318 H 0.4306 0.3508 0.98278 0.0
H1319 H 0.42398 0.3235 0.0462 0.0
H1320 H 0.44916 0.35201 0.86166 0.0
H1321 H 0.45397 0.36945 0.05364 0.0
H1322 H 0.4651 0.36245 0.14252 0.0
H1323 H 0.51943 0.35997 0.06297 0.0
H1324 H 0.50858 0.36659 0.97339 0.0
H1325 H 0.45954 0.4565 0.7953 0.0
H1326 H 0.45057 0.42515 0.84002 0.0
H1327 H 0.50618 0.40476 0.84459 0.0
H1328 H 0.51519 0.43576 0.80051 0.0
H1329 H 0.48662 0.39981 0.94192 0.0
H1330 H 0.48397 0.38393 0.75324 0.0
H1331 H 0.475 0.38897 0.6607 0.0
H1332 H 0.41975 0.38629 0.72693 0.0
H1333 H 0.42835 0.38161 0.82017 0.0
C1334 C 0.46778 0.30798 1.00075 0.0
C1335 C 0.4507 0.3076 0.03159 0.0
C1336 C 0.47159 0.32399 0.96541 0.0
C1337 C 0.45833 0.33972 0.95932 0.0
C1338 C 0.44096 0.33869 0.98664 0.0
C1339 C 0.43721 0.32292 0.02281 0.0
C1340 C 0.46314 0.35842 0.93026 0.0
C1341 C 0.45716 0.36263 0.87931 0.0
C1342 C 0.47394 0.37192 0.95285 0.0
C1343 C 0.48047 0.36828 0.00678 0.0
C1344 C 0.46828 0.36723 0.05504 0.0
C1345 C 0.47454 0.36336 0.10554 0.0
C1346 C 0.49296 0.36071 0.10837 0.0
C1347 C 0.50516 0.36199 0.06071 0.0
C1348 C 0.49897 0.3658 0.01007 0.0
C1349 C 0.46982 0.44536 0.80603 0.0
C1350 C 0.48807 0.44867 0.79436 0.0
C1351 C 0.4647 0.4274 0.83121 0.0
C1352 C 0.47773 0.41256 0.84531 0.0
C1353 C 0.4959 0.41598 0.8341 0.0
C1354 C 0.50101 0.43375 0.80874 0.0
C1355 C 0.4726 0.39364 0.87305 0.0
C1356 C 0.47855 0.38932 0.92401 0.0
C1357 C 0.46204 0.37992 0.84984 0.0
C1358 C 0.45678 0.38271 0.79386 0.0
C1359 C 0.46988 0.38464 0.74821 0.0
C1360 C 0.46487 0.38741 0.69561 0.0
C1361 C 0.44681 0.38806 0.688 0.0
C1362 C 0.43373 0.38585 0.73294 0.0
C1363 C 0.43867 0.38315 0.78569 0.0
H1364 H 0.44296 0.39019 0.64723 0.0
H1365 H 0.49778 0.35772 0.14751 0.0
H1366 H 0.17986 0.48695 0.98804 0.0
H1367 H 0.1512 0.49166 0.95181 0.0
H1368 H 0.17876 0.50387 0.79159 0.0
H1369 H 0.2075 0.5003 0.82864 0.0
H1370 H 0.14809 0.52824 0.81242 0.0
H1371 H 0.16423 0.45618 0.8236 0.0
H1372 H 0.17348 0.42512 0.87142 0.0
H1373 H 0.12569 0.43404 0.9881 0.0
H1374 H 0.11626 0.46528 0.94128 0.0
H1375 H 0.07405 0.51163 0.6669 0.0
H1376 H 0.10354 0.51003 0.69928 0.0
H1377 H 0.0796 0.49375 0.86072 0.0
H1378 H 0.05037 0.49471 0.82835 0.0
H1379 H 0.10918 0.47128 0.83605 0.0
H1380 H 0.09281 0.54293 0.82859 0.0
H1381 H 0.08333 0.57491 0.78527 0.0
H1382 H 0.13076 0.56793 0.66679 0.0
H1383 H 0.14042 0.53575 0.70899 0.0
C1384 C 0.17982 0.49127 0.94553 0.0
C1385 C 0.19603 0.49345 0.91152 0.0
C1386 C 0.1634 0.49361 0.92453 0.0
C1387 C 0.16275 0.49776 0.86857 0.0
C1388 C 0.17885 0.50057 0.83481 0.0
C1389 C 0.19531 0.49839 0.85598 0.0
C1390 C 0.14539 0.49836 0.84505 0.0
C1391 C 0.1397 0.51567 0.81691 0.0
C1392 C 0.13416 0.48218 0.85179 0.0
C1393 C 0.13959 0.46312 0.87912 0.0
C1394 C 0.15572 0.45154 0.85954 0.0
C1395 C 0.161 0.43391 0.88647 0.0
C1396 C 0.15019 0.42763 0.93282 0.0
C1397 C 0.13405 0.43892 0.95219 0.0
C1398 C 0.12871 0.45657 0.92542 0.0
C1399 C 0.07508 0.50768 0.70926 0.0
C1400 C 0.05978 0.50326 0.74488 0.0
C1401 C 0.09196 0.50688 0.7279 0.0
C1402 C 0.09388 0.50199 0.78282 0.0
C1403 C 0.0786 0.4975 0.81819 0.0
C1404 C 0.06182 0.49809 0.79952 0.0
C1405 C 0.11172 0.50127 0.8037 0.0
C1406 C 0.11754 0.48388 0.83131 0.0
C1407 C 0.12296 0.51746 0.79687 0.0
C1408 C 0.11724 0.53683 0.77158 0.0
C1409 C 0.10115 0.54814 0.79304 0.0
C1410 C 0.09576 0.56631 0.76874 0.0
C1411 C 0.10641 0.57341 0.72321 0.0
C1412 C 0.12251 0.56239 0.702 0.0
C1413 C 0.12796 0.54419 0.72611 0.0
H1414 H 0.10221 0.58748 0.70444 0.0
H1415 H 0.15432 0.41399 0.95367 0.0
H1416 H 0.98002 0.79168 0.44048 0.0
H1417 H 0.97824 0.82664 0.4749 0.0
H1418 H 0.99633 0.80573 0.62621 0.0
H1419 H 0.99726 0.7705 0.59322 0.0
H1420 H 0.97211 0.83779 0.64663 0.0
H1421 H 0.02567 0.82186 0.51987 0.0
H1422 H 0.04312 0.80959 0.43179 0.0
H1423 H 0.01582 0.85659 0.34619 0.0
H1424 H 0.99799 0.86894 0.4337 0.0
H1425 H 0.0056 0.92968 0.7262 0.0
H1426 H 1.00232 0.8947 0.69861 0.0
H1427 H 0.98454 0.91571 0.54689 0.0
H1428 H 0.98815 0.95075 0.57365 0.0
H1429 H 0.00815 0.88359 0.52732 0.0
H1430 H 0.95491 0.89984 0.65644 0.0
H1431 H 0.93805 0.91185 0.74563 0.0
H1432 H 0.96572 0.86424 0.82812 0.0
H1433 H 0.98293 0.85209 0.73939 0.0
C1434 C 0.98309 0.79437 0.4818 0.0
C1435 C 0.98893 0.77815 0.51384 0.0
C1436 C 0.98231 0.81447 0.50114 0.0
C1437 C 0.9876 0.81889 0.55259 0.0
C1438 C 0.99236 0.80273 0.58613 0.0
C1439 C 0.99301 0.78258 0.567 0.0
C1440 C 0.98919 0.8403 0.56984 0.0
C1441 C 0.98013 0.84774 0.62079 0.0
C1442 C 0.99948 0.85343 0.53587 0.0
C1443 C 0.01036 0.8462 0.48328 0.0
C1444 C 0.0233 0.8295 0.48222 0.0
C1445 C 0.03327 0.82253 0.4324 0.0
C1446 C 0.03055 0.83227 0.3834 0.0
C1447 C 0.01789 0.84904 0.38417 0.0
C1448 C 0.00786 0.85604 0.43387 0.0
C1449 C 1.00092 0.92692 0.68702 0.0
C1450 C 0.9971 0.9431 0.65221 0.0
C1451 C 0.99897 0.90686 0.6714 0.0
C1452 C 0.99294 0.90253 0.62095 0.0
C1453 C 0.98918 0.91864 0.58605 0.0
C1454 C 0.99122 0.9387 0.6015 0.0
C1455 C 0.99095 0.88119 0.60393 0.0
C1456 C 1.00003 0.8737 0.55306 0.0
C1457 C 0.98078 0.86802 0.63813 0.0
C1458 C 0.9703 0.87515 0.69136 0.0
C1459 C 0.95747 0.892 0.69364 0.0
C1460 C 0.94785 0.89882 0.74409 0.0
C1461 C 0.95084 0.88883 0.79251 0.0
C1462 C 0.96343 0.87196 0.79057 0.0
C1463 C 0.97311 0.86509 0.74022 0.0
H1464 H 0.94338 0.89414 0.83153 0.0
H1465 H 0.03827 0.82685 0.34487 0.0
H1466 H 0.70333 0.96286 0.40257 0.0
H1467 H 0.67302 0.95917 0.44891 0.0
H1468 H 0.66937 0.02105 0.51032 0.0
H1469 H 0.69948 0.02485 0.46443 0.0
H1470 H 0.65503 0.99755 0.58829 0.0
H1471 H 0.6502 0.00752 0.39524 0.0
H1472 H 0.65714 0.99949 0.29569 0.0
H1473 H 0.63824 0.94039 0.32172 0.0
H1474 H 0.63141 0.94799 0.42157 0.0
H1475 H 0.56185 0.02288 0.64706 0.0
H1476 H 0.5934 0.02044 0.60855 0.0
H1477 H 0.59006 0.95855 0.55541 0.0
H1478 H 0.55822 0.96099 0.59306 0.0
H1479 H 0.60846 0.97848 0.47645 0.0
H1480 H 0.61083 0.96964 0.66891 0.0
H1481 H 0.6036 0.9779 0.76825 0.0
H1482 H 0.62681 0.03477 0.74415 0.0
H1483 H 0.63401 0.02697 0.64447 0.0
C1484 C 0.69611 0.97565 0.42616 0.0
C1485 C 0.70395 0.99413 0.42978 0.0
C1486 C 0.67875 0.97353 0.45263 0.0
C1487 C 0.66876 0.98992 0.48271 0.0
C1488 C 0.67677 0.00815 0.48765 0.0
C1489 C 0.69409 0.01025 0.46149 0.0
C1490 C 0.64977 0.98851 0.50752 0.0
C1491 C 0.64483 0.99351 0.56372 0.0
C1492 C 0.63647 0.98277 0.47595 0.0
C1493 C 0.64048 0.97824 0.41592 0.0
C1494 C 0.64764 0.99276 0.37977 0.0
C1495 C 0.65154 0.98829 0.3233 0.0
C1496 C 0.64818 0.96942 0.30242 0.0
C1497 C 0.64087 0.95499 0.33796 0.0
C1498 C 0.63697 0.95937 0.39449 0.0
C1499 C 0.56776 0.0087 0.62728 0.0
C1500 C 0.55744 0.9921 0.62341 0.0
C1501 C 0.5859 0.0073 0.60549 0.0
C1502 C 0.59427 0.98919 0.57985 0.0
C1503 C 0.58396 0.97266 0.57522 0.0
C1504 C 0.56574 0.97407 0.59684 0.0
C1505 C 0.61367 0.98777 0.55705 0.0
C1506 C 0.61868 0.98228 0.50123 0.0
C1507 C 0.62703 0.99306 0.58901 0.0
C1508 C 0.62286 0.99776 0.64907 0.0
C1509 C 0.6143 0.98397 0.6847 0.0
C1510 C 0.61023 0.98856 0.74109 0.0
C1511 C 0.61473 0.00685 0.76248 0.0
C1512 C 0.62334 0.02059 0.72751 0.0
C1513 C 0.62745 0.01608 0.67107 0.0
H1514 H 0.61158 0.01035 0.80615 0.0
H1515 H 0.6512 0.96599 0.25869 0.0
H1516 H 0.54735 0.70245 0.44351 0.0
H1517 H 0.54875 0.67001 0.49133 0.0
H1518 H 0.53732 0.63908 0.34551 0.0
H1519 H 0.53567 0.67128 0.2979 0.0
H1520 H 0.5138 0.63235 0.43815 0.0
H1521 H 0.57756 0.63056 0.38567 0.0
H1522 H 0.60728 0.64387 0.37906 0.0
H1523 H 0.60332 0.64708 0.55558 0.0
H1524 H 0.57344 0.63406 0.56326 0.0
H1525 H 0.51618 0.53309 0.53508 0.0
H1526 H 0.52383 0.56243 0.47982 0.0
H1527 H 0.54201 0.59047 0.62013 0.0
H1528 H 0.53504 0.56076 0.67506 0.0
H1529 H 0.56296 0.59868 0.52989 0.0
H1530 H 0.49944 0.60273 0.58464 0.0
H1531 H 0.46935 0.59023 0.59495 0.0
H1532 H 0.47201 0.58465 0.41907 0.0
H1533 H 0.50225 0.59684 0.40774 0.0
C1534 C 0.54547 0.68867 0.42139 0.0
C1535 C 0.54141 0.68947 0.3669 0.0
C1536 C 0.54635 0.67015 0.44864 0.0
C1537 C 0.54311 0.65216 0.42192 0.0
C1538 C 0.53988 0.65279 0.36681 0.0
C1539 C 0.53912 0.67121 0.33949 0.0
C1540 C 0.54127 0.63309 0.45276 0.0
C1541 C 0.52465 0.6248 0.45745 0.0
C1542 C 0.55522 0.62369 0.47956 0.0
C1543 C 0.57318 0.63152 0.47503 0.0
C1544 C 0.58295 0.63428 0.42309 0.0
C1545 C 0.59984 0.64173 0.41914 0.0
C1546 C 0.60716 0.64637 0.46687 0.0
C1547 C 0.59762 0.64351 0.51864 0.0
C1548 C 0.58071 0.63607 0.52281 0.0
C1549 C 0.52197 0.54542 0.55403 0.0
C1550 C 0.52482 0.54472 0.60958 0.0
C1551 C 0.52629 0.56221 0.52244 0.0
C1552 C 0.53311 0.57889 0.54615 0.0
C1553 C 0.53671 0.57784 0.60097 0.0
C1554 C 0.53267 0.56086 0.63236 0.0
C1555 C 0.53553 0.59782 0.51474 0.0
C1556 C 0.55216 0.60617 0.5103 0.0
C1557 C 0.52149 0.60752 0.48872 0.0
C1558 C 0.50318 0.60052 0.49537 0.0
C1559 C 0.49365 0.59873 0.54818 0.0
C1560 C 0.47656 0.5917 0.55421 0.0
C1561 C 0.46879 0.5866 0.5077 0.0
C1562 C 0.47806 0.58859 0.45506 0.0
C1563 C 0.49517 0.59557 0.4488 0.0
H1564 H 0.45557 0.58113 0.51246 0.0
H1565 H 0.62025 0.65213 0.46373 0.0
H1566 H 0.81632 0.49322 0.54228 0.0
H1567 H 0.84479 0.49512 0.57802 0.0
H1568 H 0.85493 0.54788 0.4804 0.0
H1569 H 0.82635 0.54588 0.44369 0.0
H1570 H 0.88453 0.5232 0.47428 0.0
H1571 H 0.84215 0.55127 0.62355 0.0
H1572 H 0.81512 0.55271 0.69238 0.0
H1573 H 0.83566 0.49811 0.76474 0.0
H1574 H 0.86271 0.49618 0.69586 0.0
H1575 H 0.95839 0.54548 0.61464 0.0
H1576 H 0.92906 0.5482 0.58131 0.0
H1577 H 0.91718 0.49146 0.65713 0.0
H1578 H 0.94646 0.48857 0.69043 0.0
H1579 H 0.8884 0.52089 0.67495 0.0
H1580 H 0.92997 0.49213 0.52237 0.0
H1581 H 0.95713 0.49098 0.45416 0.0
H1582 H 0.93809 0.5477 0.38904 0.0
H1583 H 0.91091 0.54933 0.45745 0.0
C1584 C 0.82442 0.50546 0.52898 0.0
C1585 C 0.81885 0.51958 0.49061 0.0
C1586 C 0.84078 0.50651 0.54948 0.0
C1587 C 0.85197 0.52188 0.53287 0.0
C1588 C 0.84655 0.53592 0.49414 0.0
C1589 C 0.83019 0.53477 0.47317 0.0
C1590 C 0.86942 0.5229 0.55522 0.0
C1591 C 0.88529 0.52308 0.51822 0.0
C1592 C 0.87061 0.52234 0.61257 0.0
C1593 C 0.8544 0.5235 0.65424 0.0
C1594 C 0.84085 0.5395 0.6539 0.0
C1595 C 0.82553 0.54041 0.69297 0.0
C1596 C 0.82366 0.52549 0.73283 0.0
C1597 C 0.83712 0.50965 0.73381 0.0
C1598 C 0.85246 0.50865 0.69481 0.0
C1599 C 0.9495 0.53365 0.62463 0.0
C1600 C 0.95485 0.51678 0.65515 0.0
C1601 C 0.93275 0.53518 0.60526 0.0
C1602 C 0.92095 0.51995 0.61627 0.0
C1603 C 0.92605 0.50339 0.64802 0.0
C1604 C 0.94284 0.50174 0.66691 0.0
C1605 C 0.90341 0.52103 0.59403 0.0
C1606 C 0.88755 0.52121 0.63106 0.0
C1607 C 0.90223 0.52199 0.53682 0.0
C1608 C 0.9185 0.52096 0.49542 0.0
C1609 C 0.93164 0.50444 0.4938 0.0
C1610 C 0.94703 0.50368 0.45506 0.0
C1611 C 0.94936 0.51929 0.4174 0.0
C1612 C 0.93628 0.53564 0.4183 0.0
C1613 C 0.92087 0.53648 0.45703 0.0
H1614 H 0.96128 0.51868 0.38743 0.0
H1615 H 0.81179 0.52623 0.76304 0.0
loop_
_geom_bond_atom_site_label_1
_geom_bond_atom_site_label_2
_geom_bond_distance
_geom_bond_site_symmetry_2
_ccdc_geom_bond_type
P0 O11 1.490 . S
P0 C14 1.812 . S
P0 C20 1.803 . S
P0 C26 1.819 . S
H1 C15 0.941 . S
H2 C16 0.939 . S
H3 C18 0.940 . S
H4 C19 0.940 . S
H5 C21 0.939 . S
H6 C22 0.942 . S
H7 C24 0.940 . S
H8 C25 0.939 . S
H9 C27 0.941 . S
H10 C31 0.939 . S
O11 P0 1.490 . S
H12 C28 0.939 . S
H13 C30 0.940 . S
C14 P0 1.812 . S
C14 C15 1.389 . S
C14 C19 1.391 . S
C15 H1 0.941 . S
C15 C14 1.389 . S
C15 C16 1.397 . S
C16 H2 0.939 . S
C16 C15 1.397 . S
C16 C17 1.378 . S
C17 C16 1.378 . S
C17 C18 1.378 . S
C18 H3 0.940 . S
C18 C17 1.378 . S
C18 C19 1.396 . S
C19 H4 0.940 . S
C19 C14 1.391 . S
C19 C18 1.396 . S
C20 P0 1.803 . S
C20 C21 1.378 . S
C20 C25 1.400 . S
C21 H5 0.939 . S
C21 C20 1.378 . S
C21 C22 1.361 . S
C22 H6 0.942 . S
C22 C21 1.361 . S
C22 C23 1.369 . S
C23 C22 1.369 . S
C23 C24 1.404 . S
C24 H7 0.940 . S
C24 C23 1.404 . S
C24 C25 1.389 . S
C25 H8 0.939 . S
C25 C20 1.400 . S
C25 C24 1.389 . S
C26 P0 1.819 . S
C26 C27 1.391 . S
C26 C31 1.391 . S
C27 H9 0.941 . S
C27 C26 1.391 . S
C27 C28 1.396 . S
C28 H12 0.939 . S
C28 C27 1.396 . S
C28 C29 1.397 . S
C29 C28 1.397 . S
C29 C30 1.385 . S
C30 H13 0.940 . S
C30 C29 1.385 . S
C30 C31 1.388 . S
C31 H10 0.939 . S
C31 C26 1.391 . S
C31 C30 1.388 . S
P32 O43 1.490 . S
P32 C46 1.812 . S
P32 C52 1.803 . S
P32 C58 1.819 . S
H33 C47 0.941 . S
H34 C48 0.939 . S
H35 C50 0.940 . S
H36 C51 0.940 . S
H37 C53 0.939 . S
H38 C54 0.942 . S
H39 C56 0.940 . S
H40 C57 0.939 . S
H41 C59 0.941 . S
H42 C63 0.939 . S
O43 P32 1.490 . S
H44 C60 0.939 . S
H45 C62 0.940 . S
C46 P32 1.812 . S
C46 C47 1.389 . S
C46 C51 1.391 1_455 S
C47 H33 0.941 . S
C47 C46 1.389 . S
C47 C48 1.397 . S
C48 H34 0.939 . S
C48 C47 1.397 . S
C48 C49 1.378 1_455 S
C49 C48 1.378 1_655 S
C49 C50 1.378 . S
C50 H35 0.940 . S
C50 C49 1.378 . S
C50 C51 1.396 . S
C51 H36 0.940 . S
C51 C46 1.391 1_655 S
C51 C50 1.396 . S
C52 P32 1.803 . S
C52 C53 1.378 . S
C52 C57 1.400 1_455 S
C53 H37 0.939 . S
C53 C52 1.378 . S
C53 C54 1.361 . S
C54 H38 0.942 . S
C54 C53 1.361 . S
C54 C55 1.369 1_455 S
C55 C54 1.369 1_655 S
C55 C56 1.404 . S
C56 H39 0.940 . S
C56 C55 1.404 . S
C56 C57 1.389 . S
C57 H40 0.939 . S
C57 C52 1.400 1_655 S
C57 C56 1.389 . S
C58 P32 1.819 . S
C58 C59 1.391 . S
C58 C63 1.391 1_455 S
C59 H41 0.941 . S
C59 C58 1.391 . S
C59 C60 1.396 . S
C60 H44 0.939 . S
C60 C59 1.396 . S
C60 C61 1.397 1_455 S
C61 C60 1.397 1_655 S
C61 C62 1.385 . S
C62 H45 0.940 . S
C62 C61 1.385 . S
C62 C63 1.388 . S
C63 H42 0.939 . S
C63 C58 1.391 1_655 S
C63 C62 1.388 . S
P64 O75 1.490 . S
P64 C78 1.812 . S
P64 C84 1.803 . S
P64 C90 1.819 . S
H65 C79 0.941 . S
H66 C80 0.939 . S
H67 C82 0.940 . S
H68 C83 0.950 . S
H69 C85 0.939 . S
H70 C86 0.942 . S
H71 C88 0.940 . S
H72 C89 0.961 . S
H73 C91 0.941 . S
H74 C95 0.932 1_565 S
O75 P64 1.490 . S
H76 C92 0.939 . S
H77 C94 0.940 . S
C78 P64 1.812 . S
C78 C79 1.389 . S
C78 C83 1.374 1_545 S
C79 H65 0.941 . S
C79 C78 1.389 . S
C79 C80 1.397 . S
C80 H66 0.939 . S
C80 C79 1.397 . S
C80 C81 1.378 . S
C81 C80 1.378 . S
C81 C82 1.378 1_545 S
C82 H67 0.940 . S
C82 C81 1.378 1_565 S
C82 C83 1.403 . S
C83 H68 0.950 . S
C83 C78 1.374 1_565 S
C83 C82 1.403 . S
C84 P64 1.803 . S
C84 C85 1.378 . S
C84 C89 1.369 1_545 S
C85 H69 0.939 . S
C85 C84 1.378 . S
C85 C86 1.361 . S
C86 H70 0.942 . S
C86 C85 1.361 . S
C86 C87 1.369 . S
C87 C86 1.369 . S
C87 C88 1.404 1_545 S
C88 H71 0.940 . S
C88 C87 1.404 1_565 S
C88 C89 1.399 . S
C89 H72 0.961 . S
C89 C84 1.369 1_565 S
C89 C88 1.399 . S
C90 P64 1.819 . S
C90 C91 1.391 . S
C90 C95 1.391 . S
C91 H73 0.941 . S
C91 C90 1.391 . S
C91 C92 1.396 . S
C92 H76 0.939 . S
C92 C91 1.396 . S
C92 C93 1.397 . S
C93 C92 1.397 . S
C93 C94 1.385 1_545 S
C94 H77 0.940 . S
C94 C93 1.385 1_565 S
C94 C95 1.388 1_565 S
C95 H74 0.932 1_545 S
C95 C90 1.391 . S
C95 C94 1.388 1_545 S
P96 O107 1.490 . S
P96 C110 1.812 . S
P96 C116 1.803 . S
P96 C122 1.819 . S
H97 C111 0.941 . S
H98 C112 0.939 . S
H99 C114 0.940 . S
H100 C115 0.940 . S
H101 C117 0.939 . S
H102 C118 0.942 . S
H103 C120 0.940 . S
H104 C121 0.939 . S
H105 C123 0.941 . S
H106 C127 0.939 . S
O107 P96 1.490 . S
H108 C124 0.940 . S
H109 C126 0.940 . S
C110 P96 1.812 . S
C110 C111 1.389 . S
C110 C115 1.391 . S
C111 H97 0.941 . S
C111 C110 1.389 . S
C111 C112 1.397 . S
C112 H98 0.939 . S
C112 C111 1.397 . S
C112 C113 1.378 . S
C113 C112 1.378 . S
C113 C114 1.378 . S
C114 H99 0.940 . S
C114 C113 1.378 . S
C114 C115 1.396 . S
C115 H100 0.940 . S
C115 C110 1.391 . S
C115 C114 1.396 . S
C116 P96 1.803 . S
C116 C117 1.378 . S
C116 C121 1.400 . S
C117 H101 0.939 . S
C117 C116 1.378 . S
C117 C118 1.361 . S
C118 H102 0.942 . S
C118 C117 1.361 . S
C118 C119 1.369 . S
C119 C118 1.369 . S
C119 C120 1.404 . S
C120 H103 0.940 . S
C120 C119 1.404 . S
C120 C121 1.389 . S
C121 H104 0.939 . S
C121 C116 1.400 . S
C121 C120 1.389 . S
C122 P96 1.819 . S
C122 C123 1.391 . S
C122 C127 1.391 1_554 S
C123 H105 0.941 . S
C123 C122 1.391 . S
C123 C124 1.396 1_554 S
C124 H108 0.940 . S
C124 C123 1.396 1_556 S
C124 C125 1.397 . S
C125 C124 1.397 . S
C125 C126 1.385 . S
C126 H109 0.940 . S
C126 C125 1.385 . S
C126 C127 1.388 . S
C127 H106 0.939 . S
C127 C122 1.391 1_556 S
C127 C126 1.388 . S
P128 O139 1.490 . S
P128 C142 1.812 . S
P128 C148 1.803 1_556 S
P128 C154 1.819 1_556 S
H129 C143 0.941 . S
H130 C144 0.939 . S
H131 C146 0.940 . S
H132 C147 0.940 . S
H133 C149 0.939 . S
H134 C150 0.942 . S
H135 C152 0.940 1_556 S
H136 C153 0.939 . S
H137 C155 0.941 . S
H138 C159 0.939 . S
O139 P128 1.490 . S
H140 C156 0.939 . S
H141 C158 0.940 . S
C142 P128 1.812 . S
C142 C143 1.389 . S
C142 C147 1.391 . S
C143 H129 0.941 . S
C143 C142 1.389 . S
C143 C144 1.397 . S
C144 H130 0.939 . S
C144 C143 1.397 . S
C144 C145 1.378 . S
C145 C144 1.378 . S
C145 C146 1.378 . S
C146 H131 0.940 . S
C146 C145 1.378 . S
C146 C147 1.396 . S
C147 H132 0.940 . S
C147 C142 1.391 . S
C147 C146 1.396 . S
C148 P128 1.803 1_554 S
C148 C149 1.378 . S
C148 C153 1.400 1_554 S
C149 H133 0.939 . S
C149 C148 1.378 . S
C149 C150 1.361 . S
C150 H134 0.942 . S
C150 C149 1.361 . S
C150 C151 1.369 . S
C151 C150 1.369 . S
C151 C152 1.404 . S
C152 H135 0.940 1_554 S
C152 C151 1.404 . S
C152 C153 1.389 1_554 S
C153 H136 0.939 . S
C153 C148 1.400 1_556 S
C153 C152 1.389 1_556 S
C154 P128 1.819 1_554 S
C154 C155 1.391 . S
C154 C159 1.391 . S
C155 H137 0.941 . S
C155 C154 1.391 . S
C155 C156 1.396 . S
C156 H140 0.939 . S
C156 C155 1.396 . S
C156 C157 1.397 . S
C157 C156 1.397 . S
C157 C158 1.385 . S
C158 H141 0.940 . S
C158 C157 1.385 . S
C158 C159 1.388 . S
C159 H138 0.939 . S
C159 C154 1.391 . S
C159 C158 1.388 . S
P160 O171 1.490 . S
P160 C174 1.812 . S
P160 C180 1.803 . S
P160 C186 1.819 . S
H161 C175 0.941 . S
H162 C176 0.939 . S
H163 C178 0.940 . S
H164 C179 0.940 . S
H165 C181 0.939 . S
H166 C182 0.942 . S
H167 C184 0.940 . S
H168 C185 0.939 . S
H169 C187 0.941 . S
H170 C191 0.939 . S
O171 P160 1.490 . S
H172 C188 0.939 . S
H173 C190 0.940 . S
C174 P160 1.812 . S
C174 C175 1.389 1_554 S
C174 C179 1.391 . S
C175 H161 0.941 . S
C175 C174 1.389 1_556 S
C175 C176 1.397 . S
C176 H162 0.939 . S
C176 C175 1.397 . S
C176 C177 1.378 . S
C177 C176 1.378 . S
C177 C178 1.378 . S
C178 H163 0.940 . S
C178 C177 1.378 . S
C178 C179 1.396 1_556 S
C179 H164 0.940 . S
C179 C174 1.391 . S
C179 C178 1.396 1_554 S
C180 P160 1.803 . S
C180 C181 1.378 . S
C180 C185 1.400 . S
C181 H165 0.939 . S
C181 C180 1.378 . S
C181 C182 1.361 . S
C182 H166 0.942 . S
C182 C181 1.361 . S
C182 C183 1.369 . S
C183 C182 1.369 . S
C183 C184 1.404 . S
C184 H167 0.940 . S
C184 C183 1.404 . S
C184 C185 1.389 . S
C185 H168 0.939 . S
C185 C180 1.400 . S
C185 C184 1.389 . S
C186 P160 1.819 . S
C186 C187 1.391 . S
C186 C191 1.391 . S
C187 H169 0.941 . S
C187 C186 1.391 . S
C187 C188 1.396 . S
C188 H172 0.939 . S
C188 C187 1.396 . S
C188 C189 1.397 . S
C189 C188 1.397 . S
C189 C190 1.385 . S
C190 H173 0.940 . S
C190 C189 1.385 . S
C190 C191 1.388 . S
C191 H170 0.939 . S
C191 C186 1.391 . S
C191 C190 1.388 . S
P192 O203 1.490 . S
P192 C206 1.812 . S
P192 C212 1.803 . S
P192 C218 1.819 . S
H193 C207 0.941 . S
H194 C208 0.939 1_556 S
H195 C210 0.940 . S
H196 C211 0.943 . S
H197 C213 0.939 . S
H198 C214 0.942 . S
H199 C216 0.940 . S
H200 C217 0.950 . S
H201 C219 0.941 . S
H202 C223 0.932 1_565 S
O203 P192 1.490 . S
H204 C220 0.939 . S
H205 C222 0.940 . S
C206 P192 1.812 . S
C206 C207 1.389 . S
C206 C211 1.387 1_545 S
C207 H193 0.941 . S
C207 C206 1.389 . S
C207 C208 1.397 . S
C208 H194 0.939 1_554 S
C208 C207 1.397 . S
C208 C209 1.378 . S
C209 C208 1.378 . S
C209 C210 1.378 1_545 S
C210 H195 0.940 . S
C210 C209 1.378 1_565 S
C210 C211 1.398 . S
C211 H196 0.943 . S
C211 C206 1.387 1_565 S
C211 C210 1.398 . S
C212 P192 1.803 . S
C212 C213 1.378 . S
C212 C217 1.380 1_545 S
C213 H197 0.939 . S
C213 C212 1.378 . S
C213 C214 1.361 . S
C214 H198 0.942 . S
C214 C213 1.361 . S
C214 C215 1.369 . S
C215 C214 1.369 . S
C215 C216 1.404 1_545 S
C216 H199 0.940 . S
C216 C215 1.404 1_565 S
C216 C217 1.399 . S
C217 H200 0.950 . S
C217 C212 1.380 1_565 S
C217 C216 1.399 . S
C218 P192 1.819 . S
C218 C219 1.391 . S
C218 C223 1.391 . S
C219 H201 0.941 . S
C219 C218 1.391 . S
C219 C220 1.396 . S
C220 H204 0.939 . S
C220 C219 1.396 . S
C220 C221 1.397 . S
C221 C220 1.397 . S
C221 C222 1.385 1_545 S
C222 H205 0.940 . S
C222 C221 1.385 1_565 S
C222 C223 1.388 1_565 S
C223 H202 0.932 1_545 S
C223 C218 1.391 . S
C223 C222 1.388 1_545 S
P224 O235 1.490 . S
P224 C238 1.812 . S
P224 C244 1.803 . S
P224 C250 1.819 . S
H225 C239 0.941 . S
H226 C240 0.939 . S
H227 C242 0.940 . S
H228 C243 0.940 . S
H229 C245 0.939 . S
H230 C246 0.942 . S
H231 C248 0.940 . S
H232 C249 0.939 . S
H233 C251 0.941 . S
H234 C255 0.939 . S
O235 P224 1.490 . S
H236 C252 0.939 . S
H237 C254 0.940 . S
C238 P224 1.812 . S
C238 C239 1.389 . S
C238 C243 1.391 . S
C239 H225 0.941 . S
C239 C238 1.389 . S
C239 C240 1.397 . S
C240 H226 0.939 . S
C240 C239 1.397 . S
C240 C241 1.378 . S
C241 C240 1.378 . S
C241 C242 1.378 . S
C242 H227 0.940 . S
C242 C241 1.378 . S
C242 C243 1.396 . S
C243 H228 0.940 . S
C243 C238 1.391 . S
C243 C242 1.396 . S
C244 P224 1.803 . S
C244 C245 1.378 . S
C244 C249 1.400 . S
C245 H229 0.939 . S
C245 C244 1.378 . S
C245 C246 1.361 . S
C246 H230 0.942 . S
C246 C245 1.361 . S
C246 C247 1.369 . S
C247 C246 1.369 . S
C247 C248 1.404 . S
C248 H231 0.940 . S
C248 C247 1.404 . S
C248 C249 1.389 . S
C249 H232 0.939 . S
C249 C244 1.400 . S
C249 C248 1.389 . S
C250 P224 1.819 . S
C250 C251 1.391 . S
C250 C255 1.391 . S
C251 H233 0.941 . S
C251 C250 1.391 . S
C251 C252 1.396 . S
C252 H236 0.939 . S
C252 C251 1.396 . S
C252 C253 1.397 . S
C253 C252 1.397 . S
C253 C254 1.385 . S
C254 H237 0.940 . S
C254 C253 1.385 . S
C254 C255 1.388 . S
C255 H234 0.939 . S
C255 C250 1.391 . S
C255 C254 1.388 . S
Dy256 O259 2.307 1_545 S
Dy256 O261 2.395 1_655 S
Dy256 O262 2.379 . S
Dy256 O264 2.339 . S
Dy256 O266 2.301 . S
Dy256 O270 2.275 1_655 S
Dy256 C278 2.738 . S
Dy257 O260 2.298 . S
Dy257 O263 2.275 1_455 S
Dy257 O265 2.307 1_565 S
Dy257 O267 2.402 . S
Dy257 O268 2.379 . S
Dy257 O271 2.339 . S
Dy257 C287 2.738 . S
C258 O270 1.254 1_565 S
C258 O271 1.257 . S
O259 Dy256 2.307 1_565 S
O259 C269 1.266 . S
O260 Dy257 2.298 . S
O260 C269 1.236 1_455 S
O261 Dy256 2.395 1_455 S
O261 C278 1.255 1_455 S
O262 Dy256 2.379 . S
O262 C278 1.249 . S
O263 Dy257 2.275 1_655 S
O263 C279 1.254 1_565 S
O264 Dy256 2.339 . S
O264 C279 1.257 . S
O265 Dy257 2.307 1_545 S
O265 C280 1.266 . S
O266 Dy256 2.301 . S
O266 C280 1.229 1_655 S
O267 Dy257 2.402 . S
O267 C287 1.269 . S
O268 Dy257 2.379 . S
O268 C287 1.249 . S
C269 O259 1.266 . S
C269 O260 1.236 1_655 S
O270 Dy256 2.275 1_455 S
O270 C258 1.254 1_545 S
O271 Dy257 2.339 . S
O271 C258 1.257 . S
C272 C275 1.344 1_655 S
C272 C276 1.328 . S
C272 C278 1.516 . S
C273 C274 1.304 1_655 S
C273 C277 1.323 . S
C274 C273 1.304 1_455 S
C274 C275 1.371 . S
C274 H288 0.930 . S
C275 C272 1.344 1_455 S
C275 C274 1.371 . S
C275 H289 0.931 . S
C276 C272 1.328 . S
C276 C277 1.433 . S
C276 H290 0.931 . S
C277 C273 1.323 . S
C277 C276 1.433 . S
C277 H291 0.933 . S
C278 Dy256 2.738 . S
C278 O261 1.255 1_655 S
C278 O262 1.249 . S
C278 C272 1.516 . S
C279 O263 1.254 1_545 S
C279 O264 1.257 . S
C280 O265 1.266 . S
C280 O266 1.229 1_455 S
C281 C284 1.348 1_455 S
C281 C285 1.328 . S
C281 C287 1.516 . S
C282 C283 1.317 . S
C282 C286 1.323 . S
C283 C282 1.317 . S
C283 C284 1.371 1_455 S
C283 H292 0.917 1_455 S
C284 C281 1.348 1_655 S
C284 C283 1.371 1_655 S
C284 H293 0.928 . S
C285 C281 1.328 . S
C285 C286 1.433 . S
C285 H294 0.931 . S
C286 C282 1.323 . S
C286 C285 1.433 . S
C286 H295 0.933 . S
C287 Dy257 2.738 . S
C287 O267 1.269 . S
C287 O268 1.249 . S
C287 C281 1.516 . S
H288 C274 0.930 . S
H289 C275 0.931 . S
H290 C276 0.931 . S
H291 C277 0.933 . S
H292 C283 0.917 1_655 S
H293 C284 0.928 . S
H294 C285 0.931 . S
H295 C286 0.933 . S
Dy296 O299 2.307 . S
Dy296 O301 2.395 1_565 S
Dy296 O302 2.379 . S
Dy296 O304 2.339 . S
Dy296 O306 2.298 . S
Dy296 O310 2.275 1_565 S
Dy296 C318 2.738 . S
Dy297 O300 2.298 . S
Dy297 O303 2.275 1_545 S
Dy297 O305 2.307 . S
Dy297 O307 2.395 1_545 S
Dy297 O308 2.379 . S
Dy297 O311 2.339 . S
Dy297 C327 2.738 . S
C298 O310 1.254 . S
C298 O311 1.257 . S
O299 Dy296 2.307 . S
O299 C309 1.266 . S
O300 Dy297 2.298 . S
O300 C309 1.236 1_545 S
O301 Dy296 2.395 1_545 S
O301 C318 1.255 1_545 S
O302 Dy296 2.379 . S
O302 C318 1.249 . S
O303 Dy297 2.275 1_565 S
O303 C319 1.254 . S
O304 Dy296 2.339 . S
O304 C319 1.257 . S
O305 Dy297 2.307 . S
O305 C320 1.266 . S
O306 Dy296 2.298 . S
O306 C320 1.236 1_565 S
O307 Dy297 2.395 1_565 S
O307 C327 1.255 1_565 S
O308 Dy297 2.379 . S
O308 C327 1.249 . S
C309 O299 1.266 . S
C309 O300 1.236 1_565 S
O310 Dy296 2.275 1_545 S
O310 C298 1.254 . S
O311 Dy297 2.339 . S
O311 C298 1.257 . S
C312 C315 1.344 1_565 S
C312 C316 1.328 . S
C312 C318 1.516 . S
C313 C314 1.300 . S
C313 C317 1.323 . S
C314 C313 1.300 . S
C314 C315 1.371 1_565 S
C314 H328 0.935 1_565 S
C315 C312 1.344 1_545 S
C315 C314 1.371 1_545 S
C315 H329 0.931 . S
C316 C312 1.328 . S
C316 C317 1.433 . S
C316 H330 0.931 . S
C317 C313 1.323 . S
C317 C316 1.433 . S
C317 H331 0.933 . S
C318 Dy296 2.738 . S
C318 O301 1.255 1_565 S
C318 O302 1.249 . S
C318 C312 1.516 . S
C319 O303 1.254 . S
C319 O304 1.257 . S
C320 O305 1.266 . S
C320 O306 1.236 1_545 S
C321 C324 1.301 1_545 S
C321 C325 1.328 . S
C321 C327 1.516 . S
C322 C323 1.311 . S
C322 C326 1.323 . S
C323 C322 1.311 . S
C323 C324 1.364 1_545 S
C323 H332 0.924 1_545 S
C324 C321 1.301 1_565 S
C324 C323 1.364 1_565 S
C324 H333 0.983 . S
C325 C321 1.328 . S
C325 C326 1.433 . S
C325 H334 0.931 . S
C326 C322 1.323 . S
C326 C325 1.433 . S
C326 H335 0.933 . S
C327 Dy297 2.738 . S
C327 O307 1.255 1_545 S
C327 O308 1.249 . S
C327 C321 1.516 . S
H328 C314 0.935 1_545 S
H329 C315 0.931 . S
H330 C316 0.931 . S
H331 C317 0.933 . S
H332 C323 0.924 1_565 S
H333 C324 0.983 . S
H334 C325 0.931 . S
H335 C326 0.933 . S
Dy336 O339 2.307 . S
Dy336 O341 2.395 . S
Dy336 O342 2.379 . S
Dy336 O344 2.339 . S
Dy336 O346 2.298 . S
Dy336 O350 2.275 . S
Dy336 C358 2.738 . S
Dy337 O340 2.298 . S
Dy337 O343 2.275 . S
Dy337 O345 2.307 . S
Dy337 O347 2.395 . S
Dy337 O348 2.379 . S
Dy337 O351 2.339 . S
Dy337 C367 2.738 . S
C338 O350 1.254 . S
C338 O351 1.257 . S
O339 Dy336 2.307 . S
O339 C349 1.266 . S
O340 Dy337 2.298 . S
O340 C349 1.236 . S
O341 Dy336 2.395 . S
O341 C358 1.255 . S
O342 Dy336 2.379 . S
O342 C358 1.249 . S
O343 Dy337 2.275 . S
O343 C359 1.254 . S
O344 Dy336 2.339 . S
O344 C359 1.257 . S
O345 Dy337 2.307 . S
O345 C360 1.266 . S
O346 Dy336 2.298 . S
O346 C360 1.236 . S
O347 Dy337 2.395 . S
O347 C367 1.255 . S
O348 Dy337 2.379 . S
O348 C367 1.249 . S
C349 O339 1.266 . S
C349 O340 1.236 . S
O350 Dy336 2.275 . S
O350 C338 1.254 . S
O351 Dy337 2.339 . S
O351 C338 1.257 . S
C352 C355 1.344 . S
C352 C356 1.328 . S
C352 C358 1.516 . S
C353 C354 1.304 . S
C353 C357 1.323 . S
C354 C353 1.304 . S
C354 C355 1.371 . S
C354 H368 0.930 . S
C355 C352 1.344 . S
C355 C354 1.371 . S
C355 H369 0.931 . S
C356 C352 1.328 . S
C356 C357 1.433 . S
C356 H370 0.931 . S
C357 C353 1.323 . S
C357 C356 1.433 . S
C357 H371 0.933 . S
C358 Dy336 2.738 . S
C358 O341 1.255 . S
C358 O342 1.249 . S
C358 C352 1.516 . S
C359 O343 1.254 . S
C359 O344 1.257 . S
C360 O345 1.266 . S
C360 O346 1.236 . S
C361 C364 1.344 . S
C361 C365 1.328 . S
C361 C367 1.516 . S
C362 C363 1.304 . S
C362 C366 1.323 . S
C363 C362 1.304 . S
C363 C364 1.371 . S
C363 H372 0.930 . S
C364 C361 1.344 . S
C364 C363 1.371 . S
C364 H373 0.931 . S
C365 C361 1.328 . S
C365 C366 1.433 . S
C365 H374 0.931 . S
C366 C362 1.323 . S
C366 C365 1.433 . S
C366 H375 0.933 . S
C367 Dy337 2.738 . S
C367 O347 1.255 . S
C367 O348 1.249 . S
C367 C361 1.516 . S
H368 C354 0.930 . S
H369 C355 0.931 . S
H370 C356 0.931 . S
H371 C357 0.933 . S
H372 C363 0.930 . S
H373 C364 0.931 . S
H374 C365 0.931 . S
H375 C366 0.933 . S
Dy376 O379 2.307 1_455 S
Dy376 O381 2.395 . S
Dy376 O382 2.379 . S
Dy376 O384 2.339 . S
Dy376 O386 2.298 . S
Dy376 O390 2.275 . S
Dy376 C398 2.738 . S
Dy377 O380 2.298 . S
Dy377 O383 2.270 1_655 S
Dy377 O385 2.307 1_655 S
Dy377 O387 2.395 . S
Dy377 O388 2.379 . S
Dy377 O391 2.339 . S
Dy377 C407 2.738 . S
C378 O390 1.254 . S
C378 O391 1.257 1_455 S
O379 Dy376 2.307 1_655 S
O379 C389 1.266 . S
O380 Dy377 2.298 . S
O380 C389 1.236 . S
O381 Dy376 2.395 . S
O381 C398 1.255 . S
O382 Dy376 2.379 . S
O382 C398 1.249 . S
O383 Dy377 2.270 1_455 S
O383 C399 1.259 . S
O384 Dy376 2.339 . S
O384 C399 1.257 . S
O385 Dy377 2.307 1_455 S
O385 C400 1.266 . S
O386 Dy376 2.298 . S
O386 C400 1.236 . S
O387 Dy377 2.395 . S
O387 C407 1.255 . S
O388 Dy377 2.379 . S
O388 C407 1.249 . S
C389 O379 1.266 . S
C389 O380 1.236 . S
O390 Dy376 2.275 . S
O390 C378 1.254 . S
O391 Dy377 2.339 . S
O391 C378 1.257 1_655 S
C392 C395 1.344 . S
C392 C396 1.328 . S
C392 C398 1.516 . S
C393 C394 1.304 . S
C393 C397 1.323 . S
C394 C393 1.304 . S
C394 C395 1.371 . S
C394 H408 0.930 . S
C395 C392 1.344 . S
C395 C394 1.371 . S
C395 H409 0.931 . S
C396 C392 1.328 . S
C396 C397 1.433 . S
C396 H410 0.931 . S
C397 C393 1.323 . S
C397 C396 1.433 . S
C397 H411 0.933 . S
C398 Dy376 2.738 . S
C398 O381 1.255 . S
C398 O382 1.249 . S
C398 C392 1.516 . S
C399 O383 1.259 . S
C399 O384 1.257 . S
C400 O385 1.266 . S
C400 O386 1.236 . S
C401 C404 1.344 . S
C401 C405 1.328 . S
C401 C407 1.516 . S
C402 C403 1.304 . S
C402 C406 1.323 . S
C403 C402 1.304 . S
C403 C404 1.371 . S
C403 H412 0.930 . S
C404 C401 1.344 . S
C404 C403 1.371 . S
C404 H413 0.931 . S
C405 C401 1.328 . S
C405 C406 1.433 . S
C405 H414 0.931 . S
C406 C402 1.323 . S
C406 C405 1.433 . S
C406 H415 0.933 . S
C407 Dy377 2.738 . S
C407 O387 1.255 . S
C407 O388 1.249 . S
C407 C401 1.516 . S
H408 C394 0.930 . S
H409 C395 0.931 . S
H410 C396 0.931 . S
H411 C397 0.933 . S
H412 C403 0.930 . S
H413 C404 0.931 . S
H414 C405 0.931 . S
H415 C406 0.933 . S
H416 C434 0.951 . S
H417 C436 0.951 . S
H418 C438 0.950 . S
H419 C439 0.950 . S
H420 C441 0.950 . S
H421 C444 0.950 . S
H422 C445 0.950 . S
H423 C447 0.950 . S
H424 C448 0.950 . S
H425 C449 0.951 . S
H426 C451 0.951 . S
H427 C453 0.950 . S
H428 C454 0.950 . S
H429 C456 0.950 . S
H430 C459 0.950 . S
H431 C460 0.950 . S
H432 C462 0.950 . S
H433 C463 0.950 . S
C434 H416 0.951 . S
C434 C435 1.366 . S
C434 C436 1.388 . S
C435 C434 1.366 . S
C435 C439 1.384 1_545 S
C436 H417 0.951 . S
C436 C434 1.388 . S
C436 C437 1.337 1_545 S
C437 C436 1.337 1_565 S
C437 C438 1.438 . S
C437 C440 1.503 . S
C438 H418 0.950 . S
C438 C437 1.438 . S
C438 C439 1.374 . S
C439 H419 0.950 . S
C439 C435 1.384 1_565 S
C439 C438 1.374 . S
C440 C437 1.503 . S
C440 C441 1.373 1_565 S
C440 C442 1.389 . S
C441 H420 0.950 . S
C441 C440 1.373 1_545 S
C441 C457 1.376 . S
C442 C440 1.389 . S
C442 C443 1.524 . S
C442 C456 1.376 . S
C443 C442 1.524 . S
C443 C444 1.397 . S
C443 C448 1.363 1_565 S
C444 H421 0.950 . S
C444 C443 1.397 . S
C444 C445 1.334 . S
C445 H422 0.950 . S
C445 C444 1.334 . S
C445 C446 1.287 . S
C446 C445 1.287 . S
C446 C447 1.524 1_565 S
C446 H465 0.913 . S
C447 H423 0.950 . S
C447 C446 1.524 1_545 S
C447 C448 1.415 . S
C448 H424 0.950 . S
C448 C443 1.363 1_545 S
C448 C447 1.415 . S
C449 H425 0.951 . S
C449 C450 1.362 . S
C449 C451 1.388 . S
C450 C449 1.362 . S
C450 C454 1.389 1_565 S
C451 H426 0.951 . S
C451 C449 1.388 . S
C451 C452 1.333 1_565 S
C452 C451 1.333 1_545 S
C452 C453 1.443 . S
C452 C455 1.504 . S
C453 H427 0.950 . S
C453 C452 1.443 . S
C453 C454 1.374 . S
C454 H428 0.950 . S
C454 C450 1.389 1_545 S
C454 C453 1.374 . S
C455 C452 1.504 . S
C455 C456 1.373 1_545 S
C455 C457 1.389 . S
C456 H429 0.950 . S
C456 C442 1.376 . S
C456 C455 1.373 1_565 S
C457 C441 1.376 . S
C457 C455 1.389 . S
C457 C458 1.524 . S
C458 C457 1.524 . S
C458 C459 1.397 . S
C458 C463 1.363 1_545 S
C459 H430 0.950 . S
C459 C458 1.397 . S
C459 C460 1.334 . S
C460 H431 0.950 . S
C460 C459 1.334 . S
C460 C461 1.287 . S
C461 C460 1.287 . S
C461 C462 1.524 1_545 S
C461 H464 0.999 . S
C462 H432 0.950 . S
C462 C461 1.524 1_565 S
C462 C463 1.415 . S
C463 H433 0.950 . S
C463 C458 1.363 1_565 S
C463 C462 1.415 . S
H464 C461 0.999 . S
H465 C446 0.913 . S
H466 C484 0.951 . S
H467 C486 0.951 . S
H468 C488 0.950 . S
H469 C489 0.950 . S
H470 C491 0.950 . S
H471 C494 0.950 . S
H472 C495 0.950 . S
H473 C497 0.950 . S
H474 C498 0.950 . S
H475 C499 0.951 . S
H476 C501 0.951 . S
H477 C503 0.950 . S
H478 C504 0.950 . S
H479 C506 0.950 . S
H480 C509 0.950 . S
H481 C510 0.950 . S
H482 C512 0.950 . S
H483 C513 0.950 . S
C484 H466 0.951 . S
C484 C485 1.366 . S
C484 C486 1.388 . S
C485 C484 1.366 . S
C485 C489 1.385 . S
C486 H467 0.951 . S
C486 C484 1.388 . S
C486 C487 1.366 . S
C487 C486 1.366 . S
C487 C488 1.414 . S
C487 C490 1.499 . S
C488 H468 0.950 . S
C488 C487 1.414 . S
C488 C489 1.374 . S
C489 H469 0.950 . S
C489 C485 1.385 . S
C489 C488 1.374 . S
C490 C487 1.499 . S
C490 C491 1.373 . S
C490 C492 1.389 . S
C491 H470 0.950 . S
C491 C490 1.373 . S
C491 C507 1.377 . S
C492 C490 1.389 . S
C492 C493 1.524 . S
C492 C506 1.377 . S
C493 C492 1.524 . S
C493 C494 1.397 . S
C493 C498 1.363 . S
C494 H471 0.950 . S
C494 C493 1.397 . S
C494 C495 1.334 . S
C495 H472 0.950 . S
C495 C494 1.334 . S
C495 C496 1.287 . S
C496 C495 1.287 . S
C496 C497 1.524 . S
C496 H515 0.913 . S
C497 H473 0.950 . S
C497 C496 1.524 . S
C497 C498 1.415 . S
C498 H474 0.950 . S
C498 C493 1.363 . S
C498 C497 1.415 . S
C499 H475 0.951 . S
C499 C500 1.366 . S
C499 C501 1.388 . S
C500 C499 1.366 . S
C500 C504 1.385 . S
C501 H476 0.951 . S
C501 C499 1.388 . S
C501 C502 1.366 . S
C502 C501 1.366 . S
C502 C503 1.414 . S
C502 C505 1.499 . S
C503 H477 0.950 . S
C503 C502 1.414 . S
C503 C504 1.374 . S
C504 H478 0.950 . S
C504 C500 1.385 . S
C504 C503 1.374 . S
C505 C502 1.499 . S
C505 C506 1.373 . S
C505 C507 1.389 . S
C506 H479 0.950 . S
C506 C492 1.377 . S
C506 C505 1.373 . S
C507 C491 1.377 . S
C507 C505 1.389 . S
C507 C508 1.524 . S
C508 C507 1.524 . S
C508 C509 1.397 . S
C508 C513 1.363 . S
C509 H480 0.950 . S
C509 C508 1.397 . S
C509 C510 1.334 . S
C510 H481 0.950 . S
C510 C509 1.334 . S
C510 C511 1.287 . S
C511 C510 1.287 . S
C511 C512 1.524 . S
C511 H514 0.999 . S
C512 H482 0.950 . S
C512 C511 1.524 . S
C512 C513 1.415 . S
C513 H483 0.950 . S
C513 C508 1.363 . S
C513 C512 1.415 . S
H514 C511 0.999 . S
H515 C496 0.913 . S
H516 C534 0.951 . S
H517 C536 0.951 . S
H518 C538 0.950 . S
H519 C539 0.950 . S
H520 C541 0.950 . S
H521 C544 0.950 . S
H522 C545 0.950 . S
H523 C547 0.950 . S
H524 C548 0.950 . S
H525 C549 0.951 . S
H526 C551 0.951 . S
H527 C553 0.950 . S
H528 C554 0.950 . S
H529 C556 0.950 . S
H530 C559 0.950 . S
H531 C560 0.950 . S
H532 C562 0.950 . S
H533 C563 0.950 . S
C534 H516 0.951 . S
C534 C535 1.366 . S
C534 C536 1.388 . S
C535 C534 1.366 . S
C535 C539 1.385 . S
C536 H517 0.951 . S
C536 C534 1.388 . S
C536 C537 1.366 . S
C537 C536 1.366 . S
C537 C538 1.414 . S
C537 C540 1.499 . S
C538 H518 0.950 . S
C538 C537 1.414 . S
C538 C539 1.374 . S
C539 H519 0.950 . S
C539 C535 1.385 . S
C539 C538 1.374 . S
C540 C537 1.499 . S
C540 C541 1.373 . S
C540 C542 1.389 . S
C541 H520 0.950 . S
C541 C540 1.373 . S
C541 C557 1.377 . S
C542 C540 1.389 . S
C542 C543 1.524 . S
C542 C556 1.377 . S
C543 C542 1.524 . S
C543 C544 1.397 . S
C543 C548 1.363 . S
C544 H521 0.950 . S
C544 C543 1.397 . S
C544 C545 1.334 . S
C545 H522 0.950 . S
C545 C544 1.334 . S
C545 C546 1.287 . S
C546 C545 1.287 . S
C546 C547 1.524 . S
C546 H565 0.913 . S
C547 H523 0.950 . S
C547 C546 1.524 . S
C547 C548 1.415 . S
C548 H524 0.950 . S
C548 C543 1.363 . S
C548 C547 1.415 . S
C549 H525 0.951 . S
C549 C550 1.366 . S
C549 C551 1.388 . S
C550 C549 1.366 . S
C550 C554 1.385 . S
C551 H526 0.951 . S
C551 C549 1.388 . S
C551 C552 1.366 . S
C552 C551 1.366 . S
C552 C553 1.414 . S
C552 C555 1.499 . S
C553 H527 0.950 . S
C553 C552 1.414 . S
C553 C554 1.374 . S
C554 H528 0.950 . S
C554 C550 1.385 . S
C554 C553 1.374 . S
C555 C552 1.499 . S
C555 C556 1.373 . S
C555 C557 1.389 . S
C556 H529 0.950 . S
C556 C542 1.377 . S
C556 C555 1.373 . S
C557 C541 1.377 . S
C557 C555 1.389 . S
C557 C558 1.524 . S
C558 C557 1.524 . S
C558 C559 1.397 . S
C558 C563 1.363 . S
C559 H530 0.950 . S
C559 C558 1.397 . S
C559 C560 1.334 . S
C560 H531 0.950 . S
C560 C559 1.334 . S
C560 C561 1.287 . S
C561 C560 1.287 . S
C561 C562 1.524 . S
C561 H564 0.999 . S
C562 H532 0.950 . S
C562 C561 1.524 . S
C562 C563 1.415 . S
C563 H533 0.950 . S
C563 C558 1.363 . S
C563 C562 1.415 . S
H564 C561 0.999 . S
H565 C546 0.913 . S
H566 C584 0.951 . S
H567 C586 0.951 . S
H568 C588 0.976 . S
H569 C589 0.950 . S
H570 C591 0.957 . S
H571 C594 0.950 . S
H572 C595 0.950 . S
H573 C597 0.950 . S
H574 C598 0.950 . S
H575 C599 0.951 . S
H576 C601 0.952 1_655 S
H577 C603 0.950 . S
H578 C604 0.950 . S
H579 C606 0.950 . S
H580 C609 0.950 . S
H581 C610 0.950 . S
H582 C612 0.950 . S
H583 C613 0.950 . S
C584 H566 0.951 . S
C584 C585 1.366 . S
C584 C586 1.388 . S
C585 C584 1.366 . S
C585 C589 1.385 . S
C586 H567 0.951 . S
C586 C584 1.388 . S
C586 C587 1.366 . S
C587 C586 1.366 . S
C587 C588 1.414 . S
C587 C590 1.499 . S
C588 H568 0.976 . S
C588 C587 1.414 . S
C588 C589 1.374 . S
C589 H569 0.950 . S
C589 C585 1.385 . S
C589 C588 1.374 . S
C590 C587 1.499 . S
C590 C591 1.367 1_455 S
C590 C592 1.389 . S
C591 H570 0.957 . S
C591 C590 1.367 1_655 S
C591 C607 1.376 . S
C592 C590 1.389 . S
C592 C593 1.524 . S
C592 C606 1.377 . S
C593 C592 1.524 . S
C593 C594 1.397 . S
C593 C598 1.363 . S
C594 H571 0.950 . S
C594 C593 1.397 . S
C594 C595 1.334 . S
C595 H572 0.950 . S
C595 C594 1.334 . S
C595 C596 1.287 . S
C596 C595 1.287 . S
C596 C597 1.524 . S
C596 H615 0.913 . S
C597 H573 0.950 . S
C597 C596 1.524 . S
C597 C598 1.415 . S
C598 H574 0.950 . S
C598 C593 1.363 . S
C598 C597 1.415 . S
C599 H575 0.951 . S
C599 C600 1.366 1_655 S
C599 C601 1.388 1_655 S
C600 C599 1.366 1_455 S
C600 C604 1.385 . S
C601 H576 0.952 1_455 S
C601 C599 1.388 1_455 S
C601 C602 1.365 . S
C602 C601 1.365 . S
C602 C603 1.414 . S
C602 C605 1.499 . S
C603 H577 0.950 . S
C603 C602 1.414 . S
C603 C604 1.374 . S
C604 H578 0.950 . S
C604 C600 1.385 . S
C604 C603 1.374 . S
C605 C602 1.499 . S
C605 C606 1.373 . S
C605 C607 1.389 1_455 S
C606 H579 0.950 . S
C606 C592 1.377 . S
C606 C605 1.373 . S
C607 C591 1.376 . S
C607 C605 1.389 1_655 S
C607 C608 1.524 . S
C608 C607 1.524 . S
C608 C609 1.397 . S
C608 C613 1.363 . S
C609 H580 0.950 . S
C609 C608 1.397 . S
C609 C610 1.334 . S
C610 H581 0.950 . S
C610 C609 1.334 . S
C610 C611 1.287 . S
C611 C610 1.287 . S
C611 C612 1.524 . S
C611 H614 0.999 . S
C612 H582 0.950 . S
C612 C611 1.524 . S
C612 C613 1.415 . S
C613 H583 0.950 . S
C613 C608 1.363 . S
C613 C612 1.415 . S
H614 C611 0.999 . S
H615 C596 0.913 . S
H616 C634 0.951 . S
H617 C636 0.951 . S
H618 C638 0.950 . S
H619 C639 0.950 . S
H620 C641 0.950 . S
H621 C644 0.950 . S
H622 C645 0.950 . S
H623 C647 0.950 . S
H624 C648 0.950 1_556 S
H625 C649 0.951 . S
H626 C651 0.951 . S
H627 C653 0.950 . S
H628 C654 0.950 . S
H629 C656 0.950 . S
H630 C659 0.950 . S
H631 C660 0.950 . S
H632 C662 0.950 . S
H633 C663 0.950 . S
C634 H616 0.951 . S
C634 C635 1.364 1_565 S
C634 C636 1.388 . S
C635 C634 1.364 1_545 S
C635 C639 1.386 . S
C636 H617 0.951 . S
C636 C634 1.388 . S
C636 C637 1.369 . S
C637 C636 1.369 . S
C637 C638 1.411 1_565 S
C637 C640 1.496 1_565 S
C638 H618 0.950 . S
C638 C637 1.411 1_545 S
C638 C639 1.374 . S
C639 H619 0.950 . S
C639 C635 1.386 . S
C639 C638 1.374 . S
C640 C637 1.496 1_545 S
C640 C641 1.388 1_554 S
C640 C642 1.376 1_545 S
C641 H620 0.950 . S
C641 C640 1.388 1_556 S
C641 C657 1.377 . S
C642 C640 1.376 1_565 S
C642 C643 1.528 . S
C642 C656 1.373 1_554 S
C643 C642 1.528 . S
C643 C644 1.397 . S
C643 C648 1.363 . S
C644 H621 0.950 . S
C644 C643 1.397 . S
C644 C645 1.334 . S
C645 H622 0.950 . S
C645 C644 1.334 . S
C645 C646 1.287 . S
C646 C645 1.287 . S
C646 C647 1.524 . S
C646 H665 0.913 . S
C647 H623 0.950 . S
C647 C646 1.524 . S
C647 C648 1.415 . S
C648 H624 0.950 1_554 S
C648 C643 1.363 . S
C648 C647 1.415 . S
C649 H625 0.951 . S
C649 C650 1.369 . S
C649 C651 1.388 . S
C650 C649 1.369 . S
C650 C654 1.380 1_545 S
C651 H626 0.951 . S
C651 C649 1.388 . S
C651 C652 1.386 . S
C652 C651 1.386 . S
C652 C653 1.395 1_545 S
C652 C655 1.496 1_545 S
C653 H627 0.950 . S
C653 C652 1.395 1_565 S
C653 C654 1.374 . S
C654 H628 0.950 . S
C654 C650 1.380 1_565 S
C654 C653 1.374 . S
C655 C652 1.496 1_565 S
C655 C656 1.374 . S
C655 C657 1.389 1_565 S
C656 H629 0.950 . S
C656 C642 1.373 1_556 S
C656 C655 1.374 . S
C657 C641 1.377 . S
C657 C655 1.389 1_545 S
C657 C658 1.524 . S
C658 C657 1.524 . S
C658 C659 1.397 . S
C658 C663 1.363 . S
C659 H630 0.950 . S
C659 C658 1.397 . S
C659 C660 1.334 . S
C660 H631 0.950 . S
C660 C659 1.334 . S
C660 C661 1.287 . S
C661 C660 1.287 . S
C661 C662 1.524 . S
C661 H664 0.999 . S
C662 H632 0.950 . S
C662 C661 1.524 . S
C662 C663 1.415 . S
C663 H633 0.950 . S
C663 C658 1.363 . S
C663 C662 1.415 . S
H664 C661 0.999 . S
H665 C646 0.913 . S
H666 C684 0.948 1_554 S
H667 C686 0.951 . S
H668 C688 0.950 . S
H669 C689 0.950 . S
H670 C691 0.950 . S
H671 C694 0.950 . S
H672 C695 0.950 . S
H673 C697 0.950 . S
H674 C698 0.950 . S
H675 C699 0.951 . S
H676 C701 0.951 . S
H677 C703 0.950 . S
H678 C704 0.950 . S
H679 C706 0.950 . S
H680 C709 0.950 . S
H681 C710 0.950 . S
H682 C712 0.950 . S
H683 C713 0.950 . S
C684 H666 0.948 1_556 S
C684 C685 1.367 . S
C684 C686 1.391 . S
C685 C684 1.367 . S
C685 C689 1.391 . S
C686 H667 0.951 . S
C686 C684 1.391 . S
C686 C687 1.366 . S
C687 C686 1.366 . S
C687 C688 1.414 . S
C687 C690 1.499 . S
C688 H668 0.950 . S
C688 C687 1.414 . S
C688 C689 1.374 . S
C689 H669 0.950 . S
C689 C685 1.391 . S
C689 C688 1.374 . S
C690 C687 1.499 . S
C690 C691 1.373 . S
C690 C692 1.389 . S
C691 H670 0.950 . S
C691 C690 1.373 . S
C691 C707 1.377 . S
C692 C690 1.389 . S
C692 C693 1.524 . S
C692 C706 1.377 . S
C693 C692 1.524 . S
C693 C694 1.397 . S
C693 C698 1.363 . S
C694 H671 0.950 . S
C694 C693 1.397 . S
C694 C695 1.334 . S
C695 H672 0.950 . S
C695 C694 1.334 . S
C695 C696 1.287 . S
C696 C695 1.287 . S
C696 C697 1.524 . S
C696 H715 0.913 . S
C697 H673 0.950 . S
C697 C696 1.524 . S
C697 C698 1.415 . S
C698 H674 0.950 . S
C698 C693 1.363 . S
C698 C697 1.415 . S
C699 H675 0.951 . S
C699 C700 1.366 . S
C699 C701 1.388 . S
C700 C699 1.366 . S
C700 C704 1.385 . S
C701 H676 0.951 . S
C701 C699 1.388 . S
C701 C702 1.366 . S
C702 C701 1.366 . S
C702 C703 1.414 . S
C702 C705 1.499 . S
C703 H677 0.950 . S
C703 C702 1.414 . S
C703 C704 1.374 . S
C704 H678 0.950 . S
C704 C700 1.385 . S
C704 C703 1.374 . S
C705 C702 1.499 . S
C705 C706 1.373 . S
C705 C707 1.389 . S
C706 H679 0.950 . S
C706 C692 1.377 . S
C706 C705 1.373 . S
C707 C691 1.377 . S
C707 C705 1.389 . S
C707 C708 1.524 . S
C708 C707 1.524 . S
C708 C709 1.397 . S
C708 C713 1.363 . S
C709 H680 0.950 . S
C709 C708 1.397 . S
C709 C710 1.334 . S
C710 H681 0.950 . S
C710 C709 1.334 . S
C710 C711 1.287 . S
C711 C710 1.287 . S
C711 C712 1.524 . S
C711 H714 0.999 . S
C712 H682 0.950 . S
C712 C711 1.524 . S
C712 C713 1.415 . S
C713 H683 0.950 . S
C713 C708 1.363 . S
C713 C712 1.415 . S
H714 C711 0.999 . S
H715 C696 0.913 . S
H716 C734 0.951 . S
H717 C736 0.951 . S
H718 C738 0.950 . S
H719 C739 0.950 . S
H720 C741 0.950 . S
H721 C744 0.950 . S
H722 C745 0.950 . S
H723 C747 0.950 . S
H724 C748 0.950 . S
H725 C749 0.951 . S
H726 C751 0.951 . S
H727 C753 0.950 . S
H728 C754 0.950 . S
H729 C756 0.950 . S
H730 C759 0.950 . S
H731 C760 0.950 . S
H732 C762 0.950 . S
H733 C763 0.950 . S
C734 H716 0.951 . S
C734 C735 1.366 . S
C734 C736 1.388 . S
C735 C734 1.366 . S
C735 C739 1.385 . S
C736 H717 0.951 . S
C736 C734 1.388 . S
C736 C737 1.366 . S
C737 C736 1.366 . S
C737 C738 1.414 . S
C737 C740 1.499 . S
C738 H718 0.950 . S
C738 C737 1.414 . S
C738 C739 1.374 . S
C739 H719 0.950 . S
C739 C735 1.385 . S
C739 C738 1.374 . S
C740 C737 1.499 . S
C740 C741 1.373 . S
C740 C742 1.389 . S
C741 H720 0.950 . S
C741 C740 1.373 . S
C741 C757 1.377 . S
C742 C740 1.389 . S
C742 C743 1.524 . S
C742 C756 1.377 . S
C743 C742 1.524 . S
C743 C744 1.397 . S
C743 C748 1.363 . S
C744 H721 0.950 . S
C744 C743 1.397 . S
C744 C745 1.334 . S
C745 H722 0.950 . S
C745 C744 1.334 . S
C745 C746 1.287 . S
C746 C745 1.287 . S
C746 C747 1.524 . S
C746 H765 0.913 . S
C747 H723 0.950 . S
C747 C746 1.524 . S
C747 C748 1.415 . S
C748 H724 0.950 . S
C748 C743 1.363 . S
C748 C747 1.415 . S
C749 H725 0.951 . S
C749 C750 1.366 . S
C749 C751 1.388 . S
C750 C749 1.366 . S
C750 C754 1.385 . S
C751 H726 0.951 . S
C751 C749 1.388 . S
C751 C752 1.366 1_556 S
C752 C751 1.366 1_554 S
C752 C753 1.414 . S
C752 C755 1.499 . S
C753 H727 0.950 . S
C753 C752 1.414 . S
C753 C754 1.374 1_554 S
C754 H728 0.950 . S
C754 C750 1.385 . S
C754 C753 1.374 1_556 S
C755 C752 1.499 . S
C755 C756 1.373 . S
C755 C757 1.389 . S
C756 H729 0.950 . S
C756 C742 1.377 . S
C756 C755 1.373 . S
C757 C741 1.377 . S
C757 C755 1.389 . S
C757 C758 1.524 . S
C758 C757 1.524 . S
C758 C759 1.397 . S
C758 C763 1.363 . S
C759 H730 0.950 . S
C759 C758 1.397 . S
C759 C760 1.334 1_554 S
C760 H731 0.950 . S
C760 C759 1.334 1_556 S
C760 C761 1.287 . S
C761 C760 1.287 . S
C761 C762 1.524 . S
C761 H764 0.999 . S
C762 H732 0.950 . S
C762 C761 1.524 . S
C762 C763 1.415 1_556 S
C763 H733 0.950 . S
C763 C758 1.363 . S
C763 C762 1.415 1_554 S
H764 C761 0.999 . S
H765 C746 0.913 . S
H766 C784 0.951 . S
H767 C786 0.951 . S
H768 C788 0.950 . S
H769 C789 0.950 . S
H770 C791 0.950 . S
H771 C794 0.950 . S
H772 C795 0.950 . S
H773 C797 0.950 . S
H774 C798 0.950 . S
H775 C799 0.951 . S
H776 C801 0.951 . S
H777 C803 0.950 . S
H778 C804 0.950 . S
H779 C806 0.950 . S
H780 C809 0.950 . S
H781 C810 0.950 . S
H782 C812 0.950 . S
H783 C813 0.950 . S
C784 H766 0.951 . S
C784 C785 1.366 . S
C784 C786 1.388 . S
C785 C784 1.366 . S
C785 C789 1.385 . S
C786 H767 0.951 . S
C786 C784 1.388 . S
C786 C787 1.366 . S
C787 C786 1.366 . S
C787 C788 1.414 . S
C787 C790 1.499 . S
C788 H768 0.950 . S
C788 C787 1.414 . S
C788 C789 1.374 . S
C789 H769 0.950 . S
C789 C785 1.385 . S
C789 C788 1.374 . S
C790 C787 1.499 . S
C790 C791 1.373 1_655 S
C790 C792 1.389 . S
C791 H770 0.950 . S
C791 C790 1.373 1_455 S
C791 C807 1.377 1_554 S
C792 C790 1.389 . S
C792 C793 1.524 . S
C792 C806 1.377 1_554 S
C793 C792 1.524 . S
C793 C794 1.397 . S
C793 C798 1.363 1_554 S
C794 H771 0.950 . S
C794 C793 1.397 . S
C794 C795 1.334 . S
C795 H772 0.950 . S
C795 C794 1.334 . S
C795 C796 1.287 . S
C796 C795 1.287 . S
C796 C797 1.524 1_554 S
C796 H815 0.913 . S
C797 H773 0.950 . S
C797 C796 1.524 1_556 S
C797 C798 1.415 . S
C798 H774 0.950 . S
C798 C793 1.363 1_556 S
C798 C797 1.415 . S
C799 H775 0.951 . S
C799 C800 1.367 . S
C799 C801 1.388 . S
C800 C799 1.367 . S
C800 C804 1.383 1_655 S
C801 H776 0.951 . S
C801 C799 1.388 . S
C801 C802 1.366 . S
C802 C801 1.366 . S
C802 C803 1.414 1_655 S
C802 C805 1.499 . S
C803 H777 0.950 . S
C803 C802 1.414 1_455 S
C803 C804 1.374 . S
C804 H778 0.950 . S
C804 C800 1.383 1_455 S
C804 C803 1.374 . S
C805 C802 1.499 . S
C805 C806 1.373 . S
C805 C807 1.389 1_655 S
C806 H779 0.950 . S
C806 C792 1.377 1_556 S
C806 C805 1.373 . S
C807 C791 1.377 1_556 S
C807 C805 1.389 1_455 S
C807 C808 1.524 . S
C808 C807 1.524 . S
C808 C809 1.397 . S
C808 C813 1.363 1_556 S
C809 H780 0.950 . S
C809 C808 1.397 . S
C809 C810 1.334 . S
C810 H781 0.950 . S
C810 C809 1.334 . S
C810 C811 1.287 . S
C811 C810 1.287 . S
C811 C812 1.524 1_556 S
C811 H814 0.999 . S
C812 H782 0.950 . S
C812 C811 1.524 1_554 S
C812 C813 1.415 . S
C813 H783 0.950 . S
C813 C808 1.363 1_554 S
C813 C812 1.415 . S
H814 C811 0.999 . S
H815 C796 0.913 . S
H816 C834 0.951 . S
H817 C836 0.951 . S
H818 C838 0.950 . S
H819 C839 0.950 . S
H820 C841 0.950 1_655 S
H821 C844 0.950 . S
H822 C845 0.950 . S
H823 C847 0.950 . S
H824 C848 0.950 . S
H825 C849 0.951 . S
H826 C851 0.945 1_455 S
H827 C853 0.950 . S
H828 C854 0.950 . S
H829 C856 0.950 . S
H830 C859 0.950 . S
H831 C860 0.950 . S
H832 C862 0.950 . S
H833 C863 0.950 . S
C834 H816 0.951 . S
C834 C835 1.366 . S
C834 C836 1.388 . S
C835 C834 1.366 . S
C835 C839 1.385 . S
C836 H817 0.951 . S
C836 C834 1.388 . S
C836 C837 1.366 . S
C837 C836 1.366 . S
C837 C838 1.414 . S
C837 C840 1.499 . S
C838 H818 0.950 . S
C838 C837 1.414 . S
C838 C839 1.374 . S
C839 H819 0.950 . S
C839 C835 1.385 . S
C839 C838 1.374 . S
C840 C837 1.499 . S
C840 C841 1.373 . S
C840 C842 1.389 . S
C841 H820 0.950 1_455 S
C841 C840 1.373 . S
C841 C857 1.377 1_455 S
C842 C840 1.389 . S
C842 C843 1.524 . S
C842 C856 1.377 . S
C843 C842 1.524 . S
C843 C844 1.397 . S
C843 C848 1.363 . S
C844 H821 0.950 . S
C844 C843 1.397 . S
C844 C845 1.334 . S
C845 H822 0.950 . S
C845 C844 1.334 . S
C845 C846 1.287 . S
C846 C845 1.287 . S
C846 C847 1.524 . S
C846 H865 0.913 . S
C847 H823 0.950 . S
C847 C846 1.524 . S
C847 C848 1.415 . S
C848 H824 0.950 . S
C848 C843 1.363 . S
C848 C847 1.415 . S
C849 H825 0.951 . S
C849 C850 1.366 . S
C849 C851 1.393 . S
C850 C849 1.366 . S
C850 C854 1.385 . S
C851 H826 0.945 1_655 S
C851 C849 1.393 . S
C851 C852 1.367 . S
C852 C851 1.367 . S
C852 C853 1.414 . S
C852 C855 1.499 1_655 S
C853 H827 0.950 . S
C853 C852 1.414 . S
C853 C854 1.374 . S
C854 H828 0.950 . S
C854 C850 1.385 . S
C854 C853 1.374 . S
C855 C852 1.499 1_455 S
C855 C856 1.373 . S
C855 C857 1.389 1_455 S
C856 H829 0.950 . S
C856 C842 1.377 . S
C856 C855 1.373 . S
C857 C841 1.377 1_655 S
C857 C855 1.389 1_655 S
C857 C858 1.524 . S
C858 C857 1.524 . S
C858 C859 1.397 . S
C858 C863 1.363 . S
C859 H830 0.950 . S
C859 C858 1.397 . S
C859 C860 1.334 . S
C860 H831 0.950 . S
C860 C859 1.334 . S
C860 C861 1.287 . S
C861 C860 1.287 . S
C861 C862 1.524 . S
C861 H864 0.999 . S
C862 H832 0.950 . S
C862 C861 1.524 . S
C862 C863 1.415 . S
C863 H833 0.950 . S
C863 C858 1.363 . S
C863 C862 1.415 . S
H864 C861 0.999 . S
H865 C846 0.913 . S
H866 C884 0.951 . S
H867 C886 0.951 . S
H868 C888 0.950 . S
H869 C889 0.950 . S
H870 C891 0.950 . S
H871 C894 0.950 . S
H872 C895 0.950 . S
H873 C897 0.950 . S
H874 C898 0.950 . S
H875 C899 0.951 1_545 S
H876 C901 0.951 1_545 S
H877 C903 0.950 . S
H878 C904 0.950 . S
H879 C906 0.950 . S
H880 C909 0.950 . S
H881 C910 0.950 . S
H882 C912 0.952 1_545 S
H883 C913 0.950 1_545 S
C884 H866 0.951 . S
C884 C885 1.334 1_565 S
C884 C886 1.388 . S
C885 C884 1.334 1_545 S
C885 C889 1.416 . S
C886 H867 0.951 . S
C886 C884 1.388 . S
C886 C887 1.366 . S
C887 C886 1.366 . S
C887 C888 1.414 1_565 S
C887 C890 1.499 . S
C888 H868 0.950 . S
C888 C887 1.414 1_545 S
C888 C889 1.374 . S
C889 H869 0.950 . S
C889 C885 1.416 . S
C889 C888 1.374 . S
C890 C887 1.499 . S
C890 C891 1.373 . S
C890 C892 1.389 . S
C891 H870 0.950 . S
C891 C890 1.373 . S
C891 C907 1.377 . S
C892 C890 1.389 . S
C892 C893 1.524 . S
C892 C906 1.377 . S
C893 C892 1.524 . S
C893 C894 1.397 1_565 S
C893 C898 1.363 . S
C894 H871 0.950 . S
C894 C893 1.397 1_545 S
C894 C895 1.334 . S
C895 H872 0.950 . S
C895 C894 1.334 . S
C895 C896 1.287 . S
C896 C895 1.287 . S
C896 C897 1.524 1_545 S
C896 H915 0.913 . S
C897 H873 0.950 . S
C897 C896 1.524 1_565 S
C897 C898 1.415 . S
C898 H874 0.950 . S
C898 C893 1.363 . S
C898 C897 1.415 . S
C899 H875 0.951 1_565 S
C899 C900 1.366 . S
C899 C901 1.388 . S
C900 C899 1.366 . S
C900 C904 1.385 . S
C901 H876 0.951 1_565 S
C901 C899 1.388 . S
C901 C902 1.366 . S
C902 C901 1.366 . S
C902 C903 1.414 . S
C902 C905 1.499 . S
C903 H877 0.950 . S
C903 C902 1.414 . S
C903 C904 1.374 . S
C904 H878 0.950 . S
C904 C900 1.385 . S
C904 C903 1.374 . S
C905 C902 1.499 . S
C905 C906 1.373 . S
C905 C907 1.389 . S
C906 H879 0.950 . S
C906 C892 1.377 . S
C906 C905 1.373 . S
C907 C891 1.377 . S
C907 C905 1.389 . S
C907 C908 1.524 . S
C908 C907 1.524 . S
C908 C909 1.397 . S
C908 C913 1.363 . S
C909 H880 0.950 . S
C909 C908 1.397 . S
C909 C910 1.334 . S
C910 H881 0.950 . S
C910 C909 1.334 . S
C910 C911 1.287 . S
C911 C910 1.287 . S
C911 C912 1.524 . S
C911 H914 0.999 . S
C912 H882 0.952 1_565 S
C912 C911 1.524 . S
C912 C913 1.415 . S
C913 H883 0.950 1_565 S
C913 C908 1.363 . S
C913 C912 1.415 . S
H914 C911 0.999 . S
H915 C896 0.913 . S
H916 C934 0.951 . S
H917 C936 0.951 . S
H918 C938 0.950 . S
H919 C939 0.950 . S
H920 C941 0.950 . S
H921 C944 0.950 . S
H922 C945 0.950 . S
H923 C947 0.950 . S
H924 C948 0.950 . S
H925 C949 0.951 . S
H926 C951 0.951 . S
H927 C953 0.950 . S
H928 C954 0.950 . S
H929 C956 0.950 . S
H930 C959 0.950 . S
H931 C960 0.950 . S
H932 C962 0.950 . S
H933 C963 0.950 . S
C934 H916 0.951 . S
C934 C935 1.366 . S
C934 C936 1.388 . S
C935 C934 1.366 . S
C935 C939 1.385 . S
C936 H917 0.951 . S
C936 C934 1.388 . S
C936 C937 1.366 . S
C937 C936 1.366 . S
C937 C938 1.414 . S
C937 C940 1.499 . S
C938 H918 0.950 . S
C938 C937 1.414 . S
C938 C939 1.374 . S
C939 H919 0.950 . S
C939 C935 1.385 . S
C939 C938 1.374 . S
C940 C937 1.499 . S
C940 C941 1.373 . S
C940 C942 1.389 . S
C941 H920 0.950 . S
C941 C940 1.373 . S
C941 C957 1.377 . S
C942 C940 1.389 . S
C942 C943 1.524 . S
C942 C956 1.377 . S
C943 C942 1.524 . S
C943 C944 1.397 . S
C943 C948 1.363 . S
C944 H921 0.950 . S
C944 C943 1.397 . S
C944 C945 1.334 . S
C945 H922 0.950 . S
C945 C944 1.334 . S
C945 C946 1.287 . S
C946 C945 1.287 . S
C946 C947 1.524 . S
C946 H965 0.913 . S
C947 H923 0.950 . S
C947 C946 1.524 . S
C947 C948 1.415 . S
C948 H924 0.950 . S
C948 C943 1.363 . S
C948 C947 1.415 . S
C949 H925 0.951 . S
C949 C950 1.366 . S
C949 C951 1.388 . S
C950 C949 1.366 . S
C950 C954 1.385 . S
C951 H926 0.951 . S
C951 C949 1.388 . S
C951 C952 1.366 . S
C952 C951 1.366 . S
C952 C953 1.414 . S
C952 C955 1.499 . S
C953 H927 0.950 . S
C953 C952 1.414 . S
C953 C954 1.374 . S
C954 H928 0.950 . S
C954 C950 1.385 . S
C954 C953 1.374 . S
C955 C952 1.499 . S
C955 C956 1.373 . S
C955 C957 1.389 . S
C956 H929 0.950 . S
C956 C942 1.377 . S
C956 C955 1.373 . S
C957 C941 1.377 . S
C957 C955 1.389 . S
C957 C958 1.524 . S
C958 C957 1.524 . S
C958 C959 1.397 . S
C958 C963 1.363 . S
C959 H930 0.950 . S
C959 C958 1.397 . S
C959 C960 1.334 . S
C960 H931 0.950 . S
C960 C959 1.334 . S
C960 C961 1.287 . S
C961 C960 1.287 . S
C961 C962 1.524 . S
C961 H964 0.999 . S
C962 H932 0.950 . S
C962 C961 1.524 . S
C962 C963 1.415 . S
C963 H933 0.950 . S
C963 C958 1.363 . S
C963 C962 1.415 . S
H964 C961 0.999 . S
H965 C946 0.913 . S
H966 C984 0.951 . S
H967 C986 0.951 . S
H968 C988 0.950 . S
H969 C989 0.950 . S
H970 C991 0.950 . S
H971 C994 0.950 . S
H972 C995 0.950 . S
H973 C997 0.950 . S
H974 C998 0.950 . S
H975 C999 0.951 . S
H976 C1001 0.951 . S
H977 C1003 0.950 . S
H978 C1004 0.950 . S
H979 C1006 0.950 . S
H980 C1009 0.950 . S
H981 C1010 0.950 . S
H982 C1012 0.950 . S
H983 C1013 0.950 . S
C984 H966 0.951 . S
C984 C985 1.366 . S
C984 C986 1.388 . S
C985 C984 1.366 . S
C985 C989 1.385 . S
C986 H967 0.951 . S
C986 C984 1.388 . S
C986 C987 1.366 . S
C987 C986 1.366 . S
C987 C988 1.414 . S
C987 C990 1.499 . S
C988 H968 0.950 . S
C988 C987 1.414 . S
C988 C989 1.374 . S
C989 H969 0.950 . S
C989 C985 1.385 . S
C989 C988 1.374 . S
C990 C987 1.499 . S
C990 C991 1.373 . S
C990 C992 1.389 . S
C991 H970 0.950 . S
C991 C990 1.373 . S
C991 C1007 1.377 . S
C992 C990 1.389 . S
C992 C993 1.524 . S
C992 C1006 1.377 . S
C993 C992 1.524 . S
C993 C994 1.397 . S
C993 C998 1.363 . S
C994 H971 0.950 . S
C994 C993 1.397 . S
C994 C995 1.334 . S
C995 H972 0.950 . S
C995 C994 1.334 . S
C995 C996 1.287 . S
C996 C995 1.287 . S
C996 C997 1.524 . S
C996 H1015 0.913 . S
C997 H973 0.950 . S
C997 C996 1.524 . S
C997 C998 1.415 . S
C998 H974 0.950 . S
C998 C993 1.363 . S
C998 C997 1.415 . S
C999 H975 0.951 . S
C999 C1000 1.366 . S
C999 C1001 1.388 . S
C1000 C999 1.366 . S
C1000 C1004 1.385 . S
C1001 H976 0.951 . S
C1001 C999 1.388 . S
C1001 C1002 1.366 . S
C1002 C1001 1.366 . S
C1002 C1003 1.414 . S
C1002 C1005 1.499 . S
C1003 H977 0.950 . S
C1003 C1002 1.414 . S
C1003 C1004 1.374 . S
C1004 H978 0.950 . S
C1004 C1000 1.385 . S
C1004 C1003 1.374 . S
C1005 C1002 1.499 . S
C1005 C1006 1.373 . S
C1005 C1007 1.389 . S
C1006 H979 0.950 . S
C1006 C992 1.377 . S
C1006 C1005 1.373 . S
C1007 C991 1.377 . S
C1007 C1005 1.389 . S
C1007 C1008 1.524 . S
C1008 C1007 1.524 . S
C1008 C1009 1.397 . S
C1008 C1013 1.363 . S
C1009 H980 0.950 . S
C1009 C1008 1.397 . S
C1009 C1010 1.334 . S
C1010 H981 0.950 . S
C1010 C1009 1.334 . S
C1010 C1011 1.287 . S
C1011 C1010 1.287 . S
C1011 C1012 1.524 . S
C1011 H1014 0.999 . S
C1012 H982 0.950 . S
C1012 C1011 1.524 . S
C1012 C1013 1.415 . S
C1013 H983 0.950 . S
C1013 C1008 1.363 . S
C1013 C1012 1.415 . S
H1014 C1011 0.999 . S
H1015 C996 0.913 . S
H1016 C1034 0.948 . S
H1017 C1036 0.951 . S
H1018 C1038 0.950 . S
H1019 C1039 0.950 . S
H1020 C1041 0.950 . S
H1021 C1044 0.950 . S
H1022 C1045 0.950 . S
H1023 C1047 0.950 . S
H1024 C1048 0.950 . S
H1025 C1049 0.951 1_655 S
H1026 C1051 0.951 . S
H1027 C1053 0.950 . S
H1028 C1054 0.950 . S
H1029 C1056 0.950 . S
H1030 C1059 0.950 . S
H1031 C1060 0.950 . S
H1032 C1062 0.950 . S
H1033 C1063 0.950 1_554 S
C1034 H1016 0.948 . S
C1034 C1035 1.370 1_455 S
C1034 C1036 1.387 . S
C1035 C1034 1.370 1_655 S
C1035 C1039 1.385 . S
C1036 H1017 0.951 . S
C1036 C1034 1.387 . S
C1036 C1037 1.366 1_455 S
C1037 C1036 1.366 1_655 S
C1037 C1038 1.414 . S
C1037 C1040 1.499 . S
C1038 H1018 0.950 . S
C1038 C1037 1.414 . S
C1038 C1039 1.374 . S
C1039 H1019 0.950 . S
C1039 C1035 1.385 . S
C1039 C1038 1.374 . S
C1040 C1037 1.499 . S
C1040 C1041 1.373 . S
C1040 C1042 1.389 1_655 S
C1041 H1020 0.950 . S
C1041 C1040 1.373 . S
C1041 C1057 1.377 1_554 S
C1042 C1040 1.389 1_455 S
C1042 C1043 1.524 . S
C1042 C1056 1.377 . S
C1043 C1042 1.524 . S
C1043 C1044 1.397 . S
C1043 C1048 1.363 . S
C1044 H1021 0.950 . S
C1044 C1043 1.397 . S
C1044 C1045 1.334 . S
C1045 H1022 0.950 . S
C1045 C1044 1.334 . S
C1045 C1046 1.287 . S
C1046 C1045 1.287 . S
C1046 C1047 1.524 . S
C1046 H1065 0.913 . S
C1047 H1023 0.950 . S
C1047 C1046 1.524 . S
C1047 C1048 1.415 . S
C1048 H1024 0.950 . S
C1048 C1043 1.363 . S
C1048 C1047 1.415 . S
C1049 H1025 0.951 1_455 S
C1049 C1050 1.366 . S
C1049 C1051 1.388 1_455 S
C1050 C1049 1.366 . S
C1050 C1054 1.385 . S
C1051 H1026 0.951 . S
C1051 C1049 1.388 1_655 S
C1051 C1052 1.366 1_655 S
C1052 C1051 1.366 1_455 S
C1052 C1053 1.414 . S
C1052 C1055 1.499 . S
C1053 H1027 0.950 . S
C1053 C1052 1.414 . S
C1053 C1054 1.374 . S
C1054 H1028 0.950 . S
C1054 C1050 1.385 . S
C1054 C1053 1.374 . S
C1055 C1052 1.499 . S
C1055 C1056 1.373 1_556 S
C1055 C1057 1.389 1_455 S
C1056 H1029 0.950 . S
C1056 C1042 1.377 . S
C1056 C1055 1.373 1_554 S
C1057 C1041 1.377 1_556 S
C1057 C1055 1.389 1_655 S
C1057 C1058 1.524 . S
C1058 C1057 1.524 . S
C1058 C1059 1.397 . S
C1058 C1063 1.363 . S
C1059 H1030 0.950 . S
C1059 C1058 1.397 . S
C1059 C1060 1.334 . S
C1060 H1031 0.950 . S
C1060 C1059 1.334 . S
C1060 C1061 1.287 . S
C1061 C1060 1.287 . S
C1061 C1062 1.524 . S
C1061 H1064 0.999 . S
C1062 H1032 0.950 . S
C1062 C1061 1.524 . S
C1062 C1063 1.415 . S
C1063 H1033 0.950 1_556 S
C1063 C1058 1.363 . S
C1063 C1062 1.415 . S
H1064 C1061 0.999 . S
H1065 C1046 0.913 . S
H1066 C1084 0.951 . S
H1067 C1086 0.951 1_556 S
H1068 C1088 0.950 . S
H1069 C1089 0.950 . S
H1070 C1091 0.950 . S
H1071 C1094 0.950 . S
H1072 C1095 0.950 . S
H1073 C1097 0.950 . S
H1074 C1098 0.950 . S
H1075 C1099 0.951 . S
H1076 C1101 0.951 . S
H1077 C1103 0.950 . S
H1078 C1104 0.950 . S
H1079 C1106 0.950 . S
H1080 C1109 0.950 . S
H1081 C1110 0.950 . S
H1082 C1112 0.950 . S
H1083 C1113 0.950 . S
C1084 H1066 0.951 . S
C1084 C1085 1.354 1_545 S
C1084 C1086 1.388 . S
C1085 C1084 1.354 1_565 S
C1085 C1089 1.394 . S
C1086 H1067 0.951 1_554 S
C1086 C1084 1.388 . S
C1086 C1087 1.366 . S
C1087 C1086 1.366 . S
C1087 C1088 1.414 1_545 S
C1087 C1090 1.499 . S
C1088 H1068 0.950 . S
C1088 C1087 1.414 1_565 S
C1088 C1089 1.374 . S
C1089 H1069 0.950 . S
C1089 C1085 1.394 . S
C1089 C1088 1.374 . S
C1090 C1087 1.499 . S
C1090 C1091 1.373 1_545 S
C1090 C1092 1.389 1_554 S
C1091 H1070 0.950 . S
C1091 C1090 1.373 1_565 S
C1091 C1107 1.377 1_554 S
C1092 C1090 1.389 1_556 S
C1092 C1093 1.524 . S
C1092 C1106 1.377 . S
C1093 C1092 1.524 . S
C1093 C1094 1.397 1_556 S
C1093 C1098 1.363 . S
C1094 H1071 0.950 . S
C1094 C1093 1.397 1_554 S
C1094 C1095 1.334 . S
C1095 H1072 0.950 . S
C1095 C1094 1.334 . S
C1095 C1096 1.287 1_554 S
C1096 C1095 1.287 1_556 S
C1096 C1097 1.524 . S
C1096 H1115 0.913 . S
C1097 H1073 0.950 . S
C1097 C1096 1.524 . S
C1097 C1098 1.415 . S
C1098 H1074 0.950 . S
C1098 C1093 1.363 . S
C1098 C1097 1.415 . S
C1099 H1075 0.951 . S
C1099 C1100 1.366 . S
C1099 C1101 1.388 . S
C1100 C1099 1.366 . S
C1100 C1104 1.385 . S
C1101 H1076 0.951 . S
C1101 C1099 1.388 . S
C1101 C1102 1.366 . S
C1102 C1101 1.366 . S
C1102 C1103 1.414 . S
C1102 C1105 1.499 . S
C1103 H1077 0.950 . S
C1103 C1102 1.414 . S
C1103 C1104 1.374 . S
C1104 H1078 0.950 . S
C1104 C1100 1.385 . S
C1104 C1103 1.374 . S
C1105 C1102 1.499 . S
C1105 C1106 1.373 . S
C1105 C1107 1.389 1_545 S
C1106 H1079 0.950 . S
C1106 C1092 1.377 . S
C1106 C1105 1.373 . S
C1107 C1091 1.377 1_556 S
C1107 C1105 1.389 1_565 S
C1107 C1108 1.524 . S
C1108 C1107 1.524 . S
C1108 C1109 1.397 . S
C1108 C1113 1.363 1_556 S
C1109 H1080 0.950 . S
C1109 C1108 1.397 . S
C1109 C1110 1.334 . S
C1110 H1081 0.950 . S
C1110 C1109 1.334 . S
C1110 C1111 1.287 . S
C1111 C1110 1.287 . S
C1111 C1112 1.524 1_556 S
C1111 H1114 0.999 . S
C1112 H1082 0.950 . S
C1112 C1111 1.524 1_554 S
C1112 C1113 1.415 . S
C1113 H1083 0.950 . S
C1113 C1108 1.363 1_554 S
C1113 C1112 1.415 . S
H1114 C1111 0.999 . S
H1115 C1096 0.913 . S
H1116 C1134 0.951 . S
H1117 C1136 0.951 . S
H1118 C1138 0.950 . S
H1119 C1139 0.950 . S
H1120 C1141 0.950 . S
H1121 C1144 0.950 . S
H1122 C1145 0.950 . S
H1123 C1147 0.950 . S
H1124 C1148 0.950 . S
H1125 C1149 0.951 . S
H1126 C1151 0.951 . S
H1127 C1153 0.950 . S
H1128 C1154 0.950 . S
H1129 C1156 0.950 . S
H1130 C1159 0.950 . S
H1131 C1160 0.950 . S
H1132 C1162 0.950 . S
H1133 C1163 0.950 . S
C1134 H1116 0.951 . S
C1134 C1135 1.366 . S
C1134 C1136 1.388 . S
C1135 C1134 1.366 . S
C1135 C1139 1.385 . S
C1136 H1117 0.951 . S
C1136 C1134 1.388 . S
C1136 C1137 1.366 . S
C1137 C1136 1.366 . S
C1137 C1138 1.414 . S
C1137 C1140 1.499 . S
C1138 H1118 0.950 . S
C1138 C1137 1.414 . S
C1138 C1139 1.374 . S
C1139 H1119 0.950 . S
C1139 C1135 1.385 . S
C1139 C1138 1.374 . S
C1140 C1137 1.499 . S
C1140 C1141 1.373 . S
C1140 C1142 1.389 . S
C1141 H1120 0.950 . S
C1141 C1140 1.373 . S
C1141 C1157 1.377 . S
C1142 C1140 1.389 . S
C1142 C1143 1.524 . S
C1142 C1156 1.377 . S
C1143 C1142 1.524 . S
C1143 C1144 1.397 . S
C1143 C1148 1.363 . S
C1144 H1121 0.950 . S
C1144 C1143 1.397 . S
C1144 C1145 1.334 . S
C1145 H1122 0.950 . S
C1145 C1144 1.334 . S
C1145 C1146 1.287 . S
C1146 C1145 1.287 . S
C1146 C1147 1.524 . S
C1146 H1165 0.913 . S
C1147 H1123 0.950 . S
C1147 C1146 1.524 . S
C1147 C1148 1.415 . S
C1148 H1124 0.950 . S
C1148 C1143 1.363 . S
C1148 C1147 1.415 . S
C1149 H1125 0.951 . S
C1149 C1150 1.366 . S
C1149 C1151 1.388 . S
C1150 C1149 1.366 . S
C1150 C1154 1.385 . S
C1151 H1126 0.951 . S
C1151 C1149 1.388 . S
C1151 C1152 1.366 . S
C1152 C1151 1.366 . S
C1152 C1153 1.414 . S
C1152 C1155 1.499 . S
C1153 H1127 0.950 . S
C1153 C1152 1.414 . S
C1153 C1154 1.374 . S
C1154 H1128 0.950 . S
C1154 C1150 1.385 . S
C1154 C1153 1.374 . S
C1155 C1152 1.499 . S
C1155 C1156 1.373 . S
C1155 C1157 1.389 . S
C1156 H1129 0.950 . S
C1156 C1142 1.377 . S
C1156 C1155 1.373 . S
C1157 C1141 1.377 . S
C1157 C1155 1.389 . S
C1157 C1158 1.524 . S
C1158 C1157 1.524 . S
C1158 C1159 1.397 . S
C1158 C1163 1.363 . S
C1159 H1130 0.950 . S
C1159 C1158 1.397 . S
C1159 C1160 1.334 . S
C1160 H1131 0.950 . S
C1160 C1159 1.334 . S
C1160 C1161 1.287 . S
C1161 C1160 1.287 . S
C1161 C1162 1.524 . S
C1161 H1164 0.999 1_556 S
C1162 H1132 0.950 . S
C1162 C1161 1.524 . S
C1162 C1163 1.415 . S
C1163 H1133 0.950 . S
C1163 C1158 1.363 . S
C1163 C1162 1.415 . S
H1164 C1161 0.999 1_554 S
H1165 C1146 0.913 . S
H1166 C1184 0.951 . S
H1167 C1186 0.951 . S
H1168 C1188 0.950 . S
H1169 C1189 0.950 . S
H1170 C1191 0.950 . S
H1171 C1194 0.950 . S
H1172 C1195 0.950 . S
H1173 C1197 0.950 . S
H1174 C1198 0.950 . S
H1175 C1199 0.951 . S
H1176 C1201 0.951 . S
H1177 C1203 0.950 . S
H1178 C1204 0.958 . S
H1179 C1206 0.950 . S
H1180 C1209 0.950 . S
H1181 C1210 0.950 . S
H1182 C1212 0.950 . S
H1183 C1213 0.950 . S
C1184 H1166 0.951 . S
C1184 C1185 1.366 . S
C1184 C1186 1.388 . S
C1185 C1184 1.366 . S
C1185 C1189 1.385 . S
C1186 H1167 0.951 . S
C1186 C1184 1.388 . S
C1186 C1187 1.366 . S
C1187 C1186 1.366 . S
C1187 C1188 1.414 . S
C1187 C1190 1.499 . S
C1188 H1168 0.950 . S
C1188 C1187 1.414 . S
C1188 C1189 1.374 . S
C1189 H1169 0.950 . S
C1189 C1185 1.385 . S
C1189 C1188 1.374 . S
C1190 C1187 1.499 . S
C1190 C1191 1.373 . S
C1190 C1192 1.389 . S
C1191 H1170 0.950 . S
C1191 C1190 1.373 . S
C1191 C1207 1.377 . S
C1192 C1190 1.389 . S
C1192 C1193 1.524 . S
C1192 C1206 1.377 . S
C1193 C1192 1.524 . S
C1193 C1194 1.397 . S
C1193 C1198 1.363 . S
C1194 H1171 0.950 . S
C1194 C1193 1.397 . S
C1194 C1195 1.334 . S
C1195 H1172 0.950 . S
C1195 C1194 1.334 . S
C1195 C1196 1.287 . S
C1196 C1195 1.287 . S
C1196 C1197 1.524 . S
C1196 H1215 0.913 . S
C1197 H1173 0.950 . S
C1197 C1196 1.524 . S
C1197 C1198 1.415 . S
C1198 H1174 0.950 . S
C1198 C1193 1.363 . S
C1198 C1197 1.415 . S
C1199 H1175 0.951 . S
C1199 C1200 1.366 . S
C1199 C1201 1.388 . S
C1200 C1199 1.366 . S
C1200 C1204 1.385 . S
C1201 H1176 0.951 . S
C1201 C1199 1.388 . S
C1201 C1202 1.366 1_556 S
C1202 C1201 1.366 1_554 S
C1202 C1203 1.414 . S
C1202 C1205 1.499 . S
C1203 H1177 0.950 . S
C1203 C1202 1.414 . S
C1203 C1204 1.374 1_554 S
C1204 H1178 0.958 . S
C1204 C1200 1.385 . S
C1204 C1203 1.374 1_556 S
C1205 C1202 1.499 . S
C1205 C1206 1.373 . S
C1205 C1207 1.389 . S
C1206 H1179 0.950 . S
C1206 C1192 1.377 . S
C1206 C1205 1.373 . S
C1207 C1191 1.377 . S
C1207 C1205 1.389 . S
C1207 C1208 1.524 . S
C1208 C1207 1.524 . S
C1208 C1209 1.397 . S
C1208 C1213 1.363 1_554 S
C1209 H1180 0.950 . S
C1209 C1208 1.397 . S
C1209 C1210 1.334 1_554 S
C1210 H1181 0.950 . S
C1210 C1209 1.334 1_556 S
C1210 C1211 1.287 . S
C1211 C1210 1.287 . S
C1211 C1212 1.524 . S
C1211 H1214 0.999 . S
C1212 H1182 0.950 . S
C1212 C1211 1.524 . S
C1212 C1213 1.415 . S
C1213 H1183 0.950 . S
C1213 C1208 1.363 1_556 S
C1213 C1212 1.415 . S
H1214 C1211 0.999 . S
H1215 C1196 0.913 . S
H1216 C1234 0.951 . S
H1217 C1236 0.951 . S
H1218 C1238 0.950 . S
H1219 C1239 0.950 . S
H1220 C1241 0.950 1_655 S
H1221 C1244 0.950 . S
H1222 C1245 0.950 . S
H1223 C1247 0.950 . S
H1224 C1248 0.950 . S
H1225 C1249 0.924 1_655 S
H1226 C1251 0.953 . S
H1227 C1253 0.950 . S
H1228 C1254 0.950 . S
H1229 C1256 0.950 . S
H1230 C1259 0.950 . S
H1231 C1260 0.950 . S
H1232 C1262 0.950 . S
H1233 C1263 0.950 . S
C1234 H1216 0.951 . S
C1234 C1235 1.366 . S
C1234 C1236 1.388 . S
C1235 C1234 1.366 . S
C1235 C1239 1.385 . S
C1236 H1217 0.951 . S
C1236 C1234 1.388 . S
C1236 C1237 1.366 . S
C1237 C1236 1.366 . S
C1237 C1238 1.414 . S
C1237 C1240 1.499 . S
C1238 H1218 0.950 . S
C1238 C1237 1.414 . S
C1238 C1239 1.374 . S
C1239 H1219 0.950 . S
C1239 C1235 1.385 . S
C1239 C1238 1.374 . S
C1240 C1237 1.499 . S
C1240 C1241 1.373 . S
C1240 C1242 1.389 . S
C1241 H1220 0.950 1_455 S
C1241 C1240 1.373 . S
C1241 C1257 1.377 . S
C1242 C1240 1.389 . S
C1242 C1243 1.524 . S
C1242 C1256 1.377 . S
C1243 C1242 1.524 . S
C1243 C1244 1.397 . S
C1243 C1248 1.363 . S
C1244 H1221 0.950 . S
C1244 C1243 1.397 . S
C1244 C1245 1.334 . S
C1245 H1222 0.950 . S
C1245 C1244 1.334 . S
C1245 C1246 1.287 . S
C1246 C1245 1.287 . S
C1246 C1247 1.524 . S
C1246 H1265 0.913 . S
C1247 H1223 0.950 . S
C1247 C1246 1.524 . S
C1247 C1248 1.415 . S
C1248 H1224 0.950 . S
C1248 C1243 1.363 . S
C1248 C1247 1.415 . S
C1249 H1225 0.924 1_455 S
C1249 C1250 1.366 . S
C1249 C1251 1.388 . S
C1250 C1249 1.366 . S
C1250 C1254 1.385 . S
C1251 H1226 0.953 . S
C1251 C1249 1.388 . S
C1251 C1252 1.366 . S
C1252 C1251 1.366 . S
C1252 C1253 1.414 . S
C1252 C1255 1.499 . S
C1253 H1227 0.950 . S
C1253 C1252 1.414 . S
C1253 C1254 1.374 . S
C1254 H1228 0.950 . S
C1254 C1250 1.385 . S
C1254 C1253 1.374 . S
C1255 C1252 1.499 . S
C1255 C1256 1.373 . S
C1255 C1257 1.389 . S
C1256 H1229 0.950 . S
C1256 C1242 1.377 . S
C1256 C1255 1.373 . S
C1257 C1241 1.377 . S
C1257 C1255 1.389 . S
C1257 C1258 1.524 1_455 S
C1258 C1257 1.524 1_655 S
C1258 C1259 1.397 . S
C1258 C1263 1.363 . S
C1259 H1230 0.950 . S
C1259 C1258 1.397 . S
C1259 C1260 1.334 . S
C1260 H1231 0.950 . S
C1260 C1259 1.334 . S
C1260 C1261 1.287 . S
C1261 C1260 1.287 . S
C1261 C1262 1.524 . S
C1261 H1264 0.999 . S
C1262 H1232 0.950 . S
C1262 C1261 1.524 . S
C1262 C1263 1.415 . S
C1263 H1233 0.950 . S
C1263 C1258 1.363 . S
C1263 C1262 1.415 . S
H1264 C1261 0.999 . S
H1265 C1246 0.913 . S
H1266 C1284 0.951 . S
H1267 C1286 0.951 . S
H1268 C1288 0.950 . S
H1269 C1289 0.950 1_554 S
H1270 C1291 0.950 . S
H1271 C1294 0.950 . S
H1272 C1295 0.950 . S
H1273 C1297 0.950 . S
H1274 C1298 0.950 . S
H1275 C1299 0.951 . S
H1276 C1301 0.951 . S
H1277 C1303 0.950 . S
H1278 C1304 0.950 . S
H1279 C1306 0.950 . S
H1280 C1309 0.950 . S
H1281 C1310 0.950 . S
H1282 C1312 0.950 1_565 S
H1283 C1313 0.950 1_554 S
C1284 H1266 0.951 . S
C1284 C1285 1.398 . S
C1284 C1286 1.388 . S
C1285 C1284 1.398 . S
C1285 C1289 1.358 1_545 S
C1286 H1267 0.951 . S
C1286 C1284 1.388 . S
C1286 C1287 1.366 . S
C1287 C1286 1.366 . S
C1287 C1288 1.414 1_545 S
C1287 C1290 1.499 . S
C1288 H1268 0.950 . S
C1288 C1287 1.414 1_565 S
C1288 C1289 1.374 . S
C1289 H1269 0.950 1_556 S
C1289 C1285 1.358 1_565 S
C1289 C1288 1.374 . S
C1290 C1287 1.499 . S
C1290 C1291 1.373 . S
C1290 C1292 1.389 . S
C1291 H1270 0.950 . S
C1291 C1290 1.373 . S
C1291 C1307 1.377 . S
C1292 C1290 1.389 . S
C1292 C1293 1.524 1_545 S
C1292 C1306 1.377 . S
C1293 C1292 1.524 1_565 S
C1293 C1294 1.397 . S
C1293 C1298 1.363 1_565 S
C1294 H1271 0.950 . S
C1294 C1293 1.397 . S
C1294 C1295 1.334 . S
C1295 H1272 0.950 . S
C1295 C1294 1.334 . S
C1295 C1296 1.287 . S
C1296 C1295 1.287 . S
C1296 C1297 1.524 1_565 S
C1296 H1315 0.913 . S
C1297 H1273 0.950 . S
C1297 C1296 1.524 1_545 S
C1297 C1298 1.415 . S
C1298 H1274 0.950 . S
C1298 C1293 1.363 1_545 S
C1298 C1297 1.415 . S
C1299 H1275 0.951 . S
C1299 C1300 1.366 1_565 S
C1299 C1301 1.388 . S
C1300 C1299 1.366 1_545 S
C1300 C1304 1.385 . S
C1301 H1276 0.951 . S
C1301 C1299 1.388 . S
C1301 C1302 1.366 1_565 S
C1302 C1301 1.366 1_545 S
C1302 C1303 1.414 . S
C1302 C1305 1.499 . S
C1303 H1277 0.950 . S
C1303 C1302 1.414 . S
C1303 C1304 1.374 . S
C1304 H1278 0.950 . S
C1304 C1300 1.385 . S
C1304 C1303 1.374 . S
C1305 C1302 1.499 . S
C1305 C1306 1.373 . S
C1305 C1307 1.389 . S
C1306 H1279 0.950 . S
C1306 C1292 1.377 . S
C1306 C1305 1.373 . S
C1307 C1291 1.377 . S
C1307 C1305 1.389 . S
C1307 C1308 1.524 . S
C1308 C1307 1.524 . S
C1308 C1309 1.397 . S
C1308 C1313 1.363 1_545 S
C1309 H1280 0.950 . S
C1309 C1308 1.397 . S
C1309 C1310 1.334 . S
C1310 H1281 0.950 . S
C1310 C1309 1.334 . S
C1310 C1311 1.287 1_556 S
C1311 C1310 1.287 1_554 S
C1311 C1312 1.524 . S
C1311 H1314 0.999 . S
C1312 H1282 0.950 1_545 S
C1312 C1311 1.524 . S
C1312 C1313 1.415 1_544 S
C1313 H1283 0.950 1_556 S
C1313 C1308 1.363 1_565 S
C1313 C1312 1.415 1_566 S
H1314 C1311 0.999 . S
H1315 C1296 0.913 . S
H1316 C1334 0.951 . S
H1317 C1336 0.951 . S
H1318 C1338 0.950 . S
H1319 C1339 0.950 . S
H1320 C1341 0.950 . S
H1321 C1344 0.950 . S
H1322 C1345 0.950 . S
H1323 C1347 0.950 . S
H1324 C1348 0.950 1_556 S
H1325 C1349 0.951 . S
H1326 C1351 0.951 . S
H1327 C1353 0.950 . S
H1328 C1354 0.950 . S
H1329 C1356 0.950 . S
H1330 C1359 0.950 . S
H1331 C1360 0.950 . S
H1332 C1362 0.950 . S
H1333 C1363 0.950 . S
C1334 H1316 0.951 . S
C1334 C1335 1.366 . S
C1334 C1336 1.388 . S
C1335 C1334 1.366 . S
C1335 C1339 1.385 . S
C1336 H1317 0.951 . S
C1336 C1334 1.388 . S
C1336 C1337 1.366 . S
C1337 C1336 1.366 . S
C1337 C1338 1.414 . S
C1337 C1340 1.499 . S
C1338 H1318 0.950 . S
C1338 C1337 1.414 . S
C1338 C1339 1.374 . S
C1339 H1319 0.950 . S
C1339 C1335 1.385 . S
C1339 C1338 1.374 . S
C1340 C1337 1.499 . S
C1340 C1341 1.373 1_554 S
C1340 C1342 1.389 1_554 S
C1341 H1320 0.950 . S
C1341 C1340 1.373 1_556 S
C1341 C1357 1.377 . S
C1342 C1340 1.389 1_556 S
C1342 C1343 1.524 1_556 S
C1342 C1356 1.377 . S
C1343 C1342 1.524 1_554 S
C1343 C1344 1.397 . S
C1343 C1348 1.363 . S
C1344 H1321 0.950 . S
C1344 C1343 1.397 . S
C1344 C1345 1.334 . S
C1345 H1322 0.950 . S
C1345 C1344 1.334 . S
C1345 C1346 1.287 . S
C1346 C1345 1.287 . S
C1346 C1347 1.524 . S
C1346 H1365 0.913 . S
C1347 H1323 0.950 . S
C1347 C1346 1.524 . S
C1347 C1348 1.415 . S
C1348 H1324 0.950 1_554 S
C1348 C1343 1.363 . S
C1348 C1347 1.415 . S
C1349 H1325 0.951 . S
C1349 C1350 1.366 . S
C1349 C1351 1.388 . S
C1350 C1349 1.366 . S
C1350 C1354 1.385 . S
C1351 H1326 0.951 . S
C1351 C1349 1.388 . S
C1351 C1352 1.366 . S
C1352 C1351 1.366 . S
C1352 C1353 1.414 . S
C1352 C1355 1.499 . S
C1353 H1327 0.950 . S
C1353 C1352 1.414 . S
C1353 C1354 1.374 . S
C1354 H1328 0.950 . S
C1354 C1350 1.385 . S
C1354 C1353 1.374 . S
C1355 C1352 1.499 . S
C1355 C1356 1.373 . S
C1355 C1357 1.389 . S
C1356 H1329 0.950 . S
C1356 C1342 1.377 . S
C1356 C1355 1.373 . S
C1357 C1341 1.377 . S
C1357 C1355 1.389 . S
C1357 C1358 1.524 . S
C1358 C1357 1.524 . S
C1358 C1359 1.397 . S
C1358 C1363 1.363 . S
C1359 H1330 0.950 . S
C1359 C1358 1.397 . S
C1359 C1360 1.334 . S
C1360 H1331 0.950 . S
C1360 C1359 1.334 . S
C1360 C1361 1.287 . S
C1361 C1360 1.287 . S
C1361 C1362 1.524 . S
C1361 H1364 0.999 . S
C1362 H1332 0.950 . S
C1362 C1361 1.524 . S
C1362 C1363 1.415 . S
C1363 H1333 0.950 . S
C1363 C1358 1.363 . S
C1363 C1362 1.415 . S
H1364 C1361 0.999 . S
H1365 C1346 0.913 . S
H1366 C1384 0.951 . S
H1367 C1386 0.951 . S
H1368 C1388 0.950 . S
H1369 C1389 0.950 . S
H1370 C1391 0.950 . S
H1371 C1394 0.950 . S
H1372 C1395 0.950 . S
H1373 C1397 0.950 . S
H1374 C1398 0.950 . S
H1375 C1399 0.951 . S
H1376 C1401 0.951 . S
H1377 C1403 0.950 . S
H1378 C1404 0.950 . S
H1379 C1406 0.950 . S
H1380 C1409 0.950 . S
H1381 C1410 0.950 . S
H1382 C1412 0.950 . S
H1383 C1413 0.950 . S
C1384 H1366 0.951 . S
C1384 C1385 1.366 . S
C1384 C1386 1.388 . S
C1385 C1384 1.366 . S
C1385 C1389 1.385 . S
C1386 H1367 0.951 . S
C1386 C1384 1.388 . S
C1386 C1387 1.366 . S
C1387 C1386 1.366 . S
C1387 C1388 1.414 . S
C1387 C1390 1.499 . S
C1388 H1368 0.950 . S
C1388 C1387 1.414 . S
C1388 C1389 1.374 . S
C1389 H1369 0.950 . S
C1389 C1385 1.385 . S
C1389 C1388 1.374 . S
C1390 C1387 1.499 . S
C1390 C1391 1.373 . S
C1390 C1392 1.389 . S
C1391 H1370 0.950 . S
C1391 C1390 1.373 . S
C1391 C1407 1.377 . S
C1392 C1390 1.389 . S
C1392 C1393 1.524 . S
C1392 C1406 1.377 . S
C1393 C1392 1.524 . S
C1393 C1394 1.397 . S
C1393 C1398 1.363 . S
C1394 H1371 0.950 . S
C1394 C1393 1.397 . S
C1394 C1395 1.334 . S
C1395 H1372 0.950 . S
C1395 C1394 1.334 . S
C1395 C1396 1.287 . S
C1396 C1395 1.287 . S
C1396 C1397 1.524 . S
C1396 H1415 0.913 . S
C1397 H1373 0.950 . S
C1397 C1396 1.524 . S
C1397 C1398 1.415 . S
C1398 H1374 0.950 . S
C1398 C1393 1.363 . S
C1398 C1397 1.415 . S
C1399 H1375 0.951 . S
C1399 C1400 1.366 . S
C1399 C1401 1.388 . S
C1400 C1399 1.366 . S
C1400 C1404 1.385 . S
C1401 H1376 0.951 . S
C1401 C1399 1.388 . S
C1401 C1402 1.366 . S
C1402 C1401 1.366 . S
C1402 C1403 1.414 . S
C1402 C1405 1.499 . S
C1403 H1377 0.950 . S
C1403 C1402 1.414 . S
C1403 C1404 1.374 . S
C1404 H1378 0.950 . S
C1404 C1400 1.385 . S
C1404 C1403 1.374 . S
C1405 C1402 1.499 . S
C1405 C1406 1.373 . S
C1405 C1407 1.389 . S
C1406 H1379 0.950 . S
C1406 C1392 1.377 . S
C1406 C1405 1.373 . S
C1407 C1391 1.377 . S
C1407 C1405 1.389 . S
C1407 C1408 1.524 . S
C1408 C1407 1.524 . S
C1408 C1409 1.397 . S
C1408 C1413 1.363 . S
C1409 H1380 0.950 . S
C1409 C1408 1.397 . S
C1409 C1410 1.334 . S
C1410 H1381 0.950 . S
C1410 C1409 1.334 . S
C1410 C1411 1.287 . S
C1411 C1410 1.287 . S
C1411 C1412 1.524 . S
C1411 H1414 0.999 . S
C1412 H1382 0.950 . S
C1412 C1411 1.524 . S
C1412 C1413 1.415 . S
C1413 H1383 0.950 . S
C1413 C1408 1.363 . S
C1413 C1412 1.415 . S
H1414 C1411 0.999 . S
H1415 C1396 0.913 . S
H1416 C1434 0.951 . S
H1417 C1436 0.951 . S
H1418 C1438 0.950 . S
H1419 C1439 0.950 . S
H1420 C1441 0.950 . S
H1421 C1444 0.950 . S
H1422 C1445 0.950 . S
H1423 C1447 0.950 . S
H1424 C1448 0.950 . S
H1425 C1449 0.970 . S
H1426 C1451 0.951 . S
H1427 C1453 0.950 . S
H1428 C1454 0.950 . S
H1429 C1456 0.944 1_455 S
H1430 C1459 0.950 . S
H1431 C1460 0.950 . S
H1432 C1462 0.950 . S
H1433 C1463 0.950 . S
C1434 H1416 0.951 . S
C1434 C1435 1.366 . S
C1434 C1436 1.388 . S
C1435 C1434 1.366 . S
C1435 C1439 1.385 . S
C1436 H1417 0.951 . S
C1436 C1434 1.388 . S
C1436 C1437 1.366 . S
C1437 C1436 1.366 . S
C1437 C1438 1.414 . S
C1437 C1440 1.499 . S
C1438 H1418 0.950 . S
C1438 C1437 1.414 . S
C1438 C1439 1.374 . S
C1439 H1419 0.950 . S
C1439 C1435 1.385 . S
C1439 C1438 1.374 . S
C1440 C1437 1.499 . S
C1440 C1441 1.373 . S
C1440 C1442 1.388 1_655 S
C1441 H1420 0.950 . S
C1441 C1440 1.373 . S
C1441 C1457 1.377 . S
C1442 C1440 1.388 1_455 S
C1442 C1443 1.526 . S
C1442 C1456 1.378 1_455 S
C1443 C1442 1.526 . S
C1443 C1444 1.397 . S
C1443 C1448 1.363 . S
C1444 H1421 0.950 . S
C1444 C1443 1.397 . S
C1444 C1445 1.334 . S
C1445 H1422 0.950 . S
C1445 C1444 1.334 . S
C1445 C1446 1.287 . S
C1446 C1445 1.287 . S
C1446 C1447 1.524 . S
C1446 H1465 0.913 . S
C1447 H1423 0.950 . S
C1447 C1446 1.524 . S
C1447 C1448 1.415 . S
C1448 H1424 0.950 . S
C1448 C1443 1.363 . S
C1448 C1447 1.415 . S
C1449 H1425 0.970 . S
C1449 C1450 1.366 . S
C1449 C1451 1.388 . S
C1450 C1449 1.366 . S
C1450 C1454 1.385 . S
C1451 H1426 0.951 . S
C1451 C1449 1.388 . S
C1451 C1452 1.366 . S
C1452 C1451 1.366 . S
C1452 C1453 1.414 . S
C1452 C1455 1.499 . S
C1453 H1427 0.950 . S
C1453 C1452 1.414 . S
C1453 C1454 1.374 . S
C1454 H1428 0.950 . S
C1454 C1450 1.385 . S
C1454 C1453 1.374 . S
C1455 C1452 1.499 . S
C1455 C1456 1.378 . S
C1455 C1457 1.389 . S
C1456 H1429 0.944 1_655 S
C1456 C1442 1.378 1_655 S
C1456 C1455 1.378 . S
C1457 C1441 1.377 . S
C1457 C1455 1.389 . S
C1457 C1458 1.524 . S
C1458 C1457 1.524 . S
C1458 C1459 1.397 . S
C1458 C1463 1.363 . S
C1459 H1430 0.950 . S
C1459 C1458 1.397 . S
C1459 C1460 1.334 . S
C1460 H1431 0.950 . S
C1460 C1459 1.334 . S
C1460 C1461 1.287 . S
C1461 C1460 1.287 . S
C1461 C1462 1.524 . S
C1461 H1464 0.999 . S
C1462 H1432 0.950 . S
C1462 C1461 1.524 . S
C1462 C1463 1.415 . S
C1463 H1433 0.950 . S
C1463 C1458 1.363 . S
C1463 C1462 1.415 . S
H1464 C1461 0.999 . S
H1465 C1446 0.913 . S
H1466 C1484 0.951 . S
H1467 C1486 0.951 . S
H1468 C1488 0.950 . S
H1469 C1489 0.950 . S
H1470 C1491 0.950 . S
H1471 C1494 0.925 1_545 S
H1472 C1495 0.950 . S
H1473 C1497 0.950 . S
H1474 C1498 0.950 . S
H1475 C1499 0.951 . S
H1476 C1501 0.951 . S
H1477 C1503 0.950 . S
H1478 C1504 0.950 . S
H1479 C1506 0.950 . S
H1480 C1509 0.950 1_565 S
H1481 C1510 0.950 . S
H1482 C1512 0.950 . S
H1483 C1513 0.950 . S
C1484 H1466 0.951 . S
C1484 C1485 1.397 . S
C1484 C1486 1.388 . S
C1485 C1484 1.397 . S
C1485 C1489 1.357 1_565 S
C1486 H1467 0.951 . S
C1486 C1484 1.388 . S
C1486 C1487 1.366 . S
C1487 C1486 1.366 . S
C1487 C1488 1.414 1_565 S
C1487 C1490 1.499 . S
C1488 H1468 0.950 . S
C1488 C1487 1.414 1_545 S
C1488 C1489 1.374 . S
C1489 H1469 0.950 . S
C1489 C1485 1.357 1_545 S
C1489 C1488 1.374 . S
C1490 C1487 1.499 . S
C1490 C1491 1.373 1_565 S
C1490 C1492 1.389 . S
C1491 H1470 0.950 . S
C1491 C1490 1.373 1_545 S
C1491 C1507 1.377 . S
C1492 C1490 1.389 . S
C1492 C1493 1.524 . S
C1492 C1506 1.377 . S
C1493 C1492 1.524 . S
C1493 C1494 1.397 . S
C1493 C1498 1.363 . S
C1494 H1471 0.925 1_565 S
C1494 C1493 1.397 . S
C1494 C1495 1.334 . S
C1495 H1472 0.950 . S
C1495 C1494 1.334 . S
C1495 C1496 1.287 . S
C1496 C1495 1.287 . S
C1496 C1497 1.524 . S
C1496 H1515 0.913 . S
C1497 H1473 0.950 . S
C1497 C1496 1.524 . S
C1497 C1498 1.415 . S
C1498 H1474 0.950 . S
C1498 C1493 1.363 . S
C1498 C1497 1.415 . S
C1499 H1475 0.951 . S
C1499 C1500 1.366 1_545 S
C1499 C1501 1.388 . S
C1500 C1499 1.366 1_565 S
C1500 C1504 1.385 . S
C1501 H1476 0.951 . S
C1501 C1499 1.388 . S
C1501 C1502 1.366 1_545 S
C1502 C1501 1.366 1_565 S
C1502 C1503 1.414 . S
C1502 C1505 1.499 . S
C1503 H1477 0.950 . S
C1503 C1502 1.414 . S
C1503 C1504 1.374 . S
C1504 H1478 0.950 . S
C1504 C1500 1.385 . S
C1504 C1503 1.374 . S
C1505 C1502 1.499 . S
C1505 C1506 1.373 . S
C1505 C1507 1.389 1_565 S
C1506 H1479 0.950 . S
C1506 C1492 1.377 . S
C1506 C1505 1.373 . S
C1507 C1491 1.377 . S
C1507 C1505 1.389 1_545 S
C1507 C1508 1.524 . S
C1508 C1507 1.524 . S
C1508 C1509 1.397 . S
C1508 C1513 1.363 . S
C1509 H1480 0.950 1_545 S
C1509 C1508 1.397 . S
C1509 C1510 1.334 . S
C1510 H1481 0.950 . S
C1510 C1509 1.334 . S
C1510 C1511 1.287 . S
C1511 C1510 1.287 . S
C1511 C1512 1.524 . S
C1511 H1514 0.999 . S
C1512 H1482 0.950 . S
C1512 C1511 1.524 . S
C1512 C1513 1.415 . S
C1513 H1483 0.950 . S
C1513 C1508 1.363 . S
C1513 C1512 1.415 . S
H1514 C1511 0.999 . S
H1515 C1496 0.913 . S
H1516 C1534 0.951 . S
H1517 C1536 0.951 . S
H1518 C1538 0.950 . S
H1519 C1539 0.950 . S
H1520 C1541 0.950 . S
H1521 C1544 0.950 . S
H1522 C1545 0.950 . S
H1523 C1547 0.950 . S
H1524 C1548 0.950 . S
H1525 C1549 0.951 . S
H1526 C1551 0.951 . S
H1527 C1553 0.950 . S
H1528 C1554 0.950 . S
H1529 C1556 0.950 . S
H1530 C1559 0.950 . S
H1531 C1560 0.950 . S
H1532 C1562 0.950 . S
H1533 C1563 0.950 . S
C1534 H1516 0.951 . S
C1534 C1535 1.366 . S
C1534 C1536 1.388 . S
C1535 C1534 1.366 . S
C1535 C1539 1.385 . S
C1536 H1517 0.951 . S
C1536 C1534 1.388 . S
C1536 C1537 1.366 . S
C1537 C1536 1.366 . S
C1537 C1538 1.414 . S
C1537 C1540 1.499 . S
C1538 H1518 0.950 . S
C1538 C1537 1.414 . S
C1538 C1539 1.374 . S
C1539 H1519 0.950 . S
C1539 C1535 1.385 . S
C1539 C1538 1.374 . S
C1540 C1537 1.499 . S
C1540 C1541 1.373 . S
C1540 C1542 1.389 . S
C1541 H1520 0.950 . S
C1541 C1540 1.373 . S
C1541 C1557 1.377 . S
C1542 C1540 1.389 . S
C1542 C1543 1.524 . S
C1542 C1556 1.377 . S
C1543 C1542 1.524 . S
C1543 C1544 1.397 . S
C1543 C1548 1.363 . S
C1544 H1521 0.950 . S
C1544 C1543 1.397 . S
C1544 C1545 1.334 . S
C1545 H1522 0.950 . S
C1545 C1544 1.334 . S
C1545 C1546 1.287 . S
C1546 C1545 1.287 . S
C1546 C1547 1.524 . S
C1546 H1565 0.913 . S
C1547 H1523 0.950 . S
C1547 C1546 1.524 . S
C1547 C1548 1.415 . S
C1548 H1524 0.950 . S
C1548 C1543 1.363 . S
C1548 C1547 1.415 . S
C1549 H1525 0.951 . S
C1549 C1550 1.366 . S
C1549 C1551 1.388 . S
C1550 C1549 1.366 . S
C1550 C1554 1.385 . S
C1551 H1526 0.951 . S
C1551 C1549 1.388 . S
C1551 C1552 1.366 . S
C1552 C1551 1.366 . S
C1552 C1553 1.414 . S
C1552 C1555 1.499 . S
C1553 H1527 0.950 . S
C1553 C1552 1.414 . S
C1553 C1554 1.374 . S
C1554 H1528 0.950 . S
C1554 C1550 1.385 . S
C1554 C1553 1.374 . S
C1555 C1552 1.499 . S
C1555 C1556 1.373 . S
C1555 C1557 1.389 . S
C1556 H1529 0.950 . S
C1556 C1542 1.377 . S
C1556 C1555 1.373 . S
C1557 C1541 1.377 . S
C1557 C1555 1.389 . S
C1557 C1558 1.524 . S
C1558 C1557 1.524 . S
C1558 C1559 1.397 . S
C1558 C1563 1.363 . S
C1559 H1530 0.950 . S
C1559 C1558 1.397 . S
C1559 C1560 1.334 . S
C1560 H1531 0.950 . S
C1560 C1559 1.334 . S
C1560 C1561 1.287 . S
C1561 C1560 1.287 . S
C1561 C1562 1.524 . S
C1561 H1564 0.999 . S
C1562 H1532 0.950 . S
C1562 C1561 1.524 . S
C1562 C1563 1.415 . S
C1563 H1533 0.950 . S
C1563 C1558 1.363 . S
C1563 C1562 1.415 . S
H1564 C1561 0.999 . S
H1565 C1546 0.913 . S
H1566 C1584 0.951 . S
H1567 C1586 0.951 . S
H1568 C1588 0.950 . S
H1569 C1589 0.950 . S
H1570 C1591 0.950 . S
H1571 C1594 0.950 . S
H1572 C1595 0.950 . S
H1573 C1597 0.950 . S
H1574 C1598 0.950 . S
H1575 C1599 0.951 . S
H1576 C1601 0.951 . S
H1577 C1603 0.950 . S
H1578 C1604 0.950 . S
H1579 C1606 0.950 . S
H1580 C1609 0.950 . S
H1581 C1610 0.950 . S
H1582 C1612 0.950 . S
H1583 C1613 0.950 . S
C1584 H1566 0.951 . S
C1584 C1585 1.366 . S
C1584 C1586 1.388 . S
C1585 C1584 1.366 . S
C1585 C1589 1.385 . S
C1586 H1567 0.951 . S
C1586 C1584 1.388 . S
C1586 C1587 1.366 . S
C1587 C1586 1.366 . S
C1587 C1588 1.414 . S
C1587 C1590 1.499 . S
C1588 H1568 0.950 . S
C1588 C1587 1.414 . S
C1588 C1589 1.374 . S
C1589 H1569 0.950 . S
C1589 C1585 1.385 . S
C1589 C1588 1.374 . S
C1590 C1587 1.499 . S
C1590 C1591 1.373 . S
C1590 C1592 1.389 . S
C1591 H1570 0.950 . S
C1591 C1590 1.373 . S
C1591 C1607 1.377 . S
C1592 C1590 1.389 . S
C1592 C1593 1.524 . S
C1592 C1606 1.377 . S
C1593 C1592 1.524 . S
C1593 C1594 1.397 . S
C1593 C1598 1.363 . S
C1594 H1571 0.950 . S
C1594 C1593 1.397 . S
C1594 C1595 1.334 . S
C1595 H1572 0.950 . S
C1595 C1594 1.334 . S
C1595 C1596 1.287 . S
C1596 C1595 1.287 . S
C1596 C1597 1.524 . S
C1596 H1615 0.913 . S
C1597 H1573 0.950 . S
C1597 C1596 1.524 . S
C1597 C1598 1.415 . S
C1598 H1574 0.950 . S
C1598 C1593 1.363 . S
C1598 C1597 1.415 . S
C1599 H1575 0.951 . S
C1599 C1600 1.366 . S
C1599 C1601 1.388 . S
C1600 C1599 1.366 . S
C1600 C1604 1.385 . S
C1601 H1576 0.951 . S
C1601 C1599 1.388 . S
C1601 C1602 1.366 . S
C1602 C1601 1.366 . S
C1602 C1603 1.414 . S
C1602 C1605 1.499 . S
C1603 H1577 0.950 . S
C1603 C1602 1.414 . S
C1603 C1604 1.374 . S
C1604 H1578 0.950 . S
C1604 C1600 1.385 . S
C1604 C1603 1.374 . S
C1605 C1602 1.499 . S
C1605 C1606 1.373 . S
C1605 C1607 1.389 . S
C1606 H1579 0.950 . S
C1606 C1592 1.377 . S
C1606 C1605 1.373 . S
C1607 C1591 1.377 . S
C1607 C1605 1.389 . S
C1607 C1608 1.524 . S
C1608 C1607 1.524 . S
C1608 C1609 1.397 . S
C1608 C1613 1.363 . S
C1609 H1580 0.950 . S
C1609 C1608 1.397 . S
C1609 C1610 1.334 . S
C1610 H1581 0.950 . S
C1610 C1609 1.334 . S
C1610 C1611 1.287 . S
C1611 C1610 1.287 . S
C1611 C1612 1.524 . S
C1611 H1614 0.999 . S
C1612 H1582 0.950 . S
C1612 C1611 1.524 . S
C1612 C1613 1.415 . S
C1613 H1583 0.950 . S
C1613 C1608 1.363 . S
C1613 C1612 1.415 . S
H1614 C1611 0.999 . S
H1615 C1596 0.913 . S
C435 C215 1.747 . S
C450 C258 1.805 . S
C500 C298 2.041 . S
C485 C247 2.027 . S
C550 C362 2.111 . S
C535 C151 2.077 . S
C600 C378 1.634 . S
C585 C183 1.533 . S
C650 C279 1.808 . S
C635 C87 1.745 . S
C685 C119 1.943 1_556 S
C700 C319 2.045 . S
C735 C23 2.004 . S
C750 C353 2.111 . S
C785 C55 1.505 . S
C800 C399 1.634 1_655 S
C850 C273 0.317 . S
C835 C189 0.144 . S
C900 C313 0.403 . S
C885 C221 0.430 . S
C950 C349 0.457 . S
C935 C253 0.211 . S
C985 C157 0.324 . S
C1000 C393 0.483 . S
C1035 C61 0.473 . S
C1050 C282 0.321 . S
C1100 C322 0.406 . S
C1085 C93 0.431 1_565 S
C1150 C360 0.457 . S
C1135 C125 0.671 . S
C1185 C29 0.553 . S
C1200 C402 0.480 . S
C1235 C177 2.188 . S
C1250 C280 2.372 . S
C1285 C209 1.983 1_556 S
C1300 C320 2.152 . S
C1350 C338 1.644 . S
C1335 C241 1.649 . S
C1400 C400 2.685 . S
C1385 C145 2.473 . S
C1435 C49 2.172 . S
C1450 C269 2.384 . S
C1500 C309 2.152 . S
C1485 C81 1.984 1_565 S
C1550 C359 1.643 . S
C1535 C113 1.580 . S
C1585 C17 2.424 . S
C1600 C389 2.685 . S
