# Generated by pormake.
# Topology pyr, (3,6)-cn, num edge types: 1
# Building blocks:
#     Node 0, Type 0, BuildingBlock: KAKCAD_clean_linker_0, # of connection points: 3
#     Node 1, Type 0, BuildingBlock: KAKCAD_clean_linker_0, # of connection points: 3
#     Node 2, Type 0, BuildingBlock: KAKCAD_clean_linker_0, # of connection points: 3
#     Node 3, Type 0, BuildingBlock: KAKCAD_clean_linker_0, # of connection points: 3
#     Node 4, Type 0, BuildingBlock: KAKCAD_clean_linker_0, # of connection points: 3
#     Node 5, Type 0, BuildingBlock: KAKCAD_clean_linker_0, # of connection points: 3
#     Node 6, Type 0, BuildingBlock: KAKCAD_clean_linker_0, # of connection points: 3
#     Node 7, Type 0, BuildingBlock: KAKCAD_clean_linker_0, # of connection points: 3
#     Node 8, Type 1, BuildingBlock: PAMTOO_clean_sbu_0, # of connection points: 6
#     Node 9, Type 1, BuildingBlock: PAMTOO_clean_sbu_0, # of connection points: 6
#     Node 10, Type 1, BuildingBlock: PAMTOO_clean_sbu_0, # of connection points: 6
#     Node 11, Type 1, BuildingBlock: PAMTOO_clean_sbu_0, # of connection points: 6
#     Edge 12, Type (0, 1), BuildingBlock: UVAHIK_clean_linker_0, # of connection points: 2
#     Edge 13, Type (0, 1), BuildingBlock: UVAHIK_clean_linker_0, # of connection points: 2
#     Edge 14, Type (0, 1), BuildingBlock: UVAHIK_clean_linker_0, # of connection points: 2
#     Edge 15, Type (0, 1), BuildingBlock: UVAHIK_clean_linker_0, # of connection points: 2
#     Edge 16, Type (0, 1), BuildingBlock: UVAHIK_clean_linker_0, # of connection points: 2
#     Edge 17, Type (0, 1), BuildingBlock: UVAHIK_clean_linker_0, # of connection points: 2
#     Edge 18, Type (0, 1), BuildingBlock: UVAHIK_clean_linker_0, # of connection points: 2
#     Edge 19, Type (0, 1), BuildingBlock: UVAHIK_clean_linker_0, # of connection points: 2
#     Edge 20, Type (0, 1), BuildingBlock: UVAHIK_clean_linker_0, # of connection points: 2
#     Edge 21, Type (0, 1), BuildingBlock: UVAHIK_clean_linker_0, # of connection points: 2
#     Edge 22, Type (0, 1), BuildingBlock: UVAHIK_clean_linker_0, # of connection points: 2
#     Edge 23, Type (0, 1), BuildingBlock: UVAHIK_clean_linker_0, # of connection points: 2
#     Edge 24, Type (0, 1), BuildingBlock: UVAHIK_clean_linker_0, # of connection points: 2
#     Edge 25, Type (0, 1), BuildingBlock: UVAHIK_clean_linker_0, # of connection points: 2
#     Edge 26, Type (0, 1), BuildingBlock: UVAHIK_clean_linker_0, # of connection points: 2
#     Edge 27, Type (0, 1), BuildingBlock: UVAHIK_clean_linker_0, # of connection points: 2
#     Edge 28, Type (0, 1), BuildingBlock: UVAHIK_clean_linker_0, # of connection points: 2
#     Edge 29, Type (0, 1), BuildingBlock: UVAHIK_clean_linker_0, # of connection points: 2
#     Edge 30, Type (0, 1), BuildingBlock: UVAHIK_clean_linker_0, # of connection points: 2
#     Edge 31, Type (0, 1), BuildingBlock: UVAHIK_clean_linker_0, # of connection points: 2
#     Edge 32, Type (0, 1), BuildingBlock: UVAHIK_clean_linker_0, # of connection points: 2
#     Edge 33, Type (0, 1), BuildingBlock: UVAHIK_clean_linker_0, # of connection points: 2
#     Edge 34, Type (0, 1), BuildingBlock: UVAHIK_clean_linker_0, # of connection points: 2
#     Edge 35, Type (0, 1), BuildingBlock: UVAHIK_clean_linker_0, # of connection points: 2
# Relax obj value: 0.070
# Max RMSD: 0.146
# Mean RMSD: 0.064
data_MOF--net-pyr--node1-PAMTOO_clean_sbu_0--node2-KAKCAD_clean_linker_0--edge1-UVAHIK_clean_linker_0
_symmetry_space_group_name_H-M    P1
_symmetry_Int_Tables_number       1
_symmetry_cell_setting            triclinic
loop_
_symmetry_equiv_pos_as_xyz
'x, y, z'
_cell_length_a     56.118614
_cell_length_b     58.537516
_cell_length_c     59.055563
_cell_angle_alpha  90.173618
_cell_angle_beta   89.934723
_cell_angle_gamma 101.23475
loop_
_atom_site_label
_atom_site_type_symbol
_atom_site_fract_x
_atom_site_fract_y
_atom_site_fract_z
_atom_type_partial_charge
C0 C 0.25705 0.2226 0.28239 0.0
C1 C 0.27302 0.21789 0.29927 0.0
C2 C 0.26596 0.23278 0.26202 0.0
C3 C 0.29109 0.23858 0.25795 0.0
C4 C 0.30716 0.23395 0.27481 0.0
C5 C 0.2982 0.22371 0.2953 0.0
C6 C 0.30007 0.24852 0.23572 0.0
C7 C 0.28856 0.26487 0.22519 0.0
C8 C 0.29382 0.27168 0.20268 0.0
C9 C 0.31196 0.2629 0.19103 0.0
C10 C 0.32421 0.24696 0.20153 0.0
C11 C 0.31822 0.23996 0.22393 0.0
C12 C 0.34141 0.23572 0.18848 0.0
C13 C 0.33533 0.22708 0.16659 0.0
C14 C 0.36321 0.23219 0.19828 0.0
C15 C 0.37838 0.21987 0.1866 0.0
C16 C 0.37198 0.21069 0.16492 0.0
C17 C 0.27867 0.28617 0.19097 0.0
C18 C 0.25341 0.28163 0.19446 0.0
C19 C 0.28895 0.30429 0.17626 0.0
C20 C 0.27424 0.3179 0.16569 0.0
C21 C 0.24906 0.31362 0.16974 0.0
C22 C 0.23884 0.2952 0.18405 0.0
C23 C 0.3504 0.21468 0.15498 0.0
H24 H 0.23756 0.21781 0.28462 0.0
H25 H 0.25304 0.23552 0.24918 0.0
H26 H 0.32662 0.23831 0.27218 0.0
H27 H 0.31096 0.22039 0.30804 0.0
H28 H 0.27485 0.27186 0.23439 0.0
H29 H 0.32658 0.2267 0.23164 0.0
H30 H 0.31591 0.26779 0.17354 0.0
H31 H 0.31844 0.22913 0.15875 0.0
H32 H 0.36843 0.23883 0.21507 0.0
H33 H 0.39504 0.21742 0.19462 0.0
H34 H 0.24479 0.26736 0.20513 0.0
H35 H 0.30836 0.3082 0.17324 0.0
H36 H 0.34464 0.2075 0.1385 0.0
H37 H 0.21942 0.29108 0.18704 0.0
H38 H 0.28259 0.33201 0.15472 0.0
C39 C 0.21502 0.79579 0.7878 0.0
C40 C 0.24011 0.80435 0.79019 0.0
C41 C 0.2054 0.78683 0.76703 0.0
C42 C 0.22069 0.78621 0.74827 0.0
C43 C 0.24576 0.79468 0.75071 0.0
C44 C 0.25534 0.80364 0.77139 0.0
C45 C 0.21066 0.77726 0.726 0.0
C46 C 0.18983 0.78399 0.71721 0.0
C47 C 0.18142 0.77712 0.69531 0.0
C48 C 0.19377 0.76279 0.68246 0.0
C49 C 0.21473 0.7562 0.69098 0.0
C50 C 0.22293 0.76331 0.71275 0.0
C51 C 0.2294 0.74357 0.67655 0.0
C52 C 0.21919 0.72204 0.6667 0.0
C53 C 0.25404 0.75309 0.67289 0.0
C54 C 0.26835 0.74121 0.65977 0.0
C55 C 0.25838 0.71941 0.65033 0.0
C56 C 0.16141 0.78695 0.68512 0.0
C57 C 0.14116 0.7898 0.6981 0.0
C58 C 0.16339 0.79524 0.66274 0.0
C59 C 0.14601 0.80681 0.65383 0.0
C60 C 0.12625 0.81043 0.66707 0.0
C61 C 0.12378 0.80145 0.68918 0.0
C62 C 0.23368 0.70989 0.65387 0.0
H63 H 0.20283 0.7959 0.80201 0.0
H64 H 0.18603 0.78025 0.76569 0.0
H65 H 0.25797 0.7949 0.73645 0.0
H66 H 0.27466 0.81058 0.77246 0.0
H67 H 0.18105 0.79575 0.72692 0.0
H68 H 0.23912 0.75811 0.71929 0.0
H69 H 0.18768 0.75751 0.66548 0.0
H70 H 0.2002 0.71441 0.66935 0.0
H71 H 0.26223 0.76977 0.68021 0.0
H72 H 0.2874 0.74881 0.65747 0.0
H73 H 0.13895 0.78334 0.7153 0.0
H74 H 0.17896 0.79376 0.6524 0.0
H75 H 0.22562 0.6931 0.64671 0.0
H76 H 0.10858 0.80371 0.6997 0.0
H77 H 0.14868 0.81384 0.63687 0.0
C78 C 0.72842 0.41421 0.86079 0.0
C79 C 0.74433 0.40122 0.87069 0.0
C80 C 0.70709 0.40305 0.84991 0.0
C81 C 0.70116 0.37859 0.84844 0.0
C82 C 0.71737 0.36567 0.85788 0.0
C83 C 0.73846 0.37678 0.86898 0.0
C84 C 0.67794 0.36645 0.83772 0.0
C85 C 0.66841 0.37567 0.81851 0.0
C86 C 0.64638 0.36433 0.80853 0.0
C87 C 0.63418 0.34306 0.81793 0.0
C88 C 0.64375 0.33325 0.83679 0.0
C89 C 0.66528 0.34536 0.84675 0.0
C90 C 0.63181 0.31017 0.84615 0.0
C91 C 0.60652 0.30439 0.84943 0.0
C92 C 0.64601 0.29394 0.85257 0.0
C93 C 0.63535 0.27273 0.86246 0.0
C94 C 0.61014 0.26706 0.86619 0.0
C95 C 0.63647 0.37462 0.78816 0.0
C96 C 0.63954 0.39893 0.7856 0.0
C97 C 0.62414 0.36033 0.77093 0.0
C98 C 0.61526 0.37004 0.75178 0.0
C99 C 0.61868 0.39437 0.74905 0.0
C100 C 0.63098 0.40864 0.76631 0.0
C101 C 0.59582 0.28312 0.85942 0.0
H102 H 0.7324 0.43305 0.86139 0.0
H103 H 0.69502 0.41363 0.84304 0.0
H104 H 0.71379 0.34685 0.85676 0.0
H105 H 0.74991 0.36603 0.87661 0.0
H106 H 0.67856 0.39142 0.81094 0.0
H107 H 0.67199 0.33838 0.86191 0.0
H108 H 0.61732 0.33399 0.81053 0.0
H109 H 0.59507 0.31652 0.84477 0.0
H110 H 0.6655 0.29767 0.85004 0.0
H111 H 0.64703 0.26099 0.86764 0.0
H112 H 0.64852 0.41063 0.79856 0.0
H113 H 0.62161 0.34155 0.772 0.0
H114 H 0.57632 0.27924 0.86182 0.0
H115 H 0.63438 0.42742 0.76487 0.0
H116 H 0.60557 0.35835 0.73917 0.0
C117 C 0.8666 0.63624 0.25175 0.0
C118 C 0.89131 0.6349 0.24946 0.0
C119 C 0.85813 0.64588 0.27118 0.0
C120 C 0.87413 0.65486 0.28874 0.0
C121 C 0.89887 0.65407 0.28638 0.0
C122 C 0.90732 0.64405 0.2671 0.0
C123 C 0.86482 0.66439 0.30968 0.0
C124 C 0.84452 0.65143 0.32099 0.0
C125 C 0.83538 0.66002 0.34079 0.0
C126 C 0.8466 0.68208 0.34893 0.0
C127 C 0.8667 0.69557 0.33783 0.0
C128 C 0.87595 0.68637 0.31833 0.0
C129 C 0.87757 0.71924 0.3468 0.0
C130 C 0.86253 0.73366 0.3558 0.0
C131 C 0.90288 0.72728 0.34742 0.0
C132 C 0.91283 0.74882 0.35742 0.0
C133 C 0.89773 0.76287 0.36711 0.0
C134 C 0.81397 0.6463 0.35299 0.0
C135 C 0.7939 0.63376 0.34104 0.0
C136 C 0.81305 0.64644 0.37681 0.0
C137 C 0.79232 0.63518 0.38833 0.0
C138 C 0.77202 0.62323 0.37639 0.0
C139 C 0.77319 0.62228 0.35262 0.0
C140 C 0.87242 0.755 0.36593 0.0
H141 H 0.8537 0.63002 0.23844 0.0
H142 H 0.839 0.6465 0.2724 0.0
H143 H 0.91159 0.66066 0.29975 0.0
H144 H 0.92636 0.64308 0.26633 0.0
H145 H 0.83623 0.63434 0.31464 0.0
H146 H 0.89127 0.69658 0.30942 0.0
H147 H 0.83952 0.68889 0.36405 0.0
H148 H 0.84294 0.72836 0.35525 0.0
H149 H 0.91506 0.71667 0.34073 0.0
H150 H 0.93239 0.75439 0.35762 0.0
H151 H 0.79383 0.63343 0.32271 0.0
H152 H 0.82836 0.65539 0.38664 0.0
H153 H 0.86009 0.76501 0.37337 0.0
H154 H 0.75777 0.61333 0.34293 0.0
H155 H 0.79216 0.63586 0.40667 0.0
C156 C 0.73651 0.78008 0.74948 0.0
C157 C 0.73652 0.80302 0.74255 0.0
C158 C 0.72684 0.77216 0.77052 0.0
C159 C 0.71725 0.78711 0.78517 0.0
C160 C 0.71696 0.80994 0.77796 0.0
C161 C 0.72636 0.81774 0.75688 0.0
C162 C 0.70887 0.77958 0.80839 0.0
C163 C 0.72167 0.76596 0.82139 0.0
C164 C 0.71528 0.76051 0.84404 0.0
C165 C 0.69617 0.76947 0.85388 0.0
C166 C 0.68314 0.78326 0.8412 0.0
C167 C 0.68918 0.78749 0.81826 0.0
C168 C 0.6644 0.79457 0.85214 0.0
C169 C 0.64971 0.78364 0.86991 0.0
C170 C 0.66181 0.81704 0.84545 0.0
C171 C 0.64511 0.82823 0.85616 0.0
C172 C 0.63099 0.81752 0.87417 0.0
C173 C 0.72938 0.74631 0.85751 0.0
C174 C 0.73714 0.72718 0.84755 0.0
C175 C 0.73594 0.75218 0.88008 0.0
C176 C 0.75036 0.73951 0.89221 0.0
C177 C 0.75867 0.72076 0.88201 0.0
C178 C 0.75167 0.71464 0.85959 0.0
C179 C 0.63336 0.79514 0.88099 0.0
H180 H 0.7441 0.76832 0.73866 0.0
H181 H 0.72705 0.75437 0.77537 0.0
H182 H 0.71027 0.82215 0.78893 0.0
H183 H 0.7265 0.83564 0.75216 0.0
H184 H 0.73739 0.76041 0.8142 0.0
H185 H 0.6787 0.79729 0.80805 0.0
H186 H 0.69179 0.76602 0.87155 0.0
H187 H 0.65083 0.76624 0.87534 0.0
H188 H 0.67317 0.8264 0.83233 0.0
H189 H 0.64382 0.84567 0.85087 0.0
H190 H 0.73216 0.72199 0.83031 0.0
H191 H 0.73049 0.76694 0.88823 0.0
H192 H 0.62256 0.78656 0.89487 0.0
H193 H 0.75796 0.70053 0.85105 0.0
H194 H 0.75514 0.74453 0.90952 0.0
C195 C 0.77162 0.20291 0.27698 0.0
C196 C 0.76221 0.21652 0.26102 0.0
C197 C 0.78621 0.21337 0.29467 0.0
C198 C 0.79187 0.23774 0.29681 0.0
C199 C 0.78329 0.25143 0.28031 0.0
C200 C 0.76865 0.24091 0.26252 0.0
C201 C 0.80484 0.24845 0.3173 0.0
C202 C 0.82375 0.23911 0.32672 0.0
C203 C 0.83311 0.24604 0.34829 0.0
C204 C 0.82416 0.26367 0.35993 0.0
C205 C 0.80591 0.27394 0.35025 0.0
C206 C 0.79637 0.26615 0.32898 0.0
C207 C 0.79475 0.29114 0.36287 0.0
C208 C 0.7869 0.28686 0.38535 0.0
C209 C 0.78914 0.31048 0.35153 0.0
C210 C 0.7745 0.32424 0.36181 0.0
C211 C 0.76517 0.31899 0.38367 0.0
C212 C 0.85087 0.23353 0.35903 0.0
C213 C 0.84854 0.20936 0.3558 0.0
C214 C 0.87011 0.24532 0.37248 0.0
C215 C 0.88675 0.23321 0.3822 0.0
C216 C 0.88459 0.20918 0.37841 0.0
C217 C 0.86528 0.1974 0.3652 0.0
C218 C 0.77223 0.3007 0.39568 0.0
H219 H 0.76729 0.18406 0.27605 0.0
H220 H 0.79222 0.20227 0.30721 0.0
H221 H 0.78751 0.27026 0.28141 0.0
H222 H 0.76163 0.25183 0.25045 0.0
H223 H 0.83076 0.22588 0.31739 0.0
H224 H 0.78117 0.27286 0.3222 0.0
H225 H 0.83084 0.26895 0.37673 0.0
H226 H 0.79078 0.27197 0.39444 0.0
H227 H 0.79526 0.31439 0.33432 0.0
H228 H 0.76975 0.33852 0.35232 0.0
H229 H 0.83355 0.1995 0.34619 0.0
H230 H 0.87253 0.26393 0.37523 0.0
H231 H 0.76523 0.29619 0.41251 0.0
H232 H 0.86286 0.17878 0.36244 0.0
H233 H 0.9015 0.24267 0.39237 0.0
C234 C 0.27367 0.62297 0.18033 0.0
C235 C 0.27181 0.62523 0.15666 0.0
C236 C 0.29421 0.6346 0.19209 0.0
C237 C 0.31364 0.64858 0.1805 0.0
C238 C 0.31213 0.65009 0.15677 0.0
C239 C 0.29148 0.63887 0.1451 0.0
C240 C 0.33499 0.66228 0.19297 0.0
C241 C 0.3443 0.65355 0.21257 0.0
C242 C 0.36428 0.6667 0.2244 0.0
C243 C 0.37536 0.68872 0.21574 0.0
C244 C 0.3667 0.69746 0.19582 0.0
C245 C 0.34618 0.68438 0.18508 0.0
C246 C 0.37902 0.71997 0.18552 0.0
C247 C 0.38681 0.74006 0.19874 0.0
C248 C 0.38211 0.72161 0.1619 0.0
C249 C 0.392 0.74281 0.15166 0.0
C250 C 0.39933 0.76308 0.16472 0.0
C251 C 0.3736 0.65718 0.24552 0.0
C252 C 0.35758 0.64314 0.26054 0.0
C253 C 0.39856 0.66174 0.2508 0.0
C254 C 0.40717 0.65252 0.27038 0.0
C255 C 0.39117 0.63816 0.2852 0.0
C256 C 0.36622 0.63366 0.27991 0.0
C257 C 0.39679 0.7614 0.18845 0.0
H258 H 0.25923 0.61229 0.1899 0.0
H259 H 0.29454 0.63304 0.21034 0.0
H260 H 0.32688 0.66017 0.14707 0.0
H261 H 0.29085 0.64144 0.12699 0.0
H262 H 0.33633 0.63619 0.2183 0.0
H263 H 0.33871 0.69172 0.17052 0.0
H264 H 0.39082 0.69906 0.22436 0.0
H265 H 0.38463 0.73943 0.21696 0.0
H266 H 0.37665 0.70643 0.15119 0.0
H267 H 0.39334 0.74336 0.13337 0.0
H268 H 0.3382 0.63948 0.25744 0.0
H269 H 0.41162 0.67217 0.23965 0.0
H270 H 0.4025 0.77657 0.19909 0.0
H271 H 0.35322 0.62247 0.29055 0.0
H272 H 0.42645 0.65681 0.27388 0.0
C273 C 0.14191 0.26804 0.67561 0.0
C274 C 0.11662 0.26162 0.67278 0.0
C275 C 0.15225 0.28926 0.68572 0.0
C276 C 0.13762 0.30474 0.69325 0.0
C277 C 0.11224 0.29793 0.69135 0.0
C278 C 0.10184 0.27659 0.68122 0.0
C279 C 0.14909 0.32844 0.70156 0.0
C280 C 0.16926 0.34109 0.69001 0.0
C281 C 0.1808 0.36334 0.69727 0.0
C282 C 0.1714 0.37334 0.71617 0.0
C283 C 0.15117 0.36103 0.72828 0.0
C284 C 0.14019 0.33849 0.7207 0.0
C285 C 0.14186 0.37153 0.74895 0.0
C286 C 0.15779 0.3867 0.76328 0.0
C287 C 0.11697 0.3665 0.75468 0.0
C288 C 0.10839 0.37615 0.7741 0.0
C289 C 0.12435 0.39149 0.78807 0.0
C290 C 0.20285 0.37571 0.68503 0.0
C291 C 0.22052 0.3633 0.67761 0.0
C292 C 0.20616 0.3996 0.68001 0.0
C293 C 0.22632 0.41062 0.66737 0.0
C294 C 0.24359 0.39797 0.65943 0.0
C295 C 0.24054 0.37425 0.66496 0.0
C296 C 0.14911 0.39672 0.7824 0.0
H297 H 0.1538 0.25671 0.66982 0.0
H298 H 0.17183 0.2937 0.68737 0.0
H299 H 0.10046 0.30949 0.69685 0.0
H300 H 0.0823 0.27223 0.67924 0.0
H301 H 0.17579 0.33371 0.67492 0.0
H302 H 0.12512 0.32839 0.73 0.0
H303 H 0.18005 0.39068 0.72149 0.0
H304 H 0.17713 0.39066 0.76 0.0
H305 H 0.10393 0.35534 0.74401 0.0
H306 H 0.08916 0.37197 0.77797 0.0
H307 H 0.21888 0.34501 0.68159 0.0
H308 H 0.19283 0.40965 0.6853 0.0
H309 H 0.16187 0.40829 0.79302 0.0
H310 H 0.25376 0.36409 0.6596 0.0
H311 H 0.22804 0.42889 0.6633 0.0
Dy312 Dy 0.03174 0.01298 0.51002 0.0
Dy313 Dy 0.97943 1.00752 0.53661 0.0
C314 C 0.02435 0.04924 0.54847 0.0
O315 O 0.03552 0.99535 0.54295 0.0
O316 O 0.99581 0.97793 0.54844 0.0
O317 O 0.07086 0.01925 0.51074 0.0
O318 O 0.05168 1.00998 0.47915 0.0
O319 O 0.97277 0.98471 0.50569 0.0
O320 O 0.01106 0.97729 0.50202 0.0
O321 O 0.98287 0.03993 0.51638 0.0
O322 O 0.00837 0.03135 0.48863 0.0
O323 O 0.9405 1.00503 0.53575 0.0
O324 O 0.95919 1.00463 0.56782 0.0
C325 C 0.01901 0.97929 0.5525 0.0
O326 O 0.03424 0.04655 0.52871 0.0
O327 O 0.00607 0.03371 0.55638 0.0
C328 C 0.09032 0.0344 0.47714 0.0
C329 C 0.12521 0.06792 0.45481 0.0
C330 C 0.10888 0.07485 0.47031 0.0
C331 C 0.09153 0.0582 0.48137 0.0
C332 C 0.10636 0.02744 0.4616 0.0
C333 C 0.12363 0.04402 0.4505 0.0
C334 C 0.07274 0.01656 0.48893 0.0
C335 C 0.98771 0.97189 0.49777 0.0
C336 C 0.99272 0.04358 0.49625 0.0
C337 C 0.91961 0.98269 0.56532 0.0
C338 C 0.88487 0.94579 0.58302 0.0
C339 C 0.90569 0.94132 0.5719 0.0
C340 C 0.92294 0.95966 0.56309 0.0
C341 C 0.89872 0.98721 0.57595 0.0
C342 C 0.88147 0.96893 0.58473 0.0
C343 C 0.93826 1.00223 0.5576 0.0
H344 H 0.10973 0.09309 0.47415 0.0
H345 H 0.0792 0.06387 0.49333 0.0
H346 H 0.10555 1.00912 0.45807 0.0
H347 H 0.13558 0.0381 0.43834 0.0
H348 H 0.90871 0.92369 0.57012 0.0
H349 H 0.93904 0.95592 0.55488 0.0
H350 H 0.89598 1.00493 0.57789 0.0
H351 H 0.86586 0.97302 0.5935 0.0
Dy352 Dy 0.47638 0.01187 1.00006 0.0
Dy353 Dy 0.52628 0.02019 0.03097 0.0
C354 C 0.48317 0.97686 0.04031 0.0
O355 O 0.47688 0.04409 0.0203 0.0
O356 O 0.49922 0.03583 0.05047 0.0
O357 O 0.4376 1.00989 0.9982 0.0
O358 O 0.4584 1.00722 0.96766 0.0
O359 O 0.52819 0.05302 1.01119 0.0
O360 O 0.50411 0.03779 0.98137 0.0
O361 O 0.53385 0.99985 1.00065 0.0
O362 O 0.49497 0.98317 0.98984 0.0
O363 O 0.56511 0.0315 0.03386 0.0
O364 O 0.54386 0.01683 0.06293 0.0
C365 C 0.48382 0.04741 0.04143 0.0
O366 O 0.46793 0.98758 0.02968 0.0
O367 O 0.50675 0.98425 0.03903 0.0
C368 C 0.41803 0.98667 0.96851 0.0
C369 C 0.38245 0.95012 0.9513 0.0
C370 C 0.40208 0.94528 0.96401 0.0
C371 C 0.41976 0.96345 0.97258 0.0
C372 C 0.39837 0.99158 0.9562 0.0
C373 C 0.38072 0.97349 0.94765 0.0
C374 C 0.43685 1.00598 0.97644 0.0
C375 C 0.52049 0.05449 0.99034 0.0
C376 C 0.5185 0.984 0.98942 0.0
C377 C 0.57899 0.04496 0.07024 0.0
C378 C 0.60508 0.07845 0.09986 0.0
C379 C 0.5925 0.08541 0.08133 0.0
C380 C 0.5794 0.06874 0.06667 0.0
C381 C 0.59167 0.03803 0.08856 0.0
C382 C 0.60458 0.05461 0.10326 0.0
C383 C 0.56517 0.02695 0.05548 0.0
H384 H 0.40381 0.92748 0.96726 0.0
H385 H 0.43487 0.95942 0.98215 0.0
H386 H 0.39687 1.00944 0.95287 0.0
H387 H 0.36608 0.97783 0.93763 0.0
H388 H 0.59248 0.10367 0.07842 0.0
H389 H 0.56953 0.07438 0.05266 0.0
H390 H 0.59153 0.01975 0.09154 0.0
H391 H 0.61439 0.04876 0.11719 0.0
Dy392 Dy 0.5035 0.48803 0.50095 0.0
Dy393 Dy 0.50733 0.53752 0.52924 0.0
C394 C 0.52912 0.49562 0.55004 0.0
O395 O 0.46583 0.48661 0.51414 0.0
O396 O 0.47501 0.5132 0.54307 0.0
O397 O 0.4971 0.45038 0.49947 0.0
O398 O 0.50635 0.47068 0.46907 0.0
O399 O 0.48082 0.53945 0.50139 0.0
O400 O 0.4926 0.51347 0.47668 0.0
O401 O 0.53833 0.54353 0.50483 0.0
O402 O 0.54243 0.50582 0.4984 0.0
O403 O 0.51338 0.57507 0.52983 0.0
O404 O 0.5057 0.55564 0.56099 0.0
C405 C 0.46002 0.49616 0.53303 0.0
O406 O 0.51571 0.48115 0.53591 0.0
O407 O 0.53217 0.51832 0.54763 0.0
C408 C 0.52297 0.43692 0.47257 0.0
C409 C 0.56207 0.41509 0.461 0.0
C410 C 0.55403 0.41531 0.48357 0.0
C411 C 0.53474 0.42618 0.48932 0.0
C412 C 0.5305 0.43612 0.44998 0.0
C413 C 0.5499 0.42549 0.44426 0.0
C414 C 0.50389 0.45019 0.47834 0.0
C415 C 0.48149 0.5308 0.4809 0.0
C416 C 0.55076 0.52835 0.49709 0.0
C417 C 0.48825 0.58884 0.55688 0.0
C418 C 0.44934 0.61054 0.56878 0.0
C419 C 0.45398 0.60619 0.54596 0.0
C420 C 0.47316 0.59532 0.54005 0.0
C421 C 0.48396 0.59365 0.57965 0.0
C422 C 0.4646 0.60431 0.58557 0.0
C423 C 0.50745 0.5758 0.55115 0.0
H424 H 0.56269 0.40715 0.49685 0.0
H425 H 0.52936 0.42645 0.50693 0.0
H426 H 0.52177 0.44429 0.43674 0.0
H427 H 0.55576 0.42604 0.42677 0.0
H428 H 0.44235 0.61062 0.5327 0.0
H429 H 0.47584 0.59161 0.52235 0.0
H430 H 0.49532 0.58877 0.5929 0.0
H431 H 0.46156 0.60768 0.60328 0.0
Dy432 Dy 0.0078 0.53886 1.00207 0.0
Dy433 Dy 0.004 0.49 0.03037 0.0
C434 C 0.98086 0.53127 0.05046 0.0
O435 O 0.04535 0.53983 1.01544 0.0
O436 O 0.03439 0.51567 0.04572 0.0
O437 O 0.01526 0.5765 1.00049 0.0
O438 O 0.00442 0.55603 0.97031 0.0
O439 O 0.03202 0.48894 1.00359 0.0
O440 O 0.0193 0.51339 0.97809 0.0
O441 O 0.97451 0.48331 1.00442 0.0
O442 O 0.96892 0.52067 0.99943 0.0
O443 O 1.00025 0.45259 0.03065 0.0
O444 O 0.00388 0.47184 0.06216 0.0
C445 C 0.0501 0.53181 0.03535 0.0
O446 O 0.99485 0.54578 0.03684 0.0
O447 O 0.97778 0.50857 0.04772 0.0
C448 C 0.9893 0.59051 0.97428 0.0
C449 C 0.95047 0.61259 0.96332 0.0
C450 C 0.95735 0.61078 0.98601 0.0
C451 C 0.9765 0.59968 0.99148 0.0
C452 C 0.98297 0.59314 0.95159 0.0
C453 C 0.96365 0.60394 0.94616 0.0
C454 C 0.00793 0.57667 0.97953 0.0
C455 C 0.03123 0.49683 0.98287 0.0
C456 C 0.96148 0.4981 0.99704 0.0
C457 C 0.02405 0.44057 0.05914 0.0
C458 C 0.06291 0.41997 0.07315 0.0
C459 C 0.067 0.43923 0.0585 0.0
C460 C 0.04775 0.44946 0.05159 0.0
C461 C 0.01976 0.42129 0.07357 0.0
C462 C 0.03905 0.41103 0.08053 0.0
C463 C 0.00409 0.45191 0.05238 0.0
H464 H 0.94737 0.61723 0.99953 0.0
H465 H 0.98085 0.59778 1.00915 0.0
H466 H 0.99259 0.58625 0.93805 0.0
H467 H 0.95887 0.60537 0.92852 0.0
H468 H 0.08508 0.44635 0.05227 0.0
H469 H 0.05135 0.46442 0.04045 0.0
H470 H 1.00157 0.41433 0.07963 0.0
H471 H 0.03534 0.39642 0.09207 0.0
C472 C 0.24243 0.21171 0.33073 0.0
C473 C 0.26306 0.20596 0.32038 0.0
C474 C 0.23102 0.19855 0.34874 0.0
C475 C 0.22346 0.1394 0.37195 0.0
H476 H 0.18934 0.16517 0.41989 0.0
C477 C 0.16724 0.08125 0.43919 0.0
C478 C 0.14372 0.08546 0.44297 0.0
C479 C 0.18425 0.09708 0.42696 0.0
C480 C 0.19874 0.15775 0.40656 0.0
H481 H 0.28865 0.18261 0.32164 0.0
H482 H 0.26912 0.15999 0.35356 0.0
H483 H 0.21582 0.19132 0.39426 0.0
H484 H 0.11981 0.10985 0.43714 0.0
H485 H 0.14962 0.13757 0.41594 0.0
H486 H 0.20615 0.10586 0.38407 0.0
C487 C 0.26146 0.1744 0.3474 0.0
C488 C 0.2139 0.1727 0.39188 0.0
C489 C 0.27283 0.18754 0.32928 0.0
C490 C 0.13785 0.1062 0.43478 0.0
C491 C 0.15492 0.12209 0.42263 0.0
C492 C 0.20844 0.12448 0.38671 0.0
C493 C 0.24006 0.17938 0.35695 0.0
C494 C 0.2261 0.1637 0.37414 0.0
C495 C 0.17819 0.11754 0.41834 0.0
C496 C 0.19562 0.13349 0.40393 0.0
H497 H 0.23468 0.22605 0.3245 0.0
H498 H 0.21449 0.2028 0.35554 0.0
H499 H 0.2322 0.13183 0.35826 0.0
H500 H 0.17252 0.06568 0.44566 0.0
H501 H 0.20216 0.09327 0.42419 0.0
C502 C 0.27309 0.81105 0.81952 0.0
C503 C 0.25047 0.81482 0.81185 0.0
C504 C 0.28407 0.82277 0.83857 0.0
C505 C 0.28472 0.87672 0.87065 0.0
H506 H 0.32614 0.85036 0.91152 0.0
C507 C 0.3397 0.93236 0.94008 0.0
C508 C 0.36445 0.93108 0.94082 0.0
C509 C 0.32319 0.91585 0.92799 0.0
C510 C 0.31464 0.85794 0.90022 0.0
H511 H 0.22117 0.83314 0.81881 0.0
H512 H 0.24006 0.85315 0.85242 0.0
H513 H 0.3013 0.8253 0.8838 0.0
H514 H 0.39108 0.91092 0.93012 0.0
H515 H 0.36226 0.88207 0.90908 0.0
H516 H 0.29839 0.90941 0.88669 0.0
C517 C 0.24951 0.84143 0.84343 0.0
C518 C 0.30044 0.84362 0.88433 0.0
C519 C 0.23855 0.82975 0.82431 0.0
C520 C 0.3721 0.91228 0.93009 0.0
C521 C 0.35558 0.89573 0.91803 0.0
C522 C 0.29881 0.89099 0.88657 0.0
C523 C 0.27265 0.83847 0.85049 0.0
C524 C 0.28566 0.85294 0.86907 0.0
C525 C 0.33106 0.89765 0.91642 0.0
C526 C 0.31426 0.88186 0.90126 0.0
H527 H 0.28257 0.79936 0.81051 0.0
H528 H 0.30198 0.8202 0.84338 0.0
H529 H 0.27389 0.88459 0.85893 0.0
H530 H 0.33315 0.94638 0.94854 0.0
H531 H 0.30433 0.91756 0.92737 0.0
C532 C 0.60161 0.42617 0.72949 0.0
C533 C 0.60967 0.40483 0.72831 0.0
C534 C 0.59366 0.43616 0.71005 0.0
C535 C 0.56777 0.422 0.65355 0.0
H536 H 0.5923 0.48713 0.64016 0.0
C537 C 0.54321 0.46256 0.5696 0.0
C538 C 0.5403 0.48587 0.56971 0.0
C539 C 0.55257 0.45295 0.58854 0.0
C540 C 0.58489 0.46901 0.64374 0.0
H541 H 0.6157 0.37756 0.70519 0.0
H542 H 0.60098 0.39458 0.67163 0.0
H543 H 0.60606 0.46992 0.67409 0.0
H544 H 0.54499 0.51737 0.58994 0.0
H545 H 0.56041 0.50051 0.6232 0.0
H546 H 0.54597 0.42107 0.6238 0.0
C547 C 0.60091 0.40354 0.6877 0.0
C548 C 0.59293 0.45913 0.6632 0.0
C549 C 0.60923 0.39372 0.70706 0.0
C550 C 0.54719 0.49941 0.58918 0.0
C551 C 0.55618 0.4897 0.60828 0.0
C552 C 0.55943 0.43195 0.63429 0.0
C553 C 0.59316 0.42494 0.68894 0.0
C554 C 0.58453 0.43549 0.6683 0.0
C555 C 0.5589 0.46625 0.60834 0.0
C556 C 0.56791 0.45562 0.62899 0.0
H557 H 0.60109 0.43512 0.74549 0.0
H558 H 0.5875 0.45252 0.71161 0.0
H559 H 0.56073 0.40381 0.65716 0.0
H560 H 0.53829 0.45167 0.55481 0.0
H561 H 0.55488 0.43505 0.58754 0.0
C562 C 0.92377 0.6318 0.22032 0.0
C563 C 0.90019 0.62387 0.2289 0.0
C564 C 0.93202 0.62143 0.20117 0.0
C565 C 0.91743 0.56829 0.16402 0.0
H566 H 0.96329 0.60617 0.12373 0.0
C567 C 0.96269 0.52753 0.08957 0.0
C568 C 0.96935 0.54093 0.07005 0.0
C569 C 0.95372 0.53733 0.10872 0.0
C570 C 0.9502 0.59529 0.13452 0.0
H571 H 0.86702 0.59823 0.22374 0.0
H572 H 0.88076 0.58125 0.18987 0.0
H573 H 0.94847 0.62387 0.15665 0.0
H574 H 0.97088 0.57491 0.05503 0.0
H575 H 0.95423 0.59165 0.08778 0.0
H576 H 0.91821 0.53997 0.14124 0.0
C577 C 0.89324 0.59513 0.19824 0.0
C578 C 0.94199 0.60543 0.15381 0.0
C579 C 0.88513 0.60525 0.21759 0.0
C580 C 0.96613 0.56415 0.06987 0.0
C581 C 0.95677 0.57383 0.08884 0.0
C582 C 0.92534 0.55822 0.14453 0.0
C583 C 0.91685 0.60299 0.18971 0.0
C584 C 0.92554 0.5921 0.16896 0.0
C585 C 0.95077 0.56072 0.10874 0.0
C586 C 0.94194 0.57152 0.12946 0.0
H587 H 0.93592 0.64625 0.22821 0.0
H588 H 0.95046 0.62784 0.19552 0.0
H589 H 0.90509 0.55721 0.17531 0.0
H590 H 0.96516 0.50965 0.09036 0.0
H591 H 0.94975 0.52666 0.1237 0.0
C592 C 0.39004 0.19749 0.12941 0.0
C593 C 0.38705 0.1961 0.15304 0.0
C594 C 0.40227 0.18232 0.11797 0.0
C595 C 0.44528 0.14282 0.12465 0.0
H596 H 0.41198 0.11175 0.07224 0.0
C597 C 0.47693 0.06611 0.07861 0.0
C598 C 0.47448 0.06508 0.05493 0.0
C599 C 0.46729 0.0825 0.09117 0.0
C600 C 0.42175 0.12049 0.08662 0.0
H601 H 0.39525 0.17799 0.18321 0.0
H602 H 0.41701 0.15179 0.1632 0.0
H603 H 0.39418 0.14033 0.09281 0.0
H604 H 0.46081 0.08103 0.0258 0.0
H605 H 0.44468 0.10981 0.04749 0.0
H606 H 0.47305 0.12317 0.11826 0.0
C607 C 0.40987 0.16469 0.1536 0.0
C608 C 0.41149 0.13685 0.09843 0.0
C609 C 0.39746 0.17976 0.16505 0.0
C610 C 0.46272 0.0811 0.04405 0.0
C611 C 0.45333 0.09757 0.05653 0.0
C612 C 0.4557 0.12657 0.11267 0.0
C613 C 0.41197 0.16553 0.1299 0.0
C614 C 0.42317 0.14825 0.1175 0.0
C615 C 0.45518 0.09831 0.08027 0.0
C616 C 0.4441 0.11529 0.09343 0.0
H617 H 0.38272 0.21018 0.11967 0.0
H618 H 0.40399 0.18361 0.09972 0.0
H619 H 0.45471 0.15145 0.13925 0.0
H620 H 0.48589 0.05398 0.08748 0.0
H621 H 0.46886 0.08243 0.10944 0.0
C622 C 0.10165 0.82297 0.6356 0.0
C623 C 0.1094 0.82496 0.65827 0.0
C624 C 0.08813 0.83847 0.62663 0.0
C625 C 0.07866 0.89806 0.63508 0.0
H626 H 0.0281 0.88051 0.59006 0.0
C627 C 0.00998 0.94295 0.57597 0.0
C628 C 0.02688 0.96192 0.56745 0.0
C629 C 0.0177 0.926 0.58921 0.0
C630 C 0.04198 0.88567 0.60281 0.0
H631 H 0.10828 0.84432 0.68952 0.0
H632 H 0.08434 0.87113 0.67394 0.0
H633 H 0.04454 0.85031 0.60965 0.0
H634 H 0.0651 0.97817 0.56653 0.0
H635 H 0.0785 0.94863 0.58947 0.0
H636 H 0.07626 0.9334 0.62815 0.0
C637 C 0.08897 0.85772 0.66305 0.0
C638 C 0.05155 0.86839 0.61386 0.0
C639 C 0.10245 0.84219 0.67203 0.0
C640 C 0.05158 0.9638 0.57281 0.0
C641 C 0.05926 0.94694 0.5861 0.0
C642 C 0.06915 0.91532 0.624 0.0
C643 C 0.0821 0.85634 0.64013 0.0
C644 C 0.07026 0.87441 0.62988 0.0
C645 C 0.04245 0.92776 0.59431 0.0
C646 C 0.05099 0.90934 0.60748 0.0
H647 H 0.1065 0.80971 0.62465 0.0
H648 H 0.08329 0.83703 0.60887 0.0
H649 H 0.09322 0.90332 0.64716 0.0
H650 H 0.9908 0.94099 0.57219 0.0
H651 H 0.0043 0.91152 0.59547 0.0
C652 C 0.78784 0.40325 0.88283 0.0
C653 C 0.76672 0.4129 0.88306 0.0
C654 C 0.80828 0.41327 0.89548 0.0
C655 C 0.84035 0.46733 0.9213 0.0
H656 H 0.86807 0.42666 0.96084 0.0
C657 C 0.9211 0.50309 0.98131 0.0
C658 C 0.9383 0.48898 0.98507 0.0
C659 C 0.89949 0.49437 0.96959 0.0
C660 C 0.8609 0.43828 0.94965 0.0
H661 H 0.75109 0.44121 0.89673 0.0
H662 H 0.7872 0.45913 0.91808 0.0
H663 H 0.83242 0.41078 0.93825 0.0
H664 H 0.94645 0.45475 0.97906 0.0
H665 H 0.90955 0.4399 0.95807 0.0
H666 H 0.86925 0.49471 0.93198 0.0
C667 C 0.78767 0.44363 0.90816 0.0
C668 C 0.84033 0.42914 0.93679 0.0
C669 C 0.76702 0.43337 0.89579 0.0
C670 C 0.93347 0.46603 0.97674 0.0
C671 C 0.91212 0.45744 0.96477 0.0
C672 C 0.86122 0.47645 0.9339 0.0
C673 C 0.80838 0.43347 0.90839 0.0
C674 C 0.8299 0.44351 0.9224 0.0
C675 C 0.89472 0.47141 0.96106 0.0
C676 C 0.87192 0.46202 0.94818 0.0
H677 H 0.78869 0.3879 0.87284 0.0
H678 H 0.82414 0.40528 0.89507 0.0
H679 H 0.83275 0.47878 0.91023 0.0
H680 H 0.92422 0.52084 0.98756 0.0
H681 H 0.88647 0.50561 0.96744 0.0
C682 C 0.74036 0.62505 0.40601 0.0
C683 C 0.74947 0.61256 0.38873 0.0
C684 C 0.71906 0.61533 0.41756 0.0
C685 C 0.67979 0.55975 0.43292 0.0
H686 H 0.63112 0.59756 0.44256 0.0
C687 C 0.58531 0.52224 0.47208 0.0
C688 C 0.57449 0.537 0.48588 0.0
C689 C 0.60687 0.53089 0.46033 0.0
C690 C 0.64464 0.58682 0.44039 0.0
H691 H 0.74346 0.57994 0.37021 0.0
H692 H 0.7062 0.56281 0.3906 0.0
H693 H 0.66812 0.61361 0.42192 0.0
H694 H 0.5784 0.57226 0.49877 0.0
H695 H 0.61624 0.58712 0.47899 0.0
H696 H 0.6566 0.5331 0.45179 0.0
C697 C 0.71561 0.58017 0.39513 0.0
C698 C 0.66583 0.59603 0.42842 0.0
C699 C 0.73682 0.59003 0.38336 0.0
C700 C 0.58609 0.56044 0.48812 0.0
C701 C 0.60775 0.56902 0.47659 0.0
C702 C 0.65867 0.55059 0.44513 0.0
C703 C 0.70643 0.59278 0.41229 0.0
C704 C 0.68369 0.58265 0.4246 0.0
C705 C 0.61829 0.55447 0.46225 0.0
C706 C 0.64081 0.56403 0.44911 0.0
H707 H 0.74956 0.64253 0.41041 0.0
H708 H 0.71256 0.62542 0.4308 0.0
H709 H 0.69333 0.54908 0.43043 0.0
H710 H 0.57679 0.50411 0.46986 0.0
H711 H 0.6142 0.51917 0.44928 0.0
C712 C 0.21482 0.33514 0.17206 0.0
C713 C 0.23312 0.328 0.15915 0.0
C714 C 0.19795 0.3464 0.16185 0.0
C715 C 0.18499 0.37832 0.11111 0.0
H716 H 0.11802 0.35517 0.12871 0.0
C717 C 0.10576 0.42384 0.08711 0.0
C718 C 0.08352 0.40954 0.08104 0.0
C719 C 0.12493 0.41408 0.09519 0.0
C720 C 0.13659 0.3617 0.12345 0.0
H721 H 0.24879 0.32802 0.12559 0.0
H722 H 0.21916 0.34783 0.10762 0.0
H723 H 0.15025 0.33857 0.14569 0.0
H724 H 0.06428 0.37376 0.07798 0.0
H725 H 0.09768 0.35675 0.09223 0.0
H726 H 0.17114 0.40137 0.0887 0.0
C727 C 0.21797 0.34472 0.1257 0.0
C728 C 0.15509 0.35239 0.13339 0.0
C729 C 0.23493 0.33341 0.13597 0.0
C730 C 0.08102 0.38526 0.08289 0.0
C731 C 0.10016 0.37552 0.09101 0.0
C732 C 0.16642 0.38774 0.10121 0.0
C733 C 0.19897 0.3508 0.13847 0.0
C734 C 0.1795 0.36068 0.12746 0.0
C735 C 0.12224 0.38983 0.09744 0.0
C736 C 0.14203 0.37954 0.10733 0.0
H737 H 0.2133 0.33166 0.19007 0.0
H738 H 0.18387 0.35139 0.17223 0.0
H739 H 0.20364 0.3851 0.10626 0.0
H740 H 0.10818 0.44262 0.08618 0.0
H741 H 0.1416 0.42558 0.10029 0.0
C742 C 0.60751 0.22409 0.87273 0.0
C743 C 0.59913 0.24472 0.87759 0.0
C744 C 0.59825 0.20343 0.88431 0.0
C745 C 0.56659 0.18163 0.93742 0.0
H746 H 0.55666 0.12203 0.90646 0.0
C747 C 0.54699 0.09424 0.98617 0.0
C748 C 0.52975 0.07589 0.97693 0.0
C749 C 0.55514 0.11467 0.97382 0.0
C750 C 0.55914 0.13852 0.91537 0.0
H751 H 0.57409 0.25955 0.8984 0.0
H752 H 0.55758 0.22342 0.91826 0.0
H753 H 0.57025 0.15778 0.88512 0.0
H754 H 0.50768 0.06476 0.94728 0.0
H755 H 0.52171 0.10037 0.92589 0.0
H756 H 0.55509 0.1624 0.9676 0.0
C757 C 0.5716 0.22331 0.90567 0.0
C758 C 0.56721 0.15905 0.90315 0.0
C759 C 0.58086 0.24399 0.89406 0.0
C760 C 0.52103 0.07845 0.95494 0.0
C761 C 0.52918 0.09888 0.94259 0.0
C762 C 0.55854 0.1611 0.94964 0.0
C763 C 0.58031 0.20278 0.90109 0.0
C764 C 0.57112 0.1809 0.91401 0.0
C765 C 0.54628 0.11732 0.95188 0.0
C766 C 0.55476 0.13924 0.93881 0.0
H767 H 0.62135 0.22389 0.85998 0.0
H768 H 0.60558 0.18807 0.88043 0.0
H769 H 0.56964 0.19808 0.94644 0.0
H770 H 0.55418 0.0929 1.00302 0.0
H771 H 0.56858 0.12832 0.98141 0.0
C772 C 0.89611 0.80423 0.37847 0.0
C773 C 0.90812 0.78523 0.37904 0.0
C774 C 0.90486 0.82456 0.39086 0.0
C775 C 0.94622 0.84677 0.439 0.0
H776 H 0.93785 0.90703 0.41691 0.0
C777 C 0.99267 0.93389 0.48045 0.0
C778 C 0.97818 0.95063 0.48421 0.0
C779 C 0.98393 0.91382 0.46771 0.0
C780 C 0.94014 0.89029 0.42338 0.0
H781 H 0.93928 0.77328 0.393 0.0
H782 H 0.95514 0.809 0.41359 0.0
H783 H 0.92404 0.8723 0.39391 0.0
H784 H 0.94307 0.95935 0.47735 0.0
H785 H 0.92794 0.9244 0.45472 0.0
H786 H 0.96291 0.86502 0.46821 0.0
C787 C 0.93849 0.80796 0.40408 0.0
C788 C 0.93215 0.8703 0.41023 0.0
C789 C 0.92958 0.78751 0.39188 0.0
C790 C 0.95471 0.94682 0.47481 0.0
C791 C 0.94608 0.92686 0.46175 0.0
C792 C 0.95449 0.8668 0.45199 0.0
C793 C 0.9261 0.82671 0.40401 0.0
C794 C 0.93501 0.84819 0.41785 0.0
C795 C 0.96058 0.91009 0.45812 0.0
C796 C 0.95151 0.88879 0.44436 0.0
H797 H 0.87979 0.80344 0.3685 0.0
H798 H 0.89458 0.8384 0.39046 0.0
H799 H 0.94832 0.83012 0.44578 0.0
H800 H 0.01081 0.93619 0.48748 0.0
H801 H 0.99561 0.90134 0.46508 0.0
C802 C 0.28982 0.71756 0.62074 0.0
C803 C 0.27425 0.70643 0.63768 0.0
C804 C 0.30681 0.70627 0.61057 0.0
C805 C 0.32516 0.64859 0.60463 0.0
H806 H 0.38885 0.68702 0.5947 0.0
C807 C 0.4126 0.61149 0.5926 0.0
C808 C 0.42832 0.6211 0.57508 0.0
C809 C 0.39263 0.62129 0.59842 0.0
C810 C 0.37109 0.67612 0.59714 0.0
H811 H 0.26367 0.67464 0.65691 0.0
H812 H 0.29378 0.65505 0.63966 0.0
H813 H 0.35567 0.70496 0.60772 0.0
H814 H 0.43559 0.6485 0.54996 0.0
H815 H 0.40077 0.66582 0.56032 0.0
H816 H 0.3411 0.61962 0.59477 0.0
C817 C 0.29258 0.67229 0.63378 0.0
C818 C 0.35199 0.68639 0.60451 0.0
C819 C 0.27535 0.68349 0.64372 0.0
C820 C 0.4237 0.6407 0.56347 0.0
C821 C 0.40389 0.65066 0.56947 0.0
C822 C 0.34437 0.63828 0.59749 0.0
C823 C 0.30887 0.68372 0.61739 0.0
C824 C 0.32879 0.67276 0.60844 0.0
C825 C 0.38817 0.64104 0.587 0.0
C826 C 0.36754 0.65195 0.59378 0.0
H827 H 0.2891 0.73517 0.61562 0.0
H828 H 0.31861 0.71539 0.59762 0.0
H829 H 0.30748 0.6376 0.60714 0.0
H830 H 0.41562 0.59624 0.60166 0.0
H831 H 0.38092 0.61365 0.61213 0.0
C832 C 0.77182 0.80883 0.71577 0.0
C833 C 0.74836 0.81224 0.72112 0.0
C834 C 0.78429 0.82006 0.69716 0.0
C835 C 0.78575 0.8724 0.6624 0.0
H836 H 0.83217 0.84672 0.62649 0.0
C837 C 0.84225 0.92644 0.59313 0.0
C838 C 0.86734 0.92668 0.59391 0.0
C839 C 0.82598 0.90994 0.60539 0.0
C840 C 0.81929 0.85411 0.63642 0.0
H841 H 0.71892 0.82874 0.7104 0.0
H842 H 0.74044 0.84798 0.67763 0.0
H843 H 0.80632 0.82196 0.6537 0.0
H844 H 0.89489 0.90926 0.60759 0.0
H845 H 0.86647 0.88042 0.62892 0.0
H846 H 0.79892 0.9046 0.64547 0.0
C847 C 0.7495 0.83717 0.68813 0.0
C848 C 0.80452 0.83996 0.65202 0.0
C849 C 0.73713 0.8261 0.70684 0.0
C850 C 0.87566 0.9094 0.60642 0.0
C851 C 0.85937 0.89286 0.61865 0.0
C852 C 0.8004 0.88647 0.64677 0.0
C853 C 0.77348 0.83481 0.68342 0.0
C854 C 0.78778 0.84904 0.66541 0.0
C855 C 0.83441 0.89328 0.61867 0.0
C856 C 0.81755 0.87759 0.63381 0.0
H857 H 0.781 0.79842 0.72663 0.0
H858 H 0.80281 0.81804 0.69421 0.0
H859 H 0.77346 0.88015 0.67273 0.0
H860 H 0.83522 0.93925 0.5833 0.0
H861 H 0.8068 0.91045 0.60476 0.0
C862 C 0.72627 0.18638 0.24983 0.0
C863 C 0.74483 0.20507 0.24364 0.0
C864 C 0.71047 0.17464 0.23359 0.0
C865 C 0.68631 0.17836 0.17606 0.0
H866 H 0.67339 0.11098 0.18045 0.0
C867 C 0.63462 0.11574 0.10767 0.0
C868 C 0.61882 0.09579 0.11573 0.0
C869 C 0.64927 0.1308 0.12274 0.0
C870 C 0.67655 0.12978 0.17914 0.0
H871 H 0.76089 0.22664 0.21569 0.0
H872 H 0.73316 0.20589 0.18707 0.0
H873 H 0.70054 0.1341 0.20752 0.0
H874 H 0.60473 0.07678 0.14587 0.0
H875 H 0.63007 0.10304 0.17212 0.0
H876 H 0.66219 0.17385 0.14752 0.0
C877 C 0.73086 0.20046 0.20458 0.0
C878 C 0.69215 0.14304 0.19463 0.0
C879 C 0.74673 0.2123 0.22092 0.0
C880 C 0.61713 0.09176 0.13916 0.0
C881 C 0.63166 0.10678 0.15416 0.0
C882 C 0.67062 0.16503 0.16047 0.0
C883 C 0.71284 0.18125 0.21073 0.0
C884 C 0.69698 0.16747 0.19347 0.0
C885 C 0.64831 0.12615 0.1461 0.0
C886 C 0.66537 0.1406 0.16205 0.0
H887 H 0.72395 0.18079 0.2673 0.0
H888 H 0.6964 0.16026 0.23895 0.0
H889 H 0.68963 0.19717 0.17482 0.0
H890 H 0.63635 0.1192 0.08968 0.0
H891 H 0.662 0.14553 0.11603 0.0
C892 C 0.38626 0.6238 0.32574 0.0
C893 C 0.4004 0.62775 0.30588 0.0
C894 C 0.39458 0.61349 0.34481 0.0
C895 C 0.44122 0.57913 0.36271 0.0
H896 H 0.42215 0.59518 0.42286 0.0
C897 C 0.46507 0.52926 0.44123 0.0
C898 C 0.47032 0.54142 0.46174 0.0
C899 C 0.45578 0.53961 0.42272 0.0
C900 C 0.42797 0.59062 0.40625 0.0
H901 H 0.43476 0.62373 0.291 0.0
H902 H 0.44973 0.60714 0.32441 0.0
H903 H 0.40883 0.61433 0.39014 0.0
H904 H 0.4698 0.57413 0.47884 0.0
H905 H 0.4545 0.59253 0.44644 0.0
H906 H 0.46139 0.55635 0.37882 0.0
C907 C 0.43181 0.61137 0.32511 0.0
C908 C 0.41993 0.6014 0.38732 0.0
C909 C 0.42334 0.62136 0.30593 0.0
C910 C 0.46578 0.56417 0.46335 0.0
C911 C 0.45686 0.57469 0.4447 0.0
C912 C 0.44954 0.56862 0.38164 0.0
C913 C 0.41751 0.60707 0.34484 0.0
C914 C 0.42634 0.59578 0.36519 0.0
C915 C 0.45185 0.56265 0.424 0.0
C916 C 0.44297 0.57407 0.40376 0.0
H917 H 0.36869 0.62877 0.32671 0.0
H918 H 0.38276 0.61027 0.35943 0.0
H919 H 0.44634 0.57393 0.34608 0.0
H920 H 0.46813 0.51163 0.43943 0.0
H921 H 0.45162 0.52941 0.40741 0.0
C922 C 0.10121 0.38804 0.82481 0.0
C923 C 0.11525 0.40206 0.80851 0.0
C924 C 0.09309 0.39798 0.84428 0.0
C925 C 0.1027 0.45394 0.87782 0.0
H926 H 0.04213 0.42451 0.90609 0.0
C927 C 0.04995 0.49873 0.94412 0.0
C928 C 0.04312 0.48622 0.96416 0.0
C929 C 0.05994 0.48838 0.92593 0.0
C930 C 0.05917 0.43282 0.89845 0.0
H931 H 0.13128 0.43751 0.7995 0.0
H932 H 0.11618 0.45506 0.83266 0.0
H933 H 0.05635 0.40696 0.87246 0.0
H934 H 0.04144 0.45296 0.98076 0.0
H935 H 0.05823 0.43464 0.94862 0.0
H936 H 0.10463 0.48041 0.90339 0.0
C937 C 0.11215 0.43628 0.83112 0.0
C938 C 0.06749 0.4227 0.87918 0.0
C939 C 0.1207 0.42626 0.81192 0.0
C940 C 0.04665 0.46312 0.96562 0.0
C941 C 0.05611 0.45258 0.9472 0.0
C942 C 0.09407 0.4643 0.89678 0.0
C943 C 0.09833 0.42231 0.84776 0.0
C944 C 0.08943 0.43306 0.86851 0.0
C945 C 0.06282 0.4651 0.92714 0.0
C946 C 0.07225 0.45383 0.90732 0.0
H947 H 0.09694 0.36929 0.82272 0.0
H948 H 0.08301 0.38644 0.85674 0.0
H949 H 0.11993 0.4623 0.87065 0.0
H950 H 0.0475 0.51656 0.94245 0.0
H951 H 0.06486 0.4984 0.91065 0.0
C952 C 0.59725 0.83973 0.87477 0.0
C953 C 0.61488 0.83043 0.88648 0.0
C954 C 0.58373 0.854 0.88596 0.0
C955 C 0.56995 0.87512 0.94363 0.0
H956 H 0.55573 0.92738 0.9095 0.0
C957 C 0.54995 0.9597 0.98355 0.0
C958 C 0.52799 0.96581 0.97691 0.0
C959 C 0.55846 0.94176 0.97248 0.0
C960 C 0.55942 0.91274 0.91913 0.0
H961 H 0.63218 0.82837 0.9189 0.0
H962 H 0.60951 0.85409 0.93831 0.0
H963 H 0.57424 0.89824 0.89043 0.0
H964 H 0.4979 0.95825 0.95328 0.0
H965 H 0.5134 0.92734 0.93332 0.0
H966 H 0.55631 0.89069 0.97261 0.0
C967 C 0.60532 0.84984 0.92073 0.0
C968 C 0.56987 0.89589 0.90823 0.0
C969 C 0.61844 0.83516 0.90963 0.0
C970 C 0.51488 0.95387 0.95875 0.0
C971 C 0.52371 0.93627 0.94734 0.0
C972 C 0.55998 0.89226 0.9546 0.0
C973 C 0.588 0.85975 0.90897 0.0
C974 C 0.57545 0.87691 0.92035 0.0
C975 C 0.54544 0.92995 0.95428 0.0
C976 C 0.55479 0.91125 0.94246 0.0
H977 H 0.59415 0.83616 0.85689 0.0
H978 H 0.57018 0.86076 0.87643 0.0
H979 H 0.57342 0.86056 0.95349 0.0
H980 H 0.56034 0.96847 0.9976 0.0
H981 H 0.57536 0.93724 0.97799 0.0
C982 C 0.91188 0.18025 0.37525 0.0
C983 C 0.9019 0.19599 0.38853 0.0
C984 C 0.92615 0.16594 0.38513 0.0
C985 C 0.95868 0.15625 0.4383 0.0
H986 H 0.9458 0.09204 0.41769 0.0
C987 C 0.97588 0.07982 0.49265 0.0
C988 C 0.98642 0.06251 0.48234 0.0
C989 C 0.96933 0.09755 0.47979 0.0
C990 C 0.94989 0.10998 0.42339 0.0
H991 H 0.89953 0.2096 0.42239 0.0
H992 H 0.92392 0.18423 0.43988 0.0
H993 H 0.9275 0.12072 0.39789 0.0
H994 H 0.99867 0.05041 0.45044 0.0
H995 H 0.98667 0.08134 0.42776 0.0
H996 H 0.98019 0.14507 0.46448 0.0
C997 C 0.92124 0.18323 0.42172 0.0
C998 C 0.93946 0.12649 0.41203 0.0
C999 C 0.90718 0.19775 0.41176 0.0
C1000 C 0.99055 0.06349 0.45885 0.0
C1001 C 0.98364 0.08112 0.44588 0.0
C1002 C 0.9689 0.13968 0.4498 0.0
C1003 C 0.93053 0.16682 0.4086 0.0
C1004 C 0.94341 0.14978 0.41954 0.0
C1005 C 0.97291 0.09828 0.45626 0.0
C1006 C 0.9643 0.11631 0.44266 0.0
H1007 H 0.90833 0.17879 0.35722 0.0
H1008 H 0.93345 0.15393 0.3744 0.0
H1009 H 0.96253 0.17409 0.4443 0.0
H1010 H 0.97261 0.07969 0.51074 0.0
H1011 H 0.96085 0.11038 0.4882 0.0
C1012 C 0.22624 0.61125 0.15435 0.0
C1013 C 0.24932 0.61402 0.14409 0.0
C1014 C 0.20519 0.60157 0.14231 0.0
C1015 C 0.17939 0.59535 0.08597 0.0
H1016 H 0.13398 0.54235 0.10965 0.0
C1017 C 0.09421 0.55146 0.03486 0.0
C1018 C 0.07328 0.54143 0.04701 0.0
C1019 C 0.11615 0.55983 0.04621 0.0
C1020 C 0.14613 0.55743 0.10289 0.0
H1021 H 0.26792 0.60785 0.11299 0.0
H1022 H 0.23108 0.59213 0.09184 0.0
H1023 H 0.17082 0.5581 0.13072 0.0
H1024 H 0.05871 0.53301 0.08063 0.0
H1025 H 0.09621 0.54856 0.10039 0.0
H1026 H 0.15444 0.59556 0.05867 0.0
C1027 C 0.2295 0.59746 0.10927 0.0
C1028 C 0.16738 0.56631 0.11496 0.0
C1029 C 0.2506 0.60665 0.12143 0.0
C1030 C 0.07461 0.54036 0.07072 0.0
C1031 C 0.0963 0.54915 0.08208 0.0
C1032 C 0.15787 0.58682 0.0741 0.0
C1033 C 0.2066 0.59485 0.11958 0.0
C1034 C 0.1842 0.58533 0.10662 0.0
C1035 C 0.11754 0.5588 0.07004 0.0
C1036 C 0.14084 0.56773 0.08239 0.0
H1037 H 0.22425 0.61705 0.17154 0.0
H1038 H 0.1877 0.59988 0.15059 0.0
H1039 H 0.19202 0.61017 0.07927 0.0
H1040 H 0.09378 0.55238 1.01655 0.0
H1041 H 0.13207 0.56676 0.0362 0.0
C1042 C 0.27196 0.39743 0.62649 0.0
C1043 C 0.26462 0.40924 0.64526 0.0
C1044 C 0.29212 0.40756 0.61352 0.0
C1045 C 0.34872 0.45179 0.61667 0.0
H1046 H 0.34831 0.44574 0.55125 0.0
C1047 C 0.42861 0.49922 0.56252 0.0
C1048 C 0.43623 0.48714 0.54409 0.0
C1049 C 0.407 0.49031 0.57398 0.0
C1050 C 0.34885 0.44738 0.56952 0.0
H1051 H 0.27272 0.44113 0.66492 0.0
H1052 H 0.30782 0.45892 0.64217 0.0
H1053 H 0.31192 0.42937 0.57288 0.0
H1054 H 0.4267 0.45632 0.52303 0.0
H1055 H 0.3891 0.44056 0.54325 0.0
H1056 H 0.38567 0.4695 0.61344 0.0
C1057 C 0.29805 0.44169 0.63761 0.0
C1058 C 0.32794 0.43802 0.58193 0.0
C1059 C 0.27778 0.4316 0.65052 0.0
C1060 C 0.42137 0.46612 0.5371 0.0
C1061 C 0.39974 0.45712 0.54867 0.0
C1062 C 0.36962 0.46107 0.60429 0.0
C1063 C 0.30556 0.42974 0.61901 0.0
C1064 C 0.32761 0.44011 0.60567 0.0
C1065 C 0.39241 0.46898 0.56745 0.0
C1066 C 0.37 0.45903 0.58053 0.0
H1067 H 0.26206 0.38031 0.62176 0.0
H1068 H 0.29748 0.39776 0.59945 0.0
H1069 H 0.34928 0.45337 0.63495 0.0
H1070 H 0.43941 0.51559 0.56828 0.0
H1071 H 0.40174 0.50021 0.58801 0.0
C1072 C 0.79411 0.72051 0.908 0.0
C1073 C 0.77546 0.70825 0.89419 0.0
C1074 C 0.81119 0.70911 0.91782 0.0
C1075 C 0.8406 0.66 0.90749 0.0
H1076 H 0.86272 0.66888 0.96965 0.0
C1077 C 0.91127 0.61063 0.94277 0.0
C1078 C 0.92905 0.62265 0.95747 0.0
C1079 C 0.89128 0.62017 0.93671 0.0
C1080 C 0.85696 0.66643 0.95217 0.0
H1081 H 0.75944 0.67405 0.881 0.0
H1082 H 0.78965 0.65435 0.89769 0.0
H1083 H 0.82975 0.68726 0.95642 0.0
H1084 H 0.93983 0.65392 0.9776 0.0
H1085 H 0.90526 0.67109 0.96645 0.0
H1086 H 0.86817 0.63996 0.90279 0.0
C1087 C 0.79108 0.67283 0.90072 0.0
C1088 C 0.83801 0.67687 0.94466 0.0
C1089 C 0.77385 0.68415 0.8911 0.0
C1090 C 0.92629 0.64428 0.9663 0.0
C1091 C 0.90641 0.65401 0.95998 0.0
C1092 C 0.8597 0.64982 0.91488 0.0
C1093 C 0.81013 0.68527 0.91387 0.0
C1094 C 0.82965 0.67372 0.92225 0.0
C1095 C 0.88874 0.64215 0.94495 0.0
C1096 C 0.86814 0.65286 0.93733 0.0
H1097 H 0.79613 0.73912 0.91053 0.0
H1098 H 0.82583 0.71915 0.92773 0.0
H1099 H 0.83481 0.65762 0.89 0.0
H1100 H 0.91277 0.59372 0.93606 0.0
H1101 H 0.87777 0.61025 0.92556 0.0
C1102 C 0.42396 0.7867 0.1341 0.0
C1103 C 0.40904 0.78581 0.15338 0.0
C1104 C 0.43185 0.80763 0.12253 0.0
C1105 C 0.41796 0.86673 0.11452 0.0
H1106 H 0.48205 0.87929 0.08733 0.0
C1107 C 0.44943 0.94415 0.05275 0.0
C1108 C 0.47387 0.95562 0.05391 0.0
C1109 C 0.44119 0.92377 0.06525 0.0
C1110 C 0.46417 0.87625 0.09498 0.0
H1111 H 0.39106 0.80663 0.17568 0.0
H1112 H 0.40547 0.84328 0.15593 0.0
H1113 H 0.46919 0.844 0.10922 0.0
H1114 H 0.50863 0.95487 0.06968 0.0
H1115 H 0.49427 0.91995 0.09166 0.0
H1116 H 0.41328 0.89941 0.10075 0.0
C1117 C 0.41068 0.82763 0.14949 0.0
C1118 C 0.45663 0.85576 0.10732 0.0
C1119 C 0.40269 0.80662 0.16104 0.0
C1120 C 0.48974 0.94642 0.06813 0.0
C1121 C 0.4815 0.92622 0.08069 0.0
C1122 C 0.42556 0.88734 0.10223 0.0
C1123 C 0.42523 0.8284 0.12995 0.0
C1124 C 0.43339 0.85063 0.11723 0.0
C1125 C 0.45718 0.91444 0.0793 0.0
C1126 C 0.4488 0.8924 0.09228 0.0
H1127 H 0.42955 0.77115 0.12784 0.0
H1128 H 0.44279 0.80737 0.10745 0.0
H1129 H 0.39983 0.86331 0.12163 0.0
H1130 H 0.43672 0.95069 0.04191 0.0
H1131 H 0.4224 0.91508 0.06353 0.0
C1132 C 0.11726 0.23363 0.64053 0.0
C1133 C 0.10598 0.23981 0.66029 0.0
C1134 C 0.1076 0.2132 0.62871 0.0
C1135 C 0.06767 0.15548 0.63529 0.0
H1136 H 0.06705 0.15615 0.56965 0.0
C1137 C 0.02196 0.07533 0.58205 0.0
C1138 C 0.03354 0.07071 0.56187 0.0
C1139 C 0.03022 0.0959 0.59427 0.0
C1140 C 0.06734 0.15554 0.58797 0.0
H1141 H 0.07555 0.22922 0.68307 0.0
H1142 H 0.05854 0.1935 0.66232 0.0
H1143 H 0.0821 0.19205 0.59042 0.0
H1144 H 0.06321 0.08413 0.53896 0.0
H1145 H 0.0778 0.11966 0.56041 0.0
H1146 H 0.05315 0.1189 0.63284 0.0
C1147 C 0.07502 0.20447 0.65608 0.0
C1148 C 0.07594 0.17618 0.5999 0.0
C1149 C 0.08464 0.22504 0.66786 0.0
C1150 C 0.05374 0.0871 0.55436 0.0
C1151 C 0.06203 0.10761 0.56661 0.0
C1152 C 0.05914 0.13478 0.62335 0.0
C1153 C 0.08638 0.19831 0.63633 0.0
C1154 C 0.07637 0.17642 0.62371 0.0
C1155 C 0.05032 0.11238 0.58668 0.0
C1156 C 0.05899 0.13449 0.5995 0.0
H1157 H 0.13353 0.24473 0.63402 0.0
H1158 H 0.11698 0.20892 0.61372 0.0
H1159 H 0.06801 0.15496 0.65362 0.0
H1160 H 0.00629 0.06319 0.58832 0.0
H1161 H 0.02054 0.09905 0.60947 0.0
C1162 C 0.74669 0.33843 0.41552 0.0
C1163 C 0.74627 0.33102 0.39285 0.0
C1164 C 0.72811 0.34892 0.42405 0.0
C1165 C 0.67724 0.37686 0.40519 0.0
H1166 H 0.65197 0.36134 0.46553 0.0
C1167 C 0.58422 0.39315 0.43408 0.0
C1168 C 0.58348 0.40476 0.4549 0.0
C1169 C 0.60492 0.38485 0.42762 0.0
C1170 C 0.65901 0.36596 0.44872 0.0
H1171 H 0.72576 0.32821 0.36153 0.0
H1172 H 0.69336 0.34597 0.37635 0.0
H1173 H 0.68708 0.34612 0.45211 0.0
H1174 H 0.60401 0.41628 0.48539 0.0
H1175 H 0.63987 0.40107 0.47428 0.0
H1176 H 0.64866 0.39605 0.40158 0.0
C1177 C 0.70832 0.34447 0.38746 0.0
C1178 C 0.67918 0.35736 0.44105 0.0
C1179 C 0.72691 0.33423 0.37893 0.0
C1180 C 0.60374 0.40716 0.46939 0.0
C1181 C 0.62436 0.39857 0.46301 0.0
C1182 C 0.65695 0.38519 0.41275 0.0
C1183 C 0.70864 0.35199 0.41011 0.0
C1184 C 0.68835 0.36246 0.41905 0.0
C1185 C 0.62526 0.38766 0.44191 0.0
C1186 C 0.64746 0.3796 0.43447 0.0
H1187 H 0.76143 0.33624 0.42661 0.0
H1188 H 0.72909 0.35472 0.44151 0.0
H1189 H 0.68413 0.38166 0.38838 0.0
H1190 H 0.5688 0.39047 0.42271 0.0
H1191 H 0.60499 0.37614 0.41141 0.0
loop_
_geom_bond_atom_site_label_1
_geom_bond_atom_site_label_2
_geom_bond_distance
_geom_bond_site_symmetry_2
_ccdc_geom_bond_type
C0 C1 1.386 . S
C0 C2 1.397 . S
C0 H24 0.931 . S
C1 C0 1.386 . S
C1 C5 1.397 . S
C2 C0 1.397 . S
C2 C3 1.384 . S
C2 H25 0.930 . S
C3 C2 1.384 . S
C3 C4 1.377 . S
C3 C6 1.481 . S
C4 C3 1.377 . S
C4 C5 1.389 . S
C4 H26 0.929 . S
C5 C1 1.397 . S
C5 C4 1.389 . S
C5 H27 0.931 . S
C6 C3 1.481 . S
C6 C7 1.387 . S
C6 C11 1.390 . S
C7 C6 1.387 . S
C7 C8 1.401 . S
C7 H28 0.930 . S
C8 C7 1.401 . S
C8 C9 1.376 . S
C8 C17 1.511 . S
C9 C8 1.376 . S
C9 C10 1.392 . S
C9 H30 0.931 . S
C10 C9 1.392 . S
C10 C11 1.361 . S
C10 C12 1.500 . S
C11 C6 1.390 . S
C11 C10 1.361 . S
C11 H29 0.931 . S
C12 C10 1.500 . S
C12 C13 1.371 . S
C12 C14 1.365 . S
C13 C12 1.371 . S
C13 C23 1.386 . S
C13 H31 0.931 . S
C14 C12 1.365 . S
C14 C15 1.409 . S
C14 H32 0.929 . S
C15 C14 1.409 . S
C15 C16 1.380 . S
C15 H33 0.930 . S
C16 C15 1.380 . S
C16 C23 1.357 . S
C17 C8 1.511 . S
C17 C18 1.341 . S
C17 C19 1.371 . S
C18 C17 1.341 . S
C18 C22 1.394 . S
C18 H34 0.930 . S
C19 C17 1.371 . S
C19 C20 1.392 . S
C19 H35 0.931 . S
C20 C19 1.392 . S
C20 C21 1.331 . S
C20 H38 0.932 . S
C21 C20 1.331 . S
C21 C22 1.336 . S
C22 C18 1.394 . S
C22 C21 1.336 . S
C22 H37 0.929 . S
C23 C13 1.386 . S
C23 C16 1.357 . S
C23 H36 0.928 . S
H24 C0 0.931 . S
H25 C2 0.930 . S
H26 C4 0.929 . S
H27 C5 0.931 . S
H28 C7 0.930 . S
H29 C11 0.931 . S
H30 C9 0.931 . S
H31 C13 0.931 . S
H32 C14 0.929 . S
H33 C15 0.930 . S
H34 C18 0.930 . S
H35 C19 0.931 . S
H36 C23 0.928 . S
H37 C22 0.929 . S
H38 C20 0.932 . S
C39 C40 1.386 . S
C39 C41 1.397 . S
C39 H63 0.931 . S
C40 C39 1.386 . S
C40 C44 1.397 . S
C41 C39 1.397 . S
C41 C42 1.384 . S
C41 H64 0.930 . S
C42 C41 1.384 . S
C42 C43 1.377 . S
C42 C45 1.481 . S
C43 C42 1.377 . S
C43 C44 1.389 . S
C43 H65 0.929 . S
C44 C40 1.397 . S
C44 C43 1.389 . S
C44 H66 0.931 . S
C45 C42 1.481 . S
C45 C46 1.387 . S
C45 C50 1.390 . S
C46 C45 1.387 . S
C46 C47 1.401 . S
C46 H67 0.930 . S
C47 C46 1.401 . S
C47 C48 1.376 . S
C47 C56 1.511 . S
C48 C47 1.376 . S
C48 C49 1.392 . S
C48 H69 0.931 . S
C49 C48 1.392 . S
C49 C50 1.361 . S
C49 C51 1.500 . S
C50 C45 1.390 . S
C50 C49 1.361 . S
C50 H68 0.931 . S
C51 C49 1.500 . S
C51 C52 1.371 . S
C51 C53 1.365 . S
C52 C51 1.371 . S
C52 C62 1.386 . S
C52 H70 0.931 . S
C53 C51 1.365 . S
C53 C54 1.409 . S
C53 H71 0.929 . S
C54 C53 1.409 . S
C54 C55 1.380 . S
C54 H72 0.930 . S
C55 C54 1.380 . S
C55 C62 1.357 . S
C56 C47 1.511 . S
C56 C57 1.341 . S
C56 C58 1.371 . S
C57 C56 1.341 . S
C57 C61 1.394 . S
C57 H73 0.930 . S
C58 C56 1.371 . S
C58 C59 1.392 . S
C58 H74 0.931 . S
C59 C58 1.392 . S
C59 C60 1.331 . S
C59 H77 0.932 . S
C60 C59 1.331 . S
C60 C61 1.336 . S
C61 C57 1.394 . S
C61 C60 1.336 . S
C61 H76 0.929 . S
C62 C52 1.386 . S
C62 C55 1.357 . S
C62 H75 0.928 . S
H63 C39 0.931 . S
H64 C41 0.930 . S
H65 C43 0.929 . S
H66 C44 0.931 . S
H67 C46 0.930 . S
H68 C50 0.931 . S
H69 C48 0.931 . S
H70 C52 0.931 . S
H71 C53 0.929 . S
H72 C54 0.930 . S
H73 C57 0.930 . S
H74 C58 0.931 . S
H75 C62 0.928 . S
H76 C61 0.929 . S
H77 C59 0.932 . S
C78 C79 1.386 . S
C78 C80 1.397 . S
C78 H102 0.931 . S
C79 C78 1.386 . S
C79 C83 1.397 . S
C80 C78 1.397 . S
C80 C81 1.384 . S
C80 H103 0.930 . S
C81 C80 1.384 . S
C81 C82 1.377 . S
C81 C84 1.481 . S
C82 C81 1.377 . S
C82 C83 1.389 . S
C82 H104 0.929 . S
C83 C79 1.397 . S
C83 C82 1.389 . S
C83 H105 0.931 . S
C84 C81 1.481 . S
C84 C85 1.387 . S
C84 C89 1.390 . S
C85 C84 1.387 . S
C85 C86 1.401 . S
C85 H106 0.930 . S
C86 C85 1.401 . S
C86 C87 1.376 . S
C86 C95 1.511 . S
C87 C86 1.376 . S
C87 C88 1.392 . S
C87 H108 0.931 . S
C88 C87 1.392 . S
C88 C89 1.361 . S
C88 C90 1.500 . S
C89 C84 1.390 . S
C89 C88 1.361 . S
C89 H107 0.931 . S
C90 C88 1.500 . S
C90 C91 1.371 . S
C90 C92 1.365 . S
C91 C90 1.371 . S
C91 C101 1.386 . S
C91 H109 0.931 . S
C92 C90 1.365 . S
C92 C93 1.409 . S
C92 H110 0.929 . S
C93 C92 1.409 . S
C93 C94 1.380 . S
C93 H111 0.930 . S
C94 C93 1.380 . S
C94 C101 1.357 . S
C95 C86 1.511 . S
C95 C96 1.341 . S
C95 C97 1.371 . S
C96 C95 1.341 . S
C96 C100 1.394 . S
C96 H112 0.930 . S
C97 C95 1.371 . S
C97 C98 1.392 . S
C97 H113 0.931 . S
C98 C97 1.392 . S
C98 C99 1.331 . S
C98 H116 0.932 . S
C99 C98 1.331 . S
C99 C100 1.336 . S
C100 C96 1.394 . S
C100 C99 1.336 . S
C100 H115 0.929 . S
C101 C91 1.386 . S
C101 C94 1.357 . S
C101 H114 0.928 . S
H102 C78 0.931 . S
H103 C80 0.930 . S
H104 C82 0.929 . S
H105 C83 0.931 . S
H106 C85 0.930 . S
H107 C89 0.931 . S
H108 C87 0.931 . S
H109 C91 0.931 . S
H110 C92 0.929 . S
H111 C93 0.930 . S
H112 C96 0.930 . S
H113 C97 0.931 . S
H114 C101 0.928 . S
H115 C100 0.929 . S
H116 C98 0.932 . S
C117 C118 1.386 . S
C117 C119 1.397 . S
C117 H141 0.931 . S
C118 C117 1.386 . S
C118 C122 1.397 . S
C119 C117 1.397 . S
C119 C120 1.384 . S
C119 H142 0.930 . S
C120 C119 1.384 . S
C120 C121 1.377 . S
C120 C123 1.481 . S
C121 C120 1.377 . S
C121 C122 1.389 . S
C121 H143 0.929 . S
C122 C118 1.397 . S
C122 C121 1.389 . S
C122 H144 0.931 . S
C123 C120 1.481 . S
C123 C124 1.387 . S
C123 C128 1.390 . S
C124 C123 1.387 . S
C124 C125 1.401 . S
C124 H145 0.930 . S
C125 C124 1.401 . S
C125 C126 1.376 . S
C125 C134 1.511 . S
C126 C125 1.376 . S
C126 C127 1.392 . S
C126 H147 0.931 . S
C127 C126 1.392 . S
C127 C128 1.361 . S
C127 C129 1.500 . S
C128 C123 1.390 . S
C128 C127 1.361 . S
C128 H146 0.931 . S
C129 C127 1.500 . S
C129 C130 1.371 . S
C129 C131 1.365 . S
C130 C129 1.371 . S
C130 C140 1.386 . S
C130 H148 0.931 . S
C131 C129 1.365 . S
C131 C132 1.409 . S
C131 H149 0.929 . S
C132 C131 1.409 . S
C132 C133 1.380 . S
C132 H150 0.930 . S
C133 C132 1.380 . S
C133 C140 1.357 . S
C134 C125 1.511 . S
C134 C135 1.341 . S
C134 C136 1.371 . S
C135 C134 1.341 . S
C135 C139 1.394 . S
C135 H151 0.930 . S
C136 C134 1.371 . S
C136 C137 1.392 . S
C136 H152 0.931 . S
C137 C136 1.392 . S
C137 C138 1.331 . S
C137 H155 0.932 . S
C138 C137 1.331 . S
C138 C139 1.336 . S
C139 C135 1.394 . S
C139 C138 1.336 . S
C139 H154 0.929 . S
C140 C130 1.386 . S
C140 C133 1.357 . S
C140 H153 0.928 . S
H141 C117 0.931 . S
H142 C119 0.930 . S
H143 C121 0.929 . S
H144 C122 0.931 . S
H145 C124 0.930 . S
H146 C128 0.931 . S
H147 C126 0.931 . S
H148 C130 0.931 . S
H149 C131 0.929 . S
H150 C132 0.930 . S
H151 C135 0.930 . S
H152 C136 0.931 . S
H153 C140 0.928 . S
H154 C139 0.929 . S
H155 C137 0.932 . S
C156 C157 1.386 . S
C156 C158 1.397 . S
C156 H180 0.931 . S
C157 C156 1.386 . S
C157 C161 1.397 . S
C158 C156 1.397 . S
C158 C159 1.384 . S
C158 H181 0.930 . S
C159 C158 1.384 . S
C159 C160 1.377 . S
C159 C162 1.481 . S
C160 C159 1.377 . S
C160 C161 1.389 . S
C160 H182 0.929 . S
C161 C157 1.397 . S
C161 C160 1.389 . S
C161 H183 0.931 . S
C162 C159 1.481 . S
C162 C163 1.387 . S
C162 C167 1.390 . S
C163 C162 1.387 . S
C163 C164 1.401 . S
C163 H184 0.930 . S
C164 C163 1.401 . S
C164 C165 1.376 . S
C164 C173 1.511 . S
C165 C164 1.376 . S
C165 C166 1.392 . S
C165 H186 0.931 . S
C166 C165 1.392 . S
C166 C167 1.361 . S
C166 C168 1.500 . S
C167 C162 1.390 . S
C167 C166 1.361 . S
C167 H185 0.931 . S
C168 C166 1.500 . S
C168 C169 1.371 . S
C168 C170 1.365 . S
C169 C168 1.371 . S
C169 C179 1.386 . S
C169 H187 0.931 . S
C170 C168 1.365 . S
C170 C171 1.409 . S
C170 H188 0.929 . S
C171 C170 1.409 . S
C171 C172 1.380 . S
C171 H189 0.930 . S
C172 C171 1.380 . S
C172 C179 1.357 . S
C173 C164 1.511 . S
C173 C174 1.341 . S
C173 C175 1.371 . S
C174 C173 1.341 . S
C174 C178 1.394 . S
C174 H190 0.930 . S
C175 C173 1.371 . S
C175 C176 1.392 . S
C175 H191 0.931 . S
C176 C175 1.392 . S
C176 C177 1.331 . S
C176 H194 0.932 . S
C177 C176 1.331 . S
C177 C178 1.336 . S
C178 C174 1.394 . S
C178 C177 1.336 . S
C178 H193 0.929 . S
C179 C169 1.386 . S
C179 C172 1.357 . S
C179 H192 0.928 . S
H180 C156 0.931 . S
H181 C158 0.930 . S
H182 C160 0.929 . S
H183 C161 0.931 . S
H184 C163 0.930 . S
H185 C167 0.931 . S
H186 C165 0.931 . S
H187 C169 0.931 . S
H188 C170 0.929 . S
H189 C171 0.930 . S
H190 C174 0.930 . S
H191 C175 0.931 . S
H192 C179 0.928 . S
H193 C178 0.929 . S
H194 C176 0.932 . S
C195 C196 1.386 . S
C195 C197 1.397 . S
C195 H219 0.931 . S
C196 C195 1.386 . S
C196 C200 1.397 . S
C197 C195 1.397 . S
C197 C198 1.384 . S
C197 H220 0.930 . S
C198 C197 1.384 . S
C198 C199 1.377 . S
C198 C201 1.481 . S
C199 C198 1.377 . S
C199 C200 1.389 . S
C199 H221 0.929 . S
C200 C196 1.397 . S
C200 C199 1.389 . S
C200 H222 0.931 . S
C201 C198 1.481 . S
C201 C202 1.387 . S
C201 C206 1.390 . S
C202 C201 1.387 . S
C202 C203 1.401 . S
C202 H223 0.930 . S
C203 C202 1.401 . S
C203 C204 1.376 . S
C203 C212 1.511 . S
C204 C203 1.376 . S
C204 C205 1.392 . S
C204 H225 0.931 . S
C205 C204 1.392 . S
C205 C206 1.361 . S
C205 C207 1.500 . S
C206 C201 1.390 . S
C206 C205 1.361 . S
C206 H224 0.931 . S
C207 C205 1.500 . S
C207 C208 1.371 . S
C207 C209 1.365 . S
C208 C207 1.371 . S
C208 C218 1.386 . S
C208 H226 0.931 . S
C209 C207 1.365 . S
C209 C210 1.409 . S
C209 H227 0.929 . S
C210 C209 1.409 . S
C210 C211 1.380 . S
C210 H228 0.930 . S
C211 C210 1.380 . S
C211 C218 1.357 . S
C212 C203 1.511 . S
C212 C213 1.341 . S
C212 C214 1.371 . S
C213 C212 1.341 . S
C213 C217 1.394 . S
C213 H229 0.930 . S
C214 C212 1.371 . S
C214 C215 1.392 . S
C214 H230 0.931 . S
C215 C214 1.392 . S
C215 C216 1.331 . S
C215 H233 0.932 . S
C216 C215 1.331 . S
C216 C217 1.336 . S
C217 C213 1.394 . S
C217 C216 1.336 . S
C217 H232 0.929 . S
C218 C208 1.386 . S
C218 C211 1.357 . S
C218 H231 0.928 . S
H219 C195 0.931 . S
H220 C197 0.930 . S
H221 C199 0.929 . S
H222 C200 0.931 . S
H223 C202 0.930 . S
H224 C206 0.931 . S
H225 C204 0.931 . S
H226 C208 0.931 . S
H227 C209 0.929 . S
H228 C210 0.930 . S
H229 C213 0.930 . S
H230 C214 0.931 . S
H231 C218 0.928 . S
H232 C217 0.929 . S
H233 C215 0.932 . S
C234 C235 1.386 . S
C234 C236 1.397 . S
C234 H258 0.931 . S
C235 C234 1.386 . S
C235 C239 1.397 . S
C236 C234 1.397 . S
C236 C237 1.384 . S
C236 H259 0.930 . S
C237 C236 1.384 . S
C237 C238 1.377 . S
C237 C240 1.481 . S
C238 C237 1.377 . S
C238 C239 1.389 . S
C238 H260 0.929 . S
C239 C235 1.397 . S
C239 C238 1.389 . S
C239 H261 0.931 . S
C240 C237 1.481 . S
C240 C241 1.387 . S
C240 C245 1.390 . S
C241 C240 1.387 . S
C241 C242 1.401 . S
C241 H262 0.930 . S
C242 C241 1.401 . S
C242 C243 1.376 . S
C242 C251 1.511 . S
C243 C242 1.376 . S
C243 C244 1.392 . S
C243 H264 0.931 . S
C244 C243 1.392 . S
C244 C245 1.361 . S
C244 C246 1.500 . S
C245 C240 1.390 . S
C245 C244 1.361 . S
C245 H263 0.931 . S
C246 C244 1.500 . S
C246 C247 1.371 . S
C246 C248 1.365 . S
C247 C246 1.371 . S
C247 C257 1.386 . S
C247 H265 0.931 . S
C248 C246 1.365 . S
C248 C249 1.409 . S
C248 H266 0.929 . S
C249 C248 1.409 . S
C249 C250 1.380 . S
C249 H267 0.930 . S
C250 C249 1.380 . S
C250 C257 1.357 . S
C251 C242 1.511 . S
C251 C252 1.341 . S
C251 C253 1.371 . S
C252 C251 1.341 . S
C252 C256 1.394 . S
C252 H268 0.930 . S
C253 C251 1.371 . S
C253 C254 1.392 . S
C253 H269 0.931 . S
C254 C253 1.392 . S
C254 C255 1.331 . S
C254 H272 0.932 . S
C255 C254 1.331 . S
C255 C256 1.336 . S
C256 C252 1.394 . S
C256 C255 1.336 . S
C256 H271 0.929 . S
C257 C247 1.386 . S
C257 C250 1.357 . S
C257 H270 0.928 . S
H258 C234 0.931 . S
H259 C236 0.930 . S
H260 C238 0.929 . S
H261 C239 0.931 . S
H262 C241 0.930 . S
H263 C245 0.931 . S
H264 C243 0.931 . S
H265 C247 0.931 . S
H266 C248 0.929 . S
H267 C249 0.930 . S
H268 C252 0.930 . S
H269 C253 0.931 . S
H270 C257 0.928 . S
H271 C256 0.929 . S
H272 C254 0.932 . S
C273 C274 1.386 . S
C273 C275 1.397 . S
C273 H297 0.931 . S
C274 C273 1.386 . S
C274 C278 1.397 . S
C275 C273 1.397 . S
C275 C276 1.384 . S
C275 H298 0.930 . S
C276 C275 1.384 . S
C276 C277 1.377 . S
C276 C279 1.481 . S
C277 C276 1.377 . S
C277 C278 1.389 . S
C277 H299 0.929 . S
C278 C274 1.397 . S
C278 C277 1.389 . S
C278 H300 0.931 . S
C279 C276 1.481 . S
C279 C280 1.387 . S
C279 C284 1.390 . S
C280 C279 1.387 . S
C280 C281 1.401 . S
C280 H301 0.930 . S
C281 C280 1.401 . S
C281 C282 1.376 . S
C281 C290 1.511 . S
C282 C281 1.376 . S
C282 C283 1.392 . S
C282 H303 0.931 . S
C283 C282 1.392 . S
C283 C284 1.361 . S
C283 C285 1.500 . S
C284 C279 1.390 . S
C284 C283 1.361 . S
C284 H302 0.931 . S
C285 C283 1.500 . S
C285 C286 1.371 . S
C285 C287 1.365 . S
C286 C285 1.371 . S
C286 C296 1.386 . S
C286 H304 0.931 . S
C287 C285 1.365 . S
C287 C288 1.409 . S
C287 H305 0.929 . S
C288 C287 1.409 . S
C288 C289 1.380 . S
C288 H306 0.930 . S
C289 C288 1.380 . S
C289 C296 1.357 . S
C290 C281 1.511 . S
C290 C291 1.341 . S
C290 C292 1.371 . S
C291 C290 1.341 . S
C291 C295 1.394 . S
C291 H307 0.930 . S
C292 C290 1.371 . S
C292 C293 1.392 . S
C292 H308 0.931 . S
C293 C292 1.392 . S
C293 C294 1.331 . S
C293 H311 0.932 . S
C294 C293 1.331 . S
C294 C295 1.336 . S
C295 C291 1.394 . S
C295 C294 1.336 . S
C295 H310 0.929 . S
C296 C286 1.386 . S
C296 C289 1.357 . S
C296 H309 0.928 . S
H297 C273 0.931 . S
H298 C275 0.930 . S
H299 C277 0.929 . S
H300 C278 0.931 . S
H301 C280 0.930 . S
H302 C284 0.931 . S
H303 C282 0.931 . S
H304 C286 0.931 . S
H305 C287 0.929 . S
H306 C288 0.930 . S
H307 C291 0.930 . S
H308 C292 0.931 . S
H309 C296 0.928 . S
H310 C295 0.929 . S
H311 C293 0.932 . S
Dy312 O315 2.307 1_545 S
Dy312 O317 2.395 . S
Dy312 O318 2.379 . S
Dy312 O320 2.339 1_545 S
Dy312 O322 2.298 1_455 S
Dy312 O326 2.275 . S
Dy312 C334 2.738 . S
Dy313 O316 2.327 1_655 S
Dy313 O319 2.305 . S
Dy313 O321 2.272 1_565 S
Dy313 O323 2.439 . S
Dy313 O324 2.387 . S
Dy313 O327 2.299 1_565 S
Dy313 C343 2.767 . S
C314 O326 1.254 . S
C314 O327 1.257 1_455 S
O315 Dy312 2.307 1_565 S
O315 C325 1.266 . S
O316 Dy313 2.327 1_455 S
O316 C325 1.236 . S
O317 Dy312 2.395 . S
O317 C334 1.255 . S
O318 Dy312 2.379 . S
O318 C334 1.249 . S
O319 Dy313 2.305 . S
O319 C335 1.254 . S
O320 Dy312 2.339 1_565 S
O320 C335 1.257 1_455 S
O321 Dy313 2.272 1_545 S
O321 C336 1.266 . S
O322 Dy312 2.298 1_655 S
O322 C336 1.236 . S
O323 Dy313 2.439 . S
O323 C343 1.255 . S
O324 Dy313 2.387 . S
O324 C343 1.249 . S
C325 O315 1.266 . S
C325 O316 1.236 . S
O326 Dy312 2.275 . S
O326 C314 1.254 . S
O327 Dy313 2.299 1_545 S
O327 C314 1.257 1_655 S
C328 C331 1.344 . S
C328 C332 1.328 . S
C328 C334 1.516 . S
C329 C330 1.304 . S
C329 C333 1.323 . S
C330 C329 1.304 . S
C330 C331 1.371 . S
C330 H344 0.930 . S
C331 C328 1.344 . S
C331 C330 1.371 . S
C331 H345 0.931 . S
C332 C328 1.328 . S
C332 C333 1.433 . S
C332 H346 0.931 . S
C333 C329 1.323 . S
C333 C332 1.433 . S
C333 H347 0.933 . S
C334 Dy312 2.738 . S
C334 O317 1.255 . S
C334 O318 1.249 . S
C334 C328 1.516 . S
C335 O319 1.254 . S
C335 O320 1.257 1_655 S
C336 O321 1.266 . S
C336 O322 1.236 . S
C337 C340 1.344 . S
C337 C341 1.328 . S
C337 C343 1.516 . S
C338 C339 1.304 . S
C338 C342 1.323 . S
C339 C338 1.304 . S
C339 C340 1.371 . S
C339 H348 0.930 . S
C340 C337 1.344 . S
C340 C339 1.371 . S
C340 H349 0.931 . S
C341 C337 1.328 . S
C341 C342 1.433 . S
C341 H350 0.931 . S
C342 C338 1.323 . S
C342 C341 1.433 . S
C342 H351 0.933 . S
C343 Dy313 2.767 . S
C343 O323 1.255 . S
C343 O324 1.249 . S
C343 C337 1.516 . S
H344 C330 0.930 . S
H345 C331 0.931 . S
H346 C332 0.931 . S
H347 C333 0.933 . S
H348 C339 0.930 . S
H349 C340 0.931 . S
H350 C341 0.931 . S
H351 C342 0.933 . S
Dy352 O355 2.307 1_566 S
Dy352 O357 2.395 . S
Dy352 O358 2.379 . S
Dy352 O360 2.339 1_565 S
Dy352 O362 2.298 . S
Dy352 O366 2.275 1_556 S
Dy352 C374 2.738 . S
Dy353 O356 2.298 . S
Dy353 O359 2.275 1_554 S
Dy353 O361 2.307 1_544 S
Dy353 O363 2.395 . S
Dy353 O364 2.379 . S
Dy353 O367 2.339 1_545 S
Dy353 C383 2.738 . S
C354 O366 1.254 . S
C354 O367 1.257 . S
O355 Dy352 2.307 1_544 S
O355 C365 1.266 . S
O356 Dy353 2.298 . S
O356 C365 1.236 . S
O357 Dy352 2.395 . S
O357 C374 1.255 . S
O358 Dy352 2.379 . S
O358 C374 1.249 . S
O359 Dy353 2.275 1_556 S
O359 C375 1.254 . S
O360 Dy352 2.339 1_545 S
O360 C375 1.257 . S
O361 Dy353 2.307 1_566 S
O361 C376 1.266 . S
O362 Dy352 2.298 . S
O362 C376 1.236 . S
O363 Dy353 2.395 . S
O363 C383 1.255 . S
O364 Dy353 2.379 . S
O364 C383 1.249 . S
C365 O355 1.266 . S
C365 O356 1.236 . S
O366 Dy352 2.275 1_554 S
O366 C354 1.254 . S
O367 Dy353 2.339 1_565 S
O367 C354 1.257 . S
C368 C371 1.344 . S
C368 C372 1.328 . S
C368 C374 1.516 . S
C369 C370 1.304 . S
C369 C373 1.323 . S
C370 C369 1.304 . S
C370 C371 1.371 . S
C370 H384 0.930 . S
C371 C368 1.344 . S
C371 C370 1.371 . S
C371 H385 0.931 . S
C372 C368 1.328 . S
C372 C373 1.433 . S
C372 H386 0.931 . S
C373 C369 1.323 . S
C373 C372 1.433 . S
C373 H387 0.933 . S
C374 Dy352 2.738 . S
C374 O357 1.255 . S
C374 O358 1.249 . S
C374 C368 1.516 . S
C375 O359 1.254 . S
C375 O360 1.257 . S
C376 O361 1.266 . S
C376 O362 1.236 . S
C377 C380 1.344 . S
C377 C381 1.328 . S
C377 C383 1.516 . S
C378 C379 1.304 . S
C378 C382 1.323 . S
C379 C378 1.304 . S
C379 C380 1.371 . S
C379 H388 0.930 . S
C380 C377 1.344 . S
C380 C379 1.371 . S
C380 H389 0.931 . S
C381 C377 1.328 . S
C381 C382 1.433 . S
C381 H390 0.931 . S
C382 C378 1.323 . S
C382 C381 1.433 . S
C382 H391 0.933 . S
C383 Dy353 2.738 . S
C383 O363 1.255 . S
C383 O364 1.249 . S
C383 C377 1.516 . S
H384 C370 0.930 . S
H385 C371 0.931 . S
H386 C372 0.931 . S
H387 C373 0.933 . S
H388 C379 0.930 . S
H389 C380 0.931 . S
H390 C381 0.931 . S
H391 C382 0.933 . S
Dy392 O395 2.307 . S
Dy392 O397 2.395 . S
Dy392 O398 2.379 . S
Dy392 O400 2.339 . S
Dy392 O402 2.298 . S
Dy392 O406 2.275 . S
Dy392 C414 2.738 . S
Dy393 O396 2.298 . S
Dy393 O399 2.275 . S
Dy393 O401 2.307 . S
Dy393 O403 2.395 . S
Dy393 O404 2.379 . S
Dy393 O407 2.339 . S
Dy393 C423 2.738 . S
C394 O406 1.254 . S
C394 O407 1.257 . S
O395 Dy392 2.307 . S
O395 C405 1.266 . S
O396 Dy393 2.298 . S
O396 C405 1.236 . S
O397 Dy392 2.395 . S
O397 C414 1.255 . S
O398 Dy392 2.379 . S
O398 C414 1.249 . S
O399 Dy393 2.275 . S
O399 C415 1.254 . S
O400 Dy392 2.339 . S
O400 C415 1.257 . S
O401 Dy393 2.307 . S
O401 C416 1.266 . S
O402 Dy392 2.298 . S
O402 C416 1.236 . S
O403 Dy393 2.395 . S
O403 C423 1.255 . S
O404 Dy393 2.379 . S
O404 C423 1.249 . S
C405 O395 1.266 . S
C405 O396 1.236 . S
O406 Dy392 2.275 . S
O406 C394 1.254 . S
O407 Dy393 2.339 . S
O407 C394 1.257 . S
C408 C411 1.344 . S
C408 C412 1.328 . S
C408 C414 1.516 . S
C409 C410 1.304 . S
C409 C413 1.323 . S
C410 C409 1.304 . S
C410 C411 1.371 . S
C410 H424 0.930 . S
C411 C408 1.344 . S
C411 C410 1.371 . S
C411 H425 0.931 . S
C412 C408 1.328 . S
C412 C413 1.433 . S
C412 H426 0.931 . S
C413 C409 1.323 . S
C413 C412 1.433 . S
C413 H427 0.933 . S
C414 Dy392 2.738 . S
C414 O397 1.255 . S
C414 O398 1.249 . S
C414 C408 1.516 . S
C415 O399 1.254 . S
C415 O400 1.257 . S
C416 O401 1.266 . S
C416 O402 1.236 . S
C417 C420 1.344 . S
C417 C421 1.328 . S
C417 C423 1.516 . S
C418 C419 1.304 . S
C418 C422 1.323 . S
C419 C418 1.304 . S
C419 C420 1.371 . S
C419 H428 0.930 . S
C420 C417 1.344 . S
C420 C419 1.371 . S
C420 H429 0.931 . S
C421 C417 1.328 . S
C421 C422 1.433 . S
C421 H430 0.931 . S
C422 C418 1.323 . S
C422 C421 1.433 . S
C422 H431 0.933 . S
C423 Dy393 2.738 . S
C423 O403 1.255 . S
C423 O404 1.249 . S
C423 C417 1.516 . S
H424 C410 0.930 . S
H425 C411 0.931 . S
H426 C412 0.931 . S
H427 C413 0.933 . S
H428 C419 0.930 . S
H429 C420 0.931 . S
H430 C421 0.931 . S
H431 C422 0.933 . S
Dy432 O435 2.307 1_656 S
Dy432 O437 2.395 . S
Dy432 O438 2.379 . S
Dy432 O440 2.339 1_655 S
Dy432 O442 2.298 . S
Dy432 O446 2.275 1_556 S
Dy432 C454 2.738 . S
Dy433 O436 2.298 . S
Dy433 O439 2.275 1_554 S
Dy433 O441 2.330 1_455 S
Dy433 O443 2.395 . S
Dy433 O444 2.379 . S
Dy433 O447 2.339 1_455 S
Dy433 C463 2.738 . S
C434 O446 1.254 . S
C434 O447 1.257 . S
O435 Dy432 2.307 1_454 S
O435 C445 1.266 . S
O436 Dy433 2.298 . S
O436 C445 1.236 . S
O437 Dy432 2.395 . S
O437 C454 1.255 . S
O438 Dy432 2.379 . S
O438 C454 1.249 . S
O439 Dy433 2.275 1_556 S
O439 C455 1.254 . S
O440 Dy432 2.339 1_455 S
O440 C455 1.257 . S
O441 Dy433 2.330 1_655 S
O441 C456 1.232 1_554 S
O442 Dy432 2.298 . S
O442 C456 1.236 . S
O443 Dy433 2.395 . S
O443 C463 1.255 . S
O444 Dy433 2.379 . S
O444 C463 1.249 . S
C445 O435 1.266 . S
C445 O436 1.236 . S
O446 Dy432 2.275 1_554 S
O446 C434 1.254 . S
O447 Dy433 2.339 1_655 S
O447 C434 1.257 . S
C448 C451 1.344 . S
C448 C452 1.328 . S
C448 C454 1.516 . S
C449 C450 1.304 . S
C449 C453 1.323 . S
C450 C449 1.304 . S
C450 C451 1.371 . S
C450 H464 0.930 . S
C451 C448 1.344 . S
C451 C450 1.371 . S
C451 H465 0.931 . S
C452 C448 1.328 . S
C452 C453 1.433 . S
C452 H466 0.931 . S
C453 C449 1.323 . S
C453 C452 1.433 . S
C453 H467 0.933 . S
C454 Dy432 2.738 . S
C454 O437 1.255 . S
C454 O438 1.249 . S
C454 C448 1.516 . S
C455 O439 1.254 . S
C455 O440 1.257 . S
C456 O441 1.232 1_556 S
C456 O442 1.236 . S
C457 C460 1.344 . S
C457 C461 1.328 . S
C457 C463 1.516 . S
C458 C459 1.304 . S
C458 C462 1.323 . S
C459 C458 1.304 . S
C459 C460 1.371 . S
C459 H468 0.930 . S
C460 C457 1.344 . S
C460 C459 1.371 . S
C460 H469 0.931 . S
C461 C457 1.328 . S
C461 C462 1.433 . S
C461 H470 0.931 . S
C462 C458 1.323 . S
C462 C461 1.433 . S
C462 H471 0.933 . S
C463 Dy433 2.738 . S
C463 O443 1.255 . S
C463 O444 1.249 . S
C463 C457 1.516 . S
H464 C450 0.930 . S
H465 C451 0.931 . S
H466 C452 0.931 . S
H467 C453 0.933 . S
H468 C459 0.930 . S
H469 C460 0.931 . S
H470 C461 0.931 . S
H471 C462 0.933 . S
C472 C473 1.349 . S
C472 C474 1.327 . S
C472 H497 0.950 . S
C473 C472 1.349 . S
C473 C489 1.349 . S
C474 C472 1.327 . S
C474 C493 1.429 . S
C474 H498 0.950 . S
C475 C492 1.574 . S
C475 C494 1.368 . S
C475 H499 0.949 . S
H476 C480 0.949 . S
C477 C478 1.349 . S
C477 C479 1.327 . S
C477 H500 0.950 . S
C478 C477 1.349 . S
C478 C490 1.349 . S
C479 C477 1.327 . S
C479 C495 1.429 . S
C479 H501 0.950 . S
C480 H476 0.949 . S
C480 C488 1.574 . S
C480 C496 1.368 . S
H481 C489 0.950 . S
H482 C487 0.950 . S
H483 C488 0.949 . S
H484 C490 0.950 . S
H485 C491 0.950 . S
H486 C492 0.949 . S
C487 H482 0.950 . S
C487 C489 1.327 . S
C487 C493 1.429 . S
C488 C480 1.574 . S
C488 H483 0.949 . S
C488 C494 1.368 . S
C489 C473 1.349 . S
C489 H481 0.950 . S
C489 C487 1.327 . S
C490 C478 1.349 . S
C490 H484 0.950 . S
C490 C491 1.327 . S
C491 H485 0.950 . S
C491 C490 1.327 . S
C491 C495 1.429 . S
C492 C475 1.574 . S
C492 H486 0.949 . S
C492 C496 1.368 . S
C493 C474 1.429 . S
C493 C487 1.429 . S
C493 C494 1.523 . S
C494 C475 1.368 . S
C494 C488 1.368 . S
C494 C493 1.523 . S
C495 C479 1.429 . S
C495 C491 1.429 . S
C495 C496 1.523 . S
C496 C480 1.368 . S
C496 C492 1.368 . S
C496 C495 1.523 . S
H497 C472 0.950 . S
H498 C474 0.950 . S
H499 C475 0.949 . S
H500 C477 0.950 . S
H501 C479 0.950 . S
C502 C503 1.349 . S
C502 C504 1.327 . S
C502 H527 0.950 . S
C503 C502 1.349 . S
C503 C519 1.349 . S
C504 C502 1.327 . S
C504 C523 1.429 . S
C504 H528 0.950 . S
C505 C522 1.574 . S
C505 C524 1.368 . S
C505 H529 0.949 . S
H506 C510 0.949 . S
C507 C508 1.349 . S
C507 C509 1.327 . S
C507 H530 0.950 . S
C508 C507 1.349 . S
C508 C520 1.349 . S
C509 C507 1.327 . S
C509 C525 1.429 . S
C509 H531 0.950 . S
C510 H506 0.949 . S
C510 C518 1.574 . S
C510 C526 1.368 . S
H511 C519 0.950 . S
H512 C517 0.950 . S
H513 C518 0.949 . S
H514 C520 0.950 . S
H515 C521 0.950 . S
H516 C522 0.949 . S
C517 H512 0.950 . S
C517 C519 1.327 . S
C517 C523 1.429 . S
C518 C510 1.574 . S
C518 H513 0.949 . S
C518 C524 1.368 . S
C519 C503 1.349 . S
C519 H511 0.950 . S
C519 C517 1.327 . S
C520 C508 1.349 . S
C520 H514 0.950 . S
C520 C521 1.327 . S
C521 H515 0.950 . S
C521 C520 1.327 . S
C521 C525 1.429 . S
C522 C505 1.574 . S
C522 H516 0.949 . S
C522 C526 1.368 . S
C523 C504 1.429 . S
C523 C517 1.429 . S
C523 C524 1.523 . S
C524 C505 1.368 . S
C524 C518 1.368 . S
C524 C523 1.523 . S
C525 C509 1.429 . S
C525 C521 1.429 . S
C525 C526 1.523 . S
C526 C510 1.368 . S
C526 C522 1.368 . S
C526 C525 1.523 . S
H527 C502 0.950 . S
H528 C504 0.950 . S
H529 C505 0.949 . S
H530 C507 0.950 . S
H531 C509 0.950 . S
C532 C533 1.349 . S
C532 C534 1.327 . S
C532 H557 0.950 . S
C533 C532 1.349 . S
C533 C549 1.349 . S
C534 C532 1.327 . S
C534 C553 1.429 . S
C534 H558 0.950 . S
C535 C552 1.574 . S
C535 C554 1.368 . S
C535 H559 0.949 . S
H536 C540 0.949 . S
C537 C538 1.349 . S
C537 C539 1.327 . S
C537 H560 0.950 . S
C538 C537 1.349 . S
C538 C550 1.349 . S
C539 C537 1.327 . S
C539 C555 1.429 . S
C539 H561 0.950 . S
C540 H536 0.949 . S
C540 C548 1.574 . S
C540 C556 1.368 . S
H541 C549 0.950 . S
H542 C547 0.950 . S
H543 C548 0.949 . S
H544 C550 0.950 . S
H545 C551 0.950 . S
H546 C552 0.949 . S
C547 H542 0.950 . S
C547 C549 1.327 . S
C547 C553 1.429 . S
C548 C540 1.574 . S
C548 H543 0.949 . S
C548 C554 1.368 . S
C549 C533 1.349 . S
C549 H541 0.950 . S
C549 C547 1.327 . S
C550 C538 1.349 . S
C550 H544 0.950 . S
C550 C551 1.327 . S
C551 H545 0.950 . S
C551 C550 1.327 . S
C551 C555 1.429 . S
C552 C535 1.574 . S
C552 H546 0.949 . S
C552 C556 1.368 . S
C553 C534 1.429 . S
C553 C547 1.429 . S
C553 C554 1.523 . S
C554 C535 1.368 . S
C554 C548 1.368 . S
C554 C553 1.523 . S
C555 C539 1.429 . S
C555 C551 1.429 . S
C555 C556 1.523 . S
C556 C540 1.368 . S
C556 C552 1.368 . S
C556 C555 1.523 . S
H557 C532 0.950 . S
H558 C534 0.950 . S
H559 C535 0.949 . S
H560 C537 0.950 . S
H561 C539 0.950 . S
C562 C563 1.349 . S
C562 C564 1.327 . S
C562 H587 0.950 . S
C563 C562 1.349 . S
C563 C579 1.349 . S
C564 C562 1.327 . S
C564 C583 1.429 . S
C564 H588 0.950 . S
C565 C582 1.574 . S
C565 C584 1.368 . S
C565 H589 0.949 . S
H566 C570 0.949 . S
C567 C568 1.349 . S
C567 C569 1.327 . S
C567 H590 0.950 . S
C568 C567 1.349 . S
C568 C580 1.349 . S
C569 C567 1.327 . S
C569 C585 1.429 . S
C569 H591 0.950 . S
C570 H566 0.949 . S
C570 C578 1.574 . S
C570 C586 1.368 . S
H571 C579 0.950 . S
H572 C577 0.950 . S
H573 C578 0.949 . S
H574 C580 0.950 . S
H575 C581 0.950 . S
H576 C582 0.949 . S
C577 H572 0.950 . S
C577 C579 1.327 . S
C577 C583 1.429 . S
C578 C570 1.574 . S
C578 H573 0.949 . S
C578 C584 1.368 . S
C579 C563 1.349 . S
C579 H571 0.950 . S
C579 C577 1.327 . S
C580 C568 1.349 . S
C580 H574 0.950 . S
C580 C581 1.327 . S
C581 H575 0.950 . S
C581 C580 1.327 . S
C581 C585 1.429 . S
C582 C565 1.574 . S
C582 H576 0.949 . S
C582 C586 1.368 . S
C583 C564 1.429 . S
C583 C577 1.429 . S
C583 C584 1.523 . S
C584 C565 1.368 . S
C584 C578 1.368 . S
C584 C583 1.523 . S
C585 C569 1.429 . S
C585 C581 1.429 . S
C585 C586 1.523 . S
C586 C570 1.368 . S
C586 C582 1.368 . S
C586 C585 1.523 . S
H587 C562 0.950 . S
H588 C564 0.950 . S
H589 C565 0.949 . S
H590 C567 0.950 . S
H591 C569 0.950 . S
C592 C593 1.349 . S
C592 C594 1.327 . S
C592 H617 0.950 . S
C593 C592 1.349 . S
C593 C609 1.349 . S
C594 C592 1.327 . S
C594 C613 1.429 . S
C594 H618 0.950 . S
C595 C612 1.574 . S
C595 C614 1.368 . S
C595 H619 0.949 . S
H596 C600 0.949 . S
C597 C598 1.349 . S
C597 C599 1.327 . S
C597 H620 0.950 . S
C598 C597 1.349 . S
C598 C610 1.349 . S
C599 C597 1.327 . S
C599 C615 1.429 . S
C599 H621 0.950 . S
C600 H596 0.949 . S
C600 C608 1.574 . S
C600 C616 1.368 . S
H601 C609 0.950 . S
H602 C607 0.950 . S
H603 C608 0.949 . S
H604 C610 0.950 . S
H605 C611 0.950 . S
H606 C612 0.949 . S
C607 H602 0.950 . S
C607 C609 1.327 . S
C607 C613 1.429 . S
C608 C600 1.574 . S
C608 H603 0.949 . S
C608 C614 1.368 . S
C609 C593 1.349 . S
C609 H601 0.950 . S
C609 C607 1.327 . S
C610 C598 1.349 . S
C610 H604 0.950 . S
C610 C611 1.327 . S
C611 H605 0.950 . S
C611 C610 1.327 . S
C611 C615 1.429 . S
C612 C595 1.574 . S
C612 H606 0.949 . S
C612 C616 1.368 . S
C613 C594 1.429 . S
C613 C607 1.429 . S
C613 C614 1.523 . S
C614 C595 1.368 . S
C614 C608 1.368 . S
C614 C613 1.523 . S
C615 C599 1.429 . S
C615 C611 1.429 . S
C615 C616 1.523 . S
C616 C600 1.368 . S
C616 C612 1.368 . S
C616 C615 1.523 . S
H617 C592 0.950 . S
H618 C594 0.950 . S
H619 C595 0.949 . S
H620 C597 0.950 . S
H621 C599 0.950 . S
C622 C623 1.349 . S
C622 C624 1.327 . S
C622 H647 0.950 . S
C623 C622 1.349 . S
C623 C639 1.349 . S
C624 C622 1.327 . S
C624 C643 1.429 . S
C624 H648 0.950 . S
C625 C642 1.574 . S
C625 C644 1.368 . S
C625 H649 0.949 . S
H626 C630 0.949 . S
C627 C628 1.349 . S
C627 C629 1.327 . S
C627 H650 0.950 . S
C628 C627 1.349 . S
C628 C640 1.349 . S
C629 C627 1.327 . S
C629 C645 1.429 . S
C629 H651 0.950 . S
C630 H626 0.949 . S
C630 C638 1.574 . S
C630 C646 1.368 . S
H631 C639 0.950 . S
H632 C637 0.950 . S
H633 C638 0.949 . S
H634 C640 0.950 . S
H635 C641 0.950 . S
H636 C642 0.949 . S
C637 H632 0.950 . S
C637 C639 1.327 . S
C637 C643 1.429 . S
C638 C630 1.574 . S
C638 H633 0.949 . S
C638 C644 1.368 . S
C639 C623 1.349 . S
C639 H631 0.950 . S
C639 C637 1.327 . S
C640 C628 1.349 . S
C640 H634 0.950 . S
C640 C641 1.327 . S
C641 H635 0.950 . S
C641 C640 1.327 . S
C641 C645 1.429 . S
C642 C625 1.574 . S
C642 H636 0.949 . S
C642 C646 1.368 . S
C643 C624 1.429 . S
C643 C637 1.429 . S
C643 C644 1.523 . S
C644 C625 1.368 . S
C644 C638 1.368 . S
C644 C643 1.523 . S
C645 C629 1.429 . S
C645 C641 1.429 . S
C645 C646 1.523 . S
C646 C630 1.368 . S
C646 C642 1.368 . S
C646 C645 1.523 . S
H647 C622 0.950 . S
H648 C624 0.950 . S
H649 C625 0.949 . S
H650 C627 0.950 . S
H651 C629 0.950 . S
C652 C653 1.349 . S
C652 C654 1.327 . S
C652 H677 0.950 . S
C653 C652 1.349 . S
C653 C669 1.349 . S
C654 C652 1.327 . S
C654 C673 1.429 . S
C654 H678 0.950 . S
C655 C672 1.574 . S
C655 C674 1.368 . S
C655 H679 0.949 . S
H656 C660 0.949 . S
C657 C658 1.349 . S
C657 C659 1.327 . S
C657 H680 0.950 . S
C658 C657 1.349 . S
C658 C670 1.349 . S
C659 C657 1.327 . S
C659 C675 1.429 . S
C659 H681 0.950 . S
C660 H656 0.949 . S
C660 C668 1.574 . S
C660 C676 1.368 . S
H661 C669 0.950 . S
H662 C667 0.950 . S
H663 C668 0.949 . S
H664 C670 0.950 . S
H665 C671 0.950 . S
H666 C672 0.949 . S
C667 H662 0.950 . S
C667 C669 1.327 . S
C667 C673 1.429 . S
C668 C660 1.574 . S
C668 H663 0.949 . S
C668 C674 1.368 . S
C669 C653 1.349 . S
C669 H661 0.950 . S
C669 C667 1.327 . S
C670 C658 1.349 . S
C670 H664 0.950 . S
C670 C671 1.327 . S
C671 H665 0.950 . S
C671 C670 1.327 . S
C671 C675 1.429 . S
C672 C655 1.574 . S
C672 H666 0.949 . S
C672 C676 1.368 . S
C673 C654 1.429 . S
C673 C667 1.429 . S
C673 C674 1.523 . S
C674 C655 1.368 . S
C674 C668 1.368 . S
C674 C673 1.523 . S
C675 C659 1.429 . S
C675 C671 1.429 . S
C675 C676 1.523 . S
C676 C660 1.368 . S
C676 C672 1.368 . S
C676 C675 1.523 . S
H677 C652 0.950 . S
H678 C654 0.950 . S
H679 C655 0.949 . S
H680 C657 0.950 . S
H681 C659 0.950 . S
C682 C683 1.349 . S
C682 C684 1.327 . S
C682 H707 0.950 . S
C683 C682 1.349 . S
C683 C699 1.349 . S
C684 C682 1.327 . S
C684 C703 1.429 . S
C684 H708 0.950 . S
C685 C702 1.574 . S
C685 C704 1.368 . S
C685 H709 0.949 . S
H686 C690 0.949 . S
C687 C688 1.349 . S
C687 C689 1.327 . S
C687 H710 0.950 . S
C688 C687 1.349 . S
C688 C700 1.349 . S
C689 C687 1.327 . S
C689 C705 1.429 . S
C689 H711 0.950 . S
C690 H686 0.949 . S
C690 C698 1.574 . S
C690 C706 1.368 . S
H691 C699 0.950 . S
H692 C697 0.950 . S
H693 C698 0.949 . S
H694 C700 0.950 . S
H695 C701 0.950 . S
H696 C702 0.949 . S
C697 H692 0.950 . S
C697 C699 1.327 . S
C697 C703 1.429 . S
C698 C690 1.574 . S
C698 H693 0.949 . S
C698 C704 1.368 . S
C699 C683 1.349 . S
C699 H691 0.950 . S
C699 C697 1.327 . S
C700 C688 1.349 . S
C700 H694 0.950 . S
C700 C701 1.327 . S
C701 H695 0.950 . S
C701 C700 1.327 . S
C701 C705 1.429 . S
C702 C685 1.574 . S
C702 H696 0.949 . S
C702 C706 1.368 . S
C703 C684 1.429 . S
C703 C697 1.429 . S
C703 C704 1.523 . S
C704 C685 1.368 . S
C704 C698 1.368 . S
C704 C703 1.523 . S
C705 C689 1.429 . S
C705 C701 1.429 . S
C705 C706 1.523 . S
C706 C690 1.368 . S
C706 C702 1.368 . S
C706 C705 1.523 . S
H707 C682 0.950 . S
H708 C684 0.950 . S
H709 C685 0.949 . S
H710 C687 0.950 . S
H711 C689 0.950 . S
C712 C713 1.349 . S
C712 C714 1.327 . S
C712 H737 0.950 . S
C713 C712 1.349 . S
C713 C729 1.349 . S
C714 C712 1.327 . S
C714 C733 1.429 . S
C714 H738 0.950 . S
C715 C732 1.574 . S
C715 C734 1.368 . S
C715 H739 0.949 . S
H716 C720 0.949 . S
C717 C718 1.349 . S
C717 C719 1.327 . S
C717 H740 0.950 . S
C718 C717 1.349 . S
C718 C730 1.349 . S
C719 C717 1.327 . S
C719 C735 1.429 . S
C719 H741 0.950 . S
C720 H716 0.949 . S
C720 C728 1.574 . S
C720 C736 1.368 . S
H721 C729 0.950 . S
H722 C727 0.950 . S
H723 C728 0.949 . S
H724 C730 0.950 . S
H725 C731 0.950 . S
H726 C732 0.949 . S
C727 H722 0.950 . S
C727 C729 1.327 . S
C727 C733 1.429 . S
C728 C720 1.574 . S
C728 H723 0.949 . S
C728 C734 1.368 . S
C729 C713 1.349 . S
C729 H721 0.950 . S
C729 C727 1.327 . S
C730 C718 1.349 . S
C730 H724 0.950 . S
C730 C731 1.327 . S
C731 H725 0.950 . S
C731 C730 1.327 . S
C731 C735 1.429 . S
C732 C715 1.574 . S
C732 H726 0.949 . S
C732 C736 1.368 . S
C733 C714 1.429 . S
C733 C727 1.429 . S
C733 C734 1.523 . S
C734 C715 1.368 . S
C734 C728 1.368 . S
C734 C733 1.523 . S
C735 C719 1.429 . S
C735 C731 1.429 . S
C735 C736 1.523 . S
C736 C720 1.368 . S
C736 C732 1.368 . S
C736 C735 1.523 . S
H737 C712 0.950 . S
H738 C714 0.950 . S
H739 C715 0.949 . S
H740 C717 0.950 . S
H741 C719 0.950 . S
C742 C743 1.349 . S
C742 C744 1.327 . S
C742 H767 0.950 . S
C743 C742 1.349 . S
C743 C759 1.349 . S
C744 C742 1.327 . S
C744 C763 1.429 . S
C744 H768 0.950 . S
C745 C762 1.574 . S
C745 C764 1.368 . S
C745 H769 0.949 . S
H746 C750 0.949 . S
C747 C748 1.349 . S
C747 C749 1.327 . S
C747 H770 0.950 . S
C748 C747 1.349 . S
C748 C760 1.349 . S
C749 C747 1.327 . S
C749 C765 1.429 . S
C749 H771 0.950 . S
C750 H746 0.949 . S
C750 C758 1.574 . S
C750 C766 1.368 . S
H751 C759 0.950 . S
H752 C757 0.950 . S
H753 C758 0.949 . S
H754 C760 0.950 . S
H755 C761 0.950 . S
H756 C762 0.949 . S
C757 H752 0.950 . S
C757 C759 1.327 . S
C757 C763 1.429 . S
C758 C750 1.574 . S
C758 H753 0.949 . S
C758 C764 1.368 . S
C759 C743 1.349 . S
C759 H751 0.950 . S
C759 C757 1.327 . S
C760 C748 1.349 . S
C760 H754 0.950 . S
C760 C761 1.327 . S
C761 H755 0.950 . S
C761 C760 1.327 . S
C761 C765 1.429 . S
C762 C745 1.574 . S
C762 H756 0.949 . S
C762 C766 1.368 . S
C763 C744 1.429 . S
C763 C757 1.429 . S
C763 C764 1.523 . S
C764 C745 1.368 . S
C764 C758 1.368 . S
C764 C763 1.523 . S
C765 C749 1.429 . S
C765 C761 1.429 . S
C765 C766 1.523 . S
C766 C750 1.368 . S
C766 C762 1.368 . S
C766 C765 1.523 . S
H767 C742 0.950 . S
H768 C744 0.950 . S
H769 C745 0.949 . S
H770 C747 0.950 . S
H771 C749 0.950 . S
C772 C773 1.349 . S
C772 C774 1.327 . S
C772 H797 0.950 . S
C773 C772 1.349 . S
C773 C789 1.349 . S
C774 C772 1.327 . S
C774 C793 1.429 . S
C774 H798 0.950 . S
C775 C792 1.574 . S
C775 C794 1.368 . S
C775 H799 0.949 . S
H776 C780 0.949 . S
C777 C778 1.349 . S
C777 C779 1.327 . S
C777 H800 0.950 . S
C778 C777 1.349 . S
C778 C790 1.349 . S
C779 C777 1.327 . S
C779 C795 1.429 . S
C779 H801 0.950 . S
C780 H776 0.949 . S
C780 C788 1.574 . S
C780 C796 1.368 . S
H781 C789 0.950 . S
H782 C787 0.950 . S
H783 C788 0.949 . S
H784 C790 0.950 . S
H785 C791 0.950 . S
H786 C792 0.949 . S
C787 H782 0.950 . S
C787 C789 1.327 . S
C787 C793 1.429 . S
C788 C780 1.574 . S
C788 H783 0.949 . S
C788 C794 1.368 . S
C789 C773 1.349 . S
C789 H781 0.950 . S
C789 C787 1.327 . S
C790 C778 1.349 . S
C790 H784 0.950 . S
C790 C791 1.327 . S
C791 H785 0.950 . S
C791 C790 1.327 . S
C791 C795 1.429 . S
C792 C775 1.574 . S
C792 H786 0.949 . S
C792 C796 1.368 . S
C793 C774 1.429 . S
C793 C787 1.429 . S
C793 C794 1.523 . S
C794 C775 1.368 . S
C794 C788 1.368 . S
C794 C793 1.523 . S
C795 C779 1.429 . S
C795 C791 1.429 . S
C795 C796 1.523 . S
C796 C780 1.368 . S
C796 C792 1.368 . S
C796 C795 1.523 . S
H797 C772 0.950 . S
H798 C774 0.950 . S
H799 C775 0.949 . S
H800 C777 0.950 . S
H801 C779 0.950 . S
C802 C803 1.349 . S
C802 C804 1.327 . S
C802 H827 0.950 . S
C803 C802 1.349 . S
C803 C819 1.349 . S
C804 C802 1.327 . S
C804 C823 1.429 . S
C804 H828 0.950 . S
C805 C822 1.574 . S
C805 C824 1.368 . S
C805 H829 0.949 . S
H806 C810 0.949 . S
C807 C808 1.349 . S
C807 C809 1.327 . S
C807 H830 0.950 . S
C808 C807 1.349 . S
C808 C820 1.349 . S
C809 C807 1.327 . S
C809 C825 1.429 . S
C809 H831 0.950 . S
C810 H806 0.949 . S
C810 C818 1.574 . S
C810 C826 1.368 . S
H811 C819 0.950 . S
H812 C817 0.950 . S
H813 C818 0.949 . S
H814 C820 0.950 . S
H815 C821 0.950 . S
H816 C822 0.949 . S
C817 H812 0.950 . S
C817 C819 1.327 . S
C817 C823 1.429 . S
C818 C810 1.574 . S
C818 H813 0.949 . S
C818 C824 1.368 . S
C819 C803 1.349 . S
C819 H811 0.950 . S
C819 C817 1.327 . S
C820 C808 1.349 . S
C820 H814 0.950 . S
C820 C821 1.327 . S
C821 H815 0.950 . S
C821 C820 1.327 . S
C821 C825 1.429 . S
C822 C805 1.574 . S
C822 H816 0.949 . S
C822 C826 1.368 . S
C823 C804 1.429 . S
C823 C817 1.429 . S
C823 C824 1.523 . S
C824 C805 1.368 . S
C824 C818 1.368 . S
C824 C823 1.523 . S
C825 C809 1.429 . S
C825 C821 1.429 . S
C825 C826 1.523 . S
C826 C810 1.368 . S
C826 C822 1.368 . S
C826 C825 1.523 . S
H827 C802 0.950 . S
H828 C804 0.950 . S
H829 C805 0.949 . S
H830 C807 0.950 . S
H831 C809 0.950 . S
C832 C833 1.349 . S
C832 C834 1.327 . S
C832 H857 0.950 . S
C833 C832 1.349 . S
C833 C849 1.349 . S
C834 C832 1.327 . S
C834 C853 1.429 . S
C834 H858 0.950 . S
C835 C852 1.574 . S
C835 C854 1.368 . S
C835 H859 0.949 . S
H836 C840 0.949 . S
C837 C838 1.349 . S
C837 C839 1.327 . S
C837 H860 0.950 . S
C838 C837 1.349 . S
C838 C850 1.349 . S
C839 C837 1.327 . S
C839 C855 1.429 . S
C839 H861 0.950 . S
C840 H836 0.949 . S
C840 C848 1.574 . S
C840 C856 1.368 . S
H841 C849 0.950 . S
H842 C847 0.950 . S
H843 C848 0.949 . S
H844 C850 0.950 . S
H845 C851 0.950 . S
H846 C852 0.949 . S
C847 H842 0.950 . S
C847 C849 1.327 . S
C847 C853 1.429 . S
C848 C840 1.574 . S
C848 H843 0.949 . S
C848 C854 1.368 . S
C849 C833 1.349 . S
C849 H841 0.950 . S
C849 C847 1.327 . S
C850 C838 1.349 . S
C850 H844 0.950 . S
C850 C851 1.327 . S
C851 H845 0.950 . S
C851 C850 1.327 . S
C851 C855 1.429 . S
C852 C835 1.574 . S
C852 H846 0.949 . S
C852 C856 1.368 . S
C853 C834 1.429 . S
C853 C847 1.429 . S
C853 C854 1.523 . S
C854 C835 1.368 . S
C854 C848 1.368 . S
C854 C853 1.523 . S
C855 C839 1.429 . S
C855 C851 1.429 . S
C855 C856 1.523 . S
C856 C840 1.368 . S
C856 C852 1.368 . S
C856 C855 1.523 . S
H857 C832 0.950 . S
H858 C834 0.950 . S
H859 C835 0.949 . S
H860 C837 0.950 . S
H861 C839 0.950 . S
C862 C863 1.349 . S
C862 C864 1.327 . S
C862 H887 0.950 . S
C863 C862 1.349 . S
C863 C879 1.349 . S
C864 C862 1.327 . S
C864 C883 1.429 . S
C864 H888 0.950 . S
C865 C882 1.574 . S
C865 C884 1.368 . S
C865 H889 0.949 . S
H866 C870 0.949 . S
C867 C868 1.349 . S
C867 C869 1.327 . S
C867 H890 0.950 . S
C868 C867 1.349 . S
C868 C880 1.349 . S
C869 C867 1.327 . S
C869 C885 1.429 . S
C869 H891 0.950 . S
C870 H866 0.949 . S
C870 C878 1.574 . S
C870 C886 1.368 . S
H871 C879 0.950 . S
H872 C877 0.950 . S
H873 C878 0.949 . S
H874 C880 0.950 . S
H875 C881 0.950 . S
H876 C882 0.949 . S
C877 H872 0.950 . S
C877 C879 1.327 . S
C877 C883 1.429 . S
C878 C870 1.574 . S
C878 H873 0.949 . S
C878 C884 1.368 . S
C879 C863 1.349 . S
C879 H871 0.950 . S
C879 C877 1.327 . S
C880 C868 1.349 . S
C880 H874 0.950 . S
C880 C881 1.327 . S
C881 H875 0.950 . S
C881 C880 1.327 . S
C881 C885 1.429 . S
C882 C865 1.574 . S
C882 H876 0.949 . S
C882 C886 1.368 . S
C883 C864 1.429 . S
C883 C877 1.429 . S
C883 C884 1.523 . S
C884 C865 1.368 . S
C884 C878 1.368 . S
C884 C883 1.523 . S
C885 C869 1.429 . S
C885 C881 1.429 . S
C885 C886 1.523 . S
C886 C870 1.368 . S
C886 C882 1.368 . S
C886 C885 1.523 . S
H887 C862 0.950 . S
H888 C864 0.950 . S
H889 C865 0.949 . S
H890 C867 0.950 . S
H891 C869 0.950 . S
C892 C893 1.349 . S
C892 C894 1.327 . S
C892 H917 0.950 . S
C893 C892 1.349 . S
C893 C909 1.349 . S
C894 C892 1.327 . S
C894 C913 1.429 . S
C894 H918 0.950 . S
C895 C912 1.574 . S
C895 C914 1.368 . S
C895 H919 0.949 . S
H896 C900 0.949 . S
C897 C898 1.349 . S
C897 C899 1.327 . S
C897 H920 0.950 . S
C898 C897 1.349 . S
C898 C910 1.349 . S
C899 C897 1.327 . S
C899 C915 1.429 . S
C899 H921 0.950 . S
C900 H896 0.949 . S
C900 C908 1.574 . S
C900 C916 1.368 . S
H901 C909 0.950 . S
H902 C907 0.950 . S
H903 C908 0.949 . S
H904 C910 0.950 . S
H905 C911 0.950 . S
H906 C912 0.949 . S
C907 H902 0.950 . S
C907 C909 1.327 . S
C907 C913 1.429 . S
C908 C900 1.574 . S
C908 H903 0.949 . S
C908 C914 1.368 . S
C909 C893 1.349 . S
C909 H901 0.950 . S
C909 C907 1.327 . S
C910 C898 1.349 . S
C910 H904 0.950 . S
C910 C911 1.327 . S
C911 H905 0.950 . S
C911 C910 1.327 . S
C911 C915 1.429 . S
C912 C895 1.574 . S
C912 H906 0.949 . S
C912 C916 1.368 . S
C913 C894 1.429 . S
C913 C907 1.429 . S
C913 C914 1.523 . S
C914 C895 1.368 . S
C914 C908 1.368 . S
C914 C913 1.523 . S
C915 C899 1.429 . S
C915 C911 1.429 . S
C915 C916 1.523 . S
C916 C900 1.368 . S
C916 C912 1.368 . S
C916 C915 1.523 . S
H917 C892 0.950 . S
H918 C894 0.950 . S
H919 C895 0.949 . S
H920 C897 0.950 . S
H921 C899 0.950 . S
C922 C923 1.349 . S
C922 C924 1.327 . S
C922 H947 0.950 . S
C923 C922 1.349 . S
C923 C939 1.349 . S
C924 C922 1.327 . S
C924 C943 1.429 . S
C924 H948 0.950 . S
C925 C942 1.574 . S
C925 C944 1.368 . S
C925 H949 0.949 . S
H926 C930 0.949 . S
C927 C928 1.349 . S
C927 C929 1.327 . S
C927 H950 0.950 . S
C928 C927 1.349 . S
C928 C940 1.349 . S
C929 C927 1.327 . S
C929 C945 1.429 . S
C929 H951 0.950 . S
C930 H926 0.949 . S
C930 C938 1.574 . S
C930 C946 1.368 . S
H931 C939 0.950 . S
H932 C937 0.950 . S
H933 C938 0.949 . S
H934 C940 0.950 . S
H935 C941 0.950 . S
H936 C942 0.949 . S
C937 H932 0.950 . S
C937 C939 1.327 . S
C937 C943 1.429 . S
C938 C930 1.574 . S
C938 H933 0.949 . S
C938 C944 1.368 . S
C939 C923 1.349 . S
C939 H931 0.950 . S
C939 C937 1.327 . S
C940 C928 1.349 . S
C940 H934 0.950 . S
C940 C941 1.327 . S
C941 H935 0.950 . S
C941 C940 1.327 . S
C941 C945 1.429 . S
C942 C925 1.574 . S
C942 H936 0.949 . S
C942 C946 1.368 . S
C943 C924 1.429 . S
C943 C937 1.429 . S
C943 C944 1.523 . S
C944 C925 1.368 . S
C944 C938 1.368 . S
C944 C943 1.523 . S
C945 C929 1.429 . S
C945 C941 1.429 . S
C945 C946 1.523 . S
C946 C930 1.368 . S
C946 C942 1.368 . S
C946 C945 1.523 . S
H947 C922 0.950 . S
H948 C924 0.950 . S
H949 C925 0.949 . S
H950 C927 0.950 . S
H951 C929 0.950 . S
C952 C953 1.349 . S
C952 C954 1.327 . S
C952 H977 0.950 . S
C953 C952 1.349 . S
C953 C969 1.349 . S
C954 C952 1.327 . S
C954 C973 1.429 . S
C954 H978 0.950 . S
C955 C972 1.574 . S
C955 C974 1.368 . S
C955 H979 0.949 . S
H956 C960 0.949 . S
C957 C958 1.349 . S
C957 C959 1.327 . S
C957 H980 0.950 . S
C958 C957 1.349 . S
C958 C970 1.349 . S
C959 C957 1.327 . S
C959 C975 1.429 . S
C959 H981 0.950 . S
C960 H956 0.949 . S
C960 C968 1.574 . S
C960 C976 1.368 . S
H961 C969 0.950 . S
H962 C967 0.950 . S
H963 C968 0.949 . S
H964 C970 0.950 . S
H965 C971 0.950 . S
H966 C972 0.949 . S
C967 H962 0.950 . S
C967 C969 1.327 . S
C967 C973 1.429 . S
C968 C960 1.574 . S
C968 H963 0.949 . S
C968 C974 1.368 . S
C969 C953 1.349 . S
C969 H961 0.950 . S
C969 C967 1.327 . S
C970 C958 1.349 . S
C970 H964 0.950 . S
C970 C971 1.327 . S
C971 H965 0.950 . S
C971 C970 1.327 . S
C971 C975 1.429 . S
C972 C955 1.574 . S
C972 H966 0.949 . S
C972 C976 1.368 . S
C973 C954 1.429 . S
C973 C967 1.429 . S
C973 C974 1.523 . S
C974 C955 1.368 . S
C974 C968 1.368 . S
C974 C973 1.523 . S
C975 C959 1.429 . S
C975 C971 1.429 . S
C975 C976 1.523 . S
C976 C960 1.368 . S
C976 C972 1.368 . S
C976 C975 1.523 . S
H977 C952 0.950 . S
H978 C954 0.950 . S
H979 C955 0.949 . S
H980 C957 0.950 . S
H981 C959 0.950 . S
C982 C983 1.349 . S
C982 C984 1.327 . S
C982 H1007 0.950 . S
C983 C982 1.349 . S
C983 C999 1.349 . S
C984 C982 1.327 . S
C984 C1003 1.429 . S
C984 H1008 0.950 . S
C985 C1002 1.574 . S
C985 C1004 1.368 . S
C985 H1009 0.949 . S
H986 C990 0.949 . S
C987 C988 1.349 . S
C987 C989 1.327 . S
C987 H1010 0.950 . S
C988 C987 1.349 . S
C988 C1000 1.349 . S
C989 C987 1.327 . S
C989 C1005 1.429 . S
C989 H1011 0.950 . S
C990 H986 0.949 . S
C990 C998 1.574 . S
C990 C1006 1.368 . S
H991 C999 0.950 . S
H992 C997 0.950 . S
H993 C998 0.949 . S
H994 C1000 0.950 . S
H995 C1001 0.950 . S
H996 C1002 0.949 . S
C997 H992 0.950 . S
C997 C999 1.327 . S
C997 C1003 1.429 . S
C998 C990 1.574 . S
C998 H993 0.949 . S
C998 C1004 1.368 . S
C999 C983 1.349 . S
C999 H991 0.950 . S
C999 C997 1.327 . S
C1000 C988 1.349 . S
C1000 H994 0.950 . S
C1000 C1001 1.327 . S
C1001 H995 0.950 . S
C1001 C1000 1.327 . S
C1001 C1005 1.429 . S
C1002 C985 1.574 . S
C1002 H996 0.949 . S
C1002 C1006 1.368 . S
C1003 C984 1.429 . S
C1003 C997 1.429 . S
C1003 C1004 1.523 . S
C1004 C985 1.368 . S
C1004 C998 1.368 . S
C1004 C1003 1.523 . S
C1005 C989 1.429 . S
C1005 C1001 1.429 . S
C1005 C1006 1.523 . S
C1006 C990 1.368 . S
C1006 C1002 1.368 . S
C1006 C1005 1.523 . S
H1007 C982 0.950 . S
H1008 C984 0.950 . S
H1009 C985 0.949 . S
H1010 C987 0.950 . S
H1011 C989 0.950 . S
C1012 C1013 1.349 . S
C1012 C1014 1.327 . S
C1012 H1037 0.950 . S
C1013 C1012 1.349 . S
C1013 C1029 1.349 . S
C1014 C1012 1.327 . S
C1014 C1033 1.429 . S
C1014 H1038 0.950 . S
C1015 C1032 1.574 . S
C1015 C1034 1.368 . S
C1015 H1039 0.949 . S
H1016 C1020 0.949 . S
C1017 C1018 1.349 . S
C1017 C1019 1.327 . S
C1017 H1040 1.000 . S
C1018 C1017 1.349 . S
C1018 C1030 1.349 . S
C1019 C1017 1.327 . S
C1019 C1035 1.429 . S
C1019 H1041 0.950 . S
C1020 H1016 0.949 . S
C1020 C1028 1.574 . S
C1020 C1036 1.368 . S
H1021 C1029 0.950 . S
H1022 C1027 0.950 . S
H1023 C1028 0.949 . S
H1024 C1030 0.950 . S
H1025 C1031 0.950 . S
H1026 C1032 0.949 . S
C1027 H1022 0.950 . S
C1027 C1029 1.327 . S
C1027 C1033 1.429 . S
C1028 C1020 1.574 . S
C1028 H1023 0.949 . S
C1028 C1034 1.368 . S
C1029 C1013 1.349 . S
C1029 H1021 0.950 . S
C1029 C1027 1.327 . S
C1030 C1018 1.349 . S
C1030 H1024 0.950 . S
C1030 C1031 1.327 . S
C1031 H1025 0.950 . S
C1031 C1030 1.327 . S
C1031 C1035 1.429 . S
C1032 C1015 1.574 . S
C1032 H1026 0.949 . S
C1032 C1036 1.368 . S
C1033 C1014 1.429 . S
C1033 C1027 1.429 . S
C1033 C1034 1.523 . S
C1034 C1015 1.368 . S
C1034 C1028 1.368 . S
C1034 C1033 1.523 . S
C1035 C1019 1.429 . S
C1035 C1031 1.429 . S
C1035 C1036 1.523 . S
C1036 C1020 1.368 . S
C1036 C1032 1.368 . S
C1036 C1035 1.523 . S
H1037 C1012 0.950 . S
H1038 C1014 0.950 . S
H1039 C1015 0.949 . S
H1040 C1017 1.000 . S
H1041 C1019 0.950 . S
C1042 C1043 1.349 . S
C1042 C1044 1.327 . S
C1042 H1067 0.950 . S
C1043 C1042 1.349 . S
C1043 C1059 1.349 . S
C1044 C1042 1.327 . S
C1044 C1063 1.429 . S
C1044 H1068 0.950 . S
C1045 C1062 1.574 . S
C1045 C1064 1.368 . S
C1045 H1069 0.949 . S
H1046 C1050 0.949 . S
C1047 C1048 1.349 . S
C1047 C1049 1.327 . S
C1047 H1070 0.950 . S
C1048 C1047 1.349 . S
C1048 C1060 1.349 . S
C1049 C1047 1.327 . S
C1049 C1065 1.429 . S
C1049 H1071 0.950 . S
C1050 H1046 0.949 . S
C1050 C1058 1.574 . S
C1050 C1066 1.368 . S
H1051 C1059 0.950 . S
H1052 C1057 0.950 . S
H1053 C1058 0.949 . S
H1054 C1060 0.950 . S
H1055 C1061 0.950 . S
H1056 C1062 0.949 . S
C1057 H1052 0.950 . S
C1057 C1059 1.327 . S
C1057 C1063 1.429 . S
C1058 C1050 1.574 . S
C1058 H1053 0.949 . S
C1058 C1064 1.368 . S
C1059 C1043 1.349 . S
C1059 H1051 0.950 . S
C1059 C1057 1.327 . S
C1060 C1048 1.349 . S
C1060 H1054 0.950 . S
C1060 C1061 1.327 . S
C1061 H1055 0.950 . S
C1061 C1060 1.327 . S
C1061 C1065 1.429 . S
C1062 C1045 1.574 . S
C1062 H1056 0.949 . S
C1062 C1066 1.368 . S
C1063 C1044 1.429 . S
C1063 C1057 1.429 . S
C1063 C1064 1.523 . S
C1064 C1045 1.368 . S
C1064 C1058 1.368 . S
C1064 C1063 1.523 . S
C1065 C1049 1.429 . S
C1065 C1061 1.429 . S
C1065 C1066 1.523 . S
C1066 C1050 1.368 . S
C1066 C1062 1.368 . S
C1066 C1065 1.523 . S
H1067 C1042 0.950 . S
H1068 C1044 0.950 . S
H1069 C1045 0.949 . S
H1070 C1047 0.950 . S
H1071 C1049 0.950 . S
C1072 C1073 1.349 . S
C1072 C1074 1.327 . S
C1072 H1097 0.950 . S
C1073 C1072 1.349 . S
C1073 C1089 1.349 . S
C1074 C1072 1.327 . S
C1074 C1093 1.429 . S
C1074 H1098 0.950 . S
C1075 C1092 1.574 . S
C1075 C1094 1.368 . S
C1075 H1099 0.949 . S
H1076 C1080 0.949 . S
C1077 C1078 1.349 . S
C1077 C1079 1.327 . S
C1077 H1100 0.950 . S
C1078 C1077 1.349 . S
C1078 C1090 1.349 . S
C1079 C1077 1.327 . S
C1079 C1095 1.429 . S
C1079 H1101 0.950 . S
C1080 H1076 0.949 . S
C1080 C1088 1.574 . S
C1080 C1096 1.368 . S
H1081 C1089 0.950 . S
H1082 C1087 0.950 . S
H1083 C1088 0.949 . S
H1084 C1090 0.950 . S
H1085 C1091 0.950 . S
H1086 C1092 0.949 . S
C1087 H1082 0.950 . S
C1087 C1089 1.327 . S
C1087 C1093 1.429 . S
C1088 C1080 1.574 . S
C1088 H1083 0.949 . S
C1088 C1094 1.368 . S
C1089 C1073 1.349 . S
C1089 H1081 0.950 . S
C1089 C1087 1.327 . S
C1090 C1078 1.349 . S
C1090 H1084 0.950 . S
C1090 C1091 1.327 . S
C1091 H1085 0.950 . S
C1091 C1090 1.327 . S
C1091 C1095 1.429 . S
C1092 C1075 1.574 . S
C1092 H1086 0.949 . S
C1092 C1096 1.368 . S
C1093 C1074 1.429 . S
C1093 C1087 1.429 . S
C1093 C1094 1.523 . S
C1094 C1075 1.368 . S
C1094 C1088 1.368 . S
C1094 C1093 1.523 . S
C1095 C1079 1.429 . S
C1095 C1091 1.429 . S
C1095 C1096 1.523 . S
C1096 C1080 1.368 . S
C1096 C1092 1.368 . S
C1096 C1095 1.523 . S
H1097 C1072 0.950 . S
H1098 C1074 0.950 . S
H1099 C1075 0.949 . S
H1100 C1077 0.950 . S
H1101 C1079 0.950 . S
C1102 C1103 1.349 . S
C1102 C1104 1.327 . S
C1102 H1127 0.950 . S
C1103 C1102 1.349 . S
C1103 C1119 1.349 . S
C1104 C1102 1.327 . S
C1104 C1123 1.429 . S
C1104 H1128 0.950 . S
C1105 C1122 1.574 . S
C1105 C1124 1.368 . S
C1105 H1129 0.949 . S
H1106 C1110 0.949 . S
C1107 C1108 1.349 . S
C1107 C1109 1.327 . S
C1107 H1130 0.950 . S
C1108 C1107 1.349 . S
C1108 C1120 1.349 . S
C1109 C1107 1.327 . S
C1109 C1125 1.429 . S
C1109 H1131 0.950 . S
C1110 H1106 0.949 . S
C1110 C1118 1.574 . S
C1110 C1126 1.368 . S
H1111 C1119 0.950 . S
H1112 C1117 0.950 . S
H1113 C1118 0.949 . S
H1114 C1120 0.950 . S
H1115 C1121 0.950 . S
H1116 C1122 0.949 . S
C1117 H1112 0.950 . S
C1117 C1119 1.327 . S
C1117 C1123 1.429 . S
C1118 C1110 1.574 . S
C1118 H1113 0.949 . S
C1118 C1124 1.368 . S
C1119 C1103 1.349 . S
C1119 H1111 0.950 . S
C1119 C1117 1.327 . S
C1120 C1108 1.349 . S
C1120 H1114 0.950 . S
C1120 C1121 1.327 . S
C1121 H1115 0.950 . S
C1121 C1120 1.327 . S
C1121 C1125 1.429 . S
C1122 C1105 1.574 . S
C1122 H1116 0.949 . S
C1122 C1126 1.368 . S
C1123 C1104 1.429 . S
C1123 C1117 1.429 . S
C1123 C1124 1.523 . S
C1124 C1105 1.368 . S
C1124 C1118 1.368 . S
C1124 C1123 1.523 . S
C1125 C1109 1.429 . S
C1125 C1121 1.429 . S
C1125 C1126 1.523 . S
C1126 C1110 1.368 . S
C1126 C1122 1.368 . S
C1126 C1125 1.523 . S
H1127 C1102 0.950 . S
H1128 C1104 0.950 . S
H1129 C1105 0.949 . S
H1130 C1107 0.950 . S
H1131 C1109 0.950 . S
C1132 C1133 1.349 . S
C1132 C1134 1.327 . S
C1132 H1157 0.950 . S
C1133 C1132 1.349 . S
C1133 C1149 1.349 . S
C1134 C1132 1.327 . S
C1134 C1153 1.429 . S
C1134 H1158 0.950 . S
C1135 C1152 1.574 . S
C1135 C1154 1.368 . S
C1135 H1159 0.949 . S
H1136 C1140 0.949 . S
C1137 C1138 1.349 . S
C1137 C1139 1.327 . S
C1137 H1160 0.950 . S
C1138 C1137 1.349 . S
C1138 C1150 1.349 . S
C1139 C1137 1.327 . S
C1139 C1155 1.429 . S
C1139 H1161 0.950 . S
C1140 H1136 0.949 . S
C1140 C1148 1.574 . S
C1140 C1156 1.368 . S
H1141 C1149 0.950 . S
H1142 C1147 0.950 . S
H1143 C1148 0.949 . S
H1144 C1150 0.950 . S
H1145 C1151 0.950 . S
H1146 C1152 0.949 . S
C1147 H1142 0.950 . S
C1147 C1149 1.327 . S
C1147 C1153 1.429 . S
C1148 C1140 1.574 . S
C1148 H1143 0.949 . S
C1148 C1154 1.368 . S
C1149 C1133 1.349 . S
C1149 H1141 0.950 . S
C1149 C1147 1.327 . S
C1150 C1138 1.349 . S
C1150 H1144 0.950 . S
C1150 C1151 1.327 . S
C1151 H1145 0.950 . S
C1151 C1150 1.327 . S
C1151 C1155 1.429 . S
C1152 C1135 1.574 . S
C1152 H1146 0.949 . S
C1152 C1156 1.368 . S
C1153 C1134 1.429 . S
C1153 C1147 1.429 . S
C1153 C1154 1.523 . S
C1154 C1135 1.368 . S
C1154 C1148 1.368 . S
C1154 C1153 1.523 . S
C1155 C1139 1.429 . S
C1155 C1151 1.429 . S
C1155 C1156 1.523 . S
C1156 C1140 1.368 . S
C1156 C1152 1.368 . S
C1156 C1155 1.523 . S
H1157 C1132 0.950 . S
H1158 C1134 0.950 . S
H1159 C1135 0.949 . S
H1160 C1137 0.950 . S
H1161 C1139 0.950 . S
C1162 C1163 1.349 . S
C1162 C1164 1.327 . S
C1162 H1187 0.950 . S
C1163 C1162 1.349 . S
C1163 C1179 1.349 . S
C1164 C1162 1.327 . S
C1164 C1183 1.429 . S
C1164 H1188 0.950 . S
C1165 C1182 1.574 . S
C1165 C1184 1.368 . S
C1165 H1189 0.949 . S
H1166 C1170 0.949 . S
C1167 C1168 1.349 . S
C1167 C1169 1.327 . S
C1167 H1190 0.950 . S
C1168 C1167 1.349 . S
C1168 C1180 1.349 . S
C1169 C1167 1.327 . S
C1169 C1185 1.429 . S
C1169 H1191 0.950 . S
C1170 H1166 0.949 . S
C1170 C1178 1.574 . S
C1170 C1186 1.368 . S
H1171 C1179 0.950 . S
H1172 C1177 0.950 . S
H1173 C1178 0.949 . S
H1174 C1180 0.950 . S
H1175 C1181 0.950 . S
H1176 C1182 0.949 . S
C1177 H1172 0.950 . S
C1177 C1179 1.327 . S
C1177 C1183 1.429 . S
C1178 C1170 1.574 . S
C1178 H1173 0.949 . S
C1178 C1184 1.368 . S
C1179 C1163 1.349 . S
C1179 H1171 0.950 . S
C1179 C1177 1.327 . S
C1180 C1168 1.349 . S
C1180 H1174 0.950 . S
C1180 C1181 1.327 . S
C1181 H1175 0.950 . S
C1181 C1180 1.327 . S
C1181 C1185 1.429 . S
C1182 C1165 1.574 . S
C1182 H1176 0.949 . S
C1182 C1186 1.368 . S
C1183 C1164 1.429 . S
C1183 C1177 1.429 . S
C1183 C1184 1.523 . S
C1184 C1165 1.368 . S
C1184 C1178 1.368 . S
C1184 C1183 1.523 . S
C1185 C1169 1.429 . S
C1185 C1181 1.429 . S
C1185 C1186 1.523 . S
C1186 C1170 1.368 . S
C1186 C1182 1.368 . S
C1186 C1185 1.523 . S
H1187 C1162 0.950 . S
H1188 C1164 0.950 . S
H1189 C1165 0.949 . S
H1190 C1167 0.950 . S
H1191 C1169 0.950 . S
C473 C1 1.178 . S
C478 C329 1.200 . S
C503 C40 1.182 . S
C508 C369 1.196 . S
C538 C394 2.335 . S
C533 C99 2.394 . S
C563 C118 2.378 . S
C568 C434 2.321 . S
C598 C365 1.802 . S
C593 C16 1.757 . S
C628 C325 1.798 . S
C623 C60 1.758 . S
C658 C456 1.599 . S
C653 C79 1.618 . S
C688 C416 1.561 . S
C683 C138 1.575 . S
C713 C21 1.269 . S
C718 C458 1.293 . S
C748 C375 2.118 . S
C743 C94 2.154 . S
C773 C133 2.121 . S
C778 C335 2.087 . S
C803 C55 1.271 . S
C808 C418 1.292 . S
C838 C338 1.204 . S
C833 C157 1.187 . S
C863 C196 1.178 . S
C868 C378 1.197 . S
C893 C255 2.390 . S
C898 C415 2.333 . S
C923 C289 2.375 . S
C928 C455 2.316 . S
C953 C172 1.750 . S
C958 C376 1.800 . S
C988 C336 1.800 . S
C983 C216 1.744 . S
C1018 C445 1.599 . S
C1013 C235 1.618 . S
C1048 C405 1.558 . S
C1043 C294 1.576 . S
C1073 C177 1.278 . S
C1078 C449 1.291 . S
C1108 C354 2.119 . S
C1103 C250 2.156 . S
C1138 C314 2.091 . S
C1133 C274 2.124 . S
C1163 C211 1.272 . S
C1168 C409 1.290 . S
