# Generated by pormake.
# Topology eea, (3,6)-cn, num edge types: 1
# Building blocks:
#     Node 0, Type 0, BuildingBlock: VETTIZ_charged_linker_0, # of connection points: 3
#     Node 1, Type 0, BuildingBlock: VETTIZ_charged_linker_0, # of connection points: 3
#     Node 2, Type 0, BuildingBlock: VETTIZ_charged_linker_0, # of connection points: 3
#     Node 3, Type 0, BuildingBlock: VETTIZ_charged_linker_0, # of connection points: 3
#     Node 4, Type 0, BuildingBlock: VETTIZ_charged_linker_0, # of connection points: 3
#     Node 5, Type 0, BuildingBlock: VETTIZ_charged_linker_0, # of connection points: 3
#     Node 6, Type 0, BuildingBlock: VETTIZ_charged_linker_0, # of connection points: 3
#     Node 7, Type 0, BuildingBlock: VETTIZ_charged_linker_0, # of connection points: 3
#     Node 8, Type 0, BuildingBlock: VETTIZ_charged_linker_0, # of connection points: 3
#     Node 9, Type 0, BuildingBlock: VETTIZ_charged_linker_0, # of connection points: 3
#     Node 10, Type 0, BuildingBlock: VETTIZ_charged_linker_0, # of connection points: 3
#     Node 11, Type 0, BuildingBlock: VETTIZ_charged_linker_0, # of connection points: 3
#     Node 12, Type 0, BuildingBlock: VETTIZ_charged_linker_0, # of connection points: 3
#     Node 13, Type 0, BuildingBlock: VETTIZ_charged_linker_0, # of connection points: 3
#     Node 14, Type 0, BuildingBlock: VETTIZ_charged_linker_0, # of connection points: 3
#     Node 15, Type 0, BuildingBlock: VETTIZ_charged_linker_0, # of connection points: 3
#     Node 16, Type 0, BuildingBlock: VETTIZ_charged_linker_0, # of connection points: 3
#     Node 17, Type 0, BuildingBlock: VETTIZ_charged_linker_0, # of connection points: 3
#     Node 18, Type 1, BuildingBlock: CIFDUS_clean_sbu_1, # of connection points: 6
#     Node 19, Type 1, BuildingBlock: CIFDUS_clean_sbu_1, # of connection points: 6
#     Node 20, Type 1, BuildingBlock: CIFDUS_clean_sbu_1, # of connection points: 6
#     Node 21, Type 1, BuildingBlock: CIFDUS_clean_sbu_1, # of connection points: 6
#     Node 22, Type 1, BuildingBlock: CIFDUS_clean_sbu_1, # of connection points: 6
#     Node 23, Type 1, BuildingBlock: CIFDUS_clean_sbu_1, # of connection points: 6
#     Node 24, Type 1, BuildingBlock: CIFDUS_clean_sbu_1, # of connection points: 6
#     Node 25, Type 1, BuildingBlock: CIFDUS_clean_sbu_1, # of connection points: 6
#     Node 26, Type 1, BuildingBlock: CIFDUS_clean_sbu_1, # of connection points: 6
#     Edge 27, Type (0, 1), BuildingBlock: XIVTED_clean_linker_0, # of connection points: 2
#     Edge 28, Type (0, 1), BuildingBlock: XIVTED_clean_linker_0, # of connection points: 2
#     Edge 29, Type (0, 1), BuildingBlock: XIVTED_clean_linker_0, # of connection points: 2
#     Edge 30, Type (0, 1), BuildingBlock: XIVTED_clean_linker_0, # of connection points: 2
#     Edge 31, Type (0, 1), BuildingBlock: XIVTED_clean_linker_0, # of connection points: 2
#     Edge 32, Type (0, 1), BuildingBlock: XIVTED_clean_linker_0, # of connection points: 2
#     Edge 33, Type (0, 1), BuildingBlock: XIVTED_clean_linker_0, # of connection points: 2
#     Edge 34, Type (0, 1), BuildingBlock: XIVTED_clean_linker_0, # of connection points: 2
#     Edge 35, Type (0, 1), BuildingBlock: XIVTED_clean_linker_0, # of connection points: 2
#     Edge 36, Type (0, 1), BuildingBlock: XIVTED_clean_linker_0, # of connection points: 2
#     Edge 37, Type (0, 1), BuildingBlock: XIVTED_clean_linker_0, # of connection points: 2
#     Edge 38, Type (0, 1), BuildingBlock: XIVTED_clean_linker_0, # of connection points: 2
#     Edge 39, Type (0, 1), BuildingBlock: XIVTED_clean_linker_0, # of connection points: 2
#     Edge 40, Type (0, 1), BuildingBlock: XIVTED_clean_linker_0, # of connection points: 2
#     Edge 41, Type (0, 1), BuildingBlock: XIVTED_clean_linker_0, # of connection points: 2
#     Edge 42, Type (0, 1), BuildingBlock: XIVTED_clean_linker_0, # of connection points: 2
#     Edge 43, Type (0, 1), BuildingBlock: XIVTED_clean_linker_0, # of connection points: 2
#     Edge 44, Type (0, 1), BuildingBlock: XIVTED_clean_linker_0, # of connection points: 2
#     Edge 45, Type (0, 1), BuildingBlock: XIVTED_clean_linker_0, # of connection points: 2
#     Edge 46, Type (0, 1), BuildingBlock: XIVTED_clean_linker_0, # of connection points: 2
#     Edge 47, Type (0, 1), BuildingBlock: XIVTED_clean_linker_0, # of connection points: 2
#     Edge 48, Type (0, 1), BuildingBlock: XIVTED_clean_linker_0, # of connection points: 2
#     Edge 49, Type (0, 1), BuildingBlock: XIVTED_clean_linker_0, # of connection points: 2
#     Edge 50, Type (0, 1), BuildingBlock: XIVTED_clean_linker_0, # of connection points: 2
#     Edge 51, Type (0, 1), BuildingBlock: XIVTED_clean_linker_0, # of connection points: 2
#     Edge 52, Type (0, 1), BuildingBlock: XIVTED_clean_linker_0, # of connection points: 2
#     Edge 53, Type (0, 1), BuildingBlock: XIVTED_clean_linker_0, # of connection points: 2
#     Edge 54, Type (0, 1), BuildingBlock: XIVTED_clean_linker_0, # of connection points: 2
#     Edge 55, Type (0, 1), BuildingBlock: XIVTED_clean_linker_0, # of connection points: 2
#     Edge 56, Type (0, 1), BuildingBlock: XIVTED_clean_linker_0, # of connection points: 2
#     Edge 57, Type (0, 1), BuildingBlock: XIVTED_clean_linker_0, # of connection points: 2
#     Edge 58, Type (0, 1), BuildingBlock: XIVTED_clean_linker_0, # of connection points: 2
#     Edge 59, Type (0, 1), BuildingBlock: XIVTED_clean_linker_0, # of connection points: 2
#     Edge 60, Type (0, 1), BuildingBlock: XIVTED_clean_linker_0, # of connection points: 2
#     Edge 61, Type (0, 1), BuildingBlock: XIVTED_clean_linker_0, # of connection points: 2
#     Edge 62, Type (0, 1), BuildingBlock: XIVTED_clean_linker_0, # of connection points: 2
#     Edge 63, Type (0, 1), BuildingBlock: XIVTED_clean_linker_0, # of connection points: 2
#     Edge 64, Type (0, 1), BuildingBlock: XIVTED_clean_linker_0, # of connection points: 2
#     Edge 65, Type (0, 1), BuildingBlock: XIVTED_clean_linker_0, # of connection points: 2
#     Edge 66, Type (0, 1), BuildingBlock: XIVTED_clean_linker_0, # of connection points: 2
#     Edge 67, Type (0, 1), BuildingBlock: XIVTED_clean_linker_0, # of connection points: 2
#     Edge 68, Type (0, 1), BuildingBlock: XIVTED_clean_linker_0, # of connection points: 2
#     Edge 69, Type (0, 1), BuildingBlock: XIVTED_clean_linker_0, # of connection points: 2
#     Edge 70, Type (0, 1), BuildingBlock: XIVTED_clean_linker_0, # of connection points: 2
#     Edge 71, Type (0, 1), BuildingBlock: XIVTED_clean_linker_0, # of connection points: 2
#     Edge 72, Type (0, 1), BuildingBlock: XIVTED_clean_linker_0, # of connection points: 2
#     Edge 73, Type (0, 1), BuildingBlock: XIVTED_clean_linker_0, # of connection points: 2
#     Edge 74, Type (0, 1), BuildingBlock: XIVTED_clean_linker_0, # of connection points: 2
#     Edge 75, Type (0, 1), BuildingBlock: XIVTED_clean_linker_0, # of connection points: 2
#     Edge 76, Type (0, 1), BuildingBlock: XIVTED_clean_linker_0, # of connection points: 2
#     Edge 77, Type (0, 1), BuildingBlock: XIVTED_clean_linker_0, # of connection points: 2
#     Edge 78, Type (0, 1), BuildingBlock: XIVTED_clean_linker_0, # of connection points: 2
#     Edge 79, Type (0, 1), BuildingBlock: XIVTED_clean_linker_0, # of connection points: 2
#     Edge 80, Type (0, 1), BuildingBlock: XIVTED_clean_linker_0, # of connection points: 2
# Relax obj value: 0.101
# Max RMSD: 0.186
# Mean RMSD: 0.095
data_MOF--net-eea--node1-CIFDUS_clean_sbu_1--node2-VETTIZ_charged_linker_0--edge1-XIVTED_clean_linker_0
_symmetry_space_group_name_H-M    P1
_symmetry_Int_Tables_number       1
_symmetry_cell_setting            triclinic
loop_
_symmetry_equiv_pos_as_xyz
'x, y, z'
_cell_length_a     66.490725
_cell_length_b     65.635009
_cell_length_c     68.085593
_cell_angle_alpha  89.873791
_cell_angle_beta   89.928633
_cell_angle_gamma 119.99103
loop_
_atom_site_label
_atom_site_type_symbol
_atom_site_fract_x
_atom_site_fract_y
_atom_site_fract_z
_atom_type_partial_charge
C0 C 0.23311 0.17436 0.36433 0.0
C1 C 0.23672 0.19533 0.37321 0.0
C2 C 0.25025 0.20325 0.39041 0.0
C3 C 0.25387 0.16849 0.39103 0.0
C4 C 0.24201 0.1613 0.37344 0.0
C5 C 0.23863 0.13777 0.36704 0.0
H6 H 0.24734 0.04186 0.39083 0.0
C7 C 0.25823 0.14992 0.39821 0.0
C8 C 0.24955 0.13182 0.38416 0.0
H9 H 0.21502 0.05094 0.33918 0.0
H10 H 0.22714 0.09111 0.34908 0.0
H11 H 0.29334 0.09417 0.39207 0.0
H12 H 0.22551 0.0599 0.41805 0.0
H13 H 0.2433 0.0799 0.4359 0.0
H14 H 0.24876 0.05683 0.42808 0.0
H15 H 0.28467 0.07271 0.41137 0.0
H16 H 0.29711 0.10364 0.4166 0.0
C17 C 0.25235 0.14138 0.34777 0.0
C18 C 0.21225 0.12024 0.36518 0.0
C19 C 0.28923 0.15491 0.46759 0.0
C20 C 0.29298 0.13908 0.4789 0.0
C21 C 0.28976 0.11828 0.47003 0.0
C22 C 0.28255 0.11306 0.45052 0.0
C23 C 0.27818 0.12861 0.43962 0.0
C24 C 0.2818 0.14928 0.44805 0.0
C25 C 0.27578 0.16336 0.43418 0.0
C26 C 0.26753 0.14739 0.41625 0.0
C27 C 0.26898 0.12715 0.41964 0.0
C28 C 0.29825 0.187 0.42982 0.0
C29 C 0.25596 0.16594 0.44371 0.0
C30 C 0.24338 0.05266 0.38134 0.0
C31 C 0.23048 0.04344 0.36417 0.0
C32 C 0.22498 0.05779 0.35254 0.0
C33 C 0.23192 0.08098 0.35836 0.0
C34 C 0.24386 0.0895 0.37624 0.0
C35 C 0.24951 0.07533 0.38721 0.0
C36 C 0.26035 0.08592 0.4065 0.0
C37 C 0.26094 0.10918 0.40531 0.0
C38 C 0.25127 0.11136 0.38762 0.0
C39 C 0.28512 0.08921 0.40686 0.0
C40 C 0.24387 0.06988 0.42308 0.0
H41 H 0.26836 0.19675 0.41264 0.0
H42 H 0.22301 0.16794 0.35099 0.0
H43 H 0.20229 0.12379 0.37647 0.0
H44 H 0.20768 0.10181 0.36771 0.0
H45 H 0.2057 0.12165 0.35053 0.0
H46 H 0.26997 0.15715 0.34884 0.0
H47 H 0.24334 0.14407 0.33515 0.0
H48 H 0.25512 0.12652 0.34445 0.0
H49 H 0.29174 0.17118 0.47383 0.0
H50 H 0.29203 0.10551 0.47837 0.0
H51 H 0.28013 0.09677 0.44487 0.0
H52 H 0.31393 0.1851 0.43091 0.0
H53 H 0.30045 0.20085 0.44037 0.0
H54 H 0.29877 0.19334 0.41466 0.0
H55 H 0.24343 0.14945 0.45145 0.0
H56 H 0.24537 0.16905 0.43299 0.0
H57 H 0.26293 0.18037 0.45467 0.0
H58 H 0.25316 0.21911 0.39775 0.0
C59 C 0.25889 0.19005 0.39925 0.0
C60 C 0.93217 0.17155 0.35899 0.0
C61 C 0.9503 0.19224 0.36696 0.0
C62 C 0.94676 0.20128 0.38451 0.0
C63 C 0.90788 0.16781 0.387 0.0
C64 C 0.91102 0.15976 0.36913 0.0
C65 C 0.89009 0.13703 0.36311 0.0
H66 H 0.78953 0.04204 0.39031 0.0
C67 C 0.88486 0.15032 0.39472 0.0
C68 C 0.87422 0.13237 0.38062 0.0
H69 H 0.82593 0.05309 0.33514 0.0
H70 H 0.85299 0.09335 0.34447 0.0
H71 H 0.83022 0.06241 0.41556 0.0
H72 H 0.79234 0.09324 0.39107 0.0
H73 H 0.80053 0.10555 0.41458 0.0
H74 H 0.78229 0.07406 0.41202 0.0
H75 H 0.80336 0.05759 0.42588 0.0
H76 H 0.83099 0.08149 0.43377 0.0
C77 C 0.89754 0.11822 0.36099 0.0
C78 C 0.88001 0.14147 0.34414 0.0
C79 C 0.86174 0.15577 0.46535 0.0
C80 C 0.84247 0.14 0.47678 0.0
C81 C 0.82439 0.11981 0.46797 0.0
C82 C 0.8256 0.11488 0.44826 0.0
C83 C 0.84529 0.13008 0.43717 0.0
C84 C 0.86285 0.15033 0.44555 0.0
C85 C 0.88255 0.16397 0.43128 0.0
C86 C 0.87386 0.14824 0.41316 0.0
C87 C 0.8521 0.12849 0.4169 0.0
C88 C 0.90474 0.16543 0.43999 0.0
C89 C 0.88449 0.18816 0.42755 0.0
C90 C 0.80282 0.05317 0.37986 0.0
C91 C 0.80568 0.04417 0.36206 0.0
C92 C 0.82362 0.05941 0.34917 0.0
C93 C 0.83932 0.08275 0.35462 0.0
C94 C 0.83721 0.09077 0.37325 0.0
C95 C 0.81865 0.07624 0.38513 0.0
C96 C 0.81913 0.0871 0.40456 0.0
C97 C 0.84129 0.11054 0.40265 0.0
C98 C 0.85202 0.11259 0.38444 0.0
C99 C 0.82084 0.07142 0.4209 0.0
C100 C 0.79743 0.09006 0.40584 0.0
H101 H 0.92401 0.19659 0.40813 0.0
H102 H 0.93459 0.1645 0.34538 0.0
H103 H 0.88205 0.15936 0.3442 0.0
H104 H 0.86114 0.12932 0.34265 0.0
H105 H 0.88902 0.14011 0.33088 0.0
H106 H 0.90981 0.12007 0.37287 0.0
H107 H 0.90641 0.12009 0.34671 0.0
H108 H 0.883 0.10005 0.36232 0.0
H109 H 0.87585 0.17148 0.47182 0.0
H110 H 0.80924 0.10771 0.47643 0.0
H111 H 0.81132 0.09905 0.44261 0.0
H112 H 0.90067 0.14837 0.44682 0.0
H113 H 0.91237 0.17916 0.45154 0.0
H114 H 0.91821 0.16901 0.42892 0.0
H115 H 0.86705 0.18663 0.42773 0.0
H116 H 0.89176 0.1955 0.41293 0.0
H117 H 0.89517 0.20105 0.43903 0.0
H118 H 0.96067 0.21736 0.39072 0.0
C119 C 0.92559 0.18917 0.3946 0.0
C120 C 0.93071 0.75802 0.36223 0.0
C121 C 0.94926 0.75702 0.37096 0.0
C122 C 0.94621 0.74625 0.38947 0.0
C123 C 0.9069 0.73937 0.39107 0.0
C124 C 0.9098 0.74933 0.37261 0.0
C125 C 0.88918 0.75131 0.36638 0.0
H126 H 0.78647 0.74247 0.38977 0.0
C127 C 0.88389 0.73396 0.39856 0.0
C128 C 0.87337 0.74079 0.38405 0.0
H129 H 0.82754 0.77222 0.33719 0.0
H130 H 0.85429 0.75973 0.34782 0.0
H131 H 0.79286 0.69526 0.39284 0.0
H132 H 0.82588 0.76476 0.41706 0.0
H133 H 0.82773 0.74723 0.43553 0.0
H134 H 0.79955 0.74129 0.42722 0.0
H135 H 0.77996 0.70427 0.41158 0.0
H136 H 0.79862 0.6925 0.4176 0.0
C137 C 0.87871 0.73618 0.34775 0.0
C138 C 0.89722 0.77779 0.36367 0.0
C139 C 0.8593 0.70414 0.46858 0.0
C140 C 0.83997 0.70037 0.47983 0.0
C141 C 0.82204 0.70249 0.47095 0.0
C142 C 0.82348 0.70885 0.45121 0.0
C143 C 0.84328 0.71358 0.44028 0.0
C144 C 0.86069 0.71094 0.44885 0.0
C145 C 0.88079 0.71771 0.43501 0.0
C146 C 0.87251 0.72495 0.41685 0.0
C147 C 0.85055 0.72245 0.42013 0.0
C148 C 0.88295 0.69564 0.43117 0.0
C149 C 0.90273 0.73862 0.44417 0.0
C150 C 0.80107 0.74607 0.38041 0.0
C151 C 0.80501 0.75862 0.36271 0.0
C152 C 0.82401 0.76252 0.35084 0.0
C153 C 0.83971 0.75549 0.35717 0.0
C154 C 0.8365 0.74464 0.37565 0.0
C155 C 0.81712 0.73961 0.38669 0.0
C156 C 0.81716 0.72935 0.40642 0.0
C157 C 0.83989 0.72924 0.40549 0.0
C158 C 0.85115 0.73819 0.38747 0.0
C159 C 0.79601 0.70407 0.40737 0.0
C160 C 0.81743 0.74629 0.42249 0.0
H161 H 0.92377 0.72936 0.41363 0.0
H162 H 0.93283 0.76651 0.3481 0.0
H163 H 0.91148 0.78884 0.37403 0.0
H164 H 0.88346 0.78202 0.367 0.0
H165 H 0.90378 0.78384 0.34854 0.0
H166 H 0.87945 0.71964 0.34871 0.0
H167 H 0.88844 0.74581 0.33438 0.0
H168 H 0.86014 0.7304 0.34577 0.0
H169 H 0.87337 0.70271 0.47519 0.0
H170 H 0.80692 0.69937 0.47938 0.0
H171 H 0.80931 0.71034 0.44537 0.0
H172 H 0.86548 0.6797 0.42982 0.0
H173 H 0.89215 0.69256 0.44341 0.0
H174 H 0.89192 0.69668 0.41723 0.0
H175 H 0.89818 0.75033 0.45249 0.0
H176 H 0.9155 0.75023 0.43311 0.0
H177 H 0.91137 0.73234 0.45452 0.0
H178 H 0.96042 0.74529 0.39631 0.0
C179 C 0.92501 0.73716 0.3995 0.0
C180 C 0.17375 0.24478 0.6394 0.0
C181 C 0.19402 0.24661 0.63122 0.0
C182 C 0.20132 0.25701 0.61246 0.0
C183 C 0.16762 0.26184 0.60991 0.0
C184 C 0.16078 0.2522 0.62845 0.0
C185 C 0.1376 0.2491 0.63419 0.0
H186 H 0.04143 0.25335 0.61016 0.0
C187 C 0.14936 0.26606 0.60194 0.0
C188 C 0.13177 0.25867 0.61611 0.0
H189 H 0.05557 0.22656 0.66323 0.0
H190 H 0.09433 0.23891 0.65179 0.0
H191 H 0.09522 0.30195 0.60583 0.0
H192 H 0.0618 0.23186 0.58177 0.0
H193 H 0.07925 0.25126 0.56321 0.0
H194 H 0.0554 0.25381 0.57302 0.0
H195 H 0.07149 0.29135 0.58882 0.0
H196 H 0.10104 0.3037 0.58042 0.0
C197 C 0.14106 0.26442 0.65255 0.0
C198 C 0.1205 0.22236 0.6371 0.0
C199 C 0.15698 0.29742 0.53268 0.0
C200 C 0.14204 0.30096 0.52046 0.0
C201 C 0.1207 0.2972 0.52802 0.0
C202 C 0.11428 0.28977 0.54754 0.0
C203 C 0.12915 0.28558 0.55942 0.0
C204 C 0.15014 0.28954 0.55192 0.0
C205 C 0.16321 0.28295 0.56611 0.0
C206 C 0.1469 0.27483 0.58358 0.0
C207 C 0.1269 0.27628 0.57961 0.0
C208 C 0.18663 0.30532 0.5708 0.0
C209 C 0.1655 0.26255 0.55698 0.0
C210 C 0.05313 0.25053 0.61934 0.0
C211 C 0.0457 0.23901 0.63756 0.0
C212 C 0.06106 0.23527 0.64909 0.0
C213 C 0.08349 0.24241 0.64239 0.0
C214 C 0.09043 0.25295 0.62377 0.0
C215 C 0.07551 0.25716 0.61264 0.0
C216 C 0.08566 0.26761 0.59286 0.0
C217 C 0.10901 0.2687 0.59395 0.0
C218 C 0.11161 0.26012 0.61212 0.0
C219 C 0.08844 0.29244 0.59173 0.0
C220 C 0.06975 0.25046 0.57676 0.0
H221 H 0.19465 0.2721 0.58756 0.0
H222 H 0.16766 0.2371 0.6538 0.0
H223 H 0.12505 0.21165 0.62737 0.0
H224 H 0.10245 0.21701 0.63306 0.0
H225 H 0.12083 0.21685 0.65248 0.0
H226 H 0.15811 0.28102 0.65197 0.0
H227 H 0.14066 0.25498 0.66624 0.0
H228 H 0.12807 0.27018 0.65367 0.0
H229 H 0.17327 0.29974 0.52709 0.0
H230 H 0.10897 0.29987 0.51877 0.0
H231 H 0.09782 0.28714 0.55249 0.0
H232 H 0.18444 0.32104 0.57167 0.0
H233 H 0.19974 0.30876 0.55922 0.0
H234 H 0.19375 0.30444 0.58521 0.0
H235 H 0.15018 0.2511 0.54771 0.0
H236 H 0.16594 0.2505 0.56809 0.0
H237 H 0.18119 0.26937 0.54753 0.0
H238 H 0.21659 0.25832 0.60552 0.0
C239 C 0.18835 0.26477 0.60186 0.0
C240 C 0.75368 0.81871 0.63669 0.0
C241 C 0.75089 0.79792 0.62806 0.0
C242 C 0.73724 0.78927 0.61098 0.0
C243 C 0.73214 0.82314 0.60983 0.0
C244 C 0.74393 0.83091 0.6274 0.0
C245 C 0.74637 0.85414 0.63353 0.0
H246 H 0.73247 0.9468 0.60982 0.0
C247 C 0.72672 0.84094 0.60247 0.0
C248 C 0.73457 0.85904 0.61645 0.0
H249 H 0.77075 0.94072 0.65876 0.0
H250 H 0.75701 0.90026 0.65043 0.0
H251 H 0.7547 0.92847 0.58169 0.0
H252 H 0.68772 0.894 0.60943 0.0
H253 H 0.68337 0.88288 0.58539 0.0
H254 H 0.69461 0.91396 0.58916 0.0
H255 H 0.73132 0.93259 0.57361 0.0
H256 H 0.73557 0.90947 0.56399 0.0
C257 C 0.77259 0.87258 0.63495 0.0
C258 C 0.73285 0.85035 0.65295 0.0
C259 C 0.69827 0.83578 0.53213 0.0
C260 C 0.69221 0.85018 0.52129 0.0
C261 C 0.69194 0.86913 0.53061 0.0
C262 C 0.69839 0.8743 0.5503 0.0
C263 C 0.70522 0.86036 0.56086 0.0
C264 C 0.70439 0.84103 0.552 0.0
C265 C 0.7109 0.82752 0.56606 0.0
C266 C 0.71723 0.8429 0.58433 0.0
C267 C 0.71403 0.86215 0.58105 0.0
C268 C 0.73208 0.82679 0.55735 0.0
C269 C 0.68918 0.80295 0.5695 0.0
C270 C 0.73815 0.93703 0.61881 0.0
C271 C 0.75333 0.94762 0.63471 0.0
C272 C 0.75918 0.93343 0.64635 0.0
C273 C 0.75149 0.9099 0.64131 0.0
C274 C 0.73841 0.90058 0.62412 0.0
C275 C 0.73171 0.91406 0.61339 0.0
C276 C 0.72048 0.90279 0.59429 0.0
C277 C 0.7211 0.88007 0.59541 0.0
C278 C 0.73146 0.87868 0.61297 0.0
C279 C 0.73606 0.91906 0.57741 0.0
C280 C 0.69526 0.89825 0.59437 0.0
H281 H 0.71837 0.79451 0.5886 0.0
H282 H 0.76382 0.8257 0.64994 0.0
H283 H 0.71551 0.83415 0.65216 0.0
H284 H 0.72947 0.86483 0.65621 0.0
H285 H 0.74238 0.84832 0.6655 0.0
H286 H 0.78301 0.86848 0.62456 0.0
H287 H 0.77932 0.87305 0.64997 0.0
H288 H 0.77651 0.89046 0.63076 0.0
H289 H 0.69817 0.82084 0.52532 0.0
H290 H 0.68722 0.88032 0.52246 0.0
H291 H 0.69825 0.88926 0.55642 0.0
H292 H 0.74499 0.84432 0.55133 0.0
H293 H 0.72667 0.81384 0.5452 0.0
H294 H 0.74162 0.82248 0.56825 0.0
H295 H 0.67281 0.80313 0.56656 0.0
H296 H 0.68754 0.79707 0.58498 0.0
H297 H 0.68934 0.78947 0.55977 0.0
H298 H 0.73489 0.7735 0.60383 0.0
C299 C 0.72782 0.80166 0.60193 0.0
C300 C 0.06505 0.82209 0.63623 0.0
C301 C 0.0463 0.80245 0.62743 0.0
C302 C 0.04974 0.79424 0.60933 0.0
C303 C 0.08928 0.82678 0.60788 0.0
C304 C 0.08628 0.83409 0.62616 0.0
C305 C 0.10709 0.85694 0.63227 0.0
H306 H 0.20729 0.95327 0.60509 0.0
C307 C 0.11227 0.84459 0.60023 0.0
C308 C 0.12287 0.8623 0.61456 0.0
H309 H 0.17103 0.94179 0.66037 0.0
H310 H 0.14387 0.90156 0.65083 0.0
H311 H 0.20478 0.90251 0.60429 0.0
H312 H 0.16632 0.9326 0.5796 0.0
H313 H 0.16621 0.91387 0.56134 0.0
H314 H 0.19351 0.93797 0.56959 0.0
H315 H 0.21465 0.92146 0.5832 0.0
H316 H 0.19657 0.88992 0.58087 0.0
C317 C 0.1176 0.85244 0.65091 0.0
C318 C 0.09923 0.87536 0.63501 0.0
C319 C 0.13559 0.84034 0.52938 0.0
C320 C 0.15494 0.85615 0.51801 0.0
C321 C 0.1731 0.8761 0.52706 0.0
C322 C 0.17184 0.88077 0.54685 0.0
C323 C 0.15204 0.86553 0.55783 0.0
C324 C 0.13448 0.84545 0.54927 0.0
C325 C 0.11469 0.83165 0.56343 0.0
C326 C 0.1233 0.84707 0.58172 0.0
C327 C 0.14508 0.86689 0.57814 0.0
C328 C 0.11269 0.80738 0.56688 0.0
C329 C 0.09256 0.83038 0.55474 0.0
C330 C 0.19393 0.94209 0.61548 0.0
C331 C 0.19129 0.95094 0.63345 0.0
C332 C 0.17323 0.93562 0.64623 0.0
C333 C 0.15748 0.91229 0.64066 0.0
C334 C 0.1596 0.90432 0.62199 0.0
C335 C 0.17808 0.91904 0.61011 0.0
C336 C 0.17777 0.90826 0.59069 0.0
C337 C 0.15572 0.88472 0.59251 0.0
C338 C 0.14493 0.88241 0.61076 0.0
C339 C 0.19959 0.90548 0.58949 0.0
C340 C 0.17603 0.9239 0.57435 0.0
H341 H 0.07262 0.79928 0.58574 0.0
H342 H 0.06282 0.82881 0.65009 0.0
H343 H 0.08628 0.87315 0.62365 0.0
H344 H 0.11344 0.89364 0.63327 0.0
H345 H 0.09103 0.87345 0.64963 0.0
H346 H 0.11711 0.83528 0.64991 0.0
H347 H 0.10774 0.85197 0.66425 0.0
H348 H 0.1361 0.86571 0.65293 0.0
H349 H 0.12137 0.82481 0.5228 0.0
H350 H 0.18838 0.88822 0.51874 0.0
H351 H 0.18616 0.89646 0.55267 0.0
H352 H 0.13019 0.80908 0.56744 0.0
H353 H 0.10286 0.79498 0.55484 0.0
H354 H 0.10447 0.79937 0.58108 0.0
H355 H 0.09685 0.84712 0.54717 0.0
H356 H 0.0796 0.82802 0.56596 0.0
H357 H 0.08423 0.81598 0.5438 0.0
H358 H 0.03562 0.77886 0.60248 0.0
C359 C 0.07119 0.80615 0.59962 0.0
C360 C 0.8984 0.50885 0.69895 0.0
C361 C 0.90092 0.52933 0.70793 0.0
C362 C 0.91602 0.53873 0.72415 0.0
C363 C 0.92181 0.50515 0.72454 0.0
C364 C 0.90909 0.49715 0.70742 0.0
C365 C 0.90656 0.47407 0.70086 0.0
H366 H 0.91331 0.37759 0.72468 0.0
C367 C 0.92727 0.48713 0.73151 0.0
C368 C 0.91854 0.4689 0.71756 0.0
H369 H 0.8828 0.38861 0.67258 0.0
H370 H 0.89728 0.42917 0.68197 0.0
H371 H 0.9608 0.42896 0.72519 0.0
H372 H 0.89358 0.39785 0.75206 0.0
H373 H 0.91231 0.41753 0.76965 0.0
H374 H 0.91624 0.39354 0.76172 0.0
H375 H 0.95197 0.40828 0.7451 0.0
H376 H 0.9655 0.43955 0.74939 0.0
C377 C 0.91994 0.47826 0.68128 0.0
C378 C 0.88032 0.45572 0.69953 0.0
C379 C 0.95816 0.4917 0.80103 0.0
C380 C 0.96178 0.47571 0.81226 0.0
C381 C 0.95885 0.45513 0.80318 0.0
C382 C 0.9519 0.45019 0.7836 0.0
C383 C 0.94752 0.4658 0.77281 0.0
C384 C 0.951 0.48636 0.78137 0.0
C385 C 0.94486 0.50046 0.76758 0.0
C386 C 0.9368 0.48467 0.74949 0.0
C387 C 0.93833 0.46441 0.75282 0.0
C388 C 0.9671 0.52429 0.76338 0.0
C389 C 0.92493 0.50273 0.77717 0.0
C390 C 0.90964 0.38863 0.71523 0.0
C391 C 0.89631 0.37959 0.69814 0.0
C392 C 0.89281 0.39498 0.68595 0.0
C393 C 0.90102 0.41847 0.69154 0.0
C394 C 0.91249 0.42651 0.70965 0.0
C395 C 0.91715 0.41177 0.72082 0.0
C396 C 0.92854 0.42254 0.73997 0.0
C397 C 0.93007 0.44629 0.73858 0.0
C398 C 0.92048 0.44856 0.72091 0.0
C399 C 0.95293 0.42488 0.74013 0.0
C400 C 0.91206 0.40714 0.75682 0.0
H401 H 0.93714 0.53444 0.74515 0.0
H402 H 0.88721 0.50122 0.68634 0.0
H403 H 0.87039 0.45863 0.71128 0.0
H404 H 0.87645 0.43748 0.70175 0.0
H405 H 0.87305 0.45692 0.68517 0.0
H406 H 0.93664 0.49524 0.68164 0.0
H407 H 0.90965 0.47897 0.66872 0.0
H408 H 0.92479 0.46473 0.67836 0.0
H409 H 0.96042 0.50778 0.80748 0.0
H410 H 0.96101 0.44224 0.81145 0.0
H411 H 0.94949 0.43394 0.77785 0.0
H412 H 0.98289 0.52255 0.76413 0.0
H413 H 0.96923 0.53784 0.77423 0.0
H414 H 0.96733 0.53091 0.74838 0.0
H415 H 0.91163 0.48559 0.78353 0.0
H416 H 0.91545 0.50769 0.76676 0.0
H417 H 0.9316 0.51585 0.78923 0.0
H418 H 0.91922 0.55503 0.73085 0.0
C419 C 0.92648 0.52679 0.73245 0.0
C420 C 0.59814 0.50254 0.69207 0.0
C421 C 0.61624 0.52366 0.69962 0.0
C422 C 0.61272 0.53254 0.71736 0.0
C423 C 0.57412 0.49876 0.72037 0.0
C424 C 0.57719 0.49056 0.70254 0.0
C425 C 0.55635 0.46755 0.6969 0.0
H426 H 0.45223 0.37543 0.72231 0.0
C427 C 0.55101 0.48148 0.72815 0.0
C428 C 0.54036 0.46332 0.71426 0.0
H429 H 0.49571 0.38154 0.67268 0.0
H430 H 0.52149 0.42227 0.68033 0.0
H431 H 0.49085 0.39365 0.74961 0.0
H432 H 0.45945 0.42926 0.72158 0.0
H433 H 0.46575 0.44023 0.74568 0.0
H434 H 0.4463 0.40919 0.74173 0.0
H435 H 0.46468 0.39173 0.75877 0.0
H436 H 0.49299 0.41416 0.76691 0.0
C437 C 0.56391 0.44873 0.69546 0.0
C438 C 0.54623 0.47131 0.67767 0.0
C439 C 0.52747 0.48796 0.79829 0.0
C440 C 0.5075 0.47309 0.80943 0.0
C441 C 0.48867 0.45389 0.8002 0.0
C442 C 0.48986 0.44898 0.78046 0.0
C443 C 0.51029 0.46309 0.76978 0.0
C444 C 0.5285 0.48256 0.77848 0.0
C445 C 0.54855 0.49566 0.76442 0.0
C446 C 0.53964 0.48005 0.74627 0.0
C447 C 0.51727 0.46102 0.74968 0.0
C448 C 0.57022 0.49619 0.77333 0.0
C449 C 0.55152 0.5203 0.76066 0.0
C450 C 0.46726 0.3854 0.71299 0.0
C451 C 0.47207 0.37475 0.69717 0.0
C452 C 0.49143 0.38896 0.68507 0.0
C453 C 0.50669 0.41263 0.68972 0.0
C454 C 0.50297 0.42209 0.70693 0.0
C455 C 0.48319 0.40864 0.71796 0.0
C456 C 0.48324 0.42026 0.73692 0.0
C457 C 0.50633 0.44295 0.73551 0.0
C458 C 0.51777 0.44406 0.71789 0.0
C459 C 0.48275 0.40424 0.75403 0.0
C460 C 0.46256 0.4249 0.73667 0.0
H461 H 0.59037 0.52764 0.74134 0.0
H462 H 0.60031 0.49538 0.67843 0.0
H463 H 0.54604 0.48816 0.67819 0.0
H464 H 0.52803 0.45752 0.67515 0.0
H465 H 0.55685 0.47207 0.66478 0.0
H466 H 0.57903 0.45311 0.70511 0.0
H467 H 0.56901 0.44727 0.68022 0.0
H468 H 0.55034 0.43118 0.70059 0.0
H469 H 0.54211 0.50302 0.80498 0.0
H470 H 0.47289 0.44261 0.80831 0.0
H471 H 0.47495 0.43399 0.77441 0.0
H472 H 0.56557 0.4787 0.77958 0.0
H473 H 0.57768 0.50931 0.78535 0.0
H474 H 0.584 0.50016 0.76246 0.0
H475 H 0.53452 0.51972 0.76136 0.0
H476 H 0.55832 0.52714 0.74582 0.0
H477 H 0.56306 0.53317 0.77181 0.0
H478 H 0.62649 0.54871 0.72355 0.0
C479 C 0.59179 0.52022 0.72775 0.0
C480 C 0.59827 0.09303 0.69521 0.0
C481 C 0.61611 0.09003 0.70305 0.0
C482 C 0.61302 0.07916 0.72155 0.0
C483 C 0.57484 0.07491 0.72438 0.0
C484 C 0.57773 0.0851 0.70601 0.0
C485 C 0.55676 0.08638 0.69969 0.0
H486 H 0.45564 0.08001 0.72395 0.0
C487 C 0.55183 0.06932 0.73197 0.0
C488 C 0.54108 0.07581 0.71745 0.0
H489 H 0.49288 0.1028 0.66894 0.0
H490 H 0.52005 0.09094 0.68014 0.0
H491 H 0.45993 0.03139 0.72723 0.0
H492 H 0.49598 0.10122 0.75081 0.0
H493 H 0.49613 0.08302 0.76957 0.0
H494 H 0.46878 0.0788 0.76065 0.0
H495 H 0.44839 0.04088 0.74673 0.0
H496 H 0.46679 0.02848 0.75158 0.0
C497 C 0.54643 0.07089 0.68117 0.0
C498 C 0.56425 0.11265 0.69669 0.0
C499 C 0.52766 0.03939 0.80211 0.0
C500 C 0.50834 0.03556 0.81341 0.0
C501 C 0.49049 0.03794 0.80468 0.0
C502 C 0.49194 0.04455 0.78502 0.0
C503 C 0.51167 0.04925 0.77401 0.0
C504 C 0.52905 0.04645 0.78243 0.0
C505 C 0.54897 0.05303 0.76841 0.0
C506 C 0.54061 0.06035 0.75034 0.0
C507 C 0.51875 0.05801 0.75381 0.0
C508 C 0.55088 0.03083 0.76449 0.0
C509 C 0.57109 0.07385 0.77743 0.0
C510 C 0.46945 0.08202 0.71424 0.0
C511 C 0.47249 0.09257 0.6957 0.0
C512 C 0.49037 0.09472 0.6833 0.0
C513 C 0.50619 0.08802 0.68991 0.0
C514 C 0.50397 0.07906 0.70907 0.0
C515 C 0.48527 0.07529 0.72056 0.0
C516 C 0.48549 0.06534 0.74039 0.0
C517 C 0.50794 0.06466 0.7392 0.0
C518 C 0.51879 0.07297 0.72095 0.0
C519 C 0.46401 0.04028 0.74177 0.0
C520 C 0.48648 0.08276 0.75629 0.0
H521 H 0.59129 0.0637 0.74634 0.0
H522 H 0.60015 0.10105 0.6809 0.0
H523 H 0.57664 0.12368 0.70833 0.0
H524 H 0.54973 0.11618 0.69773 0.0
H525 H 0.57302 0.11919 0.68228 0.0
H526 H 0.54992 0.05598 0.6811 0.0
H527 H 0.55402 0.08123 0.66751 0.0
H528 H 0.52728 0.06241 0.68053 0.0
H529 H 0.54162 0.03772 0.80862 0.0
H530 H 0.47543 0.03481 0.81321 0.0
H531 H 0.47784 0.04625 0.77932 0.0
H532 H 0.53335 0.01489 0.76364 0.0
H533 H 0.56056 0.02794 0.77643 0.0
H534 H 0.55921 0.03153 0.75027 0.0
H535 H 0.5668 0.08599 0.78538 0.0
H536 H 0.58408 0.08496 0.76632 0.0
H537 H 0.57937 0.06749 0.7881 0.0
H538 H 0.62667 0.07676 0.72783 0.0
C539 C 0.59252 0.07164 0.73228 0.0
C540 C 0.83644 0.57272 0.97315 0.0
C541 C 0.85687 0.57458 0.96552 0.0
C542 C 0.86596 0.58648 0.94766 0.0
C543 C 0.83317 0.59275 0.94433 0.0
C544 C 0.82498 0.58207 0.96238 0.0
C545 C 0.80252 0.58084 0.96794 0.0
H546 H 0.70899 0.58801 0.94065 0.0
C547 C 0.81603 0.59852 0.93612 0.0
C548 C 0.79818 0.59183 0.94998 0.0
H549 H 0.72121 0.56273 0.99555 0.0
H550 H 0.7605 0.57552 0.98568 0.0
H551 H 0.76318 0.63701 0.93814 0.0
H552 H 0.73 0.56701 0.91406 0.0
H553 H 0.74811 0.5862 0.89568 0.0
H554 H 0.72432 0.58927 0.90482 0.0
H555 H 0.741 0.62717 0.91971 0.0
H556 H 0.77116 0.63906 0.91325 0.0
C557 C 0.80684 0.59607 0.98653 0.0
C558 C 0.78383 0.55453 0.97044 0.0
C559 C 0.82531 0.62804 0.86593 0.0
C560 C 0.81146 0.63317 0.85365 0.0
C561 C 0.7908 0.63121 0.86123 0.0
C562 C 0.78389 0.6239 0.88065 0.0
C563 C 0.79774 0.61844 0.89265 0.0
C564 C 0.81819 0.62082 0.88529 0.0
C565 C 0.83072 0.61423 0.90007 0.0
C566 C 0.81434 0.60729 0.91749 0.0
C567 C 0.79501 0.60972 0.91307 0.0
C568 C 0.85446 0.63634 0.90449 0.0
C569 C 0.83236 0.59313 0.89173 0.0
C570 C 0.72026 0.58549 0.95062 0.0
C571 C 0.71186 0.57399 0.96878 0.0
C572 C 0.72721 0.57154 0.98151 0.0
C573 C 0.74999 0.57876 0.97565 0.0
C574 C 0.7575 0.58841 0.95682 0.0
C575 C 0.74305 0.59247 0.94492 0.0
C576 C 0.75398 0.60266 0.92529 0.0
C577 C 0.77701 0.60315 0.92716 0.0
C578 C 0.77885 0.59467 0.94563 0.0
C579 C 0.75745 0.62775 0.92381 0.0
C580 C 0.73836 0.58562 0.909 0.0
H581 H 0.86173 0.60411 0.92328 0.0
H582 H 0.82928 0.5637 0.98694 0.0
H583 H 0.78647 0.54346 0.95955 0.0
H584 H 0.766 0.55094 0.96775 0.0
H585 H 0.78461 0.548 0.98532 0.0
H586 H 0.82486 0.61131 0.98671 0.0
H587 H 0.80438 0.58569 0.00013 0.0
H588 H 0.79563 0.60405 0.98718 0.0
H589 H 0.84143 0.62972 0.86063 0.0
H590 H 0.77975 0.63493 0.852 0.0
H591 H 0.76787 0.62247 0.88548 0.0
H592 H 0.85308 0.65255 0.90397 0.0
H593 H 0.86781 0.63846 0.89359 0.0
H594 H 0.86083 0.63613 0.91944 0.0
H595 H 0.81641 0.58108 0.88336 0.0
H596 H 0.8336 0.58194 0.9032 0.0
H597 H 0.84739 0.5992 0.88158 0.0
H598 H 0.88181 0.58809 0.9417 0.0
C599 C 0.85423 0.59564 0.93701 0.0
C600 C 0.42287 0.15455 0.97 0.0
C601 C 0.42067 0.13438 0.9607 0.0
C602 C 0.40553 0.12485 0.94458 0.0
C603 C 0.39921 0.15798 0.94448 0.0
C604 C 0.41187 0.16606 0.96164 0.0
C605 C 0.4142 0.18915 0.96805 0.0
H606 H 0.40686 0.28493 0.94245 0.0
C607 C 0.39362 0.17579 0.93737 0.0
C608 C 0.40207 0.19406 0.95125 0.0
H609 H 0.43768 0.27548 0.995 0.0
H610 H 0.42358 0.23468 0.98621 0.0
H611 H 0.42581 0.26325 0.91557 0.0
H612 H 0.35905 0.23359 0.94331 0.0
H613 H 0.3538 0.22134 0.91968 0.0
H614 H 0.36696 0.25283 0.92244 0.0
H615 H 0.40362 0.26904 0.90708 0.0
H616 H 0.40604 0.24459 0.89805 0.0
C617 C 0.4404 0.20768 0.96933 0.0
C618 C 0.40088 0.18506 0.98762 0.0
C619 C 0.36517 0.17115 0.86701 0.0
C620 C 0.36023 0.18627 0.85599 0.0
C621 C 0.36106 0.20584 0.86512 0.0
C622 C 0.36755 0.21092 0.88481 0.0
C623 C 0.37329 0.19624 0.89556 0.0
C624 C 0.37139 0.17635 0.88688 0.0
C625 C 0.37744 0.16248 0.90098 0.0
C626 C 0.3843 0.17801 0.91921 0.0
C627 C 0.38207 0.19782 0.91576 0.0
C628 C 0.39814 0.16099 0.89211 0.0
C629 C 0.35534 0.13828 0.90458 0.0
C630 C 0.41009 0.274 0.95241 0.0
C631 C 0.42349 0.28349 0.96937 0.0
C632 C 0.42767 0.26866 0.98166 0.0
C633 C 0.41953 0.24504 0.97651 0.0
C634 C 0.40762 0.2364 0.95865 0.0
C635 C 0.4026 0.25074 0.94727 0.0
C636 C 0.39105 0.23952 0.92829 0.0
C637 C 0.38994 0.216 0.92995 0.0
C638 C 0.39975 0.21416 0.94769 0.0
C639 C 0.40721 0.2548 0.91126 0.0
C640 C 0.36648 0.23676 0.92822 0.0
H641 H 0.38423 0.12883 0.92373 0.0
H642 H 0.4341 0.16207 0.98261 0.0
H643 H 0.3839 0.16839 0.9871 0.0
H644 H 0.39666 0.19899 0.99078 0.0
H645 H 0.41093 0.18376 0.0001 0.0
H646 H 0.45047 0.20457 0.95784 0.0
H647 H 0.44763 0.20695 0.98384 0.0
H648 H 0.44411 0.2258 0.96665 0.0
H649 H 0.36429 0.15578 0.8603 0.0
H650 H 0.3572 0.21758 0.85681 0.0
H651 H 0.36841 0.22645 0.89073 0.0
H652 H 0.41132 0.17833 0.88596 0.0
H653 H 0.39227 0.14793 0.88002 0.0
H654 H 0.40755 0.1564 0.9029 0.0
H655 H 0.33924 0.13918 0.90219 0.0
H656 H 0.35396 0.13217 0.91996 0.0
H657 H 0.35468 0.12466 0.89452 0.0
H658 H 0.4028 0.10881 0.93766 0.0
C659 C 0.39474 0.13648 0.93649 0.0
C660 C 0.73042 0.15454 0.96997 0.0
C661 C 0.71193 0.13451 0.96136 0.0
C662 C 0.71566 0.12597 0.94356 0.0
C663 C 0.75497 0.15889 0.94193 0.0
C664 C 0.75169 0.16657 0.95994 0.0
C665 C 0.77216 0.18986 0.9657 0.0
H666 H 0.8738 0.28541 0.93931 0.0
C667 C 0.77787 0.17679 0.93418 0.0
C668 C 0.78808 0.19499 0.94811 0.0
H669 H 0.83292 0.27617 0.99156 0.0
H670 H 0.80706 0.23557 0.98292 0.0
H671 H 0.86877 0.23267 0.93913 0.0
H672 H 0.83446 0.26617 0.91256 0.0
H673 H 0.83169 0.24532 0.89523 0.0
H674 H 0.86027 0.26848 0.90211 0.0
H675 H 0.88097 0.25367 0.91947 0.0
H676 H 0.86296 0.22258 0.91477 0.0
C677 C 0.78285 0.18623 0.98462 0.0
C678 C 0.76379 0.20799 0.96774 0.0
C679 C 0.80237 0.17033 0.86434 0.0
C680 C 0.82166 0.18594 0.85276 0.0
C681 C 0.83938 0.20657 0.86153 0.0
C682 C 0.83786 0.21185 0.88111 0.0
C683 C 0.81821 0.19666 0.89221 0.0
C684 C 0.80099 0.17611 0.88398 0.0
C685 C 0.78104 0.16267 0.89806 0.0
C686 C 0.78922 0.1788 0.91593 0.0
C687 C 0.81095 0.19866 0.91224 0.0
C688 C 0.77928 0.13868 0.90247 0.0
C689 C 0.75892 0.16078 0.88872 0.0
C690 C 0.85926 0.27482 0.94894 0.0
C691 C 0.85525 0.28445 0.96591 0.0
C692 C 0.83652 0.26947 0.97831 0.0
C693 C 0.82128 0.2459 0.97313 0.0
C694 C 0.82445 0.23729 0.95518 0.0
C695 C 0.84354 0.2516 0.9437 0.0
C696 C 0.84363 0.24035 0.92459 0.0
C697 C 0.82133 0.21693 0.92632 0.0
C698 C 0.81009 0.21512 0.94423 0.0
C699 C 0.86525 0.23723 0.92426 0.0
C700 C 0.84262 0.2558 0.90766 0.0
H701 H 0.73877 0.13076 0.92024 0.0
H702 H 0.72791 0.16157 0.98355 0.0
H703 H 0.74931 0.20398 0.95743 0.0
H704 H 0.77729 0.22607 0.96387 0.0
H705 H 0.75744 0.20789 0.98286 0.0
H706 H 0.78362 0.1697 0.98373 0.0
H707 H 0.77228 0.18492 -0.00229 0.0
H708 H 0.80093 0.20039 0.98701 0.0
H709 H 0.78846 0.15423 0.8582 0.0
H710 H 0.85416 0.2193 0.85307 0.0
H711 H 0.8518 0.22804 0.88662 0.0
H712 H 0.79685 0.1406 0.90341 0.0
H713 H 0.76959 0.12573 0.89072 0.0
H714 H 0.77101 0.13122 0.91679 0.0
H715 H 0.76315 0.17718 0.88059 0.0
H716 H 0.74574 0.1587 0.89962 0.0
H717 H 0.75088 0.14597 0.87814 0.0
H718 H 0.70168 0.11035 0.93685 0.0
C719 C 0.73714 0.1379 0.93392 0.0
C720 C 0.56633 0.84146 0.03082 0.0
C721 C 0.56983 0.86228 0.0399 0.0
C722 C 0.58339 0.87009 0.05708 0.0
C723 C 0.58752 0.83562 0.0572 0.0
C724 C 0.57554 0.8285 0.03966 0.0
C725 C 0.57244 0.80518 0.03297 0.0
H726 H 0.57769 0.70753 0.05682 0.0
C727 C 0.59216 0.8171 0.06409 0.0
C728 C 0.58349 0.79914 0.04995 0.0
H729 H 0.54719 0.71882 0.00486 0.0
H730 H 0.56207 0.75951 0.01424 0.0
H731 H 0.62581 0.76014 0.05779 0.0
H732 H 0.55809 0.72714 0.08412 0.0
H733 H 0.57638 0.74716 0.10175 0.0
H734 H 0.58104 0.72352 0.09411 0.0
H735 H 0.61639 0.73791 0.07652 0.0
H736 H 0.62959 0.7687 0.0826 0.0
C737 C 0.58627 0.80926 0.01369 0.0
C738 C 0.5461 0.78752 0.03102 0.0
C739 C 0.62386 0.82217 0.13306 0.0
C740 C 0.62688 0.80609 0.14472 0.0
C741 C 0.62312 0.78497 0.13605 0.0
C742 C 0.61597 0.7797 0.11648 0.0
C743 C 0.61205 0.79545 0.10538 0.0
C744 C 0.61617 0.81636 0.11364 0.0
C745 C 0.60996 0.8304 0.09993 0.0
C746 C 0.60153 0.81443 0.08204 0.0
C747 C 0.60275 0.79403 0.08539 0.0
C748 C 0.63232 0.85409 0.09545 0.0
C749 C 0.59018 0.83286 0.10972 0.0
C750 C 0.57415 0.71868 0.04739 0.0
C751 C 0.56064 0.7097 0.0304 0.0
C752 C 0.55728 0.72517 0.0182 0.0
C753 C 0.56569 0.7487 0.02379 0.0
C754 C 0.57722 0.75666 0.04189 0.0
C755 C 0.58181 0.74183 0.05301 0.0
C756 C 0.59303 0.75237 0.07226 0.0
C757 C 0.59448 0.77606 0.07102 0.0
C758 C 0.58513 0.7786 0.05327 0.0
C759 C 0.61745 0.75483 0.07251 0.0
C760 C 0.57652 0.73681 0.08902 0.0
H761 H 0.60184 0.86364 0.07903 0.0
H762 H 0.5562 0.83513 0.01749 0.0
H763 H 0.5361 0.79057 0.04261 0.0
H764 H 0.54165 0.76906 0.03301 0.0
H765 H 0.53947 0.78936 0.01654 0.0
H766 H 0.60354 0.82553 0.01467 0.0
H767 H 0.57689 0.81131 0.00103 0.0
H768 H 0.58994 0.79495 0.0105 0.0
H769 H 0.62691 0.83877 0.13897 0.0
H770 H 0.62485 0.77199 0.14457 0.0
H771 H 0.61309 0.76318 0.11095 0.0
H772 H 0.64802 0.85219 0.09613 0.0
H773 H 0.63472 0.86783 0.1062 0.0
H774 H 0.6325 0.86058 0.08041 0.0
H775 H 0.57803 0.81652 0.11784 0.0
H776 H 0.5791 0.83539 0.09912 0.0
H777 H 0.59724 0.84758 0.1204 0.0
H778 H 0.58622 0.88587 0.06453 0.0
C779 C 0.5923 0.85699 0.06567 0.0
C780 C 0.26546 0.83817 0.02587 0.0
C781 C 0.28381 0.85879 0.03373 0.0
C782 C 0.28044 0.86807 0.05123 0.0
C783 C 0.24136 0.83483 0.05395 0.0
C784 C 0.24436 0.82655 0.03613 0.0
C785 C 0.22367 0.80338 0.03063 0.0
H786 H 0.12056 0.71014 0.05675 0.0
C787 C 0.2184 0.81731 0.06192 0.0
C788 C 0.20784 0.79898 0.04812 0.0
H789 H 0.16308 0.7172 0.00611 0.0
H790 H 0.18891 0.75782 0.01408 0.0
H791 H 0.15899 0.72787 0.08354 0.0
H792 H 0.12759 0.76414 0.05679 0.0
H793 H 0.13326 0.77373 0.08132 0.0
H794 H 0.11441 0.74287 0.07616 0.0
H795 H 0.13399 0.7272 0.09412 0.0
H796 H 0.16315 0.74927 0.10075 0.0
C797 C 0.23155 0.78481 0.02908 0.0
C798 C 0.21321 0.8069 0.01151 0.0
C799 C 0.19552 0.82344 0.13246 0.0
C800 C 0.17616 0.80788 0.14388 0.0
C801 C 0.15771 0.78803 0.13504 0.0
C802 C 0.15862 0.78322 0.11523 0.0
C803 C 0.17847 0.79805 0.10416 0.0
C804 C 0.19638 0.81804 0.11259 0.0
C805 C 0.21612 0.83141 0.09829 0.0
C806 C 0.20727 0.8156 0.08023 0.0
C807 C 0.18524 0.79614 0.08393 0.0
C808 C 0.2382 0.83264 0.107 0.0
C809 C 0.21839 0.85573 0.09447 0.0
C810 C 0.13541 0.72024 0.0473 0.0
C811 C 0.13981 0.70988 0.03101 0.0
C812 C 0.15902 0.72435 0.01882 0.0
C813 C 0.17432 0.74799 0.02364 0.0
C814 C 0.17086 0.7572 0.04112 0.0
C815 C 0.15137 0.74346 0.05237 0.0
C816 C 0.15157 0.75495 0.07146 0.0
C817 C 0.17437 0.77794 0.06984 0.0
C818 C 0.18556 0.7793 0.05201 0.0
C819 C 0.15177 0.7391 0.08843 0.0
C820 C 0.13056 0.75906 0.07165 0.0
H821 H 0.25781 0.86381 0.07487 0.0
H822 H 0.26782 0.83071 0.01248 0.0
H823 H 0.21278 0.82362 0.01207 0.0
H824 H 0.19505 0.79293 0.00913 0.0
H825 H 0.22376 0.80777 -0.00147 0.0
H826 H 0.24658 0.78924 0.03886 0.0
H827 H 0.23693 0.7837 0.01385 0.0
H828 H 0.21809 0.76712 0.03398 0.0
H829 H 0.20984 0.83892 0.13899 0.0
H830 H 0.14253 0.77613 0.14357 0.0
H831 H 0.14399 0.76774 0.10947 0.0
H832 H 0.23401 0.81543 0.11358 0.0
H833 H 0.24576 0.84615 0.11873 0.0
H834 H 0.25177 0.83645 0.09596 0.0
H835 H 0.20107 0.85447 0.09468 0.0
H836 H 0.22565 0.86292 0.07982 0.0
H837 H 0.22924 0.86862 0.10589 0.0
H838 H 0.29454 0.88401 0.05743 0.0
C839 C 0.25922 0.85625 0.06136 0.0
C840 C 0.26564 0.42399 0.03064 0.0
C841 C 0.28292 0.42061 0.03932 0.0
C842 C 0.27746 0.4067 0.05648 0.0
C843 C 0.23948 0.40319 0.05775 0.0
C844 C 0.24411 0.41512 0.04007 0.0
C845 C 0.22447 0.41868 0.03362 0.0
H846 H 0.12255 0.41343 0.05417 0.0
C847 C 0.21672 0.39896 0.06494 0.0
C848 C 0.20766 0.40761 0.05064 0.0
H849 H 0.16551 0.44218 0.00256 0.0
H850 H 0.19176 0.42952 0.01456 0.0
H851 H 0.12712 0.36539 0.05853 0.0
H852 H 0.16195 0.4349 0.08271 0.0
H853 H 0.16319 0.41705 0.10121 0.0
H854 H 0.1353 0.41204 0.09294 0.0
H855 H 0.11439 0.37564 0.07641 0.0
H856 H 0.13151 0.36253 0.08365 0.0
C857 C 0.21445 0.40492 0.01427 0.0
C858 C 0.23376 0.44553 0.03205 0.0
C859 C 0.19123 0.37163 0.1354 0.0
C860 C 0.17231 0.36922 0.14658 0.0
C861 C 0.15504 0.37221 0.13736 0.0
C862 C 0.15676 0.37811 0.11746 0.0
C863 C 0.17618 0.38148 0.10665 0.0
C864 C 0.1929 0.37794 0.11549 0.0
C865 C 0.21251 0.38284 0.10158 0.0
C866 C 0.20493 0.39039 0.08316 0.0
C867 C 0.18366 0.38958 0.08634 0.0
C868 C 0.21302 0.35974 0.09837 0.0
C869 C 0.23518 0.4031 0.11034 0.0
C870 C 0.13743 0.41655 0.04537 0.0
C871 C 0.14209 0.42861 0.02741 0.0
C872 C 0.16176 0.43288 0.01645 0.0
C873 C 0.17692 0.42554 0.02347 0.0
C874 C 0.17261 0.4143 0.04186 0.0
C875 C 0.15303 0.4098 0.05241 0.0
C876 C 0.15208 0.39912 0.07219 0.0
C877 C 0.17413 0.39759 0.07162 0.0
C878 C 0.18605 0.4065 0.05386 0.0
C879 C 0.13008 0.37441 0.07294 0.0
C880 C 0.15301 0.41644 0.08819 0.0
H881 H 0.25283 0.38785 0.0789 0.0
H882 H 0.26921 0.43449 0.01743 0.0
H883 H 0.24713 0.45529 0.04345 0.0
H884 H 0.22029 0.45034 0.0347 0.0
H885 H 0.24187 0.45248 0.01749 0.0
H886 H 0.21536 0.38844 0.01415 0.0
H887 H 0.22432 0.41558 0.00132 0.0
H888 H 0.19584 0.39904 0.01232 0.0
H889 H 0.20473 0.36935 0.14214 0.0
H890 H 0.14009 0.36992 0.14558 0.0
H891 H 0.14305 0.38021 0.11137 0.0
H892 H 0.19542 0.34405 0.10008 0.0
H893 H 0.22464 0.35799 0.10911 0.0
H894 H 0.2185 0.35837 0.08331 0.0
H895 H 0.23235 0.41753 0.11556 0.0
H896 H 0.24956 0.41131 0.09969 0.0
H897 H 0.24108 0.39682 0.12306 0.0
H898 H 0.29024 0.40322 0.06312 0.0
C899 C 0.25579 0.39786 0.06566 0.0
C900 C 0.50494 0.90777 0.30607 0.0
C901 C 0.52443 0.90835 0.29751 0.0
C902 C 0.53272 0.9196 0.27928 0.0
C903 C 0.5007 0.92718 0.27724 0.0
C904 C 0.49322 0.91712 0.2956 0.0
C905 C 0.47072 0.91575 0.30142 0.0
H906 H 0.37486 0.91863 0.27381 0.0
C907 C 0.48329 0.93265 0.26925 0.0
C908 C 0.46574 0.92617 0.28336 0.0
H909 H 0.38932 0.89808 0.32997 0.0
H910 H 0.42871 0.91093 0.31965 0.0
H911 H 0.42749 0.96874 0.27134 0.0
H912 H 0.39848 0.89908 0.24694 0.0
H913 H 0.41462 0.91956 0.22845 0.0
H914 H 0.3898 0.91961 0.2389 0.0
H915 H 0.40635 0.95849 0.25202 0.0
H916 H 0.437 0.97153 0.24687 0.0
C917 C 0.4752 0.93131 0.3198 0.0
C918 C 0.45233 0.88944 0.3044 0.0
C919 C 0.49127 0.96061 0.19881 0.0
C920 C 0.47746 0.9658 0.18661 0.0
C921 C 0.45712 0.96443 0.19429 0.0
C922 C 0.45031 0.95727 0.21379 0.0
C923 C 0.46408 0.95158 0.22572 0.0
C924 C 0.4844 0.95376 0.21823 0.0
C925 C 0.49714 0.94739 0.23293 0.0
C926 C 0.48112 0.94089 0.25054 0.0
C927 C 0.46164 0.94309 0.24621 0.0
C928 C 0.521 0.96958 0.23691 0.0
C929 C 0.49847 0.92603 0.22475 0.0
C930 C 0.38669 0.91716 0.28387 0.0
C931 C 0.3791 0.90702 0.30254 0.0
C932 C 0.39491 0.90577 0.31549 0.0
C933 C 0.41766 0.91308 0.30942 0.0
C934 C 0.42461 0.92175 0.29023 0.0
C935 C 0.40956 0.92463 0.27809 0.0
C936 C 0.42031 0.93495 0.25847 0.0
C937 C 0.44374 0.93639 0.26042 0.0
C938 C 0.44605 0.92845 0.27903 0.0
C939 C 0.42284 0.95967 0.25688 0.0
C940 C 0.40507 0.91759 0.24222 0.0
H941 H 0.52805 0.93721 0.25519 0.0
H942 H 0.49824 0.89909 0.32006 0.0
H943 H 0.45437 0.87837 0.2931 0.0
H944 H 0.43432 0.88569 0.30277 0.0
H945 H 0.45417 0.88309 0.31905 0.0
H946 H 0.49322 0.94656 0.3198 0.0
H947 H 0.47286 0.92118 0.33353 0.0
H948 H 0.46396 0.93927 0.32032 0.0
H949 H 0.50718 0.96189 0.19335 0.0
H950 H 0.44625 0.96842 0.18507 0.0
H951 H 0.43444 0.95611 0.21874 0.0
H952 H 0.51962 0.98579 0.23634 0.0
H953 H 0.53408 0.97151 0.2258 0.0
H954 H 0.52773 0.96962 0.25175 0.0
H955 H 0.48287 0.91444 0.21582 0.0
H956 H 0.49865 0.91435 0.23634 0.0
H957 H 0.51395 0.93186 0.21518 0.0
H958 H 0.54789 0.92038 0.2726 0.0
C959 C 0.52111 0.92926 0.26919 0.0
C960 C 0.08648 0.48483 0.30361 0.0
C961 C 0.0831 0.464 0.29458 0.0
C962 C 0.06999 0.45635 0.27717 0.0
C963 C 0.06611 0.49097 0.27674 0.0
C964 C 0.07764 0.49796 0.29448 0.0
C965 C 0.08087 0.52141 0.30097 0.0
H966 H 0.07305 0.61782 0.27719 0.0
C967 C 0.06149 0.50943 0.26973 0.0
C968 C 0.06975 0.5273 0.28394 0.0
H969 H 0.10662 0.60869 0.32793 0.0
H970 H 0.09249 0.56788 0.31882 0.0
H971 H 0.09267 0.5967 0.24907 0.0
H972 H 0.02618 0.56646 0.27746 0.0
H973 H 0.02075 0.55408 0.25386 0.0
H974 H 0.03344 0.58553 0.25653 0.0
H975 H 0.07061 0.60327 0.24177 0.0
H976 H 0.07234 0.57899 0.23143 0.0
C977 C 0.10724 0.53905 0.30271 0.0
C978 C 0.06725 0.5177 0.32031 0.0
C979 C 0.03256 0.50558 0.19985 0.0
C980 C 0.02696 0.52045 0.18923 0.0
C981 C 0.02737 0.53966 0.19872 0.0
C982 C 0.0342 0.54466 0.21835 0.0
C983 C 0.04064 0.53025 0.22866 0.0
C984 C 0.039 0.51063 0.21965 0.0
C985 C 0.04522 0.49666 0.23341 0.0
C986 C 0.05216 0.51196 0.25174 0.0
C987 C 0.0497 0.53169 0.24871 0.0
C988 C 0.06596 0.49536 0.22434 0.0
C989 C 0.02311 0.4724 0.23693 0.0
C990 C 0.0769 0.60687 0.28661 0.0
C991 C 0.09085 0.6163 0.30326 0.0
C992 C 0.09598 0.60171 0.31493 0.0
C993 C 0.08793 0.57818 0.30953 0.0
C994 C 0.07534 0.56953 0.29195 0.0
C995 C 0.06974 0.58381 0.28106 0.0
C996 C 0.05813 0.57289 0.26202 0.0
C997 C 0.05752 0.54958 0.26314 0.0
C998 C 0.06755 0.54753 0.28068 0.0
C999 C 0.07401 0.58869 0.24509 0.0
C1000 C 0.03338 0.56965 0.26228 0.0
H1001 H 0.05242 0.46319 0.2547 0.0
H1002 H 0.09635 0.4911 0.31707 0.0
H1003 H 0.04966 0.50187 0.31929 0.0
H1004 H 0.06441 0.53251 0.32371 0.0
H1005 H 0.07637 0.51506 0.33286 0.0
H1006 H 0.11725 0.53528 0.29164 0.0
H1007 H 0.11383 0.53807 0.31747 0.0
H1008 H 0.11178 0.55739 0.29974 0.0
H1009 H 0.03198 0.49047 0.19289 0.0
H1010 H 0.02305 0.55124 0.19072 0.0
H1011 H 0.03474 0.55991 0.22458 0.0
H1012 H 0.07851 0.51241 0.21736 0.0
H1013 H 0.05996 0.48156 0.21285 0.0
H1014 H 0.07621 0.49202 0.23525 0.0
H1015 H 0.00699 0.47327 0.23461 0.0
H1016 H 0.0217 0.46616 0.25227 0.0
H1017 H 0.02245 0.45886 0.22678 0.0
H1018 H 0.06734 0.44065 0.2697 0.0
C1019 C 0.06146 0.46963 0.26829 0.0
C1020 C 0.3969 0.4858 0.30264 0.0
C1021 C 0.37851 0.46574 0.29408 0.0
C1022 C 0.38219 0.45715 0.2763 0.0
C1023 C 0.42131 0.49025 0.27453 0.0
C1024 C 0.41803 0.4979 0.29255 0.0
C1025 C 0.43822 0.52131 0.29824 0.0
H1026 H 0.53661 0.61919 0.27098 0.0
C1027 C 0.44403 0.50832 0.26671 0.0
C1028 C 0.45401 0.52655 0.28059 0.0
H1029 H 0.49868 0.60663 0.32531 0.0
H1030 H 0.47241 0.56619 0.31573 0.0
H1031 H 0.53539 0.56872 0.27207 0.0
H1032 H 0.49603 0.59557 0.24343 0.0
H1033 H 0.49823 0.577 0.22623 0.0
H1034 H 0.52428 0.60221 0.2351 0.0
H1035 H 0.54594 0.58747 0.25088 0.0
H1036 H 0.52896 0.55582 0.2487 0.0
C1037 C 0.44916 0.51792 0.31713 0.0
C1038 C 0.42938 0.5391 0.30029 0.0
C1039 C 0.46854 0.50257 0.19684 0.0
C1040 C 0.48818 0.51793 0.18557 0.0
C1041 C 0.50627 0.53809 0.19451 0.0
C1042 C 0.50454 0.54343 0.21404 0.0
C1043 C 0.48445 0.52859 0.22483 0.0
C1044 C 0.46713 0.50819 0.21648 0.0
C1045 C 0.4472 0.49458 0.23052 0.0
C1046 C 0.45539 0.51053 0.24845 0.0
C1047 C 0.477 0.53056 0.24476 0.0
C1048 C 0.44543 0.47055 0.2347 0.0
C1049 C 0.42507 0.49281 0.22132 0.0
C1050 C 0.52253 0.60764 0.28069 0.0
C1051 C 0.51904 0.61586 0.29854 0.0
C1052 C 0.50115 0.60046 0.31125 0.0
C1053 C 0.48607 0.57711 0.30569 0.0
C1054 C 0.48911 0.56929 0.28728 0.0
C1055 C 0.50751 0.58432 0.27543 0.0
C1056 C 0.50848 0.57303 0.25663 0.0
C1057 C 0.48689 0.54906 0.25862 0.0
C1058 C 0.47561 0.54696 0.27654 0.0
C1059 C 0.53089 0.57124 0.25686 0.0
C1060 C 0.50684 0.58763 0.23935 0.0
H1061 H 0.40521 0.4621 0.25285 0.0
H1062 H 0.39439 0.49287 0.3162 0.0
H1063 H 0.41477 0.53478 0.29004 0.0
H1064 H 0.44258 0.55728 0.29636 0.0
H1065 H 0.42304 0.53894 0.31542 0.0
H1066 H 0.44905 0.50092 0.31675 0.0
H1067 H 0.43936 0.5178 0.3304 0.0
H1068 H 0.46761 0.53151 0.31886 0.0
H1069 H 0.45446 0.4868 0.19042 0.0
H1070 H 0.52142 0.55036 0.18615 0.0
H1071 H 0.51862 0.55941 0.21973 0.0
H1072 H 0.46296 0.4723 0.23502 0.0
H1073 H 0.43517 0.45751 0.22318 0.0
H1074 H 0.43779 0.46327 0.24924 0.0
H1075 H 0.42921 0.50955 0.21382 0.0
H1076 H 0.41163 0.4899 0.23223 0.0
H1077 H 0.41739 0.47854 0.21022 0.0
H1078 H 0.36822 0.44149 0.26963 0.0
C1079 C 0.4036 0.46918 0.26656 0.0
O1080 O 0.46439 0.96943 -0.00054 0.0
Mn1081 Mn 0.49723 -0.00061 0.0007 0.0
O1082 O 0.44395 0.97444 0.02293 0.0
Mn1083 Mn 0.4639 0.00628 0.02635 0.0
O1084 O 0.53079 0.0291 0.00083 0.0
O1085 O 0.51017 0.97795 0.99533 0.0
Mn1086 Mn 0.53017 0.98935 0.9759 0.0
O1087 O 0.49387 0.00397 0.97038 0.0
O1088 O 0.55349 0.01829 0.98437 0.0
O1089 O 0.5009 0.99549 0.03139 0.0
O1090 O 0.48417 0.01369 0.04664 0.0
O1091 O 0.52978 0.96235 0.98318 0.0
O1092 O 0.51342 0.98915 0.95452 0.0
C1093 C 0.47055 0.02848 0.00129 0.0
C1094 C 0.44607 0.96199 0.00987 0.0
C1095 C 0.55066 0.03305 0.99437 0.0
C1096 C 0.51485 0.96107 0.99606 0.0
C1097 C 0.49972 0.99737 0.95461 0.0
C1098 C 0.49754 0.00501 0.04678 0.0
O1099 O 0.48423 0.02088 0.00697 0.0
O1100 O 0.45386 0.02382 0.0135 0.0
O1101 O 0.02283 0.4925 -0.00071 0.0
Mn1102 Mn -0.00546 0.49777 0.00132 0.0
O1103 O 0.01786 0.46859 0.02453 0.0
Mn1104 Mn 0.98673 0.45816 0.02912 0.0
O1105 O 0.96607 0.50343 0.00301 0.0
O1106 O 0.01653 0.53193 0.99391 0.0
Mn1107 Mn 0.00299 0.53935 0.97523 0.0
O1108 O 0.98691 0.48748 0.97164 0.0
O1109 O 0.97655 0.53686 0.98614 0.0
O1110 O 0.00136 0.50754 0.03149 0.0
O1111 O 0.98131 0.47385 0.04861 0.0
O1112 O 0.03068 0.56605 0.97887 0.0
O1113 O -0.00135 0.52053 0.95397 0.0
C1114 C 0.96475 0.44204 0.00446 0.0
C1115 C 0.02989 0.4817 0.01045 0.0
C1116 C 0.96246 0.51995 -0.00295 0.0
C1117 C 0.03334 0.55356 0.99227 0.0
C1118 C 0.99038 0.49847 0.95519 0.0
C1119 C 0.99201 0.49619 0.04761 0.0
O1120 O 0.97289 0.46386 0.00927 0.0
O1121 O 0.96789 0.42974 0.0177 0.0
O1122 O 0.52841 0.50075 -0.0024 0.0
Mn1123 Mn 0.49603 0.49854 0.99636 0.0
O1124 O 0.55014 0.52829 0.97552 0.0
Mn1125 Mn 0.53092 0.54069 0.97189 0.0
O1126 O 0.46297 0.49531 0.99608 0.0
O1127 O 0.48198 0.46366 0.00141 0.0
Mn1128 Mn 0.46298 0.45601 0.02158 0.0
O1129 O 0.49907 0.50647 0.02656 0.0
O1130 O 0.44022 0.46262 0.01394 0.0
O1131 O 0.4932 0.49193 0.96558 0.0
O1132 O 0.51104 0.52779 0.95123 0.0
O1133 O 0.46124 0.42849 0.01426 0.0
O1134 O 0.48015 0.47229 0.043 0.0
C1135 C 0.52265 0.55407 -0.00238 0.0
C1136 C 0.54709 0.51238 0.98767 0.0
C1137 C 0.44325 0.48005 0.00348 0.0
C1138 C 0.47569 0.44153 0.00072 0.0
C1139 C 0.49335 0.49443 0.04257 0.0
C1140 C 0.49779 0.50553 0.95038 0.0
O1141 O 0.50984 0.53319 0.99065 0.0
O1142 O 0.53984 0.56741 0.98623 0.0
O1143 O 0.13129 0.30429 0.33496 0.0
Mn1144 Mn 0.165 0.33272 0.33398 0.0
O1145 O 0.11263 0.31492 0.35681 0.0
Mn1146 Mn 0.13698 0.3449 0.36231 0.0
O1147 O 0.19865 0.36161 0.33316 0.0
O1148 O 0.17675 0.31056 0.32769 0.0
Mn1149 Mn 0.19621 0.32151 0.30786 0.0
O1150 O 0.16028 0.33715 0.30382 0.0
O1151 O 0.22037 0.35015 0.31609 0.0
O1152 O 0.16991 0.32761 0.3639 0.0
O1153 O 0.15741 0.34776 0.38154 0.0
O1154 O 0.19512 0.29405 0.31487 0.0
O1155 O 0.17906 0.32204 0.28709 0.0
C1156 C 0.14695 0.3708 0.34029 0.0
C1157 C 0.11314 0.30035 0.3447 0.0
C1158 C 0.21813 0.36514 0.32631 0.0
C1159 C 0.18098 0.29339 0.32827 0.0
C1160 C 0.16556 0.33051 0.28773 0.0
C1161 C 0.16835 0.33665 0.38017 0.0
O1162 O 0.15295 0.35481 0.34029 0.0
O1163 O 0.13483 0.37053 0.3553 0.0
O1164 O 0.69416 0.83097 0.33135 0.0
Mn1165 Mn 0.6645 0.83396 0.33319 0.0
O1166 O 0.68947 0.81436 0.36023 0.0
Mn1167 Mn 0.65754 0.80136 0.3588 0.0
O1168 O 0.6347 0.83748 0.33415 0.0
O1169 O 0.68517 0.8686 0.32922 0.0
Mn1170 Mn 0.67367 0.8793 0.31156 0.0
O1171 O 0.66 0.82812 0.30251 0.0
O1172 O 0.64557 0.87345 0.32169 0.0
O1173 O 0.66954 0.84282 0.36389 0.0
O1174 O 0.64409 0.81015 0.37754 0.0
O1175 O 0.70081 0.90501 0.31953 0.0
O1176 O 0.672 0.86369 0.28877 0.0
C1177 C 0.6357 0.77528 0.34169 0.0
C1178 C 0.70211 0.82449 0.34552 0.0
C1179 C 0.63075 0.85431 0.32991 0.0
C1180 C 0.70196 0.88993 0.33107 0.0
C1181 C 0.66411 0.84164 0.28744 0.0
C1182 C 0.65651 0.83195 0.37867 0.0
O1183 O 0.64274 0.79709 0.33573 0.0
O1184 O 0.64475 0.77107 0.35693 0.0
O1185 O 0.19474 0.83531 0.32882 0.0
Mn1186 Mn 0.16128 0.83056 0.33001 0.0
O1187 O 0.21489 0.86708 0.30925 0.0
Mn1188 Mn 0.19145 0.87396 0.30467 0.0
O1189 O 0.12788 0.82637 0.33086 0.0
O1190 O 0.14842 0.7956 0.33395 0.0
Mn1191 Mn 0.12869 0.78658 0.35372 0.0
O1192 O 0.16548 0.83724 0.36059 0.0
O1193 O 0.10503 0.79167 0.3459 0.0
O1194 O 0.15705 0.82363 0.29945 0.0
O1195 O 0.17161 0.85854 0.2844 0.0
O1196 O 0.12821 0.75986 0.34599 0.0
O1197 O 0.14511 0.80219 0.3756 0.0
C1198 C 0.18099 0.88747 0.32821 0.0
C1199 C 0.21342 0.85043 0.31998 0.0
C1200 C 0.10794 0.80981 0.33666 0.0
C1201 C 0.14274 0.77364 0.3328 0.0
C1202 C 0.15922 0.82418 0.3761 0.0
C1203 C 0.15996 0.83626 0.28405 0.0
O1204 O 0.17451 0.86544 0.32619 0.0
O1205 O 0.19405 0.90112 0.31425 0.0
O1206 O 0.79836 0.63686 0.66937 0.0
Mn1207 Mn 0.83212 0.66664 0.66712 0.0
O1208 O 0.77645 0.65038 0.68304 0.0
Mn1209 Mn 0.80042 0.67954 0.68943 0.0
O1210 O 0.86615 0.6967 0.66546 0.0
O1211 O 0.84551 0.64447 0.66445 0.0
Mn1212 Mn 0.86732 0.65943 0.64608 0.0
O1213 O 0.82692 0.66744 0.63706 0.0
O1214 O 0.89048 0.68294 0.66029 0.0
O1215 O 0.83674 0.66594 0.6979 0.0
O1216 O 0.8165 0.68126 0.71158 0.0
O1217 O 0.85882 0.62891 0.64341 0.0
O1218 O 0.85851 0.66934 0.62405 0.0
C1219 C 0.8145 0.70598 0.66831 0.0
C1220 C 0.77874 0.63392 0.67558 0.0
C1221 C 0.88677 0.69931 0.66559 0.0
C1222 C 0.84324 0.62533 0.65651 0.0
C1223 C 0.83984 0.66982 0.62237 0.0
C1224 C 0.83046 0.67345 0.71288 0.0
O1225 O 0.81995 0.68952 0.66964 0.0
O1226 O 0.79993 0.70545 0.68124 0.0
O1227 O 0.35538 0.1585 0.66677 0.0
Mn1228 Mn 0.32748 0.16427 0.66789 0.0
O1229 O 0.34833 0.13318 0.69147 0.0
Mn1230 Mn 0.31702 0.12304 0.69497 0.0
O1231 O 0.29949 0.17046 0.66829 0.0
O1232 O 0.34997 0.19848 0.66211 0.0
Mn1233 Mn 0.33955 0.20737 0.6421 0.0
O1234 O 0.32126 0.1557 0.63769 0.0
O1235 O 0.31097 0.20294 0.64959 0.0
O1236 O 0.33281 0.17254 0.69846 0.0
O1237 O 0.31102 0.13836 0.71445 0.0
O1238 O 0.3665 0.23368 0.64903 0.0
O1239 O 0.33895 0.18985 0.62102 0.0
C1240 C 0.29689 0.10853 0.66926 0.0
C1241 C 0.36136 0.14687 0.67802 0.0
C1242 C 0.29604 0.18621 0.66026 0.0
C1243 C 0.36717 0.21989 0.66233 0.0
C1244 C 0.32794 0.16754 0.62153 0.0
C1245 C 0.32262 0.16072 0.7142 0.0
O1246 O 0.30525 0.1302 0.67451 0.0
O1247 O 0.29812 0.09519 0.68266 0.0
O1248 O 0.86375 0.17347 0.66593 0.0
Mn1249 Mn 0.82967 0.1658 0.66354 0.0
O1250 O 0.87991 0.19451 0.63919 0.0
Mn1251 Mn 0.85887 0.20507 0.63686 0.0
O1252 O 0.79469 0.15642 0.66284 0.0
O1253 O 0.82053 0.13124 0.6691 0.0
Mn1254 Mn 0.80701 0.12806 0.69214 0.0
O1255 O 0.83162 0.17629 0.69326 0.0
O1256 O 0.78099 0.13093 0.6882 0.0
O1257 O 0.82722 0.15718 0.63289 0.0
O1258 O 0.83826 0.1912 0.61716 0.0
O1259 O 0.80389 0.09971 0.68891 0.0
O1260 O 0.82826 0.14646 0.71048 0.0
C1261 C 0.85358 0.22145 0.66151 0.0
C1262 C 0.8805 0.18303 0.65384 0.0
C1263 C 0.77814 0.14233 0.67432 0.0
C1264 C 0.81471 0.1093 0.67265 0.0
C1265 C 0.83405 0.16779 0.70945 0.0
C1266 C 0.82791 0.16888 0.61725 0.0
O1267 O 0.839 0.19975 0.65669 0.0
O1268 O 0.86986 0.23309 0.64879 0.0
H1269 H 0.31584 0.84589 0.04078 0.0
H1270 H 0.41508 0.95512 0.98155 0.0
H1271 H 0.30451 0.89501 0.00735 0.0
H1272 H 0.42836 0.92018 0.02913 0.0
H1273 H 0.37387 0.92495 0.98268 0.0
H1274 H 0.35616 0.86541 0.02903 0.0
C1275 C 0.32189 0.86064 0.03073 0.0
C1276 C 0.30717 0.86912 0.02508 0.0
C1277 C 0.38591 0.92343 0.99243 0.0
C1278 C 0.35293 0.89138 0.01159 0.0
C1279 C 0.40944 0.9404 0.99158 0.0
C1280 C 0.42499 0.93987 0.00517 0.0
C1281 C 0.37802 0.90593 0.00702 0.0
C1282 C 0.41684 0.92094 0.0183 0.0
C1283 C 0.34479 0.87172 0.02403 0.0
C1284 C 0.31555 0.88817 0.01206 0.0
N1285 N 0.3938 0.90483 0.01909 0.0
N1286 N 0.338 0.89883 0.00583 0.0
H1287 H 0.09652 0.40414 0.01691 0.0
H1288 H 0.07388 0.50946 0.02421 0.0
H1289 H 0.15426 0.47454 0.0234 0.0
H1290 H 0.03196 0.44976 0.98742 0.0
H1291 H 0.10408 0.49823 0.02469 0.0
H1292 H 0.07183 0.42054 0.00753 0.0
C1293 C 0.10395 0.42305 0.01618 0.0
C1294 C 0.12732 0.43811 0.02077 0.0
C1295 C 0.08858 0.48804 0.016 0.0
C1296 C 0.09938 0.45693 0.01044 0.0
C1297 C 0.07154 0.49459 0.01557 0.0
C1298 C 0.05076 0.48068 0.00547 0.0
C1299 C 0.08426 0.46707 0.00682 0.0
C1300 C 0.04802 0.46108 0.99507 0.0
C1301 C 0.08999 0.43241 0.01074 0.0
C1302 C 0.13627 0.46248 0.01978 0.0
N1303 N 0.06438 0.45454 0.99633 0.0
N1304 N 0.12219 0.47121 0.01498 0.0
H1305 H 0.55339 0.68636 0.9951 0.0
H1306 H 0.53252 0.56936 0.03541 0.0
H1307 H 0.54014 0.67418 0.05737 0.0
H1308 H 0.49479 0.56932 0.98406 0.0
H1309 H 0.53638 0.60714 0.04514 0.0
H1310 H 0.53479 0.64364 0.99029 0.0
C1311 C 0.54639 0.67478 0.0077 0.0
C1312 C 0.54866 0.68394 0.02669 0.0
C1313 C 0.52649 0.59839 0.03212 0.0
C1314 C 0.52761 0.63532 0.02131 0.0
C1315 C 0.52389 0.57665 0.02681 0.0
C1316 C 0.51324 0.56628 0.00899 0.0
C1317 C 0.51914 0.60997 0.01909 0.0
C1318 C 0.5029 0.57674 -0.00196 0.0
C1319 C 0.53574 0.65046 0.00495 0.0
C1320 C 0.53943 0.66801 0.04252 0.0
N1321 N 0.50696 0.59855 0.00279 0.0
N1322 N 0.52966 0.64452 0.03953 0.0
H1323 H 0.86874 0.30767 0.00148 0.0
H1324 H 0.9655 0.42768 0.9671 0.0
H1325 H 0.87415 0.32054 0.93887 0.0
H1326 H 0.91983 0.42379 0.01363 0.0
H1327 H 0.93501 0.38917 0.95521 0.0
H1328 H 0.89141 0.35019 0.00682 0.0
C1329 C 0.87447 0.31929 0.98886 0.0
C1330 C 0.86949 0.31027 0.96968 0.0
C1331 C 0.9314 0.39721 0.96758 0.0
C1332 C 0.89577 0.35893 0.97577 0.0
C1333 C 0.94859 0.41936 0.97411 0.0
C1334 C 0.94504 0.42892 0.99127 0.0
C1335 C 0.91107 0.38446 0.97878 0.0
C1336 C 0.92307 0.41708 0.00019 0.0
C1337 C 0.88738 0.34355 0.99193 0.0
C1338 C 0.87797 0.32645 0.95392 0.0
N1339 N 0.90721 0.39502 0.99434 0.0
N1340 N 0.89093 0.34995 0.95731 0.0
H1341 H 0.67593 0.54831 0.94395 0.0
H1342 H 0.57639 0.52734 0.01877 0.0
H1343 H 0.69051 0.57156 0.00416 0.0
H1344 H 0.56445 0.49343 0.96253 0.0
H1345 H 0.61769 0.5395 0.01611 0.0
H1346 H 0.63477 0.52633 0.95173 0.0
C1347 C 0.67044 0.54899 0.9588 0.0
C1348 C 0.6867 0.56199 0.97338 0.0
C1349 C 0.60592 0.52869 0.00466 0.0
C1350 C 0.63938 0.53622 0.98259 0.0
C1351 C 0.5823 0.5214 0.00636 0.0
C1352 C 0.56717 0.50934 0.99086 0.0
C1353 C 0.61423 0.52407 0.98722 0.0
C1354 C 0.57566 0.5026 0.97482 0.0
C1355 C 0.64691 0.53609 0.96333 0.0
C1356 C 0.67855 0.56172 0.99249 0.0
N1357 N 0.59872 0.51047 0.97321 0.0
N1358 N 0.6554 0.54915 0.99653 0.0
H1359 H 0.43066 0.12438 -0.00234 0.0
H1360 H 0.46324 0.0339 0.96274 0.0
H1361 H 0.44477 0.12179 0.93612 0.0
H1362 H 0.49302 0.07191 0.01625 0.0
H1363 H 0.45731 0.06606 0.95158 0.0
H1364 H 0.4527 0.10439 0.00528 0.0
C1365 C 0.43864 0.11992 0.98582 0.0
C1366 C 0.43547 0.12427 0.96621 0.0
C1367 C 0.46593 0.06775 0.96547 0.0
C1368 C 0.46054 0.10158 0.97473 0.0
C1369 C 0.46972 0.04961 0.97163 0.0
C1370 C 0.47878 0.05043 0.99032 0.0
C1371 C 0.47043 0.08616 0.97848 0.0
C1372 C 0.48623 0.07087 0.00159 0.0
C1373 C 0.45127 0.10863 0.99015 0.0
C1374 C 0.44618 0.1181 0.95139 0.0
N1375 N 0.48105 0.08755 0.99587 0.0
N1376 N 0.4579 0.10673 0.95592 0.0
H1377 H 0.69748 0.11867 -0.00097 0.0
H1378 H 0.56438 0.0716 0.97181 0.0
H1379 H 0.67275 0.1268 0.9427 0.0
H1380 H 0.58531 0.04495 0.02077 0.0
H1381 H 0.60497 0.10176 0.96645 0.0
H1382 H 0.65742 0.09999 0.01175 0.0
C1383 C 0.68362 0.11666 0.98943 0.0
C1384 C 0.68823 0.12388 0.96973 0.0
C1385 C 0.60065 0.08983 0.97879 0.0
C1386 C 0.64278 0.10321 0.98418 0.0
C1387 C 0.57744 0.07292 0.98206 0.0
C1388 C 0.5716 0.05606 0.99688 0.0
C1389 C 0.61808 0.08967 0.99036 0.0
C1390 C 0.58921 0.05793 0.00935 0.0
C1391 C 0.66086 0.1061 0.99667 0.0
C1392 C 0.66979 0.12105 0.95788 0.0
N1393 N 0.61177 0.07421 0.00564 0.0
N1394 N 0.64791 0.11091 0.96526 0.0
H1395 H 0.84497 0.52872 0.9629 0.0
H1396 H 0.95836 0.5506 0.02052 0.0
H1397 H 0.89393 0.59404 0.99023 0.0
H1398 H 0.91911 0.49118 0.98272 0.0
H1399 H 0.92797 0.56103 0.01767 0.0
H1400 H 0.86584 0.51005 0.97697 0.0
C1401 C 0.85996 0.53896 0.97213 0.0
C1402 C 0.86797 0.56285 0.97544 0.0
C1403 C 0.9256 0.54529 0.01045 0.0
C1404 C 0.89172 0.54183 0.99157 0.0
C1405 C 0.94276 0.53914 0.01235 0.0
C1406 C 0.941 0.51991 0.002 0.0
C1407 C 0.90679 0.53232 -0.00218 0.0
C1408 C 0.92083 0.50593 0.99116 0.0
C1409 C 0.87182 0.52836 0.98015 0.0
C1410 C 0.8874 0.57556 0.98738 0.0
N1411 N 0.90463 0.51267 0.98903 0.0
N1412 N 0.89873 0.56491 0.99494 0.0
H1413 H 0.46843 0.31385 0.98051 0.0
H1414 H 0.45314 0.42604 0.96643 0.0
H1415 H 0.40463 0.31197 0.96494 0.0
H1416 H 0.5079 0.42775 0.00122 0.0
H1417 H 0.44232 0.38645 0.95552 0.0
H1418 H 0.48813 0.35698 0.98102 0.0
C1419 C 0.4585 0.32246 0.97746 0.0
C1420 C 0.43483 0.30926 0.97266 0.0
C1421 C 0.45727 0.3958 0.96498 0.0
C1422 C 0.45747 0.35848 0.97243 0.0
C1423 C 0.46388 0.41868 0.97076 0.0
C1424 C 0.48112 0.42988 0.98504 0.0
C1425 C 0.46834 0.38441 0.97334 0.0
C1426 C 0.49432 0.41949 0.99033 0.0
C1427 C 0.46984 0.34705 0.97744 0.0
C1428 C 0.42294 0.32142 0.96848 0.0
N1429 N 0.48721 0.39695 0.98499 0.0
N1430 N 0.43439 0.34529 0.9684 0.0
H1431 H 0.11845 0.67487 0.05899 0.0
H1432 H 0.07789 0.57139 0.98162 0.0
H1433 H 0.12952 0.68479 0.99624 0.0
H1434 H 0.03444 0.56543 0.03072 0.0
H1435 H 0.10779 0.6097 0.9937 0.0
H1436 H 0.09619 0.63248 0.05389 0.0
C1437 C 0.11615 0.66837 0.0441 0.0
C1438 C 0.12584 0.68385 0.02798 0.0
C1439 C 0.09207 0.59961 0.00224 0.0
C1440 C 0.10147 0.63496 0.02241 0.0
C1441 C 0.07525 0.57749 0.99564 0.0
C1442 C 0.05363 0.56541 0.00509 0.0
C1443 C 0.0873 0.60943 0.01859 0.0
C1444 C 0.05092 0.57425 0.02303 0.0
C1445 C 0.10371 0.64405 0.04134 0.0
C1446 C 0.12281 0.67386 0.00921 0.0
N1447 N 0.06735 0.59614 0.02899 0.0
N1448 N 0.11098 0.65009 0.00697 0.0
H1449 H 0.32268 0.44385 0.06057 0.0
H1450 H 0.40927 0.46209 0.97577 0.0
H1451 H 0.29823 0.42705 0.00086 0.0
H1452 H 0.43016 0.50189 0.02942 0.0
H1453 H 0.36887 0.45149 0.98247 0.0
H1454 H 0.3624 0.46544 0.04845 0.0
C1455 C 0.32568 0.44459 0.04488 0.0
C1456 C 0.3071 0.43335 0.03173 0.0
C1457 C 0.38241 0.46326 0.99241 0.0
C1458 C 0.35273 0.45858 0.01766 0.0
C1459 C 0.40547 0.46959 0.98842 0.0
C1460 C 0.42295 0.48309 0.00197 0.0
C1461 C 0.37697 0.46994 0.01034 0.0
C1462 C 0.41714 0.49175 0.01849 0.0
C1463 C 0.34838 0.45727 0.03794 0.0
C1464 C 0.31207 0.43543 0.01151 0.0
N1465 N 0.39456 0.48456 0.02247 0.0
N1466 N 0.33447 0.44757 0.00507 0.0
H1467 H 0.58797 0.90979 0.03728 0.0
H1468 H 0.48436 0.91465 0.99184 0.0
H1469 H 0.5248 0.8441 0.02704 0.0
H1470 H 0.53065 0.96621 0.03316 0.0
H1471 H 0.49533 0.88668 0.00458 0.0
H1472 H 0.56662 0.93065 0.03275 0.0
C1473 C 0.56959 0.89975 0.03402 0.0
C1474 C 0.55806 0.87512 0.03299 0.0
C1475 C 0.50237 0.90377 0.01143 0.0
C1476 C 0.53347 0.89896 0.02781 0.0
C1477 C 0.4957 0.91956 0.0045 0.0
C1478 C 0.50712 0.94289 0.01118 0.0
C1479 C 0.52058 0.91168 0.02499 0.0
C1480 C 0.52172 0.94844 0.02746 0.0
C1481 C 0.55737 0.91165 0.03164 0.0
C1482 C 0.53436 0.8631 0.02804 0.0
N1483 N 0.52889 0.9333 0.03328 0.0
N1484 N 0.52277 0.87516 0.02561 0.0
H1485 H 0.98193 0.17767 0.36775 0.0
H1486 H 0.08028 0.298 0.32047 0.0
H1487 H 0.97092 0.233 0.34602 0.0
H1488 H 0.09521 0.25631 0.36039 0.0
H1489 H 0.03935 0.26725 0.3204 0.0
H1490 H 0.02252 0.19993 0.35646 0.0
C1491 C 0.98805 0.19431 0.36022 0.0
C1492 C 0.97341 0.20375 0.35781 0.0
C1493 C 0.05164 0.26452 0.32879 0.0
C1494 C 0.01927 0.22901 0.3449 0.0
C1495 C 0.07495 0.28192 0.32869 0.0
C1496 C 0.09087 0.27944 0.34039 0.0
C1497 C 0.04427 0.2447 0.3409 0.0
C1498 C 0.08329 0.25862 0.35109 0.0
C1499 C 0.01109 0.20696 0.35385 0.0
C1500 C 0.98188 0.22532 0.34815 0.0
N1501 N 0.06034 0.24206 0.35131 0.0
N1502 N 0.00436 0.23733 0.3421 0.0
H1503 H 0.78882 0.76377 0.32671 0.0
H1504 H 0.73443 0.83706 0.37384 0.0
H1505 H 0.79057 0.78063 0.38818 0.0
H1506 H 0.71834 0.80981 0.31493 0.0
H1507 H 0.76247 0.82361 0.37646 0.0
H1508 H 0.76836 0.78555 0.31989 0.0
C1509 C 0.7849 0.77199 0.33874 0.0
C1510 C 0.79128 0.7702 0.35807 0.0
C1511 C 0.75319 0.82092 0.36278 0.0
C1512 C 0.76831 0.79531 0.35034 0.0
C1513 C 0.73745 0.82892 0.3612 0.0
C1514 C 0.72411 0.82445 0.34418 0.0
C1515 C 0.75536 0.80801 0.34731 0.0
C1516 C 0.72848 0.8137 0.32824 0.0
C1517 C 0.77327 0.78441 0.33483 0.0
C1518 C 0.78565 0.7811 0.37311 0.0
N1519 N 0.74346 0.80536 0.33032 0.0
N1520 N 0.77456 0.79315 0.36891 0.0
H1521 H 0.25397 0.01929 0.3636 0.0
H1522 H 0.14681 0.89746 0.33548 0.0
H1523 H 0.18545 0.01009 0.35674 0.0
H1524 H 0.21025 0.90501 0.3588 0.0
H1525 H 0.15763 0.93652 0.34786 0.0
H1526 H 0.23718 0.97663 0.36315 0.0
C1527 C 0.23537 0.00821 0.3618 0.0
C1528 C 0.22105 0.01815 0.36011 0.0
C1529 C 0.16885 0.92935 0.35091 0.0
C1530 C 0.20159 0.96929 0.36008 0.0
C1531 C 0.16236 0.90677 0.3443 0.0
C1532 C 0.17793 0.89835 0.34576 0.0
C1533 C 0.19113 0.9434 0.35883 0.0
C1534 C 0.19789 0.9111 0.3572 0.0
C1535 C 0.22575 0.98387 0.36184 0.0
C1536 C 0.1971 0.00308 0.35778 0.0
N1537 N 0.20446 0.93347 0.36261 0.0
N1538 N 0.18809 0.97936 0.35782 0.0
H1539 H 0.55321 0.63145 0.32536 0.0
H1540 H 0.6188 0.76655 0.30323 0.0
H1541 H 0.52086 0.65526 0.28344 0.0
H1542 H 0.60577 0.73702 0.36177 0.0
H1543 H 0.58803 0.72776 0.2909 0.0
H1544 H 0.5806 0.67243 0.33373 0.0
C1545 C 0.5518 0.64542 0.31815 0.0
C1546 C 0.53474 0.64033 0.30407 0.0
C1547 C 0.59195 0.73019 0.30644 0.0
C1548 C 0.56575 0.68683 0.31332 0.0
C1549 C 0.60932 0.75215 0.31343 0.0
C1550 C 0.61524 0.75469 0.33342 0.0
C1551 C 0.58109 0.71115 0.31963 0.0
C1552 C 0.60235 0.73566 0.34614 0.0
C1553 C 0.56736 0.66867 0.3228 0.0
C1554 C 0.53383 0.65886 0.29456 0.0
N1555 N 0.58625 0.71467 0.339 0.0
N1556 N 0.54918 0.68155 0.29942 0.0
H1557 H 0.35946 0.91591 0.33434 0.0
H1558 H 0.23033 0.82852 0.29732 0.0
H1559 H 0.34277 0.8724 0.28283 0.0
H1560 H 0.24603 0.87364 0.34758 0.0
H1561 H 0.2712 0.83903 0.29549 0.0
H1562 H 0.3179 0.89675 0.3424 0.0
C1563 C 0.34698 0.90221 0.32484 0.0
C1564 C 0.35431 0.89583 0.30781 0.0
C1565 C 0.26567 0.84621 0.30724 0.0
C1566 C 0.30708 0.87361 0.31699 0.0
C1567 C 0.24231 0.83993 0.30842 0.0
C1568 C 0.235 0.85003 0.32277 0.0
C1569 C 0.28175 0.86307 0.32028 0.0
C1570 C 0.25114 0.86527 0.3365 0.0
C1571 C 0.32334 0.89123 0.32943 0.0
C1572 C 0.33764 0.87802 0.29592 0.0
N1573 N 0.27389 0.87163 0.33477 0.0
N1574 N 0.31479 0.86755 0.30071 0.0
H1575 H 0.12767 0.48262 0.30832 0.0
H1576 H 0.12046 0.35745 0.30783 0.0
H1577 H 0.06578 0.41639 0.29632 0.0
H1578 H 0.17505 0.41781 0.33707 0.0
H1579 H 0.10571 0.38216 0.29475 0.0
H1580 H 0.1489 0.46146 0.31364 0.0
C1581 C 0.11845 0.46363 0.30708 0.0
C1582 C 0.09497 0.45129 0.3016 0.0
C1583 C 0.1214 0.39021 0.30349 0.0
C1584 C 0.11937 0.42721 0.30682 0.0
C1585 C 0.13022 0.37624 0.31046 0.0
C1586 C 0.14884 0.38566 0.32364 0.0
C1587 C 0.13156 0.41373 0.30963 0.0
C1588 C 0.1606 0.40998 0.32693 0.0
C1589 C 0.13068 0.45163 0.30979 0.0
C1590 C 0.08399 0.42669 0.30007 0.0
N1591 N 0.15141 0.42315 0.32042 0.0
N1592 N 0.09632 0.4155 0.30248 0.0
H1593 H 0.36433 0.45145 0.33202 0.0
H1594 H 0.23173 0.40366 0.30384 0.0
H1595 H 0.33946 0.45763 0.2751 0.0
H1596 H 0.25262 0.37695 0.35281 0.0
H1597 H 0.27214 0.43463 0.29919 0.0
H1598 H 0.32441 0.43375 0.34486 0.0
C1599 C 0.35046 0.44917 0.32231 0.0
C1600 C 0.35492 0.45543 0.30241 0.0
C1601 C 0.26781 0.42249 0.31137 0.0
C1602 C 0.30978 0.436 0.31697 0.0
C1603 C 0.24475 0.40508 0.31418 0.0
C1604 C 0.23909 0.38798 0.32873 0.0
C1605 C 0.28519 0.4225 0.32311 0.0
C1606 C 0.25651 0.39003 0.34149 0.0
C1607 C 0.32782 0.43923 0.32962 0.0
C1608 C 0.33656 0.45246 0.29042 0.0
N1609 N 0.27896 0.4068 0.33819 0.0
N1610 N 0.31478 0.44287 0.29787 0.0
H1611 H 0.54682 0.91653 0.33282 0.0
H1612 H 0.59233 0.82768 0.3082 0.0
H1613 H 0.52591 0.87106 0.28236 0.0
H1614 H 0.61836 0.87723 0.35585 0.0
H1615 H 0.56092 0.83642 0.30344 0.0
H1616 H 0.56711 0.89664 0.34569 0.0
C1617 C 0.54627 0.90211 0.32465 0.0
C1618 C 0.53501 0.89548 0.30648 0.0
C1619 C 0.57301 0.84482 0.31539 0.0
C1620 C 0.5578 0.87259 0.32101 0.0
C1621 C 0.59067 0.83949 0.31832 0.0
C1622 C 0.60765 0.85154 0.33261 0.0
C1623 C 0.57258 0.8625 0.32673 0.0
C1624 C 0.60533 0.86738 0.34485 0.0
C1625 C 0.55778 0.89076 0.33195 0.0
C1626 C 0.53472 0.87679 0.29634 0.0
N1627 N 0.58834 0.8727 0.34145 0.0
N1628 N 0.54607 0.86608 0.30367 0.0
H1629 H 0.06962 0.64256 0.30549 0.0
H1630 H 0.17667 0.76223 0.33183 0.0
H1631 H 0.137 0.64815 0.30759 0.0
H1632 H 0.11923 0.75738 0.29903 0.0
H1633 H 0.16574 0.72232 0.32154 0.0
H1634 H 0.08845 0.68551 0.30503 0.0
C1635 C 0.0884 0.65291 0.30602 0.0
C1636 C 0.10181 0.6419 0.30666 0.0
C1637 C 0.15604 0.73031 0.31594 0.0
C1638 C 0.12349 0.69093 0.30557 0.0
C1639 C 0.16265 0.75333 0.3214 0.0
C1640 C 0.14843 0.76277 0.31668 0.0
C1641 C 0.13505 0.71692 0.30588 0.0
C1642 C 0.13043 0.75051 0.30322 0.0
C1643 C 0.09914 0.67736 0.30544 0.0
C1644 C 0.12608 0.65604 0.30741 0.0
N1645 N 0.1235 0.72772 0.29902 0.0
N1646 N 0.1362 0.67991 0.30688 0.0
H1647 H 0.81976 0.01513 0.34562 0.0
H1648 H 0.69829 0.9008 0.36856 0.0
H1649 H 0.75971 0.0143 0.37087 0.0
H1650 H 0.7469 0.90139 0.32658 0.0
H1651 H 0.7276 0.93998 0.3794 0.0
H1652 H 0.79806 0.97208 0.34492 0.0
C1653 C 0.80198 0.00599 0.35082 0.0
C1654 C 0.79166 0.01845 0.3585 0.0
C1655 C 0.73219 0.93122 0.36828 0.0
C1656 C 0.76725 0.96923 0.35861 0.0
C1657 C 0.71567 0.90854 0.3625 0.0
C1658 C 0.71998 0.89851 0.34605 0.0
C1659 C 0.75318 0.94329 0.35781 0.0
C1660 C 0.7428 0.90904 0.33894 0.0
C1661 C 0.78979 0.98141 0.35076 0.0
C1662 C 0.76862 0.00552 0.36524 0.0
N1663 N 0.75839 0.93143 0.34424 0.0
N1664 N 0.75728 0.98166 0.36525 0.0
H1665 H 0.96212 0.74681 0.33585 0.0
H1666 H 0.09599 0.83899 0.35484 0.0
H1667 H 0.98835 0.79445 0.38485 0.0
H1668 H 0.07186 0.78252 0.313 0.0
H1669 H 0.05593 0.83047 0.35932 0.0
H1670 H 0.00144 0.76608 0.32165 0.0
C1671 C 0.97619 0.7615 0.34345 0.0
C1672 C 0.97233 0.76893 0.36162 0.0
C1673 C 0.05946 0.8204 0.3487 0.0
C1674 C 0.0169 0.79123 0.34548 0.0
C1675 C 0.08234 0.82552 0.34594 0.0
C1676 C 0.087 0.81141 0.33354 0.0
C1677 C 0.04131 0.80095 0.33907 0.0
C1678 C 0.06877 0.79377 0.32266 0.0
C1679 C -0.00148 0.77252 0.33537 0.0
C1680 C 0.99089 0.78804 0.37096 0.0
N1681 N 0.0466 0.78875 0.3259 0.0
N1682 N 0.01242 0.79848 0.36283 0.0
H1683 H 0.19194 0.17661 0.35972 0.0
H1684 H 0.19972 0.30163 0.36437 0.0
H1685 H 0.25402 0.24288 0.37127 0.0
H1686 H 0.15066 0.24661 0.32682 0.0
H1687 H 0.21136 0.27446 0.37763 0.0
H1688 H 0.17071 0.19787 0.35451 0.0
C1689 C 0.20119 0.1956 0.36092 0.0
C1690 C 0.22474 0.20795 0.36626 0.0
C1691 C 0.19741 0.26806 0.36701 0.0
C1692 C 0.2003 0.232 0.36133 0.0
C1693 C 0.19028 0.28336 0.35987 0.0
C1694 C 0.17465 0.27638 0.34419 0.0
C1695 C 0.18832 0.24562 0.35864 0.0
C1696 C 0.16304 0.25261 0.33876 0.0
C1697 C 0.18895 0.20762 0.35828 0.0
C1698 C 0.23575 0.23255 0.36771 0.0
N1699 N 0.17064 0.23814 0.3455 0.0
N1700 N 0.22339 0.24372 0.36548 0.0
H1701 H 0.64258 0.50502 0.68612 0.0
H1702 H 0.75315 0.61569 0.70773 0.0
H1703 H 0.64246 0.57044 0.69138 0.0
H1704 H 0.75591 0.60002 0.64662 0.0
H1705 H 0.71255 0.58505 0.70897 0.0
H1706 H 0.68385 0.52732 0.67635 0.0
C1707 C 0.65101 0.52397 0.68463 0.0
C1708 C 0.63927 0.53601 0.68986 0.0
C1709 C 0.72226 0.58778 0.69548 0.0
C1710 C 0.68589 0.56118 0.67871 0.0
C1711 C 0.74542 0.60511 0.69474 0.0
C1712 C 0.7578 0.61048 0.67701 0.0
C1713 C 0.71135 0.57538 0.67846 0.0
C1714 C 0.74688 0.59634 0.66056 0.0
C1715 C 0.67443 0.53656 0.67902 0.0
C1716 C 0.65101 0.56054 0.68786 0.0
N1717 N 0.72389 0.5795 0.66155 0.0
N1718 N 0.67381 0.57235 0.68283 0.0
H1719 H 0.46946 0.12591 0.71643 0.0
H1720 H 0.3714 0.12503 0.64921 0.0
H1721 H 0.44557 0.08559 0.66308 0.0
H1722 H 0.39962 0.16787 0.70077 0.0
H1723 H 0.40226 0.11492 0.6507 0.0
H1724 H 0.44725 0.14513 0.70834 0.0
C1725 C 0.45938 0.12109 0.70301 0.0
C1726 C 0.459 0.10401 0.6905 0.0
C1727 C 0.40215 0.12709 0.66135 0.0
C1728 C 0.43354 0.1259 0.68106 0.0
C1729 C 0.38475 0.13306 0.66034 0.0
C1730 C 0.38331 0.1474 0.67481 0.0
C1731 C 0.41792 0.13542 0.67706 0.0
C1732 C 0.40041 0.15689 0.6893 0.0
C1733 C 0.44686 0.13217 0.6983 0.0
C1734 C 0.44612 0.09865 0.6731 0.0
N1735 N 0.4169 0.15052 0.69019 0.0
N1736 N 0.43361 0.10938 0.66897 0.0
H1737 H 0.87663 0.34357 0.72484 0.0
H1738 H 0.83016 0.24101 0.64646 0.0
H1739 H 0.88893 0.35673 0.66255 0.0
H1740 H 0.86391 0.23742 0.69922 0.0
H1741 H 0.83727 0.2799 0.65623 0.0
H1742 H 0.85923 0.30145 0.71871 0.0
C1743 C 0.87583 0.33769 0.70986 0.0
C1744 C 0.88475 0.35388 0.6942 0.0
C1745 C 0.84223 0.27016 0.66604 0.0
C1746 C 0.86378 0.30556 0.6872 0.0
C1747 C 0.83771 0.24777 0.66074 0.0
C1748 C 0.84628 0.23598 0.67218 0.0
C1749 C 0.85471 0.28039 0.68323 0.0
C1750 C 0.85678 0.24586 0.69017 0.0
C1751 C 0.86566 0.31363 0.70644 0.0
C1752 C 0.88228 0.34499 0.67507 0.0
N1753 N 0.86094 0.26771 0.69511 0.0
N1754 N 0.87203 0.32138 0.6721 0.0
H1755 H 0.17906 0.98098 0.65102 0.0
H1756 H 0.30488 0.09278 0.63519 0.0
H1757 H 0.23759 0.97953 0.62498 0.0
H1758 H 0.2513 0.09495 0.66899 0.0
H1759 H 0.27649 0.05363 0.62354 0.0
H1760 H 0.20266 0.02386 0.65336 0.0
C1761 C 0.19689 0.98958 0.64595 0.0
C1762 C 0.20621 0.97652 0.6376 0.0
C1763 C 0.2707 0.0629 0.63304 0.0
C1764 C 0.233 0.02571 0.63951 0.0
C1765 C 0.2868 0.08557 0.63923 0.0
C1766 C 0.28044 0.09688 0.65328 0.0
C1767 C 0.24819 0.05161 0.64109 0.0
C1768 C 0.25686 0.08668 0.65819 0.0
C1769 C 0.21022 0.01412 0.64698 0.0
C1770 C 0.22941 0.98879 0.63111 0.0
N1771 N 0.24167 0.06421 0.65269 0.0
N1772 N 0.2419 0.01261 0.63212 0.0
H1773 H 0.02277 0.26319 0.64298 0.0
H1774 H 0.89829 0.15487 0.64384 0.0
H1775 H 0.01411 0.19367 0.64663 0.0
H1776 H 0.91411 0.21898 0.67367 0.0
H1777 H 0.9399 0.16723 0.64408 0.0
H1778 H 0.982 0.24686 0.65255 0.0
C1779 C 0.01223 0.24451 0.64593 0.0
C1780 C 0.02157 0.22968 0.64408 0.0
C1781 C 0.93412 0.17821 0.65108 0.0
C1782 C 0.97522 0.21091 0.65474 0.0
C1783 C 0.91049 0.17111 0.65105 0.0
C1784 C 0.90309 0.18595 0.65889 0.0
C1785 C 0.95015 0.20054 0.65842 0.0
C1786 C 0.91937 0.20708 0.66766 0.0
C1787 C 0.98912 0.23523 0.65151 0.0
C1788 C 0.00737 0.20559 0.64803 0.0
N1789 N 0.94227 0.21402 0.66684 0.0
N1790 N 0.9847 0.19681 0.6529 0.0
H1791 H 0.79603 0.81874 0.64121 0.0
H1792 H 0.79628 0.69791 0.63199 0.0
H1793 H 0.7358 0.75076 0.63044 0.0
H1794 H 0.84466 0.75296 0.66983 0.0
H1795 H 0.78168 0.72356 0.62109 0.0
H1796 H 0.81929 0.79945 0.6456 0.0
C1797 C 0.7876 0.79978 0.64004 0.0
C1798 C 0.76398 0.7864 0.63502 0.0
C1799 C 0.79606 0.73035 0.6313 0.0
C1800 C 0.79072 0.7646 0.63902 0.0
C1801 C 0.80495 0.71598 0.63703 0.0
C1802 C 0.82102 0.72307 0.65238 0.0
C1803 C 0.80412 0.75221 0.64048 0.0
C1804 C 0.83178 0.74671 0.65827 0.0
C1805 C 0.80098 0.78889 0.64223 0.0
C1806 C 0.75407 0.76188 0.63367 0.0
N1807 N 0.82252 0.76027 0.65292 0.0
N1808 N 0.76753 0.75184 0.63537 0.0
H1809 H 0.03307 0.7877 0.66544 0.0
H1810 H 0.8985 0.73647 0.64146 0.0
H1811 H 0.00621 0.79333 0.60934 0.0
H1812 H 0.92296 0.71375 0.69075 0.0
H1813 H 0.93855 0.76714 0.63445 0.0
H1814 H 0.9935 0.76903 0.67904 0.0
C1815 C 0.01885 0.78515 0.65607 0.0
C1816 C 0.02277 0.79167 0.63619 0.0
C1817 C 0.93509 0.75596 0.6472 0.0
C1818 C 0.97775 0.77087 0.65163 0.0
C1819 C 0.91219 0.73876 0.6514 0.0
C1820 C 0.90755 0.72273 0.66673 0.0
C1821 C 0.95332 0.75706 0.65847 0.0
C1822 C 0.92594 0.72593 0.67884 0.0
C1823 C -0.00366 0.77458 0.6638 0.0
C1824 C 0.00382 0.7881 0.62464 0.0
N1825 N 0.94811 0.74253 0.6743 0.0
N1826 N 0.98214 0.77788 0.63251 0.0
H1827 H 0.17542 0.20611 0.65357 0.0
H1828 H 0.26552 0.17476 0.631 0.0
H1829 H 0.24091 0.26246 0.63177 0.0
H1830 H 0.2772 0.19708 0.69141 0.0
H1831 H 0.23663 0.18737 0.62844 0.0
H1832 H 0.19568 0.18607 0.66586 0.0
C1833 C 0.19407 0.21459 0.65172 0.0
C1834 C 0.20641 0.23595 0.64131 0.0
C1835 C 0.24481 0.18852 0.64248 0.0
C1836 C 0.22923 0.21288 0.65514 0.0
C1837 C 0.26106 0.18117 0.64401 0.0
C1838 C 0.27338 0.18466 0.66152 0.0
C1839 C 0.24106 0.19948 0.65852 0.0
C1840 C 0.26768 0.19383 0.6778 0.0
C1841 C 0.20547 0.20303 0.6587 0.0
C1842 C 0.23053 0.24579 0.63921 0.0
N1843 N 0.25218 0.20152 0.6758 0.0
N1844 N 0.24109 0.23395 0.64575 0.0
H1845 H 0.76357 0.98231 0.60688 0.0
H1846 H 0.83867 0.08721 0.67933 0.0
H1847 H 0.7703 0.97325 0.66908 0.0
H1848 H 0.79485 0.09431 0.6366 0.0
H1849 H 0.82542 0.04732 0.66771 0.0
H1850 H 0.78373 0.02468 0.61161 0.0
C1851 C 0.76891 0.98894 0.6216 0.0
C1852 C 0.76483 0.97367 0.63765 0.0
C1853 C 0.81934 0.05791 0.66041 0.0
C1854 C 0.78947 0.02262 0.64263 0.0
C1855 C 0.82729 0.08084 0.66669 0.0
C1856 C 0.81778 0.09395 0.65891 0.0
C1857 C 0.80206 0.04825 0.64602 0.0
C1858 C 0.80271 0.08475 0.64284 0.0
C1859 C 0.7808 0.01328 0.62412 0.0
C1860 C 0.77324 0.98396 0.65612 0.0
N1861 N 0.79486 0.06213 0.63712 0.0
N1862 N 0.7853 0.00775 0.65805 0.0
H1863 H 0.46198 0.34869 0.66305 0.0
H1864 H 0.36534 0.23138 0.70036 0.0
H1865 H 0.45159 0.34081 0.72596 0.0
H1866 H 0.412 0.23394 0.65533 0.0
H1867 H 0.3958 0.26964 0.71241 0.0
H1868 H 0.44159 0.30595 0.66012 0.0
C1869 C 0.45562 0.33815 0.67627 0.0
C1870 C 0.45855 0.34867 0.69477 0.0
C1871 C 0.3997 0.26134 0.70042 0.0
C1872 C 0.43481 0.29958 0.69138 0.0
C1873 C 0.38249 0.23926 0.69381 0.0
C1874 C 0.3861 0.22987 0.67658 0.0
C1875 C 0.42026 0.27382 0.68945 0.0
C1876 C 0.40852 0.24087 0.66853 0.0
C1877 C 0.44403 0.31371 0.67457 0.0
C1878 C 0.4493 0.33374 0.71128 0.0
N1879 N 0.42449 0.26283 0.67443 0.0
N1880 N 0.43757 0.30998 0.70917 0.0
H1881 H 0.64581 0.13391 0.68809 0.0
H1882 H 0.74272 0.09855 0.67071 0.0
H1883 H 0.63595 0.06405 0.69336 0.0
H1884 H 0.75854 0.17074 0.66954 0.0
H1885 H 0.70164 0.08561 0.67141 0.0
H1886 H 0.68483 0.14756 0.67439 0.0
C1887 C 0.65175 0.12141 0.686 0.0
C1888 C 0.63798 0.09795 0.69213 0.0
C1889 C 0.71391 0.10431 0.67068 0.0
C1890 C 0.68215 0.11325 0.67655 0.0
C1891 C 0.7374 0.1117 0.67022 0.0
C1892 C 0.75392 0.13571 0.67032 0.0
C1893 C 0.70669 0.12104 0.67165 0.0
C1894 C 0.74621 0.15205 0.66955 0.0
C1895 C 0.67395 0.12919 0.67826 0.0
C1896 C 0.64627 0.08237 0.68914 0.0
N1897 N 0.723 0.1444 0.67064 0.0
N1898 N 0.66784 0.09034 0.68172 0.0
H1899 H 0.8809 0.54835 0.73119 0.0
H1900 H 0.82618 0.58182 0.64135 0.0
H1901 H 0.88728 0.53352 0.67044 0.0
H1902 H 0.84451 0.61934 0.69623 0.0
H1903 H 0.83584 0.55344 0.65524 0.0
H1904 H 0.85747 0.56558 0.72103 0.0
C1905 C 0.87756 0.54884 0.71568 0.0
C1906 C 0.88653 0.53978 0.70164 0.0
C1907 C 0.83697 0.5674 0.66448 0.0
C1908 C 0.8588 0.55876 0.69007 0.0
C1909 C 0.83094 0.5833 0.65673 0.0
C1910 C 0.83504 0.60324 0.66755 0.0
C1911 C 0.84656 0.57118 0.68335 0.0
C1912 C 0.8413 0.60436 0.68733 0.0
C1913 C 0.86389 0.55842 0.70997 0.0
C1914 C 0.88077 0.54019 0.68184 0.0
N1915 N 0.84749 0.58889 0.69447 0.0
N1916 N 0.86737 0.54963 0.67664 0.0
H1917 H 0.48958 0.94311 0.15964 0.0
H1918 H 0.51278 0.03738 0.07566 0.0
H1919 H 0.48133 0.0038 0.16678 0.0
H1920 H 0.49906 0.96731 0.06269 0.0
H1921 H 0.51214 0.02914 0.11063 0.0
H1922 H 0.50171 0.95488 0.12546 0.0
C1923 C 0.49046 0.95898 0.15399 0.0
C1924 C 0.48438 0.9725 0.16592 0.0
C1925 C 0.50976 0.0157 0.10017 0.0
C1926 C 0.49854 0.98617 0.12717 0.0
C1927 C 0.51041 0.02048 0.08021 0.0
C1928 C 0.50566 0.00286 0.06634 0.0
C1929 C 0.50428 0.99312 0.10633 0.0
C1930 C 0.50277 0.98132 0.07296 0.0
C1931 C 0.49738 0.96566 0.13457 0.0
C1932 C 0.48565 0.9928 0.15797 0.0
N1933 N 0.50166 0.97685 0.0926 0.0
N1934 N 0.49264 -0.00095 0.13908 0.0
H1935 H 0.05519 0.52242 0.15938 0.0
H1936 H 0.9613 0.49147 0.0757 0.0
H1937 H 0.98678 0.51133 0.17132 0.0
H1938 H 0.03458 0.52524 0.06331 0.0
H1939 H 0.96989 0.49842 0.11073 0.0
H1940 H 0.04745 0.52131 0.12399 0.0
C1941 C 0.03844 0.51943 0.15447 0.0
C1942 C 0.02153 0.51689 0.1681 0.0
C1943 C 0.98416 0.5049 0.10037 0.0
C1944 C 0.01266 0.51591 0.12794 0.0
C1945 C 0.97926 0.50125 0.08037 0.0
C1946 C -0.00271 0.50813 0.06668 0.0
C1947 C 0.00726 0.51505 0.10672 0.0
C1948 C 0.02025 0.5201 0.07343 0.0
C1949 C 0.03413 0.5191 0.13435 0.0
C1950 C 0.00021 0.51336 0.16116 0.0
N1951 N 0.0246 0.5228 0.09307 0.0
N1952 N -0.00368 0.51286 0.14154 0.0
H1953 H 0.45372 0.50482 0.15833 0.0
H1954 H 0.52993 0.50652 0.06722 0.0
H1955 H 0.52552 0.52337 0.16419 0.0
H1956 H 0.46512 0.50586 0.06152 0.0
H1957 H 0.52962 0.51353 0.10266 0.0
H1958 H 0.45729 0.50331 0.12272 0.0
C1959 C 0.47016 0.5083 0.15214 0.0
C1960 C 0.48937 0.51429 0.16423 0.0
C1961 C 0.51574 0.5124 0.09358 0.0
C1962 C 0.49376 0.51314 0.12347 0.0
C1963 C 0.51613 0.50876 0.07339 0.0
C1964 C 0.49778 0.50615 0.06159 0.0
C1965 C 0.49652 0.51271 0.10191 0.0
C1966 C 0.47981 0.50832 0.07021 0.0
C1967 C 0.4723 0.50777 0.13179 0.0
C1968 C 0.51035 0.51893 0.15537 0.0
N1969 N 0.47944 0.51114 0.08991 0.0
N1970 N 0.51199 0.51826 0.13552 0.0
H1971 H 0.94366 0.49286 0.83952 0.0
H1972 H 0.01065 0.47997 0.93163 0.0
H1973 H 0.9909 0.46601 0.834 0.0
H1974 H 0.95237 0.4913 0.93601 0.0
H1975 H 0.00351 0.47328 0.89611 0.0
H1976 H 0.94845 0.494 0.87506 0.0
C1977 C 0.95524 0.48743 0.84573 0.0
C1978 C 0.96673 0.47914 0.83369 0.0
C1979 C 0.99195 0.47667 0.90494 0.0
C1980 C 0.97179 0.47975 0.87457 0.0
C1981 C -0.00422 0.48004 0.92521 0.0
C1982 C 0.98179 0.48576 0.93665 0.0
C1983 C 0.97437 0.4796 0.89621 0.0
C1984 C 0.96324 0.4865 0.92764 0.0
C1985 C 0.9577 0.48774 0.86609 0.0
C1986 C 0.98135 0.47212 0.84271 0.0
N1987 N 0.96028 0.48384 0.90793 0.0
N1988 N 0.98342 0.47253 0.8626 0.0
H1989 H 0.51823 0.51448 0.82752 0.0
H1990 H 0.49 0.46277 0.9363 0.0
H1991 H 0.49268 0.44095 0.83932 0.0
H1992 H 0.49213 0.52703 0.91865 0.0
H1993 H 0.49121 0.45358 0.90145 0.0
H1994 H 0.51175 0.51993 0.86203 0.0
C1995 C 0.51144 0.49955 0.83743 0.0
C1996 C 0.50578 0.47722 0.83057 0.0
C1997 C 0.49104 0.4695 0.90528 0.0
C1998 C 0.49805 0.48317 0.86995 0.0
C1999 C 0.49005 0.47458 0.92513 0.0
C2000 C 0.49135 0.49586 0.93035 0.0
C2001 C 0.49356 0.48596 0.8908 0.0
C2002 C 0.49152 0.51061 0.91528 0.0
C2003 C 0.50748 0.50257 0.85706 0.0
C2004 C 0.49694 0.4584 0.84402 0.0
N2005 N 0.49307 0.5056 0.89625 0.0
N2006 N 0.49336 0.46178 0.86309 0.0
H2007 H 0.50514 0.99643 0.83047 0.0
H2008 H 0.50084 0.03689 0.9402 0.0
H2009 H 0.50701 0.0615 0.84376 0.0
H2010 H 0.48455 0.96669 0.92453 0.0
H2011 H 0.50167 0.04627 0.90514 0.0
H2012 H 0.49816 0.98559 0.86534 0.0
C2013 C 0.50435 0.0085 0.84085 0.0
C2014 C 0.50667 0.02984 0.83446 0.0
C2015 C 0.49739 0.02865 0.90941 0.0
C2016 C 0.49847 0.01766 0.87411 0.0
C2017 C 0.49655 0.02323 0.9294 0.0
C2018 C 0.49263 0.00104 0.93512 0.0
C2019 C 0.49439 0.01173 0.89527 0.0
C2020 C 0.4877 0.98405 0.9206 0.0
C2021 C 0.50012 0.00227 0.86067 0.0
C2022 C 0.50526 0.04486 0.84829 0.0
N2023 N 0.48905 0.98983 0.90134 0.0
N2024 N 0.50133 0.03854 0.86752 0.0
H2025 H 0.18222 0.33694 0.50535 0.0
H2026 H 0.14863 0.29257 0.39471 0.0
H2027 H 0.11629 0.27808 0.48833 0.0
H2028 H 0.1971 0.36482 0.40882 0.0
H2029 H 0.14366 0.28309 0.42986 0.0
H2030 H 0.1936 0.34436 0.47058 0.0
C2031 C 0.17015 0.32568 0.49424 0.0
C2032 C 0.14827 0.30698 0.49958 0.0
C2033 C 0.15594 0.30087 0.42522 0.0
C2034 C 0.16137 0.31485 0.4601 0.0
C2035 C 0.15916 0.30615 0.40519 0.0
C2036 C 0.17351 0.32941 0.39898 0.0
C2037 C 0.16742 0.31896 0.439 0.0
C2038 C 0.18613 0.34661 0.41313 0.0
C2039 C 0.17667 0.32983 0.47449 0.0
C2040 C 0.13322 0.29283 0.48474 0.0
N2041 N 0.18265 0.3411 0.43255 0.0
N2042 N 0.14011 0.29695 0.46564 0.0
H2043 H 0.72087 0.85388 0.49108 0.0
H2044 H 0.62566 0.82246 0.40798 0.0
H2045 H 0.65118 0.83855 0.50376 0.0
H2046 H 0.69904 0.86019 0.39538 0.0
H2047 H 0.63423 0.82644 0.44307 0.0
H2048 H 0.71267 0.85282 0.45574 0.0
C2049 C 0.70374 0.84991 0.48635 0.0
C2050 C 0.68661 0.84622 0.50018 0.0
C2051 C 0.6485 0.83437 0.43269 0.0
C2052 C 0.67721 0.84531 0.46009 0.0
C2053 C 0.6436 0.83239 0.41267 0.0
C2054 C 0.66167 0.84137 0.39879 0.0
C2055 C 0.67166 0.84512 0.43895 0.0
C2056 C 0.68463 0.85347 0.40562 0.0
C2057 C 0.69916 0.8496 0.46626 0.0
C2058 C 0.66479 0.84146 0.49345 0.0
N2059 N 0.68899 0.85469 0.42526 0.0
N2060 N 0.66068 0.84108 0.47387 0.0
H2061 H 0.14684 0.81573 0.49965 0.0
H2062 H 0.16579 0.86637 0.39059 0.0
H2063 H 0.16694 0.88811 0.48815 0.0
H2064 H 0.16805 0.80401 0.40692 0.0
H2065 H 0.16652 0.87579 0.4257 0.0
H2066 H 0.15242 0.81081 0.46482 0.0
C2067 C 0.15226 0.83052 0.48974 0.0
C2068 C 0.15655 0.85236 0.49676 0.0
C2069 C 0.16728 0.86028 0.42151 0.0
C2070 C 0.1632 0.84703 0.45695 0.0
C2071 C 0.16715 0.85509 0.40151 0.0
C2072 C 0.16656 0.83424 0.39592 0.0
C2073 C 0.16663 0.84438 0.43578 0.0
C2074 C 0.16813 0.82008 0.41064 0.0
C2075 C 0.1557 0.82782 0.46991 0.0
C2076 C 0.16371 0.87104 0.48331 0.0
N2077 N 0.16771 0.82519 0.42984 0.0
N2078 N 0.16674 0.86795 0.46402 0.0
H2079 H 0.61293 0.8287 0.17049 0.0
H2080 H 0.66934 0.80768 0.26706 0.0
H2081 H 0.65274 0.79308 0.16812 0.0
H2082 H 0.64101 0.85402 0.26267 0.0
H2083 H 0.65975 0.79746 0.23198 0.0
H2084 H 0.62056 0.83472 0.20533 0.0
C2085 C 0.62352 0.82233 0.17716 0.0
C2086 C 0.6323 0.81048 0.16609 0.0
C2087 C 0.6556 0.80977 0.23885 0.0
C2088 C 0.64053 0.81668 0.20663 0.0
C2089 C 0.66087 0.81539 0.25882 0.0
C2090 C 0.65619 0.83189 0.26762 0.0
C2091 C 0.64542 0.82059 0.22798 0.0
C2092 C 0.64524 0.84147 0.25638 0.0
C2093 C 0.62766 0.82554 0.19725 0.0
C2094 C 0.64533 0.80206 0.176 0.0
N2095 N 0.64037 0.83578 0.23725 0.0
N2096 N 0.64903 0.8053 0.19572 0.0
H2097 H 0.17352 0.77943 0.17397 0.0
H2098 H 0.14564 0.85166 0.25312 0.0
H2099 H 0.17414 0.8441 0.16147 0.0
H2100 H 0.16225 0.79836 0.2698 0.0
H2101 H 0.14895 0.84383 0.21865 0.0
H2102 H 0.16506 0.78261 0.20858 0.0
C2103 C 0.17212 0.79444 0.17866 0.0
C2104 C 0.17462 0.81163 0.16504 0.0
C2105 C 0.15154 0.83356 0.22979 0.0
C2106 C 0.16423 0.81498 0.20423 0.0
C2107 C 0.14932 0.83778 0.24947 0.0
C2108 C 0.15389 0.82577 0.2643 0.0
C2109 C 0.15839 0.8172 0.22485 0.0
C2110 C 0.15853 0.80796 0.2588 0.0
C2111 C 0.16715 0.79616 0.1983 0.0
C2112 C 0.17255 0.83066 0.17164 0.0
N2113 N 0.16104 0.80443 0.23944 0.0
N2114 N 0.16729 0.83174 0.19077 0.0
H2115 H 0.17704 0.33477 0.16489 0.0
H2116 H 0.16399 0.36919 0.27402 0.0
H2117 H 0.16287 0.39098 0.17641 0.0
H2118 H 0.15151 0.30052 0.25723 0.0
H2119 H 0.16417 0.37889 0.239 0.0
H2120 H 0.17083 0.32413 0.19974 0.0
C2121 C 0.17277 0.34494 0.17481 0.0
C2122 C 0.17028 0.36362 0.16781 0.0
C2123 C 0.16088 0.36153 0.24308 0.0
C2124 C 0.16296 0.35153 0.2076 0.0
C2125 C 0.16045 0.35591 0.26303 0.0
C2126 C 0.15788 0.33412 0.26842 0.0
C2127 C 0.15898 0.34527 0.22871 0.0
C2128 C 0.15373 0.31761 0.25362 0.0
C2129 C 0.16898 0.33875 0.19464 0.0
C2130 C 0.16464 0.37623 0.18126 0.0
N2131 N 0.15483 0.32367 0.23446 0.0
N2132 N 0.16125 0.37002 0.20056 0.0
H2133 H 0.82852 0.61442 0.82682 0.0
H2134 H 0.83756 0.7033 0.74255 0.0
H2135 H 0.81063 0.6688 0.8336 0.0
H2136 H 0.83763 0.63905 0.72945 0.0
H2137 H 0.83666 0.69502 0.77735 0.0
H2138 H 0.83944 0.62672 0.79253 0.0
C2139 C 0.82706 0.62905 0.82113 0.0
C2140 C 0.81854 0.64056 0.83302 0.0
C2141 C 0.83733 0.68289 0.76696 0.0
C2142 C 0.83108 0.65469 0.79401 0.0
C2143 C 0.83807 0.68771 0.74705 0.0
C2144 C 0.83743 0.67169 0.73308 0.0
C2145 C 0.83602 0.66189 0.77313 0.0
C2146 C 0.83816 0.65185 0.73976 0.0
C2147 C 0.83322 0.63597 0.80159 0.0
C2148 C 0.81681 0.65924 0.8249 0.0
N2149 N 0.83706 0.64727 0.75942 0.0
N2150 N 0.82301 0.6657 0.80593 0.0
H2151 H 0.38973 0.19292 0.82569 0.0
H2152 H 0.29216 0.15325 0.74343 0.0
H2153 H 0.31857 0.17208 0.83861 0.0
H2154 H 0.36521 0.19114 0.72964 0.0
H2155 H 0.30146 0.16042 0.7783 0.0
H2156 H 0.38115 0.19113 0.79037 0.0
C2157 C 0.37223 0.18763 0.82099 0.0
C2158 C 0.35472 0.18241 0.83488 0.0
C2159 C 0.3155 0.16767 0.76769 0.0
C2160 C 0.34486 0.18068 0.79481 0.0
C2161 C 0.31017 0.16384 0.74777 0.0
C2162 C 0.32794 0.17187 0.73369 0.0
C2163 C 0.33882 0.17923 0.77364 0.0
C2164 C 0.35102 0.18502 0.74006 0.0
C2165 C 0.3674 0.18688 0.80092 0.0
C2166 C 0.33243 0.17606 0.82824 0.0
N2167 N 0.35584 0.18796 0.75964 0.0
N2168 N 0.3281 0.17527 0.80867 0.0
H2169 H 0.78594 0.16628 0.82594 0.0
H2170 H 0.87061 0.19695 0.73299 0.0
H2171 H 0.86034 0.19691 0.83044 0.0
H2172 H 0.79598 0.1593 0.72922 0.0
H2173 H 0.86748 0.20174 0.7685 0.0
H2174 H 0.78927 0.16511 0.79034 0.0
C2175 C 0.80295 0.17256 0.81954 0.0
C2176 C 0.82292 0.1821 0.83134 0.0
C2177 C 0.85179 0.19277 0.75983 0.0
C2178 C 0.82692 0.18159 0.79039 0.0
C2179 C 0.85364 0.19048 0.73957 0.0
C2180 C 0.83353 0.17821 0.72828 0.0
C2181 C 0.82969 0.18219 0.76873 0.0
C2182 C 0.81186 0.16942 0.73747 0.0
C2183 C 0.80487 0.17218 0.79914 0.0
C2184 C 0.8445 0.19007 0.82201 0.0
N2185 N 0.81049 0.17129 0.7572 0.0
N2186 N 0.84594 0.18983 0.80212 0.0
H2187 H 0.32234 0.1293 0.50017 0.0
H2188 H 0.29533 0.17125 0.60192 0.0
H2189 H 0.27663 0.15792 0.50629 0.0
H2190 H 0.33983 0.14123 0.59772 0.0
H2191 H 0.28657 0.16402 0.56708 0.0
H2192 H 0.32823 0.13224 0.53569 0.0
C2193 C 0.31352 0.13621 0.50895 0.0
C2194 C 0.29877 0.14318 0.50016 0.0
C2195 C 0.29783 0.15846 0.57374 0.0
C2196 C 0.30561 0.1467 0.5409 0.0
C2197 C 0.30257 0.16229 0.59369 0.0
C2198 C 0.31796 0.15641 0.60265 0.0
C2199 C 0.30865 0.14873 0.56255 0.0
C2200 C 0.32753 0.14558 0.59133 0.0
C2201 C 0.31694 0.13789 0.52925 0.0
C2202 C 0.28829 0.1525 0.5123 0.0
N2203 N 0.32283 0.1422 0.57173 0.0
N2204 N 0.29186 0.15391 0.53201 0.0
H2205 H 0.84615 0.17906 0.4945 0.0
H2206 H 0.82917 0.12995 0.60375 0.0
H2207 H 0.83428 0.10942 0.50682 0.0
H2208 H 0.8144 0.1842 0.58579 0.0
H2209 H 0.83196 0.12168 0.56893 0.0
H2210 H 0.83822 0.18282 0.52911 0.0
C2211 C 0.84216 0.16472 0.50458 0.0
C2212 C 0.84074 0.14389 0.49791 0.0
C2213 C 0.82771 0.13511 0.5727 0.0
C2214 C 0.83139 0.14783 0.53726 0.0
C2215 C 0.82578 0.13957 0.59253 0.0
C2216 C 0.82189 0.15799 0.59762 0.0
C2217 C 0.82599 0.14939 0.5581 0.0
C2218 C 0.81779 0.17006 0.58248 0.0
C2219 C 0.83735 0.16671 0.52423 0.0
C2220 C 0.83535 0.1257 0.51147 0.0
N2221 N 0.82043 0.16591 0.56345 0.0
N2222 N 0.8309 0.12809 0.53054 0.0
H2223 H 0.84196 0.66412 0.49754 0.0
H2224 H 0.8326 0.70402 0.60659 0.0
H2225 H 0.83432 0.72429 0.50982 0.0
H2226 H 0.83289 0.64014 0.59277 0.0
H2227 H 0.83054 0.71078 0.57127 0.0
H2228 H 0.83735 0.65444 0.53263 0.0
C2229 C 0.83948 0.67534 0.50772 0.0
C2230 C 0.83851 0.69497 0.50096 0.0
C2231 C 0.83057 0.69503 0.576 0.0
C2232 C 0.83317 0.68415 0.54094 0.0
C2233 C 0.83146 0.69109 0.5961 0.0
C2234 C 0.83279 0.67149 0.60236 0.0
C2235 C 0.83112 0.67925 0.56231 0.0
C2236 C 0.83186 0.65546 0.58835 0.0
C2237 C 0.83667 0.66978 0.52768 0.0
C2238 C 0.83503 0.70891 0.51459 0.0
N2239 N 0.83127 0.65978 0.56896 0.0
N2240 N 0.83259 0.70331 0.53398 0.0
loop_
_geom_bond_atom_site_label_1
_geom_bond_atom_site_label_2
_geom_bond_distance
_geom_bond_site_symmetry_2
_ccdc_geom_bond_type
C0 C1 1.391 . S
C0 C4 1.391 . S
C0 H42 0.948 . S
C1 C0 1.391 . S
C1 C2 1.391 . S
C2 C1 1.391 . S
C2 H58 0.947 . S
C2 C59 1.392 . S
C3 C4 1.391 . S
C3 C7 1.397 . S
C3 C59 1.419 . S
C4 C0 1.391 . S
C4 C3 1.391 . S
C4 C5 1.399 . S
C5 C4 1.399 . S
C5 C8 1.396 . S
C5 C17 1.453 . S
C5 C18 1.684 . S
H6 C30 0.948 . S
C7 C3 1.397 . S
C7 C8 1.394 . S
C7 C26 1.723 . S
C8 C5 1.396 . S
C8 C7 1.394 . S
C8 C38 1.723 . S
H9 C32 0.947 . S
H10 C33 0.948 . S
H11 C39 0.982 . S
H12 C40 0.979 . S
H13 C40 0.980 . S
H14 C40 0.983 . S
H15 C39 0.979 . S
H16 C39 0.977 . S
C17 C5 1.453 . S
C17 H46 0.982 . S
C17 H47 0.979 . S
C17 H48 0.977 . S
C18 C5 1.684 . S
C18 H43 0.979 . S
C18 H44 0.980 . S
C18 H45 0.983 . S
C19 C20 1.391 . S
C19 C24 1.391 . S
C19 H49 0.948 . S
C20 C19 1.391 . S
C20 C21 1.391 . S
C21 C20 1.391 . S
C21 C22 1.392 . S
C21 H50 0.947 . S
C22 C21 1.392 . S
C22 C23 1.419 . S
C22 H51 0.948 . S
C23 C22 1.419 . S
C23 C24 1.391 . S
C23 C27 1.397 . S
C24 C19 1.391 . S
C24 C23 1.391 . S
C24 C25 1.399 . S
C25 C24 1.399 . S
C25 C26 1.396 . S
C25 C28 1.453 . S
C25 C29 1.684 . S
C26 C7 1.723 . S
C26 C25 1.396 . S
C26 C27 1.394 . S
C27 C23 1.397 . S
C27 C26 1.394 . S
C27 C37 1.723 . S
C28 C25 1.453 . S
C28 H52 0.982 . S
C28 H53 0.979 . S
C28 H54 0.977 . S
C29 C25 1.684 . S
C29 H55 0.979 . S
C29 H56 0.980 . S
C29 H57 0.983 . S
C30 H6 0.948 . S
C30 C31 1.391 . S
C30 C35 1.391 . S
C31 C30 1.391 . S
C31 C32 1.391 . S
C32 H9 0.947 . S
C32 C31 1.391 . S
C32 C33 1.392 . S
C33 H10 0.948 . S
C33 C32 1.392 . S
C33 C34 1.419 . S
C34 C33 1.419 . S
C34 C35 1.391 . S
C34 C38 1.397 . S
C35 C30 1.391 . S
C35 C34 1.391 . S
C35 C36 1.399 . S
C36 C35 1.399 . S
C36 C37 1.396 . S
C36 C39 1.453 . S
C36 C40 1.684 . S
C37 C27 1.723 . S
C37 C36 1.396 . S
C37 C38 1.394 . S
C38 C8 1.723 . S
C38 C34 1.397 . S
C38 C37 1.394 . S
C39 H11 0.982 . S
C39 H15 0.979 . S
C39 H16 0.977 . S
C39 C36 1.453 . S
C40 H12 0.979 . S
C40 H13 0.980 . S
C40 H14 0.983 . S
C40 C36 1.684 . S
H41 C59 0.948 . S
H42 C0 0.948 . S
H43 C18 0.979 . S
H44 C18 0.980 . S
H45 C18 0.983 . S
H46 C17 0.982 . S
H47 C17 0.979 . S
H48 C17 0.977 . S
H49 C19 0.948 . S
H50 C21 0.947 . S
H51 C22 0.948 . S
H52 C28 0.982 . S
H53 C28 0.979 . S
H54 C28 0.977 . S
H55 C29 0.979 . S
H56 C29 0.980 . S
H57 C29 0.983 . S
H58 C2 0.947 . S
C59 C2 1.392 . S
C59 C3 1.419 . S
C59 H41 0.948 . S
C60 C61 1.391 . S
C60 C64 1.391 . S
C60 H102 0.948 . S
C61 C60 1.391 . S
C61 C62 1.391 . S
C62 C61 1.391 . S
C62 H118 0.947 . S
C62 C119 1.392 . S
C63 C64 1.391 . S
C63 C67 1.397 . S
C63 C119 1.419 . S
C64 C60 1.391 . S
C64 C63 1.391 . S
C64 C65 1.399 . S
C65 C64 1.399 . S
C65 C68 1.396 . S
C65 C77 1.453 . S
C65 C78 1.684 . S
H66 C90 0.948 . S
C67 C63 1.397 . S
C67 C68 1.394 . S
C67 C86 1.723 . S
C68 C65 1.396 . S
C68 C67 1.394 . S
C68 C98 1.723 . S
H69 C92 0.947 . S
H70 C93 0.948 . S
H71 C99 0.982 . S
H72 C100 0.979 . S
H73 C100 0.980 . S
H74 C100 0.983 . S
H75 C99 0.979 . S
H76 C99 0.977 . S
C77 C65 1.453 . S
C77 H106 0.982 . S
C77 H107 0.979 . S
C77 H108 0.977 . S
C78 C65 1.684 . S
C78 H103 0.979 . S
C78 H104 0.980 . S
C78 H105 0.983 . S
C79 C80 1.391 . S
C79 C84 1.391 . S
C79 H109 0.948 . S
C80 C79 1.391 . S
C80 C81 1.391 . S
C81 C80 1.391 . S
C81 C82 1.392 . S
C81 H110 0.947 . S
C82 C81 1.392 . S
C82 C83 1.419 . S
C82 H111 0.948 . S
C83 C82 1.419 . S
C83 C84 1.391 . S
C83 C87 1.397 . S
C84 C79 1.391 . S
C84 C83 1.391 . S
C84 C85 1.399 . S
C85 C84 1.399 . S
C85 C86 1.396 . S
C85 C88 1.453 . S
C85 C89 1.684 . S
C86 C67 1.723 . S
C86 C85 1.396 . S
C86 C87 1.394 . S
C87 C83 1.397 . S
C87 C86 1.394 . S
C87 C97 1.723 . S
C88 C85 1.453 . S
C88 H112 0.982 . S
C88 H113 0.979 . S
C88 H114 0.977 . S
C89 C85 1.684 . S
C89 H115 0.979 . S
C89 H116 0.980 . S
C89 H117 0.983 . S
C90 H66 0.948 . S
C90 C91 1.391 . S
C90 C95 1.391 . S
C91 C90 1.391 . S
C91 C92 1.391 . S
C92 H69 0.947 . S
C92 C91 1.391 . S
C92 C93 1.392 . S
C93 H70 0.948 . S
C93 C92 1.392 . S
C93 C94 1.419 . S
C94 C93 1.419 . S
C94 C95 1.391 . S
C94 C98 1.397 . S
C95 C90 1.391 . S
C95 C94 1.391 . S
C95 C96 1.399 . S
C96 C95 1.399 . S
C96 C97 1.396 . S
C96 C99 1.453 . S
C96 C100 1.684 . S
C97 C87 1.723 . S
C97 C96 1.396 . S
C97 C98 1.394 . S
C98 C68 1.723 . S
C98 C94 1.397 . S
C98 C97 1.394 . S
C99 H71 0.982 . S
C99 H75 0.979 . S
C99 H76 0.977 . S
C99 C96 1.453 . S
C100 H72 0.979 . S
C100 H73 0.980 . S
C100 H74 0.983 . S
C100 C96 1.684 . S
H101 C119 0.948 . S
H102 C60 0.948 . S
H103 C78 0.979 . S
H104 C78 0.980 . S
H105 C78 0.983 . S
H106 C77 0.982 . S
H107 C77 0.979 . S
H108 C77 0.977 . S
H109 C79 0.948 . S
H110 C81 0.947 . S
H111 C82 0.948 . S
H112 C88 0.982 . S
H113 C88 0.979 . S
H114 C88 0.977 . S
H115 C89 0.979 . S
H116 C89 0.980 . S
H117 C89 0.983 . S
H118 C62 0.947 . S
C119 C62 1.392 . S
C119 C63 1.419 . S
C119 H101 0.948 . S
C120 C121 1.391 . S
C120 C124 1.391 . S
C120 H162 0.948 . S
C121 C120 1.391 . S
C121 C122 1.391 . S
C122 C121 1.391 . S
C122 H178 0.947 . S
C122 C179 1.392 . S
C123 C124 1.391 . S
C123 C127 1.397 . S
C123 C179 1.419 . S
C124 C120 1.391 . S
C124 C123 1.391 . S
C124 C125 1.399 . S
C125 C124 1.399 . S
C125 C128 1.396 . S
C125 C137 1.453 . S
C125 C138 1.684 . S
H126 C150 0.948 . S
C127 C123 1.397 . S
C127 C128 1.394 . S
C127 C146 1.723 . S
C128 C125 1.396 . S
C128 C127 1.394 . S
C128 C158 1.723 . S
H129 C152 0.947 . S
H130 C153 0.948 . S
H131 C159 0.982 . S
H132 C160 0.979 . S
H133 C160 0.980 . S
H134 C160 0.983 . S
H135 C159 0.979 . S
H136 C159 0.977 . S
C137 C125 1.453 . S
C137 H166 0.982 . S
C137 H167 0.979 . S
C137 H168 0.977 . S
C138 C125 1.684 . S
C138 H163 0.979 . S
C138 H164 0.980 . S
C138 H165 0.983 . S
C139 C140 1.391 . S
C139 C144 1.391 . S
C139 H169 0.948 . S
C140 C139 1.391 . S
C140 C141 1.391 . S
C141 C140 1.391 . S
C141 C142 1.392 . S
C141 H170 0.947 . S
C142 C141 1.392 . S
C142 C143 1.419 . S
C142 H171 0.948 . S
C143 C142 1.419 . S
C143 C144 1.391 . S
C143 C147 1.397 . S
C144 C139 1.391 . S
C144 C143 1.391 . S
C144 C145 1.399 . S
C145 C144 1.399 . S
C145 C146 1.396 . S
C145 C148 1.453 . S
C145 C149 1.684 . S
C146 C127 1.723 . S
C146 C145 1.396 . S
C146 C147 1.394 . S
C147 C143 1.397 . S
C147 C146 1.394 . S
C147 C157 1.723 . S
C148 C145 1.453 . S
C148 H172 0.982 . S
C148 H173 0.979 . S
C148 H174 0.977 . S
C149 C145 1.684 . S
C149 H175 0.979 . S
C149 H176 0.980 . S
C149 H177 0.983 . S
C150 H126 0.948 . S
C150 C151 1.391 . S
C150 C155 1.391 . S
C151 C150 1.391 . S
C151 C152 1.391 . S
C152 H129 0.947 . S
C152 C151 1.391 . S
C152 C153 1.392 . S
C153 H130 0.948 . S
C153 C152 1.392 . S
C153 C154 1.419 . S
C154 C153 1.419 . S
C154 C155 1.391 . S
C154 C158 1.397 . S
C155 C150 1.391 . S
C155 C154 1.391 . S
C155 C156 1.399 . S
C156 C155 1.399 . S
C156 C157 1.396 . S
C156 C159 1.453 . S
C156 C160 1.684 . S
C157 C147 1.723 . S
C157 C156 1.396 . S
C157 C158 1.394 . S
C158 C128 1.723 . S
C158 C154 1.397 . S
C158 C157 1.394 . S
C159 H131 0.982 . S
C159 H135 0.979 . S
C159 H136 0.977 . S
C159 C156 1.453 . S
C160 H132 0.979 . S
C160 H133 0.980 . S
C160 H134 0.983 . S
C160 C156 1.684 . S
H161 C179 0.948 . S
H162 C120 0.948 . S
H163 C138 0.979 . S
H164 C138 0.980 . S
H165 C138 0.983 . S
H166 C137 0.982 . S
H167 C137 0.979 . S
H168 C137 0.977 . S
H169 C139 0.948 . S
H170 C141 0.947 . S
H171 C142 0.948 . S
H172 C148 0.982 . S
H173 C148 0.979 . S
H174 C148 0.977 . S
H175 C149 0.979 . S
H176 C149 0.980 . S
H177 C149 0.983 . S
H178 C122 0.947 . S
C179 C122 1.392 . S
C179 C123 1.419 . S
C179 H161 0.948 . S
C180 C181 1.391 . S
C180 C184 1.391 . S
C180 H222 0.948 . S
C181 C180 1.391 . S
C181 C182 1.391 . S
C182 C181 1.391 . S
C182 H238 0.947 . S
C182 C239 1.392 . S
C183 C184 1.391 . S
C183 C187 1.397 . S
C183 C239 1.419 . S
C184 C180 1.391 . S
C184 C183 1.391 . S
C184 C185 1.399 . S
C185 C184 1.399 . S
C185 C188 1.396 . S
C185 C197 1.453 . S
C185 C198 1.684 . S
H186 C210 0.948 . S
C187 C183 1.397 . S
C187 C188 1.394 . S
C187 C206 1.723 . S
C188 C185 1.396 . S
C188 C187 1.394 . S
C188 C218 1.723 . S
H189 C212 0.947 . S
H190 C213 0.948 . S
H191 C219 0.982 . S
H192 C220 0.979 . S
H193 C220 0.980 . S
H194 C220 0.983 . S
H195 C219 0.979 . S
H196 C219 0.977 . S
C197 C185 1.453 . S
C197 H226 0.982 . S
C197 H227 0.979 . S
C197 H228 0.977 . S
C198 C185 1.684 . S
C198 H223 0.979 . S
C198 H224 0.980 . S
C198 H225 0.983 . S
C199 C200 1.391 . S
C199 C204 1.391 . S
C199 H229 0.948 . S
C200 C199 1.391 . S
C200 C201 1.391 . S
C201 C200 1.391 . S
C201 C202 1.392 . S
C201 H230 0.947 . S
C202 C201 1.392 . S
C202 C203 1.419 . S
C202 H231 0.948 . S
C203 C202 1.419 . S
C203 C204 1.391 . S
C203 C207 1.397 . S
C204 C199 1.391 . S
C204 C203 1.391 . S
C204 C205 1.399 . S
C205 C204 1.399 . S
C205 C206 1.396 . S
C205 C208 1.453 . S
C205 C209 1.684 . S
C206 C187 1.723 . S
C206 C205 1.396 . S
C206 C207 1.394 . S
C207 C203 1.397 . S
C207 C206 1.394 . S
C207 C217 1.723 . S
C208 C205 1.453 . S
C208 H232 0.982 . S
C208 H233 0.979 . S
C208 H234 0.977 . S
C209 C205 1.684 . S
C209 H235 0.979 . S
C209 H236 0.980 . S
C209 H237 0.983 . S
C210 H186 0.948 . S
C210 C211 1.391 . S
C210 C215 1.391 . S
C211 C210 1.391 . S
C211 C212 1.391 . S
C212 H189 0.947 . S
C212 C211 1.391 . S
C212 C213 1.392 . S
C213 H190 0.948 . S
C213 C212 1.392 . S
C213 C214 1.419 . S
C214 C213 1.419 . S
C214 C215 1.391 . S
C214 C218 1.397 . S
C215 C210 1.391 . S
C215 C214 1.391 . S
C215 C216 1.399 . S
C216 C215 1.399 . S
C216 C217 1.396 . S
C216 C219 1.453 . S
C216 C220 1.684 . S
C217 C207 1.723 . S
C217 C216 1.396 . S
C217 C218 1.394 . S
C218 C188 1.723 . S
C218 C214 1.397 . S
C218 C217 1.394 . S
C219 H191 0.982 . S
C219 H195 0.979 . S
C219 H196 0.977 . S
C219 C216 1.453 . S
C220 H192 0.979 . S
C220 H193 0.980 . S
C220 H194 0.983 . S
C220 C216 1.684 . S
H221 C239 0.948 . S
H222 C180 0.948 . S
H223 C198 0.979 . S
H224 C198 0.980 . S
H225 C198 0.983 . S
H226 C197 0.982 . S
H227 C197 0.979 . S
H228 C197 0.977 . S
H229 C199 0.948 . S
H230 C201 0.947 . S
H231 C202 0.948 . S
H232 C208 0.982 . S
H233 C208 0.979 . S
H234 C208 0.977 . S
H235 C209 0.979 . S
H236 C209 0.980 . S
H237 C209 0.983 . S
H238 C182 0.947 . S
C239 C182 1.392 . S
C239 C183 1.419 . S
C239 H221 0.948 . S
C240 C241 1.391 . S
C240 C244 1.391 . S
C240 H282 0.948 . S
C241 C240 1.391 . S
C241 C242 1.391 . S
C242 C241 1.391 . S
C242 H298 0.947 . S
C242 C299 1.392 . S
C243 C244 1.391 . S
C243 C247 1.397 . S
C243 C299 1.419 . S
C244 C240 1.391 . S
C244 C243 1.391 . S
C244 C245 1.399 . S
C245 C244 1.399 . S
C245 C248 1.396 . S
C245 C257 1.453 . S
C245 C258 1.684 . S
H246 C270 0.948 . S
C247 C243 1.397 . S
C247 C248 1.394 . S
C247 C266 1.723 . S
C248 C245 1.396 . S
C248 C247 1.394 . S
C248 C278 1.723 . S
H249 C272 0.947 . S
H250 C273 0.948 . S
H251 C279 0.982 . S
H252 C280 0.979 . S
H253 C280 0.980 . S
H254 C280 0.983 . S
H255 C279 0.979 . S
H256 C279 0.977 . S
C257 C245 1.453 . S
C257 H286 0.982 . S
C257 H287 0.979 . S
C257 H288 0.977 . S
C258 C245 1.684 . S
C258 H283 0.979 . S
C258 H284 0.980 . S
C258 H285 0.983 . S
C259 C260 1.391 . S
C259 C264 1.391 . S
C259 H289 0.948 . S
C260 C259 1.391 . S
C260 C261 1.391 . S
C261 C260 1.391 . S
C261 C262 1.392 . S
C261 H290 0.947 . S
C262 C261 1.392 . S
C262 C263 1.419 . S
C262 H291 0.948 . S
C263 C262 1.419 . S
C263 C264 1.391 . S
C263 C267 1.397 . S
C264 C259 1.391 . S
C264 C263 1.391 . S
C264 C265 1.399 . S
C265 C264 1.399 . S
C265 C266 1.396 . S
C265 C268 1.453 . S
C265 C269 1.684 . S
C266 C247 1.723 . S
C266 C265 1.396 . S
C266 C267 1.394 . S
C267 C263 1.397 . S
C267 C266 1.394 . S
C267 C277 1.723 . S
C268 C265 1.453 . S
C268 H292 0.982 . S
C268 H293 0.979 . S
C268 H294 0.977 . S
C269 C265 1.684 . S
C269 H295 0.979 . S
C269 H296 0.980 . S
C269 H297 0.983 . S
C270 H246 0.948 . S
C270 C271 1.391 . S
C270 C275 1.391 . S
C271 C270 1.391 . S
C271 C272 1.391 . S
C272 H249 0.947 . S
C272 C271 1.391 . S
C272 C273 1.392 . S
C273 H250 0.948 . S
C273 C272 1.392 . S
C273 C274 1.419 . S
C274 C273 1.419 . S
C274 C275 1.391 . S
C274 C278 1.397 . S
C275 C270 1.391 . S
C275 C274 1.391 . S
C275 C276 1.399 . S
C276 C275 1.399 . S
C276 C277 1.396 . S
C276 C279 1.453 . S
C276 C280 1.684 . S
C277 C267 1.723 . S
C277 C276 1.396 . S
C277 C278 1.394 . S
C278 C248 1.723 . S
C278 C274 1.397 . S
C278 C277 1.394 . S
C279 H251 0.982 . S
C279 H255 0.979 . S
C279 H256 0.977 . S
C279 C276 1.453 . S
C280 H252 0.979 . S
C280 H253 0.980 . S
C280 H254 0.983 . S
C280 C276 1.684 . S
H281 C299 0.948 . S
H282 C240 0.948 . S
H283 C258 0.979 . S
H284 C258 0.980 . S
H285 C258 0.983 . S
H286 C257 0.982 . S
H287 C257 0.979 . S
H288 C257 0.977 . S
H289 C259 0.948 . S
H290 C261 0.947 . S
H291 C262 0.948 . S
H292 C268 0.982 . S
H293 C268 0.979 . S
H294 C268 0.977 . S
H295 C269 0.979 . S
H296 C269 0.980 . S
H297 C269 0.983 . S
H298 C242 0.947 . S
C299 C242 1.392 . S
C299 C243 1.419 . S
C299 H281 0.948 . S
C300 C301 1.391 . S
C300 C304 1.391 . S
C300 H342 0.948 . S
C301 C300 1.391 . S
C301 C302 1.391 . S
C302 C301 1.391 . S
C302 H358 0.947 . S
C302 C359 1.392 . S
C303 C304 1.391 . S
C303 C307 1.397 . S
C303 C359 1.419 . S
C304 C300 1.391 . S
C304 C303 1.391 . S
C304 C305 1.399 . S
C305 C304 1.399 . S
C305 C308 1.396 . S
C305 C317 1.453 . S
C305 C318 1.684 . S
H306 C330 0.948 . S
C307 C303 1.397 . S
C307 C308 1.394 . S
C307 C326 1.723 . S
C308 C305 1.396 . S
C308 C307 1.394 . S
C308 C338 1.723 . S
H309 C332 0.947 . S
H310 C333 0.948 . S
H311 C339 0.982 . S
H312 C340 0.979 . S
H313 C340 0.980 . S
H314 C340 0.983 . S
H315 C339 0.979 . S
H316 C339 0.977 . S
C317 C305 1.453 . S
C317 H346 0.982 . S
C317 H347 0.979 . S
C317 H348 0.977 . S
C318 C305 1.684 . S
C318 H343 0.979 . S
C318 H344 0.980 . S
C318 H345 0.983 . S
C319 C320 1.391 . S
C319 C324 1.391 . S
C319 H349 0.948 . S
C320 C319 1.391 . S
C320 C321 1.391 . S
C321 C320 1.391 . S
C321 C322 1.392 . S
C321 H350 0.947 . S
C322 C321 1.392 . S
C322 C323 1.419 . S
C322 H351 0.948 . S
C323 C322 1.419 . S
C323 C324 1.391 . S
C323 C327 1.397 . S
C324 C319 1.391 . S
C324 C323 1.391 . S
C324 C325 1.399 . S
C325 C324 1.399 . S
C325 C326 1.396 . S
C325 C328 1.453 . S
C325 C329 1.684 . S
C326 C307 1.723 . S
C326 C325 1.396 . S
C326 C327 1.394 . S
C327 C323 1.397 . S
C327 C326 1.394 . S
C327 C337 1.723 . S
C328 C325 1.453 . S
C328 H352 0.982 . S
C328 H353 0.979 . S
C328 H354 0.977 . S
C329 C325 1.684 . S
C329 H355 0.979 . S
C329 H356 0.980 . S
C329 H357 0.983 . S
C330 H306 0.948 . S
C330 C331 1.391 . S
C330 C335 1.391 . S
C331 C330 1.391 . S
C331 C332 1.391 . S
C332 H309 0.947 . S
C332 C331 1.391 . S
C332 C333 1.392 . S
C333 H310 0.948 . S
C333 C332 1.392 . S
C333 C334 1.419 . S
C334 C333 1.419 . S
C334 C335 1.391 . S
C334 C338 1.397 . S
C335 C330 1.391 . S
C335 C334 1.391 . S
C335 C336 1.399 . S
C336 C335 1.399 . S
C336 C337 1.396 . S
C336 C339 1.453 . S
C336 C340 1.684 . S
C337 C327 1.723 . S
C337 C336 1.396 . S
C337 C338 1.394 . S
C338 C308 1.723 . S
C338 C334 1.397 . S
C338 C337 1.394 . S
C339 H311 0.982 . S
C339 H315 0.979 . S
C339 H316 0.977 . S
C339 C336 1.453 . S
C340 H312 0.979 . S
C340 H313 0.980 . S
C340 H314 0.983 . S
C340 C336 1.684 . S
H341 C359 0.948 . S
H342 C300 0.948 . S
H343 C318 0.979 . S
H344 C318 0.980 . S
H345 C318 0.983 . S
H346 C317 0.982 . S
H347 C317 0.979 . S
H348 C317 0.977 . S
H349 C319 0.948 . S
H350 C321 0.947 . S
H351 C322 0.948 . S
H352 C328 0.982 . S
H353 C328 0.979 . S
H354 C328 0.977 . S
H355 C329 0.979 . S
H356 C329 0.980 . S
H357 C329 0.983 . S
H358 C302 0.947 . S
C359 C302 1.392 . S
C359 C303 1.419 . S
C359 H341 0.948 . S
C360 C361 1.391 . S
C360 C364 1.391 . S
C360 H402 0.948 . S
C361 C360 1.391 . S
C361 C362 1.391 . S
C362 C361 1.391 . S
C362 H418 0.947 . S
C362 C419 1.392 . S
C363 C364 1.391 . S
C363 C367 1.397 . S
C363 C419 1.419 . S
C364 C360 1.391 . S
C364 C363 1.391 . S
C364 C365 1.399 . S
C365 C364 1.399 . S
C365 C368 1.396 . S
C365 C377 1.453 . S
C365 C378 1.684 . S
H366 C390 0.948 . S
C367 C363 1.397 . S
C367 C368 1.394 . S
C367 C386 1.723 . S
C368 C365 1.396 . S
C368 C367 1.394 . S
C368 C398 1.723 . S
H369 C392 0.947 . S
H370 C393 0.948 . S
H371 C399 0.982 . S
H372 C400 0.979 . S
H373 C400 0.980 . S
H374 C400 0.983 . S
H375 C399 0.979 . S
H376 C399 0.977 . S
C377 C365 1.453 . S
C377 H406 0.982 . S
C377 H407 0.979 . S
C377 H408 0.977 . S
C378 C365 1.684 . S
C378 H403 0.979 . S
C378 H404 0.980 . S
C378 H405 0.983 . S
C379 C380 1.391 . S
C379 C384 1.391 . S
C379 H409 0.948 . S
C380 C379 1.391 . S
C380 C381 1.391 . S
C381 C380 1.391 . S
C381 C382 1.392 . S
C381 H410 0.947 . S
C382 C381 1.392 . S
C382 C383 1.419 . S
C382 H411 0.948 . S
C383 C382 1.419 . S
C383 C384 1.391 . S
C383 C387 1.397 . S
C384 C379 1.391 . S
C384 C383 1.391 . S
C384 C385 1.399 . S
C385 C384 1.399 . S
C385 C386 1.396 . S
C385 C388 1.453 . S
C385 C389 1.684 . S
C386 C367 1.723 . S
C386 C385 1.396 . S
C386 C387 1.394 . S
C387 C383 1.397 . S
C387 C386 1.394 . S
C387 C397 1.723 . S
C388 C385 1.453 . S
C388 H412 0.982 . S
C388 H413 0.979 . S
C388 H414 0.977 . S
C389 C385 1.684 . S
C389 H415 0.979 . S
C389 H416 0.980 . S
C389 H417 0.983 . S
C390 H366 0.948 . S
C390 C391 1.391 . S
C390 C395 1.391 . S
C391 C390 1.391 . S
C391 C392 1.391 . S
C392 H369 0.947 . S
C392 C391 1.391 . S
C392 C393 1.392 . S
C393 H370 0.948 . S
C393 C392 1.392 . S
C393 C394 1.419 . S
C394 C393 1.419 . S
C394 C395 1.391 . S
C394 C398 1.397 . S
C395 C390 1.391 . S
C395 C394 1.391 . S
C395 C396 1.399 . S
C396 C395 1.399 . S
C396 C397 1.396 . S
C396 C399 1.453 . S
C396 C400 1.684 . S
C397 C387 1.723 . S
C397 C396 1.396 . S
C397 C398 1.394 . S
C398 C368 1.723 . S
C398 C394 1.397 . S
C398 C397 1.394 . S
C399 H371 0.982 . S
C399 H375 0.979 . S
C399 H376 0.977 . S
C399 C396 1.453 . S
C400 H372 0.979 . S
C400 H373 0.980 . S
C400 H374 0.983 . S
C400 C396 1.684 . S
H401 C419 0.948 . S
H402 C360 0.948 . S
H403 C378 0.979 . S
H404 C378 0.980 . S
H405 C378 0.983 . S
H406 C377 0.982 . S
H407 C377 0.979 . S
H408 C377 0.977 . S
H409 C379 0.948 . S
H410 C381 0.947 . S
H411 C382 0.948 . S
H412 C388 0.982 . S
H413 C388 0.979 . S
H414 C388 0.977 . S
H415 C389 0.979 . S
H416 C389 0.980 . S
H417 C389 0.983 . S
H418 C362 0.947 . S
C419 C362 1.392 . S
C419 C363 1.419 . S
C419 H401 0.948 . S
C420 C421 1.391 . S
C420 C424 1.391 . S
C420 H462 0.948 . S
C421 C420 1.391 . S
C421 C422 1.391 . S
C422 C421 1.391 . S
C422 H478 0.947 . S
C422 C479 1.392 . S
C423 C424 1.391 . S
C423 C427 1.397 . S
C423 C479 1.419 . S
C424 C420 1.391 . S
C424 C423 1.391 . S
C424 C425 1.399 . S
C425 C424 1.399 . S
C425 C428 1.396 . S
C425 C437 1.453 . S
C425 C438 1.684 . S
H426 C450 0.948 . S
C427 C423 1.397 . S
C427 C428 1.394 . S
C427 C446 1.723 . S
C428 C425 1.396 . S
C428 C427 1.394 . S
C428 C458 1.723 . S
H429 C452 0.947 . S
H430 C453 0.948 . S
H431 C459 0.982 . S
H432 C460 0.979 . S
H433 C460 0.980 . S
H434 C460 0.983 . S
H435 C459 0.979 . S
H436 C459 0.977 . S
C437 C425 1.453 . S
C437 H466 0.982 . S
C437 H467 0.979 . S
C437 H468 0.977 . S
C438 C425 1.684 . S
C438 H463 0.979 . S
C438 H464 0.980 . S
C438 H465 0.983 . S
C439 C440 1.391 . S
C439 C444 1.391 . S
C439 H469 0.948 . S
C440 C439 1.391 . S
C440 C441 1.391 . S
C441 C440 1.391 . S
C441 C442 1.392 . S
C441 H470 0.947 . S
C442 C441 1.392 . S
C442 C443 1.419 . S
C442 H471 0.948 . S
C443 C442 1.419 . S
C443 C444 1.391 . S
C443 C447 1.397 . S
C444 C439 1.391 . S
C444 C443 1.391 . S
C444 C445 1.399 . S
C445 C444 1.399 . S
C445 C446 1.396 . S
C445 C448 1.453 . S
C445 C449 1.684 . S
C446 C427 1.723 . S
C446 C445 1.396 . S
C446 C447 1.394 . S
C447 C443 1.397 . S
C447 C446 1.394 . S
C447 C457 1.723 . S
C448 C445 1.453 . S
C448 H472 0.982 . S
C448 H473 0.979 . S
C448 H474 0.977 . S
C449 C445 1.684 . S
C449 H475 0.979 . S
C449 H476 0.980 . S
C449 H477 0.983 . S
C450 H426 0.948 . S
C450 C451 1.391 . S
C450 C455 1.391 . S
C451 C450 1.391 . S
C451 C452 1.391 . S
C452 H429 0.947 . S
C452 C451 1.391 . S
C452 C453 1.392 . S
C453 H430 0.948 . S
C453 C452 1.392 . S
C453 C454 1.419 . S
C454 C453 1.419 . S
C454 C455 1.391 . S
C454 C458 1.397 . S
C455 C450 1.391 . S
C455 C454 1.391 . S
C455 C456 1.399 . S
C456 C455 1.399 . S
C456 C457 1.396 . S
C456 C459 1.453 . S
C456 C460 1.684 . S
C457 C447 1.723 . S
C457 C456 1.396 . S
C457 C458 1.394 . S
C458 C428 1.723 . S
C458 C454 1.397 . S
C458 C457 1.394 . S
C459 H431 0.982 . S
C459 H435 0.979 . S
C459 H436 0.977 . S
C459 C456 1.453 . S
C460 H432 0.979 . S
C460 H433 0.980 . S
C460 H434 0.983 . S
C460 C456 1.684 . S
H461 C479 0.948 . S
H462 C420 0.948 . S
H463 C438 0.979 . S
H464 C438 0.980 . S
H465 C438 0.983 . S
H466 C437 0.982 . S
H467 C437 0.979 . S
H468 C437 0.977 . S
H469 C439 0.948 . S
H470 C441 0.947 . S
H471 C442 0.948 . S
H472 C448 0.982 . S
H473 C448 0.979 . S
H474 C448 0.977 . S
H475 C449 0.979 . S
H476 C449 0.980 . S
H477 C449 0.983 . S
H478 C422 0.947 . S
C479 C422 1.392 . S
C479 C423 1.419 . S
C479 H461 0.948 . S
C480 C481 1.391 . S
C480 C484 1.391 . S
C480 H522 0.948 . S
C481 C480 1.391 . S
C481 C482 1.391 . S
C482 C481 1.391 . S
C482 H538 0.947 . S
C482 C539 1.392 . S
C483 C484 1.391 . S
C483 C487 1.397 . S
C483 C539 1.419 . S
C484 C480 1.391 . S
C484 C483 1.391 . S
C484 C485 1.399 . S
C485 C484 1.399 . S
C485 C488 1.396 . S
C485 C497 1.453 . S
C485 C498 1.684 . S
H486 C510 0.948 . S
C487 C483 1.397 . S
C487 C488 1.394 . S
C487 C506 1.723 . S
C488 C485 1.396 . S
C488 C487 1.394 . S
C488 C518 1.723 . S
H489 C512 0.947 . S
H490 C513 0.948 . S
H491 C519 0.982 . S
H492 C520 0.979 . S
H493 C520 0.980 . S
H494 C520 0.983 . S
H495 C519 0.979 . S
H496 C519 0.977 . S
C497 C485 1.453 . S
C497 H526 0.982 . S
C497 H527 0.979 . S
C497 H528 0.977 . S
C498 C485 1.684 . S
C498 H523 0.979 . S
C498 H524 0.980 . S
C498 H525 0.983 . S
C499 C500 1.391 . S
C499 C504 1.391 . S
C499 H529 0.948 . S
C500 C499 1.391 . S
C500 C501 1.391 . S
C501 C500 1.391 . S
C501 C502 1.392 . S
C501 H530 0.947 . S
C502 C501 1.392 . S
C502 C503 1.419 . S
C502 H531 0.948 . S
C503 C502 1.419 . S
C503 C504 1.391 . S
C503 C507 1.397 . S
C504 C499 1.391 . S
C504 C503 1.391 . S
C504 C505 1.399 . S
C505 C504 1.399 . S
C505 C506 1.396 . S
C505 C508 1.453 . S
C505 C509 1.684 . S
C506 C487 1.723 . S
C506 C505 1.396 . S
C506 C507 1.394 . S
C507 C503 1.397 . S
C507 C506 1.394 . S
C507 C517 1.723 . S
C508 C505 1.453 . S
C508 H532 0.982 . S
C508 H533 0.979 . S
C508 H534 0.977 . S
C509 C505 1.684 . S
C509 H535 0.979 . S
C509 H536 0.980 . S
C509 H537 0.983 . S
C510 H486 0.948 . S
C510 C511 1.391 . S
C510 C515 1.391 . S
C511 C510 1.391 . S
C511 C512 1.391 . S
C512 H489 0.947 . S
C512 C511 1.391 . S
C512 C513 1.392 . S
C513 H490 0.948 . S
C513 C512 1.392 . S
C513 C514 1.419 . S
C514 C513 1.419 . S
C514 C515 1.391 . S
C514 C518 1.397 . S
C515 C510 1.391 . S
C515 C514 1.391 . S
C515 C516 1.399 . S
C516 C515 1.399 . S
C516 C517 1.396 . S
C516 C519 1.453 . S
C516 C520 1.684 . S
C517 C507 1.723 . S
C517 C516 1.396 . S
C517 C518 1.394 . S
C518 C488 1.723 . S
C518 C514 1.397 . S
C518 C517 1.394 . S
C519 H491 0.982 . S
C519 H495 0.979 . S
C519 H496 0.977 . S
C519 C516 1.453 . S
C520 H492 0.979 . S
C520 H493 0.980 . S
C520 H494 0.983 . S
C520 C516 1.684 . S
H521 C539 0.948 . S
H522 C480 0.948 . S
H523 C498 0.979 . S
H524 C498 0.980 . S
H525 C498 0.983 . S
H526 C497 0.982 . S
H527 C497 0.979 . S
H528 C497 0.977 . S
H529 C499 0.948 . S
H530 C501 0.947 . S
H531 C502 0.948 . S
H532 C508 0.982 . S
H533 C508 0.979 . S
H534 C508 0.977 . S
H535 C509 0.979 . S
H536 C509 0.980 . S
H537 C509 0.983 . S
H538 C482 0.947 . S
C539 C482 1.392 . S
C539 C483 1.419 . S
C539 H521 0.948 . S
C540 C541 1.391 . S
C540 C544 1.391 . S
C540 H582 0.948 . S
C541 C540 1.391 . S
C541 C542 1.391 . S
C542 C541 1.391 . S
C542 H598 0.947 . S
C542 C599 1.392 . S
C543 C544 1.391 . S
C543 C547 1.397 . S
C543 C599 1.419 . S
C544 C540 1.391 . S
C544 C543 1.391 . S
C544 C545 1.399 . S
C545 C544 1.399 . S
C545 C548 1.396 . S
C545 C557 1.453 . S
C545 C558 1.684 . S
H546 C570 0.948 . S
C547 C543 1.397 . S
C547 C548 1.394 . S
C547 C566 1.723 . S
C548 C545 1.396 . S
C548 C547 1.394 . S
C548 C578 1.723 . S
H549 C572 0.947 . S
H550 C573 0.948 . S
H551 C579 0.982 . S
H552 C580 0.979 . S
H553 C580 0.980 . S
H554 C580 0.983 . S
H555 C579 0.979 . S
H556 C579 0.977 . S
C557 C545 1.453 . S
C557 H586 0.982 . S
C557 H587 1.027 . S
C557 H588 0.977 . S
C558 C545 1.684 . S
C558 H583 0.979 . S
C558 H584 0.980 . S
C558 H585 0.983 . S
C559 C560 1.391 . S
C559 C564 1.391 . S
C559 H589 0.948 . S
C560 C559 1.391 . S
C560 C561 1.391 . S
C561 C560 1.391 . S
C561 C562 1.392 . S
C561 H590 0.947 . S
C562 C561 1.392 . S
C562 C563 1.419 . S
C562 H591 0.948 . S
C563 C562 1.419 . S
C563 C564 1.391 . S
C563 C567 1.397 . S
C564 C559 1.391 . S
C564 C563 1.391 . S
C564 C565 1.399 . S
C565 C564 1.399 . S
C565 C566 1.396 . S
C565 C568 1.453 . S
C565 C569 1.684 . S
C566 C547 1.723 . S
C566 C565 1.396 . S
C566 C567 1.394 . S
C567 C563 1.397 . S
C567 C566 1.394 . S
C567 C577 1.723 . S
C568 C565 1.453 . S
C568 H592 0.982 . S
C568 H593 0.979 . S
C568 H594 0.977 . S
C569 C565 1.684 . S
C569 H595 0.979 . S
C569 H596 0.980 . S
C569 H597 0.983 . S
C570 H546 0.948 . S
C570 C571 1.391 . S
C570 C575 1.391 . S
C571 C570 1.391 . S
C571 C572 1.391 . S
C572 H549 0.947 . S
C572 C571 1.391 . S
C572 C573 1.392 . S
C573 H550 0.948 . S
C573 C572 1.392 . S
C573 C574 1.419 . S
C574 C573 1.419 . S
C574 C575 1.391 . S
C574 C578 1.397 . S
C575 C570 1.391 . S
C575 C574 1.391 . S
C575 C576 1.399 . S
C576 C575 1.399 . S
C576 C577 1.396 . S
C576 C579 1.453 . S
C576 C580 1.684 . S
C577 C567 1.723 . S
C577 C576 1.396 . S
C577 C578 1.394 . S
C578 C548 1.723 . S
C578 C574 1.397 . S
C578 C577 1.394 . S
C579 H551 0.982 . S
C579 H555 0.979 . S
C579 H556 0.977 . S
C579 C576 1.453 . S
C580 H552 0.979 . S
C580 H553 0.980 . S
C580 H554 0.983 . S
C580 C576 1.684 . S
H581 C599 0.948 . S
H582 C540 0.948 . S
H583 C558 0.979 . S
H584 C558 0.980 . S
H585 C558 0.983 . S
H586 C557 0.982 . S
H587 C557 1.027 . S
H588 C557 0.977 . S
H589 C559 0.948 . S
H590 C561 0.947 . S
H591 C562 0.948 . S
H592 C568 0.982 . S
H593 C568 0.979 . S
H594 C568 0.977 . S
H595 C569 0.979 . S
H596 C569 0.980 . S
H597 C569 0.983 . S
H598 C542 0.947 . S
C599 C542 1.392 . S
C599 C543 1.419 . S
C599 H581 0.948 . S
C600 C601 1.391 . S
C600 C604 1.391 . S
C600 H642 0.948 . S
C601 C600 1.391 . S
C601 C602 1.391 . S
C602 C601 1.391 . S
C602 H658 0.947 . S
C602 C659 1.392 . S
C603 C604 1.391 . S
C603 C607 1.397 . S
C603 C659 1.419 . S
C604 C600 1.391 . S
C604 C603 1.391 . S
C604 C605 1.399 . S
C605 C604 1.399 . S
C605 C608 1.396 . S
C605 C617 1.453 . S
C605 C618 1.684 . S
H606 C630 0.948 . S
C607 C603 1.397 . S
C607 C608 1.394 . S
C607 C626 1.723 . S
C608 C605 1.396 . S
C608 C607 1.394 . S
C608 C638 1.723 . S
H609 C632 0.928 1_554 S
H610 C633 0.948 . S
H611 C639 0.982 . S
H612 C640 0.979 . S
H613 C640 0.980 . S
H614 C640 0.983 . S
H615 C639 0.979 . S
H616 C639 0.977 . S
C617 C605 1.453 . S
C617 H646 0.982 . S
C617 H647 0.979 . S
C617 H648 0.977 . S
C618 C605 1.684 . S
C618 H643 0.979 . S
C618 H644 0.980 . S
C618 H645 0.983 1_556 S
C619 C620 1.391 . S
C619 C624 1.391 . S
C619 H649 0.948 . S
C620 C619 1.391 . S
C620 C621 1.391 . S
C621 C620 1.391 . S
C621 C622 1.392 . S
C621 H650 0.947 . S
C622 C621 1.392 . S
C622 C623 1.419 . S
C622 H651 0.948 . S
C623 C622 1.419 . S
C623 C624 1.391 . S
C623 C627 1.397 . S
C624 C619 1.391 . S
C624 C623 1.391 . S
C624 C625 1.399 . S
C625 C624 1.399 . S
C625 C626 1.396 . S
C625 C628 1.453 . S
C625 C629 1.684 . S
C626 C607 1.723 . S
C626 C625 1.396 . S
C626 C627 1.394 . S
C627 C623 1.397 . S
C627 C626 1.394 . S
C627 C637 1.723 . S
C628 C625 1.453 . S
C628 H652 0.982 . S
C628 H653 0.979 . S
C628 H654 0.977 . S
C629 C625 1.684 . S
C629 H655 0.979 . S
C629 H656 0.980 . S
C629 H657 0.983 . S
C630 H606 0.948 . S
C630 C631 1.391 . S
C630 C635 1.391 . S
C631 C630 1.391 . S
C631 C632 1.391 . S
C632 H609 0.928 1_556 S
C632 C631 1.391 . S
C632 C633 1.392 . S
C633 H610 0.948 . S
C633 C632 1.392 . S
C633 C634 1.419 . S
C634 C633 1.419 . S
C634 C635 1.391 . S
C634 C638 1.397 . S
C635 C630 1.391 . S
C635 C634 1.391 . S
C635 C636 1.399 . S
C636 C635 1.399 . S
C636 C637 1.396 . S
C636 C639 1.453 . S
C636 C640 1.684 . S
C637 C627 1.723 . S
C637 C636 1.396 . S
C637 C638 1.394 . S
C638 C608 1.723 . S
C638 C634 1.397 . S
C638 C637 1.394 . S
C639 H611 0.982 . S
C639 H615 0.979 . S
C639 H616 0.977 . S
C639 C636 1.453 . S
C640 H612 0.979 . S
C640 H613 0.980 . S
C640 H614 0.983 . S
C640 C636 1.684 . S
H641 C659 0.948 . S
H642 C600 0.948 . S
H643 C618 0.979 . S
H644 C618 0.980 . S
H645 C618 0.983 1_554 S
H646 C617 0.982 . S
H647 C617 0.979 . S
H648 C617 0.977 . S
H649 C619 0.948 . S
H650 C621 0.947 . S
H651 C622 0.948 . S
H652 C628 0.982 . S
H653 C628 0.979 . S
H654 C628 0.977 . S
H655 C629 0.979 . S
H656 C629 0.980 . S
H657 C629 0.983 . S
H658 C602 0.947 . S
C659 C602 1.392 . S
C659 C603 1.419 . S
C659 H641 0.948 . S
C660 C661 1.391 . S
C660 C664 1.391 . S
C660 H702 0.948 . S
C661 C660 1.391 . S
C661 C662 1.391 . S
C662 C661 1.391 . S
C662 H718 0.947 . S
C662 C719 1.392 . S
C663 C664 1.391 . S
C663 C667 1.397 . S
C663 C719 1.419 . S
C664 C660 1.391 . S
C664 C663 1.391 . S
C664 C665 1.399 . S
C665 C664 1.399 . S
C665 C668 1.396 . S
C665 C677 1.453 . S
C665 C678 1.684 . S
H666 C690 0.948 . S
C667 C663 1.397 . S
C667 C668 1.394 . S
C667 C686 1.723 . S
C668 C665 1.396 . S
C668 C667 1.394 . S
C668 C698 1.723 . S
H669 C692 0.947 . S
H670 C693 0.948 . S
H671 C699 0.982 . S
H672 C700 0.979 . S
H673 C700 0.980 . S
H674 C700 0.983 . S
H675 C699 0.979 . S
H676 C699 0.977 . S
C677 C665 1.453 . S
C677 H706 0.982 . S
C677 H707 0.979 . S
C677 H708 0.977 . S
C678 C665 1.684 . S
C678 H703 0.979 . S
C678 H704 0.980 . S
C678 H705 0.983 . S
C679 C680 1.391 . S
C679 C684 1.391 . S
C679 H709 0.948 . S
C680 C679 1.391 . S
C680 C681 1.391 . S
C681 C680 1.391 . S
C681 C682 1.392 . S
C681 H710 0.947 . S
C682 C681 1.392 . S
C682 C683 1.419 . S
C682 H711 0.948 . S
C683 C682 1.419 . S
C683 C684 1.391 . S
C683 C687 1.397 . S
C684 C679 1.391 . S
C684 C683 1.391 . S
C684 C685 1.399 . S
C685 C684 1.399 . S
C685 C686 1.396 . S
C685 C688 1.453 . S
C685 C689 1.684 . S
C686 C667 1.723 . S
C686 C685 1.396 . S
C686 C687 1.394 . S
C687 C683 1.397 . S
C687 C686 1.394 . S
C687 C697 1.723 . S
C688 C685 1.453 . S
C688 H712 0.982 . S
C688 H713 0.979 . S
C688 H714 0.977 . S
C689 C685 1.684 . S
C689 H715 0.979 . S
C689 H716 0.980 . S
C689 H717 0.983 . S
C690 H666 0.948 . S
C690 C691 1.391 . S
C690 C695 1.391 . S
C691 C690 1.391 . S
C691 C692 1.391 . S
C692 H669 0.947 . S
C692 C691 1.391 . S
C692 C693 1.392 . S
C693 H670 0.948 . S
C693 C692 1.392 . S
C693 C694 1.419 . S
C694 C693 1.419 . S
C694 C695 1.391 . S
C694 C698 1.397 . S
C695 C690 1.391 . S
C695 C694 1.391 . S
C695 C696 1.399 . S
C696 C695 1.399 . S
C696 C697 1.396 . S
C696 C699 1.453 . S
C696 C700 1.684 . S
C697 C687 1.723 . S
C697 C696 1.396 . S
C697 C698 1.394 . S
C698 C668 1.723 . S
C698 C694 1.397 . S
C698 C697 1.394 . S
C699 H671 0.982 . S
C699 H675 0.979 . S
C699 H676 0.977 . S
C699 C696 1.453 . S
C700 H672 0.979 . S
C700 H673 0.980 . S
C700 H674 0.983 . S
C700 C696 1.684 . S
H701 C719 0.948 . S
H702 C660 0.948 . S
H703 C678 0.979 . S
H704 C678 0.980 . S
H705 C678 0.983 . S
H706 C677 0.982 . S
H707 C677 0.979 . S
H708 C677 0.977 . S
H709 C679 0.948 . S
H710 C681 0.947 . S
H711 C682 0.948 . S
H712 C688 0.982 . S
H713 C688 0.979 . S
H714 C688 0.977 . S
H715 C689 0.979 . S
H716 C689 0.980 . S
H717 C689 0.983 . S
H718 C662 0.947 . S
C719 C662 1.392 . S
C719 C663 1.419 . S
C719 H701 0.948 . S
C720 C721 1.391 . S
C720 C724 1.391 . S
C720 H762 0.948 . S
C721 C720 1.391 . S
C721 C722 1.391 . S
C722 C721 1.391 . S
C722 H778 0.947 . S
C722 C779 1.392 . S
C723 C724 1.391 . S
C723 C727 1.397 . S
C723 C779 1.419 . S
C724 C720 1.391 . S
C724 C723 1.391 . S
C724 C725 1.399 . S
C725 C724 1.399 . S
C725 C728 1.396 . S
C725 C737 1.453 . S
C725 C738 1.684 . S
H726 C750 0.948 . S
C727 C723 1.397 . S
C727 C728 1.394 . S
C727 C746 1.723 . S
C728 C725 1.396 . S
C728 C727 1.394 . S
C728 C758 1.723 . S
H729 C752 0.947 . S
H730 C753 0.948 . S
H731 C759 0.982 . S
H732 C760 0.979 . S
H733 C760 0.980 . S
H734 C760 0.983 . S
H735 C759 0.979 . S
H736 C759 0.977 . S
C737 C725 1.453 . S
C737 H766 0.982 . S
C737 H767 0.979 . S
C737 H768 0.977 . S
C738 C725 1.684 . S
C738 H763 0.979 . S
C738 H764 0.980 . S
C738 H765 0.983 . S
C739 C740 1.391 . S
C739 C744 1.391 . S
C739 H769 0.948 . S
C740 C739 1.391 . S
C740 C741 1.391 . S
C741 C740 1.391 . S
C741 C742 1.392 . S
C741 H770 0.947 . S
C742 C741 1.392 . S
C742 C743 1.419 . S
C742 H771 0.948 . S
C743 C742 1.419 . S
C743 C744 1.391 . S
C743 C747 1.397 . S
C744 C739 1.391 . S
C744 C743 1.391 . S
C744 C745 1.399 . S
C745 C744 1.399 . S
C745 C746 1.396 . S
C745 C748 1.453 . S
C745 C749 1.684 . S
C746 C727 1.723 . S
C746 C745 1.396 . S
C746 C747 1.394 . S
C747 C743 1.397 . S
C747 C746 1.394 . S
C747 C757 1.723 . S
C748 C745 1.453 . S
C748 H772 0.982 . S
C748 H773 0.979 . S
C748 H774 0.977 . S
C749 C745 1.684 . S
C749 H775 0.979 . S
C749 H776 0.980 . S
C749 H777 0.983 . S
C750 H726 0.948 . S
C750 C751 1.391 . S
C750 C755 1.391 . S
C751 C750 1.391 . S
C751 C752 1.391 . S
C752 H729 0.947 . S
C752 C751 1.391 . S
C752 C753 1.392 . S
C753 H730 0.948 . S
C753 C752 1.392 . S
C753 C754 1.419 . S
C754 C753 1.419 . S
C754 C755 1.391 . S
C754 C758 1.397 . S
C755 C750 1.391 . S
C755 C754 1.391 . S
C755 C756 1.399 . S
C756 C755 1.399 . S
C756 C757 1.396 . S
C756 C759 1.453 . S
C756 C760 1.684 . S
C757 C747 1.723 . S
C757 C756 1.396 . S
C757 C758 1.394 . S
C758 C728 1.723 . S
C758 C754 1.397 . S
C758 C757 1.394 . S
C759 H731 0.982 . S
C759 H735 0.979 . S
C759 H736 0.977 . S
C759 C756 1.453 . S
C760 H732 0.979 . S
C760 H733 0.980 . S
C760 H734 0.983 . S
C760 C756 1.684 . S
H761 C779 0.948 . S
H762 C720 0.948 . S
H763 C738 0.979 . S
H764 C738 0.980 . S
H765 C738 0.983 . S
H766 C737 0.982 . S
H767 C737 0.979 . S
H768 C737 0.977 . S
H769 C739 0.948 . S
H770 C741 0.947 . S
H771 C742 0.948 . S
H772 C748 0.982 . S
H773 C748 0.979 . S
H774 C748 0.977 . S
H775 C749 0.979 . S
H776 C749 0.980 . S
H777 C749 0.983 . S
H778 C722 0.947 . S
C779 C722 1.392 . S
C779 C723 1.419 . S
C779 H761 0.948 . S
C780 C781 1.391 . S
C780 C784 1.391 . S
C780 H822 0.948 . S
C781 C780 1.391 . S
C781 C782 1.391 . S
C782 C781 1.391 . S
C782 H838 0.947 . S
C782 C839 1.392 . S
C783 C784 1.391 . S
C783 C787 1.397 . S
C783 C839 1.419 . S
C784 C780 1.391 . S
C784 C783 1.391 . S
C784 C785 1.399 . S
C785 C784 1.399 . S
C785 C788 1.396 . S
C785 C797 1.453 . S
C785 C798 1.684 . S
H786 C810 0.948 . S
C787 C783 1.397 . S
C787 C788 1.394 . S
C787 C806 1.723 . S
C788 C785 1.396 . S
C788 C787 1.394 . S
C788 C818 1.723 . S
H789 C812 0.947 . S
H790 C813 0.948 . S
H791 C819 0.982 . S
H792 C820 0.979 . S
H793 C820 0.980 . S
H794 C820 0.983 . S
H795 C819 0.979 . S
H796 C819 0.977 . S
C797 C785 1.453 . S
C797 H826 0.982 . S
C797 H827 0.979 . S
C797 H828 0.977 . S
C798 C785 1.684 . S
C798 H823 0.979 . S
C798 H824 0.980 . S
C798 H825 0.959 1_554 S
C799 C800 1.391 . S
C799 C804 1.391 . S
C799 H829 0.948 . S
C800 C799 1.391 . S
C800 C801 1.391 . S
C801 C800 1.391 . S
C801 C802 1.392 . S
C801 H830 0.947 . S
C802 C801 1.392 . S
C802 C803 1.419 . S
C802 H831 0.948 . S
C803 C802 1.419 . S
C803 C804 1.391 . S
C803 C807 1.397 . S
C804 C799 1.391 . S
C804 C803 1.391 . S
C804 C805 1.399 . S
C805 C804 1.399 . S
C805 C806 1.396 . S
C805 C808 1.453 . S
C805 C809 1.684 . S
C806 C787 1.723 . S
C806 C805 1.396 . S
C806 C807 1.394 . S
C807 C803 1.397 . S
C807 C806 1.394 . S
C807 C817 1.723 . S
C808 C805 1.453 . S
C808 H832 0.982 . S
C808 H833 0.979 . S
C808 H834 0.977 . S
C809 C805 1.684 . S
C809 H835 0.979 . S
C809 H836 0.980 . S
C809 H837 0.983 . S
C810 H786 0.948 . S
C810 C811 1.391 . S
C810 C815 1.391 . S
C811 C810 1.391 . S
C811 C812 1.391 . S
C812 H789 0.947 . S
C812 C811 1.391 . S
C812 C813 1.392 . S
C813 H790 0.948 . S
C813 C812 1.392 . S
C813 C814 1.419 . S
C814 C813 1.419 . S
C814 C815 1.391 . S
C814 C818 1.397 . S
C815 C810 1.391 . S
C815 C814 1.391 . S
C815 C816 1.399 . S
C816 C815 1.399 . S
C816 C817 1.396 . S
C816 C819 1.453 . S
C816 C820 1.684 . S
C817 C807 1.723 . S
C817 C816 1.396 . S
C817 C818 1.394 . S
C818 C788 1.723 . S
C818 C814 1.397 . S
C818 C817 1.394 . S
C819 H791 0.982 . S
C819 H795 0.979 . S
C819 H796 0.977 . S
C819 C816 1.453 . S
C820 H792 0.979 . S
C820 H793 0.980 . S
C820 H794 0.983 . S
C820 C816 1.684 . S
H821 C839 0.948 . S
H822 C780 0.948 . S
H823 C798 0.979 . S
H824 C798 0.980 . S
H825 C798 0.959 1_556 S
H826 C797 0.982 . S
H827 C797 0.979 . S
H828 C797 0.977 . S
H829 C799 0.948 . S
H830 C801 0.947 . S
H831 C802 0.948 . S
H832 C808 0.982 . S
H833 C808 0.979 . S
H834 C808 0.977 . S
H835 C809 0.979 . S
H836 C809 0.980 . S
H837 C809 0.983 . S
H838 C782 0.947 . S
C839 C782 1.392 . S
C839 C783 1.419 . S
C839 H821 0.948 . S
C840 C841 1.391 . S
C840 C844 1.391 . S
C840 H882 0.948 . S
C841 C840 1.391 . S
C841 C842 1.391 . S
C842 C841 1.391 . S
C842 H898 0.947 . S
C842 C899 1.392 . S
C843 C844 1.391 . S
C843 C847 1.397 . S
C843 C899 1.419 . S
C844 C840 1.391 . S
C844 C843 1.391 . S
C844 C845 1.399 . S
C845 C844 1.399 . S
C845 C848 1.396 . S
C845 C857 1.453 . S
C845 C858 1.684 . S
H846 C870 0.948 . S
C847 C843 1.397 . S
C847 C848 1.394 . S
C847 C866 1.723 . S
C848 C845 1.396 . S
C848 C847 1.394 . S
C848 C878 1.723 . S
H849 C872 0.947 . S
H850 C873 0.948 . S
H851 C879 0.982 . S
H852 C880 0.979 . S
H853 C880 0.980 . S
H854 C880 0.983 . S
H855 C879 0.979 . S
H856 C879 0.977 . S
C857 C845 1.453 . S
C857 H886 0.982 . S
C857 H887 0.979 . S
C857 H888 0.977 . S
C858 C845 1.684 . S
C858 H883 0.979 . S
C858 H884 0.980 . S
C858 H885 0.983 . S
C859 C860 1.391 . S
C859 C864 1.391 . S
C859 H889 0.948 . S
C860 C859 1.391 . S
C860 C861 1.391 . S
C861 C860 1.391 . S
C861 C862 1.392 . S
C861 H890 0.947 . S
C862 C861 1.392 . S
C862 C863 1.419 . S
C862 H891 0.948 . S
C863 C862 1.419 . S
C863 C864 1.391 . S
C863 C867 1.397 . S
C864 C859 1.391 . S
C864 C863 1.391 . S
C864 C865 1.399 . S
C865 C864 1.399 . S
C865 C866 1.396 . S
C865 C868 1.453 . S
C865 C869 1.684 . S
C866 C847 1.723 . S
C866 C865 1.396 . S
C866 C867 1.394 . S
C867 C863 1.397 . S
C867 C866 1.394 . S
C867 C877 1.723 . S
C868 C865 1.453 . S
C868 H892 0.982 . S
C868 H893 0.979 . S
C868 H894 0.977 . S
C869 C865 1.684 . S
C869 H895 0.979 . S
C869 H896 0.980 . S
C869 H897 0.983 . S
C870 H846 0.948 . S
C870 C871 1.391 . S
C870 C875 1.391 . S
C871 C870 1.391 . S
C871 C872 1.391 . S
C872 H849 0.947 . S
C872 C871 1.391 . S
C872 C873 1.392 . S
C873 H850 0.948 . S
C873 C872 1.392 . S
C873 C874 1.419 . S
C874 C873 1.419 . S
C874 C875 1.391 . S
C874 C878 1.397 . S
C875 C870 1.391 . S
C875 C874 1.391 . S
C875 C876 1.399 . S
C876 C875 1.399 . S
C876 C877 1.396 . S
C876 C879 1.453 . S
C876 C880 1.684 . S
C877 C867 1.723 . S
C877 C876 1.396 . S
C877 C878 1.394 . S
C878 C848 1.723 . S
C878 C874 1.397 . S
C878 C877 1.394 . S
C879 H851 0.982 . S
C879 H855 0.979 . S
C879 H856 0.977 . S
C879 C876 1.453 . S
C880 H852 0.979 . S
C880 H853 0.980 . S
C880 H854 0.983 . S
C880 C876 1.684 . S
H881 C899 0.948 . S
H882 C840 0.948 . S
H883 C858 0.979 . S
H884 C858 0.980 . S
H885 C858 0.983 . S
H886 C857 0.982 . S
H887 C857 0.979 . S
H888 C857 0.977 . S
H889 C859 0.948 . S
H890 C861 0.947 . S
H891 C862 0.948 . S
H892 C868 0.982 . S
H893 C868 0.979 . S
H894 C868 0.977 . S
H895 C869 0.979 . S
H896 C869 0.980 . S
H897 C869 0.983 . S
H898 C842 0.947 . S
C899 C842 1.392 . S
C899 C843 1.419 . S
C899 H881 0.948 . S
C900 C901 1.391 . S
C900 C904 1.391 . S
C900 H942 0.948 . S
C901 C900 1.391 . S
C901 C902 1.391 . S
C902 C901 1.391 . S
C902 H958 0.947 . S
C902 C959 1.392 . S
C903 C904 1.391 . S
C903 C907 1.397 . S
C903 C959 1.419 . S
C904 C900 1.391 . S
C904 C903 1.391 . S
C904 C905 1.399 . S
C905 C904 1.399 . S
C905 C908 1.396 . S
C905 C917 1.453 . S
C905 C918 1.684 . S
H906 C930 0.948 . S
C907 C903 1.397 . S
C907 C908 1.394 . S
C907 C926 1.723 . S
C908 C905 1.396 . S
C908 C907 1.394 . S
C908 C938 1.723 . S
H909 C932 0.947 . S
H910 C933 0.948 . S
H911 C939 0.982 . S
H912 C940 0.979 . S
H913 C940 0.980 . S
H914 C940 0.983 . S
H915 C939 0.979 . S
H916 C939 0.977 . S
C917 C905 1.453 . S
C917 H946 0.982 . S
C917 H947 0.979 . S
C917 H948 0.977 . S
C918 C905 1.684 . S
C918 H943 0.979 . S
C918 H944 0.980 . S
C918 H945 0.983 . S
C919 C920 1.391 . S
C919 C924 1.391 . S
C919 H949 0.948 . S
C920 C919 1.391 . S
C920 C921 1.391 . S
C921 C920 1.391 . S
C921 C922 1.392 . S
C921 H950 0.947 . S
C922 C921 1.392 . S
C922 C923 1.419 . S
C922 H951 0.948 . S
C923 C922 1.419 . S
C923 C924 1.391 . S
C923 C927 1.397 . S
C924 C919 1.391 . S
C924 C923 1.391 . S
C924 C925 1.399 . S
C925 C924 1.399 . S
C925 C926 1.396 . S
C925 C928 1.453 . S
C925 C929 1.684 . S
C926 C907 1.723 . S
C926 C925 1.396 . S
C926 C927 1.394 . S
C927 C923 1.397 . S
C927 C926 1.394 . S
C927 C937 1.723 . S
C928 C925 1.453 . S
C928 H952 0.982 . S
C928 H953 0.979 . S
C928 H954 0.977 . S
C929 C925 1.684 . S
C929 H955 0.979 . S
C929 H956 0.980 . S
C929 H957 0.983 . S
C930 H906 0.948 . S
C930 C931 1.391 . S
C930 C935 1.391 . S
C931 C930 1.391 . S
C931 C932 1.391 . S
C932 H909 0.947 . S
C932 C931 1.391 . S
C932 C933 1.392 . S
C933 H910 0.948 . S
C933 C932 1.392 . S
C933 C934 1.419 . S
C934 C933 1.419 . S
C934 C935 1.391 . S
C934 C938 1.397 . S
C935 C930 1.391 . S
C935 C934 1.391 . S
C935 C936 1.399 . S
C936 C935 1.399 . S
C936 C937 1.396 . S
C936 C939 1.453 . S
C936 C940 1.684 . S
C937 C927 1.723 . S
C937 C936 1.396 . S
C937 C938 1.394 . S
C938 C908 1.723 . S
C938 C934 1.397 . S
C938 C937 1.394 . S
C939 H911 0.982 . S
C939 H915 0.979 . S
C939 H916 0.977 . S
C939 C936 1.453 . S
C940 H912 0.979 . S
C940 H913 0.980 . S
C940 H914 0.983 . S
C940 C936 1.684 . S
H941 C959 0.948 . S
H942 C900 0.948 . S
H943 C918 0.979 . S
H944 C918 0.980 . S
H945 C918 0.983 . S
H946 C917 0.982 . S
H947 C917 0.979 . S
H948 C917 0.977 . S
H949 C919 0.948 . S
H950 C921 0.947 . S
H951 C922 0.948 . S
H952 C928 0.982 . S
H953 C928 0.979 . S
H954 C928 0.977 . S
H955 C929 0.979 . S
H956 C929 0.980 . S
H957 C929 0.983 . S
H958 C902 0.947 . S
C959 C902 1.392 . S
C959 C903 1.419 . S
C959 H941 0.948 . S
C960 C961 1.391 . S
C960 C964 1.391 . S
C960 H1002 0.948 . S
C961 C960 1.391 . S
C961 C962 1.391 . S
C962 C961 1.391 . S
C962 H1018 0.947 . S
C962 C1019 1.392 . S
C963 C964 1.391 . S
C963 C967 1.397 . S
C963 C1019 1.419 . S
C964 C960 1.391 . S
C964 C963 1.391 . S
C964 C965 1.399 . S
C965 C964 1.399 . S
C965 C968 1.396 . S
C965 C977 1.453 . S
C965 C978 1.684 . S
H966 C990 0.948 . S
C967 C963 1.397 . S
C967 C968 1.394 . S
C967 C986 1.723 . S
C968 C965 1.396 . S
C968 C967 1.394 . S
C968 C998 1.723 . S
H969 C992 0.947 . S
H970 C993 0.948 . S
H971 C999 0.982 . S
H972 C1000 0.979 . S
H973 C1000 0.980 . S
H974 C1000 0.983 . S
H975 C999 0.979 . S
H976 C999 0.977 . S
C977 C965 1.453 . S
C977 H1006 0.982 . S
C977 H1007 0.979 . S
C977 H1008 0.977 . S
C978 C965 1.684 . S
C978 H1003 0.979 . S
C978 H1004 0.980 . S
C978 H1005 0.983 . S
C979 C980 1.391 . S
C979 C984 1.391 . S
C979 H1009 0.948 . S
C980 C979 1.391 . S
C980 C981 1.391 . S
C981 C980 1.391 . S
C981 C982 1.392 . S
C981 H1010 0.947 . S
C982 C981 1.392 . S
C982 C983 1.419 . S
C982 H1011 0.948 . S
C983 C982 1.419 . S
C983 C984 1.391 . S
C983 C987 1.397 . S
C984 C979 1.391 . S
C984 C983 1.391 . S
C984 C985 1.399 . S
C985 C984 1.399 . S
C985 C986 1.396 . S
C985 C988 1.453 . S
C985 C989 1.684 . S
C986 C967 1.723 . S
C986 C985 1.396 . S
C986 C987 1.394 . S
C987 C983 1.397 . S
C987 C986 1.394 . S
C987 C997 1.723 . S
C988 C985 1.453 . S
C988 H1012 0.982 . S
C988 H1013 0.979 . S
C988 H1014 0.977 . S
C989 C985 1.684 . S
C989 H1015 0.979 . S
C989 H1016 0.980 . S
C989 H1017 0.983 . S
C990 H966 0.948 . S
C990 C991 1.391 . S
C990 C995 1.391 . S
C991 C990 1.391 . S
C991 C992 1.391 . S
C992 H969 0.947 . S
C992 C991 1.391 . S
C992 C993 1.392 . S
C993 H970 0.948 . S
C993 C992 1.392 . S
C993 C994 1.419 . S
C994 C993 1.419 . S
C994 C995 1.391 . S
C994 C998 1.397 . S
C995 C990 1.391 . S
C995 C994 1.391 . S
C995 C996 1.399 . S
C996 C995 1.399 . S
C996 C997 1.396 . S
C996 C999 1.453 . S
C996 C1000 1.684 . S
C997 C987 1.723 . S
C997 C996 1.396 . S
C997 C998 1.394 . S
C998 C968 1.723 . S
C998 C994 1.397 . S
C998 C997 1.394 . S
C999 H971 0.982 . S
C999 H975 0.979 . S
C999 H976 0.977 . S
C999 C996 1.453 . S
C1000 H972 0.979 . S
C1000 H973 0.980 . S
C1000 H974 0.983 . S
C1000 C996 1.684 . S
H1001 C1019 0.948 . S
H1002 C960 0.948 . S
H1003 C978 0.979 . S
H1004 C978 0.980 . S
H1005 C978 0.983 . S
H1006 C977 0.982 . S
H1007 C977 0.979 . S
H1008 C977 0.977 . S
H1009 C979 0.948 . S
H1010 C981 0.947 . S
H1011 C982 0.948 . S
H1012 C988 0.982 . S
H1013 C988 0.979 . S
H1014 C988 0.977 . S
H1015 C989 0.979 . S
H1016 C989 0.980 . S
H1017 C989 0.983 . S
H1018 C962 0.947 . S
C1019 C962 1.392 . S
C1019 C963 1.419 . S
C1019 H1001 0.948 . S
C1020 C1021 1.391 . S
C1020 C1024 1.391 . S
C1020 H1062 0.948 . S
C1021 C1020 1.391 . S
C1021 C1022 1.391 . S
C1022 C1021 1.391 . S
C1022 H1078 0.947 . S
C1022 C1079 1.392 . S
C1023 C1024 1.391 . S
C1023 C1027 1.397 . S
C1023 C1079 1.419 . S
C1024 C1020 1.391 . S
C1024 C1023 1.391 . S
C1024 C1025 1.399 . S
C1025 C1024 1.399 . S
C1025 C1028 1.396 . S
C1025 C1037 1.453 . S
C1025 C1038 1.684 . S
H1026 C1050 0.948 . S
C1027 C1023 1.397 . S
C1027 C1028 1.394 . S
C1027 C1046 1.723 . S
C1028 C1025 1.396 . S
C1028 C1027 1.394 . S
C1028 C1058 1.723 . S
H1029 C1052 0.947 . S
H1030 C1053 0.948 . S
H1031 C1059 0.982 . S
H1032 C1060 0.979 . S
H1033 C1060 0.980 . S
H1034 C1060 0.983 . S
H1035 C1059 0.979 . S
H1036 C1059 0.977 . S
C1037 C1025 1.453 . S
C1037 H1066 0.982 . S
C1037 H1067 0.979 . S
C1037 H1068 0.977 . S
C1038 C1025 1.684 . S
C1038 H1063 0.979 . S
C1038 H1064 0.980 . S
C1038 H1065 0.983 . S
C1039 C1040 1.391 . S
C1039 C1044 1.391 . S
C1039 H1069 0.948 . S
C1040 C1039 1.391 . S
C1040 C1041 1.391 . S
C1041 C1040 1.391 . S
C1041 C1042 1.392 . S
C1041 H1070 0.947 . S
C1042 C1041 1.392 . S
C1042 C1043 1.419 . S
C1042 H1071 0.948 . S
C1043 C1042 1.419 . S
C1043 C1044 1.391 . S
C1043 C1047 1.397 . S
C1044 C1039 1.391 . S
C1044 C1043 1.391 . S
C1044 C1045 1.399 . S
C1045 C1044 1.399 . S
C1045 C1046 1.396 . S
C1045 C1048 1.453 . S
C1045 C1049 1.684 . S
C1046 C1027 1.723 . S
C1046 C1045 1.396 . S
C1046 C1047 1.394 . S
C1047 C1043 1.397 . S
C1047 C1046 1.394 . S
C1047 C1057 1.723 . S
C1048 C1045 1.453 . S
C1048 H1072 0.982 . S
C1048 H1073 0.979 . S
C1048 H1074 0.977 . S
C1049 C1045 1.684 . S
C1049 H1075 0.979 . S
C1049 H1076 0.980 . S
C1049 H1077 0.983 . S
C1050 H1026 0.948 . S
C1050 C1051 1.391 . S
C1050 C1055 1.391 . S
C1051 C1050 1.391 . S
C1051 C1052 1.391 . S
C1052 H1029 0.947 . S
C1052 C1051 1.391 . S
C1052 C1053 1.392 . S
C1053 H1030 0.948 . S
C1053 C1052 1.392 . S
C1053 C1054 1.419 . S
C1054 C1053 1.419 . S
C1054 C1055 1.391 . S
C1054 C1058 1.397 . S
C1055 C1050 1.391 . S
C1055 C1054 1.391 . S
C1055 C1056 1.399 . S
C1056 C1055 1.399 . S
C1056 C1057 1.396 . S
C1056 C1059 1.453 . S
C1056 C1060 1.684 . S
C1057 C1047 1.723 . S
C1057 C1056 1.396 . S
C1057 C1058 1.394 . S
C1058 C1028 1.723 . S
C1058 C1054 1.397 . S
C1058 C1057 1.394 . S
C1059 H1031 0.982 . S
C1059 H1035 0.979 . S
C1059 H1036 0.977 . S
C1059 C1056 1.453 . S
C1060 H1032 0.979 . S
C1060 H1033 0.980 . S
C1060 H1034 0.983 . S
C1060 C1056 1.684 . S
H1061 C1079 0.948 . S
H1062 C1020 0.948 . S
H1063 C1038 0.979 . S
H1064 C1038 0.980 . S
H1065 C1038 0.983 . S
H1066 C1037 0.982 . S
H1067 C1037 0.979 . S
H1068 C1037 0.977 . S
H1069 C1039 0.948 . S
H1070 C1041 0.947 . S
H1071 C1042 0.948 . S
H1072 C1048 0.982 . S
H1073 C1048 0.979 . S
H1074 C1048 0.977 . S
H1075 C1049 0.979 . S
H1076 C1049 0.980 . S
H1077 C1049 0.983 . S
H1078 C1022 0.947 . S
C1079 C1022 1.392 . S
C1079 C1023 1.419 . S
C1079 H1061 0.948 . S
O1080 Mn1081 2.163 1_565 S
O1080 C1094 1.244 . S
Mn1081 O1080 2.163 1_545 S
Mn1081 O1084 2.160 . S
Mn1081 O1085 2.221 1_545 S
Mn1081 O1087 2.163 1_554 S
Mn1081 O1089 2.160 . S
Mn1081 O1099 2.221 . S
O1082 Mn1083 2.087 1_565 S
O1082 C1094 1.256 . S
Mn1083 O1082 2.087 1_545 S
Mn1083 O1090 2.089 . S
Mn1083 O1099 2.290 . S
Mn1083 O1100 2.251 . S
O1084 Mn1081 2.160 . S
O1084 C1095 1.239 1_554 S
O1085 Mn1081 2.221 1_565 S
O1085 Mn1086 2.290 1_554 S
O1085 C1096 1.278 1_554 S
Mn1086 O1085 2.290 1_556 S
Mn1086 O1088 2.089 1_565 S
Mn1086 O1091 2.251 . S
Mn1086 O1092 2.087 . S
O1087 Mn1081 2.163 1_556 S
O1087 C1097 1.244 . S
O1088 Mn1086 2.089 1_545 S
O1088 C1095 1.256 . S
O1089 Mn1081 2.160 . S
O1089 C1098 1.239 . S
O1090 Mn1083 2.089 . S
O1090 C1098 1.256 . S
O1091 Mn1086 2.251 . S
O1091 C1096 1.238 . S
O1092 Mn1086 2.087 . S
O1092 C1097 1.256 1_565 S
C1093 O1099 1.268 1_556 S
C1093 O1100 1.236 1_556 S
C1094 O1080 1.244 . S
C1094 O1082 1.256 . S
C1095 O1084 1.239 1_556 S
C1095 O1088 1.256 . S
C1096 O1085 1.278 1_556 S
C1096 O1091 1.238 . S
C1097 O1087 1.244 . S
C1097 O1092 1.256 1_545 S
C1098 O1089 1.239 . S
C1098 O1090 1.256 . S
O1099 Mn1081 2.221 . S
O1099 Mn1083 2.290 . S
O1099 C1093 1.268 1_554 S
O1100 Mn1083 2.251 . S
O1100 C1093 1.236 1_554 S
O1101 Mn1102 2.163 1_455 S
O1101 C1115 1.244 . S
Mn1102 O1101 2.163 1_655 S
Mn1102 O1105 2.160 . S
Mn1102 O1106 2.221 1_655 S
Mn1102 O1108 2.163 1_554 S
Mn1102 O1110 2.160 . S
Mn1102 O1120 2.221 . S
O1103 Mn1104 2.087 1_455 S
O1103 C1115 1.256 . S
Mn1104 O1103 2.087 1_655 S
Mn1104 O1111 2.095 1_655 S
Mn1104 O1120 2.290 . S
Mn1104 O1121 2.251 . S
O1105 Mn1102 2.160 . S
O1105 C1116 1.239 1_554 S
O1106 Mn1102 2.221 1_455 S
O1106 Mn1107 2.290 1_554 S
O1106 C1117 1.279 . S
Mn1107 O1106 2.290 1_556 S
Mn1107 O1109 2.089 1_455 S
Mn1107 O1112 2.251 . S
Mn1107 O1113 2.087 . S
O1108 Mn1102 2.163 1_556 S
O1108 C1118 1.247 1_655 S
O1109 Mn1107 2.089 1_655 S
O1109 C1116 1.256 . S
O1110 Mn1102 2.160 . S
O1110 C1119 1.235 1_655 S
O1111 Mn1104 2.095 1_455 S
O1111 C1119 1.231 . S
O1112 Mn1107 2.251 . S
O1112 C1117 1.233 1_556 S
O1113 Mn1107 2.087 . S
O1113 C1118 1.255 . S
C1114 O1120 1.260 1_556 S
C1114 O1121 1.232 1_556 S
C1115 O1101 1.244 . S
C1115 O1103 1.256 . S
C1116 O1105 1.239 1_556 S
C1116 O1109 1.256 . S
C1117 O1106 1.279 . S
C1117 O1112 1.233 1_554 S
C1118 O1108 1.247 1_455 S
C1118 O1113 1.255 . S
C1119 O1110 1.235 1_455 S
C1119 O1111 1.231 . S
O1120 Mn1102 2.221 . S
O1120 Mn1104 2.290 . S
O1120 C1114 1.260 1_554 S
O1121 Mn1104 2.251 . S
O1121 C1114 1.232 1_554 S
O1122 Mn1123 2.163 . S
O1122 C1136 1.244 . S
Mn1123 O1122 2.163 . S
Mn1123 O1126 2.159 . S
Mn1123 O1127 2.218 1_556 S
Mn1123 O1129 2.163 1_556 S
Mn1123 O1131 2.160 . S
Mn1123 O1141 2.221 . S
O1124 Mn1125 2.087 . S
O1124 C1136 1.256 . S
Mn1125 O1124 2.087 . S
Mn1125 O1132 2.089 . S
Mn1125 O1141 2.290 . S
Mn1125 O1142 2.256 1_556 S
O1126 Mn1123 2.159 . S
O1126 C1137 1.242 1_556 S
O1127 Mn1123 2.218 1_554 S
O1127 Mn1128 2.329 . S
O1127 C1138 1.287 . S
Mn1128 O1127 2.329 . S
Mn1128 O1130 2.089 . S
Mn1128 O1133 2.251 . S
Mn1128 O1134 2.087 . S
O1129 Mn1123 2.163 1_554 S
O1129 C1139 1.244 . S
O1130 Mn1128 2.089 . S
O1130 C1137 1.256 . S
O1131 Mn1123 2.160 . S
O1131 C1140 1.239 . S
O1132 Mn1125 2.089 . S
O1132 C1140 1.256 . S
O1133 Mn1128 2.251 . S
O1133 C1138 1.241 . S
O1134 Mn1128 2.087 . S
O1134 C1139 1.256 . S
C1135 O1141 1.278 1_554 S
C1135 O1142 1.239 . S
C1136 O1122 1.244 . S
C1136 O1124 1.256 . S
C1137 O1126 1.242 1_554 S
C1137 O1130 1.256 . S
C1138 O1127 1.287 . S
C1138 O1133 1.241 . S
C1139 O1129 1.244 . S
C1139 O1134 1.256 . S
C1140 O1131 1.239 . S
C1140 O1132 1.256 . S
O1141 Mn1123 2.221 . S
O1141 Mn1125 2.290 . S
O1141 C1135 1.278 1_556 S
O1142 Mn1125 2.256 1_554 S
O1142 C1135 1.239 . S
O1143 Mn1144 2.163 . S
O1143 C1157 1.244 . S
Mn1144 O1143 2.163 . S
Mn1144 O1147 2.160 . S
Mn1144 O1148 2.221 . S
Mn1144 O1150 2.163 . S
Mn1144 O1152 2.160 . S
Mn1144 O1162 2.221 . S
O1145 Mn1146 2.087 . S
O1145 C1157 1.256 . S
Mn1146 O1145 2.087 . S
Mn1146 O1153 2.089 . S
Mn1146 O1162 2.290 . S
Mn1146 O1163 2.251 . S
O1147 Mn1144 2.160 . S
O1147 C1158 1.239 . S
O1148 Mn1144 2.221 . S
O1148 Mn1149 2.290 . S
O1148 C1159 1.278 . S
Mn1149 O1148 2.290 . S
Mn1149 O1151 2.089 . S
Mn1149 O1154 2.251 . S
Mn1149 O1155 2.087 . S
O1150 Mn1144 2.163 . S
O1150 C1160 1.244 . S
O1151 Mn1149 2.089 . S
O1151 C1158 1.256 . S
O1152 Mn1144 2.160 . S
O1152 C1161 1.239 . S
O1153 Mn1146 2.089 . S
O1153 C1161 1.256 . S
O1154 Mn1149 2.251 . S
O1154 C1159 1.241 . S
O1155 Mn1149 2.087 . S
O1155 C1160 1.256 . S
C1156 O1162 1.278 . S
C1156 O1163 1.241 . S
C1157 O1143 1.244 . S
C1157 O1145 1.256 . S
C1158 O1147 1.239 . S
C1158 O1151 1.256 . S
C1159 O1148 1.278 . S
C1159 O1154 1.241 . S
C1160 O1150 1.244 . S
C1160 O1155 1.256 . S
C1161 O1152 1.239 . S
C1161 O1153 1.256 . S
O1162 Mn1144 2.221 . S
O1162 Mn1146 2.290 . S
O1162 C1156 1.278 . S
O1163 Mn1146 2.251 . S
O1163 C1156 1.241 . S
O1164 Mn1165 2.163 . S
O1164 C1178 1.244 . S
Mn1165 O1164 2.163 . S
Mn1165 O1168 2.160 . S
Mn1165 O1169 2.221 . S
Mn1165 O1171 2.163 . S
Mn1165 O1173 2.160 . S
Mn1165 O1183 2.221 . S
O1166 Mn1167 2.087 . S
O1166 C1178 1.256 . S
Mn1167 O1166 2.087 . S
Mn1167 O1174 2.089 . S
Mn1167 O1183 2.290 . S
Mn1167 O1184 2.251 . S
O1168 Mn1165 2.160 . S
O1168 C1179 1.239 . S
O1169 Mn1165 2.221 . S
O1169 Mn1170 2.290 . S
O1169 C1180 1.278 . S
Mn1170 O1169 2.290 . S
Mn1170 O1172 2.089 . S
Mn1170 O1175 2.251 . S
Mn1170 O1176 2.087 . S
O1171 Mn1165 2.163 . S
O1171 C1181 1.244 . S
O1172 Mn1170 2.089 . S
O1172 C1179 1.256 . S
O1173 Mn1165 2.160 . S
O1173 C1182 1.239 . S
O1174 Mn1167 2.089 . S
O1174 C1182 1.256 . S
O1175 Mn1170 2.251 . S
O1175 C1180 1.241 . S
O1176 Mn1170 2.087 . S
O1176 C1181 1.256 . S
C1177 O1183 1.278 . S
C1177 O1184 1.241 . S
C1178 O1164 1.244 . S
C1178 O1166 1.256 . S
C1179 O1168 1.239 . S
C1179 O1172 1.256 . S
C1180 O1169 1.278 . S
C1180 O1175 1.241 . S
C1181 O1171 1.244 . S
C1181 O1176 1.256 . S
C1182 O1173 1.239 . S
C1182 O1174 1.256 . S
O1183 Mn1165 2.221 . S
O1183 Mn1167 2.290 . S
O1183 C1177 1.278 . S
O1184 Mn1167 2.251 . S
O1184 C1177 1.241 . S
O1185 Mn1186 2.163 . S
O1185 C1199 1.244 . S
Mn1186 O1185 2.163 . S
Mn1186 O1189 2.160 . S
Mn1186 O1190 2.221 . S
Mn1186 O1192 2.163 . S
Mn1186 O1194 2.160 . S
Mn1186 O1204 2.221 . S
O1187 Mn1188 2.087 . S
O1187 C1199 1.256 . S
Mn1188 O1187 2.087 . S
Mn1188 O1195 2.089 . S
Mn1188 O1204 2.290 . S
Mn1188 O1205 2.251 . S
O1189 Mn1186 2.160 . S
O1189 C1200 1.239 . S
O1190 Mn1186 2.221 . S
O1190 Mn1191 2.290 . S
O1190 C1201 1.278 . S
Mn1191 O1190 2.290 . S
Mn1191 O1193 2.089 . S
Mn1191 O1196 2.251 . S
Mn1191 O1197 2.087 . S
O1192 Mn1186 2.163 . S
O1192 C1202 1.244 . S
O1193 Mn1191 2.089 . S
O1193 C1200 1.256 . S
O1194 Mn1186 2.160 . S
O1194 C1203 1.239 . S
O1195 Mn1188 2.089 . S
O1195 C1203 1.256 . S
O1196 Mn1191 2.251 . S
O1196 C1201 1.241 . S
O1197 Mn1191 2.087 . S
O1197 C1202 1.256 . S
C1198 O1204 1.278 . S
C1198 O1205 1.241 . S
C1199 O1185 1.244 . S
C1199 O1187 1.256 . S
C1200 O1189 1.239 . S
C1200 O1193 1.256 . S
C1201 O1190 1.278 . S
C1201 O1196 1.241 . S
C1202 O1192 1.244 . S
C1202 O1197 1.256 . S
C1203 O1194 1.239 . S
C1203 O1195 1.256 . S
O1204 Mn1186 2.221 . S
O1204 Mn1188 2.290 . S
O1204 C1198 1.278 . S
O1205 Mn1188 2.251 . S
O1205 C1198 1.241 . S
O1206 Mn1207 2.163 . S
O1206 C1220 1.244 . S
Mn1207 O1206 2.163 . S
Mn1207 O1210 2.160 . S
Mn1207 O1211 2.221 . S
Mn1207 O1213 2.163 . S
Mn1207 O1215 2.160 . S
Mn1207 O1225 2.221 . S
O1208 Mn1209 2.087 . S
O1208 C1220 1.256 . S
Mn1209 O1208 2.087 . S
Mn1209 O1216 2.089 . S
Mn1209 O1225 2.290 . S
Mn1209 O1226 2.251 . S
O1210 Mn1207 2.160 . S
O1210 C1221 1.239 . S
O1211 Mn1207 2.221 . S
O1211 Mn1212 2.290 . S
O1211 C1222 1.278 . S
Mn1212 O1211 2.290 . S
Mn1212 O1214 2.089 . S
Mn1212 O1217 2.251 . S
Mn1212 O1218 2.087 . S
O1213 Mn1207 2.163 . S
O1213 C1223 1.244 . S
O1214 Mn1212 2.089 . S
O1214 C1221 1.256 . S
O1215 Mn1207 2.160 . S
O1215 C1224 1.239 . S
O1216 Mn1209 2.089 . S
O1216 C1224 1.256 . S
O1217 Mn1212 2.251 . S
O1217 C1222 1.241 . S
O1218 Mn1212 2.087 . S
O1218 C1223 1.256 . S
C1219 O1225 1.278 . S
C1219 O1226 1.241 . S
C1220 O1206 1.244 . S
C1220 O1208 1.256 . S
C1221 O1210 1.239 . S
C1221 O1214 1.256 . S
C1222 O1211 1.278 . S
C1222 O1217 1.241 . S
C1223 O1213 1.244 . S
C1223 O1218 1.256 . S
C1224 O1215 1.239 . S
C1224 O1216 1.256 . S
O1225 Mn1207 2.221 . S
O1225 Mn1209 2.290 . S
O1225 C1219 1.278 . S
O1226 Mn1209 2.251 . S
O1226 C1219 1.241 . S
O1227 Mn1228 2.163 . S
O1227 C1241 1.244 . S
Mn1228 O1227 2.163 . S
Mn1228 O1231 2.160 . S
Mn1228 O1232 2.221 . S
Mn1228 O1234 2.163 . S
Mn1228 O1236 2.160 . S
Mn1228 O1246 2.221 . S
O1229 Mn1230 2.087 . S
O1229 C1241 1.256 . S
Mn1230 O1229 2.087 . S
Mn1230 O1237 2.089 . S
Mn1230 O1246 2.290 . S
Mn1230 O1247 2.251 . S
O1231 Mn1228 2.160 . S
O1231 C1242 1.239 . S
O1232 Mn1228 2.221 . S
O1232 Mn1233 2.290 . S
O1232 C1243 1.278 . S
Mn1233 O1232 2.290 . S
Mn1233 O1235 2.089 . S
Mn1233 O1238 2.251 . S
Mn1233 O1239 2.087 . S
O1234 Mn1228 2.163 . S
O1234 C1244 1.244 . S
O1235 Mn1233 2.089 . S
O1235 C1242 1.256 . S
O1236 Mn1228 2.160 . S
O1236 C1245 1.239 . S
O1237 Mn1230 2.089 . S
O1237 C1245 1.256 . S
O1238 Mn1233 2.251 . S
O1238 C1243 1.241 . S
O1239 Mn1233 2.087 . S
O1239 C1244 1.256 . S
C1240 O1246 1.278 . S
C1240 O1247 1.241 . S
C1241 O1227 1.244 . S
C1241 O1229 1.256 . S
C1242 O1231 1.239 . S
C1242 O1235 1.256 . S
C1243 O1232 1.278 . S
C1243 O1238 1.241 . S
C1244 O1234 1.244 . S
C1244 O1239 1.256 . S
C1245 O1236 1.239 . S
C1245 O1237 1.256 . S
O1246 Mn1228 2.221 . S
O1246 Mn1230 2.290 . S
O1246 C1240 1.278 . S
O1247 Mn1230 2.251 . S
O1247 C1240 1.241 . S
O1248 Mn1249 2.163 . S
O1248 C1262 1.244 . S
Mn1249 O1248 2.163 . S
Mn1249 O1252 2.160 . S
Mn1249 O1253 2.221 . S
Mn1249 O1255 2.163 . S
Mn1249 O1257 2.160 . S
Mn1249 O1267 2.221 . S
O1250 Mn1251 2.087 . S
O1250 C1262 1.256 . S
Mn1251 O1250 2.087 . S
Mn1251 O1258 2.089 . S
Mn1251 O1267 2.290 . S
Mn1251 O1268 2.251 . S
O1252 Mn1249 2.160 . S
O1252 C1263 1.239 . S
O1253 Mn1249 2.221 . S
O1253 Mn1254 2.290 . S
O1253 C1264 1.278 . S
Mn1254 O1253 2.290 . S
Mn1254 O1256 2.089 . S
Mn1254 O1259 2.251 . S
Mn1254 O1260 2.087 . S
O1255 Mn1249 2.163 . S
O1255 C1265 1.244 . S
O1256 Mn1254 2.089 . S
O1256 C1263 1.256 . S
O1257 Mn1249 2.160 . S
O1257 C1266 1.239 . S
O1258 Mn1251 2.089 . S
O1258 C1266 1.256 . S
O1259 Mn1254 2.251 . S
O1259 C1264 1.241 . S
O1260 Mn1254 2.087 . S
O1260 C1265 1.256 . S
C1261 O1267 1.278 . S
C1261 O1268 1.241 . S
C1262 O1248 1.244 . S
C1262 O1250 1.256 . S
C1263 O1252 1.239 . S
C1263 O1256 1.256 . S
C1264 O1253 1.278 . S
C1264 O1259 1.241 . S
C1265 O1255 1.244 . S
C1265 O1260 1.256 . S
C1266 O1257 1.239 . S
C1266 O1258 1.256 . S
O1267 Mn1249 2.221 . S
O1267 Mn1251 2.290 . S
O1267 C1261 1.278 . S
O1268 Mn1251 2.251 . S
O1268 C1261 1.241 . S
H1269 C1275 0.930 . S
H1270 C1279 0.930 1_556 S
H1271 C1284 0.929 . S
H1272 C1282 0.929 . S
H1273 C1277 0.929 . S
H1274 C1283 0.929 . S
C1275 H1269 0.930 . S
C1275 C1276 1.367 . S
C1275 C1283 1.378 . S
C1276 C1275 1.367 . S
C1276 C1284 1.433 . S
C1277 H1273 0.929 . S
C1277 C1279 1.378 . S
C1277 C1281 1.350 . S
C1278 C1281 1.463 . S
C1278 C1283 1.350 . S
C1278 N1286 1.427 . S
C1279 H1270 0.930 1_554 S
C1279 C1277 1.378 . S
C1279 C1280 1.367 . S
C1280 C1279 1.367 . S
C1280 C1282 1.433 . S
C1281 C1277 1.350 . S
C1281 C1278 1.463 . S
C1281 N1285 1.427 . S
C1282 H1272 0.929 . S
C1282 C1280 1.433 . S
C1282 N1285 1.384 . S
C1283 H1274 0.929 . S
C1283 C1275 1.378 . S
C1283 C1278 1.350 . S
C1284 H1271 0.929 . S
C1284 C1276 1.433 . S
C1284 N1286 1.384 . S
N1285 C1281 1.427 . S
N1285 C1282 1.384 . S
N1286 C1278 1.427 . S
N1286 C1284 1.384 . S
H1287 C1293 0.930 . S
H1288 C1297 0.930 . S
H1289 C1302 0.929 . S
H1290 C1300 0.929 . S
H1291 C1295 0.929 . S
H1292 C1301 0.929 . S
C1293 H1287 0.930 . S
C1293 C1294 1.367 . S
C1293 C1301 1.378 . S
C1294 C1293 1.367 . S
C1294 C1302 1.433 . S
C1295 H1291 0.929 . S
C1295 C1297 1.378 . S
C1295 C1299 1.350 . S
C1296 C1299 1.463 . S
C1296 C1301 1.350 . S
C1296 N1304 1.427 . S
C1297 H1288 0.930 . S
C1297 C1295 1.378 . S
C1297 C1298 1.367 . S
C1298 C1297 1.367 . S
C1298 C1300 1.433 . S
C1299 C1295 1.350 . S
C1299 C1296 1.463 . S
C1299 N1303 1.427 . S
C1300 H1290 0.929 . S
C1300 C1298 1.433 . S
C1300 N1303 1.384 . S
C1301 H1292 0.929 . S
C1301 C1293 1.378 . S
C1301 C1296 1.350 . S
C1302 H1289 0.929 . S
C1302 C1294 1.433 . S
C1302 N1304 1.384 . S
N1303 C1299 1.427 . S
N1303 C1300 1.384 . S
N1304 C1296 1.427 . S
N1304 C1302 1.384 . S
H1305 C1311 0.930 1_556 S
H1306 C1315 0.930 . S
H1307 C1320 0.929 . S
H1308 C1318 0.929 . S
H1309 C1313 0.929 . S
H1310 C1319 0.929 1_556 S
C1311 H1305 0.930 1_554 S
C1311 C1312 1.367 . S
C1311 C1319 1.378 . S
C1312 C1311 1.367 . S
C1312 C1320 1.433 . S
C1313 H1309 0.929 . S
C1313 C1315 1.378 . S
C1313 C1317 1.350 . S
C1314 C1317 1.463 . S
C1314 C1319 1.350 . S
C1314 N1322 1.427 . S
C1315 H1306 0.930 . S
C1315 C1313 1.378 . S
C1315 C1316 1.367 . S
C1316 C1315 1.367 . S
C1316 C1318 1.433 1_554 S
C1317 C1313 1.350 . S
C1317 C1314 1.463 . S
C1317 N1321 1.475 . S
C1318 H1308 0.929 . S
C1318 C1316 1.433 1_556 S
C1318 N1321 1.378 1_556 S
C1319 H1310 0.929 1_554 S
C1319 C1311 1.378 . S
C1319 C1314 1.350 . S
C1320 H1307 0.929 . S
C1320 C1312 1.433 . S
C1320 N1322 1.384 . S
N1321 C1317 1.475 . S
N1321 C1318 1.378 1_554 S
N1322 C1314 1.427 . S
N1322 C1320 1.384 . S
H1323 C1329 0.930 1_554 S
H1324 C1333 0.930 . S
H1325 C1338 0.929 . S
H1326 C1336 0.929 . S
H1327 C1331 0.929 . S
H1328 C1337 0.929 1_554 S
C1329 H1323 0.930 1_556 S
C1329 C1330 1.367 . S
C1329 C1337 1.378 . S
C1330 C1329 1.367 . S
C1330 C1338 1.433 . S
C1331 H1327 0.929 . S
C1331 C1333 1.378 . S
C1331 C1335 1.350 . S
C1332 C1335 1.463 . S
C1332 C1337 1.350 . S
C1332 N1340 1.427 . S
C1333 H1324 0.930 . S
C1333 C1331 1.378 . S
C1333 C1334 1.367 . S
C1334 C1333 1.367 . S
C1334 C1336 1.433 1_556 S
C1335 C1331 1.350 . S
C1335 C1332 1.463 . S
C1335 N1339 1.427 1_556 S
C1336 H1326 0.929 . S
C1336 C1334 1.433 1_554 S
C1336 N1339 1.384 . S
C1337 H1328 0.929 1_556 S
C1337 C1329 1.378 . S
C1337 C1332 1.350 . S
C1338 H1325 0.929 . S
C1338 C1330 1.433 . S
C1338 N1340 1.384 . S
N1339 C1335 1.427 1_554 S
N1339 C1336 1.384 . S
N1340 C1332 1.427 . S
N1340 C1338 1.384 . S
H1341 C1347 0.930 . S
H1342 C1351 0.930 . S
H1343 C1356 0.929 1_554 S
H1344 C1354 0.929 . S
H1345 C1349 0.929 . S
H1346 C1355 0.929 . S
C1347 H1341 0.930 . S
C1347 C1348 1.367 . S
C1347 C1355 1.378 . S
C1348 C1347 1.367 . S
C1348 C1356 1.433 . S
C1349 H1345 0.929 . S
C1349 C1351 1.378 . S
C1349 C1353 1.350 1_554 S
C1350 C1353 1.463 . S
C1350 C1355 1.350 . S
C1350 N1358 1.427 . S
C1351 H1342 0.930 . S
C1351 C1349 1.378 . S
C1351 C1352 1.367 1_554 S
C1352 C1351 1.367 1_556 S
C1352 C1354 1.433 . S
C1353 C1349 1.350 1_556 S
C1353 C1350 1.463 . S
C1353 N1357 1.427 . S
C1354 H1344 0.929 . S
C1354 C1352 1.433 . S
C1354 N1357 1.384 . S
C1355 H1346 0.929 . S
C1355 C1347 1.378 . S
C1355 C1350 1.350 . S
C1356 H1343 0.929 1_556 S
C1356 C1348 1.433 . S
C1356 N1358 1.384 . S
N1357 C1353 1.427 . S
N1357 C1354 1.384 . S
N1358 C1350 1.427 . S
N1358 C1356 1.384 . S
H1359 C1365 0.930 1_554 S
H1360 C1369 0.930 . S
H1361 C1374 0.929 . S
H1362 C1372 0.929 . S
H1363 C1367 0.929 . S
H1364 C1373 0.917 1_554 S
C1365 H1359 0.930 1_556 S
C1365 C1366 1.367 . S
C1365 C1373 1.379 . S
C1366 C1365 1.367 . S
C1366 C1374 1.433 . S
C1367 H1363 0.929 . S
C1367 C1369 1.378 . S
C1367 C1371 1.350 . S
C1368 C1371 1.463 . S
C1368 C1373 1.360 . S
C1368 N1376 1.427 . S
C1369 H1360 0.930 . S
C1369 C1367 1.378 . S
C1369 C1370 1.367 . S
C1370 C1369 1.367 . S
C1370 C1372 1.433 1_556 S
C1371 C1367 1.350 . S
C1371 C1368 1.463 . S
C1371 N1375 1.427 1_556 S
C1372 H1362 0.929 . S
C1372 C1370 1.433 1_554 S
C1372 N1375 1.384 . S
C1373 H1364 0.917 1_556 S
C1373 C1365 1.379 . S
C1373 C1368 1.360 . S
C1374 H1361 0.929 . S
C1374 C1366 1.433 . S
C1374 N1376 1.384 . S
N1375 C1371 1.427 1_554 S
N1375 C1372 1.384 . S
N1376 C1368 1.427 . S
N1376 C1374 1.384 . S
H1377 C1383 0.930 1_554 S
H1378 C1387 0.930 . S
H1379 C1392 0.929 . S
H1380 C1390 0.929 . S
H1381 C1385 0.929 . S
H1382 C1391 0.929 1_554 S
C1383 H1377 0.930 1_556 S
C1383 C1384 1.367 . S
C1383 C1391 1.378 . S
C1384 C1383 1.367 . S
C1384 C1392 1.433 . S
C1385 H1381 0.929 . S
C1385 C1387 1.378 . S
C1385 C1389 1.350 . S
C1386 C1389 1.463 . S
C1386 C1391 1.350 . S
C1386 N1394 1.427 . S
C1387 H1378 0.930 . S
C1387 C1385 1.378 . S
C1387 C1388 1.367 . S
C1388 C1387 1.367 . S
C1388 C1390 1.433 1_556 S
C1389 C1385 1.350 . S
C1389 C1386 1.463 . S
C1389 N1393 1.427 1_556 S
C1390 H1380 0.929 . S
C1390 C1388 1.433 1_554 S
C1390 N1393 1.384 . S
C1391 H1382 0.929 1_556 S
C1391 C1383 1.378 . S
C1391 C1386 1.350 . S
C1392 H1379 0.929 . S
C1392 C1384 1.433 . S
C1392 N1394 1.384 . S
N1393 C1389 1.427 1_554 S
N1393 C1390 1.384 . S
N1394 C1386 1.427 . S
N1394 C1392 1.384 . S
H1395 C1401 0.930 . S
H1396 C1405 0.950 . S
H1397 C1410 0.929 . S
H1398 C1408 0.929 . S
H1399 C1403 0.929 1_554 S
H1400 C1409 0.929 . S
C1401 H1395 0.930 . S
C1401 C1402 1.367 . S
C1401 C1409 1.378 . S
C1402 C1401 1.367 . S
C1402 C1410 1.433 . S
C1403 H1399 0.929 1_556 S
C1403 C1405 1.373 1_556 S
C1403 C1407 1.350 . S
C1404 C1407 1.463 . S
C1404 C1409 1.350 . S
C1404 N1412 1.427 . S
C1405 H1396 0.950 . S
C1405 C1403 1.373 1_554 S
C1405 C1406 1.354 1_554 S
C1406 C1405 1.354 1_556 S
C1406 C1408 1.433 . S
C1407 C1403 1.350 . S
C1407 C1404 1.463 . S
C1407 N1411 1.427 . S
C1408 H1398 0.929 . S
C1408 C1406 1.433 . S
C1408 N1411 1.384 . S
C1409 H1400 0.929 . S
C1409 C1401 1.378 . S
C1409 C1404 1.350 . S
C1410 H1397 0.929 . S
C1410 C1402 1.433 . S
C1410 N1412 1.384 . S
N1411 C1407 1.427 . S
N1411 C1408 1.384 . S
N1412 C1404 1.427 . S
N1412 C1410 1.384 . S
H1413 C1419 0.930 . S
H1414 C1423 0.930 . S
H1415 C1428 0.929 . S
H1416 C1426 0.929 . S
H1417 C1421 0.929 . S
H1418 C1427 0.929 . S
C1419 H1413 0.930 . S
C1419 C1420 1.367 . S
C1419 C1427 1.378 . S
C1420 C1419 1.367 . S
C1420 C1428 1.433 . S
C1421 H1417 0.929 . S
C1421 C1423 1.378 . S
C1421 C1425 1.350 . S
C1422 C1425 1.463 . S
C1422 C1427 1.350 . S
C1422 N1430 1.427 . S
C1423 H1414 0.930 . S
C1423 C1421 1.378 . S
C1423 C1424 1.367 . S
C1424 C1423 1.367 . S
C1424 C1426 1.433 . S
C1425 C1421 1.350 . S
C1425 C1422 1.463 . S
C1425 N1429 1.427 . S
C1426 H1416 0.929 . S
C1426 C1424 1.433 . S
C1426 N1429 1.384 . S
C1427 H1418 0.929 . S
C1427 C1419 1.378 . S
C1427 C1422 1.350 . S
C1428 H1415 0.929 . S
C1428 C1420 1.433 . S
C1428 N1430 1.384 . S
N1429 C1425 1.427 . S
N1429 C1426 1.384 . S
N1430 C1422 1.427 . S
N1430 C1428 1.384 . S
H1431 C1437 0.930 . S
H1432 C1441 0.930 . S
H1433 C1446 0.929 1_556 S
H1434 C1444 0.929 . S
H1435 C1439 0.929 . S
H1436 C1445 0.929 . S
C1437 H1431 0.930 . S
C1437 C1438 1.367 . S
C1437 C1445 1.378 . S
C1438 C1437 1.367 . S
C1438 C1446 1.433 . S
C1439 H1435 0.929 . S
C1439 C1441 1.378 . S
C1439 C1443 1.350 1_556 S
C1440 C1443 1.463 . S
C1440 C1445 1.350 . S
C1440 N1448 1.427 . S
C1441 H1432 0.930 . S
C1441 C1439 1.378 . S
C1441 C1442 1.367 1_556 S
C1442 C1441 1.367 1_554 S
C1442 C1444 1.433 . S
C1443 C1439 1.350 1_554 S
C1443 C1440 1.463 . S
C1443 N1447 1.427 . S
C1444 H1434 0.929 . S
C1444 C1442 1.433 . S
C1444 N1447 1.384 . S
C1445 H1436 0.929 . S
C1445 C1437 1.378 . S
C1445 C1440 1.350 . S
C1446 H1433 0.929 1_554 S
C1446 C1438 1.433 . S
C1446 N1448 1.384 . S
N1447 C1443 1.427 . S
N1447 C1444 1.384 . S
N1448 C1440 1.427 . S
N1448 C1446 1.384 . S
H1449 C1455 0.930 . S
H1450 C1459 0.930 . S
H1451 C1464 0.932 1_556 S
H1452 C1462 0.929 . S
H1453 C1457 0.961 . S
H1454 C1463 0.929 . S
C1455 H1449 0.930 . S
C1455 C1456 1.367 . S
C1455 C1463 1.378 . S
C1456 C1455 1.367 . S
C1456 C1464 1.433 . S
C1457 H1453 0.961 . S
C1457 C1459 1.387 . S
C1457 C1461 1.310 1_556 S
C1458 C1461 1.463 . S
C1458 C1463 1.350 . S
C1458 N1466 1.427 . S
C1459 H1450 0.930 . S
C1459 C1457 1.387 . S
C1459 C1460 1.367 1_556 S
C1460 C1459 1.367 1_554 S
C1460 C1462 1.433 . S
C1461 C1457 1.310 1_554 S
C1461 C1458 1.463 . S
C1461 N1465 1.427 . S
C1462 H1452 0.929 . S
C1462 C1460 1.433 . S
C1462 N1465 1.384 . S
C1463 H1454 0.929 . S
C1463 C1455 1.378 . S
C1463 C1458 1.350 . S
C1464 H1451 0.932 1_554 S
C1464 C1456 1.433 . S
C1464 N1466 1.384 . S
N1465 C1461 1.427 . S
N1465 C1462 1.384 . S
N1466 C1458 1.427 . S
N1466 C1464 1.384 . S
H1467 C1473 0.930 . S
H1468 C1477 0.909 1_556 S
H1469 C1482 0.929 . S
H1470 C1480 0.929 . S
H1471 C1475 0.929 . S
H1472 C1481 0.929 . S
C1473 H1467 0.930 . S
C1473 C1474 1.367 . S
C1473 C1481 1.378 . S
C1474 C1473 1.367 . S
C1474 C1482 1.433 . S
C1475 H1471 0.929 . S
C1475 C1477 1.378 . S
C1475 C1479 1.350 . S
C1476 C1479 1.463 . S
C1476 C1481 1.350 . S
C1476 N1484 1.427 . S
C1477 H1468 0.909 1_554 S
C1477 C1475 1.378 . S
C1477 C1478 1.367 . S
C1478 C1477 1.367 . S
C1478 C1480 1.433 . S
C1479 C1475 1.350 . S
C1479 C1476 1.463 . S
C1479 N1483 1.427 . S
C1480 H1470 0.929 . S
C1480 C1478 1.433 . S
C1480 N1483 1.384 . S
C1481 H1472 0.929 . S
C1481 C1473 1.378 . S
C1481 C1476 1.350 . S
C1482 H1469 0.929 . S
C1482 C1474 1.433 . S
C1482 N1484 1.384 . S
N1483 C1479 1.427 . S
N1483 C1480 1.384 . S
N1484 C1476 1.427 . S
N1484 C1482 1.384 . S
H1485 C1491 0.930 . S
H1486 C1495 0.930 . S
H1487 C1500 0.929 . S
H1488 C1498 0.929 . S
H1489 C1493 0.929 . S
H1490 C1499 0.929 . S
C1491 H1485 0.930 . S
C1491 C1492 1.367 . S
C1491 C1499 1.378 1_655 S
C1492 C1491 1.367 . S
C1492 C1500 1.433 . S
C1493 H1489 0.929 . S
C1493 C1495 1.378 . S
C1493 C1497 1.350 . S
C1494 C1497 1.463 . S
C1494 C1499 1.350 . S
C1494 N1502 1.427 . S
C1495 H1486 0.930 . S
C1495 C1493 1.378 . S
C1495 C1496 1.367 . S
C1496 C1495 1.367 . S
C1496 C1498 1.433 . S
C1497 C1493 1.350 . S
C1497 C1494 1.463 . S
C1497 N1501 1.427 . S
C1498 H1488 0.929 . S
C1498 C1496 1.433 . S
C1498 N1501 1.384 . S
C1499 H1490 0.929 . S
C1499 C1491 1.378 1_455 S
C1499 C1494 1.350 . S
C1500 H1487 0.929 . S
C1500 C1492 1.433 . S
C1500 N1502 1.384 1_655 S
N1501 C1497 1.427 . S
N1501 C1498 1.384 . S
N1502 C1494 1.427 . S
N1502 C1500 1.384 1_455 S
H1503 C1509 0.930 . S
H1504 C1513 0.930 . S
H1505 C1518 0.929 . S
H1506 C1516 0.929 . S
H1507 C1511 0.929 . S
H1508 C1517 0.929 . S
C1509 H1503 0.930 . S
C1509 C1510 1.367 . S
C1509 C1517 1.378 . S
C1510 C1509 1.367 . S
C1510 C1518 1.433 . S
C1511 H1507 0.929 . S
C1511 C1513 1.378 . S
C1511 C1515 1.350 . S
C1512 C1515 1.463 . S
C1512 C1517 1.350 . S
C1512 N1520 1.427 . S
C1513 H1504 0.930 . S
C1513 C1511 1.378 . S
C1513 C1514 1.367 . S
C1514 C1513 1.367 . S
C1514 C1516 1.433 . S
C1515 C1511 1.350 . S
C1515 C1512 1.463 . S
C1515 N1519 1.427 . S
C1516 H1506 0.929 . S
C1516 C1514 1.433 . S
C1516 N1519 1.384 . S
C1517 H1508 0.929 . S
C1517 C1509 1.378 . S
C1517 C1512 1.350 . S
C1518 H1505 0.929 . S
C1518 C1510 1.433 . S
C1518 N1520 1.384 . S
N1519 C1515 1.427 . S
N1519 C1516 1.384 . S
N1520 C1512 1.427 . S
N1520 C1518 1.384 . S
H1521 C1527 0.930 . S
H1522 C1531 0.930 . S
H1523 C1536 0.929 . S
H1524 C1534 0.929 . S
H1525 C1529 0.929 . S
H1526 C1535 0.929 . S
C1527 H1521 0.930 . S
C1527 C1528 1.367 . S
C1527 C1535 1.378 1_545 S
C1528 C1527 1.367 . S
C1528 C1536 1.433 . S
C1529 H1525 0.929 . S
C1529 C1531 1.378 . S
C1529 C1533 1.350 . S
C1530 C1533 1.463 . S
C1530 C1535 1.350 . S
C1530 N1538 1.427 . S
C1531 H1522 0.930 . S
C1531 C1529 1.378 . S
C1531 C1532 1.367 . S
C1532 C1531 1.367 . S
C1532 C1534 1.433 . S
C1533 C1529 1.350 . S
C1533 C1530 1.463 . S
C1533 N1537 1.427 . S
C1534 H1524 0.929 . S
C1534 C1532 1.433 . S
C1534 N1537 1.384 . S
C1535 H1526 0.929 . S
C1535 C1527 1.378 1_565 S
C1535 C1530 1.350 . S
C1536 H1523 0.929 . S
C1536 C1528 1.433 . S
C1536 N1538 1.384 1_545 S
N1537 C1533 1.427 . S
N1537 C1534 1.384 . S
N1538 C1530 1.427 . S
N1538 C1536 1.384 1_565 S
H1539 C1545 0.930 . S
H1540 C1549 0.930 . S
H1541 C1554 0.929 . S
H1542 C1552 0.929 . S
H1543 C1547 0.929 . S
H1544 C1553 0.929 . S
C1545 H1539 0.930 . S
C1545 C1546 1.367 . S
C1545 C1553 1.378 . S
C1546 C1545 1.367 . S
C1546 C1554 1.433 . S
C1547 H1543 0.929 . S
C1547 C1549 1.378 . S
C1547 C1551 1.350 . S
C1548 C1551 1.463 . S
C1548 C1553 1.350 . S
C1548 N1556 1.427 . S
C1549 H1540 0.930 . S
C1549 C1547 1.378 . S
C1549 C1550 1.367 . S
C1550 C1549 1.367 . S
C1550 C1552 1.433 . S
C1551 C1547 1.350 . S
C1551 C1548 1.463 . S
C1551 N1555 1.427 . S
C1552 H1542 0.929 . S
C1552 C1550 1.433 . S
C1552 N1555 1.384 . S
C1553 H1544 0.929 . S
C1553 C1545 1.378 . S
C1553 C1548 1.350 . S
C1554 H1541 0.929 . S
C1554 C1546 1.433 . S
C1554 N1556 1.384 . S
N1555 C1551 1.427 . S
N1555 C1552 1.384 . S
N1556 C1548 1.427 . S
N1556 C1554 1.384 . S
H1557 C1563 0.930 . S
H1558 C1567 0.930 . S
H1559 C1572 0.929 . S
H1560 C1570 0.929 . S
H1561 C1565 0.929 . S
H1562 C1571 0.929 . S
C1563 H1557 0.930 . S
C1563 C1564 1.367 . S
C1563 C1571 1.378 . S
C1564 C1563 1.367 . S
C1564 C1572 1.433 . S
C1565 H1561 0.929 . S
C1565 C1567 1.378 . S
C1565 C1569 1.350 . S
C1566 C1569 1.463 . S
C1566 C1571 1.350 . S
C1566 N1574 1.427 . S
C1567 H1558 0.930 . S
C1567 C1565 1.378 . S
C1567 C1568 1.367 . S
C1568 C1567 1.367 . S
C1568 C1570 1.433 . S
C1569 C1565 1.350 . S
C1569 C1566 1.463 . S
C1569 N1573 1.427 . S
C1570 H1560 0.929 . S
C1570 C1568 1.433 . S
C1570 N1573 1.384 . S
C1571 H1562 0.929 . S
C1571 C1563 1.378 . S
C1571 C1566 1.350 . S
C1572 H1559 0.929 . S
C1572 C1564 1.433 . S
C1572 N1574 1.384 . S
N1573 C1569 1.427 . S
N1573 C1570 1.384 . S
N1574 C1566 1.427 . S
N1574 C1572 1.384 . S
H1575 C1581 0.930 . S
H1576 C1585 0.930 . S
H1577 C1590 0.929 . S
H1578 C1588 0.929 . S
H1579 C1583 0.929 . S
H1580 C1589 0.929 . S
C1581 H1575 0.930 . S
C1581 C1582 1.367 . S
C1581 C1589 1.378 . S
C1582 C1581 1.367 . S
C1582 C1590 1.433 . S
C1583 H1579 0.929 . S
C1583 C1585 1.378 . S
C1583 C1587 1.350 . S
C1584 C1587 1.463 . S
C1584 C1589 1.350 . S
C1584 N1592 1.427 . S
C1585 H1576 0.930 . S
C1585 C1583 1.378 . S
C1585 C1586 1.367 . S
C1586 C1585 1.367 . S
C1586 C1588 1.433 . S
C1587 C1583 1.350 . S
C1587 C1584 1.463 . S
C1587 N1591 1.427 . S
C1588 H1578 0.929 . S
C1588 C1586 1.433 . S
C1588 N1591 1.384 . S
C1589 H1580 0.929 . S
C1589 C1581 1.378 . S
C1589 C1584 1.350 . S
C1590 H1577 0.929 . S
C1590 C1582 1.433 . S
C1590 N1592 1.384 . S
N1591 C1587 1.427 . S
N1591 C1588 1.384 . S
N1592 C1584 1.427 . S
N1592 C1590 1.384 . S
H1593 C1599 0.930 . S
H1594 C1603 0.930 . S
H1595 C1608 0.929 . S
H1596 C1606 0.929 . S
H1597 C1601 0.929 . S
H1598 C1607 0.929 . S
C1599 H1593 0.930 . S
C1599 C1600 1.367 . S
C1599 C1607 1.378 . S
C1600 C1599 1.367 . S
C1600 C1608 1.433 . S
C1601 H1597 0.929 . S
C1601 C1603 1.378 . S
C1601 C1605 1.350 . S
C1602 C1605 1.463 . S
C1602 C1607 1.350 . S
C1602 N1610 1.427 . S
C1603 H1594 0.930 . S
C1603 C1601 1.378 . S
C1603 C1604 1.367 . S
C1604 C1603 1.367 . S
C1604 C1606 1.433 . S
C1605 C1601 1.350 . S
C1605 C1602 1.463 . S
C1605 N1609 1.427 . S
C1606 H1596 0.929 . S
C1606 C1604 1.433 . S
C1606 N1609 1.384 . S
C1607 H1598 0.929 . S
C1607 C1599 1.378 . S
C1607 C1602 1.350 . S
C1608 H1595 0.929 . S
C1608 C1600 1.433 . S
C1608 N1610 1.384 . S
N1609 C1605 1.427 . S
N1609 C1606 1.384 . S
N1610 C1602 1.427 . S
N1610 C1608 1.384 . S
H1611 C1617 0.930 . S
H1612 C1621 0.930 . S
H1613 C1626 0.929 . S
H1614 C1624 0.929 . S
H1615 C1619 0.929 . S
H1616 C1625 0.929 . S
C1617 H1611 0.930 . S
C1617 C1618 1.367 . S
C1617 C1625 1.378 . S
C1618 C1617 1.367 . S
C1618 C1626 1.433 . S
C1619 H1615 0.929 . S
C1619 C1621 1.378 . S
C1619 C1623 1.350 . S
C1620 C1623 1.463 . S
C1620 C1625 1.350 . S
C1620 N1628 1.427 . S
C1621 H1612 0.930 . S
C1621 C1619 1.378 . S
C1621 C1622 1.367 . S
C1622 C1621 1.367 . S
C1622 C1624 1.433 . S
C1623 C1619 1.350 . S
C1623 C1620 1.463 . S
C1623 N1627 1.427 . S
C1624 H1614 0.929 . S
C1624 C1622 1.433 . S
C1624 N1627 1.384 . S
C1625 H1616 0.929 . S
C1625 C1617 1.378 . S
C1625 C1620 1.350 . S
C1626 H1613 0.929 . S
C1626 C1618 1.433 . S
C1626 N1628 1.384 . S
N1627 C1623 1.427 . S
N1627 C1624 1.384 . S
N1628 C1620 1.427 . S
N1628 C1626 1.384 . S
H1629 C1635 0.930 . S
H1630 C1639 0.930 . S
H1631 C1644 0.929 . S
H1632 C1642 0.929 . S
H1633 C1637 0.929 . S
H1634 C1643 0.929 . S
C1635 H1629 0.930 . S
C1635 C1636 1.367 . S
C1635 C1643 1.378 . S
C1636 C1635 1.367 . S
C1636 C1644 1.433 . S
C1637 H1633 0.929 . S
C1637 C1639 1.378 . S
C1637 C1641 1.350 . S
C1638 C1641 1.463 . S
C1638 C1643 1.350 . S
C1638 N1646 1.427 . S
C1639 H1630 0.930 . S
C1639 C1637 1.378 . S
C1639 C1640 1.367 . S
C1640 C1639 1.367 . S
C1640 C1642 1.433 . S
C1641 C1637 1.350 . S
C1641 C1638 1.463 . S
C1641 N1645 1.427 . S
C1642 H1632 0.929 . S
C1642 C1640 1.433 . S
C1642 N1645 1.384 . S
C1643 H1634 0.929 . S
C1643 C1635 1.378 . S
C1643 C1638 1.350 . S
C1644 H1631 0.929 . S
C1644 C1636 1.433 . S
C1644 N1646 1.384 . S
N1645 C1641 1.427 . S
N1645 C1642 1.384 . S
N1646 C1638 1.427 . S
N1646 C1644 1.384 . S
H1647 C1653 0.930 . S
H1648 C1657 0.930 . S
H1649 C1662 0.929 . S
H1650 C1660 0.929 . S
H1651 C1655 0.929 . S
H1652 C1661 0.929 . S
C1653 H1647 0.930 . S
C1653 C1654 1.367 . S
C1653 C1661 1.378 1_545 S
C1654 C1653 1.367 . S
C1654 C1662 1.433 . S
C1655 H1651 0.929 . S
C1655 C1657 1.378 . S
C1655 C1659 1.350 . S
C1656 C1659 1.463 . S
C1656 C1661 1.350 . S
C1656 N1664 1.427 . S
C1657 H1648 0.930 . S
C1657 C1655 1.378 . S
C1657 C1658 1.367 . S
C1658 C1657 1.367 . S
C1658 C1660 1.433 . S
C1659 C1655 1.350 . S
C1659 C1656 1.463 . S
C1659 N1663 1.427 . S
C1660 H1650 0.929 . S
C1660 C1658 1.433 . S
C1660 N1663 1.384 . S
C1661 H1652 0.929 . S
C1661 C1653 1.378 1_565 S
C1661 C1656 1.350 . S
C1662 H1649 0.929 . S
C1662 C1654 1.433 . S
C1662 N1664 1.384 1_545 S
N1663 C1659 1.427 . S
N1663 C1660 1.384 . S
N1664 C1656 1.427 . S
N1664 C1662 1.384 1_565 S
H1665 C1671 0.930 . S
H1666 C1675 0.930 . S
H1667 C1680 0.929 . S
H1668 C1678 0.929 . S
H1669 C1673 0.929 . S
H1670 C1679 0.929 . S
C1671 H1665 0.930 . S
C1671 C1672 1.367 . S
C1671 C1679 1.378 1_655 S
C1672 C1671 1.367 . S
C1672 C1680 1.433 . S
C1673 H1669 0.929 . S
C1673 C1675 1.378 . S
C1673 C1677 1.350 . S
C1674 C1677 1.463 . S
C1674 C1679 1.350 . S
C1674 N1682 1.427 . S
C1675 H1666 0.930 . S
C1675 C1673 1.378 . S
C1675 C1676 1.367 . S
C1676 C1675 1.367 . S
C1676 C1678 1.433 . S
C1677 C1673 1.350 . S
C1677 C1674 1.463 . S
C1677 N1681 1.427 . S
C1678 H1668 0.929 . S
C1678 C1676 1.433 . S
C1678 N1681 1.384 . S
C1679 H1670 0.929 . S
C1679 C1671 1.378 1_455 S
C1679 C1674 1.350 . S
C1680 H1667 0.929 . S
C1680 C1672 1.433 . S
C1680 N1682 1.384 1_655 S
N1681 C1677 1.427 . S
N1681 C1678 1.384 . S
N1682 C1674 1.427 . S
N1682 C1680 1.384 1_455 S
H1683 C1689 0.930 . S
H1684 C1693 0.930 . S
H1685 C1698 0.929 . S
H1686 C1696 0.929 . S
H1687 C1691 0.929 . S
H1688 C1697 0.929 . S
C1689 H1683 0.930 . S
C1689 C1690 1.367 . S
C1689 C1697 1.378 . S
C1690 C1689 1.367 . S
C1690 C1698 1.433 . S
C1691 H1687 0.929 . S
C1691 C1693 1.378 . S
C1691 C1695 1.350 . S
C1692 C1695 1.463 . S
C1692 C1697 1.350 . S
C1692 N1700 1.427 . S
C1693 H1684 0.930 . S
C1693 C1691 1.378 . S
C1693 C1694 1.367 . S
C1694 C1693 1.367 . S
C1694 C1696 1.433 . S
C1695 C1691 1.350 . S
C1695 C1692 1.463 . S
C1695 N1699 1.427 . S
C1696 H1686 0.929 . S
C1696 C1694 1.433 . S
C1696 N1699 1.384 . S
C1697 H1688 0.929 . S
C1697 C1689 1.378 . S
C1697 C1692 1.350 . S
C1698 H1685 0.929 . S
C1698 C1690 1.433 . S
C1698 N1700 1.384 . S
N1699 C1695 1.427 . S
N1699 C1696 1.384 . S
N1700 C1692 1.427 . S
N1700 C1698 1.384 . S
H1701 C1707 0.930 . S
H1702 C1711 0.930 . S
H1703 C1716 0.929 . S
H1704 C1714 0.929 . S
H1705 C1709 0.929 . S
H1706 C1715 0.929 . S
C1707 H1701 0.930 . S
C1707 C1708 1.367 . S
C1707 C1715 1.378 . S
C1708 C1707 1.367 . S
C1708 C1716 1.433 . S
C1709 H1705 0.929 . S
C1709 C1711 1.378 . S
C1709 C1713 1.350 . S
C1710 C1713 1.463 . S
C1710 C1715 1.350 . S
C1710 N1718 1.427 . S
C1711 H1702 0.930 . S
C1711 C1709 1.378 . S
C1711 C1712 1.367 . S
C1712 C1711 1.367 . S
C1712 C1714 1.433 . S
C1713 C1709 1.350 . S
C1713 C1710 1.463 . S
C1713 N1717 1.427 . S
C1714 H1704 0.929 . S
C1714 C1712 1.433 . S
C1714 N1717 1.384 . S
C1715 H1706 0.929 . S
C1715 C1707 1.378 . S
C1715 C1710 1.350 . S
C1716 H1703 0.929 . S
C1716 C1708 1.433 . S
C1716 N1718 1.384 . S
N1717 C1713 1.427 . S
N1717 C1714 1.384 . S
N1718 C1710 1.427 . S
N1718 C1716 1.384 . S
H1719 C1725 0.930 . S
H1720 C1729 0.930 . S
H1721 C1734 0.929 . S
H1722 C1732 0.929 . S
H1723 C1727 0.929 . S
H1724 C1733 0.929 . S
C1725 H1719 0.930 . S
C1725 C1726 1.367 . S
C1725 C1733 1.378 . S
C1726 C1725 1.367 . S
C1726 C1734 1.433 . S
C1727 H1723 0.929 . S
C1727 C1729 1.378 . S
C1727 C1731 1.350 . S
C1728 C1731 1.463 . S
C1728 C1733 1.350 . S
C1728 N1736 1.427 . S
C1729 H1720 0.930 . S
C1729 C1727 1.378 . S
C1729 C1730 1.367 . S
C1730 C1729 1.367 . S
C1730 C1732 1.433 . S
C1731 C1727 1.350 . S
C1731 C1728 1.463 . S
C1731 N1735 1.427 . S
C1732 H1722 0.929 . S
C1732 C1730 1.433 . S
C1732 N1735 1.384 . S
C1733 H1724 0.929 . S
C1733 C1725 1.378 . S
C1733 C1728 1.350 . S
C1734 H1721 0.929 . S
C1734 C1726 1.433 . S
C1734 N1736 1.384 . S
N1735 C1731 1.427 . S
N1735 C1732 1.384 . S
N1736 C1728 1.427 . S
N1736 C1734 1.384 . S
H1737 C1743 0.930 . S
H1738 C1747 0.930 . S
H1739 C1752 0.929 . S
H1740 C1750 0.929 . S
H1741 C1745 0.929 . S
H1742 C1751 0.929 . S
C1743 H1737 0.930 . S
C1743 C1744 1.367 . S
C1743 C1751 1.378 . S
C1744 C1743 1.367 . S
C1744 C1752 1.433 . S
C1745 H1741 0.929 . S
C1745 C1747 1.378 . S
C1745 C1749 1.350 . S
C1746 C1749 1.463 . S
C1746 C1751 1.350 . S
C1746 N1754 1.427 . S
C1747 H1738 0.930 . S
C1747 C1745 1.378 . S
C1747 C1748 1.367 . S
C1748 C1747 1.367 . S
C1748 C1750 1.433 . S
C1749 C1745 1.350 . S
C1749 C1746 1.463 . S
C1749 N1753 1.427 . S
C1750 H1740 0.929 . S
C1750 C1748 1.433 . S
C1750 N1753 1.384 . S
C1751 H1742 0.929 . S
C1751 C1743 1.378 . S
C1751 C1746 1.350 . S
C1752 H1739 0.929 . S
C1752 C1744 1.433 . S
C1752 N1754 1.384 . S
N1753 C1749 1.427 . S
N1753 C1750 1.384 . S
N1754 C1746 1.427 . S
N1754 C1752 1.384 . S
H1755 C1761 0.930 . S
H1756 C1765 0.930 . S
H1757 C1770 0.929 . S
H1758 C1768 0.929 . S
H1759 C1763 0.929 . S
H1760 C1769 0.929 . S
C1761 H1755 0.930 . S
C1761 C1762 1.367 . S
C1761 C1769 1.378 1_565 S
C1762 C1761 1.367 . S
C1762 C1770 1.433 . S
C1763 H1759 0.929 . S
C1763 C1765 1.378 . S
C1763 C1767 1.350 . S
C1764 C1767 1.463 . S
C1764 C1769 1.350 . S
C1764 N1772 1.427 . S
C1765 H1756 0.930 . S
C1765 C1763 1.378 . S
C1765 C1766 1.367 . S
C1766 C1765 1.367 . S
C1766 C1768 1.433 . S
C1767 C1763 1.350 . S
C1767 C1764 1.463 . S
C1767 N1771 1.427 . S
C1768 H1758 0.929 . S
C1768 C1766 1.433 . S
C1768 N1771 1.384 . S
C1769 H1760 0.929 . S
C1769 C1761 1.378 1_545 S
C1769 C1764 1.350 . S
C1770 H1757 0.929 . S
C1770 C1762 1.433 . S
C1770 N1772 1.384 1_565 S
N1771 C1767 1.427 . S
N1771 C1768 1.384 . S
N1772 C1764 1.427 . S
N1772 C1770 1.384 1_545 S
H1773 C1779 0.930 . S
H1774 C1783 0.930 . S
H1775 C1788 0.929 . S
H1776 C1786 0.929 . S
H1777 C1781 0.929 . S
H1778 C1787 0.929 . S
C1779 H1773 0.930 . S
C1779 C1780 1.367 . S
C1779 C1787 1.378 1_455 S
C1780 C1779 1.367 . S
C1780 C1788 1.433 . S
C1781 H1777 0.929 . S
C1781 C1783 1.378 . S
C1781 C1785 1.350 . S
C1782 C1785 1.463 . S
C1782 C1787 1.350 . S
C1782 N1790 1.427 . S
C1783 H1774 0.930 . S
C1783 C1781 1.378 . S
C1783 C1784 1.367 . S
C1784 C1783 1.367 . S
C1784 C1786 1.433 . S
C1785 C1781 1.350 . S
C1785 C1782 1.463 . S
C1785 N1789 1.427 . S
C1786 H1776 0.929 . S
C1786 C1784 1.433 . S
C1786 N1789 1.384 . S
C1787 H1778 0.929 . S
C1787 C1779 1.378 1_655 S
C1787 C1782 1.350 . S
C1788 H1775 0.929 . S
C1788 C1780 1.433 . S
C1788 N1790 1.384 1_455 S
N1789 C1785 1.427 . S
N1789 C1786 1.384 . S
N1790 C1782 1.427 . S
N1790 C1788 1.384 1_655 S
H1791 C1797 0.930 . S
H1792 C1801 0.930 . S
H1793 C1806 0.929 . S
H1794 C1804 0.929 . S
H1795 C1799 0.929 . S
H1796 C1805 0.929 . S
C1797 H1791 0.930 . S
C1797 C1798 1.367 . S
C1797 C1805 1.378 . S
C1798 C1797 1.367 . S
C1798 C1806 1.433 . S
C1799 H1795 0.929 . S
C1799 C1801 1.378 . S
C1799 C1803 1.350 . S
C1800 C1803 1.463 . S
C1800 C1805 1.350 . S
C1800 N1808 1.427 . S
C1801 H1792 0.930 . S
C1801 C1799 1.378 . S
C1801 C1802 1.367 . S
C1802 C1801 1.367 . S
C1802 C1804 1.433 . S
C1803 C1799 1.350 . S
C1803 C1800 1.463 . S
C1803 N1807 1.427 . S
C1804 H1794 0.929 . S
C1804 C1802 1.433 . S
C1804 N1807 1.384 . S
C1805 H1796 0.929 . S
C1805 C1797 1.378 . S
C1805 C1800 1.350 . S
C1806 H1793 0.929 . S
C1806 C1798 1.433 . S
C1806 N1808 1.384 . S
N1807 C1803 1.427 . S
N1807 C1804 1.384 . S
N1808 C1800 1.427 . S
N1808 C1806 1.384 . S
H1809 C1815 0.930 . S
H1810 C1819 0.930 . S
H1811 C1824 0.929 . S
H1812 C1822 0.929 . S
H1813 C1817 0.929 . S
H1814 C1823 0.927 1_655 S
C1815 H1809 0.930 . S
C1815 C1816 1.367 . S
C1815 C1823 1.385 . S
C1816 C1815 1.367 . S
C1816 C1824 1.433 . S
C1817 H1813 0.929 . S
C1817 C1819 1.378 . S
C1817 C1821 1.350 . S
C1818 C1821 1.463 . S
C1818 C1823 1.344 1_655 S
C1818 N1826 1.427 . S
C1819 H1810 0.930 . S
C1819 C1817 1.378 . S
C1819 C1820 1.367 . S
C1820 C1819 1.367 . S
C1820 C1822 1.433 . S
C1821 C1817 1.350 . S
C1821 C1818 1.463 . S
C1821 N1825 1.427 . S
C1822 H1812 0.929 . S
C1822 C1820 1.433 . S
C1822 N1825 1.384 . S
C1823 H1814 0.927 1_455 S
C1823 C1815 1.385 . S
C1823 C1818 1.344 1_455 S
C1824 H1811 0.929 . S
C1824 C1816 1.433 . S
C1824 N1826 1.384 1_455 S
N1825 C1821 1.427 . S
N1825 C1822 1.384 . S
N1826 C1818 1.427 . S
N1826 C1824 1.384 1_655 S
H1827 C1833 0.930 . S
H1828 C1837 0.930 . S
H1829 C1842 0.929 . S
H1830 C1840 0.929 . S
H1831 C1835 0.929 . S
H1832 C1841 0.929 . S
C1833 H1827 0.930 . S
C1833 C1834 1.367 . S
C1833 C1841 1.378 . S
C1834 C1833 1.367 . S
C1834 C1842 1.433 . S
C1835 H1831 0.929 . S
C1835 C1837 1.378 . S
C1835 C1839 1.350 . S
C1836 C1839 1.463 . S
C1836 C1841 1.350 . S
C1836 N1844 1.427 . S
C1837 H1828 0.930 . S
C1837 C1835 1.378 . S
C1837 C1838 1.367 . S
C1838 C1837 1.367 . S
C1838 C1840 1.433 . S
C1839 C1835 1.350 . S
C1839 C1836 1.463 . S
C1839 N1843 1.427 . S
C1840 H1830 0.929 . S
C1840 C1838 1.433 . S
C1840 N1843 1.384 . S
C1841 H1832 0.929 . S
C1841 C1833 1.378 . S
C1841 C1836 1.350 . S
C1842 H1829 0.929 . S
C1842 C1834 1.433 . S
C1842 N1844 1.384 . S
N1843 C1839 1.427 . S
N1843 C1840 1.384 . S
N1844 C1836 1.427 . S
N1844 C1842 1.384 . S
H1845 C1851 0.930 . S
H1846 C1855 0.930 . S
H1847 C1860 0.929 . S
H1848 C1858 0.929 . S
H1849 C1853 0.929 . S
H1850 C1859 0.929 . S
C1851 H1845 0.930 . S
C1851 C1852 1.367 . S
C1851 C1859 1.378 1_565 S
C1852 C1851 1.367 . S
C1852 C1860 1.433 . S
C1853 H1849 0.929 . S
C1853 C1855 1.378 . S
C1853 C1857 1.350 . S
C1854 C1857 1.463 . S
C1854 C1859 1.350 . S
C1854 N1862 1.427 . S
C1855 H1846 0.930 . S
C1855 C1853 1.378 . S
C1855 C1856 1.367 . S
C1856 C1855 1.367 . S
C1856 C1858 1.433 . S
C1857 C1853 1.350 . S
C1857 C1854 1.463 . S
C1857 N1861 1.427 . S
C1858 H1848 0.929 . S
C1858 C1856 1.433 . S
C1858 N1861 1.384 . S
C1859 H1850 0.929 . S
C1859 C1851 1.378 1_545 S
C1859 C1854 1.350 . S
C1860 H1847 0.929 . S
C1860 C1852 1.433 . S
C1860 N1862 1.384 1_565 S
N1861 C1857 1.427 . S
N1861 C1858 1.384 . S
N1862 C1854 1.427 . S
N1862 C1860 1.384 1_545 S
H1863 C1869 0.930 . S
H1864 C1873 0.930 . S
H1865 C1878 0.929 . S
H1866 C1876 0.929 . S
H1867 C1871 0.929 . S
H1868 C1877 0.929 . S
C1869 H1863 0.930 . S
C1869 C1870 1.367 . S
C1869 C1877 1.378 . S
C1870 C1869 1.367 . S
C1870 C1878 1.433 . S
C1871 H1867 0.929 . S
C1871 C1873 1.378 . S
C1871 C1875 1.350 . S
C1872 C1875 1.463 . S
C1872 C1877 1.350 . S
C1872 N1880 1.427 . S
C1873 H1864 0.930 . S
C1873 C1871 1.378 . S
C1873 C1874 1.367 . S
C1874 C1873 1.367 . S
C1874 C1876 1.433 . S
C1875 C1871 1.350 . S
C1875 C1872 1.463 . S
C1875 N1879 1.427 . S
C1876 H1866 0.929 . S
C1876 C1874 1.433 . S
C1876 N1879 1.384 . S
C1877 H1868 0.929 . S
C1877 C1869 1.378 . S
C1877 C1872 1.350 . S
C1878 H1865 0.929 . S
C1878 C1870 1.433 . S
C1878 N1880 1.384 . S
N1879 C1875 1.427 . S
N1879 C1876 1.384 . S
N1880 C1872 1.427 . S
N1880 C1878 1.384 . S
H1881 C1887 0.930 . S
H1882 C1891 0.930 . S
H1883 C1896 0.929 . S
H1884 C1894 0.929 . S
H1885 C1889 0.929 . S
H1886 C1895 0.929 . S
C1887 H1881 0.930 . S
C1887 C1888 1.367 . S
C1887 C1895 1.378 . S
C1888 C1887 1.367 . S
C1888 C1896 1.433 . S
C1889 H1885 0.929 . S
C1889 C1891 1.378 . S
C1889 C1893 1.350 . S
C1890 C1893 1.463 . S
C1890 C1895 1.350 . S
C1890 N1898 1.427 . S
C1891 H1882 0.930 . S
C1891 C1889 1.378 . S
C1891 C1892 1.367 . S
C1892 C1891 1.367 . S
C1892 C1894 1.433 . S
C1893 C1889 1.350 . S
C1893 C1890 1.463 . S
C1893 N1897 1.427 . S
C1894 H1884 0.929 . S
C1894 C1892 1.433 . S
C1894 N1897 1.384 . S
C1895 H1886 0.929 . S
C1895 C1887 1.378 . S
C1895 C1890 1.350 . S
C1896 H1883 0.929 . S
C1896 C1888 1.433 . S
C1896 N1898 1.384 . S
N1897 C1893 1.427 . S
N1897 C1894 1.384 . S
N1898 C1890 1.427 . S
N1898 C1896 1.384 . S
H1899 C1905 0.930 . S
H1900 C1909 0.930 . S
H1901 C1914 0.929 . S
H1902 C1912 0.929 . S
H1903 C1907 0.929 . S
H1904 C1913 0.929 . S
C1905 H1899 0.930 . S
C1905 C1906 1.367 . S
C1905 C1913 1.378 . S
C1906 C1905 1.367 . S
C1906 C1914 1.433 . S
C1907 H1903 0.929 . S
C1907 C1909 1.378 . S
C1907 C1911 1.350 . S
C1908 C1911 1.463 . S
C1908 C1913 1.350 . S
C1908 N1916 1.427 . S
C1909 H1900 0.930 . S
C1909 C1907 1.378 . S
C1909 C1910 1.367 . S
C1910 C1909 1.367 . S
C1910 C1912 1.433 . S
C1911 C1907 1.350 . S
C1911 C1908 1.463 . S
C1911 N1915 1.427 . S
C1912 H1902 0.929 . S
C1912 C1910 1.433 . S
C1912 N1915 1.384 . S
C1913 H1904 0.929 . S
C1913 C1905 1.378 . S
C1913 C1908 1.350 . S
C1914 H1901 0.929 . S
C1914 C1906 1.433 . S
C1914 N1916 1.384 . S
N1915 C1911 1.427 . S
N1915 C1912 1.384 . S
N1916 C1908 1.427 . S
N1916 C1914 1.384 . S
H1917 C1923 0.930 . S
H1918 C1927 0.930 . S
H1919 C1932 0.923 1_545 S
H1920 C1930 0.929 . S
H1921 C1925 0.929 . S
H1922 C1931 0.929 . S
C1923 H1917 0.930 . S
C1923 C1924 1.367 . S
C1923 C1931 1.378 . S
C1924 C1923 1.367 . S
C1924 C1932 1.440 . S
C1925 H1921 0.929 . S
C1925 C1927 1.378 . S
C1925 C1929 1.350 1_545 S
C1926 C1929 1.463 . S
C1926 C1931 1.350 . S
C1926 N1934 1.427 1_565 S
C1927 H1918 0.930 . S
C1927 C1925 1.378 . S
C1927 C1928 1.375 . S
C1928 C1927 1.375 . S
C1928 C1930 1.423 1_545 S
C1929 C1925 1.350 1_565 S
C1929 C1926 1.463 . S
C1929 N1933 1.427 . S
C1930 H1920 0.929 . S
C1930 C1928 1.423 1_565 S
C1930 N1933 1.384 . S
C1931 H1922 0.929 . S
C1931 C1923 1.378 . S
C1931 C1926 1.350 . S
C1932 H1919 0.923 1_565 S
C1932 C1924 1.440 . S
C1932 N1934 1.383 1_565 S
N1933 C1929 1.427 . S
N1933 C1930 1.384 . S
N1934 C1926 1.427 1_545 S
N1934 C1932 1.383 1_545 S
H1935 C1941 0.930 . S
H1936 C1945 0.930 . S
H1937 C1950 0.929 1_655 S
H1938 C1948 0.929 . S
H1939 C1943 0.929 . S
H1940 C1949 0.929 . S
C1941 H1935 0.930 . S
C1941 C1942 1.367 . S
C1941 C1949 1.378 . S
C1942 C1941 1.367 . S
C1942 C1950 1.433 . S
C1943 H1939 0.929 . S
C1943 C1945 1.378 . S
C1943 C1947 1.350 1_655 S
C1944 C1947 1.463 . S
C1944 C1949 1.350 . S
C1944 N1952 1.427 1_455 S
C1945 H1936 0.930 . S
C1945 C1943 1.378 . S
C1945 C1946 1.367 1_655 S
C1946 C1945 1.367 1_455 S
C1946 C1948 1.433 . S
C1947 C1943 1.350 1_455 S
C1947 C1944 1.463 . S
C1947 N1951 1.427 . S
C1948 H1938 0.929 . S
C1948 C1946 1.433 . S
C1948 N1951 1.384 . S
C1949 H1940 0.929 . S
C1949 C1941 1.378 . S
C1949 C1944 1.350 . S
C1950 H1937 0.929 1_455 S
C1950 C1942 1.433 . S
C1950 N1952 1.384 1_455 S
N1951 C1947 1.427 . S
N1951 C1948 1.384 . S
N1952 C1944 1.427 1_655 S
N1952 C1950 1.384 1_655 S
H1953 C1959 0.930 . S
H1954 C1963 0.930 . S
H1955 C1968 0.929 . S
H1956 C1966 0.929 . S
H1957 C1961 0.929 . S
H1958 C1967 0.929 . S
C1959 H1953 0.930 . S
C1959 C1960 1.367 . S
C1959 C1967 1.378 . S
C1960 C1959 1.367 . S
C1960 C1968 1.433 . S
C1961 H1957 0.929 . S
C1961 C1963 1.378 . S
C1961 C1965 1.350 . S
C1962 C1965 1.463 . S
C1962 C1967 1.350 . S
C1962 N1970 1.427 . S
C1963 H1954 0.930 . S
C1963 C1961 1.378 . S
C1963 C1964 1.367 . S
C1964 C1963 1.367 . S
C1964 C1966 1.433 . S
C1965 C1961 1.350 . S
C1965 C1962 1.463 . S
C1965 N1969 1.427 . S
C1966 H1956 0.929 . S
C1966 C1964 1.433 . S
C1966 N1969 1.384 . S
C1967 H1958 0.929 . S
C1967 C1959 1.378 . S
C1967 C1962 1.350 . S
C1968 H1955 0.929 . S
C1968 C1960 1.433 . S
C1968 N1970 1.384 . S
N1969 C1965 1.427 . S
N1969 C1966 1.384 . S
N1970 C1962 1.427 . S
N1970 C1968 1.384 . S
H1971 C1977 0.930 . S
H1972 C1981 0.932 1_455 S
H1973 C1986 0.929 . S
H1974 C1984 0.929 . S
H1975 C1979 0.956 . S
H1976 C1985 0.929 . S
C1977 H1971 0.930 . S
C1977 C1978 1.367 . S
C1977 C1985 1.378 . S
C1978 C1977 1.367 . S
C1978 C1986 1.433 . S
C1979 H1975 0.956 . S
C1979 C1981 1.377 . S
C1979 C1983 1.350 . S
C1980 C1983 1.463 . S
C1980 C1985 1.350 . S
C1980 N1988 1.427 . S
C1981 H1972 0.932 1_655 S
C1981 C1979 1.377 . S
C1981 C1982 1.365 . S
C1982 C1981 1.365 . S
C1982 C1984 1.433 . S
C1983 C1979 1.350 . S
C1983 C1980 1.463 . S
C1983 N1987 1.427 . S
C1984 H1974 0.929 . S
C1984 C1982 1.433 . S
C1984 N1987 1.384 . S
C1985 H1976 0.929 . S
C1985 C1977 1.378 . S
C1985 C1980 1.350 . S
C1986 H1973 0.929 . S
C1986 C1978 1.433 . S
C1986 N1988 1.384 . S
N1987 C1983 1.427 . S
N1987 C1984 1.384 . S
N1988 C1980 1.427 . S
N1988 C1986 1.384 . S
H1989 C1995 0.930 . S
H1990 C1999 0.930 . S
H1991 C2004 0.929 . S
H1992 C2002 0.929 . S
H1993 C1997 0.929 . S
H1994 C2003 0.929 . S
C1995 H1989 0.930 . S
C1995 C1996 1.367 . S
C1995 C2003 1.378 . S
C1996 C1995 1.367 . S
C1996 C2004 1.433 . S
C1997 H1993 0.929 . S
C1997 C1999 1.378 . S
C1997 C2001 1.350 . S
C1998 C2001 1.463 . S
C1998 C2003 1.350 . S
C1998 N2006 1.427 . S
C1999 H1990 0.930 . S
C1999 C1997 1.378 . S
C1999 C2000 1.367 . S
C2000 C1999 1.367 . S
C2000 C2002 1.433 . S
C2001 C1997 1.350 . S
C2001 C1998 1.463 . S
C2001 N2005 1.427 . S
C2002 H1992 0.929 . S
C2002 C2000 1.433 . S
C2002 N2005 1.384 . S
C2003 H1994 0.929 . S
C2003 C1995 1.378 . S
C2003 C1998 1.350 . S
C2004 H1991 0.929 . S
C2004 C1996 1.433 . S
C2004 N2006 1.384 . S
N2005 C2001 1.427 . S
N2005 C2002 1.384 . S
N2006 C1998 1.427 . S
N2006 C2004 1.384 . S
H2007 C2013 0.930 1_565 S
H2008 C2017 0.930 . S
H2009 C2022 0.929 . S
H2010 C2020 0.929 . S
H2011 C2015 0.929 . S
H2012 C2021 0.928 1_565 S
C2013 H2007 0.930 1_545 S
C2013 C2014 1.367 . S
C2013 C2021 1.378 . S
C2014 C2013 1.367 . S
C2014 C2022 1.433 . S
C2015 H2011 0.929 . S
C2015 C2017 1.378 . S
C2015 C2019 1.350 . S
C2016 C2019 1.463 . S
C2016 C2021 1.350 . S
C2016 N2024 1.427 . S
C2017 H2008 0.930 . S
C2017 C2015 1.378 . S
C2017 C2018 1.367 . S
C2018 C2017 1.367 . S
C2018 C2020 1.433 1_545 S
C2019 C2015 1.350 . S
C2019 C2016 1.463 . S
C2019 N2023 1.427 1_545 S
C2020 H2010 0.929 . S
C2020 C2018 1.433 1_565 S
C2020 N2023 1.384 . S
C2021 H2012 0.928 1_545 S
C2021 C2013 1.378 . S
C2021 C2016 1.350 . S
C2022 H2009 0.929 . S
C2022 C2014 1.433 . S
C2022 N2024 1.384 . S
N2023 C2019 1.427 1_565 S
N2023 C2020 1.384 . S
N2024 C2016 1.427 . S
N2024 C2022 1.384 . S
H2025 C2031 0.930 . S
H2026 C2035 0.930 . S
H2027 C2040 0.929 . S
H2028 C2038 0.929 . S
H2029 C2033 0.929 . S
H2030 C2039 0.929 . S
C2031 H2025 0.930 . S
C2031 C2032 1.367 . S
C2031 C2039 1.378 . S
C2032 C2031 1.367 . S
C2032 C2040 1.433 . S
C2033 H2029 0.929 . S
C2033 C2035 1.378 . S
C2033 C2037 1.350 . S
C2034 C2037 1.463 . S
C2034 C2039 1.350 . S
C2034 N2042 1.427 . S
C2035 H2026 0.930 . S
C2035 C2033 1.378 . S
C2035 C2036 1.367 . S
C2036 C2035 1.367 . S
C2036 C2038 1.433 . S
C2037 C2033 1.350 . S
C2037 C2034 1.463 . S
C2037 N2041 1.427 . S
C2038 H2028 0.929 . S
C2038 C2036 1.433 . S
C2038 N2041 1.384 . S
C2039 H2030 0.929 . S
C2039 C2031 1.378 . S
C2039 C2034 1.350 . S
C2040 H2027 0.929 . S
C2040 C2032 1.433 . S
C2040 N2042 1.384 . S
N2041 C2037 1.427 . S
N2041 C2038 1.384 . S
N2042 C2034 1.427 . S
N2042 C2040 1.384 . S
H2043 C2049 0.930 . S
H2044 C2053 0.930 . S
H2045 C2058 0.929 . S
H2046 C2056 0.929 . S
H2047 C2051 0.929 . S
H2048 C2057 0.929 . S
C2049 H2043 0.930 . S
C2049 C2050 1.367 . S
C2049 C2057 1.378 . S
C2050 C2049 1.367 . S
C2050 C2058 1.433 . S
C2051 H2047 0.929 . S
C2051 C2053 1.378 . S
C2051 C2055 1.350 . S
C2052 C2055 1.463 . S
C2052 C2057 1.350 . S
C2052 N2060 1.427 . S
C2053 H2044 0.930 . S
C2053 C2051 1.378 . S
C2053 C2054 1.367 . S
C2054 C2053 1.367 . S
C2054 C2056 1.433 . S
C2055 C2051 1.350 . S
C2055 C2052 1.463 . S
C2055 N2059 1.427 . S
C2056 H2046 0.929 . S
C2056 C2054 1.433 . S
C2056 N2059 1.384 . S
C2057 H2048 0.929 . S
C2057 C2049 1.378 . S
C2057 C2052 1.350 . S
C2058 H2045 0.929 . S
C2058 C2050 1.433 . S
C2058 N2060 1.384 . S
N2059 C2055 1.427 . S
N2059 C2056 1.384 . S
N2060 C2052 1.427 . S
N2060 C2058 1.384 . S
H2061 C2067 0.930 . S
H2062 C2071 0.930 . S
H2063 C2076 0.929 . S
H2064 C2074 0.929 . S
H2065 C2069 0.929 . S
H2066 C2075 0.929 . S
C2067 H2061 0.930 . S
C2067 C2068 1.367 . S
C2067 C2075 1.378 . S
C2068 C2067 1.367 . S
C2068 C2076 1.433 . S
C2069 H2065 0.929 . S
C2069 C2071 1.378 . S
C2069 C2073 1.350 . S
C2070 C2073 1.463 . S
C2070 C2075 1.350 . S
C2070 N2078 1.427 . S
C2071 H2062 0.930 . S
C2071 C2069 1.378 . S
C2071 C2072 1.367 . S
C2072 C2071 1.367 . S
C2072 C2074 1.433 . S
C2073 C2069 1.350 . S
C2073 C2070 1.463 . S
C2073 N2077 1.427 . S
C2074 H2064 0.929 . S
C2074 C2072 1.433 . S
C2074 N2077 1.384 . S
C2075 H2066 0.929 . S
C2075 C2067 1.378 . S
C2075 C2070 1.350 . S
C2076 H2063 0.929 . S
C2076 C2068 1.433 . S
C2076 N2078 1.384 . S
N2077 C2073 1.427 . S
N2077 C2074 1.384 . S
N2078 C2070 1.427 . S
N2078 C2076 1.384 . S
H2079 C2085 0.930 . S
H2080 C2089 0.930 . S
H2081 C2094 0.929 . S
H2082 C2092 0.929 . S
H2083 C2087 0.929 . S
H2084 C2093 0.929 . S
C2085 H2079 0.930 . S
C2085 C2086 1.367 . S
C2085 C2093 1.378 . S
C2086 C2085 1.367 . S
C2086 C2094 1.433 . S
C2087 H2083 0.929 . S
C2087 C2089 1.378 . S
C2087 C2091 1.350 . S
C2088 C2091 1.463 . S
C2088 C2093 1.350 . S
C2088 N2096 1.427 . S
C2089 H2080 0.930 . S
C2089 C2087 1.378 . S
C2089 C2090 1.367 . S
C2090 C2089 1.367 . S
C2090 C2092 1.433 . S
C2091 C2087 1.350 . S
C2091 C2088 1.463 . S
C2091 N2095 1.427 . S
C2092 H2082 0.929 . S
C2092 C2090 1.433 . S
C2092 N2095 1.384 . S
C2093 H2084 0.929 . S
C2093 C2085 1.378 . S
C2093 C2088 1.350 . S
C2094 H2081 0.929 . S
C2094 C2086 1.433 . S
C2094 N2096 1.384 . S
N2095 C2091 1.427 . S
N2095 C2092 1.384 . S
N2096 C2088 1.427 . S
N2096 C2094 1.384 . S
H2097 C2103 0.930 . S
H2098 C2107 0.930 . S
H2099 C2112 0.929 . S
H2100 C2110 0.929 . S
H2101 C2105 0.929 . S
H2102 C2111 0.929 . S
C2103 H2097 0.930 . S
C2103 C2104 1.367 . S
C2103 C2111 1.378 . S
C2104 C2103 1.367 . S
C2104 C2112 1.433 . S
C2105 H2101 0.929 . S
C2105 C2107 1.378 . S
C2105 C2109 1.350 . S
C2106 C2109 1.463 . S
C2106 C2111 1.350 . S
C2106 N2114 1.427 . S
C2107 H2098 0.930 . S
C2107 C2105 1.378 . S
C2107 C2108 1.367 . S
C2108 C2107 1.367 . S
C2108 C2110 1.433 . S
C2109 C2105 1.350 . S
C2109 C2106 1.463 . S
C2109 N2113 1.427 . S
C2110 H2100 0.929 . S
C2110 C2108 1.433 . S
C2110 N2113 1.384 . S
C2111 H2102 0.929 . S
C2111 C2103 1.378 . S
C2111 C2106 1.350 . S
C2112 H2099 0.929 . S
C2112 C2104 1.433 . S
C2112 N2114 1.384 . S
N2113 C2109 1.427 . S
N2113 C2110 1.384 . S
N2114 C2106 1.427 . S
N2114 C2112 1.384 . S
H2115 C2121 0.930 . S
H2116 C2125 0.930 . S
H2117 C2130 0.929 . S
H2118 C2128 0.929 . S
H2119 C2123 0.929 . S
H2120 C2129 0.929 . S
C2121 H2115 0.930 . S
C2121 C2122 1.367 . S
C2121 C2129 1.378 . S
C2122 C2121 1.367 . S
C2122 C2130 1.433 . S
C2123 H2119 0.929 . S
C2123 C2125 1.378 . S
C2123 C2127 1.350 . S
C2124 C2127 1.463 . S
C2124 C2129 1.350 . S
C2124 N2132 1.427 . S
C2125 H2116 0.930 . S
C2125 C2123 1.378 . S
C2125 C2126 1.367 . S
C2126 C2125 1.367 . S
C2126 C2128 1.433 . S
C2127 C2123 1.350 . S
C2127 C2124 1.463 . S
C2127 N2131 1.427 . S
C2128 H2118 0.929 . S
C2128 C2126 1.433 . S
C2128 N2131 1.384 . S
C2129 H2120 0.929 . S
C2129 C2121 1.378 . S
C2129 C2124 1.350 . S
C2130 H2117 0.929 . S
C2130 C2122 1.433 . S
C2130 N2132 1.384 . S
N2131 C2127 1.427 . S
N2131 C2128 1.384 . S
N2132 C2124 1.427 . S
N2132 C2130 1.384 . S
H2133 C2139 0.930 . S
H2134 C2143 0.930 . S
H2135 C2148 0.929 . S
H2136 C2146 0.929 . S
H2137 C2141 0.929 . S
H2138 C2147 0.929 . S
C2139 H2133 0.930 . S
C2139 C2140 1.367 . S
C2139 C2147 1.378 . S
C2140 C2139 1.367 . S
C2140 C2148 1.433 . S
C2141 H2137 0.929 . S
C2141 C2143 1.378 . S
C2141 C2145 1.350 . S
C2142 C2145 1.463 . S
C2142 C2147 1.350 . S
C2142 N2150 1.427 . S
C2143 H2134 0.930 . S
C2143 C2141 1.378 . S
C2143 C2144 1.367 . S
C2144 C2143 1.367 . S
C2144 C2146 1.433 . S
C2145 C2141 1.350 . S
C2145 C2142 1.463 . S
C2145 N2149 1.427 . S
C2146 H2136 0.929 . S
C2146 C2144 1.433 . S
C2146 N2149 1.384 . S
C2147 H2138 0.929 . S
C2147 C2139 1.378 . S
C2147 C2142 1.350 . S
C2148 H2135 0.929 . S
C2148 C2140 1.433 . S
C2148 N2150 1.384 . S
N2149 C2145 1.427 . S
N2149 C2146 1.384 . S
N2150 C2142 1.427 . S
N2150 C2148 1.384 . S
H2151 C2157 0.930 . S
H2152 C2161 0.930 . S
H2153 C2166 0.929 . S
H2154 C2164 0.929 . S
H2155 C2159 0.929 . S
H2156 C2165 0.929 . S
C2157 H2151 0.930 . S
C2157 C2158 1.367 . S
C2157 C2165 1.378 . S
C2158 C2157 1.367 . S
C2158 C2166 1.433 . S
C2159 H2155 0.929 . S
C2159 C2161 1.378 . S
C2159 C2163 1.350 . S
C2160 C2163 1.463 . S
C2160 C2165 1.350 . S
C2160 N2168 1.427 . S
C2161 H2152 0.930 . S
C2161 C2159 1.378 . S
C2161 C2162 1.367 . S
C2162 C2161 1.367 . S
C2162 C2164 1.433 . S
C2163 C2159 1.350 . S
C2163 C2160 1.463 . S
C2163 N2167 1.427 . S
C2164 H2154 0.929 . S
C2164 C2162 1.433 . S
C2164 N2167 1.384 . S
C2165 H2156 0.929 . S
C2165 C2157 1.378 . S
C2165 C2160 1.350 . S
C2166 H2153 0.929 . S
C2166 C2158 1.433 . S
C2166 N2168 1.384 . S
N2167 C2163 1.427 . S
N2167 C2164 1.384 . S
N2168 C2160 1.427 . S
N2168 C2166 1.384 . S
H2169 C2175 0.930 . S
H2170 C2179 0.930 . S
H2171 C2184 0.929 . S
H2172 C2182 0.929 . S
H2173 C2177 0.929 . S
H2174 C2183 0.929 . S
C2175 H2169 0.930 . S
C2175 C2176 1.367 . S
C2175 C2183 1.378 . S
C2176 C2175 1.367 . S
C2176 C2184 1.433 . S
C2177 H2173 0.929 . S
C2177 C2179 1.378 . S
C2177 C2181 1.350 . S
C2178 C2181 1.463 . S
C2178 C2183 1.350 . S
C2178 N2186 1.427 . S
C2179 H2170 0.930 . S
C2179 C2177 1.378 . S
C2179 C2180 1.367 . S
C2180 C2179 1.367 . S
C2180 C2182 1.433 . S
C2181 C2177 1.350 . S
C2181 C2178 1.463 . S
C2181 N2185 1.427 . S
C2182 H2172 0.929 . S
C2182 C2180 1.433 . S
C2182 N2185 1.384 . S
C2183 H2174 0.929 . S
C2183 C2175 1.378 . S
C2183 C2178 1.350 . S
C2184 H2171 0.929 . S
C2184 C2176 1.433 . S
C2184 N2186 1.384 . S
N2185 C2181 1.427 . S
N2185 C2182 1.384 . S
N2186 C2178 1.427 . S
N2186 C2184 1.384 . S
H2187 C2193 0.930 . S
H2188 C2197 0.930 . S
H2189 C2202 0.929 . S
H2190 C2200 0.929 . S
H2191 C2195 0.929 . S
H2192 C2201 0.929 . S
C2193 H2187 0.930 . S
C2193 C2194 1.367 . S
C2193 C2201 1.378 . S
C2194 C2193 1.367 . S
C2194 C2202 1.433 . S
C2195 H2191 0.929 . S
C2195 C2197 1.378 . S
C2195 C2199 1.350 . S
C2196 C2199 1.463 . S
C2196 C2201 1.350 . S
C2196 N2204 1.427 . S
C2197 H2188 0.930 . S
C2197 C2195 1.378 . S
C2197 C2198 1.367 . S
C2198 C2197 1.367 . S
C2198 C2200 1.433 . S
C2199 C2195 1.350 . S
C2199 C2196 1.463 . S
C2199 N2203 1.427 . S
C2200 H2190 0.929 . S
C2200 C2198 1.433 . S
C2200 N2203 1.384 . S
C2201 H2192 0.929 . S
C2201 C2193 1.378 . S
C2201 C2196 1.350 . S
C2202 H2189 0.929 . S
C2202 C2194 1.433 . S
C2202 N2204 1.384 . S
N2203 C2199 1.427 . S
N2203 C2200 1.384 . S
N2204 C2196 1.427 . S
N2204 C2202 1.384 . S
H2205 C2211 0.930 . S
H2206 C2215 0.930 . S
H2207 C2220 0.929 . S
H2208 C2218 0.929 . S
H2209 C2213 0.929 . S
H2210 C2219 0.929 . S
C2211 H2205 0.930 . S
C2211 C2212 1.367 . S
C2211 C2219 1.378 . S
C2212 C2211 1.367 . S
C2212 C2220 1.433 . S
C2213 H2209 0.929 . S
C2213 C2215 1.378 . S
C2213 C2217 1.350 . S
C2214 C2217 1.463 . S
C2214 C2219 1.350 . S
C2214 N2222 1.427 . S
C2215 H2206 0.930 . S
C2215 C2213 1.378 . S
C2215 C2216 1.367 . S
C2216 C2215 1.367 . S
C2216 C2218 1.433 . S
C2217 C2213 1.350 . S
C2217 C2214 1.463 . S
C2217 N2221 1.427 . S
C2218 H2208 0.929 . S
C2218 C2216 1.433 . S
C2218 N2221 1.384 . S
C2219 H2210 0.929 . S
C2219 C2211 1.378 . S
C2219 C2214 1.350 . S
C2220 H2207 0.929 . S
C2220 C2212 1.433 . S
C2220 N2222 1.384 . S
N2221 C2217 1.427 . S
N2221 C2218 1.384 . S
N2222 C2214 1.427 . S
N2222 C2220 1.384 . S
H2223 C2229 0.930 . S
H2224 C2233 0.930 . S
H2225 C2238 0.929 . S
H2226 C2236 0.929 . S
H2227 C2231 0.929 . S
H2228 C2237 0.929 . S
C2229 H2223 0.930 . S
C2229 C2230 1.367 . S
C2229 C2237 1.378 . S
C2230 C2229 1.367 . S
C2230 C2238 1.433 . S
C2231 H2227 0.929 . S
C2231 C2233 1.378 . S
C2231 C2235 1.350 . S
C2232 C2235 1.463 . S
C2232 C2237 1.350 . S
C2232 N2240 1.427 . S
C2233 H2224 0.930 . S
C2233 C2231 1.378 . S
C2233 C2234 1.367 . S
C2234 C2233 1.367 . S
C2234 C2236 1.433 . S
C2235 C2231 1.350 . S
C2235 C2232 1.463 . S
C2235 N2239 1.427 . S
C2236 H2226 0.929 . S
C2236 C2234 1.433 . S
C2236 N2239 1.384 . S
C2237 H2228 0.929 . S
C2237 C2229 1.378 . S
C2237 C2232 1.350 . S
C2238 H2225 0.929 . S
C2238 C2230 1.433 . S
C2238 N2240 1.384 . S
N2239 C2235 1.427 . S
N2239 C2236 1.384 . S
N2240 C2232 1.427 . S
N2240 C2238 1.384 . S
C1276 C781 1.411 . S
C1280 C1094 1.360 . S
C1294 C871 1.423 . S
C1298 C1115 1.376 . S
C1312 C751 1.360 . S
C1316 C1135 1.176 . S
C1330 C691 1.380 . S
C1334 C1114 1.208 . S
C1352 C1136 1.388 . S
C1348 C571 1.438 . S
C1366 C601 1.387 . S
C1370 C1093 1.203 . S
C1388 C1095 1.322 . S
C1384 C661 1.349 . S
C1406 C1116 1.306 . S
C1402 C541 1.309 . S
C1420 C631 1.462 . S
C1424 C1138 1.190 1_556 S
C1438 C811 1.412 . S
C1442 C1117 1.166 . S
C1456 C841 1.283 . S
C1460 C1137 1.289 . S
C1478 C1096 1.200 1_554 S
C1474 C721 1.353 . S
C1496 C1157 1.359 . S
C1492 C61 1.413 . S
C1510 C151 1.416 . S
C1514 C1178 1.363 . S
C1528 C31 1.363 . S
C1532 C1198 1.174 . S
C1546 C1051 1.385 . S
C1550 C1177 1.190 . S
C1564 C931 1.449 . S
C1568 C1199 1.397 . S
C1582 C961 1.386 . S
C1586 C1156 1.174 . S
C1600 C1021 1.349 . S
C1604 C1158 1.321 . S
C1618 C901 1.327 . S
C1622 C1179 1.316 . S
C1640 C1201 1.219 . S
C1636 C991 1.468 . S
C1654 C91 1.409 . S
C1658 C1180 1.171 . S
C1676 C1200 1.285 . S
C1672 C121 1.302 . S
C1690 C1 1.351 . S
C1694 C1159 1.180 . S
C1712 C1220 1.358 . S
C1708 C421 1.417 . S
C1726 C511 1.409 . S
C1730 C1241 1.359 . S
C1748 C1261 1.144 . S
C1744 C391 1.350 . S
C1766 C1240 1.178 . S
C1762 C331 1.375 . S
C1784 C1262 1.401 . S
C1780 C211 1.450 . S
C1798 C241 1.383 . S
C1802 C1219 1.167 . S
C1816 C301 1.349 . S
C1820 C1221 1.322 . S
C1834 C181 1.324 . S
C1838 C1242 1.306 . S
C1856 C1264 1.198 . S
C1852 C271 1.467 . S
C1870 C451 1.410 . S
C1874 C1243 1.176 . S
C1888 C481 1.294 . S
C1892 C1263 1.271 . S
C1906 C361 1.344 . S
C1910 C1222 1.179 . S
C1924 C920 1.377 . S
C1928 C1098 1.377 . S
C1946 C1119 1.411 . S
C1942 C980 1.436 . S
C1960 C1040 1.459 . S
C1964 C1139 1.480 . S
C1978 C380 1.504 . S
C1982 C1118 1.517 1_655 S
C1996 C440 1.452 . S
C2000 C1140 1.425 . S
C2018 C1097 1.489 . S
C2014 C500 1.477 . S
C2032 C200 1.387 . S
C2036 C1161 1.373 . S
C2050 C260 1.436 . S
C2054 C1182 1.412 . S
C2068 C320 1.467 . S
C2072 C1202 1.483 . S
C2086 C740 1.506 . S
C2090 C1181 1.520 . S
C2108 C1203 1.418 . S
C2104 C800 1.446 . S
C2122 C860 1.478 . S
C2126 C1160 1.490 . S
C2140 C560 1.379 . S
C2144 C1224 1.373 . S
C2158 C620 1.436 . S
C2162 C1245 1.411 . S
C2180 C1265 1.482 . S
C2176 C680 1.463 . S
C2194 C20 1.499 . S
C2198 C1244 1.509 . S
C2212 C80 1.451 . S
C2216 C1266 1.422 . S
C2230 C140 1.478 . S
C2234 C1223 1.489 . S
