# Generated by pormake.
# Topology ssa, (4,4)-cn, num edge types: 1
# Building blocks:
#     Node 0, Type 0, BuildingBlock: ESEHIV_clean_sbu_0, # of connection points: 4
#     Node 1, Type 0, BuildingBlock: ESEHIV_clean_sbu_0, # of connection points: 4
#     Node 2, Type 0, BuildingBlock: ESEHIV_clean_sbu_0, # of connection points: 4
#     Node 3, Type 0, BuildingBlock: ESEHIV_clean_sbu_0, # of connection points: 4
#     Node 4, Type 0, BuildingBlock: ESEHIV_clean_sbu_0, # of connection points: 4
#     Node 5, Type 0, BuildingBlock: ESEHIV_clean_sbu_0, # of connection points: 4
#     Node 6, Type 1, BuildingBlock: KUFVIS_clean_linker_0, # of connection points: 4
#     Node 7, Type 1, BuildingBlock: KUFVIS_clean_linker_0, # of connection points: 4
#     Node 8, Type 1, BuildingBlock: KUFVIS_clean_linker_0, # of connection points: 4
#     Node 9, Type 1, BuildingBlock: KUFVIS_clean_linker_0, # of connection points: 4
#     Node 10, Type 1, BuildingBlock: KUFVIS_clean_linker_0, # of connection points: 4
#     Node 11, Type 1, BuildingBlock: KUFVIS_clean_linker_0, # of connection points: 4
#     Edge 12, Type (0, 1), BuildingBlock: AJUNOK_clean_linker_0, # of connection points: 2
#     Edge 13, Type (0, 1), BuildingBlock: AJUNOK_clean_linker_0, # of connection points: 2
#     Edge 14, Type (0, 1), BuildingBlock: AJUNOK_clean_linker_0, # of connection points: 2
#     Edge 15, Type (0, 1), BuildingBlock: AJUNOK_clean_linker_0, # of connection points: 2
#     Edge 16, Type (0, 1), BuildingBlock: AJUNOK_clean_linker_0, # of connection points: 2
#     Edge 17, Type (0, 1), BuildingBlock: AJUNOK_clean_linker_0, # of connection points: 2
#     Edge 18, Type (0, 1), BuildingBlock: AJUNOK_clean_linker_0, # of connection points: 2
#     Edge 19, Type (0, 1), BuildingBlock: AJUNOK_clean_linker_0, # of connection points: 2
#     Edge 20, Type (0, 1), BuildingBlock: AJUNOK_clean_linker_0, # of connection points: 2
#     Edge 21, Type (0, 1), BuildingBlock: AJUNOK_clean_linker_0, # of connection points: 2
#     Edge 22, Type (0, 1), BuildingBlock: AJUNOK_clean_linker_0, # of connection points: 2
#     Edge 23, Type (0, 1), BuildingBlock: AJUNOK_clean_linker_0, # of connection points: 2
#     Edge 24, Type (0, 1), BuildingBlock: AJUNOK_clean_linker_0, # of connection points: 2
#     Edge 25, Type (0, 1), BuildingBlock: AJUNOK_clean_linker_0, # of connection points: 2
#     Edge 26, Type (0, 1), BuildingBlock: AJUNOK_clean_linker_0, # of connection points: 2
#     Edge 27, Type (0, 1), BuildingBlock: AJUNOK_clean_linker_0, # of connection points: 2
#     Edge 28, Type (0, 1), BuildingBlock: AJUNOK_clean_linker_0, # of connection points: 2
#     Edge 29, Type (0, 1), BuildingBlock: AJUNOK_clean_linker_0, # of connection points: 2
#     Edge 30, Type (0, 1), BuildingBlock: AJUNOK_clean_linker_0, # of connection points: 2
#     Edge 31, Type (0, 1), BuildingBlock: AJUNOK_clean_linker_0, # of connection points: 2
#     Edge 32, Type (0, 1), BuildingBlock: AJUNOK_clean_linker_0, # of connection points: 2
#     Edge 33, Type (0, 1), BuildingBlock: AJUNOK_clean_linker_0, # of connection points: 2
#     Edge 34, Type (0, 1), BuildingBlock: AJUNOK_clean_linker_0, # of connection points: 2
#     Edge 35, Type (0, 1), BuildingBlock: AJUNOK_clean_linker_0, # of connection points: 2
# Relax obj value: 0.008
# Max RMSD: 0.110
# Mean RMSD: 0.075
data_MOF--net-ssa--node1-ESEHIV_clean_sbu_0--node2-KUFVIS_clean_linker_0--edge1-AJUNOK_clean_linker_0
_symmetry_space_group_name_H-M    P1
_symmetry_Int_Tables_number       1
_symmetry_cell_setting            triclinic
loop_
_symmetry_equiv_pos_as_xyz
'x, y, z'
_cell_length_a     38.663342
_cell_length_b     42.097581
_cell_length_c     23.318121
_cell_angle_alpha  87.300931
_cell_angle_beta   91.255188
_cell_angle_gamma 122.71056
loop_
_atom_site_label
_atom_site_type_symbol
_atom_site_fract_x
_atom_site_fract_y
_atom_site_fract_z
_atom_type_partial_charge
Cu0 Cu 0.05163 0.54126 0.03079 0.0
N1 N 1.04051 0.51071 0.96863 0.0
N2 N 1.00245 0.46215 0.91257 0.0
C3 C 1.00266 0.48084 0.95788 0.0
C4 C 1.04156 0.48084 0.89352 0.0
C5 C 0.06508 0.51105 0.92811 0.0
O6 O 0.99774 0.53441 0.04657 0.0
C7 C 0.10861 0.52698 0.07996 0.0
O8 O 0.12288 0.53673 0.02729 0.0
H9 H 0.97574 0.47273 0.98307 0.0
H10 H 0.09766 0.53169 0.92366 0.0
N11 N 0.09153 0.59214 0.01456 0.0
N12 N 0.13812 0.65152 0.03691 0.0
C13 C 0.10559 0.61789 0.05511 0.0
C14 C 0.11661 0.60997 0.96895 0.0
C15 C 0.14581 0.64677 0.98295 0.0
C16 C 0.99043 0.56053 0.03874 0.0
O17 O 1.0216 0.59558 0.03162 0.0
H18 H 0.09343 0.61142 0.09846 0.0
H19 H 0.1151 0.59681 0.92949 0.0
O20 O 0.07596 0.526 0.09255 0.0
H21 H 0.05205 0.47367 0.85653 0.0
H22 H 0.1713 0.6679 0.95646 0.0
Cu23 Cu 0.55445 0.02966 0.49572 0.0
N24 N 0.57125 1.01634 0.43127 0.0
N25 N 0.58219 0.98093 0.37501 0.0
C26 C 0.56548 0.98211 0.42443 0.0
C27 C 0.59857 1.01558 0.34932 0.0
C28 C 0.59171 0.03734 0.38406 0.0
O29 O 0.50421 0.983 0.52109 0.0
C30 C 0.63044 0.0824 0.53544 0.0
O31 O 0.63293 0.09419 0.48165 0.0
H32 H 0.54989 0.95868 0.45556 0.0
H33 H 0.60104 0.06641 0.37553 0.0
N34 N 0.545 0.06858 0.48085 0.0
N35 N 0.54241 0.11871 0.50147 0.0
C36 C 0.54955 0.0922 0.52151 0.0
C37 C 0.53457 0.08049 0.43285 0.0
C38 C 0.53275 0.11143 0.44557 0.0
C39 C 0.46889 0.97856 0.51889 0.0
O40 O 0.46677 1.00868 0.51564 0.0
H41 H 0.55762 0.08968 0.56551 0.0
H42 H 0.52893 0.0678 0.39164 0.0
O43 O 0.59863 0.05085 0.5517 0.0
H44 H 0.61391 1.02439 0.30799 0.0
H45 H 0.52555 0.12756 0.41585 0.0
Cu46 Cu 0.50667 0.49663 0.02774 0.0
N47 N 0.4976 0.44801 0.02353 0.0
N48 N 0.50176 0.40299 0.98209 0.0
C49 C 0.50966 0.43841 0.97706 0.0
C50 C 0.48321 0.38931 0.03379 0.0
C51 C 0.48105 0.4173 0.05958 0.0
O52 O 0.55921 0.52879 0.98895 0.0
C53 C 0.42472 0.47256 0.01802 0.0
O54 O 0.41721 0.43827 0.02562 0.0
H55 H 0.52369 0.4572 0.93969 0.0
H56 H 0.46835 0.41534 0.10143 0.0
N57 N 0.51364 0.51806 0.09861 0.0
N58 N 0.51839 0.5646 0.14858 0.0
C59 C 0.52637 0.55481 0.09862 0.0
C60 C 0.49646 0.50348 0.15051 0.0
C61 C 0.49974 0.53226 0.18168 0.0
C62 C 0.58832 0.52779 0.01414 0.0
O63 O 0.58049 0.50847 0.06326 0.0
H64 H 0.53685 0.57272 0.05992 0.0
H65 H 0.47966 0.47373 0.16298 0.0
O66 O 0.46011 0.49837 -0.00128 0.0
H67 H 0.47251 0.36133 0.05194 0.0
H68 H 0.4874 0.52906 0.22427 0.0
Cu69 Cu 1.04441 0.52775 0.53947 0.0
N70 N 0.08119 0.51244 0.55455 0.0
N71 N 0.13019 0.50163 0.53541 0.0
C72 C 0.11106 0.5192 0.51795 0.0
C73 C 0.11152 0.48258 0.58485 0.0
C74 C 0.08137 0.48962 0.59693 0.0
O75 O 0.07138 0.57047 0.48263 0.0
C76 C 0.9819 0.45002 0.51845 0.0
O77 O 1.01241 0.44554 0.50968 0.0
H78 H 0.11721 0.53506 0.47747 0.0
H79 H 0.05988 0.47755 0.63247 0.0
N80 N 1.0338 0.54535 0.60435 0.0
N81 N 0.9982 0.55761 0.66359 0.0
C82 C 0.99745 0.54124 0.61493 0.0
C83 C 0.05839 0.56464 0.64818 0.0
C84 C 1.03643 0.57226 0.68493 0.0
C85 C 0.10769 0.59782 0.49476 0.0
O86 O 0.12392 0.59601 0.54391 0.0
H87 H 0.971 0.5268 0.58712 0.0
H88 H 0.08989 0.57244 0.65318 0.0
O89 O 0.98984 0.48357 0.52136 0.0
H90 H 0.11839 0.46418 0.60939 0.0
H91 H 0.04742 0.58664 0.72485 0.0
Cu92 Cu 0.54295 1.02147 -0.00148 0.0
N93 N 0.50652 0.02901 0.95499 0.0
N94 N 0.48446 0.0639 0.91308 0.0
C95 C 0.51735 0.06244 0.92912 0.0
C96 C 0.45145 0.02951 0.92803 0.0
C97 C 0.46513 1.00821 0.95453 0.0
O98 O 0.5942 0.07224 -0.0031 0.0
C99 C 0.48828 0.96325 0.07429 0.0
O100 O 0.47896 0.94536 0.02621 0.0
H101 H 0.54889 0.08559 0.92354 0.0
H102 H 0.44612 0.98042 0.97487 0.0
N103 N 0.55246 0.98635 0.96784 0.0
N104 N 0.5626 0.93872 0.97592 0.0
C105 C 0.56848 0.96987 -0.00035 0.0
C106 C 0.53602 0.965 0.92164 0.0
C107 C 0.54213 0.93541 0.92665 0.0
C108 C 0.62978 0.07937 0.98426 0.0
O109 O 0.63534 0.05126 0.98391 0.0
H110 H 0.58051 0.9784 0.04243 0.0
H111 H 0.51781 0.96869 0.88938 0.0
O112 O 0.51607 0.99865 0.07347 0.0
H113 H 0.41972 1.02098 0.92254 0.0
H114 H 0.53039 0.9122 0.89814 0.0
Cu115 Cu 0.58279 0.54925 0.48271 0.0
N116 N 0.61817 0.5916 0.4356 0.0
N117 N 0.64577 0.65112 0.40087 0.0
C118 C 0.63062 0.62728 0.44757 0.0
C119 C 0.6439 0.62947 0.35831 0.0
C120 C 0.62688 0.59287 0.37981 0.0
O121 O 0.52648 0.53772 0.47033 0.0
C122 C 0.64368 0.56569 0.56065 0.0
O123 O 0.66421 0.57524 0.51212 0.0
H124 H 0.62458 0.63469 0.48833 0.0
H125 H 0.61758 0.56836 0.3552 0.0
N126 N 0.57995 0.50516 0.46591 0.0
N127 N 0.5689 0.44931 0.49739 0.0
C128 C 0.5576 0.47436 0.50068 0.0
C129 C 0.60655 0.49962 0.43895 0.0
C130 C 0.5997 0.46503 0.45825 0.0
C131 C 0.51709 0.56231 0.46094 0.0
O132 O 0.54429 0.59757 0.4723 0.0
H133 H 0.53744 0.473 0.53355 0.0
H134 H 0.63194 0.52076 0.41239 0.0
O135 O 0.6063 0.55671 0.55966 0.0
H136 H 0.64956 0.63822 0.3133 0.0
H137 H 0.61819 0.45387 0.44787 0.0
H138 H 0.41495 0.51655 0.24313 0.0
H139 H 0.3421 0.53499 0.35565 0.0
H140 H 0.30056 0.4986 0.18261 0.0
H141 H 0.264 0.52489 0.19532 0.0
H142 H 0.17027 0.50152 0.31684 0.0
H143 H 0.276 0.50264 0.37579 0.0
C144 C 0.38773 0.51713 0.25062 0.0
C145 C 0.35958 0.50874 0.20603 0.0
C146 C 0.38135 0.52621 0.30465 0.0
C147 C 0.34578 0.52668 0.31418 0.0
C148 C 0.31527 0.51606 0.27103 0.0
C149 C 0.32295 0.50716 0.2167 0.0
C150 C 0.27525 0.51312 0.28327 0.0
C151 C 0.25201 0.51725 0.23866 0.0
C152 C 0.21378 0.51289 0.25017 0.0
C153 C 0.19949 0.5051 0.30687 0.0
C154 C 0.22251 0.50274 0.35176 0.0
C155 C 0.25973 0.506 0.34013 0.0
H156 H 0.68661 0.14332 0.7752 0.0
H157 H 0.77635 0.24878 0.84517 0.0
H158 H 0.77964 0.22994 0.66429 0.0
H159 H 0.81304 0.28978 0.64825 0.0
H160 H 0.91042 0.39202 0.71787 0.0
H161 H 0.83794 0.29699 0.83206 0.0
C162 C 0.71368 0.17159 0.76887 0.0
C163 C 0.73054 0.1847 0.71397 0.0
C164 C 0.73093 0.19415 0.81614 0.0
C165 C 0.76493 0.2316 0.80802 0.0
C166 C 0.783 0.24624 0.7525 0.0
C167 C 0.76577 0.2214 0.70644 0.0
C168 C 0.81907 0.28689 0.74213 0.0
C169 C 0.82999 0.30455 0.6857 0.0
C170 C 0.86311 0.3424 0.67698 0.0
C171 C 0.88461 0.36303 0.72432 0.0
C172 C 0.87502 0.34688 0.77966 0.0
C173 C 0.8432 0.30885 0.78868 0.0
H174 H 0.57801 0.68236 0.28195 0.0
H175 H 0.53406 0.73705 0.171 0.0
H176 H 0.61771 0.79697 0.31041 0.0
H177 H 0.57397 0.82045 0.31389 0.0
H178 H 0.5732 0.89707 0.18726 0.0
H179 H 0.57264 0.80085 0.13254 0.0
C180 C 0.57645 0.70693 0.27072 0.0
C181 C 0.59996 0.73949 0.30139 0.0
C182 C 0.55343 0.7059 0.22351 0.0
C183 C 0.55214 0.73802 0.20779 0.0
C184 C 0.57414 0.77115 0.24024 0.0
C185 C 0.59881 0.77163 0.28669 0.0
C186 C 0.57253 0.80549 0.2252 0.0
C187 C 0.57328 0.82817 0.26911 0.0
C188 C 0.57371 0.86127 0.25518 0.0
C189 C 0.57274 0.87142 0.19775 0.0
C190 C 0.57256 0.8501 0.15349 0.0
C191 C 0.57195 0.81684 0.16706 0.0
H192 H 0.9086 0.53974 0.8576 0.0
H193 H 0.80873 0.53991 0.93158 0.0
H194 H 0.83062 0.55679 0.74671 0.0
H195 H 0.76915 0.54239 0.7351 0.0
H196 H 0.67522 0.55244 0.80617 0.0
H197 H 0.76625 0.55687 0.91843 0.0
C198 C 0.8814 0.54106 0.85214 0.0
C199 C 0.87075 0.54722 0.7974 0.0
C200 C 0.85986 0.53943 0.90032 0.0
C201 C 0.825 0.54192 0.89321 0.0
C202 C 0.81204 0.54693 0.83731 0.0
C203 C 0.83662 0.55047 0.78976 0.0
C204 C 0.77412 0.54927 0.82838 0.0
C205 C 0.75659 0.54658 0.77274 0.0
C206 C 0.72121 0.54812 0.76498 0.0
C207 C 0.70294 0.55212 0.81231 0.0
C208 C 0.71917 0.55546 0.86719 0.0
C209 C 0.75449 0.55394 0.87533 0.0
H210 H 0.1705 0.68661 0.26356 0.0
H211 H 0.27273 0.79205 0.20167 0.0
H212 H 0.26101 0.75989 0.38364 0.0
H213 H 0.30598 0.81962 0.39634 0.0
H214 H 0.41964 0.913 0.32873 0.0
H215 H 0.33706 0.8274 0.21595 0.0
C216 C 0.19831 0.71342 0.27279 0.0
C217 C 0.21162 0.72146 0.32945 0.0
C218 C 0.22044 0.73876 0.22728 0.0
C219 C 0.2575 0.77267 0.23795 0.0
C220 C 0.27377 0.78138 0.29429 0.0
C221 C 0.25005 0.75495 0.33996 0.0
C222 C 0.3149 0.81778 0.30454 0.0
C223 C 0.3263 0.83315 0.35981 0.0
C224 C 0.36444 0.86684 0.36838 0.0
C225 C 0.39064 0.88663 0.32181 0.0
C226 C 0.38044 0.87295 0.26678 0.0
C227 C 0.3433 0.83808 0.25861 0.0
H228 H 0.53388 0.38251 0.74127 0.0
H229 H 0.52008 0.28398 0.8274 0.0
H230 H 0.52918 0.29842 0.64131 0.0
H231 H 0.54645 0.25886 0.64122 0.0
H232 H 0.51142 0.15089 0.71356 0.0
H233 H 0.49769 0.22521 0.81561 0.0
C234 C 0.53151 0.35569 0.73969 0.0
C235 C 0.53367 0.34287 0.68661 0.0
C236 C 0.52617 0.33438 0.79057 0.0
C237 C 0.52299 0.29936 0.78752 0.0
C238 C 0.52474 0.28535 0.73377 0.0
C239 C 0.52947 0.30782 0.68366 0.0
C240 C 0.52161 0.24788 0.72895 0.0
C241 C 0.53314 0.2389 0.67728 0.0
C242 C 0.52871 0.20381 0.67166 0.0
C243 C 0.51403 0.17769 0.71781 0.0
C244 C 0.50359 0.1856 0.76967 0.0
C245 C 0.50701 0.2204 0.77531 0.0
C246 C 0.14064 0.53721 0.17753 0.0
C247 C 0.13329 0.52108 0.12381 0.0
C248 C 0.16783 0.53564 0.2168 0.0
C249 C 0.18817 0.51705 0.20472 0.0
H250 H 0.12631 0.55224 0.18861 0.0
H251 H 0.17306 0.54934 0.25709 0.0
S252 S 0.17757 0.46869 0.07035 0.0
N253 N 0.14816 0.48582 0.06017 0.0
N254 N 0.19747 0.48108 0.13502 0.0
C255 C 0.18067 0.50051 0.15111 0.0
C256 C 0.15361 0.50284 0.11061 0.0
C257 C 0.66915 0.0959 0.62809 0.0
C258 C 0.65941 0.10911 0.57785 0.0
C259 C 0.69416 0.12087 0.67041 0.0
C260 C 0.70958 0.15987 0.66471 0.0
H261 H 0.65708 0.06604 0.63497 0.0
H262 H 0.70066 0.10935 0.70862 0.0
S263 S 0.6915 0.20834 0.5418 0.0
N264 N 0.66717 0.16372 0.52441 0.0
N265 N 0.71245 0.21015 0.60496 0.0
C266 C 0.70042 0.17343 0.6142 0.0
C267 C 0.67567 0.14816 0.57064 0.0
C268 C 0.49746 0.6024 0.1994 0.0
C269 C 0.52358 0.60056 0.16028 0.0
C270 C 0.50349 0.63712 0.21376 0.0
C271 C 0.53589 0.67158 0.1896 0.0
H272 H 0.47296 0.57698 0.22065 0.0
H273 H 0.48472 0.63721 0.2475 0.0
S274 S 0.61339 0.6833 0.08568 0.0
N275 N 0.58338 0.63716 0.09767 0.0
N276 N 0.59395 0.70192 0.12432 0.0
C277 C 0.56096 0.67019 0.14851 0.0
C278 C 0.55516 0.63493 0.13414 0.0
C279 C 0.92477 0.52402 0.69078 0.0
C280 C 0.96435 0.55729 0.68901 0.0
C281 C 0.89262 0.52186 0.72146 0.0
C282 C 0.89884 0.55312 0.75026 0.0
H283 H 0.91935 0.49887 0.67131 0.0
H284 H 0.86359 0.49493 0.72587 0.0
S285 S 0.99504 0.64781 0.75303 0.0
N286 N 1.00672 0.623 0.71422 0.0
N287 N 0.9463 0.6189 0.77168 0.0
C288 C 0.93741 0.58713 0.74561 0.0
C289 C 0.97019 0.58923 0.71507 0.0
C290 C 0.45114 0.95713 0.16554 0.0
C291 C 0.46473 0.94154 0.12678 0.0
C292 C 0.42377 0.9347 0.21045 0.0
C293 C 0.4091 0.89592 0.21837 0.0
H294 H 0.46044 0.98641 0.15988 0.0
H295 H 0.41337 0.94766 0.23864 0.0
S296 S 0.44037 0.84317 0.13376 0.0
N297 N 0.46458 0.88589 0.10256 0.0
N298 N 0.41377 0.84421 0.18721 0.0
C299 C 0.4239 0.88054 0.18136 0.0
C300 C 0.45158 0.90323 0.13564 0.0
C301 C 0.58838 0.4126 0.56106 0.0
C302 C 0.55813 0.41874 0.53898 0.0
C303 C 0.57982 0.38694 0.60766 0.0
C304 C 0.54085 0.36673 0.63392 0.0
H305 H 0.61937 0.42897 0.54404 0.0
H306 H 0.60424 0.38391 0.62464 0.0
S307 S 0.44993 0.3693 0.58929 0.0
N308 N 0.48657 0.39964 0.54415 0.0
N309 N 0.47114 0.35242 0.63271 0.0
C310 C 0.51 0.37144 0.61115 0.0
C311 C 0.51847 0.39715 0.56341 0.0
C312 C 0.54556 0.91294 0.35396 0.0
C313 C 0.58195 0.94921 0.35337 0.0
C314 C 0.54369 0.88296 0.32632 0.0
C315 C 0.57839 0.88815 0.29836 0.0
H316 H 0.51783 0.90836 0.37297 0.0
H317 H 0.51442 0.85632 0.32384 0.0
S318 S 0.68199 0.97614 0.29068 0.0
N319 N 0.65415 0.98743 0.32691 0.0
N320 N 0.6507 0.93128 0.27559 0.0
C321 C 0.61543 0.92356 0.30076 0.0
C322 C 0.61721 0.95404 0.32809 0.0
C323 C 0.64655 0.52049 0.99294 0.0
C324 C 0.62747 0.54094 0.98431 0.0
C325 C 0.67978 0.52807 0.9587 0.0
C326 C 0.69539 0.55671 0.91526 0.0
H327 H 0.63394 0.49665 0.02355 0.0
H328 H 0.69094 0.50938 0.96311 0.0
S329 S 0.66239 0.62381 0.88444 0.0
N330 N 0.63045 0.59447 0.9352 0.0
N331 N 0.69405 0.60988 0.87236 0.0
C332 C 0.67946 0.57999 0.91066 0.0
C333 C 0.64505 0.5717 0.94456 0.0
C334 C 0.17656 0.64931 0.45554 0.0
C335 C 0.13327 0.63039 0.45379 0.0
C336 C 0.20194 0.67986 0.4172 0.0
C337 C 0.18513 0.69312 0.37589 0.0
H338 H 0.19105 0.63977 0.48585 0.0
H339 H 0.23482 0.69221 0.41858 0.0
S340 S 0.07399 0.65684 0.35857 0.0
N341 N 0.07504 0.62911 0.41015 0.0
N342 N 0.12238 0.68728 0.33979 0.0
C343 C 0.14192 0.67562 0.37572 0.0
C344 C 0.11612 0.64407 0.41402 0.0
C345 C 0.45561 0.08937 0.84313 0.0
C346 C 0.48471 0.09555 0.88568 0.0
C347 C 0.45919 0.11955 0.80951 0.0
C348 C 0.49179 0.15707 0.81752 0.0
H349 H 0.43153 0.06085 0.83309 0.0
H350 H 0.4381 0.11328 0.77411 0.0
S351 S 0.57185 0.18909 0.9297 0.0
N352 N 0.54372 0.14265 0.93951 0.0
N353 N 0.5509 0.19914 0.87513 0.0
C354 C 0.51893 0.16395 0.86309 0.0
C355 C 0.51537 0.13324 0.89736 0.0
C356 C 0.45318 0.51591 0.40717 0.0
C357 C 0.47911 0.55254 0.42772 0.0
C358 C 0.42075 0.50734 0.36913 0.0
C359 C 0.41238 0.53482 0.35058 0.0
H360 H 0.45881 0.49388 0.41879 0.0
H361 H 0.40262 0.47915 0.35296 0.0
S362 S 0.46989 0.63473 0.39137 0.0
N363 N 0.49314 0.61646 0.42653 0.0
N364 N 0.43201 0.59986 0.35577 0.0
C365 C 0.43696 0.57112 0.37194 0.0
C366 C 0.47028 0.58008 0.4103 0.0
C367 C 0.96567 0.39732 0.87814 0.0
C368 C 0.96709 0.4308 0.88697 0.0
C369 C 0.93282 0.36777 0.84847 0.0
C370 C 0.90078 0.37117 0.82636 0.0
H371 H 0.99076 0.39459 0.89274 0.0
H372 H 0.93392 0.34334 0.83929 0.0
S373 S 0.89106 0.45357 0.83724 0.0
N374 N 0.93391 0.46561 0.87196 0.0
N375 N 0.87246 0.41043 0.8156 0.0
C376 C 0.90129 0.40403 0.83682 0.0
C377 C 0.93444 0.43383 0.86725 0.0
C378 C 0.94281 0.5816 0.00909 0.0
C379 C 0.94841 0.55159 0.02246 0.0
C380 C 0.90903 0.57614 0.97673 0.0
C381 C 0.87939 0.54047 0.95648 0.0
H382 H 0.96651 0.61026 0.01919 0.0
H383 H 0.90875 0.60078 0.96186 0.0
S384 S 0.87327 0.45087 0.99241 0.0
N385 N 0.91627 0.4834 0.02304 0.0
N386 N 0.85348 0.47356 0.96113 0.0
C387 C 0.88162 0.50949 0.97593 0.0
C388 C 0.91593 0.51493 0.00921 0.0
C389 C 0.43942 0.91286 0.48654 0.0
C390 C 0.43329 0.94186 0.49955 0.0
C391 C 0.41276 0.88436 0.44962 0.0
C392 C 0.37876 0.8835 0.4251 0.0
H393 H 0.46714 0.91419 0.50006 0.0
H394 H 0.42126 0.86533 0.43535 0.0
S395 S 0.34285 0.94638 0.45674 0.0
N396 N 0.38564 0.96296 0.49407 0.0
N397 N 0.33608 0.90946 0.42406 0.0
C398 C 0.36908 0.90893 0.44386 0.0
C399 C 0.39619 0.93808 0.48146 0.0
C400 C 0.4818 0.34623 0.92701 0.0
C401 C 0.5107 0.38417 0.93978 0.0
C402 C 0.48805 0.32925 0.88086 0.0
C403 C 0.5235 0.34955 0.84601 0.0
H404 H 0.4533 0.33019 0.95104 0.0
H405 H 0.46402 0.30074 0.87057 0.0
S406 S 0.61165 0.44737 0.86774 0.0
N407 N 0.57837 0.43971 0.9182 0.0
N408 N 0.58996 0.40813 0.832 0.0
C409 C 0.55373 0.38662 0.86086 0.0
C410 C 0.54738 0.40383 0.90751 0.0
C411 C 0.19458 0.53412 0.48038 0.0
C412 C 0.16008 0.50022 0.50202 0.0
C413 C 0.21833 0.53423 0.43573 0.0
C414 C 0.20798 0.50044 0.41078 0.0
H415 H 0.20142 0.56086 0.4955 0.0
H416 H 0.24263 0.56113 0.41716 0.0
S417 S 0.1224 0.40407 0.45467 0.0
N418 N 0.11862 0.43189 0.49831 0.0
N419 N 0.16276 0.43213 0.4132 0.0
C420 C 0.17532 0.46619 0.43461 0.0
C421 C 0.15146 0.46605 0.48067 0.0
C422 C 0.64893 0.13992 0.92938 0.0
C423 C 0.66105 0.11651 0.95557 0.0
C424 C 0.67411 0.16872 0.88842 0.0
C425 C 0.71288 0.17601 0.87332 0.0
H426 H 0.61847 0.13407 0.93682 0.0
H427 H 0.66178 0.18331 0.86508 0.0
S428 S 0.76262 0.12829 0.93708 0.0
N429 N 0.71726 0.10668 0.96908 0.0
N430 N 0.76437 0.16098 0.89293 0.0
C431 C 0.72715 0.15569 0.90358 0.0
C432 C 0.70138 0.12601 0.9446 0.0
C433 C 0.61768 0.69048 0.41877 0.0
C434 C 0.64721 0.68609 0.39219 0.0
C435 C 0.60785 0.71603 0.3957 0.0
C436 C 0.62709 0.73781 0.3453 0.0
H437 H 0.59856 0.67114 0.45317 0.0
H438 H 0.58078 0.71427 0.41192 0.0
S439 S 0.71565 0.74613 0.27171 0.0
N440 N 0.70283 0.71288 0.32255 0.0
N441 N 0.68392 0.76059 0.27895 0.0
C442 C 0.66169 0.7388 0.32534 0.0
C443 C 0.67156 0.71263 0.34844 0.0
C444 C 0.57334 0.1638 0.57912 0.0
C445 C 0.54399 0.14744 0.53515 0.0
C446 C 0.57089 0.18593 0.61991 0.0
C447 C 0.53902 0.19268 0.61835 0.0
H448 H 0.59715 0.15774 0.58384 0.0
H449 H 0.59234 0.19556 0.6554 0.0
S450 S 0.45634 0.15911 0.50989 0.0
N451 N 0.4837 0.14191 0.49035 0.0
N452 N 0.47916 0.18355 0.56737 0.0
C453 C 0.51121 0.17886 0.57245 0.0
C454 C 0.51369 0.15625 0.53069 0.0
C455 C 0.42049 0.52052 0.07279 0.0
C456 C 0.40159 0.48316 0.05486 0.0
C457 C 0.40488 0.5291 0.11934 0.0
C458 C 0.3693 0.50092 0.14902 0.0
H459 H 0.44916 0.54293 0.05355 0.0
H460 H 0.4219 0.55769 0.13407 0.0
S461 S 0.30381 0.40035 0.113 0.0
N462 N 0.34187 0.41882 0.06593 0.0
N463 N 0.31274 0.43536 0.15302 0.0
C464 C 0.34789 0.46436 0.12826 0.0
C465 C 0.36392 0.45542 0.08119 0.0
C466 C 0.91447 0.42402 0.56961 0.0
C467 C 0.94206 0.41735 0.5424 0.0
C468 C 0.88393 0.39676 0.6075 0.0
C469 C 0.8795 0.36161 0.61964 0.0
H470 H 0.9187 0.45165 0.56584 0.0
H471 H 0.86651 0.40475 0.63208 0.0
S472 S 0.93716 0.32657 0.55017 0.0
N473 N 0.95752 0.36996 0.52254 0.0
N474 N 0.90061 0.31934 0.59449 0.0
C475 C 0.90325 0.3528 0.58743 0.0
C476 C 0.93443 0.38052 0.54873 0.0
C477 C 0.60573 0.92483 0.03687 0.0
C478 C 0.56925 0.91164 0.00566 0.0
C479 C 0.6087 0.90213 0.08 0.0
C480 C 0.57508 0.86548 0.09406 0.0
H481 H 0.63096 0.95399 0.03098 0.0
H482 H 0.63599 0.91473 0.10655 0.0
S483 S 0.47566 0.81496 0.0175 0.0
N484 N 0.50112 0.85749 0.98553 0.0
N485 N 0.50658 0.81494 0.06758 0.0
C486 C 0.54014 0.85043 0.05897 0.0
C487 C 0.53721 0.87353 0.0145 0.0
C488 C 0.70546 0.58419 0.62135 0.0
C489 C 0.66275 0.56005 0.61279 0.0
C490 C 0.72514 0.57843 0.66839 0.0
C491 C 0.70298 0.54786 0.70796 0.0
H492 H 0.72369 0.60827 0.5921 0.0
H493 H 0.75749 0.599 0.67529 0.0
S494 S 0.592 0.47293 0.69975 0.0
N495 N 0.59989 0.50213 0.64445 0.0
N496 N 0.63686 0.49097 0.73219 0.0
C497 C 0.66073 0.52229 0.69794 0.0
C498 C 0.6406 0.52849 0.65066 0.0
C499 C 0.20409 0.69637 0.08273 0.0
C500 C 0.1624 0.68286 0.07298 0.0
C501 C 0.22477 0.71849 0.13009 0.0
C502 C 0.20425 0.7277 0.16856 0.0
H503 H 0.21953 0.68698 0.0568 0.0
H504 H 0.25565 0.72551 0.13947 0.0
S505 S 0.09755 0.70479 0.15523 0.0
N506 N 0.10332 0.68452 0.10048 0.0
N507 N 0.14206 0.72617 0.18909 0.0
C508 C 0.16399 0.71756 0.15559 0.0
C509 C 0.14306 0.69506 0.10785 0.0
loop_
_geom_bond_atom_site_label_1
_geom_bond_atom_site_label_2
_geom_bond_distance
_geom_bond_site_symmetry_2
_ccdc_geom_bond_type
Cu0 N1 1.998 1_454 S
Cu0 O6 1.946 1_454 S
Cu0 N11 1.988 . S
Cu0 O20 1.987 . S
N1 Cu0 1.998 1_656 S
N1 C3 1.263 . S
N1 C5 1.389 1_556 S
N2 C3 1.358 . S
N2 C4 1.400 . S
C3 N1 1.263 . S
C3 N2 1.358 . S
C3 H9 0.930 . S
C4 N2 1.400 . S
C4 C5 1.351 1_556 S
C4 H21 0.930 . S
C5 N1 1.389 1_554 S
C5 C4 1.351 1_554 S
C5 H10 0.930 . S
O6 Cu0 1.946 1_656 S
O6 C16 1.282 . S
C7 O8 1.261 1_554 S
C7 O20 1.251 . S
O8 C7 1.261 1_556 S
H9 C3 0.930 . S
H10 C5 0.930 . S
N11 Cu0 1.988 . S
N11 C13 1.335 . S
N11 C14 1.390 . S
N12 C13 1.345 . S
N12 C15 1.336 . S
C13 N11 1.335 . S
C13 N12 1.345 . S
C13 H18 0.930 . S
C14 N11 1.390 . S
C14 C15 1.346 . S
C14 H19 0.930 1_554 S
C15 N12 1.336 . S
C15 C14 1.346 . S
C15 H22 0.929 . S
C16 O6 1.282 . S
C16 O17 1.216 . S
O17 C16 1.216 . S
H18 C13 0.930 . S
H19 C14 0.930 1_556 S
O20 Cu0 1.987 . S
O20 C7 1.251 . S
H21 C4 0.930 . S
H22 C15 0.929 . S
Cu23 N24 1.999 . S
Cu23 O29 1.974 . S
Cu23 N34 1.985 1_565 S
Cu23 O43 1.959 1_565 S
N24 Cu23 1.999 . S
N24 C26 1.263 . S
N24 C28 1.389 . S
N25 C26 1.358 . S
N25 C27 1.400 . S
C26 N24 1.263 . S
C26 N25 1.358 . S
C26 H32 0.930 . S
C27 N25 1.400 . S
C27 C28 1.351 . S
C27 H44 0.930 . S
C28 N24 1.389 . S
C28 C27 1.351 . S
C28 H33 0.930 . S
O29 Cu23 1.974 . S
O29 C39 1.282 . S
C30 O31 1.261 . S
C30 O43 1.251 . S
O31 C30 1.261 . S
H32 C26 0.930 . S
H33 C28 0.930 . S
N34 Cu23 1.985 1_545 S
N34 C36 1.335 . S
N34 C37 1.390 . S
N35 C36 1.345 . S
N35 C38 1.336 . S
C36 N34 1.335 . S
C36 N35 1.345 . S
C36 H41 0.930 . S
C37 N34 1.390 . S
C37 C38 1.346 . S
C37 H42 0.930 . S
C38 N35 1.336 . S
C38 C37 1.346 . S
C38 H45 0.929 . S
C39 O29 1.282 . S
C39 O40 1.216 . S
O40 C39 1.216 . S
H41 C36 0.930 . S
H42 C37 0.930 . S
O43 Cu23 1.959 1_545 S
O43 C30 1.251 . S
H44 C27 0.930 . S
H45 C38 0.929 . S
Cu46 N47 1.999 1_554 S
Cu46 O52 1.974 1_554 S
Cu46 N57 1.985 . S
Cu46 O66 1.959 . S
N47 Cu46 1.999 1_556 S
N47 C49 1.263 . S
N47 C51 1.389 . S
N48 C49 1.358 . S
N48 C50 1.400 . S
C49 N47 1.263 . S
C49 N48 1.358 . S
C49 H55 0.930 . S
C50 N48 1.400 . S
C50 C51 1.351 . S
C50 H67 0.930 . S
C51 N47 1.389 . S
C51 C50 1.351 . S
C51 H56 0.930 . S
O52 Cu46 1.974 1_556 S
O52 C62 1.282 . S
C53 O54 1.261 . S
C53 O66 1.251 . S
O54 C53 1.261 . S
H55 C49 0.930 . S
H56 C51 0.930 . S
N57 Cu46 1.985 . S
N57 C59 1.335 . S
N57 C60 1.390 . S
N58 C59 1.345 . S
N58 C61 1.336 . S
C59 N57 1.335 . S
C59 N58 1.345 . S
C59 H64 0.930 . S
C60 N57 1.390 . S
C60 C61 1.346 . S
C60 H65 0.930 . S
C61 N58 1.336 . S
C61 C60 1.346 . S
C61 H68 0.929 . S
C62 O52 1.282 . S
C62 O63 1.216 1_556 S
O63 C62 1.216 1_554 S
H64 C59 0.930 . S
H65 C60 0.930 . S
O66 Cu46 1.959 . S
O66 C53 1.251 . S
H67 C50 0.930 . S
H68 C61 0.929 . S
Cu69 N70 1.999 1_655 S
Cu69 O75 1.974 1_655 S
Cu69 N80 1.985 . S
Cu69 O89 1.959 . S
N70 Cu69 1.999 1_455 S
N70 C72 1.263 . S
N70 C74 1.389 1_455 S
N71 C72 1.358 . S
N71 C73 1.400 . S
C72 N70 1.263 . S
C72 N71 1.358 . S
C72 H78 0.930 . S
C73 N71 1.400 . S
C73 C74 1.351 1_455 S
C73 H90 0.930 . S
C74 N70 1.389 1_655 S
C74 C73 1.351 1_655 S
C74 H79 0.930 . S
O75 Cu69 1.974 1_455 S
O75 C85 1.282 . S
C76 O77 1.261 . S
C76 O89 1.251 . S
O77 C76 1.261 . S
H78 C72 0.930 . S
H79 C74 0.930 . S
N80 Cu69 1.985 . S
N80 C82 1.335 . S
N80 C83 1.390 . S
N81 C82 1.345 . S
N81 C84 1.336 . S
C82 N80 1.335 . S
C82 N81 1.345 . S
C82 H87 0.930 . S
C83 N80 1.390 . S
C83 C84 1.346 . S
C83 H88 0.930 1_655 S
C84 N81 1.336 . S
C84 C83 1.346 . S
C84 H91 0.929 . S
C85 O75 1.282 . S
C85 O86 1.216 . S
O86 C85 1.216 . S
H87 C82 0.930 . S
H88 C83 0.930 1_455 S
O89 Cu69 1.959 . S
O89 C76 1.251 . S
H90 C73 0.930 . S
H91 C84 0.929 . S
Cu92 N93 1.999 . S
Cu92 O98 1.974 . S
Cu92 N103 1.985 1_545 S
Cu92 O112 1.959 1_545 S
N93 Cu92 1.999 . S
N93 C95 1.263 1_554 S
N93 C97 1.389 . S
N94 C95 1.358 . S
N94 C96 1.400 1_556 S
C95 N93 1.263 1_556 S
C95 N94 1.358 . S
C95 H101 0.930 . S
C96 N94 1.400 1_554 S
C96 C97 1.351 . S
C96 H113 0.930 . S
C97 N93 1.389 . S
C97 C96 1.351 . S
C97 H102 0.930 . S
O98 Cu92 1.974 . S
O98 C108 1.282 1_554 S
C99 O100 1.261 . S
C99 O112 1.251 . S
O100 C99 1.261 . S
H101 C95 0.930 . S
H102 C97 0.930 . S
N103 Cu92 1.985 1_565 S
N103 C105 1.335 . S
N103 C106 1.390 . S
N104 C105 1.345 . S
N104 C107 1.336 . S
C105 N103 1.335 . S
C105 N104 1.345 . S
C105 H110 0.930 . S
C106 N103 1.390 . S
C106 C107 1.346 . S
C106 H111 0.930 1_565 S
C107 N104 1.336 . S
C107 C106 1.346 . S
C107 H114 0.929 . S
C108 O98 1.282 1_556 S
C108 O109 1.216 . S
O109 C108 1.216 . S
H110 C105 0.930 . S
H111 C106 0.930 1_545 S
O112 Cu92 1.959 1_565 S
O112 C99 1.251 . S
H113 C96 0.930 . S
H114 C107 0.929 . S
Cu115 N116 1.999 . S
Cu115 O121 1.974 . S
Cu115 N126 1.985 . S
Cu115 O135 1.959 . S
N116 Cu115 1.999 . S
N116 C118 1.263 . S
N116 C120 1.389 . S
N117 C118 1.358 . S
N117 C119 1.400 . S
C118 N116 1.263 . S
C118 N117 1.358 . S
C118 H124 0.930 . S
C119 N117 1.400 . S
C119 C120 1.351 . S
C119 H136 0.930 . S
C120 N116 1.389 . S
C120 C119 1.351 . S
C120 H125 0.930 . S
O121 Cu115 1.974 . S
O121 C131 1.282 . S
C122 O123 1.261 . S
C122 O135 1.251 . S
O123 C122 1.261 . S
H124 C118 0.930 . S
H125 C120 0.930 . S
N126 Cu115 1.985 . S
N126 C128 1.335 . S
N126 C129 1.390 . S
N127 C128 1.345 . S
N127 C130 1.336 . S
C128 N126 1.335 . S
C128 N127 1.345 . S
C128 H133 0.930 . S
C129 N126 1.390 . S
C129 C130 1.346 . S
C129 H134 0.930 . S
C130 N127 1.336 . S
C130 C129 1.346 . S
C130 H137 0.929 . S
C131 O121 1.282 . S
C131 O132 1.216 . S
O132 C131 1.216 . S
H133 C128 0.930 . S
H134 C129 0.930 . S
O135 Cu115 1.959 . S
O135 C122 1.251 . S
H136 C119 0.930 . S
H137 C130 0.929 . S
H138 C144 0.930 . S
H139 C147 0.931 . S
H140 C149 0.931 . S
H141 C151 0.930 . S
H142 C153 0.930 . S
H143 C155 0.931 . S
C144 H138 0.930 . S
C144 C145 1.380 . S
C144 C146 1.394 . S
C145 C144 1.380 . S
C145 C149 1.382 . S
C146 C144 1.394 . S
C146 C147 1.400 . S
C147 H139 0.931 . S
C147 C146 1.400 . S
C147 C148 1.375 . S
C148 C147 1.375 . S
C148 C149 1.415 . S
C148 C150 1.501 . S
C149 H140 0.931 . S
C149 C145 1.382 . S
C149 C148 1.415 . S
C150 C148 1.501 . S
C150 C151 1.384 . S
C150 C155 1.408 . S
C151 H141 0.930 . S
C151 C150 1.384 . S
C151 C152 1.389 . S
C152 C151 1.389 . S
C152 C153 1.405 . S
C153 H142 0.930 . S
C153 C152 1.405 . S
C153 C154 1.364 . S
C154 C153 1.364 . S
C154 C155 1.400 . S
C155 H143 0.931 . S
C155 C150 1.408 . S
C155 C154 1.400 . S
H156 C162 0.930 . S
H157 C165 0.931 . S
H158 C167 0.931 . S
H159 C169 0.930 . S
H160 C171 0.930 . S
H161 C173 0.931 . S
C162 H156 0.930 . S
C162 C163 1.380 . S
C162 C164 1.394 . S
C163 C162 1.380 . S
C163 C167 1.382 . S
C164 C162 1.394 . S
C164 C165 1.400 . S
C165 H157 0.931 . S
C165 C164 1.400 . S
C165 C166 1.375 . S
C166 C165 1.375 . S
C166 C167 1.415 . S
C166 C168 1.501 . S
C167 H158 0.931 . S
C167 C163 1.382 . S
C167 C166 1.415 . S
C168 C166 1.501 . S
C168 C169 1.384 . S
C168 C173 1.408 . S
C169 H159 0.930 . S
C169 C168 1.384 . S
C169 C170 1.389 . S
C170 C169 1.389 . S
C170 C171 1.405 . S
C171 H160 0.930 . S
C171 C170 1.405 . S
C171 C172 1.364 . S
C172 C171 1.364 . S
C172 C173 1.400 . S
C173 H161 0.931 . S
C173 C168 1.408 . S
C173 C172 1.400 . S
H174 C180 0.930 . S
H175 C183 0.931 . S
H176 C185 0.931 . S
H177 C187 0.930 . S
H178 C189 0.930 . S
H179 C191 0.931 . S
C180 H174 0.930 . S
C180 C181 1.380 . S
C180 C182 1.394 . S
C181 C180 1.380 . S
C181 C185 1.382 . S
C182 C180 1.394 . S
C182 C183 1.400 . S
C183 H175 0.931 . S
C183 C182 1.400 . S
C183 C184 1.375 . S
C184 C183 1.375 . S
C184 C185 1.415 . S
C184 C186 1.501 . S
C185 H176 0.931 . S
C185 C181 1.382 . S
C185 C184 1.415 . S
C186 C184 1.501 . S
C186 C187 1.384 . S
C186 C191 1.408 . S
C187 H177 0.930 . S
C187 C186 1.384 . S
C187 C188 1.389 . S
C188 C187 1.389 . S
C188 C189 1.405 . S
C189 H178 0.930 . S
C189 C188 1.405 . S
C189 C190 1.364 . S
C190 C189 1.364 . S
C190 C191 1.400 . S
C191 H179 0.931 . S
C191 C186 1.408 . S
C191 C190 1.400 . S
H192 C198 0.930 . S
H193 C201 0.931 . S
H194 C203 0.931 . S
H195 C205 0.930 . S
H196 C207 0.930 . S
H197 C209 0.931 . S
C198 H192 0.930 . S
C198 C199 1.380 . S
C198 C200 1.394 . S
C199 C198 1.380 . S
C199 C203 1.382 . S
C200 C198 1.394 . S
C200 C201 1.400 . S
C201 H193 0.931 . S
C201 C200 1.400 . S
C201 C202 1.375 . S
C202 C201 1.375 . S
C202 C203 1.415 . S
C202 C204 1.501 . S
C203 H194 0.931 . S
C203 C199 1.382 . S
C203 C202 1.415 . S
C204 C202 1.501 . S
C204 C205 1.384 . S
C204 C209 1.408 . S
C205 H195 0.930 . S
C205 C204 1.384 . S
C205 C206 1.389 . S
C206 C205 1.389 . S
C206 C207 1.405 . S
C207 H196 0.930 . S
C207 C206 1.405 . S
C207 C208 1.364 . S
C208 C207 1.364 . S
C208 C209 1.400 . S
C209 H197 0.931 . S
C209 C204 1.408 . S
C209 C208 1.400 . S
H210 C216 0.930 . S
H211 C219 0.931 . S
H212 C221 0.931 . S
H213 C223 0.930 . S
H214 C225 0.930 . S
H215 C227 0.931 . S
C216 H210 0.930 . S
C216 C217 1.380 . S
C216 C218 1.394 . S
C217 C216 1.380 . S
C217 C221 1.382 . S
C218 C216 1.394 . S
C218 C219 1.400 . S
C219 H211 0.931 . S
C219 C218 1.400 . S
C219 C220 1.375 . S
C220 C219 1.375 . S
C220 C221 1.415 . S
C220 C222 1.501 . S
C221 H212 0.931 . S
C221 C217 1.382 . S
C221 C220 1.415 . S
C222 C220 1.501 . S
C222 C223 1.384 . S
C222 C227 1.408 . S
C223 H213 0.930 . S
C223 C222 1.384 . S
C223 C224 1.389 . S
C224 C223 1.389 . S
C224 C225 1.405 . S
C225 H214 0.930 . S
C225 C224 1.405 . S
C225 C226 1.364 . S
C226 C225 1.364 . S
C226 C227 1.400 . S
C227 H215 0.931 . S
C227 C222 1.408 . S
C227 C226 1.400 . S
H228 C234 0.930 . S
H229 C237 0.931 . S
H230 C239 0.931 . S
H231 C241 0.930 . S
H232 C243 0.930 . S
H233 C245 0.931 . S
C234 H228 0.930 . S
C234 C235 1.380 . S
C234 C236 1.394 . S
C235 C234 1.380 . S
C235 C239 1.382 . S
C236 C234 1.394 . S
C236 C237 1.400 . S
C237 H229 0.931 . S
C237 C236 1.400 . S
C237 C238 1.375 . S
C238 C237 1.375 . S
C238 C239 1.415 . S
C238 C240 1.501 . S
C239 H230 0.931 . S
C239 C235 1.382 . S
C239 C238 1.415 . S
C240 C238 1.501 . S
C240 C241 1.384 . S
C240 C245 1.408 . S
C241 H231 0.930 . S
C241 C240 1.384 . S
C241 C242 1.389 . S
C242 C241 1.389 . S
C242 C243 1.405 . S
C243 H232 0.930 . S
C243 C242 1.405 . S
C243 C244 1.364 . S
C244 C243 1.364 . S
C244 C245 1.400 . S
C245 H233 0.931 . S
C245 C240 1.408 . S
C245 C244 1.400 . S
C246 C247 1.369 . S
C246 C248 1.419 . S
C246 H250 0.930 . S
C247 C246 1.369 . S
C247 C256 1.429 . S
C248 C246 1.419 . S
C248 C249 1.363 . S
C248 H251 0.929 . S
C249 C248 1.363 . S
C249 C255 1.428 . S
H250 C246 0.930 . S
H251 C248 0.929 . S
S252 N253 1.613 . S
S252 N254 1.610 1_556 S
N253 S252 1.613 . S
N253 C256 1.350 1_556 S
N254 S252 1.610 1_554 S
N254 C255 1.351 . S
C255 C249 1.428 . S
C255 N254 1.351 . S
C255 C256 1.434 . S
C256 C247 1.429 . S
C256 N253 1.350 1_554 S
C256 C255 1.434 . S
C257 C258 1.369 . S
C257 C259 1.419 . S
C257 H261 0.930 . S
C258 C257 1.369 . S
C258 C267 1.429 . S
C259 C257 1.419 . S
C259 C260 1.363 . S
C259 H262 0.929 . S
C260 C259 1.363 . S
C260 C266 1.428 . S
H261 C257 0.930 . S
H262 C259 0.929 . S
S263 N264 1.613 . S
S263 N265 1.610 . S
N264 S263 1.613 . S
N264 C267 1.350 . S
N265 S263 1.610 . S
N265 C266 1.351 . S
C266 C260 1.428 . S
C266 N265 1.351 . S
C266 C267 1.434 . S
C267 C258 1.429 . S
C267 N264 1.350 . S
C267 C266 1.434 . S
C268 C269 1.369 . S
C268 C270 1.419 . S
C268 H272 0.930 . S
C269 C268 1.369 . S
C269 C278 1.429 . S
C270 C268 1.419 . S
C270 C271 1.363 . S
C270 H273 0.929 . S
C271 C270 1.363 . S
C271 C277 1.428 . S
H272 C268 0.930 . S
H273 C270 0.929 . S
S274 N275 1.613 . S
S274 N276 1.610 . S
N275 S274 1.613 . S
N275 C278 1.350 . S
N276 S274 1.610 . S
N276 C277 1.351 . S
C277 C271 1.428 . S
C277 N276 1.351 . S
C277 C278 1.434 . S
C278 C269 1.429 . S
C278 N275 1.350 . S
C278 C277 1.434 . S
C279 C280 1.369 . S
C279 C281 1.419 . S
C279 H283 0.930 . S
C280 C279 1.369 . S
C280 C289 1.429 . S
C281 C279 1.419 . S
C281 C282 1.363 . S
C281 H284 0.929 . S
C282 C281 1.363 . S
C282 C288 1.428 . S
H283 C279 0.930 . S
H284 C281 0.929 . S
S285 N286 1.613 . S
S285 N287 1.610 . S
N286 S285 1.613 . S
N286 C289 1.350 . S
N287 S285 1.610 . S
N287 C288 1.351 . S
C288 C282 1.428 . S
C288 N287 1.351 . S
C288 C289 1.434 . S
C289 C280 1.429 . S
C289 N286 1.350 . S
C289 C288 1.434 . S
C290 C291 1.369 . S
C290 C292 1.419 . S
C290 H294 0.930 . S
C291 C290 1.369 . S
C291 C300 1.429 . S
C292 C290 1.419 . S
C292 C293 1.363 . S
C292 H295 0.929 . S
C293 C292 1.363 . S
C293 C299 1.428 . S
H294 C290 0.930 . S
H295 C292 0.929 . S
S296 N297 1.613 . S
S296 N298 1.610 . S
N297 S296 1.613 . S
N297 C300 1.350 . S
N298 S296 1.610 . S
N298 C299 1.351 . S
C299 C293 1.428 . S
C299 N298 1.351 . S
C299 C300 1.434 . S
C300 C291 1.429 . S
C300 N297 1.350 . S
C300 C299 1.434 . S
C301 C302 1.369 . S
C301 C303 1.419 . S
C301 H305 0.930 . S
C302 C301 1.369 . S
C302 C311 1.429 . S
C303 C301 1.419 . S
C303 C304 1.363 . S
C303 H306 0.929 . S
C304 C303 1.363 . S
C304 C310 1.428 . S
H305 C301 0.930 . S
H306 C303 0.929 . S
S307 N308 1.613 . S
S307 N309 1.610 . S
N308 S307 1.613 . S
N308 C311 1.350 . S
N309 S307 1.610 . S
N309 C310 1.351 . S
C310 C304 1.428 . S
C310 N309 1.351 . S
C310 C311 1.434 . S
C311 C302 1.429 . S
C311 N308 1.350 . S
C311 C310 1.434 . S
C312 C313 1.369 . S
C312 C314 1.419 . S
C312 H316 0.930 . S
C313 C312 1.369 . S
C313 C322 1.429 . S
C314 C312 1.419 . S
C314 C315 1.363 . S
C314 H317 0.929 . S
C315 C314 1.363 . S
C315 C321 1.428 . S
H316 C312 0.930 . S
H317 C314 0.929 . S
S318 N319 1.613 . S
S318 N320 1.610 . S
N319 S318 1.613 . S
N319 C322 1.350 . S
N320 S318 1.610 . S
N320 C321 1.351 . S
C321 C315 1.428 . S
C321 N320 1.351 . S
C321 C322 1.434 . S
C322 C313 1.429 . S
C322 N319 1.350 . S
C322 C321 1.434 . S
C323 C324 1.369 . S
C323 C325 1.419 . S
C323 H327 0.930 1_556 S
C324 C323 1.369 . S
C324 C333 1.429 . S
C325 C323 1.419 . S
C325 C326 1.363 . S
C325 H328 0.929 . S
C326 C325 1.363 . S
C326 C332 1.428 . S
H327 C323 0.930 1_554 S
H328 C325 0.929 . S
S329 N330 1.613 . S
S329 N331 1.610 . S
N330 S329 1.613 . S
N330 C333 1.350 . S
N331 S329 1.610 . S
N331 C332 1.351 . S
C332 C326 1.428 . S
C332 N331 1.351 . S
C332 C333 1.434 . S
C333 C324 1.429 . S
C333 N330 1.350 . S
C333 C332 1.434 . S
C334 C335 1.369 . S
C334 C336 1.419 . S
C334 H338 0.930 . S
C335 C334 1.369 . S
C335 C344 1.429 . S
C336 C334 1.419 . S
C336 C337 1.363 . S
C336 H339 0.929 . S
C337 C336 1.363 . S
C337 C343 1.428 . S
H338 C334 0.930 . S
H339 C336 0.929 . S
S340 N341 1.613 . S
S340 N342 1.610 . S
N341 S340 1.613 . S
N341 C344 1.350 . S
N342 S340 1.610 . S
N342 C343 1.351 . S
C343 C337 1.428 . S
C343 N342 1.351 . S
C343 C344 1.434 . S
C344 C335 1.429 . S
C344 N341 1.350 . S
C344 C343 1.434 . S
C345 C346 1.369 . S
C345 C347 1.419 . S
C345 H349 0.930 . S
C346 C345 1.369 . S
C346 C355 1.429 . S
C347 C345 1.419 . S
C347 C348 1.363 . S
C347 H350 0.929 . S
C348 C347 1.363 . S
C348 C354 1.428 . S
H349 C345 0.930 . S
H350 C347 0.929 . S
S351 N352 1.613 . S
S351 N353 1.610 . S
N352 S351 1.613 . S
N352 C355 1.350 . S
N353 S351 1.610 . S
N353 C354 1.351 . S
C354 C348 1.428 . S
C354 N353 1.351 . S
C354 C355 1.434 . S
C355 C346 1.429 . S
C355 N352 1.350 . S
C355 C354 1.434 . S
C356 C357 1.369 . S
C356 C358 1.419 . S
C356 H360 0.930 . S
C357 C356 1.369 . S
C357 C366 1.429 . S
C358 C356 1.419 . S
C358 C359 1.363 . S
C358 H361 0.929 . S
C359 C358 1.363 . S
C359 C365 1.428 . S
H360 C356 0.930 . S
H361 C358 0.929 . S
S362 N363 1.613 . S
S362 N364 1.610 . S
N363 S362 1.613 . S
N363 C366 1.350 . S
N364 S362 1.610 . S
N364 C365 1.351 . S
C365 C359 1.428 . S
C365 N364 1.351 . S
C365 C366 1.434 . S
C366 C357 1.429 . S
C366 N363 1.350 . S
C366 C365 1.434 . S
C367 C368 1.369 . S
C367 C369 1.419 . S
C367 H371 0.930 . S
C368 C367 1.369 . S
C368 C377 1.429 . S
C369 C367 1.419 . S
C369 C370 1.363 . S
C369 H372 0.929 . S
C370 C369 1.363 . S
C370 C376 1.428 . S
H371 C367 0.930 . S
H372 C369 0.929 . S
S373 N374 1.613 . S
S373 N375 1.610 . S
N374 S373 1.613 . S
N374 C377 1.350 . S
N375 S373 1.610 . S
N375 C376 1.351 . S
C376 C370 1.428 . S
C376 N375 1.351 . S
C376 C377 1.434 . S
C377 C368 1.429 . S
C377 N374 1.350 . S
C377 C376 1.434 . S
C378 C379 1.369 . S
C378 C380 1.419 . S
C378 H382 0.930 . S
C379 C378 1.369 . S
C379 C388 1.429 . S
C380 C378 1.419 . S
C380 C381 1.363 . S
C380 H383 0.929 . S
C381 C380 1.363 . S
C381 C387 1.428 . S
H382 C378 0.930 . S
H383 C380 0.929 . S
S384 N385 1.613 . S
S384 N386 1.610 . S
N385 S384 1.613 . S
N385 C388 1.350 . S
N386 S384 1.610 . S
N386 C387 1.351 . S
C387 C381 1.428 . S
C387 N386 1.351 . S
C387 C388 1.434 . S
C388 C379 1.429 . S
C388 N385 1.350 . S
C388 C387 1.434 . S
C389 C390 1.369 . S
C389 C391 1.419 . S
C389 H393 0.930 . S
C390 C389 1.369 . S
C390 C399 1.429 . S
C391 C389 1.419 . S
C391 C392 1.363 . S
C391 H394 0.929 . S
C392 C391 1.363 . S
C392 C398 1.428 . S
H393 C389 0.930 . S
H394 C391 0.929 . S
S395 N396 1.613 . S
S395 N397 1.610 . S
N396 S395 1.613 . S
N396 C399 1.350 . S
N397 S395 1.610 . S
N397 C398 1.351 . S
C398 C392 1.428 . S
C398 N397 1.351 . S
C398 C399 1.434 . S
C399 C390 1.429 . S
C399 N396 1.350 . S
C399 C398 1.434 . S
C400 C401 1.369 . S
C400 C402 1.419 . S
C400 H404 0.930 . S
C401 C400 1.369 . S
C401 C410 1.429 . S
C402 C400 1.419 . S
C402 C403 1.363 . S
C402 H405 0.929 . S
C403 C402 1.363 . S
C403 C409 1.428 . S
H404 C400 0.930 . S
H405 C402 0.929 . S
S406 N407 1.613 . S
S406 N408 1.610 . S
N407 S406 1.613 . S
N407 C410 1.350 . S
N408 S406 1.610 . S
N408 C409 1.351 . S
C409 C403 1.428 . S
C409 N408 1.351 . S
C409 C410 1.434 . S
C410 C401 1.429 . S
C410 N407 1.350 . S
C410 C409 1.434 . S
C411 C412 1.369 . S
C411 C413 1.419 . S
C411 H415 0.930 . S
C412 C411 1.369 . S
C412 C421 1.429 . S
C413 C411 1.419 . S
C413 C414 1.363 . S
C413 H416 0.929 . S
C414 C413 1.363 . S
C414 C420 1.428 . S
H415 C411 0.930 . S
H416 C413 0.929 . S
S417 N418 1.613 . S
S417 N419 1.610 . S
N418 S417 1.613 . S
N418 C421 1.350 . S
N419 S417 1.610 . S
N419 C420 1.351 . S
C420 C414 1.428 . S
C420 N419 1.351 . S
C420 C421 1.434 . S
C421 C412 1.429 . S
C421 N418 1.350 . S
C421 C420 1.434 . S
C422 C423 1.369 . S
C422 C424 1.419 . S
C422 H426 0.930 . S
C423 C422 1.369 . S
C423 C432 1.429 . S
C424 C422 1.419 . S
C424 C425 1.363 . S
C424 H427 0.929 . S
C425 C424 1.363 . S
C425 C431 1.428 . S
H426 C422 0.930 . S
H427 C424 0.929 . S
S428 N429 1.613 . S
S428 N430 1.610 . S
N429 S428 1.613 . S
N429 C432 1.350 . S
N430 S428 1.610 . S
N430 C431 1.351 . S
C431 C425 1.428 . S
C431 N430 1.351 . S
C431 C432 1.434 . S
C432 C423 1.429 . S
C432 N429 1.350 . S
C432 C431 1.434 . S
C433 C434 1.369 . S
C433 C435 1.419 . S
C433 H437 0.930 . S
C434 C433 1.369 . S
C434 C443 1.429 . S
C435 C433 1.419 . S
C435 C436 1.363 . S
C435 H438 0.929 . S
C436 C435 1.363 . S
C436 C442 1.428 . S
H437 C433 0.930 . S
H438 C435 0.929 . S
S439 N440 1.613 . S
S439 N441 1.610 . S
N440 S439 1.613 . S
N440 C443 1.350 . S
N441 S439 1.610 . S
N441 C442 1.351 . S
C442 C436 1.428 . S
C442 N441 1.351 . S
C442 C443 1.434 . S
C443 C434 1.429 . S
C443 N440 1.350 . S
C443 C442 1.434 . S
C444 C445 1.369 . S
C444 C446 1.419 . S
C444 H448 0.930 . S
C445 C444 1.369 . S
C445 C454 1.429 . S
C446 C444 1.419 . S
C446 C447 1.363 . S
C446 H449 0.929 . S
C447 C446 1.363 . S
C447 C453 1.428 . S
H448 C444 0.930 . S
H449 C446 0.929 . S
S450 N451 1.613 . S
S450 N452 1.610 . S
N451 S450 1.613 . S
N451 C454 1.350 . S
N452 S450 1.610 . S
N452 C453 1.351 . S
C453 C447 1.428 . S
C453 N452 1.351 . S
C453 C454 1.434 . S
C454 C445 1.429 . S
C454 N451 1.350 . S
C454 C453 1.434 . S
C455 C456 1.369 . S
C455 C457 1.419 . S
C455 H459 0.930 . S
C456 C455 1.369 . S
C456 C465 1.429 . S
C457 C455 1.419 . S
C457 C458 1.363 . S
C457 H460 0.929 . S
C458 C457 1.363 . S
C458 C464 1.428 . S
H459 C455 0.930 . S
H460 C457 0.929 . S
S461 N462 1.613 . S
S461 N463 1.610 . S
N462 S461 1.613 . S
N462 C465 1.350 . S
N463 S461 1.610 . S
N463 C464 1.351 . S
C464 C458 1.428 . S
C464 N463 1.351 . S
C464 C465 1.434 . S
C465 C456 1.429 . S
C465 N462 1.350 . S
C465 C464 1.434 . S
C466 C467 1.369 . S
C466 C468 1.419 . S
C466 H470 0.930 . S
C467 C466 1.369 . S
C467 C476 1.429 . S
C468 C466 1.419 . S
C468 C469 1.363 . S
C468 H471 0.929 . S
C469 C468 1.363 . S
C469 C475 1.428 . S
H470 C466 0.930 . S
H471 C468 0.929 . S
S472 N473 1.613 . S
S472 N474 1.610 . S
N473 S472 1.613 . S
N473 C476 1.350 . S
N474 S472 1.610 . S
N474 C475 1.351 . S
C475 C469 1.428 . S
C475 N474 1.351 . S
C475 C476 1.434 . S
C476 C467 1.429 . S
C476 N473 1.350 . S
C476 C475 1.434 . S
C477 C478 1.369 . S
C477 C479 1.419 . S
C477 H481 0.930 . S
C478 C477 1.369 . S
C478 C487 1.429 . S
C479 C477 1.419 . S
C479 C480 1.363 . S
C479 H482 0.929 . S
C480 C479 1.363 . S
C480 C486 1.428 . S
H481 C477 0.930 . S
H482 C479 0.929 . S
S483 N484 1.613 . S
S483 N485 1.610 . S
N484 S483 1.613 . S
N484 C487 1.350 . S
N485 S483 1.610 . S
N485 C486 1.351 . S
C486 C480 1.428 . S
C486 N485 1.351 . S
C486 C487 1.434 . S
C487 C478 1.429 . S
C487 N484 1.350 . S
C487 C486 1.434 . S
C488 C489 1.369 . S
C488 C490 1.419 . S
C488 H492 0.930 . S
C489 C488 1.369 . S
C489 C498 1.429 . S
C490 C488 1.419 . S
C490 C491 1.363 . S
C490 H493 0.929 . S
C491 C490 1.363 . S
C491 C497 1.428 . S
H492 C488 0.930 . S
H493 C490 0.929 . S
S494 N495 1.613 . S
S494 N496 1.610 . S
N495 S494 1.613 . S
N495 C498 1.350 . S
N496 S494 1.610 . S
N496 C497 1.351 . S
C497 C491 1.428 . S
C497 N496 1.351 . S
C497 C498 1.434 . S
C498 C489 1.429 . S
C498 N495 1.350 . S
C498 C497 1.434 . S
C499 C500 1.369 . S
C499 C501 1.419 . S
C499 H503 0.930 . S
C500 C499 1.369 . S
C500 C509 1.429 . S
C501 C499 1.419 . S
C501 C502 1.363 . S
C501 H504 0.929 . S
C502 C501 1.363 . S
C502 C508 1.428 . S
H503 C499 0.930 . S
H504 C501 0.929 . S
S505 N506 1.613 . S
S505 N507 1.610 . S
N506 S505 1.613 . S
N506 C509 1.350 . S
N507 S505 1.610 . S
N507 C508 1.351 . S
C508 C502 1.428 . S
C508 N507 1.351 . S
C508 C509 1.434 . S
C509 C500 1.429 . S
C509 N506 1.350 . S
C509 C508 1.434 . S
C247 C7 1.758 . S
C249 C152 1.690 . S
C258 C30 1.515 . S
C260 C163 1.462 . S
C271 C182 1.584 . S
C269 N58 1.589 . S
C282 C199 1.384 . S
C280 N81 1.353 . S
C293 C226 1.628 . S
C291 C99 1.653 . S
C304 C235 1.393 . S
C302 N127 1.396 . S
C313 N25 1.609 . S
C315 C188 1.581 . S
C324 C62 1.517 . S
C326 C208 1.473 . S
C337 C217 1.640 . S
C335 C85 1.711 . S
C348 C244 1.413 . S
C346 N94 1.419 . S
C357 C131 1.693 . S
C359 C146 1.660 . S
C370 C172 1.366 . S
C368 N2 1.369 . S
C381 C200 1.653 . S
C379 C16 1.777 . S
C390 C39 1.540 . S
C392 C224 1.462 . S
C403 C236 1.582 . S
C401 N48 1.655 . S
C412 N71 1.400 . S
C414 C154 1.357 . S
C423 C108 1.688 . S
C425 C164 1.635 . S
C434 N117 1.454 . S
C436 C181 1.388 . S
C445 N35 1.643 . S
C447 C242 1.601 . S
C458 C145 1.462 . S
C456 C53 1.570 . S
C467 C76 1.795 . S
C469 C170 1.685 . S
C478 N104 1.450 . S
C480 C190 1.363 . S
C489 C122 1.694 . S
C491 C206 1.626 . S
C500 N12 1.372 . S
C502 C218 1.362 . S
