# Generated by pormake.
# Topology zzz, (3,6)-cn, num edge types: 1
# Building blocks:
#     Node 0, Type 0, BuildingBlock: PAMTOO_clean_linker_0, # of connection points: 3
#     Node 1, Type 0, BuildingBlock: PAMTOO_clean_linker_0, # of connection points: 3
#     Node 2, Type 0, BuildingBlock: PAMTOO_clean_linker_0, # of connection points: 3
#     Node 3, Type 0, BuildingBlock: PAMTOO_clean_linker_0, # of connection points: 3
#     Node 4, Type 0, BuildingBlock: PAMTOO_clean_linker_0, # of connection points: 3
#     Node 5, Type 0, BuildingBlock: PAMTOO_clean_linker_0, # of connection points: 3
#     Node 6, Type 0, BuildingBlock: PAMTOO_clean_linker_0, # of connection points: 3
#     Node 7, Type 0, BuildingBlock: PAMTOO_clean_linker_0, # of connection points: 3
#     Node 8, Type 1, BuildingBlock: KUMJIN_clean_sbu_0, # of connection points: 6
#     Node 9, Type 1, BuildingBlock: KUMJIN_clean_sbu_0, # of connection points: 6
#     Node 10, Type 1, BuildingBlock: KUMJIN_clean_sbu_0, # of connection points: 6
#     Node 11, Type 1, BuildingBlock: KUMJIN_clean_sbu_0, # of connection points: 6
#     Edge 12, Type (0, 1), BuildingBlock: UVAHIK_clean_linker_0, # of connection points: 2
#     Edge 13, Type (0, 1), BuildingBlock: UVAHIK_clean_linker_0, # of connection points: 2
#     Edge 14, Type (0, 1), BuildingBlock: UVAHIK_clean_linker_0, # of connection points: 2
#     Edge 15, Type (0, 1), BuildingBlock: UVAHIK_clean_linker_0, # of connection points: 2
#     Edge 16, Type (0, 1), BuildingBlock: UVAHIK_clean_linker_0, # of connection points: 2
#     Edge 17, Type (0, 1), BuildingBlock: UVAHIK_clean_linker_0, # of connection points: 2
#     Edge 18, Type (0, 1), BuildingBlock: UVAHIK_clean_linker_0, # of connection points: 2
#     Edge 19, Type (0, 1), BuildingBlock: UVAHIK_clean_linker_0, # of connection points: 2
#     Edge 20, Type (0, 1), BuildingBlock: UVAHIK_clean_linker_0, # of connection points: 2
#     Edge 21, Type (0, 1), BuildingBlock: UVAHIK_clean_linker_0, # of connection points: 2
#     Edge 22, Type (0, 1), BuildingBlock: UVAHIK_clean_linker_0, # of connection points: 2
#     Edge 23, Type (0, 1), BuildingBlock: UVAHIK_clean_linker_0, # of connection points: 2
#     Edge 24, Type (0, 1), BuildingBlock: UVAHIK_clean_linker_0, # of connection points: 2
#     Edge 25, Type (0, 1), BuildingBlock: UVAHIK_clean_linker_0, # of connection points: 2
#     Edge 26, Type (0, 1), BuildingBlock: UVAHIK_clean_linker_0, # of connection points: 2
#     Edge 27, Type (0, 1), BuildingBlock: UVAHIK_clean_linker_0, # of connection points: 2
#     Edge 28, Type (0, 1), BuildingBlock: UVAHIK_clean_linker_0, # of connection points: 2
#     Edge 29, Type (0, 1), BuildingBlock: UVAHIK_clean_linker_0, # of connection points: 2
#     Edge 30, Type (0, 1), BuildingBlock: UVAHIK_clean_linker_0, # of connection points: 2
#     Edge 31, Type (0, 1), BuildingBlock: UVAHIK_clean_linker_0, # of connection points: 2
#     Edge 32, Type (0, 1), BuildingBlock: UVAHIK_clean_linker_0, # of connection points: 2
#     Edge 33, Type (0, 1), BuildingBlock: UVAHIK_clean_linker_0, # of connection points: 2
#     Edge 34, Type (0, 1), BuildingBlock: UVAHIK_clean_linker_0, # of connection points: 2
#     Edge 35, Type (0, 1), BuildingBlock: UVAHIK_clean_linker_0, # of connection points: 2
# Relax obj value: 0.145
# Max RMSD: 0.153
# Mean RMSD: 0.111
data_MOF--net-zzz--node1-KUMJIN_clean_sbu_0--node2-PAMTOO_clean_linker_0--edge1-UVAHIK_clean_linker_0
_symmetry_space_group_name_H-M    P1
_symmetry_Int_Tables_number       1
_symmetry_cell_setting            triclinic
loop_
_symmetry_equiv_pos_as_xyz
'x, y, z'
_cell_length_a     65.646552
_cell_length_b     65.563224
_cell_length_c     19.02542
_cell_angle_alpha  90.816458
_cell_angle_beta   90.053575
_cell_angle_gamma 89.970414
loop_
_atom_site_label
_atom_site_type_symbol
_atom_site_fract_x
_atom_site_fract_y
_atom_site_fract_z
_atom_type_partial_charge
H0 H 0.80355 0.55277 0.13368 0.0
H1 H 0.74282 0.55042 0.05008 0.0
H2 H 0.75589 0.52305 0.24979 0.0
H3 H 0.71453 0.50256 0.16371 0.0
C4 C 0.71905 0.51341 0.12222 0.0
O5 O 0.72693 0.53084 0.15441 0.0
H6 H 0.73093 0.50553 0.08996 0.0
C7 C 0.78773 0.54829 0.13939 0.0
C8 C 0.78168 0.53734 0.19871 0.0
C9 C 0.77385 0.55304 0.08613 0.0
C10 C 0.75351 0.54703 0.09179 0.0
C11 C 0.74688 0.53631 0.15059 0.0
C12 C 0.76096 0.53152 0.20461 0.0
H13 H 1.00192 0.81957 0.10842 0.0
H14 H 0.99932 0.75887 0.01931 0.0
H15 H 0.99728 0.76769 0.24341 0.0
H16 H 0.97056 0.7353 0.09232 0.0
C17 C 0.98241 0.72727 0.12341 0.0
O18 O 0.99891 0.74005 0.13702 0.0
H19 H 0.9753 0.72332 0.17441 0.0
C20 C 1.0003 0.80324 0.11457 0.0
C21 C 0.99898 0.7955 0.18279 0.0
C22 C 1.00029 0.79029 0.05492 0.0
C23 C 0.99929 0.76913 0.06432 0.0
C24 C 0.99818 0.76078 0.13141 0.0
C25 C 0.9978 0.77404 0.19122 0.0
H26 H 0.7115 0.98822 0.13959 0.0
H27 H 0.77273 0.98127 0.06154 0.0
H28 H 0.76258 0.99837 0.27759 0.0
H29 H 0.80451 0.01763 0.21138 0.0
C30 C 0.8014 0.00922 0.16139 0.0
O31 O 0.79066 0.99163 0.17751 0.0
H32 H 0.79209 0.01944 0.12784 0.0
C33 C 0.72782 0.98824 0.14834 0.0
C34 C 0.73523 0.99319 0.21569 0.0
C35 C 0.74114 0.98391 0.0921 0.0
C36 C 0.76223 0.98463 0.10396 0.0
C37 C 0.77008 0.99014 0.16988 0.0
C38 C 0.75656 0.9942 0.22638 0.0
H39 H 0.56156 0.72309 0.164 0.0
H40 H 0.55382 0.78168 0.07016 0.0
H41 H 0.53191 0.7716 0.2802 0.0
H42 H 0.50747 0.80802 0.19471 0.0
C43 C 0.51862 0.80618 0.15115 0.0
O44 O 0.53673 0.79907 0.17925 0.0
H45 H 0.51212 0.79496 0.11278 0.0
C46 C 0.55654 0.73883 0.16832 0.0
C47 C 0.54671 0.74565 0.22982 0.0
C48 C 0.5589 0.75164 0.11061 0.0
C49 C 0.55201 0.77179 0.1148 0.0
C50 C 0.54248 0.77917 0.1759 0.0
C51 C 0.53946 0.76597 0.23321 0.0
H52 H 0.21954 0.47866 0.09919 0.0
H53 H 0.27745 0.48714 0.20067 0.0
H54 H 0.26644 0.51366 0.99824 0.0
H55 H 0.31647 0.50288 0.03331 0.0
C56 C 0.31123 0.49834 0.08637 0.0
O57 O 0.29353 0.509 0.10241 0.0
H58 H 0.30827 0.48161 0.08332 0.0
C59 C 0.23502 0.48445 0.09788 0.0
C60 C 0.24124 0.49639 0.04126 0.0
C61 C 0.24799 0.48095 0.155 0.0
C62 C 0.26761 0.48927 0.15559 0.0
C63 C 0.2746 0.50059 0.09862 0.0
C64 C 0.26137 0.5042 0.04102 0.0
H65 H 0.04407 0.21961 0.10934 0.0
H66 H 0.04297 0.28097 0.19233 0.0
H67 H 0.01088 0.26634 1.00068 0.0
H68 H 0.9959 0.29138 0.15935 0.0
C69 C 1.00351 0.30373 0.12944 0.0
O70 O 0.02051 0.29608 0.09425 0.0
H71 H 0.99233 0.30894 0.08971 0.0
C72 C 0.03953 0.23545 0.10442 0.0
C73 C 0.02714 0.24107 0.0478 0.0
C74 C 0.04524 0.24966 0.15671 0.0
C75 C 0.03878 0.26995 0.15185 0.0
C76 C 0.02644 0.27615 0.09619 0.0
C77 C 0.0206 0.26167 0.04356 0.0
H78 H 0.31447 0.05563 0.08295 0.0
H79 H 0.25684 0.04646 0.18511 0.0
H80 H 0.26671 0.02238 0.97647 0.0
H81 H 0.21825 0.03464 0.01259 0.0
C82 C 0.22271 0.03769 0.06813 0.0
O83 O 0.24004 0.0263 0.08228 0.0
H84 H 0.22592 0.05431 0.07353 0.0
C85 C 0.29889 0.05015 0.08125 0.0
C86 C 0.29216 0.03916 0.02171 0.0
C87 C 0.28641 0.05264 0.14074 0.0
C88 C 0.26658 0.0447 0.13949 0.0
C89 C 0.2592 0.0342 0.08024 0.0
C90 C 0.27213 0.03112 0.02144 0.0
H91 H 0.46962 0.30729 0.07549 0.0
H92 H 0.47568 0.24659 0.15476 0.0
H93 H 0.49324 0.25919 0.94171 0.0
H94 H 0.51764 0.2328 0.08199 0.0
C95 C 0.50705 0.2213 0.05851 0.0
O96 O 0.48897 0.23034 0.03781 0.0
H97 H 0.51478 0.21494 0.01115 0.0
C98 C 0.47359 0.29139 0.0666 0.0
C99 C 0.48145 0.28511 1.00114 0.0
C100 C 0.47171 0.27769 0.12205 0.0
C101 C 0.47719 0.25726 0.11205 0.0
C102 C 0.4848 0.25048 0.04712 0.0
C103 C 0.48728 0.26447 0.99182 0.0
Eu104 Eu 0.03061 0.01085 0.69719 0.0
C105 C 0.9602 0.99672 0.48369 0.0
C106 C 0.97459 0.97285 0.39932 0.0
C107 C 0.93831 0.97213 0.42322 0.0
C108 C 0.97705 0.98892 0.44912 0.0
C109 C 0.94057 0.98881 0.46954 0.0
C110 C 0.95531 0.96416 0.38819 0.0
C111 C 0.92646 0.01583 0.54182 0.0
N112 N 0.96275 0.01296 0.52752 0.0
C113 C 0.94615 0.02318 0.55376 0.0
C114 C 0.92367 0.99834 0.50047 0.0
Eu115 Eu 0.99664 0.02351 0.55295 0.0
N116 N 0.99558 0.99763 0.46135 0.0
C117 C 0.01182 0.99183 0.42012 0.0
C118 C 0.99147 0.96625 0.36077 0.0
C119 C 0.01005 0.97605 0.37032 0.0
H120 H 0.9482 0.0368 0.58549 0.0
H121 H 0.02316 0.97133 0.33969 0.0
H122 H 0.95328 0.95163 0.35106 0.0
H123 H 0.91348 0.0237 0.56441 0.0
H124 H 0.0266 0.99856 0.42514 0.0
H125 H 0.99874 1.00533 0.96349 0.0
H126 H 0.99022 0.95394 0.3224 0.0
H127 H 0.06234 0.0484 0.63276 0.0
H128 H 0.0086 0.9927 0.84647 0.0
H129 H 0.07725 0.08031 0.6726 0.0
H130 H 0.92341 0.9657 0.41249 0.0
H131 H 0.00797 0.04028 1.00153 0.0
H132 H 0.02695 0.07235 0.97797 0.0
H133 H 0.90838 0.99271 0.49089 0.0
H134 H 0.04933 0.09197 0.90113 0.0
N135 N 0.02094 0.02116 0.81332 0.0
C136 C 0.0119 0.00838 0.86051 0.0
C137 C 0.01188 0.03501 0.94901 0.0
C138 C 0.02324 0.0472 0.90391 0.0
C139 C 1.00659 0.01532 0.92773 0.0
C140 C 0.02793 0.03967 0.83571 0.0
H141 H 0.06874 0.09463 0.78946 0.0
N142 N 0.04521 0.04326 0.72682 0.0
C143 C 0.06701 0.07216 0.70682 0.0
C144 C 0.04071 0.05075 0.79221 0.0
C145 C 0.05836 0.05372 0.68448 0.0
C146 C 0.0622 0.08018 0.77277 0.0
C147 C 0.04887 0.06959 0.81623 0.0
O148 O 0.06151 1.00665 0.73627 0.0
O149 O 0.01027 0.99759 0.6119 0.0
O150 O 0.97613 0.01383 0.64332 0.0
O151 O 0.998 1.00289 0.73201 0.0
O152 O 0.038 0.98367 0.62639 0.0
O153 O 0.03823 0.98427 0.75967 0.0
O154 O 0.979 0.04379 0.48545 0.0
O155 O 0.01537 0.03667 0.64241 0.0
O156 O 0.05135 0.01632 0.60457 0.0
O157 O 0.02927 0.02215 0.51086 0.0
O158 O 0.98493 0.04535 0.63683 0.0
O159 O 0.01069 0.05002 0.50404 0.0
C160 C 0.02146 0.983 0.59046 0.0
C161 C 0.07165 0.9721 0.73408 0.0
C162 C 0.07734 0.93721 0.69167 0.0
C163 C 0.06427 0.95245 0.71808 0.0
C164 C 0.098 0.94176 0.68108 0.0
C165 C 0.0924 0.97633 0.7233 0.0
C166 C 0.10543 0.96126 0.69665 0.0
C167 C 0.97949 1.00644 0.70673 0.0
C168 C 0.05773 0.98838 0.75935 0.0
C169 C 0.04348 0.0774 0.88265 0.0
C170 C 0.03064 0.06628 0.92624 0.0
C171 C 1.00181 0.0481 0.67037 0.0
C172 C 0.98846 0.07805 0.51098 0.0
C173 C 1.00335 0.09339 0.50918 0.0
C174 C 1.00074 0.11188 0.54694 0.0
C175 C 0.98266 0.11491 0.58544 0.0
C176 C 0.97024 0.08179 0.54786 0.0
C177 C 0.96745 0.10007 0.58494 0.0
C178 C 0.04782 0.01998 0.53752 0.0
C179 C 0.99336 0.05742 0.48332 0.0
H180 H 0.0484 0.94882 0.72739 0.0
H181 H 0.10838 0.9302 0.66121 0.0
H182 H 0.09851 0.99134 0.73505 0.0
H183 H 0.12137 0.96467 0.68837 0.0
H184 H 0.01716 0.09063 0.47938 0.0
H185 H 0.98031 0.12864 0.61665 0.0
H186 H 0.95842 0.07035 0.55031 0.0
H187 H 0.9536 0.10259 0.61463 0.0
Eu188 Eu 0.51673 0.03316 0.68831 0.0
C189 C 0.54824 0.97302 0.47809 0.0
C190 C 0.56621 0.9944 0.39611 0.0
C191 C 0.57942 0.9608 0.42202 0.0
C192 C 0.54993 0.99128 0.44348 0.0
C193 C 0.56271 0.95735 0.4662 0.0
C194 C 0.58112 0.97927 0.3868 0.0
C195 C 0.54166 0.93492 0.53397 0.0
N196 N 0.53177 0.97003 0.51963 0.0
C197 C 0.52765 0.95078 0.54316 0.0
C198 C 0.55953 0.93835 0.49662 0.0
Eu199 Eu 0.50913 0.99831 0.53815 0.0
N200 N 0.53538 1.00574 0.45424 0.0
C201 C 0.53549 0.02292 0.41399 0.0
C202 C 0.5669 0.0125 0.35849 0.0
C203 C 0.55128 0.02667 0.36672 0.0
H204 H 0.51342 0.94744 0.56893 0.0
H205 H 0.5513 0.04049 0.33624 0.0
H206 H 0.59383 0.98157 0.35146 0.0
H207 H 0.53848 0.91997 0.55472 0.0
H208 H 0.52344 0.03388 0.41607 0.0
H209 H 0.48014 0.99047 0.90245 0.0
H210 H 0.57913 0.01547 0.32185 0.0
H211 H 0.50859 0.08352 0.65497 0.0
H212 H 0.50704 0.99873 0.82107 0.0
H213 H 0.48169 0.1091 0.66876 0.0
H214 H 0.59077 0.94905 0.41306 0.0
H215 H 0.45032 0.01312 0.91547 0.0
H216 H 0.43297 0.04556 0.88423 0.0
H217 H 0.57027 0.92597 0.48877 0.0
H218 H 0.43312 0.07767 0.8194 0.0
N219 N 0.4921 0.02471 0.77725 0.0
C220 C 0.49384 0.00829 0.82077 0.0
C221 C 0.462 0.01662 0.87725 0.0
C222 C 0.46102 0.03434 0.83765 0.0
C223 C 0.47869 1.00375 0.86966 0.0
C224 C 0.47659 0.03816 0.78805 0.0
H225 H 0.45108 0.1014 0.7389 0.0
N226 N 0.49236 0.05996 0.70744 0.0
C227 C 0.47979 0.09413 0.69113 0.0
C228 C 0.47661 0.05619 0.75149 0.0
C229 C 0.49481 0.07925 0.68178 0.0
C230 C 0.46261 0.08976 0.73093 0.0
C231 C 0.46117 0.07089 0.76369 0.0
O232 O 0.53072 0.05945 0.74088 0.0
O233 O 0.5327 0.01347 0.60676 0.0
O234 O 0.51311 0.9786 0.63378 0.0
O235 O 0.52539 1.00072 0.72065 0.0
O236 O 0.5429 0.04331 0.61971 0.0
O237 O 0.53875 0.02908 0.77311 0.0
O238 O 0.49235 0.97324 0.48824 0.0
O239 O 0.49323 0.01796 0.6198 0.0
O240 O 0.51272 0.05277 0.59217 0.0
O241 O 0.50023 0.03064 0.50571 0.0
O242 O 0.48255 0.98835 0.605 0.0
O243 O 0.49049 1.00347 0.44514 0.0
C244 C 0.54622 0.02612 0.58793 0.0
C245 C 0.56525 0.05351 0.76425 0.0
C246 C 0.59948 0.04397 0.72526 0.0
C247 C 0.57919 0.0387 0.73999 0.0
C248 C 0.60551 0.06448 0.73317 0.0
C249 C 0.57167 0.0738 0.77252 0.0
C250 C 0.59166 0.07924 0.75653 0.0
C251 C 0.52072 0.9822 0.69687 0.0
C252 C 0.54363 0.04835 0.77526 0.0
C253 C 0.4452 0.06668 0.81023 0.0
C254 C 0.44515 0.04844 0.84727 0.0
C255 C 0.47964 1.00536 0.63834 0.0
C256 C 0.46048 0.98365 0.44681 0.0
C257 C 0.44859 0.99944 0.47627 0.0
C258 C 0.42722 0.998 0.47748 0.0
C259 C 0.41804 0.97998 0.45127 0.0
C260 C 0.45102 0.96591 0.42124 0.0
C261 C 0.42989 0.96405 0.42402 0.0
C262 C 0.50484 0.04919 0.52942 0.0
C263 C 0.4828 0.98515 0.4453 0.0
H264 H 0.57428 0.02304 0.73228 0.0
H265 H 0.62111 0.06903 0.72376 0.0
H266 H 0.56112 0.08549 0.79032 0.0
H267 H 0.59651 0.09494 0.76298 0.0
H268 H 0.45602 0.01292 0.49765 0.0
H269 H 0.40164 0.97837 0.44925 0.0
H270 H 0.45999 0.95349 0.39931 0.0
H271 H 0.42262 0.95036 0.40375 0.0
Eu272 Eu 0.53282 0.50972 0.55708 0.0
C273 C 0.44649 0.50353 0.69803 0.0
C274 C 0.42359 0.52139 0.62055 0.0
C275 C 0.41096 0.49324 0.68979 0.0
C276 C 0.44322 0.51848 0.6491 0.0
C277 C 0.43031 0.49104 0.72033 0.0
C278 C 0.40762 0.50837 0.63986 0.0
C279 C 0.45316 0.47629 0.80529 0.0
N280 N 0.4653 0.50187 0.72655 0.0
C281 C 0.4687 0.48899 0.78131 0.0
C282 C 0.43394 0.47709 0.77396 0.0
Eu283 Eu 0.49147 0.52272 0.68055 0.0
N284 N 0.45901 0.5308 0.63182 0.0
C285 C 0.45569 0.54732 0.59027 0.0
C286 C 0.42047 0.53758 0.57476 0.0
C287 C 0.43653 0.55079 0.56047 0.0
H288 H 0.48363 0.48809 0.805 0.0
H289 H 0.43422 0.5636 0.52609 0.0
H290 H 0.39251 0.51022 0.61782 0.0
H291 H 0.45606 0.46579 0.84753 0.0
H292 H 0.46778 0.55766 0.57785 0.0
H293 H 0.59066 0.46949 0.71069 0.0
H294 H 0.40567 0.54027 0.55144 0.0
H295 H 0.53998 0.54473 0.43327 0.0
H296 H 0.55691 0.47512 0.65962 0.0
H297 H 0.56717 0.56755 0.39111 0.0
H298 H 0.39839 0.48364 0.70563 0.0
H299 H 0.61894 0.4931 0.68475 0.0
H300 H 0.63166 0.52334 0.61836 0.0
H301 H 0.42191 0.46723 0.79257 0.0
H302 H 0.62533 0.54999 0.53114 0.0
N303 N 0.5654 0.50201 0.60525 0.0
C304 C 0.56893 0.48554 0.64685 0.0
C305 C 0.60407 0.49563 0.66166 0.0
C306 C 0.60072 0.5118 0.61596 0.0
C307 C 0.58817 0.48226 0.67628 0.0
C308 C 0.58102 0.51449 0.58771 0.0
H309 H 0.60144 0.56635 0.44524 0.0
N310 N 0.55863 0.53094 0.5108 0.0
C311 C 0.57029 0.55694 0.43284 0.0
C312 C 0.5775 0.52946 0.53897 0.0
C313 C 0.55497 0.54394 0.45661 0.0
C314 C 0.58958 0.55627 0.4637 0.0
C315 C 0.59349 0.54221 0.51676 0.0
O316 O 0.53517 0.50244 0.44527 0.0
O317 O 0.49911 0.512 0.57261 0.0
O318 O 0.4901 0.48853 0.65783 0.0
O319 O 0.52347 0.48203 0.62247 0.0
O320 O 0.51019 0.52329 0.47967 0.0
O321 O 0.53611 0.47811 0.52079 0.0
O322 O 0.48835 0.52989 0.7922 0.0
O323 O 0.52508 0.52021 0.66509 0.0
O324 O 0.53457 0.54367 0.58211 0.0
O325 O 0.50101 0.55035 0.61457 0.0
O326 O 0.51403 0.50907 0.75816 0.0
O327 O 0.48955 0.5544 0.71756 0.0
C328 C 0.49388 0.51966 0.51482 0.0
C329 C 0.51491 0.47343 0.42085 0.0
C330 C 0.48847 0.44717 0.41888 0.0
C331 C 0.50684 0.45504 0.44599 0.0
C332 C 0.47814 0.45802 0.36643 0.0
C333 C 0.50448 0.48373 0.36727 0.0
C334 C 0.48615 0.47613 0.34085 0.0
C335 C 0.50553 0.47585 0.64648 0.0
C336 C 0.53284 0.48296 0.45538 0.0
C337 C 0.6129 0.5402 0.54694 0.0
C338 C 0.61651 0.52503 0.59655 0.0
C339 C 0.53035 0.51259 0.72287 0.0
C340 C 0.5099 0.55762 0.82034 0.0
C341 C 0.51995 0.57501 0.79515 0.0
C342 C 0.53837 0.58167 0.8256 0.0
C343 C 0.54677 0.57053 0.88131 0.0
C344 C 0.51844 0.54706 0.87714 0.0
C345 C 0.53683 0.55339 0.9068 0.0
C346 C 0.51914 0.55643 0.59172 0.0
C347 C 0.49186 0.54923 0.78312 0.0
H348 H 0.51466 0.44702 0.48752 0.0
H349 H 0.46414 0.45222 0.34356 0.0
H350 H 0.51018 0.49796 0.34684 0.0
H351 H 0.47812 0.48431 0.30026 0.0
H352 H 0.51361 0.58321 0.75114 0.0
H353 H 0.56074 0.57541 0.90678 0.0
H354 H 0.51118 0.53356 0.89768 0.0
H355 H 0.54338 0.54501 0.94992 0.0
Eu356 Eu 0.0171 0.53508 0.56097 0.0
C357 C 0.02297 0.45265 0.72335 0.0
C358 C 1.00613 0.42768 0.64878 0.0
C359 C 0.03359 0.4171 0.72579 0.0
C360 C 0.00862 0.44803 0.67269 0.0
C361 C 0.03528 0.43717 0.75193 0.0
C362 C 0.01905 0.41237 0.67418 0.0
C363 C 0.04865 0.46211 0.83441 0.0
N364 N 0.02408 0.4721 0.74777 0.0
C365 C 0.03617 0.4769 0.80424 0.0
C366 C 0.04844 0.4422 0.80741 0.0
Eu367 Eu 1.00358 0.49692 0.69179 0.0
N368 N 0.99627 0.46318 0.64993 0.0
C369 C 0.98003 0.45856 0.60754 0.0
C370 C 0.99032 0.42321 0.60181 0.0
C371 C 0.977 0.43867 0.58212 0.0
H372 H 0.03665 0.49236 0.82467 0.0
H373 H 0.96444 0.43531 0.5469 0.0
H374 H 0.01751 0.39673 0.65581 0.0
H375 H 0.05852 0.46611 0.87805 0.0
H376 H 0.9696 0.47011 0.59086 0.0
H377 H 0.05618 0.5956 0.71177 0.0
H378 H 0.98795 0.40782 0.58197 0.0
H379 H 0.98381 0.54052 0.42924 0.0
H380 H 0.05105 0.56113 0.66508 0.0
H381 H 0.96187 0.56716 0.37835 0.0
H382 H 0.04306 0.40505 0.74649 0.0
H383 H 0.03285 0.6234 0.67819 0.0
H384 H 1.00341 0.63506 0.60494 0.0
H385 H 0.05812 0.43075 0.83082 0.0
H386 H 0.97782 0.62739 0.51377 0.0
N387 N 0.0246 0.56854 0.60529 0.0
C388 C 0.04071 0.57282 0.64873 0.0
C389 C 0.03051 0.60816 0.65696 0.0
C390 C 0.01479 0.60405 0.60924 0.0
C391 C 0.04372 0.59253 0.67584 0.0
C392 C 0.01232 0.58388 0.58354 0.0
H393 H 0.96253 0.60225 0.42794 0.0
N394 N 0.99666 0.56031 0.507 0.0
C395 C 0.97189 0.57088 0.4219 0.0
C396 C 0.9979 0.57962 0.53272 0.0
C397 C 0.98439 0.55587 0.45063 0.0
C398 C 0.97224 0.59063 0.45021 0.0
C399 C 0.98556 0.5953 0.50563 0.0
O400 O 0.02487 0.53715 0.44993 0.0
O401 O 0.01491 0.50163 0.58306 0.0
O402 O 0.03804 0.49543 0.67635 0.0
O403 O 0.04457 0.52761 0.63143 0.0
O404 O 1.00379 0.51086 0.48722 0.0
O405 O 0.04893 0.53519 0.52689 0.0
O406 O 0.9956 0.49581 0.80287 0.0
O407 O 1.0056 0.53035 0.66934 0.0
O408 O 0.98264 0.53636 0.57626 0.0
O409 O 0.9762 0.50406 0.6203 0.0
O410 O 0.01689 0.52131 0.7649 0.0
O411 O 0.97169 0.49642 0.72506 0.0
C412 C 1.00737 0.49526 0.52556 0.0
C413 C 0.05185 0.51441 0.42419 0.0
C414 C 0.07633 0.48627 0.41696 0.0
C415 C 0.06961 0.50469 0.44817 0.0
C416 C 0.06474 0.47748 0.3621 0.0
C417 C 0.04077 0.50542 0.36848 0.0
C418 C 0.0471 0.487 0.3383 0.0
C419 C 0.05069 0.5106 0.66237 0.0
C420 C 0.04396 0.53287 0.46084 0.0
C421 C 0.98731 0.61519 0.53331 0.0
C422 C 1.00188 0.61955 0.58517 0.0
C423 C 0.01313 0.53688 0.72659 0.0
C424 C 0.9682 0.51835 0.82471 0.0
C425 C 0.95067 0.52782 0.79775 0.0
C426 C 0.94373 0.54655 0.82594 0.0
C427 C 0.95488 0.55591 0.88079 0.0
C428 C 0.97881 0.52791 0.88041 0.0
C429 C 0.97228 0.54664 0.90758 0.0
C430 C 0.97005 0.52109 0.58954 0.0
C431 C 0.97646 0.49961 0.79089 0.0
H432 H 0.07809 0.51137 0.49163 0.0
H433 H 0.06959 0.46356 0.33583 0.0
H434 H 0.02697 0.51241 0.3489 0.0
H435 H 0.03838 0.48015 0.29584 0.0
H436 H 0.94255 0.52071 0.75428 0.0
H437 H 0.94984 0.57011 0.90475 0.0
H438 H 0.99244 0.52114 0.90219 0.0
H439 H 0.98068 0.55396 0.94996 0.0
C440 C 0.20801 0.02968 0.18955 0.0
C441 C 0.20505 0.03276 0.11716 0.0
C442 C 0.19127 0.0275 0.23511 0.0
C443 C 0.13598 0.04012 0.24942 0.0
H444 H 0.13603 1.00108 0.40035 0.0
C445 C 0.06348 0.02576 0.41757 0.0
C446 C 0.06584 0.02133 0.48934 0.0
C447 C 0.08044 0.02683 0.37267 0.0
C448 C 0.13578 0.0123 0.35915 0.0
H449 H 0.18208 0.03654 0.03673 0.0
H450 H 0.15305 0.03255 0.11536 0.0
H451 H 0.16548 1.00338 0.32271 0.0
H452 H 0.08835 0.01479 0.56961 0.0
H453 H 0.11771 0.01711 0.49226 0.0
H454 H 0.10647 0.04928 0.28606 0.0
C455 C 0.16825 0.03172 0.13726 0.0
C456 C 0.15276 0.01357 0.31434 0.0
C457 C 0.18494 0.03377 0.09186 0.0
C458 C 0.08576 0.01816 0.51475 0.0
C459 C 0.10271 0.01932 0.46996 0.0
C460 C 0.11907 0.03893 0.2944 0.0
C461 C 0.1711 0.02874 0.20978 0.0
C462 C 0.1531 0.02745 0.25851 0.0
C463 C 0.10038 0.02365 0.39803 0.0
C464 C 0.11861 0.02495 0.34998 0.0
H465 H 0.22325 0.02933 0.21123 0.0
H466 H 0.19415 0.02549 0.29063 0.0
H467 H 0.13574 0.05128 0.20802 0.0
H468 H 0.04849 0.02839 0.39573 0.0
H469 H 0.07782 0.02992 0.31766 0.0
C470 C 0.49263 0.18647 0.08796 0.0
C471 C 0.50313 0.20415 0.10963 0.0
C472 C 0.49046 0.1699 0.13337 0.0
C473 C 0.49538 0.15519 0.32263 0.0
H474 H 0.50053 0.10042 0.24504 0.0
C475 C 0.51208 0.08552 0.4965 0.0
C476 C 0.50209 0.06694 0.48183 0.0
C477 C 0.51025 0.10211 0.4514 0.0
C478 C 0.49879 0.11558 0.26756 0.0
H479 H 0.51929 0.21843 0.19644 0.0
H480 H 0.51587 0.18961 0.27516 0.0
H481 H 0.50087 0.12958 0.16671 0.0
H482 H 0.48249 0.05135 0.40671 0.0
H483 H 0.47943 0.08034 0.3274 0.0
H484 H 0.49378 0.14118 0.42359 0.0
C485 C 0.50896 0.1885 0.22358 0.0
C486 C 0.49895 0.13238 0.22252 0.0
C487 C 0.51104 0.20506 0.17826 0.0
C488 C 0.49033 0.06541 0.42002 0.0
C489 C 0.48864 0.08202 0.37436 0.0
C490 C 0.49535 0.13842 0.36759 0.0
C491 C 0.4988 0.17055 0.20172 0.0
C492 C 0.49748 0.15249 0.24938 0.0
C493 C 0.49857 0.10064 0.38955 0.0
C494 C 0.49727 0.11838 0.34086 0.0
H495 H 0.48638 0.18537 0.03533 0.0
H496 H 0.48225 0.15657 0.11473 0.0
H497 H 0.49375 0.17031 0.34553 0.0
H498 H 0.52184 0.08719 0.54207 0.0
H499 H 0.51849 0.11598 0.4642 0.0
C500 C 0.33064 0.48974 0.19837 0.0
C501 C 0.32797 0.50252 0.14027 0.0
C502 C 0.34749 0.49214 0.2435 0.0
C503 C 0.39993 0.51421 0.24574 0.0
H504 H 0.3978 0.50405 0.44586 0.0
C505 C 0.46894 0.5317 0.4255 0.0
C506 C 0.47361 0.51823 0.47992 0.0
C507 C 0.4507 0.52987 0.38763 0.0
C508 C 0.39874 0.50672 0.38991 0.0
H509 H 0.34024 0.52865 0.08675 0.0
H510 H 0.36939 0.53314 0.16563 0.0
H511 H 0.36672 0.5014 0.37511 0.0
H512 H 0.46313 0.49161 0.53526 0.0
H513 H 0.4311 0.48833 0.46913 0.0
H514 H 0.43187 0.51941 0.26006 0.0
C515 C 0.35883 0.52084 0.17556 0.0
C516 C 0.38085 0.50523 0.34918 0.0
C517 C 0.34199 0.51842 0.13056 0.0
C518 C 0.45969 0.50259 0.49495 0.0
C519 C 0.44135 0.50071 0.45683 0.0
C520 C 0.41775 0.51569 0.28629 0.0
C521 C 0.36214 0.50747 0.23194 0.0
C522 C 0.38113 0.50907 0.27638 0.0
C523 C 0.43663 0.51427 0.40216 0.0
C524 C 0.41747 0.5121 0.35913 0.0
H525 H 0.32003 0.47741 0.20747 0.0
H526 H 0.34942 0.48148 0.28592 0.0
H527 H 0.40103 0.5168 0.18979 0.0
H528 H 0.47946 0.54377 0.41217 0.0
H529 H 0.44761 0.54081 0.34687 0.0
C530 C 0.02067 0.33817 0.15783 0.0
C531 C 0.00836 0.32175 0.17884 0.0
C532 C 0.02243 0.35598 0.20009 0.0
C533 C 0.99369 0.38534 0.33671 0.0
H534 H 0.0437 0.41601 0.3624 0.0
C535 C 0.9939 0.4686 0.44284 0.0
C536 C 0.00825 0.47423 0.49442 0.0
C537 C 0.9949 0.44955 0.40849 0.0
C538 C 0.02962 0.40756 0.35619 0.0
H539 H 0.98813 0.31152 0.26094 0.0
H540 H 0.99124 0.34219 0.33417 0.0
H541 H 0.04407 0.38375 0.29498 0.0
H542 H 0.03572 0.46459 0.54747 0.0
H543 H 0.03771 0.43119 0.48654 0.0
H544 H 0.97917 0.40914 0.39692 0.0
C545 C 0.99964 0.34141 0.28524 0.0
C546 C 0.02979 0.38913 0.31687 0.0
C547 C 0.99802 0.32365 0.24344 0.0
C548 C 0.02412 0.46049 0.50931 0.0
C549 C 0.02536 0.44146 0.47379 0.0
C550 C 0.99348 0.40382 0.37506 0.0
C551 C 0.0116 0.35805 0.2639 0.0
C552 C 0.01179 0.3777 0.30643 0.0
C553 C 0.01064 0.43564 0.42315 0.0
C554 C 0.01139 0.41531 0.38521 0.0
H555 H 0.02846 0.33748 0.10772 0.0
H556 H 0.03163 0.36847 0.18129 0.0
H557 H 0.97945 0.37724 0.32953 0.0
H558 H 0.98172 0.47898 0.42915 0.0
H559 H 0.98348 0.44586 0.36923 0.0
C560 C 0.83802 0.01803 0.13349 0.0
C561 C 0.82132 1.00491 0.12254 0.0
C562 C 0.85557 0.01649 0.09177 0.0
C563 C 0.88418 0.98299 0.96597 0.0
H564 H 0.90688 0.03427 0.90416 0.0
C565 C 0.96129 0.98995 0.80951 0.0
C566 C 0.96142 1.00388 0.75382 0.0
C567 C 0.94442 0.98872 0.85521 0.0
C568 C 0.90076 0.01977 0.9206 0.0
H569 H 0.8101 0.97996 0.05759 0.0
H570 H 0.84089 0.97705 0.98504 0.0
H571 H 0.87741 0.03437 0.98168 0.0
H572 H 0.94386 0.02771 0.70435 0.0
H573 H 0.91474 0.02543 0.78224 0.0
H574 H 0.90761 0.96846 0.90396 0.0
C575 C 0.84049 0.98837 0.02701 0.0
C576 C 0.8839 0.01982 0.96586 0.0
C577 C 0.8228 0.99002 0.06869 0.0
C578 C 0.94424 0.01645 0.74524 0.0
C579 C 0.92756 0.01537 0.79092 0.0
C580 C 0.90126 0.98295 0.92108 0.0
C581 C 0.85702 1.00185 0.03712 0.0
C582 C 0.87526 1.00146 0.98919 0.0
C583 C 0.9274 1.00163 0.84703 0.0
C584 C 0.9097 1.00136 0.89723 0.0
H585 H 0.83729 0.02994 0.17348 0.0
H586 H 0.86798 0.02701 0.10192 0.0
H587 H 0.87807 0.96855 0.98305 0.0
H588 H 0.97419 0.97999 0.81781 0.0
H589 H 0.94493 0.97802 0.89798 0.0
C590 C 0.53785 0.82919 0.06667 0.0
C591 C 0.52152 0.82626 0.11333 0.0
C592 C 0.53902 0.84685 0.02584 0.0
C593 C 0.50596 0.88721 0.95193 0.0
H594 H 0.55695 0.91419 0.90961 0.0
C595 C 0.51133 0.94668 0.7324 0.0
C596 C 0.52286 0.96447 0.74476 0.0
C597 C 0.51213 0.93033 0.77877 0.0
C598 C 0.54256 0.90693 0.92126 0.0
H599 H 0.49353 0.83956 0.15282 0.0
H600 H 0.49567 0.8704 0.08282 0.0
H601 H 0.55664 0.88529 0.98973 0.0
H602 H 0.54448 0.97878 0.81607 0.0
H603 H 0.54586 0.95012 0.89748 0.0
H604 H 0.49182 0.90881 0.88414 0.0
C605 C 0.5076 0.85907 0.07745 0.0
C606 C 0.5424 0.89021 0.96672 0.0
C607 C 0.50647 0.84147 0.11824 0.0
C608 C 0.53544 0.96531 0.80471 0.0
C609 C 0.5363 0.94883 0.85123 0.0
C610 C 0.50613 0.9038 0.90637 0.0
C611 C 0.52375 0.86193 0.02987 0.0
C612 C 0.52409 0.88007 0.98263 0.0
C613 C 0.52444 0.93119 0.83928 0.0
C614 C 0.52443 0.91386 0.88993 0.0
H615 H 0.54951 0.81764 0.06056 0.0
H616 H 0.55155 0.84832 0.98926 0.0
H617 H 0.49158 0.87972 0.96202 0.0
H618 H 0.50119 0.94552 0.68766 0.0
H619 H 0.50299 0.91695 0.76711 0.0
C620 C 0.68248 0.52575 0.10775 0.0
C621 C 0.70045 0.51808 0.07715 0.0
C622 C 0.66452 0.52758 0.06792 0.0
C623 C 0.64395 0.52636 0.88266 0.0
H624 H 0.59358 0.5122 0.97592 0.0
C625 C 0.56438 0.52995 0.74277 0.0
C626 C 0.55061 0.51416 0.75771 0.0
C627 C 0.58278 0.53188 0.78047 0.0
C628 C 0.60748 0.51609 0.94865 0.0
H629 H 0.71367 0.50674 0.97998 0.0
H630 H 0.68251 0.50967 0.91082 0.0
H631 H 0.62518 0.51309 0.04246 0.0
H632 H 0.54502 0.4885 0.82516 0.0
H633 H 0.57702 0.49149 0.88957 0.0
H634 H 0.62617 0.52865 0.78815 0.0
C635 C 0.6822 0.51462 0.96532 0.0
C636 C 0.62569 0.5169 0.98732 0.0
C637 C 0.70015 0.51285 1.00514 0.0
C638 C 0.55544 0.50066 0.81185 0.0
C639 C 0.57376 0.50252 0.84926 0.0
C640 C 0.62568 0.52553 0.84387 0.0
C641 C 0.66395 0.52168 0.99626 0.0
C642 C 0.64431 0.5219 0.95502 0.0
C643 C 0.58772 0.5182 0.83456 0.0
C644 C 0.60717 0.52016 0.87613 0.0
H645 H 0.6822 0.52983 0.16311 0.0
H646 H 0.651 0.53344 0.09371 0.0
H647 H 0.65782 0.53052 0.85569 0.0
H648 H 0.56079 0.54097 0.70276 0.0
H649 H 0.59293 0.54432 0.76809 0.0
C650 C 0.98499 0.68851 0.11106 0.0
C651 C 0.98851 0.70789 0.08257 0.0
C652 C 0.98814 0.6706 0.07094 0.0
C653 C 0.99359 0.65133 0.88428 0.0
H654 H 0.01144 0.60208 0.97596 0.0
C655 C 0.99511 0.5711 0.74109 0.0
C656 C 0.011 0.5577 0.75888 0.0
C657 C 0.99248 0.58978 0.77792 0.0
C658 C 1.00662 0.61567 0.9489 0.0
H659 H 0.99825 0.72337 0.98877 0.0
H660 H 1.00432 0.69224 0.91929 0.0
H661 H 0.00795 0.63347 0.044 0.0
H662 H 0.03637 0.55338 0.82972 0.0
H663 H 0.03225 0.58577 0.89216 0.0
H664 H 0.99281 0.63345 0.78861 0.0
C665 C 0.99881 0.69081 0.97259 0.0
C666 C 1.00432 0.63378 0.98852 0.0
C667 C 0.9956 0.70876 0.01284 0.0
C668 C 0.02408 0.56341 0.81427 0.0
C669 C 0.02155 0.58199 0.85066 0.0
C670 C 0.99594 0.63315 0.84448 0.0
C671 C 0.99495 0.67136 1.00065 0.0
C672 C 0.99774 0.652 0.95718 0.0
C673 C 1.00558 0.59546 0.83393 0.0
C674 C 1.00258 0.61498 0.87606 0.0
H675 H 0.97922 0.68719 0.16411 0.0
H676 H 0.98461 0.65613 0.09475 0.0
H677 H 0.98824 0.66482 0.8578 0.0
H678 H 0.98444 0.56693 0.69988 0.0
H679 H 0.97984 0.59949 0.76366 0.0
C680 C 0.0469 0.24639 0.28663 0.0
C681 C 0.05568 0.24249 0.22068 0.0
C682 C 0.05333 0.23563 0.34528 0.0
C683 C 0.07303 0.18438 0.37383 0.0
H684 H 0.05393 0.19793 0.56145 0.0
C685 C 0.01101 0.14872 0.54428 0.0
C686 C 0.01665 0.12803 0.54496 0.0
C687 C 0.0255 0.16379 0.53225 0.0
C688 C 0.05983 0.19392 0.5099 0.0
H689 H 0.07978 0.22641 0.16555 0.0
H690 H 0.09166 0.20808 0.26872 0.0
H691 H 0.06468 0.22513 0.48348 0.0
H692 H 0.04251 0.10731 0.54174 0.0
H693 H 0.0676 0.13367 0.51608 0.0
H694 H 0.0672 0.15331 0.39902 0.0
C695 C 0.07926 0.21885 0.27489 0.0
C696 C 0.06581 0.20948 0.4649 0.0
C697 C 0.07254 0.22937 0.21583 0.0
C698 C 0.03745 0.12299 0.53882 0.0
C699 C 0.05192 0.13808 0.52541 0.0
C700 C 0.06744 0.16885 0.41922 0.0
C701 C 0.06885 0.22084 0.33935 0.0
C702 C 0.07078 0.20498 0.39435 0.0
C703 C 0.04591 0.15853 0.5195 0.0
C704 C 0.05929 0.17362 0.48557 0.0
H705 H 0.03383 0.25641 0.29175 0.0
H706 H 0.04472 0.23761 0.39338 0.0
H707 H 0.07682 0.1801 0.32028 0.0
H708 H 0.9952 0.15329 0.54832 0.0
H709 H 0.02035 0.1794 0.5269 0.0
C710 C 0.30774 0.0785 0.20573 0.0
C711 C 0.29513 0.06121 0.20676 0.0
C712 C 0.31953 0.08378 0.26447 0.0
C713 C 0.33306 0.06722 0.44751 0.0
H714 H 0.3875 0.06884 0.36997 0.0
C715 C 0.39463 0.01314 0.52447 0.0
C716 C 0.41437 0.01593 0.49765 0.0
C717 C 0.38031 0.02885 0.52135 0.0
C718 C 0.3726 0.06901 0.39421 0.0
H719 H 0.28353 0.03702 0.27205 0.0
H720 H 0.30436 0.04575 0.37324 0.0
H721 H 0.35927 0.07885 0.29869 0.0
H722 H 0.43561 0.03884 0.46045 0.0
H723 H 0.4111 0.06635 0.45958 0.0
H724 H 0.34659 0.05593 0.54181 0.0
C725 C 0.30499 0.0556 0.32809 0.0
C726 C 0.35618 0.07482 0.35263 0.0
C727 C 0.29307 0.05047 0.26969 0.0
C728 C 0.42045 0.03579 0.47994 0.0
C729 C 0.40625 0.05165 0.47867 0.0
C730 C 0.34958 0.06145 0.48945 0.0
C731 C 0.31918 0.07164 0.32491 0.0
C732 C 0.33612 0.07262 0.37696 0.0
C733 C 0.38558 0.04782 0.49274 0.0
C734 C 0.36941 0.06087 0.46139 0.0
H735 H 0.3093 0.08729 0.15824 0.0
H736 H 0.32994 0.09652 0.26078 0.0
H737 H 0.3178 0.06595 0.4686 0.0
H738 H 0.3897 0.99833 0.54223 0.0
H739 H 0.36468 0.02527 0.53438 0.0
C740 C 0.44579 0.29286 0.20268 0.0
C741 C 0.46559 0.28554 0.1917 0.0
C742 C 0.44135 0.30484 0.26206 0.0
C743 C 0.46564 0.3296 0.42183 0.0
H744 H 0.4379 0.37704 0.34926 0.0
C745 C 0.49434 0.41046 0.4472 0.0
C746 C 0.48079 0.42693 0.44078 0.0
C747 C 0.48697 0.39056 0.4514 0.0
C748 C 0.4452 0.36385 0.37194 0.0
H749 H 0.49593 0.28351 0.23509 0.0
H750 H 0.48869 0.30517 0.33669 0.0
H751 H 0.43424 0.34472 0.28926 0.0
H752 H 0.44895 0.43574 0.44402 0.0
H753 H 0.43607 0.40086 0.45004 0.0
H754 H 0.47812 0.34965 0.50086 0.0
C755 C 0.47623 0.3013 0.30168 0.0
C756 C 0.44308 0.34511 0.3373 0.0
C757 C 0.48051 0.28895 0.24314 0.0
C758 C 0.45976 0.42328 0.44666 0.0
C759 C 0.45238 0.40334 0.45066 0.0
C760 C 0.46795 0.34849 0.45611 0.0
C761 C 0.45685 0.31027 0.31006 0.0
C762 C 0.45421 0.32799 0.35928 0.0
C763 C 0.46591 0.38672 0.44901 0.0
C764 C 0.45864 0.36601 0.42904 0.0
H765 H 0.43407 0.29028 0.1634 0.0
H766 H 0.42611 0.31097 0.26769 0.0
H767 H 0.47393 0.31661 0.44162 0.0
H768 H 0.51063 0.41271 0.44291 0.0
H769 H 0.49784 0.37812 0.44963 0.0
C770 C 0.23204 0.45092 0.21203 0.0
C771 C 0.2397 0.47083 0.21738 0.0
C772 C 0.21948 0.44329 0.26476 0.0
C773 C 0.19295 0.45883 0.43363 0.0
H774 H 0.14631 0.43703 0.33284 0.0
C775 C 0.11306 0.48969 0.45152 0.0
C776 C 0.09619 0.47708 0.43711 0.0
C777 C 0.13259 0.48143 0.45595 0.0
C778 C 0.15925 0.44256 0.36293 0.0
H779 H 0.24185 0.49783 0.28344 0.0
H780 H 0.21919 0.4852 0.37345 0.0
H781 H 0.17946 0.43531 0.27924 0.0
H782 H 0.08639 0.44559 0.42531 0.0
H783 H 0.12073 0.43128 0.42996 0.0
H784 H 0.17184 0.46804 0.51403 0.0
C785 C 0.22319 0.47497 0.33052 0.0
C786 C 0.17847 0.44155 0.33209 0.0
C787 C 0.23614 0.48236 0.27863 0.0
C788 C 0.09912 0.45581 0.43411 0.0
C789 C 0.11874 0.44757 0.43761 0.0
C790 C 0.17359 0.46015 0.46399 0.0
C791 C 0.21378 0.45575 0.32243 0.0
C792 C 0.19539 0.45083 0.365 0.0
C793 C 0.13573 0.46042 0.44529 0.0
C794 C 0.15642 0.45307 0.42694 0.0
H795 H 0.23478 0.44175 0.16516 0.0
H796 H 0.2131 0.42817 0.25769 0.0
H797 H 0.20572 0.46548 0.46175 0.0
H798 H 0.1115 0.50612 0.45382 0.0
H799 H 0.14538 0.49177 0.46114 0.0
C800 C 0.01389 0.78868 0.93095 0.0
C801 C 1.00247 0.79891 0.98323 0.0
C802 C 0.01788 0.79793 0.86669 0.0
C803 C 0.00819 0.84629 0.76635 0.0
H804 H 0.06478 0.83875 0.71487 0.0
C805 C 0.05088 0.91254 0.64807 0.0
C806 C 0.06959 0.91619 0.68181 0.0
C807 C 0.04167 0.89336 0.65131 0.0
C808 C 0.04894 0.84113 0.72854 0.0
H809 H 0.98469 0.82616 1.00549 0.0
H810 H 0.99307 0.84292 0.89743 0.0
H811 H 0.04843 0.81409 0.78877 0.0
H812 H 0.09402 0.90246 0.74115 0.0
H813 H 0.07782 0.86956 0.75004 0.0
H814 H 0.0095 0.87466 0.7136 0.0
C815 C 0.99856 0.82752 0.90435 0.0
C816 C 0.03934 0.82668 0.77022 0.0
C817 C 0.99412 0.81806 0.96768 0.0
C818 C 0.07965 0.90001 0.71429 0.0
C819 C 0.0703 0.881 0.71884 0.0
C820 C 0.018 0.86108 0.72659 0.0
C821 C 0.01106 0.81787 0.8537 0.0
C822 C 0.01919 0.82973 0.79345 0.0
C823 C 0.05077 0.87763 0.69002 0.0
C824 C 0.0389 0.85933 0.71113 0.0
H825 H 0.02064 0.77392 0.94054 0.0
H826 H 0.02705 0.78969 0.82849 0.0
H827 H 0.99237 0.8487 0.78007 0.0
H828 H 0.04294 0.92478 0.6221 0.0
H829 H 0.02692 0.89125 0.62673 0.0
C830 C 0.7147 0.96914 0.01038 0.0
C831 C 0.73293 0.98004 0.02016 0.0
C832 C 0.70523 0.96841 0.94467 0.0
C833 C 0.7011 1.00165 0.79356 0.0
H834 H 0.65914 0.96262 0.74234 0.0
C835 C 0.63132 0.03165 0.66441 0.0
C836 C 0.61489 0.02792 0.7098 0.0
C837 C 0.64844 0.01894 0.66479 0.0
C838 C 0.67101 0.97355 0.75492 0.0
H839 H 0.75644 0.99715 0.96653 0.0
H840 H 0.74031 0.99521 0.85163 0.0
H841 H 0.68694 0.95232 0.81954 0.0
H842 H 0.60241 1.00638 0.78391 0.0
H843 H 0.63198 0.98458 0.78513 0.0
H844 H 0.6846 0.02327 0.73354 0.0
C845 C 0.73303 0.98768 0.89524 0.0
C846 C 0.68687 0.9677 0.79949 0.0
C847 C 0.74239 0.98863 0.9612 0.0
C848 C 0.6148 0.00983 0.74847 0.0
C849 C 0.63185 0.99717 0.74888 0.0
C850 C 0.68534 1.00745 0.74894 0.0
C851 C 0.71386 0.97839 0.88686 0.0
C852 C 0.7013 0.98211 0.8231 0.0
C853 C 0.6494 1.00237 0.71085 0.0
C854 C 0.66935 0.9939 0.73317 0.0
H855 H 0.70726 0.96188 0.05423 0.0
H856 H 0.69043 0.9612 0.9407 0.0
H857 H 0.71186 0.01325 0.81036 0.0
H858 H 0.63152 0.0451 0.63202 0.0
H859 H 0.66154 0.02304 0.63343 0.0
C860 C 0.586 0.73405 0.0407 0.0
C861 C 0.56659 0.74292 0.04392 0.0
C862 C 0.59131 0.72139 0.98391 0.0
C863 C 0.58885 0.68085 0.91101 0.0
H864 H 0.55811 0.67729 0.73725 0.0
C865 C 0.56935 0.60314 0.80337 0.0
C866 C 0.54802 0.60106 0.80382 0.0
C867 C 0.57826 0.62245 0.79978 0.0
C868 C 0.56711 0.67815 0.78495 0.0
H869 H 0.53809 0.74705 0.98898 0.0
H870 H 0.5467 0.72419 0.89203 0.0
H871 H 0.56323 0.71048 0.7945 0.0
H872 H 0.51946 0.61737 0.79229 0.0
H873 H 0.53493 0.65084 0.78596 0.0
H874 H 0.59193 0.64855 0.90351 0.0
C875 C 0.55827 0.72733 0.93126 0.0
C876 C 0.56994 0.69713 0.81813 0.0
C877 C 0.55319 0.74038 0.98716 0.0
C878 C 0.53593 0.61839 0.79224 0.0
C879 C 0.54484 0.63765 0.78829 0.0
C880 C 0.58628 0.662 0.87743 0.0
C881 C 0.577 0.71679 0.93074 0.0
C882 C 0.57968 0.69851 0.88404 0.0
C883 C 0.56601 0.63999 0.7962 0.0
C884 C 0.57431 0.66028 0.81646 0.0
H885 H 0.59659 0.73599 0.08397 0.0
H886 H 0.60611 0.7141 0.98432 0.0
H887 H 0.59635 0.68103 0.96169 0.0
H888 H 0.5791 0.58997 0.81 0.0
H889 H 0.59465 0.62377 0.80478 0.0
C890 C 0.78854 0.58271 0.02361 0.0
C891 C 0.78153 0.56253 0.0218 0.0
C892 C 0.80073 0.58998 0.96921 0.0
C893 C 0.82729 0.57295 0.80213 0.0
H894 H 0.87367 0.59681 0.89876 0.0
C895 C 0.90726 0.54268 0.78896 0.0
C896 C 0.92402 0.55547 0.80286 0.0
C897 C 0.88774 0.55084 0.78239 0.0
C898 C 0.8608 0.5907 0.86967 0.0
H899 H 0.78018 0.53455 0.96072 0.0
H900 H 0.80216 0.54661 0.86769 0.0
H901 H 0.84056 0.59869 0.95253 0.0
H902 H 0.93373 0.58707 0.81108 0.0
H903 H 0.8994 0.60123 0.80251 0.0
H904 H 0.84845 0.56307 0.72278 0.0
C905 C 0.79792 0.5573 0.90899 0.0
C906 C 0.8416 0.59179 0.90065 0.0
C907 C 0.78538 0.55024 0.96259 0.0
C908 C 0.92105 0.57674 0.80279 0.0
C909 C 0.90145 0.58489 0.79706 0.0
C910 C 0.84663 0.57159 0.7716 0.0
C911 C 0.80669 0.5769 0.91348 0.0
C912 C 0.82483 0.58175 0.86958 0.0
C913 C 0.8845 0.57193 0.79031 0.0
C914 C 0.86374 0.57937 0.80734 0.0
H915 H 0.78563 0.59242 0.06906 0.0
H916 H 0.80667 0.60534 0.97356 0.0
H917 H 0.81461 0.56568 0.77538 0.0
H918 H 0.90885 0.52625 0.7889 0.0
H919 H 0.875 0.54041 0.7779 0.0
C920 C 1.00709 0.20933 0.02063 0.0
C921 C 0.02059 0.22448 0.9976 0.0
C922 C 1.00427 0.19112 0.98187 0.0
C923 C 0.01437 0.16494 0.80752 0.0
H924 H 0.00845 0.11602 0.91773 0.0
C925 C 0.01798 0.08294 0.68132 0.0
C926 C 1.00523 0.06781 0.70885 0.0
C927 C 0.01971 0.10222 0.71443 0.0
C928 C 0.0098 0.12948 0.88575 0.0
H929 H 0.04169 0.23227 0.91515 0.0
H930 H 0.03677 0.20058 0.84688 0.0
H931 H 0.01109 0.14907 0.97669 0.0
H932 H 0.98315 0.06162 0.7899 0.0
H933 H 0.98619 0.09501 0.84825 0.0
H934 H 0.01321 0.14517 0.71645 0.0
C935 C 0.02799 0.20287 0.89447 0.0
C936 C 0.0113 0.14861 0.9198 0.0
C937 C 0.03076 0.22117 0.9334 0.0
C938 C 0.99362 0.07272 0.76875 0.0
C939 C 0.99542 0.09192 0.8022 0.0
C940 C 0.01286 0.14575 0.77335 0.0
C941 C 0.01507 0.18726 0.91897 0.0
C942 C 0.0135 0.16676 0.88148 0.0
C943 C 0.00853 0.10705 0.77574 0.0
C944 C 0.01045 0.12767 0.81189 0.0
H945 H 0.99929 0.21123 0.07047 0.0
H946 H 0.99385 0.17986 1.00226 0.0
H947 H 0.01586 0.17841 0.77566 0.0
H948 H 0.02651 0.07991 0.63364 0.0
H949 H 0.03006 0.11326 0.69235 0.0
C950 C 0.31694 0.05137 0.9304 0.0
C951 C 0.3072 0.03505 0.9641 0.0
C952 C 0.33396 0.048 0.88691 0.0
C953 C 0.37735 0.01326 0.86884 0.0
H954 H 0.38636 0.03783 0.68736 0.0
C955 C 0.45043 0.99461 0.71244 0.0
C956 C 0.45959 0.00976 0.67188 0.0
C957 C 0.43111 0.99755 0.74209 0.0
C958 C 0.38432 0.03106 0.73841 0.0
H959 H 0.30766 1.00237 0.9777 0.0
H960 H 0.33757 0.99646 0.90266 0.0
H961 H 0.35394 0.04317 0.74851 0.0
H962 H 0.4547 0.03913 0.6243 0.0
H963 H 0.42117 0.04481 0.67811 0.0
H964 H 0.40781 1.00199 0.86151 0.0
C965 C 0.33185 0.01187 0.90916 0.0
C966 C 0.36558 0.03403 0.7733 0.0
C967 C 0.31456 0.0152 0.95152 0.0
C968 C 0.44839 0.02754 0.65795 0.0
C969 C 0.42896 0.03059 0.68797 0.0
C970 C 0.39615 0.01062 0.83482 0.0
C971 C 0.34204 0.02826 0.87732 0.0
C972 C 0.36178 0.025 0.83877 0.0
C973 C 0.42014 0.01578 0.73193 0.0
C974 C 0.39996 0.01924 0.76852 0.0
H975 H 0.31183 0.06687 0.93996 0.0
H976 H 0.34144 0.06099 0.86376 0.0
H977 H 0.37519 1.00646 0.91985 0.0
H978 H 0.45835 0.9804 0.72186 0.0
H979 H 0.42477 0.98534 0.77287 0.0
C980 C 0.46743 0.31396 0.93024 0.0
C981 C 0.48369 0.30068 0.94494 0.0
C982 C 0.47012 0.33077 0.88655 0.0
C983 C 0.51012 0.36603 0.82617 0.0
H984 H 0.46766 0.38552 0.70224 0.0
C985 C 0.52004 0.4409 0.67053 0.0
C986 C 0.50307 0.45399 0.6665 0.0
C987 C 0.51803 0.42096 0.69547 0.0
C988 C 0.47962 0.38046 0.7371 0.0
H989 H 0.51543 0.29436 0.92305 0.0
H990 H 0.5202 0.32377 0.84621 0.0
H991 H 0.46364 0.35283 0.76038 0.0
H992 H 0.47035 0.45548 0.68061 0.0
H993 H 0.4669 0.42112 0.72599 0.0
H994 H 0.52589 0.39384 0.80459 0.0
C995 C 0.50533 0.3212 0.869 0.0
C996 C 0.47734 0.36161 0.77037 0.0
C997 C 0.50256 0.30419 0.91234 0.0
C998 C 0.48387 0.44614 0.6848 0.0
C999 C 0.48186 0.42622 0.71 0.0
C1000 C 0.51237 0.38493 0.79319 0.0
C1001 C 0.48923 0.33496 0.85653 0.0
C1002 C 0.49244 0.35421 0.8161 0.0
C1003 C 0.49897 0.41339 0.71697 0.0
C1004 C 0.49705 0.39259 0.74873 0.0
H1005 H 0.4527 0.3117 0.95454 0.0
H1006 H 0.45739 0.34102 0.87893 0.0
H1007 H 0.52196 0.36106 0.86172 0.0
H1008 H 0.53503 0.44614 0.65575 0.0
H1009 H 0.53151 0.41149 0.69822 0.0
C1010 C 0.20862 0.51366 0.00914 0.0
C1011 C 0.22545 0.50183 0.98794 0.0
C1012 C 0.19146 0.51563 0.96577 0.0
C1013 C 0.16412 0.48933 0.81812 0.0
H1014 H 0.1313 0.53846 0.82274 0.0
C1015 C 0.08017 0.491 0.71546 0.0
C1016 C 0.07238 0.50918 0.68733 0.0
C1017 C 0.09981 0.49027 0.74507 0.0
C1018 C 0.14029 0.52463 0.81983 0.0
H1019 H 0.23749 0.48289 0.90386 0.0
H1020 H 0.20765 0.48661 0.82681 0.0
H1021 H 0.16384 0.53791 0.88361 0.0
H1022 H 0.08029 0.54045 0.6637 0.0
H1023 H 0.11436 0.53912 0.71364 0.0
H1024 H 0.14062 0.47615 0.75346 0.0
C1025 C 0.20765 0.49434 0.87747 0.0
C1026 C 0.15899 0.52423 0.85582 0.0
C1027 C 0.22493 0.49244 0.92108 0.0
C1028 C 0.08536 0.52627 0.68621 0.0
C1029 C 0.10502 0.52553 0.71548 0.0
C1030 C 0.14539 0.48973 0.78199 0.0
C1031 C 0.19044 0.50569 0.89968 0.0
C1032 C 0.17116 0.50651 0.85639 0.0
C1033 C 0.11248 0.50764 0.74679 0.0
C1034 C 0.13302 0.50734 0.78272 0.0
H1035 H 0.20838 0.52072 0.06098 0.0
H1036 H 0.17857 0.52422 0.98579 0.0
H1037 H 0.17282 0.47529 0.81752 0.0
H1038 H 0.07101 0.4773 0.71535 0.0
H1039 H 0.10479 0.47615 0.7684 0.0
C1040 C 0.98235 0.81895 0.27269 0.0
C1041 C 1.00014 0.8106 0.24273 0.0
C1042 C 0.98321 0.83655 0.31629 0.0
C1043 C 0.01985 0.87082 0.4162 0.0
H1044 H 0.97732 0.91147 0.39765 0.0
C1045 C 0.03201 0.95385 0.51329 0.0
C1046 C 0.01615 0.96431 0.54804 0.0
C1047 C 0.02869 0.935 0.47946 0.0
C1048 C 0.98923 0.90022 0.40423 0.0
H1049 H 0.03274 0.81443 0.23482 0.0
H1050 H 0.03441 0.84469 0.31067 0.0
H1051 H 0.97428 0.87864 0.33554 0.0
H1052 H 0.98428 0.96262 0.57602 0.0
H1053 H 0.97825 0.9296 0.51556 0.0
H1054 H 0.03498 0.89248 0.48367 0.0
C1055 C 0.01972 0.83757 0.30233 0.0
C1056 C 0.98748 0.88125 0.36855 0.0
C1057 C 0.01883 0.82005 0.25882 0.0
C1058 C 0.99671 0.95525 0.5482 0.0
C1059 C 0.99332 0.93625 0.5138 0.0
C1060 C 0.02162 0.88975 0.45143 0.0
C1061 C 1.0019 0.84645 0.33094 0.0
C1062 C 1.00292 0.86627 0.37305 0.0
C1063 C 0.00939 0.92568 0.47969 0.0
C1064 C 1.00651 0.90492 0.44537 0.0
H1065 H 0.96765 0.8124 0.2598 0.0
H1066 H 0.96912 0.8426 0.3375 0.0
H1067 H 0.03188 0.85973 0.42295 0.0
H1068 H 0.04724 0.96021 0.51283 0.0
H1069 H 0.04142 0.92767 0.4532 0.0
C1070 C 0.71477 0.98306 0.32196 0.0
C1071 C 0.72004 0.99782 0.27226 0.0
C1072 C 0.69763 0.98579 0.36573 0.0
C1073 C 0.66037 0.02503 0.43153 0.0
H1074 H 0.62387 0.97909 0.45287 0.0
C1075 C 0.5768 0.03657 0.51946 0.0
C1076 C 0.56674 0.02151 0.55799 0.0
C1077 C 0.59645 0.03328 0.49282 0.0
C1078 C 0.63395 0.99207 0.4485 0.0
H1079 H 0.71153 0.02703 0.22987 0.0
H1080 H 0.68208 0.03209 0.30671 0.0
H1081 H 0.65645 0.97435 0.39295 0.0
H1082 H 0.57026 0.99178 0.60444 0.0
H1083 H 0.60478 0.98592 0.55828 0.0
H1084 H 0.63797 0.04279 0.48671 0.0
C1085 C 0.69119 0.01845 0.31285 0.0
C1086 C 0.65275 0.98933 0.41397 0.0
C1087 C 0.70814 0.01561 0.26876 0.0
C1088 C 0.57731 1.00337 0.57255 0.0
C1089 C 0.59713 1.00007 0.54613 0.0
C1090 C 0.64165 0.02775 0.46622 0.0
C1091 C 0.68537 1.00342 0.36115 0.0
C1092 C 0.66611 1.00586 0.4037 0.0
C1093 C 0.60699 0.01493 0.50517 0.0
C1094 C 0.62787 0.01144 0.474 0.0
H1095 H 0.72338 0.969 0.32481 0.0
H1096 H 0.69381 0.97393 0.40246 0.0
H1097 H 0.67034 0.03807 0.42625 0.0
H1098 H 0.56925 0.05089 0.50869 0.0
H1099 H 0.60318 0.04507 0.46109 0.0
C1100 C 0.56069 0.71946 0.3115 0.0
C1101 C 0.54389 0.73076 0.28774 0.0
C1102 C 0.55801 0.7025 0.3544 0.0
C1103 C 0.52057 0.67403 0.46453 0.0
H1104 H 0.55475 0.62794 0.41318 0.0
C1105 C 0.50517 0.59098 0.55879 0.0
C1106 C 0.52197 0.57813 0.57068 0.0
C1107 C 0.50786 0.61064 0.53182 0.0
C1108 C 0.54526 0.64069 0.42927 0.0
H1109 H 0.5111 0.73357 0.29314 0.0
H1110 H 0.50628 0.70379 0.3681 0.0
H1111 H 0.5592 0.66022 0.35427 0.0
H1112 H 0.55496 0.57674 0.56859 0.0
H1113 H 0.55966 0.61083 0.52204 0.0
H1114 H 0.50645 0.6542 0.53905 0.0
C1115 C 0.52163 0.70819 0.35409 0.0
C1116 C 0.54782 0.65933 0.39528 0.0
C1117 C 0.52436 0.72533 0.31128 0.0
C1118 C 0.5416 0.58592 0.55835 0.0
C1119 C 0.5443 0.60554 0.53144 0.0
C1120 C 0.51799 0.6553 0.49866 0.0
C1121 C 0.5384 0.69612 0.37443 0.0
C1122 C 0.53558 0.67635 0.41234 0.0
C1123 C 0.52745 0.61807 0.51625 0.0
C1124 C 0.53032 0.63833 0.48156 0.0
H1125 H 0.57594 0.7233 0.29449 0.0
H1126 H 0.57137 0.69404 0.37035 0.0
H1127 H 0.51094 0.68676 0.47968 0.0
H1128 H 0.48983 0.58567 0.56806 0.0
H1129 H 0.49448 0.61971 0.52074 0.0
C1130 C 0.79702 0.5386 0.32133 0.0
C1131 C 0.79777 0.53173 0.25101 0.0
C1132 C 0.81405 0.5364 0.36597 0.0
C1133 C 0.86395 0.50869 0.38289 0.0
H1134 H 0.87946 0.55459 0.50178 0.0
C1135 C 0.93589 0.5051 0.56024 0.0
C1136 C 0.94848 0.52247 0.56352 0.0
C1137 C 0.91643 0.50591 0.52952 0.0
C1138 C 0.87545 0.54163 0.46871 0.0
H1139 H 0.81676 0.51652 0.17347 0.0
H1140 H 0.84607 0.51248 0.25046 0.0
H1141 H 0.84764 0.55581 0.43508 0.0
H1142 H 0.94938 0.55481 0.54169 0.0
H1143 H 0.91581 0.55615 0.48684 0.0
H1144 H 0.89193 0.49474 0.41455 0.0
C1145 C 0.83246 0.51951 0.27193 0.0
C1146 C 0.85698 0.54223 0.43099 0.0
C1147 C 0.8156 0.52186 0.22748 0.0
C1148 C 0.94049 0.54094 0.53839 0.0
C1149 C 0.92101 0.54177 0.50764 0.0
C1150 C 0.88232 0.50807 0.42068 0.0
C1151 C 0.83218 0.52708 0.34157 0.0
C1152 C 0.85104 0.52586 0.38668 0.0
C1153 C 0.90877 0.52416 0.50141 0.0
C1154 C 0.88854 0.5246 0.46374 0.0
H1155 H 0.78363 0.5465 0.34085 0.0
H1156 H 0.8131 0.54225 0.41938 0.0
H1157 H 0.85991 0.49565 0.35018 0.0
H1158 H 0.94114 0.49067 0.58011 0.0
H1159 H 0.90739 0.4921 0.52756 0.0
loop_
_geom_bond_atom_site_label_1
_geom_bond_atom_site_label_2
_geom_bond_distance
_geom_bond_site_symmetry_2
_ccdc_geom_bond_type
H0 C7 0.929 . S
H1 C10 0.930 . S
H2 C12 0.929 . S
H3 C4 0.969 . S
C4 H3 0.969 . S
C4 O5 1.550 . S
C4 H6 0.973 . S
O5 C4 1.550 . S
O5 C11 1.412 . S
H6 C4 0.973 . S
C7 H0 0.929 . S
C7 C8 1.400 . S
C7 C9 1.364 . S
C8 C7 1.400 . S
C8 C12 1.377 . S
C9 C7 1.364 . S
C9 C10 1.374 . S
C10 H1 0.930 . S
C10 C9 1.374 . S
C10 C11 1.383 . S
C11 O5 1.412 . S
C11 C10 1.383 . S
C11 C12 1.394 . S
C12 H2 0.929 . S
C12 C8 1.377 . S
C12 C11 1.394 . S
H13 C20 0.929 . S
H14 C23 0.930 . S
H15 C25 0.929 . S
H16 C17 0.969 . S
C17 H16 0.969 . S
C17 O18 1.550 . S
C17 H19 0.973 . S
O18 C17 1.550 . S
O18 C24 1.412 . S
H19 C17 0.973 . S
C20 H13 0.929 . S
C20 C21 1.400 . S
C20 C22 1.364 . S
C21 C20 1.400 . S
C21 C25 1.377 . S
C22 C20 1.364 . S
C22 C23 1.374 . S
C23 H14 0.930 . S
C23 C22 1.374 . S
C23 C24 1.383 . S
C24 O18 1.412 . S
C24 C23 1.383 . S
C24 C25 1.394 . S
C25 H15 0.929 . S
C25 C21 1.377 . S
C25 C24 1.394 . S
H26 C33 0.929 . S
H27 C36 0.930 . S
H28 C38 0.929 . S
H29 C30 0.969 . S
C30 H29 0.969 . S
C30 O31 1.550 . S
C30 H32 0.973 . S
O31 C30 1.550 . S
O31 C37 1.412 . S
H32 C30 0.973 . S
C33 H26 0.929 . S
C33 C34 1.400 . S
C33 C35 1.364 . S
C34 C33 1.400 . S
C34 C38 1.377 . S
C35 C33 1.364 . S
C35 C36 1.374 . S
C36 H27 0.930 . S
C36 C35 1.374 . S
C36 C37 1.383 . S
C37 O31 1.412 . S
C37 C36 1.383 . S
C37 C38 1.394 . S
C38 H28 0.929 . S
C38 C34 1.377 . S
C38 C37 1.394 . S
H39 C46 0.929 . S
H40 C49 0.930 . S
H41 C51 0.929 . S
H42 C43 0.969 . S
C43 H42 0.969 . S
C43 O44 1.550 . S
C43 H45 0.973 . S
O44 C43 1.550 . S
O44 C50 1.412 . S
H45 C43 0.973 . S
C46 H39 0.929 . S
C46 C47 1.400 . S
C46 C48 1.364 . S
C47 C46 1.400 . S
C47 C51 1.377 . S
C48 C46 1.364 . S
C48 C49 1.374 . S
C49 H40 0.930 . S
C49 C48 1.374 . S
C49 C50 1.383 . S
C50 O44 1.412 . S
C50 C49 1.383 . S
C50 C51 1.394 . S
C51 H41 0.929 . S
C51 C47 1.377 . S
C51 C50 1.394 . S
H52 C59 0.929 . S
H53 C62 0.930 . S
H54 C64 0.929 . S
H55 C56 0.969 . S
C56 H55 0.969 . S
C56 O57 1.550 . S
C56 H58 0.973 . S
O57 C56 1.550 . S
O57 C63 1.412 . S
H58 C56 0.973 . S
C59 H52 0.929 . S
C59 C60 1.400 . S
C59 C61 1.364 1_556 S
C60 C59 1.400 . S
C60 C64 1.377 . S
C61 C59 1.364 1_554 S
C61 C62 1.374 . S
C62 H53 0.930 . S
C62 C61 1.374 . S
C62 C63 1.383 . S
C63 O57 1.412 . S
C63 C62 1.383 . S
C63 C64 1.394 1_554 S
C64 H54 0.929 . S
C64 C60 1.377 . S
C64 C63 1.394 1_556 S
H65 C72 0.929 . S
H66 C75 0.930 . S
H67 C77 0.929 . S
H68 C69 0.969 . S
C69 H68 0.969 . S
C69 O70 1.550 . S
C69 H71 0.973 . S
O70 C69 1.550 . S
O70 C76 1.412 . S
H71 C69 0.973 . S
C72 H65 0.929 . S
C72 C73 1.400 . S
C72 C74 1.364 1_556 S
C73 C72 1.400 . S
C73 C77 1.377 . S
C74 C72 1.364 1_554 S
C74 C75 1.374 . S
C75 H66 0.930 . S
C75 C74 1.374 . S
C75 C76 1.383 . S
C76 O70 1.412 . S
C76 C75 1.383 . S
C76 C77 1.394 1_554 S
C77 H67 0.929 . S
C77 C73 1.377 . S
C77 C76 1.394 1_556 S
H78 C85 0.929 . S
H79 C88 0.930 . S
H80 C90 0.929 . S
H81 C82 0.969 . S
C82 H81 0.969 . S
C82 O83 1.550 . S
C82 H84 0.973 . S
O83 C82 1.550 . S
O83 C89 1.412 . S
H84 C82 0.973 . S
C85 H78 0.929 . S
C85 C86 1.400 . S
C85 C87 1.364 1_556 S
C86 C85 1.400 . S
C86 C90 1.377 . S
C87 C85 1.364 1_554 S
C87 C88 1.374 . S
C88 H79 0.930 . S
C88 C87 1.374 . S
C88 C89 1.383 . S
C89 O83 1.412 . S
C89 C88 1.383 . S
C89 C90 1.394 1_554 S
C90 H80 0.929 . S
C90 C86 1.377 . S
C90 C89 1.394 1_556 S
H91 C98 0.929 . S
H92 C101 0.930 . S
H93 C103 0.929 . S
H94 C95 0.969 . S
C95 H94 0.969 . S
C95 O96 1.550 . S
C95 H97 0.973 . S
O96 C95 1.550 . S
O96 C102 1.412 . S
H97 C95 0.973 . S
C98 H91 0.929 . S
C98 C99 1.400 . S
C98 C100 1.364 1_556 S
C99 C98 1.400 . S
C99 C103 1.377 . S
C100 C98 1.364 1_554 S
C100 C101 1.374 . S
C101 H92 0.930 . S
C101 C100 1.374 . S
C101 C102 1.383 . S
C102 O96 1.412 . S
C102 C101 1.383 . S
C102 C103 1.394 1_554 S
C103 H93 0.929 . S
C103 C99 1.377 . S
C103 C102 1.394 1_556 S
Eu104 N135 2.657 1_565 S
Eu104 N142 2.605 1_565 S
Eu104 O148 2.558 . S
Eu104 O149 2.612 1_455 S
Eu104 O151 2.350 1_455 S
Eu104 O152 2.563 . S
Eu104 O153 2.419 . S
Eu104 O155 2.380 1_565 S
Eu104 O156 2.432 . S
Eu104 C168 2.848 . S
C105 C108 1.429 1_545 S
C105 C109 1.411 . S
C105 N112 1.377 . S
C106 C108 1.420 . S
C106 C110 1.423 . S
C106 C118 1.392 . S
C107 C109 1.420 1_565 S
C107 C110 1.351 . S
C107 H130 0.931 . S
C108 C105 1.429 1_565 S
C108 C106 1.420 . S
C108 N116 1.362 1_565 S
C109 C105 1.411 . S
C109 C107 1.420 1_545 S
C109 C114 1.395 . S
C110 C106 1.423 . S
C110 C107 1.351 . S
C110 H122 0.930 . S
C111 C113 1.400 . S
C111 C114 1.386 . S
C111 H123 0.930 . S
N112 C105 1.377 . S
N112 C113 1.321 . S
N112 Eu115 2.609 . S
C113 C111 1.400 . S
C113 N112 1.321 . S
C113 H120 0.930 . S
C114 C109 1.395 . S
C114 C111 1.386 . S
C114 H133 0.930 . S
Eu115 N112 2.609 . S
Eu115 N116 2.657 . S
Eu115 O149 2.380 1_545 S
Eu115 O150 2.432 . S
Eu115 O154 2.558 . S
Eu115 O155 2.612 1_655 S
Eu115 O157 2.339 1_655 S
Eu115 O158 2.563 1_655 S
Eu115 O159 2.418 . S
Eu115 C179 2.848 . S
N116 C108 1.362 1_545 S
N116 Eu115 2.657 . S
N116 C117 1.334 1_645 S
C117 N116 1.334 1_465 S
C117 C119 1.413 . S
C117 H124 0.929 . S
C118 C106 1.392 . S
C118 C119 1.367 1_655 S
C118 H126 0.930 . S
C119 C117 1.413 . S
C119 C118 1.367 1_455 S
C119 H121 0.930 . S
H120 C113 0.930 . S
H121 C119 0.930 . S
H122 C110 0.930 . S
H123 C111 0.930 . S
H124 C117 0.929 . S
H125 C139 0.930 1_655 S
H126 C118 0.930 . S
H127 C145 0.930 . S
H128 C136 0.929 1_655 S
H129 C143 0.930 . S
H130 C107 0.931 . S
H131 C137 0.930 . S
H132 C170 0.930 . S
H133 C114 0.930 . S
H134 C169 0.931 . S
N135 Eu104 2.657 1_545 S
N135 C136 1.334 . S
N135 C140 1.362 . S
C136 H128 0.929 1_455 S
C136 N135 1.334 . S
C136 C139 1.413 . S
C137 H131 0.930 . S
C137 C138 1.392 . S
C137 C139 1.367 . S
C138 C137 1.392 . S
C138 C140 1.420 . S
C138 C170 1.423 . S
C139 H125 0.930 1_455 S
C139 C136 1.413 . S
C139 C137 1.367 . S
C140 N135 1.362 . S
C140 C138 1.420 . S
C140 C144 1.429 . S
H141 C146 0.930 . S
N142 Eu104 2.605 1_545 S
N142 C144 1.385 . S
N142 C145 1.314 1_545 S
C143 H129 0.930 . S
C143 C145 1.400 . S
C143 C146 1.386 1_565 S
C144 C140 1.429 . S
C144 N142 1.385 . S
C144 C147 1.411 . S
C145 H127 0.930 . S
C145 N142 1.314 1_565 S
C145 C143 1.400 . S
C146 H141 0.930 . S
C146 C143 1.386 1_545 S
C146 C147 1.395 . S
C147 C144 1.411 . S
C147 C146 1.395 . S
C147 C169 1.420 . S
O148 Eu104 2.558 . S
O148 C168 1.257 . S
O149 Eu104 2.612 1_655 S
O149 Eu115 2.380 1_565 S
O149 C160 1.276 . S
O150 Eu115 2.432 . S
O150 C167 1.264 . S
O151 Eu104 2.350 1_655 S
O151 C167 1.238 1_565 S
O152 Eu104 2.563 . S
O152 C160 1.235 1_455 S
O153 Eu104 2.419 . S
O153 C168 1.249 . S
O154 Eu115 2.558 . S
O154 C179 1.257 . S
O155 Eu104 2.380 1_545 S
O155 Eu115 2.612 1_455 S
O155 C171 1.276 . S
O156 Eu104 2.432 . S
O156 C178 1.264 1_565 S
O157 Eu115 2.339 1_455 S
O157 C178 1.254 . S
O158 Eu115 2.563 1_455 S
O158 C171 1.235 . S
O159 Eu115 2.418 . S
O159 C179 1.244 . S
C160 O149 1.276 . S
C160 O152 1.235 1_655 S
C161 C163 1.393 . S
C161 C165 1.395 . S
C161 C168 1.492 . S
C162 C163 1.392 . S
C162 C164 1.386 . S
C163 C161 1.393 . S
C163 C162 1.392 . S
C163 H180 0.880 1_455 S
C164 C162 1.386 . S
C164 C166 1.395 . S
C164 H181 0.930 . S
C165 C161 1.395 . S
C165 C166 1.379 . S
C165 H182 0.930 . S
C166 C164 1.395 . S
C166 C165 1.379 . S
C166 H183 0.930 . S
C167 O150 1.264 . S
C167 O151 1.238 1_545 S
C168 Eu104 2.848 . S
C168 O148 1.257 . S
C168 O153 1.249 . S
C168 C161 1.492 . S
C169 H134 0.931 . S
C169 C147 1.420 . S
C169 C170 1.351 . S
C170 H132 0.930 . S
C170 C138 1.423 . S
C170 C169 1.351 . S
C171 O155 1.276 . S
C171 O158 1.235 . S
C172 C173 1.367 1_655 S
C172 C176 1.395 . S
C172 C179 1.492 . S
C173 C172 1.367 1_455 S
C173 C174 1.391 1_455 S
C173 H184 0.958 . S
C174 C173 1.391 1_655 S
C174 C175 1.406 . S
C175 C174 1.406 . S
C175 C177 1.395 . S
C175 H185 0.930 . S
C176 C172 1.395 . S
C176 C177 1.379 . S
C176 H186 0.930 . S
C177 C175 1.395 . S
C177 C176 1.379 . S
C177 H187 0.930 . S
C178 O156 1.264 1_545 S
C178 O157 1.254 . S
C179 Eu115 2.848 . S
C179 O154 1.257 . S
C179 O159 1.244 . S
C179 C172 1.492 . S
H180 C163 0.880 1_655 S
H181 C164 0.930 . S
H182 C165 0.930 . S
H183 C166 0.930 . S
H184 C173 0.958 . S
H185 C175 0.930 . S
H186 C176 0.930 . S
H187 C177 0.930 . S
Eu188 N219 2.657 . S
Eu188 N226 2.609 . S
Eu188 O232 2.558 . S
Eu188 O233 2.605 1_545 S
Eu188 O235 2.339 1_545 S
Eu188 O236 2.563 . S
Eu188 O237 2.419 . S
Eu188 O239 2.380 . S
Eu188 O240 2.432 . S
Eu188 C252 2.848 . S
C189 C192 1.429 . S
C189 C193 1.411 . S
C189 N196 1.377 . S
C190 C192 1.420 . S
C190 C194 1.423 . S
C190 C202 1.392 . S
C191 C193 1.420 . S
C191 C194 1.351 . S
C191 H214 0.931 . S
C192 C189 1.429 . S
C192 C190 1.420 . S
C192 N200 1.362 . S
C193 C189 1.411 . S
C193 C191 1.420 . S
C193 C198 1.395 . S
C194 C190 1.423 . S
C194 C191 1.351 . S
C194 H206 0.930 . S
C195 C197 1.400 . S
C195 C198 1.386 . S
C195 H207 0.930 . S
N196 C189 1.377 . S
N196 C197 1.321 . S
N196 Eu199 2.609 . S
C197 C195 1.400 . S
C197 N196 1.321 . S
C197 H204 0.930 . S
C198 C193 1.395 . S
C198 C195 1.386 . S
C198 H217 0.930 . S
Eu199 N196 2.609 . S
Eu199 N200 2.657 . S
Eu199 O233 2.382 . S
Eu199 O234 2.432 . S
Eu199 O238 2.558 . S
Eu199 O239 2.612 1_565 S
Eu199 O241 2.339 1_565 S
Eu199 O242 2.563 1_565 S
Eu199 O243 2.419 1_565 S
Eu199 C263 2.848 . S
N200 C192 1.362 . S
N200 Eu199 2.657 . S
N200 C201 1.334 1_565 S
C201 N200 1.334 1_545 S
C201 C203 1.413 . S
C201 H208 0.929 . S
C202 C190 1.392 . S
C202 C203 1.367 1_565 S
C202 H210 0.930 . S
C203 C201 1.413 . S
C203 C202 1.367 1_545 S
C203 H205 0.930 . S
H204 C197 0.930 . S
H205 C203 0.930 . S
H206 C194 0.930 . S
H207 C195 0.930 . S
H208 C201 0.929 . S
H209 C223 0.930 1_565 S
H210 C202 0.930 . S
H211 C229 0.930 . S
H212 C220 0.929 1_565 S
H213 C227 0.930 . S
H214 C191 0.931 . S
H215 C221 0.930 . S
H216 C254 0.930 . S
H217 C198 0.930 . S
H218 C253 0.931 . S
N219 Eu188 2.657 . S
N219 C220 1.334 . S
N219 C224 1.362 . S
C220 H212 0.929 1_545 S
C220 N219 1.334 . S
C220 C223 1.413 . S
C221 H215 0.930 . S
C221 C222 1.392 . S
C221 C223 1.367 . S
C222 C221 1.392 . S
C222 C224 1.420 . S
C222 C254 1.423 . S
C223 H209 0.930 1_545 S
C223 C220 1.413 . S
C223 C221 1.367 . S
C224 N219 1.362 . S
C224 C222 1.420 . S
C224 C228 1.429 . S
H225 C230 0.930 . S
N226 Eu188 2.609 . S
N226 C228 1.377 . S
N226 C229 1.321 . S
C227 H213 0.930 . S
C227 C229 1.400 . S
C227 C230 1.386 . S
C228 C224 1.429 . S
C228 N226 1.377 . S
C228 C231 1.411 . S
C229 H211 0.930 . S
C229 N226 1.321 . S
C229 C227 1.400 . S
C230 H225 0.930 . S
C230 C227 1.386 . S
C230 C231 1.395 . S
C231 C228 1.411 . S
C231 C230 1.395 . S
C231 C253 1.420 . S
O232 Eu188 2.558 . S
O232 C252 1.257 . S
O233 Eu188 2.605 1_565 S
O233 Eu199 2.382 . S
O233 C244 1.275 1_565 S
O234 Eu199 2.432 . S
O234 C251 1.264 . S
O235 Eu188 2.339 1_565 S
O235 C251 1.254 . S
O236 Eu188 2.563 . S
O236 C244 1.240 . S
O237 Eu188 2.419 . S
O237 C252 1.249 . S
O238 Eu199 2.558 . S
O238 C263 1.257 . S
O239 Eu188 2.380 . S
O239 Eu199 2.612 1_545 S
O239 C255 1.276 . S
O240 Eu188 2.432 . S
O240 C262 1.264 . S
O241 Eu199 2.339 1_545 S
O241 C262 1.254 . S
O242 Eu199 2.563 1_545 S
O242 C255 1.235 . S
O243 Eu199 2.419 1_545 S
O243 C263 1.249 1_545 S
C244 O233 1.275 1_545 S
C244 O236 1.240 . S
C245 C247 1.393 . S
C245 C249 1.395 . S
C245 C252 1.492 . S
C246 C247 1.392 . S
C246 C248 1.386 . S
C247 C245 1.393 . S
C247 C246 1.392 . S
C247 H264 0.930 . S
C248 C246 1.386 . S
C248 C250 1.395 . S
C248 H265 0.930 . S
C249 C245 1.395 . S
C249 C250 1.379 . S
C249 H266 0.930 . S
C250 C248 1.395 . S
C250 C249 1.379 . S
C250 H267 0.930 . S
C251 O234 1.264 . S
C251 O235 1.254 . S
C252 Eu188 2.848 . S
C252 O232 1.257 . S
C252 O237 1.249 . S
C252 C245 1.492 . S
C253 H218 0.931 . S
C253 C231 1.420 . S
C253 C254 1.351 . S
C254 H216 0.930 . S
C254 C222 1.423 . S
C254 C253 1.351 . S
C255 O239 1.276 . S
C255 O242 1.235 . S
C256 C257 1.393 1_565 S
C256 C260 1.395 . S
C256 C263 1.492 . S
C257 C256 1.393 1_545 S
C257 C258 1.396 . S
C257 H268 0.930 . S
C258 C257 1.396 . S
C258 C259 1.344 1_545 S
C259 C258 1.344 1_565 S
C259 C261 1.395 . S
C259 H269 0.930 . S
C260 C256 1.395 . S
C260 C261 1.379 . S
C260 H270 0.930 . S
C261 C259 1.395 . S
C261 C260 1.379 . S
C261 H271 0.930 . S
C262 O240 1.264 . S
C262 O241 1.254 . S
C263 Eu199 2.848 . S
C263 O238 1.257 . S
C263 O243 1.249 1_565 S
C263 C256 1.492 . S
H264 C247 0.930 . S
H265 C248 0.930 . S
H266 C249 0.930 . S
H267 C250 0.930 . S
H268 C257 0.930 . S
H269 C259 0.930 . S
H270 C260 0.930 . S
H271 C261 0.930 . S
Eu272 N303 2.657 . S
Eu272 N310 2.609 . S
Eu272 O316 2.558 . S
Eu272 O317 2.612 . S
Eu272 O319 2.339 . S
Eu272 O320 2.563 . S
Eu272 O321 2.419 . S
Eu272 O323 2.380 . S
Eu272 O324 2.432 . S
Eu272 C336 2.848 . S
C273 C276 1.429 . S
C273 C277 1.411 . S
C273 N280 1.377 . S
C274 C276 1.420 . S
C274 C278 1.423 . S
C274 C286 1.392 . S
C275 C277 1.420 . S
C275 C278 1.351 . S
C275 H298 0.931 . S
C276 C273 1.429 . S
C276 C274 1.420 . S
C276 N284 1.362 . S
C277 C273 1.411 . S
C277 C275 1.420 . S
C277 C282 1.395 . S
C278 C274 1.423 . S
C278 C275 1.351 . S
C278 H290 0.930 . S
C279 C281 1.400 . S
C279 C282 1.386 . S
C279 H291 0.930 . S
N280 C273 1.377 . S
N280 C281 1.321 . S
N280 Eu283 2.609 . S
C281 C279 1.400 . S
C281 N280 1.321 . S
C281 H288 0.930 . S
C282 C277 1.395 . S
C282 C279 1.386 . S
C282 H301 0.930 . S
Eu283 N280 2.609 . S
Eu283 N284 2.657 . S
Eu283 O317 2.380 . S
Eu283 O318 2.432 . S
Eu283 O322 2.558 . S
Eu283 O323 2.612 . S
Eu283 O325 2.339 . S
Eu283 O326 2.563 . S
Eu283 O327 2.419 . S
Eu283 C347 2.848 . S
N284 C276 1.362 . S
N284 Eu283 2.657 . S
N284 C285 1.334 . S
C285 N284 1.334 . S
C285 C287 1.413 . S
C285 H292 0.929 . S
C286 C274 1.392 . S
C286 C287 1.367 . S
C286 H294 0.930 . S
C287 C285 1.413 . S
C287 C286 1.367 . S
C287 H289 0.930 . S
H288 C281 0.930 . S
H289 C287 0.930 . S
H290 C278 0.930 . S
H291 C279 0.930 . S
H292 C285 0.929 . S
H293 C307 0.930 . S
H294 C286 0.930 . S
H295 C313 0.930 . S
H296 C304 0.929 . S
H297 C311 0.930 . S
H298 C275 0.931 . S
H299 C305 0.930 . S
H300 C338 0.930 . S
H301 C282 0.930 . S
H302 C337 0.931 . S
N303 Eu272 2.657 . S
N303 C304 1.334 . S
N303 C308 1.362 . S
C304 H296 0.929 . S
C304 N303 1.334 . S
C304 C307 1.413 . S
C305 H299 0.930 . S
C305 C306 1.392 . S
C305 C307 1.367 . S
C306 C305 1.392 . S
C306 C308 1.420 . S
C306 C338 1.423 . S
C307 H293 0.930 . S
C307 C304 1.413 . S
C307 C305 1.367 . S
C308 N303 1.362 . S
C308 C306 1.420 . S
C308 C312 1.429 . S
H309 C314 0.930 . S
N310 Eu272 2.609 . S
N310 C312 1.377 . S
N310 C313 1.321 . S
C311 H297 0.930 . S
C311 C313 1.400 . S
C311 C314 1.386 . S
C312 C308 1.429 . S
C312 N310 1.377 . S
C312 C315 1.411 . S
C313 H295 0.930 . S
C313 N310 1.321 . S
C313 C311 1.400 . S
C314 H309 0.930 . S
C314 C311 1.386 . S
C314 C315 1.395 . S
C315 C312 1.411 . S
C315 C314 1.395 . S
C315 C337 1.420 . S
O316 Eu272 2.558 . S
O316 C336 1.257 . S
O317 Eu272 2.612 . S
O317 Eu283 2.380 . S
O317 C328 1.276 . S
O318 Eu283 2.432 . S
O318 C335 1.264 . S
O319 Eu272 2.339 . S
O319 C335 1.254 . S
O320 Eu272 2.563 . S
O320 C328 1.235 . S
O321 Eu272 2.419 . S
O321 C336 1.249 . S
O322 Eu283 2.558 . S
O322 C347 1.257 . S
O323 Eu272 2.380 . S
O323 Eu283 2.612 . S
O323 C339 1.276 . S
O324 Eu272 2.432 . S
O324 C346 1.264 . S
O325 Eu283 2.339 . S
O325 C346 1.254 . S
O326 Eu283 2.563 . S
O326 C339 1.235 . S
O327 Eu283 2.419 . S
O327 C347 1.249 . S
C328 O317 1.276 . S
C328 O320 1.235 . S
C329 C331 1.393 . S
C329 C333 1.395 . S
C329 C336 1.492 . S
C330 C331 1.392 . S
C330 C332 1.386 . S
C331 C329 1.393 . S
C331 C330 1.392 . S
C331 H348 0.930 . S
C332 C330 1.386 . S
C332 C334 1.395 . S
C332 H349 0.930 . S
C333 C329 1.395 . S
C333 C334 1.379 . S
C333 H350 0.930 . S
C334 C332 1.395 . S
C334 C333 1.379 . S
C334 H351 0.930 . S
C335 O318 1.264 . S
C335 O319 1.254 . S
C336 Eu272 2.848 . S
C336 O316 1.257 . S
C336 O321 1.249 . S
C336 C329 1.492 . S
C337 H302 0.931 . S
C337 C315 1.420 . S
C337 C338 1.351 . S
C338 H300 0.930 . S
C338 C306 1.423 . S
C338 C337 1.351 . S
C339 O323 1.276 . S
C339 O326 1.235 . S
C340 C341 1.393 . S
C340 C344 1.395 . S
C340 C347 1.492 . S
C341 C340 1.393 . S
C341 C342 1.392 . S
C341 H352 0.930 . S
C342 C341 1.392 . S
C342 C343 1.386 . S
C343 C342 1.386 . S
C343 C345 1.395 . S
C343 H353 0.930 . S
C344 C340 1.395 . S
C344 C345 1.379 . S
C344 H354 0.930 . S
C345 C343 1.395 . S
C345 C344 1.379 . S
C345 H355 0.930 1_556 S
C346 O324 1.264 . S
C346 O325 1.254 . S
C347 Eu283 2.848 . S
C347 O322 1.257 . S
C347 O327 1.249 . S
C347 C340 1.492 . S
H348 C331 0.930 . S
H349 C332 0.930 . S
H350 C333 0.930 . S
H351 C334 0.930 . S
H352 C341 0.930 . S
H353 C343 0.930 . S
H354 C344 0.930 . S
H355 C345 0.930 1_554 S
Eu356 N387 2.657 . S
Eu356 N394 2.609 . S
Eu356 O400 2.558 . S
Eu356 O401 2.612 . S
Eu356 O403 2.339 . S
Eu356 O404 2.563 . S
Eu356 O405 2.419 . S
Eu356 O407 2.380 . S
Eu356 O408 2.432 1_455 S
Eu356 C420 2.848 . S
C357 C360 1.429 . S
C357 C361 1.411 . S
C357 N364 1.377 . S
C358 C360 1.420 . S
C358 C362 1.423 . S
C358 C370 1.392 . S
C359 C361 1.420 . S
C359 C362 1.351 . S
C359 H382 0.931 . S
C360 C357 1.429 . S
C360 C358 1.420 . S
C360 N368 1.362 . S
C361 C357 1.411 . S
C361 C359 1.420 . S
C361 C366 1.395 1_655 S
C362 C358 1.423 . S
C362 C359 1.351 . S
C362 H374 0.930 . S
C363 C365 1.400 . S
C363 C366 1.386 . S
C363 H375 0.930 . S
N364 C357 1.377 . S
N364 C365 1.321 1_655 S
N364 Eu367 2.609 . S
C365 C363 1.400 . S
C365 N364 1.321 1_455 S
C365 H372 0.930 . S
C366 C361 1.395 1_455 S
C366 C363 1.386 . S
C366 H385 0.930 . S
Eu367 N364 2.609 . S
Eu367 N368 2.657 . S
Eu367 O401 2.380 1_655 S
Eu367 O402 2.432 1_655 S
Eu367 O406 2.558 . S
Eu367 O407 2.612 1_655 S
Eu367 O409 2.339 . S
Eu367 O410 2.563 . S
Eu367 O411 2.419 . S
Eu367 C431 2.848 . S
N368 C360 1.362 . S
N368 Eu367 2.657 . S
N368 C369 1.334 . S
C369 N368 1.334 . S
C369 C371 1.413 . S
C369 H376 0.929 . S
C370 C358 1.392 . S
C370 C371 1.367 . S
C370 H378 0.930 . S
C371 C369 1.413 . S
C371 C370 1.367 . S
C371 H373 0.930 . S
H372 C365 0.930 . S
H373 C371 0.930 . S
H374 C362 0.930 . S
H375 C363 0.930 . S
H376 C369 0.929 . S
H377 C391 0.930 . S
H378 C370 0.930 . S
H379 C397 0.930 1_655 S
H380 C388 0.929 . S
H381 C395 0.930 1_655 S
H382 C359 0.931 . S
H383 C389 0.930 . S
H384 C422 0.930 . S
H385 C366 0.930 . S
H386 C421 0.931 . S
N387 Eu356 2.657 . S
N387 C388 1.334 . S
N387 C392 1.362 . S
C388 H380 0.929 . S
C388 N387 1.334 . S
C388 C391 1.413 . S
C389 H383 0.930 . S
C389 C390 1.392 . S
C389 C391 1.367 . S
C390 C389 1.392 . S
C390 C392 1.420 . S
C390 C422 1.423 . S
C391 H377 0.930 . S
C391 C388 1.413 . S
C391 C389 1.367 . S
C392 N387 1.362 . S
C392 C390 1.420 . S
C392 C396 1.429 . S
H393 C398 0.930 . S
N394 Eu356 2.609 . S
N394 C396 1.377 . S
N394 C397 1.321 . S
C395 H381 0.930 1_455 S
C395 C397 1.400 . S
C395 C398 1.386 . S
C396 C392 1.429 . S
C396 N394 1.377 . S
C396 C399 1.411 . S
C397 H379 0.930 1_455 S
C397 N394 1.321 . S
C397 C395 1.400 . S
C398 H393 0.930 . S
C398 C395 1.386 . S
C398 C399 1.395 . S
C399 C396 1.411 . S
C399 C398 1.395 . S
C399 C421 1.420 . S
O400 Eu356 2.558 . S
O400 C420 1.257 . S
O401 Eu356 2.612 . S
O401 Eu367 2.380 1_455 S
O401 C412 1.276 . S
O402 Eu367 2.432 1_455 S
O402 C419 1.264 . S
O403 Eu356 2.339 . S
O403 C419 1.254 . S
O404 Eu356 2.563 . S
O404 C412 1.235 . S
O405 Eu356 2.419 . S
O405 C420 1.249 . S
O406 Eu367 2.558 . S
O406 C431 1.257 . S
O407 Eu356 2.380 . S
O407 Eu367 2.612 1_455 S
O407 C423 1.276 1_455 S
O408 Eu356 2.432 1_655 S
O408 C430 1.264 . S
O409 Eu367 2.339 . S
O409 C430 1.254 . S
O410 Eu367 2.563 . S
O410 C423 1.235 . S
O411 Eu367 2.419 . S
O411 C431 1.249 . S
C412 O401 1.276 . S
C412 O404 1.235 . S
C413 C415 1.393 . S
C413 C417 1.395 . S
C413 C420 1.492 . S
C414 C415 1.392 . S
C414 C416 1.386 . S
C415 C413 1.393 . S
C415 C414 1.392 . S
C415 H432 0.930 . S
C416 C414 1.386 . S
C416 C418 1.395 . S
C416 H433 0.930 . S
C417 C413 1.395 . S
C417 C418 1.379 . S
C417 H434 0.930 . S
C418 C416 1.395 . S
C418 C417 1.379 . S
C418 H435 0.930 . S
C419 O402 1.264 . S
C419 O403 1.254 . S
C420 Eu356 2.848 . S
C420 O400 1.257 . S
C420 O405 1.249 . S
C420 C413 1.492 . S
C421 H386 0.931 . S
C421 C399 1.420 . S
C421 C422 1.351 . S
C422 H384 0.930 . S
C422 C390 1.423 . S
C422 C421 1.351 . S
C423 O407 1.276 1_655 S
C423 O410 1.235 . S
C424 C425 1.393 . S
C424 C428 1.395 . S
C424 C431 1.492 . S
C425 C424 1.393 . S
C425 C426 1.392 . S
C425 H436 0.930 . S
C426 C425 1.392 . S
C426 C427 1.386 . S
C427 C426 1.386 . S
C427 C429 1.395 . S
C427 H437 0.930 . S
C428 C424 1.395 . S
C428 C429 1.379 . S
C428 H438 0.930 . S
C429 C427 1.395 . S
C429 C428 1.379 . S
C429 H439 0.930 1_556 S
C430 O408 1.264 . S
C430 O409 1.254 . S
C431 Eu367 2.848 . S
C431 O406 1.257 . S
C431 O411 1.249 . S
C431 C424 1.492 . S
H432 C415 0.930 . S
H433 C416 0.930 . S
H434 C417 0.930 . S
H435 C418 0.930 . S
H436 C425 0.930 . S
H437 C427 0.930 . S
H438 C428 0.930 . S
H439 C429 0.930 1_554 S
C440 C441 1.349 . S
C440 C442 1.327 . S
C440 H465 0.950 . S
C441 C440 1.349 . S
C441 C457 1.349 . S
C442 C440 1.327 . S
C442 C461 1.429 . S
C442 H466 0.950 . S
C443 C460 1.574 . S
C443 C462 1.368 . S
C443 H467 0.949 . S
H444 C448 0.949 . S
C445 C446 1.349 . S
C445 C447 1.327 . S
C445 H468 0.950 . S
C446 C445 1.349 . S
C446 C458 1.349 . S
C447 C445 1.327 . S
C447 C463 1.429 . S
C447 H469 0.950 . S
C448 H444 0.949 . S
C448 C456 1.574 . S
C448 C464 1.368 . S
H449 C457 0.950 . S
H450 C455 0.950 . S
H451 C456 0.949 . S
H452 C458 0.950 1_565 S
H453 C459 0.950 . S
H454 C460 0.949 . S
C455 H450 0.950 . S
C455 C457 1.327 . S
C455 C461 1.429 . S
C456 C448 1.574 . S
C456 H451 0.949 . S
C456 C462 1.368 . S
C457 C441 1.349 . S
C457 H449 0.950 . S
C457 C455 1.327 . S
C458 C446 1.349 . S
C458 H452 0.950 1_545 S
C458 C459 1.327 . S
C459 H453 0.950 . S
C459 C458 1.327 . S
C459 C463 1.429 . S
C460 C443 1.574 . S
C460 H454 0.949 . S
C460 C464 1.368 . S
C461 C442 1.429 . S
C461 C455 1.429 . S
C461 C462 1.523 . S
C462 C443 1.368 . S
C462 C456 1.368 . S
C462 C461 1.523 . S
C463 C447 1.429 . S
C463 C459 1.429 . S
C463 C464 1.523 . S
C464 C448 1.368 . S
C464 C460 1.368 . S
C464 C463 1.523 . S
H465 C440 0.950 . S
H466 C442 0.950 . S
H467 C443 0.949 . S
H468 C445 0.950 . S
H469 C447 0.950 . S
C470 C471 1.349 . S
C470 C472 1.327 . S
C470 H495 0.950 . S
C471 C470 1.349 . S
C471 C487 1.349 . S
C472 C470 1.327 . S
C472 C491 1.429 . S
C472 H496 0.950 . S
C473 C490 1.574 . S
C473 C492 1.368 . S
C473 H497 0.949 . S
H474 C478 0.949 . S
C475 C476 1.349 . S
C475 C477 1.327 . S
C475 H498 0.950 . S
C476 C475 1.349 . S
C476 C488 1.349 . S
C477 C475 1.327 . S
C477 C493 1.429 . S
C477 H499 0.950 . S
C478 H474 0.949 . S
C478 C486 1.574 . S
C478 C494 1.368 . S
H479 C487 0.950 . S
H480 C485 0.950 . S
H481 C486 0.949 . S
H482 C488 0.950 . S
H483 C489 0.950 . S
H484 C490 0.949 . S
C485 H480 0.950 . S
C485 C487 1.327 . S
C485 C491 1.429 . S
C486 C478 1.574 . S
C486 H481 0.949 . S
C486 C492 1.368 . S
C487 C471 1.349 . S
C487 H479 0.950 . S
C487 C485 1.327 . S
C488 C476 1.349 . S
C488 H482 0.950 . S
C488 C489 1.327 . S
C489 H483 0.950 . S
C489 C488 1.327 . S
C489 C493 1.429 . S
C490 C473 1.574 . S
C490 H484 0.949 . S
C490 C494 1.368 . S
C491 C472 1.429 . S
C491 C485 1.429 . S
C491 C492 1.523 . S
C492 C473 1.368 . S
C492 C486 1.368 . S
C492 C491 1.523 . S
C493 C477 1.429 . S
C493 C489 1.429 . S
C493 C494 1.523 . S
C494 C478 1.368 . S
C494 C490 1.368 . S
C494 C493 1.523 . S
H495 C470 0.950 . S
H496 C472 0.950 . S
H497 C473 0.949 . S
H498 C475 0.950 . S
H499 C477 0.950 . S
C500 C501 1.349 . S
C500 C502 1.327 . S
C500 H525 0.950 . S
C501 C500 1.349 . S
C501 C517 1.349 . S
C502 C500 1.327 . S
C502 C521 1.429 . S
C502 H526 0.950 . S
C503 C520 1.574 . S
C503 C522 1.368 . S
C503 H527 0.949 . S
H504 C508 0.949 . S
C505 C506 1.349 . S
C505 C507 1.327 . S
C505 H528 0.950 . S
C506 C505 1.349 . S
C506 C518 1.349 . S
C507 C505 1.327 . S
C507 C523 1.429 . S
C507 H529 0.950 . S
C508 H504 0.949 . S
C508 C516 1.574 . S
C508 C524 1.368 . S
H509 C517 0.950 . S
H510 C515 0.950 . S
H511 C516 0.949 . S
H512 C518 0.950 . S
H513 C519 0.950 . S
H514 C520 0.949 . S
C515 H510 0.950 . S
C515 C517 1.327 . S
C515 C521 1.429 . S
C516 C508 1.574 . S
C516 H511 0.949 . S
C516 C522 1.368 . S
C517 C501 1.349 . S
C517 H509 0.950 . S
C517 C515 1.327 . S
C518 C506 1.349 . S
C518 H512 0.950 . S
C518 C519 1.327 . S
C519 H513 0.950 . S
C519 C518 1.327 . S
C519 C523 1.429 . S
C520 C503 1.574 . S
C520 H514 0.949 . S
C520 C524 1.368 . S
C521 C502 1.429 . S
C521 C515 1.429 . S
C521 C522 1.523 . S
C522 C503 1.368 . S
C522 C516 1.368 . S
C522 C521 1.523 . S
C523 C507 1.429 . S
C523 C519 1.429 . S
C523 C524 1.523 . S
C524 C508 1.368 . S
C524 C520 1.368 . S
C524 C523 1.523 . S
H525 C500 0.950 . S
H526 C502 0.950 . S
H527 C503 0.949 . S
H528 C505 0.950 . S
H529 C507 0.950 . S
C530 C531 1.349 . S
C530 C532 1.327 . S
C530 H555 0.950 . S
C531 C530 1.349 . S
C531 C547 1.349 . S
C532 C530 1.327 . S
C532 C551 1.429 . S
C532 H556 0.950 . S
C533 C550 1.574 . S
C533 C552 1.368 . S
C533 H557 0.949 . S
H534 C538 0.949 . S
C535 C536 1.349 . S
C535 C537 1.327 . S
C535 H558 0.950 1_455 S
C536 C535 1.349 . S
C536 C548 1.349 . S
C537 C535 1.327 . S
C537 C553 1.429 . S
C537 H559 0.949 1_455 S
C538 H534 0.949 . S
C538 C546 1.574 . S
C538 C554 1.368 . S
H539 C547 0.950 . S
H540 C545 0.950 . S
H541 C546 0.949 . S
H542 C548 0.950 . S
H543 C549 0.950 . S
H544 C550 0.949 . S
C545 H540 0.950 . S
C545 C547 1.327 . S
C545 C551 1.429 . S
C546 C538 1.574 . S
C546 H541 0.949 . S
C546 C552 1.368 . S
C547 C531 1.349 . S
C547 H539 0.950 . S
C547 C545 1.327 . S
C548 C536 1.349 . S
C548 H542 0.950 . S
C548 C549 1.327 . S
C549 H543 0.950 . S
C549 C548 1.327 . S
C549 C553 1.429 . S
C550 C533 1.574 . S
C550 H544 0.949 . S
C550 C554 1.368 . S
C551 C532 1.429 . S
C551 C545 1.429 . S
C551 C552 1.523 . S
C552 C533 1.368 . S
C552 C546 1.368 . S
C552 C551 1.523 . S
C553 C537 1.429 . S
C553 C549 1.429 . S
C553 C554 1.523 . S
C554 C538 1.368 . S
C554 C550 1.368 . S
C554 C553 1.523 . S
H555 C530 0.950 . S
H556 C532 0.950 . S
H557 C533 0.949 . S
H558 C535 0.950 1_655 S
H559 C537 0.949 1_655 S
C560 C561 1.349 . S
C560 C562 1.327 . S
C560 H585 0.950 . S
C561 C560 1.349 . S
C561 C577 1.349 . S
C562 C560 1.327 . S
C562 C581 1.429 . S
C562 H586 0.950 . S
C563 C580 1.574 . S
C563 C582 1.368 . S
C563 H587 0.949 . S
H564 C568 0.949 1_545 S
C565 C566 1.349 . S
C565 C567 1.327 . S
C565 H588 0.950 . S
C566 C565 1.349 . S
C566 C578 1.349 1_565 S
C567 C565 1.327 . S
C567 C583 1.429 . S
C567 H589 0.950 . S
C568 H564 0.949 1_565 S
C568 C576 1.574 . S
C568 C584 1.368 . S
H569 C577 0.950 . S
H570 C575 0.950 1_556 S
H571 C576 0.949 1_554 S
H572 C578 0.950 . S
H573 C579 0.950 . S
H574 C580 0.949 . S
C575 H570 0.950 1_554 S
C575 C577 1.327 . S
C575 C581 1.429 . S
C576 C568 1.574 . S
C576 H571 0.949 1_556 S
C576 C582 1.368 . S
C577 C561 1.349 . S
C577 H569 0.950 . S
C577 C575 1.327 . S
C578 C566 1.349 1_545 S
C578 H572 0.950 . S
C578 C579 1.327 . S
C579 H573 0.950 . S
C579 C578 1.327 . S
C579 C583 1.429 1_545 S
C580 C563 1.574 . S
C580 H574 0.949 . S
C580 C584 1.368 . S
C581 C562 1.429 . S
C581 C575 1.429 . S
C581 C582 1.523 1_554 S
C582 C563 1.368 . S
C582 C576 1.368 . S
C582 C581 1.523 1_556 S
C583 C567 1.429 . S
C583 C579 1.429 1_565 S
C583 C584 1.523 . S
C584 C568 1.368 . S
C584 C580 1.368 . S
C584 C583 1.523 . S
H585 C560 0.950 . S
H586 C562 0.950 . S
H587 C563 0.949 . S
H588 C565 0.950 . S
H589 C567 0.950 . S
C590 C591 1.349 . S
C590 C592 1.327 . S
C590 H615 0.950 . S
C591 C590 1.349 . S
C591 C607 1.349 . S
C592 C590 1.327 . S
C592 C611 1.429 . S
C592 H616 0.950 . S
C593 C610 1.574 . S
C593 C612 1.368 . S
C593 H617 0.949 . S
H594 C598 0.949 . S
C595 C596 1.349 . S
C595 C597 1.327 . S
C595 H618 0.950 . S
C596 C595 1.349 . S
C596 C608 1.349 . S
C597 C595 1.327 . S
C597 C613 1.429 . S
C597 H619 0.950 . S
C598 H594 0.949 . S
C598 C606 1.574 . S
C598 C614 1.368 . S
H599 C607 0.950 . S
H600 C605 0.950 . S
H601 C606 0.949 . S
H602 C608 0.950 . S
H603 C609 0.950 . S
H604 C610 0.949 . S
C605 H600 0.950 . S
C605 C607 1.327 . S
C605 C611 1.429 . S
C606 C598 1.574 . S
C606 H601 0.949 . S
C606 C612 1.368 . S
C607 C591 1.349 . S
C607 H599 0.950 . S
C607 C605 1.327 . S
C608 C596 1.349 . S
C608 H602 0.950 . S
C608 C609 1.327 . S
C609 H603 0.950 . S
C609 C608 1.327 . S
C609 C613 1.429 . S
C610 C593 1.574 . S
C610 H604 0.949 . S
C610 C614 1.368 . S
C611 C592 1.429 . S
C611 C605 1.429 . S
C611 C612 1.523 1_554 S
C612 C593 1.368 . S
C612 C606 1.368 . S
C612 C611 1.523 1_556 S
C613 C597 1.429 . S
C613 C609 1.429 . S
C613 C614 1.523 . S
C614 C598 1.368 . S
C614 C610 1.368 . S
C614 C613 1.523 . S
H615 C590 0.950 . S
H616 C592 0.950 . S
H617 C593 0.949 . S
H618 C595 0.950 . S
H619 C597 0.950 . S
C620 C621 1.349 . S
C620 C622 1.327 . S
C620 H645 0.950 . S
C621 C620 1.349 . S
C621 C637 1.349 . S
C622 C620 1.327 . S
C622 C641 1.429 . S
C622 H646 0.950 . S
C623 C640 1.574 . S
C623 C642 1.368 . S
C623 H647 0.949 . S
H624 C628 0.949 . S
C625 C626 1.349 . S
C625 C627 1.327 . S
C625 H648 0.950 . S
C626 C625 1.349 . S
C626 C638 1.349 . S
C627 C625 1.327 . S
C627 C643 1.429 . S
C627 H649 0.950 . S
C628 H624 0.949 . S
C628 C636 1.574 . S
C628 C644 1.368 . S
H629 C637 0.950 . S
H630 C635 0.950 1_556 S
H631 C636 0.949 1_554 S
H632 C638 0.950 . S
H633 C639 0.950 . S
H634 C640 0.949 . S
C635 H630 0.950 1_554 S
C635 C637 1.327 . S
C635 C641 1.429 . S
C636 C628 1.574 . S
C636 H631 0.949 1_556 S
C636 C642 1.368 . S
C637 C621 1.349 . S
C637 H629 0.950 . S
C637 C635 1.327 . S
C638 C626 1.349 . S
C638 H632 0.950 . S
C638 C639 1.327 . S
C639 H633 0.950 . S
C639 C638 1.327 . S
C639 C643 1.429 . S
C640 C623 1.574 . S
C640 H634 0.949 . S
C640 C644 1.368 . S
C641 C622 1.429 . S
C641 C635 1.429 . S
C641 C642 1.523 1_554 S
C642 C623 1.368 . S
C642 C636 1.368 . S
C642 C641 1.523 1_556 S
C643 C627 1.429 . S
C643 C639 1.429 . S
C643 C644 1.523 . S
C644 C628 1.368 . S
C644 C640 1.368 . S
C644 C643 1.523 . S
H645 C620 0.950 . S
H646 C622 0.950 . S
H647 C623 0.949 . S
H648 C625 0.950 . S
H649 C627 0.950 . S
C650 C651 1.349 . S
C650 C652 1.327 . S
C650 H675 0.950 . S
C651 C650 1.349 . S
C651 C667 1.349 . S
C652 C650 1.327 . S
C652 C671 1.429 . S
C652 H676 0.950 . S
C653 C670 1.574 . S
C653 C672 1.368 . S
C653 H677 0.949 . S
H654 C658 0.949 . S
C655 C656 1.349 . S
C655 C657 1.327 . S
C655 H678 0.950 1_655 S
C656 C655 1.349 . S
C656 C668 1.349 . S
C657 C655 1.327 . S
C657 C673 1.429 . S
C657 H679 0.950 . S
C658 H654 0.949 . S
C658 C666 1.574 . S
C658 C674 1.368 . S
H659 C667 0.950 . S
H660 C665 0.950 1_556 S
H661 C666 0.949 1_554 S
H662 C668 0.950 . S
H663 C669 0.950 . S
H664 C670 0.949 . S
C665 H660 0.950 1_554 S
C665 C667 1.327 . S
C665 C671 1.429 . S
C666 C658 1.574 . S
C666 H661 0.949 1_556 S
C666 C672 1.368 . S
C667 C651 1.349 . S
C667 H659 0.950 . S
C667 C665 1.327 . S
C668 C656 1.349 . S
C668 H662 0.950 . S
C668 C669 1.327 . S
C669 H663 0.950 . S
C669 C668 1.327 . S
C669 C673 1.429 . S
C670 C653 1.574 . S
C670 H664 0.949 . S
C670 C674 1.368 . S
C671 C652 1.429 . S
C671 C665 1.429 . S
C671 C672 1.523 1_554 S
C672 C653 1.368 . S
C672 C666 1.368 . S
C672 C671 1.523 1_556 S
C673 C657 1.429 . S
C673 C669 1.429 . S
C673 C674 1.523 . S
C674 C658 1.368 . S
C674 C670 1.368 . S
C674 C673 1.523 . S
H675 C650 0.950 . S
H676 C652 0.950 . S
H677 C653 0.949 . S
H678 C655 0.950 1_455 S
H679 C657 0.950 . S
C680 C681 1.349 . S
C680 C682 1.327 . S
C680 H705 0.950 . S
C681 C680 1.349 . S
C681 C697 1.349 . S
C682 C680 1.327 . S
C682 C701 1.429 . S
C682 H706 0.950 . S
C683 C700 1.574 . S
C683 C702 1.368 . S
C683 H707 0.949 . S
H684 C688 0.949 . S
C685 C686 1.349 . S
C685 C687 1.327 . S
C685 H708 0.950 . S
C686 C685 1.349 . S
C686 C698 1.349 . S
C687 C685 1.327 . S
C687 C703 1.429 . S
C687 H709 0.950 . S
C688 H684 0.949 . S
C688 C696 1.574 . S
C688 C704 1.368 . S
H689 C697 0.950 . S
H690 C695 0.950 . S
H691 C696 0.949 . S
H692 C698 0.950 1_655 S
H693 C699 0.950 . S
H694 C700 0.949 . S
C695 H690 0.950 . S
C695 C697 1.327 . S
C695 C701 1.429 . S
C696 C688 1.574 . S
C696 H691 0.949 . S
C696 C702 1.368 . S
C697 C681 1.349 . S
C697 H689 0.950 . S
C697 C695 1.327 . S
C698 C686 1.349 . S
C698 H692 0.950 1_455 S
C698 C699 1.327 . S
C699 H693 0.950 . S
C699 C698 1.327 . S
C699 C703 1.429 . S
C700 C683 1.574 . S
C700 H694 0.949 . S
C700 C704 1.368 . S
C701 C682 1.429 . S
C701 C695 1.429 . S
C701 C702 1.523 . S
C702 C683 1.368 . S
C702 C696 1.368 . S
C702 C701 1.523 . S
C703 C687 1.429 . S
C703 C699 1.429 . S
C703 C704 1.523 . S
C704 C688 1.368 . S
C704 C700 1.368 . S
C704 C703 1.523 . S
H705 C680 0.950 . S
H706 C682 0.950 . S
H707 C683 0.949 . S
H708 C685 0.950 . S
H709 C687 0.950 . S
C710 C711 1.349 . S
C710 C712 1.327 . S
C710 H735 0.950 1_554 S
C711 C710 1.349 . S
C711 C727 1.349 . S
C712 C710 1.327 . S
C712 C731 1.429 . S
C712 H736 0.950 . S
C713 C730 1.574 . S
C713 C732 1.368 . S
C713 H737 0.949 . S
H714 C718 0.949 . S
C715 C716 1.349 . S
C715 C717 1.327 . S
C715 H738 0.950 . S
C716 C715 1.349 . S
C716 C728 1.349 . S
C717 C715 1.327 . S
C717 C733 1.429 . S
C717 H739 0.950 . S
C718 H714 0.949 . S
C718 C726 1.574 . S
C718 C734 1.368 . S
H719 C727 0.950 . S
H720 C725 0.950 . S
H721 C726 0.949 . S
H722 C728 0.950 . S
H723 C729 0.950 . S
H724 C730 0.949 . S
C725 H720 0.950 . S
C725 C727 1.327 . S
C725 C731 1.429 . S
C726 C718 1.574 . S
C726 H721 0.949 . S
C726 C732 1.368 . S
C727 C711 1.349 . S
C727 H719 0.950 . S
C727 C725 1.327 . S
C728 C716 1.349 . S
C728 H722 0.950 . S
C728 C729 1.327 . S
C729 H723 0.950 . S
C729 C728 1.327 . S
C729 C733 1.429 . S
C730 C713 1.574 . S
C730 H724 0.949 . S
C730 C734 1.368 . S
C731 C712 1.429 . S
C731 C725 1.429 . S
C731 C732 1.523 . S
C732 C713 1.368 . S
C732 C726 1.368 . S
C732 C731 1.523 . S
C733 C717 1.429 . S
C733 C729 1.429 . S
C733 C734 1.523 . S
C734 C718 1.368 . S
C734 C730 1.368 . S
C734 C733 1.523 . S
H735 C710 0.950 1_556 S
H736 C712 0.950 . S
H737 C713 0.949 . S
H738 C715 0.950 . S
H739 C717 0.950 . S
C740 C741 1.349 . S
C740 C742 1.327 . S
C740 H765 0.950 . S
C741 C740 1.349 . S
C741 C757 1.349 . S
C742 C740 1.327 . S
C742 C761 1.429 . S
C742 H766 0.950 . S
C743 C760 1.574 . S
C743 C762 1.368 . S
C743 H767 0.949 . S
H744 C748 0.949 . S
C745 C746 1.349 . S
C745 C747 1.327 . S
C745 H768 0.950 . S
C746 C745 1.349 . S
C746 C758 1.349 . S
C747 C745 1.327 . S
C747 C763 1.429 . S
C747 H769 0.950 . S
C748 H744 0.949 . S
C748 C756 1.574 . S
C748 C764 1.368 . S
H749 C757 0.950 . S
H750 C755 0.950 . S
H751 C756 0.949 . S
H752 C758 0.950 . S
H753 C759 0.950 . S
H754 C760 0.949 . S
C755 H750 0.950 . S
C755 C757 1.327 . S
C755 C761 1.429 . S
C756 C748 1.574 . S
C756 H751 0.949 . S
C756 C762 1.368 . S
C757 C741 1.349 . S
C757 H749 0.950 . S
C757 C755 1.327 . S
C758 C746 1.349 . S
C758 H752 0.950 . S
C758 C759 1.327 . S
C759 H753 0.950 . S
C759 C758 1.327 . S
C759 C763 1.429 . S
C760 C743 1.574 . S
C760 H754 0.949 . S
C760 C764 1.368 . S
C761 C742 1.429 . S
C761 C755 1.429 . S
C761 C762 1.523 . S
C762 C743 1.368 . S
C762 C756 1.368 . S
C762 C761 1.523 . S
C763 C747 1.429 . S
C763 C759 1.429 . S
C763 C764 1.523 . S
C764 C748 1.368 . S
C764 C760 1.368 . S
C764 C763 1.523 . S
H765 C740 0.950 . S
H766 C742 0.950 . S
H767 C743 0.949 . S
H768 C745 0.950 . S
H769 C747 0.950 . S
C770 C771 1.349 . S
C770 C772 1.327 . S
C770 H795 0.950 1_554 S
C771 C770 1.349 . S
C771 C787 1.349 . S
C772 C770 1.327 . S
C772 C791 1.429 . S
C772 H796 0.950 . S
C773 C790 1.574 . S
C773 C792 1.368 . S
C773 H797 0.949 . S
H774 C778 0.949 . S
C775 C776 1.349 . S
C775 C777 1.327 . S
C775 H798 0.950 . S
C776 C775 1.349 . S
C776 C788 1.349 . S
C777 C775 1.327 . S
C777 C793 1.429 . S
C777 H799 0.950 . S
C778 H774 0.949 . S
C778 C786 1.574 . S
C778 C794 1.368 . S
H779 C787 0.950 . S
H780 C785 0.950 . S
H781 C786 0.949 . S
H782 C788 0.950 . S
H783 C789 0.950 . S
H784 C790 0.949 . S
C785 H780 0.950 . S
C785 C787 1.327 . S
C785 C791 1.429 . S
C786 C778 1.574 . S
C786 H781 0.949 . S
C786 C792 1.368 . S
C787 C771 1.349 . S
C787 H779 0.950 . S
C787 C785 1.327 . S
C788 C776 1.349 . S
C788 H782 0.950 . S
C788 C789 1.327 . S
C789 H783 0.950 . S
C789 C788 1.327 . S
C789 C793 1.429 . S
C790 C773 1.574 . S
C790 H784 0.949 . S
C790 C794 1.368 . S
C791 C772 1.429 . S
C791 C785 1.429 . S
C791 C792 1.523 . S
C792 C773 1.368 . S
C792 C786 1.368 . S
C792 C791 1.523 . S
C793 C777 1.429 . S
C793 C789 1.429 . S
C793 C794 1.523 . S
C794 C778 1.368 . S
C794 C790 1.368 . S
C794 C793 1.523 . S
H795 C770 0.950 1_556 S
H796 C772 0.950 . S
H797 C773 0.949 . S
H798 C775 0.950 . S
H799 C777 0.950 . S
C800 C801 1.349 . S
C800 C802 1.327 . S
C800 H825 0.950 . S
C801 C800 1.349 . S
C801 C817 1.349 . S
C802 C800 1.327 . S
C802 C821 1.429 . S
C802 H826 0.950 . S
C803 C820 1.574 . S
C803 C822 1.368 1_556 S
C803 H827 0.949 . S
H804 C808 0.949 1_455 S
C805 C806 1.349 1_655 S
C805 C807 1.327 . S
C805 H828 0.950 . S
C806 C805 1.349 1_455 S
C806 C818 1.349 . S
C807 C805 1.327 . S
C807 C823 1.429 . S
C807 H829 0.950 . S
C808 H804 0.949 1_655 S
C808 C816 1.574 . S
C808 C824 1.368 1_554 S
H809 C817 0.950 . S
H810 C815 0.950 . S
H811 C816 0.949 . S
H812 C818 0.950 . S
H813 C819 0.950 . S
H814 C820 0.949 . S
C815 H810 0.950 . S
C815 C817 1.327 . S
C815 C821 1.429 . S
C816 C808 1.574 . S
C816 H811 0.949 . S
C816 C822 1.368 . S
C817 C801 1.349 . S
C817 H809 0.950 . S
C817 C815 1.327 . S
C818 C806 1.349 . S
C818 H812 0.950 . S
C818 C819 1.327 . S
C819 H813 0.950 . S
C819 C818 1.327 . S
C819 C823 1.429 1_455 S
C820 C803 1.574 . S
C820 H814 0.949 . S
C820 C824 1.368 . S
C821 C802 1.429 . S
C821 C815 1.429 . S
C821 C822 1.523 . S
C822 C803 1.368 1_554 S
C822 C816 1.368 . S
C822 C821 1.523 . S
C823 C807 1.429 . S
C823 C819 1.429 1_655 S
C823 C824 1.523 . S
C824 C808 1.368 1_556 S
C824 C820 1.368 . S
C824 C823 1.523 . S
H825 C800 0.950 . S
H826 C802 0.950 . S
H827 C803 0.949 . S
H828 C805 0.950 . S
H829 C807 0.950 . S
C830 C831 1.349 . S
C830 C832 1.327 . S
C830 H855 0.950 . S
C831 C830 1.349 . S
C831 C847 1.349 . S
C832 C830 1.327 . S
C832 C851 1.429 . S
C832 H856 0.950 . S
C833 C850 1.574 1_564 S
C833 C852 1.368 . S
C833 H857 0.949 1_565 S
H834 C838 0.949 . S
C835 C836 1.349 . S
C835 C837 1.327 . S
C835 H858 0.950 . S
C836 C835 1.349 . S
C836 C848 1.349 1_545 S
C837 C835 1.327 . S
C837 C853 1.429 1_545 S
C837 H859 0.950 . S
C838 H834 0.949 . S
C838 C846 1.574 1_556 S
C838 C854 1.368 . S
H839 C847 0.950 . S
H840 C845 0.950 . S
H841 C846 0.949 . S
H842 C848 0.950 . S
H843 C849 0.950 . S
H844 C850 0.949 . S
C845 H840 0.950 . S
C845 C847 1.327 . S
C845 C851 1.429 . S
C846 C838 1.574 1_554 S
C846 H841 0.949 . S
C846 C852 1.368 . S
C847 C831 1.349 . S
C847 H839 0.950 . S
C847 C845 1.327 . S
C848 C836 1.349 1_565 S
C848 H842 0.950 . S
C848 C849 1.327 . S
C849 H843 0.950 . S
C849 C848 1.327 . S
C849 C853 1.429 . S
C850 C833 1.574 1_546 S
C850 H844 0.949 . S
C850 C854 1.368 1_545 S
C851 C832 1.429 . S
C851 C845 1.429 . S
C851 C852 1.523 . S
C852 C833 1.368 . S
C852 C846 1.368 . S
C852 C851 1.523 . S
C853 C837 1.429 1_565 S
C853 C849 1.429 . S
C853 C854 1.523 . S
C854 C838 1.368 . S
C854 C850 1.368 1_565 S
C854 C853 1.523 . S
H855 C830 0.950 . S
H856 C832 0.950 . S
H857 C833 0.949 1_545 S
H858 C835 0.950 . S
H859 C837 0.950 . S
C860 C861 1.349 . S
C860 C862 1.327 . S
C860 H885 0.950 . S
C861 C860 1.349 . S
C861 C877 1.349 . S
C862 C860 1.327 . S
C862 C881 1.429 . S
C862 H886 0.950 1_554 S
C863 C880 1.574 . S
C863 C882 1.368 . S
C863 H887 0.949 . S
H864 C868 0.949 . S
C865 C866 1.349 . S
C865 C867 1.327 . S
C865 H888 0.950 . S
C866 C865 1.349 . S
C866 C878 1.349 . S
C867 C865 1.327 . S
C867 C883 1.429 . S
C867 H889 0.950 1_556 S
C868 H864 0.949 . S
C868 C876 1.574 . S
C868 C884 1.368 . S
H869 C877 0.950 . S
H870 C875 0.950 . S
H871 C876 0.949 . S
H872 C878 0.950 . S
H873 C879 0.950 . S
H874 C880 0.949 . S
C875 H870 0.950 . S
C875 C877 1.327 . S
C875 C881 1.429 . S
C876 C868 1.574 . S
C876 H871 0.949 . S
C876 C882 1.368 1_556 S
C877 C861 1.349 . S
C877 H869 0.950 . S
C877 C875 1.327 . S
C878 C866 1.349 . S
C878 H872 0.950 . S
C878 C879 1.327 . S
C879 H873 0.950 . S
C879 C878 1.327 . S
C879 C883 1.429 . S
C880 C863 1.574 . S
C880 H874 0.949 . S
C880 C884 1.368 1_554 S
C881 C862 1.429 . S
C881 C875 1.429 . S
C881 C882 1.523 . S
C882 C863 1.368 . S
C882 C876 1.368 1_554 S
C882 C881 1.523 . S
C883 C867 1.429 . S
C883 C879 1.429 . S
C883 C884 1.523 . S
C884 C868 1.368 . S
C884 C880 1.368 1_556 S
C884 C883 1.523 . S
H885 C860 0.950 . S
H886 C862 0.950 1_556 S
H887 C863 0.949 . S
H888 C865 0.950 . S
H889 C867 0.950 1_554 S
C890 C891 1.349 . S
C890 C892 1.327 . S
C890 H915 0.950 . S
C891 C890 1.349 . S
C891 C907 1.349 . S
C892 C890 1.327 . S
C892 C911 1.429 . S
C892 H916 0.950 . S
C893 C910 1.574 . S
C893 C912 1.368 1_556 S
C893 H917 0.949 . S
H894 C898 0.949 . S
C895 C896 1.349 . S
C895 C897 1.327 . S
C895 H918 0.950 . S
C896 C895 1.349 . S
C896 C908 1.349 . S
C897 C895 1.327 . S
C897 C913 1.429 . S
C897 H919 0.950 . S
C898 H894 0.949 . S
C898 C906 1.574 . S
C898 C914 1.368 1_554 S
H899 C907 0.950 . S
H900 C905 0.950 . S
H901 C906 0.949 . S
H902 C908 0.950 . S
H903 C909 0.950 . S
H904 C910 0.949 . S
C905 H900 0.950 . S
C905 C907 1.327 . S
C905 C911 1.429 . S
C906 C898 1.574 . S
C906 H901 0.949 . S
C906 C912 1.368 . S
C907 C891 1.349 . S
C907 H899 0.950 . S
C907 C905 1.327 . S
C908 C896 1.349 . S
C908 H902 0.950 . S
C908 C909 1.327 . S
C909 H903 0.950 . S
C909 C908 1.327 . S
C909 C913 1.429 . S
C910 C893 1.574 . S
C910 H904 0.949 . S
C910 C914 1.368 . S
C911 C892 1.429 . S
C911 C905 1.429 . S
C911 C912 1.523 . S
C912 C893 1.368 1_554 S
C912 C906 1.368 . S
C912 C911 1.523 . S
C913 C897 1.429 . S
C913 C909 1.429 . S
C913 C914 1.523 . S
C914 C898 1.368 1_556 S
C914 C910 1.368 . S
C914 C913 1.523 . S
H915 C890 0.950 . S
H916 C892 0.950 . S
H917 C893 0.949 . S
H918 C895 0.950 . S
H919 C897 0.950 . S
C920 C921 1.349 . S
C920 C922 1.327 . S
C920 H945 0.950 . S
C921 C920 1.349 . S
C921 C937 1.349 . S
C922 C920 1.327 . S
C922 C941 1.429 . S
C922 H946 0.950 . S
C923 C940 1.574 . S
C923 C942 1.368 . S
C923 H947 0.949 . S
H924 C928 0.949 . S
C925 C926 1.349 . S
C925 C927 1.327 . S
C925 H948 0.950 . S
C926 C925 1.349 . S
C926 C938 1.349 . S
C927 C925 1.327 . S
C927 C943 1.429 . S
C927 H949 0.950 . S
C928 H924 0.949 . S
C928 C936 1.574 . S
C928 C944 1.368 . S
H929 C937 0.950 . S
H930 C935 0.950 . S
H931 C936 0.949 . S
H932 C938 0.950 . S
H933 C939 0.950 . S
H934 C940 0.949 . S
C935 H930 0.950 . S
C935 C937 1.327 . S
C935 C941 1.429 . S
C936 C928 1.574 . S
C936 H931 0.949 . S
C936 C942 1.368 . S
C937 C921 1.349 . S
C937 H929 0.950 . S
C937 C935 1.327 . S
C938 C926 1.349 . S
C938 H932 0.950 . S
C938 C939 1.327 . S
C939 H933 0.950 . S
C939 C938 1.327 . S
C939 C943 1.429 . S
C940 C923 1.574 . S
C940 H934 0.949 . S
C940 C944 1.368 . S
C941 C922 1.429 . S
C941 C935 1.429 . S
C941 C942 1.523 . S
C942 C923 1.368 . S
C942 C936 1.368 . S
C942 C941 1.523 . S
C943 C927 1.429 . S
C943 C939 1.429 . S
C943 C944 1.523 . S
C944 C928 1.368 . S
C944 C940 1.368 . S
C944 C943 1.523 . S
H945 C920 0.950 . S
H946 C922 0.950 . S
H947 C923 0.949 . S
H948 C925 0.950 . S
H949 C927 0.950 . S
C950 C951 1.349 . S
C950 C952 1.327 . S
C950 H975 0.950 . S
C951 C950 1.349 . S
C951 C967 1.349 . S
C952 C950 1.327 . S
C952 C971 1.429 . S
C952 H976 0.950 . S
C953 C970 1.574 . S
C953 C972 1.368 . S
C953 H977 0.949 . S
H954 C958 0.949 . S
C955 C956 1.349 . S
C955 C957 1.327 . S
C955 H978 0.950 . S
C956 C955 1.349 . S
C956 C968 1.349 . S
C957 C955 1.327 . S
C957 C973 1.429 . S
C957 H979 0.950 . S
C958 H954 0.949 . S
C958 C966 1.574 . S
C958 C974 1.368 . S
H959 C967 0.950 . S
H960 C965 0.950 . S
H961 C966 0.949 . S
H962 C968 0.950 . S
H963 C969 0.950 . S
H964 C970 0.949 . S
C965 H960 0.950 . S
C965 C967 1.327 . S
C965 C971 1.429 . S
C966 C958 1.574 . S
C966 H961 0.949 . S
C966 C972 1.368 . S
C967 C951 1.349 . S
C967 H959 0.950 . S
C967 C965 1.327 . S
C968 C956 1.349 . S
C968 H962 0.950 . S
C968 C969 1.327 . S
C969 H963 0.950 . S
C969 C968 1.327 . S
C969 C973 1.429 . S
C970 C953 1.574 . S
C970 H964 0.949 . S
C970 C974 1.368 . S
C971 C952 1.429 . S
C971 C965 1.429 . S
C971 C972 1.523 . S
C972 C953 1.368 . S
C972 C966 1.368 . S
C972 C971 1.523 . S
C973 C957 1.429 . S
C973 C969 1.429 . S
C973 C974 1.523 . S
C974 C958 1.368 . S
C974 C970 1.368 . S
C974 C973 1.523 . S
H975 C950 0.950 . S
H976 C952 0.950 . S
H977 C953 0.949 . S
H978 C955 0.950 . S
H979 C957 0.950 . S
C980 C981 1.349 . S
C980 C982 1.327 . S
C980 H1005 0.950 . S
C981 C980 1.349 . S
C981 C997 1.349 . S
C982 C980 1.327 . S
C982 C1001 1.429 . S
C982 H1006 0.950 . S
C983 C1000 1.574 . S
C983 C1002 1.368 . S
C983 H1007 0.949 . S
H984 C988 0.949 . S
C985 C986 1.349 . S
C985 C987 1.327 . S
C985 H1008 0.950 . S
C986 C985 1.349 . S
C986 C998 1.349 . S
C987 C985 1.327 . S
C987 C1003 1.429 . S
C987 H1009 0.950 . S
C988 H984 0.949 . S
C988 C996 1.574 . S
C988 C1004 1.368 . S
H989 C997 0.950 . S
H990 C995 0.950 . S
H991 C996 0.949 . S
H992 C998 0.950 . S
H993 C999 0.950 . S
H994 C1000 0.949 . S
C995 H990 0.950 . S
C995 C997 1.327 . S
C995 C1001 1.429 . S
C996 C988 1.574 . S
C996 H991 0.949 . S
C996 C1002 1.368 . S
C997 C981 1.349 . S
C997 H989 0.950 . S
C997 C995 1.327 . S
C998 C986 1.349 . S
C998 H992 0.950 . S
C998 C999 1.327 . S
C999 H993 0.950 . S
C999 C998 1.327 . S
C999 C1003 1.429 . S
C1000 C983 1.574 . S
C1000 H994 0.949 . S
C1000 C1004 1.368 . S
C1001 C982 1.429 . S
C1001 C995 1.429 . S
C1001 C1002 1.523 . S
C1002 C983 1.368 . S
C1002 C996 1.368 . S
C1002 C1001 1.523 . S
C1003 C987 1.429 . S
C1003 C999 1.429 . S
C1003 C1004 1.523 . S
C1004 C988 1.368 . S
C1004 C1000 1.368 . S
C1004 C1003 1.523 . S
H1005 C980 0.950 . S
H1006 C982 0.950 . S
H1007 C983 0.949 . S
H1008 C985 0.950 . S
H1009 C987 0.950 . S
C1010 C1011 1.349 . S
C1010 C1012 1.327 . S
C1010 H1035 0.950 . S
C1011 C1010 1.349 . S
C1011 C1027 1.349 . S
C1012 C1010 1.327 . S
C1012 C1031 1.429 . S
C1012 H1036 0.950 . S
C1013 C1030 1.574 . S
C1013 C1032 1.368 . S
C1013 H1037 0.949 . S
H1014 C1018 0.949 . S
C1015 C1016 1.349 . S
C1015 C1017 1.327 . S
C1015 H1038 0.950 . S
C1016 C1015 1.349 . S
C1016 C1028 1.349 . S
C1017 C1015 1.327 . S
C1017 C1033 1.429 . S
C1017 H1039 0.950 . S
C1018 H1014 0.949 . S
C1018 C1026 1.574 . S
C1018 C1034 1.368 . S
H1019 C1027 0.950 . S
H1020 C1025 0.950 . S
H1021 C1026 0.949 . S
H1022 C1028 0.950 . S
H1023 C1029 0.950 . S
H1024 C1030 0.949 . S
C1025 H1020 0.950 . S
C1025 C1027 1.327 . S
C1025 C1031 1.429 . S
C1026 C1018 1.574 . S
C1026 H1021 0.949 . S
C1026 C1032 1.368 . S
C1027 C1011 1.349 . S
C1027 H1019 0.950 . S
C1027 C1025 1.327 . S
C1028 C1016 1.349 . S
C1028 H1022 0.950 . S
C1028 C1029 1.327 . S
C1029 H1023 0.950 . S
C1029 C1028 1.327 . S
C1029 C1033 1.429 . S
C1030 C1013 1.574 . S
C1030 H1024 0.949 . S
C1030 C1034 1.368 . S
C1031 C1012 1.429 . S
C1031 C1025 1.429 . S
C1031 C1032 1.523 . S
C1032 C1013 1.368 . S
C1032 C1026 1.368 . S
C1032 C1031 1.523 . S
C1033 C1017 1.429 . S
C1033 C1029 1.429 . S
C1033 C1034 1.523 . S
C1034 C1018 1.368 . S
C1034 C1030 1.368 . S
C1034 C1033 1.523 . S
H1035 C1010 0.950 . S
H1036 C1012 0.950 . S
H1037 C1013 0.949 . S
H1038 C1015 0.950 . S
H1039 C1017 0.950 . S
C1040 C1041 1.349 . S
C1040 C1042 1.327 . S
C1040 H1065 0.950 . S
C1041 C1040 1.349 . S
C1041 C1057 1.349 . S
C1042 C1040 1.327 . S
C1042 C1061 1.429 . S
C1042 H1066 0.950 . S
C1043 C1060 1.574 . S
C1043 C1062 1.368 . S
C1043 H1067 0.949 . S
H1044 C1048 0.949 . S
C1045 C1046 1.349 . S
C1045 C1047 1.327 . S
C1045 H1068 0.950 1_655 S
C1046 C1045 1.349 . S
C1046 C1058 1.349 . S
C1047 C1045 1.327 . S
C1047 C1063 1.429 . S
C1047 H1069 0.950 . S
C1048 H1044 0.949 . S
C1048 C1056 1.574 . S
C1048 C1064 1.368 . S
H1049 C1057 0.950 . S
H1050 C1055 0.950 . S
H1051 C1056 0.949 . S
H1052 C1058 0.950 . S
H1053 C1059 0.950 . S
H1054 C1060 0.949 . S
C1055 H1050 0.950 . S
C1055 C1057 1.327 . S
C1055 C1061 1.429 . S
C1056 C1048 1.574 . S
C1056 H1051 0.949 . S
C1056 C1062 1.368 . S
C1057 C1041 1.349 . S
C1057 H1049 0.950 . S
C1057 C1055 1.327 . S
C1058 C1046 1.349 . S
C1058 H1052 0.950 . S
C1058 C1059 1.327 . S
C1059 H1053 0.950 . S
C1059 C1058 1.327 . S
C1059 C1063 1.429 . S
C1060 C1043 1.574 . S
C1060 H1054 0.949 . S
C1060 C1064 1.368 . S
C1061 C1042 1.429 . S
C1061 C1055 1.429 . S
C1061 C1062 1.523 . S
C1062 C1043 1.368 . S
C1062 C1056 1.368 . S
C1062 C1061 1.523 . S
C1063 C1047 1.429 . S
C1063 C1059 1.429 . S
C1063 C1064 1.523 . S
C1064 C1048 1.368 . S
C1064 C1060 1.368 . S
C1064 C1063 1.523 . S
H1065 C1040 0.950 . S
H1066 C1042 0.950 . S
H1067 C1043 0.949 . S
H1068 C1045 0.950 1_455 S
H1069 C1047 0.950 . S
C1070 C1071 1.349 . S
C1070 C1072 1.327 . S
C1070 H1095 0.950 . S
C1071 C1070 1.349 . S
C1071 C1087 1.349 . S
C1072 C1070 1.327 . S
C1072 C1091 1.429 . S
C1072 H1096 0.950 . S
C1073 C1090 1.574 . S
C1073 C1092 1.368 . S
C1073 H1097 0.949 . S
H1074 C1078 0.949 . S
C1075 C1076 1.349 1_545 S
C1075 C1077 1.326 . S
C1075 H1098 0.950 . S
C1076 C1075 1.349 1_565 S
C1076 C1088 1.349 . S
C1077 C1075 1.326 . S
C1077 C1093 1.434 1_545 S
C1077 H1099 0.945 . S
C1078 H1074 0.949 . S
C1078 C1086 1.574 . S
C1078 C1094 1.368 . S
H1079 C1087 0.950 . S
H1080 C1085 0.950 . S
H1081 C1086 0.949 . S
H1082 C1088 0.950 . S
H1083 C1089 0.950 . S
H1084 C1090 0.949 1_545 S
C1085 H1080 0.950 . S
C1085 C1087 1.327 . S
C1085 C1091 1.429 . S
C1086 C1078 1.574 . S
C1086 H1081 0.949 . S
C1086 C1092 1.368 . S
C1087 C1071 1.349 . S
C1087 H1079 0.950 . S
C1087 C1085 1.327 . S
C1088 C1076 1.349 . S
C1088 H1082 0.950 . S
C1088 C1089 1.327 . S
C1089 H1083 0.950 . S
C1089 C1088 1.327 . S
C1089 C1093 1.429 . S
C1090 C1073 1.574 . S
C1090 H1084 0.949 1_565 S
C1090 C1094 1.368 . S
C1091 C1072 1.429 . S
C1091 C1085 1.429 . S
C1091 C1092 1.523 . S
C1092 C1073 1.368 . S
C1092 C1086 1.368 . S
C1092 C1091 1.523 . S
C1093 C1077 1.434 1_565 S
C1093 C1089 1.429 . S
C1093 C1094 1.523 . S
C1094 C1078 1.368 . S
C1094 C1090 1.368 . S
C1094 C1093 1.523 . S
H1095 C1070 0.950 . S
H1096 C1072 0.950 . S
H1097 C1073 0.949 . S
H1098 C1075 0.950 . S
H1099 C1077 0.945 . S
C1100 C1101 1.349 . S
C1100 C1102 1.327 . S
C1100 H1125 0.950 . S
C1101 C1100 1.349 . S
C1101 C1117 1.349 . S
C1102 C1100 1.327 . S
C1102 C1121 1.429 . S
C1102 H1126 0.950 . S
C1103 C1120 1.574 . S
C1103 C1122 1.368 . S
C1103 H1127 0.949 . S
H1104 C1108 0.949 . S
C1105 C1106 1.349 . S
C1105 C1107 1.327 . S
C1105 H1128 0.950 . S
C1106 C1105 1.349 . S
C1106 C1118 1.349 . S
C1107 C1105 1.327 . S
C1107 C1123 1.429 . S
C1107 H1129 0.950 . S
C1108 H1104 0.949 . S
C1108 C1116 1.574 . S
C1108 C1124 1.368 . S
H1109 C1117 0.950 . S
H1110 C1115 0.950 . S
H1111 C1116 0.949 . S
H1112 C1118 0.950 . S
H1113 C1119 0.950 . S
H1114 C1120 0.949 . S
C1115 H1110 0.950 . S
C1115 C1117 1.327 . S
C1115 C1121 1.429 . S
C1116 C1108 1.574 . S
C1116 H1111 0.949 . S
C1116 C1122 1.368 . S
C1117 C1101 1.349 . S
C1117 H1109 0.950 . S
C1117 C1115 1.327 . S
C1118 C1106 1.349 . S
C1118 H1112 0.950 . S
C1118 C1119 1.327 . S
C1119 H1113 0.950 . S
C1119 C1118 1.327 . S
C1119 C1123 1.429 . S
C1120 C1103 1.574 . S
C1120 H1114 0.949 . S
C1120 C1124 1.368 . S
C1121 C1102 1.429 . S
C1121 C1115 1.429 . S
C1121 C1122 1.523 . S
C1122 C1103 1.368 . S
C1122 C1116 1.368 . S
C1122 C1121 1.523 . S
C1123 C1107 1.429 . S
C1123 C1119 1.429 . S
C1123 C1124 1.523 . S
C1124 C1108 1.368 . S
C1124 C1120 1.368 . S
C1124 C1123 1.523 . S
H1125 C1100 0.950 . S
H1126 C1102 0.950 . S
H1127 C1103 0.949 . S
H1128 C1105 0.950 . S
H1129 C1107 0.950 . S
C1130 C1131 1.349 . S
C1130 C1132 1.327 . S
C1130 H1155 0.950 . S
C1131 C1130 1.349 . S
C1131 C1147 1.349 . S
C1132 C1130 1.327 . S
C1132 C1151 1.429 . S
C1132 H1156 0.950 . S
C1133 C1150 1.574 . S
C1133 C1152 1.368 . S
C1133 H1157 0.949 . S
H1134 C1138 0.949 . S
C1135 C1136 1.349 . S
C1135 C1137 1.327 . S
C1135 H1158 0.950 . S
C1136 C1135 1.349 . S
C1136 C1148 1.349 . S
C1137 C1135 1.327 . S
C1137 C1153 1.429 . S
C1137 H1159 0.950 . S
C1138 H1134 0.949 . S
C1138 C1146 1.574 . S
C1138 C1154 1.368 . S
H1139 C1147 0.950 . S
H1140 C1145 0.950 . S
H1141 C1146 0.949 . S
H1142 C1148 0.950 . S
H1143 C1149 0.950 . S
H1144 C1150 0.949 . S
C1145 H1140 0.950 . S
C1145 C1147 1.327 . S
C1145 C1151 1.429 . S
C1146 C1138 1.574 . S
C1146 H1141 0.949 . S
C1146 C1152 1.368 . S
C1147 C1131 1.349 . S
C1147 H1139 0.950 . S
C1147 C1145 1.327 . S
C1148 C1136 1.349 . S
C1148 H1142 0.950 . S
C1148 C1149 1.327 . S
C1149 H1143 0.950 . S
C1149 C1148 1.327 . S
C1149 C1153 1.429 . S
C1150 C1133 1.574 . S
C1150 H1144 0.949 . S
C1150 C1154 1.368 . S
C1151 C1132 1.429 . S
C1151 C1145 1.429 . S
C1151 C1152 1.523 . S
C1152 C1133 1.368 . S
C1152 C1146 1.368 . S
C1152 C1151 1.523 . S
C1153 C1137 1.429 . S
C1153 C1149 1.429 . S
C1153 C1154 1.523 . S
C1154 C1138 1.368 . S
C1154 C1150 1.368 . S
C1154 C1153 1.523 . S
H1155 C1130 0.950 . S
H1156 C1132 0.950 . S
H1157 C1133 0.949 . S
H1158 C1135 0.950 . S
H1159 C1137 0.950 . S
C441 C82 1.705 . S
C446 C178 1.846 . S
C476 C262 1.877 . S
C471 C95 1.740 . S
C506 C328 1.899 . S
C501 C56 1.856 . S
C536 C412 1.872 . S
C531 C69 1.825 . S
C566 C167 1.846 1_565 S
C561 C30 1.645 . S
C591 C43 1.673 . S
C596 C251 1.877 . S
C621 C4 1.784 . S
C626 C339 1.899 . S
C651 C17 1.758 . S
C656 C423 1.872 . S
C686 C174 0.511 1_455 S
C681 C74 0.499 . S
C716 C258 0.562 . S
C711 C87 0.468 . S
C746 C330 0.506 . S
C741 C100 0.447 . S
C771 C61 0.474 . S
C776 C414 0.518 . S
C801 C22 0.503 . S
C806 C162 0.533 . S
C836 C246 0.517 . S
C831 C35 0.474 . S
C866 C342 0.505 . S
C861 C48 0.454 . S
C891 C9 0.479 . S
C896 C426 0.518 . S
C921 C73 1.956 . S
C926 C171 1.998 . S
C951 C86 1.918 . S
C956 C255 1.960 . S
C986 C335 1.938 . S
C981 C99 1.812 . S
C1016 C419 1.973 . S
C1011 C60 1.845 . S
C1041 C21 1.950 . S
C1046 C160 1.998 . S
C1076 C244 1.957 1_565 S
C1071 C34 1.912 . S
C1106 C346 1.938 . S
C1101 C47 1.806 . S
C1131 C8 1.839 . S
C1136 C430 1.973 . S
