# Generated by pormake.
# Topology ssa, (4,4)-cn, num edge types: 1
# Building blocks:
#     Node 0, Type 0, BuildingBlock: ESEHIV_clean_sbu_0, # of connection points: 4
#     Node 1, Type 0, BuildingBlock: ESEHIV_clean_sbu_0, # of connection points: 4
#     Node 2, Type 0, BuildingBlock: ESEHIV_clean_sbu_0, # of connection points: 4
#     Node 3, Type 0, BuildingBlock: ESEHIV_clean_sbu_0, # of connection points: 4
#     Node 4, Type 0, BuildingBlock: ESEHIV_clean_sbu_0, # of connection points: 4
#     Node 5, Type 0, BuildingBlock: ESEHIV_clean_sbu_0, # of connection points: 4
#     Node 6, Type 1, BuildingBlock: MIFKUJ_clean_linker_1, # of connection points: 4
#     Node 7, Type 1, BuildingBlock: MIFKUJ_clean_linker_1, # of connection points: 4
#     Node 8, Type 1, BuildingBlock: MIFKUJ_clean_linker_1, # of connection points: 4
#     Node 9, Type 1, BuildingBlock: MIFKUJ_clean_linker_1, # of connection points: 4
#     Node 10, Type 1, BuildingBlock: MIFKUJ_clean_linker_1, # of connection points: 4
#     Node 11, Type 1, BuildingBlock: MIFKUJ_clean_linker_1, # of connection points: 4
#     Edge 12, Type (0, 1), BuildingBlock: KIFKEQ_clean_linker_1, # of connection points: 2
#     Edge 13, Type (0, 1), BuildingBlock: KIFKEQ_clean_linker_1, # of connection points: 2
#     Edge 14, Type (0, 1), BuildingBlock: KIFKEQ_clean_linker_1, # of connection points: 2
#     Edge 15, Type (0, 1), BuildingBlock: KIFKEQ_clean_linker_1, # of connection points: 2
#     Edge 16, Type (0, 1), BuildingBlock: KIFKEQ_clean_linker_1, # of connection points: 2
#     Edge 17, Type (0, 1), BuildingBlock: KIFKEQ_clean_linker_1, # of connection points: 2
#     Edge 18, Type (0, 1), BuildingBlock: KIFKEQ_clean_linker_1, # of connection points: 2
#     Edge 19, Type (0, 1), BuildingBlock: KIFKEQ_clean_linker_1, # of connection points: 2
#     Edge 20, Type (0, 1), BuildingBlock: KIFKEQ_clean_linker_1, # of connection points: 2
#     Edge 21, Type (0, 1), BuildingBlock: KIFKEQ_clean_linker_1, # of connection points: 2
#     Edge 22, Type (0, 1), BuildingBlock: KIFKEQ_clean_linker_1, # of connection points: 2
#     Edge 23, Type (0, 1), BuildingBlock: KIFKEQ_clean_linker_1, # of connection points: 2
#     Edge 24, Type (0, 1), BuildingBlock: KIFKEQ_clean_linker_1, # of connection points: 2
#     Edge 25, Type (0, 1), BuildingBlock: KIFKEQ_clean_linker_1, # of connection points: 2
#     Edge 26, Type (0, 1), BuildingBlock: KIFKEQ_clean_linker_1, # of connection points: 2
#     Edge 27, Type (0, 1), BuildingBlock: KIFKEQ_clean_linker_1, # of connection points: 2
#     Edge 28, Type (0, 1), BuildingBlock: KIFKEQ_clean_linker_1, # of connection points: 2
#     Edge 29, Type (0, 1), BuildingBlock: KIFKEQ_clean_linker_1, # of connection points: 2
#     Edge 30, Type (0, 1), BuildingBlock: KIFKEQ_clean_linker_1, # of connection points: 2
#     Edge 31, Type (0, 1), BuildingBlock: KIFKEQ_clean_linker_1, # of connection points: 2
#     Edge 32, Type (0, 1), BuildingBlock: KIFKEQ_clean_linker_1, # of connection points: 2
#     Edge 33, Type (0, 1), BuildingBlock: KIFKEQ_clean_linker_1, # of connection points: 2
#     Edge 34, Type (0, 1), BuildingBlock: KIFKEQ_clean_linker_1, # of connection points: 2
#     Edge 35, Type (0, 1), BuildingBlock: KIFKEQ_clean_linker_1, # of connection points: 2
# Relax obj value: 0.007
# Max RMSD: 0.106
# Mean RMSD: 0.056
data_MOF--net-ssa--node1-ESEHIV_clean_sbu_0--node2-MIFKUJ_clean_linker_1--edge1-KIFKEQ_clean_linker_1
_symmetry_space_group_name_H-M    P1
_symmetry_Int_Tables_number       1
_symmetry_cell_setting            triclinic
loop_
_symmetry_equiv_pos_as_xyz
'x, y, z'
_cell_length_a     61.016641
_cell_length_b     64.67963
_cell_length_c     40.222126
_cell_angle_alpha  88.21625
_cell_angle_beta   90.879586
_cell_angle_gamma 122.14032
loop_
_atom_site_label
_atom_site_type_symbol
_atom_site_fract_x
_atom_site_fract_y
_atom_site_fract_z
_atom_type_partial_charge
Cu0 Cu 0.01814 0.52448 0.98237 0.0
N1 N 0.01647 0.50795 0.94434 0.0
N2 N 0.9974 0.47837 0.90741 0.0
C3 C 0.99474 0.48714 0.93597 0.0
C4 C 0.02199 0.49428 0.89738 0.0
C5 C 0.03372 0.51273 0.9202 0.0
O6 O 0.98599 0.52452 0.98121 0.0
C7 C 0.04657 0.51058 0.0169 0.0
O8 O 0.05867 0.51902 0.98829 0.0
H9 H 0.97729 0.47849 0.95091 0.0
H10 H 0.05332 0.52843 0.91922 0.0
N11 N 0.04634 0.55669 0.98309 0.0
N12 N 0.07899 0.58956 0.007 0.0
C13 C 0.05798 0.56703 0.0118 0.0
C14 C 0.06048 0.57337 0.959 0.0
C15 C 0.08062 0.59389 0.97384 0.0
C16 C 0.98444 0.53521 0.95484 0.0
O17 O 1.00444 0.54582 0.93465 0.0
H18 H 0.05133 0.55797 0.03591 0.0
H19 H 0.05685 0.57062 0.93262 0.0
O20 O 0.0249 0.50893 0.02042 0.0
H21 H 0.03071 0.49289 0.87501 0.0
H22 H 0.09573 0.61029 0.96125 0.0
Cu23 Cu 0.51602 0.01224 0.509 0.0
N24 N 0.52822 0.00824 0.46883 0.0
N25 N 0.53697 0.9886 0.43151 0.0
C26 C 0.52745 0.98764 0.46199 0.0
C27 C 0.54412 0.0109 0.41868 0.0
C28 C 0.53863 0.02297 0.44175 0.0
O29 O 0.48259 0.982 0.51488 0.0
C30 C 0.56391 0.03518 0.53705 0.0
O31 O 0.56863 0.04649 0.50789 0.0
H32 H 0.52027 0.97234 0.47947 0.0
H33 H 0.54205 0.04114 0.43897 0.0
N34 N 0.51283 0.03953 0.50963 0.0
N35 N 0.50989 0.06942 0.53139 0.0
C36 C 0.51357 0.05084 0.53759 0.0
C37 C 0.50881 0.05153 0.48472 0.0
C38 C 0.5068 0.06988 0.49812 0.0
C39 C 0.46354 0.98003 0.49855 0.0
O40 O 0.46632 0.99952 0.4833 0.0
H41 H 0.51617 0.04514 0.56215 0.0
H42 H 0.50696 0.04699 0.45877 0.0
O43 O 0.54095 0.01761 0.54349 0.0
H44 H 0.55243 0.01794 0.39427 0.0
H45 H 0.50342 0.08261 0.48445 0.0
Cu46 Cu 0.51271 0.50042 0.0511 0.0
N47 N 0.51125 0.47077 0.04971 0.0
N48 N 0.50996 0.43887 0.02718 0.0
C49 C 0.50915 0.45916 0.02148 0.0
C50 C 0.51261 0.43771 0.0605 0.0
C51 C 0.5135 0.45745 0.0743 0.0
O52 O 0.5328 0.51923 0.01227 0.0
C53 C 0.46484 0.4816 0.07789 0.0
O54 O 0.47444 0.47157 0.09721 0.0
H55 H 0.50717 0.46566 0.99719 0.0
H56 H 0.51603 0.46196 0.10031 0.0
N57 N 0.52939 0.51864 0.08883 0.0
N58 N 0.54301 0.54908 0.12421 0.0
C59 C 0.5267 0.53678 0.09917 0.0
C60 C 0.54782 0.51925 0.10845 0.0
C61 C 0.55648 0.53827 0.13011 0.0
C62 C 0.55614 0.52465 0.01365 0.0
O63 O 0.56371 0.51789 0.04028 0.0
H64 H 0.51391 0.54165 0.0874 0.0
H65 H 0.5552 0.50741 0.10627 0.0
O66 O 0.47809 0.49456 0.05286 0.0
H67 H 0.5145 0.42399 0.07395 0.0
H68 H 0.57178 0.544 0.14831 0.0
Cu69 Cu 0.98993 0.49446 0.50084 0.0
N70 N 0.98453 0.48031 0.45971 0.0
N71 N 0.99653 0.46917 0.41505 0.0
C72 C 1.00336 0.4867 0.43734 0.0
C73 C 0.97231 0.45107 0.42349 0.0
C74 C 0.96487 0.45808 0.45104 0.0
O75 O 0.02616 0.52156 0.49996 0.0
C76 C 0.98203 0.46811 0.5644 0.0
O77 O 0.99421 0.48915 0.57933 0.0
H78 H 0.0228 0.50246 0.43981 0.0
H79 H 0.94754 0.44678 0.46571 0.0
N80 N 0.96729 0.5052 0.50586 0.0
N81 N 0.93946 0.51287 0.52933 0.0
C82 C 0.95556 0.50469 0.53418 0.0
C83 C 0.95839 0.51399 0.48214 0.0
C84 C 0.94125 0.51881 0.49654 0.0
C85 C 0.0332 0.54389 0.50229 0.0
O86 O 0.01637 0.54913 0.51231 0.0
H87 H 0.95885 0.49847 0.55787 0.0
H88 H 0.96375 0.51641 0.45615 0.0
O89 O 0.9804 0.46775 0.53283 0.0
H90 H 0.96172 0.4333 0.41235 0.0
H91 H 0.93051 0.52557 0.48365 0.0
Cu92 Cu 0.52076 0.01292 0.04365 0.0
N93 N 0.51356 0.03684 0.0522 0.0
N94 N 0.50848 0.0678 0.03916 0.0
C95 C 0.52049 0.05611 0.03161 0.0
C96 C 0.49349 0.05555 0.06582 0.0
C97 C 0.49688 0.03651 0.07407 0.0
O98 O 0.53483 0.02035 0.99853 0.0
C99 C 0.46679 0.97441 0.05089 0.0
O100 O 0.46115 0.98983 0.03761 0.0
H101 H 0.53241 0.06025 0.00974 0.0
H102 H 0.48649 0.02242 0.09302 0.0
N103 N 0.54573 0.01501 0.0728 0.0
N104 N 0.56723 1.0016 0.10229 0.0
C105 C 0.54615 0.9954 0.08369 0.0
C106 C 0.56716 0.03448 0.08514 0.0
C107 C 0.58049 0.02621 0.10357 0.0
C108 C 0.55421 0.01941 0.98959 0.0
O109 O 0.56241 0.00826 0.00915 0.0
H110 H 0.53132 0.97691 0.07753 0.0
H111 H 0.573 0.05328 0.08034 0.0
O112 O 0.49031 0.98036 0.0521 0.0
H113 H 0.48014 0.05935 0.07738 0.0
H114 H 0.59887 0.03746 0.11592 0.0
Cu115 Cu 0.50176 0.49285 0.4908 0.0
N116 N 0.52245 0.51214 0.45526 0.0
N117 N 0.53917 0.54324 0.41824 0.0
C118 C 0.5179 0.52656 0.43541 0.0
C119 C 0.55779 0.53891 0.42726 0.0
C120 C 0.54737 0.51962 0.45007 0.0
O121 O 0.4677 0.48824 0.4846 0.0
C122 C 0.51566 0.5003 0.56017 0.0
O123 O 0.49288 0.48061 0.5665 0.0
H124 H 0.50016 0.5265 0.43596 0.0
H125 H 0.55777 0.51292 0.464 0.0
N126 N 0.49791 0.46227 0.4906 0.0
N127 N 0.4968 0.42898 0.5101 0.0
C128 C 0.5067 0.45304 0.51387 0.0
C129 C 0.48233 0.44357 0.47089 0.0
C130 C 0.48158 0.42298 0.48286 0.0
C131 C 0.46282 0.50505 0.4856 0.0
O132 O 0.48078 0.52664 0.49617 0.0
H133 H 0.51877 0.46336 0.53446 0.0
H134 H 0.47121 0.44456 0.45039 0.0
O135 O 0.52092 0.50924 0.53063 0.0
H136 H 0.57788 0.54991 0.41964 0.0
H137 H 0.46993 0.40485 0.47302 0.0
H138 H 0.19164 0.46015 0.18414 0.0
H139 H 0.15863 0.46307 0.15265 0.0
H140 H 0.17185 0.52242 0.21382 0.0
H141 H 0.20535 0.52 0.24421 0.0
H142 H 0.24275 0.49074 0.1943 0.0
H143 H 0.16799 0.44936 0.25903 0.0
H144 H 0.12912 0.44513 0.28166 0.0
H145 H 0.17603 0.50299 0.34992 0.0
H146 H 0.21504 0.50855 0.32483 0.0
H147 H 0.28904 0.52236 0.3203 0.0
H148 H 0.32247 0.52464 0.35718 0.0
H149 H 0.3114 0.45916 0.3149 0.0
H150 H 0.27775 0.45691 0.27808 0.0
H151 H 0.23695 0.48391 0.31748 0.0
H152 H 0.31361 0.52195 0.24538 0.0
H153 H 0.34844 0.52286 0.21456 0.0
H154 H 0.29175 0.46009 0.15993 0.0
H155 H 0.25709 0.45891 0.19121 0.0
C156 C 0.20094 0.48977 0.21666 0.0
C157 C 0.18758 0.47394 0.19051 0.0
C158 C 0.16845 0.47541 0.17284 0.0
C159 C 0.1624 0.49288 0.1808 0.0
C160 C 0.17608 0.50888 0.20677 0.0
C161 C 0.19519 0.50743 0.22432 0.0
C162 C 0.22016 0.48736 0.23698 0.0
C163 C 0.24136 0.48893 0.22121 0.0
C164 C 0.21809 0.48454 0.27207 0.0
C165 C 0.19449 0.47973 0.28956 0.0
C166 C 0.16991 0.46126 0.27873 0.0
C167 C 0.14759 0.45863 0.2921 0.0
C168 C 0.14926 0.4739 0.31747 0.0
C169 C 0.17392 0.49136 0.32978 0.0
C170 C 0.19631 0.49433 0.31581 0.0
C171 C 0.28098 0.48956 0.29627 0.0
C172 C 0.29386 0.50853 0.31889 0.0
C173 C 0.31308 0.50989 0.33983 0.0
C174 C 0.31965 0.49211 0.33898 0.0
C175 C 0.30666 0.47304 0.31635 0.0
C176 C 0.28757 0.47182 0.29513 0.0
C177 C 0.26012 0.48813 0.27488 0.0
C178 C 0.23838 0.48565 0.29057 0.0
C179 C 0.26125 0.48904 0.23961 0.0
C180 C 0.2827 0.49009 0.22105 0.0
C181 C 0.30868 0.5082 0.22708 0.0
C182 C 0.32856 0.50879 0.20933 0.0
C183 C 0.3228 0.49156 0.1848 0.0
C184 C 0.29678 0.47379 0.17837 0.0
C185 C 0.27697 0.47304 0.19635 0.0
H186 H 0.71576 0.20925 0.81189 0.0
H187 H 0.67901 0.17568 0.84227 0.0
H188 H 0.71168 0.13111 0.8308 0.0
H189 H 0.74764 0.16448 0.79915 0.0
H190 H 0.77362 0.23245 0.82529 0.0
H191 H 0.7087 0.19419 0.73439 0.0
H192 H 0.67574 0.15833 0.70501 0.0
H193 H 0.7291 0.13393 0.69671 0.0
H194 H 0.76232 0.17062 0.72478 0.0
H195 H 0.83592 0.25226 0.70837 0.0
H196 H 0.8704 0.2889 0.67936 0.0
H197 H 0.83437 0.32821 0.70677 0.0
H198 H 0.80075 0.29187 0.73659 0.0
H199 H 0.77888 0.22481 0.70351 0.0
H200 H 0.84659 0.267 0.78176 0.0
H201 H 0.88145 0.30555 0.80382 0.0
H202 H 0.825 0.3207 0.83921 0.0
H203 H 0.79013 0.28198 0.81698 0.0
C204 C 0.73442 0.18937 0.80337 0.0
C205 C 0.71498 0.19225 0.81611 0.0
C206 C 0.694 0.173 0.83361 0.0
C207 C 0.69218 0.15049 0.83918 0.0
C208 C 0.71199 0.14788 0.82659 0.0
C209 C 0.73278 0.16705 0.80874 0.0
C210 C 0.75587 0.20933 0.78324 0.0
C211 C 0.77469 0.23083 0.79869 0.0
C212 C 0.75781 0.20699 0.74876 0.0
C213 C 0.7379 0.18504 0.7314 0.0
C214 C 0.71322 0.18107 0.72613 0.0
C215 C 0.69431 0.16038 0.70967 0.0
C216 C 0.69963 0.14307 0.69848 0.0
C217 C 0.72438 0.147 0.70444 0.0
C218 C 0.74339 0.1679 0.72054 0.0
C219 C 0.81583 0.26935 0.72472 0.0
C220 C 0.83539 0.26874 0.70778 0.0
C221 C 0.8551 0.28977 0.69119 0.0
C222 C 0.85546 0.31177 0.69088 0.0
C223 C 0.83525 0.31193 0.70707 0.0
C224 C 0.81577 0.29103 0.72385 0.0
C225 C 0.79643 0.24808 0.74545 0.0
C226 C 0.77803 0.22634 0.73018 0.0
C227 C 0.79522 0.25 0.78025 0.0
C228 C 0.81581 0.27177 0.79749 0.0
C229 C 0.84172 0.27855 0.7945 0.0
C230 C 0.86162 0.30064 0.80692 0.0
C231 C 0.85599 0.3163 0.82289 0.0
C232 C 0.82994 0.30896 0.82717 0.0
C233 C 0.81 0.28685 0.81457 0.0
H234 H 0.58432 0.82453 0.34795 0.0
H235 H 0.57983 0.85636 0.37232 0.0
H236 H 0.52751 0.84875 0.29325 0.0
H237 H 0.53189 0.81687 0.26925 0.0
H238 H 0.55119 0.77651 0.33318 0.0
H239 H 0.60714 0.85153 0.27358 0.0
H240 H 0.61438 0.88896 0.24599 0.0
H241 H 0.56065 0.84602 0.16874 0.0
H242 H 0.55295 0.80862 0.19682 0.0
H243 H 0.54435 0.74264 0.20043 0.0
H244 H 0.54324 0.70841 0.17497 0.0
H245 H 0.59244 0.70827 0.25362 0.0
H246 H 0.59579 0.74415 0.2763 0.0
H247 H 0.58021 0.78904 0.21547 0.0
H248 H 0.51914 0.71516 0.28162 0.0
H249 H 0.51344 0.67722 0.30481 0.0
H250 H 0.58099 0.71916 0.36654 0.0
H251 H 0.58581 0.75687 0.3441 0.0
C252 C 0.55873 0.81852 0.30652 0.0
C253 C 0.57163 0.82951 0.33612 0.0
C254 C 0.56907 0.84773 0.34999 0.0
C255 C 0.55353 0.8553 0.33452 0.0
C256 C 0.54003 0.84371 0.30543 0.0
C257 C 0.54243 0.82539 0.29176 0.0
C258 C 0.56323 0.80077 0.29006 0.0
C259 C 0.5578 0.77943 0.3076 0.0
C260 C 0.57192 0.80446 0.25662 0.0
C261 C 0.57915 0.82725 0.23755 0.0
C262 C 0.59701 0.85019 0.25061 0.0
C263 C 0.60114 0.87154 0.23488 0.0
C264 C 0.58794 0.87034 0.20539 0.0
C265 C 0.57121 0.84747 0.19134 0.0
C266 C 0.56682 0.8261 0.20732 0.0
C267 C 0.56959 0.74565 0.24085 0.0
C268 C 0.55538 0.73556 0.21168 0.0
C269 C 0.5544 0.71558 0.19749 0.0
C270 C 0.56721 0.70486 0.21247 0.0
C271 C 0.58239 0.71583 0.24091 0.0
C272 C 0.584 0.73625 0.25441 0.0
C273 C 0.56775 0.76467 0.25838 0.0
C274 C 0.5737 0.78624 0.24109 0.0
C275 C 0.55971 0.76132 0.29206 0.0
C276 C 0.55297 0.73874 0.31106 0.0
C277 C 0.53223 0.71607 0.30086 0.0
C278 C 0.52926 0.69443 0.3138 0.0
C279 C 0.54707 0.69508 0.33707 0.0
C280 C 0.56679 0.71788 0.34885 0.0
C281 C 0.56958 0.73951 0.33612 0.0
H282 H 0.69332 0.49042 0.71686 0.0
H283 H 0.65705 0.48752 0.68556 0.0
H284 H 0.67872 0.55891 0.71821 0.0
H285 H 0.7157 0.56231 0.74808 0.0
H286 H 0.74449 0.5208 0.71238 0.0
H287 H 0.68284 0.49867 0.80769 0.0
H288 H 0.65248 0.50499 0.83754 0.0
H289 H 0.7098 0.58261 0.83885 0.0
H290 H 0.74053 0.57556 0.81134 0.0
H291 H 0.80339 0.56107 0.8363 0.0
H292 H 0.83603 0.5588 0.86954 0.0
H293 H 0.81301 0.49009 0.82542 0.0
H294 H 0.7801 0.49216 0.79276 0.0
H295 H 0.75404 0.53608 0.83338 0.0
H296 H 0.81963 0.55566 0.75433 0.0
H297 H 0.85067 0.55318 0.7197 0.0
H298 H 0.78811 0.48667 0.67787 0.0
H299 H 0.75738 0.4887 0.71357 0.0
C300 C 0.70703 0.52636 0.73554 0.0
C301 C 0.69041 0.50554 0.71714 0.0
C302 C 0.66966 0.50387 0.69932 0.0
C303 C 0.66491 0.52288 0.69978 0.0
C304 C 0.68164 0.54379 0.71792 0.0
C305 C 0.7027 0.54567 0.73519 0.0
C306 C 0.72877 0.52773 0.75502 0.0
C307 C 0.74644 0.5238 0.73893 0.0
C308 C 0.73207 0.53274 0.78931 0.0
C309 C 0.71387 0.53663 0.80767 0.0
C310 C 0.6888 0.51698 0.81477 0.0
C311 C 0.67135 0.52076 0.83138 0.0
C312 C 0.67846 0.5444 0.84061 0.0
C313 C 0.70364 0.56409 0.83287 0.0
C314 C 0.72128 0.56015 0.81704 0.0
C315 C 0.78948 0.52703 0.81143 0.0
C316 C 0.8052 0.54541 0.83393 0.0
C317 C 0.82382 0.54405 0.85305 0.0
C318 C 0.82722 0.52431 0.85006 0.0
C319 C 0.81115 0.50572 0.828 0.0
C320 C 0.79239 0.50696 0.80914 0.0
C321 C 0.76969 0.52853 0.79095 0.0
C322 C 0.75233 0.53305 0.80684 0.0
C323 C 0.76706 0.52451 0.75622 0.0
C324 C 0.78616 0.52226 0.73677 0.0
C325 C 0.81267 0.54029 0.73817 0.0
C326 C 0.83036 0.539 0.71805 0.0
C327 C 0.82189 0.51977 0.69588 0.0
C328 C 0.79538 0.50156 0.69493 0.0
C329 C 0.77773 0.5028 0.71514 0.0
H330 H 0.27312 0.81239 0.22986 0.0
H331 H 0.305 0.84507 0.19314 0.0
H332 H 0.36379 0.83273 0.2315 0.0
H333 H 0.33178 0.80037 0.26881 0.0
H334 H 0.25835 0.76574 0.22667 0.0
H335 H 0.29112 0.82503 0.31099 0.0
H336 H 0.32084 0.85627 0.34953 0.0
H337 H 0.3441 0.80771 0.38804 0.0
H338 H 0.31435 0.77648 0.34924 0.0
H339 H 0.2456 0.70981 0.35028 0.0
H340 H 0.21233 0.67682 0.38518 0.0
H341 H 0.15402 0.68495 0.33515 0.0
H342 H 0.18762 0.71899 0.30188 0.0
H343 H 0.2619 0.75509 0.34865 0.0
H344 H 0.22218 0.69355 0.26393 0.0
H345 H 0.19211 0.66527 0.2227 0.0
H346 H 0.1809 0.7219 0.1829 0.0
H347 H 0.20958 0.74934 0.22517 0.0
C348 C 0.3 0.80391 0.25222 0.0
C349 C 0.29296 0.81693 0.23068 0.0
C350 C 0.31121 0.8355 0.20942 0.0
C351 C 0.337 0.84141 0.20888 0.0
C352 C 0.34422 0.82889 0.23134 0.0
C353 C 0.32592 0.81035 0.25278 0.0
C354 C 0.27966 0.78202 0.27126 0.0
C355 C 0.25885 0.76353 0.25347 0.0
C356 C 0.2808 0.77882 0.30604 0.0
C357 C 0.30068 0.79851 0.32705 0.0
C358 C 0.30291 0.82124 0.32733 0.0
C359 C 0.31968 0.83896 0.34963 0.0
C360 C 0.33463 0.83433 0.37196 0.0
C361 C 0.33289 0.8118 0.37102 0.0
C362 C 0.3159 0.79397 0.34894 0.0
C363 C 0.21928 0.71692 0.32305 0.0
C364 C 0.22564 0.7045 0.34675 0.0
C365 C 0.20646 0.68538 0.36658 0.0
C366 C 0.18029 0.67804 0.3632 0.0
C367 C 0.17392 0.69022 0.33897 0.0
C368 C 0.19316 0.70952 0.31939 0.0
C369 C 0.24016 0.73862 0.30405 0.0
C370 C 0.26127 0.7571 0.32184 0.0
C371 C 0.239 0.74202 0.26921 0.0
C372 C 0.21813 0.72358 0.24772 0.0
C373 C 0.21264 0.69959 0.24691 0.0
C374 C 0.19572 0.68356 0.22296 0.0
C375 C 0.18422 0.69131 0.19911 0.0
C376 C 0.18904 0.71506 0.20096 0.0
C377 C 0.20566 0.73092 0.22505 0.0
H378 H 0.54406 0.3016 0.83667 0.0
H379 H 0.54537 0.33155 0.87344 0.0
H380 H 0.47112 0.31486 0.83583 0.0
H381 H 0.47002 0.28496 0.79885 0.0
H382 H 0.51067 0.25427 0.83957 0.0
H383 H 0.53601 0.31722 0.75356 0.0
H384 H 0.53563 0.34575 0.71241 0.0
H385 H 0.45975 0.28886 0.6799 0.0
H386 H 0.46037 0.26046 0.72076 0.0
H387 H 0.46428 0.20164 0.71608 0.0
H388 H 0.46536 0.17313 0.67912 0.0
H389 H 0.53459 0.18509 0.72819 0.0
H390 H 0.53447 0.21501 0.76332 0.0
H391 H 0.49485 0.24701 0.71815 0.0
H392 H 0.46526 0.18621 0.8103 0.0
H393 H 0.46505 0.1569 0.85092 0.0
H394 H 0.54595 0.20804 0.87102 0.0
H395 H 0.5459 0.23747 0.83112 0.0
C396 C 0.507 0.29101 0.81482 0.0
C397 C 0.52816 0.30454 0.83606 0.0
C398 C 0.5288 0.32158 0.85727 0.0
C399 C 0.50822 0.32547 0.85793 0.0
C400 C 0.48741 0.31251 0.83581 0.0
C401 C 0.48678 0.29541 0.81456 0.0
C402 C 0.50512 0.2708 0.79555 0.0
C403 C 0.50753 0.25291 0.81288 0.0
C404 C 0.50001 0.26832 0.76099 0.0
C405 C 0.49821 0.28671 0.74022 0.0
C406 C 0.51905 0.31108 0.7381 0.0
C407 C 0.51883 0.32735 0.7145 0.0
C408 C 0.4978 0.31946 0.69257 0.0
C409 C 0.47646 0.29536 0.69594 0.0
C410 C 0.4767 0.27917 0.71945 0.0
C411 C 0.49916 0.21049 0.74288 0.0
C412 C 0.47966 0.19807 0.71903 0.0
C413 C 0.48018 0.1815 0.698 0.0
C414 C 0.50012 0.17667 0.70039 0.0
C415 C 0.51915 0.18854 0.72507 0.0
C416 C 0.51881 0.20538 0.7458 0.0
C417 C 0.50024 0.2304 0.76217 0.0
C418 C 0.49776 0.24827 0.74487 0.0
C419 C 0.50492 0.23274 0.79681 0.0
C420 C 0.50564 0.21388 0.81765 0.0
C421 C 0.48301 0.19091 0.82312 0.0
C422 C 0.48286 0.17431 0.8464 0.0
C423 C 0.50548 0.18031 0.86404 0.0
C424 C 0.52833 0.20296 0.85757 0.0
C425 C 0.52833 0.21973 0.83485 0.0
H426 H 0.09829 0.53427 0.02327 0.0
H427 H 0.02762 0.48087 0.07392 0.0
H428 H 0.12357 0.52962 0.06624 0.0
H429 H 0.05351 0.47611 0.11782 0.0
H430 H 0.11524 0.45609 0.15739 0.0
H431 H 0.08471 0.4602 0.12185 0.0
H432 H 0.134 0.53868 0.12568 0.0
H433 H 0.16474 0.53469 0.16009 0.0
C434 C 0.08807 0.52146 0.04371 0.0
C435 C 0.06087 0.50775 0.045 0.0
C436 C 0.10268 0.519 0.06859 0.0
C437 C 0.09061 0.50259 0.09555 0.0
C438 C 0.06333 0.48887 0.09723 0.0
C439 C 0.04854 0.49165 0.07229 0.0
C440 C 0.11953 0.47422 0.15066 0.0
C441 C 0.14263 0.49506 0.16137 0.0
C442 C 0.10185 0.47654 0.13069 0.0
C443 C 0.10699 0.49976 0.12082 0.0
C444 C 0.12957 0.52053 0.13262 0.0
C445 C 0.14714 0.51822 0.15257 0.0
H446 H 0.61479 0.06925 0.5277 0.0
H447 H 0.55944 0.02431 0.60431 0.0
H448 H 0.64747 0.09093 0.56949 0.0
H449 H 0.59279 0.04569 0.64667 0.0
H450 H 0.6468 0.11581 0.70716 0.0
H451 H 0.61451 0.08552 0.6702 0.0
H452 H 0.67537 0.09048 0.61022 0.0
H453 H 0.70762 0.12203 0.6456 0.0
C454 C 0.60972 0.06364 0.55353 0.0
C455 C 0.58442 0.04522 0.56269 0.0
C456 C 0.62863 0.07597 0.5776 0.0
C457 C 0.62283 0.07016 0.61158 0.0
C458 C 0.59782 0.05085 0.62074 0.0
C459 C 0.57877 0.03846 0.59649 0.0
C460 C 0.65333 0.11051 0.68603 0.0
C461 C 0.67991 0.12184 0.67907 0.0
C462 C 0.63475 0.09278 0.66512 0.0
C463 C 0.64229 0.08574 0.63692 0.0
C464 C 0.66885 0.09582 0.63131 0.0
C465 C 0.6874 0.11375 0.65195 0.0
H466 H 0.50607 0.5558 0.14688 0.0
H467 H 0.5884 0.59127 0.13385 0.0
H468 H 0.51198 0.59287 0.16982 0.0
H469 H 0.59467 0.62918 0.15415 0.0
H470 H 0.602 0.68975 0.21489 0.0
H471 H 0.59574 0.65168 0.19692 0.0
H472 H 0.52033 0.63084 0.1583 0.0
H473 H 0.52527 0.66745 0.17995 0.0
C474 C 0.52546 0.57174 0.1488 0.0
C475 C 0.54679 0.57075 0.13887 0.0
C476 C 0.52894 0.59317 0.16158 0.0
C477 C 0.55386 0.61447 0.16374 0.0
C478 C 0.57521 0.61326 0.1537 0.0
C479 C 0.57171 0.59156 0.14185 0.0
C480 C 0.58379 0.67689 0.20326 0.0
C481 C 0.56415 0.68201 0.19923 0.0
C482 C 0.58038 0.65504 0.19223 0.0
C483 C 0.55748 0.6378 0.17594 0.0
C484 C 0.53806 0.64317 0.1713 0.0
C485 C 0.54119 0.66469 0.18314 0.0
H486 H 0.91941 0.54167 0.52672 0.0
H487 H 0.92252 0.48718 0.58795 0.0
H488 H 0.89139 0.54331 0.56756 0.0
H489 H 0.89564 0.48975 0.62944 0.0
H490 H 0.82322 0.47995 0.67776 0.0
H491 H 0.85178 0.47856 0.6375 0.0
H492 H 0.89174 0.55688 0.62272 0.0
H493 H 0.86234 0.5581 0.66174 0.0
C494 C 0.91419 0.53006 0.54884 0.0
C495 C 0.92328 0.51427 0.55387 0.0
C496 C 0.89837 0.53124 0.57251 0.0
C497 C 0.89127 0.51669 0.60186 0.0
C498 C 0.90047 0.50101 0.60697 0.0
C499 C 0.91621 0.49978 0.58328 0.0
C500 C 0.83798 0.49686 0.66576 0.0
C501 C 0.8404 0.51912 0.67293 0.0
C502 C 0.85457 0.49611 0.64294 0.0
C503 C 0.87406 0.51761 0.62679 0.0
C504 C 0.87674 0.53993 0.63435 0.0
C505 C 0.8601 0.54067 0.65711 0.0
H506 H 0.47333 0.94208 0.08869 0.0
H507 H 0.41499 0.95696 0.05683 0.0
H508 H 0.4419 0.90912 0.12539 0.0
H509 H 0.38364 0.92411 0.09383 0.0
H510 H 0.32823 0.84936 0.14389 0.0
H511 H 0.3588 0.87974 0.10381 0.0
H512 H 0.41947 0.90568 0.17737 0.0
H513 H 0.38883 0.87552 0.21772 0.0
C514 C 0.45373 0.93816 0.08917 0.0
C515 C 0.44676 0.95229 0.06978 0.0
C516 C 0.43575 0.91938 0.1105 0.0
C517 C 0.41029 0.91409 0.11289 0.0
C518 C 0.40303 0.92756 0.09251 0.0
C519 C 0.42105 0.94646 0.07129 0.0
C520 C 0.34801 0.8617 0.15175 0.0
C521 C 0.35592 0.85998 0.18427 0.0
C522 C 0.36558 0.8791 0.12864 0.0
C523 C 0.39163 0.89518 0.13728 0.0
C524 C 0.39965 0.89335 0.16967 0.0
C525 C 0.38203 0.87602 0.19286 0.0
H526 H 0.46128 0.38086 0.52175 0.0
H527 H 0.53623 0.44023 0.5528 0.0
H528 H 0.46244 0.35456 0.56533 0.0
H529 H 0.53743 0.41385 0.59648 0.0
H530 H 0.51475 0.36813 0.6946 0.0
H531 H 0.51578 0.39452 0.64903 0.0
H532 H 0.48423 0.33392 0.58262 0.0
H533 H 0.48309 0.30763 0.62806 0.0
C534 C 0.47824 0.3882 0.53743 0.0
C535 C 0.49863 0.41272 0.53376 0.0
C536 C 0.47888 0.37311 0.56253 0.0
C537 C 0.49996 0.38213 0.58456 0.0
C538 C 0.52068 0.40645 0.58035 0.0
C539 C 0.52003 0.42155 0.55523 0.0
C540 C 0.50819 0.36052 0.67021 0.0
C541 C 0.49862 0.33573 0.66504 0.0
C542 C 0.50884 0.37563 0.64407 0.0
C543 C 0.50001 0.36631 0.61217 0.0
C544 C 0.49074 0.34159 0.60699 0.0
C545 C 0.49004 0.3265 0.63308 0.0
H546 H 0.56977 0.994 0.38204 0.0
H547 H 0.50872 0.9399 0.44632 0.0
H548 H 0.57406 0.96207 0.35811 0.0
H549 H 0.51324 0.90823 0.42274 0.0
H550 H 0.55463 0.8933 0.30076 0.0
H551 H 0.55044 0.92565 0.32343 0.0
H552 H 0.54448 0.89536 0.42251 0.0
H553 H 0.54803 0.8627 0.39977 0.0
C554 C 0.55713 0.97534 0.39093 0.0
C555 C 0.53905 0.96968 0.4164 0.0
C556 C 0.55961 0.95702 0.37721 0.0
C557 C 0.54414 0.9326 0.3887 0.0
C558 C 0.52584 0.92691 0.41378 0.0
C559 C 0.52328 0.94515 0.42736 0.0
C560 C 0.55223 0.89345 0.32737 0.0
C561 C 0.55153 0.87532 0.34844 0.0
C562 C 0.55011 0.91215 0.34039 0.0
C563 C 0.54705 0.91308 0.37478 0.0
C564 C 0.54651 0.89503 0.39586 0.0
C565 C 0.5488 0.87644 0.38287 0.0
H566 H 0.54487 0.52686 0.94743 0.0
H567 H 0.608 0.54654 0.0156 0.0
H568 H 0.57467 0.53817 0.90044 0.0
H569 H 0.63712 0.55667 0.96961 0.0
H570 H 0.6901 0.57832 0.88838 0.0
H571 H 0.66056 0.58117 0.92442 0.0
H572 H 0.59569 0.52048 0.87537 0.0
H573 H 0.62517 0.5193 0.83679 0.0
C574 C 0.56516 0.53406 0.95235 0.0
C575 C 0.57406 0.53554 0.98512 0.0
C576 C 0.58219 0.5403 0.9255 0.0
C577 C 0.60834 0.54815 0.93109 0.0
C578 C 0.61733 0.55109 0.96404 0.0
C579 C 0.60047 0.54498 0.9906 0.0
C580 C 0.66956 0.56611 0.88428 0.0
C581 C 0.66021 0.54817 0.85993 0.0
C582 C 0.65253 0.56752 0.90544 0.0
C583 C 0.6257 0.5506 0.90356 0.0
C584 C 0.61619 0.53383 0.87771 0.0
C585 C 0.63323 0.5328 0.85596 0.0
H586 H 0.05696 0.5932 0.50924 0.0
H587 H 0.06545 0.53931 0.46049 0.0
H588 H 0.09392 0.62562 0.47827 0.0
H589 H 0.10163 0.57159 0.42831 0.0
H590 H 0.17706 0.63624 0.38814 0.0
H591 H 0.14458 0.60491 0.42549 0.0
H592 H 0.10378 0.64278 0.42446 0.0
H593 H 0.13714 0.67489 0.38917 0.0
C594 C 0.06685 0.58826 0.49208 0.0
C595 C 0.0581 0.5636 0.48731 0.0
C596 C 0.08792 0.60688 0.47394 0.0
C597 C 0.10066 0.60138 0.45014 0.0
C598 C 0.09258 0.57671 0.44649 0.0
C599 C 0.0717 0.55809 0.46497 0.0
C600 C 0.1614 0.63813 0.39626 0.0
C601 C 0.15991 0.65828 0.38542 0.0
C602 C 0.14249 0.6199 0.41744 0.0
C603 C 0.12138 0.62114 0.42827 0.0
C604 C 0.11988 0.64125 0.4173 0.0
C605 C 0.13888 0.65956 0.3964 0.0
H606 H 0.46656 0.06909 0.02032 0.0
H607 H 0.54943 0.10708 0.01018 0.0
H608 H 0.46524 0.09631 0.97808 0.0
H609 H 0.54867 0.13534 0.96933 0.0
H610 H 0.53745 0.16303 0.87014 0.0
H611 H 0.53783 0.13653 0.91422 0.0
H612 H 0.47397 0.13489 0.96243 0.0
H613 H 0.47288 0.1603 0.91712 0.0
C614 C 0.48456 0.08378 0.00967 0.0
C615 C 0.5081 0.08607 0.01838 0.0
C616 C 0.48389 0.09943 0.98542 0.0
C617 C 0.50683 0.11798 0.96979 0.0
C618 C 0.5305 0.1209 0.97995 0.0
C619 C 0.53106 0.10496 1.00366 0.0
C620 C 0.52345 0.15683 0.89014 0.0
C621 C 0.50509 0.16357 0.89025 0.0
C622 C 0.52378 0.14184 0.91565 0.0
C623 C 0.50609 0.13366 0.94231 0.0
C624 C 0.48766 0.14045 0.94221 0.0
C625 C 0.48704 0.15507 0.91631 0.0
H626 H 0.42653 0.46568 0.4506 0.0
H627 H 0.44611 0.53694 0.48142 0.0
H628 H 0.39165 0.46235 0.41647 0.0
H629 H 0.41049 0.53324 0.44816 0.0
H630 H 0.36685 0.53227 0.35406 0.0
H631 H 0.39968 0.53463 0.39176 0.0
H632 H 0.35046 0.45729 0.4144 0.0
H633 H 0.31794 0.45494 0.37594 0.0
C634 C 0.42308 0.48047 0.45066 0.0
C635 C 0.43928 0.50164 0.46873 0.0
C636 C 0.40292 0.47851 0.43108 0.0
C637 C 0.39822 0.4976 0.42918 0.0
C638 C 0.4138 0.51837 0.44835 0.0
C639 C 0.43411 0.5204 0.46777 0.0
C640 C 0.363 0.5158 0.36722 0.0
C641 C 0.33978 0.49341 0.3619 0.0
C642 C 0.3818 0.51715 0.38904 0.0
C643 C 0.37782 0.49618 0.40642 0.0
C644 C 0.35448 0.47379 0.40116 0.0
C645 C 0.33578 0.47241 0.37909 0.0
H646 H 1.00419 0.44753 0.87112 0.0
H647 H 0.94594 0.45947 0.90834 0.0
H648 H 0.97016 0.40825 0.84943 0.0
H649 H 0.91209 0.42057 0.88665 0.0
H650 H 0.85945 0.33794 0.88166 0.0
H651 H 0.8942 0.37775 0.90014 0.0
H652 H 0.93537 0.38913 0.80821 0.0
H653 H 0.90059 0.34921 0.78979 0.0
C654 C 0.98415 0.44192 0.87422 0.0
C655 C 0.97772 0.45639 0.89181 0.0
C656 C 0.96466 0.41944 0.86186 0.0
C657 C 0.93839 0.41112 0.86676 0.0
C658 C 0.93209 0.42612 0.88321 0.0
C659 C 0.9515 0.44845 0.8956 0.0
C660 C 0.87584 0.34901 0.86533 0.0
C661 C 0.87727 0.34043 0.83431 0.0
C662 C 0.89575 0.37184 0.87587 0.0
C663 C 0.91752 0.38668 0.85557 0.0
C664 C 0.91903 0.37803 0.8246 0.0
C665 C 0.89911 0.35516 0.81407 0.0
H666 H 0.93605 0.51142 0.98528 0.0
H667 H 0.97812 0.55615 0.89922 0.0
H668 H 0.89614 0.5073 0.96258 0.0
H669 H 0.93886 0.55172 0.87693 0.0
H670 H 0.86092 0.51278 0.82624 0.0
H671 H 0.89715 0.51421 0.85497 0.0
H672 H 0.87788 0.53614 0.94459 0.0
H673 H 0.84126 0.53462 0.91575 0.0
C674 C 0.93689 0.5205 0.96183 0.0
C675 C 0.96032 0.53395 0.94404 0.0
C676 C 0.91409 0.51814 0.94885 0.0
C677 C 0.91436 0.52889 0.91772 0.0
C678 C 0.93792 0.54286 0.90065 0.0
C679 C 0.96051 0.54545 0.91364 0.0
C680 C 0.86409 0.51754 0.8522 0.0
C681 C 0.84823 0.52368 0.86862 0.0
C682 C 0.88494 0.51849 0.86862 0.0
C683 C 0.89041 0.52539 0.90199 0.0
C684 C 0.87405 0.53066 0.91892 0.0
C685 C 0.85327 0.53001 0.90231 0.0
H686 H 0.41852 0.9704 0.47022 0.0
H687 H 0.45802 0.93508 0.50612 0.0
H688 H 0.38583 0.93295 0.44451 0.0
H689 H 0.42459 0.89702 0.48111 0.0
H690 H 0.38491 0.85025 0.38759 0.0
H691 H 0.41352 0.8828 0.42509 0.0
H692 H 0.35066 0.89205 0.4502 0.0
H693 H 0.3224 0.86 0.41203 0.0
C694 C 0.41984 0.9544 0.47339 0.0
C695 C 0.441 0.9558 0.48998 0.0
C696 C 0.40095 0.93279 0.45874 0.0
C697 C 0.40264 0.91193 0.46039 0.0
C698 C 0.42293 0.91286 0.47886 0.0
C699 C 0.44192 0.93458 0.49357 0.0
C700 C 0.37719 0.85909 0.40144 0.0
C701 C 0.35155 0.85285 0.39654 0.0
C702 C 0.39352 0.87765 0.42312 0.0
C703 C 0.38448 0.89021 0.44059 0.0
C704 C 0.35845 0.88314 0.43668 0.0
C705 C 0.34224 0.86479 0.41479 0.0
H706 H 0.52264 0.44889 0.96153 0.0
H707 H 0.49531 0.39141 0.03694 0.0
H708 H 0.52155 0.42144 0.92058 0.0
H709 H 0.49427 0.36396 0.99593 0.0
H710 H 0.52317 0.33057 0.92321 0.0
H711 H 0.52346 0.35799 0.96355 0.0
H712 H 0.49214 0.38509 0.88953 0.0
H713 H 0.49271 0.35817 0.8487 0.0
C714 C 0.51612 0.43034 0.96939 0.0
C715 C 0.50906 0.42246 1.00272 0.0
C716 C 0.51549 0.41455 0.94581 0.0
C717 C 0.50785 0.39044 0.95487 0.0
C718 C 0.50066 0.38251 0.98813 0.0
C719 C 0.50126 0.39829 0.01172 0.0
C720 C 0.51661 0.34256 0.91536 0.0
C721 C 0.50808 0.34223 0.88255 0.0
C722 C 0.51645 0.35808 0.93868 0.0
C723 C 0.50777 0.37376 0.9299 0.0
C724 C 0.49919 0.37344 0.89711 0.0
C725 C 0.49928 0.35782 0.87376 0.0
H726 H 0.03086 0.50348 0.37226 0.0
H727 H 1.00364 0.43157 0.4136 0.0
H728 H 0.06634 0.50364 0.34473 0.0
H729 H 0.03984 0.43201 0.38822 0.0
H730 H 0.10029 0.43297 0.32498 0.0
H731 H 0.06123 0.43078 0.34229 0.0
H732 H 0.10557 0.50851 0.35878 0.0
H733 H 0.14399 0.51108 0.3382 0.0
C734 C 0.03242 0.4876 0.37499 0.0
C735 C 0.01455 0.46746 0.39467 0.0
C736 C 0.05291 0.48775 0.35972 0.0
C737 C 0.05638 0.46801 0.36462 0.0
C738 C 0.03775 0.44743 0.38335 0.0
C739 C 0.01694 0.4471 0.39795 0.0
C740 C 0.10168 0.44971 0.33164 0.0
C741 C 0.12549 0.47222 0.33004 0.0
C742 C 0.07922 0.44838 0.34211 0.0
C743 C 0.08002 0.46946 0.35197 0.0
C744 C 0.1039 0.49191 0.35075 0.0
C745 C 0.12622 0.49331 0.33961 0.0
H746 H 0.55154 0.05534 0.95541 0.0
H747 H 0.59492 0.02 0.96073 0.0
H748 H 0.58325 0.08596 0.91635 0.0
H749 H 0.62651 0.05057 0.92141 0.0
H750 H 0.66759 0.10094 0.82955 0.0
H751 H 0.63238 0.06761 0.86207 0.0
H752 H 0.63018 0.11987 0.92373 0.0
H753 H 0.66597 0.15321 0.8923 0.0
C754 C 0.56753 0.05378 0.94778 0.0
C755 C 0.57073 0.03524 0.96143 0.0
C756 C 0.58582 0.07146 0.92557 0.0
C757 C 0.60754 0.07085 0.91607 0.0
C758 C 0.60995 0.05151 0.92816 0.0
C759 C 0.59184 0.034 0.95074 0.0
C760 C 0.65987 0.10542 0.85025 0.0
C761 C 0.6699 0.12996 0.85821 0.0
C762 C 0.63954 0.08625 0.86875 0.0
C763 C 0.62841 0.09109 0.89537 0.0
C764 C 0.63806 0.11553 0.90302 0.0
C765 C 0.6586 0.13469 0.88485 0.0
H766 H 0.58073 0.58941 0.42087 0.0
H767 H 0.50447 0.54548 0.37854 0.0
H768 H 0.58338 0.62643 0.3992 0.0
H769 H 0.50711 0.58253 0.35672 0.0
H770 H 0.53488 0.65595 0.29887 0.0
H771 H 0.53404 0.61895 0.31556 0.0
H772 H 0.55754 0.64603 0.41472 0.0
H773 H 0.55741 0.68264 0.39865 0.0
C774 C 0.56481 0.58765 0.40625 0.0
C775 C 0.54239 0.5646 0.4013 0.0
C776 C 0.5662 0.60882 0.3942 0.0
C777 C 0.54536 0.6073 0.37655 0.0
C778 C 0.52348 0.5842 0.37017 0.0
C779 C 0.52193 0.56305 0.38266 0.0
C780 C 0.5394 0.65388 0.32443 0.0
C781 C 0.54604 0.67229 0.34748 0.0
C782 C 0.53913 0.63276 0.33384 0.0
C783 C 0.54589 0.62975 0.36632 0.0
C784 C 0.55263 0.6481 0.38935 0.0
C785 C 0.55256 0.66906 0.38011 0.0
H786 H 0.48018 0.08904 0.52884 0.0
H787 H 0.53708 0.0849 0.58869 0.0
H788 H 0.47773 0.11466 0.57035 0.0
H789 H 0.53468 0.11052 0.63018 0.0
H790 H 0.54359 0.18068 0.6737 0.0
H791 H 0.54593 0.15449 0.63355 0.0
H792 H 0.46257 0.10967 0.63075 0.0
H793 H 0.46001 0.13515 0.67202 0.0
C794 C 0.49227 0.09373 0.55076 0.0
C795 C 0.50881 0.08494 0.5555 0.0
C796 C 0.49071 0.10821 0.57465 0.0
C797 C 0.50597 0.11456 0.60357 0.0
C798 C 0.52276 0.10603 0.6081 0.0
C799 C 0.52401 0.09123 0.58447 0.0
C800 C 0.52568 0.165 0.66517 0.0
C801 C 0.50158 0.16017 0.67639 0.0
C802 C 0.52708 0.15006 0.64193 0.0
C803 C 0.50445 0.13009 0.62887 0.0
C804 C 0.48036 0.12514 0.64002 0.0
C805 C 0.47893 0.13985 0.66364 0.0
H806 H 0.43364 0.45554 0.13014 0.0
H807 H 0.44339 0.50666 0.05116 0.0
H808 H 0.39921 0.45866 0.15394 0.0
H809 H 0.40849 0.50964 0.07525 0.0
H810 H 0.32633 0.48666 0.11799 0.0
H811 H 0.3596 0.48367 0.08914 0.0
H812 H 0.39974 0.49325 0.1822 0.0
H813 H 0.36651 0.496 0.21099 0.0
C814 C 0.42827 0.46727 0.1176 0.0
C815 C 0.44147 0.48104 0.08889 0.0
C816 C 0.40861 0.46915 0.13141 0.0
C817 C 0.4015 0.48471 0.11679 0.0
C818 C 0.41366 0.49754 0.08706 0.0
C819 C 0.43358 0.49579 0.07327 0.0
C820 C 0.34232 0.48818 0.1322 0.0
C821 C 0.34379 0.49147 0.16677 0.0
C822 C 0.36141 0.48663 0.11566 0.0
C823 C 0.3821 0.48801 0.13349 0.0
C824 C 0.38382 0.49182 0.1679 0.0
C825 C 0.36494 0.49363 0.18433 0.0
H826 H 0.98131 0.46045 0.63219 0.0
H827 H 0.948 0.42276 0.54076 0.0
H828 H 0.9535 0.42249 0.66384 0.0
H829 H 0.91957 0.38536 0.57212 0.0
H830 H 0.88131 0.31588 0.63308 0.0
H831 H 0.91486 0.35285 0.6047 0.0
H832 H 0.91021 0.39638 0.68037 0.0
H833 H 0.87814 0.35938 0.71004 0.0
C834 C 0.96816 0.44407 0.61882 0.0
C835 C 0.96695 0.44474 0.58391 0.0
C836 C 0.95199 0.42229 0.63699 0.0
C837 C 0.93401 0.40068 0.62071 0.0
C838 C 0.93334 0.40135 0.58572 0.0
C839 C 0.94965 0.42298 0.56762 0.0
C840 C 0.88777 0.33328 0.64408 0.0
C841 C 0.87668 0.33446 0.67383 0.0
C842 C 0.90684 0.35462 0.62747 0.0
C843 C 0.91523 0.37783 0.63988 0.0
C844 C 0.90456 0.37897 0.67004 0.0
C845 C 0.88571 0.35763 0.68683 0.0
H846 H 0.59675 0.008 0.15695 0.0
H847 H 0.55388 0.95767 0.07877 0.0
H848 H 0.60657 0.97873 0.18156 0.0
H849 H 0.56249 0.92824 0.10392 0.0
H850 H 0.59579 0.88512 0.14005 0.0
H851 H 0.59527 0.91956 0.11449 0.0
H852 H 0.58381 0.93968 0.21124 0.0
H853 H 0.58502 0.90558 0.23674 0.0
C854 C 0.58955 0.99079 0.14494 0.0
C855 C 0.57427 0.98508 0.11613 0.0
C856 C 0.59496 0.97394 0.15918 0.0
C857 C 0.58528 0.95109 0.14477 0.0
C858 C 0.57057 0.94574 0.11551 0.0
C859 C 0.56525 0.96252 0.10133 0.0
C860 C 0.59342 0.89708 0.15581 0.0
C861 C 0.5903 0.89263 0.1903 0.0
C862 C 0.59304 0.91676 0.14122 0.0
C863 C 0.5892 0.93225 0.16076 0.0
C864 C 0.58712 0.92833 0.19547 0.0
C865 C 0.58774 0.90875 0.21009 0.0
H866 H 0.56735 0.5323 0.5489 0.0
H867 H 0.51327 0.48495 0.62531 0.0
H868 H 0.60328 0.53897 0.58408 0.0
H869 H 0.54957 0.4921 0.66077 0.0
H870 H 0.62784 0.53082 0.72194 0.0
H871 H 0.5914 0.52765 0.69041 0.0
H872 H 0.61622 0.50806 0.60342 0.0
H873 H 0.65229 0.51088 0.63493 0.0
C874 C 0.56307 0.52371 0.57347 0.0
C875 C 0.5373 0.50794 0.58415 0.0
C876 C 0.58372 0.52743 0.59351 0.0
C877 C 0.5792 0.51583 0.62496 0.0
C878 C 0.55359 0.50128 0.63661 0.0
C879 C 0.53283 0.49722 0.6163 0.0
C880 C 0.62547 0.52589 0.69606 0.0
C881 C 0.64286 0.52108 0.68085 0.0
C882 C 0.6046 0.52397 0.67812 0.0
C883 C 0.60109 0.51775 0.64445 0.0
C884 C 0.6186 0.51312 0.62925 0.0
C885 C 0.63912 0.51456 0.64732 0.0
H886 H 0.09531 0.57484 0.05987 0.0
H887 H 0.10162 0.63837 0.01193 0.0
H888 H 0.12153 0.5996 0.10624 0.0
H889 H 0.12788 0.66334 0.05861 0.0
H890 H 0.14118 0.68718 0.16951 0.0
H891 H 0.11783 0.66369 0.12099 0.0
H892 H 0.16775 0.63539 0.11718 0.0
H893 H 0.19191 0.6596 0.16485 0.0
C894 C 0.10246 0.59418 0.05928 0.0
C895 C 0.09638 0.60475 0.03253 0.0
C896 C 0.11756 0.60834 0.08567 0.0
C897 C 0.12657 0.63332 0.08608 0.0
C898 C 0.12095 0.64405 0.05899 0.0
C899 C 0.10618 0.6299 0.03224 0.0
C900 C 0.14744 0.6762 0.15819 0.0
C901 C 0.16856 0.67543 0.17119 0.0
C902 C 0.13402 0.66274 0.13038 0.0
C903 C 0.14113 0.6479 0.11522 0.0
C904 C 0.16181 0.64663 0.12852 0.0
C905 C 0.17548 0.66035 0.15604 0.0
loop_
_geom_bond_atom_site_label_1
_geom_bond_atom_site_label_2
_geom_bond_distance
_geom_bond_site_symmetry_2
_ccdc_geom_bond_type
Cu0 N1 1.999 1_454 S
Cu0 O6 1.974 1_454 S
Cu0 N11 1.985 . S
Cu0 O20 1.959 . S
N1 Cu0 1.999 1_656 S
N1 C3 1.263 . S
N1 C5 1.389 1_556 S
N2 C3 1.358 . S
N2 C4 1.400 . S
C3 N1 1.263 . S
C3 N2 1.358 . S
C3 H9 0.930 . S
C4 N2 1.400 . S
C4 C5 1.351 1_556 S
C4 H21 0.930 . S
C5 N1 1.389 1_554 S
C5 C4 1.351 1_554 S
C5 H10 0.930 . S
O6 Cu0 1.974 1_656 S
O6 C16 1.282 . S
C7 O8 1.261 1_554 S
C7 O20 1.251 . S
O8 C7 1.261 1_556 S
H9 C3 0.930 . S
H10 C5 0.930 . S
N11 Cu0 1.985 . S
N11 C13 1.335 . S
N11 C14 1.390 . S
N12 C13 1.345 . S
N12 C15 1.336 . S
C13 N11 1.335 . S
C13 N12 1.345 . S
C13 H18 0.930 . S
C14 N11 1.390 . S
C14 C15 1.346 . S
C14 H19 0.930 1_554 S
C15 N12 1.336 . S
C15 C14 1.346 . S
C15 H22 0.929 . S
C16 O6 1.282 . S
C16 O17 1.216 1_655 S
O17 C16 1.216 1_455 S
H18 C13 0.930 . S
H19 C14 0.930 1_556 S
O20 Cu0 1.959 . S
O20 C7 1.251 . S
H21 C4 0.930 . S
H22 C15 0.929 . S
Cu23 N24 1.999 . S
Cu23 O29 1.974 . S
Cu23 N34 1.985 1_565 S
Cu23 O43 1.959 1_565 S
N24 Cu23 1.999 . S
N24 C26 1.263 . S
N24 C28 1.389 . S
N25 C26 1.358 . S
N25 C27 1.400 . S
C26 N24 1.263 . S
C26 N25 1.358 . S
C26 H32 0.930 . S
C27 N25 1.400 . S
C27 C28 1.351 . S
C27 H44 0.930 . S
C28 N24 1.389 . S
C28 C27 1.351 . S
C28 H33 0.930 . S
O29 Cu23 1.974 . S
O29 C39 1.282 . S
C30 O31 1.261 . S
C30 O43 1.251 . S
O31 C30 1.261 . S
H32 C26 0.930 . S
H33 C28 0.930 . S
N34 Cu23 1.985 1_545 S
N34 C36 1.335 . S
N34 C37 1.390 . S
N35 C36 1.345 . S
N35 C38 1.336 . S
C36 N34 1.335 . S
C36 N35 1.345 . S
C36 H41 0.930 . S
C37 N34 1.390 . S
C37 C38 1.346 . S
C37 H42 0.930 . S
C38 N35 1.336 . S
C38 C37 1.346 . S
C38 H45 0.929 . S
C39 O29 1.282 . S
C39 O40 1.216 . S
O40 C39 1.216 . S
H41 C36 0.930 . S
H42 C37 0.930 . S
O43 Cu23 1.959 1_545 S
O43 C30 1.251 . S
H44 C27 0.930 . S
H45 C38 0.929 . S
Cu46 N47 1.999 1_554 S
Cu46 O52 1.974 1_554 S
Cu46 N57 1.985 . S
Cu46 O66 1.959 . S
N47 Cu46 1.999 1_556 S
N47 C49 1.263 . S
N47 C51 1.389 . S
N48 C49 1.358 . S
N48 C50 1.400 . S
C49 N47 1.263 . S
C49 N48 1.358 . S
C49 H55 0.930 . S
C50 N48 1.400 . S
C50 C51 1.351 . S
C50 H67 0.930 . S
C51 N47 1.389 . S
C51 C50 1.351 . S
C51 H56 0.930 . S
O52 Cu46 1.974 1_556 S
O52 C62 1.282 . S
C53 O54 1.261 . S
C53 O66 1.251 . S
O54 C53 1.261 . S
H55 C49 0.930 . S
H56 C51 0.930 . S
N57 Cu46 1.985 . S
N57 C59 1.335 . S
N57 C60 1.390 . S
N58 C59 1.345 . S
N58 C61 1.336 . S
C59 N57 1.335 . S
C59 N58 1.345 . S
C59 H64 0.930 . S
C60 N57 1.390 . S
C60 C61 1.346 . S
C60 H65 0.930 . S
C61 N58 1.336 . S
C61 C60 1.346 . S
C61 H68 0.929 . S
C62 O52 1.282 . S
C62 O63 1.216 1_556 S
O63 C62 1.216 1_554 S
H64 C59 0.930 . S
H65 C60 0.930 . S
O66 Cu46 1.959 . S
O66 C53 1.251 . S
H67 C50 0.930 . S
H68 C61 0.929 . S
Cu69 N70 1.999 1_655 S
Cu69 O75 1.974 1_655 S
Cu69 N80 1.985 . S
Cu69 O89 1.959 . S
N70 Cu69 1.999 1_455 S
N70 C72 1.263 . S
N70 C74 1.389 1_455 S
N71 C72 1.358 . S
N71 C73 1.400 . S
C72 N70 1.263 . S
C72 N71 1.358 . S
C72 H78 0.930 . S
C73 N71 1.400 . S
C73 C74 1.351 1_455 S
C73 H90 0.930 . S
C74 N70 1.389 1_655 S
C74 C73 1.351 1_655 S
C74 H79 0.930 . S
O75 Cu69 1.974 1_455 S
O75 C85 1.282 . S
C76 O77 1.261 . S
C76 O89 1.251 . S
O77 C76 1.261 . S
H78 C72 0.930 . S
H79 C74 0.930 . S
N80 Cu69 1.985 . S
N80 C82 1.335 . S
N80 C83 1.390 . S
N81 C82 1.345 . S
N81 C84 1.336 . S
C82 N80 1.335 . S
C82 N81 1.345 . S
C82 H87 0.930 . S
C83 N80 1.390 . S
C83 C84 1.346 . S
C83 H88 0.930 1_655 S
C84 N81 1.336 . S
C84 C83 1.346 . S
C84 H91 0.929 . S
C85 O75 1.282 . S
C85 O86 1.216 . S
O86 C85 1.216 . S
H87 C82 0.930 . S
H88 C83 0.930 1_455 S
O89 Cu69 1.959 . S
O89 C76 1.251 . S
H90 C73 0.930 . S
H91 C84 0.929 . S
Cu92 N93 1.999 . S
Cu92 O98 1.976 . S
Cu92 N103 1.985 1_545 S
Cu92 O112 1.959 1_545 S
N93 Cu92 1.999 . S
N93 C95 1.263 1_554 S
N93 C97 1.389 . S
N94 C95 1.358 . S
N94 C96 1.400 1_556 S
C95 N93 1.263 1_556 S
C95 N94 1.358 . S
C95 H101 0.930 . S
C96 N94 1.400 1_554 S
C96 C97 1.351 . S
C96 H113 0.930 . S
C97 N93 1.389 . S
C97 C96 1.351 . S
C97 H102 0.930 . S
O98 Cu92 1.976 . S
O98 C108 1.278 1_554 S
C99 O100 1.261 . S
C99 O112 1.251 . S
O100 C99 1.261 . S
H101 C95 0.930 . S
H102 C97 0.930 . S
N103 Cu92 1.985 1_565 S
N103 C105 1.335 . S
N103 C106 1.390 . S
N104 C105 1.345 . S
N104 C107 1.336 . S
C105 N103 1.335 . S
C105 N104 1.345 . S
C105 H110 0.930 . S
C106 N103 1.390 . S
C106 C107 1.346 . S
C106 H111 0.934 . S
C107 N104 1.336 . S
C107 C106 1.346 . S
C107 H114 0.929 . S
C108 O98 1.278 1_556 S
C108 O109 1.216 . S
O109 C108 1.216 . S
H110 C105 0.930 . S
H111 C106 0.934 . S
O112 Cu92 1.959 1_565 S
O112 C99 1.251 . S
H113 C96 0.930 . S
H114 C107 0.929 . S
Cu115 N116 1.999 . S
Cu115 O121 1.974 . S
Cu115 N126 1.985 . S
Cu115 O135 1.959 . S
N116 Cu115 1.999 . S
N116 C118 1.263 . S
N116 C120 1.389 . S
N117 C118 1.358 . S
N117 C119 1.400 . S
C118 N116 1.263 . S
C118 N117 1.358 . S
C118 H124 0.930 . S
C119 N117 1.400 . S
C119 C120 1.351 . S
C119 H136 0.930 . S
C120 N116 1.389 . S
C120 C119 1.351 . S
C120 H125 0.930 . S
O121 Cu115 1.974 . S
O121 C131 1.282 . S
C122 O123 1.261 . S
C122 O135 1.251 . S
O123 C122 1.261 . S
H124 C118 0.930 . S
H125 C120 0.930 . S
N126 Cu115 1.985 . S
N126 C128 1.335 . S
N126 C129 1.390 . S
N127 C128 1.345 . S
N127 C130 1.336 . S
C128 N126 1.335 . S
C128 N127 1.345 . S
C128 H133 0.930 . S
C129 N126 1.390 . S
C129 C130 1.346 . S
C129 H134 0.930 . S
C130 N127 1.336 . S
C130 C129 1.346 . S
C130 H137 0.929 . S
C131 O121 1.282 . S
C131 O132 1.216 . S
O132 C131 1.216 . S
H133 C128 0.930 . S
H134 C129 0.930 . S
O135 Cu115 1.959 . S
O135 C122 1.251 . S
H136 C119 0.930 . S
H137 C130 0.929 . S
H138 C157 0.949 . S
H139 C158 0.950 . S
H140 C160 0.950 . S
H141 C161 0.950 . S
H142 C163 0.950 . S
H143 C166 0.950 . S
H144 C167 0.950 . S
H145 C169 0.951 . S
H146 C170 0.949 . S
H147 C172 0.949 . S
H148 C173 0.950 . S
H149 C175 0.950 . S
H150 C176 0.950 . S
H151 C178 0.950 . S
H152 C181 0.950 . S
H153 C182 0.950 . S
H154 C184 0.951 . S
H155 C185 0.949 . S
C156 C157 1.376 . S
C156 C161 1.386 . S
C156 C162 1.483 . S
C157 H138 0.949 . S
C157 C156 1.376 . S
C157 C158 1.397 . S
C158 H139 0.950 . S
C158 C157 1.397 . S
C158 C159 1.391 . S
C159 C158 1.391 . S
C159 C160 1.405 . S
C160 H140 0.950 . S
C160 C159 1.405 . S
C160 C161 1.367 . S
C161 H141 0.950 . S
C161 C156 1.386 . S
C161 C160 1.367 . S
C162 C156 1.483 . S
C162 C163 1.382 . S
C162 C164 1.403 . S
C163 H142 0.950 . S
C163 C162 1.382 . S
C163 C179 1.411 . S
C164 C162 1.403 . S
C164 C165 1.489 . S
C164 C178 1.411 . S
C165 C164 1.489 . S
C165 C166 1.383 . S
C165 C170 1.382 . S
C166 H143 0.950 . S
C166 C165 1.383 . S
C166 C167 1.395 . S
C167 H144 0.950 . S
C167 C166 1.395 . S
C167 C168 1.288 . S
C168 C167 1.288 . S
C168 C169 1.392 . S
C169 H145 0.951 . S
C169 C168 1.392 . S
C169 C170 1.392 . S
C170 H146 0.949 . S
C170 C165 1.382 . S
C170 C169 1.392 . S
C171 C172 1.376 . S
C171 C176 1.386 . S
C171 C177 1.483 . S
C172 H147 0.949 . S
C172 C171 1.376 . S
C172 C173 1.397 . S
C173 H148 0.950 . S
C173 C172 1.397 . S
C173 C174 1.391 . S
C174 C173 1.391 . S
C174 C175 1.405 . S
C175 H149 0.950 . S
C175 C174 1.405 . S
C175 C176 1.367 . S
C176 H150 0.950 . S
C176 C171 1.386 . S
C176 C175 1.367 . S
C177 C171 1.483 . S
C177 C178 1.382 . S
C177 C179 1.403 . S
C178 H151 0.950 . S
C178 C164 1.411 . S
C178 C177 1.382 . S
C179 C163 1.411 . S
C179 C177 1.403 . S
C179 C180 1.489 . S
C180 C179 1.489 . S
C180 C181 1.383 . S
C180 C185 1.382 . S
C181 H152 0.950 . S
C181 C180 1.383 . S
C181 C182 1.395 . S
C182 H153 0.950 . S
C182 C181 1.395 . S
C182 C183 1.288 . S
C183 C182 1.288 . S
C183 C184 1.392 . S
C184 H154 0.951 . S
C184 C183 1.392 . S
C184 C185 1.392 . S
C185 H155 0.949 . S
C185 C180 1.382 . S
C185 C184 1.392 . S
H186 C205 0.949 . S
H187 C206 0.950 . S
H188 C208 0.950 . S
H189 C209 0.950 . S
H190 C211 0.950 . S
H191 C214 0.950 . S
H192 C215 0.950 . S
H193 C217 0.951 . S
H194 C218 0.949 . S
H195 C220 0.949 . S
H196 C221 0.950 . S
H197 C223 0.950 . S
H198 C224 0.950 . S
H199 C226 0.950 . S
H200 C229 0.950 . S
H201 C230 0.950 . S
H202 C232 0.951 . S
H203 C233 0.949 . S
C204 C205 1.376 . S
C204 C209 1.386 . S
C204 C210 1.483 . S
C205 H186 0.949 . S
C205 C204 1.376 . S
C205 C206 1.397 . S
C206 H187 0.950 . S
C206 C205 1.397 . S
C206 C207 1.391 . S
C207 C206 1.391 . S
C207 C208 1.405 . S
C208 H188 0.950 . S
C208 C207 1.405 . S
C208 C209 1.367 . S
C209 H189 0.950 . S
C209 C204 1.386 . S
C209 C208 1.367 . S
C210 C204 1.483 . S
C210 C211 1.382 . S
C210 C212 1.403 . S
C211 H190 0.950 . S
C211 C210 1.382 . S
C211 C227 1.411 . S
C212 C210 1.403 . S
C212 C213 1.489 . S
C212 C226 1.411 . S
C213 C212 1.489 . S
C213 C214 1.383 . S
C213 C218 1.382 . S
C214 H191 0.950 . S
C214 C213 1.383 . S
C214 C215 1.395 . S
C215 H192 0.950 . S
C215 C214 1.395 . S
C215 C216 1.288 . S
C216 C215 1.288 . S
C216 C217 1.392 . S
C217 H193 0.951 . S
C217 C216 1.392 . S
C217 C218 1.392 . S
C218 H194 0.949 . S
C218 C213 1.382 . S
C218 C217 1.392 . S
C219 C220 1.376 . S
C219 C224 1.386 . S
C219 C225 1.483 . S
C220 H195 0.949 . S
C220 C219 1.376 . S
C220 C221 1.397 . S
C221 H196 0.950 . S
C221 C220 1.397 . S
C221 C222 1.391 . S
C222 C221 1.391 . S
C222 C223 1.405 . S
C223 H197 0.950 . S
C223 C222 1.405 . S
C223 C224 1.367 . S
C224 H198 0.950 . S
C224 C219 1.386 . S
C224 C223 1.367 . S
C225 C219 1.483 . S
C225 C226 1.382 . S
C225 C227 1.403 . S
C226 H199 0.950 . S
C226 C212 1.411 . S
C226 C225 1.382 . S
C227 C211 1.411 . S
C227 C225 1.403 . S
C227 C228 1.489 . S
C228 C227 1.489 . S
C228 C229 1.383 . S
C228 C233 1.382 . S
C229 H200 0.950 . S
C229 C228 1.383 . S
C229 C230 1.395 . S
C230 H201 0.950 . S
C230 C229 1.395 . S
C230 C231 1.288 . S
C231 C230 1.288 . S
C231 C232 1.392 . S
C232 H202 0.951 . S
C232 C231 1.392 . S
C232 C233 1.392 . S
C233 H203 0.949 . S
C233 C228 1.382 . S
C233 C232 1.392 . S
H234 C253 0.949 . S
H235 C254 0.950 . S
H236 C256 0.950 . S
H237 C257 0.950 . S
H238 C259 0.950 . S
H239 C262 0.950 . S
H240 C263 0.950 . S
H241 C265 0.951 . S
H242 C266 0.949 . S
H243 C268 0.949 . S
H244 C269 0.950 . S
H245 C271 0.950 . S
H246 C272 0.950 . S
H247 C274 0.950 . S
H248 C277 0.950 . S
H249 C278 0.950 . S
H250 C280 0.951 . S
H251 C281 0.949 . S
C252 C253 1.376 . S
C252 C257 1.386 . S
C252 C258 1.483 . S
C253 H234 0.949 . S
C253 C252 1.376 . S
C253 C254 1.397 . S
C254 H235 0.950 . S
C254 C253 1.397 . S
C254 C255 1.391 . S
C255 C254 1.391 . S
C255 C256 1.405 . S
C256 H236 0.950 . S
C256 C255 1.405 . S
C256 C257 1.367 . S
C257 H237 0.950 . S
C257 C252 1.386 . S
C257 C256 1.367 . S
C258 C252 1.483 . S
C258 C259 1.382 . S
C258 C260 1.403 . S
C259 H238 0.950 . S
C259 C258 1.382 . S
C259 C275 1.411 . S
C260 C258 1.403 . S
C260 C261 1.489 . S
C260 C274 1.411 . S
C261 C260 1.489 . S
C261 C262 1.383 . S
C261 C266 1.382 . S
C262 H239 0.950 . S
C262 C261 1.383 . S
C262 C263 1.395 . S
C263 H240 0.950 . S
C263 C262 1.395 . S
C263 C264 1.288 . S
C264 C263 1.288 . S
C264 C265 1.392 . S
C265 H241 0.951 . S
C265 C264 1.392 . S
C265 C266 1.392 . S
C266 H242 0.949 . S
C266 C261 1.382 . S
C266 C265 1.392 . S
C267 C268 1.376 . S
C267 C272 1.386 . S
C267 C273 1.483 . S
C268 H243 0.949 . S
C268 C267 1.376 . S
C268 C269 1.397 . S
C269 H244 0.950 . S
C269 C268 1.397 . S
C269 C270 1.391 . S
C270 C269 1.391 . S
C270 C271 1.405 . S
C271 H245 0.950 . S
C271 C270 1.405 . S
C271 C272 1.367 . S
C272 H246 0.950 . S
C272 C267 1.386 . S
C272 C271 1.367 . S
C273 C267 1.483 . S
C273 C274 1.382 . S
C273 C275 1.403 . S
C274 H247 0.950 . S
C274 C260 1.411 . S
C274 C273 1.382 . S
C275 C259 1.411 . S
C275 C273 1.403 . S
C275 C276 1.489 . S
C276 C275 1.489 . S
C276 C277 1.383 . S
C276 C281 1.382 . S
C277 H248 0.950 . S
C277 C276 1.383 . S
C277 C278 1.395 . S
C278 H249 0.950 . S
C278 C277 1.395 . S
C278 C279 1.288 . S
C279 C278 1.288 . S
C279 C280 1.392 . S
C280 H250 0.951 . S
C280 C279 1.392 . S
C280 C281 1.392 . S
C281 H251 0.949 . S
C281 C276 1.382 . S
C281 C280 1.392 . S
H282 C301 0.949 . S
H283 C302 0.950 . S
H284 C304 0.950 . S
H285 C305 0.950 . S
H286 C307 0.950 . S
H287 C310 0.950 . S
H288 C311 0.950 . S
H289 C313 0.951 . S
H290 C314 0.949 . S
H291 C316 0.949 . S
H292 C317 0.950 . S
H293 C319 0.950 . S
H294 C320 0.950 . S
H295 C322 0.950 . S
H296 C325 0.950 . S
H297 C326 0.950 . S
H298 C328 0.951 . S
H299 C329 0.949 . S
C300 C301 1.376 . S
C300 C305 1.386 . S
C300 C306 1.483 . S
C301 H282 0.949 . S
C301 C300 1.376 . S
C301 C302 1.397 . S
C302 H283 0.950 . S
C302 C301 1.397 . S
C302 C303 1.391 . S
C303 C302 1.391 . S
C303 C304 1.405 . S
C304 H284 0.950 . S
C304 C303 1.405 . S
C304 C305 1.367 . S
C305 H285 0.950 . S
C305 C300 1.386 . S
C305 C304 1.367 . S
C306 C300 1.483 . S
C306 C307 1.382 . S
C306 C308 1.403 . S
C307 H286 0.950 . S
C307 C306 1.382 . S
C307 C323 1.411 . S
C308 C306 1.403 . S
C308 C309 1.489 . S
C308 C322 1.411 . S
C309 C308 1.489 . S
C309 C310 1.383 . S
C309 C314 1.382 . S
C310 H287 0.950 . S
C310 C309 1.383 . S
C310 C311 1.395 . S
C311 H288 0.950 . S
C311 C310 1.395 . S
C311 C312 1.288 . S
C312 C311 1.288 . S
C312 C313 1.392 . S
C313 H289 0.951 . S
C313 C312 1.392 . S
C313 C314 1.392 . S
C314 H290 0.949 . S
C314 C309 1.382 . S
C314 C313 1.392 . S
C315 C316 1.376 . S
C315 C320 1.386 . S
C315 C321 1.483 . S
C316 H291 0.949 . S
C316 C315 1.376 . S
C316 C317 1.397 . S
C317 H292 0.950 . S
C317 C316 1.397 . S
C317 C318 1.391 . S
C318 C317 1.391 . S
C318 C319 1.405 . S
C319 H293 0.950 . S
C319 C318 1.405 . S
C319 C320 1.367 . S
C320 H294 0.950 . S
C320 C315 1.386 . S
C320 C319 1.367 . S
C321 C315 1.483 . S
C321 C322 1.382 . S
C321 C323 1.403 . S
C322 H295 0.950 . S
C322 C308 1.411 . S
C322 C321 1.382 . S
C323 C307 1.411 . S
C323 C321 1.403 . S
C323 C324 1.489 . S
C324 C323 1.489 . S
C324 C325 1.383 . S
C324 C329 1.382 . S
C325 H296 0.950 . S
C325 C324 1.383 . S
C325 C326 1.395 . S
C326 H297 0.950 . S
C326 C325 1.395 . S
C326 C327 1.288 . S
C327 C326 1.288 . S
C327 C328 1.392 . S
C328 H298 0.951 . S
C328 C327 1.392 . S
C328 C329 1.392 . S
C329 H299 0.949 . S
C329 C324 1.382 . S
C329 C328 1.392 . S
H330 C349 0.949 . S
H331 C350 0.950 . S
H332 C352 0.950 . S
H333 C353 0.950 . S
H334 C355 0.950 . S
H335 C358 0.950 . S
H336 C359 0.950 . S
H337 C361 0.951 . S
H338 C362 0.949 . S
H339 C364 0.949 . S
H340 C365 0.950 . S
H341 C367 0.950 . S
H342 C368 0.950 . S
H343 C370 0.950 . S
H344 C373 0.950 . S
H345 C374 0.950 . S
H346 C376 0.951 . S
H347 C377 0.949 . S
C348 C349 1.376 . S
C348 C353 1.386 . S
C348 C354 1.483 . S
C349 H330 0.949 . S
C349 C348 1.376 . S
C349 C350 1.397 . S
C350 H331 0.950 . S
C350 C349 1.397 . S
C350 C351 1.391 . S
C351 C350 1.391 . S
C351 C352 1.405 . S
C352 H332 0.950 . S
C352 C351 1.405 . S
C352 C353 1.367 . S
C353 H333 0.950 . S
C353 C348 1.386 . S
C353 C352 1.367 . S
C354 C348 1.483 . S
C354 C355 1.382 . S
C354 C356 1.403 . S
C355 H334 0.950 . S
C355 C354 1.382 . S
C355 C371 1.411 . S
C356 C354 1.403 . S
C356 C357 1.489 . S
C356 C370 1.411 . S
C357 C356 1.489 . S
C357 C358 1.383 . S
C357 C362 1.382 . S
C358 H335 0.950 . S
C358 C357 1.383 . S
C358 C359 1.395 . S
C359 H336 0.950 . S
C359 C358 1.395 . S
C359 C360 1.288 . S
C360 C359 1.288 . S
C360 C361 1.392 . S
C361 H337 0.951 . S
C361 C360 1.392 . S
C361 C362 1.392 . S
C362 H338 0.949 . S
C362 C357 1.382 . S
C362 C361 1.392 . S
C363 C364 1.376 . S
C363 C368 1.386 . S
C363 C369 1.483 . S
C364 H339 0.949 . S
C364 C363 1.376 . S
C364 C365 1.397 . S
C365 H340 0.950 . S
C365 C364 1.397 . S
C365 C366 1.391 . S
C366 C365 1.391 . S
C366 C367 1.405 . S
C367 H341 0.950 . S
C367 C366 1.405 . S
C367 C368 1.367 . S
C368 H342 0.950 . S
C368 C363 1.386 . S
C368 C367 1.367 . S
C369 C363 1.483 . S
C369 C370 1.382 . S
C369 C371 1.403 . S
C370 H343 0.950 . S
C370 C356 1.411 . S
C370 C369 1.382 . S
C371 C355 1.411 . S
C371 C369 1.403 . S
C371 C372 1.489 . S
C372 C371 1.489 . S
C372 C373 1.383 . S
C372 C377 1.382 . S
C373 H344 0.950 . S
C373 C372 1.383 . S
C373 C374 1.395 . S
C374 H345 0.950 . S
C374 C373 1.395 . S
C374 C375 1.288 . S
C375 C374 1.288 . S
C375 C376 1.392 . S
C376 H346 0.951 . S
C376 C375 1.392 . S
C376 C377 1.392 . S
C377 H347 0.949 . S
C377 C372 1.382 . S
C377 C376 1.392 . S
H378 C397 0.949 . S
H379 C398 0.950 . S
H380 C400 0.950 . S
H381 C401 0.950 . S
H382 C403 0.950 . S
H383 C406 0.950 . S
H384 C407 0.950 . S
H385 C409 0.951 . S
H386 C410 0.949 . S
H387 C412 0.949 . S
H388 C413 0.950 . S
H389 C415 0.950 . S
H390 C416 0.950 . S
H391 C418 0.950 . S
H392 C421 0.950 . S
H393 C422 0.950 . S
H394 C424 0.951 . S
H395 C425 0.949 . S
C396 C397 1.376 . S
C396 C401 1.386 . S
C396 C402 1.483 . S
C397 H378 0.949 . S
C397 C396 1.376 . S
C397 C398 1.397 . S
C398 H379 0.950 . S
C398 C397 1.397 . S
C398 C399 1.391 . S
C399 C398 1.391 . S
C399 C400 1.405 . S
C400 H380 0.950 . S
C400 C399 1.405 . S
C400 C401 1.367 . S
C401 H381 0.950 . S
C401 C396 1.386 . S
C401 C400 1.367 . S
C402 C396 1.483 . S
C402 C403 1.382 . S
C402 C404 1.403 . S
C403 H382 0.950 . S
C403 C402 1.382 . S
C403 C419 1.411 . S
C404 C402 1.403 . S
C404 C405 1.489 . S
C404 C418 1.411 . S
C405 C404 1.489 . S
C405 C406 1.383 . S
C405 C410 1.382 . S
C406 H383 0.950 . S
C406 C405 1.383 . S
C406 C407 1.395 . S
C407 H384 0.950 . S
C407 C406 1.395 . S
C407 C408 1.288 . S
C408 C407 1.288 . S
C408 C409 1.392 . S
C409 H385 0.951 . S
C409 C408 1.392 . S
C409 C410 1.392 . S
C410 H386 0.949 . S
C410 C405 1.382 . S
C410 C409 1.392 . S
C411 C412 1.376 . S
C411 C416 1.386 . S
C411 C417 1.483 . S
C412 H387 0.949 . S
C412 C411 1.376 . S
C412 C413 1.397 . S
C413 H388 0.950 . S
C413 C412 1.397 . S
C413 C414 1.391 . S
C414 C413 1.391 . S
C414 C415 1.405 . S
C415 H389 0.950 . S
C415 C414 1.405 . S
C415 C416 1.367 . S
C416 H390 0.950 . S
C416 C411 1.386 . S
C416 C415 1.367 . S
C417 C411 1.483 . S
C417 C418 1.382 . S
C417 C419 1.403 . S
C418 H391 0.950 . S
C418 C404 1.411 . S
C418 C417 1.382 . S
C419 C403 1.411 . S
C419 C417 1.403 . S
C419 C420 1.489 . S
C420 C419 1.489 . S
C420 C421 1.383 . S
C420 C425 1.382 . S
C421 H392 0.950 . S
C421 C420 1.383 . S
C421 C422 1.395 . S
C422 H393 0.950 . S
C422 C421 1.395 . S
C422 C423 1.288 . S
C423 C422 1.288 . S
C423 C424 1.392 . S
C424 H394 0.951 . S
C424 C423 1.392 . S
C424 C425 1.392 . S
C425 H395 0.949 . S
C425 C420 1.382 . S
C425 C424 1.392 . S
H426 C434 0.950 . S
H427 C439 0.950 . S
H428 C436 0.950 . S
H429 C438 0.950 . S
H430 C440 0.950 . S
H431 C442 0.950 . S
H432 C444 0.950 . S
H433 C445 0.950 . S
C434 H426 0.950 . S
C434 C435 1.386 . S
C434 C436 1.391 . S
C435 C434 1.386 . S
C435 C439 1.393 . S
C436 H428 0.950 . S
C436 C434 1.391 . S
C436 C437 1.400 . S
C437 C436 1.400 . S
C437 C438 1.398 . S
C437 C443 1.491 . S
C438 H429 0.950 . S
C438 C437 1.398 . S
C438 C439 1.391 . S
C439 H427 0.950 . S
C439 C435 1.393 . S
C439 C438 1.391 . S
C440 H430 0.950 . S
C440 C441 1.386 . S
C440 C442 1.391 . S
C441 C440 1.386 . S
C441 C445 1.393 . S
C442 H431 0.950 . S
C442 C440 1.391 . S
C442 C443 1.400 . S
C443 C437 1.491 . S
C443 C442 1.400 . S
C443 C444 1.398 . S
C444 H432 0.950 . S
C444 C443 1.398 . S
C444 C445 1.391 . S
C445 H433 0.950 . S
C445 C441 1.393 . S
C445 C444 1.391 . S
H446 C454 0.950 . S
H447 C459 0.950 . S
H448 C456 0.950 . S
H449 C458 0.950 . S
H450 C460 0.950 . S
H451 C462 0.950 . S
H452 C464 0.950 . S
H453 C465 0.950 . S
C454 H446 0.950 . S
C454 C455 1.386 . S
C454 C456 1.391 . S
C455 C454 1.386 . S
C455 C459 1.393 . S
C456 H448 0.950 . S
C456 C454 1.391 . S
C456 C457 1.400 . S
C457 C456 1.400 . S
C457 C458 1.398 . S
C457 C463 1.491 . S
C458 H449 0.950 . S
C458 C457 1.398 . S
C458 C459 1.391 . S
C459 H447 0.950 . S
C459 C455 1.393 . S
C459 C458 1.391 . S
C460 H450 0.950 . S
C460 C461 1.386 . S
C460 C462 1.391 . S
C461 C460 1.386 . S
C461 C465 1.393 . S
C462 H451 0.950 . S
C462 C460 1.391 . S
C462 C463 1.400 . S
C463 C457 1.491 . S
C463 C462 1.400 . S
C463 C464 1.398 . S
C464 H452 0.950 . S
C464 C463 1.398 . S
C464 C465 1.391 . S
C465 H453 0.950 . S
C465 C461 1.393 . S
C465 C464 1.391 . S
H466 C474 0.950 . S
H467 C479 0.950 . S
H468 C476 0.950 . S
H469 C478 0.950 . S
H470 C480 0.950 . S
H471 C482 0.950 . S
H472 C484 0.950 . S
H473 C485 0.950 . S
C474 H466 0.950 . S
C474 C475 1.386 . S
C474 C476 1.391 . S
C475 C474 1.386 . S
C475 C479 1.393 . S
C476 H468 0.950 . S
C476 C474 1.391 . S
C476 C477 1.400 . S
C477 C476 1.400 . S
C477 C478 1.398 . S
C477 C483 1.491 . S
C478 H469 0.950 . S
C478 C477 1.398 . S
C478 C479 1.391 . S
C479 H467 0.950 . S
C479 C475 1.393 . S
C479 C478 1.391 . S
C480 H470 0.950 . S
C480 C481 1.386 . S
C480 C482 1.391 . S
C481 C480 1.386 . S
C481 C485 1.393 . S
C482 H471 0.950 . S
C482 C480 1.391 . S
C482 C483 1.400 . S
C483 C477 1.491 . S
C483 C482 1.400 . S
C483 C484 1.398 . S
C484 H472 0.950 . S
C484 C483 1.398 . S
C484 C485 1.391 . S
C485 H473 0.950 . S
C485 C481 1.393 . S
C485 C484 1.391 . S
H486 C494 0.950 . S
H487 C499 0.950 . S
H488 C496 0.950 . S
H489 C498 0.950 . S
H490 C500 0.950 . S
H491 C502 0.950 . S
H492 C504 0.950 . S
H493 C505 0.950 . S
C494 H486 0.950 . S
C494 C495 1.386 . S
C494 C496 1.391 . S
C495 C494 1.386 . S
C495 C499 1.393 . S
C496 H488 0.950 . S
C496 C494 1.391 . S
C496 C497 1.400 . S
C497 C496 1.400 . S
C497 C498 1.398 . S
C497 C503 1.491 . S
C498 H489 0.950 . S
C498 C497 1.398 . S
C498 C499 1.391 . S
C499 H487 0.950 . S
C499 C495 1.393 . S
C499 C498 1.391 . S
C500 H490 0.950 . S
C500 C501 1.386 . S
C500 C502 1.391 . S
C501 C500 1.386 . S
C501 C505 1.393 . S
C502 H491 0.950 . S
C502 C500 1.391 . S
C502 C503 1.400 . S
C503 C497 1.491 . S
C503 C502 1.400 . S
C503 C504 1.398 . S
C504 H492 0.950 . S
C504 C503 1.398 . S
C504 C505 1.391 . S
C505 H493 0.950 . S
C505 C501 1.393 . S
C505 C504 1.391 . S
H506 C514 0.950 . S
H507 C519 0.950 . S
H508 C516 0.950 . S
H509 C518 0.950 . S
H510 C520 0.950 . S
H511 C522 0.950 . S
H512 C524 0.950 . S
H513 C525 0.950 . S
C514 H506 0.950 . S
C514 C515 1.386 . S
C514 C516 1.391 . S
C515 C514 1.386 . S
C515 C519 1.393 . S
C516 H508 0.950 . S
C516 C514 1.391 . S
C516 C517 1.400 . S
C517 C516 1.400 . S
C517 C518 1.398 . S
C517 C523 1.491 . S
C518 H509 0.950 . S
C518 C517 1.398 . S
C518 C519 1.391 . S
C519 H507 0.950 . S
C519 C515 1.393 . S
C519 C518 1.391 . S
C520 H510 0.950 . S
C520 C521 1.386 . S
C520 C522 1.391 . S
C521 C520 1.386 . S
C521 C525 1.393 . S
C522 H511 0.950 . S
C522 C520 1.391 . S
C522 C523 1.400 . S
C523 C517 1.491 . S
C523 C522 1.400 . S
C523 C524 1.398 . S
C524 H512 0.950 . S
C524 C523 1.398 . S
C524 C525 1.391 . S
C525 H513 0.950 . S
C525 C521 1.393 . S
C525 C524 1.391 . S
H526 C534 0.950 . S
H527 C539 0.950 . S
H528 C536 0.950 . S
H529 C538 0.950 . S
H530 C540 0.950 . S
H531 C542 0.950 . S
H532 C544 0.950 . S
H533 C545 0.950 . S
C534 H526 0.950 . S
C534 C535 1.386 . S
C534 C536 1.391 . S
C535 C534 1.386 . S
C535 C539 1.393 . S
C536 H528 0.950 . S
C536 C534 1.391 . S
C536 C537 1.400 . S
C537 C536 1.400 . S
C537 C538 1.398 . S
C537 C543 1.491 . S
C538 H529 0.950 . S
C538 C537 1.398 . S
C538 C539 1.391 . S
C539 H527 0.950 . S
C539 C535 1.393 . S
C539 C538 1.391 . S
C540 H530 0.950 . S
C540 C541 1.386 . S
C540 C542 1.391 . S
C541 C540 1.386 . S
C541 C545 1.393 . S
C542 H531 0.950 . S
C542 C540 1.391 . S
C542 C543 1.400 . S
C543 C537 1.491 . S
C543 C542 1.400 . S
C543 C544 1.398 . S
C544 H532 0.950 . S
C544 C543 1.398 . S
C544 C545 1.391 . S
C545 H533 0.950 . S
C545 C541 1.393 . S
C545 C544 1.391 . S
H546 C554 0.950 . S
H547 C559 0.950 . S
H548 C556 0.950 . S
H549 C558 0.950 . S
H550 C560 0.950 . S
H551 C562 0.950 . S
H552 C564 0.950 . S
H553 C565 0.950 . S
C554 H546 0.950 . S
C554 C555 1.386 . S
C554 C556 1.391 . S
C555 C554 1.386 . S
C555 C559 1.393 . S
C556 H548 0.950 . S
C556 C554 1.391 . S
C556 C557 1.400 . S
C557 C556 1.400 . S
C557 C558 1.398 . S
C557 C563 1.491 . S
C558 H549 0.950 . S
C558 C557 1.398 . S
C558 C559 1.391 . S
C559 H547 0.950 . S
C559 C555 1.393 . S
C559 C558 1.391 . S
C560 H550 0.950 . S
C560 C561 1.386 . S
C560 C562 1.391 . S
C561 C560 1.386 . S
C561 C565 1.393 . S
C562 H551 0.950 . S
C562 C560 1.391 . S
C562 C563 1.400 . S
C563 C557 1.491 . S
C563 C562 1.400 . S
C563 C564 1.398 . S
C564 H552 0.950 . S
C564 C563 1.398 . S
C564 C565 1.391 . S
C565 H553 0.950 . S
C565 C561 1.393 . S
C565 C564 1.391 . S
H566 C574 0.950 . S
H567 C579 0.950 . S
H568 C576 0.950 . S
H569 C578 0.950 . S
H570 C580 0.950 . S
H571 C582 0.950 . S
H572 C584 0.950 . S
H573 C585 0.950 . S
C574 H566 0.950 . S
C574 C575 1.386 . S
C574 C576 1.391 . S
C575 C574 1.386 . S
C575 C579 1.393 . S
C576 H568 0.950 . S
C576 C574 1.391 . S
C576 C577 1.400 . S
C577 C576 1.400 . S
C577 C578 1.398 . S
C577 C583 1.491 . S
C578 H569 0.950 . S
C578 C577 1.398 . S
C578 C579 1.391 . S
C579 H567 0.950 . S
C579 C575 1.393 . S
C579 C578 1.391 . S
C580 H570 0.950 . S
C580 C581 1.386 . S
C580 C582 1.391 . S
C581 C580 1.386 . S
C581 C585 1.393 . S
C582 H571 0.950 . S
C582 C580 1.391 . S
C582 C583 1.400 . S
C583 C577 1.491 . S
C583 C582 1.400 . S
C583 C584 1.398 . S
C584 H572 0.950 . S
C584 C583 1.398 . S
C584 C585 1.391 . S
C585 H573 0.950 . S
C585 C581 1.393 . S
C585 C584 1.391 . S
H586 C594 0.950 . S
H587 C599 0.950 . S
H588 C596 0.950 . S
H589 C598 0.950 . S
H590 C600 0.950 . S
H591 C602 0.950 . S
H592 C604 0.950 . S
H593 C605 0.950 . S
C594 H586 0.950 . S
C594 C595 1.386 . S
C594 C596 1.391 . S
C595 C594 1.386 . S
C595 C599 1.393 . S
C596 H588 0.950 . S
C596 C594 1.391 . S
C596 C597 1.400 . S
C597 C596 1.400 . S
C597 C598 1.398 . S
C597 C603 1.491 . S
C598 H589 0.950 . S
C598 C597 1.398 . S
C598 C599 1.391 . S
C599 H587 0.950 . S
C599 C595 1.393 . S
C599 C598 1.391 . S
C600 H590 0.950 . S
C600 C601 1.386 . S
C600 C602 1.391 . S
C601 C600 1.386 . S
C601 C605 1.393 . S
C602 H591 0.950 . S
C602 C600 1.391 . S
C602 C603 1.400 . S
C603 C597 1.491 . S
C603 C602 1.400 . S
C603 C604 1.398 . S
C604 H592 0.950 . S
C604 C603 1.398 . S
C604 C605 1.391 . S
C605 H593 0.950 . S
C605 C601 1.393 . S
C605 C604 1.391 . S
H606 C614 0.950 . S
H607 C619 0.950 . S
H608 C616 0.950 . S
H609 C618 0.950 . S
H610 C620 0.950 . S
H611 C622 0.950 . S
H612 C624 0.950 . S
H613 C625 0.950 . S
C614 H606 0.950 . S
C614 C615 1.386 . S
C614 C616 1.391 . S
C615 C614 1.386 . S
C615 C619 1.393 . S
C616 H608 0.950 . S
C616 C614 1.391 . S
C616 C617 1.400 . S
C617 C616 1.400 . S
C617 C618 1.398 . S
C617 C623 1.491 . S
C618 H609 0.950 . S
C618 C617 1.398 . S
C618 C619 1.391 . S
C619 H607 0.950 . S
C619 C615 1.393 . S
C619 C618 1.391 . S
C620 H610 0.950 . S
C620 C621 1.386 . S
C620 C622 1.391 . S
C621 C620 1.386 . S
C621 C625 1.393 . S
C622 H611 0.950 . S
C622 C620 1.391 . S
C622 C623 1.400 . S
C623 C617 1.491 . S
C623 C622 1.400 . S
C623 C624 1.398 . S
C624 H612 0.950 . S
C624 C623 1.398 . S
C624 C625 1.391 . S
C625 H613 0.950 . S
C625 C621 1.393 . S
C625 C624 1.391 . S
H626 C634 0.950 . S
H627 C639 0.950 . S
H628 C636 0.950 . S
H629 C638 0.950 . S
H630 C640 0.950 . S
H631 C642 0.950 . S
H632 C644 0.950 . S
H633 C645 0.950 . S
C634 H626 0.950 . S
C634 C635 1.386 . S
C634 C636 1.391 . S
C635 C634 1.386 . S
C635 C639 1.393 . S
C636 H628 0.950 . S
C636 C634 1.391 . S
C636 C637 1.400 . S
C637 C636 1.400 . S
C637 C638 1.398 . S
C637 C643 1.491 . S
C638 H629 0.950 . S
C638 C637 1.398 . S
C638 C639 1.391 . S
C639 H627 0.950 . S
C639 C635 1.393 . S
C639 C638 1.391 . S
C640 H630 0.950 . S
C640 C641 1.386 . S
C640 C642 1.391 . S
C641 C640 1.386 . S
C641 C645 1.393 . S
C642 H631 0.950 . S
C642 C640 1.391 . S
C642 C643 1.400 . S
C643 C637 1.491 . S
C643 C642 1.400 . S
C643 C644 1.398 . S
C644 H632 0.950 . S
C644 C643 1.398 . S
C644 C645 1.391 . S
C645 H633 0.950 . S
C645 C641 1.393 . S
C645 C644 1.391 . S
H646 C654 0.950 . S
H647 C659 0.950 . S
H648 C656 0.950 . S
H649 C658 0.950 . S
H650 C660 0.950 . S
H651 C662 0.950 . S
H652 C664 0.950 . S
H653 C665 0.950 . S
C654 H646 0.950 . S
C654 C655 1.386 . S
C654 C656 1.391 . S
C655 C654 1.386 . S
C655 C659 1.393 . S
C656 H648 0.950 . S
C656 C654 1.391 . S
C656 C657 1.400 . S
C657 C656 1.400 . S
C657 C658 1.398 . S
C657 C663 1.491 . S
C658 H649 0.950 . S
C658 C657 1.398 . S
C658 C659 1.391 . S
C659 H647 0.950 . S
C659 C655 1.393 . S
C659 C658 1.391 . S
C660 H650 0.950 . S
C660 C661 1.386 . S
C660 C662 1.391 . S
C661 C660 1.386 . S
C661 C665 1.393 . S
C662 H651 0.950 . S
C662 C660 1.391 . S
C662 C663 1.400 . S
C663 C657 1.491 . S
C663 C662 1.400 . S
C663 C664 1.398 . S
C664 H652 0.950 . S
C664 C663 1.398 . S
C664 C665 1.391 . S
C665 H653 0.950 . S
C665 C661 1.393 . S
C665 C664 1.391 . S
H666 C674 0.950 . S
H667 C679 0.950 . S
H668 C676 0.950 . S
H669 C678 0.950 . S
H670 C680 0.950 . S
H671 C682 0.950 . S
H672 C684 0.950 . S
H673 C685 0.950 . S
C674 H666 0.950 . S
C674 C675 1.386 . S
C674 C676 1.391 . S
C675 C674 1.386 . S
C675 C679 1.393 . S
C676 H668 0.950 . S
C676 C674 1.391 . S
C676 C677 1.400 . S
C677 C676 1.400 . S
C677 C678 1.398 . S
C677 C683 1.491 . S
C678 H669 0.950 . S
C678 C677 1.398 . S
C678 C679 1.391 . S
C679 H667 0.950 . S
C679 C675 1.393 . S
C679 C678 1.391 . S
C680 H670 0.950 . S
C680 C681 1.386 . S
C680 C682 1.391 . S
C681 C680 1.386 . S
C681 C685 1.393 . S
C682 H671 0.950 . S
C682 C680 1.391 . S
C682 C683 1.400 . S
C683 C677 1.491 . S
C683 C682 1.400 . S
C683 C684 1.398 . S
C684 H672 0.950 . S
C684 C683 1.398 . S
C684 C685 1.391 . S
C685 H673 0.950 . S
C685 C681 1.393 . S
C685 C684 1.391 . S
H686 C694 0.950 . S
H687 C699 0.950 . S
H688 C696 0.950 . S
H689 C698 0.950 . S
H690 C700 0.950 . S
H691 C702 0.950 . S
H692 C704 0.950 . S
H693 C705 0.950 . S
C694 H686 0.950 . S
C694 C695 1.386 . S
C694 C696 1.391 . S
C695 C694 1.386 . S
C695 C699 1.393 . S
C696 H688 0.950 . S
C696 C694 1.391 . S
C696 C697 1.400 . S
C697 C696 1.400 . S
C697 C698 1.398 . S
C697 C703 1.491 . S
C698 H689 0.950 . S
C698 C697 1.398 . S
C698 C699 1.391 . S
C699 H687 0.950 . S
C699 C695 1.393 . S
C699 C698 1.391 . S
C700 H690 0.950 . S
C700 C701 1.386 . S
C700 C702 1.391 . S
C701 C700 1.386 . S
C701 C705 1.393 . S
C702 H691 0.950 . S
C702 C700 1.391 . S
C702 C703 1.400 . S
C703 C697 1.491 . S
C703 C702 1.400 . S
C703 C704 1.398 . S
C704 H692 0.950 . S
C704 C703 1.398 . S
C704 C705 1.391 . S
C705 H693 0.950 . S
C705 C701 1.393 . S
C705 C704 1.391 . S
H706 C714 0.950 . S
H707 C719 0.950 . S
H708 C716 0.950 . S
H709 C718 0.950 . S
H710 C720 0.950 . S
H711 C722 0.950 . S
H712 C724 0.950 . S
H713 C725 0.950 . S
C714 H706 0.950 . S
C714 C715 1.386 . S
C714 C716 1.391 . S
C715 C714 1.386 . S
C715 C719 1.393 . S
C716 H708 0.950 . S
C716 C714 1.391 . S
C716 C717 1.400 . S
C717 C716 1.400 . S
C717 C718 1.398 . S
C717 C723 1.491 . S
C718 H709 0.950 . S
C718 C717 1.398 . S
C718 C719 1.391 . S
C719 H707 0.950 . S
C719 C715 1.393 . S
C719 C718 1.391 . S
C720 H710 0.950 . S
C720 C721 1.386 . S
C720 C722 1.391 . S
C721 C720 1.386 . S
C721 C725 1.393 . S
C722 H711 0.950 . S
C722 C720 1.391 . S
C722 C723 1.400 . S
C723 C717 1.491 . S
C723 C722 1.400 . S
C723 C724 1.398 . S
C724 H712 0.950 . S
C724 C723 1.398 . S
C724 C725 1.391 . S
C725 H713 0.950 . S
C725 C721 1.393 . S
C725 C724 1.391 . S
H726 C734 0.950 . S
H727 C739 0.950 . S
H728 C736 0.950 . S
H729 C738 0.950 . S
H730 C740 0.950 . S
H731 C742 0.950 . S
H732 C744 0.950 . S
H733 C745 0.950 . S
C734 H726 0.950 . S
C734 C735 1.386 . S
C734 C736 1.391 . S
C735 C734 1.386 . S
C735 C739 1.393 . S
C736 H728 0.950 . S
C736 C734 1.391 . S
C736 C737 1.400 . S
C737 C736 1.400 . S
C737 C738 1.398 . S
C737 C743 1.491 . S
C738 H729 0.950 . S
C738 C737 1.398 . S
C738 C739 1.391 . S
C739 H727 0.950 . S
C739 C735 1.393 . S
C739 C738 1.391 . S
C740 H730 0.950 . S
C740 C741 1.386 . S
C740 C742 1.391 . S
C741 C740 1.386 . S
C741 C745 1.393 . S
C742 H731 0.950 . S
C742 C740 1.391 . S
C742 C743 1.400 . S
C743 C737 1.491 . S
C743 C742 1.400 . S
C743 C744 1.398 . S
C744 H732 0.950 . S
C744 C743 1.398 . S
C744 C745 1.391 . S
C745 H733 0.950 . S
C745 C741 1.393 . S
C745 C744 1.391 . S
H746 C754 0.950 . S
H747 C759 0.950 . S
H748 C756 0.950 . S
H749 C758 0.950 . S
H750 C760 0.950 . S
H751 C762 0.950 . S
H752 C764 0.950 . S
H753 C765 0.950 . S
C754 H746 0.950 . S
C754 C755 1.386 . S
C754 C756 1.391 . S
C755 C754 1.386 . S
C755 C759 1.393 . S
C756 H748 0.950 . S
C756 C754 1.391 . S
C756 C757 1.400 . S
C757 C756 1.400 . S
C757 C758 1.398 . S
C757 C763 1.491 . S
C758 H749 0.950 . S
C758 C757 1.398 . S
C758 C759 1.391 . S
C759 H747 0.950 . S
C759 C755 1.393 . S
C759 C758 1.391 . S
C760 H750 0.950 . S
C760 C761 1.386 . S
C760 C762 1.391 . S
C761 C760 1.386 . S
C761 C765 1.393 . S
C762 H751 0.950 . S
C762 C760 1.391 . S
C762 C763 1.400 . S
C763 C757 1.491 . S
C763 C762 1.400 . S
C763 C764 1.398 . S
C764 H752 0.950 . S
C764 C763 1.398 . S
C764 C765 1.391 . S
C765 H753 0.950 . S
C765 C761 1.393 . S
C765 C764 1.391 . S
H766 C774 0.950 . S
H767 C779 0.950 . S
H768 C776 0.950 . S
H769 C778 0.950 . S
H770 C780 0.950 . S
H771 C782 0.950 . S
H772 C784 0.950 . S
H773 C785 0.950 . S
C774 H766 0.950 . S
C774 C775 1.386 . S
C774 C776 1.391 . S
C775 C774 1.386 . S
C775 C779 1.393 . S
C776 H768 0.950 . S
C776 C774 1.391 . S
C776 C777 1.400 . S
C777 C776 1.400 . S
C777 C778 1.398 . S
C777 C783 1.491 . S
C778 H769 0.950 . S
C778 C777 1.398 . S
C778 C779 1.391 . S
C779 H767 0.950 . S
C779 C775 1.393 . S
C779 C778 1.391 . S
C780 H770 0.950 . S
C780 C781 1.386 . S
C780 C782 1.391 . S
C781 C780 1.386 . S
C781 C785 1.393 . S
C782 H771 0.950 . S
C782 C780 1.391 . S
C782 C783 1.400 . S
C783 C777 1.491 . S
C783 C782 1.400 . S
C783 C784 1.398 . S
C784 H772 0.950 . S
C784 C783 1.398 . S
C784 C785 1.391 . S
C785 H773 0.950 . S
C785 C781 1.393 . S
C785 C784 1.391 . S
H786 C794 0.950 . S
H787 C799 0.950 . S
H788 C796 0.950 . S
H789 C798 0.950 . S
H790 C800 0.950 . S
H791 C802 0.950 . S
H792 C804 0.950 . S
H793 C805 0.950 . S
C794 H786 0.950 . S
C794 C795 1.386 . S
C794 C796 1.391 . S
C795 C794 1.386 . S
C795 C799 1.393 . S
C796 H788 0.950 . S
C796 C794 1.391 . S
C796 C797 1.400 . S
C797 C796 1.400 . S
C797 C798 1.398 . S
C797 C803 1.491 . S
C798 H789 0.950 . S
C798 C797 1.398 . S
C798 C799 1.391 . S
C799 H787 0.950 . S
C799 C795 1.393 . S
C799 C798 1.391 . S
C800 H790 0.950 . S
C800 C801 1.386 . S
C800 C802 1.391 . S
C801 C800 1.386 . S
C801 C805 1.393 . S
C802 H791 0.950 . S
C802 C800 1.391 . S
C802 C803 1.400 . S
C803 C797 1.491 . S
C803 C802 1.400 . S
C803 C804 1.398 . S
C804 H792 0.950 . S
C804 C803 1.398 . S
C804 C805 1.391 . S
C805 H793 0.950 . S
C805 C801 1.393 . S
C805 C804 1.391 . S
H806 C814 0.950 . S
H807 C819 0.950 . S
H808 C816 0.950 . S
H809 C818 0.950 . S
H810 C820 0.950 . S
H811 C822 0.950 . S
H812 C824 0.950 . S
H813 C825 0.950 . S
C814 H806 0.950 . S
C814 C815 1.386 . S
C814 C816 1.391 . S
C815 C814 1.386 . S
C815 C819 1.393 . S
C816 H808 0.950 . S
C816 C814 1.391 . S
C816 C817 1.400 . S
C817 C816 1.400 . S
C817 C818 1.398 . S
C817 C823 1.491 . S
C818 H809 0.950 . S
C818 C817 1.398 . S
C818 C819 1.391 . S
C819 H807 0.950 . S
C819 C815 1.393 . S
C819 C818 1.391 . S
C820 H810 0.950 . S
C820 C821 1.386 . S
C820 C822 1.391 . S
C821 C820 1.386 . S
C821 C825 1.393 . S
C822 H811 0.950 . S
C822 C820 1.391 . S
C822 C823 1.400 . S
C823 C817 1.491 . S
C823 C822 1.400 . S
C823 C824 1.398 . S
C824 H812 0.950 . S
C824 C823 1.398 . S
C824 C825 1.391 . S
C825 H813 0.950 . S
C825 C821 1.393 . S
C825 C824 1.391 . S
H826 C834 0.950 . S
H827 C839 0.950 . S
H828 C836 0.950 . S
H829 C838 0.950 . S
H830 C840 0.950 . S
H831 C842 0.950 . S
H832 C844 0.950 . S
H833 C845 0.950 . S
C834 H826 0.950 . S
C834 C835 1.386 . S
C834 C836 1.391 . S
C835 C834 1.386 . S
C835 C839 1.393 . S
C836 H828 0.950 . S
C836 C834 1.391 . S
C836 C837 1.400 . S
C837 C836 1.400 . S
C837 C838 1.398 . S
C837 C843 1.491 . S
C838 H829 0.950 . S
C838 C837 1.398 . S
C838 C839 1.391 . S
C839 H827 0.950 . S
C839 C835 1.393 . S
C839 C838 1.391 . S
C840 H830 0.950 . S
C840 C841 1.386 . S
C840 C842 1.391 . S
C841 C840 1.386 . S
C841 C845 1.393 . S
C842 H831 0.950 . S
C842 C840 1.391 . S
C842 C843 1.400 . S
C843 C837 1.491 . S
C843 C842 1.400 . S
C843 C844 1.398 . S
C844 H832 0.950 . S
C844 C843 1.398 . S
C844 C845 1.391 . S
C845 H833 0.950 . S
C845 C841 1.393 . S
C845 C844 1.391 . S
H846 C854 0.950 . S
H847 C859 0.950 . S
H848 C856 0.950 . S
H849 C858 0.950 . S
H850 C860 0.950 . S
H851 C862 0.950 . S
H852 C864 0.950 . S
H853 C865 0.950 . S
C854 H846 0.950 . S
C854 C855 1.386 . S
C854 C856 1.391 . S
C855 C854 1.386 . S
C855 C859 1.393 . S
C856 H848 0.950 . S
C856 C854 1.391 . S
C856 C857 1.400 . S
C857 C856 1.400 . S
C857 C858 1.398 . S
C857 C863 1.491 . S
C858 H849 0.950 . S
C858 C857 1.398 . S
C858 C859 1.391 . S
C859 H847 0.950 . S
C859 C855 1.393 . S
C859 C858 1.391 . S
C860 H850 0.950 . S
C860 C861 1.386 . S
C860 C862 1.391 . S
C861 C860 1.386 . S
C861 C865 1.393 . S
C862 H851 0.950 . S
C862 C860 1.391 . S
C862 C863 1.400 . S
C863 C857 1.491 . S
C863 C862 1.400 . S
C863 C864 1.398 . S
C864 H852 0.950 . S
C864 C863 1.398 . S
C864 C865 1.391 . S
C865 H853 0.950 . S
C865 C861 1.393 . S
C865 C864 1.391 . S
H866 C874 0.950 . S
H867 C879 0.950 . S
H868 C876 0.950 . S
H869 C878 0.950 . S
H870 C880 0.950 . S
H871 C882 0.950 . S
H872 C884 0.950 . S
H873 C885 0.950 . S
C874 H866 0.950 . S
C874 C875 1.386 . S
C874 C876 1.391 . S
C875 C874 1.386 . S
C875 C879 1.393 . S
C876 H868 0.950 . S
C876 C874 1.391 . S
C876 C877 1.400 . S
C877 C876 1.400 . S
C877 C878 1.398 . S
C877 C883 1.491 . S
C878 H869 0.950 . S
C878 C877 1.398 . S
C878 C879 1.391 . S
C879 H867 0.950 . S
C879 C875 1.393 . S
C879 C878 1.391 . S
C880 H870 0.950 . S
C880 C881 1.386 . S
C880 C882 1.391 . S
C881 C880 1.386 . S
C881 C885 1.393 . S
C882 H871 0.950 . S
C882 C880 1.391 . S
C882 C883 1.400 . S
C883 C877 1.491 . S
C883 C882 1.400 . S
C883 C884 1.398 . S
C884 H872 0.950 . S
C884 C883 1.398 . S
C884 C885 1.391 . S
C885 H873 0.950 . S
C885 C881 1.393 . S
C885 C884 1.391 . S
H886 C894 0.950 . S
H887 C899 0.950 . S
H888 C896 0.950 . S
H889 C898 0.950 . S
H890 C900 0.950 . S
H891 C902 0.950 . S
H892 C904 0.950 . S
H893 C905 0.950 . S
C894 H886 0.950 . S
C894 C895 1.386 . S
C894 C896 1.391 . S
C895 C894 1.386 . S
C895 C899 1.393 . S
C896 H888 0.950 . S
C896 C894 1.391 . S
C896 C897 1.400 . S
C897 C896 1.400 . S
C897 C898 1.398 . S
C897 C903 1.491 . S
C898 H889 0.950 . S
C898 C897 1.398 . S
C898 C899 1.391 . S
C899 H887 0.950 . S
C899 C895 1.393 . S
C899 C898 1.391 . S
C900 H890 0.950 . S
C900 C901 1.386 . S
C900 C902 1.391 . S
C901 C900 1.386 . S
C901 C905 1.393 . S
C902 H891 0.950 . S
C902 C900 1.391 . S
C902 C903 1.400 . S
C903 C897 1.491 . S
C903 C902 1.400 . S
C903 C904 1.398 . S
C904 H892 0.950 . S
C904 C903 1.398 . S
C904 C905 1.391 . S
C905 H893 0.950 . S
C905 C901 1.393 . S
C905 C904 1.391 . S
C435 C7 1.863 . S
C441 C159 1.852 . S
C455 C30 1.629 . S
C461 C216 1.627 . S
C481 C270 1.725 . S
C475 N58 1.700 . S
C501 C327 1.467 . S
C495 N81 1.459 . S
C521 C351 1.749 . S
C515 C99 1.759 . S
C541 C408 1.549 . S
C535 N127 1.503 . S
C555 N25 1.712 . S
C561 C255 1.750 . S
C575 C62 1.608 . S
C581 C312 1.612 . S
C601 C366 1.788 . S
C595 C85 1.805 . S
C621 C423 1.499 . S
C615 N94 1.505 . S
C635 C131 1.801 . S
C641 C174 1.773 . S
C661 C231 1.446 . S
C655 N2 1.451 . S
C681 C318 1.795 . S
C675 C16 1.804 . S
C695 C39 1.580 . S
C701 C360 1.553 . S
C721 C399 1.721 . S
C715 N48 1.704 . S
C735 N71 1.453 . S
C741 C168 1.454 . S
C755 C108 1.758 . S
C761 C207 1.738 . S
C775 N117 1.474 . S
C781 C279 1.534 . S
C795 N35 1.705 . S
C801 C414 1.734 . S
C821 C183 1.626 . S
C815 C53 1.623 . S
C835 C76 1.847 . S
C841 C222 1.835 . S
C855 N104 1.495 . S
C861 C264 1.494 . S
C875 C122 1.749 . S
C881 C303 1.720 . S
C895 N12 1.419 . S
C901 C375 1.474 . S
