# Generated by pormake.
# Topology eea, (3,6)-cn, num edge types: 1
# Building blocks:
#     Node 0, Type 0, BuildingBlock: MIDCAF_clean_linker_0, # of connection points: 3
#     Node 1, Type 0, BuildingBlock: MIDCAF_clean_linker_0, # of connection points: 3
#     Node 2, Type 0, BuildingBlock: MIDCAF_clean_linker_0, # of connection points: 3
#     Node 3, Type 0, BuildingBlock: MIDCAF_clean_linker_0, # of connection points: 3
#     Node 4, Type 0, BuildingBlock: MIDCAF_clean_linker_0, # of connection points: 3
#     Node 5, Type 0, BuildingBlock: MIDCAF_clean_linker_0, # of connection points: 3
#     Node 6, Type 0, BuildingBlock: MIDCAF_clean_linker_0, # of connection points: 3
#     Node 7, Type 0, BuildingBlock: MIDCAF_clean_linker_0, # of connection points: 3
#     Node 8, Type 0, BuildingBlock: MIDCAF_clean_linker_0, # of connection points: 3
#     Node 9, Type 0, BuildingBlock: MIDCAF_clean_linker_0, # of connection points: 3
#     Node 10, Type 0, BuildingBlock: MIDCAF_clean_linker_0, # of connection points: 3
#     Node 11, Type 0, BuildingBlock: MIDCAF_clean_linker_0, # of connection points: 3
#     Node 12, Type 0, BuildingBlock: MIDCAF_clean_linker_0, # of connection points: 3
#     Node 13, Type 0, BuildingBlock: MIDCAF_clean_linker_0, # of connection points: 3
#     Node 14, Type 0, BuildingBlock: MIDCAF_clean_linker_0, # of connection points: 3
#     Node 15, Type 0, BuildingBlock: MIDCAF_clean_linker_0, # of connection points: 3
#     Node 16, Type 0, BuildingBlock: MIDCAF_clean_linker_0, # of connection points: 3
#     Node 17, Type 0, BuildingBlock: MIDCAF_clean_linker_0, # of connection points: 3
#     Node 18, Type 1, BuildingBlock: CIFDUS_clean_sbu_1, # of connection points: 6
#     Node 19, Type 1, BuildingBlock: CIFDUS_clean_sbu_1, # of connection points: 6
#     Node 20, Type 1, BuildingBlock: CIFDUS_clean_sbu_1, # of connection points: 6
#     Node 21, Type 1, BuildingBlock: CIFDUS_clean_sbu_1, # of connection points: 6
#     Node 22, Type 1, BuildingBlock: CIFDUS_clean_sbu_1, # of connection points: 6
#     Node 23, Type 1, BuildingBlock: CIFDUS_clean_sbu_1, # of connection points: 6
#     Node 24, Type 1, BuildingBlock: CIFDUS_clean_sbu_1, # of connection points: 6
#     Node 25, Type 1, BuildingBlock: CIFDUS_clean_sbu_1, # of connection points: 6
#     Node 26, Type 1, BuildingBlock: CIFDUS_clean_sbu_1, # of connection points: 6
#     Edge 27, Type (0, 1), BuildingBlock: MIFKUJ_clean_linker_0, # of connection points: 2
#     Edge 28, Type (0, 1), BuildingBlock: MIFKUJ_clean_linker_0, # of connection points: 2
#     Edge 29, Type (0, 1), BuildingBlock: MIFKUJ_clean_linker_0, # of connection points: 2
#     Edge 30, Type (0, 1), BuildingBlock: MIFKUJ_clean_linker_0, # of connection points: 2
#     Edge 31, Type (0, 1), BuildingBlock: MIFKUJ_clean_linker_0, # of connection points: 2
#     Edge 32, Type (0, 1), BuildingBlock: MIFKUJ_clean_linker_0, # of connection points: 2
#     Edge 33, Type (0, 1), BuildingBlock: MIFKUJ_clean_linker_0, # of connection points: 2
#     Edge 34, Type (0, 1), BuildingBlock: MIFKUJ_clean_linker_0, # of connection points: 2
#     Edge 35, Type (0, 1), BuildingBlock: MIFKUJ_clean_linker_0, # of connection points: 2
#     Edge 36, Type (0, 1), BuildingBlock: MIFKUJ_clean_linker_0, # of connection points: 2
#     Edge 37, Type (0, 1), BuildingBlock: MIFKUJ_clean_linker_0, # of connection points: 2
#     Edge 38, Type (0, 1), BuildingBlock: MIFKUJ_clean_linker_0, # of connection points: 2
#     Edge 39, Type (0, 1), BuildingBlock: MIFKUJ_clean_linker_0, # of connection points: 2
#     Edge 40, Type (0, 1), BuildingBlock: MIFKUJ_clean_linker_0, # of connection points: 2
#     Edge 41, Type (0, 1), BuildingBlock: MIFKUJ_clean_linker_0, # of connection points: 2
#     Edge 42, Type (0, 1), BuildingBlock: MIFKUJ_clean_linker_0, # of connection points: 2
#     Edge 43, Type (0, 1), BuildingBlock: MIFKUJ_clean_linker_0, # of connection points: 2
#     Edge 44, Type (0, 1), BuildingBlock: MIFKUJ_clean_linker_0, # of connection points: 2
#     Edge 45, Type (0, 1), BuildingBlock: MIFKUJ_clean_linker_0, # of connection points: 2
#     Edge 46, Type (0, 1), BuildingBlock: MIFKUJ_clean_linker_0, # of connection points: 2
#     Edge 47, Type (0, 1), BuildingBlock: MIFKUJ_clean_linker_0, # of connection points: 2
#     Edge 48, Type (0, 1), BuildingBlock: MIFKUJ_clean_linker_0, # of connection points: 2
#     Edge 49, Type (0, 1), BuildingBlock: MIFKUJ_clean_linker_0, # of connection points: 2
#     Edge 50, Type (0, 1), BuildingBlock: MIFKUJ_clean_linker_0, # of connection points: 2
#     Edge 51, Type (0, 1), BuildingBlock: MIFKUJ_clean_linker_0, # of connection points: 2
#     Edge 52, Type (0, 1), BuildingBlock: MIFKUJ_clean_linker_0, # of connection points: 2
#     Edge 53, Type (0, 1), BuildingBlock: MIFKUJ_clean_linker_0, # of connection points: 2
#     Edge 54, Type (0, 1), BuildingBlock: MIFKUJ_clean_linker_0, # of connection points: 2
#     Edge 55, Type (0, 1), BuildingBlock: MIFKUJ_clean_linker_0, # of connection points: 2
#     Edge 56, Type (0, 1), BuildingBlock: MIFKUJ_clean_linker_0, # of connection points: 2
#     Edge 57, Type (0, 1), BuildingBlock: MIFKUJ_clean_linker_0, # of connection points: 2
#     Edge 58, Type (0, 1), BuildingBlock: MIFKUJ_clean_linker_0, # of connection points: 2
#     Edge 59, Type (0, 1), BuildingBlock: MIFKUJ_clean_linker_0, # of connection points: 2
#     Edge 60, Type (0, 1), BuildingBlock: MIFKUJ_clean_linker_0, # of connection points: 2
#     Edge 61, Type (0, 1), BuildingBlock: MIFKUJ_clean_linker_0, # of connection points: 2
#     Edge 62, Type (0, 1), BuildingBlock: MIFKUJ_clean_linker_0, # of connection points: 2
#     Edge 63, Type (0, 1), BuildingBlock: MIFKUJ_clean_linker_0, # of connection points: 2
#     Edge 64, Type (0, 1), BuildingBlock: MIFKUJ_clean_linker_0, # of connection points: 2
#     Edge 65, Type (0, 1), BuildingBlock: MIFKUJ_clean_linker_0, # of connection points: 2
#     Edge 66, Type (0, 1), BuildingBlock: MIFKUJ_clean_linker_0, # of connection points: 2
#     Edge 67, Type (0, 1), BuildingBlock: MIFKUJ_clean_linker_0, # of connection points: 2
#     Edge 68, Type (0, 1), BuildingBlock: MIFKUJ_clean_linker_0, # of connection points: 2
#     Edge 69, Type (0, 1), BuildingBlock: MIFKUJ_clean_linker_0, # of connection points: 2
#     Edge 70, Type (0, 1), BuildingBlock: MIFKUJ_clean_linker_0, # of connection points: 2
#     Edge 71, Type (0, 1), BuildingBlock: MIFKUJ_clean_linker_0, # of connection points: 2
#     Edge 72, Type (0, 1), BuildingBlock: MIFKUJ_clean_linker_0, # of connection points: 2
#     Edge 73, Type (0, 1), BuildingBlock: MIFKUJ_clean_linker_0, # of connection points: 2
#     Edge 74, Type (0, 1), BuildingBlock: MIFKUJ_clean_linker_0, # of connection points: 2
#     Edge 75, Type (0, 1), BuildingBlock: MIFKUJ_clean_linker_0, # of connection points: 2
#     Edge 76, Type (0, 1), BuildingBlock: MIFKUJ_clean_linker_0, # of connection points: 2
#     Edge 77, Type (0, 1), BuildingBlock: MIFKUJ_clean_linker_0, # of connection points: 2
#     Edge 78, Type (0, 1), BuildingBlock: MIFKUJ_clean_linker_0, # of connection points: 2
#     Edge 79, Type (0, 1), BuildingBlock: MIFKUJ_clean_linker_0, # of connection points: 2
#     Edge 80, Type (0, 1), BuildingBlock: MIFKUJ_clean_linker_0, # of connection points: 2
# Relax obj value: 0.100
# Max RMSD: 0.184
# Mean RMSD: 0.094
data_MOF--net-eea--node1-CIFDUS_clean_sbu_1--node2-MIDCAF_clean_linker_0--edge1-MIFKUJ_clean_linker_0
_symmetry_space_group_name_H-M    P1
_symmetry_Int_Tables_number       1
_symmetry_cell_setting            triclinic
loop_
_symmetry_equiv_pos_as_xyz
'x, y, z'
_cell_length_a     82.459486
_cell_length_b     81.680194
_cell_length_c     83.791963
_cell_angle_alpha  90.174308
_cell_angle_beta   90.232155
_cell_angle_gamma 120.03262
loop_
_atom_site_label
_atom_site_type_symbol
_atom_site_fract_x
_atom_site_fract_y
_atom_site_fract_z
_atom_type_partial_charge
C0 C 0.2517 0.06729 0.39499 0.0
C1 C 0.24723 0.06277 0.37876 0.0
C2 C 0.2489 0.07706 0.36838 0.0
C3 C 0.25474 0.09534 0.37416 0.0
H4 H 0.24068 0.13992 0.37079 0.0
H5 H 0.22933 0.16027 0.36019 0.0
H6 H 0.26675 0.20513 0.39208 0.0
H7 H 0.27812 0.18501 0.40261 0.0
H8 H 0.27626 0.16585 0.43941 0.0
H9 H 0.28492 0.17018 0.46774 0.0
H10 H 0.3024 0.12866 0.4639 0.0
H11 H 0.29343 0.12387 0.43567 0.0
H12 H 0.26081 0.08821 0.41331 0.0
H13 H 0.2501 0.05664 0.40349 0.0
H14 H 0.24575 0.07417 0.35578 0.0
H15 H 0.25579 0.10601 0.36591 0.0
N16 N 0.26112 0.13095 0.389 0.0
N17 N 0.27314 0.15229 0.41056 0.0
N18 N 0.27276 0.12351 0.41177 0.0
C19 C 0.26535 0.14785 0.39571 0.0
C20 C 0.27696 0.14024 0.41864 0.0
C21 C 0.26488 0.11873 0.39699 0.0
C22 C 0.26016 0.16074 0.38769 0.0
C23 C 0.2467 0.15422 0.37535 0.0
C24 C 0.24013 0.16583 0.36933 0.0
C25 C 0.24708 0.18424 0.37538 0.0
C26 C 0.26123 0.19106 0.38709 0.0
C27 C 0.26764 0.17944 0.39321 0.0
C28 C 0.28406 0.14443 0.43528 0.0
C29 C 0.28216 0.15779 0.44452 0.0
C30 C 0.28705 0.16027 0.46071 0.0
C31 C 0.29429 0.14975 0.46783 0.0
C32 C 0.29691 0.13697 0.45855 0.0
C33 C 0.29172 0.13422 0.44244 0.0
C34 C 0.25921 0.09972 0.39041 0.0
C35 C 0.25774 0.08549 0.40068 0.0
C36 C 0.93203 0.18619 0.3893 0.0
C37 C 0.93732 0.18092 0.37513 0.0
C38 C 0.92426 0.16438 0.36713 0.0
C39 C 0.90636 0.15309 0.37334 0.0
H40 H 0.86215 0.09941 0.37022 0.0
H41 H 0.84222 0.06746 0.35963 0.0
H42 H 0.79664 0.06123 0.38899 0.0
H43 H 0.81656 0.09298 0.39992 0.0
H44 H 0.83177 0.11344 0.43516 0.0
H45 H 0.82664 0.11749 0.46307 0.0
H46 H 0.87838 0.17103 0.46428 0.0
H47 H 0.88379 0.16689 0.43637 0.0
H48 H 0.91067 0.17915 0.40668 0.0
H49 H 0.9419 0.19881 0.39579 0.0
H50 H 0.92791 0.16013 0.35608 0.0
H51 H 0.89673 0.14029 0.36694 0.0
N52 N 0.87026 0.1292 0.38721 0.0
N53 N 0.8497 0.1206 0.40882 0.0
N54 N 0.87855 0.14886 0.40977 0.0
C55 C 0.8537 0.11685 0.39401 0.0
C56 C 0.86205 0.13659 0.41679 0.0
C57 C 0.88271 0.1453 0.39494 0.0
C58 C 0.84097 0.09864 0.38605 0.0
C59 C 0.8478 0.09137 0.37426 0.0
C60 C 0.83646 0.07311 0.3682 0.0
C61 C 0.81801 0.06204 0.37355 0.0
C62 C 0.81083 0.06964 0.38464 0.0
C63 C 0.82226 0.08773 0.39094 0.0
C64 C 0.85824 0.1398 0.43346 0.0
C65 C 0.84203 0.12617 0.44128 0.0
C66 C 0.83902 0.12852 0.45731 0.0
C67 C 0.85212 0.14457 0.46591 0.0
C68 C 0.86815 0.15839 0.45804 0.0
C69 C 0.87118 0.15605 0.44199 0.0
C70 C 0.90119 0.15805 0.38776 0.0
C71 C 0.91416 0.17486 0.39557 0.0
C72 C 0.80816 0.73582 0.38833 0.0
C73 C 0.81406 0.74894 0.37581 0.0
C74 C 0.83143 0.75465 0.36861 0.0
C75 C 0.84308 0.74811 0.37436 0.0
H76 H 0.89288 0.75037 0.3666 0.0
H77 H 0.92375 0.76208 0.35498 0.0
H78 H 0.93993 0.74024 0.39511 0.0
H79 H 0.90907 0.72828 0.40669 0.0
H80 H 0.88473 0.71734 0.43809 0.0
H81 H 0.88057 0.71037 0.46658 0.0
H82 H 0.82512 0.70333 0.46389 0.0
H83 H 0.8292 0.71043 0.43559 0.0
H84 H 0.81507 0.71972 0.40413 0.0
H85 H 0.79466 0.73081 0.39388 0.0
H86 H 0.83642 0.76483 0.359 0.0
H87 H 0.85669 0.75336 0.36894 0.0
N88 N 0.86727 0.73542 0.38778 0.0
N89 N 0.87677 0.72529 0.41028 0.0
N90 N 0.84766 0.72378 0.40998 0.0
C91 C 0.88022 0.73248 0.39527 0.0
C92 C 0.86047 0.72085 0.4177 0.0
C93 C 0.85091 0.731 0.39503 0.0
C94 C 0.89848 0.73844 0.38764 0.0
C95 C 0.90293 0.7479 0.37291 0.0
C96 C 0.92066 0.75473 0.36627 0.0
C97 C 0.93425 0.75214 0.37416 0.0
C98 C 0.92966 0.74228 0.38867 0.0
C99 C 0.91198 0.73551 0.39534 0.0
C100 C 0.85738 0.71466 0.43455 0.0
C101 C 0.87158 0.71414 0.44352 0.0
C102 C 0.86921 0.71012 0.45984 0.0
C103 C 0.85264 0.7066 0.46746 0.0
C104 C 0.83821 0.70641 0.45838 0.0
C105 C 0.84053 0.71037 0.44212 0.0
C106 C 0.83762 0.73583 0.38749 0.0
C107 C 0.81983 0.72939 0.39414 0.0
C108 C 0.06796 0.25317 0.61481 0.0
C109 C 0.065 0.25036 0.63134 0.0
C110 C 0.08041 0.25447 0.64129 0.0
C111 C 0.09824 0.26101 0.63481 0.0
H112 H 0.14914 0.26052 0.64217 0.0
H113 H 0.1686 0.24881 0.65353 0.0
H114 H 0.19694 0.25773 0.60838 0.0
H115 H 0.17808 0.27011 0.59725 0.0
H116 H 0.17145 0.2953 0.57093 0.0
H117 H 0.17542 0.3042 0.54282 0.0
H118 H 0.11869 0.29372 0.54086 0.0
H119 H 0.11459 0.28486 0.56889 0.0
H120 H 0.08734 0.26174 0.59559 0.0
H121 H 0.05644 0.2497 0.60667 0.0
H122 H 0.07875 0.25272 0.65409 0.0
H123 H 0.1098 0.26395 0.64273 0.0
N124 N 0.13246 0.26705 0.61859 0.0
N125 N 0.15224 0.27894 0.59639 0.0
N126 N 0.12325 0.27765 0.59623 0.0
C127 C 0.14884 0.2714 0.61129 0.0
C128 C 0.13956 0.28223 0.58883 0.0
C129 C 0.1196 0.27015 0.6111 0.0
C130 C 0.16192 0.26614 0.61875 0.0
C131 C 0.15969 0.26021 0.63473 0.0
C132 C 0.17078 0.25336 0.64122 0.0
C133 C 0.18425 0.25211 0.63186 0.0
C134 C 0.18691 0.25869 0.61605 0.0
C135 C 0.17597 0.26572 0.60962 0.0
C136 C 0.14266 0.2892 0.57218 0.0
C137 C 0.15986 0.29505 0.56457 0.0
C138 C 0.16219 0.30024 0.5485 0.0
C139 C 0.14731 0.29952 0.53969 0.0
C140 C 0.13031 0.2942 0.54736 0.0
C141 C 0.12803 0.2892 0.56345 0.0
C142 C 0.10106 0.26386 0.61829 0.0
C143 C 0.08574 0.26 0.60841 0.0
C144 C 0.73634 0.8088 0.61705 0.0
C145 C 0.74853 0.8142 0.63023 0.0
C146 C 0.75242 0.83055 0.63887 0.0
C147 C 0.74525 0.84198 0.63372 0.0
H148 H 0.75027 0.89465 0.64073 0.0
H149 H 0.76224 0.92649 0.65158 0.0
H150 H 0.73352 0.93839 0.61413 0.0
H151 H 0.72134 0.90673 0.60351 0.0
H152 H 0.7117 0.88374 0.57166 0.0
H153 H 0.70418 0.88049 0.54332 0.0
H154 H 0.70296 0.82702 0.54228 0.0
H155 H 0.7102 0.83004 0.57073 0.0
H156 H 0.72031 0.81578 0.60138 0.0
H157 H 0.73279 0.79604 0.61038 0.0
H158 H 0.76177 0.83501 0.6491 0.0
H159 H 0.74919 0.85495 0.64018 0.0
N160 N 0.73286 0.86686 0.62046 0.0
N161 N 0.72203 0.87622 0.59832 0.0
N162 N 0.72147 0.84733 0.59779 0.0
C163 C 0.72936 0.87972 0.61333 0.0
C164 C 0.71803 0.86007 0.59045 0.0
C165 C 0.72878 0.85053 0.61279 0.0
C166 C 0.73498 0.89815 0.62113 0.0
C167 C 0.74627 0.90396 0.63496 0.0
C168 C 0.75322 0.92224 0.64114 0.0
C169 C 0.7489 0.935 0.63369 0.0
C170 C 0.73695 0.92887 0.6203 0.0
C171 C 0.73008 0.9107 0.61411 0.0
C172 C 0.71172 0.85723 0.57353 0.0
C173 C 0.70968 0.87119 0.56548 0.0
C174 C 0.70549 0.8694 0.54917 0.0
C175 C 0.70321 0.85361 0.54049 0.0
C176 C 0.70456 0.83932 0.54863 0.0
C177 C 0.70879 0.84111 0.56495 0.0
C178 C 0.73404 0.8372 0.61985 0.0
C179 C 0.72916 0.82013 0.61193 0.0
C180 C 0.1855 0.9296 0.61059 0.0
C181 C 0.18602 0.93459 0.62674 0.0
C182 C 0.17507 0.92028 0.63773 0.0
C183 C 0.16381 0.90151 0.63258 0.0
H184 H 0.10562 0.85829 0.63415 0.0
H185 H 0.07437 0.83926 0.64482 0.0
H186 H 0.06799 0.79072 0.61849 0.0
H187 H 0.09906 0.81015 0.60717 0.0
H188 H 0.11639 0.83275 0.56697 0.0
H189 H 0.12173 0.83088 0.53842 0.0
H190 H 0.18119 0.86672 0.54582 0.0
H191 H 0.17598 0.86904 0.57423 0.0
H192 H 0.17452 0.90783 0.59296 0.0
H193 H 0.19317 0.94018 0.60163 0.0
H194 H 0.17522 0.92355 0.65028 0.0
H195 H 0.15538 0.89079 0.64123 0.0
N196 N 0.13524 0.86519 0.61827 0.0
N197 N 0.1265 0.8432 0.59721 0.0
N198 N 0.15464 0.87208 0.59603 0.0
C199 C 0.12289 0.84807 0.61178 0.0
C200 C 0.14249 0.85514 0.58935 0.0
C201 C 0.15117 0.87723 0.61044 0.0
C202 C 0.10477 0.83579 0.61968 0.0
C203 C 0.09766 0.8435 0.63076 0.0
C204 C 0.0797 0.83251 0.63698 0.0
C205 C 0.0685 0.81342 0.63248 0.0
C206 C 0.07601 0.80547 0.62196 0.0
C207 C 0.09388 0.81657 0.61554 0.0
C208 C 0.14576 0.85112 0.57282 0.0
C209 C 0.13063 0.8399 0.56258 0.0
C210 C 0.13363 0.83891 0.54627 0.0
C211 C 0.15184 0.84871 0.54006 0.0
C212 C 0.16705 0.85899 0.55041 0.0
C213 C 0.16403 0.86032 0.56663 0.0
C214 C 0.16354 0.89669 0.61642 0.0
C215 C 0.17463 0.91094 0.60556 0.0
C216 C 0.93147 0.40648 0.7218 0.0
C217 C 0.91638 0.39791 0.71095 0.0
C218 C 0.90888 0.40877 0.70482 0.0
C219 C 0.9156 0.42735 0.71009 0.0
H220 H 0.91497 0.47715 0.70132 0.0
H221 H 0.90209 0.49636 0.69106 0.0
H222 H 0.92793 0.53575 0.73001 0.0
H223 H 0.94093 0.51682 0.74041 0.0
H224 H 0.95771 0.50577 0.77038 0.0
H225 H 0.96486 0.50929 0.79905 0.0
H226 H 0.95308 0.45161 0.80086 0.0
H227 H 0.94628 0.44802 0.77235 0.0
H228 H 0.94917 0.43082 0.73603 0.0
H229 H 0.938 0.3988 0.72642 0.0
H230 H 0.89718 0.40266 0.69653 0.0
H231 H 0.90899 0.43504 0.70564 0.0
N232 N 0.93097 0.4662 0.72189 0.0
N233 N 0.94165 0.48605 0.74444 0.0
N234 N 0.94208 0.45762 0.7443 0.0
C235 C 0.93448 0.48248 0.72935 0.0
C236 C 0.94547 0.47367 0.75201 0.0
C237 C 0.93494 0.4538 0.72925 0.0
C238 C 0.92881 0.49528 0.72183 0.0
C239 C 0.91823 0.49007 0.70757 0.0
C240 C 0.91088 0.50102 0.70165 0.0
C241 C 0.91412 0.51738 0.70981 0.0
C242 C 0.92538 0.52315 0.72355 0.0
C243 C 0.93272 0.51224 0.7295 0.0
C244 C 0.95135 0.47659 0.76903 0.0
C245 C 0.95683 0.49389 0.77685 0.0
C246 C 0.96094 0.49595 0.79322 0.0
C247 C 0.95932 0.48065 0.80208 0.0
C248 C 0.95423 0.46353 0.79426 0.0
C249 C 0.95044 0.46155 0.77791 0.0
C250 C 0.9298 0.43538 0.72176 0.0
C251 C 0.93798 0.42492 0.72724 0.0
C252 C 0.59656 0.52144 0.7206 0.0
C253 C 0.603 0.51525 0.7077 0.0
C254 C 0.59054 0.49803 0.70017 0.0
C255 C 0.57234 0.4868 0.70595 0.0
H256 H 0.52316 0.43484 0.69915 0.0
H257 H 0.50325 0.40209 0.69004 0.0
H258 H 0.46599 0.39174 0.72953 0.0
H259 H 0.48543 0.42413 0.73858 0.0
H260 H 0.50523 0.44415 0.77034 0.0
H261 H 0.50055 0.44788 0.79824 0.0
H262 H 0.53887 0.50808 0.79489 0.0
H263 H 0.54428 0.50412 0.76681 0.0
H264 H 0.57419 0.51526 0.73664 0.0
H265 H 0.60566 0.53486 0.72642 0.0
H266 H 0.59509 0.49283 0.69024 0.0
H267 H 0.56333 0.47328 0.70023 0.0
N268 N 0.53541 0.46322 0.7195 0.0
N269 N 0.51598 0.45478 0.74185 0.0
N270 N 0.54431 0.48343 0.74187 0.0
C271 C 0.51925 0.45078 0.72691 0.0
C272 C 0.52833 0.47098 0.74943 0.0
C273 C 0.54795 0.47969 0.72688 0.0
C274 C 0.50612 0.43207 0.71977 0.0
C275 C 0.51055 0.42568 0.70573 0.0
C276 C 0.49918 0.40697 0.70049 0.0
C277 C 0.48332 0.39441 0.70928 0.0
C278 C 0.47834 0.4011 0.72273 0.0
C279 C 0.48953 0.4197 0.72787 0.0
C280 C 0.52506 0.47387 0.76629 0.0
C281 C 0.51259 0.45824 0.77546 0.0
C282 C 0.50981 0.46041 0.79152 0.0
C283 C 0.51915 0.47831 0.79886 0.0
C284 C 0.53158 0.49403 0.78969 0.0
C285 C 0.5346 0.49181 0.77357 0.0
C286 C 0.56626 0.49254 0.71941 0.0
C287 C 0.57845 0.51022 0.72641 0.0
C288 C 0.48551 0.08341 0.72786 0.0
C289 C 0.4861 0.0879 0.71161 0.0
C290 C 0.49742 0.08429 0.70133 0.0
C291 C 0.508 0.07655 0.70723 0.0
H292 H 0.56397 0.08888 0.70599 0.0
H293 H 0.59462 0.09978 0.69478 0.0
H294 H 0.59934 0.05688 0.72115 0.0
H295 H 0.56881 0.04662 0.73314 0.0
H296 H 0.54875 0.04237 0.77081 0.0
H297 H 0.54486 0.03536 0.79943 0.0
H298 H 0.49515 0.04028 0.79939 0.0
H299 H 0.49875 0.04708 0.77108 0.0
H300 H 0.49515 0.07244 0.74633 0.0
H301 H 0.47731 0.08637 0.73623 0.0
H302 H 0.49801 0.08732 0.6887 0.0
H303 H 0.51668 0.07405 0.69906 0.0
N304 N 0.53449 0.0673 0.72211 0.0
N305 N 0.54276 0.05453 0.74366 0.0
N306 N 0.51582 0.05726 0.7449 0.0
C307 C 0.54631 0.06214 0.72876 0.0
C308 C 0.5274 0.05198 0.75178 0.0
C309 C 0.51917 0.06483 0.73009 0.0
C310 C 0.564 0.06697 0.72058 0.0
C311 C 0.5714 0.08157 0.70928 0.0
C312 C 0.58902 0.08777 0.70272 0.0
C313 C 0.59962 0.07931 0.70705 0.0
C314 C 0.59179 0.06403 0.71778 0.0
C315 C 0.57424 0.05805 0.72459 0.0
C316 C 0.52422 0.04554 0.76862 0.0
C317 C 0.53687 0.04174 0.77686 0.0
C318 C 0.53467 0.03772 0.79322 0.0
C319 C 0.5199 0.03763 0.80161 0.0
C320 C 0.50687 0.04065 0.79326 0.0
C321 C 0.50894 0.04446 0.77698 0.0
C322 C 0.50733 0.07208 0.7235 0.0
C323 C 0.49584 0.07546 0.7337 0.0
C324 C 0.73701 0.59722 0.95083 0.0
C325 C 0.7308 0.58552 0.96432 0.0
C326 C 0.74334 0.58145 0.97236 0.0
C327 C 0.76142 0.58814 0.96652 0.0
H328 H 0.80511 0.57813 0.96976 0.0
H329 H 0.82442 0.56585 0.9806 0.0
H330 H 0.86929 0.60199 0.94895 0.0
H331 H 0.85004 0.61426 0.93797 0.0
H332 H 0.83776 0.62724 0.90555 0.0
H333 H 0.84255 0.63606 0.87747 0.0
H334 H 0.78684 0.62826 0.8746 0.0
H335 H 0.78191 0.61942 0.90266 0.0
H336 H 0.75915 0.61244 0.93431 0.0
H337 H 0.72777 0.60092 0.94459 0.0
H338 H 0.73892 0.57242 0.98276 0.0
H339 H 0.77051 0.58418 0.97268 0.0
N340 N 0.79754 0.59974 0.95252 0.0
N341 N 0.81776 0.61119 0.93061 0.0
N342 N 0.78975 0.61197 0.93042 0.0
C343 C 0.81373 0.6033 0.94536 0.0
C344 C 0.80582 0.61556 0.92305 0.0
C345 C 0.78555 0.60419 0.94519 0.0
C346 C 0.826 0.59712 0.95293 0.0
C347 C 0.81916 0.58363 0.96521 0.0
C348 C 0.83014 0.5765 0.97136 0.0
C349 C 0.84827 0.58293 0.96555 0.0
C350 C 0.85537 0.59688 0.95369 0.0
C351 C 0.84431 0.60383 0.94737 0.0
C352 C 0.80941 0.62252 0.90639 0.0
C353 C 0.82657 0.62755 0.89901 0.0
C354 C 0.82936 0.63268 0.88293 0.0
C355 C 0.81502 0.63274 0.87386 0.0
C356 C 0.79804 0.62813 0.88129 0.0
C357 C 0.7953 0.62318 0.8974 0.0
C358 C 0.7673 0.59902 0.95252 0.0
C359 C 0.75504 0.60388 0.94499 0.0
C360 C 0.40576 0.1431 0.95297 0.0
C361 C 0.41946 0.15014 0.96504 0.0
C362 C 0.42531 0.16806 0.97161 0.0
C363 C 0.41786 0.17902 0.96592 0.0
H364 H 0.42516 0.23313 0.96759 0.0
H365 H 0.4367 0.26543 0.9765 0.0
H366 H 0.39097 0.26612 0.95162 0.0
H367 H 0.38012 0.23411 0.94195 0.0
H368 H 0.37147 0.21103 0.90671 0.0
H369 H 0.36296 0.20709 0.87849 0.0
H370 H 0.37593 0.16216 0.87482 0.0
H371 H 0.38446 0.166 0.90304 0.0
H372 H 0.38839 0.14854 0.93743 0.0
H373 H 0.40113 0.12932 0.9477 0.0
H374 H 0.43582 0.17367 0.98099 0.0
H375 H 0.4229 0.19295 0.97103 0.0
N376 N 0.40174 0.20095 0.95345 0.0
N377 N 0.38875 0.20845 0.93166 0.0
N378 N 0.39043 0.18066 0.93124 0.0
C379 C 0.39677 0.21277 0.94641 0.0
C380 C 0.38559 0.19244 0.92396 0.0
C381 C 0.39838 0.18473 0.94603 0.0
C382 C 0.4019 0.23119 0.95387 0.0
C383 C 0.41743 0.2401 0.9642 0.0
C384 C 0.42399 0.25865 0.9694 0.0
C385 C 0.41497 0.26863 0.96462 0.0
C386 C 0.39865 0.25916 0.95516 0.0
C387 C 0.39232 0.24074 0.9497 0.0
C388 C 0.37873 0.18889 0.90719 0.0
C389 C 0.37236 0.20018 0.89997 0.0
C390 C 0.36741 0.19789 0.8838 0.0
C391 C 0.36888 0.18439 0.87445 0.0
C392 C 0.37486 0.17282 0.88171 0.0
C393 C 0.37962 0.17496 0.89792 0.0
C394 C 0.40473 0.17237 0.95331 0.0
C395 C 0.39855 0.15416 0.94708 0.0
C396 C 0.86101 0.25965 0.95229 0.0
C397 C 0.85476 0.26707 0.96438 0.0
C398 C 0.83707 0.25542 0.97115 0.0
C399 C 0.82554 0.23697 0.96547 0.0
H400 H 0.77594 0.18593 0.97352 0.0
H401 H 0.7443 0.16644 0.9838 0.0
H402 H 0.72877 0.13181 0.94124 0.0
H403 H 0.76023 0.15119 0.93086 0.0
H404 H 0.78664 0.16301 0.90182 0.0
H405 H 0.79119 0.16042 0.87338 0.0
H406 H 0.84547 0.21105 0.87624 0.0
H407 H 0.84095 0.21386 0.90453 0.0
H408 H 0.85453 0.23633 0.93682 0.0
H409 H 0.8745 0.26832 0.94674 0.0
H410 H 0.83198 0.26073 0.98061 0.0
H411 H 0.81175 0.22856 0.97059 0.0
N412 N 0.8018 0.19922 0.95199 0.0
N413 N 0.79331 0.17956 0.92936 0.0
N414 N 0.82217 0.20768 0.93023 0.0
C415 C 0.78925 0.1831 0.94424 0.0
C416 C 0.80976 0.19175 0.92228 0.0
C417 C 0.81838 0.21153 0.94508 0.0
C418 C 0.77064 0.1703 0.95127 0.0
C419 C 0.76586 0.17407 0.96639 0.0
C420 C 0.74775 0.16287 0.97233 0.0
C421 C 0.73405 0.14775 0.96324 0.0
C422 C 0.73898 0.14357 0.94839 0.0
C423 C 0.75707 0.15466 0.94249 0.0
C424 C 0.81332 0.18878 0.90548 0.0
C425 C 0.79963 0.17351 0.89645 0.0
C426 C 0.80224 0.17197 0.88014 0.0
C427 C 0.81856 0.1857 0.87254 0.0
C428 C 0.83256 0.20049 0.8817 0.0
C429 C 0.82999 0.20201 0.89797 0.0
C430 C 0.83142 0.22991 0.95277 0.0
C431 C 0.84947 0.24132 0.94653 0.0
C432 C 0.58449 0.7342 0.06138 0.0
C433 C 0.58005 0.7297 0.04516 0.0
C434 C 0.58172 0.74397 0.03476 0.0
C435 C 0.58766 0.76228 0.04052 0.0
H436 H 0.57573 0.8076 0.03613 0.0
H437 H 0.56433 0.82772 0.02525 0.0
H438 H 0.59965 0.87206 0.05842 0.0
H439 H 0.61112 0.85212 0.06927 0.0
H440 H 0.61079 0.83358 0.10581 0.0
H441 H 0.61948 0.83769 0.1341 0.0
H442 H 0.63354 0.79353 0.1304 0.0
H443 H 0.62495 0.78939 0.10226 0.0
H444 H 0.59367 0.75513 0.07969 0.0
H445 H 0.58288 0.72353 0.06987 0.0
H446 H 0.57854 0.74104 0.02217 0.0
H447 H 0.58877 0.77296 0.03226 0.0
N448 N 0.59471 0.79817 0.05524 0.0
N449 N 0.60667 0.81943 0.07689 0.0
N450 N 0.60573 0.79038 0.07817 0.0
C451 C 0.5991 0.81513 0.06194 0.0
C452 C 0.6101 0.80714 0.08505 0.0
C453 C 0.59806 0.78574 0.06333 0.0
C454 C 0.59414 0.82812 0.05375 0.0
C455 C 0.58132 0.82175 0.04093 0.0
C456 C 0.57472 0.83323 0.03472 0.0
C457 C 0.58099 0.85139 0.04107 0.0
C458 C 0.59465 0.85818 0.05321 0.0
C459 C 0.6011 0.84666 0.05952 0.0
C460 C 0.61708 0.81109 0.10176 0.0
C461 C 0.61596 0.82491 0.11098 0.0
C462 C 0.62081 0.82719 0.1272 0.0
C463 C 0.62713 0.81589 0.13446 0.0
C464 C 0.62887 0.80255 0.12511 0.0
C465 C 0.62383 0.80012 0.10899 0.0
C466 C 0.59218 0.76668 0.05676 0.0
C467 C 0.59059 0.75241 0.06706 0.0
C468 C 0.2629 0.85559 0.0533 0.0
C469 C 0.27041 0.84849 0.04198 0.0
C470 C 0.25908 0.82995 0.03618 0.0
C471 C 0.24097 0.81854 0.04206 0.0
H472 H 0.18853 0.76979 0.03249 0.0
H473 H 0.1689 0.73731 0.02261 0.0
H474 H 0.13706 0.72254 0.06614 0.0
H475 H 0.15615 0.75473 0.07599 0.0
H476 H 0.16437 0.78472 0.10192 0.0
H477 H 0.15989 0.78912 0.12992 0.0
H478 H 0.21556 0.8378 0.13226 0.0
H479 H 0.22024 0.83337 0.10417 0.0
H480 H 0.2398 0.84992 0.06832 0.0
H481 H 0.27102 0.86996 0.05772 0.0
H482 H 0.26442 0.82394 0.02757 0.0
H483 H 0.23285 0.80412 0.03772 0.0
N484 N 0.2032 0.79598 0.0546 0.0
N485 N 0.18364 0.78827 0.07685 0.0
N486 N 0.21203 0.81692 0.07641 0.0
C487 C 0.18705 0.78375 0.06211 0.0
C488 C 0.196 0.80479 0.08409 0.0
C489 C 0.21569 0.81266 0.06163 0.0
C490 C 0.17411 0.76487 0.05514 0.0
C491 C 0.17719 0.7597 0.03988 0.0
C492 C 0.16598 0.74117 0.03419 0.0
C493 C 0.15172 0.72753 0.04376 0.0
C494 C 0.14815 0.73284 0.05867 0.0
C495 C 0.15911 0.75132 0.06426 0.0
C496 C 0.19272 0.80862 0.10075 0.0
C497 C 0.17565 0.79648 0.1083 0.0
C498 C 0.17302 0.79904 0.12437 0.0
C499 C 0.1874 0.81376 0.13331 0.0
C500 C 0.20431 0.8262 0.12571 0.0
C501 C 0.20692 0.82371 0.10958 0.0
C502 C 0.23389 0.82536 0.05399 0.0
C503 C 0.24492 0.84412 0.05931 0.0
C504 C 0.14547 0.40953 0.05957 0.0
C505 C 0.14915 0.41788 0.04439 0.0
C506 C 0.16397 0.41883 0.03547 0.0
C507 C 0.17517 0.41201 0.04175 0.0
H508 H 0.22833 0.42166 0.03789 0.0
H509 H 0.25949 0.43368 0.02674 0.0
H510 H 0.27022 0.4 0.0601 0.0
H511 H 0.23907 0.38793 0.07138 0.0
H512 H 0.22109 0.39093 0.1077 0.0
H513 H 0.21718 0.38311 0.13607 0.0
H514 H 0.15776 0.36173 0.13161 0.0
H515 H 0.16158 0.36982 0.10328 0.0
H516 H 0.15363 0.39675 0.07774 0.0
H517 H 0.13427 0.40876 0.06683 0.0
H518 H 0.16697 0.42491 0.02363 0.0
H519 H 0.18664 0.41324 0.03461 0.0
N520 N 0.20061 0.40215 0.05664 0.0
N521 N 0.21009 0.39119 0.07858 0.0
N522 N 0.18164 0.39115 0.07931 0.0
C523 C 0.2133 0.39843 0.06361 0.0
C524 C 0.19426 0.38743 0.08648 0.0
C525 C 0.18471 0.39849 0.06436 0.0
C526 C 0.23127 0.40397 0.05565 0.0
C527 C 0.2372 0.4166 0.04274 0.0
C528 C 0.25507 0.42358 0.03639 0.0
C529 C 0.26724 0.41787 0.04267 0.0
C530 C 0.26104 0.40456 0.05503 0.0
C531 C 0.24325 0.39775 0.06153 0.0
C532 C 0.19164 0.38106 0.10325 0.0
C533 C 0.20715 0.38438 0.1127 0.0
C534 C 0.20497 0.38001 0.12894 0.0
C535 C 0.1872 0.37189 0.13594 0.0
C536 C 0.1716 0.36791 0.12641 0.0
C537 C 0.17381 0.37261 0.11024 0.0
C538 C 0.1718 0.40411 0.05712 0.0
C539 C 0.15664 0.40269 0.06586 0.0
C540 C 0.40129 0.92156 0.28059 0.0
C541 C 0.39757 0.91776 0.29695 0.0
C542 C 0.41239 0.92087 0.30723 0.0
C543 C 0.43037 0.92719 0.30124 0.0
H544 H 0.47242 0.91 0.30298 0.0
H545 H 0.49225 0.89829 0.31358 0.0
H546 H 0.53893 0.94049 0.28646 0.0
H547 H 0.51887 0.95156 0.27534 0.0
H548 H 0.4956 0.9421 0.23586 0.0
H549 H 0.50068 0.95033 0.20788 0.0
H550 H 0.46678 0.97694 0.21174 0.0
H551 H 0.46079 0.96757 0.23969 0.0
H552 H 0.42148 0.93057 0.26195 0.0
H553 H 0.39022 0.91898 0.27222 0.0
H554 H 0.41015 0.91842 0.31993 0.0
H555 H 0.44142 0.92923 0.30943 0.0
N556 N 0.46476 0.93279 0.28644 0.0
N557 N 0.48569 0.94415 0.26501 0.0
N558 N 0.45718 0.94385 0.26336 0.0
C559 C 0.4814 0.93678 0.27991 0.0
C560 C 0.4737 0.94778 0.25668 0.0
C561 C 0.45263 0.9364 0.27825 0.0
C562 C 0.49401 0.93153 0.28816 0.0
C563 C 0.48699 0.91693 0.29946 0.0
C564 C 0.4984 0.91027 0.30559 0.0
C565 C 0.51716 0.91825 0.30072 0.0
C566 C 0.52443 0.93364 0.29015 0.0
C567 C 0.51296 0.94008 0.28385 0.0
C568 C 0.47783 0.95422 0.23998 0.0
C569 C 0.48935 0.94985 0.23078 0.0
C570 C 0.49235 0.95469 0.2147 0.0
C571 C 0.48425 0.96444 0.20745 0.0
C572 C 0.473 0.96917 0.21679 0.0
C573 C 0.46968 0.96394 0.23285 0.0
C574 C 0.43396 0.93078 0.28486 0.0
C575 C 0.41927 0.92813 0.27466 0.0
C576 C 0.07849 0.47937 0.28052 0.0
C577 C 0.08333 0.47967 0.29667 0.0
C578 C 0.08222 0.49275 0.30699 0.0
C579 C 0.07648 0.5052 0.30121 0.0
H580 H 0.08351 0.56124 0.3081 0.0
H581 H 0.09458 0.59308 0.31869 0.0
H582 H 0.06995 0.60537 0.27814 0.0
H583 H 0.05838 0.57378 0.26803 0.0
H584 H 0.05268 0.55275 0.23661 0.0
H585 H 0.04462 0.54909 0.20834 0.0
H586 H 0.03214 0.49112 0.20977 0.0
H587 H 0.04033 0.49469 0.23817 0.0
H588 H 0.06921 0.49084 0.26226 0.0
H589 H 0.07969 0.47 0.27205 0.0
H590 H 0.08572 0.49334 0.31952 0.0
H591 H 0.07583 0.51514 0.3094 0.0
N592 N 0.06941 0.534 0.28632 0.0
N593 N 0.05757 0.54282 0.26449 0.0
N594 N 0.0582 0.5146 0.26349 0.0
C595 C 0.06515 0.5465 0.2794 0.0
C596 C 0.05398 0.52693 0.25647 0.0
C597 C 0.06587 0.51792 0.27837 0.0
C598 C 0.07022 0.56492 0.2871 0.0
C599 C 0.08021 0.57066 0.30161 0.0
C600 C 0.08667 0.58898 0.30762 0.0
C601 C 0.08331 0.60194 0.29923 0.0
C602 C 0.07263 0.59582 0.28511 0.0
C603 C 0.06611 0.57761 0.27919 0.0
C604 C 0.0473 0.52405 0.23967 0.0
C605 C 0.04806 0.53914 0.231 0.0
C606 C 0.04356 0.53711 0.21477 0.0
C607 C 0.03795 0.5199 0.20686 0.0
C608 C 0.03642 0.50455 0.21561 0.0
C609 C 0.04117 0.50664 0.23184 0.0
C610 C 0.07158 0.5047 0.28503 0.0
C611 C 0.07259 0.49154 0.27484 0.0
C612 C 0.5263 0.59351 0.2847 0.0
C613 C 0.51955 0.60046 0.29673 0.0
C614 C 0.502 0.58849 0.30348 0.0
C615 C 0.49105 0.56992 0.29793 0.0
H616 H 0.44161 0.52199 0.30483 0.0
H617 H 0.41022 0.50275 0.31552 0.0
H618 H 0.39695 0.46195 0.27763 0.0
H619 H 0.42837 0.48104 0.26692 0.0
H620 H 0.4561 0.49251 0.23667 0.0
H621 H 0.45999 0.48934 0.20805 0.0
H622 H 0.50759 0.5459 0.20753 0.0
H623 H 0.50405 0.54915 0.23594 0.0
H624 H 0.52058 0.57032 0.26926 0.0
H625 H 0.5398 0.60261 0.2793 0.0
H626 H 0.49661 0.59364 0.31281 0.0
H627 H 0.47736 0.56116 0.30311 0.0
N628 N 0.46839 0.53213 0.28498 0.0
N629 N 0.45995 0.51189 0.26275 0.0
N630 N 0.4885 0.54047 0.2631 0.0
C631 C 0.45597 0.51573 0.27757 0.0
C632 C 0.47623 0.52421 0.25545 0.0
C633 C 0.48474 0.54452 0.27788 0.0
C634 C 0.43752 0.50315 0.28492 0.0
C635 C 0.43211 0.50883 0.29883 0.0
C636 C 0.41408 0.49788 0.30494 0.0
C637 C 0.40113 0.48094 0.29736 0.0
C638 C 0.40671 0.4749 0.28379 0.0
C639 C 0.42469 0.4859 0.27761 0.0
C640 C 0.47965 0.52116 0.23862 0.0
C641 C 0.46755 0.50419 0.23051 0.0
C642 C 0.46976 0.50233 0.21416 0.0
C643 C 0.48393 0.51748 0.20565 0.0
C644 C 0.49641 0.53412 0.21383 0.0
C645 C 0.49439 0.5359 0.23014 0.0
C646 C 0.49735 0.56318 0.28529 0.0
C647 C 0.51526 0.57507 0.27895 0.0
O648 O 0.47397 0.97886 0.00567 0.0
Mn649 Mn 0.50111 0.00109 0.00431 0.0
O650 O 0.46707 0.98594 0.02928 0.0
Mn651 Mn 0.48293 0.01208 0.02764 0.0
O652 O 0.52868 0.02329 0.00273 0.0
O653 O 0.50953 0.98217 0.00012 0.0
Mn654 Mn 0.52325 0.9887 0.98278 0.0
O655 O 0.49683 0.00367 0.97973 0.0
O656 O 0.54356 0.01248 0.98704 0.0
O657 O 0.50578 0.99849 0.0291 0.0
O658 O 0.50372 0.02184 0.04018 0.0
O659 O 0.52301 0.96743 0.98994 0.0
O660 O 0.50783 0.98736 0.96648 0.0
C661 C 0.47839 0.02329 0.00721 0.0
C662 C 0.46337 0.97438 0.01781 0.0
C663 C 0.54332 0.02529 0.99561 0.0
C664 C 0.51316 0.96855 0.00144 0.0
C665 C 0.49897 0.99635 0.96682 0.0
C666 C 0.5084 0.00935 0.04123 0.0
O667 O 0.49271 0.02061 0.00841 0.0
O668 O 0.46973 0.02241 0.02034 0.0
O669 O 0.01648 0.48873 0.00913 0.0
Mn670 Mn 0.99657 0.49673 0.00477 0.0
O671 O 0.00307 0.46585 0.02772 0.0
Mn672 Mn 0.97951 0.46378 0.02856 0.0
O673 O 0.97681 0.50526 0.00078 0.0
O674 O 0.01667 0.52354 -5e-05 0.0
Mn675 Mn 0.01251 0.53057 0.98128 0.0
O676 O 0.99377 0.48733 0.98084 0.0
O677 O 0.99231 0.53319 0.9876 0.0
O678 O -0.00099 0.50535 0.02906 0.0
O679 O 0.97731 0.48009 0.04215 0.0
O680 O 0.03782 0.54488 0.98585 0.0
O681 O 0.00722 0.51313 0.96556 0.0
C682 C 0.96242 0.45312 0.00776 0.0
C683 C 0.01689 0.47674 0.01882 0.0
C684 C 0.97797 0.52048 0.99508 0.0
C685 C 0.03403 0.53663 -0.00045 0.0
C686 C -0.00115 0.49541 0.9672 0.0
C687 C 0.98943 0.49755 0.04174 0.0
O688 O 0.97616 0.47022 0.00947 0.0
O689 O 0.95885 0.44278 0.02036 0.0
O690 O 0.52608 0.50551 0.00139 0.0
Mn691 Mn 0.49856 0.49975 0.00195 0.0
O692 O 0.53701 0.52399 0.97989 0.0
Mn693 Mn 0.51973 0.53227 0.97905 0.0
O694 O 0.47073 0.49378 0.00237 0.0
O695 O 0.49079 0.47239 0.00694 0.0
Mn696 Mn 0.47552 0.4659 0.02336 0.0
O697 O 0.50227 0.50767 0.02629 0.0
O698 O 0.45484 0.46704 0.01656 0.0
O699 O 0.4954 0.49251 0.97724 0.0
O700 O 0.50069 0.51892 0.96487 0.0
O701 O 0.4769 0.44489 0.01913 0.0
O702 O 0.48869 0.48079 0.04036 0.0
C703 C 0.51691 0.54421 0.00078 0.0
C704 C 0.53852 0.51393 0.99069 0.0
C705 C 0.45546 0.48016 0.00798 0.0
C706 C 0.48765 0.45512 0.00767 0.0
C707 C 0.4987 0.49863 0.03953 0.0
C708 C 0.49506 0.50132 0.96455 0.0
O709 O 0.50615 0.52674 0.99662 0.0
O710 O 0.52766 0.55473 0.98947 0.0
O711 O 0.13978 0.31535 0.34097 0.0
Mn712 Mn 0.16797 0.33453 0.33776 0.0
O713 O 0.13061 0.32808 0.36039 0.0
Mn714 Mn 0.15322 0.35058 0.36303 0.0
O715 O 0.19629 0.35362 0.33464 0.0
O716 O 0.17212 0.31308 0.33145 0.0
Mn717 Mn 0.18289 0.31771 0.31277 0.0
O718 O 0.16254 0.33907 0.31392 0.0
O719 O 0.20563 0.33989 0.31616 0.0
O720 O 0.17342 0.32973 0.3615 0.0
O721 O 0.17035 0.35034 0.37688 0.0
O722 O 0.18061 0.2952 0.31908 0.0
O723 O 0.16636 0.31865 0.29872 0.0
C724 C 0.16123 0.3706 0.34457 0.0
C725 C 0.12731 0.31491 0.35038 0.0
C726 C 0.20892 0.35332 0.32591 0.0
C727 C 0.17441 0.29856 0.33213 0.0
C728 C 0.16097 0.3306 0.30052 0.0
C729 C 0.17551 0.33826 0.37493 0.0
O730 O 0.16342 0.35593 0.34396 0.0
O731 O 0.15468 0.37291 0.35788 0.0
O732 O 0.6856 0.82428 0.33971 0.0
Mn733 Mn 0.66475 0.83101 0.33744 0.0
O734 O 0.67832 0.80997 0.36322 0.0
Mn735 Mn 0.65269 0.80144 0.36216 0.0
O736 O 0.64465 0.83896 0.33422 0.0
O737 O 0.68476 0.8576 0.33197 0.0
Mn738 Mn 0.68031 0.86194 0.31241 0.0
O739 O 0.66048 0.82162 0.31336 0.0
O740 O 0.65657 0.8595 0.31368 0.0
O741 O 0.66801 0.83995 0.36198 0.0
O742 O 0.64572 0.81495 0.37471 0.0
O743 O 0.7009 0.8839 0.3189 0.0
O744 O 0.68266 0.84521 0.29942 0.0
C745 C 0.64006 0.7866 0.34126 0.0
C746 C 0.68978 0.81781 0.35187 0.0
C747 C 0.64364 0.85003 0.32384 0.0
C748 C 0.6981 0.87507 0.33231 0.0
C749 C 0.66985 0.82813 0.30042 0.0
C750 C 0.65776 0.83243 0.37451 0.0
O751 O 0.64457 0.80423 0.34318 0.0
O752 O 0.64002 0.77777 0.35411 0.0
O753 O 0.19324 0.8401 0.33334 0.0
Mn754 Mn 0.16513 0.83214 0.33576 0.0
O755 O 0.20227 0.86041 0.31269 0.0
Mn756 Mn 0.18103 0.86279 0.31095 0.0
O757 O 0.13695 0.82438 0.33739 0.0
O758 O 0.1592 0.80567 0.34153 0.0
Mn759 Mn 0.14507 0.79862 0.35867 0.0
O760 O 0.16968 0.84113 0.35996 0.0
O761 O 0.12326 0.79823 0.35258 0.0
O762 O 0.16062 0.8226 0.31177 0.0
O763 O 0.16267 0.84624 0.29732 0.0
O764 O 0.14802 0.77851 0.35361 0.0
O765 O 0.15881 0.81489 0.37486 0.0
C766 C 0.17444 0.87608 0.32925 0.0
C767 C 0.20537 0.85066 0.32291 0.0
C768 C 0.12246 0.81047 0.34369 0.0
C769 C 0.1572 0.78888 0.34159 0.0
C770 C 0.16737 0.83275 0.37349 0.0
C771 C 0.158 0.82904 0.29865 0.0
O772 O 0.17134 0.85887 0.33022 0.0
O773 O 0.18181 0.8848 0.31604 0.0
O774 O 0.80718 0.64517 0.67073 0.0
Mn775 Mn 0.83492 0.66668 0.67037 0.0
O776 O 0.80014 0.65093 0.6945 0.0
Mn777 Mn 0.81711 0.6767 0.69301 0.0
O778 O 0.86324 0.68786 0.66884 0.0
O779 O 0.84128 0.64617 0.66674 0.0
Mn780 Mn 0.85552 0.65159 0.65007 0.0
O781 O 0.83154 0.66962 0.64541 0.0
O782 O 0.87677 0.67433 0.65478 0.0
O783 O 0.83925 0.66358 0.69516 0.0
O784 O 0.83565 0.68521 0.70783 0.0
O785 O 0.85285 0.62933 0.65719 0.0
O786 O 0.84174 0.65192 0.63338 0.0
C787 C 0.81527 0.69257 0.67466 0.0
C788 C 0.79639 0.63998 0.6827 0.0
C789 C 0.87755 0.68839 0.66218 0.0
C790 C 0.84378 0.63186 0.66863 0.0
C791 C 0.83405 0.662 0.6328 0.0
C792 C 0.84187 0.67392 0.70766 0.0
O793 O 0.82834 0.68781 0.67445 0.0
O794 O 0.80465 0.68809 0.68713 0.0
O795 O 0.35277 0.15851 0.67466 0.0
Mn796 Mn 0.33072 0.16402 0.67146 0.0
O797 O 0.34237 0.13591 0.69351 0.0
Mn798 Mn 0.31833 0.13215 0.69559 0.0
O799 O 0.30762 0.16857 0.66894 0.0
O800 O 0.35102 0.19144 0.66567 0.0
Mn801 Mn 0.33888 0.19578 0.65035 0.0
O802 O 0.32743 0.15466 0.64761 0.0
O803 O 0.31955 0.19742 0.65888 0.0
O804 O 0.334 0.17328 0.69549 0.0
O805 O 0.31585 0.14764 0.71 0.0
O806 O 0.36073 0.21702 0.65006 0.0
O807 O 0.33325 0.18 0.63315 0.0
C808 C 0.29826 0.11945 0.6771 0.0
C809 C 0.35519 0.14762 0.68426 0.0
C810 C 0.30602 0.18283 0.66483 0.0
C811 C 0.36388 0.20883 0.66198 0.0
C812 C 0.32859 0.16276 0.63422 0.0
C813 C 0.32591 0.1654 0.70867 0.0
O814 O 0.31186 0.13686 0.67687 0.0
O815 O 0.29766 0.10998 0.68967 0.0
O816 O 0.8599 0.17126 0.66664 0.0
Mn817 Mn 0.83235 0.16572 0.66897 0.0
O818 O 0.87222 0.19372 0.64788 0.0
Mn819 Mn 0.85178 0.1972 0.64604 0.0
O820 O 0.80464 0.15995 0.67167 0.0
O821 O 0.82434 0.13836 0.67286 0.0
Mn822 Mn 0.81152 0.13107 0.69051 0.0
O823 O 0.83756 0.17289 0.69367 0.0
O824 O 0.79115 0.13439 0.68764 0.0
O825 O 0.82711 0.15754 0.64467 0.0
O826 O 0.83468 0.18323 0.63055 0.0
O827 O 0.81141 0.11 0.68305 0.0
O828 O 0.82778 0.14532 0.70623 0.0
C829 C 0.84523 0.21139 0.66299 0.0
C830 C 0.87336 0.18221 0.65739 0.0
C831 C 0.79062 0.14741 0.67968 0.0
C832 C 0.82087 0.12111 0.67147 0.0
C833 C 0.8362 0.16325 0.7063 0.0
C834 C 0.82707 0.16551 0.63152 0.0
O835 O 0.84052 0.19363 0.6648 0.0
O836 O 0.85459 0.21996 0.65032 0.0
H837 H 0.28552 0.85067 0.01223 0.0
H838 H 0.31855 0.86928 0.00457 0.0
H839 H 0.33315 0.89126 0.05255 0.0
H840 H 0.30053 0.87231 0.06047 0.0
H841 H 0.34836 0.91914 0.02874 0.0
H842 H 0.34213 0.85868 0.04209 0.0
H843 H 0.32868 0.82418 0.03971 0.0
H844 H 0.34466 0.8302 0.99043 0.0
H845 H 0.35799 0.86476 0.99247 0.0
H846 H 0.44208 0.957 0.04374 0.0
H847 H 0.40927 0.93227 0.04378 0.0
H848 H 0.41045 0.92659 0.99269 0.0
H849 H 0.44354 0.95161 0.99248 0.0
H850 H 0.3867 0.89052 0.01275 0.0
H851 H 0.39582 0.95212 0.00059 0.0
H852 H 0.41058 0.98662 0.00436 0.0
H853 H 0.38934 0.97831 0.05213 0.0
H854 H 0.37477 0.94375 0.04876 0.0
C855 C 0.29578 0.85932 0.02119 0.0
C856 C 0.2903 0.86006 0.03696 0.0
C857 C 0.31461 0.86998 0.01677 0.0
C858 C 0.32821 0.88162 0.02801 0.0
C859 C 0.3228 0.88246 0.04368 0.0
C860 C 0.3041 0.8717 0.04814 0.0
C861 C 0.34817 0.89319 0.02362 0.0
C862 C 0.35672 0.91288 0.0252 0.0
C863 C 0.35894 0.88501 0.01866 0.0
C864 C 0.3508 0.86426 0.01737 0.0
C865 C 0.34258 0.85263 0.0307 0.0
C866 C 0.33503 0.83307 0.02942 0.0
C867 C 0.33574 0.82499 0.01491 0.0
C868 C 0.34406 0.83647 0.00165 0.0
C869 C 0.35162 0.85604 0.00286 0.0
C870 C 0.43553 0.95024 0.03253 0.0
C871 C 0.44526 0.95651 0.01806 0.0
C872 C 0.4168 0.93607 0.03259 0.0
C873 C 0.40746 0.92791 0.01821 0.0
C874 C 0.41751 0.93281 0.00388 0.0
C875 C 0.43637 0.94709 0.0038 0.0
C876 C 0.38683 0.91634 0.01822 0.0
C877 C 0.3782 0.89676 0.01586 0.0
C878 C 0.37589 0.92458 0.02247 0.0
C879 C 0.38433 0.94535 0.02446 0.0
C880 C 0.39443 0.95765 0.01195 0.0
C881 C 0.40274 0.97722 0.014 0.0
C882 C 0.40093 0.98466 0.02848 0.0
C883 C 0.39075 0.97253 0.04092 0.0
C884 C 0.38244 0.95295 0.03894 0.0
H885 H 0.40738 -0.00019 0.03006 0.0
H886 H 0.32991 0.80985 0.01395 0.0
H887 H 0.11127 0.40289 0.04627 0.0
H888 H 0.0929 0.41717 0.03765 0.0
H889 H 0.14281 0.46529 0.01942 0.0
H890 H 0.16148 0.45135 0.02858 0.0
H891 H 0.12222 0.47613 0.03685 0.0
H892 H 0.11017 0.43341 0.99357 0.0
H893 H 0.1018 0.403 0.98063 0.0
H894 H 0.04757 0.37713 0.00246 0.0
H895 H 0.0557 0.40728 0.01572 0.0
H896 H 0.05116 0.49857 0.00432 0.0
H897 H 0.07825 0.4936 0.00514 0.0
H898 H 0.04778 0.4457 0.03598 0.0
H899 H 0.02106 0.45052 0.03549 0.0
H900 H 0.06332 0.43993 0.00574 0.0
H901 H 0.07781 0.47997 0.053 0.0
H902 H 0.08607 0.50946 0.06751 0.0
H903 H 0.13538 0.53968 0.0389 0.0
H904 H 0.12722 0.51038 0.02403 0.0
C905 C 0.11837 0.41652 0.04045 0.0
C906 C 0.13783 0.42599 0.03813 0.0
C907 C 0.10782 0.42458 0.03536 0.0
C908 C 0.11645 0.44217 0.02768 0.0
C909 C 0.13586 0.45164 0.02522 0.0
C910 C 0.14646 0.44359 0.03035 0.0
C911 C 0.10512 0.45087 0.023 0.0
C912 C 0.10959 0.46845 0.02968 0.0
C913 C 0.08859 0.4408 0.01374 0.0
C914 C 0.08359 0.42263 0.00568 0.0
C915 C 0.0965 0.42121 0.99569 0.0
C916 C 0.09179 0.40402 0.98829 0.0
C917 C 0.07417 0.38814 0.99073 0.0
C918 C 0.06121 0.38943 0.00056 0.0
C919 C 0.06585 0.40659 0.008 0.0
C920 C 0.05031 0.48707 0.01135 0.0
C921 C 0.03382 0.47482 0.01969 0.0
C922 C 0.06579 0.48432 0.01185 0.0
C923 C 0.06487 0.46925 0.02057 0.0
C924 C 0.04867 0.45737 0.02915 0.0
C925 C 0.03338 0.46018 0.02882 0.0
C926 C 0.08004 0.46467 0.02015 0.0
C927 C 0.07628 0.44787 0.01245 0.0
C928 C 0.09711 0.47539 0.02854 0.0
C929 C 0.10169 0.49307 0.03717 0.0
C930 C 0.09024 0.49296 0.0496 0.0
C931 C 0.09495 0.50962 0.05795 0.0
C932 C 0.11119 0.52646 0.05407 0.0
C933 C 0.12276 0.52665 0.04185 0.0
C934 C 0.11809 0.51003 0.03345 0.0
H935 H 0.11484 0.53933 0.06057 0.0
H936 H 0.07055 0.37484 0.985 0.0
H937 H 0.59192 0.70541 0.05474 0.0
H938 H 0.57769 0.67191 0.04881 0.0
H939 H 0.53919 0.67567 0.01603 0.0
H940 H 0.5525 0.70913 0.0229 0.0
H941 H 0.52066 0.64638 0.03351 0.0
H942 H 0.57655 0.66889 0.00343 0.0
H943 H 0.61046 0.68689 0.99805 0.0
H944 H 0.62022 0.65579 0.03438 0.0
H945 H 0.58639 0.63775 0.04011 0.0
H946 H 0.49223 0.55618 0.99837 0.0
H947 H 0.49993 0.58718 0.0082 0.0
H948 H 0.54038 0.58661 0.04076 0.0
H949 H 0.53369 0.55609 0.02971 0.0
H950 H 0.55728 0.61464 0.0224 0.0
H951 H 0.49884 0.59159 0.05151 0.0
H952 H 0.46443 0.57348 0.054 0.0
H953 H 0.45904 0.60554 0.01592 0.0
H954 H 0.49339 0.62371 0.0131 0.0
C955 C 0.58037 0.69916 0.04631 0.0
C956 C 0.57317 0.70998 0.03952 0.0
C957 C 0.57241 0.67998 0.04272 0.0
C958 C 0.55743 0.67119 0.03186 0.0
C959 C 0.55072 0.68211 0.02449 0.0
C960 C 0.55849 0.70131 0.02829 0.0
C961 C 0.54815 0.65043 0.02904 0.0
C962 C 0.52865 0.63944 0.03089 0.0
C963 C 0.55853 0.6413 0.02577 0.0
C964 C 0.57892 0.65206 0.02228 0.0
C965 C 0.58593 0.66597 0.01034 0.0
C966 C 0.60514 0.67616 0.00722 0.0
C967 C 0.61749 0.67251 0.01589 0.0
C968 C 0.61064 0.65861 0.02767 0.0
C969 C 0.59144 0.64837 0.03084 0.0
C970 C 0.50186 0.56211 0.00837 0.0
C971 C 0.51241 0.55382 0.01326 0.0
C972 C 0.50642 0.58004 0.01395 0.0
C973 C 0.52097 0.58953 0.02516 0.0
C974 C 0.5293 0.57975 0.03195 0.0
C975 C 0.52518 0.56208 0.02591 0.0
C976 C 0.52979 0.6104 0.02745 0.0
C977 C 0.54927 0.62149 0.02525 0.0
C978 C 0.51931 0.61959 0.03006 0.0
C979 C 0.49869 0.60895 0.03207 0.0
C980 C 0.49031 0.59474 0.04365 0.0
C981 C 0.47082 0.58447 0.04511 0.0
C982 C 0.45956 0.58834 0.03511 0.0
C983 C 0.46777 0.60256 0.02366 0.0
C984 C 0.48725 0.61288 0.02216 0.0
H985 H 0.44447 0.58034 0.03624 0.0
H986 H 0.63235 0.68043 0.01347 0.0
H987 H 0.89247 0.28749 0.9703 0.0
H988 H 0.91168 0.32172 0.97425 0.0
H989 H 0.86207 0.32674 0.97225 0.0
H990 H 0.8428 0.29253 0.96811 0.0
H991 H 0.88989 0.35214 0.9525 0.0
H992 H 0.8834 0.33252 0.00681 0.0
H993 H 0.88438 0.31436 0.02987 0.0
H994 H 0.94356 0.33769 0.02365 0.0
H995 H 0.94289 0.35582 0.0004 0.0
H996 H 0.92741 0.4409 0.99665 0.0
H997 H 0.90974 0.41019 0.98328 0.0
H998 H 0.96124 0.4106 0.97371 0.0
H999 H 0.97896 0.44168 0.98648 0.0
H1000 H 0.93355 0.38282 0.99803 0.0
H1001 H 0.93963 0.40359 0.94399 0.0
H1002 H 0.938 0.42276 0.92205 0.0
H1003 H 0.87875 0.39799 0.92906 0.0
H1004 H 0.88008 0.37885 0.95122 0.0
C1005 C 0.88566 0.29588 0.97084 0.0
C1006 C 0.86614 0.28735 0.96886 0.0
C1007 C 0.89662 0.31541 0.97315 0.0
C1008 C 0.88829 0.32676 0.97349 0.0
C1009 C 0.86877 0.31822 0.97195 0.0
C1010 C 0.85777 0.29867 0.96976 0.0
C1011 C 0.90006 0.34761 0.97485 0.0
C1012 C 0.8993 0.35886 0.96253 0.0
C1013 C 0.91259 0.35633 0.98779 0.0
C1014 C 0.91305 0.34535 0.00172 0.0
C1015 C 0.89659 0.33363 0.01025 0.0
C1016 C 0.8971 0.32338 0.02338 0.0
C1017 C 0.91401 0.32482 0.02819 0.0
C1018 C 0.93046 0.33656 0.01989 0.0
C1019 C 0.93003 0.34684 0.00674 0.0
C1020 C 0.93503 0.43513 0.99057 0.0
C1021 C 0.9545 0.44361 0.99254 0.0
C1022 C 0.92491 0.41743 0.98316 0.0
C1023 C 0.93421 0.40803 0.97782 0.0
C1024 C 0.95385 0.41765 0.9778 0.0
C1025 C 0.96398 0.43556 0.98486 0.0
C1026 C 0.92348 0.38727 0.97563 0.0
C1027 C 0.9243 0.37604 0.9879 0.0
C1028 C 0.91092 0.37862 0.96276 0.0
C1029 C 0.90998 0.38993 0.94937 0.0
C1030 C 0.92628 0.40236 0.94095 0.0
C1031 C 0.9254 0.41319 0.92846 0.0
C1032 C 0.90829 0.41164 0.9242 0.0
C1033 C 0.892 0.39919 0.93239 0.0
C1034 C 0.8928 0.38832 0.94491 0.0
H1035 H 0.90764 0.42005 0.91453 0.0
H1036 H 0.91438 0.31688 0.03836 0.0
H1037 H 0.7 0.56917 0.94513 0.0
H1038 H 0.66724 0.5545 0.95287 0.0
H1039 H 0.68368 0.56644 0.00238 0.0
H1040 H 0.71677 0.58129 0.99467 0.0
H1041 H 0.65333 0.53021 0.99759 0.0
H1042 H 0.67056 0.59357 0.98367 0.0
H1043 H 0.68421 0.62223 0.96707 0.0
H1044 H 0.64545 0.59121 0.92926 0.0
H1045 H 0.63174 0.56227 0.94554 0.0
H1046 H 0.56083 0.51775 0.01634 0.0
H1047 H 0.59388 0.52604 0.01489 0.0
H1048 H 0.5884 0.51734 0.96388 0.0
H1049 H 0.55572 0.50937 0.96527 0.0
H1050 H 0.61416 0.55376 0.9729 0.0
H1051 H 0.59811 0.49007 0.9861 0.0
H1052 H 0.58441 0.46127 0.00253 0.0
H1053 H 0.62042 0.49288 0.04168 0.0
H1054 H 0.63416 0.52195 0.02554 0.0
C1055 C 0.69669 0.56888 0.95766 0.0
C1056 C 0.71096 0.57663 0.96928 0.0
C1057 C 0.67796 0.5604 0.96207 0.0
C1058 C 0.67308 0.55963 0.97817 0.0
C1059 C 0.68721 0.56695 0.98989 0.0
C1060 C 0.70605 0.57542 0.98547 0.0
C1061 C 0.65315 0.55145 0.98251 0.0
C1062 C 0.64477 0.53552 0.99244 0.0
C1063 C 0.64202 0.5583 0.97562 0.0
C1064 C 0.65022 0.57571 0.9658 0.0
C1065 C 0.66504 0.59282 0.97177 0.0
C1066 C 0.67277 0.60912 0.96242 0.0
C1067 C 0.66573 0.60853 0.94711 0.0
C1068 C 0.6509 0.59164 0.94112 0.0
C1069 C 0.64313 0.57529 0.95041 0.0
C1070 C 0.56656 0.51691 0.00495 0.0
C1071 C 0.55595 0.51321 0.99088 0.0
C1072 C 0.5854 0.52168 0.00412 0.0
C1073 C 0.59358 0.52254 0.98924 0.0
C1074 C 0.58237 0.51693 0.97545 0.0
C1075 C 0.56373 0.51236 0.97625 0.0
C1076 C 0.61416 0.5321 0.98751 0.0
C1077 C 0.62269 0.54848 0.97816 0.0
C1078 C 0.62532 0.52565 0.99495 0.0
C1079 C 0.61699 0.50823 0.00469 0.0
C1080 C 0.60296 0.49093 0.99827 0.0
C1081 C 0.59522 0.47454 0.00751 0.0
C1082 C 0.60149 0.47526 0.02316 0.0
C1083 C 0.61555 0.49235 0.02957 0.0
C1084 C 0.62332 0.50879 0.02038 0.0
H1085 H 0.5955 0.46255 0.03029 0.0
H1086 H 0.67173 0.62117 0.93989 0.0
H1087 H 0.40281 0.11499 0.97806 0.0
H1088 H 0.41737 0.09575 0.98379 0.0
H1089 H 0.47063 0.14116 0.96781 0.0
H1090 H 0.45617 0.16061 0.96245 0.0
H1091 H 0.45893 0.10464 0.9534 0.0
H1092 H 0.46792 0.13382 0.00445 0.0
H1093 H 0.45911 0.14443 0.0288 0.0
H1094 H 0.41996 0.0868 0.04078 0.0
H1095 H 0.42829 0.07583 0.01633 0.0
H1096 H 0.5052 0.05568 0.99295 0.0
H1097 H 0.49873 0.08007 0.98266 0.0
H1098 H 0.43945 0.04039 0.98462 0.0
H1099 H 0.44581 0.01605 0.99436 0.0
H1100 H 0.45923 0.07787 0.0064 0.0
H1101 H 0.44648 0.04977 0.95317 0.0
H1102 H 0.45573 0.03858 0.92941 0.0
H1103 H 0.5025 0.09438 0.92229 0.0
H1104 H 0.4937 0.1058 0.94625 0.0
C1105 C 0.41767 0.12089 0.97601 0.0
C1106 C 0.42845 0.13921 0.9699 0.0
C1107 C 0.42596 0.10996 0.97927 0.0
C1108 C 0.44506 0.11707 0.97618 0.0
C1109 C 0.45589 0.13546 0.97025 0.0
C1110 C 0.44767 0.14655 0.9673 0.0
C1111 C 0.45338 0.10487 0.97852 0.0
C1112 C 0.45933 0.09907 0.96503 0.0
C1113 C 0.45371 0.09749 0.99368 0.0
C1114 C 0.44861 0.10401 0.00843 0.0
C1115 C 0.45729 0.1234 0.01218 0.0
C1116 C 0.45241 0.12949 0.02602 0.0
C1117 C 0.43895 0.1163 0.03631 0.0
C1118 C 0.43037 0.097 0.03278 0.0
C1119 C 0.43518 0.09084 0.01893 0.0
C1120 C 0.49089 0.05189 0.99018 0.0
C1121 C 0.47598 0.03404 0.99435 0.0
C1122 C 0.48719 0.06588 0.9846 0.0
C1123 C 0.46861 0.06201 0.98321 0.0
C1124 C 0.45385 0.04361 0.98571 0.0
C1125 C 0.45752 0.02966 0.99102 0.0
C1126 C 0.46432 0.0774 0.98125 0.0
C1127 C 0.45911 0.08375 0.99483 0.0
C1128 C 0.46461 0.08522 0.96623 0.0
C1129 C 0.46961 0.07856 0.95161 0.0
C1130 C 0.45885 0.0596 0.94663 0.0
C1131 C 0.46398 0.05323 0.93311 0.0
C1132 C 0.47974 0.06575 0.92438 0.0
C1133 C 0.49033 0.08469 0.9291 0.0
C1134 C 0.48527 0.09112 0.94264 0.0
H1135 H 0.48373 0.06078 0.91394 0.0
H1136 H 0.4352 0.12104 0.04702 0.0
H1137 H 0.7023 0.13789 0.94612 0.0
H1138 H 0.66987 0.12017 0.95526 0.0
H1139 H 0.68901 0.11549 0.0021 0.0
H1140 H 0.7216 0.13317 0.99298 0.0
H1141 H 0.65931 0.08101 0.98908 0.0
H1142 H 0.67453 0.14584 0.9973 0.0
H1143 H 0.6863 0.17872 0.98872 0.0
H1144 H 0.64377 0.15941 0.95232 0.0
H1145 H 0.63192 0.12638 0.96052 0.0
H1146 H 0.56853 0.03685 0.01988 0.0
H1147 H 0.60153 0.06185 0.01831 0.0
H1148 H 0.59099 0.07766 0.97194 0.0
H1149 H 0.5581 0.05281 0.97362 0.0
H1150 H 0.6173 0.1082 0.98765 0.0
H1151 H 0.60424 0.04586 0.97493 0.0
H1152 H 0.59218 0.01186 0.9792 0.0
H1153 H 0.6301 0.02476 0.01869 0.0
H1154 H 0.64212 0.05887 0.01488 0.0
C1155 C 0.69959 0.13299 0.95834 0.0
C1156 C 0.71445 0.13687 0.96885 0.0
C1157 C 0.6811 0.12302 0.96357 0.0
C1158 C 0.67711 0.11673 0.97938 0.0
C1159 C 0.69186 0.12036 0.98987 0.0
C1160 C 0.71042 0.1305 0.98468 0.0
C1161 C 0.65746 0.10598 0.98478 0.0
C1162 C 0.65021 0.08705 0.98916 0.0
C1163 C 0.64549 0.11374 0.98422 0.0
C1164 C 0.65242 0.13363 0.97948 0.0
C1165 C 0.66776 0.1486 0.98741 0.0
C1166 C 0.67443 0.16726 0.98262 0.0
C1167 C 0.6658 0.17115 0.96997 0.0
C1168 C 0.65044 0.15638 0.96211 0.0
C1169 C 0.64373 0.13769 0.96684 0.0
C1170 C 0.57319 0.04624 0.0097 0.0
C1171 C 0.56096 0.0432 0.99692 0.0
C1172 C 0.592 0.06036 0.00874 0.0
C1173 C 0.59875 0.07138 0.99489 0.0
C1174 C 0.58609 0.06933 0.98273 0.0
C1175 C 0.56733 0.0552 0.98369 0.0
C1176 C 0.61914 0.08322 0.99207 0.0
C1177 C 0.62649 0.10228 0.988 0.0
C1178 C 0.6311 0.07542 0.9924 0.0
C1179 C 0.62385 0.05492 0.99479 0.0
C1180 C 0.60985 0.04145 0.98465 0.0
C1181 C 0.60304 0.02216 0.98697 0.0
C1182 C 0.61031 0.01615 -0.00075 0.0
C1183 C 0.62443 0.02943 0.00922 0.0
C1184 C 0.63123 0.04875 0.007 0.0
H1185 H 0.60505 0.0012 0.00101 0.0
H1186 H 0.671 0.18561 0.96627 0.0
H1187 H 0.83729 0.54554 0.96822 0.0
H1188 H 0.85664 0.53178 0.97572 0.0
H1189 H 0.90381 0.5878 0.98354 0.0
H1190 H 0.88463 0.60157 0.97561 0.0
H1191 H 0.91363 0.56776 0.96589 0.0
H1192 H 0.8784 0.55631 0.01493 0.0
H1193 H 0.84922 0.54353 0.03043 0.0
H1194 H 0.83268 0.48743 0.01402 0.0
H1195 H 0.86169 0.49991 0.99828 0.0
H1196 H 0.97957 0.55344 0.00246 0.0
H1197 H 0.95411 0.56047 0.00099 0.0
H1198 H 0.91506 0.50201 0.98973 0.0
H1199 H 0.94059 0.49474 0.9918 0.0
H1200 H 0.89884 0.51962 0.00789 0.0
H1201 H 0.93397 0.53034 0.95986 0.0
H1202 H 0.96299 0.54252 0.94423 0.0
H1203 H 0.97886 0.59934 0.95789 0.0
H1204 H 0.95007 0.58746 0.97383 0.0
C1205 C 0.85172 0.55487 0.97177 0.0
C1206 C 0.85951 0.5746 0.97134 0.0
C1207 C 0.86275 0.547 0.97608 0.0
C1208 C 0.88164 0.55875 0.98033 0.0
C1209 C 0.88928 0.57846 0.98026 0.0
C1210 C 0.87834 0.58632 0.97574 0.0
C1211 C 0.89388 0.55073 0.98396 0.0
C1212 C 0.91045 0.55741 0.97522 0.0
C1213 C 0.88939 0.5366 0.99565 0.0
C1214 C 0.87214 0.52906 0.00535 0.0
C1215 C 0.8685 0.54126 0.01458 0.0
C1216 C 0.85199 0.53407 0.02341 0.0
C1217 C 0.83909 0.51468 0.02318 0.0
C1218 C 0.84269 0.50244 0.01417 0.0
C1219 C 0.85917 0.50956 0.00532 0.0
C1220 C 0.96548 0.54202 0.0 0.0
C1221 C 0.96202 0.52365 0.99692 0.0
C1222 C 0.95095 0.54602 -0.00078 0.0
C1223 C 0.93282 0.53185 0.99487 0.0
C1224 C 0.92899 0.51314 0.99303 0.0
C1225 C 0.94355 0.50903 0.99415 0.0
C1226 C 0.91882 0.53729 0.99024 0.0
C1227 C 0.90191 0.52996 -0.00141 0.0
C1228 C 0.92285 0.55075 0.97807 0.0
C1229 C 0.93991 0.558 0.9681 0.0
C1230 C 0.94369 0.54542 0.95958 0.0
C1231 C 0.9601 0.55227 0.95067 0.0
C1232 C 0.97277 0.57169 0.95009 0.0
C1233 C 0.96903 0.58431 0.95836 0.0
C1234 C 0.95266 0.57752 0.96731 0.0
H1235 H 0.98548 0.57697 0.9432 0.0
H1236 H 0.82631 0.50915 0.03001 0.0
H1237 H 0.41511 0.29627 0.94596 0.0
H1238 H 0.43082 0.33008 0.95111 0.0
H1239 H 0.45118 0.32201 0.99622 0.0
H1240 H 0.43419 0.28787 0.99177 0.0
H1241 H 0.44218 0.34788 -0.00046 0.0
H1242 H 0.47917 0.33731 0.96154 0.0
H1243 H 0.48466 0.3246 0.93669 0.0
H1244 H 0.46733 0.3574 0.90901 0.0
H1245 H 0.46152 0.37014 0.93371 0.0
H1246 H 0.50979 0.44035 0.0128 0.0
H1247 H 0.5012 0.40926 0.00202 0.0
H1248 H 0.46715 0.41542 0.96605 0.0
H1249 H 0.47557 0.44654 0.97703 0.0
H1250 H 0.48445 0.391 0.9578 0.0
H1251 H 0.4455 0.39942 0.99686 0.0
H1252 H 0.43906 0.41051 0.02218 0.0
H1253 H 0.46102 0.38081 0.04852 0.0
H1254 H 0.46771 0.36964 0.02332 0.0
C1255 C 0.4225 0.30152 0.95719 0.0
C1256 C 0.42342 0.28918 0.96839 0.0
C1257 C 0.4318 0.32099 0.95998 0.0
C1258 C 0.44269 0.3287 0.97382 0.0
C1259 C 0.44308 0.31644 0.98533 0.0
C1260 C 0.43349 0.29689 0.98268 0.0
C1261 C 0.45376 0.34955 0.97621 0.0
C1262 C 0.45163 0.35723 0.99049 0.0
C1263 C 0.46593 0.36187 0.96433 0.0
C1264 C 0.46981 0.35459 0.94946 0.0
C1265 C 0.47647 0.34176 0.95015 0.0
C1266 C 0.47963 0.33455 0.93609 0.0
C1267 C 0.47632 0.34017 0.92128 0.0
C1268 C 0.46989 0.35306 0.92049 0.0
C1269 C 0.46669 0.36031 0.93451 0.0
C1270 C 0.50158 0.43569 0.00188 0.0
C1271 C 0.49322 0.44573 0.9958 0.0
C1272 C 0.49641 0.41775 0.9959 0.0
C1273 C 0.48313 0.40988 0.98356 0.0
C1274 C 0.47733 0.42125 0.97568 0.0
C1275 C 0.48241 0.4392 0.98178 0.0
C1276 C 0.47282 0.38913 0.98109 0.0
C1277 C 0.47509 0.38154 0.96683 0.0
C1278 C 0.46092 0.37682 0.99307 0.0
C1279 C 0.45739 0.38396 0.0082 0.0
C1280 C 0.44918 0.39546 0.00804 0.0
C1281 C 0.4454 0.40168 0.02237 0.0
C1282 C 0.44972 0.39645 0.03695 0.0
C1283 C 0.45776 0.38492 0.03722 0.0
C1284 C 0.46153 0.37862 0.02292 0.0
H1285 H 0.44678 0.40129 0.04802 0.0
H1286 H 0.47875 0.33455 0.91041 0.0
H1287 H 0.15045 0.69788 0.0591 0.0
H1288 H 0.13066 0.66419 0.05277 0.0
H1289 H 0.10885 0.67834 0.01146 0.0
H1290 H 0.12904 0.71222 0.01762 0.0
H1291 H 0.08155 0.65206 0.03437 0.0
H1292 H 0.13486 0.66136 0.00389 0.0
H1293 H 0.16844 0.67236 0.00037 0.0
H1294 H 0.16591 0.63482 0.03728 0.0
H1295 H 0.13234 0.62375 0.04116 0.0
H1296 H 0.02295 0.56122 0.00461 0.0
H1297 H 0.04393 0.59339 0.01122 0.0
H1298 H 0.08235 0.57797 0.03237 0.0
H1299 H 0.0633 0.54611 0.02093 0.0
H1300 H 0.10248 0.60651 0.02066 0.0
H1301 H 0.04832 0.59714 0.05192 0.0
H1302 H 0.01477 0.58673 0.05508 0.0
H1303 H 0.01879 0.62541 0.01863 0.0
H1304 H 0.05223 0.63587 0.01512 0.0
C1305 C 0.14162 0.69375 0.04854 0.0
C1306 C 0.14114 0.70748 0.03884 0.0
C1307 C 0.1304 0.67457 0.04492 0.0
C1308 C 0.11835 0.66884 0.03166 0.0
C1309 C 0.11813 0.68256 0.02173 0.0
C1310 C 0.12964 0.70182 0.0252 0.0
C1311 C 0.10501 0.64851 0.02897 0.0
C1312 C 0.08596 0.64197 0.03128 0.0
C1313 C 0.11101 0.63549 0.02546 0.0
C1314 C 0.1311 0.64182 0.02289 0.0
C1315 C 0.14148 0.65553 0.01132 0.0
C1316 C 0.16051 0.66176 0.00925 0.0
C1317 C 0.16931 0.65432 0.01862 0.0
C1318 C 0.15908 0.64057 0.03004 0.0
C1319 C 0.14004 0.63429 0.03215 0.0
C1320 C 0.03555 0.56446 0.01124 0.0
C1321 C 0.0414 0.55104 0.01229 0.0
C1322 C 0.04764 0.5832 0.01535 0.0
C1323 C 0.06474 0.58871 0.02316 0.0
C1324 C 0.06942 0.57452 0.02627 0.0
C1325 C 0.05823 0.55603 0.02027 0.0
C1326 C 0.07837 0.60932 0.02639 0.0
C1327 C 0.09768 0.61615 0.02413 0.0
C1328 C 0.07258 0.62266 0.03028 0.0
C1329 C 0.05279 0.61727 0.03328 0.0
C1330 C 0.04207 0.6035 0.04468 0.0
C1331 C 0.02305 0.59754 0.04646 0.0
C1332 C 0.01466 0.6054 0.03705 0.0
C1333 C 0.0253 0.61935 0.02593 0.0
C1334 C 0.04429 0.62534 0.02407 0.0
H1335 H -9e-05 0.60067 0.03839 0.0
H1336 H 0.18405 0.65918 0.01702 0.0
H1337 H 0.28624 0.40003 0.03367 0.0
H1338 H 0.31905 0.41469 0.0256 0.0
H1339 H 0.32509 0.47002 0.0314 0.0
H1340 H 0.29212 0.45535 0.03903 0.0
H1341 H 0.34292 0.46971 0.00579 0.0
H1342 H 0.34152 0.45125 0.05983 0.0
H1343 H 0.33119 0.43015 0.08315 0.0
H1344 H 0.34799 0.39402 0.0601 0.0
H1345 H 0.35814 0.41473 0.03653 0.0
H1346 H 0.44595 0.50728 0.01362 0.0
H1347 H 0.41363 0.50113 0.01651 0.0
H1348 H 0.39245 0.44418 -0.0008 0.0
H1349 H 0.42442 0.4502 0.9964 0.0
H1350 H 0.38397 0.44983 0.03258 0.0
H1351 H 0.38295 0.4683 0.97751 0.0
H1352 H 0.39423 0.49087 0.95519 0.0
H1353 H 0.38363 0.52922 0.98229 0.0
H1354 H 0.3725 0.50694 0.00486 0.0
C1355 C 0.29459 0.41531 0.03316 0.0
C1356 C 0.28674 0.42658 0.03699 0.0
C1357 C 0.31332 0.42368 0.02862 0.0
C1358 C 0.32461 0.44347 0.0282 0.0
C1359 C 0.31665 0.45474 0.03167 0.0
C1360 C 0.29784 0.44636 0.036 0.0
C1361 C 0.34475 0.45233 0.02427 0.0
C1362 C 0.35196 0.46556 0.01182 0.0
C1363 C 0.35661 0.44702 0.03218 0.0
C1364 C 0.35045 0.43447 0.04634 0.0
C1365 C 0.34287 0.43872 0.05967 0.0
C1366 C 0.33707 0.42684 0.07295 0.0
C1367 C 0.33889 0.41073 0.07309 0.0
C1368 C 0.34656 0.40649 0.05997 0.0
C1369 C 0.35235 0.4183 0.04665 0.0
C1370 C 0.43435 0.49378 0.00977 0.0
C1371 C 0.43748 0.47914 0.00486 0.0
C1372 C 0.41598 0.49026 0.01149 0.0
C1373 C 0.40078 0.47216 0.00818 0.0
C1374 C 0.40405 0.45819 0.00183 0.0
C1375 C 0.42226 0.46166 0.0002 0.0
C1376 C 0.38178 0.4665 0.01377 0.0
C1377 C 0.3749 0.45404 0.02668 0.0
C1378 C 0.37039 0.47271 0.00646 0.0
C1379 C 0.37714 0.48608 0.99293 0.0
C1380 C 0.38323 0.48164 0.97878 0.0
C1381 C 0.38954 0.49435 0.96606 0.0
C1382 C 0.38972 0.5115 0.96734 0.0
C1383 C 0.38353 0.51595 0.98132 0.0
C1384 C 0.3772 0.50328 0.99407 0.0
H1385 H 0.3946 0.52132 0.95748 0.0
H1386 H 0.3344 0.40155 0.08339 0.0
H1387 H 0.59804 0.88916 0.03406 0.0
H1388 H 0.58285 0.90806 0.02992 0.0
H1389 H 0.52864 0.85775 0.03384 0.0
H1390 H 0.5437 0.83878 0.03764 0.0
H1391 H 0.52908 0.88138 0.0108 0.0
H1392 H 0.5518 0.88869 0.06657 0.0
H1393 H 0.57773 0.89802 0.08586 0.0
H1394 H 0.60656 0.95382 0.06595 0.0
H1395 H 0.58092 0.94477 0.04646 0.0
H1396 H 0.48459 0.93341 0.00909 0.0
H1397 H 0.49136 0.91035 0.02143 0.0
H1398 H 0.54621 0.95594 0.03505 0.0
H1399 H 0.53821 0.97862 0.02492 0.0
H1400 H 0.54314 0.93153 0.05096 0.0
H1401 H 0.52973 0.92846 0.99414 0.0
H1402 H 0.51063 0.92296 0.96983 0.0
H1403 H 0.47288 0.86601 0.98463 0.0
H1404 H 0.49164 0.87126 0.00912 0.0
C1405 C 0.58288 0.88214 0.03385 0.0
C1406 C 0.57205 0.86253 0.0363 0.0
C1407 C 0.57422 0.89294 0.03155 0.0
C1408 C 0.55461 0.88437 0.03201 0.0
C1409 C 0.54379 0.86467 0.03357 0.0
C1410 C 0.55242 0.85384 0.03568 0.0
C1411 C 0.54528 0.8959 0.03161 0.0
C1412 C 0.53199 0.89228 0.01963 0.0
C1413 C 0.54955 0.9105 0.04282 0.0
C1414 C 0.56446 0.91604 0.05507 0.0
C1415 C 0.56366 0.90295 0.06634 0.0
C1416 C 0.57832 0.90819 0.07728 0.0
C1417 C 0.59378 0.9265 0.07713 0.0
C1418 C 0.59458 0.93965 0.06607 0.0
C1419 C 0.57997 0.93449 0.05511 0.0
C1420 C 0.49745 0.93845 0.01588 0.0
C1421 C 0.51102 0.95773 0.0159 0.0
C1422 C 0.50166 0.92523 0.02243 0.0
C1423 C 0.51989 0.93114 0.02811 0.0
C1424 C 0.53216 0.95064 0.03045 0.0
C1425 C 0.5275 0.9638 0.02478 0.0
C1426 C 0.52724 0.91772 0.02964 0.0
C1427 C 0.54007 0.92073 0.042 0.0
C1428 C 0.52343 0.90336 0.0181 0.0
C1429 C 0.51191 0.90035 0.00357 0.0
C1430 C 0.51727 0.91482 0.99226 0.0
C1431 C 0.50652 0.91174 0.97845 0.0
C1432 C 0.49051 0.89417 0.97572 0.0
C1433 C 0.48523 0.87963 0.98679 0.0
C1434 C 0.4959 0.88266 0.00064 0.0
H1435 H 0.48223 0.8918 0.965 0.0
H1436 H 0.60513 0.9305 0.08557 0.0
H1437 H 0.96038 0.1684 0.36419 0.0
H1438 H 0.99291 0.18757 0.35544 0.0
H1439 H 0.99033 0.23834 0.3639 0.0
H1440 H 0.95777 0.21929 0.37238 0.0
H1441 H 0.00815 0.24019 0.33611 0.0
H1442 H 0.00962 0.22381 0.39111 0.0
H1443 H 0.00271 0.20239 0.41394 0.0
H1444 H 0.03081 0.17666 0.39077 0.0
H1445 H 0.03767 0.19779 0.36767 0.0
H1446 H 0.09534 0.31433 0.35886 0.0
H1447 H 0.06351 0.28752 0.35823 0.0
H1448 H 0.08375 0.25178 0.33964 0.0
H1449 H 0.11595 0.27882 0.34009 0.0
H1450 H 0.05795 0.23761 0.36759 0.0
H1451 H 0.06132 0.26046 0.31438 0.0
H1452 H 0.07014 0.28574 0.29453 0.0
H1453 H 0.03405 0.3025 0.31716 0.0
H1454 H 0.02514 0.27743 0.33723 0.0
C1455 C 0.96669 0.18364 0.36394 0.0
C1456 C 0.95661 0.19239 0.36902 0.0
C1457 C 0.98527 0.19455 0.35904 0.0
C1458 C 0.99401 0.21434 0.35912 0.0
C1459 C 0.9838 0.22307 0.36374 0.0
C1460 C 0.96528 0.2122 0.3687 0.0
C1461 C 0.01404 0.22615 0.3551 0.0
C1462 C 0.01904 0.23955 0.34293 0.0
C1463 C 0.02821 0.22505 0.36382 0.0
C1464 C 0.02388 0.21215 0.37756 0.0
C1465 C 0.01413 0.21343 0.3908 0.0
C1466 C 0.01027 0.20138 0.40381 0.0
C1467 C 0.01624 0.18811 0.40378 0.0
C1468 C 0.02613 0.1869 0.39075 0.0
C1469 C 0.03 0.1989 0.3777 0.0
C1470 C 0.09307 0.30079 0.35463 0.0
C1471 C 0.10811 0.29863 0.34956 0.0
C1472 C 0.07488 0.28553 0.3542 0.0
C1473 C 0.07137 0.2678 0.3488 0.0
C1474 C 0.08629 0.26545 0.34378 0.0
C1475 C 0.10458 0.28086 0.34399 0.0
C1476 C 0.05197 0.25184 0.34888 0.0
C1477 C 0.04706 0.23773 0.36037 0.0
C1478 C 0.03787 0.25247 0.33974 0.0
C1479 C 0.04258 0.26708 0.32732 0.0
C1480 C 0.05528 0.26955 0.31513 0.0
C1481 C 0.0603 0.28384 0.30384 0.0
C1482 C 0.05267 0.29572 0.30459 0.0
C1483 C 0.03992 0.29326 0.31658 0.0
C1484 C 0.03483 0.27897 0.32788 0.0
H1485 H 0.05663 0.30683 0.29588 0.0
H1486 H 0.01327 0.17881 0.41387 0.0
H1487 H 0.79565 0.76075 0.39539 0.0
H1488 H 0.77694 0.77502 0.38793 0.0
H1489 H 0.78859 0.7719 0.33823 0.0
H1490 H 0.80717 0.75713 0.34559 0.0
H1491 H 0.79223 0.80731 0.34786 0.0
H1492 H 0.74764 0.74122 0.35015 0.0
H1493 H 0.73144 0.70917 0.36156 0.0
H1494 H 0.71461 0.72959 0.40186 0.0
H1495 H 0.73097 0.76184 0.39083 0.0
H1496 H 0.7117 0.81899 0.32685 0.0
H1497 H 0.73733 0.81191 0.32816 0.0
H1498 H 0.73364 0.80984 0.37953 0.0
H1499 H 0.70809 0.81669 0.37829 0.0
H1500 H 0.7258 0.77593 0.36471 0.0
H1501 H 0.77204 0.84227 0.36351 0.0
H1502 H 0.78852 0.87451 0.35249 0.0
H1503 H 0.80195 0.85384 0.31031 0.0
H1504 H 0.78531 0.8214 0.32098 0.0
C1505 C 0.79404 0.76281 0.38285 0.0
C1506 C 0.80267 0.75756 0.37106 0.0
C1507 C 0.78347 0.77111 0.37862 0.0
C1508 C 0.7813 0.77433 0.36254 0.0
C1509 C 0.79016 0.7695 0.35071 0.0
C1510 C 0.80074 0.76109 0.35494 0.0
C1511 C 0.76938 0.78243 0.35833 0.0
C1512 C 0.7776 0.80035 0.35124 0.0
C1513 C 0.7504 0.77336 0.36296 0.0
C1514 C 0.74068 0.75399 0.36971 0.0
C1515 C 0.74065 0.73892 0.36152 0.0
C1516 C 0.7314 0.72071 0.36791 0.0
C1517 C 0.72204 0.71735 0.38244 0.0
C1518 C 0.72189 0.73221 0.39062 0.0
C1519 C 0.73113 0.75046 0.38429 0.0
C1520 C 0.71676 0.81756 0.33842 0.0
C1521 C 0.70767 0.8179 0.35248 0.0
C1522 C 0.73141 0.8136 0.33915 0.0
C1523 C 0.73717 0.81017 0.35393 0.0
C1524 C 0.72927 0.81231 0.36801 0.0
C1525 C 0.71463 0.81613 0.36728 0.0
C1526 C 0.74879 0.80115 0.35481 0.0
C1527 C 0.74039 0.78287 0.36116 0.0
C1528 C 0.76752 0.80994 0.3495 0.0
C1529 C 0.77718 0.82936 0.34294 0.0
C1530 C 0.77828 0.84455 0.35179 0.0
C1531 C 0.78772 0.86288 0.34563 0.0
C1532 C 0.79621 0.86621 0.33068 0.0
C1533 C 0.79532 0.85123 0.32187 0.0
C1534 C 0.78589 0.83287 0.32797 0.0
H1535 H 0.80354 0.88042 0.32595 0.0
H1536 H 0.71487 0.70324 0.38736 0.0
H1537 H 0.22027 0.04267 0.35587 0.0
H1538 H 0.20631 0.00915 0.34924 0.0
H1539 H 0.24313 0.00415 0.38311 0.0
H1540 H 0.25827 0.03786 0.38869 0.0
H1541 H 0.23848 0.9827 0.3592 0.0
H1542 H 0.19483 0.99327 0.39123 0.0
H1543 H 0.17539 0.00799 0.39582 0.0
H1544 H 0.1453 0.98353 0.35217 0.0
H1545 H 0.16471 0.96887 0.34724 0.0
H1546 H 0.19182 0.88479 0.35836 0.0
H1547 H 0.20182 0.91527 0.37157 0.0
H1548 H 0.16487 0.92408 0.34066 0.0
H1549 H 0.15433 0.89348 0.32826 0.0
H1550 H 0.16956 0.94349 0.36495 0.0
H1551 H 0.21211 0.93527 0.33078 0.0
H1552 H 0.23219 0.92237 0.32247 0.0
H1553 H 0.26474 0.9438 0.36548 0.0
H1554 H 0.24463 0.95653 0.37418 0.0
C1555 C 0.22575 0.03458 0.36162 0.0
C1556 C 0.24013 0.04297 0.37314 0.0
C1557 C 0.21751 0.01529 0.35801 0.0
C1558 C 0.22312 0.00389 0.36616 0.0
C1559 C 0.23826 0.01249 0.37687 0.0
C1560 C 0.24678 0.0318 0.3802 0.0
C1561 C 0.21299 0.98297 0.36406 0.0
C1562 C 0.22343 0.9741 0.3607 0.0
C1563 C 0.19329 0.97172 0.36554 0.0
C1564 C 0.18127 0.98006 0.36884 0.0
C1565 C 0.18408 0.99105 0.38262 0.0
C1566 C 0.17308 -0.0006 0.38526 0.0
C1567 C 0.15914 0.99672 0.37429 0.0
C1568 C 0.1561 0.98561 0.36067 0.0
C1569 C 0.16708 0.97726 0.35795 0.0
C1570 C 0.18495 0.8927 0.35521 0.0
C1571 C 0.17241 0.88694 0.34226 0.0
C1572 C 0.19099 0.91034 0.36247 0.0
C1573 C 0.1848 0.92244 0.35657 0.0
C1574 C 0.17015 0.91527 0.34531 0.0
C1575 C 0.16394 0.89761 0.3383 0.0
C1576 C 0.19504 0.94313 0.36012 0.0
C1577 C 0.18464 0.95202 0.36369 0.0
C1578 C 0.21475 0.95446 0.3584 0.0
C1579 C 0.22668 0.94658 0.35325 0.0
C1580 C 0.22344 0.93707 0.33853 0.0
C1581 C 0.23483 0.92981 0.33375 0.0
C1582 C 0.24969 0.9322 0.34347 0.0
C1583 C 0.25319 0.94189 0.35799 0.0
C1584 C 0.24178 0.9491 0.36287 0.0
H1585 H 0.25852 0.92661 0.33973 0.0
H1586 H 0.15067 0.00322 0.37634 0.0
H1587 H 0.50911 0.62677 0.29266 0.0
H1588 H 0.52809 0.66096 0.29764 0.0
H1589 H 0.57292 0.65344 0.31591 0.0
H1590 H 0.55411 0.61929 0.31054 0.0
H1591 H 0.56534 0.67826 0.3345 0.0
H1592 H 0.57737 0.66766 0.28077 0.0
H1593 H 0.56916 0.65564 0.25318 0.0
H1594 H 0.54384 0.68991 0.24562 0.0
H1595 H 0.55162 0.70187 0.2733 0.0
H1596 H 0.64837 0.7633 0.32561 0.0
H1597 H 0.62457 0.73276 0.31495 0.0
H1598 H 0.58376 0.75096 0.3167 0.0
H1599 H 0.60762 0.78158 0.32789 0.0
H1600 H 0.58624 0.72168 0.28811 0.0
H1601 H 0.57644 0.73279 0.34402 0.0
H1602 H 0.58688 0.74377 0.37158 0.0
H1603 H 0.61016 0.7072 0.37496 0.0
H1604 H 0.60035 0.69642 0.34723 0.0
C1605 C 0.52294 0.63247 0.29792 0.0
C1606 C 0.53025 0.62059 0.30127 0.0
C1607 C 0.53374 0.65191 0.30069 0.0
C1608 C 0.55189 0.65966 0.30706 0.0
C1609 C 0.55892 0.64768 0.31099 0.0
C1610 C 0.54826 0.62827 0.30792 0.0
C1611 C 0.56388 0.68036 0.30901 0.0
C1612 C 0.56986 0.68777 0.32438 0.0
C1613 C 0.56965 0.6927 0.29577 0.0
C1614 C 0.56484 0.68546 0.27917 0.0
C1615 C 0.56985 0.67246 0.27329 0.0
C1616 C 0.56532 0.66569 0.25762 0.0
C1617 C 0.55593 0.67196 0.24767 0.0
C1618 C 0.55107 0.68503 0.25336 0.0
C1619 C 0.55553 0.69181 0.26904 0.0
C1620 C 0.63462 0.76122 0.32282 0.0
C1621 C 0.62979 0.77474 0.32752 0.0
C1622 C 0.62097 0.74367 0.31694 0.0
C1623 C 0.6024 0.73955 0.31543 0.0
C1624 C 0.59806 0.75394 0.31793 0.0
C1625 C 0.61175 0.77153 0.32405 0.0
C1626 C 0.58751 0.71959 0.31362 0.0
C1627 C 0.58124 0.71224 0.29827 0.0
C1628 C 0.58164 0.70723 0.32688 0.0
C1629 C 0.58802 0.71412 0.34341 0.0
C1630 C 0.58414 0.7274 0.3505 0.0
C1631 C 0.58987 0.73352 0.36619 0.0
C1632 C 0.59927 0.72627 0.37499 0.0
C1633 C 0.60297 0.71288 0.36811 0.0
C1634 C 0.59737 0.7068 0.35239 0.0
H1635 H 0.60361 0.73096 0.38716 0.0
H1636 H 0.55246 0.66673 0.23553 0.0
H1637 H 0.37112 0.92657 0.2871 0.0
H1638 H 0.33865 0.91211 0.29534 0.0
H1639 H 0.34759 0.87806 0.32963 0.0
H1640 H 0.37986 0.89142 0.32052 0.0
H1641 H 0.31603 0.85707 0.31472 0.0
H1642 H 0.34289 0.91775 0.34065 0.0
H1643 H 0.36112 0.95256 0.34254 0.0
H1644 H 0.32454 0.95675 0.30826 0.0
H1645 H 0.30625 0.92201 0.30598 0.0
H1646 H 0.22388 0.84324 0.34682 0.0
H1647 H 0.25663 0.85023 0.34628 0.0
H1648 H 0.2612 0.86824 0.2974 0.0
H1649 H 0.22888 0.86124 0.29771 0.0
H1650 H 0.28621 0.89562 0.32594 0.0
H1651 H 0.26423 0.83647 0.29598 0.0
H1652 H 0.24619 0.80182 0.29264 0.0
H1653 H 0.27346 0.79522 0.33387 0.0
H1654 H 0.29146 0.82988 0.33758 0.0
C1655 C 0.36622 0.9159 0.2963 0.0
C1656 C 0.37819 0.91014 0.30307 0.0
C1657 C 0.34766 0.90785 0.30121 0.0
C1658 C 0.34072 0.89425 0.31335 0.0
C1659 C 0.35266 0.88863 0.32033 0.0
C1660 C 0.37119 0.89646 0.31522 0.0
C1661 C 0.32077 0.88536 0.31814 0.0
C1662 C 0.30962 0.86552 0.31754 0.0
C1663 C 0.31228 0.89632 0.32167 0.0
C1664 C 0.32324 0.91725 0.32312 0.0
C1665 C 0.33879 0.9261 0.33345 0.0
C1666 C 0.34913 0.94582 0.3346 0.0
C1667 C 0.344 0.95686 0.32552 0.0
C1668 C 0.3285 0.94819 0.31529 0.0
C1669 C 0.31812 0.92848 0.31409 0.0
C1670 C 0.23178 0.84828 0.33588 0.0
C1671 C 0.22394 0.85206 0.32242 0.0
C1672 C 0.2504 0.85219 0.33558 0.0
C1673 C 0.26119 0.85969 0.32178 0.0
C1674 C 0.25302 0.86239 0.30812 0.0
C1675 C 0.23458 0.85853 0.30839 0.0
C1676 C 0.28164 0.8676 0.32201 0.0
C1677 C 0.29283 0.88725 0.32358 0.0
C1678 C 0.29008 0.85652 0.31923 0.0
C1679 C 0.27889 0.83573 0.31726 0.0
C1680 C 0.26613 0.82763 0.3045 0.0
C1681 C 0.25598 0.80799 0.30249 0.0
C1682 C 0.25859 0.79632 0.31309 0.0
C1683 C 0.27139 0.80427 0.32571 0.0
C1684 C 0.28155 0.8239 0.32777 0.0
H1685 H 0.25076 0.78112 0.31149 0.0
H1686 H 0.35203 0.97212 0.32641 0.0
H1687 H 0.11075 0.48674 0.31907 0.0
H1688 H 0.12451 0.46707 0.32528 0.0
H1689 H 0.08619 0.42444 0.29227 0.0
H1690 H 0.07131 0.44317 0.28712 0.0
H1691 H 0.09195 0.40783 0.31574 0.0
H1692 H 0.13423 0.46224 0.28277 0.0
H1693 H 0.15377 0.4965 0.27784 0.0
H1694 H 0.18549 0.50284 0.3205 0.0
H1695 H 0.16601 0.46869 0.32576 0.0
H1696 H 0.14092 0.35848 0.31689 0.0
H1697 H 0.12851 0.37679 0.30383 0.0
H1698 H 0.16753 0.4261 0.33099 0.0
H1699 H 0.18061 0.40827 0.34288 0.0
H1700 H 0.16052 0.43846 0.30762 0.0
H1701 H 0.11933 0.38759 0.34325 0.0
H1702 H 0.09962 0.35446 0.35176 0.0
H1703 H 0.06588 0.34232 0.30944 0.0
H1704 H 0.0856 0.3753 0.30054 0.0
C1705 C 0.1049 0.47298 0.31343 0.0
C1706 C 0.0902 0.46684 0.30223 0.0
C1707 C 0.11301 0.46184 0.31681 0.0
C1708 C 0.10694 0.44458 0.30873 0.0
C1709 C 0.09143 0.43785 0.29844 0.0
C1710 C 0.08306 0.44874 0.29534 0.0
C1711 C 0.11713 0.43387 0.31031 0.0
C1712 C 0.10693 0.41448 0.31383 0.0
C1713 C 0.13674 0.44253 0.30812 0.0
C1714 C 0.14862 0.46296 0.30469 0.0
C1715 C 0.14535 0.47096 0.2911 0.0
C1716 C 0.1564 0.49036 0.28826 0.0
C1717 C 0.17084 0.50184 0.29886 0.0
C1718 C 0.1743 0.49394 0.3123 0.0
C1719 C 0.16328 0.47458 0.3152 0.0
C1720 C 0.14768 0.37356 0.31914 0.0
C1721 C 0.16168 0.38201 0.33092 0.0
C1722 C 0.14018 0.38392 0.31206 0.0
C1723 C 0.14633 0.40263 0.31704 0.0
C1724 C 0.16219 0.41165 0.32704 0.0
C1725 C 0.16991 0.40149 0.33373 0.0
C1726 C 0.1355 0.41243 0.31355 0.0
C1727 C 0.14552 0.43168 0.30951 0.0
C1728 C 0.11582 0.40373 0.31581 0.0
C1729 C 0.10414 0.38384 0.3211 0.0
C1730 C 0.10781 0.37781 0.33569 0.0
C1731 C 0.09663 0.35906 0.34059 0.0
C1732 C 0.08156 0.34627 0.33111 0.0
C1733 C 0.07761 0.35222 0.31673 0.0
C1734 C 0.08881 0.37092 0.31174 0.0
H1735 H 0.07291 0.33177 0.33493 0.0
H1736 H 0.17936 0.51685 0.29665 0.0
H1737 H 0.38016 0.44277 0.30141 0.0
H1738 H 0.34716 0.42444 0.30882 0.0
H1739 H 0.34494 0.47589 0.31361 0.0
H1740 H 0.37806 0.49436 0.30629 0.0
H1741 H 0.32505 0.45065 0.33713 0.0
H1742 H 0.32837 0.45019 0.28028 0.0
H1743 H 0.33915 0.44609 0.25394 0.0
H1744 H 0.31891 0.3875 0.26399 0.0
H1745 H 0.30828 0.39131 0.29049 0.0
H1746 H 0.22209 0.39126 0.33078 0.0
H1747 H 0.25502 0.41684 0.32925 0.0
H1748 H 0.27228 0.37527 0.32337 0.0
H1749 H 0.23976 0.35001 0.32447 0.0
H1750 H 0.28335 0.40027 0.29908 0.0
H1751 H 0.2821 0.40182 0.35713 0.0
H1752 H 0.27139 0.40647 0.3833 0.0
H1753 H 0.28694 0.46334 0.37058 0.0
H1754 H 0.29751 0.45894 0.34423 0.0
C1755 C 0.37265 0.45017 0.30409 0.0
C1756 C 0.38161 0.46996 0.30313 0.0
C1757 C 0.35383 0.43971 0.30833 0.0
C1758 C 0.34355 0.44881 0.31148 0.0
C1759 C 0.35263 0.46861 0.31119 0.0
C1760 C 0.37153 0.47912 0.30703 0.0
C1761 C 0.32315 0.43745 0.31436 0.0
C1762 C 0.31582 0.43979 0.32874 0.0
C1763 C 0.31116 0.42339 0.30334 0.0
C1764 C 0.31766 0.42109 0.28743 0.0
C1765 C 0.32637 0.43647 0.27693 0.0
C1766 C 0.33243 0.43419 0.26196 0.0
C1767 C 0.32975 0.41656 0.25731 0.0
C1768 C 0.32099 0.40116 0.26761 0.0
C1769 C 0.31494 0.40337 0.28261 0.0
C1770 C 0.23302 0.38769 0.32943 0.0
C1771 C 0.22846 0.36876 0.32737 0.0
C1772 C 0.25177 0.40225 0.32863 0.0
C1773 C 0.26603 0.3979 0.32606 0.0
C1774 C 0.26146 0.37892 0.32518 0.0
C1775 C 0.24288 0.36452 0.32573 0.0
C1776 C 0.2854 0.41268 0.32225 0.0
C1777 C 0.2925 0.41119 0.30748 0.0
C1778 C 0.29703 0.42748 0.33288 0.0
C1779 C 0.29033 0.42995 0.34861 0.0
C1780 C 0.28301 0.41523 0.35982 0.0
C1781 C 0.27702 0.41785 0.37472 0.0
C1782 C 0.27841 0.43516 0.37858 0.0
C1783 C 0.28582 0.44991 0.36756 0.0
C1784 C 0.29181 0.44737 0.35265 0.0
H1785 H 0.2738 0.43717 0.39013 0.0
H1786 H 0.33444 0.41482 0.24571 0.0
H1787 H 0.54244 0.91401 0.28274 0.0
H1788 H 0.56051 0.89916 0.29024 0.0
H1789 H 0.53539 0.88698 0.33691 0.0
H1790 H 0.51796 0.90299 0.32983 0.0
H1791 H 0.57216 0.89857 0.33882 0.0
H1792 H 0.52029 0.85243 0.30751 0.0
H1793 H 0.49908 0.8408 0.28416 0.0
H1794 H 0.54545 0.85278 0.25372 0.0
H1795 H 0.56698 0.86476 0.27681 0.0
H1796 H 0.61843 0.84344 0.34791 0.0
H1797 H 0.59303 0.85097 0.34766 0.0
H1798 H 0.60686 0.87055 0.29916 0.0
H1799 H 0.63177 0.86294 0.29923 0.0
H1800 H 0.5701 0.84938 0.30263 0.0
H1801 H 0.62219 0.90063 0.33134 0.0
H1802 H 0.64514 0.915 0.35332 0.0
H1803 H 0.60039 0.89572 0.38716 0.0
H1804 H 0.57717 0.88096 0.3654 0.0
C1805 C 0.54096 0.90856 0.29473 0.0
C1806 C 0.52869 0.90974 0.30567 0.0
C1807 C 0.55112 0.89977 0.29891 0.0
C1808 C 0.54895 0.89153 0.314 0.0
C1809 C 0.5371 0.89305 0.32514 0.0
C1810 C 0.52705 0.90208 0.32101 0.0
C1811 C 0.55916 0.88138 0.31794 0.0
C1812 C 0.57142 0.8875 0.33112 0.0
C1813 C 0.55831 0.86707 0.3078 0.0
C1814 C 0.54527 0.85955 0.29392 0.0
C1815 C 0.52598 0.85266 0.29583 0.0
C1816 C 0.5139 0.84601 0.28263 0.0
C1817 C 0.52092 0.84606 0.26747 0.0
C1818 C 0.54003 0.85273 0.26547 0.0
C1819 C 0.55217 0.85943 0.27861 0.0
C1820 C 0.61583 0.84911 0.33715 0.0
C1821 C 0.62717 0.85268 0.32362 0.0
C1822 C 0.60143 0.85352 0.33707 0.0
C1823 C 0.59817 0.86146 0.32343 0.0
C1824 C 0.60911 0.86443 0.30982 0.0
C1825 C 0.62343 0.86013 0.30991 0.0
C1826 C 0.58372 0.86719 0.32303 0.0
C1827 C 0.57051 0.86011 0.31057 0.0
C1828 C 0.58395 0.88081 0.33367 0.0
C1829 C 0.59794 0.8894 0.34677 0.0
C1830 C 0.61724 0.89924 0.34349 0.0
C1831 C 0.63031 0.9075 0.3559 0.0
C1832 C 0.62423 0.9062 0.37163 0.0
C1833 C 0.60508 0.89666 0.37498 0.0
C1834 C 0.59196 0.88832 0.36261 0.0
H1835 H 0.63437 0.91265 0.38122 0.0
H1836 H 0.51154 0.84092 0.25727 0.0
H1837 H 0.06829 0.62532 0.29735 0.0
H1838 H 0.08447 0.65953 0.30154 0.0
H1839 H 0.13389 0.65871 0.31723 0.0
H1840 H 0.11817 0.62461 0.31244 0.0
H1841 H 0.12339 0.68193 0.33615 0.0
H1842 H 0.13331 0.67081 0.28098 0.0
H1843 H 0.12198 0.65651 0.25438 0.0
H1844 H 0.09047 0.68516 0.25011 0.0
H1845 H 0.10138 0.6994 0.27681 0.0
H1846 H 0.18224 0.77688 0.34014 0.0
H1847 H 0.17315 0.74586 0.32886 0.0
H1848 H 0.1279 0.74629 0.30322 0.0
H1849 H 0.13754 0.77767 0.31404 0.0
H1850 H 0.13654 0.72291 0.2887 0.0
H1851 H 0.12178 0.73133 0.34194 0.0
H1852 H 0.12698 0.7432 0.36967 0.0
H1853 H 0.16131 0.71839 0.37872 0.0
H1854 H 0.15634 0.70639 0.35101 0.0
C1855 C 0.08262 0.63236 0.30166 0.0
C1856 C 0.09199 0.62215 0.30429 0.0
C1857 C 0.0918 0.65192 0.30411 0.0
C1858 C 0.11046 0.66166 0.30942 0.0
C1859 C 0.1195 0.65143 0.31303 0.0
C1860 C 0.11041 0.63189 0.3104 0.0
C1861 C 0.12078 0.68258 0.31067 0.0
C1862 C 0.1266 0.69092 0.32577 0.0
C1863 C 0.12421 0.69422 0.29716 0.0
C1864 C 0.11806 0.68606 0.28094 0.0
C1865 C 0.12388 0.67398 0.2744 0.0
C1866 C 0.11754 0.66589 0.25931 0.0
C1867 C 0.10549 0.66989 0.25057 0.0
C1868 C 0.0998 0.68206 0.25689 0.0
C1869 C 0.10608 0.69016 0.272 0.0
C1870 C 0.17127 0.77098 0.33115 0.0
C1871 C 0.16048 0.77955 0.32806 0.0
C1872 C 0.16577 0.75302 0.32498 0.0
C1873 C 0.14928 0.74336 0.31583 0.0
C1874 C 0.14048 0.7533 0.3105 0.0
C1875 C 0.1462 0.77144 0.31649 0.0
C1876 C 0.13958 0.72239 0.31421 0.0
C1877 C 0.13365 0.71399 0.29908 0.0
C1878 C 0.13548 0.7106 0.32779 0.0
C1879 C 0.13891 0.7182 0.34434 0.0
C1880 C 0.13059 0.72857 0.3498 0.0
C1881 C 0.13345 0.73527 0.36552 0.0
C1882 C 0.14456 0.73166 0.37592 0.0
C1883 C 0.15277 0.72125 0.37063 0.0
C1884 C 0.14991 0.71447 0.35493 0.0
H1885 H 0.14675 0.73685 0.38808 0.0
H1886 H 0.10058 0.6636 0.23889 0.0
H1887 H 0.82689 0.03464 0.37801 0.0
H1888 H 0.80637 0.00055 0.37434 0.0
H1889 H 0.76341 0.01032 0.35478 0.0
H1890 H 0.78369 0.0444 0.35922 0.0
H1891 H 0.7493 0.98489 0.3767 0.0
H1892 H 0.78967 0.99476 0.33172 0.0
H1893 H 0.82024 0.006 0.31876 0.0
H1894 H 0.83087 0.96981 0.34873 0.0
H1895 H 0.80045 0.9585 0.36199 0.0
H1896 H 0.6859 0.89689 0.34391 0.0
H1897 H 0.70689 0.92796 0.35396 0.0
H1898 H 0.74823 0.91156 0.36425 0.0
H1899 H 0.72793 0.88105 0.35112 0.0
H1900 H 0.7649 0.94044 0.34986 0.0
H1901 H 0.72225 0.92929 0.3941 0.0
H1902 H 0.69089 0.91821 0.40548 0.0
H1903 H 0.684 0.95727 0.37604 0.0
H1904 H 0.71524 0.96853 0.36447 0.0
C1905 C 0.81319 0.02946 0.37264 0.0
C1906 C 0.80677 0.04198 0.36888 0.0
C1907 C 0.80149 0.01001 0.3705 0.0
C1908 C 0.78336 0.00284 0.3642 0.0
C1909 C 0.77731 0.01551 0.35975 0.0
C1910 C 0.78886 0.03493 0.3622 0.0
C1911 C 0.77013 0.98215 0.36345 0.0
C1912 C 0.75263 0.97513 0.37074 0.0
C1913 C 0.77472 0.96938 0.35617 0.0
C1914 C 0.79284 0.9759 0.34794 0.0
C1915 C 0.79857 0.98927 0.3356 0.0
C1916 C 0.81586 0.99564 0.32819 0.0
C1917 C 0.82751 0.98866 0.33295 0.0
C1918 C 0.82184 0.97522 0.34506 0.0
C1919 C 0.80456 0.9688 0.35251 0.0
C1920 C 0.69908 0.89956 0.3491 0.0
C1921 C 0.70531 0.88663 0.34675 0.0
C1922 C 0.71124 0.91755 0.35504 0.0
C1923 C 0.72937 0.9225 0.36026 0.0
C1924 C 0.73447 0.90837 0.36018 0.0
C1925 C 0.72268 0.89068 0.35309 0.0
C1926 C 0.7437 0.94284 0.36312 0.0
C1927 C 0.76153 0.94995 0.35618 0.0
C1928 C 0.73939 0.95577 0.37073 0.0
C1929 C 0.72109 0.94974 0.37844 0.0
C1930 C 0.71408 0.93557 0.39013 0.0
C1931 C 0.69631 0.92924 0.39658 0.0
C1932 C 0.68546 0.93703 0.39148 0.0
C1933 C 0.69243 0.95129 0.38002 0.0
C1934 C 0.7102 0.95772 0.37357 0.0
H1935 H 0.67166 0.93201 0.3964 0.0
H1936 H 0.8409 0.99364 0.32722 0.0
H1937 H 0.95622 0.78732 0.36151 0.0
H1938 H 0.98877 0.80139 0.35271 0.0
H1939 H 0.98793 0.74933 0.36344 0.0
H1940 H 0.95548 0.73521 0.37219 0.0
H1941 H 0.01767 0.77851 0.37637 0.0
H1942 H 0.98747 0.76205 0.32534 0.0
H1943 H 0.96689 0.76128 0.30357 0.0
H1944 H -0.0004 0.8217 0.29952 0.0
H1945 H 0.02027 0.82284 0.32143 0.0
H1946 H 0.09014 0.77753 0.33975 0.0
H1947 H 0.05847 0.77262 0.33999 0.0
H1948 H 0.08072 0.83293 0.34161 0.0
H1949 H 0.11279 0.838 0.34101 0.0
H1950 H 0.04214 0.80576 0.323 0.0
H1951 H 0.07586 0.81719 0.37385 0.0
H1952 H 0.09709 0.81063 0.38981 0.0
H1953 H 0.05521 0.75181 0.39169 0.0
H1954 H 0.03417 0.75781 0.37485 0.0
C1955 C 0.96291 0.77879 0.36174 0.0
C1956 C 0.95338 0.7602 0.36762 0.0
C1957 C 0.98149 0.78686 0.35674 0.0
C1958 C 0.99076 0.77642 0.35748 0.0
C1959 C 0.98108 0.75769 0.36293 0.0
C1960 C 0.96257 0.74965 0.36794 0.0
C1961 C 0.01079 0.78509 0.3533 0.0
C1962 C 0.02299 0.78458 0.36473 0.0
C1963 C 0.01778 0.79312 0.33815 0.0
C1964 C 0.00525 0.79256 0.32517 0.0
C1965 C 0.99015 0.77519 0.31994 0.0
C1966 C 0.9785 0.77468 0.30754 0.0
C1967 C 0.9819 0.79144 0.30021 0.0
C1968 C 0.99697 0.80874 0.30524 0.0
C1969 C 0.00866 0.80933 0.31765 0.0
C1970 C 0.08831 0.78977 0.33974 0.0
C1971 C 0.10382 0.80812 0.34071 0.0
C1972 C 0.07023 0.78695 0.3397 0.0
C1973 C 0.06735 0.80241 0.34099 0.0
C1974 C 0.08275 0.82086 0.34053 0.0
C1975 C 0.101 0.82372 0.34031 0.0
C1976 C 0.04871 0.79882 0.34597 0.0
C1977 C 0.03685 0.80031 0.33479 0.0
C1978 C 0.04178 0.79108 0.3612 0.0
C1979 C 0.05351 0.78794 0.37294 0.0
C1980 C 0.07119 0.80285 0.37761 0.0
C1981 C 0.08325 0.7992 0.38672 0.0
C1982 C 0.07751 0.7808 0.39173 0.0
C1983 C 0.05964 0.76604 0.38776 0.0
C1984 C 0.04769 0.76955 0.37835 0.0
H1985 H 0.08689 0.77793 0.39866 0.0
H1986 H 0.97289 0.79101 0.29059 0.0
H1987 H 0.20997 0.17303 0.37272 0.0
H1988 H 0.19606 0.19296 0.36839 0.0
H1989 H 0.25122 0.24167 0.36308 0.0
H1990 H 0.2652 0.22179 0.36769 0.0
H1991 H 0.23199 0.25004 0.38245 0.0
H1992 H 0.22064 0.22135 0.33103 0.0
H1993 H 0.20958 0.19553 0.31121 0.0
H1994 H 0.15311 0.17315 0.32751 0.0
H1995 H 0.16387 0.19871 0.34759 0.0
H1996 H 0.20651 0.31335 0.348 0.0
H1997 H 0.21821 0.29363 0.35829 0.0
H1998 H 0.16175 0.24607 0.35962 0.0
H1999 H 0.15049 0.26555 0.34697 0.0
H2000 H 0.18091 0.23624 0.34394 0.0
H2001 H 0.19629 0.27284 0.3933 0.0
H2002 H 0.21127 0.30352 0.40748 0.0
H2003 H 0.26526 0.31502 0.39135 0.0
H2004 H 0.25062 0.28511 0.37619 0.0
C2005 C 0.21911 0.18791 0.3703 0.0
C2006 C 0.23868 0.19586 0.37056 0.0
C2007 C 0.21115 0.19932 0.36786 0.0
C2008 C 0.22258 0.21885 0.3654 0.0
C2009 C 0.24211 0.22668 0.36509 0.0
C2010 C 0.25009 0.21531 0.36768 0.0
C2011 C 0.21423 0.23125 0.3639 0.0
C2012 C 0.22088 0.24713 0.37397 0.0
C2013 C 0.19962 0.22732 0.35296 0.0
C2014 C 0.1931 0.21183 0.34096 0.0
C2015 C 0.20588 0.21082 0.33051 0.0
C2016 C 0.19967 0.19625 0.3192 0.0
C2017 C 0.18066 0.18267 0.31814 0.0
C2018 C 0.16783 0.18366 0.32837 0.0
C2019 C 0.17398 0.19819 0.33971 0.0
C2020 C 0.19644 0.29897 0.35139 0.0
C2021 C 0.1776 0.29097 0.34681 0.0
C2022 C 0.20319 0.28755 0.35726 0.0
C2023 C 0.19094 0.26819 0.35993 0.0
C2024 C 0.17159 0.2609 0.35758 0.0
C2025 C 0.165 0.27214 0.35077 0.0
C2026 C 0.19846 0.25514 0.36265 0.0
C2027 C 0.19172 0.23906 0.35272 0.0
C2028 C 0.21345 0.25931 0.37338 0.0
C2029 C 0.22228 0.27664 0.38355 0.0
C2030 C 0.21135 0.2819 0.39275 0.0
C2031 C 0.21979 0.29923 0.40088 0.0
C2032 C 0.23919 0.3111 0.40045 0.0
C2033 C 0.25023 0.30577 0.39175 0.0
C2034 C 0.24185 0.28868 0.38329 0.0
H2035 H 0.24567 0.32447 0.4068 0.0
H2036 H 0.17587 0.17141 0.30937 0.0
H2037 H 0.61748 0.52267 0.67732 0.0
H2038 H 0.65059 0.54116 0.66975 0.0
H2039 H 0.66646 0.55095 0.71948 0.0
H2040 H 0.63368 0.53243 0.7271 0.0
H2041 H 0.68296 0.58333 0.70236 0.0
H2042 H 0.67273 0.51976 0.69783 0.0
H2043 H 0.65722 0.48709 0.6874 0.0
H2044 H 0.67289 0.50803 0.6397 0.0
H2045 H 0.6883 0.54085 0.64984 0.0
H2046 H 0.77737 0.61902 0.70822 0.0
H2047 H 0.74451 0.59428 0.7089 0.0
H2048 H 0.74115 0.59634 0.65764 0.0
H2049 H 0.77435 0.62106 0.65684 0.0
H2050 H 0.71772 0.55892 0.67143 0.0
H2051 H 0.73008 0.62269 0.67657 0.0
H2052 H 0.74622 0.65514 0.6875 0.0
H2053 H 0.72613 0.63359 0.73436 0.0
H2054 H 0.71018 0.60097 0.72377 0.0
C2055 C 0.62806 0.52864 0.68662 0.0
C2056 C 0.62294 0.52626 0.70281 0.0
C2057 C 0.64695 0.53918 0.68228 0.0
C2058 C 0.66096 0.54741 0.69406 0.0
C2059 C 0.65585 0.54484 0.7102 0.0
C2060 C 0.63709 0.53434 0.71453 0.0
C2061 C 0.68097 0.55931 0.68984 0.0
C2062 C 0.69055 0.57793 0.69567 0.0
C2063 C 0.69074 0.55246 0.68067 0.0
C2064 C 0.68147 0.53275 0.67457 0.0
C2065 C 0.67272 0.5174 0.6851 0.0
C2066 C 0.66398 0.49886 0.67924 0.0
C2067 C 0.66402 0.49549 0.66289 0.0
C2068 C 0.67284 0.51066 0.65236 0.0
C2069 C 0.68159 0.52923 0.65815 0.0
C2070 C 0.76978 0.61386 0.69704 0.0
C2071 C 0.77825 0.62218 0.6825 0.0
C2072 C 0.75103 0.59971 0.69745 0.0
C2073 C 0.74035 0.59383 0.68335 0.0
C2074 C 0.74919 0.60079 0.66864 0.0
C2075 C 0.76811 0.6149 0.6682 0.0
C2076 C 0.71969 0.58263 0.68444 0.0
C2077 C 0.71002 0.56431 0.67795 0.0
C2078 C 0.70972 0.58972 0.69301 0.0
C2079 C 0.71905 0.60936 0.69938 0.0
C2080 C 0.72922 0.62486 0.68923 0.0
C2081 C 0.73832 0.64328 0.69536 0.0
C2082 C 0.73722 0.64642 0.71162 0.0
C2083 C 0.72698 0.63114 0.72177 0.0
C2084 C 0.7179 0.61267 0.71571 0.0
H2085 H 0.74428 0.6607 0.71634 0.0
H2086 H 0.65725 0.48112 0.65838 0.0
H2087 H 0.49569 0.1154 0.68874 0.0
H2088 H 0.47723 0.1296 0.67968 0.0
H2089 H 0.43346 0.09449 0.71264 0.0
H2090 H 0.45102 0.07938 0.72077 0.0
H2091 H 0.41828 0.0948 0.68685 0.0
H2092 H 0.46668 0.14283 0.71963 0.0
H2093 H 0.49928 0.1651 0.72777 0.0
H2094 H 0.50919 0.19376 0.68291 0.0
H2095 H 0.47667 0.17147 0.67442 0.0
H2096 H 0.36937 0.13827 0.70955 0.0
H2097 H 0.39663 0.13423 0.71029 0.0
H2098 H 0.41018 0.15463 0.66205 0.0
H2099 H 0.38257 0.15882 0.66117 0.0
H2100 H 0.44287 0.16402 0.68899 0.0
H2101 H 0.38559 0.11417 0.66307 0.0
H2102 H 0.35151 0.09377 0.66431 0.0
H2103 H 0.35714 0.06654 0.70604 0.0
H2104 H 0.39125 0.08826 0.70603 0.0
C2105 C 0.48198 0.11049 0.69383 0.0
C2106 C 0.47491 0.09632 0.70559 0.0
C2107 C 0.47156 0.11881 0.6888 0.0
C2108 C 0.45404 0.11331 0.6956 0.0
C2109 C 0.44693 0.09902 0.70717 0.0
C2110 C 0.45713 0.09052 0.71198 0.0
C2111 C 0.44273 0.12208 0.69084 0.0
C2112 C 0.42376 0.10995 0.68725 0.0
C2113 C 0.44983 0.14189 0.69124 0.0
C2114 C 0.46933 0.15535 0.69631 0.0
C2115 C 0.47586 0.1538 0.71145 0.0
C2116 C 0.4943 0.16643 0.71614 0.0
C2117 C 0.50631 0.1808 0.70584 0.0
C2118 C 0.49987 0.18259 0.69086 0.0
C2119 C 0.48144 0.16997 0.6861 0.0
C2120 C 0.37826 0.14222 0.69914 0.0
C2121 C 0.37352 0.14838 0.68513 0.0
C2122 C 0.39399 0.14011 0.69967 0.0
C2123 C 0.40528 0.14397 0.6862 0.0
C2124 C 0.40162 0.15167 0.6726 0.0
C2125 C 0.38579 0.15389 0.67207 0.0
C2126 C 0.41842 0.13659 0.68566 0.0
C2127 C 0.43765 0.14894 0.68814 0.0
C2128 C 0.41141 0.11683 0.68525 0.0
C2129 C 0.39102 0.103 0.6846 0.0
C2130 C 0.37958 0.10403 0.67264 0.0
C2131 C 0.36019 0.09219 0.67315 0.0
C2132 C 0.35211 0.07858 0.68511 0.0
C2133 C 0.36341 0.07703 0.69675 0.0
C2134 C 0.38276 0.08926 0.6966 0.0
H2135 H 0.33712 0.06922 0.68543 0.0
H2136 H 0.52059 0.19057 0.70949 0.0
H2137 H 0.91149 0.36925 0.73081 0.0
H2138 H 0.89618 0.33553 0.72492 0.0
H2139 H 0.88496 0.34578 0.67681 0.0
H2140 H 0.90111 0.37985 0.68231 0.0
H2141 H 0.85301 0.31628 0.69428 0.0
H2142 H 0.91604 0.3349 0.67966 0.0
H2143 H 0.95025 0.35061 0.68356 0.0
H2144 H 0.94255 0.31608 0.72454 0.0
H2145 H 0.90825 0.30032 0.721 0.0
H2146 H 0.82779 0.23036 0.65589 0.0
H2147 H 0.8361 0.2606 0.66748 0.0
H2148 H 0.86248 0.2492 0.70723 0.0
H2149 H 0.85585 0.21945 0.69432 0.0
H2150 H 0.88615 0.2797 0.69593 0.0
H2151 H 0.82173 0.25918 0.70894 0.0
H2152 H 0.78776 0.24369 0.70357 0.0
H2153 H 0.79775 0.28176 0.66476 0.0
H2154 H 0.83176 0.29737 0.66981 0.0
C2155 C 0.9062 0.3645 0.71883 0.0
C2156 C 0.90769 0.3774 0.70701 0.0
C2157 C 0.89728 0.34515 0.71556 0.0
C2158 C 0.88945 0.33822 0.70047 0.0
C2159 C 0.89085 0.35092 0.68858 0.0
C2160 C 0.90003 0.37036 0.69177 0.0
C2161 C 0.87954 0.31761 0.6973 0.0
C2162 C 0.86017 0.30819 0.69452 0.0
C2163 C 0.88893 0.30716 0.69803 0.0
C2164 C 0.90956 0.31658 0.70017 0.0
C2165 C 0.92163 0.33078 0.68959 0.0
C2166 C 0.94104 0.33966 0.69171 0.0
C2167 C 0.94857 0.33439 0.70432 0.0
C2168 C 0.9367 0.32017 0.7148 0.0
C2169 C 0.91727 0.31124 0.71273 0.0
C2170 C 0.83448 0.23384 0.66754 0.0
C2171 C 0.84111 0.22257 0.67426 0.0
C2172 C 0.83924 0.25128 0.67427 0.0
C2173 C 0.84994 0.25745 0.68838 0.0
C2174 C 0.85433 0.24491 0.69628 0.0
C2175 C 0.85014 0.22764 0.68915 0.0
C2176 C 0.85921 0.27786 0.69307 0.0
C2177 C 0.87865 0.28746 0.69603 0.0
C2178 C 0.84983 0.28846 0.69247 0.0
C2179 C 0.82931 0.27942 0.68976 0.0
C2180 C 0.81668 0.26423 0.69926 0.0
C2181 C 0.79742 0.25543 0.69627 0.0
C2182 C 0.7906 0.26174 0.68383 0.0
C2183 C 0.80304 0.27691 0.67441 0.0
C2184 C 0.8223 0.28579 0.67737 0.0
H2185 H 0.77569 0.25486 0.6815 0.0
H2186 H 0.9636 0.34128 0.70594 0.0
H2187 H 0.17871 0.95414 0.64994 0.0
H2188 H 0.19673 0.98801 0.65581 0.0
H2189 H 0.23656 0.99474 0.61946 0.0
H2190 H 0.22005 0.96095 0.61496 0.0
H2191 H 0.25436 0.01564 0.64147 0.0
H2192 H 0.19687 0.00456 0.61546 0.0
H2193 H 0.16245 0.98937 0.61351 0.0
H2194 H 0.16099 0.01342 0.65875 0.0
H2195 H 0.19537 0.02855 0.66107 0.0
H2196 H 0.30477 0.1131 0.64624 0.0
H2197 H 0.28328 0.08402 0.63164 0.0
H2198 H 0.24026 0.0725 0.66631 0.0
H2199 H 0.26111 0.10191 0.67992 0.0
H2200 H 0.2234 0.05427 0.64253 0.0
H2201 H 0.28092 0.06299 0.6689 0.0
H2202 H 0.31441 0.07358 0.67226 0.0
H2203 H 0.31515 0.05075 0.62619 0.0
H2204 H 0.28185 0.04082 0.62225 0.0
C2205 C 0.19155 0.96277 0.64347 0.0
C2206 C 0.19763 0.95478 0.63166 0.0
C2207 C 0.20165 0.98225 0.64661 0.0
C2208 C 0.21765 0.99416 0.63764 0.0
C2209 C 0.22412 0.98602 0.62641 0.0
C2210 C 0.21446 0.9666 0.62367 0.0
C2211 C 0.22806 0.01507 0.63988 0.0
C2212 C 0.24757 0.02411 0.64137 0.0
C2213 C 0.21925 0.02615 0.64016 0.0
C2214 C 0.19867 0.01761 0.63846 0.0
C2215 C 0.1892 0.0066 0.62499 0.0
C2216 C 0.1697 0.99797 0.62383 0.0
C2217 C 0.15954 0.00041 0.636 0.0
C2218 C 0.16887 0.01154 0.64933 0.0
C2219 C 0.18836 0.02016 0.65056 0.0
C2220 C 0.29032 0.10497 0.65002 0.0
C2221 C 0.28457 0.10956 0.66427 0.0
C2222 C 0.27814 0.08807 0.64192 0.0
C2223 C 0.26044 0.07543 0.64838 0.0
C2224 C 0.2539 0.08166 0.66116 0.0
C2225 C 0.26582 0.09864 0.66893 0.0
C2226 C 0.24987 0.05494 0.64391 0.0
C2227 C 0.23024 0.04587 0.6422 0.0
C2228 C 0.25858 0.04373 0.6433 0.0
C2229 C 0.27898 0.05142 0.6452 0.0
C2230 C 0.28832 0.06056 0.65937 0.0
C2231 C 0.30728 0.06639 0.66139 0.0
C2232 C 0.31688 0.06266 0.64949 0.0
C2233 C 0.3077 0.05361 0.63538 0.0
C2234 C 0.28885 0.04805 0.6332 0.0
H2235 H 0.33136 0.06656 0.65115 0.0
H2236 H 0.14445 0.99369 0.6351 0.0
H2237 H 0.04865 0.22589 0.6565 0.0
H2238 H 0.01646 0.2121 0.66589 0.0
H2239 H 0.0053 0.24269 0.62966 0.0
H2240 H 0.03769 0.25775 0.62121 0.0
H2241 H 0.98809 0.24278 0.65388 0.0
H2242 H 0.99297 0.19396 0.62621 0.0
H2243 H 0.00574 0.17296 0.62055 0.0
H2244 H 0.99 0.14896 0.66734 0.0
H2245 H 0.97732 0.17 0.67334 0.0
H2246 H 0.89533 0.18673 0.63213 0.0
H2247 H 0.92781 0.19393 0.63262 0.0
H2248 H 0.92477 0.18553 0.68353 0.0
H2249 H 0.89188 0.17817 0.68312 0.0
H2250 H 0.94891 0.17292 0.65738 0.0
H2251 H 0.94129 0.22476 0.68135 0.0
H2252 H 0.92586 0.244 0.6804 0.0
H2253 H 0.94503 0.26056 0.63241 0.0
H2254 H 0.96033 0.2412 0.63302 0.0
C2255 C 0.03948 0.23003 0.65076 0.0
C2256 C 0.0458 0.24278 0.63791 0.0
C2257 C 0.02095 0.22189 0.65601 0.0
C2258 C 0.00825 0.22599 0.64828 0.0
C2259 C 0.01472 0.23917 0.63582 0.0
C2260 C 0.03327 0.2476 0.63082 0.0
C2261 C 0.98811 0.21638 0.65274 0.0
C2262 C 0.97967 0.22751 0.65478 0.0
C2263 C 0.9769 0.19641 0.65388 0.0
C2264 C 0.98442 0.1837 0.65029 0.0
C2265 C 0.99235 0.18429 0.63533 0.0
C2266 C -0.00044 0.17237 0.63205 0.0
C2267 C -0.00126 0.15968 0.64359 0.0
C2268 C 0.99066 0.15883 0.65842 0.0
C2269 C 0.98346 0.17074 0.66177 0.0
C2270 C 0.9014 0.18594 0.64339 0.0
C2271 C 0.89124 0.18219 0.65762 0.0
C2272 C 0.9199 0.18992 0.64362 0.0
C2273 C 0.92863 0.19035 0.6581 0.0
C2274 C 0.91814 0.18512 0.67223 0.0
C2275 C 0.89943 0.18096 0.67199 0.0
C2276 C 0.94926 0.1994 0.65845 0.0
C2277 C 0.95765 0.1882 0.6571 0.0
C2278 C 0.96039 0.21926 0.6573 0.0
C2279 C 0.95189 0.23152 0.65723 0.0
C2280 C 0.94216 0.23248 0.67059 0.0
C2281 C 0.93343 0.24339 0.67011 0.0
C2282 C 0.93445 0.25349 0.65635 0.0
C2283 C 0.94427 0.25275 0.64307 0.0
C2284 C 0.95299 0.24184 0.64349 0.0
H2285 H 0.92766 0.26189 0.65599 0.0
H2286 H 0.00433 0.15046 0.64104 0.0
H2287 H 0.75356 0.80219 0.65947 0.0
H2288 H 0.76963 0.78431 0.66503 0.0
H2289 H 0.78189 0.78503 0.61494 0.0
H2290 H 0.7658 0.80261 0.60934 0.0
H2291 H 0.76739 0.74989 0.62793 0.0
H2292 H 0.8153 0.81517 0.64334 0.0
H2293 H 0.82583 0.84377 0.66 0.0
H2294 H 0.81541 0.81068 0.70242 0.0
H2295 H 0.80464 0.7819 0.68605 0.0
H2296 H 0.81335 0.69863 0.6425 0.0
H2297 H 0.80924 0.72406 0.63113 0.0
H2298 H 0.81482 0.74747 0.67862 0.0
H2299 H 0.82207 0.72453 0.68896 0.0
H2300 H 0.82295 0.7733 0.6633 0.0
H2301 H 0.76895 0.70985 0.65485 0.0
H2302 H 0.75178 0.67765 0.64334 0.0
H2303 H 0.7645 0.70072 0.59606 0.0
H2304 H 0.78186 0.73303 0.60732 0.0
C2305 C 0.75978 0.79858 0.6497 0.0
C2306 C 0.75831 0.80362 0.63396 0.0
C2307 C 0.76897 0.78843 0.65287 0.0
C2308 C 0.77707 0.78349 0.64038 0.0
C2309 C 0.77569 0.78866 0.62472 0.0
C2310 C 0.76643 0.79862 0.62155 0.0
C2311 C 0.78658 0.77248 0.64335 0.0
C2312 C 0.7796 0.75495 0.63564 0.0
C2313 C 0.8021 0.77888 0.65376 0.0
C2314 C 0.80911 0.79639 0.66345 0.0
C2315 C 0.81522 0.81401 0.65621 0.0
C2316 C 0.82122 0.83024 0.66561 0.0
C2317 C 0.82127 0.82904 0.68225 0.0
C2318 C 0.81538 0.81161 0.68954 0.0
C2319 C 0.80936 0.79535 0.6802 0.0
C2320 C 0.81479 0.70997 0.65014 0.0
C2321 C 0.81792 0.70964 0.66654 0.0
C2322 C 0.81182 0.72418 0.64381 0.0
C2323 C 0.81068 0.73736 0.65405 0.0
C2324 C 0.81545 0.73772 0.67021 0.0
C2325 C 0.81949 0.72438 0.67625 0.0
C2326 C 0.80306 0.74972 0.64878 0.0
C2327 C 0.81061 0.76785 0.65574 0.0
C2328 C 0.78712 0.74319 0.63865 0.0
C2329 C 0.77692 0.72379 0.63192 0.0
C2330 C 0.76817 0.70802 0.64201 0.0
C2331 C 0.7584 0.68976 0.63553 0.0
C2332 C 0.75712 0.68714 0.61898 0.0
C2333 C 0.76556 0.70277 0.60887 0.0
C2334 C 0.77537 0.72104 0.61529 0.0
H2335 H 0.74955 0.673 0.61399 0.0
H2336 H 0.82588 0.84161 0.6895 0.0
H2337 H 0.05393 0.81489 0.66162 0.0
H2338 H 0.02103 0.79904 0.66931 0.0
H2339 H 0.0054 0.77018 0.62381 0.0
H2340 H 0.038 0.78692 0.61559 0.0
H2341 H 0.98315 0.7829 0.63005 0.0
H2342 H 0.00588 0.74803 0.65982 0.0
H2343 H 0.02638 0.74382 0.67885 0.0
H2344 H 0.00946 0.76792 0.71635 0.0
H2345 H 0.98899 0.77245 0.69747 0.0
H2346 H 0.90157 0.69888 0.63786 0.0
H2347 H 0.93271 0.72574 0.63602 0.0
H2348 H 0.92631 0.74607 0.68183 0.0
H2349 H 0.89446 0.71821 0.684 0.0
H2350 H 0.95908 0.74485 0.6793 0.0
H2351 H 0.92968 0.77152 0.64714 0.0
H2352 H 0.90797 0.7706 0.62634 0.0
H2353 H 0.93663 0.75651 0.59101 0.0
H2354 H 0.95842 0.75721 0.61158 0.0
C2355 C 0.0435 0.80528 0.65318 0.0
C2356 C 0.04871 0.8023 0.63793 0.0
C2357 C 0.02467 0.79606 0.65768 0.0
C2358 C 0.0107 0.78336 0.64717 0.0
C2359 C 0.0159 0.77999 0.63211 0.0
C2360 C 0.03465 0.78939 0.62751 0.0
C2361 C 0.99057 0.77377 0.65157 0.0
C2362 C 0.9779 0.77458 0.64082 0.0
C2363 C 0.98372 0.76338 0.66587 0.0
C2364 C 0.99611 0.76081 0.6772 0.0
C2365 C 0.00666 0.75258 0.67209 0.0
C2366 C 0.01824 0.7501 0.68286 0.0
C2367 C 0.01927 0.75566 0.69879 0.0
C2368 C 0.00868 0.76367 0.704 0.0
C2369 C 0.99708 0.76618 0.69328 0.0
C2370 C 0.90661 0.70905 0.64759 0.0
C2371 C 0.89563 0.70627 0.66119 0.0
C2372 C 0.92441 0.72463 0.64638 0.0
C2373 C 0.93177 0.73816 0.65861 0.0
C2374 C 0.92076 0.73586 0.67216 0.0
C2375 C 0.90263 0.72003 0.67338 0.0
C2376 C 0.95164 0.75336 0.65746 0.0
C2377 C 0.96437 0.75369 0.6688 0.0
C2378 C 0.95853 0.76437 0.64345 0.0
C2379 C 0.94574 0.7645 0.63094 0.0
C2380 C 0.93136 0.76823 0.63494 0.0
C2381 C 0.91903 0.76774 0.62318 0.0
C2382 C 0.92093 0.76352 0.60737 0.0
C2383 C 0.93521 0.75985 0.60326 0.0
C2384 C 0.9476 0.76037 0.61495 0.0
H2385 H 0.91133 0.76308 0.5983 0.0
H2386 H 0.02824 0.75372 0.70711 0.0
H2387 H 0.22084 0.2619 0.62626 0.0
H2388 H 0.23668 0.24468 0.63431 0.0
H2389 H 0.18765 0.20487 0.66015 0.0
H2390 H 0.17129 0.22138 0.65159 0.0
H2391 H 0.22834 0.22234 0.67571 0.0
H2392 H 0.18933 0.18932 0.62807 0.0
H2393 H 0.18001 0.18967 0.6001 0.0
H2394 H 0.23714 0.21296 0.5853 0.0
H2395 H 0.24682 0.21299 0.61318 0.0
H2396 H 0.27635 0.17041 0.68622 0.0
H2397 H 0.24922 0.17528 0.68311 0.0
H2398 H 0.26924 0.19901 0.63637 0.0
H2399 H 0.29456 0.19268 0.63888 0.0
H2400 H 0.2362 0.18375 0.63398 0.0
H2401 H 0.27892 0.22549 0.6748 0.0
H2402 H 0.29583 0.23349 0.70057 0.0
H2403 H 0.24351 0.20525 0.72552 0.0
H2404 H 0.22631 0.1969 0.69986 0.0
C2405 C 0.21335 0.24946 0.63361 0.0
C2406 C 0.1947 0.24298 0.63816 0.0
C2407 C 0.2225 0.23975 0.6383 0.0
C2408 C 0.21326 0.22354 0.64777 0.0
C2409 C 0.19499 0.21745 0.65291 0.0
C2410 C 0.18573 0.22699 0.64806 0.0
C2411 C 0.22232 0.21232 0.65145 0.0
C2412 C 0.22991 0.21365 0.66672 0.0
C2413 C 0.2248 0.20158 0.6395 0.0
C2414 C 0.21879 0.20124 0.62273 0.0
C2415 C 0.19991 0.19463 0.61887 0.0
C2416 C 0.19456 0.19474 0.60302 0.0
C2417 C 0.20797 0.20136 0.59093 0.0
C2418 C 0.22676 0.20784 0.59466 0.0
C2419 C 0.23217 0.20777 0.61048 0.0
C2420 C 0.2744 0.17604 0.67515 0.0
C2421 C 0.28767 0.18153 0.66291 0.0
C2422 C 0.25911 0.1791 0.67344 0.0
C2423 C 0.25733 0.188 0.65965 0.0
C2424 C 0.27002 0.19213 0.64714 0.0
C2425 C 0.28473 0.18866 0.64866 0.0
C2426 C 0.24343 0.19451 0.65811 0.0
C2427 C 0.23456 0.19215 0.64321 0.0
C2428 C 0.24104 0.20548 0.67004 0.0
C2429 C 0.25135 0.21032 0.68544 0.0
C2430 C 0.27104 0.22086 0.68579 0.0
C2431 C 0.28067 0.22548 0.70037 0.0
C2432 C 0.27075 0.21981 0.71467 0.0
C2433 C 0.25117 0.20956 0.71443 0.0
C2434 C 0.24148 0.20487 0.69987 0.0
H2435 H 0.27822 0.22341 0.72595 0.0
H2436 H 0.2038 0.20144 0.57868 0.0
H2437 H 0.78542 0.95838 0.64266 0.0
H2438 H 0.80121 0.99257 0.64703 0.0
H2439 H 0.74877 0.99142 0.64028 0.0
H2440 H 0.73281 0.95719 0.63616 0.0
H2441 H 0.77622 0.01696 0.62091 0.0
H2442 H 0.76879 0.00047 0.67631 0.0
H2443 H 0.77145 0.98487 0.70052 0.0
H2444 H 0.83137 0.01521 0.69645 0.0
H2445 H 0.82906 0.0308 0.67207 0.0
H2446 H 0.79728 0.10758 0.64679 0.0
H2447 H 0.7879 0.07616 0.63722 0.0
H2448 H 0.84009 0.08212 0.65437 0.0
H2449 H 0.84837 0.11298 0.66562 0.0
H2450 H 0.81471 0.05373 0.6674 0.0
H2451 H 0.82147 0.07179 0.61186 0.0
H2452 H 0.81734 0.08816 0.58884 0.0
H2453 H 0.75759 0.05508 0.59373 0.0
H2454 H 0.76136 0.03868 0.61687 0.0
C2455 C 0.77714 0.96531 0.64254 0.0
C2456 C 0.75788 0.95509 0.63889 0.0
C2457 C 0.78621 0.98487 0.64497 0.0
C2458 C 0.77618 0.99454 0.64385 0.0
C2459 C 0.75679 0.98424 0.64103 0.0
C2460 C 0.74771 0.9647 0.63865 0.0
C2461 C 0.78606 0.01548 0.6444 0.0
C2462 C 0.78459 0.02506 0.6311 0.0
C2463 C 0.79731 0.02597 0.65753 0.0
C2464 C 0.79873 0.01663 0.67223 0.0
C2465 C 0.78253 0.00368 0.68048 0.0
C2466 C 0.78397 0.99487 0.69426 0.0
C2467 C 0.80156 -0.00101 0.69999 0.0
C2468 C 0.81775 0.012 0.69198 0.0
C2469 C 0.81638 0.02084 0.67819 0.0
C2470 C 0.80732 0.10272 0.64756 0.0
C2471 C 0.82339 0.11254 0.65709 0.0
C2472 C 0.80186 0.0845 0.64214 0.0
C2473 C 0.81315 0.07641 0.64515 0.0
C2474 C 0.83093 0.08781 0.65211 0.0
C2475 C 0.83596 0.10573 0.65815 0.0
C2476 C 0.80511 0.05551 0.64375 0.0
C2477 C 0.80677 0.04581 0.65698 0.0
C2478 C 0.79398 0.04488 0.63055 0.0
C2479 C 0.79172 0.05403 0.61611 0.0
C2480 C 0.80746 0.06799 0.608 0.0
C2481 C 0.80518 0.0773 0.59495 0.0
C2482 C 0.78722 0.07267 0.58983 0.0
C2483 C 0.7715 0.05863 0.59768 0.0
C2484 C 0.77369 0.04928 0.61073 0.0
H2485 H 0.78549 0.07996 0.57978 0.0
H2486 H 0.80265 0.99215 0.71065 0.0
H2487 H 0.47488 0.36527 0.72925 0.0
H2488 H 0.4565 0.3314 0.72341 0.0
H2489 H 0.44923 0.3436 0.67471 0.0
H2490 H 0.46786 0.37772 0.68051 0.0
H2491 H 0.41572 0.31639 0.68956 0.0
H2492 H 0.47782 0.32865 0.68059 0.0
H2493 H 0.5112 0.34062 0.68659 0.0
H2494 H 0.49615 0.30416 0.72729 0.0
H2495 H 0.46265 0.29217 0.72167 0.0
H2496 H 0.39783 0.23187 0.64995 0.0
H2497 H 0.41999 0.26212 0.66203 0.0
H2498 H 0.39098 0.24386 0.70684 0.0
H2499 H 0.36784 0.21366 0.69441 0.0
H2500 H 0.44167 0.27348 0.69585 0.0
H2501 H 0.37722 0.26351 0.70398 0.0
H2502 H 0.34489 0.25261 0.69497 0.0
H2503 H 0.3657 0.28663 0.65289 0.0
H2504 H 0.39818 0.29711 0.66136 0.0
C2505 C 0.46936 0.36071 0.71729 0.0
C2506 C 0.47267 0.37402 0.70532 0.0
C2507 C 0.45895 0.3414 0.71397 0.0
C2508 C 0.45157 0.33505 0.69864 0.0
C2509 C 0.45484 0.34829 0.68662 0.0
C2510 C 0.46552 0.36769 0.6899 0.0
C2511 C 0.4402 0.31453 0.69536 0.0
C2512 C 0.42138 0.30699 0.69096 0.0
C2513 C 0.44761 0.30233 0.69729 0.0
C2514 C 0.46774 0.30968 0.70083 0.0
C2515 C 0.48163 0.32335 0.69093 0.0
C2516 C 0.50057 0.3301 0.69423 0.0
C2517 C 0.5058 0.3232 0.70734 0.0
C2518 C 0.49209 0.30952 0.71716 0.0
C2519 C 0.47312 0.30273 0.71392 0.0
C2520 C 0.39665 0.23392 0.6626 0.0
C2521 C 0.38101 0.22059 0.67123 0.0
C2522 C 0.40919 0.25132 0.66941 0.0
C2523 C 0.40656 0.25541 0.68507 0.0
C2524 C 0.39275 0.24106 0.69452 0.0
C2525 C 0.37984 0.22366 0.68756 0.0
C2526 C 0.41707 0.27527 0.69054 0.0
C2527 C 0.43588 0.28281 0.69497 0.0
C2528 C 0.40969 0.28751 0.68847 0.0
C2529 C 0.39013 0.2806 0.68307 0.0
C2530 C 0.37491 0.26822 0.69258 0.0
C2531 C 0.35655 0.26221 0.68762 0.0
C2532 C 0.35323 0.26879 0.6733 0.0
C2533 C 0.36828 0.2814 0.66391 0.0
C2534 C 0.38666 0.2873 0.66876 0.0
H2535 H 0.33901 0.26423 0.66953 0.0
H2536 H 0.52047 0.32842 0.70986 0.0
H2537 H 0.61425 0.09524 0.67785 0.0
H2538 H 0.6472 0.11264 0.67032 0.0
H2539 H 0.6624 0.09845 0.71538 0.0
H2540 H 0.62981 0.08234 0.72351 0.0
H2541 H 0.6837 0.13427 0.7101 0.0
H2542 H 0.66275 0.07734 0.67814 0.0
H2543 H 0.64277 0.05377 0.65787 0.0
H2544 H 0.66111 0.09742 0.6226 0.0
H2545 H 0.68107 0.12128 0.64272 0.0
H2546 H 0.76759 0.13654 0.70484 0.0
H2547 H 0.73635 0.13178 0.70632 0.0
H2548 H 0.74202 0.1551 0.65914 0.0
H2549 H 0.77374 0.1592 0.6573 0.0
H2550 H 0.71039 0.12257 0.66138 0.0
H2551 H 0.73692 0.17833 0.69453 0.0
H2552 H 0.75634 0.20004 0.71612 0.0
H2553 H 0.72752 0.1562 0.75064 0.0
H2554 H 0.708 0.13425 0.72931 0.0
C2555 C 0.6246 0.09588 0.68622 0.0
C2556 C 0.61927 0.08748 0.70139 0.0
C2557 C 0.64344 0.10567 0.68178 0.0
C2558 C 0.65732 0.10688 0.69227 0.0
C2559 C 0.65196 0.09783 0.70711 0.0
C2560 C 0.63321 0.08834 0.71166 0.0
C2561 C 0.67752 0.11819 0.68829 0.0
C2562 C 0.68956 0.13167 0.69947 0.0
C2563 C 0.68508 0.11545 0.67407 0.0
C2564 C 0.67323 0.10111 0.66196 0.0
C2565 C 0.66242 0.08192 0.66608 0.0
C2566 C 0.65113 0.06851 0.65462 0.0
C2567 C 0.65063 0.0741 0.63897 0.0
C2568 C 0.66149 0.09311 0.63473 0.0
C2569 C 0.67281 0.10658 0.64615 0.0
C2570 C 0.76237 0.14091 0.69478 0.0
C2571 C 0.77302 0.14798 0.68084 0.0
C2572 C 0.74451 0.13846 0.69577 0.0
C2573 C 0.73684 0.1434 0.68299 0.0
C2574 C 0.74773 0.15133 0.66922 0.0
C2575 C 0.76582 0.15374 0.66819 0.0
C2576 C 0.71672 0.13789 0.68367 0.0
C2577 C 0.70458 0.12559 0.67182 0.0
C2578 C 0.70903 0.14146 0.69745 0.0
C2579 C 0.72094 0.15467 0.71029 0.0
C2580 C 0.73477 0.17331 0.70671 0.0
C2581 C 0.74577 0.18566 0.71892 0.0
C2582 C 0.7431 0.17952 0.73475 0.0
C2583 C 0.7295 0.16098 0.73839 0.0
C2584 C 0.71842 0.14861 0.72626 0.0
H2585 H 0.75153 0.18911 0.7442 0.0
H2586 H 0.64186 0.0637 0.63011 0.0
H2587 H 0.92471 0.54574 0.68811 0.0
H2588 H 0.90929 0.56444 0.68302 0.0
H2589 H 0.86604 0.53012 0.71661 0.0
H2590 H 0.88137 0.51149 0.72161 0.0
H2591 H 0.8531 0.53973 0.68757 0.0
H2592 H 0.90416 0.57116 0.7291 0.0
H2593 H 0.93784 0.58631 0.73585 0.0
H2594 H 0.95106 0.6245 0.69656 0.0
H2595 H 0.91751 0.60951 0.68956 0.0
H2596 H 0.81608 0.59951 0.68302 0.0
H2597 H 0.82458 0.57827 0.69636 0.0
H2598 H 0.88262 0.62335 0.69591 0.0
H2599 H 0.87298 0.6449 0.68764 0.0
H2600 H 0.88688 0.6044 0.71024 0.0
H2601 H 0.84564 0.57621 0.66184 0.0
H2602 H 0.81571 0.56154 0.64684 0.0
H2603 H 0.789 0.52132 0.68444 0.0
H2604 H 0.81875 0.53575 0.69961 0.0
C2605 C 0.91174 0.54209 0.69414 0.0
C2606 C 0.90411 0.52732 0.70522 0.0
C2607 C 0.90298 0.55271 0.69126 0.0
C2608 C 0.8866 0.54867 0.69953 0.0
C2609 C 0.87861 0.53337 0.71008 0.0
C2610 C 0.88736 0.52282 0.71296 0.0
C2611 C 0.87855 0.56124 0.69841 0.0
C2612 C 0.86047 0.5541 0.69219 0.0
C2613 C 0.88836 0.57997 0.70412 0.0
C2614 C 0.90838 0.58922 0.70883 0.0
C2615 C 0.91427 0.5828 0.72194 0.0
C2616 C 0.93333 0.59135 0.72578 0.0
C2617 C 0.94658 0.60636 0.71664 0.0
C2618 C 0.9408 0.6129 0.70365 0.0
C2619 C 0.92178 0.60442 0.69977 0.0
C2620 C 0.83033 0.60499 0.6872 0.0
C2621 C 0.84404 0.62372 0.68401 0.0
C2622 C 0.83551 0.59253 0.69393 0.0
C2623 C 0.85466 0.59814 0.69578 0.0
C2624 C 0.86771 0.6177 0.69469 0.0
C2625 C 0.86215 0.63043 0.68994 0.0
C2626 C 0.86162 0.58425 0.69744 0.0
C2627 C 0.87942 0.59068 0.7045 0.0
C2628 C 0.85221 0.56551 0.6909 0.0
C2629 C 0.83429 0.55724 0.68195 0.0
C2630 C 0.83334 0.56432 0.66692 0.0
C2631 C 0.81642 0.55602 0.65839 0.0
C2632 C 0.80045 0.54057 0.66472 0.0
C2633 C 0.80136 0.53333 0.67957 0.0
C2634 C 0.81823 0.54154 0.68813 0.0
H2635 H 0.78738 0.53417 0.6581 0.0
H2636 H 0.96132 0.61292 0.71962 0.0
H2637 H 0.51585 0.97442 0.18988 0.0
H2638 H 0.51994 0.97949 0.16132 0.0
H2639 H 0.46446 0.97209 0.15719 0.0
H2640 H 0.45954 0.96518 0.18563 0.0
H2641 H 0.46883 0.95522 0.13381 0.0
H2642 H 0.50572 0.01665 0.15509 0.0
H2643 H 0.52911 0.04217 0.17228 0.0
H2644 H 0.57276 0.0349 0.15179 0.0
H2645 H 0.54957 0.00913 0.13461 0.0
H2646 H 0.48126 0.00293 0.06182 0.0
H2647 H 0.47807 0.99292 0.0893 0.0
H2648 H 0.52731 0.98748 0.08507 0.0
H2649 H 0.53086 0.99807 0.05697 0.0
H2650 H 0.52678 0.00909 0.11196 0.0
H2651 H 0.48433 0.94839 0.0871 0.0
H2652 H 0.45827 0.92842 0.06877 0.0
H2653 H 0.42137 0.94075 0.09557 0.0
H2654 H 0.44724 0.96102 0.11392 0.0
C2655 C 0.50435 0.97356 0.18293 0.0
C2656 C 0.48728 0.96921 0.19016 0.0
C2657 C 0.50685 0.9768 0.16657 0.0
C2658 C 0.49262 0.97644 0.15707 0.0
C2659 C 0.47567 0.97244 0.16425 0.0
C2660 C 0.47298 0.96876 0.1806 0.0
C2661 C 0.49538 0.97987 0.13962 0.0
C2662 C 0.48147 0.96707 0.12907 0.0
C2663 C 0.51184 0.99534 0.13335 0.0
C2664 C 0.52586 0.01079 0.14369 0.0
C2665 C 0.52028 0.02037 0.15435 0.0
C2666 C 0.53351 0.03491 0.16407 0.0
C2667 C 0.5524 0.04011 0.16317 0.0
C2668 C 0.55811 0.03082 0.1525 0.0
C2669 C 0.54493 0.01626 0.14276 0.0
C2670 C 0.49148 -0.00039 0.06666 0.0
C2671 C 0.50655 0.00161 0.05739 0.0
C2672 C 0.48948 0.99368 0.08235 0.0
C2673 C 0.5023 0.98927 0.08916 0.0
C2674 C 0.51721 0.99077 0.07991 0.0
C2675 C 0.51923 0.99674 0.06395 0.0
C2676 C 0.50042 0.98433 0.10628 0.0
C2677 C 0.51439 0.997 0.11677 0.0
C2678 C 0.4836 0.96929 0.11248 0.0
C2679 C 0.46778 0.95626 0.1019 0.0
C2680 C 0.47066 0.94685 0.08909 0.0
C2681 C 0.45592 0.9355 0.07868 0.0
C2682 C 0.43818 0.93333 0.08099 0.0
C2683 C 0.43511 0.94242 0.0938 0.0
C2684 C 0.4498 0.95381 0.10423 0.0
H2685 H 0.42682 0.92462 0.07287 0.0
H2686 H 0.56262 0.05138 0.1707 0.0
H2687 H 0.06028 0.54393 0.18385 0.0
H2688 H 0.05423 0.54214 0.15515 0.0
H2689 H 0.00145 0.49071 0.16179 0.0
H2690 H 0.00778 0.49219 0.19055 0.0
H2691 H 0.01759 0.48772 0.13594 0.0
H2692 H 0.0044 0.53462 0.15655 0.0
H2693 H 0.01093 0.56346 0.17134 0.0
H2694 H 0.05743 0.59694 0.14059 0.0
H2695 H 0.05129 0.56824 0.12574 0.0
H2696 H 0.96789 0.48956 0.06808 0.0
H2697 H 0.97912 0.49532 0.0956 0.0
H2698 H 0.03557 0.53157 0.07935 0.0
H2699 H 0.0245 0.52529 0.05148 0.0
H2700 H 0.02025 0.54304 0.10898 0.0
H2701 H 0.03018 0.49426 0.08685 0.0
H2702 H 0.02192 0.46448 0.07284 0.0
H2703 H 0.97891 0.43327 0.10719 0.0
H2704 H 0.98663 0.46292 0.12121 0.0
C2705 C 0.04738 0.53226 0.17917 0.0
C2706 C 0.03439 0.51832 0.18942 0.0
C2707 C 0.04392 0.53126 0.16277 0.0
C2708 C 0.0272 0.51651 0.15631 0.0
C2709 C 0.01442 0.50227 0.16649 0.0
C2710 C 0.01802 0.50312 0.1829 0.0
C2711 C 0.0229 0.51618 0.13901 0.0
C2712 C 0.01801 0.49976 0.13009 0.0
C2713 C 0.0238 0.53202 0.13126 0.0
C2714 C 0.0275 0.54928 0.14014 0.0
C2715 C 0.01609 0.54812 0.15302 0.0
C2716 C 0.01971 0.56444 0.1614 0.0
C2717 C 0.03461 0.58202 0.15693 0.0
C2718 C 0.0459 0.58331 0.14405 0.0
C2719 C 0.04235 0.56703 0.13564 0.0
C2720 C 0.98265 0.49922 0.07032 0.0
C2721 C 0.99534 0.50685 0.05757 0.0
C2722 C 0.98904 0.50231 0.08606 0.0
C2723 C 0.00819 0.51344 0.08942 0.0
C2724 C 0.02074 0.52273 0.0769 0.0
C2725 C 0.01436 0.51937 0.06101 0.0
C2726 C 0.01485 0.5146 0.10603 0.0
C2727 C 0.02006 0.53111 0.11482 0.0
C2728 C 0.01392 0.49871 0.1137 0.0
C2729 C 0.00882 0.4809 0.10495 0.0
C2730 C 0.01874 0.48111 0.09126 0.0
C2731 C 0.01421 0.46422 0.08336 0.0
C2732 C -0.00015 0.447 0.08909 0.0
C2733 C 0.98999 0.44663 0.10273 0.0
C2734 C 0.99444 0.46347 0.11065 0.0
H2735 H 0.99642 0.43395 0.08299 0.0
H2736 H 0.03739 0.59464 0.16343 0.0
H2737 H 0.48673 0.49074 0.1881 0.0
H2738 H 0.49135 0.4908 0.15909 0.0
H2739 H 0.48859 0.54197 0.15497 0.0
H2740 H 0.4843 0.54213 0.18388 0.0
H2741 H 0.46681 0.51142 0.13116 0.0
H2742 H 0.52919 0.54763 0.15553 0.0
H2743 H 0.55395 0.55109 0.17418 0.0
H2744 H 0.55403 0.50351 0.15233 0.0
H2745 H 0.52907 0.4996 0.13369 0.0
H2746 H 0.49489 0.52806 0.05076 0.0
H2747 H 0.49516 0.5359 0.07918 0.0
H2748 H 0.51501 0.49755 0.09131 0.0
H2749 H 0.51523 0.49027 0.06321 0.0
H2750 H 0.52866 0.52398 0.1115 0.0
H2751 H 0.46765 0.4839 0.08975 0.0
H2752 H 0.44016 0.47385 0.07219 0.0
H2753 H 0.43375 0.51981 0.08952 0.0
H2754 H 0.46141 0.53033 0.10701 0.0
C2755 C 0.48696 0.50186 0.18093 0.0
C2756 C 0.48533 0.51651 0.18814 0.0
C2757 C 0.48962 0.50192 0.16445 0.0
C2758 C 0.49041 0.51647 0.15499 0.0
C2759 C 0.48805 0.53067 0.16211 0.0
C2760 C 0.4857 0.53079 0.17857 0.0
C2761 C 0.49449 0.5174 0.13776 0.0
C2762 C 0.4804 0.51445 0.12678 0.0
C2763 C 0.51201 0.5207 0.1322 0.0
C2764 C 0.52717 0.52324 0.1433 0.0
C2765 C 0.53439 0.53783 0.15478 0.0
C2766 C 0.54848 0.53988 0.16534 0.0
C2767 C 0.55553 0.52751 0.16446 0.0
C2768 C 0.54855 0.51308 0.153 0.0
C2769 C 0.53445 0.51095 0.14243 0.0
C2770 C 0.50013 0.52206 0.0595 0.0
C2771 C 0.505 0.50856 0.05492 0.0
C2772 C 0.49998 0.52627 0.07573 0.0
C2773 C 0.50459 0.51689 0.08743 0.0
C2774 C 0.51127 0.5049 0.08259 0.0
C2775 C 0.51148 0.50079 0.0665 0.0
C2776 C 0.50095 0.51794 0.10465 0.0
C2777 C 0.51511 0.52122 0.11573 0.0
C2778 C 0.48318 0.5141 0.11029 0.0
C2779 C 0.46681 0.5081 0.09949 0.0
C2780 C 0.46053 0.49202 0.08967 0.0
C2781 C 0.44488 0.4862 0.07976 0.0
C2782 C 0.43526 0.49623 0.07969 0.0
C2783 C 0.44126 0.51209 0.08954 0.0
C2784 C 0.45694 0.518 0.09944 0.0
H2785 H 0.42312 0.49168 0.07204 0.0
H2786 H 0.56644 0.52913 0.17264 0.0
H2787 H 0.93494 0.45865 0.82489 0.0
H2788 H 0.94075 0.45929 0.85368 0.0
H2789 H 0.99673 0.50619 0.84727 0.0
H2790 H 0.99078 0.50585 0.81843 0.0
H2791 H 0.99422 0.47469 0.86451 0.0
H2792 H 0.96939 0.51599 0.86476 0.0
H2793 H 0.94686 0.52647 0.85823 0.0
H2794 H 0.90404 0.47971 0.88428 0.0
H2795 H 0.92626 0.46874 0.89076 0.0
H2796 H 0.02281 0.50185 0.94358 0.0
H2797 H 0.01458 0.49692 0.91563 0.0
H2798 H 0.95641 0.46054 0.92773 0.0
H2799 H 0.96468 0.46712 0.95623 0.0
H2800 H 0.95878 0.48512 0.90719 0.0
H2801 H 0.98688 0.44528 0.90762 0.0
H2802 H 0.01201 0.43848 0.9146 0.0
H2803 H 0.05129 0.48622 0.8872 0.0
H2804 H 0.02646 0.49341 0.88018 0.0
C2805 C 0.9484 0.46921 0.82969 0.0
C2806 C 0.96246 0.48216 0.81954 0.0
C2807 C 0.95167 0.4696 0.84609 0.0
C2808 C 0.96916 0.48276 0.85256 0.0
C2809 C 0.98314 0.49593 0.84247 0.0
C2810 C 0.97974 0.49578 0.82607 0.0
C2811 C 0.97309 0.48197 0.86972 0.0
C2812 C 0.98659 0.47709 0.87388 0.0
C2813 C 0.96287 0.48482 0.88185 0.0
C2814 C 0.94944 0.49139 0.87808 0.0
C2815 C 0.95512 0.50781 0.86896 0.0
C2816 C 0.94242 0.51387 0.8653 0.0
C2817 C 0.92401 0.50372 0.87079 0.0
C2818 C 0.9183 0.48753 0.88001 0.0
C2819 C 0.93095 0.48139 0.88369 0.0
C2820 C 0.00835 0.49209 0.94033 0.0
C2821 C 0.99442 0.48477 0.95208 0.0
C2822 C 0.0036 0.48924 0.92423 0.0
C2823 C 0.98485 0.4781 0.91936 0.0
C2824 C 0.971 0.46919 0.93114 0.0
C2825 C 0.97574 0.47257 0.94744 0.0
C2826 C 0.97986 0.47756 0.90214 0.0
C2827 C 0.96619 0.48231 0.89789 0.0
C2828 C 0.99013 0.47483 0.88987 0.0
C2829 C 0.00479 0.46986 0.89338 0.0
C2830 C 0.00087 0.45428 0.90305 0.0
C2831 C 0.01507 0.45039 0.90704 0.0
C2832 C 0.03323 0.46191 0.90135 0.0
C2833 C 0.03721 0.47728 0.89157 0.0
C2834 C 0.02306 0.48123 0.88754 0.0
H2835 H 0.04422 0.45892 0.90452 0.0
H2836 H 0.91419 0.50843 0.86794 0.0
H2837 H 0.48638 0.45916 0.81551 0.0
H2838 H 0.4817 0.46015 0.84401 0.0
H2839 H 0.53952 0.50377 0.8498 0.0
H2840 H 0.54473 0.50179 0.82135 0.0
H2841 H 0.53116 0.4801 0.87256 0.0
H2842 H 0.50228 0.51291 0.85111 0.0
H2843 H 0.48164 0.51862 0.83348 0.0
H2844 H 0.43339 0.47034 0.85298 0.0
H2845 H 0.45378 0.46417 0.87059 0.0
H2846 H 0.52482 0.51774 0.94573 0.0
H2847 H 0.52748 0.51049 0.91815 0.0
H2848 H 0.47181 0.46181 0.91982 0.0
H2849 H 0.46886 0.46957 0.94787 0.0
H2850 H 0.47773 0.48516 0.89378 0.0
H2851 H 0.51126 0.45704 0.9184 0.0
H2852 H 0.53492 0.45783 0.93698 0.0
H2853 H 0.57839 0.50516 0.91195 0.0
H2854 H 0.55499 0.50484 0.89335 0.0
C2855 C 0.49821 0.46883 0.82282 0.0
C2856 C 0.51599 0.48028 0.81607 0.0
C2857 C 0.49542 0.46958 0.83914 0.0
C2858 C 0.51018 0.48218 0.84908 0.0
C2859 C 0.52789 0.4939 0.84238 0.0
C2860 C 0.53079 0.49294 0.82605 0.0
C2861 C 0.50717 0.4828 0.86649 0.0
C2862 C 0.51954 0.48134 0.87718 0.0
C2863 C 0.49193 0.48426 0.87257 0.0
C2864 C 0.47958 0.48795 0.86205 0.0
C2865 C 0.48728 0.50341 0.85155 0.0
C2866 C 0.47562 0.50675 0.84158 0.0
C2867 C 0.45622 0.49481 0.84207 0.0
C2868 C 0.44843 0.47955 0.85259 0.0
C2869 C 0.46003 0.47614 0.86258 0.0
C2870 C 0.51319 0.50532 0.94031 0.0
C2871 C 0.49658 0.49424 0.94882 0.0
C2872 C 0.51479 0.50112 0.92456 0.0
C2873 C 0.49997 0.48547 0.91698 0.0
C2874 C 0.48346 0.47391 0.92556 0.0
C2875 C 0.4818 0.47821 0.94151 0.0
C2876 C 0.50162 0.48235 0.89978 0.0
C2877 C 0.48908 0.4835 0.88911 0.0
C2878 C 0.51713 0.48134 0.89374 0.0
C2879 C 0.53132 0.48091 0.90447 0.0
C2880 C 0.52586 0.46762 0.91685 0.0
C2881 C 0.53923 0.46801 0.92741 0.0
C2882 C 0.55814 0.48155 0.92566 0.0
C2883 C 0.56374 0.49466 0.91328 0.0
C2884 C 0.55043 0.49435 0.9027 0.0
H2885 H 0.56845 0.48187 0.93388 0.0
H2886 H 0.44722 0.49742 0.83433 0.0
H2887 H 0.52059 0.00981 0.81921 0.0
H2888 H 0.51514 0.00441 0.84803 0.0
H2889 H 0.51 0.05426 0.85211 0.0
H2890 H 0.51531 0.05965 0.8234 0.0
H2891 H 0.53251 0.04956 0.87697 0.0
H2892 H 0.47153 0.01464 0.85005 0.0
H2893 H 0.44964 0.9913 0.8305 0.0
H2894 H 0.45725 0.948 0.85213 0.0
H2895 H 0.47935 0.97114 0.87169 0.0
H2896 H 0.49969 0.02873 0.95662 0.0
H2897 H 0.50053 0.03788 0.92855 0.0
H2898 H 0.48937 0.98249 0.91364 0.0
H2899 H 0.48754 0.97318 0.94126 0.0
H2900 H 0.47392 0.99257 0.89387 0.0
H2901 H 0.53527 0.02296 0.91776 0.0
H2902 H 0.56067 0.0436 0.93639 0.0
H2903 H 0.55725 0.09166 0.92034 0.0
H2904 H 0.53161 0.07124 0.90178 0.0
C2905 C 0.51852 0.01971 0.82632 0.0
C2906 C 0.51819 0.03504 0.81912 0.0
C2907 C 0.51536 0.01659 0.84272 0.0
C2908 C 0.51204 0.02889 0.85211 0.0
C2909 C 0.5125 0.04463 0.84504 0.0
C2910 C 0.51542 0.04761 0.82866 0.0
C2911 C 0.50717 0.02486 0.86916 0.0
C2912 C 0.5196 0.03726 0.88075 0.0
C2913 C 0.49058 0.00854 0.87396 0.0
C2914 C 0.47717 0.99465 0.86226 0.0
C2915 C 0.46862 0.00017 0.85057 0.0
C2916 C 0.45616 0.98697 0.8395 0.0
C2917 C 0.45207 0.96819 0.84006 0.0
C2918 C 0.46042 0.96255 0.85171 0.0
C2919 C 0.47289 0.97569 0.8628 0.0
C2920 C 0.49661 0.01833 0.94731 0.0
C2921 C 0.49367 0.00029 0.95108 0.0
C2922 C 0.49745 0.02366 0.93128 0.0
C2923 C 0.49557 0.01106 0.91893 0.0
C2924 C 0.49098 0.99255 0.92285 0.0
C2925 C 0.4899 0.98721 0.9387 0.0
C2926 C 0.49947 0.01703 0.90197 0.0
C2927 C 0.48679 0.00504 0.89026 0.0
C2928 C 0.51626 0.03329 0.8971 0.0
C2929 C 0.53131 0.04551 0.90857 0.0
C2930 C 0.53978 0.03789 0.91834 0.0
C2931 C 0.55425 0.04955 0.92886 0.0
C2932 C 0.56052 0.06891 0.92959 0.0
C2933 C 0.55233 0.07664 0.9198 0.0
C2934 C 0.53782 0.06503 0.90929 0.0
H2935 H 0.57175 0.07792 0.93771 0.0
H2936 H 0.44242 0.95799 0.83148 0.0
H2937 H 0.17585 0.3294 0.52426 0.0
H2938 H 0.17983 0.33446 0.49537 0.0
H2939 H 0.12726 0.28313 0.48718 0.0
H2940 H 0.12316 0.27807 0.51605 0.0
H2941 H 0.15704 0.28529 0.46954 0.0
H2942 H 0.12781 0.32134 0.47947 0.0
H2943 H 0.12217 0.34471 0.49325 0.0
H2944 H 0.17671 0.38921 0.4797 0.0
H2945 H 0.18283 0.36605 0.46604 0.0
H2946 H 0.15605 0.3023 0.38542 0.0
H2947 H 0.15105 0.2936 0.4135 0.0
H2948 H 0.19637 0.34899 0.42652 0.0
H2949 H 0.20046 0.35804 0.39841 0.0
H2950 H 0.16681 0.34292 0.44157 0.0
H2951 H 0.19733 0.30257 0.43967 0.0
H2952 H 0.2018 0.27709 0.42843 0.0
H2953 H 0.14222 0.24021 0.42605 0.0
H2954 H 0.13747 0.26511 0.43814 0.0
C2955 C 0.16511 0.31929 0.51627 0.0
C2956 C 0.14922 0.30335 0.52234 0.0
C2957 C 0.16733 0.32223 0.49982 0.0
C2958 C 0.15381 0.30917 0.48919 0.0
C2959 C 0.13782 0.29336 0.49522 0.0
C2960 C 0.13546 0.29056 0.51167 0.0
C2961 C 0.15697 0.31152 0.47178 0.0
C2962 C 0.15895 0.29779 0.46336 0.0
C2963 C 0.1595 0.32783 0.46379 0.0
C2964 C 0.15586 0.34191 0.47185 0.0
C2965 C 0.13869 0.33609 0.47954 0.0
C2966 C 0.13538 0.3493 0.48731 0.0
C2967 C 0.14909 0.36843 0.48739 0.0
C2968 C 0.16611 0.37438 0.47964 0.0
C2969 C 0.1695 0.36122 0.47187 0.0
C2970 C 0.16561 0.31224 0.39421 0.0
C2971 C 0.17877 0.33076 0.38977 0.0
C2972 C 0.16269 0.30728 0.41036 0.0
C2973 C 0.17332 0.32061 0.42227 0.0
C2974 C 0.18787 0.33848 0.41762 0.0
C2975 C 0.19046 0.34356 0.40153 0.0
C2976 C 0.16775 0.31704 0.43936 0.0
C2977 C 0.16503 0.33047 0.44773 0.0
C2978 C 0.16429 0.30034 0.44729 0.0
C2979 C 0.16707 0.28571 0.43952 0.0
C2980 C 0.18522 0.28904 0.43665 0.0
C2981 C 0.18779 0.27468 0.43024 0.0
C2982 C 0.17231 0.25717 0.42625 0.0
C2983 C 0.1542 0.25382 0.42903 0.0
C2984 C 0.15156 0.26795 0.43584 0.0
H2985 H 0.17436 0.24616 0.42114 0.0
H2986 H 0.14652 0.37864 0.49342 0.0
H2987 H 0.72055 0.88189 0.51871 0.0
H2988 H 0.71494 0.88044 0.48998 0.0
H2989 H 0.67348 0.82129 0.49364 0.0
H2990 H 0.67897 0.82267 0.52251 0.0
H2991 H 0.69504 0.82759 0.46776 0.0
H2992 H 0.65965 0.85313 0.49003 0.0
H2993 H 0.65328 0.87437 0.50641 0.0
H2994 H 0.69323 0.92207 0.47935 0.0
H2995 H 0.70005 0.90112 0.46294 0.0
H2996 H 0.6365 0.82314 0.4011 0.0
H2997 H 0.64786 0.82875 0.42856 0.0
H2998 H 0.70388 0.86684 0.41231 0.0
H2999 H 0.69274 0.86057 0.38442 0.0
H3000 H 0.67725 0.87188 0.44371 0.0
H3001 H 0.71149 0.84172 0.42127 0.0
H3002 H 0.71432 0.81713 0.40652 0.0
H3003 H 0.6707 0.77406 0.43489 0.0
H3004 H 0.66759 0.79843 0.44982 0.0
C3005 C 0.71011 0.8686 0.51344 0.0
C3006 C 0.70003 0.85245 0.52294 0.0
C3007 C 0.70699 0.86777 0.497 0.0
C3008 C 0.69363 0.85082 0.48968 0.0
C3009 C 0.68387 0.83452 0.49904 0.0
C3010 C 0.68702 0.83533 0.51553 0.0
C3011 C 0.68957 0.85033 0.47234 0.0
C3012 C 0.69115 0.83727 0.46251 0.0
C3013 C 0.68443 0.86292 0.46547 0.0
C3014 C 0.68053 0.8756 0.47539 0.0
C3015 C 0.66723 0.86818 0.48768 0.0
C3016 C 0.6635 0.88015 0.49695 0.0
C3017 C 0.67289 0.89957 0.49396 0.0
C3018 C 0.686 0.90703 0.48167 0.0
C3019 C 0.6898 0.89512 0.47238 0.0
C3020 C 0.65121 0.83305 0.4033 0.0
C3021 C 0.66375 0.84127 0.39052 0.0
C3022 C 0.65768 0.83605 0.41901 0.0
C3023 C 0.67676 0.84766 0.42236 0.0
C3024 C 0.68914 0.8574 0.40985 0.0
C3025 C 0.6827 0.85412 0.39396 0.0
C3026 C 0.68325 0.84955 0.43909 0.0
C3027 C 0.68167 0.86258 0.44891 0.0
C3028 C 0.68789 0.83659 0.44598 0.0
C3029 C 0.68901 0.82189 0.4364 0.0
C3030 C 0.70221 0.827 0.42412 0.0
C3031 C 0.70394 0.81309 0.41578 0.0
C3032 C 0.69253 0.79402 0.41961 0.0
C3033 C 0.67943 0.78882 0.43185 0.0
C3034 C 0.6777 0.80268 0.44026 0.0
H3035 H 0.69395 0.7833 0.41317 0.0
H3036 H 0.66996 0.90882 0.50113 0.0
H3037 H 0.17191 0.83627 0.52336 0.0
H3038 H 0.17755 0.8386 0.49451 0.0
H3039 H 0.14541 0.86684 0.48923 0.0
H3040 H 0.13892 0.86347 0.5179 0.0
H3041 H 0.13602 0.84203 0.46723 0.0
H3042 H 0.19634 0.89034 0.48745 0.0
H3043 H 0.22437 0.90197 0.50464 0.0
H3044 H 0.23735 0.86221 0.483 0.0
H3045 H 0.20929 0.85021 0.46581 0.0
H3046 H 0.15678 0.85739 0.38474 0.0
H3047 H 0.15644 0.86526 0.41306 0.0
H3048 H 0.18784 0.83764 0.42499 0.0
H3049 H 0.18825 0.82998 0.39691 0.0
H3050 H 0.19892 0.86647 0.44354 0.0
H3051 H 0.13664 0.81156 0.43308 0.0
H3052 H 0.10448 0.79161 0.42281 0.0
H3053 H 0.09415 0.83792 0.42798 0.0
H3054 H 0.12615 0.85798 0.43874 0.0
C3055 C 0.16604 0.84289 0.51594 0.0
C3056 C 0.15492 0.8496 0.52269 0.0
C3057 C 0.16944 0.84445 0.49953 0.0
C3058 C 0.16231 0.85334 0.48969 0.0
C3059 C 0.15116 0.86002 0.49653 0.0
C3060 C 0.1474 0.85805 0.51287 0.0
C3061 C 0.16553 0.85479 0.47217 0.0
C3062 C 0.14987 0.84788 0.46206 0.0
C3063 C 0.18349 0.86171 0.46538 0.0
C3064 C 0.20068 0.86936 0.47537 0.0
C3065 C 0.20516 0.88407 0.48638 0.0
C3066 C 0.22105 0.89071 0.49613 0.0
C3067 C 0.23263 0.88283 0.49492 0.0
C3068 C 0.22838 0.86833 0.48391 0.0
C3069 C 0.21252 0.86163 0.47413 0.0
C3070 C 0.1643 0.85378 0.39338 0.0
C3071 C 0.17277 0.84332 0.38868 0.0
C3072 C 0.16376 0.8579 0.40958 0.0
C3073 C 0.17176 0.85167 0.42124 0.0
C3074 C 0.18152 0.84257 0.4163 0.0
C3075 C 0.18192 0.83836 0.40021 0.0
C3076 C 0.16934 0.85364 0.43862 0.0
C3077 C 0.18516 0.86116 0.44871 0.0
C3078 C 0.15148 0.84689 0.44549 0.0
C3079 C 0.13383 0.83633 0.43635 0.0
C3080 C 0.12764 0.8176 0.43163 0.0
C3081 C 0.10937 0.80621 0.42592 0.0
C3082 C 0.09727 0.8135 0.42473 0.0
C3083 C 0.10354 0.83231 0.42892 0.0
C3084 C 0.12171 0.84367 0.43486 0.0
H3085 H 0.08299 0.80455 0.42068 0.0
H3086 H 0.24489 0.88796 0.5025 0.0
H3087 H 0.65734 0.81739 0.14944 0.0
H3088 H 0.66278 0.81735 0.17814 0.0
H3089 H 0.61115 0.81695 0.18748 0.0
H3090 H 0.60588 0.8174 0.15874 0.0
H3091 H 0.63714 0.83975 0.20778 0.0
H3092 H 0.61466 0.77598 0.18993 0.0
H3093 H 0.61405 0.7506 0.17346 0.0
H3094 H 0.6697 0.76668 0.18925 0.0
H3095 H 0.67073 0.79232 0.20565 0.0
H3096 H 0.63434 0.81429 0.2896 0.0
H3097 H 0.62499 0.81055 0.26137 0.0
H3098 H 0.67918 0.81924 0.24797 0.0
H3099 H 0.68868 0.82343 0.27609 0.0
H3100 H 0.64975 0.79102 0.23016 0.0
H3101 H 0.6724 0.85506 0.24761 0.0
H3102 H 0.67361 0.88119 0.26336 0.0
H3103 H 0.61783 0.86511 0.24802 0.0
H3104 H 0.61613 0.83864 0.2324 0.0
C3105 C 0.64718 0.81734 0.15763 0.0
C3106 C 0.63113 0.81729 0.15186 0.0
C3107 C 0.65025 0.81724 0.17403 0.0
C3108 C 0.63716 0.81671 0.185 0.0
C3109 C 0.62141 0.81726 0.17927 0.0
C3110 C 0.61844 0.81758 0.16285 0.0
C3111 C 0.63983 0.81542 0.20243 0.0
C3112 C 0.63955 0.82888 0.21272 0.0
C3113 C 0.64337 0.80147 0.20887 0.0
C3114 C 0.64282 0.78616 0.19891 0.0
C3115 C 0.62682 0.7742 0.18978 0.0
C3116 C 0.62639 0.75975 0.18048 0.0
C3117 C 0.64184 0.75705 0.18028 0.0
C3118 C 0.65775 0.76879 0.1894 0.0
C3119 C 0.65826 0.78327 0.19871 0.0
C3120 C 0.64391 0.81451 0.28066 0.0
C3121 C 0.66211 0.81876 0.285 0.0
C3122 C 0.6387 0.81276 0.26454 0.0
C3123 C 0.65151 0.81494 0.25259 0.0
C3124 C 0.66911 0.81758 0.257 0.0
C3125 C 0.67444 0.8197 0.27306 0.0
C3126 C 0.64707 0.81533 0.23547 0.0
C3127 C 0.64708 0.80173 0.22525 0.0
C3128 C 0.64326 0.82914 0.22914 0.0
C3129 C 0.64401 0.84461 0.23906 0.0
C3130 C 0.66026 0.85686 0.24781 0.0
C3131 C 0.66106 0.8718 0.25666 0.0
C3132 C 0.64577 0.87475 0.25676 0.0
C3133 C 0.62963 0.86277 0.248 0.0
C3134 C 0.62873 0.84778 0.23916 0.0
H3135 H 0.64645 0.88636 0.26357 0.0
H3136 H 0.64147 0.74584 0.17309 0.0
H3137 H 0.15679 0.81132 0.1481 0.0
H3138 H 0.15187 0.81247 0.17675 0.0
H3139 H 0.20722 0.82156 0.18632 0.0
H3140 H 0.21217 0.82018 0.15763 0.0
H3141 H 0.18021 0.79395 0.20554 0.0
H3142 H 0.20016 0.85734 0.19038 0.0
H3143 H 0.20026 0.88249 0.17413 0.0
H3144 H 0.14351 0.86383 0.18774 0.0
H3145 H 0.14296 0.83835 0.20389 0.0
H3146 H 0.18174 0.81822 0.28766 0.0
H3147 H 0.18703 0.81464 0.25961 0.0
H3148 H 0.13673 0.81566 0.2469 0.0
H3149 H 0.13241 0.82088 0.275 0.0
H3150 H 0.16296 0.83887 0.22915 0.0
H3151 H 0.14341 0.77427 0.24411 0.0
H3152 H 0.145 0.75045 0.26106 0.0
H3153 H 0.20257 0.77248 0.24816 0.0
H3154 H 0.2014 0.79659 0.23133 0.0
C3155 C 0.16792 0.81357 0.15631 0.0
C3156 C 0.18486 0.81566 0.15062 0.0
C3157 C 0.16513 0.81433 0.17266 0.0
C3158 C 0.17921 0.81716 0.18365 0.0
C3159 C 0.19619 0.81936 0.17803 0.0
C3160 C 0.19904 0.81874 0.16164 0.0
C3161 C 0.17596 0.81747 0.20102 0.0
C3162 C 0.17661 0.80388 0.21077 0.0
C3163 C 0.17111 0.83032 0.20776 0.0
C3164 C 0.17146 0.84581 0.19824 0.0
C3165 C 0.18765 0.8585 0.18982 0.0
C3166 C 0.18779 0.87283 0.18063 0.0
C3167 C 0.17188 0.87473 0.17986 0.0
C3168 C 0.15582 0.86233 0.18833 0.0
C3169 C 0.15559 0.84795 0.19752 0.0
C3170 C 0.17135 0.81677 0.27894 0.0
C3171 C 0.15639 0.81931 0.28348 0.0
C3172 C 0.17444 0.81485 0.26283 0.0
C3173 C 0.16218 0.81465 0.25101 0.0
C3174 C 0.14642 0.81579 0.25573 0.0
C3175 C 0.14371 0.81838 0.2718 0.0
C3176 C 0.16658 0.81489 0.23373 0.0
C3177 C 0.16635 0.82876 0.22397 0.0
C3178 C 0.1719 0.80234 0.227 0.0
C3179 C 0.17233 0.78728 0.23652 0.0
C3180 C 0.1564 0.77403 0.2449 0.0
C3181 C 0.15724 0.7605 0.2545 0.0
C3182 C 0.17388 0.75997 0.2557 0.0
C3183 C 0.18969 0.7729 0.24722 0.0
C3184 C 0.18894 0.78648 0.23763 0.0
H3185 H 0.17452 0.74953 0.26319 0.0
H3186 H 0.17202 0.88582 0.17274 0.0
H3187 H 0.20556 0.39709 0.15989 0.0
H3188 H 0.19998 0.39211 0.18859 0.0
H3189 H 0.15867 0.33361 0.17966 0.0
H3190 H 0.16364 0.33891 0.15091 0.0
H3191 H 0.14514 0.34682 0.19954 0.0
H3192 H 0.20396 0.349 0.19617 0.0
H3193 H 0.23711 0.36209 0.1889 0.0
H3194 H 0.2524 0.41095 0.21823 0.0
H3195 H 0.21928 0.39828 0.22551 0.0
H3196 H 0.13994 0.30878 0.27605 0.0
H3197 H 0.14346 0.31852 0.24831 0.0
H3198 H 0.17744 0.37689 0.26282 0.0
H3199 H 0.17429 0.36699 0.29085 0.0
H3200 H 0.19496 0.36644 0.2407 0.0
H3201 H 0.13348 0.35997 0.24515 0.0
H3202 H 0.10025 0.34272 0.25303 0.0
H3203 H 0.09021 0.29693 0.22159 0.0
H3204 H 0.12342 0.31379 0.21367 0.0
C3205 C 0.19544 0.38314 0.16413 0.0
C3206 C 0.185 0.36836 0.15328 0.0
C3207 C 0.19231 0.38027 0.18052 0.0
C3208 C 0.17901 0.36242 0.18636 0.0
C3209 C 0.16893 0.34753 0.17548 0.0
C3210 C 0.17179 0.35052 0.15908 0.0
C3211 C 0.17486 0.35946 0.20371 0.0
C3212 C 0.15607 0.35098 0.2085 0.0
C3213 C 0.1891 0.36518 0.21549 0.0
C3214 C 0.20908 0.37278 0.21125 0.0
C3215 C 0.21436 0.36261 0.20098 0.0
C3216 C 0.23316 0.36994 0.19687 0.0
C3217 C 0.24685 0.38737 0.20306 0.0
C3218 C 0.24177 0.39747 0.21342 0.0
C3219 C 0.22299 0.39021 0.21756 0.0
C3220 C 0.14744 0.32376 0.27339 0.0
C3221 C 0.15672 0.33714 0.28558 0.0
C3222 C 0.14955 0.32933 0.25749 0.0
C3223 C 0.16073 0.34845 0.25344 0.0
C3224 C 0.16877 0.36205 0.26569 0.0
C3225 C 0.16667 0.35644 0.28171 0.0
C3226 C 0.16527 0.35373 0.23642 0.0
C3227 C 0.18412 0.36258 0.2317 0.0
C3228 C 0.15109 0.34789 0.22463 0.0
C3229 C 0.13094 0.33815 0.22884 0.0
C3230 C 0.12418 0.34623 0.23992 0.0
C3231 C 0.10535 0.3365 0.2444 0.0
C3232 C 0.09313 0.31874 0.23782 0.0
C3233 C 0.09968 0.3107 0.22666 0.0
C3234 C 0.11849 0.32036 0.22214 0.0
H3235 H 0.07857 0.3112 0.24135 0.0
H3236 H 0.26139 0.39303 0.19986 0.0
H3237 H 0.845 0.6619 0.85914 0.0
H3238 H 0.84966 0.66805 0.83044 0.0
H3239 H 0.79558 0.61913 0.82091 0.0
H3240 H 0.79083 0.61292 0.84961 0.0
H3241 H 0.82466 0.62086 0.80207 0.0
H3242 H 0.79871 0.65937 0.81649 0.0
H3243 H 0.7957 0.68308 0.83248 0.0
H3244 H 0.85119 0.72565 0.81904 0.0
H3245 H 0.85465 0.7021 0.80315 0.0
H3246 H 0.82028 0.63926 0.7198 0.0
H3247 H 0.81546 0.63161 0.74805 0.0
H3248 H 0.8625 0.68656 0.75974 0.0
H3249 H 0.86612 0.69479 0.73136 0.0
H3250 H 0.83566 0.68086 0.77779 0.0
H3251 H 0.86117 0.64061 0.76334 0.0
H3252 H 0.8621 0.61624 0.74652 0.0
H3253 H 0.80562 0.57614 0.75974 0.0
H3254 H 0.80426 0.60034 0.77645 0.0
C3255 C 0.83412 0.65249 0.85091 0.0
C3256 C 0.81756 0.63695 0.85657 0.0
C3257 C 0.83674 0.65605 0.83456 0.0
C3258 C 0.82294 0.64405 0.8236 0.0
C3259 C 0.80639 0.62854 0.8292 0.0
C3260 C 0.80365 0.6251 0.84557 0.0
C3261 C 0.82602 0.64754 0.80626 0.0
C3262 C 0.82692 0.6339 0.79669 0.0
C3263 C 0.8291 0.66461 0.79936 0.0
C3264 C 0.82701 0.67891 0.80875 0.0
C3265 C 0.81034 0.67375 0.81704 0.0
C3266 C 0.80854 0.68717 0.82607 0.0
C3267 C 0.82326 0.70585 0.82681 0.0
C3268 C 0.8398 0.71116 0.81847 0.0
C3269 C 0.84168 0.69779 0.80943 0.0
C3270 C 0.83008 0.64938 0.72837 0.0
C3271 C 0.84391 0.66741 0.72343 0.0
C3272 C 0.82727 0.64505 0.74458 0.0
C3273 C 0.8388 0.65836 0.75616 0.0
C3274 C 0.8534 0.67601 0.7511 0.0
C3275 C 0.85575 0.6806 0.73489 0.0
C3276 C 0.83488 0.65439 0.7735 0.0
C3277 C 0.83365 0.66789 0.78311 0.0
C3278 C 0.8314 0.63712 0.78044 0.0
C3279 C 0.8326 0.62231 0.77109 0.0
C3280 C 0.84896 0.62659 0.76267 0.0
C3281 C 0.84955 0.61282 0.75313 0.0
C3282 C 0.83392 0.59467 0.75205 0.0
C3283 C 0.81772 0.5902 0.76059 0.0
C3284 C 0.81704 0.60393 0.77012 0.0
H3285 H 0.83438 0.58406 0.7446 0.0
H3286 H 0.82185 0.71622 0.83381 0.0
H3287 H 0.3899 0.18259 0.85012 0.0
H3288 H 0.38361 0.18132 0.82136 0.0
H3289 H 0.33228 0.18134 0.8309 0.0
H3290 H 0.33851 0.1827 0.85965 0.0
H3291 H 0.32974 0.15349 0.80757 0.0
H3292 H 0.36803 0.22093 0.82024 0.0
H3293 H 0.39655 0.24863 0.83084 0.0
H3294 H 0.43026 0.23805 0.79812 0.0
H3295 H 0.40193 0.21015 0.78746 0.0
H3296 H 0.30373 0.16632 0.73197 0.0
H3297 H 0.3122 0.17193 0.76027 0.0
H3298 H 0.36965 0.19007 0.74841 0.0
H3299 H 0.36131 0.18552 0.72006 0.0
H3300 H 0.37046 0.20794 0.77307 0.0
H3301 H 0.33645 0.14285 0.75955 0.0
H3302 H 0.311 0.11241 0.74926 0.0
H3303 H 0.27287 0.11435 0.78292 0.0
H3304 H 0.29803 0.14494 0.79328 0.0
C3305 C 0.3772 0.18216 0.84607 0.0
C3306 C 0.3647 0.18278 0.8571 0.0
C3307 C 0.37369 0.18153 0.82967 0.0
C3308 C 0.35754 0.18136 0.82405 0.0
C3309 C 0.34483 0.18151 0.83504 0.0
C3310 C 0.34844 0.18238 0.85142 0.0
C3311 C 0.35397 0.18129 0.80671 0.0
C3312 C 0.33843 0.16546 0.80001 0.0
C3313 C 0.36592 0.19655 0.7968 0.0
C3314 C 0.38289 0.21339 0.80315 0.0
C3315 C 0.38154 0.22444 0.81539 0.0
C3316 C 0.39766 0.24019 0.82139 0.0
C3317 C 0.41521 0.24508 0.81518 0.0
C3318 C 0.41666 0.23424 0.80293 0.0
C3319 C 0.40058 0.21848 0.79689 0.0
C3320 C 0.31833 0.17245 0.73541 0.0
C3321 C 0.33193 0.17575 0.72388 0.0
C3322 C 0.3231 0.17522 0.75159 0.0
C3323 C 0.34143 0.18071 0.75657 0.0
C3324 C 0.35537 0.18567 0.74494 0.0
C3325 C 0.35066 0.18333 0.7287 0.0
C3326 C 0.34581 0.18024 0.77378 0.0
C3327 C 0.36161 0.19591 0.78051 0.0
C3328 C 0.33445 0.16447 0.78361 0.0
C3329 C 0.3191 0.14634 0.77706 0.0
C3330 C 0.32259 0.13691 0.76464 0.0
C3331 C 0.30823 0.11959 0.75882 0.0
C3332 C 0.29032 0.11148 0.7654 0.0
C3333 C 0.28674 0.12067 0.77781 0.0
C3334 C 0.30105 0.138 0.78366 0.0
H3335 H 0.27923 0.09804 0.76091 0.0
H3336 H 0.42768 0.25727 0.81984 0.0
H3337 H 0.81063 0.15494 0.85382 0.0
H3338 H 0.81552 0.1545 0.82502 0.0
H3339 H 0.83653 0.21457 0.82302 0.0
H3340 H 0.83131 0.21506 0.85167 0.0
H3341 H 0.81224 0.19424 0.79747 0.0
H3342 H 0.8669 0.19812 0.82527 0.0
H3343 H 0.88145 0.18594 0.84407 0.0
H3344 H 0.85677 0.13325 0.81837 0.0
H3345 H 0.84195 0.14505 0.79954 0.0
H3346 H 0.84192 0.19798 0.71721 0.0
H3347 H 0.84324 0.20714 0.74537 0.0
H3348 H 0.84094 0.15513 0.75947 0.0
H3349 H 0.84249 0.14766 0.73211 0.0
H3350 H 0.8584 0.17609 0.77984 0.0
H3351 H 0.79986 0.16561 0.75515 0.0
H3352 H 0.78171 0.17298 0.73585 0.0
H3353 H 0.80656 0.22948 0.75462 0.0
H3354 H 0.82491 0.22248 0.77395 0.0
C3355 C 0.81609 0.168 0.8472 0.0
C3356 C 0.82081 0.18508 0.85503 0.0
C3357 C 0.81895 0.16775 0.83079 0.0
C3358 C 0.82659 0.18457 0.82196 0.0
C3359 C 0.8307 0.20148 0.82964 0.0
C3360 C 0.82789 0.20175 0.84603 0.0
C3361 C 0.8312 0.18478 0.80488 0.0
C3362 C 0.82235 0.19031 0.79352 0.0
C3363 C 0.84412 0.17934 0.79978 0.0
C3364 C 0.85327 0.17245 0.81105 0.0
C3365 C 0.86453 0.18392 0.82368 0.0
C3366 C 0.87283 0.17708 0.83433 0.0
C3367 C 0.87002 0.15883 0.83242 0.0
C3368 C 0.85894 0.14739 0.81984 0.0
C3369 C 0.85063 0.15415 0.80916 0.0
C3370 C 0.84261 0.18907 0.72639 0.0
C3371 C 0.84185 0.17198 0.72236 0.0
C3372 C 0.84283 0.19401 0.74253 0.0
C3373 C 0.84144 0.18152 0.75477 0.0
C3374 C 0.84201 0.16519 0.75054 0.0
C3375 C 0.84274 0.1608 0.73469 0.0
C3376 C 0.8386 0.18442 0.77193 0.0
C3377 C 0.84807 0.17983 0.78352 0.0
C3378 C 0.82542 0.18966 0.7771 0.0
C3379 C 0.81396 0.19362 0.7658 0.0
C3380 C 0.80147 0.17961 0.75511 0.0
C3381 C 0.79116 0.18372 0.74418 0.0
C3382 C 0.79313 0.20174 0.74392 0.0
C3383 C 0.80515 0.21558 0.75477 0.0
C3384 C 0.81549 0.21154 0.76572 0.0
H3385 H 0.78535 0.205 0.73532 0.0
H3386 H 0.87645 0.15357 0.84068 0.0
H3387 H 0.32807 0.16493 0.48295 0.0
H3388 H 0.33384 0.16567 0.51178 0.0
H3389 H 0.27424 0.13719 0.52016 0.0
H3390 H 0.26864 0.13741 0.49143 0.0
H3391 H 0.29147 0.16321 0.54189 0.0
H3392 H 0.3018 0.11379 0.51955 0.0
H3393 H 0.3173 0.10176 0.50171 0.0
H3394 H 0.37087 0.1418 0.52164 0.0
H3395 H 0.3557 0.15416 0.53948 0.0
H3396 H 0.2942 0.13869 0.62191 0.0
H3397 H 0.28728 0.13381 0.59318 0.0
H3398 H 0.34654 0.16194 0.58338 0.0
H3399 H 0.3533 0.16637 0.61193 0.0
H3400 H 0.32918 0.13577 0.5624 0.0
H3401 H 0.32141 0.18546 0.58442 0.0
H3402 H 0.3086 0.20069 0.60173 0.0
H3403 H 0.25366 0.16473 0.58216 0.0
H3404 H 0.26606 0.14901 0.56495 0.0
C3405 C 0.3163 0.15901 0.49105 0.0
C3406 C 0.29795 0.1511 0.48514 0.0
C3407 C 0.31955 0.15929 0.50747 0.0
C3408 C 0.30444 0.15108 0.51816 0.0
C3409 C 0.28611 0.14355 0.51218 0.0
C3410 C 0.2829 0.14364 0.49581 0.0
C3411 C 0.30758 0.15004 0.53553 0.0
C3412 C 0.29946 0.15692 0.5464 0.0
C3413 C 0.31859 0.14249 0.54142 0.0
C3414 C 0.32763 0.13496 0.53075 0.0
C3415 C 0.31689 0.12007 0.52006 0.0
C3416 C 0.32561 0.11319 0.50996 0.0
C3417 C 0.34505 0.12103 0.51052 0.0
C3418 C 0.35581 0.13574 0.52121 0.0
C3419 C 0.34716 0.14267 0.53132 0.0
C3420 C 0.30563 0.14282 0.6136 0.0
C3421 C 0.32426 0.15251 0.61904 0.0
C3422 C 0.30171 0.14044 0.5972 0.0
C3423 C 0.31642 0.14796 0.58611 0.0
C3424 C 0.33495 0.15607 0.59167 0.0
C3425 C 0.33883 0.15837 0.60799 0.0
C3426 C 0.31283 0.14866 0.56881 0.0
C3427 C 0.32099 0.14185 0.55794 0.0
C3428 C 0.30219 0.15667 0.56294 0.0
C3429 C 0.29463 0.16582 0.57357 0.0
C3430 C 0.30655 0.18061 0.58395 0.0
C3431 C 0.29937 0.18938 0.59372 0.0
C3432 C 0.28032 0.18363 0.5931 0.0
C3433 C 0.26841 0.16912 0.58269 0.0
C3434 C 0.2755 0.16026 0.57293 0.0
H3435 H 0.2748 0.19045 0.60065 0.0
H3436 H 0.35178 0.11569 0.5027 0.0
H3437 H 0.87809 0.15685 0.49011 0.0
H3438 H 0.87286 0.1589 0.51861 0.0
H3439 H 0.81432 0.13842 0.50916 0.0
H3440 H 0.81952 0.13682 0.48064 0.0
H3441 H 0.83024 0.1689 0.53019 0.0
H3442 H 0.8293 0.1087 0.52318 0.0
H3443 H 0.84376 0.08988 0.51496 0.0
H3444 H 0.89021 0.12227 0.54663 0.0
H3445 H 0.87611 0.14138 0.55492 0.0
H3446 H 0.79922 0.15492 0.60928 0.0
H3447 H 0.80164 0.14849 0.58103 0.0
H3448 H 0.85487 0.15214 0.59084 0.0
H3449 H 0.85138 0.15661 0.61908 0.0
H3450 H 0.84182 0.1301 0.56898 0.0
H3451 H 0.84807 0.19113 0.57577 0.0
H3452 H 0.83971 0.21519 0.58334 0.0
H3453 H 0.79153 0.18883 0.55246 0.0
H3454 H 0.7995 0.16452 0.54483 0.0
C3455 C 0.86415 0.15301 0.49408 0.0
C3456 C 0.84919 0.14658 0.48312 0.0
C3457 C 0.86116 0.15402 0.51037 0.0
C3458 C 0.84314 0.14855 0.516 0.0
C3459 C 0.8283 0.14259 0.50506 0.0
C3460 C 0.83127 0.14156 0.48879 0.0
C3461 C 0.83961 0.14884 0.5333 0.0
C3462 C 0.83253 0.16027 0.53871 0.0
C3463 C 0.84344 0.13823 0.54444 0.0
C3464 C 0.8517 0.12651 0.53959 0.0
C3465 C 0.84263 0.11184 0.52833 0.0
C3466 C 0.85076 0.10112 0.52367 0.0
C3467 C 0.8679 0.10489 0.53025 0.0
C3468 C 0.87693 0.11936 0.54154 0.0
C3469 C 0.86886 0.13011 0.54624 0.0
C3470 C 0.81089 0.15334 0.60541 0.0
C3471 C 0.82487 0.15574 0.6163 0.0
C3472 C 0.81257 0.15018 0.58922 0.0
C3473 C 0.82878 0.15047 0.58357 0.0
C3474 C 0.84219 0.15181 0.59472 0.0
C3475 C 0.84013 0.1542 0.61093 0.0
C3476 C 0.83233 0.15024 0.56614 0.0
C3477 C 0.83945 0.1388 0.56062 0.0
C3478 C 0.82936 0.16157 0.55499 0.0
C3479 C 0.82425 0.17586 0.5599 0.0
C3480 C 0.83559 0.19036 0.57073 0.0
C3481 C 0.83095 0.20407 0.57499 0.0
C3482 C 0.81506 0.2035 0.56843 0.0
C3483 C 0.8038 0.18923 0.55757 0.0
C3484 C 0.80837 0.17549 0.55326 0.0
H3485 H 0.81152 0.21414 0.57172 0.0
H3486 H 0.87417 0.09659 0.52662 0.0
H3487 H 0.83897 0.72209 0.48855 0.0
H3488 H 0.83359 0.71578 0.5171 0.0
H3489 H 0.8562 0.6783 0.51439 0.0
H3490 H 0.86134 0.68431 0.4857 0.0
H3491 H 0.82244 0.66242 0.52937 0.0
H3492 H 0.88111 0.72016 0.53194 0.0
H3493 H 0.90353 0.75361 0.52618 0.0
H3494 H 0.86743 0.77019 0.54906 0.0
H3495 H 0.84464 0.73678 0.55477 0.0
H3496 H 0.83647 0.64516 0.60594 0.0
H3497 H 0.83826 0.65516 0.57917 0.0
H3498 H 0.82302 0.69642 0.59365 0.0
H3499 H 0.82438 0.68838 0.62182 0.0
H3500 H 0.84864 0.71097 0.57234 0.0
H3501 H 0.79122 0.64989 0.57221 0.0
H3502 H 0.77304 0.61607 0.57922 0.0
H3503 H 0.81059 0.6051 0.55194 0.0
H3504 H 0.82904 0.6388 0.54487 0.0
C3505 C 0.84278 0.71249 0.49404 0.0
C3506 C 0.85042 0.70355 0.4849 0.0
C3507 C 0.83986 0.70905 0.51036 0.0
C3508 C 0.84456 0.69665 0.51782 0.0
C3509 C 0.8525 0.68794 0.5088 0.0
C3510 C 0.85551 0.69145 0.49247 0.0
C3511 C 0.84022 0.69193 0.53486 0.0
C3512 C 0.82818 0.673 0.5388 0.0
C3513 C 0.8474 0.70586 0.54704 0.0
C3514 C 0.86105 0.72595 0.5436 0.0
C3515 C 0.87786 0.73092 0.5356 0.0
C3516 C 0.89066 0.74988 0.53238 0.0
C3517 C 0.88688 0.76402 0.5372 0.0
C3518 C 0.87032 0.75922 0.5453 0.0
C3519 C 0.85746 0.74028 0.54854 0.0
C3520 C 0.83336 0.65637 0.60376 0.0
C3521 C 0.83024 0.66596 0.61633 0.0
C3522 C 0.83399 0.66181 0.58811 0.0
C3523 C 0.82979 0.67586 0.58409 0.0
C3524 C 0.82592 0.68519 0.59642 0.0
C3525 C 0.82639 0.68042 0.61251 0.0
C3526 C 0.83095 0.68129 0.56702 0.0
C3527 C 0.84241 0.70039 0.56296 0.0
C3528 C 0.82345 0.66742 0.55467 0.0
C3529 C 0.81146 0.64689 0.55796 0.0
C3530 C 0.79551 0.64024 0.56762 0.0
C3531 C 0.7852 0.62109 0.57164 0.0
C3532 C 0.79065 0.60845 0.56602 0.0
C3533 C 0.80633 0.61488 0.55624 0.0
C3534 C 0.81666 0.63399 0.55216 0.0
H3535 H 0.78273 0.59367 0.56925 0.0
H3536 H 0.8968 0.77869 0.53469 0.0
loop_
_geom_bond_atom_site_label_1
_geom_bond_atom_site_label_2
_geom_bond_distance
_geom_bond_site_symmetry_2
_ccdc_geom_bond_type
C0 C1 1.384 . S
C0 H13 0.947 . S
C0 C35 1.382 . S
C1 C0 1.384 . S
C1 C2 1.378 . S
C2 C1 1.378 . S
C2 C3 1.378 . S
C2 H14 0.952 . S
C3 C2 1.378 . S
C3 H15 0.950 . S
C3 C34 1.383 . S
H4 C23 0.947 . S
H5 C24 0.946 . S
H6 C26 0.953 . S
H7 C27 0.945 . S
H8 C29 0.952 . S
H9 C30 0.949 . S
H10 C32 0.950 . S
H11 C33 0.948 . S
H12 C35 0.951 . S
H13 C0 0.947 . S
H14 C2 0.952 . S
H15 C3 0.950 . S
N16 C19 1.382 . S
N16 C21 1.363 . S
N17 C19 1.371 . S
N17 C20 1.372 . S
N18 C20 1.361 . S
N18 C21 1.377 . S
C19 N16 1.382 . S
C19 N17 1.371 . S
C19 C22 1.480 . S
C20 N17 1.372 . S
C20 N18 1.361 . S
C20 C28 1.457 . S
C21 N16 1.363 . S
C21 N18 1.377 . S
C21 C34 1.479 . S
C22 C19 1.480 . S
C22 C23 1.383 . S
C22 C27 1.385 . S
C23 H4 0.947 . S
C23 C22 1.383 . S
C23 C24 1.388 . S
C24 H5 0.946 . S
C24 C23 1.388 . S
C24 C25 1.384 . S
C25 C24 1.384 . S
C25 C26 1.377 . S
C26 H6 0.953 . S
C26 C25 1.377 . S
C26 C27 1.369 . S
C27 H7 0.945 . S
C27 C22 1.385 . S
C27 C26 1.369 . S
C28 C20 1.457 . S
C28 C29 1.372 . S
C28 C33 1.364 . S
C29 H8 0.952 . S
C29 C28 1.372 . S
C29 C30 1.389 . S
C30 H9 0.949 . S
C30 C29 1.389 . S
C30 C31 1.387 . S
C31 C30 1.387 . S
C31 C32 1.372 . S
C32 H10 0.950 . S
C32 C31 1.372 . S
C32 C33 1.379 . S
C33 H11 0.948 . S
C33 C28 1.364 . S
C33 C32 1.379 . S
C34 C3 1.383 . S
C34 C21 1.479 . S
C34 C35 1.398 . S
C35 C0 1.382 . S
C35 H12 0.951 . S
C35 C34 1.398 . S
C36 C37 1.384 . S
C36 H49 0.947 . S
C36 C71 1.382 . S
C37 C36 1.384 . S
C37 C38 1.378 . S
C38 C37 1.378 . S
C38 C39 1.378 . S
C38 H50 0.952 . S
C39 C38 1.378 . S
C39 H51 0.950 . S
C39 C70 1.383 . S
H40 C59 0.947 . S
H41 C60 0.946 . S
H42 C62 0.953 . S
H43 C63 0.945 . S
H44 C65 0.952 . S
H45 C66 0.949 . S
H46 C68 0.950 . S
H47 C69 0.948 . S
H48 C71 0.951 . S
H49 C36 0.947 . S
H50 C38 0.952 . S
H51 C39 0.950 . S
N52 C55 1.382 . S
N52 C57 1.363 . S
N53 C55 1.371 . S
N53 C56 1.372 . S
N54 C56 1.361 . S
N54 C57 1.377 . S
C55 N52 1.382 . S
C55 N53 1.371 . S
C55 C58 1.480 . S
C56 N53 1.372 . S
C56 N54 1.361 . S
C56 C64 1.457 . S
C57 N52 1.363 . S
C57 N54 1.377 . S
C57 C70 1.479 . S
C58 C55 1.480 . S
C58 C59 1.383 . S
C58 C63 1.385 . S
C59 H40 0.947 . S
C59 C58 1.383 . S
C59 C60 1.388 . S
C60 H41 0.946 . S
C60 C59 1.388 . S
C60 C61 1.384 . S
C61 C60 1.384 . S
C61 C62 1.377 . S
C62 H42 0.953 . S
C62 C61 1.377 . S
C62 C63 1.369 . S
C63 H43 0.945 . S
C63 C58 1.385 . S
C63 C62 1.369 . S
C64 C56 1.457 . S
C64 C65 1.372 . S
C64 C69 1.364 . S
C65 H44 0.952 . S
C65 C64 1.372 . S
C65 C66 1.389 . S
C66 H45 0.949 . S
C66 C65 1.389 . S
C66 C67 1.387 . S
C67 C66 1.387 . S
C67 C68 1.372 . S
C68 H46 0.950 . S
C68 C67 1.372 . S
C68 C69 1.379 . S
C69 H47 0.948 . S
C69 C64 1.364 . S
C69 C68 1.379 . S
C70 C39 1.383 . S
C70 C57 1.479 . S
C70 C71 1.398 . S
C71 C36 1.382 . S
C71 H48 0.951 . S
C71 C70 1.398 . S
C72 C73 1.384 . S
C72 H85 0.947 . S
C72 C107 1.382 . S
C73 C72 1.384 . S
C73 C74 1.378 . S
C74 C73 1.378 . S
C74 C75 1.378 . S
C74 H86 0.952 . S
C75 C74 1.378 . S
C75 H87 0.950 . S
C75 C106 1.383 . S
H76 C95 0.947 . S
H77 C96 0.946 . S
H78 C98 0.953 . S
H79 C99 0.945 . S
H80 C101 0.952 . S
H81 C102 0.949 . S
H82 C104 0.950 . S
H83 C105 0.948 . S
H84 C107 0.951 . S
H85 C72 0.947 . S
H86 C74 0.952 . S
H87 C75 0.950 . S
N88 C91 1.382 . S
N88 C93 1.363 . S
N89 C91 1.371 . S
N89 C92 1.372 . S
N90 C92 1.361 . S
N90 C93 1.377 . S
C91 N88 1.382 . S
C91 N89 1.371 . S
C91 C94 1.480 . S
C92 N89 1.372 . S
C92 N90 1.361 . S
C92 C100 1.457 . S
C93 N88 1.363 . S
C93 N90 1.377 . S
C93 C106 1.479 . S
C94 C91 1.480 . S
C94 C95 1.383 . S
C94 C99 1.385 . S
C95 H76 0.947 . S
C95 C94 1.383 . S
C95 C96 1.388 . S
C96 H77 0.946 . S
C96 C95 1.388 . S
C96 C97 1.384 . S
C97 C96 1.384 . S
C97 C98 1.377 . S
C98 H78 0.953 . S
C98 C97 1.377 . S
C98 C99 1.369 . S
C99 H79 0.945 . S
C99 C94 1.385 . S
C99 C98 1.369 . S
C100 C92 1.457 . S
C100 C101 1.372 . S
C100 C105 1.364 . S
C101 H80 0.952 . S
C101 C100 1.372 . S
C101 C102 1.389 . S
C102 H81 0.949 . S
C102 C101 1.389 . S
C102 C103 1.387 . S
C103 C102 1.387 . S
C103 C104 1.372 . S
C104 H82 0.950 . S
C104 C103 1.372 . S
C104 C105 1.379 . S
C105 H83 0.948 . S
C105 C100 1.364 . S
C105 C104 1.379 . S
C106 C75 1.383 . S
C106 C93 1.479 . S
C106 C107 1.398 . S
C107 C72 1.382 . S
C107 H84 0.951 . S
C107 C106 1.398 . S
C108 C109 1.384 . S
C108 H121 0.947 . S
C108 C143 1.382 . S
C109 C108 1.384 . S
C109 C110 1.378 . S
C110 C109 1.378 . S
C110 C111 1.378 . S
C110 H122 0.952 . S
C111 C110 1.378 . S
C111 H123 0.950 . S
C111 C142 1.383 . S
H112 C131 0.947 . S
H113 C132 0.946 . S
H114 C134 0.953 . S
H115 C135 0.945 . S
H116 C137 0.952 . S
H117 C138 0.949 . S
H118 C140 0.950 . S
H119 C141 0.948 . S
H120 C143 0.951 . S
H121 C108 0.947 . S
H122 C110 0.952 . S
H123 C111 0.950 . S
N124 C127 1.382 . S
N124 C129 1.363 . S
N125 C127 1.371 . S
N125 C128 1.372 . S
N126 C128 1.361 . S
N126 C129 1.377 . S
C127 N124 1.382 . S
C127 N125 1.371 . S
C127 C130 1.480 . S
C128 N125 1.372 . S
C128 N126 1.361 . S
C128 C136 1.457 . S
C129 N124 1.363 . S
C129 N126 1.377 . S
C129 C142 1.479 . S
C130 C127 1.480 . S
C130 C131 1.383 . S
C130 C135 1.385 . S
C131 H112 0.947 . S
C131 C130 1.383 . S
C131 C132 1.388 . S
C132 H113 0.946 . S
C132 C131 1.388 . S
C132 C133 1.384 . S
C133 C132 1.384 . S
C133 C134 1.377 . S
C134 H114 0.953 . S
C134 C133 1.377 . S
C134 C135 1.369 . S
C135 H115 0.945 . S
C135 C130 1.385 . S
C135 C134 1.369 . S
C136 C128 1.457 . S
C136 C137 1.372 . S
C136 C141 1.364 . S
C137 H116 0.952 . S
C137 C136 1.372 . S
C137 C138 1.389 . S
C138 H117 0.949 . S
C138 C137 1.389 . S
C138 C139 1.387 . S
C139 C138 1.387 . S
C139 C140 1.372 . S
C140 H118 0.950 . S
C140 C139 1.372 . S
C140 C141 1.379 . S
C141 H119 0.948 . S
C141 C136 1.364 . S
C141 C140 1.379 . S
C142 C111 1.383 . S
C142 C129 1.479 . S
C142 C143 1.398 . S
C143 C108 1.382 . S
C143 H120 0.951 . S
C143 C142 1.398 . S
C144 C145 1.384 . S
C144 H157 0.947 . S
C144 C179 1.382 . S
C145 C144 1.384 . S
C145 C146 1.378 . S
C146 C145 1.378 . S
C146 C147 1.378 . S
C146 H158 0.952 . S
C147 C146 1.378 . S
C147 H159 0.950 . S
C147 C178 1.383 . S
H148 C167 0.947 . S
H149 C168 0.946 . S
H150 C170 0.953 . S
H151 C171 0.945 . S
H152 C173 0.952 . S
H153 C174 0.949 . S
H154 C176 0.950 . S
H155 C177 0.948 . S
H156 C179 0.951 . S
H157 C144 0.947 . S
H158 C146 0.952 . S
H159 C147 0.950 . S
N160 C163 1.382 . S
N160 C165 1.363 . S
N161 C163 1.371 . S
N161 C164 1.372 . S
N162 C164 1.361 . S
N162 C165 1.377 . S
C163 N160 1.382 . S
C163 N161 1.371 . S
C163 C166 1.480 . S
C164 N161 1.372 . S
C164 N162 1.361 . S
C164 C172 1.457 . S
C165 N160 1.363 . S
C165 N162 1.377 . S
C165 C178 1.479 . S
C166 C163 1.480 . S
C166 C167 1.383 . S
C166 C171 1.385 . S
C167 H148 0.947 . S
C167 C166 1.383 . S
C167 C168 1.388 . S
C168 H149 0.946 . S
C168 C167 1.388 . S
C168 C169 1.384 . S
C169 C168 1.384 . S
C169 C170 1.377 . S
C170 H150 0.953 . S
C170 C169 1.377 . S
C170 C171 1.369 . S
C171 H151 0.945 . S
C171 C166 1.385 . S
C171 C170 1.369 . S
C172 C164 1.457 . S
C172 C173 1.372 . S
C172 C177 1.364 . S
C173 H152 0.952 . S
C173 C172 1.372 . S
C173 C174 1.389 . S
C174 H153 0.949 . S
C174 C173 1.389 . S
C174 C175 1.387 . S
C175 C174 1.387 . S
C175 C176 1.372 . S
C176 H154 0.950 . S
C176 C175 1.372 . S
C176 C177 1.379 . S
C177 H155 0.948 . S
C177 C172 1.364 . S
C177 C176 1.379 . S
C178 C147 1.383 . S
C178 C165 1.479 . S
C178 C179 1.398 . S
C179 C144 1.382 . S
C179 H156 0.951 . S
C179 C178 1.398 . S
C180 C181 1.384 . S
C180 H193 0.947 . S
C180 C215 1.382 . S
C181 C180 1.384 . S
C181 C182 1.378 . S
C182 C181 1.378 . S
C182 C183 1.378 . S
C182 H194 0.952 . S
C183 C182 1.378 . S
C183 H195 0.950 . S
C183 C214 1.383 . S
H184 C203 0.947 . S
H185 C204 0.946 . S
H186 C206 0.953 . S
H187 C207 0.945 . S
H188 C209 0.952 . S
H189 C210 0.949 . S
H190 C212 0.950 . S
H191 C213 0.948 . S
H192 C215 0.951 . S
H193 C180 0.947 . S
H194 C182 0.952 . S
H195 C183 0.950 . S
N196 C199 1.382 . S
N196 C201 1.363 . S
N197 C199 1.371 . S
N197 C200 1.372 . S
N198 C200 1.361 . S
N198 C201 1.377 . S
C199 N196 1.382 . S
C199 N197 1.371 . S
C199 C202 1.480 . S
C200 N197 1.372 . S
C200 N198 1.361 . S
C200 C208 1.457 . S
C201 N196 1.363 . S
C201 N198 1.377 . S
C201 C214 1.479 . S
C202 C199 1.480 . S
C202 C203 1.383 . S
C202 C207 1.385 . S
C203 H184 0.947 . S
C203 C202 1.383 . S
C203 C204 1.388 . S
C204 H185 0.946 . S
C204 C203 1.388 . S
C204 C205 1.384 . S
C205 C204 1.384 . S
C205 C206 1.377 . S
C206 H186 0.953 . S
C206 C205 1.377 . S
C206 C207 1.369 . S
C207 H187 0.945 . S
C207 C202 1.385 . S
C207 C206 1.369 . S
C208 C200 1.457 . S
C208 C209 1.372 . S
C208 C213 1.364 . S
C209 H188 0.952 . S
C209 C208 1.372 . S
C209 C210 1.389 . S
C210 H189 0.949 . S
C210 C209 1.389 . S
C210 C211 1.387 . S
C211 C210 1.387 . S
C211 C212 1.372 . S
C212 H190 0.950 . S
C212 C211 1.372 . S
C212 C213 1.379 . S
C213 H191 0.948 . S
C213 C208 1.364 . S
C213 C212 1.379 . S
C214 C183 1.383 . S
C214 C201 1.479 . S
C214 C215 1.398 . S
C215 C180 1.382 . S
C215 H192 0.951 . S
C215 C214 1.398 . S
C216 C217 1.384 . S
C216 H229 0.947 . S
C216 C251 1.382 . S
C217 C216 1.384 . S
C217 C218 1.378 . S
C218 C217 1.378 . S
C218 C219 1.378 . S
C218 H230 0.952 . S
C219 C218 1.378 . S
C219 H231 0.950 . S
C219 C250 1.383 . S
H220 C239 0.947 . S
H221 C240 0.946 . S
H222 C242 0.953 . S
H223 C243 0.945 . S
H224 C245 0.952 . S
H225 C246 0.949 . S
H226 C248 0.950 . S
H227 C249 0.948 . S
H228 C251 0.951 . S
H229 C216 0.947 . S
H230 C218 0.952 . S
H231 C219 0.950 . S
N232 C235 1.382 . S
N232 C237 1.363 . S
N233 C235 1.371 . S
N233 C236 1.372 . S
N234 C236 1.361 . S
N234 C237 1.377 . S
C235 N232 1.382 . S
C235 N233 1.371 . S
C235 C238 1.480 . S
C236 N233 1.372 . S
C236 N234 1.361 . S
C236 C244 1.457 . S
C237 N232 1.363 . S
C237 N234 1.377 . S
C237 C250 1.479 . S
C238 C235 1.480 . S
C238 C239 1.383 . S
C238 C243 1.385 . S
C239 H220 0.947 . S
C239 C238 1.383 . S
C239 C240 1.388 . S
C240 H221 0.946 . S
C240 C239 1.388 . S
C240 C241 1.384 . S
C241 C240 1.384 . S
C241 C242 1.377 . S
C242 H222 0.953 . S
C242 C241 1.377 . S
C242 C243 1.369 . S
C243 H223 0.945 . S
C243 C238 1.385 . S
C243 C242 1.369 . S
C244 C236 1.457 . S
C244 C245 1.372 . S
C244 C249 1.364 . S
C245 H224 0.952 . S
C245 C244 1.372 . S
C245 C246 1.389 . S
C246 H225 0.949 . S
C246 C245 1.389 . S
C246 C247 1.387 . S
C247 C246 1.387 . S
C247 C248 1.372 . S
C248 H226 0.950 . S
C248 C247 1.372 . S
C248 C249 1.379 . S
C249 H227 0.948 . S
C249 C244 1.364 . S
C249 C248 1.379 . S
C250 C219 1.383 . S
C250 C237 1.479 . S
C250 C251 1.398 . S
C251 C216 1.382 . S
C251 H228 0.951 . S
C251 C250 1.398 . S
C252 C253 1.384 . S
C252 H265 0.947 . S
C252 C287 1.382 . S
C253 C252 1.384 . S
C253 C254 1.378 . S
C254 C253 1.378 . S
C254 C255 1.378 . S
C254 H266 0.952 . S
C255 C254 1.378 . S
C255 H267 0.950 . S
C255 C286 1.383 . S
H256 C275 0.947 . S
H257 C276 0.946 . S
H258 C278 0.953 . S
H259 C279 0.945 . S
H260 C281 0.952 . S
H261 C282 0.949 . S
H262 C284 0.950 . S
H263 C285 0.948 . S
H264 C287 0.951 . S
H265 C252 0.947 . S
H266 C254 0.952 . S
H267 C255 0.950 . S
N268 C271 1.382 . S
N268 C273 1.363 . S
N269 C271 1.371 . S
N269 C272 1.372 . S
N270 C272 1.361 . S
N270 C273 1.377 . S
C271 N268 1.382 . S
C271 N269 1.371 . S
C271 C274 1.480 . S
C272 N269 1.372 . S
C272 N270 1.361 . S
C272 C280 1.457 . S
C273 N268 1.363 . S
C273 N270 1.377 . S
C273 C286 1.479 . S
C274 C271 1.480 . S
C274 C275 1.383 . S
C274 C279 1.385 . S
C275 H256 0.947 . S
C275 C274 1.383 . S
C275 C276 1.388 . S
C276 H257 0.946 . S
C276 C275 1.388 . S
C276 C277 1.384 . S
C277 C276 1.384 . S
C277 C278 1.377 . S
C278 H258 0.953 . S
C278 C277 1.377 . S
C278 C279 1.369 . S
C279 H259 0.945 . S
C279 C274 1.385 . S
C279 C278 1.369 . S
C280 C272 1.457 . S
C280 C281 1.372 . S
C280 C285 1.364 . S
C281 H260 0.952 . S
C281 C280 1.372 . S
C281 C282 1.389 . S
C282 H261 0.949 . S
C282 C281 1.389 . S
C282 C283 1.387 . S
C283 C282 1.387 . S
C283 C284 1.372 . S
C284 H262 0.950 . S
C284 C283 1.372 . S
C284 C285 1.379 . S
C285 H263 0.948 . S
C285 C280 1.364 . S
C285 C284 1.379 . S
C286 C255 1.383 . S
C286 C273 1.479 . S
C286 C287 1.398 . S
C287 C252 1.382 . S
C287 H264 0.951 . S
C287 C286 1.398 . S
C288 C289 1.384 . S
C288 H301 0.947 . S
C288 C323 1.382 . S
C289 C288 1.384 . S
C289 C290 1.378 . S
C290 C289 1.378 . S
C290 C291 1.378 . S
C290 H302 0.952 . S
C291 C290 1.378 . S
C291 H303 0.950 . S
C291 C322 1.383 . S
H292 C311 0.947 . S
H293 C312 0.946 . S
H294 C314 0.953 . S
H295 C315 0.945 . S
H296 C317 0.952 . S
H297 C318 0.949 . S
H298 C320 0.950 . S
H299 C321 0.948 . S
H300 C323 0.951 . S
H301 C288 0.947 . S
H302 C290 0.952 . S
H303 C291 0.950 . S
N304 C307 1.382 . S
N304 C309 1.363 . S
N305 C307 1.371 . S
N305 C308 1.372 . S
N306 C308 1.361 . S
N306 C309 1.377 . S
C307 N304 1.382 . S
C307 N305 1.371 . S
C307 C310 1.480 . S
C308 N305 1.372 . S
C308 N306 1.361 . S
C308 C316 1.457 . S
C309 N304 1.363 . S
C309 N306 1.377 . S
C309 C322 1.479 . S
C310 C307 1.480 . S
C310 C311 1.383 . S
C310 C315 1.385 . S
C311 H292 0.947 . S
C311 C310 1.383 . S
C311 C312 1.388 . S
C312 H293 0.946 . S
C312 C311 1.388 . S
C312 C313 1.384 . S
C313 C312 1.384 . S
C313 C314 1.377 . S
C314 H294 0.953 . S
C314 C313 1.377 . S
C314 C315 1.369 . S
C315 H295 0.945 . S
C315 C310 1.385 . S
C315 C314 1.369 . S
C316 C308 1.457 . S
C316 C317 1.372 . S
C316 C321 1.364 . S
C317 H296 0.952 . S
C317 C316 1.372 . S
C317 C318 1.389 . S
C318 H297 0.949 . S
C318 C317 1.389 . S
C318 C319 1.387 . S
C319 C318 1.387 . S
C319 C320 1.372 . S
C320 H298 0.950 . S
C320 C319 1.372 . S
C320 C321 1.379 . S
C321 H299 0.948 . S
C321 C316 1.364 . S
C321 C320 1.379 . S
C322 C291 1.383 . S
C322 C309 1.479 . S
C322 C323 1.398 . S
C323 C288 1.382 . S
C323 H300 0.951 . S
C323 C322 1.398 . S
C324 C325 1.384 . S
C324 H337 0.947 . S
C324 C359 1.382 . S
C325 C324 1.384 . S
C325 C326 1.378 . S
C326 C325 1.378 . S
C326 C327 1.378 . S
C326 H338 0.952 . S
C327 C326 1.378 . S
C327 H339 0.950 . S
C327 C358 1.383 . S
H328 C347 0.947 . S
H329 C348 0.946 . S
H330 C350 0.953 . S
H331 C351 0.945 . S
H332 C353 0.952 . S
H333 C354 0.949 . S
H334 C356 0.950 . S
H335 C357 0.948 . S
H336 C359 0.951 . S
H337 C324 0.947 . S
H338 C326 0.952 . S
H339 C327 0.950 . S
N340 C343 1.382 . S
N340 C345 1.363 . S
N341 C343 1.371 . S
N341 C344 1.372 . S
N342 C344 1.361 . S
N342 C345 1.377 . S
C343 N340 1.382 . S
C343 N341 1.371 . S
C343 C346 1.480 . S
C344 N341 1.372 . S
C344 N342 1.361 . S
C344 C352 1.457 . S
C345 N340 1.363 . S
C345 N342 1.377 . S
C345 C358 1.479 . S
C346 C343 1.480 . S
C346 C347 1.383 . S
C346 C351 1.385 . S
C347 H328 0.947 . S
C347 C346 1.383 . S
C347 C348 1.388 . S
C348 H329 0.946 . S
C348 C347 1.388 . S
C348 C349 1.384 . S
C349 C348 1.384 . S
C349 C350 1.377 . S
C350 H330 0.953 . S
C350 C349 1.377 . S
C350 C351 1.369 . S
C351 H331 0.945 . S
C351 C346 1.385 . S
C351 C350 1.369 . S
C352 C344 1.457 . S
C352 C353 1.372 . S
C352 C357 1.364 . S
C353 H332 0.952 . S
C353 C352 1.372 . S
C353 C354 1.389 . S
C354 H333 0.949 . S
C354 C353 1.389 . S
C354 C355 1.387 . S
C355 C354 1.387 . S
C355 C356 1.372 . S
C356 H334 0.950 . S
C356 C355 1.372 . S
C356 C357 1.379 . S
C357 H335 0.948 . S
C357 C352 1.364 . S
C357 C356 1.379 . S
C358 C327 1.383 . S
C358 C345 1.479 . S
C358 C359 1.398 . S
C359 C324 1.382 . S
C359 H336 0.951 . S
C359 C358 1.398 . S
C360 C361 1.384 . S
C360 H373 0.947 . S
C360 C395 1.382 . S
C361 C360 1.384 . S
C361 C362 1.378 . S
C362 C361 1.378 . S
C362 C363 1.378 . S
C362 H374 0.952 . S
C363 C362 1.378 . S
C363 H375 0.950 . S
C363 C394 1.383 . S
H364 C383 0.947 . S
H365 C384 0.946 . S
H366 C386 0.953 . S
H367 C387 0.945 . S
H368 C389 0.952 . S
H369 C390 0.949 . S
H370 C392 0.950 . S
H371 C393 0.948 . S
H372 C395 0.951 . S
H373 C360 0.947 . S
H374 C362 0.952 . S
H375 C363 0.950 . S
N376 C379 1.382 . S
N376 C381 1.363 . S
N377 C379 1.371 . S
N377 C380 1.372 . S
N378 C380 1.361 . S
N378 C381 1.377 . S
C379 N376 1.382 . S
C379 N377 1.371 . S
C379 C382 1.480 . S
C380 N377 1.372 . S
C380 N378 1.361 . S
C380 C388 1.457 . S
C381 N376 1.363 . S
C381 N378 1.377 . S
C381 C394 1.479 . S
C382 C379 1.480 . S
C382 C383 1.383 . S
C382 C387 1.385 . S
C383 H364 0.947 . S
C383 C382 1.383 . S
C383 C384 1.388 . S
C384 H365 0.946 . S
C384 C383 1.388 . S
C384 C385 1.384 . S
C385 C384 1.384 . S
C385 C386 1.377 . S
C386 H366 0.953 . S
C386 C385 1.377 . S
C386 C387 1.369 . S
C387 H367 0.945 . S
C387 C382 1.385 . S
C387 C386 1.369 . S
C388 C380 1.457 . S
C388 C389 1.372 . S
C388 C393 1.364 . S
C389 H368 0.952 . S
C389 C388 1.372 . S
C389 C390 1.389 . S
C390 H369 0.949 . S
C390 C389 1.389 . S
C390 C391 1.387 . S
C391 C390 1.387 . S
C391 C392 1.372 . S
C392 H370 0.950 . S
C392 C391 1.372 . S
C392 C393 1.379 . S
C393 H371 0.948 . S
C393 C388 1.364 . S
C393 C392 1.379 . S
C394 C363 1.383 . S
C394 C381 1.479 . S
C394 C395 1.398 . S
C395 C360 1.382 . S
C395 H372 0.951 . S
C395 C394 1.398 . S
C396 C397 1.384 . S
C396 H409 0.947 . S
C396 C431 1.382 . S
C397 C396 1.384 . S
C397 C398 1.378 . S
C398 C397 1.378 . S
C398 C399 1.378 . S
C398 H410 0.952 . S
C399 C398 1.378 . S
C399 H411 0.950 . S
C399 C430 1.383 . S
H400 C419 0.947 . S
H401 C420 0.946 . S
H402 C422 0.953 . S
H403 C423 0.945 . S
H404 C425 0.952 . S
H405 C426 0.949 . S
H406 C428 0.950 . S
H407 C429 0.948 . S
H408 C431 0.951 . S
H409 C396 0.947 . S
H410 C398 0.952 . S
H411 C399 0.950 . S
N412 C415 1.382 . S
N412 C417 1.363 . S
N413 C415 1.371 . S
N413 C416 1.372 . S
N414 C416 1.361 . S
N414 C417 1.377 . S
C415 N412 1.382 . S
C415 N413 1.371 . S
C415 C418 1.480 . S
C416 N413 1.372 . S
C416 N414 1.361 . S
C416 C424 1.457 . S
C417 N412 1.363 . S
C417 N414 1.377 . S
C417 C430 1.479 . S
C418 C415 1.480 . S
C418 C419 1.383 . S
C418 C423 1.385 . S
C419 H400 0.947 . S
C419 C418 1.383 . S
C419 C420 1.388 . S
C420 H401 0.946 . S
C420 C419 1.388 . S
C420 C421 1.384 . S
C421 C420 1.384 . S
C421 C422 1.377 . S
C422 H402 0.953 . S
C422 C421 1.377 . S
C422 C423 1.369 . S
C423 H403 0.945 . S
C423 C418 1.385 . S
C423 C422 1.369 . S
C424 C416 1.457 . S
C424 C425 1.372 . S
C424 C429 1.364 . S
C425 H404 0.952 . S
C425 C424 1.372 . S
C425 C426 1.389 . S
C426 H405 0.949 . S
C426 C425 1.389 . S
C426 C427 1.387 . S
C427 C426 1.387 . S
C427 C428 1.372 . S
C428 H406 0.950 . S
C428 C427 1.372 . S
C428 C429 1.379 . S
C429 H407 0.948 . S
C429 C424 1.364 . S
C429 C428 1.379 . S
C430 C399 1.383 . S
C430 C417 1.479 . S
C430 C431 1.398 . S
C431 C396 1.382 . S
C431 H408 0.951 . S
C431 C430 1.398 . S
C432 C433 1.384 . S
C432 H445 0.947 . S
C432 C467 1.382 . S
C433 C432 1.384 . S
C433 C434 1.378 . S
C434 C433 1.378 . S
C434 C435 1.378 . S
C434 H446 0.952 . S
C435 C434 1.378 . S
C435 H447 0.950 . S
C435 C466 1.383 . S
H436 C455 0.947 . S
H437 C456 0.946 . S
H438 C458 0.953 . S
H439 C459 0.945 . S
H440 C461 0.952 . S
H441 C462 0.949 . S
H442 C464 0.950 . S
H443 C465 0.948 . S
H444 C467 0.951 . S
H445 C432 0.947 . S
H446 C434 0.952 . S
H447 C435 0.950 . S
N448 C451 1.382 . S
N448 C453 1.363 . S
N449 C451 1.371 . S
N449 C452 1.372 . S
N450 C452 1.361 . S
N450 C453 1.377 . S
C451 N448 1.382 . S
C451 N449 1.371 . S
C451 C454 1.480 . S
C452 N449 1.372 . S
C452 N450 1.361 . S
C452 C460 1.457 . S
C453 N448 1.363 . S
C453 N450 1.377 . S
C453 C466 1.479 . S
C454 C451 1.480 . S
C454 C455 1.383 . S
C454 C459 1.385 . S
C455 H436 0.947 . S
C455 C454 1.383 . S
C455 C456 1.388 . S
C456 H437 0.946 . S
C456 C455 1.388 . S
C456 C457 1.384 . S
C457 C456 1.384 . S
C457 C458 1.377 . S
C458 H438 0.953 . S
C458 C457 1.377 . S
C458 C459 1.369 . S
C459 H439 0.945 . S
C459 C454 1.385 . S
C459 C458 1.369 . S
C460 C452 1.457 . S
C460 C461 1.372 . S
C460 C465 1.364 . S
C461 H440 0.952 . S
C461 C460 1.372 . S
C461 C462 1.389 . S
C462 H441 0.949 . S
C462 C461 1.389 . S
C462 C463 1.387 . S
C463 C462 1.387 . S
C463 C464 1.372 . S
C464 H442 0.950 . S
C464 C463 1.372 . S
C464 C465 1.379 . S
C465 H443 0.948 . S
C465 C460 1.364 . S
C465 C464 1.379 . S
C466 C435 1.383 . S
C466 C453 1.479 . S
C466 C467 1.398 . S
C467 C432 1.382 . S
C467 H444 0.951 . S
C467 C466 1.398 . S
C468 C469 1.384 . S
C468 H481 0.947 . S
C468 C503 1.382 . S
C469 C468 1.384 . S
C469 C470 1.378 . S
C470 C469 1.378 . S
C470 C471 1.378 . S
C470 H482 0.952 . S
C471 C470 1.378 . S
C471 H483 0.950 . S
C471 C502 1.383 . S
H472 C491 0.947 . S
H473 C492 0.946 . S
H474 C494 0.953 . S
H475 C495 0.945 . S
H476 C497 0.952 . S
H477 C498 0.949 . S
H478 C500 0.950 . S
H479 C501 0.948 . S
H480 C503 0.951 . S
H481 C468 0.947 . S
H482 C470 0.952 . S
H483 C471 0.950 . S
N484 C487 1.382 . S
N484 C489 1.363 . S
N485 C487 1.371 . S
N485 C488 1.372 . S
N486 C488 1.361 . S
N486 C489 1.377 . S
C487 N484 1.382 . S
C487 N485 1.371 . S
C487 C490 1.480 . S
C488 N485 1.372 . S
C488 N486 1.361 . S
C488 C496 1.457 . S
C489 N484 1.363 . S
C489 N486 1.377 . S
C489 C502 1.479 . S
C490 C487 1.480 . S
C490 C491 1.383 . S
C490 C495 1.385 . S
C491 H472 0.947 . S
C491 C490 1.383 . S
C491 C492 1.388 . S
C492 H473 0.946 . S
C492 C491 1.388 . S
C492 C493 1.384 . S
C493 C492 1.384 . S
C493 C494 1.377 . S
C494 H474 0.953 . S
C494 C493 1.377 . S
C494 C495 1.369 . S
C495 H475 0.945 . S
C495 C490 1.385 . S
C495 C494 1.369 . S
C496 C488 1.457 . S
C496 C497 1.372 . S
C496 C501 1.364 . S
C497 H476 0.952 . S
C497 C496 1.372 . S
C497 C498 1.389 . S
C498 H477 0.949 . S
C498 C497 1.389 . S
C498 C499 1.387 . S
C499 C498 1.387 . S
C499 C500 1.372 . S
C500 H478 0.950 . S
C500 C499 1.372 . S
C500 C501 1.379 . S
C501 H479 0.948 . S
C501 C496 1.364 . S
C501 C500 1.379 . S
C502 C471 1.383 . S
C502 C489 1.479 . S
C502 C503 1.398 . S
C503 C468 1.382 . S
C503 H480 0.951 . S
C503 C502 1.398 . S
C504 C505 1.384 . S
C504 H517 0.947 . S
C504 C539 1.382 . S
C505 C504 1.384 . S
C505 C506 1.378 . S
C506 C505 1.378 . S
C506 C507 1.378 . S
C506 H518 0.952 . S
C507 C506 1.378 . S
C507 H519 0.950 . S
C507 C538 1.383 . S
H508 C527 0.947 . S
H509 C528 0.946 . S
H510 C530 0.953 . S
H511 C531 0.945 . S
H512 C533 0.952 . S
H513 C534 0.949 . S
H514 C536 0.950 . S
H515 C537 0.948 . S
H516 C539 0.951 . S
H517 C504 0.947 . S
H518 C506 0.952 . S
H519 C507 0.950 . S
N520 C523 1.382 . S
N520 C525 1.363 . S
N521 C523 1.371 . S
N521 C524 1.372 . S
N522 C524 1.361 . S
N522 C525 1.377 . S
C523 N520 1.382 . S
C523 N521 1.371 . S
C523 C526 1.480 . S
C524 N521 1.372 . S
C524 N522 1.361 . S
C524 C532 1.457 . S
C525 N520 1.363 . S
C525 N522 1.377 . S
C525 C538 1.479 . S
C526 C523 1.480 . S
C526 C527 1.383 . S
C526 C531 1.385 . S
C527 H508 0.947 . S
C527 C526 1.383 . S
C527 C528 1.388 . S
C528 H509 0.946 . S
C528 C527 1.388 . S
C528 C529 1.384 . S
C529 C528 1.384 . S
C529 C530 1.377 . S
C530 H510 0.953 . S
C530 C529 1.377 . S
C530 C531 1.369 . S
C531 H511 0.945 . S
C531 C526 1.385 . S
C531 C530 1.369 . S
C532 C524 1.457 . S
C532 C533 1.372 . S
C532 C537 1.364 . S
C533 H512 0.952 . S
C533 C532 1.372 . S
C533 C534 1.389 . S
C534 H513 0.949 . S
C534 C533 1.389 . S
C534 C535 1.387 . S
C535 C534 1.387 . S
C535 C536 1.372 . S
C536 H514 0.950 . S
C536 C535 1.372 . S
C536 C537 1.379 . S
C537 H515 0.948 . S
C537 C532 1.364 . S
C537 C536 1.379 . S
C538 C507 1.383 . S
C538 C525 1.479 . S
C538 C539 1.398 . S
C539 C504 1.382 . S
C539 H516 0.951 . S
C539 C538 1.398 . S
C540 C541 1.384 . S
C540 H553 0.947 . S
C540 C575 1.382 . S
C541 C540 1.384 . S
C541 C542 1.378 . S
C542 C541 1.378 . S
C542 C543 1.378 . S
C542 H554 0.952 . S
C543 C542 1.378 . S
C543 H555 0.950 . S
C543 C574 1.383 . S
H544 C563 0.947 . S
H545 C564 0.946 . S
H546 C566 0.953 . S
H547 C567 0.945 . S
H548 C569 0.952 . S
H549 C570 0.949 . S
H550 C572 0.950 . S
H551 C573 0.948 . S
H552 C575 0.951 . S
H553 C540 0.947 . S
H554 C542 0.952 . S
H555 C543 0.950 . S
N556 C559 1.382 . S
N556 C561 1.363 . S
N557 C559 1.371 . S
N557 C560 1.372 . S
N558 C560 1.361 . S
N558 C561 1.377 . S
C559 N556 1.382 . S
C559 N557 1.371 . S
C559 C562 1.480 . S
C560 N557 1.372 . S
C560 N558 1.361 . S
C560 C568 1.457 . S
C561 N556 1.363 . S
C561 N558 1.377 . S
C561 C574 1.479 . S
C562 C559 1.480 . S
C562 C563 1.383 . S
C562 C567 1.385 . S
C563 H544 0.947 . S
C563 C562 1.383 . S
C563 C564 1.388 . S
C564 H545 0.946 . S
C564 C563 1.388 . S
C564 C565 1.384 . S
C565 C564 1.384 . S
C565 C566 1.377 . S
C566 H546 0.953 . S
C566 C565 1.377 . S
C566 C567 1.369 . S
C567 H547 0.945 . S
C567 C562 1.385 . S
C567 C566 1.369 . S
C568 C560 1.457 . S
C568 C569 1.372 . S
C568 C573 1.364 . S
C569 H548 0.952 . S
C569 C568 1.372 . S
C569 C570 1.389 . S
C570 H549 0.949 . S
C570 C569 1.389 . S
C570 C571 1.387 . S
C571 C570 1.387 . S
C571 C572 1.372 . S
C572 H550 0.950 . S
C572 C571 1.372 . S
C572 C573 1.379 . S
C573 H551 0.948 . S
C573 C568 1.364 . S
C573 C572 1.379 . S
C574 C543 1.383 . S
C574 C561 1.479 . S
C574 C575 1.398 . S
C575 C540 1.382 . S
C575 H552 0.951 . S
C575 C574 1.398 . S
C576 C577 1.384 . S
C576 H589 0.947 . S
C576 C611 1.382 . S
C577 C576 1.384 . S
C577 C578 1.378 . S
C578 C577 1.378 . S
C578 C579 1.378 . S
C578 H590 0.952 . S
C579 C578 1.378 . S
C579 H591 0.950 . S
C579 C610 1.383 . S
H580 C599 0.947 . S
H581 C600 0.946 . S
H582 C602 0.953 . S
H583 C603 0.945 . S
H584 C605 0.952 . S
H585 C606 0.949 . S
H586 C608 0.950 . S
H587 C609 0.948 . S
H588 C611 0.951 . S
H589 C576 0.947 . S
H590 C578 0.952 . S
H591 C579 0.950 . S
N592 C595 1.382 . S
N592 C597 1.363 . S
N593 C595 1.371 . S
N593 C596 1.372 . S
N594 C596 1.361 . S
N594 C597 1.377 . S
C595 N592 1.382 . S
C595 N593 1.371 . S
C595 C598 1.480 . S
C596 N593 1.372 . S
C596 N594 1.361 . S
C596 C604 1.457 . S
C597 N592 1.363 . S
C597 N594 1.377 . S
C597 C610 1.479 . S
C598 C595 1.480 . S
C598 C599 1.383 . S
C598 C603 1.385 . S
C599 H580 0.947 . S
C599 C598 1.383 . S
C599 C600 1.388 . S
C600 H581 0.946 . S
C600 C599 1.388 . S
C600 C601 1.384 . S
C601 C600 1.384 . S
C601 C602 1.377 . S
C602 H582 0.953 . S
C602 C601 1.377 . S
C602 C603 1.369 . S
C603 H583 0.945 . S
C603 C598 1.385 . S
C603 C602 1.369 . S
C604 C596 1.457 . S
C604 C605 1.372 . S
C604 C609 1.364 . S
C605 H584 0.952 . S
C605 C604 1.372 . S
C605 C606 1.389 . S
C606 H585 0.949 . S
C606 C605 1.389 . S
C606 C607 1.387 . S
C607 C606 1.387 . S
C607 C608 1.372 . S
C608 H586 0.950 . S
C608 C607 1.372 . S
C608 C609 1.379 . S
C609 H587 0.948 . S
C609 C604 1.364 . S
C609 C608 1.379 . S
C610 C579 1.383 . S
C610 C597 1.479 . S
C610 C611 1.398 . S
C611 C576 1.382 . S
C611 H588 0.951 . S
C611 C610 1.398 . S
C612 C613 1.384 . S
C612 H625 0.947 . S
C612 C647 1.382 . S
C613 C612 1.384 . S
C613 C614 1.378 . S
C614 C613 1.378 . S
C614 C615 1.378 . S
C614 H626 0.952 . S
C615 C614 1.378 . S
C615 H627 0.950 . S
C615 C646 1.383 . S
H616 C635 0.947 . S
H617 C636 0.946 . S
H618 C638 0.953 . S
H619 C639 0.945 . S
H620 C641 0.952 . S
H621 C642 0.949 . S
H622 C644 0.950 . S
H623 C645 0.948 . S
H624 C647 0.951 . S
H625 C612 0.947 . S
H626 C614 0.952 . S
H627 C615 0.950 . S
N628 C631 1.382 . S
N628 C633 1.363 . S
N629 C631 1.371 . S
N629 C632 1.372 . S
N630 C632 1.361 . S
N630 C633 1.377 . S
C631 N628 1.382 . S
C631 N629 1.371 . S
C631 C634 1.480 . S
C632 N629 1.372 . S
C632 N630 1.361 . S
C632 C640 1.457 . S
C633 N628 1.363 . S
C633 N630 1.377 . S
C633 C646 1.479 . S
C634 C631 1.480 . S
C634 C635 1.383 . S
C634 C639 1.385 . S
C635 H616 0.947 . S
C635 C634 1.383 . S
C635 C636 1.388 . S
C636 H617 0.946 . S
C636 C635 1.388 . S
C636 C637 1.384 . S
C637 C636 1.384 . S
C637 C638 1.377 . S
C638 H618 0.953 . S
C638 C637 1.377 . S
C638 C639 1.369 . S
C639 H619 0.945 . S
C639 C634 1.385 . S
C639 C638 1.369 . S
C640 C632 1.457 . S
C640 C641 1.372 . S
C640 C645 1.364 . S
C641 H620 0.952 . S
C641 C640 1.372 . S
C641 C642 1.389 . S
C642 H621 0.949 . S
C642 C641 1.389 . S
C642 C643 1.387 . S
C643 C642 1.387 . S
C643 C644 1.372 . S
C644 H622 0.950 . S
C644 C643 1.372 . S
C644 C645 1.379 . S
C645 H623 0.948 . S
C645 C640 1.364 . S
C645 C644 1.379 . S
C646 C615 1.383 . S
C646 C633 1.479 . S
C646 C647 1.398 . S
C647 C612 1.382 . S
C647 H624 0.951 . S
C647 C646 1.398 . S
O648 Mn649 2.163 1_565 S
O648 C662 1.244 . S
Mn649 O648 2.163 1_545 S
Mn649 O652 2.160 . S
Mn649 O653 2.221 1_545 S
Mn649 O655 2.163 1_554 S
Mn649 O657 2.160 . S
Mn649 O667 2.221 . S
O650 Mn651 2.087 1_565 S
O650 C662 1.256 . S
Mn651 O650 2.087 1_545 S
Mn651 O658 2.089 . S
Mn651 O667 2.290 . S
Mn651 O668 2.251 . S
O652 Mn649 2.160 . S
O652 C663 1.239 1_554 S
O653 Mn649 2.221 1_565 S
O653 Mn654 2.290 1_554 S
O653 C664 1.278 . S
Mn654 O653 2.290 1_556 S
Mn654 O656 2.089 1_565 S
Mn654 O659 2.251 . S
Mn654 O660 2.087 . S
O655 Mn649 2.163 1_556 S
O655 C665 1.244 . S
O656 Mn654 2.089 1_545 S
O656 C663 1.256 . S
O657 Mn649 2.160 . S
O657 C666 1.239 . S
O658 Mn651 2.089 . S
O658 C666 1.256 . S
O659 Mn654 2.251 . S
O659 C664 1.241 1_556 S
O660 Mn654 2.087 . S
O660 C665 1.256 1_565 S
C661 O667 1.278 . S
C661 O668 1.241 . S
C662 O648 1.244 . S
C662 O650 1.256 . S
C663 O652 1.239 1_556 S
C663 O656 1.256 . S
C664 O653 1.278 . S
C664 O659 1.241 1_554 S
C665 O655 1.244 . S
C665 O660 1.256 1_545 S
C666 O657 1.239 . S
C666 O658 1.256 . S
O667 Mn649 2.221 . S
O667 Mn651 2.290 . S
O667 C661 1.278 . S
O668 Mn651 2.251 . S
O668 C661 1.241 . S
O669 Mn670 2.162 1_455 S
O669 C683 1.244 . S
Mn670 O669 2.162 1_655 S
Mn670 O673 2.161 . S
Mn670 O674 2.221 1_655 S
Mn670 O676 2.163 1_554 S
Mn670 O678 2.155 . S
Mn670 O688 2.221 . S
O671 Mn672 2.087 1_455 S
O671 C683 1.256 . S
Mn672 O671 2.087 1_655 S
Mn672 O679 2.089 1_655 S
Mn672 O688 2.290 . S
Mn672 O689 2.251 . S
O673 Mn670 2.161 . S
O673 C684 1.239 1_554 S
O674 Mn670 2.221 1_455 S
O674 Mn675 2.290 1_554 S
O674 C685 1.278 . S
Mn675 O674 2.290 1_556 S
Mn675 O677 2.089 1_455 S
Mn675 O680 2.251 . S
Mn675 O681 2.087 . S
O676 Mn670 2.163 1_556 S
O676 C686 1.244 1_655 S
O677 Mn675 2.089 1_655 S
O677 C684 1.256 . S
O678 Mn670 2.155 . S
O678 C687 1.216 1_655 S
O679 Mn672 2.089 1_455 S
O679 C687 1.256 . S
O680 Mn675 2.251 . S
O680 C685 1.241 1_556 S
O681 Mn675 2.087 . S
O681 C686 1.256 . S
C682 O688 1.278 . S
C682 O689 1.241 . S
C683 O669 1.244 . S
C683 O671 1.256 . S
C684 O673 1.239 1_556 S
C684 O677 1.256 . S
C685 O674 1.278 . S
C685 O680 1.241 1_554 S
C686 O676 1.244 1_455 S
C686 O681 1.256 . S
C687 O678 1.216 1_455 S
C687 O679 1.256 . S
O688 Mn670 2.221 . S
O688 Mn672 2.290 . S
O688 C682 1.278 . S
O689 Mn672 2.251 . S
O689 C682 1.241 . S
O690 Mn691 2.163 . S
O690 C704 1.245 1_554 S
Mn691 O690 2.163 . S
Mn691 O694 2.160 . S
Mn691 O695 2.221 . S
Mn691 O697 2.163 . S
Mn691 O699 2.160 1_554 S
Mn691 O709 2.221 1_554 S
O692 Mn693 2.087 . S
O692 C704 1.256 . S
Mn693 O692 2.087 . S
Mn693 O700 2.089 . S
Mn693 O709 2.290 . S
Mn693 O710 2.251 1_556 S
O694 Mn691 2.160 . S
O694 C705 1.239 . S
O695 Mn691 2.221 . S
O695 Mn696 2.290 . S
O695 C706 1.278 . S
Mn696 O695 2.290 . S
Mn696 O698 2.089 . S
Mn696 O701 2.251 . S
Mn696 O702 2.087 . S
O697 Mn691 2.163 . S
O697 C707 1.244 . S
O698 Mn696 2.089 . S
O698 C705 1.256 . S
O699 Mn691 2.160 1_556 S
O699 C708 1.239 . S
O700 Mn693 2.089 . S
O700 C708 1.256 . S
O701 Mn696 2.251 . S
O701 C706 1.241 . S
O702 Mn696 2.087 . S
O702 C707 1.256 . S
C703 O709 1.278 1_554 S
C703 O710 1.241 . S
C704 O690 1.245 1_556 S
C704 O692 1.256 . S
C705 O694 1.239 . S
C705 O698 1.256 . S
C706 O695 1.278 . S
C706 O701 1.241 . S
C707 O697 1.244 . S
C707 O702 1.256 . S
C708 O699 1.239 . S
C708 O700 1.256 . S
O709 Mn691 2.221 1_556 S
O709 Mn693 2.290 . S
O709 C703 1.278 1_556 S
O710 Mn693 2.251 1_554 S
O710 C703 1.241 . S
O711 Mn712 2.163 . S
O711 C725 1.244 . S
Mn712 O711 2.163 . S
Mn712 O715 2.160 . S
Mn712 O716 2.221 . S
Mn712 O718 2.163 . S
Mn712 O720 2.160 . S
Mn712 O730 2.221 . S
O713 Mn714 2.087 . S
O713 C725 1.256 . S
Mn714 O713 2.087 . S
Mn714 O721 2.089 . S
Mn714 O730 2.290 . S
Mn714 O731 2.251 . S
O715 Mn712 2.160 . S
O715 C726 1.239 . S
O716 Mn712 2.221 . S
O716 Mn717 2.290 . S
O716 C727 1.278 . S
Mn717 O716 2.290 . S
Mn717 O719 2.089 . S
Mn717 O722 2.251 . S
Mn717 O723 2.087 . S
O718 Mn712 2.163 . S
O718 C728 1.244 . S
O719 Mn717 2.089 . S
O719 C726 1.256 . S
O720 Mn712 2.160 . S
O720 C729 1.239 . S
O721 Mn714 2.089 . S
O721 C729 1.256 . S
O722 Mn717 2.251 . S
O722 C727 1.241 . S
O723 Mn717 2.087 . S
O723 C728 1.256 . S
C724 O730 1.278 . S
C724 O731 1.241 . S
C725 O711 1.244 . S
C725 O713 1.256 . S
C726 O715 1.239 . S
C726 O719 1.256 . S
C727 O716 1.278 . S
C727 O722 1.241 . S
C728 O718 1.244 . S
C728 O723 1.256 . S
C729 O720 1.239 . S
C729 O721 1.256 . S
O730 Mn712 2.221 . S
O730 Mn714 2.290 . S
O730 C724 1.278 . S
O731 Mn714 2.251 . S
O731 C724 1.241 . S
O732 Mn733 2.163 . S
O732 C746 1.244 . S
Mn733 O732 2.163 . S
Mn733 O736 2.160 . S
Mn733 O737 2.221 . S
Mn733 O739 2.163 . S
Mn733 O741 2.160 . S
Mn733 O751 2.221 . S
O734 Mn735 2.087 . S
O734 C746 1.256 . S
Mn735 O734 2.087 . S
Mn735 O742 2.089 . S
Mn735 O751 2.290 . S
Mn735 O752 2.251 . S
O736 Mn733 2.160 . S
O736 C747 1.239 . S
O737 Mn733 2.221 . S
O737 Mn738 2.290 . S
O737 C748 1.278 . S
Mn738 O737 2.290 . S
Mn738 O740 2.089 . S
Mn738 O743 2.251 . S
Mn738 O744 2.087 . S
O739 Mn733 2.163 . S
O739 C749 1.244 . S
O740 Mn738 2.089 . S
O740 C747 1.256 . S
O741 Mn733 2.160 . S
O741 C750 1.239 . S
O742 Mn735 2.089 . S
O742 C750 1.256 . S
O743 Mn738 2.251 . S
O743 C748 1.241 . S
O744 Mn738 2.087 . S
O744 C749 1.256 . S
C745 O751 1.278 . S
C745 O752 1.241 . S
C746 O732 1.244 . S
C746 O734 1.256 . S
C747 O736 1.239 . S
C747 O740 1.256 . S
C748 O737 1.278 . S
C748 O743 1.241 . S
C749 O739 1.244 . S
C749 O744 1.256 . S
C750 O741 1.239 . S
C750 O742 1.256 . S
O751 Mn733 2.221 . S
O751 Mn735 2.290 . S
O751 C745 1.278 . S
O752 Mn735 2.251 . S
O752 C745 1.241 . S
O753 Mn754 2.163 . S
O753 C767 1.244 . S
Mn754 O753 2.163 . S
Mn754 O757 2.160 . S
Mn754 O758 2.221 . S
Mn754 O760 2.163 . S
Mn754 O762 2.160 . S
Mn754 O772 2.221 . S
O755 Mn756 2.087 . S
O755 C767 1.256 . S
Mn756 O755 2.087 . S
Mn756 O763 2.089 . S
Mn756 O772 2.290 . S
Mn756 O773 2.251 . S
O757 Mn754 2.160 . S
O757 C768 1.239 . S
O758 Mn754 2.221 . S
O758 Mn759 2.290 . S
O758 C769 1.278 . S
Mn759 O758 2.290 . S
Mn759 O761 2.089 . S
Mn759 O764 2.251 . S
Mn759 O765 2.087 . S
O760 Mn754 2.163 . S
O760 C770 1.244 . S
O761 Mn759 2.089 . S
O761 C768 1.256 . S
O762 Mn754 2.160 . S
O762 C771 1.239 . S
O763 Mn756 2.089 . S
O763 C771 1.256 . S
O764 Mn759 2.251 . S
O764 C769 1.241 . S
O765 Mn759 2.087 . S
O765 C770 1.256 . S
C766 O772 1.278 . S
C766 O773 1.241 . S
C767 O753 1.244 . S
C767 O755 1.256 . S
C768 O757 1.239 . S
C768 O761 1.256 . S
C769 O758 1.278 . S
C769 O764 1.241 . S
C770 O760 1.244 . S
C770 O765 1.256 . S
C771 O762 1.239 . S
C771 O763 1.256 . S
O772 Mn754 2.221 . S
O772 Mn756 2.290 . S
O772 C766 1.278 . S
O773 Mn756 2.251 . S
O773 C766 1.241 . S
O774 Mn775 2.163 . S
O774 C788 1.244 . S
Mn775 O774 2.163 . S
Mn775 O778 2.160 . S
Mn775 O779 2.221 . S
Mn775 O781 2.163 . S
Mn775 O783 2.160 . S
Mn775 O793 2.221 . S
O776 Mn777 2.087 . S
O776 C788 1.256 . S
Mn777 O776 2.087 . S
Mn777 O784 2.089 . S
Mn777 O793 2.290 . S
Mn777 O794 2.251 . S
O778 Mn775 2.160 . S
O778 C789 1.239 . S
O779 Mn775 2.221 . S
O779 Mn780 2.290 . S
O779 C790 1.278 . S
Mn780 O779 2.290 . S
Mn780 O782 2.089 . S
Mn780 O785 2.251 . S
Mn780 O786 2.087 . S
O781 Mn775 2.163 . S
O781 C791 1.244 . S
O782 Mn780 2.089 . S
O782 C789 1.256 . S
O783 Mn775 2.160 . S
O783 C792 1.239 . S
O784 Mn777 2.089 . S
O784 C792 1.256 . S
O785 Mn780 2.251 . S
O785 C790 1.241 . S
O786 Mn780 2.087 . S
O786 C791 1.256 . S
C787 O793 1.278 . S
C787 O794 1.241 . S
C788 O774 1.244 . S
C788 O776 1.256 . S
C789 O778 1.239 . S
C789 O782 1.256 . S
C790 O779 1.278 . S
C790 O785 1.241 . S
C791 O781 1.244 . S
C791 O786 1.256 . S
C792 O783 1.239 . S
C792 O784 1.256 . S
O793 Mn775 2.221 . S
O793 Mn777 2.290 . S
O793 C787 1.278 . S
O794 Mn777 2.251 . S
O794 C787 1.241 . S
O795 Mn796 2.163 . S
O795 C809 1.244 . S
Mn796 O795 2.163 . S
Mn796 O799 2.160 . S
Mn796 O800 2.221 . S
Mn796 O802 2.163 . S
Mn796 O804 2.160 . S
Mn796 O814 2.221 . S
O797 Mn798 2.087 . S
O797 C809 1.256 . S
Mn798 O797 2.087 . S
Mn798 O805 2.089 . S
Mn798 O814 2.290 . S
Mn798 O815 2.251 . S
O799 Mn796 2.160 . S
O799 C810 1.239 . S
O800 Mn796 2.221 . S
O800 Mn801 2.290 . S
O800 C811 1.278 . S
Mn801 O800 2.290 . S
Mn801 O803 2.089 . S
Mn801 O806 2.251 . S
Mn801 O807 2.087 . S
O802 Mn796 2.163 . S
O802 C812 1.244 . S
O803 Mn801 2.089 . S
O803 C810 1.256 . S
O804 Mn796 2.160 . S
O804 C813 1.239 . S
O805 Mn798 2.089 . S
O805 C813 1.256 . S
O806 Mn801 2.251 . S
O806 C811 1.241 . S
O807 Mn801 2.087 . S
O807 C812 1.256 . S
C808 O814 1.278 . S
C808 O815 1.241 . S
C809 O795 1.244 . S
C809 O797 1.256 . S
C810 O799 1.239 . S
C810 O803 1.256 . S
C811 O800 1.278 . S
C811 O806 1.241 . S
C812 O802 1.244 . S
C812 O807 1.256 . S
C813 O804 1.239 . S
C813 O805 1.256 . S
O814 Mn796 2.221 . S
O814 Mn798 2.290 . S
O814 C808 1.278 . S
O815 Mn798 2.251 . S
O815 C808 1.241 . S
O816 Mn817 2.163 . S
O816 C830 1.244 . S
Mn817 O816 2.163 . S
Mn817 O820 2.160 . S
Mn817 O821 2.221 . S
Mn817 O823 2.163 . S
Mn817 O825 2.160 . S
Mn817 O835 2.221 . S
O818 Mn819 2.087 . S
O818 C830 1.256 . S
Mn819 O818 2.087 . S
Mn819 O826 2.089 . S
Mn819 O835 2.290 . S
Mn819 O836 2.251 . S
O820 Mn817 2.160 . S
O820 C831 1.239 . S
O821 Mn817 2.221 . S
O821 Mn822 2.290 . S
O821 C832 1.278 . S
Mn822 O821 2.290 . S
Mn822 O824 2.089 . S
Mn822 O827 2.251 . S
Mn822 O828 2.087 . S
O823 Mn817 2.163 . S
O823 C833 1.244 . S
O824 Mn822 2.089 . S
O824 C831 1.256 . S
O825 Mn817 2.160 . S
O825 C834 1.239 . S
O826 Mn819 2.089 . S
O826 C834 1.256 . S
O827 Mn822 2.251 . S
O827 C832 1.241 . S
O828 Mn822 2.087 . S
O828 C833 1.256 . S
C829 O835 1.278 . S
C829 O836 1.241 . S
C830 O816 1.244 . S
C830 O818 1.256 . S
C831 O820 1.239 . S
C831 O824 1.256 . S
C832 O821 1.278 . S
C832 O827 1.241 . S
C833 O823 1.244 . S
C833 O828 1.256 . S
C834 O825 1.239 . S
C834 O826 1.256 . S
O835 Mn817 2.221 . S
O835 Mn819 2.290 . S
O835 C829 1.278 . S
O836 Mn819 2.251 . S
O836 C829 1.241 . S
H837 C855 0.951 . S
H838 C857 0.951 . S
H839 C859 0.950 . S
H840 C860 0.950 . S
H841 C862 0.950 . S
H842 C865 0.950 . S
H843 C866 0.950 . S
H844 C868 0.950 1_556 S
H845 C869 0.950 1_556 S
H846 C870 0.951 . S
H847 C872 0.951 . S
H848 C874 0.950 1_556 S
H849 C875 0.950 1_556 S
H850 C877 0.950 . S
H851 C880 0.950 . S
H852 C881 0.950 . S
H853 C883 0.950 . S
H854 C884 0.950 . S
C855 H837 0.951 . S
C855 C856 1.366 . S
C855 C857 1.388 . S
C856 C855 1.366 . S
C856 C860 1.385 . S
C857 H838 0.951 . S
C857 C855 1.388 . S
C857 C858 1.366 . S
C858 C857 1.366 . S
C858 C859 1.414 . S
C858 C861 1.499 . S
C859 H839 0.950 . S
C859 C858 1.414 . S
C859 C860 1.374 . S
C860 H840 0.950 . S
C860 C856 1.385 . S
C860 C859 1.374 . S
C861 C858 1.499 . S
C861 C862 1.373 . S
C861 C863 1.389 . S
C862 H841 0.950 . S
C862 C861 1.373 . S
C862 C878 1.377 . S
C863 C861 1.389 . S
C863 C864 1.524 . S
C863 C877 1.377 . S
C864 C863 1.524 . S
C864 C865 1.397 . S
C864 C869 1.363 . S
C865 H842 0.950 . S
C865 C864 1.397 . S
C865 C866 1.334 . S
C866 H843 0.950 . S
C866 C865 1.334 . S
C866 C867 1.287 . S
C867 C866 1.287 . S
C867 C868 1.524 . S
C867 H886 0.913 . S
C868 H844 0.950 1_554 S
C868 C867 1.524 . S
C868 C869 1.415 . S
C869 H845 0.950 1_554 S
C869 C864 1.363 . S
C869 C868 1.415 . S
C870 H846 0.951 . S
C870 C871 1.366 . S
C870 C872 1.388 . S
C871 C870 1.366 . S
C871 C875 1.385 . S
C872 H847 0.951 . S
C872 C870 1.388 . S
C872 C873 1.366 . S
C873 C872 1.366 . S
C873 C874 1.414 . S
C873 C876 1.499 . S
C874 H848 0.950 1_554 S
C874 C873 1.414 . S
C874 C875 1.374 . S
C875 H849 0.950 1_554 S
C875 C871 1.385 . S
C875 C874 1.374 . S
C876 C873 1.499 . S
C876 C877 1.373 . S
C876 C878 1.389 . S
C877 H850 0.950 . S
C877 C863 1.377 . S
C877 C876 1.373 . S
C878 C862 1.377 . S
C878 C876 1.389 . S
C878 C879 1.524 . S
C879 C878 1.524 . S
C879 C880 1.397 . S
C879 C884 1.363 . S
C880 H851 0.950 . S
C880 C879 1.397 . S
C880 C881 1.334 . S
C881 H852 0.950 . S
C881 C880 1.334 . S
C881 C882 1.287 . S
C882 C881 1.287 . S
C882 C883 1.524 . S
C882 H885 1.068 . S
C883 H853 0.950 . S
C883 C882 1.524 . S
C883 C884 1.415 . S
C884 H854 0.950 . S
C884 C879 1.363 . S
C884 C883 1.415 . S
H885 C882 1.068 . S
H886 C867 0.913 . S
H887 C905 0.951 . S
H888 C907 0.951 . S
H889 C909 0.950 . S
H890 C910 0.950 . S
H891 C912 0.950 . S
H892 C915 0.953 . S
H893 C916 0.950 . S
H894 C918 0.950 . S
H895 C919 0.950 . S
H896 C920 0.951 . S
H897 C922 0.951 . S
H898 C924 0.950 . S
H899 C925 0.950 . S
H900 C927 0.950 . S
H901 C930 0.950 . S
H902 C931 0.950 . S
H903 C933 0.950 . S
H904 C934 0.950 . S
C905 H887 0.951 . S
C905 C906 1.366 . S
C905 C907 1.388 . S
C906 C905 1.366 . S
C906 C910 1.385 . S
C907 H888 0.951 . S
C907 C905 1.388 . S
C907 C908 1.366 . S
C908 C907 1.366 . S
C908 C909 1.414 . S
C908 C911 1.499 . S
C909 H889 0.950 . S
C909 C908 1.414 . S
C909 C910 1.374 . S
C910 H890 0.950 . S
C910 C906 1.385 . S
C910 C909 1.374 . S
C911 C908 1.499 . S
C911 C912 1.373 . S
C911 C913 1.389 . S
C912 H891 0.950 . S
C912 C911 1.373 . S
C912 C928 1.377 . S
C913 C911 1.389 . S
C913 C914 1.524 . S
C913 C927 1.377 . S
C914 C913 1.524 . S
C914 C915 1.397 . S
C914 C919 1.363 . S
C915 H892 0.953 . S
C915 C914 1.397 . S
C915 C916 1.334 1_554 S
C916 H893 0.950 . S
C916 C915 1.334 1_556 S
C916 C917 1.287 . S
C917 C916 1.287 . S
C917 C918 1.524 1_556 S
C917 H936 0.913 . S
C918 H894 0.950 . S
C918 C917 1.524 1_554 S
C918 C919 1.415 . S
C919 H895 0.950 . S
C919 C914 1.363 . S
C919 C918 1.415 . S
C920 H896 0.951 . S
C920 C921 1.366 . S
C920 C922 1.388 . S
C921 C920 1.366 . S
C921 C925 1.385 . S
C922 H897 0.951 . S
C922 C920 1.388 . S
C922 C923 1.366 . S
C923 C922 1.366 . S
C923 C924 1.414 . S
C923 C926 1.499 . S
C924 H898 0.950 . S
C924 C923 1.414 . S
C924 C925 1.374 . S
C925 H899 0.950 . S
C925 C921 1.385 . S
C925 C924 1.374 . S
C926 C923 1.499 . S
C926 C927 1.373 . S
C926 C928 1.389 . S
C927 H900 0.950 . S
C927 C913 1.377 . S
C927 C926 1.373 . S
C928 C912 1.377 . S
C928 C926 1.389 . S
C928 C929 1.524 . S
C929 C928 1.524 . S
C929 C930 1.397 . S
C929 C934 1.363 . S
C930 H901 0.950 . S
C930 C929 1.397 . S
C930 C931 1.334 . S
C931 H902 0.950 . S
C931 C930 1.334 . S
C931 C932 1.287 . S
C932 C931 1.287 . S
C932 C933 1.524 . S
C932 H935 0.999 . S
C933 H903 0.950 . S
C933 C932 1.524 . S
C933 C934 1.415 . S
C934 H904 0.950 . S
C934 C929 1.363 . S
C934 C933 1.415 . S
H935 C932 0.999 . S
H936 C917 0.913 . S
H937 C955 0.951 . S
H938 C957 0.951 . S
H939 C959 0.950 . S
H940 C960 0.950 . S
H941 C962 0.950 . S
H942 C965 0.950 . S
H943 C966 0.950 . S
H944 C968 0.950 . S
H945 C969 0.950 . S
H946 C970 0.951 1_556 S
H947 C972 0.951 . S
H948 C974 0.950 . S
H949 C975 0.950 . S
H950 C977 0.950 . S
H951 C980 0.950 . S
H952 C981 0.950 . S
H953 C983 0.950 . S
H954 C984 0.950 . S
C955 H937 0.951 . S
C955 C956 1.366 . S
C955 C957 1.388 . S
C956 C955 1.366 . S
C956 C960 1.385 . S
C957 H938 0.951 . S
C957 C955 1.388 . S
C957 C958 1.366 . S
C958 C957 1.366 . S
C958 C959 1.414 . S
C958 C961 1.499 . S
C959 H939 0.950 . S
C959 C958 1.414 . S
C959 C960 1.374 . S
C960 H940 0.950 . S
C960 C956 1.385 . S
C960 C959 1.374 . S
C961 C958 1.499 . S
C961 C962 1.373 . S
C961 C963 1.389 . S
C962 H941 0.950 . S
C962 C961 1.373 . S
C962 C978 1.377 . S
C963 C961 1.389 . S
C963 C964 1.524 . S
C963 C977 1.377 . S
C964 C963 1.524 . S
C964 C965 1.397 . S
C964 C969 1.363 . S
C965 H942 0.950 . S
C965 C964 1.397 . S
C965 C966 1.334 . S
C966 H943 0.950 . S
C966 C965 1.334 . S
C966 C967 1.287 . S
C967 C966 1.287 . S
C967 C968 1.524 . S
C967 H986 0.913 . S
C968 H944 0.950 . S
C968 C967 1.524 . S
C968 C969 1.415 . S
C969 H945 0.950 . S
C969 C964 1.363 . S
C969 C968 1.415 . S
C970 H946 0.951 1_554 S
C970 C971 1.366 . S
C970 C972 1.388 . S
C971 C970 1.366 . S
C971 C975 1.385 . S
C972 H947 0.951 . S
C972 C970 1.388 . S
C972 C973 1.366 . S
C973 C972 1.366 . S
C973 C974 1.414 . S
C973 C976 1.499 . S
C974 H948 0.950 . S
C974 C973 1.414 . S
C974 C975 1.374 . S
C975 H949 0.950 . S
C975 C971 1.385 . S
C975 C974 1.374 . S
C976 C973 1.499 . S
C976 C977 1.373 . S
C976 C978 1.389 . S
C977 H950 0.950 . S
C977 C963 1.377 . S
C977 C976 1.373 . S
C978 C962 1.377 . S
C978 C976 1.389 . S
C978 C979 1.524 . S
C979 C978 1.524 . S
C979 C980 1.397 . S
C979 C984 1.363 . S
C980 H951 0.950 . S
C980 C979 1.397 . S
C980 C981 1.334 . S
C981 H952 0.950 . S
C981 C980 1.334 . S
C981 C982 1.287 . S
C982 C981 1.287 . S
C982 C983 1.524 . S
C982 H985 0.999 . S
C983 H953 0.950 . S
C983 C982 1.524 . S
C983 C984 1.415 . S
C984 H954 0.950 . S
C984 C979 1.363 . S
C984 C983 1.415 . S
H985 C982 0.999 . S
H986 C967 0.913 . S
H987 C1005 0.951 . S
H988 C1007 0.951 . S
H989 C1009 0.950 . S
H990 C1010 0.950 . S
H991 C1012 0.950 . S
H992 C1015 0.950 . S
H993 C1016 0.950 . S
H994 C1018 0.950 . S
H995 C1019 0.950 . S
H996 C1020 0.951 . S
H997 C1022 0.951 . S
H998 C1024 0.950 . S
H999 C1025 0.950 . S
H1000 C1027 0.950 1_554 S
H1001 C1030 0.950 . S
H1002 C1031 0.950 . S
H1003 C1033 0.950 . S
H1004 C1034 0.950 . S
C1005 H987 0.951 . S
C1005 C1006 1.366 . S
C1005 C1007 1.388 . S
C1006 C1005 1.366 . S
C1006 C1010 1.385 . S
C1007 H988 0.951 . S
C1007 C1005 1.388 . S
C1007 C1008 1.366 . S
C1008 C1007 1.366 . S
C1008 C1009 1.414 . S
C1008 C1011 1.499 . S
C1009 H989 0.950 . S
C1009 C1008 1.414 . S
C1009 C1010 1.374 . S
C1010 H990 0.950 . S
C1010 C1006 1.385 . S
C1010 C1009 1.374 . S
C1011 C1008 1.499 . S
C1011 C1012 1.373 . S
C1011 C1013 1.389 . S
C1012 H991 0.950 . S
C1012 C1011 1.373 . S
C1012 C1028 1.377 . S
C1013 C1011 1.389 . S
C1013 C1014 1.524 1_556 S
C1013 C1027 1.377 . S
C1014 C1013 1.524 1_554 S
C1014 C1015 1.397 . S
C1014 C1019 1.363 . S
C1015 H992 0.950 . S
C1015 C1014 1.397 . S
C1015 C1016 1.334 . S
C1016 H993 0.950 . S
C1016 C1015 1.334 . S
C1016 C1017 1.287 . S
C1017 C1016 1.287 . S
C1017 C1018 1.524 . S
C1017 H1036 0.913 . S
C1018 H994 0.950 . S
C1018 C1017 1.524 . S
C1018 C1019 1.415 . S
C1019 H995 0.950 . S
C1019 C1014 1.363 . S
C1019 C1018 1.415 . S
C1020 H996 0.951 . S
C1020 C1021 1.366 . S
C1020 C1022 1.388 . S
C1021 C1020 1.366 . S
C1021 C1025 1.385 . S
C1022 H997 0.951 . S
C1022 C1020 1.388 . S
C1022 C1023 1.366 . S
C1023 C1022 1.366 . S
C1023 C1024 1.414 . S
C1023 C1026 1.499 . S
C1024 H998 0.950 . S
C1024 C1023 1.414 . S
C1024 C1025 1.374 . S
C1025 H999 0.950 . S
C1025 C1021 1.385 . S
C1025 C1024 1.374 . S
C1026 C1023 1.499 . S
C1026 C1027 1.373 . S
C1026 C1028 1.389 . S
C1027 H1000 0.950 1_556 S
C1027 C1013 1.377 . S
C1027 C1026 1.373 . S
C1028 C1012 1.377 . S
C1028 C1026 1.389 . S
C1028 C1029 1.524 . S
C1029 C1028 1.524 . S
C1029 C1030 1.397 . S
C1029 C1034 1.363 . S
C1030 H1001 0.950 . S
C1030 C1029 1.397 . S
C1030 C1031 1.334 . S
C1031 H1002 0.950 . S
C1031 C1030 1.334 . S
C1031 C1032 1.287 . S
C1032 C1031 1.287 . S
C1032 C1033 1.524 . S
C1032 H1035 0.999 . S
C1033 H1003 0.950 . S
C1033 C1032 1.524 . S
C1033 C1034 1.415 . S
C1034 H1004 0.950 . S
C1034 C1029 1.363 . S
C1034 C1033 1.415 . S
H1035 C1032 0.999 . S
H1036 C1017 0.913 . S
H1037 C1055 0.951 . S
H1038 C1057 0.951 . S
H1039 C1059 0.950 1_554 S
H1040 C1060 0.950 . S
H1041 C1062 0.950 . S
H1042 C1065 0.950 . S
H1043 C1066 0.950 . S
H1044 C1068 0.950 . S
H1045 C1069 0.950 . S
H1046 C1070 0.951 . S
H1047 C1072 0.951 . S
H1048 C1074 0.950 . S
H1049 C1075 0.950 . S
H1050 C1077 0.950 . S
H1051 C1080 0.950 . S
H1052 C1081 0.949 . S
H1053 C1083 0.950 . S
H1054 C1084 0.950 . S
C1055 H1037 0.951 . S
C1055 C1056 1.366 . S
C1055 C1057 1.388 . S
C1056 C1055 1.366 . S
C1056 C1060 1.385 . S
C1057 H1038 0.951 . S
C1057 C1055 1.388 . S
C1057 C1058 1.366 . S
C1058 C1057 1.366 . S
C1058 C1059 1.414 . S
C1058 C1061 1.499 . S
C1059 H1039 0.950 1_556 S
C1059 C1058 1.414 . S
C1059 C1060 1.374 . S
C1060 H1040 0.950 . S
C1060 C1056 1.385 . S
C1060 C1059 1.374 . S
C1061 C1058 1.499 . S
C1061 C1062 1.373 . S
C1061 C1063 1.389 . S
C1062 H1041 0.950 . S
C1062 C1061 1.373 . S
C1062 C1078 1.377 . S
C1063 C1061 1.389 . S
C1063 C1064 1.524 . S
C1063 C1077 1.377 . S
C1064 C1063 1.524 . S
C1064 C1065 1.397 . S
C1064 C1069 1.363 . S
C1065 H1042 0.950 . S
C1065 C1064 1.397 . S
C1065 C1066 1.334 . S
C1066 H1043 0.950 . S
C1066 C1065 1.334 . S
C1066 C1067 1.287 . S
C1067 C1066 1.287 . S
C1067 C1068 1.524 . S
C1067 H1086 0.913 . S
C1068 H1044 0.950 . S
C1068 C1067 1.524 . S
C1068 C1069 1.415 . S
C1069 H1045 0.950 . S
C1069 C1064 1.363 . S
C1069 C1068 1.415 . S
C1070 H1046 0.951 . S
C1070 C1071 1.366 1_554 S
C1070 C1072 1.388 . S
C1071 C1070 1.366 1_556 S
C1071 C1075 1.385 . S
C1072 H1047 0.951 . S
C1072 C1070 1.388 . S
C1072 C1073 1.366 1_554 S
C1073 C1072 1.366 1_556 S
C1073 C1074 1.414 . S
C1073 C1076 1.499 . S
C1074 H1048 0.950 . S
C1074 C1073 1.414 . S
C1074 C1075 1.374 . S
C1075 H1049 0.950 . S
C1075 C1071 1.385 . S
C1075 C1074 1.374 . S
C1076 C1073 1.499 . S
C1076 C1077 1.373 . S
C1076 C1078 1.389 . S
C1077 H1050 0.950 . S
C1077 C1063 1.377 . S
C1077 C1076 1.373 . S
C1078 C1062 1.377 . S
C1078 C1076 1.389 . S
C1078 C1079 1.524 1_556 S
C1079 C1078 1.524 1_554 S
C1079 C1080 1.397 1_554 S
C1079 C1084 1.363 . S
C1080 H1051 0.950 . S
C1080 C1079 1.397 1_556 S
C1080 C1081 1.334 1_556 S
C1081 H1052 0.949 . S
C1081 C1080 1.334 1_554 S
C1081 C1082 1.287 . S
C1082 C1081 1.287 . S
C1082 C1083 1.524 . S
C1082 H1085 0.999 . S
C1083 H1053 0.950 . S
C1083 C1082 1.524 . S
C1083 C1084 1.415 . S
C1084 H1054 0.950 . S
C1084 C1079 1.363 . S
C1084 C1083 1.415 . S
H1085 C1082 0.999 . S
H1086 C1067 0.913 . S
H1087 C1105 0.951 . S
H1088 C1107 0.951 . S
H1089 C1109 0.950 . S
H1090 C1110 0.950 . S
H1091 C1112 0.950 . S
H1092 C1115 0.950 . S
H1093 C1116 0.950 . S
H1094 C1118 0.950 . S
H1095 C1119 0.950 . S
H1096 C1120 0.951 . S
H1097 C1122 0.951 . S
H1098 C1124 0.950 1_554 S
H1099 C1125 0.950 . S
H1100 C1127 0.949 1_554 S
H1101 C1130 0.950 . S
H1102 C1131 0.950 . S
H1103 C1133 0.950 . S
H1104 C1134 0.950 . S
C1105 H1087 0.951 . S
C1105 C1106 1.366 . S
C1105 C1107 1.388 . S
C1106 C1105 1.366 . S
C1106 C1110 1.385 . S
C1107 H1088 0.951 . S
C1107 C1105 1.388 . S
C1107 C1108 1.366 . S
C1108 C1107 1.366 . S
C1108 C1109 1.414 . S
C1108 C1111 1.499 . S
C1109 H1089 0.950 . S
C1109 C1108 1.414 . S
C1109 C1110 1.374 . S
C1110 H1090 0.950 . S
C1110 C1106 1.385 . S
C1110 C1109 1.374 . S
C1111 C1108 1.499 . S
C1111 C1112 1.373 . S
C1111 C1113 1.389 . S
C1112 H1091 0.950 . S
C1112 C1111 1.373 . S
C1112 C1128 1.377 . S
C1113 C1111 1.389 . S
C1113 C1114 1.524 1_556 S
C1113 C1127 1.377 . S
C1114 C1113 1.524 1_554 S
C1114 C1115 1.397 . S
C1114 C1119 1.363 . S
C1115 H1092 0.950 . S
C1115 C1114 1.397 . S
C1115 C1116 1.334 . S
C1116 H1093 0.950 . S
C1116 C1115 1.334 . S
C1116 C1117 1.287 . S
C1117 C1116 1.287 . S
C1117 C1118 1.524 . S
C1117 H1136 0.913 . S
C1118 H1094 0.950 . S
C1118 C1117 1.524 . S
C1118 C1119 1.415 . S
C1119 H1095 0.950 . S
C1119 C1114 1.363 . S
C1119 C1118 1.415 . S
C1120 H1096 0.951 . S
C1120 C1121 1.366 . S
C1120 C1122 1.388 . S
C1121 C1120 1.366 . S
C1121 C1125 1.385 1_556 S
C1122 H1097 0.951 . S
C1122 C1120 1.388 . S
C1122 C1123 1.366 . S
C1123 C1122 1.366 . S
C1123 C1124 1.414 . S
C1123 C1126 1.499 . S
C1124 H1098 0.950 1_556 S
C1124 C1123 1.414 . S
C1124 C1125 1.374 1_556 S
C1125 H1099 0.950 . S
C1125 C1121 1.385 1_554 S
C1125 C1124 1.374 1_554 S
C1126 C1123 1.499 . S
C1126 C1127 1.375 . S
C1126 C1128 1.389 . S
C1127 H1100 0.949 1_556 S
C1127 C1113 1.377 . S
C1127 C1126 1.375 . S
C1128 C1112 1.377 . S
C1128 C1126 1.389 . S
C1128 C1129 1.524 . S
C1129 C1128 1.524 . S
C1129 C1130 1.397 . S
C1129 C1134 1.363 . S
C1130 H1101 0.950 . S
C1130 C1129 1.397 . S
C1130 C1131 1.334 . S
C1131 H1102 0.950 . S
C1131 C1130 1.334 . S
C1131 C1132 1.287 . S
C1132 C1131 1.287 . S
C1132 C1133 1.524 . S
C1132 H1135 0.999 . S
C1133 H1103 0.950 . S
C1133 C1132 1.524 . S
C1133 C1134 1.415 . S
C1134 H1104 0.950 . S
C1134 C1129 1.363 . S
C1134 C1133 1.415 . S
H1135 C1132 0.999 . S
H1136 C1117 0.913 . S
H1137 C1155 0.951 . S
H1138 C1157 0.951 . S
H1139 C1159 0.950 . S
H1140 C1160 0.950 . S
H1141 C1162 0.950 . S
H1142 C1165 0.950 . S
H1143 C1166 0.950 . S
H1144 C1168 0.950 . S
H1145 C1169 0.950 . S
H1146 C1170 0.951 . S
H1147 C1172 0.951 . S
H1148 C1174 0.950 . S
H1149 C1175 0.950 . S
H1150 C1177 0.950 . S
H1151 C1180 0.950 . S
H1152 C1181 0.950 . S
H1153 C1183 0.950 . S
H1154 C1184 0.950 . S
C1155 H1137 0.951 . S
C1155 C1156 1.366 . S
C1155 C1157 1.388 . S
C1156 C1155 1.366 . S
C1156 C1160 1.385 . S
C1157 H1138 0.951 . S
C1157 C1155 1.388 . S
C1157 C1158 1.366 . S
C1158 C1157 1.366 . S
C1158 C1159 1.414 . S
C1158 C1161 1.499 . S
C1159 H1139 0.950 . S
C1159 C1158 1.414 . S
C1159 C1160 1.374 . S
C1160 H1140 0.950 . S
C1160 C1156 1.385 . S
C1160 C1159 1.374 . S
C1161 C1158 1.499 . S
C1161 C1162 1.373 . S
C1161 C1163 1.389 . S
C1162 H1141 0.950 . S
C1162 C1161 1.373 . S
C1162 C1178 1.377 . S
C1163 C1161 1.389 . S
C1163 C1164 1.524 . S
C1163 C1177 1.377 . S
C1164 C1163 1.524 . S
C1164 C1165 1.397 . S
C1164 C1169 1.363 . S
C1165 H1142 0.950 . S
C1165 C1164 1.397 . S
C1165 C1166 1.334 . S
C1166 H1143 0.950 . S
C1166 C1165 1.334 . S
C1166 C1167 1.287 . S
C1167 C1166 1.287 . S
C1167 C1168 1.524 . S
C1167 H1186 0.913 . S
C1168 H1144 0.950 . S
C1168 C1167 1.524 . S
C1168 C1169 1.415 . S
C1169 H1145 0.950 . S
C1169 C1164 1.363 . S
C1169 C1168 1.415 . S
C1170 H1146 0.951 . S
C1170 C1171 1.366 1_554 S
C1170 C1172 1.388 . S
C1171 C1170 1.366 1_556 S
C1171 C1175 1.385 . S
C1172 H1147 0.951 . S
C1172 C1170 1.388 . S
C1172 C1173 1.366 1_554 S
C1173 C1172 1.366 1_556 S
C1173 C1174 1.414 . S
C1173 C1176 1.499 . S
C1174 H1148 0.950 . S
C1174 C1173 1.414 . S
C1174 C1175 1.374 . S
C1175 H1149 0.950 . S
C1175 C1171 1.385 . S
C1175 C1174 1.374 . S
C1176 C1173 1.499 . S
C1176 C1177 1.373 . S
C1176 C1178 1.389 . S
C1177 H1150 0.950 . S
C1177 C1163 1.377 . S
C1177 C1176 1.373 . S
C1178 C1162 1.377 . S
C1178 C1176 1.389 . S
C1178 C1179 1.524 . S
C1179 C1178 1.524 . S
C1179 C1180 1.397 . S
C1179 C1184 1.363 1_556 S
C1180 H1151 0.950 . S
C1180 C1179 1.397 . S
C1180 C1181 1.334 . S
C1181 H1152 0.950 . S
C1181 C1180 1.334 . S
C1181 C1182 1.287 . S
C1182 C1181 1.287 . S
C1182 C1183 1.524 1_556 S
C1182 H1185 1.016 . S
C1183 H1153 0.950 . S
C1183 C1182 1.524 1_554 S
C1183 C1184 1.415 . S
C1184 H1154 0.950 . S
C1184 C1179 1.363 1_554 S
C1184 C1183 1.415 . S
H1185 C1182 1.016 . S
H1186 C1167 0.913 . S
H1187 C1205 0.951 . S
H1188 C1207 0.951 . S
H1189 C1209 0.950 . S
H1190 C1210 0.950 . S
H1191 C1212 0.950 . S
H1192 C1215 0.950 . S
H1193 C1216 0.950 . S
H1194 C1218 0.950 . S
H1195 C1219 0.950 1_556 S
H1196 C1220 0.939 1_554 S
H1197 C1222 0.951 . S
H1198 C1224 0.950 . S
H1199 C1225 0.950 . S
H1200 C1227 0.950 1_554 S
H1201 C1230 0.950 . S
H1202 C1231 0.950 . S
H1203 C1233 0.950 . S
H1204 C1234 0.950 . S
C1205 H1187 0.951 . S
C1205 C1206 1.366 . S
C1205 C1207 1.388 . S
C1206 C1205 1.366 . S
C1206 C1210 1.385 . S
C1207 H1188 0.951 . S
C1207 C1205 1.388 . S
C1207 C1208 1.366 . S
C1208 C1207 1.366 . S
C1208 C1209 1.414 . S
C1208 C1211 1.499 . S
C1209 H1189 0.950 . S
C1209 C1208 1.414 . S
C1209 C1210 1.374 . S
C1210 H1190 0.950 . S
C1210 C1206 1.385 . S
C1210 C1209 1.374 . S
C1211 C1208 1.499 . S
C1211 C1212 1.373 . S
C1211 C1213 1.389 . S
C1212 H1191 0.950 . S
C1212 C1211 1.373 . S
C1212 C1228 1.377 . S
C1213 C1211 1.389 . S
C1213 C1214 1.524 1_556 S
C1213 C1227 1.377 . S
C1214 C1213 1.524 1_554 S
C1214 C1215 1.397 . S
C1214 C1219 1.363 . S
C1215 H1192 0.950 . S
C1215 C1214 1.397 . S
C1215 C1216 1.334 . S
C1216 H1193 0.950 . S
C1216 C1215 1.334 . S
C1216 C1217 1.287 . S
C1217 C1216 1.287 . S
C1217 C1218 1.524 . S
C1217 H1236 0.913 . S
C1218 H1194 0.950 . S
C1218 C1217 1.524 . S
C1218 C1219 1.415 . S
C1219 H1195 0.950 1_554 S
C1219 C1214 1.363 . S
C1219 C1218 1.415 . S
C1220 H1196 0.939 1_556 S
C1220 C1221 1.370 . S
C1220 C1222 1.398 . S
C1221 C1220 1.370 . S
C1221 C1225 1.385 . S
C1222 H1197 0.951 . S
C1222 C1220 1.398 . S
C1222 C1223 1.366 . S
C1223 C1222 1.366 . S
C1223 C1224 1.414 . S
C1223 C1226 1.499 . S
C1224 H1198 0.950 . S
C1224 C1223 1.414 . S
C1224 C1225 1.374 . S
C1225 H1199 0.950 . S
C1225 C1221 1.385 . S
C1225 C1224 1.374 . S
C1226 C1223 1.499 . S
C1226 C1227 1.373 . S
C1226 C1228 1.389 . S
C1227 H1200 0.950 1_556 S
C1227 C1213 1.377 . S
C1227 C1226 1.373 . S
C1228 C1212 1.377 . S
C1228 C1226 1.389 . S
C1228 C1229 1.524 . S
C1229 C1228 1.524 . S
C1229 C1230 1.397 . S
C1229 C1234 1.363 . S
C1230 H1201 0.950 . S
C1230 C1229 1.397 . S
C1230 C1231 1.334 . S
C1231 H1202 0.950 . S
C1231 C1230 1.334 . S
C1231 C1232 1.287 . S
C1232 C1231 1.287 . S
C1232 C1233 1.524 . S
C1232 H1235 0.999 . S
C1233 H1203 0.950 . S
C1233 C1232 1.524 . S
C1233 C1234 1.415 . S
C1234 H1204 0.950 . S
C1234 C1229 1.363 . S
C1234 C1233 1.415 . S
H1235 C1232 0.999 . S
H1236 C1217 0.913 . S
H1237 C1255 0.951 . S
H1238 C1257 0.951 . S
H1239 C1259 0.931 1_554 S
H1240 C1260 0.950 . S
H1241 C1262 0.950 1_554 S
H1242 C1265 0.950 . S
H1243 C1266 0.950 . S
H1244 C1268 0.950 . S
H1245 C1269 0.950 . S
H1246 C1270 0.951 . S
H1247 C1272 0.951 . S
H1248 C1274 0.950 . S
H1249 C1275 0.950 . S
H1250 C1277 0.950 . S
H1251 C1280 0.950 . S
H1252 C1281 0.950 . S
H1253 C1283 0.950 . S
H1254 C1284 0.950 . S
C1255 H1237 0.951 . S
C1255 C1256 1.366 . S
C1255 C1257 1.388 . S
C1256 C1255 1.366 . S
C1256 C1260 1.385 . S
C1257 H1238 0.951 . S
C1257 C1255 1.388 . S
C1257 C1258 1.366 . S
C1258 C1257 1.366 . S
C1258 C1259 1.414 . S
C1258 C1261 1.499 . S
C1259 H1239 0.931 1_556 S
C1259 C1258 1.414 . S
C1259 C1260 1.374 . S
C1260 H1240 0.950 . S
C1260 C1256 1.385 . S
C1260 C1259 1.374 . S
C1261 C1258 1.499 . S
C1261 C1262 1.373 . S
C1261 C1263 1.389 . S
C1262 H1241 0.950 1_556 S
C1262 C1261 1.373 . S
C1262 C1278 1.377 1_556 S
C1263 C1261 1.389 . S
C1263 C1264 1.524 . S
C1263 C1277 1.377 . S
C1264 C1263 1.524 . S
C1264 C1265 1.397 . S
C1264 C1269 1.363 . S
C1265 H1242 0.950 . S
C1265 C1264 1.397 . S
C1265 C1266 1.334 . S
C1266 H1243 0.950 . S
C1266 C1265 1.334 . S
C1266 C1267 1.287 . S
C1267 C1266 1.287 . S
C1267 C1268 1.524 . S
C1267 H1286 0.913 . S
C1268 H1244 0.950 . S
C1268 C1267 1.524 . S
C1268 C1269 1.415 . S
C1269 H1245 0.950 . S
C1269 C1264 1.363 . S
C1269 C1268 1.415 . S
C1270 H1246 0.951 . S
C1270 C1271 1.366 1_554 S
C1270 C1272 1.388 . S
C1271 C1270 1.366 1_556 S
C1271 C1275 1.385 . S
C1272 H1247 0.951 . S
C1272 C1270 1.388 . S
C1272 C1273 1.366 1_554 S
C1273 C1272 1.366 1_556 S
C1273 C1274 1.414 . S
C1273 C1276 1.499 . S
C1274 H1248 0.950 . S
C1274 C1273 1.414 . S
C1274 C1275 1.374 . S
C1275 H1249 0.950 . S
C1275 C1271 1.385 . S
C1275 C1274 1.374 . S
C1276 C1273 1.499 . S
C1276 C1277 1.373 . S
C1276 C1278 1.389 1_556 S
C1277 H1250 0.950 . S
C1277 C1263 1.377 . S
C1277 C1276 1.373 . S
C1278 C1262 1.377 1_554 S
C1278 C1276 1.389 1_554 S
C1278 C1279 1.524 . S
C1279 C1278 1.524 . S
C1279 C1280 1.397 . S
C1279 C1284 1.363 . S
C1280 H1251 0.950 . S
C1280 C1279 1.397 . S
C1280 C1281 1.334 . S
C1281 H1252 0.950 . S
C1281 C1280 1.334 . S
C1281 C1282 1.287 . S
C1282 C1281 1.287 . S
C1282 C1283 1.524 . S
C1282 H1285 0.999 . S
C1283 H1253 0.950 . S
C1283 C1282 1.524 . S
C1283 C1284 1.415 . S
C1284 H1254 0.950 . S
C1284 C1279 1.363 . S
C1284 C1283 1.415 . S
H1285 C1282 0.999 . S
H1286 C1267 0.913 . S
H1287 C1305 0.951 . S
H1288 C1307 0.951 . S
H1289 C1309 0.950 . S
H1290 C1310 0.950 . S
H1291 C1312 0.950 . S
H1292 C1315 0.950 . S
H1293 C1316 0.950 . S
H1294 C1318 0.950 . S
H1295 C1319 0.950 . S
H1296 C1320 0.951 1_556 S
H1297 C1322 0.915 1_556 S
H1298 C1324 0.950 . S
H1299 C1325 0.950 . S
H1300 C1327 0.950 . S
H1301 C1330 0.950 . S
H1302 C1331 0.950 . S
H1303 C1333 0.950 . S
H1304 C1334 0.950 . S
C1305 H1287 0.951 . S
C1305 C1306 1.366 . S
C1305 C1307 1.388 . S
C1306 C1305 1.366 . S
C1306 C1310 1.385 . S
C1307 H1288 0.951 . S
C1307 C1305 1.388 . S
C1307 C1308 1.366 . S
C1308 C1307 1.366 . S
C1308 C1309 1.414 . S
C1308 C1311 1.499 . S
C1309 H1289 0.950 . S
C1309 C1308 1.414 . S
C1309 C1310 1.374 . S
C1310 H1290 0.950 . S
C1310 C1306 1.385 . S
C1310 C1309 1.374 . S
C1311 C1308 1.499 . S
C1311 C1312 1.373 . S
C1311 C1313 1.389 . S
C1312 H1291 0.950 . S
C1312 C1311 1.373 . S
C1312 C1328 1.377 . S
C1313 C1311 1.389 . S
C1313 C1314 1.524 . S
C1313 C1327 1.377 . S
C1314 C1313 1.524 . S
C1314 C1315 1.397 . S
C1314 C1319 1.363 . S
C1315 H1292 0.950 . S
C1315 C1314 1.397 . S
C1315 C1316 1.334 . S
C1316 H1293 0.950 . S
C1316 C1315 1.334 . S
C1316 C1317 1.287 . S
C1317 C1316 1.287 . S
C1317 C1318 1.524 . S
C1317 H1336 0.913 . S
C1318 H1294 0.950 . S
C1318 C1317 1.524 . S
C1318 C1319 1.415 . S
C1319 H1295 0.950 . S
C1319 C1314 1.363 . S
C1319 C1318 1.415 . S
C1320 H1296 0.951 1_554 S
C1320 C1321 1.366 . S
C1320 C1322 1.388 . S
C1321 C1320 1.366 . S
C1321 C1325 1.385 . S
C1322 H1297 0.915 1_554 S
C1322 C1320 1.388 . S
C1322 C1323 1.366 . S
C1323 C1322 1.366 . S
C1323 C1324 1.414 . S
C1323 C1326 1.499 . S
C1324 H1298 0.950 . S
C1324 C1323 1.414 . S
C1324 C1325 1.374 . S
C1325 H1299 0.950 . S
C1325 C1321 1.385 . S
C1325 C1324 1.374 . S
C1326 C1323 1.499 . S
C1326 C1327 1.373 . S
C1326 C1328 1.389 . S
C1327 H1300 0.950 . S
C1327 C1313 1.377 . S
C1327 C1326 1.373 . S
C1328 C1312 1.377 . S
C1328 C1326 1.389 . S
C1328 C1329 1.524 . S
C1329 C1328 1.524 . S
C1329 C1330 1.397 . S
C1329 C1334 1.363 . S
C1330 H1301 0.950 . S
C1330 C1329 1.397 . S
C1330 C1331 1.334 . S
C1331 H1302 0.950 . S
C1331 C1330 1.334 . S
C1331 C1332 1.287 . S
C1332 C1331 1.287 . S
C1332 C1333 1.524 . S
C1332 H1335 0.999 . S
C1333 H1303 0.950 . S
C1333 C1332 1.524 . S
C1333 C1334 1.415 . S
C1334 H1304 0.950 . S
C1334 C1329 1.363 . S
C1334 C1333 1.415 . S
H1335 C1332 0.999 . S
H1336 C1317 0.913 . S
H1337 C1355 0.951 . S
H1338 C1357 0.951 . S
H1339 C1359 0.950 . S
H1340 C1360 0.950 . S
H1341 C1362 0.950 . S
H1342 C1365 0.950 . S
H1343 C1366 0.950 . S
H1344 C1368 0.950 . S
H1345 C1369 0.950 . S
H1346 C1370 0.951 . S
H1347 C1372 0.951 . S
H1348 C1374 0.950 . S
H1349 C1375 0.950 . S
H1350 C1377 0.950 . S
H1351 C1380 0.950 . S
H1352 C1381 0.950 . S
H1353 C1383 0.950 . S
H1354 C1384 0.931 1_554 S
C1355 H1337 0.951 . S
C1355 C1356 1.366 . S
C1355 C1357 1.388 . S
C1356 C1355 1.366 . S
C1356 C1360 1.385 . S
C1357 H1338 0.951 . S
C1357 C1355 1.388 . S
C1357 C1358 1.366 . S
C1358 C1357 1.366 . S
C1358 C1359 1.414 . S
C1358 C1361 1.499 . S
C1359 H1339 0.950 . S
C1359 C1358 1.414 . S
C1359 C1360 1.374 . S
C1360 H1340 0.950 . S
C1360 C1356 1.385 . S
C1360 C1359 1.374 . S
C1361 C1358 1.499 . S
C1361 C1362 1.373 . S
C1361 C1363 1.389 . S
C1362 H1341 0.950 . S
C1362 C1361 1.373 . S
C1362 C1378 1.377 . S
C1363 C1361 1.389 . S
C1363 C1364 1.524 . S
C1363 C1377 1.377 . S
C1364 C1363 1.524 . S
C1364 C1365 1.397 . S
C1364 C1369 1.363 . S
C1365 H1342 0.950 . S
C1365 C1364 1.397 . S
C1365 C1366 1.334 . S
C1366 H1343 0.950 . S
C1366 C1365 1.334 . S
C1366 C1367 1.287 . S
C1367 C1366 1.287 . S
C1367 C1368 1.524 . S
C1367 H1386 0.913 . S
C1368 H1344 0.950 . S
C1368 C1367 1.524 . S
C1368 C1369 1.415 . S
C1369 H1345 0.950 . S
C1369 C1364 1.363 . S
C1369 C1368 1.415 . S
C1370 H1346 0.951 . S
C1370 C1371 1.366 . S
C1370 C1372 1.388 . S
C1371 C1370 1.366 . S
C1371 C1375 1.385 . S
C1372 H1347 0.951 . S
C1372 C1370 1.388 . S
C1372 C1373 1.366 . S
C1373 C1372 1.366 . S
C1373 C1374 1.414 . S
C1373 C1376 1.499 . S
C1374 H1348 0.950 . S
C1374 C1373 1.414 . S
C1374 C1375 1.374 . S
C1375 H1349 0.950 . S
C1375 C1371 1.385 . S
C1375 C1374 1.374 . S
C1376 C1373 1.499 . S
C1376 C1377 1.373 . S
C1376 C1378 1.389 . S
C1377 H1350 0.950 . S
C1377 C1363 1.377 . S
C1377 C1376 1.373 . S
C1378 C1362 1.377 . S
C1378 C1376 1.389 . S
C1378 C1379 1.508 1_554 S
C1379 C1378 1.508 1_556 S
C1379 C1380 1.414 . S
C1379 C1384 1.363 . S
C1380 H1351 0.950 . S
C1380 C1379 1.414 . S
C1380 C1381 1.334 . S
C1381 H1352 0.950 . S
C1381 C1380 1.334 . S
C1381 C1382 1.287 . S
C1382 C1381 1.287 . S
C1382 C1383 1.524 . S
C1382 H1385 0.999 . S
C1383 H1353 0.950 . S
C1383 C1382 1.524 . S
C1383 C1384 1.435 . S
C1384 H1354 0.931 1_556 S
C1384 C1379 1.363 . S
C1384 C1383 1.435 . S
H1385 C1382 0.999 . S
H1386 C1367 0.913 . S
H1387 C1405 0.951 . S
H1388 C1407 0.951 . S
H1389 C1409 0.950 . S
H1390 C1410 0.950 . S
H1391 C1412 0.950 . S
H1392 C1415 0.950 . S
H1393 C1416 0.950 . S
H1394 C1418 0.950 . S
H1395 C1419 0.950 . S
H1396 C1420 0.951 . S
H1397 C1422 0.951 . S
H1398 C1424 0.950 . S
H1399 C1425 0.950 . S
H1400 C1427 0.950 . S
H1401 C1430 0.950 . S
H1402 C1431 0.950 . S
H1403 C1433 0.950 . S
H1404 C1434 0.950 . S
C1405 H1387 0.951 . S
C1405 C1406 1.366 . S
C1405 C1407 1.388 . S
C1406 C1405 1.366 . S
C1406 C1410 1.385 . S
C1407 H1388 0.951 . S
C1407 C1405 1.388 . S
C1407 C1408 1.366 . S
C1408 C1407 1.366 . S
C1408 C1409 1.414 . S
C1408 C1411 1.499 . S
C1409 H1389 0.950 . S
C1409 C1408 1.414 . S
C1409 C1410 1.374 . S
C1410 H1390 0.950 . S
C1410 C1406 1.385 . S
C1410 C1409 1.374 . S
C1411 C1408 1.499 . S
C1411 C1412 1.373 . S
C1411 C1413 1.389 . S
C1412 H1391 0.950 . S
C1412 C1411 1.373 . S
C1412 C1428 1.377 . S
C1413 C1411 1.389 . S
C1413 C1414 1.524 . S
C1413 C1427 1.377 . S
C1414 C1413 1.524 . S
C1414 C1415 1.397 . S
C1414 C1419 1.363 . S
C1415 H1392 0.950 . S
C1415 C1414 1.397 . S
C1415 C1416 1.334 . S
C1416 H1393 0.950 . S
C1416 C1415 1.334 . S
C1416 C1417 1.287 . S
C1417 C1416 1.287 . S
C1417 C1418 1.524 . S
C1417 H1436 0.913 . S
C1418 H1394 0.950 . S
C1418 C1417 1.524 . S
C1418 C1419 1.415 . S
C1419 H1395 0.950 . S
C1419 C1414 1.363 . S
C1419 C1418 1.415 . S
C1420 H1396 0.951 . S
C1420 C1421 1.366 . S
C1420 C1422 1.388 . S
C1421 C1420 1.366 . S
C1421 C1425 1.385 . S
C1422 H1397 0.951 . S
C1422 C1420 1.388 . S
C1422 C1423 1.366 . S
C1423 C1422 1.366 . S
C1423 C1424 1.414 . S
C1423 C1426 1.499 . S
C1424 H1398 0.950 . S
C1424 C1423 1.414 . S
C1424 C1425 1.374 . S
C1425 H1399 0.950 . S
C1425 C1421 1.385 . S
C1425 C1424 1.374 . S
C1426 C1423 1.499 . S
C1426 C1427 1.373 . S
C1426 C1428 1.389 . S
C1427 H1400 0.950 . S
C1427 C1413 1.377 . S
C1427 C1426 1.373 . S
C1428 C1412 1.377 . S
C1428 C1426 1.389 . S
C1428 C1429 1.527 . S
C1429 C1428 1.527 . S
C1429 C1430 1.394 1_554 S
C1429 C1434 1.363 . S
C1430 H1401 0.950 . S
C1430 C1429 1.394 1_556 S
C1430 C1431 1.334 . S
C1431 H1402 0.950 . S
C1431 C1430 1.334 . S
C1431 C1432 1.287 . S
C1432 C1431 1.287 . S
C1432 C1433 1.524 . S
C1432 H1435 0.999 . S
C1433 H1403 0.950 . S
C1433 C1432 1.524 . S
C1433 C1434 1.415 1_556 S
C1434 H1404 0.950 . S
C1434 C1429 1.363 . S
C1434 C1433 1.415 1_554 S
H1435 C1432 0.999 . S
H1436 C1417 0.913 . S
H1437 C1455 0.951 . S
H1438 C1457 0.951 . S
H1439 C1459 0.950 . S
H1440 C1460 0.950 . S
H1441 C1462 0.950 . S
H1442 C1465 0.950 . S
H1443 C1466 0.950 . S
H1444 C1468 0.950 . S
H1445 C1469 0.950 . S
H1446 C1470 0.951 . S
H1447 C1472 0.951 . S
H1448 C1474 0.950 . S
H1449 C1475 0.950 . S
H1450 C1477 0.950 . S
H1451 C1480 0.950 . S
H1452 C1481 0.950 . S
H1453 C1483 0.950 . S
H1454 C1484 0.950 . S
C1455 H1437 0.951 . S
C1455 C1456 1.366 . S
C1455 C1457 1.388 . S
C1456 C1455 1.366 . S
C1456 C1460 1.385 . S
C1457 H1438 0.951 . S
C1457 C1455 1.388 . S
C1457 C1458 1.366 . S
C1458 C1457 1.366 . S
C1458 C1459 1.414 . S
C1458 C1461 1.499 1_655 S
C1459 H1439 0.950 . S
C1459 C1458 1.414 . S
C1459 C1460 1.374 . S
C1460 H1440 0.950 . S
C1460 C1456 1.385 . S
C1460 C1459 1.374 . S
C1461 C1458 1.499 1_455 S
C1461 C1462 1.373 . S
C1461 C1463 1.389 . S
C1462 H1441 0.950 . S
C1462 C1461 1.373 . S
C1462 C1478 1.377 . S
C1463 C1461 1.389 . S
C1463 C1464 1.524 . S
C1463 C1477 1.377 . S
C1464 C1463 1.524 . S
C1464 C1465 1.397 . S
C1464 C1469 1.363 . S
C1465 H1442 0.950 . S
C1465 C1464 1.397 . S
C1465 C1466 1.334 . S
C1466 H1443 0.950 . S
C1466 C1465 1.334 . S
C1466 C1467 1.287 . S
C1467 C1466 1.287 . S
C1467 C1468 1.524 . S
C1467 H1486 0.913 . S
C1468 H1444 0.950 . S
C1468 C1467 1.524 . S
C1468 C1469 1.415 . S
C1469 H1445 0.950 . S
C1469 C1464 1.363 . S
C1469 C1468 1.415 . S
C1470 H1446 0.951 . S
C1470 C1471 1.366 . S
C1470 C1472 1.388 . S
C1471 C1470 1.366 . S
C1471 C1475 1.385 . S
C1472 H1447 0.951 . S
C1472 C1470 1.388 . S
C1472 C1473 1.366 . S
C1473 C1472 1.366 . S
C1473 C1474 1.414 . S
C1473 C1476 1.499 . S
C1474 H1448 0.950 . S
C1474 C1473 1.414 . S
C1474 C1475 1.374 . S
C1475 H1449 0.950 . S
C1475 C1471 1.385 . S
C1475 C1474 1.374 . S
C1476 C1473 1.499 . S
C1476 C1477 1.373 . S
C1476 C1478 1.389 . S
C1477 H1450 0.950 . S
C1477 C1463 1.377 . S
C1477 C1476 1.373 . S
C1478 C1462 1.377 . S
C1478 C1476 1.389 . S
C1478 C1479 1.524 . S
C1479 C1478 1.524 . S
C1479 C1480 1.397 . S
C1479 C1484 1.363 . S
C1480 H1451 0.950 . S
C1480 C1479 1.397 . S
C1480 C1481 1.334 . S
C1481 H1452 0.950 . S
C1481 C1480 1.334 . S
C1481 C1482 1.287 . S
C1482 C1481 1.287 . S
C1482 C1483 1.524 . S
C1482 H1485 0.999 . S
C1483 H1453 0.950 . S
C1483 C1482 1.524 . S
C1483 C1484 1.415 . S
C1484 H1454 0.950 . S
C1484 C1479 1.363 . S
C1484 C1483 1.415 . S
H1485 C1482 0.999 . S
H1486 C1467 0.913 . S
H1487 C1505 0.951 . S
H1488 C1507 0.951 . S
H1489 C1509 0.950 . S
H1490 C1510 0.950 . S
H1491 C1512 0.950 . S
H1492 C1515 0.950 . S
H1493 C1516 0.950 . S
H1494 C1518 0.950 . S
H1495 C1519 0.950 . S
H1496 C1520 0.951 . S
H1497 C1522 0.951 . S
H1498 C1524 0.950 . S
H1499 C1525 0.950 . S
H1500 C1527 0.950 . S
H1501 C1530 0.950 . S
H1502 C1531 0.950 . S
H1503 C1533 0.950 . S
H1504 C1534 0.950 . S
C1505 H1487 0.951 . S
C1505 C1506 1.366 . S
C1505 C1507 1.388 . S
C1506 C1505 1.366 . S
C1506 C1510 1.385 . S
C1507 H1488 0.951 . S
C1507 C1505 1.388 . S
C1507 C1508 1.366 . S
C1508 C1507 1.366 . S
C1508 C1509 1.414 . S
C1508 C1511 1.499 . S
C1509 H1489 0.950 . S
C1509 C1508 1.414 . S
C1509 C1510 1.374 . S
C1510 H1490 0.950 . S
C1510 C1506 1.385 . S
C1510 C1509 1.374 . S
C1511 C1508 1.499 . S
C1511 C1512 1.373 . S
C1511 C1513 1.389 . S
C1512 H1491 0.950 . S
C1512 C1511 1.373 . S
C1512 C1528 1.377 . S
C1513 C1511 1.389 . S
C1513 C1514 1.524 . S
C1513 C1527 1.377 . S
C1514 C1513 1.524 . S
C1514 C1515 1.397 . S
C1514 C1519 1.363 . S
C1515 H1492 0.950 . S
C1515 C1514 1.397 . S
C1515 C1516 1.334 . S
C1516 H1493 0.950 . S
C1516 C1515 1.334 . S
C1516 C1517 1.287 . S
C1517 C1516 1.287 . S
C1517 C1518 1.524 . S
C1517 H1536 0.913 . S
C1518 H1494 0.950 . S
C1518 C1517 1.524 . S
C1518 C1519 1.415 . S
C1519 H1495 0.950 . S
C1519 C1514 1.363 . S
C1519 C1518 1.415 . S
C1520 H1496 0.951 . S
C1520 C1521 1.366 . S
C1520 C1522 1.388 . S
C1521 C1520 1.366 . S
C1521 C1525 1.385 . S
C1522 H1497 0.951 . S
C1522 C1520 1.388 . S
C1522 C1523 1.366 . S
C1523 C1522 1.366 . S
C1523 C1524 1.414 . S
C1523 C1526 1.499 . S
C1524 H1498 0.950 . S
C1524 C1523 1.414 . S
C1524 C1525 1.374 . S
C1525 H1499 0.950 . S
C1525 C1521 1.385 . S
C1525 C1524 1.374 . S
C1526 C1523 1.499 . S
C1526 C1527 1.373 . S
C1526 C1528 1.389 . S
C1527 H1500 0.950 . S
C1527 C1513 1.377 . S
C1527 C1526 1.373 . S
C1528 C1512 1.377 . S
C1528 C1526 1.389 . S
C1528 C1529 1.524 . S
C1529 C1528 1.524 . S
C1529 C1530 1.397 . S
C1529 C1534 1.363 . S
C1530 H1501 0.950 . S
C1530 C1529 1.397 . S
C1530 C1531 1.334 . S
C1531 H1502 0.950 . S
C1531 C1530 1.334 . S
C1531 C1532 1.287 . S
C1532 C1531 1.287 . S
C1532 C1533 1.524 . S
C1532 H1535 0.999 . S
C1533 H1503 0.950 . S
C1533 C1532 1.524 . S
C1533 C1534 1.415 . S
C1534 H1504 0.950 . S
C1534 C1529 1.363 . S
C1534 C1533 1.415 . S
H1535 C1532 0.999 . S
H1536 C1517 0.913 . S
H1537 C1555 0.951 . S
H1538 C1557 0.951 . S
H1539 C1559 0.950 . S
H1540 C1560 0.950 . S
H1541 C1562 0.950 . S
H1542 C1565 0.950 . S
H1543 C1566 0.918 1_545 S
H1544 C1568 0.950 . S
H1545 C1569 0.950 . S
H1546 C1570 0.951 . S
H1547 C1572 0.951 . S
H1548 C1574 0.950 . S
H1549 C1575 0.950 . S
H1550 C1577 0.950 . S
H1551 C1580 0.950 . S
H1552 C1581 0.950 . S
H1553 C1583 0.950 . S
H1554 C1584 0.950 . S
C1555 H1537 0.951 . S
C1555 C1556 1.366 . S
C1555 C1557 1.388 . S
C1556 C1555 1.366 . S
C1556 C1560 1.385 . S
C1557 H1538 0.951 . S
C1557 C1555 1.388 . S
C1557 C1558 1.366 . S
C1558 C1557 1.366 . S
C1558 C1559 1.414 . S
C1558 C1561 1.499 1_545 S
C1559 H1539 0.950 . S
C1559 C1558 1.414 . S
C1559 C1560 1.374 . S
C1560 H1540 0.950 . S
C1560 C1556 1.385 . S
C1560 C1559 1.374 . S
C1561 C1558 1.499 1_565 S
C1561 C1562 1.373 . S
C1561 C1563 1.389 . S
C1562 H1541 0.950 . S
C1562 C1561 1.373 . S
C1562 C1578 1.377 . S
C1563 C1561 1.389 . S
C1563 C1564 1.524 . S
C1563 C1577 1.377 . S
C1564 C1563 1.524 . S
C1564 C1565 1.397 . S
C1564 C1569 1.363 . S
C1565 H1542 0.950 . S
C1565 C1564 1.397 . S
C1565 C1566 1.334 . S
C1566 H1543 0.918 1_565 S
C1566 C1565 1.334 . S
C1566 C1567 1.287 . S
C1567 C1566 1.287 . S
C1567 C1568 1.524 . S
C1567 H1586 0.913 . S
C1568 H1544 0.950 . S
C1568 C1567 1.524 . S
C1568 C1569 1.415 . S
C1569 H1545 0.950 . S
C1569 C1564 1.363 . S
C1569 C1568 1.415 . S
C1570 H1546 0.951 . S
C1570 C1571 1.366 . S
C1570 C1572 1.388 . S
C1571 C1570 1.366 . S
C1571 C1575 1.385 . S
C1572 H1547 0.951 . S
C1572 C1570 1.388 . S
C1572 C1573 1.366 . S
C1573 C1572 1.366 . S
C1573 C1574 1.414 . S
C1573 C1576 1.499 . S
C1574 H1548 0.950 . S
C1574 C1573 1.414 . S
C1574 C1575 1.374 . S
C1575 H1549 0.950 . S
C1575 C1571 1.385 . S
C1575 C1574 1.374 . S
C1576 C1573 1.499 . S
C1576 C1577 1.373 . S
C1576 C1578 1.389 . S
C1577 H1550 0.950 . S
C1577 C1563 1.377 . S
C1577 C1576 1.373 . S
C1578 C1562 1.377 . S
C1578 C1576 1.389 . S
C1578 C1579 1.524 . S
C1579 C1578 1.524 . S
C1579 C1580 1.397 . S
C1579 C1584 1.363 . S
C1580 H1551 0.950 . S
C1580 C1579 1.397 . S
C1580 C1581 1.334 . S
C1581 H1552 0.950 . S
C1581 C1580 1.334 . S
C1581 C1582 1.287 . S
C1582 C1581 1.287 . S
C1582 C1583 1.524 . S
C1582 H1585 0.999 . S
C1583 H1553 0.950 . S
C1583 C1582 1.524 . S
C1583 C1584 1.415 . S
C1584 H1554 0.950 . S
C1584 C1579 1.363 . S
C1584 C1583 1.415 . S
H1585 C1582 0.999 . S
H1586 C1567 0.913 . S
H1587 C1605 0.951 . S
H1588 C1607 0.951 . S
H1589 C1609 0.950 . S
H1590 C1610 0.950 . S
H1591 C1612 0.950 . S
H1592 C1615 0.950 . S
H1593 C1616 0.950 . S
H1594 C1618 0.950 . S
H1595 C1619 0.950 . S
H1596 C1620 0.951 . S
H1597 C1622 0.951 . S
H1598 C1624 0.950 . S
H1599 C1625 0.950 . S
H1600 C1627 0.950 . S
H1601 C1630 0.950 . S
H1602 C1631 0.950 . S
H1603 C1633 0.950 . S
H1604 C1634 0.950 . S
C1605 H1587 0.951 . S
C1605 C1606 1.366 . S
C1605 C1607 1.388 . S
C1606 C1605 1.366 . S
C1606 C1610 1.385 . S
C1607 H1588 0.951 . S
C1607 C1605 1.388 . S
C1607 C1608 1.366 . S
C1608 C1607 1.366 . S
C1608 C1609 1.414 . S
C1608 C1611 1.499 . S
C1609 H1589 0.950 . S
C1609 C1608 1.414 . S
C1609 C1610 1.374 . S
C1610 H1590 0.950 . S
C1610 C1606 1.385 . S
C1610 C1609 1.374 . S
C1611 C1608 1.499 . S
C1611 C1612 1.373 . S
C1611 C1613 1.389 . S
C1612 H1591 0.950 . S
C1612 C1611 1.373 . S
C1612 C1628 1.377 . S
C1613 C1611 1.389 . S
C1613 C1614 1.524 . S
C1613 C1627 1.377 . S
C1614 C1613 1.524 . S
C1614 C1615 1.397 . S
C1614 C1619 1.363 . S
C1615 H1592 0.950 . S
C1615 C1614 1.397 . S
C1615 C1616 1.334 . S
C1616 H1593 0.950 . S
C1616 C1615 1.334 . S
C1616 C1617 1.287 . S
C1617 C1616 1.287 . S
C1617 C1618 1.524 . S
C1617 H1636 0.913 . S
C1618 H1594 0.950 . S
C1618 C1617 1.524 . S
C1618 C1619 1.415 . S
C1619 H1595 0.950 . S
C1619 C1614 1.363 . S
C1619 C1618 1.415 . S
C1620 H1596 0.951 . S
C1620 C1621 1.366 . S
C1620 C1622 1.388 . S
C1621 C1620 1.366 . S
C1621 C1625 1.385 . S
C1622 H1597 0.951 . S
C1622 C1620 1.388 . S
C1622 C1623 1.366 . S
C1623 C1622 1.366 . S
C1623 C1624 1.414 . S
C1623 C1626 1.499 . S
C1624 H1598 0.950 . S
C1624 C1623 1.414 . S
C1624 C1625 1.374 . S
C1625 H1599 0.950 . S
C1625 C1621 1.385 . S
C1625 C1624 1.374 . S
C1626 C1623 1.499 . S
C1626 C1627 1.373 . S
C1626 C1628 1.389 . S
C1627 H1600 0.950 . S
C1627 C1613 1.377 . S
C1627 C1626 1.373 . S
C1628 C1612 1.377 . S
C1628 C1626 1.389 . S
C1628 C1629 1.524 . S
C1629 C1628 1.524 . S
C1629 C1630 1.397 . S
C1629 C1634 1.363 . S
C1630 H1601 0.950 . S
C1630 C1629 1.397 . S
C1630 C1631 1.334 . S
C1631 H1602 0.950 . S
C1631 C1630 1.334 . S
C1631 C1632 1.287 . S
C1632 C1631 1.287 . S
C1632 C1633 1.524 . S
C1632 H1635 0.999 . S
C1633 H1603 0.950 . S
C1633 C1632 1.524 . S
C1633 C1634 1.415 . S
C1634 H1604 0.950 . S
C1634 C1629 1.363 . S
C1634 C1633 1.415 . S
H1635 C1632 0.999 . S
H1636 C1617 0.913 . S
H1637 C1655 0.951 . S
H1638 C1657 0.951 . S
H1639 C1659 0.950 . S
H1640 C1660 0.950 . S
H1641 C1662 0.950 . S
H1642 C1665 0.950 . S
H1643 C1666 0.950 . S
H1644 C1668 0.950 . S
H1645 C1669 0.950 . S
H1646 C1670 0.951 . S
H1647 C1672 0.951 . S
H1648 C1674 0.950 . S
H1649 C1675 0.950 . S
H1650 C1677 0.950 . S
H1651 C1680 0.950 . S
H1652 C1681 0.950 . S
H1653 C1683 0.950 . S
H1654 C1684 0.950 . S
C1655 H1637 0.951 . S
C1655 C1656 1.366 . S
C1655 C1657 1.388 . S
C1656 C1655 1.366 . S
C1656 C1660 1.385 . S
C1657 H1638 0.951 . S
C1657 C1655 1.388 . S
C1657 C1658 1.366 . S
C1658 C1657 1.366 . S
C1658 C1659 1.414 . S
C1658 C1661 1.499 . S
C1659 H1639 0.950 . S
C1659 C1658 1.414 . S
C1659 C1660 1.374 . S
C1660 H1640 0.950 . S
C1660 C1656 1.385 . S
C1660 C1659 1.374 . S
C1661 C1658 1.499 . S
C1661 C1662 1.373 . S
C1661 C1663 1.389 . S
C1662 H1641 0.950 . S
C1662 C1661 1.373 . S
C1662 C1678 1.377 . S
C1663 C1661 1.389 . S
C1663 C1664 1.524 . S
C1663 C1677 1.377 . S
C1664 C1663 1.524 . S
C1664 C1665 1.397 . S
C1664 C1669 1.363 . S
C1665 H1642 0.950 . S
C1665 C1664 1.397 . S
C1665 C1666 1.334 . S
C1666 H1643 0.950 . S
C1666 C1665 1.334 . S
C1666 C1667 1.287 . S
C1667 C1666 1.287 . S
C1667 C1668 1.524 . S
C1667 H1686 0.913 . S
C1668 H1644 0.950 . S
C1668 C1667 1.524 . S
C1668 C1669 1.415 . S
C1669 H1645 0.950 . S
C1669 C1664 1.363 . S
C1669 C1668 1.415 . S
C1670 H1646 0.951 . S
C1670 C1671 1.366 . S
C1670 C1672 1.388 . S
C1671 C1670 1.366 . S
C1671 C1675 1.385 . S
C1672 H1647 0.951 . S
C1672 C1670 1.388 . S
C1672 C1673 1.366 . S
C1673 C1672 1.366 . S
C1673 C1674 1.414 . S
C1673 C1676 1.499 . S
C1674 H1648 0.950 . S
C1674 C1673 1.414 . S
C1674 C1675 1.374 . S
C1675 H1649 0.950 . S
C1675 C1671 1.385 . S
C1675 C1674 1.374 . S
C1676 C1673 1.499 . S
C1676 C1677 1.373 . S
C1676 C1678 1.389 . S
C1677 H1650 0.950 . S
C1677 C1663 1.377 . S
C1677 C1676 1.373 . S
C1678 C1662 1.377 . S
C1678 C1676 1.389 . S
C1678 C1679 1.524 . S
C1679 C1678 1.524 . S
C1679 C1680 1.397 . S
C1679 C1684 1.363 . S
C1680 H1651 0.950 . S
C1680 C1679 1.397 . S
C1680 C1681 1.334 . S
C1681 H1652 0.950 . S
C1681 C1680 1.334 . S
C1681 C1682 1.287 . S
C1682 C1681 1.287 . S
C1682 C1683 1.524 . S
C1682 H1685 0.999 . S
C1683 H1653 0.950 . S
C1683 C1682 1.524 . S
C1683 C1684 1.415 . S
C1684 H1654 0.950 . S
C1684 C1679 1.363 . S
C1684 C1683 1.415 . S
H1685 C1682 0.999 . S
H1686 C1667 0.913 . S
H1687 C1705 0.951 . S
H1688 C1707 0.951 . S
H1689 C1709 0.950 . S
H1690 C1710 0.950 . S
H1691 C1712 0.950 . S
H1692 C1715 0.950 . S
H1693 C1716 0.950 . S
H1694 C1718 0.950 . S
H1695 C1719 0.950 . S
H1696 C1720 0.951 . S
H1697 C1722 0.951 . S
H1698 C1724 0.950 . S
H1699 C1725 0.950 . S
H1700 C1727 0.950 . S
H1701 C1730 0.950 . S
H1702 C1731 0.950 . S
H1703 C1733 0.950 . S
H1704 C1734 0.950 . S
C1705 H1687 0.951 . S
C1705 C1706 1.366 . S
C1705 C1707 1.388 . S
C1706 C1705 1.366 . S
C1706 C1710 1.385 . S
C1707 H1688 0.951 . S
C1707 C1705 1.388 . S
C1707 C1708 1.366 . S
C1708 C1707 1.366 . S
C1708 C1709 1.414 . S
C1708 C1711 1.499 . S
C1709 H1689 0.950 . S
C1709 C1708 1.414 . S
C1709 C1710 1.374 . S
C1710 H1690 0.950 . S
C1710 C1706 1.385 . S
C1710 C1709 1.374 . S
C1711 C1708 1.499 . S
C1711 C1712 1.373 . S
C1711 C1713 1.389 . S
C1712 H1691 0.950 . S
C1712 C1711 1.373 . S
C1712 C1728 1.377 . S
C1713 C1711 1.389 . S
C1713 C1714 1.524 . S
C1713 C1727 1.377 . S
C1714 C1713 1.524 . S
C1714 C1715 1.397 . S
C1714 C1719 1.363 . S
C1715 H1692 0.950 . S
C1715 C1714 1.397 . S
C1715 C1716 1.334 . S
C1716 H1693 0.950 . S
C1716 C1715 1.334 . S
C1716 C1717 1.287 . S
C1717 C1716 1.287 . S
C1717 C1718 1.524 . S
C1717 H1736 0.913 . S
C1718 H1694 0.950 . S
C1718 C1717 1.524 . S
C1718 C1719 1.415 . S
C1719 H1695 0.950 . S
C1719 C1714 1.363 . S
C1719 C1718 1.415 . S
C1720 H1696 0.951 . S
C1720 C1721 1.366 . S
C1720 C1722 1.388 . S
C1721 C1720 1.366 . S
C1721 C1725 1.385 . S
C1722 H1697 0.951 . S
C1722 C1720 1.388 . S
C1722 C1723 1.366 . S
C1723 C1722 1.366 . S
C1723 C1724 1.414 . S
C1723 C1726 1.499 . S
C1724 H1698 0.950 . S
C1724 C1723 1.414 . S
C1724 C1725 1.374 . S
C1725 H1699 0.950 . S
C1725 C1721 1.385 . S
C1725 C1724 1.374 . S
C1726 C1723 1.499 . S
C1726 C1727 1.373 . S
C1726 C1728 1.389 . S
C1727 H1700 0.950 . S
C1727 C1713 1.377 . S
C1727 C1726 1.373 . S
C1728 C1712 1.377 . S
C1728 C1726 1.389 . S
C1728 C1729 1.524 . S
C1729 C1728 1.524 . S
C1729 C1730 1.397 . S
C1729 C1734 1.363 . S
C1730 H1701 0.950 . S
C1730 C1729 1.397 . S
C1730 C1731 1.334 . S
C1731 H1702 0.950 . S
C1731 C1730 1.334 . S
C1731 C1732 1.287 . S
C1732 C1731 1.287 . S
C1732 C1733 1.524 . S
C1732 H1735 0.999 . S
C1733 H1703 0.950 . S
C1733 C1732 1.524 . S
C1733 C1734 1.415 . S
C1734 H1704 0.950 . S
C1734 C1729 1.363 . S
C1734 C1733 1.415 . S
H1735 C1732 0.999 . S
H1736 C1717 0.913 . S
H1737 C1755 0.951 . S
H1738 C1757 0.951 . S
H1739 C1759 0.950 . S
H1740 C1760 0.950 . S
H1741 C1762 0.950 . S
H1742 C1765 0.950 . S
H1743 C1766 0.950 . S
H1744 C1768 0.950 . S
H1745 C1769 0.950 . S
H1746 C1770 0.951 . S
H1747 C1772 0.951 . S
H1748 C1774 0.950 . S
H1749 C1775 0.950 . S
H1750 C1777 0.950 . S
H1751 C1780 0.950 . S
H1752 C1781 0.950 . S
H1753 C1783 0.950 . S
H1754 C1784 0.950 . S
C1755 H1737 0.951 . S
C1755 C1756 1.366 . S
C1755 C1757 1.388 . S
C1756 C1755 1.366 . S
C1756 C1760 1.385 . S
C1757 H1738 0.951 . S
C1757 C1755 1.388 . S
C1757 C1758 1.366 . S
C1758 C1757 1.366 . S
C1758 C1759 1.414 . S
C1758 C1761 1.499 . S
C1759 H1739 0.950 . S
C1759 C1758 1.414 . S
C1759 C1760 1.374 . S
C1760 H1740 0.950 . S
C1760 C1756 1.385 . S
C1760 C1759 1.374 . S
C1761 C1758 1.499 . S
C1761 C1762 1.373 . S
C1761 C1763 1.389 . S
C1762 H1741 0.950 . S
C1762 C1761 1.373 . S
C1762 C1778 1.377 . S
C1763 C1761 1.389 . S
C1763 C1764 1.524 . S
C1763 C1777 1.377 . S
C1764 C1763 1.524 . S
C1764 C1765 1.397 . S
C1764 C1769 1.363 . S
C1765 H1742 0.950 . S
C1765 C1764 1.397 . S
C1765 C1766 1.334 . S
C1766 H1743 0.950 . S
C1766 C1765 1.334 . S
C1766 C1767 1.287 . S
C1767 C1766 1.287 . S
C1767 C1768 1.524 . S
C1767 H1786 0.913 . S
C1768 H1744 0.950 . S
C1768 C1767 1.524 . S
C1768 C1769 1.415 . S
C1769 H1745 0.950 . S
C1769 C1764 1.363 . S
C1769 C1768 1.415 . S
C1770 H1746 0.951 . S
C1770 C1771 1.366 . S
C1770 C1772 1.388 . S
C1771 C1770 1.366 . S
C1771 C1775 1.385 . S
C1772 H1747 0.951 . S
C1772 C1770 1.388 . S
C1772 C1773 1.366 . S
C1773 C1772 1.366 . S
C1773 C1774 1.414 . S
C1773 C1776 1.499 . S
C1774 H1748 0.950 . S
C1774 C1773 1.414 . S
C1774 C1775 1.374 . S
C1775 H1749 0.950 . S
C1775 C1771 1.385 . S
C1775 C1774 1.374 . S
C1776 C1773 1.499 . S
C1776 C1777 1.373 . S
C1776 C1778 1.389 . S
C1777 H1750 0.950 . S
C1777 C1763 1.377 . S
C1777 C1776 1.373 . S
C1778 C1762 1.377 . S
C1778 C1776 1.389 . S
C1778 C1779 1.524 . S
C1779 C1778 1.524 . S
C1779 C1780 1.397 . S
C1779 C1784 1.363 . S
C1780 H1751 0.950 . S
C1780 C1779 1.397 . S
C1780 C1781 1.334 . S
C1781 H1752 0.950 . S
C1781 C1780 1.334 . S
C1781 C1782 1.287 . S
C1782 C1781 1.287 . S
C1782 C1783 1.524 . S
C1782 H1785 0.999 . S
C1783 H1753 0.950 . S
C1783 C1782 1.524 . S
C1783 C1784 1.415 . S
C1784 H1754 0.950 . S
C1784 C1779 1.363 . S
C1784 C1783 1.415 . S
H1785 C1782 0.999 . S
H1786 C1767 0.913 . S
H1787 C1805 0.951 . S
H1788 C1807 0.951 . S
H1789 C1809 0.950 . S
H1790 C1810 0.950 . S
H1791 C1812 0.950 . S
H1792 C1815 0.950 . S
H1793 C1816 0.950 . S
H1794 C1818 0.950 . S
H1795 C1819 0.950 . S
H1796 C1820 0.951 . S
H1797 C1822 0.951 . S
H1798 C1824 0.950 . S
H1799 C1825 0.950 . S
H1800 C1827 0.950 . S
H1801 C1830 0.950 . S
H1802 C1831 0.950 . S
H1803 C1833 0.950 . S
H1804 C1834 0.950 . S
C1805 H1787 0.951 . S
C1805 C1806 1.366 . S
C1805 C1807 1.388 . S
C1806 C1805 1.366 . S
C1806 C1810 1.385 . S
C1807 H1788 0.951 . S
C1807 C1805 1.388 . S
C1807 C1808 1.366 . S
C1808 C1807 1.366 . S
C1808 C1809 1.414 . S
C1808 C1811 1.499 . S
C1809 H1789 0.950 . S
C1809 C1808 1.414 . S
C1809 C1810 1.374 . S
C1810 H1790 0.950 . S
C1810 C1806 1.385 . S
C1810 C1809 1.374 . S
C1811 C1808 1.499 . S
C1811 C1812 1.373 . S
C1811 C1813 1.389 . S
C1812 H1791 0.950 . S
C1812 C1811 1.373 . S
C1812 C1828 1.377 . S
C1813 C1811 1.389 . S
C1813 C1814 1.524 . S
C1813 C1827 1.377 . S
C1814 C1813 1.524 . S
C1814 C1815 1.397 . S
C1814 C1819 1.363 . S
C1815 H1792 0.950 . S
C1815 C1814 1.397 . S
C1815 C1816 1.334 . S
C1816 H1793 0.950 . S
C1816 C1815 1.334 . S
C1816 C1817 1.287 . S
C1817 C1816 1.287 . S
C1817 C1818 1.524 . S
C1817 H1836 0.913 . S
C1818 H1794 0.950 . S
C1818 C1817 1.524 . S
C1818 C1819 1.415 . S
C1819 H1795 0.950 . S
C1819 C1814 1.363 . S
C1819 C1818 1.415 . S
C1820 H1796 0.951 . S
C1820 C1821 1.366 . S
C1820 C1822 1.388 . S
C1821 C1820 1.366 . S
C1821 C1825 1.385 . S
C1822 H1797 0.951 . S
C1822 C1820 1.388 . S
C1822 C1823 1.366 . S
C1823 C1822 1.366 . S
C1823 C1824 1.414 . S
C1823 C1826 1.499 . S
C1824 H1798 0.950 . S
C1824 C1823 1.414 . S
C1824 C1825 1.374 . S
C1825 H1799 0.950 . S
C1825 C1821 1.385 . S
C1825 C1824 1.374 . S
C1826 C1823 1.499 . S
C1826 C1827 1.373 . S
C1826 C1828 1.389 . S
C1827 H1800 0.950 . S
C1827 C1813 1.377 . S
C1827 C1826 1.373 . S
C1828 C1812 1.377 . S
C1828 C1826 1.389 . S
C1828 C1829 1.524 . S
C1829 C1828 1.524 . S
C1829 C1830 1.397 . S
C1829 C1834 1.363 . S
C1830 H1801 0.950 . S
C1830 C1829 1.397 . S
C1830 C1831 1.334 . S
C1831 H1802 0.950 . S
C1831 C1830 1.334 . S
C1831 C1832 1.287 . S
C1832 C1831 1.287 . S
C1832 C1833 1.524 . S
C1832 H1835 0.999 . S
C1833 H1803 0.950 . S
C1833 C1832 1.524 . S
C1833 C1834 1.415 . S
C1834 H1804 0.950 . S
C1834 C1829 1.363 . S
C1834 C1833 1.415 . S
H1835 C1832 0.999 . S
H1836 C1817 0.913 . S
H1837 C1855 0.951 . S
H1838 C1857 0.951 . S
H1839 C1859 0.950 . S
H1840 C1860 0.950 . S
H1841 C1862 0.950 . S
H1842 C1865 0.950 . S
H1843 C1866 0.950 . S
H1844 C1868 0.950 . S
H1845 C1869 0.950 . S
H1846 C1870 0.951 . S
H1847 C1872 0.951 . S
H1848 C1874 0.950 . S
H1849 C1875 0.950 . S
H1850 C1877 0.950 . S
H1851 C1880 0.950 . S
H1852 C1881 0.950 . S
H1853 C1883 0.950 . S
H1854 C1884 0.950 . S
C1855 H1837 0.951 . S
C1855 C1856 1.366 . S
C1855 C1857 1.388 . S
C1856 C1855 1.366 . S
C1856 C1860 1.385 . S
C1857 H1838 0.951 . S
C1857 C1855 1.388 . S
C1857 C1858 1.366 . S
C1858 C1857 1.366 . S
C1858 C1859 1.414 . S
C1858 C1861 1.499 . S
C1859 H1839 0.950 . S
C1859 C1858 1.414 . S
C1859 C1860 1.374 . S
C1860 H1840 0.950 . S
C1860 C1856 1.385 . S
C1860 C1859 1.374 . S
C1861 C1858 1.499 . S
C1861 C1862 1.373 . S
C1861 C1863 1.389 . S
C1862 H1841 0.950 . S
C1862 C1861 1.373 . S
C1862 C1878 1.377 . S
C1863 C1861 1.389 . S
C1863 C1864 1.524 . S
C1863 C1877 1.377 . S
C1864 C1863 1.524 . S
C1864 C1865 1.397 . S
C1864 C1869 1.363 . S
C1865 H1842 0.950 . S
C1865 C1864 1.397 . S
C1865 C1866 1.334 . S
C1866 H1843 0.950 . S
C1866 C1865 1.334 . S
C1866 C1867 1.287 . S
C1867 C1866 1.287 . S
C1867 C1868 1.524 . S
C1867 H1886 0.913 . S
C1868 H1844 0.950 . S
C1868 C1867 1.524 . S
C1868 C1869 1.415 . S
C1869 H1845 0.950 . S
C1869 C1864 1.363 . S
C1869 C1868 1.415 . S
C1870 H1846 0.951 . S
C1870 C1871 1.366 . S
C1870 C1872 1.388 . S
C1871 C1870 1.366 . S
C1871 C1875 1.385 . S
C1872 H1847 0.951 . S
C1872 C1870 1.388 . S
C1872 C1873 1.366 . S
C1873 C1872 1.366 . S
C1873 C1874 1.414 . S
C1873 C1876 1.499 . S
C1874 H1848 0.950 . S
C1874 C1873 1.414 . S
C1874 C1875 1.374 . S
C1875 H1849 0.950 . S
C1875 C1871 1.385 . S
C1875 C1874 1.374 . S
C1876 C1873 1.499 . S
C1876 C1877 1.373 . S
C1876 C1878 1.389 . S
C1877 H1850 0.950 . S
C1877 C1863 1.377 . S
C1877 C1876 1.373 . S
C1878 C1862 1.377 . S
C1878 C1876 1.389 . S
C1878 C1879 1.524 . S
C1879 C1878 1.524 . S
C1879 C1880 1.397 . S
C1879 C1884 1.363 . S
C1880 H1851 0.950 . S
C1880 C1879 1.397 . S
C1880 C1881 1.334 . S
C1881 H1852 0.950 . S
C1881 C1880 1.334 . S
C1881 C1882 1.287 . S
C1882 C1881 1.287 . S
C1882 C1883 1.524 . S
C1882 H1885 0.999 . S
C1883 H1853 0.950 . S
C1883 C1882 1.524 . S
C1883 C1884 1.415 . S
C1884 H1854 0.950 . S
C1884 C1879 1.363 . S
C1884 C1883 1.415 . S
H1885 C1882 0.999 . S
H1886 C1867 0.913 . S
H1887 C1905 0.951 . S
H1888 C1907 0.951 . S
H1889 C1909 0.950 . S
H1890 C1910 0.950 . S
H1891 C1912 0.950 . S
H1892 C1915 0.950 1_545 S
H1893 C1916 0.950 . S
H1894 C1918 0.950 . S
H1895 C1919 0.950 . S
H1896 C1920 0.951 . S
H1897 C1922 0.951 . S
H1898 C1924 0.950 . S
H1899 C1925 0.950 . S
H1900 C1927 0.950 . S
H1901 C1930 0.950 . S
H1902 C1931 0.950 . S
H1903 C1933 0.950 . S
H1904 C1934 0.950 . S
C1905 H1887 0.951 . S
C1905 C1906 1.366 . S
C1905 C1907 1.388 . S
C1906 C1905 1.366 . S
C1906 C1910 1.385 . S
C1907 H1888 0.951 . S
C1907 C1905 1.388 . S
C1907 C1908 1.366 . S
C1908 C1907 1.366 . S
C1908 C1909 1.414 . S
C1908 C1911 1.499 1_545 S
C1909 H1889 0.950 . S
C1909 C1908 1.414 . S
C1909 C1910 1.374 . S
C1910 H1890 0.950 . S
C1910 C1906 1.385 . S
C1910 C1909 1.374 . S
C1911 C1908 1.499 1_565 S
C1911 C1912 1.373 . S
C1911 C1913 1.389 . S
C1912 H1891 0.950 . S
C1912 C1911 1.373 . S
C1912 C1928 1.377 . S
C1913 C1911 1.389 . S
C1913 C1914 1.524 . S
C1913 C1927 1.377 . S
C1914 C1913 1.524 . S
C1914 C1915 1.397 . S
C1914 C1919 1.363 . S
C1915 H1892 0.950 1_565 S
C1915 C1914 1.397 . S
C1915 C1916 1.334 1_565 S
C1916 H1893 0.950 . S
C1916 C1915 1.334 1_545 S
C1916 C1917 1.287 1_545 S
C1917 C1916 1.287 1_565 S
C1917 C1918 1.524 . S
C1917 H1936 0.913 1_565 S
C1918 H1894 0.950 . S
C1918 C1917 1.524 . S
C1918 C1919 1.415 . S
C1919 H1895 0.950 . S
C1919 C1914 1.363 . S
C1919 C1918 1.415 . S
C1920 H1896 0.951 . S
C1920 C1921 1.366 . S
C1920 C1922 1.388 . S
C1921 C1920 1.366 . S
C1921 C1925 1.385 . S
C1922 H1897 0.951 . S
C1922 C1920 1.388 . S
C1922 C1923 1.366 . S
C1923 C1922 1.366 . S
C1923 C1924 1.414 . S
C1923 C1926 1.499 . S
C1924 H1898 0.950 . S
C1924 C1923 1.414 . S
C1924 C1925 1.374 . S
C1925 H1899 0.950 . S
C1925 C1921 1.385 . S
C1925 C1924 1.374 . S
C1926 C1923 1.499 . S
C1926 C1927 1.373 . S
C1926 C1928 1.389 . S
C1927 H1900 0.950 . S
C1927 C1913 1.377 . S
C1927 C1926 1.373 . S
C1928 C1912 1.377 . S
C1928 C1926 1.389 . S
C1928 C1929 1.524 . S
C1929 C1928 1.524 . S
C1929 C1930 1.397 . S
C1929 C1934 1.363 . S
C1930 H1901 0.950 . S
C1930 C1929 1.397 . S
C1930 C1931 1.334 . S
C1931 H1902 0.950 . S
C1931 C1930 1.334 . S
C1931 C1932 1.287 . S
C1932 C1931 1.287 . S
C1932 C1933 1.524 . S
C1932 H1935 0.999 . S
C1933 H1903 0.950 . S
C1933 C1932 1.524 . S
C1933 C1934 1.415 . S
C1934 H1904 0.950 . S
C1934 C1929 1.363 . S
C1934 C1933 1.415 . S
H1935 C1932 0.999 . S
H1936 C1917 0.913 1_545 S
H1937 C1955 0.951 . S
H1938 C1957 0.951 . S
H1939 C1959 0.950 . S
H1940 C1960 0.950 . S
H1941 C1962 0.950 . S
H1942 C1965 0.950 . S
H1943 C1966 0.950 . S
H1944 C1968 0.950 . S
H1945 C1969 0.950 . S
H1946 C1970 0.951 . S
H1947 C1972 0.951 . S
H1948 C1974 0.950 . S
H1949 C1975 0.950 . S
H1950 C1977 0.950 . S
H1951 C1980 0.950 . S
H1952 C1981 0.950 . S
H1953 C1983 0.950 . S
H1954 C1984 0.950 . S
C1955 H1937 0.951 . S
C1955 C1956 1.366 . S
C1955 C1957 1.388 . S
C1956 C1955 1.366 . S
C1956 C1960 1.385 . S
C1957 H1938 0.951 . S
C1957 C1955 1.388 . S
C1957 C1958 1.366 . S
C1958 C1957 1.366 . S
C1958 C1959 1.414 . S
C1958 C1961 1.499 1_655 S
C1959 H1939 0.950 . S
C1959 C1958 1.414 . S
C1959 C1960 1.374 . S
C1960 H1940 0.950 . S
C1960 C1956 1.385 . S
C1960 C1959 1.374 . S
C1961 C1958 1.499 1_455 S
C1961 C1962 1.373 . S
C1961 C1963 1.389 . S
C1962 H1941 0.950 . S
C1962 C1961 1.373 . S
C1962 C1978 1.377 . S
C1963 C1961 1.389 . S
C1963 C1964 1.524 . S
C1963 C1977 1.377 . S
C1964 C1963 1.524 . S
C1964 C1965 1.397 1_455 S
C1964 C1969 1.363 . S
C1965 H1942 0.950 . S
C1965 C1964 1.397 1_655 S
C1965 C1966 1.334 . S
C1966 H1943 0.950 . S
C1966 C1965 1.334 . S
C1966 C1967 1.287 . S
C1967 C1966 1.287 . S
C1967 C1968 1.524 1_655 S
C1967 H1986 0.913 . S
C1968 H1944 0.950 . S
C1968 C1967 1.524 1_455 S
C1968 C1969 1.415 . S
C1969 H1945 0.950 . S
C1969 C1964 1.363 . S
C1969 C1968 1.415 . S
C1970 H1946 0.951 . S
C1970 C1971 1.366 . S
C1970 C1972 1.388 . S
C1971 C1970 1.366 . S
C1971 C1975 1.385 . S
C1972 H1947 0.951 . S
C1972 C1970 1.388 . S
C1972 C1973 1.366 . S
C1973 C1972 1.366 . S
C1973 C1974 1.414 . S
C1973 C1976 1.499 . S
C1974 H1948 0.950 . S
C1974 C1973 1.414 . S
C1974 C1975 1.374 . S
C1975 H1949 0.950 . S
C1975 C1971 1.385 . S
C1975 C1974 1.374 . S
C1976 C1973 1.499 . S
C1976 C1977 1.373 . S
C1976 C1978 1.389 . S
C1977 H1950 0.950 . S
C1977 C1963 1.377 . S
C1977 C1976 1.373 . S
C1978 C1962 1.377 . S
C1978 C1976 1.389 . S
C1978 C1979 1.524 . S
C1979 C1978 1.524 . S
C1979 C1980 1.397 . S
C1979 C1984 1.363 . S
C1980 H1951 0.950 . S
C1980 C1979 1.397 . S
C1980 C1981 1.334 . S
C1981 H1952 0.950 . S
C1981 C1980 1.334 . S
C1981 C1982 1.287 . S
C1982 C1981 1.287 . S
C1982 C1983 1.524 . S
C1982 H1985 0.999 . S
C1983 H1953 0.950 . S
C1983 C1982 1.524 . S
C1983 C1984 1.415 . S
C1984 H1954 0.950 . S
C1984 C1979 1.363 . S
C1984 C1983 1.415 . S
H1985 C1982 0.999 . S
H1986 C1967 0.913 . S
H1987 C2005 0.951 . S
H1988 C2007 0.951 . S
H1989 C2009 0.950 . S
H1990 C2010 0.950 . S
H1991 C2012 0.950 . S
H1992 C2015 0.950 . S
H1993 C2016 0.950 . S
H1994 C2018 0.950 . S
H1995 C2019 0.950 . S
H1996 C2020 0.951 . S
H1997 C2022 0.951 . S
H1998 C2024 0.950 . S
H1999 C2025 0.950 . S
H2000 C2027 0.950 . S
H2001 C2030 0.950 . S
H2002 C2031 0.950 . S
H2003 C2033 0.950 . S
H2004 C2034 0.950 . S
C2005 H1987 0.951 . S
C2005 C2006 1.366 . S
C2005 C2007 1.388 . S
C2006 C2005 1.366 . S
C2006 C2010 1.385 . S
C2007 H1988 0.951 . S
C2007 C2005 1.388 . S
C2007 C2008 1.366 . S
C2008 C2007 1.366 . S
C2008 C2009 1.414 . S
C2008 C2011 1.499 . S
C2009 H1989 0.950 . S
C2009 C2008 1.414 . S
C2009 C2010 1.374 . S
C2010 H1990 0.950 . S
C2010 C2006 1.385 . S
C2010 C2009 1.374 . S
C2011 C2008 1.499 . S
C2011 C2012 1.373 . S
C2011 C2013 1.389 . S
C2012 H1991 0.950 . S
C2012 C2011 1.373 . S
C2012 C2028 1.377 . S
C2013 C2011 1.389 . S
C2013 C2014 1.524 . S
C2013 C2027 1.377 . S
C2014 C2013 1.524 . S
C2014 C2015 1.397 . S
C2014 C2019 1.363 . S
C2015 H1992 0.950 . S
C2015 C2014 1.397 . S
C2015 C2016 1.334 . S
C2016 H1993 0.950 . S
C2016 C2015 1.334 . S
C2016 C2017 1.287 . S
C2017 C2016 1.287 . S
C2017 C2018 1.524 . S
C2017 H2036 0.913 . S
C2018 H1994 0.950 . S
C2018 C2017 1.524 . S
C2018 C2019 1.415 . S
C2019 H1995 0.950 . S
C2019 C2014 1.363 . S
C2019 C2018 1.415 . S
C2020 H1996 0.951 . S
C2020 C2021 1.366 . S
C2020 C2022 1.388 . S
C2021 C2020 1.366 . S
C2021 C2025 1.385 . S
C2022 H1997 0.951 . S
C2022 C2020 1.388 . S
C2022 C2023 1.366 . S
C2023 C2022 1.366 . S
C2023 C2024 1.414 . S
C2023 C2026 1.499 . S
C2024 H1998 0.950 . S
C2024 C2023 1.414 . S
C2024 C2025 1.374 . S
C2025 H1999 0.950 . S
C2025 C2021 1.385 . S
C2025 C2024 1.374 . S
C2026 C2023 1.499 . S
C2026 C2027 1.373 . S
C2026 C2028 1.389 . S
C2027 H2000 0.950 . S
C2027 C2013 1.377 . S
C2027 C2026 1.373 . S
C2028 C2012 1.377 . S
C2028 C2026 1.389 . S
C2028 C2029 1.524 . S
C2029 C2028 1.524 . S
C2029 C2030 1.397 . S
C2029 C2034 1.363 . S
C2030 H2001 0.950 . S
C2030 C2029 1.397 . S
C2030 C2031 1.334 . S
C2031 H2002 0.950 . S
C2031 C2030 1.334 . S
C2031 C2032 1.287 . S
C2032 C2031 1.287 . S
C2032 C2033 1.524 . S
C2032 H2035 0.999 . S
C2033 H2003 0.950 . S
C2033 C2032 1.524 . S
C2033 C2034 1.415 . S
C2034 H2004 0.950 . S
C2034 C2029 1.363 . S
C2034 C2033 1.415 . S
H2035 C2032 0.999 . S
H2036 C2017 0.913 . S
H2037 C2055 0.951 . S
H2038 C2057 0.951 . S
H2039 C2059 0.950 . S
H2040 C2060 0.950 . S
H2041 C2062 0.950 . S
H2042 C2065 0.950 . S
H2043 C2066 0.950 . S
H2044 C2068 0.950 . S
H2045 C2069 0.950 . S
H2046 C2070 0.951 . S
H2047 C2072 0.951 . S
H2048 C2074 0.950 . S
H2049 C2075 0.950 . S
H2050 C2077 0.950 . S
H2051 C2080 0.950 . S
H2052 C2081 0.950 . S
H2053 C2083 0.950 . S
H2054 C2084 0.950 . S
C2055 H2037 0.951 . S
C2055 C2056 1.366 . S
C2055 C2057 1.388 . S
C2056 C2055 1.366 . S
C2056 C2060 1.385 . S
C2057 H2038 0.951 . S
C2057 C2055 1.388 . S
C2057 C2058 1.366 . S
C2058 C2057 1.366 . S
C2058 C2059 1.414 . S
C2058 C2061 1.499 . S
C2059 H2039 0.950 . S
C2059 C2058 1.414 . S
C2059 C2060 1.374 . S
C2060 H2040 0.950 . S
C2060 C2056 1.385 . S
C2060 C2059 1.374 . S
C2061 C2058 1.499 . S
C2061 C2062 1.373 . S
C2061 C2063 1.389 . S
C2062 H2041 0.950 . S
C2062 C2061 1.373 . S
C2062 C2078 1.377 . S
C2063 C2061 1.389 . S
C2063 C2064 1.524 . S
C2063 C2077 1.377 . S
C2064 C2063 1.524 . S
C2064 C2065 1.397 . S
C2064 C2069 1.363 . S
C2065 H2042 0.950 . S
C2065 C2064 1.397 . S
C2065 C2066 1.334 . S
C2066 H2043 0.950 . S
C2066 C2065 1.334 . S
C2066 C2067 1.287 . S
C2067 C2066 1.287 . S
C2067 C2068 1.524 . S
C2067 H2086 0.913 . S
C2068 H2044 0.950 . S
C2068 C2067 1.524 . S
C2068 C2069 1.415 . S
C2069 H2045 0.950 . S
C2069 C2064 1.363 . S
C2069 C2068 1.415 . S
C2070 H2046 0.951 . S
C2070 C2071 1.366 . S
C2070 C2072 1.388 . S
C2071 C2070 1.366 . S
C2071 C2075 1.385 . S
C2072 H2047 0.951 . S
C2072 C2070 1.388 . S
C2072 C2073 1.366 . S
C2073 C2072 1.366 . S
C2073 C2074 1.414 . S
C2073 C2076 1.499 . S
C2074 H2048 0.950 . S
C2074 C2073 1.414 . S
C2074 C2075 1.374 . S
C2075 H2049 0.950 . S
C2075 C2071 1.385 . S
C2075 C2074 1.374 . S
C2076 C2073 1.499 . S
C2076 C2077 1.373 . S
C2076 C2078 1.389 . S
C2077 H2050 0.950 . S
C2077 C2063 1.377 . S
C2077 C2076 1.373 . S
C2078 C2062 1.377 . S
C2078 C2076 1.389 . S
C2078 C2079 1.524 . S
C2079 C2078 1.524 . S
C2079 C2080 1.397 . S
C2079 C2084 1.363 . S
C2080 H2051 0.950 . S
C2080 C2079 1.397 . S
C2080 C2081 1.334 . S
C2081 H2052 0.950 . S
C2081 C2080 1.334 . S
C2081 C2082 1.287 . S
C2082 C2081 1.287 . S
C2082 C2083 1.524 . S
C2082 H2085 0.999 . S
C2083 H2053 0.950 . S
C2083 C2082 1.524 . S
C2083 C2084 1.415 . S
C2084 H2054 0.950 . S
C2084 C2079 1.363 . S
C2084 C2083 1.415 . S
H2085 C2082 0.999 . S
H2086 C2067 0.913 . S
H2087 C2105 0.951 . S
H2088 C2107 0.951 . S
H2089 C2109 0.950 . S
H2090 C2110 0.950 . S
H2091 C2112 0.950 . S
H2092 C2115 0.950 . S
H2093 C2116 0.950 . S
H2094 C2118 0.950 . S
H2095 C2119 0.950 . S
H2096 C2120 0.951 . S
H2097 C2122 0.951 . S
H2098 C2124 0.950 . S
H2099 C2125 0.950 . S
H2100 C2127 0.950 . S
H2101 C2130 0.950 . S
H2102 C2131 0.950 . S
H2103 C2133 0.950 . S
H2104 C2134 0.950 . S
C2105 H2087 0.951 . S
C2105 C2106 1.366 . S
C2105 C2107 1.388 . S
C2106 C2105 1.366 . S
C2106 C2110 1.385 . S
C2107 H2088 0.951 . S
C2107 C2105 1.388 . S
C2107 C2108 1.366 . S
C2108 C2107 1.366 . S
C2108 C2109 1.414 . S
C2108 C2111 1.499 . S
C2109 H2089 0.950 . S
C2109 C2108 1.414 . S
C2109 C2110 1.374 . S
C2110 H2090 0.950 . S
C2110 C2106 1.385 . S
C2110 C2109 1.374 . S
C2111 C2108 1.499 . S
C2111 C2112 1.373 . S
C2111 C2113 1.389 . S
C2112 H2091 0.950 . S
C2112 C2111 1.373 . S
C2112 C2128 1.377 . S
C2113 C2111 1.389 . S
C2113 C2114 1.524 . S
C2113 C2127 1.377 . S
C2114 C2113 1.524 . S
C2114 C2115 1.397 . S
C2114 C2119 1.363 . S
C2115 H2092 0.950 . S
C2115 C2114 1.397 . S
C2115 C2116 1.334 . S
C2116 H2093 0.950 . S
C2116 C2115 1.334 . S
C2116 C2117 1.287 . S
C2117 C2116 1.287 . S
C2117 C2118 1.524 . S
C2117 H2136 0.913 . S
C2118 H2094 0.950 . S
C2118 C2117 1.524 . S
C2118 C2119 1.415 . S
C2119 H2095 0.950 . S
C2119 C2114 1.363 . S
C2119 C2118 1.415 . S
C2120 H2096 0.951 . S
C2120 C2121 1.366 . S
C2120 C2122 1.388 . S
C2121 C2120 1.366 . S
C2121 C2125 1.385 . S
C2122 H2097 0.951 . S
C2122 C2120 1.388 . S
C2122 C2123 1.366 . S
C2123 C2122 1.366 . S
C2123 C2124 1.414 . S
C2123 C2126 1.499 . S
C2124 H2098 0.950 . S
C2124 C2123 1.414 . S
C2124 C2125 1.374 . S
C2125 H2099 0.950 . S
C2125 C2121 1.385 . S
C2125 C2124 1.374 . S
C2126 C2123 1.499 . S
C2126 C2127 1.373 . S
C2126 C2128 1.389 . S
C2127 H2100 0.950 . S
C2127 C2113 1.377 . S
C2127 C2126 1.373 . S
C2128 C2112 1.377 . S
C2128 C2126 1.389 . S
C2128 C2129 1.524 . S
C2129 C2128 1.524 . S
C2129 C2130 1.397 . S
C2129 C2134 1.363 . S
C2130 H2101 0.950 . S
C2130 C2129 1.397 . S
C2130 C2131 1.334 . S
C2131 H2102 0.950 . S
C2131 C2130 1.334 . S
C2131 C2132 1.287 . S
C2132 C2131 1.287 . S
C2132 C2133 1.524 . S
C2132 H2135 0.999 . S
C2133 H2103 0.950 . S
C2133 C2132 1.524 . S
C2133 C2134 1.415 . S
C2134 H2104 0.950 . S
C2134 C2129 1.363 . S
C2134 C2133 1.415 . S
H2135 C2132 0.999 . S
H2136 C2117 0.913 . S
H2137 C2155 0.951 . S
H2138 C2157 0.951 . S
H2139 C2159 0.950 . S
H2140 C2160 0.950 . S
H2141 C2162 0.950 . S
H2142 C2165 0.950 . S
H2143 C2166 0.950 . S
H2144 C2168 0.950 . S
H2145 C2169 0.950 . S
H2146 C2170 0.951 . S
H2147 C2172 0.951 . S
H2148 C2174 0.950 . S
H2149 C2175 0.950 . S
H2150 C2177 0.950 . S
H2151 C2180 0.950 . S
H2152 C2181 0.950 . S
H2153 C2183 0.950 . S
H2154 C2184 0.950 . S
C2155 H2137 0.951 . S
C2155 C2156 1.366 . S
C2155 C2157 1.388 . S
C2156 C2155 1.366 . S
C2156 C2160 1.385 . S
C2157 H2138 0.951 . S
C2157 C2155 1.388 . S
C2157 C2158 1.366 . S
C2158 C2157 1.366 . S
C2158 C2159 1.414 . S
C2158 C2161 1.499 . S
C2159 H2139 0.950 . S
C2159 C2158 1.414 . S
C2159 C2160 1.374 . S
C2160 H2140 0.950 . S
C2160 C2156 1.385 . S
C2160 C2159 1.374 . S
C2161 C2158 1.499 . S
C2161 C2162 1.373 . S
C2161 C2163 1.389 . S
C2162 H2141 0.950 . S
C2162 C2161 1.373 . S
C2162 C2178 1.377 . S
C2163 C2161 1.389 . S
C2163 C2164 1.524 . S
C2163 C2177 1.377 . S
C2164 C2163 1.524 . S
C2164 C2165 1.397 . S
C2164 C2169 1.363 . S
C2165 H2142 0.950 . S
C2165 C2164 1.397 . S
C2165 C2166 1.334 . S
C2166 H2143 0.950 . S
C2166 C2165 1.334 . S
C2166 C2167 1.287 . S
C2167 C2166 1.287 . S
C2167 C2168 1.524 . S
C2167 H2186 0.913 . S
C2168 H2144 0.950 . S
C2168 C2167 1.524 . S
C2168 C2169 1.415 . S
C2169 H2145 0.950 . S
C2169 C2164 1.363 . S
C2169 C2168 1.415 . S
C2170 H2146 0.951 . S
C2170 C2171 1.366 . S
C2170 C2172 1.388 . S
C2171 C2170 1.366 . S
C2171 C2175 1.385 . S
C2172 H2147 0.951 . S
C2172 C2170 1.388 . S
C2172 C2173 1.366 . S
C2173 C2172 1.366 . S
C2173 C2174 1.414 . S
C2173 C2176 1.499 . S
C2174 H2148 0.950 . S
C2174 C2173 1.414 . S
C2174 C2175 1.374 . S
C2175 H2149 0.950 . S
C2175 C2171 1.385 . S
C2175 C2174 1.374 . S
C2176 C2173 1.499 . S
C2176 C2177 1.373 . S
C2176 C2178 1.389 . S
C2177 H2150 0.950 . S
C2177 C2163 1.377 . S
C2177 C2176 1.373 . S
C2178 C2162 1.377 . S
C2178 C2176 1.389 . S
C2178 C2179 1.524 . S
C2179 C2178 1.524 . S
C2179 C2180 1.397 . S
C2179 C2184 1.363 . S
C2180 H2151 0.950 . S
C2180 C2179 1.397 . S
C2180 C2181 1.334 . S
C2181 H2152 0.950 . S
C2181 C2180 1.334 . S
C2181 C2182 1.287 . S
C2182 C2181 1.287 . S
C2182 C2183 1.524 . S
C2182 H2185 0.999 . S
C2183 H2153 0.950 . S
C2183 C2182 1.524 . S
C2183 C2184 1.415 . S
C2184 H2154 0.950 . S
C2184 C2179 1.363 . S
C2184 C2183 1.415 . S
H2185 C2182 0.999 . S
H2186 C2167 0.913 . S
H2187 C2205 0.951 . S
H2188 C2207 0.951 . S
H2189 C2209 0.950 . S
H2190 C2210 0.950 . S
H2191 C2212 0.950 . S
H2192 C2215 0.950 . S
H2193 C2216 0.950 1_565 S
H2194 C2218 0.950 . S
H2195 C2219 0.950 . S
H2196 C2220 0.951 . S
H2197 C2222 0.951 . S
H2198 C2224 0.950 . S
H2199 C2225 0.950 . S
H2200 C2227 0.950 . S
H2201 C2230 0.950 . S
H2202 C2231 0.950 . S
H2203 C2233 0.950 . S
H2204 C2234 0.950 . S
C2205 H2187 0.951 . S
C2205 C2206 1.366 . S
C2205 C2207 1.388 . S
C2206 C2205 1.366 . S
C2206 C2210 1.385 . S
C2207 H2188 0.951 . S
C2207 C2205 1.388 . S
C2207 C2208 1.366 . S
C2208 C2207 1.366 . S
C2208 C2209 1.414 . S
C2208 C2211 1.499 1_565 S
C2209 H2189 0.950 . S
C2209 C2208 1.414 . S
C2209 C2210 1.374 . S
C2210 H2190 0.950 . S
C2210 C2206 1.385 . S
C2210 C2209 1.374 . S
C2211 C2208 1.499 1_545 S
C2211 C2212 1.373 . S
C2211 C2213 1.389 . S
C2212 H2191 0.950 . S
C2212 C2211 1.373 . S
C2212 C2228 1.377 . S
C2213 C2211 1.389 . S
C2213 C2214 1.524 . S
C2213 C2227 1.377 . S
C2214 C2213 1.524 . S
C2214 C2215 1.397 . S
C2214 C2219 1.363 . S
C2215 H2192 0.950 . S
C2215 C2214 1.397 . S
C2215 C2216 1.334 . S
C2216 H2193 0.950 1_545 S
C2216 C2215 1.334 . S
C2216 C2217 1.287 . S
C2217 C2216 1.287 . S
C2217 C2218 1.524 . S
C2217 H2236 0.913 . S
C2218 H2194 0.950 . S
C2218 C2217 1.524 . S
C2218 C2219 1.415 . S
C2219 H2195 0.950 . S
C2219 C2214 1.363 . S
C2219 C2218 1.415 . S
C2220 H2196 0.951 . S
C2220 C2221 1.366 . S
C2220 C2222 1.388 . S
C2221 C2220 1.366 . S
C2221 C2225 1.385 . S
C2222 H2197 0.951 . S
C2222 C2220 1.388 . S
C2222 C2223 1.366 . S
C2223 C2222 1.366 . S
C2223 C2224 1.414 . S
C2223 C2226 1.499 . S
C2224 H2198 0.950 . S
C2224 C2223 1.414 . S
C2224 C2225 1.374 . S
C2225 H2199 0.950 . S
C2225 C2221 1.385 . S
C2225 C2224 1.374 . S
C2226 C2223 1.499 . S
C2226 C2227 1.373 . S
C2226 C2228 1.389 . S
C2227 H2200 0.950 . S
C2227 C2213 1.377 . S
C2227 C2226 1.373 . S
C2228 C2212 1.377 . S
C2228 C2226 1.389 . S
C2228 C2229 1.524 . S
C2229 C2228 1.524 . S
C2229 C2230 1.397 . S
C2229 C2234 1.363 . S
C2230 H2201 0.950 . S
C2230 C2229 1.397 . S
C2230 C2231 1.334 . S
C2231 H2202 0.950 . S
C2231 C2230 1.334 . S
C2231 C2232 1.287 . S
C2232 C2231 1.287 . S
C2232 C2233 1.524 . S
C2232 H2235 0.999 . S
C2233 H2203 0.950 . S
C2233 C2232 1.524 . S
C2233 C2234 1.415 . S
C2234 H2204 0.950 . S
C2234 C2229 1.363 . S
C2234 C2233 1.415 . S
H2235 C2232 0.999 . S
H2236 C2217 0.913 . S
H2237 C2255 0.951 . S
H2238 C2257 0.951 . S
H2239 C2259 0.950 . S
H2240 C2260 0.950 . S
H2241 C2262 0.950 . S
H2242 C2265 0.950 . S
H2243 C2266 0.950 1_455 S
H2244 C2268 0.950 . S
H2245 C2269 0.950 . S
H2246 C2270 0.951 . S
H2247 C2272 0.951 . S
H2248 C2274 0.950 . S
H2249 C2275 0.950 . S
H2250 C2277 0.950 . S
H2251 C2280 0.950 . S
H2252 C2281 0.950 . S
H2253 C2283 0.950 . S
H2254 C2284 0.950 . S
C2255 H2237 0.951 . S
C2255 C2256 1.366 . S
C2255 C2257 1.388 . S
C2256 C2255 1.366 . S
C2256 C2260 1.385 . S
C2257 H2238 0.951 . S
C2257 C2255 1.388 . S
C2257 C2258 1.366 . S
C2258 C2257 1.366 . S
C2258 C2259 1.414 . S
C2258 C2261 1.499 1_455 S
C2259 H2239 0.950 . S
C2259 C2258 1.414 . S
C2259 C2260 1.374 . S
C2260 H2240 0.950 . S
C2260 C2256 1.385 . S
C2260 C2259 1.374 . S
C2261 C2258 1.499 1_655 S
C2261 C2262 1.373 . S
C2261 C2263 1.389 . S
C2262 H2241 0.950 . S
C2262 C2261 1.373 . S
C2262 C2278 1.377 . S
C2263 C2261 1.389 . S
C2263 C2264 1.524 . S
C2263 C2277 1.377 . S
C2264 C2263 1.524 . S
C2264 C2265 1.397 . S
C2264 C2269 1.363 . S
C2265 H2242 0.950 . S
C2265 C2264 1.397 . S
C2265 C2266 1.334 . S
C2266 H2243 0.950 1_655 S
C2266 C2265 1.334 . S
C2266 C2267 1.287 . S
C2267 C2266 1.287 . S
C2267 C2268 1.524 . S
C2267 H2286 0.913 1_655 S
C2268 H2244 0.950 . S
C2268 C2267 1.524 . S
C2268 C2269 1.415 . S
C2269 H2245 0.950 . S
C2269 C2264 1.363 . S
C2269 C2268 1.415 . S
C2270 H2246 0.951 . S
C2270 C2271 1.366 . S
C2270 C2272 1.388 . S
C2271 C2270 1.366 . S
C2271 C2275 1.385 . S
C2272 H2247 0.951 . S
C2272 C2270 1.388 . S
C2272 C2273 1.366 . S
C2273 C2272 1.366 . S
C2273 C2274 1.414 . S
C2273 C2276 1.499 . S
C2274 H2248 0.950 . S
C2274 C2273 1.414 . S
C2274 C2275 1.374 . S
C2275 H2249 0.950 . S
C2275 C2271 1.385 . S
C2275 C2274 1.374 . S
C2276 C2273 1.499 . S
C2276 C2277 1.373 . S
C2276 C2278 1.389 . S
C2277 H2250 0.950 . S
C2277 C2263 1.377 . S
C2277 C2276 1.373 . S
C2278 C2262 1.377 . S
C2278 C2276 1.389 . S
C2278 C2279 1.524 . S
C2279 C2278 1.524 . S
C2279 C2280 1.397 . S
C2279 C2284 1.363 . S
C2280 H2251 0.950 . S
C2280 C2279 1.397 . S
C2280 C2281 1.334 . S
C2281 H2252 0.950 . S
C2281 C2280 1.334 . S
C2281 C2282 1.287 . S
C2282 C2281 1.287 . S
C2282 C2283 1.524 . S
C2282 H2285 0.999 . S
C2283 H2253 0.950 . S
C2283 C2282 1.524 . S
C2283 C2284 1.415 . S
C2284 H2254 0.950 . S
C2284 C2279 1.363 . S
C2284 C2283 1.415 . S
H2285 C2282 0.999 . S
H2286 C2267 0.913 1_455 S
H2287 C2305 0.951 . S
H2288 C2307 0.951 . S
H2289 C2309 0.950 . S
H2290 C2310 0.950 . S
H2291 C2312 0.950 . S
H2292 C2315 0.950 . S
H2293 C2316 0.950 . S
H2294 C2318 0.950 . S
H2295 C2319 0.950 . S
H2296 C2320 0.951 . S
H2297 C2322 0.951 . S
H2298 C2324 0.950 . S
H2299 C2325 0.950 . S
H2300 C2327 0.950 . S
H2301 C2330 0.950 . S
H2302 C2331 0.950 . S
H2303 C2333 0.950 . S
H2304 C2334 0.950 . S
C2305 H2287 0.951 . S
C2305 C2306 1.366 . S
C2305 C2307 1.388 . S
C2306 C2305 1.366 . S
C2306 C2310 1.385 . S
C2307 H2288 0.951 . S
C2307 C2305 1.388 . S
C2307 C2308 1.366 . S
C2308 C2307 1.366 . S
C2308 C2309 1.414 . S
C2308 C2311 1.499 . S
C2309 H2289 0.950 . S
C2309 C2308 1.414 . S
C2309 C2310 1.374 . S
C2310 H2290 0.950 . S
C2310 C2306 1.385 . S
C2310 C2309 1.374 . S
C2311 C2308 1.499 . S
C2311 C2312 1.373 . S
C2311 C2313 1.389 . S
C2312 H2291 0.950 . S
C2312 C2311 1.373 . S
C2312 C2328 1.377 . S
C2313 C2311 1.389 . S
C2313 C2314 1.524 . S
C2313 C2327 1.377 . S
C2314 C2313 1.524 . S
C2314 C2315 1.397 . S
C2314 C2319 1.363 . S
C2315 H2292 0.950 . S
C2315 C2314 1.397 . S
C2315 C2316 1.334 . S
C2316 H2293 0.950 . S
C2316 C2315 1.334 . S
C2316 C2317 1.287 . S
C2317 C2316 1.287 . S
C2317 C2318 1.524 . S
C2317 H2336 0.913 . S
C2318 H2294 0.950 . S
C2318 C2317 1.524 . S
C2318 C2319 1.415 . S
C2319 H2295 0.950 . S
C2319 C2314 1.363 . S
C2319 C2318 1.415 . S
C2320 H2296 0.951 . S
C2320 C2321 1.366 . S
C2320 C2322 1.388 . S
C2321 C2320 1.366 . S
C2321 C2325 1.385 . S
C2322 H2297 0.951 . S
C2322 C2320 1.388 . S
C2322 C2323 1.366 . S
C2323 C2322 1.366 . S
C2323 C2324 1.414 . S
C2323 C2326 1.499 . S
C2324 H2298 0.950 . S
C2324 C2323 1.414 . S
C2324 C2325 1.374 . S
C2325 H2299 0.950 . S
C2325 C2321 1.385 . S
C2325 C2324 1.374 . S
C2326 C2323 1.499 . S
C2326 C2327 1.373 . S
C2326 C2328 1.389 . S
C2327 H2300 0.950 . S
C2327 C2313 1.377 . S
C2327 C2326 1.373 . S
C2328 C2312 1.377 . S
C2328 C2326 1.389 . S
C2328 C2329 1.524 . S
C2329 C2328 1.524 . S
C2329 C2330 1.397 . S
C2329 C2334 1.363 . S
C2330 H2301 0.950 . S
C2330 C2329 1.397 . S
C2330 C2331 1.334 . S
C2331 H2302 0.950 . S
C2331 C2330 1.334 . S
C2331 C2332 1.287 . S
C2332 C2331 1.287 . S
C2332 C2333 1.524 . S
C2332 H2335 0.999 . S
C2333 H2303 0.950 . S
C2333 C2332 1.524 . S
C2333 C2334 1.415 . S
C2334 H2304 0.950 . S
C2334 C2329 1.363 . S
C2334 C2333 1.415 . S
H2335 C2332 0.999 . S
H2336 C2317 0.913 . S
H2337 C2355 0.951 . S
H2338 C2357 0.951 . S
H2339 C2359 0.950 . S
H2340 C2360 0.950 . S
H2341 C2362 0.950 . S
H2342 C2365 0.950 . S
H2343 C2366 0.950 . S
H2344 C2368 0.950 . S
H2345 C2369 0.966 . S
H2346 C2370 0.951 . S
H2347 C2372 0.951 . S
H2348 C2374 0.950 . S
H2349 C2375 0.950 . S
H2350 C2377 0.950 . S
H2351 C2380 0.950 . S
H2352 C2381 0.950 . S
H2353 C2383 0.950 . S
H2354 C2384 0.950 . S
C2355 H2337 0.951 . S
C2355 C2356 1.366 . S
C2355 C2357 1.388 . S
C2356 C2355 1.366 . S
C2356 C2360 1.385 . S
C2357 H2338 0.951 . S
C2357 C2355 1.388 . S
C2357 C2358 1.366 . S
C2358 C2357 1.366 . S
C2358 C2359 1.414 . S
C2358 C2361 1.499 1_455 S
C2359 H2339 0.950 . S
C2359 C2358 1.414 . S
C2359 C2360 1.374 . S
C2360 H2340 0.950 . S
C2360 C2356 1.385 . S
C2360 C2359 1.374 . S
C2361 C2358 1.499 1_655 S
C2361 C2362 1.373 . S
C2361 C2363 1.389 . S
C2362 H2341 0.950 . S
C2362 C2361 1.373 . S
C2362 C2378 1.377 . S
C2363 C2361 1.389 . S
C2363 C2364 1.524 1_655 S
C2363 C2377 1.377 . S
C2364 C2363 1.524 1_455 S
C2364 C2365 1.397 . S
C2364 C2369 1.359 1_455 S
C2365 H2342 0.950 . S
C2365 C2364 1.397 . S
C2365 C2366 1.334 . S
C2366 H2343 0.950 . S
C2366 C2365 1.334 . S
C2366 C2367 1.287 . S
C2367 C2366 1.287 . S
C2367 C2368 1.524 . S
C2367 H2386 0.913 . S
C2368 H2344 0.950 . S
C2368 C2367 1.524 . S
C2368 C2369 1.403 1_455 S
C2369 H2345 0.966 . S
C2369 C2364 1.359 1_655 S
C2369 C2368 1.403 1_655 S
C2370 H2346 0.951 . S
C2370 C2371 1.366 . S
C2370 C2372 1.388 . S
C2371 C2370 1.366 . S
C2371 C2375 1.385 . S
C2372 H2347 0.951 . S
C2372 C2370 1.388 . S
C2372 C2373 1.366 . S
C2373 C2372 1.366 . S
C2373 C2374 1.414 . S
C2373 C2376 1.499 . S
C2374 H2348 0.950 . S
C2374 C2373 1.414 . S
C2374 C2375 1.374 . S
C2375 H2349 0.950 . S
C2375 C2371 1.385 . S
C2375 C2374 1.374 . S
C2376 C2373 1.499 . S
C2376 C2377 1.373 . S
C2376 C2378 1.389 . S
C2377 H2350 0.950 . S
C2377 C2363 1.377 . S
C2377 C2376 1.373 . S
C2378 C2362 1.377 . S
C2378 C2376 1.389 . S
C2378 C2379 1.524 . S
C2379 C2378 1.524 . S
C2379 C2380 1.397 . S
C2379 C2384 1.363 . S
C2380 H2351 0.950 . S
C2380 C2379 1.397 . S
C2380 C2381 1.334 . S
C2381 H2352 0.950 . S
C2381 C2380 1.334 . S
C2381 C2382 1.287 . S
C2382 C2381 1.287 . S
C2382 C2383 1.524 . S
C2382 H2385 0.999 . S
C2383 H2353 0.950 . S
C2383 C2382 1.524 . S
C2383 C2384 1.415 . S
C2384 H2354 0.950 . S
C2384 C2379 1.363 . S
C2384 C2383 1.415 . S
H2385 C2382 0.999 . S
H2386 C2367 0.913 . S
H2387 C2405 0.951 . S
H2388 C2407 0.951 . S
H2389 C2409 0.950 . S
H2390 C2410 0.950 . S
H2391 C2412 0.950 . S
H2392 C2415 0.950 . S
H2393 C2416 0.950 . S
H2394 C2418 0.950 . S
H2395 C2419 0.950 . S
H2396 C2420 0.951 . S
H2397 C2422 0.951 . S
H2398 C2424 0.950 . S
H2399 C2425 0.950 . S
H2400 C2427 0.950 . S
H2401 C2430 0.950 . S
H2402 C2431 0.950 . S
H2403 C2433 0.950 . S
H2404 C2434 0.950 . S
C2405 H2387 0.951 . S
C2405 C2406 1.366 . S
C2405 C2407 1.388 . S
C2406 C2405 1.366 . S
C2406 C2410 1.385 . S
C2407 H2388 0.951 . S
C2407 C2405 1.388 . S
C2407 C2408 1.366 . S
C2408 C2407 1.366 . S
C2408 C2409 1.414 . S
C2408 C2411 1.499 . S
C2409 H2389 0.950 . S
C2409 C2408 1.414 . S
C2409 C2410 1.374 . S
C2410 H2390 0.950 . S
C2410 C2406 1.385 . S
C2410 C2409 1.374 . S
C2411 C2408 1.499 . S
C2411 C2412 1.373 . S
C2411 C2413 1.389 . S
C2412 H2391 0.950 . S
C2412 C2411 1.373 . S
C2412 C2428 1.377 . S
C2413 C2411 1.389 . S
C2413 C2414 1.524 . S
C2413 C2427 1.377 . S
C2414 C2413 1.524 . S
C2414 C2415 1.397 . S
C2414 C2419 1.363 . S
C2415 H2392 0.950 . S
C2415 C2414 1.397 . S
C2415 C2416 1.334 . S
C2416 H2393 0.950 . S
C2416 C2415 1.334 . S
C2416 C2417 1.287 . S
C2417 C2416 1.287 . S
C2417 C2418 1.524 . S
C2417 H2436 0.913 . S
C2418 H2394 0.950 . S
C2418 C2417 1.524 . S
C2418 C2419 1.415 . S
C2419 H2395 0.950 . S
C2419 C2414 1.363 . S
C2419 C2418 1.415 . S
C2420 H2396 0.951 . S
C2420 C2421 1.366 . S
C2420 C2422 1.388 . S
C2421 C2420 1.366 . S
C2421 C2425 1.385 . S
C2422 H2397 0.951 . S
C2422 C2420 1.388 . S
C2422 C2423 1.366 . S
C2423 C2422 1.366 . S
C2423 C2424 1.414 . S
C2423 C2426 1.499 . S
C2424 H2398 0.950 . S
C2424 C2423 1.414 . S
C2424 C2425 1.374 . S
C2425 H2399 0.950 . S
C2425 C2421 1.385 . S
C2425 C2424 1.374 . S
C2426 C2423 1.499 . S
C2426 C2427 1.373 . S
C2426 C2428 1.389 . S
C2427 H2400 0.950 . S
C2427 C2413 1.377 . S
C2427 C2426 1.373 . S
C2428 C2412 1.377 . S
C2428 C2426 1.389 . S
C2428 C2429 1.524 . S
C2429 C2428 1.524 . S
C2429 C2430 1.397 . S
C2429 C2434 1.363 . S
C2430 H2401 0.950 . S
C2430 C2429 1.397 . S
C2430 C2431 1.334 . S
C2431 H2402 0.950 . S
C2431 C2430 1.334 . S
C2431 C2432 1.287 . S
C2432 C2431 1.287 . S
C2432 C2433 1.524 . S
C2432 H2435 0.999 . S
C2433 H2403 0.950 . S
C2433 C2432 1.524 . S
C2433 C2434 1.415 . S
C2434 H2404 0.950 . S
C2434 C2429 1.363 . S
C2434 C2433 1.415 . S
H2435 C2432 0.999 . S
H2436 C2417 0.913 . S
H2437 C2455 0.951 . S
H2438 C2457 0.951 . S
H2439 C2459 0.950 . S
H2440 C2460 0.950 . S
H2441 C2462 0.950 . S
H2442 C2465 0.950 . S
H2443 C2466 0.950 . S
H2444 C2468 0.950 . S
H2445 C2469 0.950 . S
H2446 C2470 0.951 . S
H2447 C2472 0.951 . S
H2448 C2474 0.950 . S
H2449 C2475 0.950 . S
H2450 C2477 0.950 . S
H2451 C2480 0.950 . S
H2452 C2481 0.950 . S
H2453 C2483 0.950 . S
H2454 C2484 0.950 . S
C2455 H2437 0.951 . S
C2455 C2456 1.366 . S
C2455 C2457 1.388 . S
C2456 C2455 1.366 . S
C2456 C2460 1.385 . S
C2457 H2438 0.951 . S
C2457 C2455 1.388 . S
C2457 C2458 1.366 . S
C2458 C2457 1.366 . S
C2458 C2459 1.414 . S
C2458 C2461 1.499 1_565 S
C2459 H2439 0.950 . S
C2459 C2458 1.414 . S
C2459 C2460 1.374 . S
C2460 H2440 0.950 . S
C2460 C2456 1.385 . S
C2460 C2459 1.374 . S
C2461 C2458 1.499 1_545 S
C2461 C2462 1.373 . S
C2461 C2463 1.389 . S
C2462 H2441 0.950 . S
C2462 C2461 1.373 . S
C2462 C2478 1.377 . S
C2463 C2461 1.389 . S
C2463 C2464 1.524 . S
C2463 C2477 1.377 . S
C2464 C2463 1.524 . S
C2464 C2465 1.397 1_545 S
C2464 C2469 1.363 . S
C2465 H2442 0.950 . S
C2465 C2464 1.397 1_565 S
C2465 C2466 1.334 . S
C2466 H2443 0.950 . S
C2466 C2465 1.334 . S
C2466 C2467 1.287 . S
C2467 C2466 1.287 . S
C2467 C2468 1.524 1_565 S
C2467 H2486 0.913 . S
C2468 H2444 0.950 . S
C2468 C2467 1.524 1_545 S
C2468 C2469 1.415 . S
C2469 H2445 0.950 . S
C2469 C2464 1.363 . S
C2469 C2468 1.415 . S
C2470 H2446 0.951 . S
C2470 C2471 1.366 . S
C2470 C2472 1.388 . S
C2471 C2470 1.366 . S
C2471 C2475 1.385 . S
C2472 H2447 0.951 . S
C2472 C2470 1.388 . S
C2472 C2473 1.366 . S
C2473 C2472 1.366 . S
C2473 C2474 1.414 . S
C2473 C2476 1.499 . S
C2474 H2448 0.950 . S
C2474 C2473 1.414 . S
C2474 C2475 1.374 . S
C2475 H2449 0.950 . S
C2475 C2471 1.385 . S
C2475 C2474 1.374 . S
C2476 C2473 1.499 . S
C2476 C2477 1.373 . S
C2476 C2478 1.389 . S
C2477 H2450 0.950 . S
C2477 C2463 1.377 . S
C2477 C2476 1.373 . S
C2478 C2462 1.377 . S
C2478 C2476 1.389 . S
C2478 C2479 1.524 . S
C2479 C2478 1.524 . S
C2479 C2480 1.397 . S
C2479 C2484 1.363 . S
C2480 H2451 0.950 . S
C2480 C2479 1.397 . S
C2480 C2481 1.334 . S
C2481 H2452 0.950 . S
C2481 C2480 1.334 . S
C2481 C2482 1.287 . S
C2482 C2481 1.287 . S
C2482 C2483 1.524 . S
C2482 H2485 0.999 . S
C2483 H2453 0.950 . S
C2483 C2482 1.524 . S
C2483 C2484 1.415 . S
C2484 H2454 0.950 . S
C2484 C2479 1.363 . S
C2484 C2483 1.415 . S
H2485 C2482 0.999 . S
H2486 C2467 0.913 . S
H2487 C2505 0.951 . S
H2488 C2507 0.951 . S
H2489 C2509 0.950 . S
H2490 C2510 0.950 . S
H2491 C2512 0.950 . S
H2492 C2515 0.950 . S
H2493 C2516 0.950 . S
H2494 C2518 0.950 . S
H2495 C2519 0.950 . S
H2496 C2520 0.951 . S
H2497 C2522 0.951 . S
H2498 C2524 0.950 . S
H2499 C2525 0.950 . S
H2500 C2527 0.950 . S
H2501 C2530 0.950 . S
H2502 C2531 0.950 . S
H2503 C2533 0.950 . S
H2504 C2534 0.950 . S
C2505 H2487 0.951 . S
C2505 C2506 1.366 . S
C2505 C2507 1.388 . S
C2506 C2505 1.366 . S
C2506 C2510 1.385 . S
C2507 H2488 0.951 . S
C2507 C2505 1.388 . S
C2507 C2508 1.366 . S
C2508 C2507 1.366 . S
C2508 C2509 1.414 . S
C2508 C2511 1.499 . S
C2509 H2489 0.950 . S
C2509 C2508 1.414 . S
C2509 C2510 1.374 . S
C2510 H2490 0.950 . S
C2510 C2506 1.385 . S
C2510 C2509 1.374 . S
C2511 C2508 1.499 . S
C2511 C2512 1.373 . S
C2511 C2513 1.389 . S
C2512 H2491 0.950 . S
C2512 C2511 1.373 . S
C2512 C2528 1.377 . S
C2513 C2511 1.389 . S
C2513 C2514 1.524 . S
C2513 C2527 1.377 . S
C2514 C2513 1.524 . S
C2514 C2515 1.397 . S
C2514 C2519 1.363 . S
C2515 H2492 0.950 . S
C2515 C2514 1.397 . S
C2515 C2516 1.334 . S
C2516 H2493 0.950 . S
C2516 C2515 1.334 . S
C2516 C2517 1.287 . S
C2517 C2516 1.287 . S
C2517 C2518 1.524 . S
C2517 H2536 0.913 . S
C2518 H2494 0.950 . S
C2518 C2517 1.524 . S
C2518 C2519 1.415 . S
C2519 H2495 0.950 . S
C2519 C2514 1.363 . S
C2519 C2518 1.415 . S
C2520 H2496 0.951 . S
C2520 C2521 1.366 . S
C2520 C2522 1.388 . S
C2521 C2520 1.366 . S
C2521 C2525 1.385 . S
C2522 H2497 0.951 . S
C2522 C2520 1.388 . S
C2522 C2523 1.366 . S
C2523 C2522 1.366 . S
C2523 C2524 1.414 . S
C2523 C2526 1.499 . S
C2524 H2498 0.950 . S
C2524 C2523 1.414 . S
C2524 C2525 1.374 . S
C2525 H2499 0.950 . S
C2525 C2521 1.385 . S
C2525 C2524 1.374 . S
C2526 C2523 1.499 . S
C2526 C2527 1.373 . S
C2526 C2528 1.389 . S
C2527 H2500 0.950 . S
C2527 C2513 1.377 . S
C2527 C2526 1.373 . S
C2528 C2512 1.377 . S
C2528 C2526 1.389 . S
C2528 C2529 1.524 . S
C2529 C2528 1.524 . S
C2529 C2530 1.397 . S
C2529 C2534 1.363 . S
C2530 H2501 0.950 . S
C2530 C2529 1.397 . S
C2530 C2531 1.334 . S
C2531 H2502 0.950 . S
C2531 C2530 1.334 . S
C2531 C2532 1.287 . S
C2532 C2531 1.287 . S
C2532 C2533 1.524 . S
C2532 H2535 0.999 . S
C2533 H2503 0.950 . S
C2533 C2532 1.524 . S
C2533 C2534 1.415 . S
C2534 H2504 0.950 . S
C2534 C2529 1.363 . S
C2534 C2533 1.415 . S
H2535 C2532 0.999 . S
H2536 C2517 0.913 . S
H2537 C2555 0.951 . S
H2538 C2557 0.951 . S
H2539 C2559 0.950 . S
H2540 C2560 0.950 . S
H2541 C2562 0.950 . S
H2542 C2565 0.950 . S
H2543 C2566 0.950 . S
H2544 C2568 0.950 . S
H2545 C2569 0.950 . S
H2546 C2570 0.951 . S
H2547 C2572 0.951 . S
H2548 C2574 0.950 . S
H2549 C2575 0.950 . S
H2550 C2577 0.950 . S
H2551 C2580 0.950 . S
H2552 C2581 0.950 . S
H2553 C2583 0.950 . S
H2554 C2584 0.950 . S
C2555 H2537 0.951 . S
C2555 C2556 1.366 . S
C2555 C2557 1.388 . S
C2556 C2555 1.366 . S
C2556 C2560 1.385 . S
C2557 H2538 0.951 . S
C2557 C2555 1.388 . S
C2557 C2558 1.366 . S
C2558 C2557 1.366 . S
C2558 C2559 1.414 . S
C2558 C2561 1.499 . S
C2559 H2539 0.950 . S
C2559 C2558 1.414 . S
C2559 C2560 1.374 . S
C2560 H2540 0.950 . S
C2560 C2556 1.385 . S
C2560 C2559 1.374 . S
C2561 C2558 1.499 . S
C2561 C2562 1.373 . S
C2561 C2563 1.389 . S
C2562 H2541 0.950 . S
C2562 C2561 1.373 . S
C2562 C2578 1.377 . S
C2563 C2561 1.389 . S
C2563 C2564 1.524 . S
C2563 C2577 1.377 . S
C2564 C2563 1.524 . S
C2564 C2565 1.397 . S
C2564 C2569 1.363 . S
C2565 H2542 0.950 . S
C2565 C2564 1.397 . S
C2565 C2566 1.334 . S
C2566 H2543 0.950 . S
C2566 C2565 1.334 . S
C2566 C2567 1.287 . S
C2567 C2566 1.287 . S
C2567 C2568 1.524 . S
C2567 H2586 0.913 . S
C2568 H2544 0.950 . S
C2568 C2567 1.524 . S
C2568 C2569 1.415 . S
C2569 H2545 0.950 . S
C2569 C2564 1.363 . S
C2569 C2568 1.415 . S
C2570 H2546 0.951 . S
C2570 C2571 1.366 . S
C2570 C2572 1.388 . S
C2571 C2570 1.366 . S
C2571 C2575 1.385 . S
C2572 H2547 0.951 . S
C2572 C2570 1.388 . S
C2572 C2573 1.366 . S
C2573 C2572 1.366 . S
C2573 C2574 1.414 . S
C2573 C2576 1.499 . S
C2574 H2548 0.950 . S
C2574 C2573 1.414 . S
C2574 C2575 1.374 . S
C2575 H2549 0.950 . S
C2575 C2571 1.385 . S
C2575 C2574 1.374 . S
C2576 C2573 1.499 . S
C2576 C2577 1.373 . S
C2576 C2578 1.389 . S
C2577 H2550 0.950 . S
C2577 C2563 1.377 . S
C2577 C2576 1.373 . S
C2578 C2562 1.377 . S
C2578 C2576 1.389 . S
C2578 C2579 1.524 . S
C2579 C2578 1.524 . S
C2579 C2580 1.397 . S
C2579 C2584 1.363 . S
C2580 H2551 0.950 . S
C2580 C2579 1.397 . S
C2580 C2581 1.334 . S
C2581 H2552 0.950 . S
C2581 C2580 1.334 . S
C2581 C2582 1.287 . S
C2582 C2581 1.287 . S
C2582 C2583 1.524 . S
C2582 H2585 0.999 . S
C2583 H2553 0.950 . S
C2583 C2582 1.524 . S
C2583 C2584 1.415 . S
C2584 H2554 0.950 . S
C2584 C2579 1.363 . S
C2584 C2583 1.415 . S
H2585 C2582 0.999 . S
H2586 C2567 0.913 . S
H2587 C2605 0.951 . S
H2588 C2607 0.951 . S
H2589 C2609 0.950 . S
H2590 C2610 0.950 . S
H2591 C2612 0.950 . S
H2592 C2615 0.950 . S
H2593 C2616 0.950 . S
H2594 C2618 0.950 . S
H2595 C2619 0.950 . S
H2596 C2620 0.951 . S
H2597 C2622 0.951 . S
H2598 C2624 0.950 . S
H2599 C2625 0.950 . S
H2600 C2627 0.950 . S
H2601 C2630 0.950 . S
H2602 C2631 0.950 . S
H2603 C2633 0.950 . S
H2604 C2634 0.950 . S
C2605 H2587 0.951 . S
C2605 C2606 1.366 . S
C2605 C2607 1.388 . S
C2606 C2605 1.366 . S
C2606 C2610 1.385 . S
C2607 H2588 0.951 . S
C2607 C2605 1.388 . S
C2607 C2608 1.366 . S
C2608 C2607 1.366 . S
C2608 C2609 1.414 . S
C2608 C2611 1.499 . S
C2609 H2589 0.950 . S
C2609 C2608 1.414 . S
C2609 C2610 1.374 . S
C2610 H2590 0.950 . S
C2610 C2606 1.385 . S
C2610 C2609 1.374 . S
C2611 C2608 1.499 . S
C2611 C2612 1.373 . S
C2611 C2613 1.389 . S
C2612 H2591 0.950 . S
C2612 C2611 1.373 . S
C2612 C2628 1.377 . S
C2613 C2611 1.389 . S
C2613 C2614 1.524 . S
C2613 C2627 1.377 . S
C2614 C2613 1.524 . S
C2614 C2615 1.397 . S
C2614 C2619 1.363 . S
C2615 H2592 0.950 . S
C2615 C2614 1.397 . S
C2615 C2616 1.334 . S
C2616 H2593 0.950 . S
C2616 C2615 1.334 . S
C2616 C2617 1.287 . S
C2617 C2616 1.287 . S
C2617 C2618 1.524 . S
C2617 H2636 0.913 . S
C2618 H2594 0.950 . S
C2618 C2617 1.524 . S
C2618 C2619 1.415 . S
C2619 H2595 0.950 . S
C2619 C2614 1.363 . S
C2619 C2618 1.415 . S
C2620 H2596 0.951 . S
C2620 C2621 1.366 . S
C2620 C2622 1.388 . S
C2621 C2620 1.366 . S
C2621 C2625 1.385 . S
C2622 H2597 0.951 . S
C2622 C2620 1.388 . S
C2622 C2623 1.366 . S
C2623 C2622 1.366 . S
C2623 C2624 1.414 . S
C2623 C2626 1.499 . S
C2624 H2598 0.950 . S
C2624 C2623 1.414 . S
C2624 C2625 1.374 . S
C2625 H2599 0.950 . S
C2625 C2621 1.385 . S
C2625 C2624 1.374 . S
C2626 C2623 1.499 . S
C2626 C2627 1.373 . S
C2626 C2628 1.389 . S
C2627 H2600 0.950 . S
C2627 C2613 1.377 . S
C2627 C2626 1.373 . S
C2628 C2612 1.377 . S
C2628 C2626 1.389 . S
C2628 C2629 1.524 . S
C2629 C2628 1.524 . S
C2629 C2630 1.397 . S
C2629 C2634 1.363 . S
C2630 H2601 0.950 . S
C2630 C2629 1.397 . S
C2630 C2631 1.334 . S
C2631 H2602 0.950 . S
C2631 C2630 1.334 . S
C2631 C2632 1.287 . S
C2632 C2631 1.287 . S
C2632 C2633 1.524 . S
C2632 H2635 0.999 . S
C2633 H2603 0.950 . S
C2633 C2632 1.524 . S
C2633 C2634 1.415 . S
C2634 H2604 0.950 . S
C2634 C2629 1.363 . S
C2634 C2633 1.415 . S
H2635 C2632 0.999 . S
H2636 C2617 0.913 . S
H2637 C2655 0.951 . S
H2638 C2657 0.951 . S
H2639 C2659 0.950 . S
H2640 C2660 0.950 . S
H2641 C2662 0.950 . S
H2642 C2665 0.950 . S
H2643 C2666 0.950 . S
H2644 C2668 0.950 . S
H2645 C2669 0.950 . S
H2646 C2670 0.951 . S
H2647 C2672 0.951 . S
H2648 C2674 0.950 . S
H2649 C2675 0.947 . S
H2650 C2677 0.950 1_545 S
H2651 C2680 0.950 . S
H2652 C2681 0.950 . S
H2653 C2683 0.950 . S
H2654 C2684 0.950 . S
C2655 H2637 0.951 . S
C2655 C2656 1.366 . S
C2655 C2657 1.388 . S
C2656 C2655 1.366 . S
C2656 C2660 1.385 . S
C2657 H2638 0.951 . S
C2657 C2655 1.388 . S
C2657 C2658 1.366 . S
C2658 C2657 1.366 . S
C2658 C2659 1.414 . S
C2658 C2661 1.499 . S
C2659 H2639 0.950 . S
C2659 C2658 1.414 . S
C2659 C2660 1.374 . S
C2660 H2640 0.950 . S
C2660 C2656 1.385 . S
C2660 C2659 1.374 . S
C2661 C2658 1.499 . S
C2661 C2662 1.373 . S
C2661 C2663 1.389 . S
C2662 H2641 0.950 . S
C2662 C2661 1.373 . S
C2662 C2678 1.377 . S
C2663 C2661 1.389 . S
C2663 C2664 1.524 1_565 S
C2663 C2677 1.377 . S
C2664 C2663 1.524 1_545 S
C2664 C2665 1.397 . S
C2664 C2669 1.363 . S
C2665 H2642 0.950 . S
C2665 C2664 1.397 . S
C2665 C2666 1.334 . S
C2666 H2643 0.950 . S
C2666 C2665 1.334 . S
C2666 C2667 1.287 . S
C2667 C2666 1.287 . S
C2667 C2668 1.524 . S
C2667 H2686 0.913 . S
C2668 H2644 0.950 . S
C2668 C2667 1.524 . S
C2668 C2669 1.415 . S
C2669 H2645 0.950 . S
C2669 C2664 1.363 . S
C2669 C2668 1.415 . S
C2670 H2646 0.951 . S
C2670 C2671 1.364 1_565 S
C2670 C2672 1.388 . S
C2671 C2670 1.364 1_545 S
C2671 C2675 1.387 1_545 S
C2672 H2647 0.951 . S
C2672 C2670 1.388 . S
C2672 C2673 1.366 . S
C2673 C2672 1.366 . S
C2673 C2674 1.414 . S
C2673 C2676 1.499 . S
C2674 H2648 0.950 . S
C2674 C2673 1.414 . S
C2674 C2675 1.374 . S
C2675 H2649 0.947 . S
C2675 C2671 1.387 1_565 S
C2675 C2674 1.374 . S
C2676 C2673 1.499 . S
C2676 C2677 1.373 . S
C2676 C2678 1.389 . S
C2677 H2650 0.950 1_565 S
C2677 C2663 1.377 . S
C2677 C2676 1.373 . S
C2678 C2662 1.377 . S
C2678 C2676 1.389 . S
C2678 C2679 1.524 . S
C2679 C2678 1.524 . S
C2679 C2680 1.397 . S
C2679 C2684 1.363 . S
C2680 H2651 0.950 . S
C2680 C2679 1.397 . S
C2680 C2681 1.334 . S
C2681 H2652 0.950 . S
C2681 C2680 1.334 . S
C2681 C2682 1.287 . S
C2682 C2681 1.287 . S
C2682 C2683 1.524 . S
C2682 H2685 0.999 . S
C2683 H2653 0.950 . S
C2683 C2682 1.524 . S
C2683 C2684 1.415 . S
C2684 H2654 0.950 . S
C2684 C2679 1.363 . S
C2684 C2683 1.415 . S
H2685 C2682 0.999 . S
H2686 C2667 0.913 . S
H2687 C2705 0.951 . S
H2688 C2707 0.951 . S
H2689 C2709 0.950 . S
H2690 C2710 0.950 . S
H2691 C2712 0.950 . S
H2692 C2715 0.950 . S
H2693 C2716 0.950 . S
H2694 C2718 0.950 . S
H2695 C2719 0.950 . S
H2696 C2720 0.951 . S
H2697 C2722 0.951 . S
H2698 C2724 0.950 . S
H2699 C2725 0.950 . S
H2700 C2727 0.950 . S
H2701 C2730 0.950 . S
H2702 C2731 0.950 . S
H2703 C2733 0.950 . S
H2704 C2734 0.950 . S
C2705 H2687 0.951 . S
C2705 C2706 1.366 . S
C2705 C2707 1.388 . S
C2706 C2705 1.366 . S
C2706 C2710 1.385 . S
C2707 H2688 0.951 . S
C2707 C2705 1.388 . S
C2707 C2708 1.366 . S
C2708 C2707 1.366 . S
C2708 C2709 1.414 . S
C2708 C2711 1.499 . S
C2709 H2689 0.950 . S
C2709 C2708 1.414 . S
C2709 C2710 1.374 . S
C2710 H2690 0.950 . S
C2710 C2706 1.385 . S
C2710 C2709 1.374 . S
C2711 C2708 1.499 . S
C2711 C2712 1.373 . S
C2711 C2713 1.389 . S
C2712 H2691 0.950 . S
C2712 C2711 1.373 . S
C2712 C2728 1.377 . S
C2713 C2711 1.389 . S
C2713 C2714 1.524 . S
C2713 C2727 1.377 . S
C2714 C2713 1.524 . S
C2714 C2715 1.397 . S
C2714 C2719 1.363 . S
C2715 H2692 0.950 . S
C2715 C2714 1.397 . S
C2715 C2716 1.334 . S
C2716 H2693 0.950 . S
C2716 C2715 1.334 . S
C2716 C2717 1.287 . S
C2717 C2716 1.287 . S
C2717 C2718 1.524 . S
C2717 H2736 0.913 . S
C2718 H2694 0.950 . S
C2718 C2717 1.524 . S
C2718 C2719 1.415 . S
C2719 H2695 0.950 . S
C2719 C2714 1.363 . S
C2719 C2718 1.415 . S
C2720 H2696 0.951 . S
C2720 C2721 1.366 1_655 S
C2720 C2722 1.388 . S
C2721 C2720 1.366 1_455 S
C2721 C2725 1.385 . S
C2722 H2697 0.951 . S
C2722 C2720 1.388 . S
C2722 C2723 1.366 1_655 S
C2723 C2722 1.366 1_455 S
C2723 C2724 1.414 . S
C2723 C2726 1.499 . S
C2724 H2698 0.950 . S
C2724 C2723 1.414 . S
C2724 C2725 1.374 . S
C2725 H2699 0.950 . S
C2725 C2721 1.385 . S
C2725 C2724 1.374 . S
C2726 C2723 1.499 . S
C2726 C2727 1.373 . S
C2726 C2728 1.389 . S
C2727 H2700 0.950 . S
C2727 C2713 1.377 . S
C2727 C2726 1.373 . S
C2728 C2712 1.377 . S
C2728 C2726 1.389 . S
C2728 C2729 1.524 . S
C2729 C2728 1.524 . S
C2729 C2730 1.397 . S
C2729 C2734 1.363 1_455 S
C2730 H2701 0.950 . S
C2730 C2729 1.397 . S
C2730 C2731 1.334 . S
C2731 H2702 0.950 . S
C2731 C2730 1.334 . S
C2731 C2732 1.287 . S
C2732 C2731 1.287 . S
C2732 C2733 1.524 1_455 S
C2732 H2735 0.999 . S
C2733 H2703 0.950 . S
C2733 C2732 1.524 1_655 S
C2733 C2734 1.415 . S
C2734 H2704 0.950 . S
C2734 C2729 1.363 1_655 S
C2734 C2733 1.415 . S
H2735 C2732 0.999 . S
H2736 C2717 0.913 . S
H2737 C2755 0.951 . S
H2738 C2757 0.951 . S
H2739 C2759 0.950 . S
H2740 C2760 0.950 . S
H2741 C2762 0.950 . S
H2742 C2765 0.950 . S
H2743 C2766 0.950 . S
H2744 C2768 0.950 . S
H2745 C2769 0.950 . S
H2746 C2770 0.951 . S
H2747 C2772 0.951 . S
H2748 C2774 0.950 . S
H2749 C2775 0.950 . S
H2750 C2777 0.950 . S
H2751 C2780 0.950 . S
H2752 C2781 0.950 . S
H2753 C2783 0.950 . S
H2754 C2784 0.950 . S
C2755 H2737 0.951 . S
C2755 C2756 1.366 . S
C2755 C2757 1.388 . S
C2756 C2755 1.366 . S
C2756 C2760 1.385 . S
C2757 H2738 0.951 . S
C2757 C2755 1.388 . S
C2757 C2758 1.366 . S
C2758 C2757 1.366 . S
C2758 C2759 1.414 . S
C2758 C2761 1.499 . S
C2759 H2739 0.950 . S
C2759 C2758 1.414 . S
C2759 C2760 1.374 . S
C2760 H2740 0.950 . S
C2760 C2756 1.385 . S
C2760 C2759 1.374 . S
C2761 C2758 1.499 . S
C2761 C2762 1.373 . S
C2761 C2763 1.389 . S
C2762 H2741 0.950 . S
C2762 C2761 1.373 . S
C2762 C2778 1.377 . S
C2763 C2761 1.389 . S
C2763 C2764 1.524 . S
C2763 C2777 1.377 . S
C2764 C2763 1.524 . S
C2764 C2765 1.397 . S
C2764 C2769 1.363 . S
C2765 H2742 0.950 . S
C2765 C2764 1.397 . S
C2765 C2766 1.334 . S
C2766 H2743 0.950 . S
C2766 C2765 1.334 . S
C2766 C2767 1.287 . S
C2767 C2766 1.287 . S
C2767 C2768 1.524 . S
C2767 H2786 0.913 . S
C2768 H2744 0.950 . S
C2768 C2767 1.524 . S
C2768 C2769 1.415 . S
C2769 H2745 0.950 . S
C2769 C2764 1.363 . S
C2769 C2768 1.415 . S
C2770 H2746 0.951 . S
C2770 C2771 1.366 . S
C2770 C2772 1.388 . S
C2771 C2770 1.366 . S
C2771 C2775 1.385 . S
C2772 H2747 0.951 . S
C2772 C2770 1.388 . S
C2772 C2773 1.366 . S
C2773 C2772 1.366 . S
C2773 C2774 1.414 . S
C2773 C2776 1.499 . S
C2774 H2748 0.950 . S
C2774 C2773 1.414 . S
C2774 C2775 1.374 . S
C2775 H2749 0.950 . S
C2775 C2771 1.385 . S
C2775 C2774 1.374 . S
C2776 C2773 1.499 . S
C2776 C2777 1.373 . S
C2776 C2778 1.389 . S
C2777 H2750 0.950 . S
C2777 C2763 1.377 . S
C2777 C2776 1.373 . S
C2778 C2762 1.377 . S
C2778 C2776 1.389 . S
C2778 C2779 1.524 . S
C2779 C2778 1.524 . S
C2779 C2780 1.397 . S
C2779 C2784 1.363 . S
C2780 H2751 0.950 . S
C2780 C2779 1.397 . S
C2780 C2781 1.334 . S
C2781 H2752 0.950 . S
C2781 C2780 1.334 . S
C2781 C2782 1.287 . S
C2782 C2781 1.287 . S
C2782 C2783 1.524 . S
C2782 H2785 0.999 . S
C2783 H2753 0.950 . S
C2783 C2782 1.524 . S
C2783 C2784 1.415 . S
C2784 H2754 0.950 . S
C2784 C2779 1.363 . S
C2784 C2783 1.415 . S
H2785 C2782 0.999 . S
H2786 C2767 0.913 . S
H2787 C2805 0.951 . S
H2788 C2807 0.951 . S
H2789 C2809 0.922 1_455 S
H2790 C2810 0.950 . S
H2791 C2812 0.944 1_455 S
H2792 C2815 0.950 . S
H2793 C2816 0.950 . S
H2794 C2818 0.950 . S
H2795 C2819 0.950 . S
H2796 C2820 0.951 . S
H2797 C2822 0.951 . S
H2798 C2824 0.950 . S
H2799 C2825 0.950 . S
H2800 C2827 0.950 . S
H2801 C2830 0.950 1_655 S
H2802 C2831 0.950 . S
H2803 C2833 0.950 . S
H2804 C2834 0.950 . S
C2805 H2787 0.951 . S
C2805 C2806 1.366 . S
C2805 C2807 1.388 . S
C2806 C2805 1.366 . S
C2806 C2810 1.385 . S
C2807 H2788 0.951 . S
C2807 C2805 1.388 . S
C2807 C2808 1.366 . S
C2808 C2807 1.366 . S
C2808 C2809 1.414 . S
C2808 C2811 1.499 . S
C2809 H2789 0.922 1_655 S
C2809 C2808 1.414 . S
C2809 C2810 1.374 . S
C2810 H2790 0.950 . S
C2810 C2806 1.385 . S
C2810 C2809 1.374 . S
C2811 C2808 1.499 . S
C2811 C2812 1.373 . S
C2811 C2813 1.389 . S
C2812 H2791 0.944 1_655 S
C2812 C2811 1.373 . S
C2812 C2828 1.377 . S
C2813 C2811 1.389 . S
C2813 C2814 1.524 . S
C2813 C2827 1.377 . S
C2814 C2813 1.524 . S
C2814 C2815 1.397 . S
C2814 C2819 1.363 . S
C2815 H2792 0.950 . S
C2815 C2814 1.397 . S
C2815 C2816 1.334 . S
C2816 H2793 0.950 . S
C2816 C2815 1.334 . S
C2816 C2817 1.287 . S
C2817 C2816 1.287 . S
C2817 C2818 1.524 . S
C2817 H2836 0.913 . S
C2818 H2794 0.950 . S
C2818 C2817 1.524 . S
C2818 C2819 1.415 . S
C2819 H2795 0.950 . S
C2819 C2814 1.363 . S
C2819 C2818 1.415 . S
C2820 H2796 0.951 . S
C2820 C2821 1.366 1_455 S
C2820 C2822 1.388 . S
C2821 C2820 1.366 1_655 S
C2821 C2825 1.385 . S
C2822 H2797 0.951 . S
C2822 C2820 1.388 . S
C2822 C2823 1.366 1_455 S
C2823 C2822 1.366 1_655 S
C2823 C2824 1.414 . S
C2823 C2826 1.499 . S
C2824 H2798 0.950 . S
C2824 C2823 1.414 . S
C2824 C2825 1.374 . S
C2825 H2799 0.950 . S
C2825 C2821 1.385 . S
C2825 C2824 1.374 . S
C2826 C2823 1.499 . S
C2826 C2827 1.373 . S
C2826 C2828 1.389 . S
C2827 H2800 0.950 . S
C2827 C2813 1.377 . S
C2827 C2826 1.373 . S
C2828 C2812 1.377 . S
C2828 C2826 1.389 . S
C2828 C2829 1.524 1_655 S
C2829 C2828 1.524 1_455 S
C2829 C2830 1.397 . S
C2829 C2834 1.363 . S
C2830 H2801 0.950 1_455 S
C2830 C2829 1.397 . S
C2830 C2831 1.334 . S
C2831 H2802 0.950 . S
C2831 C2830 1.334 . S
C2831 C2832 1.287 . S
C2832 C2831 1.287 . S
C2832 C2833 1.524 . S
C2832 H2835 0.999 . S
C2833 H2803 0.950 . S
C2833 C2832 1.524 . S
C2833 C2834 1.415 . S
C2834 H2804 0.950 . S
C2834 C2829 1.363 . S
C2834 C2833 1.415 . S
H2835 C2832 0.999 . S
H2836 C2817 0.913 . S
H2837 C2855 0.951 . S
H2838 C2857 0.951 . S
H2839 C2859 0.950 . S
H2840 C2860 0.950 . S
H2841 C2862 0.950 . S
H2842 C2865 0.950 . S
H2843 C2866 0.950 . S
H2844 C2868 0.950 . S
H2845 C2869 0.950 . S
H2846 C2870 0.951 . S
H2847 C2872 0.951 . S
H2848 C2874 0.950 . S
H2849 C2875 0.950 . S
H2850 C2877 0.950 . S
H2851 C2880 0.950 . S
H2852 C2881 0.950 . S
H2853 C2883 0.950 . S
H2854 C2884 0.950 . S
C2855 H2837 0.951 . S
C2855 C2856 1.366 . S
C2855 C2857 1.388 . S
C2856 C2855 1.366 . S
C2856 C2860 1.385 . S
C2857 H2838 0.951 . S
C2857 C2855 1.388 . S
C2857 C2858 1.366 . S
C2858 C2857 1.366 . S
C2858 C2859 1.414 . S
C2858 C2861 1.499 . S
C2859 H2839 0.950 . S
C2859 C2858 1.414 . S
C2859 C2860 1.374 . S
C2860 H2840 0.950 . S
C2860 C2856 1.385 . S
C2860 C2859 1.374 . S
C2861 C2858 1.499 . S
C2861 C2862 1.373 . S
C2861 C2863 1.389 . S
C2862 H2841 0.950 . S
C2862 C2861 1.373 . S
C2862 C2878 1.377 . S
C2863 C2861 1.389 . S
C2863 C2864 1.524 . S
C2863 C2877 1.377 . S
C2864 C2863 1.524 . S
C2864 C2865 1.397 . S
C2864 C2869 1.363 . S
C2865 H2842 0.950 . S
C2865 C2864 1.397 . S
C2865 C2866 1.334 . S
C2866 H2843 0.950 . S
C2866 C2865 1.334 . S
C2866 C2867 1.287 . S
C2867 C2866 1.287 . S
C2867 C2868 1.524 . S
C2867 H2886 0.913 . S
C2868 H2844 0.950 . S
C2868 C2867 1.524 . S
C2868 C2869 1.415 . S
C2869 H2845 0.950 . S
C2869 C2864 1.363 . S
C2869 C2868 1.415 . S
C2870 H2846 0.951 . S
C2870 C2871 1.366 . S
C2870 C2872 1.388 . S
C2871 C2870 1.366 . S
C2871 C2875 1.385 . S
C2872 H2847 0.951 . S
C2872 C2870 1.388 . S
C2872 C2873 1.366 . S
C2873 C2872 1.366 . S
C2873 C2874 1.414 . S
C2873 C2876 1.499 . S
C2874 H2848 0.950 . S
C2874 C2873 1.414 . S
C2874 C2875 1.374 . S
C2875 H2849 0.950 . S
C2875 C2871 1.385 . S
C2875 C2874 1.374 . S
C2876 C2873 1.499 . S
C2876 C2877 1.373 . S
C2876 C2878 1.389 . S
C2877 H2850 0.950 . S
C2877 C2863 1.377 . S
C2877 C2876 1.373 . S
C2878 C2862 1.377 . S
C2878 C2876 1.389 . S
C2878 C2879 1.524 . S
C2879 C2878 1.524 . S
C2879 C2880 1.397 . S
C2879 C2884 1.363 . S
C2880 H2851 0.950 . S
C2880 C2879 1.397 . S
C2880 C2881 1.334 . S
C2881 H2852 0.950 . S
C2881 C2880 1.334 . S
C2881 C2882 1.287 . S
C2882 C2881 1.287 . S
C2882 C2883 1.524 . S
C2882 H2885 0.999 . S
C2883 H2853 0.950 . S
C2883 C2882 1.524 . S
C2883 C2884 1.415 . S
C2884 H2854 0.950 . S
C2884 C2879 1.363 . S
C2884 C2883 1.415 . S
H2885 C2882 0.999 . S
H2886 C2867 0.913 . S
H2887 C2905 0.951 . S
H2888 C2907 0.951 . S
H2889 C2909 0.950 . S
H2890 C2910 0.950 . S
H2891 C2912 0.950 . S
H2892 C2915 0.950 1_545 S
H2893 C2916 0.950 . S
H2894 C2918 0.950 . S
H2895 C2919 0.950 . S
H2896 C2920 0.951 . S
H2897 C2922 0.951 . S
H2898 C2924 0.950 . S
H2899 C2925 0.950 . S
H2900 C2927 0.950 1_565 S
H2901 C2930 0.950 . S
H2902 C2931 0.950 . S
H2903 C2933 0.950 . S
H2904 C2934 0.950 . S
C2905 H2887 0.951 . S
C2905 C2906 1.366 . S
C2905 C2907 1.388 . S
C2906 C2905 1.366 . S
C2906 C2910 1.385 . S
C2907 H2888 0.951 . S
C2907 C2905 1.388 . S
C2907 C2908 1.366 . S
C2908 C2907 1.366 . S
C2908 C2909 1.414 . S
C2908 C2911 1.499 . S
C2909 H2889 0.950 . S
C2909 C2908 1.414 . S
C2909 C2910 1.374 . S
C2910 H2890 0.950 . S
C2910 C2906 1.385 . S
C2910 C2909 1.374 . S
C2911 C2908 1.499 . S
C2911 C2912 1.373 . S
C2911 C2913 1.389 . S
C2912 H2891 0.950 . S
C2912 C2911 1.373 . S
C2912 C2928 1.377 . S
C2913 C2911 1.389 . S
C2913 C2914 1.524 1_545 S
C2913 C2927 1.377 . S
C2914 C2913 1.524 1_565 S
C2914 C2915 1.397 . S
C2914 C2919 1.363 . S
C2915 H2892 0.950 1_565 S
C2915 C2914 1.397 . S
C2915 C2916 1.334 . S
C2916 H2893 0.950 . S
C2916 C2915 1.334 . S
C2916 C2917 1.287 . S
C2917 C2916 1.287 . S
C2917 C2918 1.524 . S
C2917 H2936 0.913 . S
C2918 H2894 0.950 . S
C2918 C2917 1.524 . S
C2918 C2919 1.415 . S
C2919 H2895 0.950 . S
C2919 C2914 1.363 . S
C2919 C2918 1.415 . S
C2920 H2896 0.951 . S
C2920 C2921 1.366 . S
C2920 C2922 1.388 . S
C2921 C2920 1.366 . S
C2921 C2925 1.385 1_545 S
C2922 H2897 0.951 . S
C2922 C2920 1.388 . S
C2922 C2923 1.366 . S
C2923 C2922 1.366 . S
C2923 C2924 1.414 1_545 S
C2923 C2926 1.499 . S
C2924 H2898 0.950 . S
C2924 C2923 1.414 1_565 S
C2924 C2925 1.374 . S
C2925 H2899 0.950 . S
C2925 C2921 1.385 1_565 S
C2925 C2924 1.374 . S
C2926 C2923 1.499 . S
C2926 C2927 1.373 . S
C2926 C2928 1.389 . S
C2927 H2900 0.950 1_545 S
C2927 C2913 1.377 . S
C2927 C2926 1.373 . S
C2928 C2912 1.377 . S
C2928 C2926 1.389 . S
C2928 C2929 1.524 . S
C2929 C2928 1.524 . S
C2929 C2930 1.397 . S
C2929 C2934 1.363 . S
C2930 H2901 0.950 . S
C2930 C2929 1.397 . S
C2930 C2931 1.334 . S
C2931 H2902 0.950 . S
C2931 C2930 1.334 . S
C2931 C2932 1.287 . S
C2932 C2931 1.287 . S
C2932 C2933 1.524 . S
C2932 H2935 0.999 . S
C2933 H2903 0.950 . S
C2933 C2932 1.524 . S
C2933 C2934 1.415 . S
C2934 H2904 0.950 . S
C2934 C2929 1.363 . S
C2934 C2933 1.415 . S
H2935 C2932 0.999 . S
H2936 C2917 0.913 . S
H2937 C2955 0.951 . S
H2938 C2957 0.951 . S
H2939 C2959 0.950 . S
H2940 C2960 0.950 . S
H2941 C2962 0.950 . S
H2942 C2965 0.950 . S
H2943 C2966 0.950 . S
H2944 C2968 0.950 . S
H2945 C2969 0.950 . S
H2946 C2970 0.951 . S
H2947 C2972 0.951 . S
H2948 C2974 0.950 . S
H2949 C2975 0.950 . S
H2950 C2977 0.950 . S
H2951 C2980 0.950 . S
H2952 C2981 0.950 . S
H2953 C2983 0.950 . S
H2954 C2984 0.950 . S
C2955 H2937 0.951 . S
C2955 C2956 1.366 . S
C2955 C2957 1.388 . S
C2956 C2955 1.366 . S
C2956 C2960 1.385 . S
C2957 H2938 0.951 . S
C2957 C2955 1.388 . S
C2957 C2958 1.366 . S
C2958 C2957 1.366 . S
C2958 C2959 1.414 . S
C2958 C2961 1.499 . S
C2959 H2939 0.950 . S
C2959 C2958 1.414 . S
C2959 C2960 1.374 . S
C2960 H2940 0.950 . S
C2960 C2956 1.385 . S
C2960 C2959 1.374 . S
C2961 C2958 1.499 . S
C2961 C2962 1.373 . S
C2961 C2963 1.389 . S
C2962 H2941 0.950 . S
C2962 C2961 1.373 . S
C2962 C2978 1.377 . S
C2963 C2961 1.389 . S
C2963 C2964 1.524 . S
C2963 C2977 1.377 . S
C2964 C2963 1.524 . S
C2964 C2965 1.397 . S
C2964 C2969 1.363 . S
C2965 H2942 0.950 . S
C2965 C2964 1.397 . S
C2965 C2966 1.334 . S
C2966 H2943 0.950 . S
C2966 C2965 1.334 . S
C2966 C2967 1.287 . S
C2967 C2966 1.287 . S
C2967 C2968 1.524 . S
C2967 H2986 0.913 . S
C2968 H2944 0.950 . S
C2968 C2967 1.524 . S
C2968 C2969 1.415 . S
C2969 H2945 0.950 . S
C2969 C2964 1.363 . S
C2969 C2968 1.415 . S
C2970 H2946 0.951 . S
C2970 C2971 1.366 . S
C2970 C2972 1.388 . S
C2971 C2970 1.366 . S
C2971 C2975 1.385 . S
C2972 H2947 0.951 . S
C2972 C2970 1.388 . S
C2972 C2973 1.366 . S
C2973 C2972 1.366 . S
C2973 C2974 1.414 . S
C2973 C2976 1.499 . S
C2974 H2948 0.950 . S
C2974 C2973 1.414 . S
C2974 C2975 1.374 . S
C2975 H2949 0.950 . S
C2975 C2971 1.385 . S
C2975 C2974 1.374 . S
C2976 C2973 1.499 . S
C2976 C2977 1.373 . S
C2976 C2978 1.389 . S
C2977 H2950 0.950 . S
C2977 C2963 1.377 . S
C2977 C2976 1.373 . S
C2978 C2962 1.377 . S
C2978 C2976 1.389 . S
C2978 C2979 1.524 . S
C2979 C2978 1.524 . S
C2979 C2980 1.397 . S
C2979 C2984 1.363 . S
C2980 H2951 0.950 . S
C2980 C2979 1.397 . S
C2980 C2981 1.334 . S
C2981 H2952 0.950 . S
C2981 C2980 1.334 . S
C2981 C2982 1.287 . S
C2982 C2981 1.287 . S
C2982 C2983 1.524 . S
C2982 H2985 0.999 . S
C2983 H2953 0.950 . S
C2983 C2982 1.524 . S
C2983 C2984 1.415 . S
C2984 H2954 0.950 . S
C2984 C2979 1.363 . S
C2984 C2983 1.415 . S
H2985 C2982 0.999 . S
H2986 C2967 0.913 . S
H2987 C3005 0.951 . S
H2988 C3007 0.951 . S
H2989 C3009 0.950 . S
H2990 C3010 0.950 . S
H2991 C3012 0.950 . S
H2992 C3015 0.950 . S
H2993 C3016 0.950 . S
H2994 C3018 0.950 . S
H2995 C3019 0.950 . S
H2996 C3020 0.951 . S
H2997 C3022 0.951 . S
H2998 C3024 0.950 . S
H2999 C3025 0.950 . S
H3000 C3027 0.950 . S
H3001 C3030 0.950 . S
H3002 C3031 0.950 . S
H3003 C3033 0.950 . S
H3004 C3034 0.950 . S
C3005 H2987 0.951 . S
C3005 C3006 1.366 . S
C3005 C3007 1.388 . S
C3006 C3005 1.366 . S
C3006 C3010 1.385 . S
C3007 H2988 0.951 . S
C3007 C3005 1.388 . S
C3007 C3008 1.366 . S
C3008 C3007 1.366 . S
C3008 C3009 1.414 . S
C3008 C3011 1.499 . S
C3009 H2989 0.950 . S
C3009 C3008 1.414 . S
C3009 C3010 1.374 . S
C3010 H2990 0.950 . S
C3010 C3006 1.385 . S
C3010 C3009 1.374 . S
C3011 C3008 1.499 . S
C3011 C3012 1.373 . S
C3011 C3013 1.389 . S
C3012 H2991 0.950 . S
C3012 C3011 1.373 . S
C3012 C3028 1.377 . S
C3013 C3011 1.389 . S
C3013 C3014 1.524 . S
C3013 C3027 1.377 . S
C3014 C3013 1.524 . S
C3014 C3015 1.397 . S
C3014 C3019 1.363 . S
C3015 H2992 0.950 . S
C3015 C3014 1.397 . S
C3015 C3016 1.334 . S
C3016 H2993 0.950 . S
C3016 C3015 1.334 . S
C3016 C3017 1.287 . S
C3017 C3016 1.287 . S
C3017 C3018 1.524 . S
C3017 H3036 0.913 . S
C3018 H2994 0.950 . S
C3018 C3017 1.524 . S
C3018 C3019 1.415 . S
C3019 H2995 0.950 . S
C3019 C3014 1.363 . S
C3019 C3018 1.415 . S
C3020 H2996 0.951 . S
C3020 C3021 1.366 . S
C3020 C3022 1.388 . S
C3021 C3020 1.366 . S
C3021 C3025 1.385 . S
C3022 H2997 0.951 . S
C3022 C3020 1.388 . S
C3022 C3023 1.366 . S
C3023 C3022 1.366 . S
C3023 C3024 1.414 . S
C3023 C3026 1.499 . S
C3024 H2998 0.950 . S
C3024 C3023 1.414 . S
C3024 C3025 1.374 . S
C3025 H2999 0.950 . S
C3025 C3021 1.385 . S
C3025 C3024 1.374 . S
C3026 C3023 1.499 . S
C3026 C3027 1.373 . S
C3026 C3028 1.389 . S
C3027 H3000 0.950 . S
C3027 C3013 1.377 . S
C3027 C3026 1.373 . S
C3028 C3012 1.377 . S
C3028 C3026 1.389 . S
C3028 C3029 1.524 . S
C3029 C3028 1.524 . S
C3029 C3030 1.397 . S
C3029 C3034 1.363 . S
C3030 H3001 0.950 . S
C3030 C3029 1.397 . S
C3030 C3031 1.334 . S
C3031 H3002 0.950 . S
C3031 C3030 1.334 . S
C3031 C3032 1.287 . S
C3032 C3031 1.287 . S
C3032 C3033 1.524 . S
C3032 H3035 0.999 . S
C3033 H3003 0.950 . S
C3033 C3032 1.524 . S
C3033 C3034 1.415 . S
C3034 H3004 0.950 . S
C3034 C3029 1.363 . S
C3034 C3033 1.415 . S
H3035 C3032 0.999 . S
H3036 C3017 0.913 . S
H3037 C3055 0.951 . S
H3038 C3057 0.951 . S
H3039 C3059 0.950 . S
H3040 C3060 0.950 . S
H3041 C3062 0.950 . S
H3042 C3065 0.950 . S
H3043 C3066 0.950 . S
H3044 C3068 0.950 . S
H3045 C3069 0.950 . S
H3046 C3070 0.951 . S
H3047 C3072 0.951 . S
H3048 C3074 0.950 . S
H3049 C3075 0.950 . S
H3050 C3077 0.950 . S
H3051 C3080 0.950 . S
H3052 C3081 0.950 . S
H3053 C3083 0.950 . S
H3054 C3084 0.950 . S
C3055 H3037 0.951 . S
C3055 C3056 1.366 . S
C3055 C3057 1.388 . S
C3056 C3055 1.366 . S
C3056 C3060 1.385 . S
C3057 H3038 0.951 . S
C3057 C3055 1.388 . S
C3057 C3058 1.366 . S
C3058 C3057 1.366 . S
C3058 C3059 1.414 . S
C3058 C3061 1.499 . S
C3059 H3039 0.950 . S
C3059 C3058 1.414 . S
C3059 C3060 1.374 . S
C3060 H3040 0.950 . S
C3060 C3056 1.385 . S
C3060 C3059 1.374 . S
C3061 C3058 1.499 . S
C3061 C3062 1.373 . S
C3061 C3063 1.389 . S
C3062 H3041 0.950 . S
C3062 C3061 1.373 . S
C3062 C3078 1.377 . S
C3063 C3061 1.389 . S
C3063 C3064 1.524 . S
C3063 C3077 1.377 . S
C3064 C3063 1.524 . S
C3064 C3065 1.397 . S
C3064 C3069 1.363 . S
C3065 H3042 0.950 . S
C3065 C3064 1.397 . S
C3065 C3066 1.334 . S
C3066 H3043 0.950 . S
C3066 C3065 1.334 . S
C3066 C3067 1.287 . S
C3067 C3066 1.287 . S
C3067 C3068 1.524 . S
C3067 H3086 0.913 . S
C3068 H3044 0.950 . S
C3068 C3067 1.524 . S
C3068 C3069 1.415 . S
C3069 H3045 0.950 . S
C3069 C3064 1.363 . S
C3069 C3068 1.415 . S
C3070 H3046 0.951 . S
C3070 C3071 1.366 . S
C3070 C3072 1.388 . S
C3071 C3070 1.366 . S
C3071 C3075 1.385 . S
C3072 H3047 0.951 . S
C3072 C3070 1.388 . S
C3072 C3073 1.366 . S
C3073 C3072 1.366 . S
C3073 C3074 1.414 . S
C3073 C3076 1.499 . S
C3074 H3048 0.950 . S
C3074 C3073 1.414 . S
C3074 C3075 1.374 . S
C3075 H3049 0.950 . S
C3075 C3071 1.385 . S
C3075 C3074 1.374 . S
C3076 C3073 1.499 . S
C3076 C3077 1.373 . S
C3076 C3078 1.389 . S
C3077 H3050 0.950 . S
C3077 C3063 1.377 . S
C3077 C3076 1.373 . S
C3078 C3062 1.377 . S
C3078 C3076 1.389 . S
C3078 C3079 1.524 . S
C3079 C3078 1.524 . S
C3079 C3080 1.397 . S
C3079 C3084 1.363 . S
C3080 H3051 0.950 . S
C3080 C3079 1.397 . S
C3080 C3081 1.334 . S
C3081 H3052 0.950 . S
C3081 C3080 1.334 . S
C3081 C3082 1.287 . S
C3082 C3081 1.287 . S
C3082 C3083 1.524 . S
C3082 H3085 0.999 . S
C3083 H3053 0.950 . S
C3083 C3082 1.524 . S
C3083 C3084 1.415 . S
C3084 H3054 0.950 . S
C3084 C3079 1.363 . S
C3084 C3083 1.415 . S
H3085 C3082 0.999 . S
H3086 C3067 0.913 . S
H3087 C3105 0.951 . S
H3088 C3107 0.951 . S
H3089 C3109 0.950 . S
H3090 C3110 0.950 . S
H3091 C3112 0.950 . S
H3092 C3115 0.950 . S
H3093 C3116 0.950 . S
H3094 C3118 0.950 . S
H3095 C3119 0.950 . S
H3096 C3120 0.951 . S
H3097 C3122 0.951 . S
H3098 C3124 0.950 . S
H3099 C3125 0.950 . S
H3100 C3127 0.950 . S
H3101 C3130 0.950 . S
H3102 C3131 0.950 . S
H3103 C3133 0.950 . S
H3104 C3134 0.950 . S
C3105 H3087 0.951 . S
C3105 C3106 1.366 . S
C3105 C3107 1.388 . S
C3106 C3105 1.366 . S
C3106 C3110 1.385 . S
C3107 H3088 0.951 . S
C3107 C3105 1.388 . S
C3107 C3108 1.366 . S
C3108 C3107 1.366 . S
C3108 C3109 1.414 . S
C3108 C3111 1.499 . S
C3109 H3089 0.950 . S
C3109 C3108 1.414 . S
C3109 C3110 1.374 . S
C3110 H3090 0.950 . S
C3110 C3106 1.385 . S
C3110 C3109 1.374 . S
C3111 C3108 1.499 . S
C3111 C3112 1.373 . S
C3111 C3113 1.389 . S
C3112 H3091 0.950 . S
C3112 C3111 1.373 . S
C3112 C3128 1.377 . S
C3113 C3111 1.389 . S
C3113 C3114 1.524 . S
C3113 C3127 1.377 . S
C3114 C3113 1.524 . S
C3114 C3115 1.397 . S
C3114 C3119 1.363 . S
C3115 H3092 0.950 . S
C3115 C3114 1.397 . S
C3115 C3116 1.334 . S
C3116 H3093 0.950 . S
C3116 C3115 1.334 . S
C3116 C3117 1.287 . S
C3117 C3116 1.287 . S
C3117 C3118 1.524 . S
C3117 H3136 0.913 . S
C3118 H3094 0.950 . S
C3118 C3117 1.524 . S
C3118 C3119 1.415 . S
C3119 H3095 0.950 . S
C3119 C3114 1.363 . S
C3119 C3118 1.415 . S
C3120 H3096 0.951 . S
C3120 C3121 1.366 . S
C3120 C3122 1.388 . S
C3121 C3120 1.366 . S
C3121 C3125 1.385 . S
C3122 H3097 0.951 . S
C3122 C3120 1.388 . S
C3122 C3123 1.366 . S
C3123 C3122 1.366 . S
C3123 C3124 1.414 . S
C3123 C3126 1.499 . S
C3124 H3098 0.950 . S
C3124 C3123 1.414 . S
C3124 C3125 1.374 . S
C3125 H3099 0.950 . S
C3125 C3121 1.385 . S
C3125 C3124 1.374 . S
C3126 C3123 1.499 . S
C3126 C3127 1.373 . S
C3126 C3128 1.389 . S
C3127 H3100 0.950 . S
C3127 C3113 1.377 . S
C3127 C3126 1.373 . S
C3128 C3112 1.377 . S
C3128 C3126 1.389 . S
C3128 C3129 1.524 . S
C3129 C3128 1.524 . S
C3129 C3130 1.397 . S
C3129 C3134 1.363 . S
C3130 H3101 0.950 . S
C3130 C3129 1.397 . S
C3130 C3131 1.334 . S
C3131 H3102 0.950 . S
C3131 C3130 1.334 . S
C3131 C3132 1.287 . S
C3132 C3131 1.287 . S
C3132 C3133 1.524 . S
C3132 H3135 0.999 . S
C3133 H3103 0.950 . S
C3133 C3132 1.524 . S
C3133 C3134 1.415 . S
C3134 H3104 0.950 . S
C3134 C3129 1.363 . S
C3134 C3133 1.415 . S
H3135 C3132 0.999 . S
H3136 C3117 0.913 . S
H3137 C3155 0.951 . S
H3138 C3157 0.951 . S
H3139 C3159 0.950 . S
H3140 C3160 0.950 . S
H3141 C3162 0.950 . S
H3142 C3165 0.950 . S
H3143 C3166 0.950 . S
H3144 C3168 0.950 . S
H3145 C3169 0.950 . S
H3146 C3170 0.951 . S
H3147 C3172 0.951 . S
H3148 C3174 0.950 . S
H3149 C3175 0.950 . S
H3150 C3177 0.950 . S
H3151 C3180 0.950 . S
H3152 C3181 0.950 . S
H3153 C3183 0.950 . S
H3154 C3184 0.950 . S
C3155 H3137 0.951 . S
C3155 C3156 1.366 . S
C3155 C3157 1.388 . S
C3156 C3155 1.366 . S
C3156 C3160 1.385 . S
C3157 H3138 0.951 . S
C3157 C3155 1.388 . S
C3157 C3158 1.366 . S
C3158 C3157 1.366 . S
C3158 C3159 1.414 . S
C3158 C3161 1.499 . S
C3159 H3139 0.950 . S
C3159 C3158 1.414 . S
C3159 C3160 1.374 . S
C3160 H3140 0.950 . S
C3160 C3156 1.385 . S
C3160 C3159 1.374 . S
C3161 C3158 1.499 . S
C3161 C3162 1.373 . S
C3161 C3163 1.389 . S
C3162 H3141 0.950 . S
C3162 C3161 1.373 . S
C3162 C3178 1.377 . S
C3163 C3161 1.389 . S
C3163 C3164 1.524 . S
C3163 C3177 1.377 . S
C3164 C3163 1.524 . S
C3164 C3165 1.397 . S
C3164 C3169 1.363 . S
C3165 H3142 0.950 . S
C3165 C3164 1.397 . S
C3165 C3166 1.334 . S
C3166 H3143 0.950 . S
C3166 C3165 1.334 . S
C3166 C3167 1.287 . S
C3167 C3166 1.287 . S
C3167 C3168 1.524 . S
C3167 H3186 0.913 . S
C3168 H3144 0.950 . S
C3168 C3167 1.524 . S
C3168 C3169 1.415 . S
C3169 H3145 0.950 . S
C3169 C3164 1.363 . S
C3169 C3168 1.415 . S
C3170 H3146 0.951 . S
C3170 C3171 1.366 . S
C3170 C3172 1.388 . S
C3171 C3170 1.366 . S
C3171 C3175 1.385 . S
C3172 H3147 0.951 . S
C3172 C3170 1.388 . S
C3172 C3173 1.366 . S
C3173 C3172 1.366 . S
C3173 C3174 1.414 . S
C3173 C3176 1.499 . S
C3174 H3148 0.950 . S
C3174 C3173 1.414 . S
C3174 C3175 1.374 . S
C3175 H3149 0.950 . S
C3175 C3171 1.385 . S
C3175 C3174 1.374 . S
C3176 C3173 1.499 . S
C3176 C3177 1.373 . S
C3176 C3178 1.389 . S
C3177 H3150 0.950 . S
C3177 C3163 1.377 . S
C3177 C3176 1.373 . S
C3178 C3162 1.377 . S
C3178 C3176 1.389 . S
C3178 C3179 1.524 . S
C3179 C3178 1.524 . S
C3179 C3180 1.397 . S
C3179 C3184 1.363 . S
C3180 H3151 0.950 . S
C3180 C3179 1.397 . S
C3180 C3181 1.334 . S
C3181 H3152 0.950 . S
C3181 C3180 1.334 . S
C3181 C3182 1.287 . S
C3182 C3181 1.287 . S
C3182 C3183 1.524 . S
C3182 H3185 0.999 . S
C3183 H3153 0.950 . S
C3183 C3182 1.524 . S
C3183 C3184 1.415 . S
C3184 H3154 0.950 . S
C3184 C3179 1.363 . S
C3184 C3183 1.415 . S
H3185 C3182 0.999 . S
H3186 C3167 0.913 . S
H3187 C3205 0.951 . S
H3188 C3207 0.951 . S
H3189 C3209 0.950 . S
H3190 C3210 0.950 . S
H3191 C3212 0.950 . S
H3192 C3215 0.950 . S
H3193 C3216 0.950 . S
H3194 C3218 0.950 . S
H3195 C3219 0.950 . S
H3196 C3220 0.951 . S
H3197 C3222 0.951 . S
H3198 C3224 0.950 . S
H3199 C3225 0.950 . S
H3200 C3227 0.950 . S
H3201 C3230 0.950 . S
H3202 C3231 0.950 . S
H3203 C3233 0.950 . S
H3204 C3234 0.950 . S
C3205 H3187 0.951 . S
C3205 C3206 1.366 . S
C3205 C3207 1.388 . S
C3206 C3205 1.366 . S
C3206 C3210 1.385 . S
C3207 H3188 0.951 . S
C3207 C3205 1.388 . S
C3207 C3208 1.366 . S
C3208 C3207 1.366 . S
C3208 C3209 1.414 . S
C3208 C3211 1.499 . S
C3209 H3189 0.950 . S
C3209 C3208 1.414 . S
C3209 C3210 1.374 . S
C3210 H3190 0.950 . S
C3210 C3206 1.385 . S
C3210 C3209 1.374 . S
C3211 C3208 1.499 . S
C3211 C3212 1.373 . S
C3211 C3213 1.389 . S
C3212 H3191 0.950 . S
C3212 C3211 1.373 . S
C3212 C3228 1.377 . S
C3213 C3211 1.389 . S
C3213 C3214 1.524 . S
C3213 C3227 1.377 . S
C3214 C3213 1.524 . S
C3214 C3215 1.397 . S
C3214 C3219 1.363 . S
C3215 H3192 0.950 . S
C3215 C3214 1.397 . S
C3215 C3216 1.334 . S
C3216 H3193 0.950 . S
C3216 C3215 1.334 . S
C3216 C3217 1.287 . S
C3217 C3216 1.287 . S
C3217 C3218 1.524 . S
C3217 H3236 0.913 . S
C3218 H3194 0.950 . S
C3218 C3217 1.524 . S
C3218 C3219 1.415 . S
C3219 H3195 0.950 . S
C3219 C3214 1.363 . S
C3219 C3218 1.415 . S
C3220 H3196 0.951 . S
C3220 C3221 1.366 . S
C3220 C3222 1.388 . S
C3221 C3220 1.366 . S
C3221 C3225 1.385 . S
C3222 H3197 0.951 . S
C3222 C3220 1.388 . S
C3222 C3223 1.366 . S
C3223 C3222 1.366 . S
C3223 C3224 1.414 . S
C3223 C3226 1.499 . S
C3224 H3198 0.950 . S
C3224 C3223 1.414 . S
C3224 C3225 1.374 . S
C3225 H3199 0.950 . S
C3225 C3221 1.385 . S
C3225 C3224 1.374 . S
C3226 C3223 1.499 . S
C3226 C3227 1.373 . S
C3226 C3228 1.389 . S
C3227 H3200 0.950 . S
C3227 C3213 1.377 . S
C3227 C3226 1.373 . S
C3228 C3212 1.377 . S
C3228 C3226 1.389 . S
C3228 C3229 1.524 . S
C3229 C3228 1.524 . S
C3229 C3230 1.397 . S
C3229 C3234 1.363 . S
C3230 H3201 0.950 . S
C3230 C3229 1.397 . S
C3230 C3231 1.334 . S
C3231 H3202 0.950 . S
C3231 C3230 1.334 . S
C3231 C3232 1.287 . S
C3232 C3231 1.287 . S
C3232 C3233 1.524 . S
C3232 H3235 0.999 . S
C3233 H3203 0.950 . S
C3233 C3232 1.524 . S
C3233 C3234 1.415 . S
C3234 H3204 0.950 . S
C3234 C3229 1.363 . S
C3234 C3233 1.415 . S
H3235 C3232 0.999 . S
H3236 C3217 0.913 . S
H3237 C3255 0.951 . S
H3238 C3257 0.951 . S
H3239 C3259 0.950 . S
H3240 C3260 0.950 . S
H3241 C3262 0.950 . S
H3242 C3265 0.950 . S
H3243 C3266 0.950 . S
H3244 C3268 0.950 . S
H3245 C3269 0.950 . S
H3246 C3270 0.951 . S
H3247 C3272 0.951 . S
H3248 C3274 0.950 . S
H3249 C3275 0.950 . S
H3250 C3277 0.950 . S
H3251 C3280 0.950 . S
H3252 C3281 0.950 . S
H3253 C3283 0.950 . S
H3254 C3284 0.950 . S
C3255 H3237 0.951 . S
C3255 C3256 1.366 . S
C3255 C3257 1.388 . S
C3256 C3255 1.366 . S
C3256 C3260 1.385 . S
C3257 H3238 0.951 . S
C3257 C3255 1.388 . S
C3257 C3258 1.366 . S
C3258 C3257 1.366 . S
C3258 C3259 1.414 . S
C3258 C3261 1.499 . S
C3259 H3239 0.950 . S
C3259 C3258 1.414 . S
C3259 C3260 1.374 . S
C3260 H3240 0.950 . S
C3260 C3256 1.385 . S
C3260 C3259 1.374 . S
C3261 C3258 1.499 . S
C3261 C3262 1.373 . S
C3261 C3263 1.389 . S
C3262 H3241 0.950 . S
C3262 C3261 1.373 . S
C3262 C3278 1.377 . S
C3263 C3261 1.389 . S
C3263 C3264 1.524 . S
C3263 C3277 1.377 . S
C3264 C3263 1.524 . S
C3264 C3265 1.397 . S
C3264 C3269 1.363 . S
C3265 H3242 0.950 . S
C3265 C3264 1.397 . S
C3265 C3266 1.334 . S
C3266 H3243 0.950 . S
C3266 C3265 1.334 . S
C3266 C3267 1.287 . S
C3267 C3266 1.287 . S
C3267 C3268 1.524 . S
C3267 H3286 0.913 . S
C3268 H3244 0.950 . S
C3268 C3267 1.524 . S
C3268 C3269 1.415 . S
C3269 H3245 0.950 . S
C3269 C3264 1.363 . S
C3269 C3268 1.415 . S
C3270 H3246 0.951 . S
C3270 C3271 1.366 . S
C3270 C3272 1.388 . S
C3271 C3270 1.366 . S
C3271 C3275 1.385 . S
C3272 H3247 0.951 . S
C3272 C3270 1.388 . S
C3272 C3273 1.366 . S
C3273 C3272 1.366 . S
C3273 C3274 1.414 . S
C3273 C3276 1.499 . S
C3274 H3248 0.950 . S
C3274 C3273 1.414 . S
C3274 C3275 1.374 . S
C3275 H3249 0.950 . S
C3275 C3271 1.385 . S
C3275 C3274 1.374 . S
C3276 C3273 1.499 . S
C3276 C3277 1.373 . S
C3276 C3278 1.389 . S
C3277 H3250 0.950 . S
C3277 C3263 1.377 . S
C3277 C3276 1.373 . S
C3278 C3262 1.377 . S
C3278 C3276 1.389 . S
C3278 C3279 1.524 . S
C3279 C3278 1.524 . S
C3279 C3280 1.397 . S
C3279 C3284 1.363 . S
C3280 H3251 0.950 . S
C3280 C3279 1.397 . S
C3280 C3281 1.334 . S
C3281 H3252 0.950 . S
C3281 C3280 1.334 . S
C3281 C3282 1.287 . S
C3282 C3281 1.287 . S
C3282 C3283 1.524 . S
C3282 H3285 0.999 . S
C3283 H3253 0.950 . S
C3283 C3282 1.524 . S
C3283 C3284 1.415 . S
C3284 H3254 0.950 . S
C3284 C3279 1.363 . S
C3284 C3283 1.415 . S
H3285 C3282 0.999 . S
H3286 C3267 0.913 . S
H3287 C3305 0.951 . S
H3288 C3307 0.951 . S
H3289 C3309 0.950 . S
H3290 C3310 0.950 . S
H3291 C3312 0.950 . S
H3292 C3315 0.950 . S
H3293 C3316 0.950 . S
H3294 C3318 0.950 . S
H3295 C3319 0.950 . S
H3296 C3320 0.951 . S
H3297 C3322 0.951 . S
H3298 C3324 0.950 . S
H3299 C3325 0.950 . S
H3300 C3327 0.950 . S
H3301 C3330 0.950 . S
H3302 C3331 0.950 . S
H3303 C3333 0.950 . S
H3304 C3334 0.950 . S
C3305 H3287 0.951 . S
C3305 C3306 1.366 . S
C3305 C3307 1.388 . S
C3306 C3305 1.366 . S
C3306 C3310 1.385 . S
C3307 H3288 0.951 . S
C3307 C3305 1.388 . S
C3307 C3308 1.366 . S
C3308 C3307 1.366 . S
C3308 C3309 1.414 . S
C3308 C3311 1.499 . S
C3309 H3289 0.950 . S
C3309 C3308 1.414 . S
C3309 C3310 1.374 . S
C3310 H3290 0.950 . S
C3310 C3306 1.385 . S
C3310 C3309 1.374 . S
C3311 C3308 1.499 . S
C3311 C3312 1.373 . S
C3311 C3313 1.389 . S
C3312 H3291 0.950 . S
C3312 C3311 1.373 . S
C3312 C3328 1.377 . S
C3313 C3311 1.389 . S
C3313 C3314 1.524 . S
C3313 C3327 1.377 . S
C3314 C3313 1.524 . S
C3314 C3315 1.397 . S
C3314 C3319 1.363 . S
C3315 H3292 0.950 . S
C3315 C3314 1.397 . S
C3315 C3316 1.334 . S
C3316 H3293 0.950 . S
C3316 C3315 1.334 . S
C3316 C3317 1.287 . S
C3317 C3316 1.287 . S
C3317 C3318 1.524 . S
C3317 H3336 0.913 . S
C3318 H3294 0.950 . S
C3318 C3317 1.524 . S
C3318 C3319 1.415 . S
C3319 H3295 0.950 . S
C3319 C3314 1.363 . S
C3319 C3318 1.415 . S
C3320 H3296 0.951 . S
C3320 C3321 1.366 . S
C3320 C3322 1.388 . S
C3321 C3320 1.366 . S
C3321 C3325 1.385 . S
C3322 H3297 0.951 . S
C3322 C3320 1.388 . S
C3322 C3323 1.366 . S
C3323 C3322 1.366 . S
C3323 C3324 1.414 . S
C3323 C3326 1.499 . S
C3324 H3298 0.950 . S
C3324 C3323 1.414 . S
C3324 C3325 1.374 . S
C3325 H3299 0.950 . S
C3325 C3321 1.385 . S
C3325 C3324 1.374 . S
C3326 C3323 1.499 . S
C3326 C3327 1.373 . S
C3326 C3328 1.389 . S
C3327 H3300 0.950 . S
C3327 C3313 1.377 . S
C3327 C3326 1.373 . S
C3328 C3312 1.377 . S
C3328 C3326 1.389 . S
C3328 C3329 1.524 . S
C3329 C3328 1.524 . S
C3329 C3330 1.397 . S
C3329 C3334 1.363 . S
C3330 H3301 0.950 . S
C3330 C3329 1.397 . S
C3330 C3331 1.334 . S
C3331 H3302 0.950 . S
C3331 C3330 1.334 . S
C3331 C3332 1.287 . S
C3332 C3331 1.287 . S
C3332 C3333 1.524 . S
C3332 H3335 0.999 . S
C3333 H3303 0.950 . S
C3333 C3332 1.524 . S
C3333 C3334 1.415 . S
C3334 H3304 0.950 . S
C3334 C3329 1.363 . S
C3334 C3333 1.415 . S
H3335 C3332 0.999 . S
H3336 C3317 0.913 . S
H3337 C3355 0.951 . S
H3338 C3357 0.951 . S
H3339 C3359 0.950 . S
H3340 C3360 0.950 . S
H3341 C3362 0.950 . S
H3342 C3365 0.950 . S
H3343 C3366 0.950 . S
H3344 C3368 0.950 . S
H3345 C3369 0.950 . S
H3346 C3370 0.951 . S
H3347 C3372 0.951 . S
H3348 C3374 0.950 . S
H3349 C3375 0.950 . S
H3350 C3377 0.950 . S
H3351 C3380 0.950 . S
H3352 C3381 0.950 . S
H3353 C3383 0.950 . S
H3354 C3384 0.950 . S
C3355 H3337 0.951 . S
C3355 C3356 1.366 . S
C3355 C3357 1.388 . S
C3356 C3355 1.366 . S
C3356 C3360 1.385 . S
C3357 H3338 0.951 . S
C3357 C3355 1.388 . S
C3357 C3358 1.366 . S
C3358 C3357 1.366 . S
C3358 C3359 1.414 . S
C3358 C3361 1.499 . S
C3359 H3339 0.950 . S
C3359 C3358 1.414 . S
C3359 C3360 1.374 . S
C3360 H3340 0.950 . S
C3360 C3356 1.385 . S
C3360 C3359 1.374 . S
C3361 C3358 1.499 . S
C3361 C3362 1.373 . S
C3361 C3363 1.389 . S
C3362 H3341 0.950 . S
C3362 C3361 1.373 . S
C3362 C3378 1.377 . S
C3363 C3361 1.389 . S
C3363 C3364 1.524 . S
C3363 C3377 1.377 . S
C3364 C3363 1.524 . S
C3364 C3365 1.397 . S
C3364 C3369 1.363 . S
C3365 H3342 0.950 . S
C3365 C3364 1.397 . S
C3365 C3366 1.334 . S
C3366 H3343 0.950 . S
C3366 C3365 1.334 . S
C3366 C3367 1.287 . S
C3367 C3366 1.287 . S
C3367 C3368 1.524 . S
C3367 H3386 0.913 . S
C3368 H3344 0.950 . S
C3368 C3367 1.524 . S
C3368 C3369 1.415 . S
C3369 H3345 0.950 . S
C3369 C3364 1.363 . S
C3369 C3368 1.415 . S
C3370 H3346 0.951 . S
C3370 C3371 1.366 . S
C3370 C3372 1.388 . S
C3371 C3370 1.366 . S
C3371 C3375 1.385 . S
C3372 H3347 0.951 . S
C3372 C3370 1.388 . S
C3372 C3373 1.366 . S
C3373 C3372 1.366 . S
C3373 C3374 1.414 . S
C3373 C3376 1.499 . S
C3374 H3348 0.950 . S
C3374 C3373 1.414 . S
C3374 C3375 1.374 . S
C3375 H3349 0.950 . S
C3375 C3371 1.385 . S
C3375 C3374 1.374 . S
C3376 C3373 1.499 . S
C3376 C3377 1.373 . S
C3376 C3378 1.389 . S
C3377 H3350 0.950 . S
C3377 C3363 1.377 . S
C3377 C3376 1.373 . S
C3378 C3362 1.377 . S
C3378 C3376 1.389 . S
C3378 C3379 1.524 . S
C3379 C3378 1.524 . S
C3379 C3380 1.397 . S
C3379 C3384 1.363 . S
C3380 H3351 0.950 . S
C3380 C3379 1.397 . S
C3380 C3381 1.334 . S
C3381 H3352 0.950 . S
C3381 C3380 1.334 . S
C3381 C3382 1.287 . S
C3382 C3381 1.287 . S
C3382 C3383 1.524 . S
C3382 H3385 0.999 . S
C3383 H3353 0.950 . S
C3383 C3382 1.524 . S
C3383 C3384 1.415 . S
C3384 H3354 0.950 . S
C3384 C3379 1.363 . S
C3384 C3383 1.415 . S
H3385 C3382 0.999 . S
H3386 C3367 0.913 . S
H3387 C3405 0.951 . S
H3388 C3407 0.951 . S
H3389 C3409 0.950 . S
H3390 C3410 0.950 . S
H3391 C3412 0.950 . S
H3392 C3415 0.950 . S
H3393 C3416 0.950 . S
H3394 C3418 0.950 . S
H3395 C3419 0.950 . S
H3396 C3420 0.951 . S
H3397 C3422 0.951 . S
H3398 C3424 0.950 . S
H3399 C3425 0.950 . S
H3400 C3427 0.950 . S
H3401 C3430 0.950 . S
H3402 C3431 0.950 . S
H3403 C3433 0.950 . S
H3404 C3434 0.950 . S
C3405 H3387 0.951 . S
C3405 C3406 1.366 . S
C3405 C3407 1.388 . S
C3406 C3405 1.366 . S
C3406 C3410 1.385 . S
C3407 H3388 0.951 . S
C3407 C3405 1.388 . S
C3407 C3408 1.366 . S
C3408 C3407 1.366 . S
C3408 C3409 1.414 . S
C3408 C3411 1.499 . S
C3409 H3389 0.950 . S
C3409 C3408 1.414 . S
C3409 C3410 1.374 . S
C3410 H3390 0.950 . S
C3410 C3406 1.385 . S
C3410 C3409 1.374 . S
C3411 C3408 1.499 . S
C3411 C3412 1.373 . S
C3411 C3413 1.389 . S
C3412 H3391 0.950 . S
C3412 C3411 1.373 . S
C3412 C3428 1.377 . S
C3413 C3411 1.389 . S
C3413 C3414 1.524 . S
C3413 C3427 1.377 . S
C3414 C3413 1.524 . S
C3414 C3415 1.397 . S
C3414 C3419 1.363 . S
C3415 H3392 0.950 . S
C3415 C3414 1.397 . S
C3415 C3416 1.334 . S
C3416 H3393 0.950 . S
C3416 C3415 1.334 . S
C3416 C3417 1.287 . S
C3417 C3416 1.287 . S
C3417 C3418 1.524 . S
C3417 H3436 0.913 . S
C3418 H3394 0.950 . S
C3418 C3417 1.524 . S
C3418 C3419 1.415 . S
C3419 H3395 0.950 . S
C3419 C3414 1.363 . S
C3419 C3418 1.415 . S
C3420 H3396 0.951 . S
C3420 C3421 1.366 . S
C3420 C3422 1.388 . S
C3421 C3420 1.366 . S
C3421 C3425 1.385 . S
C3422 H3397 0.951 . S
C3422 C3420 1.388 . S
C3422 C3423 1.366 . S
C3423 C3422 1.366 . S
C3423 C3424 1.414 . S
C3423 C3426 1.499 . S
C3424 H3398 0.950 . S
C3424 C3423 1.414 . S
C3424 C3425 1.374 . S
C3425 H3399 0.950 . S
C3425 C3421 1.385 . S
C3425 C3424 1.374 . S
C3426 C3423 1.499 . S
C3426 C3427 1.373 . S
C3426 C3428 1.389 . S
C3427 H3400 0.950 . S
C3427 C3413 1.377 . S
C3427 C3426 1.373 . S
C3428 C3412 1.377 . S
C3428 C3426 1.389 . S
C3428 C3429 1.524 . S
C3429 C3428 1.524 . S
C3429 C3430 1.397 . S
C3429 C3434 1.363 . S
C3430 H3401 0.950 . S
C3430 C3429 1.397 . S
C3430 C3431 1.334 . S
C3431 H3402 0.950 . S
C3431 C3430 1.334 . S
C3431 C3432 1.287 . S
C3432 C3431 1.287 . S
C3432 C3433 1.524 . S
C3432 H3435 0.999 . S
C3433 H3403 0.950 . S
C3433 C3432 1.524 . S
C3433 C3434 1.415 . S
C3434 H3404 0.950 . S
C3434 C3429 1.363 . S
C3434 C3433 1.415 . S
H3435 C3432 0.999 . S
H3436 C3417 0.913 . S
H3437 C3455 0.951 . S
H3438 C3457 0.951 . S
H3439 C3459 0.950 . S
H3440 C3460 0.950 . S
H3441 C3462 0.950 . S
H3442 C3465 0.950 . S
H3443 C3466 0.950 . S
H3444 C3468 0.950 . S
H3445 C3469 0.950 . S
H3446 C3470 0.951 . S
H3447 C3472 0.951 . S
H3448 C3474 0.950 . S
H3449 C3475 0.950 . S
H3450 C3477 0.950 . S
H3451 C3480 0.950 . S
H3452 C3481 0.950 . S
H3453 C3483 0.950 . S
H3454 C3484 0.950 . S
C3455 H3437 0.951 . S
C3455 C3456 1.366 . S
C3455 C3457 1.388 . S
C3456 C3455 1.366 . S
C3456 C3460 1.385 . S
C3457 H3438 0.951 . S
C3457 C3455 1.388 . S
C3457 C3458 1.366 . S
C3458 C3457 1.366 . S
C3458 C3459 1.414 . S
C3458 C3461 1.499 . S
C3459 H3439 0.950 . S
C3459 C3458 1.414 . S
C3459 C3460 1.374 . S
C3460 H3440 0.950 . S
C3460 C3456 1.385 . S
C3460 C3459 1.374 . S
C3461 C3458 1.499 . S
C3461 C3462 1.373 . S
C3461 C3463 1.389 . S
C3462 H3441 0.950 . S
C3462 C3461 1.373 . S
C3462 C3478 1.377 . S
C3463 C3461 1.389 . S
C3463 C3464 1.524 . S
C3463 C3477 1.377 . S
C3464 C3463 1.524 . S
C3464 C3465 1.397 . S
C3464 C3469 1.363 . S
C3465 H3442 0.950 . S
C3465 C3464 1.397 . S
C3465 C3466 1.334 . S
C3466 H3443 0.950 . S
C3466 C3465 1.334 . S
C3466 C3467 1.287 . S
C3467 C3466 1.287 . S
C3467 C3468 1.524 . S
C3467 H3486 0.913 . S
C3468 H3444 0.950 . S
C3468 C3467 1.524 . S
C3468 C3469 1.415 . S
C3469 H3445 0.950 . S
C3469 C3464 1.363 . S
C3469 C3468 1.415 . S
C3470 H3446 0.951 . S
C3470 C3471 1.366 . S
C3470 C3472 1.388 . S
C3471 C3470 1.366 . S
C3471 C3475 1.385 . S
C3472 H3447 0.951 . S
C3472 C3470 1.388 . S
C3472 C3473 1.366 . S
C3473 C3472 1.366 . S
C3473 C3474 1.414 . S
C3473 C3476 1.499 . S
C3474 H3448 0.950 . S
C3474 C3473 1.414 . S
C3474 C3475 1.374 . S
C3475 H3449 0.950 . S
C3475 C3471 1.385 . S
C3475 C3474 1.374 . S
C3476 C3473 1.499 . S
C3476 C3477 1.373 . S
C3476 C3478 1.389 . S
C3477 H3450 0.950 . S
C3477 C3463 1.377 . S
C3477 C3476 1.373 . S
C3478 C3462 1.377 . S
C3478 C3476 1.389 . S
C3478 C3479 1.524 . S
C3479 C3478 1.524 . S
C3479 C3480 1.397 . S
C3479 C3484 1.363 . S
C3480 H3451 0.950 . S
C3480 C3479 1.397 . S
C3480 C3481 1.334 . S
C3481 H3452 0.950 . S
C3481 C3480 1.334 . S
C3481 C3482 1.287 . S
C3482 C3481 1.287 . S
C3482 C3483 1.524 . S
C3482 H3485 0.999 . S
C3483 H3453 0.950 . S
C3483 C3482 1.524 . S
C3483 C3484 1.415 . S
C3484 H3454 0.950 . S
C3484 C3479 1.363 . S
C3484 C3483 1.415 . S
H3485 C3482 0.999 . S
H3486 C3467 0.913 . S
H3487 C3505 0.951 . S
H3488 C3507 0.951 . S
H3489 C3509 0.950 . S
H3490 C3510 0.950 . S
H3491 C3512 0.950 . S
H3492 C3515 0.950 . S
H3493 C3516 0.950 . S
H3494 C3518 0.950 . S
H3495 C3519 0.950 . S
H3496 C3520 0.951 . S
H3497 C3522 0.951 . S
H3498 C3524 0.950 . S
H3499 C3525 0.950 . S
H3500 C3527 0.950 . S
H3501 C3530 0.950 . S
H3502 C3531 0.950 . S
H3503 C3533 0.950 . S
H3504 C3534 0.950 . S
C3505 H3487 0.951 . S
C3505 C3506 1.366 . S
C3505 C3507 1.388 . S
C3506 C3505 1.366 . S
C3506 C3510 1.385 . S
C3507 H3488 0.951 . S
C3507 C3505 1.388 . S
C3507 C3508 1.366 . S
C3508 C3507 1.366 . S
C3508 C3509 1.414 . S
C3508 C3511 1.499 . S
C3509 H3489 0.950 . S
C3509 C3508 1.414 . S
C3509 C3510 1.374 . S
C3510 H3490 0.950 . S
C3510 C3506 1.385 . S
C3510 C3509 1.374 . S
C3511 C3508 1.499 . S
C3511 C3512 1.373 . S
C3511 C3513 1.389 . S
C3512 H3491 0.950 . S
C3512 C3511 1.373 . S
C3512 C3528 1.377 . S
C3513 C3511 1.389 . S
C3513 C3514 1.524 . S
C3513 C3527 1.377 . S
C3514 C3513 1.524 . S
C3514 C3515 1.397 . S
C3514 C3519 1.363 . S
C3515 H3492 0.950 . S
C3515 C3514 1.397 . S
C3515 C3516 1.334 . S
C3516 H3493 0.950 . S
C3516 C3515 1.334 . S
C3516 C3517 1.287 . S
C3517 C3516 1.287 . S
C3517 C3518 1.524 . S
C3517 H3536 0.913 . S
C3518 H3494 0.950 . S
C3518 C3517 1.524 . S
C3518 C3519 1.415 . S
C3519 H3495 0.950 . S
C3519 C3514 1.363 . S
C3519 C3518 1.415 . S
C3520 H3496 0.951 . S
C3520 C3521 1.366 . S
C3520 C3522 1.388 . S
C3521 C3520 1.366 . S
C3521 C3525 1.385 . S
C3522 H3497 0.951 . S
C3522 C3520 1.388 . S
C3522 C3523 1.366 . S
C3523 C3522 1.366 . S
C3523 C3524 1.414 . S
C3523 C3526 1.499 . S
C3524 H3498 0.950 . S
C3524 C3523 1.414 . S
C3524 C3525 1.374 . S
C3525 H3499 0.950 . S
C3525 C3521 1.385 . S
C3525 C3524 1.374 . S
C3526 C3523 1.499 . S
C3526 C3527 1.373 . S
C3526 C3528 1.389 . S
C3527 H3500 0.950 . S
C3527 C3513 1.377 . S
C3527 C3526 1.373 . S
C3528 C3512 1.377 . S
C3528 C3526 1.389 . S
C3528 C3529 1.524 . S
C3529 C3528 1.524 . S
C3529 C3530 1.397 . S
C3529 C3534 1.363 . S
C3530 H3501 0.950 . S
C3530 C3529 1.397 . S
C3530 C3531 1.334 . S
C3531 H3502 0.950 . S
C3531 C3530 1.334 . S
C3531 C3532 1.287 . S
C3532 C3531 1.287 . S
C3532 C3533 1.524 . S
C3532 H3535 0.999 . S
C3533 H3503 0.950 . S
C3533 C3532 1.524 . S
C3533 C3534 1.415 . S
C3534 H3504 0.950 . S
C3534 C3529 1.363 . S
C3534 C3533 1.415 . S
H3535 C3532 0.999 . S
H3536 C3517 0.913 . S
C856 C469 1.387 . S
C871 C662 1.312 . S
C906 C505 1.387 . S
C921 C683 1.308 . S
C956 C433 1.315 . S
C971 C703 1.118 . S
C1006 C397 1.345 . S
C1021 C682 1.136 1_556 S
C1071 C704 1.334 . S
C1056 C325 1.420 . S
C1106 C361 1.349 . S
C1121 C661 1.139 1_556 S
C1171 C663 1.256 . S
C1156 C421 1.332 . S
C1221 C684 1.247 . S
C1206 C349 1.314 . S
C1256 C385 1.377 . S
C1271 C706 1.163 1_556 S
C1306 C493 1.317 . S
C1321 C685 1.124 . S
C1356 C529 1.274 . S
C1371 C705 1.207 . S
C1421 C664 1.140 . S
C1406 C457 1.339 . S
C1471 C725 1.312 . S
C1456 C37 1.387 . S
C1506 C73 1.388 . S
C1521 C746 1.308 . S
C1556 C1 1.316 . S
C1571 C766 1.121 . S
C1606 C613 1.346 . S
C1621 C745 1.137 . S
C1656 C541 1.419 . S
C1671 C767 1.334 . S
C1706 C577 1.350 . S
C1721 C724 1.141 . S
C1756 C637 1.333 . S
C1771 C726 1.255 . S
C1806 C565 1.315 . S
C1821 C747 1.247 . S
C1871 C769 1.163 . S
C1856 C601 1.377 . S
C1906 C61 1.317 . S
C1921 C748 1.124 . S
C1971 C768 1.208 . S
C1956 C97 1.274 . S
C2006 C25 1.339 . S
C2021 C727 1.139 . S
C2071 C788 1.312 . S
C2056 C253 1.387 . S
C2106 C289 1.388 . S
C2121 C809 1.310 . S
C2171 C829 1.119 . S
C2156 C217 1.315 . S
C2221 C808 1.138 . S
C2206 C181 1.346 . S
C2271 C830 1.336 . S
C2256 C109 1.420 . S
C2306 C145 1.349 . S
C2321 C787 1.141 . S
C2356 C205 1.332 . S
C2371 C789 1.255 . S
C2406 C133 1.315 . S
C2421 C810 1.246 . S
C2471 C832 1.161 . S
C2456 C169 1.376 . S
C2506 C277 1.317 . S
C2521 C811 1.124 . S
C2556 C313 1.274 . S
C2571 C831 1.207 . S
C2606 C241 1.339 . S
C2621 C790 1.139 . S
C2656 C571 1.386 . S
C2671 C666 1.342 . S
C2721 C687 1.384 . S
C2706 C607 1.426 . S
C2756 C643 1.493 . S
C2771 C707 1.458 . S
C2806 C247 1.541 . S
C2821 C686 1.505 1_655 S
C2856 C283 1.440 . S
C2871 C708 1.394 . S
C2921 C665 1.466 . S
C2906 C319 1.499 . S
C2956 C139 1.386 . S
C2971 C729 1.343 . S
C3006 C175 1.426 . S
C3021 C750 1.384 . S
C3056 C211 1.493 . S
C3071 C770 1.458 . S
C3106 C463 1.541 . S
C3121 C749 1.505 . S
C3171 C771 1.394 . S
C3156 C499 1.440 . S
C3206 C535 1.499 . S
C3221 C728 1.465 . S
C3256 C355 1.386 . S
C3271 C792 1.343 . S
C3306 C391 1.426 . S
C3321 C813 1.384 . S
C3371 C833 1.458 . S
C3356 C427 1.493 . S
C3406 C31 1.541 . S
C3421 C812 1.505 . S
C3456 C67 1.440 . S
C3471 C834 1.394 . S
C3506 C103 1.499 . S
C3521 C791 1.466 . S
