# Generated by pormake.
# Topology nom, (4,4)-cn, num edge types: 1
# Building blocks:
#     Node 0, Type 0, BuildingBlock: NAWXER_clean_linker_0, # of connection points: 4
#     Node 1, Type 0, BuildingBlock: NAWXER_clean_linker_0, # of connection points: 4
#     Node 2, Type 0, BuildingBlock: NAWXER_clean_linker_0, # of connection points: 4
#     Node 3, Type 0, BuildingBlock: NAWXER_clean_linker_0, # of connection points: 4
#     Node 4, Type 0, BuildingBlock: NAWXER_clean_linker_0, # of connection points: 4
#     Node 5, Type 0, BuildingBlock: NAWXER_clean_linker_0, # of connection points: 4
#     Node 6, Type 1, BuildingBlock: KUFVIS_clean_sbu_0, # of connection points: 4
#     Node 7, Type 1, BuildingBlock: KUFVIS_clean_sbu_0, # of connection points: 4
#     Node 8, Type 1, BuildingBlock: KUFVIS_clean_sbu_0, # of connection points: 4
#     Node 9, Type 1, BuildingBlock: KUFVIS_clean_sbu_0, # of connection points: 4
#     Node 10, Type 1, BuildingBlock: KUFVIS_clean_sbu_0, # of connection points: 4
#     Node 11, Type 1, BuildingBlock: KUFVIS_clean_sbu_0, # of connection points: 4
#     Edge 12, Type (0, 1), BuildingBlock: ZUJKAS_clean_linker_0, # of connection points: 2
#     Edge 13, Type (0, 1), BuildingBlock: ZUJKAS_clean_linker_0, # of connection points: 2
#     Edge 14, Type (0, 1), BuildingBlock: ZUJKAS_clean_linker_0, # of connection points: 2
#     Edge 15, Type (0, 1), BuildingBlock: ZUJKAS_clean_linker_0, # of connection points: 2
#     Edge 16, Type (0, 1), BuildingBlock: ZUJKAS_clean_linker_0, # of connection points: 2
#     Edge 17, Type (0, 1), BuildingBlock: ZUJKAS_clean_linker_0, # of connection points: 2
#     Edge 18, Type (0, 1), BuildingBlock: ZUJKAS_clean_linker_0, # of connection points: 2
#     Edge 19, Type (0, 1), BuildingBlock: ZUJKAS_clean_linker_0, # of connection points: 2
#     Edge 20, Type (0, 1), BuildingBlock: ZUJKAS_clean_linker_0, # of connection points: 2
#     Edge 21, Type (0, 1), BuildingBlock: ZUJKAS_clean_linker_0, # of connection points: 2
#     Edge 22, Type (0, 1), BuildingBlock: ZUJKAS_clean_linker_0, # of connection points: 2
#     Edge 23, Type (0, 1), BuildingBlock: ZUJKAS_clean_linker_0, # of connection points: 2
#     Edge 24, Type (0, 1), BuildingBlock: ZUJKAS_clean_linker_0, # of connection points: 2
#     Edge 25, Type (0, 1), BuildingBlock: ZUJKAS_clean_linker_0, # of connection points: 2
#     Edge 26, Type (0, 1), BuildingBlock: ZUJKAS_clean_linker_0, # of connection points: 2
#     Edge 27, Type (0, 1), BuildingBlock: ZUJKAS_clean_linker_0, # of connection points: 2
#     Edge 28, Type (0, 1), BuildingBlock: ZUJKAS_clean_linker_0, # of connection points: 2
#     Edge 29, Type (0, 1), BuildingBlock: ZUJKAS_clean_linker_0, # of connection points: 2
#     Edge 30, Type (0, 1), BuildingBlock: ZUJKAS_clean_linker_0, # of connection points: 2
#     Edge 31, Type (0, 1), BuildingBlock: ZUJKAS_clean_linker_0, # of connection points: 2
#     Edge 32, Type (0, 1), BuildingBlock: ZUJKAS_clean_linker_0, # of connection points: 2
#     Edge 33, Type (0, 1), BuildingBlock: ZUJKAS_clean_linker_0, # of connection points: 2
#     Edge 34, Type (0, 1), BuildingBlock: ZUJKAS_clean_linker_0, # of connection points: 2
#     Edge 35, Type (0, 1), BuildingBlock: ZUJKAS_clean_linker_0, # of connection points: 2
# Relax obj value: 0.005
# Max RMSD: 0.110
# Mean RMSD: 0.070
data_MOF--net-nom--node1-KUFVIS_clean_sbu_0--node2-NAWXER_clean_linker_0--edge1-ZUJKAS_clean_linker_0
_symmetry_space_group_name_H-M    P1
_symmetry_Int_Tables_number       1
_symmetry_cell_setting            triclinic
loop_
_symmetry_equiv_pos_as_xyz
'x, y, z'
_cell_length_a     64.698017
_cell_length_b     65.383461
_cell_length_c     72.08578
_cell_angle_alpha  90.60374
_cell_angle_beta   90.646471
_cell_angle_gamma 119.99294
loop_
_atom_site_label
_atom_site_type_symbol
_atom_site_fract_x
_atom_site_fract_y
_atom_site_fract_z
_atom_type_partial_charge
C0 C 0.91938 0.50969 0.33305 0.0
C1 C 0.90932 0.49018 0.34483 0.0
C2 C 0.9432 0.51994 0.32794 0.0
C3 C 0.95747 0.51077 0.33432 0.0
C4 C 0.92361 0.481 0.35122 0.0
C5 C 0.94755 0.49135 0.34613 0.0
C6 C 0.98301 0.52233 0.32948 0.0
C7 C 0.94296 0.48991 0.27597 0.0
C8 C 0.94498 0.50643 0.2627 0.0
C9 C 0.95763 0.49716 0.29186 0.0
C10 C 0.97465 0.52107 0.29483 0.0
C11 C 0.96199 0.53042 0.26583 0.0
C12 C 0.97682 0.53761 0.28164 0.0
C13 C 0.99099 0.52876 0.31118 0.0
C14 C 0.09748 0.57003 0.31746 0.0
C15 C 0.10456 0.58931 0.30561 0.0
C16 C 0.07379 0.55691 0.32314 0.0
C17 C 0.05682 0.56302 0.31726 0.0
C18 C 0.08749 0.59532 0.2998 0.0
C19 C 0.06389 0.58225 0.30548 0.0
C20 C 0.03138 0.54881 0.32226 0.0
C21 C 0.07165 0.57974 0.37613 0.0
C22 C 0.06909 0.56288 0.38924 0.0
C23 C 0.05702 0.573 0.36022 0.0
C24 C 0.03973 0.5492 0.35696 0.0
C25 C 0.0516 0.5391 0.38601 0.0
C26 C 0.037 0.53238 0.37008 0.0
C27 C 0.02346 0.54188 0.34055 0.0
H28 H 0.90881 0.51708 0.32778 0.0
H29 H 0.95057 0.53532 0.31923 0.0
H30 H 0.91644 0.46616 0.36048 0.0
H31 H 0.95832 0.48418 0.35139 0.0
H32 H 0.93047 0.47124 0.27388 0.0
H33 H 0.95602 0.484 0.30165 0.0
H34 H 0.96385 0.5437 0.25609 0.0
H35 H 0.98989 0.55615 0.28364 0.0
H36 H 0.11012 0.56475 0.32197 0.0
H37 H 0.06865 0.54174 0.33181 0.0
H38 H 0.0924 0.61026 0.29091 0.0
H39 H 0.05111 0.58724 0.3007 0.0
H40 H 0.08502 0.59818 0.37813 0.0
H41 H 0.05903 0.58645 0.35059 0.0
H42 H 0.04887 0.52573 0.39597 0.0
H43 H 0.02354 0.51398 0.368 0.0
N44 N 0.99956 0.5289 0.34343 0.0
N45 N 0.0148 0.54194 0.30832 0.0
C46 C 0.43057 0.93098 0.50062 0.0
C47 C 0.4401 0.92193 0.51366 0.0
C48 C 0.44403 0.95422 0.49468 0.0
C49 C 0.46741 0.96889 0.50152 0.0
C50 C 0.46356 0.93658 0.52042 0.0
C51 C 0.477 0.9599 0.51451 0.0
C52 C 0.48106 0.99406 0.49633 0.0
C53 C 0.47487 0.95391 0.44349 0.0
C54 C 0.46125 0.95641 0.42926 0.0
C55 C 0.48149 0.96827 0.45946 0.0
C56 C 0.4746 0.98538 0.46157 0.0
C57 C 0.45427 0.9735 0.43151 0.0
C58 C 0.46105 0.98795 0.44742 0.0
C59 C 0.48273 0.00168 0.47786 0.0
C60 C 0.54696 0.10728 0.48391 0.0
C61 C 0.53462 0.11415 0.47158 0.0
C62 C 0.5366 0.08385 0.48966 0.0
C63 C 0.51359 0.06693 0.48336 0.0
C64 C 0.51163 0.09711 0.46527 0.0
C65 C 0.50131 0.07376 0.47102 0.0
C66 C 0.50252 0.04182 0.4886 0.0
C67 C 0.51056 0.08207 0.54195 0.0
C68 C 0.52475 0.07957 0.55567 0.0
C69 C 0.50316 0.06759 0.52602 0.0
C70 C 0.51004 0.05052 0.52338 0.0
C71 C 0.53145 0.06235 0.55302 0.0
C72 C 0.52406 0.04791 0.53709 0.0
C73 C 0.50142 0.03425 0.50706 0.0
H74 H 0.41262 0.9201 0.49505 0.0
H75 H 0.43591 0.96088 0.48506 0.0
H76 H 0.4713 0.93022 0.53064 0.0
H77 H 0.49487 0.97099 0.52018 0.0
H78 H 0.48096 0.94128 0.4421 0.0
H79 H 0.4925 0.96638 0.46996 0.0
H80 H 0.44348 0.97569 0.421 0.0
H81 H 0.45563 1.00112 0.44872 0.0
H82 H 0.56484 0.11989 0.48881 0.0
H83 H 0.54674 0.0789 0.49877 0.0
H84 H 0.50147 0.10184 0.45599 0.0
H85 H 0.48359 0.06101 0.4659 0.0
H86 H 0.50519 0.09523 0.5435 0.0
H87 H 0.49176 0.06952 0.51592 0.0
H88 H 0.54201 0.05966 0.56345 0.0
H89 H 0.52928 0.03462 0.53548 0.0
N90 N 0.49072 0.01066 0.51017 0.0
N91 N 0.49315 0.02521 0.47477 0.0
C92 C 0.5442 0.48718 0.60996 0.0
C93 C 0.52796 0.4752 0.59523 0.0
C94 C 0.53708 0.49467 0.62564 0.0
C95 C 0.51349 0.49006 0.62702 0.0
C96 C 0.50445 0.47089 0.59657 0.0
C97 C 0.49734 0.47833 0.61225 0.0
C98 C 0.50577 0.49848 0.64325 0.0
C99 C 0.52341 0.44497 0.66557 0.0
C100 C 0.54119 0.45335 0.67958 0.0
C101 C 0.51374 0.45876 0.65965 0.0
C102 C 0.52202 0.48146 0.66732 0.0
C103 C 0.54925 0.47593 0.68741 0.0
C104 C 0.53972 0.48981 0.68137 0.0
C105 C 0.51107 0.4958 0.66186 0.0
C106 C 0.45423 0.52861 0.70587 0.0
C107 C 0.47114 0.54244 0.71971 0.0
C108 C 0.46095 0.52027 0.69048 0.0
C109 C 0.48481 0.52599 0.68844 0.0
C110 C 0.49491 0.54772 0.71782 0.0
C111 C 0.50164 0.5395 0.70236 0.0
C112 C 0.49225 0.51723 0.67227 0.0
C113 C 0.46561 0.56431 0.65057 0.0
C114 C 0.44597 0.55271 0.63823 0.0
C115 C 0.47914 0.55381 0.65544 0.0
C116 C 0.47295 0.5313 0.64835 0.0
C117 C 0.44031 0.53054 0.63074 0.0
C118 C 0.4537 0.52 0.6357 0.0
C119 C 0.48645 0.51939 0.6537 0.0
H120 H 0.56241 0.49069 0.60943 0.0
H121 H 0.55009 0.50427 0.6366 0.0
H122 H 0.49161 0.4621 0.58534 0.0
H123 H 0.47914 0.47486 0.61287 0.0
H124 H 0.51648 0.42745 0.65954 0.0
H125 H 0.49943 0.45144 0.64934 0.0
H126 H 0.56301 0.48291 0.69818 0.0
H127 H 0.5462 0.50712 0.68767 0.0
H128 H 0.43569 0.52385 0.70712 0.0
H129 H 0.44745 0.5092 0.68024 0.0
H130 H 0.50836 0.55842 0.7282 0.0
H131 H 0.52009 0.54392 0.70117 0.0
H132 H 0.47064 0.58157 0.65634 0.0
H133 H 0.49438 0.56325 0.66476 0.0
H134 H 0.42516 0.52105 0.62133 0.0
H135 H 0.44869 0.50273 0.62994 0.0
N136 N 0.49344 0.50991 0.63996 0.0
N137 N 0.50436 0.50556 0.67559 0.0
C138 C 0.92116 0.44924 0.82022 0.0
C139 C 0.91012 0.45616 0.80675 0.0
C140 C 0.94523 0.46383 0.82496 0.0
C141 C 0.95868 0.48592 0.81665 0.0
C142 C 0.92372 0.47803 0.79812 0.0
C143 C 0.9478 0.49275 0.80301 0.0
C144 C 0.98437 0.50122 0.82142 0.0
C145 C 0.94386 0.49578 0.87284 0.0
C146 C 0.94832 0.4847 0.88773 0.0
C147 C 0.95859 0.50291 0.8574 0.0
C148 C 0.97786 0.49875 0.85636 0.0
C149 C 0.96809 0.48125 0.88689 0.0
C150 C 0.98272 0.48825 0.8714 0.0
C151 C 0.99336 0.50569 0.8399 0.0
C152 C 0.10023 0.567 0.83017 0.0
C153 C 0.10793 0.5554 0.84238 0.0
C154 C 0.07593 0.55742 0.82587 0.0
C155 C 0.05893 0.53589 0.8335 0.0
C156 C 0.09073 0.53433 0.85051 0.0
C157 C 0.06653 0.52473 0.84614 0.0
C158 C 0.03317 0.52476 0.82869 0.0
C159 C 0.07072 0.52747 0.77573 0.0
C160 C 0.06919 0.5424 0.76255 0.0
C161 C 0.05606 0.52047 0.79122 0.0
C162 C 0.03971 0.52837 0.79387 0.0
C163 C 0.05251 0.54996 0.76512 0.0
C164 C 0.03778 0.54285 0.78056 0.0
C165 C 0.0242 0.52123 0.81025 0.0
H166 H 0.91134 0.43226 0.82678 0.0
H167 H 0.95339 0.45767 0.83498 0.0
H168 H 0.91568 0.48382 0.78768 0.0
H169 H 0.9579 0.50954 0.79621 0.0
H170 H 0.92877 0.49866 0.87296 0.0
H171 H 0.95484 0.51162 0.84624 0.0
H172 H 0.97239 0.47325 0.89826 0.0
H173 H 0.99767 0.48515 0.87107 0.0
H174 H 0.11298 0.58325 0.82366 0.0
H175 H 0.07048 0.56677 0.81651 0.0
H176 H 0.09596 0.52522 0.86031 0.0
H177 H 0.05374 0.50829 0.85242 0.0
H178 H 0.08344 0.52142 0.77419 0.0
H179 H 0.05752 0.5089 0.80113 0.0
H180 H 0.05064 0.56115 0.75506 0.0
H181 H 0.02507 0.5489 0.78224 0.0
N182 N 1.00015 0.50955 0.80733 0.0
N183 N 0.01738 0.51692 0.84277 0.0
C184 C 0.49146 0.93287 0.98643 0.0
C185 C 0.47423 0.9228 0.97205 0.0
C186 C 0.5005 0.95641 0.99196 0.0
C187 C 0.4921 0.97023 0.98352 0.0
C188 C 0.4662 0.93677 0.96336 0.0
C189 C 0.47509 0.96027 0.96902 0.0
C190 C 0.50203 0.99541 0.98889 0.0
C191 C 0.4666 0.95326 0.03946 0.0
C192 C 0.48204 0.95808 0.05485 0.0
C193 C 0.47398 0.96806 0.02413 0.0
C194 C 0.49713 0.98777 0.0237 0.0
C195 C 0.50495 0.97821 0.05457 0.0
C196 C 0.51236 0.99289 0.0392 0.0
C197 C 0.50545 0.00362 0.00753 0.0
C198 C 0.54529 0.1092 0.99892 0.0
C199 C 0.56241 0.11707 0.01339 0.0
C200 C 0.53246 0.08522 0.99386 0.0
C201 C 0.53723 0.06889 0.00271 0.0
C202 C 0.56636 0.10061 0.02279 0.0
C203 C 0.55395 0.07679 0.01747 0.0
C204 C 0.52475 0.0435 0.99716 0.0
C205 C 0.56124 0.08393 0.94598 0.0
C206 C 0.54534 0.08066 0.93127 0.0
C207 C 0.55349 0.0691 0.96128 0.0
C208 C 0.52957 0.05102 0.96235 0.0
C209 C 0.52156 0.06216 0.93219 0.0
C210 C 0.5138 0.04744 0.94754 0.0
C211 C 0.52094 0.03524 0.97851 0.0
H212 H 0.49836 0.9227 0.99311 0.0
H213 H 0.51431 0.96389 0.00266 0.0
H214 H 0.45288 0.92947 0.95228 0.0
H215 H 0.46857 0.97065 0.96213 0.0
H216 H 0.44887 0.9379 0.03914 0.0
H217 H 0.46158 0.96407 0.01261 0.0
H218 H 0.51715 0.98281 0.06632 0.0
H219 H 0.53016 0.00818 0.03936 0.0
H220 H 0.54173 0.12156 0.99165 0.0
H221 H 0.51893 0.07954 0.98299 0.0
H222 H 0.57952 0.10629 0.03396 0.0
H223 H 0.55778 0.06457 0.02469 0.0
H224 H 0.57978 0.09772 0.94553 0.0
H225 H 0.5662 0.07177 0.97228 0.0
H226 H 0.50881 0.05926 0.92117 0.0
H227 H 0.49533 0.03345 0.94797 0.0
N228 N 0.50965 0.01154 0.97515 0.0
N229 N 0.51688 0.02732 0.01087 0.0
C230 C 0.49478 0.59415 0.16457 0.0
C231 C 0.47569 0.58537 0.17691 0.0
C232 C 0.50546 0.58085 0.15991 0.0
C233 C 0.49694 0.5582 0.16713 0.0
C234 C 0.46756 0.56297 0.18455 0.0
C235 C 0.47812 0.54951 0.17971 0.0
C236 C 0.50847 0.54416 0.1623 0.0
C237 C 0.47619 0.55122 0.10898 0.0
C238 C 0.49298 0.565 0.09566 0.0
C239 C 0.48326 0.54386 0.12475 0.0
C240 C 0.50728 0.55021 0.12753 0.0
C241 C 0.51698 0.5712 0.09843 0.0
C242 C 0.52401 0.56371 0.11415 0.0
C243 C 0.5149 0.54209 0.14398 0.0
C244 C 0.5572 0.47852 0.15094 0.0
C245 C 0.57713 0.4909 0.1396 0.0
C246 C 0.54339 0.48857 0.15615 0.0
C247 C 0.54949 0.51133 0.15033 0.0
C248 C 0.58303 0.51359 0.13372 0.0
C249 C 0.56929 0.52362 0.13896 0.0
C250 C 0.53489 0.52221 0.15516 0.0
C251 C 0.56496 0.51323 0.20906 0.0
C252 C 0.54737 0.49738 0.22105 0.0
C253 C 0.55864 0.52173 0.19356 0.0
C254 C 0.53459 0.51444 0.18968 0.0
C255 C 0.52333 0.49033 0.21723 0.0
C256 C 0.51704 0.49894 0.20177 0.0
C257 C 0.52767 0.52342 0.17339 0.0
H258 H 0.50185 0.6116 0.15884 0.0
H259 H 0.52063 0.58848 0.15083 0.0
H260 H 0.45291 0.55578 0.19414 0.0
H261 H 0.47146 0.53224 0.18568 0.0
H262 H 0.45759 0.54625 0.10727 0.0
H263 H 0.46992 0.53302 0.13469 0.0
H264 H 0.53026 0.58151 0.08828 0.0
H265 H 0.54259 0.56861 0.11592 0.0
H266 H 0.55198 0.46087 0.15546 0.0
H267 H 0.52779 0.47842 0.16448 0.0
H268 H 0.59843 0.52373 0.12519 0.0
H269 H 0.57428 0.54114 0.13423 0.0
H270 H 0.58362 0.51893 0.21158 0.0
H271 H 0.57256 0.53408 0.18464 0.0
H272 H 0.5094 0.47844 0.22636 0.0
H273 H 0.4984 0.49331 0.19916 0.0
N274 N 0.51478 0.5344 0.17626 0.0
N275 N 0.52813 0.53153 0.14119 0.0
Mn276 Mn 0.62146 0.39035 0.41156 0.0
Mn277 Mn 0.65015 0.4488 0.4216 0.0
C278 C 0.6056 0.40529 0.43273 0.0
C279 C 0.61565 0.35275 0.41705 0.0
C280 C 0.62135 0.42734 0.386 0.0
O281 O 0.65483 0.40184 0.40177 0.0
O282 O 0.67306 0.44 0.41118 0.0
C283 C 0.68178 0.45006 0.45212 0.0
N284 N 0.66457 0.45457 0.44579 0.0
C285 C 0.66305 0.47108 0.47539 0.0
C286 C 0.68086 0.46675 0.48221 0.0
C287 C 0.69022 0.45615 0.47053 0.0
C288 C 0.65539 0.4647 0.45691 0.0
H289 H 0.68896 0.44185 0.4432 0.0
C290 C 0.67331 0.42231 0.40356 0.0
O291 O 0.60985 0.35793 0.40119 0.0
O292 O 0.62529 0.36955 0.42949 0.0
N293 N 0.63016 0.45969 0.43189 0.0
C294 C 0.61233 0.46169 0.42342 0.0
C295 C 0.6008 0.47163 0.43329 0.0
C296 C 0.60781 0.47953 0.4517 0.0
C297 C 0.62628 0.4774 0.4601 0.0
C298 C 0.63729 0.46758 0.44951 0.0
H299 H 0.60691 0.45573 0.40925 0.0
O300 O 0.59207 0.38498 0.42459 0.0
O301 O 0.62798 0.41609 0.42835 0.0
O302 O 0.61391 0.40578 0.38987 0.0
O303 O 0.63541 0.44461 0.39667 0.0
C304 C 0.63398 0.48432 0.47864 0.0
C305 C 0.6523 0.48111 0.48629 0.0
H306 H 0.68736 0.47132 0.49642 0.0
H307 H 0.70389 0.45265 0.47572 0.0
H308 H 0.58654 0.47319 0.42672 0.0
H309 H 0.59884 0.48715 0.45927 0.0
H310 H 0.62571 0.49185 0.4872 0.0
H311 H 0.65785 0.4862 0.50063 0.0
Mn312 Mn 0.25066 0.64544 0.57418 0.0
Mn313 Mn 0.2206 0.58704 0.564 0.0
C314 C 0.21937 0.63039 0.55282 0.0
C315 C 0.28267 0.68313 0.56889 0.0
C316 C 0.21397 0.60824 0.59961 0.0
O317 O 0.27266 0.63407 0.58424 0.0
O318 O 0.2528 0.59612 0.57425 0.0
C319 C 0.25016 0.58613 0.53332 0.0
N320 N 0.22854 0.58144 0.53974 0.0
C321 C 0.20952 0.56497 0.51015 0.0
C322 C 0.23156 0.56949 0.50324 0.0
C323 C 0.25197 0.58016 0.51487 0.0
C324 C 0.2088 0.57124 0.52866 0.0
H325 H 0.2659 0.59439 0.5422 0.0
C326 C 0.27086 0.61381 0.58213 0.0
O327 O 0.27178 0.67788 0.58464 0.0
O328 O 0.27529 0.66635 0.55645 0.0
N329 N 0.18924 0.57595 0.55382 0.0
C330 C 0.16958 0.57376 0.56238 0.0
C331 C 0.14772 0.56375 0.55256 0.0
C332 C 0.14626 0.55597 0.53411 0.0
C333 C 0.1667 0.55828 0.52562 0.0
C334 C 0.18794 0.56817 0.53616 0.0
H335 H 0.17056 0.57964 0.57658 0.0
O336 O 0.22642 0.65068 0.56092 0.0
O337 O 0.23103 0.6197 0.55731 0.0
O338 O 0.22784 0.62985 0.59568 0.0
O339 O 0.21074 0.59104 0.58903 0.0
C340 C 0.16692 0.55146 0.50705 0.0
C341 C 0.18832 0.55487 0.4993 0.0
H342 H 0.23305 0.56501 0.489 0.0
H343 H 0.26906 0.58381 0.50961 0.0
H344 H 0.13203 0.56205 0.5592 0.0
H345 H 0.12938 0.54831 0.52658 0.0
H346 H 0.15079 0.54386 0.49853 0.0
H347 H 0.18833 0.54985 0.48494 0.0
Mn348 Mn 0.6215 0.25777 0.74121 0.0
Mn349 Mn 0.6495 0.22716 0.73165 0.0
C350 C 0.60449 0.22633 0.7203 0.0
C351 C 0.6157 0.2896 0.73535 0.0
C352 C 0.62268 0.22177 0.76728 0.0
O353 O 0.65539 0.27955 0.75088 0.0
O354 O 0.67311 0.25911 0.74159 0.0
C355 C 0.67947 0.25571 0.70077 0.0
N356 N 0.66255 0.23451 0.70737 0.0
C357 C 0.65925 0.21514 0.67801 0.0
C358 C 0.67676 0.23673 0.67094 0.0
C359 C 0.68687 0.25711 0.68236 0.0
C360 C 0.65265 0.21481 0.69648 0.0
H361 H 0.68724 0.27142 0.70949 0.0
C362 C 0.6738 0.27738 0.74899 0.0
O363 O 0.61065 0.2793 0.7513 0.0
O364 O 0.62451 0.28168 0.723 0.0
N365 N 0.6288 0.19606 0.72173 0.0
C366 C 0.61133 0.17687 0.7304 0.0
C367 C 0.5991 0.15513 0.72078 0.0
C368 C 0.60505 0.15329 0.70239 0.0
C369 C 0.62316 0.17325 0.69378 0.0
C370 C 0.63489 0.19441 0.70413 0.0
H371 H 0.6067 0.17815 0.74454 0.0
O372 O 0.5914 0.2336 0.7283 0.0
O373 O 0.62707 0.23777 0.7247 0.0
O374 O 0.6151 0.23584 0.76316 0.0
O375 O 0.63614 0.21789 0.75672 0.0
C376 C 0.62982 0.17307 0.67527 0.0
C377 C 0.6478 0.19401 0.66737 0.0
H378 H 0.68244 0.23792 0.65672 0.0
H379 H 0.70031 0.27387 0.67697 0.0
H380 H 0.58512 0.13981 0.7275 0.0
H381 H 0.59552 0.1365 0.69501 0.0
H382 H 0.62101 0.15699 0.6669 0.0
H383 H 0.65253 0.19373 0.65304 0.0
Mn384 Mn 0.39529 0.6457 0.91184 0.0
Mn385 Mn 0.36477 0.58697 0.91917 0.0
C386 C 0.41033 0.62934 0.9325 0.0
C387 C 0.40263 0.68377 0.91844 0.0
C388 C 0.39475 0.60853 0.88524 0.0
O389 O 0.3623 0.63588 0.90129 0.0
O390 O 0.34336 0.59714 0.90764 0.0
C391 C 0.33227 0.58676 0.94786 0.0
N392 N 0.34889 0.58111 0.94234 0.0
C393 C 0.34645 0.56184 0.97114 0.0
C394 C 0.3292 0.56733 0.97711 0.0
C395 C 0.32215 0.57992 0.96544 0.0
C396 C 0.35593 0.56917 0.9535 0.0
H397 H 0.32679 0.5964 0.93891 0.0
C398 C 0.34368 0.61546 0.90115 0.0
O399 O 0.40796 0.67831 0.90252 0.0
O400 O 0.39275 0.66703 0.9304 0.0
N401 N 0.38278 0.57426 0.93033 0.0
C402 C 0.40037 0.57132 0.92283 0.0
C403 C 0.40937 0.55896 0.9327 0.0
C404 C 0.40007 0.54964 0.9501 0.0
C405 C 0.38219 0.55314 0.95764 0.0
C406 C 0.37367 0.56528 0.94704 0.0
H407 H 0.40735 0.57818 0.90935 0.0
O408 O 0.42427 0.64962 0.92514 0.0
O409 O 0.38782 0.61927 0.92774 0.0
O410 O 0.40178 0.63002 0.88962 0.0
O411 O 0.38084 0.59117 0.89526 0.0
C412 C 0.37259 0.54518 0.9753 0.0
C413 C 0.35483 0.54966 0.98209 0.0
H414 H 0.32137 0.5621 0.99067 0.0
H415 H 0.30892 0.5843 0.96998 0.0
H416 H 0.4233 0.55646 0.92686 0.0
H417 H 0.40688 0.53991 0.9576 0.0
H418 H 0.37893 0.53585 0.98385 0.0
H419 H 0.3478 0.54373 0.99579 0.0
Mn420 Mn 0.7673 0.40159 0.07706 0.0
Mn421 Mn 0.79563 0.37052 0.0828 0.0
C422 C 0.79993 0.41564 0.09711 0.0
C423 C 0.73689 0.40926 0.08475 0.0
C424 C 0.80202 0.40041 0.04914 0.0
O425 O 0.74331 0.36909 0.0665 0.0
O426 O 0.76296 0.34947 0.07247 0.0
C427 C 0.76586 0.33899 0.11251 0.0
N428 N 0.78766 0.35535 0.10623 0.0
C429 C 0.80709 0.35368 0.13436 0.0
C430 C 0.78486 0.33672 0.1411 0.0
C431 C 0.76415 0.32942 0.13016 0.0
C432 C 0.80766 0.36268 0.11673 0.0
H433 H 0.74992 0.33329 0.1041 0.0
C434 C 0.74471 0.35031 0.06639 0.0
O435 O 0.74697 0.41475 0.06869 0.0
O436 O 0.74428 0.39903 0.09624 0.0
N437 N 0.82739 0.38847 0.09277 0.0
C438 C 0.84727 0.40564 0.08452 0.0
C439 C 0.86952 0.41491 0.09363 0.0
C440 C 0.87113 0.40627 0.11101 0.0
C441 C 0.85039 0.38871 0.1193 0.0
C442 C 0.82874 0.38004 0.10951 0.0
H443 H 0.84619 0.4121 0.07103 0.0
O444 O 0.79331 0.42985 0.09038 0.0
O445 O 0.78703 0.39353 0.0921 0.0
O446 O 0.78848 0.40826 0.05441 0.0
O447 O 0.80543 0.38587 0.05853 0.0
C448 C 0.85034 0.37945 0.13688 0.0
C449 C 0.82868 0.3621 0.14448 0.0
H450 H 0.78347 0.32926 0.15469 0.0
H451 H 0.74692 0.3164 0.13529 0.0
H452 H 0.88544 0.42852 0.08718 0.0
H453 H 0.8884 0.41325 0.11783 0.0
H454 H 0.86682 0.38566 0.14476 0.0
H455 H 0.82882 0.35537 0.15811 0.0
Mn456 Mn 0.38258 0.77842 0.2437 0.0
Mn457 Mn 0.44173 0.8089 0.25327 0.0
C458 C 0.39786 0.80968 0.26477 0.0
C459 C 0.34478 0.7466 0.24951 0.0
C460 C 0.41943 0.81469 0.2178 0.0
O461 O 0.39423 0.75674 0.23373 0.0
O462 O 0.43277 0.77701 0.24322 0.0
C463 C 0.44353 0.78013 0.28401 0.0
N464 N 0.4479 0.80138 0.27751 0.0
C465 C 0.46479 0.82052 0.30696 0.0
C466 C 0.46062 0.79887 0.31393 0.0
C467 C 0.44989 0.77858 0.30242 0.0
C468 C 0.45813 0.821 0.28849 0.0
H469 H 0.43521 0.76447 0.27522 0.0
C470 C 0.41486 0.75884 0.23568 0.0
O471 O 0.34971 0.75706 0.23362 0.0
O472 O 0.36196 0.75429 0.26179 0.0
N473 N 0.45273 0.83995 0.26332 0.0
C474 C 0.45453 0.85922 0.25472 0.0
C475 C 0.4645 0.8809 0.26445 0.0
C476 C 0.47265 0.88258 0.28285 0.0
C477 C 0.47075 0.86255 0.29137 0.0
C478 C 0.46084 0.84146 0.28093 0.0
H479 H 0.44837 0.85807 0.24056 0.0
O480 O 0.37718 0.80241 0.25685 0.0
O481 O 0.40878 0.79828 0.26026 0.0
O482 O 0.39773 0.8007 0.22195 0.0
O483 O 0.43711 0.81831 0.22824 0.0
C484 C 0.47801 0.86259 0.30988 0.0
C485 C 0.47495 0.84157 0.31769 0.0
H486 H 0.46541 0.79758 0.32814 0.0
H487 H 0.4465 0.76178 0.30773 0.0
H488 H 0.46588 0.89628 0.25779 0.0
H489 H 0.48024 0.89932 0.29032 0.0
H490 H 0.48572 0.87862 0.31831 0.0
H491 H 0.4803 0.84176 0.33201 0.0
H492 H 0.11964 0.60583 0.27079 0.0
H493 H 0.16063 0.63012 0.26043 0.0
H494 H 0.18704 0.62816 0.31519 0.0
H495 H 0.14601 0.60399 0.32574 0.0
H496 H 0.19433 0.67455 0.27497 0.0
H497 H 0.22647 0.61041 0.28115 0.0
H498 H 0.19516 0.6015 0.281 0.0
H499 H 0.2131 0.61411 0.30168 0.0
C500 C 0.13415 0.61058 0.28066 0.0
C501 C 0.12954 0.60304 0.29913 0.0
C502 C 0.15756 0.62434 0.27468 0.0
C503 C 0.17687 0.63071 0.28697 0.0
C504 C 0.1724 0.62303 0.30537 0.0
H505 H 0.32951 0.72317 0.28206 0.0
H506 H 0.28864 0.69437 0.29034 0.0
C507 C 0.14895 0.60924 0.31138 0.0
C508 C 0.20158 0.64648 0.28077 0.0
H509 H 0.25565 0.65014 0.27502 0.0
C510 C 0.20771 0.66917 0.27485 0.0
C511 C 0.21898 0.63943 0.28071 0.0
C512 C 0.21313 0.61497 0.28632 0.0
C513 C 0.23093 0.68521 0.26922 0.0
C514 C 0.24836 0.67817 0.26915 0.0
C515 C 0.24222 0.65545 0.27502 0.0
C516 C 0.27325 0.69446 0.26356 0.0
C517 C 0.23677 0.70978 0.26392 0.0
C518 C 0.27824 0.70362 0.2456 0.0
C519 C 0.3016 0.72016 0.24083 0.0
C520 C 0.32039 0.72768 0.25392 0.0
C521 C 0.31544 0.7178 0.27167 0.0
C522 C 0.29209 0.70132 0.27643 0.0
H523 H 0.22327 0.71414 0.26905 0.0
H524 H 0.25459 0.72321 0.26951 0.0
H525 H 0.23708 0.711 0.24857 0.0
H526 H 0.26401 0.69819 0.23534 0.0
H527 H 0.30485 0.72733 0.22701 0.0
H528 H 0.53318 0.12933 0.43659 0.0
H529 H 0.54948 0.16997 0.42636 0.0
H530 H 0.57722 0.19571 0.4816 0.0
H531 H 0.56075 0.15506 0.49204 0.0
H532 H 0.53795 0.20314 0.44046 0.0
H533 H 0.6349 0.23517 0.44861 0.0
H534 H 0.61267 0.20416 0.44809 0.0
H535 H 0.61766 0.22164 0.46883 0.0
C536 C 0.54271 0.14362 0.4466 0.0
C537 C 0.54559 0.13892 0.46517 0.0
C538 C 0.55213 0.16684 0.44069 0.0
C539 C 0.56479 0.18585 0.45316 0.0
C540 C 0.56794 0.1813 0.47165 0.0
H541 H 0.62392 0.33689 0.4496 0.0
H542 H 0.61209 0.29626 0.45746 0.0
C543 C 0.5585 0.15805 0.4776 0.0
C544 C 0.57354 0.21036 0.44701 0.0
H545 H 0.62386 0.26407 0.4423 0.0
C546 C 0.55674 0.21644 0.44072 0.0
C547 C 0.59806 0.22765 0.44744 0.0
C548 C 0.61693 0.22186 0.45345 0.0
C549 C 0.56373 0.23951 0.43525 0.0
C550 C 0.58825 0.25684 0.43571 0.0
C551 C 0.60508 0.25073 0.44191 0.0
C552 C 0.59666 0.2816 0.4304 0.0
C553 C 0.54472 0.24528 0.42958 0.0
C554 C 0.59245 0.28694 0.41242 0.0
C555 C 0.59912 0.31017 0.40789 0.0
C556 C 0.61029 0.32848 0.42124 0.0
C557 C 0.61528 0.32319 0.43902 0.0
C558 C 0.60855 0.29997 0.44353 0.0
H559 H 0.52678 0.23179 0.43436 0.0
H560 H 0.54885 0.2628 0.43527 0.0
H561 H 0.54391 0.24584 0.41423 0.0
H562 H 0.58375 0.27309 0.40195 0.0
H563 H 0.59517 0.3137 0.39404 0.0
H564 H 0.42963 0.57465 0.66154 0.0
H565 H 0.40258 0.58953 0.6538 0.0
H566 H 0.40109 0.56918 0.5965 0.0
H567 H 0.42846 0.55472 0.60402 0.0
H568 H 0.4056 0.61499 0.60231 0.0
H569 H 0.33088 0.54358 0.64105 0.0
H570 H 0.35846 0.56085 0.65383 0.0
H571 H 0.35711 0.54221 0.63484 0.0
C572 C 0.42383 0.57368 0.64725 0.0
C573 C 0.43102 0.56333 0.63341 0.0
C574 C 0.40824 0.58201 0.64288 0.0
C575 C 0.39963 0.58016 0.62463 0.0
C576 C 0.40747 0.57066 0.61068 0.0
H577 H 0.2748 0.57423 0.57849 0.0
H578 H 0.30704 0.56827 0.58965 0.0
C579 C 0.42296 0.56226 0.61503 0.0
C580 C 0.38165 0.58714 0.62007 0.0
H581 H 0.32329 0.57116 0.6263 0.0
C582 C 0.38765 0.60558 0.60765 0.0
C583 C 0.35822 0.57461 0.62695 0.0
C584 C 0.35059 0.55408 0.6398 0.0
C585 C 0.37068 0.61167 0.60172 0.0
C586 C 0.34722 0.59908 0.60856 0.0
C587 C 0.34135 0.58086 0.62119 0.0
C588 C 0.32797 0.6033 0.6018 0.0
C589 C 0.37773 0.6309 0.58769 0.0
C590 C 0.32898 0.62499 0.60502 0.0
C591 C 0.31051 0.62854 0.59862 0.0
C592 C 0.29063 0.61037 0.58897 0.0
C593 C 0.28974 0.58864 0.58588 0.0
C594 C 0.30817 0.58516 0.59226 0.0
H595 H 0.39497 0.63561 0.58112 0.0
H596 H 0.36376 0.62541 0.57665 0.0
H597 H 0.37967 0.64697 0.59471 0.0
H598 H 0.34395 0.6391 0.61263 0.0
H599 H 0.31177 0.64546 0.60132 0.0
H600 H 0.87252 0.43133 0.82962 0.0
H601 H 0.83121 0.40274 0.82071 0.0
H602 H 0.84902 0.41601 0.76295 0.0
H603 H 0.89033 0.44479 0.77177 0.0
H604 H 0.80566 0.41264 0.77084 0.0
H605 H 0.81116 0.33717 0.79994 0.0
H606 H 0.8181 0.36063 0.8164 0.0
H607 H 0.83716 0.36583 0.79694 0.0
C608 C 0.86761 0.42815 0.81502 0.0
C609 C 0.88471 0.44014 0.80139 0.0
C610 C 0.84403 0.4118 0.80996 0.0
C611 C 0.83716 0.40692 0.79117 0.0
C612 C 0.85398 0.41946 0.77753 0.0
H613 H 0.71774 0.28237 0.74302 0.0
H614 H 0.75655 0.31456 0.75338 0.0
C615 C 0.87754 0.43594 0.78259 0.0
C616 C 0.81266 0.38827 0.78567 0.0
H617 H 0.77336 0.32914 0.7886 0.0
C618 C 0.79854 0.39437 0.77473 0.0
C619 C 0.80357 0.36441 0.79058 0.0
C620 C 0.81833 0.3565 0.80146 0.0
C621 C 0.77553 0.37725 0.76857 0.0
C622 C 0.76628 0.35348 0.77379 0.0
C623 C 0.78041 0.34741 0.78475 0.0
C624 C 0.74247 0.33434 0.76731 0.0
C625 C 0.76164 0.38465 0.75609 0.0
C626 C 0.72157 0.33466 0.7718 0.0
C627 C 0.69923 0.31625 0.76581 0.0
C628 C 0.69737 0.29705 0.75539 0.0
C629 C 0.7184 0.29677 0.75107 0.0
C630 C 0.74066 0.3152 0.75697 0.0
H631 H 0.77337 0.40203 0.74972 0.0
H632 H 0.75213 0.37133 0.74484 0.0
H633 H 0.74814 0.38623 0.76438 0.0
H634 H 0.72251 0.349 0.78011 0.0
H635 H 0.68343 0.31699 0.76949 0.0
H636 H 0.468 0.90537 0.93652 0.0
H637 H 0.45387 0.86445 0.9265 0.0
H638 H 0.44607 0.84334 0.98362 0.0
H639 H 0.46 0.88415 0.99376 0.0
H640 H 0.47594 0.83621 0.93821 0.0
H641 H 0.38049 0.79667 0.95689 0.0
H642 H 0.39952 0.82795 0.95328 0.0
H643 H 0.40209 0.81502 0.9744 0.0
C644 C 0.463 0.89195 0.94693 0.0
C645 C 0.46506 0.89794 0.96593 0.0
C646 C 0.45505 0.86865 0.94119 0.0
C647 C 0.44874 0.85092 0.95433 0.0
C648 C 0.45062 0.85677 0.97328 0.0
H649 H 0.39889 0.70129 0.95198 0.0
H650 H 0.41007 0.74202 0.95994 0.0
C651 C 0.45874 0.88009 0.97904 0.0
C652 C 0.44107 0.82642 0.94825 0.0
H653 H 0.39352 0.77027 0.94741 0.0
C654 C 0.45789 0.82177 0.94008 0.0
C655 C 0.41757 0.80771 0.95086 0.0
C656 C 0.39874 0.81197 0.95921 0.0
C657 C 0.45199 0.79871 0.93484 0.0
C658 C 0.42842 0.77992 0.93738 0.0
C659 C 0.41155 0.78467 0.94543 0.0
C660 C 0.42107 0.75513 0.93225 0.0
C661 C 0.47129 0.79462 0.92722 0.0
C662 C 0.42309 0.74885 0.91394 0.0
C663 C 0.41691 0.7256 0.90939 0.0
C664 C 0.40824 0.70815 0.923 0.0
C665 C 0.40554 0.71433 0.94118 0.0
C666 C 0.41192 0.73761 0.94575 0.0
H667 H 0.48941 0.8094 0.93093 0.0
H668 H 0.46963 0.77796 0.93245 0.0
H669 H 0.46965 0.79328 0.91186 0.0
H670 H 0.42952 0.76194 0.90318 0.0
H671 H 0.41897 0.72134 0.89522 0.0
H672 H 0.59191 0.46567 0.16062 0.0
H673 H 0.61761 0.44993 0.15116 0.0
H674 H 0.62102 0.47638 0.09608 0.0
H675 H 0.59527 0.49198 0.10533 0.0
H676 H 0.6117 0.41751 0.12188 0.0
H677 H 0.69156 0.50584 0.11247 0.0
H678 H 0.66571 0.50174 0.12488 0.0
H679 H 0.66536 0.5012 0.09994 0.0
C680 C 0.59795 0.46793 0.14644 0.0
C681 C 0.59176 0.48031 0.13378 0.0
C682 C 0.61269 0.45901 0.14109 0.0
C683 C 0.62154 0.46238 0.12302 0.0
C684 C 0.61481 0.47407 0.11021 0.0
H685 H 0.71832 0.43096 0.06369 0.0
H686 H 0.68911 0.44232 0.07293 0.0
C687 C 0.60012 0.483 0.11553 0.0
C688 C 0.63802 0.45389 0.11756 0.0
H689 H 0.69433 0.47277 0.10217 0.0
C690 C 0.62981 0.42955 0.11765 0.0
C691 C 0.66162 0.46969 0.11206 0.0
C692 C 0.67173 0.49609 0.11246 0.0
C693 C 0.64445 0.42053 0.11196 0.0
C694 C 0.66801 0.43634 0.10636 0.0
C695 C 0.67622 0.46068 0.10639 0.0
C696 C 0.68459 0.42813 0.10052 0.0
C697 C 0.6344 0.39415 0.11159 0.0
C698 C 0.69175 0.41641 0.11298 0.0
C699 C 0.70842 0.40987 0.10773 0.0
C700 C 0.71835 0.41509 0.08997 0.0
C701 C 0.71099 0.42666 0.07747 0.0
C702 C 0.69431 0.43317 0.08272 0.0
H703 H 0.61457 0.38438 0.11158 0.0
H704 H 0.64045 0.38852 0.09918 0.0
H705 H 0.64079 0.38909 0.12412 0.0
H706 H 0.68485 0.41278 0.12691 0.0
H707 H 0.71382 0.40109 0.11772 0.0
H708 H 0.39337 0.90009 0.5237 0.0
H709 H 0.36869 0.85977 0.53451 0.0
H710 H 0.42845 0.84812 0.52993 0.0
H711 H 0.45334 0.88859 0.51918 0.0
H712 H 0.35675 0.81866 0.51627 0.0
H713 H 0.40535 0.82503 0.58195 0.0
H714 H 0.41043 0.8507 0.5692 0.0
H715 H 0.42376 0.83363 0.56183 0.0
C716 C 0.40126 0.88894 0.52495 0.0
C717 C 0.42531 0.89752 0.52055 0.0
C718 C 0.38717 0.86594 0.53122 0.0
C719 C 0.39679 0.85102 0.53327 0.0
C720 C 0.42079 0.85949 0.52888 0.0
H721 H 0.31018 0.69806 0.5381 0.0
H722 H 0.339 0.73863 0.52993 0.0
C723 C 0.43497 0.88259 0.52268 0.0
C724 C 0.3813 0.8263 0.5392 0.0
H725 H 0.37476 0.78664 0.57238 0.0
C726 C 0.36068 0.81167 0.52855 0.0
C727 C 0.3863 0.8173 0.55536 0.0
C728 C 0.40753 0.83251 0.56786 0.0
C729 C 0.345 0.78826 0.53351 0.0
C730 C 0.35036 0.77902 0.54935 0.0
C731 C 0.37085 0.79369 0.56013 0.0
C732 C 0.33457 0.75429 0.55507 0.0
C733 C 0.32256 0.7738 0.52196 0.0
C734 C 0.32331 0.74954 0.5723 0.0
C735 C 0.30697 0.7263 0.57711 0.0
C736 C 0.30165 0.70744 0.56476 0.0
C737 C 0.31371 0.71221 0.54785 0.0
C738 C 0.3301 0.7354 0.54311 0.0
H739 H 0.31802 0.78515 0.51347 0.0
H740 H 0.32527 0.76202 0.51234 0.0
H741 H 0.30717 0.76263 0.53085 0.0
H742 H 0.32662 0.76386 0.58179 0.0
H743 H 0.29803 0.7232 0.59026 0.0
H744 H 0.55483 0.42694 0.65889 0.0
H745 H 0.56935 0.40103 0.67012 0.0
H746 H 0.56386 0.41984 0.7266 0.0
H747 H 0.54916 0.44566 0.71551 0.0
H748 H 0.61138 0.41475 0.69642 0.0
H749 H 0.52347 0.34492 0.72191 0.0
H750 H 0.52602 0.3659 0.70469 0.0
H751 H 0.53309 0.37503 0.72856 0.0
C752 C 0.55665 0.4255 0.6737 0.0
C753 C 0.55079 0.43828 0.68632 0.0
C754 C 0.56505 0.41081 0.68008 0.0
C755 C 0.56748 0.40844 0.69917 0.0
C756 C 0.56193 0.42135 0.71181 0.0
H757 H 0.59955 0.31164 0.75875 0.0
H758 H 0.5897 0.34222 0.75096 0.0
C759 C 0.55371 0.43619 0.70545 0.0
C760 C 0.57563 0.39227 0.70583 0.0
H761 H 0.55627 0.33919 0.72653 0.0
C762 C 0.5994 0.39824 0.70305 0.0
C763 C 0.55995 0.37089 0.71457 0.0
C764 C 0.53414 0.36359 0.71758 0.0
C765 C 0.60796 0.38333 0.70882 0.0
C766 C 0.59211 0.36159 0.71713 0.0
C767 C 0.56841 0.35584 0.72016 0.0
C768 C 0.59941 0.3441 0.72213 0.0
C769 C 0.63397 0.39119 0.70617 0.0
C770 C 0.60805 0.33493 0.70852 0.0
C771 C 0.61385 0.31763 0.71296 0.0
C772 C 0.61079 0.30887 0.73105 0.0
C773 C 0.60216 0.31807 0.7447 0.0
C774 C 0.5965 0.33551 0.74026 0.0
H775 H 0.64496 0.41073 0.70538 0.0
H776 H 0.64111 0.38516 0.71765 0.0
H777 H 0.63595 0.38358 0.69294 0.0
H778 H 0.60984 0.34077 0.69433 0.0
H779 H 0.62025 0.31076 0.70208 0.0
H780 H 0.13153 0.5307 0.84582 0.0
H781 H 0.17344 0.54588 0.85403 0.0
H782 H 0.18522 0.61689 0.85561 0.0
H783 H 0.14292 0.60171 0.84817 0.0
H784 H 0.21404 0.57724 0.8359 0.0
H785 H 0.21151 0.61224 0.90602 0.0
H786 H 0.18476 0.59274 0.89283 0.0
H787 H 0.2019 0.62344 0.88717 0.0
C788 C 0.14292 0.54953 0.84815 0.0
C789 C 0.13375 0.56495 0.84657 0.0
C790 C 0.16694 0.5582 0.85267 0.0
C791 C 0.18237 0.58247 0.85571 0.0
C792 C 0.17351 0.59804 0.85368 0.0
H793 H 0.3334 0.65003 0.89143 0.0
H794 H 0.29549 0.64457 0.87892 0.0
C795 C 0.14939 0.58936 0.84921 0.0
C796 C 0.20767 0.59118 0.86103 0.0
H797 H 0.24843 0.61713 0.89657 0.0
C798 C 0.22161 0.58612 0.8491 0.0
C799 C 0.21754 0.60284 0.87825 0.0
C800 C 0.20316 0.60801 0.89191 0.0
C801 C 0.24495 0.59191 0.85411 0.0
C802 C 0.25451 0.60286 0.87155 0.0
C803 C 0.24098 0.60877 0.88319 0.0
C804 C 0.27766 0.60641 0.8786 0.0
C805 C 0.25912 0.58594 0.84085 0.0
C806 C 0.28 0.58676 0.8827 0.0
C807 C 0.30145 0.58976 0.88994 0.0
C808 C 0.32109 0.61254 0.89319 0.0
C809 C 0.31869 0.63225 0.88901 0.0
C810 C 0.29707 0.62919 0.88189 0.0
H811 H 0.25183 0.58322 0.82643 0.0
H812 H 0.27814 0.60014 0.84094 0.0
H813 H 0.25837 0.56937 0.84523 0.0
H814 H 0.26508 0.56903 0.88051 0.0
H815 H 0.30259 0.57416 0.89298 0.0
H816 H 0.56842 0.13747 0.04763 0.0
H817 H 0.59504 0.17893 0.05651 0.0
H818 H 0.6166 0.19482 0.99958 0.0
H819 H 0.58914 0.15359 0.9906 0.0
H820 H 0.64066 0.20174 0.05539 0.0
H821 H 0.60912 0.25005 0.01188 0.0
H822 H 0.59197 0.21844 0.01442 0.0
H823 H 0.61567 0.23125 0.99789 0.0
C824 C 0.57853 0.14998 0.037 0.0
C825 C 0.57672 0.14246 0.01844 0.0
C826 C 0.59373 0.17364 0.04206 0.0
C827 C 0.60766 0.19018 0.0287 0.0
C828 C 0.60556 0.18267 0.01007 0.0
H829 H 0.74512 0.31158 0.05265 0.0
H830 H 0.71102 0.27359 0.0433 0.0
C831 C 0.58999 0.15908 0.00495 0.0
C832 C 0.626 0.21457 0.03456 0.0
H833 H 0.6492 0.27288 0.02445 0.0
C834 C 0.64227 0.21727 0.04876 0.0
C835 C 0.62802 0.23496 0.02615 0.0
C836 C 0.61008 0.23354 0.01189 0.0
C837 C 0.66084 0.23961 0.05439 0.0
C838 C 0.66387 0.25987 0.04508 0.0
C839 C 0.64714 0.25732 0.03134 0.0
C840 C 0.68457 0.28368 0.04926 0.0
C841 C 0.67685 0.24122 0.07041 0.0
C842 C 0.68117 0.30247 0.05469 0.0
C843 C 0.70076 0.32448 0.05969 0.0
C844 C 0.72404 0.32795 0.05945 0.0
C845 C 0.72739 0.30936 0.0533 0.0
C846 C 0.70789 0.28757 0.04805 0.0
H847 H 0.66765 0.22585 0.07968 0.0
H848 H 0.6928 0.24119 0.06495 0.0
H849 H 0.68289 0.25764 0.0788 0.0
H850 H 0.66333 0.29993 0.05556 0.0
H851 H 0.69762 0.33849 0.06435 0.0
H852 H 0.46262 0.61015 0.15402 0.0
H853 H 0.44843 0.63719 0.16291 0.0
H854 H 0.45081 0.62112 0.2205 0.0
H855 H 0.46471 0.59378 0.21167 0.0
H856 H 0.41087 0.62439 0.21155 0.0
H857 H 0.49312 0.70182 0.18597 0.0
H858 H 0.47715 0.67915 0.16867 0.0
H859 H 0.49042 0.67316 0.18841 0.0
C860 C 0.46004 0.61234 0.16858 0.0
C861 C 0.46502 0.60005 0.18217 0.0
C862 C 0.45197 0.62781 0.17363 0.0
C863 C 0.44906 0.63155 0.1924 0.0
C864 C 0.45304 0.61856 0.20595 0.0
H865 H 0.45343 0.75337 0.24246 0.0
H866 H 0.45982 0.72154 0.23182 0.0
C867 C 0.46092 0.60292 0.20088 0.0
C868 C 0.44286 0.64971 0.19799 0.0
H869 H 0.46277 0.70885 0.19655 0.0
C870 C 0.42217 0.64287 0.20826 0.0
C871 C 0.45781 0.67384 0.19387 0.0
C872 C 0.48098 0.68253 0.18378 0.0
C873 C 0.41602 0.65953 0.21455 0.0
C874 C 0.43077 0.68359 0.21014 0.0
C875 C 0.45139 0.69037 0.19979 0.0
C876 C 0.42603 0.70234 0.21694 0.0
C877 C 0.39423 0.65133 0.22633 0.0
C878 C 0.40488 0.7022 0.21207 0.0
C879 C 0.40106 0.72042 0.21824 0.0
C880 C 0.41847 0.73925 0.2292 0.0
C881 C 0.43965 0.73928 0.23397 0.0
C882 C 0.44335 0.72105 0.22791 0.0
H883 H 0.38832 0.63364 0.23218 0.0
H884 H 0.39775 0.66403 0.23793 0.0
H885 H 0.37937 0.65011 0.21765 0.0
H886 H 0.39148 0.6882 0.20329 0.0
H887 H 0.38461 0.71988 0.21422 0.0
H888 H 0.88685 0.51397 0.35595 0.0
H889 H 0.84524 0.49755 0.36468 0.0
H890 H 0.83317 0.42704 0.35577 0.0
H891 H 0.87498 0.44341 0.347 0.0
H892 H 0.80482 0.469 0.34294 0.0
H893 H 0.80613 0.42373 0.40754 0.0
H894 H 0.83312 0.44545 0.39663 0.0
H895 H 0.81645 0.41603 0.38702 0.0
C896 C 0.87535 0.49496 0.3558 0.0
C897 C 0.88419 0.47998 0.35072 0.0
C898 C 0.8516 0.4856 0.36086 0.0
C899 C 0.83616 0.46109 0.36103 0.0
C900 C 0.84489 0.44601 0.35607 0.0
H901 H 0.68409 0.38914 0.39033 0.0
H902 H 0.72255 0.39609 0.37871 0.0
C903 C 0.86875 0.45538 0.35105 0.0
C904 C 0.81082 0.45164 0.36589 0.0
H905 H 0.76948 0.42072 0.39872 0.0
C906 C 0.79705 0.4583 0.35506 0.0
C907 C 0.80067 0.43754 0.38164 0.0
C908 C 0.81483 0.43036 0.394 0.0
C909 C 0.77363 0.45178 0.35983 0.0
C910 C 0.7638 0.43846 0.37594 0.0
C911 C 0.77715 0.43095 0.38637 0.0
C912 C 0.74053 0.43396 0.38298 0.0
C913 C 0.75965 0.45948 0.34775 0.0
C914 C 0.73809 0.45293 0.38943 0.0
C915 C 0.71631 0.44907 0.39612 0.0
C916 C 0.69641 0.42611 0.3965 0.0
C917 C 0.69897 0.40705 0.39014 0.0
C918 C 0.72092 0.41096 0.38354 0.0
H919 H 0.76713 0.46412 0.33362 0.0
H920 H 0.74063 0.44538 0.34652 0.0
H921 H 0.76035 0.47534 0.35413 0.0
H922 H 0.75314 0.47078 0.38934 0.0
H923 H 0.71511 0.46418 0.40092 0.0
H924 H 0.08998 0.54006 0.4059 0.0
H925 H 0.11461 0.55177 0.43429 0.0
H926 H 0.10756 0.61373 0.43963 0.0
H927 H 0.08271 0.60206 0.41137 0.0
H928 H 0.15459 0.62287 0.44418 0.0
H929 H 0.09189 0.54863 0.48781 0.0
H930 H 0.09856 0.53972 0.46609 0.0
H931 H 0.08273 0.5558 0.46624 0.0
C932 C 0.09344 0.55604 0.41322 0.0
C933 C 0.0843 0.57008 0.40638 0.0
C934 C 0.10751 0.5627 0.42944 0.0
C935 C 0.11261 0.58344 0.43919 0.0
C936 C 0.10376 0.59762 0.43232 0.0
H937 H 0.17499 0.62522 0.55072 0.0
H938 H 0.14885 0.61464 0.523 0.0
C939 C 0.08968 0.59098 0.41611 0.0
C940 C 0.12768 0.59067 0.4563 0.0
H941 H 0.13092 0.57343 0.50026 0.0
C942 C 0.1494 0.61211 0.45647 0.0
C943 C 0.12072 0.57672 0.47238 0.0
C944 C 0.09711 0.55403 0.47327 0.0
C945 C 0.1646 0.61974 0.47218 0.0
C946 C 0.15799 0.60541 0.48804 0.0
C947 C 0.13603 0.58424 0.48802 0.0
C948 C 0.17375 0.61198 0.50471 0.0
C949 C 0.18748 0.6432 0.47174 0.0
C950 C 0.19627 0.61387 0.50358 0.0
C951 C 0.21102 0.61973 0.51934 0.0
C952 C 0.20329 0.62335 0.53652 0.0
C953 C 0.18101 0.622 0.53763 0.0
C954 C 0.16617 0.61599 0.52186 0.0
H955 H 0.18694 0.65465 0.46069 0.0
H956 H 0.19114 0.65273 0.48529 0.0
H957 H 0.20254 0.64012 0.46887 0.0
H958 H 0.20235 0.61057 0.49054 0.0
H959 H 0.22846 0.62137 0.51813 0.0
H960 H 0.56819 0.10026 0.57377 0.0
H961 H 0.57995 0.12413 0.6024 0.0
H962 H 0.51001 0.11679 0.60504 0.0
H963 H 0.49799 0.09269 0.57652 0.0
H964 H 0.54756 0.16329 0.61077 0.0
H965 H 0.55853 0.10044 0.65526 0.0
H966 H 0.57497 0.10749 0.63413 0.0
H967 H 0.54289 0.09181 0.63313 0.0
C968 C 0.55521 0.1035 0.58054 0.0
C969 C 0.53211 0.09448 0.57288 0.0
C970 C 0.56197 0.11714 0.5969 0.0
C971 C 0.54573 0.12192 0.60598 0.0
C972 C 0.52278 0.11323 0.59827 0.0
H973 H 0.56488 0.18261 0.71785 0.0
H974 H 0.5491 0.1569 0.69001 0.0
C975 C 0.516 0.09958 0.58191 0.0
C976 C 0.55286 0.13646 0.62327 0.0
H977 H 0.5724 0.13894 0.66787 0.0
C978 C 0.55291 0.15795 0.62329 0.0
C979 C 0.55953 0.12928 0.63964 0.0
C980 C 0.5588 0.1059 0.64068 0.0
C981 C 0.56004 0.17275 0.63912 0.0
C982 C 0.56754 0.16597 0.65526 0.0
C983 C 0.56687 0.1442 0.65541 0.0
C984 C 0.5767 0.1815 0.67199 0.0
C985 C 0.55931 0.19544 0.63846 0.0
C986 C 0.59742 0.20371 0.67105 0.0
C987 C 0.60643 0.21819 0.68687 0.0
C988 C 0.59511 0.21053 0.70394 0.0
C989 C 0.57409 0.18859 0.70485 0.0
C990 C 0.56512 0.17399 0.68901 0.0
H991 H 0.5472 0.19494 0.62719 0.0
H992 H 0.55335 0.19908 0.65186 0.0
H993 H 0.57749 0.2103 0.63579 0.0
H994 H 0.60681 0.20972 0.65813 0.0
H995 H 0.62232 0.23538 0.68579 0.0
H996 H 0.48382 0.54237 0.756 0.0
H997 H 0.47118 0.55554 0.78328 0.0
H998 H 0.4298 0.57519 0.74809 0.0
H999 H 0.44225 0.56187 0.72073 0.0
H1000 H 0.47707 0.59903 0.79281 0.0
H1001 H 0.38085 0.53211 0.7852 0.0
H1002 H 0.4036 0.53031 0.77224 0.0
H1003 H 0.39329 0.55003 0.76517 0.0
C1004 C 0.47215 0.54963 0.75406 0.0
C1005 C 0.46391 0.55095 0.73622 0.0
C1006 C 0.46489 0.55709 0.76966 0.0
C1007 C 0.44926 0.56601 0.76774 0.0
C1008 C 0.44142 0.56785 0.74992 0.0
H1009 H 0.41987 0.63902 0.85741 0.0
H1010 H 0.43338 0.62982 0.82856 0.0
C1011 C 0.44856 0.56026 0.73431 0.0
C1012 C 0.44116 0.57325 0.78444 0.0
H1013 H 0.39152 0.56124 0.80883 0.0
C1014 C 0.45837 0.59081 0.79632 0.0
C1015 C 0.41676 0.56229 0.78907 0.0
C1016 C 0.39755 0.54249 0.77737 0.0
C1017 C 0.45185 0.59771 0.81275 0.0
C1018 C 0.42742 0.58704 0.81721 0.0
C1019 C 0.41022 0.56953 0.80529 0.0
C1020 C 0.41932 0.59288 0.83462 0.0
C1021 C 0.47123 0.61582 0.82544 0.0
C1022 C 0.40646 0.57508 0.84738 0.0
C1023 C 0.3985 0.58019 0.86376 0.0
C1024 C 0.40323 0.60327 0.86775 0.0
C1025 C 0.41605 0.62109 0.85487 0.0
C1026 C 0.42391 0.6159 0.8384 0.0
H1027 H 0.48895 0.61786 0.82236 0.0
H1028 H 0.47243 0.63319 0.82353 0.0
H1029 H 0.46718 0.61093 0.8402 0.0
H1030 H 0.40268 0.55718 0.84472 0.0
H1031 H 0.38873 0.566 0.87333 0.0
H1032 H 0.92728 0.50702 0.9052 0.0
H1033 H 0.90138 0.49365 0.93218 0.0
H1034 H 0.90774 0.43118 0.93436 0.0
H1035 H 0.93311 0.444 0.90717 0.0
H1036 H 0.85655 0.44792 0.93661 0.0
H1037 H 0.92855 0.46333 0.98725 0.0
H1038 H 0.93458 0.47714 0.96487 0.0
H1039 H 0.92683 0.44676 0.96665 0.0
C1040 C 0.92299 0.49031 0.91128 0.0
C1041 C 0.93243 0.47666 0.90405 0.0
C1042 C 0.90828 0.48278 0.92675 0.0
C1043 C 0.90292 0.4616 0.93535 0.0
C1044 C 0.91201 0.44778 0.92807 0.0
H1045 H 0.82763 0.38376 0.03092 0.0
H1046 H 0.85084 0.39902 0.00291 0.0
C1047 C 0.9266 0.45521 0.91257 0.0
C1048 C 0.88782 0.45382 0.95197 0.0
H1049 H 0.88891 0.44271 0.99799 0.0
C1050 C 0.86358 0.44691 0.95009 0.0
C1051 C 0.89714 0.45255 0.96946 0.0
C1052 C 0.92324 0.4605 0.97232 0.0
C1053 C 0.84816 0.43798 0.96518 0.0
C1054 C 0.85743 0.43645 0.98267 0.0
C1055 C 0.88181 0.4438 0.98457 0.0
C1056 C 0.84217 0.42668 0.99914 0.0
C1057 C 0.82198 0.4295 0.9621 0.0
C1058 C 0.8295 0.43714 0.00635 0.0
C1059 C 0.81599 0.42832 0.02235 0.0
C1060 C 0.81516 0.40906 0.03158 0.0
C1061 C 0.82783 0.39862 0.02423 0.0
C1062 C 0.84116 0.40733 0.0082 0.0
H1063 H 0.81679 0.42612 0.94716 0.0
H1064 H 0.81074 0.41306 0.96981 0.0
H1065 H 0.81808 0.44326 0.96721 0.0
H1066 H 0.83045 0.45243 0.99984 0.0
H1067 H 0.80665 0.43694 0.02771 0.0
H1068 H 0.43796 0.93566 0.07098 0.0
H1069 H 0.42586 0.91028 0.09813 0.0
H1070 H 0.49655 0.91969 0.10307 0.0
H1071 H 0.50869 0.94452 0.07571 0.0
H1072 H 0.42934 0.86709 0.10398 0.0
H1073 H 0.48243 0.93986 0.15487 0.0
H1074 H 0.47449 0.94504 0.132 0.0
H1075 H 0.49824 0.93861 0.13493 0.0
C1076 C 0.45089 0.93213 0.07769 0.0
C1077 C 0.47438 0.9423 0.07118 0.0
C1078 C 0.44395 0.91772 0.09326 0.0
C1079 C 0.4604 0.91339 0.10271 0.0
C1080 C 0.48371 0.92316 0.09613 0.0
H1081 H 0.46283 0.84175 0.20178 0.0
H1082 H 0.47148 0.86451 0.17346 0.0
C1083 C 0.49063 0.93744 0.08053 0.0
C1084 C 0.45331 0.89866 0.11948 0.0
H1085 H 0.46431 0.90092 0.16609 0.0
C1086 C 0.43683 0.87444 0.1176 0.0
C1087 C 0.4632 0.90837 0.13717 0.0
C1088 C 0.48044 0.93443 0.14001 0.0
C1089 C 0.43047 0.85947 0.13292 0.0
C1090 C 0.44045 0.86916 0.15065 0.0
C1091 C 0.45671 0.89348 0.15251 0.0
C1092 C 0.43472 0.85442 0.16745 0.0
C1093 C 0.41374 0.83334 0.12985 0.0
C1094 C 0.41115 0.84119 0.17356 0.0
C1095 C 0.40608 0.82794 0.18972 0.0
C1096 C 0.42454 0.82793 0.20024 0.0
C1097 C 0.44814 0.84129 0.19407 0.0
C1098 C 0.45314 0.85436 0.17787 0.0
H1099 H 0.413 0.82802 0.11506 0.0
H1100 H 0.41921 0.82281 0.13846 0.0
H1101 H 0.39546 0.82891 0.13382 0.0
H1102 H 0.3967 0.84141 0.16602 0.0
H1103 H 0.38774 0.81807 0.19413 0.0
H1104 H 0.58417 0.52262 0.24574 0.0
H1105 H 0.59508 0.50813 0.27321 0.0
H1106 H 0.53652 0.43791 0.26164 0.0
H1107 H 0.52566 0.45219 0.23395 0.0
H1108 H 0.56364 0.48393 0.30416 0.0
H1109 H 0.59658 0.43002 0.26855 0.0
H1110 H 0.59406 0.45308 0.25697 0.0
H1111 H 0.56781 0.42528 0.26122 0.0
C1112 C 0.57378 0.50404 0.24891 0.0
C1113 C 0.5541 0.48853 0.23763 0.0
C1114 C 0.57995 0.49583 0.26466 0.0
C1115 C 0.56675 0.47193 0.26933 0.0
C1116 C 0.54711 0.45637 0.25813 0.0
H1117 H 0.58733 0.39649 0.36092 0.0
H1118 H 0.57272 0.40628 0.33279 0.0
C1119 C 0.54082 0.46459 0.24243 0.0
C1120 C 0.5732 0.46355 0.28625 0.0
H1121 H 0.59626 0.42956 0.30126 0.0
C1122 C 0.57074 0.47201 0.30355 0.0
C1123 C 0.58221 0.44783 0.28537 0.0
C1124 C 0.58553 0.43856 0.26706 0.0
C1125 C 0.57717 0.46525 0.32007 0.0
C1126 C 0.5869 0.45011 0.31921 0.0
C1127 C 0.58888 0.44123 0.3019 0.0
C1128 C 0.59597 0.44404 0.33606 0.0
C1129 C 0.5732 0.47421 0.33831 0.0
C1130 C 0.61422 0.46197 0.347 0.0
C1131 C 0.62252 0.45649 0.36309 0.0
C1132 C 0.61296 0.43287 0.3685 0.0
C1133 C 0.59508 0.41486 0.35722 0.0
C1134 C 0.5867 0.42041 0.34113 0.0
H1135 H 0.5592 0.47924 0.33697 0.0
H1136 H 0.56792 0.46074 0.34923 0.0
H1137 H 0.59001 0.49018 0.34289 0.0
H1138 H 0.62209 0.48029 0.3431 0.0
H1139 H 0.63646 0.47085 0.37128 0.0
H1140 H 0.448 0.90954 0.42583 0.0
H1141 H 0.4382 0.8856 0.39737 0.0
H1142 H 0.44858 0.94522 0.3653 0.0
H1143 H 0.45966 0.96964 0.39351 0.0
H1144 H 0.40229 0.87343 0.37257 0.0
H1145 H 0.48875 0.92459 0.33732 0.0
H1146 H 0.48511 0.92926 0.3615 0.0
H1147 H 0.47581 0.94227 0.34375 0.0
C1148 C 0.44861 0.91771 0.4127 0.0
C1149 C 0.45476 0.9416 0.412 0.0
C1150 C 0.44281 0.90393 0.39645 0.0
C1151 C 0.44305 0.91372 0.37916 0.0
C1152 C 0.44881 0.93742 0.37842 0.0
H1153 H 0.40284 0.85353 0.26704 0.0
H1154 H 0.41334 0.87917 0.29491 0.0
C1155 C 0.45478 0.95127 0.39464 0.0
C1156 C 0.43655 0.8989 0.36199 0.0
H1157 H 0.45642 0.89523 0.31907 0.0
C1158 C 0.41421 0.87812 0.36093 0.0
C1159 C 0.4521 0.90505 0.34678 0.0
C1160 C 0.47687 0.92638 0.34742 0.0
C1161 C 0.40692 0.86347 0.34501 0.0
C1162 C 0.4224 0.86973 0.32982 0.0
C1163 C 0.44462 0.89055 0.33077 0.0
C1164 C 0.41612 0.85444 0.31303 0.0
C1165 C 0.38259 0.84153 0.34445 0.0
C1166 C 0.41438 0.83223 0.31407 0.0
C1167 C 0.40867 0.81781 0.29823 0.0
C1168 C 0.40493 0.82553 0.2811 0.0
C1169 C 0.40614 0.84751 0.2801 0.0
C1170 C 0.41209 0.86207 0.29594 0.0
H1171 H 0.37091 0.8419 0.35547 0.0
H1172 H 0.37365 0.83941 0.33075 0.0
H1173 H 0.38462 0.82584 0.34656 0.0
H1174 H 0.4176 0.82612 0.32711 0.0
H1175 H 0.40713 0.80059 0.29936 0.0
H1176 H 0.57019 0.49931 0.57688 0.0
H1177 H 0.58238 0.48664 0.54907 0.0
H1178 H 0.51494 0.42148 0.54731 0.0
H1179 H 0.50293 0.43361 0.57551 0.0
H1180 H 0.55326 0.41477 0.54195 0.0
H1181 H 0.55851 0.48478 0.4961 0.0
H1182 H 0.5762 0.49591 0.51704 0.0
H1183 H 0.54422 0.47868 0.51833 0.0
C1184 C 0.55802 0.48218 0.57068 0.0
C1185 C 0.53553 0.46751 0.57839 0.0
C1186 C 0.5649 0.47511 0.55465 0.0
C1187 C 0.54939 0.45332 0.54594 0.0
C1188 C 0.5271 0.43847 0.55373 0.0
H1189 H 0.566 0.40963 0.43487 0.0
H1190 H 0.55115 0.42018 0.46255 0.0
C1191 C 0.5202 0.4455 0.56977 0.0
C1192 C 0.55658 0.44573 0.52892 0.0
H1193 H 0.57389 0.4611 0.48427 0.0
C1194 C 0.5577 0.42485 0.52931 0.0
C1195 C 0.56204 0.45874 0.51237 0.0
C1196 C 0.55998 0.48065 0.51081 0.0
C1197 C 0.56463 0.41688 0.51371 0.0
C1198 C 0.57094 0.43037 0.49739 0.0
C1199 C 0.5693 0.45095 0.49686 0.0
C1200 C 0.57958 0.42357 0.48078 0.0
C1201 C 0.56481 0.39393 0.51478 0.0
C1202 C 0.60044 0.42207 0.48188 0.0
C1203 C 0.60888 0.41616 0.46615 0.0
C1204 C 0.59688 0.41218 0.44901 0.0
C1205 C 0.57573 0.41313 0.44793 0.0
C1206 C 0.5673 0.41912 0.46368 0.0
H1207 H 0.55323 0.38264 0.526 0.0
H1208 H 0.55873 0.38385 0.50144 0.0
H1209 H 0.58327 0.39778 0.51782 0.0
H1210 H 0.61038 0.42576 0.49485 0.0
H1211 H 0.62486 0.41481 0.46735 0.0
H1212 H 0.09344 0.58652 0.74777 0.0
H1213 H 0.11858 0.59866 0.7203 0.0
H1214 H 0.10572 0.52769 0.71294 0.0
H1215 H 0.0803 0.51531 0.7402 0.0
H1216 H 0.1607 0.59415 0.7136 0.0
H1217 H 0.0871 0.54461 0.66206 0.0
H1218 H 0.08193 0.55137 0.68532 0.0
H1219 H 0.08802 0.52776 0.68128 0.0
C1220 C 0.09582 0.57346 0.74021 0.0
C1221 C 0.08479 0.54992 0.7461 0.0
C1222 C 0.11029 0.58046 0.72461 0.0
C1223 C 0.11377 0.56401 0.71451 0.0
C1224 C 0.10302 0.54058 0.72044 0.0
H1225 H 0.18646 0.56475 0.61473 0.0
H1226 H 0.16333 0.5552 0.643 0.0
C1227 C 0.08867 0.53359 0.7361 0.0
C1228 C 0.12873 0.57133 0.69779 0.0
H1229 H 0.1265 0.56237 0.65091 0.0
C1230 C 0.15327 0.58734 0.69986 0.0
C1231 C 0.11891 0.56236 0.67993 0.0
C1232 C 0.09252 0.54571 0.67689 0.0
C1233 C 0.16843 0.59415 0.68455 0.0
C1234 C 0.15862 0.58509 0.66666 0.0
C1235 C 0.134 0.56927 0.66462 0.0
C1236 C 0.17355 0.59137 0.64988 0.0
C1237 C 0.19486 0.61038 0.68777 0.0
C1238 C 0.18696 0.61491 0.64427 0.0
C1239 C 0.2004 0.62051 0.62812 0.0
C1240 C 0.20045 0.6026 0.61712 0.0
C1241 C 0.1869 0.57903 0.6228 0.0
C1242 C 0.17362 0.5735 0.63898 0.0
H1243 H 0.20018 0.61053 0.7025 0.0
H1244 H 0.20539 0.60511 0.67889 0.0
H1245 H 0.19956 0.62866 0.68423 0.0
H1246 H 0.18674 0.62895 0.65221 0.0
H1247 H 0.21043 0.63882 0.6241 0.0
H1248 H 0.57424 0.12877 0.93116 0.0
H1249 H 0.58724 0.15464 0.9043 0.0
H1250 H 0.54812 0.09413 0.86781 0.0
H1251 H 0.53503 0.0682 0.89454 0.0
H1252 H 0.61344 0.15542 0.87455 0.0
H1253 H 0.5242 0.13779 0.85074 0.0
H1254 H 0.52938 0.12926 0.87329 0.0
H1255 H 0.52591 0.11137 0.85306 0.0
C1256 C 0.56847 0.12097 0.9174 0.0
C1257 C 0.55347 0.09643 0.91499 0.0
C1258 C 0.57583 0.13579 0.90208 0.0
C1259 C 0.56829 0.12638 0.88407 0.0
C1260 C 0.55364 0.10187 0.8816 0.0
H1261 H 0.63149 0.18733 0.77963 0.0
H1262 H 0.6188 0.16568 0.80848 0.0
C1263 C 0.5462 0.08706 0.8969 0.0
C1264 C 0.57631 0.14209 0.8678 0.0
H1265 H 0.55604 0.15759 0.82952 0.0
C1266 C 0.6009 0.15603 0.86477 0.0
C1267 C 0.55996 0.14319 0.85521 0.0
C1268 C 0.5334 0.12979 0.85831 0.0
C1269 C 0.60955 0.17046 0.8492 0.0
C1270 C 0.59315 0.17061 0.83611 0.0
C1271 C 0.56859 0.15726 0.83944 0.0
C1272 C 0.60108 0.18409 0.81867 0.0
C1273 C 0.63618 0.18555 0.84699 0.0
C1274 C 0.5948 0.20124 0.81454 0.0
C1275 C 0.60187 0.21358 0.79791 0.0
C1276 C 0.6153 0.20894 0.78505 0.0
C1277 C 0.62139 0.1916 0.78924 0.0
C1278 C 0.61425 0.17925 0.80581 0.0
H1279 H 0.64587 0.18884 0.86051 0.0
H1280 H 0.64245 0.17625 0.83766 0.0
H1281 H 0.64094 0.2028 0.84081 0.0
H1282 H 0.58449 0.20514 0.82422 0.0
H1283 H 0.59679 0.22675 0.79517 0.0
H1284 H 0.51506 0.60851 0.07973 0.0
H1285 H 0.5027 0.62055 0.05154 0.0
H1286 H 0.44157 0.55063 0.04531 0.0
H1287 H 0.45392 0.53836 0.07331 0.0
H1288 H 0.47081 0.57097 0.01217 0.0
H1289 H 0.44299 0.6298 0.04644 0.0
H1290 H 0.47198 0.63427 0.05273 0.0
H1291 H 0.44573 0.6074 0.05887 0.0
C1292 C 0.49903 0.59569 0.07231 0.0
C1293 C 0.48541 0.5725 0.07876 0.0
C1294 C 0.49192 0.60264 0.05631 0.0
C1295 C 0.47114 0.58651 0.04649 0.0
C1296 C 0.45761 0.56334 0.05279 0.0
H1297 H 0.38969 0.6145 0.96588 0.0
H1298 H 0.40504 0.60312 0.99259 0.0
C1299 C 0.4646 0.55641 0.06883 0.0
C1300 C 0.4636 0.5936 0.02943 0.0
H1301 H 0.44104 0.62764 0.0138 0.0
C1302 C 0.46424 0.58332 0.01245 0.0
C1303 C 0.45515 0.60974 0.02995 0.0
C1304 C 0.45371 0.6209 0.04795 0.0
C1305 C 0.45637 0.58854 0.99588 0.0
C1306 C 0.4477 0.60465 0.99632 0.0
C1307 C 0.44744 0.61516 0.01339 0.0
C1308 C 0.438 0.61033 0.97954 0.0
C1309 C 0.45726 0.57636 0.97828 0.0
C1310 C 0.4513 0.61827 0.96325 0.0
C1311 C 0.44193 0.62369 0.94769 0.0
C1312 C 0.41927 0.62159 0.94824 0.0
C1313 C 0.40653 0.61485 0.96477 0.0
C1314 C 0.41556 0.60882 0.98014 0.0
H1315 H 0.45525 0.5588 0.98116 0.0
H1316 H 0.44324 0.57392 0.96815 0.0
H1317 H 0.47489 0.58728 0.97183 0.0
H1318 H 0.46904 0.62055 0.96261 0.0
H1319 H 0.45247 0.62976 0.93528 0.0
H1320 H 0.9578 0.52331 0.22752 0.0
H1321 H 0.93346 0.50974 0.19913 0.0
H1322 H 0.87438 0.45704 0.22995 0.0
H1323 H 0.89807 0.47146 0.25862 0.0
H1324 H 0.91494 0.46776 0.18258 0.0
H1325 H 0.84114 0.48381 0.20018 0.0
H1326 H 0.8683 0.49586 0.21396 0.0
H1327 H 0.8449 0.46578 0.2169 0.0
C1328 C 0.93944 0.50923 0.2284 0.0
C1329 C 0.92991 0.49858 0.24545 0.0
C1330 C 0.92559 0.50135 0.21209 0.0
C1331 C 0.90195 0.48261 0.21242 0.0
C1332 C 0.89237 0.47191 0.22939 0.0
H1333 H 0.79375 0.39562 0.13081 0.0
H1334 H 0.82021 0.41163 0.15821 0.0
C1335 C 0.90611 0.47995 0.24575 0.0
C1336 C 0.8879 0.47331 0.19486 0.0
H1337 H 0.83466 0.45874 0.1737 0.0
C1338 C 0.89754 0.46612 0.18054 0.0
C1339 C 0.86513 0.47105 0.19223 0.0
C1340 C 0.85437 0.47976 0.20657 0.0
C1341 C 0.88483 0.45627 0.16386 0.0
C1342 C 0.8618 0.45336 0.16147 0.0
C1343 C 0.85224 0.46078 0.17567 0.0
C1344 C 0.8472 0.44255 0.14439 0.0
C1345 C 0.89552 0.44783 0.14934 0.0
C1346 C 0.85368 0.45456 0.12753 0.0
C1347 C 0.83872 0.44528 0.11185 0.0
C1348 C 0.81719 0.42376 0.11275 0.0
C1349 C 0.81073 0.41176 0.1296 0.0
C1350 C 0.82568 0.42101 0.14527 0.0
H1351 H 0.91333 0.45067 0.15362 0.0
H1352 H 0.88337 0.42872 0.14677 0.0
H1353 H 0.89736 0.45708 0.13613 0.0
H1354 H 0.86994 0.47148 0.12667 0.0
H1355 H 0.84371 0.45511 0.0991 0.0
loop_
_geom_bond_atom_site_label_1
_geom_bond_atom_site_label_2
_geom_bond_distance
_geom_bond_site_symmetry_2
_ccdc_geom_bond_type
C0 C1 1.384 . S
C0 C2 1.384 . S
C0 H28 0.931 . S
C1 C0 1.384 . S
C1 C4 1.382 . S
C2 C0 1.384 . S
C2 C3 1.381 . S
C2 H29 0.930 . S
C3 C2 1.381 . S
C3 C5 1.381 . S
C3 C6 1.487 . S
C4 C1 1.382 . S
C4 C5 1.387 . S
C4 H30 0.930 . S
C5 C3 1.381 . S
C5 C4 1.387 . S
C5 H31 0.931 . S
C6 C3 1.487 . S
C6 C13 1.399 . S
C6 N44 1.343 . S
C7 C8 1.384 . S
C7 C9 1.384 . S
C7 H32 0.931 . S
C8 C7 1.384 . S
C8 C11 1.382 . S
C9 C7 1.384 . S
C9 C10 1.381 . S
C9 H33 0.930 . S
C10 C9 1.381 . S
C10 C12 1.381 . S
C10 C13 1.487 . S
C11 C8 1.382 . S
C11 C12 1.387 . S
C11 H34 0.930 . S
C12 C10 1.381 . S
C12 C11 1.387 . S
C12 H35 0.931 . S
C13 C6 1.399 . S
C13 C10 1.487 . S
C13 N45 1.343 1_655 S
C14 C15 1.384 . S
C14 C16 1.384 . S
C14 H36 0.931 . S
C15 C14 1.384 . S
C15 C18 1.382 . S
C16 C14 1.384 . S
C16 C17 1.381 . S
C16 H37 0.930 . S
C17 C16 1.381 . S
C17 C19 1.381 . S
C17 C20 1.487 . S
C18 C15 1.382 . S
C18 C19 1.387 . S
C18 H38 0.930 . S
C19 C17 1.381 . S
C19 C18 1.387 . S
C19 H39 0.931 . S
C20 C17 1.487 . S
C20 C27 1.399 . S
C20 N45 1.343 . S
C21 C22 1.384 . S
C21 C23 1.384 . S
C21 H40 0.931 . S
C22 C21 1.384 . S
C22 C25 1.382 . S
C23 C21 1.384 . S
C23 C24 1.381 . S
C23 H41 0.930 . S
C24 C23 1.381 . S
C24 C26 1.381 . S
C24 C27 1.487 . S
C25 C22 1.382 . S
C25 C26 1.387 . S
C25 H42 0.930 . S
C26 C24 1.381 . S
C26 C25 1.387 . S
C26 H43 0.931 . S
C27 C20 1.399 . S
C27 C24 1.487 . S
C27 N44 1.343 1_455 S
H28 C0 0.931 . S
H29 C2 0.930 . S
H30 C4 0.930 . S
H31 C5 0.931 . S
H32 C7 0.931 . S
H33 C9 0.930 . S
H34 C11 0.930 . S
H35 C12 0.931 . S
H36 C14 0.931 . S
H37 C16 0.930 . S
H38 C18 0.930 . S
H39 C19 0.931 . S
H40 C21 0.931 . S
H41 C23 0.930 . S
H42 C25 0.930 . S
H43 C26 0.931 . S
N44 C6 1.343 . S
N44 C27 1.343 1_655 S
N45 C13 1.343 1_455 S
N45 C20 1.343 . S
C46 C47 1.384 . S
C46 C48 1.384 . S
C46 H74 0.931 . S
C47 C46 1.384 . S
C47 C50 1.382 . S
C48 C46 1.384 . S
C48 C49 1.381 . S
C48 H75 0.930 . S
C49 C48 1.381 . S
C49 C51 1.381 . S
C49 C52 1.487 . S
C50 C47 1.382 . S
C50 C51 1.387 . S
C50 H76 0.930 . S
C51 C49 1.381 . S
C51 C50 1.387 . S
C51 H77 0.931 . S
C52 C49 1.487 . S
C52 C59 1.399 1_565 S
C52 N90 1.343 1_565 S
C53 C54 1.384 . S
C53 C55 1.384 . S
C53 H78 0.931 . S
C54 C53 1.384 . S
C54 C57 1.382 . S
C55 C53 1.384 . S
C55 C56 1.381 . S
C55 H79 0.930 . S
C56 C55 1.381 . S
C56 C58 1.381 . S
C56 C59 1.487 1_565 S
C57 C54 1.382 . S
C57 C58 1.387 . S
C57 H80 0.930 . S
C58 C56 1.381 . S
C58 C57 1.387 . S
C58 H81 0.931 1_565 S
C59 C52 1.399 1_545 S
C59 C56 1.487 1_545 S
C59 N91 1.343 . S
C60 C61 1.384 . S
C60 C62 1.384 . S
C60 H82 0.931 . S
C61 C60 1.384 . S
C61 C64 1.382 . S
C62 C60 1.384 . S
C62 C63 1.381 . S
C62 H83 0.930 . S
C63 C62 1.381 . S
C63 C65 1.381 . S
C63 C66 1.487 . S
C64 C61 1.382 . S
C64 C65 1.387 . S
C64 H84 0.930 . S
C65 C63 1.381 . S
C65 C64 1.387 . S
C65 H85 0.931 . S
C66 C63 1.487 . S
C66 C73 1.399 . S
C66 N91 1.343 . S
C67 C68 1.384 . S
C67 C69 1.384 . S
C67 H86 0.931 . S
C68 C67 1.384 . S
C68 C71 1.382 . S
C69 C67 1.384 . S
C69 C70 1.381 . S
C69 H87 0.930 . S
C70 C69 1.381 . S
C70 C72 1.381 . S
C70 C73 1.487 . S
C71 C68 1.382 . S
C71 C72 1.387 . S
C71 H88 0.930 . S
C72 C70 1.381 . S
C72 C71 1.387 . S
C72 H89 0.931 . S
C73 C66 1.399 . S
C73 C70 1.487 . S
C73 N90 1.343 . S
H74 C46 0.931 . S
H75 C48 0.930 . S
H76 C50 0.930 . S
H77 C51 0.931 . S
H78 C53 0.931 . S
H79 C55 0.930 . S
H80 C57 0.930 . S
H81 C58 0.931 1_545 S
H82 C60 0.931 . S
H83 C62 0.930 . S
H84 C64 0.930 . S
H85 C65 0.931 . S
H86 C67 0.931 . S
H87 C69 0.930 . S
H88 C71 0.930 . S
H89 C72 0.931 . S
N90 C52 1.343 1_545 S
N90 C73 1.343 . S
N91 C59 1.343 . S
N91 C66 1.343 . S
C92 C93 1.384 . S
C92 C94 1.384 . S
C92 H120 0.931 . S
C93 C92 1.384 . S
C93 C96 1.382 . S
C94 C92 1.384 . S
C94 C95 1.381 . S
C94 H121 0.930 . S
C95 C94 1.381 . S
C95 C97 1.381 . S
C95 C98 1.487 . S
C96 C93 1.382 . S
C96 C97 1.387 . S
C96 H122 0.930 . S
C97 C95 1.381 . S
C97 C96 1.387 . S
C97 H123 0.931 . S
C98 C95 1.487 . S
C98 C105 1.399 . S
C98 N136 1.343 . S
C99 C100 1.384 . S
C99 C101 1.384 . S
C99 H124 0.931 . S
C100 C99 1.384 . S
C100 C103 1.382 . S
C101 C99 1.384 . S
C101 C102 1.381 . S
C101 H125 0.930 . S
C102 C101 1.381 . S
C102 C104 1.381 . S
C102 C105 1.487 . S
C103 C100 1.382 . S
C103 C104 1.387 . S
C103 H126 0.930 . S
C104 C102 1.381 . S
C104 C103 1.387 . S
C104 H127 0.931 . S
C105 C98 1.399 . S
C105 C102 1.487 . S
C105 N137 1.343 . S
C106 C107 1.384 . S
C106 C108 1.384 . S
C106 H128 0.931 . S
C107 C106 1.384 . S
C107 C110 1.382 . S
C108 C106 1.384 . S
C108 C109 1.381 . S
C108 H129 0.930 . S
C109 C108 1.381 . S
C109 C111 1.381 . S
C109 C112 1.487 . S
C110 C107 1.382 . S
C110 C111 1.387 . S
C110 H130 0.930 . S
C111 C109 1.381 . S
C111 C110 1.387 . S
C111 H131 0.931 . S
C112 C109 1.487 . S
C112 C119 1.399 . S
C112 N137 1.343 . S
C113 C114 1.384 . S
C113 C115 1.384 . S
C113 H132 0.931 . S
C114 C113 1.384 . S
C114 C117 1.382 . S
C115 C113 1.384 . S
C115 C116 1.381 . S
C115 H133 0.930 . S
C116 C115 1.381 . S
C116 C118 1.381 . S
C116 C119 1.487 . S
C117 C114 1.382 . S
C117 C118 1.387 . S
C117 H134 0.930 . S
C118 C116 1.381 . S
C118 C117 1.387 . S
C118 H135 0.931 . S
C119 C112 1.399 . S
C119 C116 1.487 . S
C119 N136 1.343 . S
H120 C92 0.931 . S
H121 C94 0.930 . S
H122 C96 0.930 . S
H123 C97 0.931 . S
H124 C99 0.931 . S
H125 C101 0.930 . S
H126 C103 0.930 . S
H127 C104 0.931 . S
H128 C106 0.931 . S
H129 C108 0.930 . S
H130 C110 0.930 . S
H131 C111 0.931 . S
H132 C113 0.931 . S
H133 C115 0.930 . S
H134 C117 0.930 . S
H135 C118 0.931 . S
N136 C98 1.343 . S
N136 C119 1.343 . S
N137 C105 1.343 . S
N137 C112 1.343 . S
C138 C139 1.384 . S
C138 C140 1.384 . S
C138 H166 0.931 . S
C139 C138 1.384 . S
C139 C142 1.382 . S
C140 C138 1.384 . S
C140 C141 1.381 . S
C140 H167 0.930 . S
C141 C140 1.381 . S
C141 C143 1.381 . S
C141 C144 1.487 . S
C142 C139 1.382 . S
C142 C143 1.387 . S
C142 H168 0.930 . S
C143 C141 1.381 . S
C143 C142 1.387 . S
C143 H169 0.931 . S
C144 C141 1.487 . S
C144 C151 1.399 . S
C144 N182 1.343 . S
C145 C146 1.384 . S
C145 C147 1.384 . S
C145 H170 0.931 . S
C146 C145 1.384 . S
C146 C149 1.382 . S
C147 C145 1.384 . S
C147 C148 1.381 . S
C147 H171 0.930 . S
C148 C147 1.381 . S
C148 C150 1.381 . S
C148 C151 1.487 . S
C149 C146 1.382 . S
C149 C150 1.387 . S
C149 H172 0.930 . S
C150 C148 1.381 . S
C150 C149 1.387 . S
C150 H173 0.931 . S
C151 C144 1.399 . S
C151 C148 1.487 . S
C151 N183 1.343 1_655 S
C152 C153 1.384 . S
C152 C154 1.384 . S
C152 H174 0.931 . S
C153 C152 1.384 . S
C153 C156 1.382 . S
C154 C152 1.384 . S
C154 C155 1.381 . S
C154 H175 0.930 . S
C155 C154 1.381 . S
C155 C157 1.381 . S
C155 C158 1.487 . S
C156 C153 1.382 . S
C156 C157 1.387 . S
C156 H176 0.930 . S
C157 C155 1.381 . S
C157 C156 1.387 . S
C157 H177 0.931 . S
C158 C155 1.487 . S
C158 C165 1.399 . S
C158 N183 1.343 . S
C159 C160 1.384 . S
C159 C161 1.384 . S
C159 H178 0.931 . S
C160 C159 1.384 . S
C160 C163 1.382 . S
C161 C159 1.384 . S
C161 C162 1.381 . S
C161 H179 0.930 . S
C162 C161 1.381 . S
C162 C164 1.381 . S
C162 C165 1.487 . S
C163 C160 1.382 . S
C163 C164 1.387 . S
C163 H180 0.930 . S
C164 C162 1.381 . S
C164 C163 1.387 . S
C164 H181 0.931 . S
C165 C158 1.399 . S
C165 C162 1.487 . S
C165 N182 1.343 1_455 S
H166 C138 0.931 . S
H167 C140 0.930 . S
H168 C142 0.930 . S
H169 C143 0.931 . S
H170 C145 0.931 . S
H171 C147 0.930 . S
H172 C149 0.930 . S
H173 C150 0.931 . S
H174 C152 0.931 . S
H175 C154 0.930 . S
H176 C156 0.930 . S
H177 C157 0.931 . S
H178 C159 0.931 . S
H179 C161 0.930 . S
H180 C163 0.930 . S
H181 C164 0.931 . S
N182 C144 1.343 . S
N182 C165 1.343 1_655 S
N183 C151 1.343 1_455 S
N183 C158 1.343 . S
C184 C185 1.384 . S
C184 C186 1.384 . S
C184 H212 0.931 . S
C185 C184 1.384 . S
C185 C188 1.382 . S
C186 C184 1.384 . S
C186 C187 1.381 . S
C186 H213 0.937 . S
C187 C186 1.381 . S
C187 C189 1.381 . S
C187 C190 1.487 . S
C188 C185 1.382 . S
C188 C189 1.387 . S
C188 H214 0.930 . S
C189 C187 1.381 . S
C189 C188 1.387 . S
C189 H215 0.931 . S
C190 C187 1.487 . S
C190 C197 1.399 1_566 S
C190 N228 1.343 1_565 S
C191 C192 1.384 . S
C191 C193 1.384 . S
C191 H216 0.931 . S
C192 C191 1.384 . S
C192 C195 1.382 . S
C193 C191 1.384 . S
C193 C194 1.381 . S
C193 H217 0.930 . S
C194 C193 1.381 . S
C194 C196 1.381 . S
C194 C197 1.487 1_565 S
C195 C192 1.382 . S
C195 C196 1.387 . S
C195 H218 0.930 . S
C196 C194 1.381 . S
C196 C195 1.387 . S
C196 H219 0.931 1_565 S
C197 C190 1.399 1_544 S
C197 C194 1.487 1_545 S
C197 N229 1.343 . S
C198 C199 1.384 . S
C198 C200 1.384 1_554 S
C198 H220 0.931 1_554 S
C199 C198 1.384 . S
C199 C202 1.382 . S
C200 C198 1.384 1_556 S
C200 C201 1.381 1_556 S
C200 H221 0.930 . S
C201 C200 1.381 1_554 S
C201 C203 1.381 . S
C201 C204 1.487 1_554 S
C202 C199 1.382 . S
C202 C203 1.387 . S
C202 H222 0.930 . S
C203 C201 1.381 . S
C203 C202 1.387 . S
C203 H223 0.931 . S
C204 C201 1.487 1_556 S
C204 C211 1.399 . S
C204 N229 1.343 1_556 S
C205 C206 1.384 . S
C205 C207 1.384 . S
C205 H224 0.931 . S
C206 C205 1.384 . S
C206 C209 1.382 . S
C207 C205 1.384 . S
C207 C208 1.381 . S
C207 H225 0.930 . S
C208 C207 1.381 . S
C208 C210 1.381 . S
C208 C211 1.487 . S
C209 C206 1.382 . S
C209 C210 1.387 . S
C209 H226 0.930 . S
C210 C208 1.381 . S
C210 C209 1.387 . S
C210 H227 0.931 . S
C211 C204 1.399 . S
C211 C208 1.487 . S
C211 N228 1.343 . S
H212 C184 0.931 . S
H213 C186 0.937 . S
H214 C188 0.930 . S
H215 C189 0.931 . S
H216 C191 0.931 . S
H217 C193 0.930 . S
H218 C195 0.930 . S
H219 C196 0.931 1_545 S
H220 C198 0.931 1_556 S
H221 C200 0.930 . S
H222 C202 0.930 . S
H223 C203 0.931 . S
H224 C205 0.931 . S
H225 C207 0.930 . S
H226 C209 0.930 . S
H227 C210 0.931 . S
N228 C190 1.343 1_545 S
N228 C211 1.343 . S
N229 C197 1.343 . S
N229 C204 1.343 1_554 S
C230 C231 1.384 . S
C230 C232 1.384 . S
C230 H258 0.931 . S
C231 C230 1.384 . S
C231 C234 1.382 . S
C232 C230 1.384 . S
C232 C233 1.381 . S
C232 H259 0.930 . S
C233 C232 1.381 . S
C233 C235 1.381 . S
C233 C236 1.487 . S
C234 C231 1.382 . S
C234 C235 1.387 . S
C234 H260 0.930 . S
C235 C233 1.381 . S
C235 C234 1.387 . S
C235 H261 0.931 . S
C236 C233 1.487 . S
C236 C243 1.399 . S
C236 N274 1.343 . S
C237 C238 1.384 . S
C237 C239 1.384 . S
C237 H262 0.931 . S
C238 C237 1.384 . S
C238 C241 1.382 . S
C239 C237 1.384 . S
C239 C240 1.381 . S
C239 H263 0.930 . S
C240 C239 1.381 . S
C240 C242 1.381 . S
C240 C243 1.487 . S
C241 C238 1.382 . S
C241 C242 1.387 . S
C241 H264 0.930 . S
C242 C240 1.381 . S
C242 C241 1.387 . S
C242 H265 0.931 . S
C243 C236 1.399 . S
C243 C240 1.487 . S
C243 N275 1.343 . S
C244 C245 1.384 . S
C244 C246 1.384 . S
C244 H266 0.931 . S
C245 C244 1.384 . S
C245 C248 1.382 . S
C246 C244 1.384 . S
C246 C247 1.381 . S
C246 H267 0.930 . S
C247 C246 1.381 . S
C247 C249 1.381 . S
C247 C250 1.487 . S
C248 C245 1.382 . S
C248 C249 1.387 . S
C248 H268 0.930 . S
C249 C247 1.381 . S
C249 C248 1.387 . S
C249 H269 0.931 . S
C250 C247 1.487 . S
C250 C257 1.399 . S
C250 N275 1.343 . S
C251 C252 1.384 . S
C251 C253 1.384 . S
C251 H270 0.931 . S
C252 C251 1.384 . S
C252 C255 1.382 . S
C253 C251 1.384 . S
C253 C254 1.381 . S
C253 H271 0.930 . S
C254 C253 1.381 . S
C254 C256 1.381 . S
C254 C257 1.487 . S
C255 C252 1.382 . S
C255 C256 1.387 . S
C255 H272 0.930 . S
C256 C254 1.381 . S
C256 C255 1.387 . S
C256 H273 0.931 . S
C257 C250 1.399 . S
C257 C254 1.487 . S
C257 N274 1.343 . S
H258 C230 0.931 . S
H259 C232 0.930 . S
H260 C234 0.930 . S
H261 C235 0.931 . S
H262 C237 0.931 . S
H263 C239 0.930 . S
H264 C241 0.930 . S
H265 C242 0.931 . S
H266 C244 0.931 . S
H267 C246 0.930 . S
H268 C248 0.930 . S
H269 C249 0.931 . S
H270 C251 0.931 . S
H271 C253 0.930 . S
H272 C255 0.930 . S
H273 C256 0.931 . S
N274 C236 1.343 . S
N274 C257 1.343 . S
N275 C243 1.343 . S
N275 C250 1.343 . S
Mn276 O281 2.095 . S
Mn276 O291 2.162 . S
Mn276 O292 2.297 . S
Mn276 O300 2.385 . S
Mn276 O301 2.209 . S
Mn276 O302 2.094 . S
Mn277 O282 2.121 . S
Mn277 N284 2.257 . S
Mn277 N293 2.282 . S
Mn277 O301 2.215 . S
Mn277 O303 2.117 . S
C278 O300 1.234 . S
C278 O301 1.283 . S
C279 O291 1.281 . S
C279 O292 1.236 . S
C280 O302 1.240 . S
C280 O303 1.264 . S
O281 Mn276 2.095 . S
O281 C290 1.250 . S
O282 Mn277 2.121 . S
O282 C290 1.258 . S
C283 N284 1.326 . S
C283 C287 1.460 . S
C283 H289 0.929 . S
N284 Mn277 2.257 . S
N284 C283 1.326 . S
N284 C288 1.362 . S
C285 C286 1.258 . S
C285 C288 1.431 . S
C285 C305 1.449 . S
C286 C285 1.258 . S
C286 C287 1.477 . S
C286 H306 0.931 . S
C287 C283 1.460 . S
C287 C286 1.477 . S
C287 H307 0.930 . S
C288 N284 1.362 . S
C288 C285 1.431 . S
C288 C298 1.476 . S
H289 C283 0.929 . S
C290 O281 1.250 . S
C290 O282 1.258 . S
O291 Mn276 2.162 . S
O291 C279 1.281 . S
O292 Mn276 2.297 . S
O292 C279 1.236 . S
N293 Mn277 2.282 . S
N293 C294 1.328 . S
N293 C298 1.318 . S
C294 N293 1.328 . S
C294 C295 1.457 . S
C294 H299 0.929 . S
C295 C294 1.457 . S
C295 C296 1.291 . S
C295 H308 0.931 . S
C296 C295 1.291 . S
C296 C297 1.373 . S
C296 H309 0.929 . S
C297 C296 1.373 . S
C297 C298 1.396 . S
C297 C304 1.403 . S
C298 C288 1.476 . S
C298 N293 1.318 . S
C298 C297 1.396 . S
H299 C294 0.929 . S
O300 Mn276 2.385 . S
O300 C278 1.234 . S
O301 Mn276 2.209 . S
O301 Mn277 2.215 . S
O301 C278 1.283 . S
O302 Mn276 2.094 . S
O302 C280 1.240 . S
O303 Mn277 2.117 . S
O303 C280 1.264 . S
C304 C297 1.403 . S
C304 C305 1.399 . S
C304 H310 0.929 . S
C305 C285 1.449 . S
C305 C304 1.399 . S
C305 H311 0.930 . S
H306 C286 0.931 . S
H307 C287 0.930 . S
H308 C295 0.931 . S
H309 C296 0.929 . S
H310 C304 0.929 . S
H311 C305 0.930 . S
Mn312 O317 2.095 . S
Mn312 O327 2.162 . S
Mn312 O328 2.297 . S
Mn312 O336 2.385 . S
Mn312 O337 2.209 . S
Mn312 O338 2.094 . S
Mn313 O318 2.121 . S
Mn313 N320 2.257 . S
Mn313 N329 2.282 . S
Mn313 O337 2.215 . S
Mn313 O339 2.117 . S
C314 O336 1.234 . S
C314 O337 1.283 . S
C315 O327 1.281 . S
C315 O328 1.236 . S
C316 O338 1.240 . S
C316 O339 1.264 . S
O317 Mn312 2.095 . S
O317 C326 1.250 . S
O318 Mn313 2.121 . S
O318 C326 1.258 . S
C319 N320 1.326 . S
C319 C323 1.460 . S
C319 H325 0.929 . S
N320 Mn313 2.257 . S
N320 C319 1.326 . S
N320 C324 1.362 . S
C321 C322 1.258 . S
C321 C324 1.431 . S
C321 C341 1.449 . S
C322 C321 1.258 . S
C322 C323 1.477 . S
C322 H342 0.931 . S
C323 C319 1.460 . S
C323 C322 1.477 . S
C323 H343 0.930 . S
C324 N320 1.362 . S
C324 C321 1.431 . S
C324 C334 1.476 . S
H325 C319 0.929 . S
C326 O317 1.250 . S
C326 O318 1.258 . S
O327 Mn312 2.162 . S
O327 C315 1.281 . S
O328 Mn312 2.297 . S
O328 C315 1.236 . S
N329 Mn313 2.282 . S
N329 C330 1.328 . S
N329 C334 1.318 . S
C330 N329 1.328 . S
C330 C331 1.457 . S
C330 H335 0.929 . S
C331 C330 1.457 . S
C331 C332 1.291 . S
C331 H344 0.931 . S
C332 C331 1.291 . S
C332 C333 1.373 . S
C332 H345 0.929 . S
C333 C332 1.373 . S
C333 C334 1.396 . S
C333 C340 1.403 . S
C334 C324 1.476 . S
C334 N329 1.318 . S
C334 C333 1.396 . S
H335 C330 0.929 . S
O336 Mn312 2.385 . S
O336 C314 1.234 . S
O337 Mn312 2.209 . S
O337 Mn313 2.215 . S
O337 C314 1.283 . S
O338 Mn312 2.094 . S
O338 C316 1.240 . S
O339 Mn313 2.117 . S
O339 C316 1.264 . S
C340 C333 1.403 . S
C340 C341 1.399 . S
C340 H346 0.929 . S
C341 C321 1.449 . S
C341 C340 1.399 . S
C341 H347 0.930 . S
H342 C322 0.931 . S
H343 C323 0.930 . S
H344 C331 0.931 . S
H345 C332 0.929 . S
H346 C340 0.929 . S
H347 C341 0.930 . S
Mn348 O353 2.095 . S
Mn348 O363 2.162 . S
Mn348 O364 2.297 . S
Mn348 O372 2.385 . S
Mn348 O373 2.209 . S
Mn348 O374 2.094 . S
Mn349 O354 2.121 . S
Mn349 N356 2.257 . S
Mn349 N365 2.282 . S
Mn349 O373 2.215 . S
Mn349 O375 2.117 . S
C350 O372 1.234 . S
C350 O373 1.283 . S
C351 O363 1.281 . S
C351 O364 1.236 . S
C352 O374 1.240 . S
C352 O375 1.264 . S
O353 Mn348 2.095 . S
O353 C362 1.250 . S
O354 Mn349 2.121 . S
O354 C362 1.258 . S
C355 N356 1.326 . S
C355 C359 1.460 . S
C355 H361 0.929 . S
N356 Mn349 2.257 . S
N356 C355 1.326 . S
N356 C360 1.362 . S
C357 C358 1.258 . S
C357 C360 1.431 . S
C357 C377 1.449 . S
C358 C357 1.258 . S
C358 C359 1.477 . S
C358 H378 0.931 . S
C359 C355 1.460 . S
C359 C358 1.477 . S
C359 H379 0.930 . S
C360 N356 1.362 . S
C360 C357 1.431 . S
C360 C370 1.476 . S
H361 C355 0.929 . S
C362 O353 1.250 . S
C362 O354 1.258 . S
O363 Mn348 2.162 . S
O363 C351 1.281 . S
O364 Mn348 2.297 . S
O364 C351 1.236 . S
N365 Mn349 2.282 . S
N365 C366 1.328 . S
N365 C370 1.318 . S
C366 N365 1.328 . S
C366 C367 1.457 . S
C366 H371 0.929 . S
C367 C366 1.457 . S
C367 C368 1.291 . S
C367 H380 0.931 . S
C368 C367 1.291 . S
C368 C369 1.373 . S
C368 H381 0.929 . S
C369 C368 1.373 . S
C369 C370 1.396 . S
C369 C376 1.403 . S
C370 C360 1.476 . S
C370 N365 1.318 . S
C370 C369 1.396 . S
H371 C366 0.929 . S
O372 Mn348 2.385 . S
O372 C350 1.234 . S
O373 Mn348 2.209 . S
O373 Mn349 2.215 . S
O373 C350 1.283 . S
O374 Mn348 2.094 . S
O374 C352 1.240 . S
O375 Mn349 2.117 . S
O375 C352 1.264 . S
C376 C369 1.403 . S
C376 C377 1.399 . S
C376 H382 0.929 . S
C377 C357 1.449 . S
C377 C376 1.399 . S
C377 H383 0.930 . S
H378 C358 0.931 . S
H379 C359 0.930 . S
H380 C367 0.931 . S
H381 C368 0.929 . S
H382 C376 0.929 . S
H383 C377 0.930 . S
Mn384 O389 2.095 . S
Mn384 O399 2.162 . S
Mn384 O400 2.297 . S
Mn384 O408 2.385 . S
Mn384 O409 2.209 . S
Mn384 O410 2.094 . S
Mn385 O390 2.121 . S
Mn385 N392 2.257 . S
Mn385 N401 2.282 . S
Mn385 O409 2.215 . S
Mn385 O411 2.117 . S
C386 O408 1.234 . S
C386 O409 1.283 . S
C387 O399 1.281 . S
C387 O400 1.236 . S
C388 O410 1.240 . S
C388 O411 1.264 . S
O389 Mn384 2.095 . S
O389 C398 1.250 . S
O390 Mn385 2.121 . S
O390 C398 1.258 . S
C391 N392 1.326 . S
C391 C395 1.460 . S
C391 H397 0.929 . S
N392 Mn385 2.257 . S
N392 C391 1.326 . S
N392 C396 1.362 . S
C393 C394 1.258 . S
C393 C396 1.431 . S
C393 C413 1.449 . S
C394 C393 1.258 . S
C394 C395 1.477 . S
C394 H414 0.931 . S
C395 C391 1.460 . S
C395 C394 1.477 . S
C395 H415 0.930 . S
C396 N392 1.362 . S
C396 C393 1.431 . S
C396 C406 1.476 . S
H397 C391 0.929 . S
C398 O389 1.250 . S
C398 O390 1.258 . S
O399 Mn384 2.162 . S
O399 C387 1.281 . S
O400 Mn384 2.297 . S
O400 C387 1.236 . S
N401 Mn385 2.282 . S
N401 C402 1.328 . S
N401 C406 1.318 . S
C402 N401 1.328 . S
C402 C403 1.457 . S
C402 H407 0.929 . S
C403 C402 1.457 . S
C403 C404 1.291 . S
C403 H416 0.931 . S
C404 C403 1.291 . S
C404 C405 1.373 . S
C404 H417 0.929 . S
C405 C404 1.373 . S
C405 C406 1.396 . S
C405 C412 1.403 . S
C406 C396 1.476 . S
C406 N401 1.318 . S
C406 C405 1.396 . S
H407 C402 0.929 . S
O408 Mn384 2.385 . S
O408 C386 1.234 . S
O409 Mn384 2.209 . S
O409 Mn385 2.215 . S
O409 C386 1.283 . S
O410 Mn384 2.094 . S
O410 C388 1.240 . S
O411 Mn385 2.117 . S
O411 C388 1.264 . S
C412 C405 1.403 . S
C412 C413 1.399 . S
C412 H418 0.929 . S
C413 C393 1.449 . S
C413 C412 1.399 . S
C413 H419 0.930 . S
H414 C394 0.931 . S
H415 C395 0.930 . S
H416 C403 0.931 . S
H417 C404 0.929 . S
H418 C412 0.929 . S
H419 C413 0.930 . S
Mn420 O425 2.095 . S
Mn420 O435 2.162 . S
Mn420 O436 2.297 . S
Mn420 O444 2.385 . S
Mn420 O445 2.209 . S
Mn420 O446 2.094 . S
Mn421 O426 2.121 . S
Mn421 N428 2.257 . S
Mn421 N437 2.282 . S
Mn421 O445 2.215 . S
Mn421 O447 2.117 . S
C422 O444 1.234 . S
C422 O445 1.283 . S
C423 O435 1.281 . S
C423 O436 1.236 . S
C424 O446 1.240 . S
C424 O447 1.264 . S
O425 Mn420 2.095 . S
O425 C434 1.250 . S
O426 Mn421 2.121 . S
O426 C434 1.258 . S
C427 N428 1.326 . S
C427 C431 1.460 . S
C427 H433 0.929 . S
N428 Mn421 2.257 . S
N428 C427 1.326 . S
N428 C432 1.362 . S
C429 C430 1.258 . S
C429 C432 1.431 . S
C429 C449 1.449 . S
C430 C429 1.258 . S
C430 C431 1.477 . S
C430 H450 0.931 . S
C431 C427 1.460 . S
C431 C430 1.477 . S
C431 H451 0.930 . S
C432 N428 1.362 . S
C432 C429 1.431 . S
C432 C442 1.476 . S
H433 C427 0.929 . S
C434 O425 1.250 . S
C434 O426 1.258 . S
O435 Mn420 2.162 . S
O435 C423 1.281 . S
O436 Mn420 2.297 . S
O436 C423 1.236 . S
N437 Mn421 2.282 . S
N437 C438 1.328 . S
N437 C442 1.318 . S
C438 N437 1.328 . S
C438 C439 1.457 . S
C438 H443 0.929 . S
C439 C438 1.457 . S
C439 C440 1.291 . S
C439 H452 0.931 . S
C440 C439 1.291 . S
C440 C441 1.373 . S
C440 H453 0.929 . S
C441 C440 1.373 . S
C441 C442 1.396 . S
C441 C448 1.403 . S
C442 C432 1.476 . S
C442 N437 1.318 . S
C442 C441 1.396 . S
H443 C438 0.929 . S
O444 Mn420 2.385 . S
O444 C422 1.234 . S
O445 Mn420 2.209 . S
O445 Mn421 2.215 . S
O445 C422 1.283 . S
O446 Mn420 2.094 . S
O446 C424 1.240 . S
O447 Mn421 2.117 . S
O447 C424 1.264 . S
C448 C441 1.403 . S
C448 C449 1.399 . S
C448 H454 0.929 . S
C449 C429 1.449 . S
C449 C448 1.399 . S
C449 H455 0.930 . S
H450 C430 0.931 . S
H451 C431 0.930 . S
H452 C439 0.931 . S
H453 C440 0.929 . S
H454 C448 0.929 . S
H455 C449 0.930 . S
Mn456 O461 2.095 . S
Mn456 O471 2.162 . S
Mn456 O472 2.297 . S
Mn456 O480 2.385 . S
Mn456 O481 2.209 . S
Mn456 O482 2.094 . S
Mn457 O462 2.121 . S
Mn457 N464 2.257 . S
Mn457 N473 2.282 . S
Mn457 O481 2.215 . S
Mn457 O483 2.117 . S
C458 O480 1.234 . S
C458 O481 1.283 . S
C459 O471 1.281 . S
C459 O472 1.236 . S
C460 O482 1.240 . S
C460 O483 1.264 . S
O461 Mn456 2.095 . S
O461 C470 1.250 . S
O462 Mn457 2.121 . S
O462 C470 1.258 . S
C463 N464 1.326 . S
C463 C467 1.460 . S
C463 H469 0.929 . S
N464 Mn457 2.257 . S
N464 C463 1.326 . S
N464 C468 1.362 . S
C465 C466 1.258 . S
C465 C468 1.431 . S
C465 C485 1.449 . S
C466 C465 1.258 . S
C466 C467 1.477 . S
C466 H486 0.931 . S
C467 C463 1.460 . S
C467 C466 1.477 . S
C467 H487 0.930 . S
C468 N464 1.362 . S
C468 C465 1.431 . S
C468 C478 1.476 . S
H469 C463 0.929 . S
C470 O461 1.250 . S
C470 O462 1.258 . S
O471 Mn456 2.162 . S
O471 C459 1.281 . S
O472 Mn456 2.297 . S
O472 C459 1.236 . S
N473 Mn457 2.282 . S
N473 C474 1.328 . S
N473 C478 1.318 . S
C474 N473 1.328 . S
C474 C475 1.457 . S
C474 H479 0.929 . S
C475 C474 1.457 . S
C475 C476 1.291 . S
C475 H488 0.931 . S
C476 C475 1.291 . S
C476 C477 1.373 . S
C476 H489 0.929 . S
C477 C476 1.373 . S
C477 C478 1.396 . S
C477 C484 1.403 . S
C478 C468 1.476 . S
C478 N473 1.318 . S
C478 C477 1.396 . S
H479 C474 0.929 . S
O480 Mn456 2.385 . S
O480 C458 1.234 . S
O481 Mn456 2.209 . S
O481 Mn457 2.215 . S
O481 C458 1.283 . S
O482 Mn456 2.094 . S
O482 C460 1.240 . S
O483 Mn457 2.117 . S
O483 C460 1.264 . S
C484 C477 1.403 . S
C484 C485 1.399 . S
C484 H490 0.929 . S
C485 C465 1.449 . S
C485 C484 1.399 . S
C485 H491 0.930 . S
H486 C466 0.931 . S
H487 C467 0.930 . S
H488 C475 0.931 . S
H489 C476 0.929 . S
H490 C484 0.929 . S
H491 C485 0.930 . S
H492 C500 0.929 . S
H493 C502 0.930 . S
H494 C504 0.930 . S
H495 C507 0.929 . S
H496 C510 0.930 . S
H497 C512 0.960 . S
H498 C512 0.960 . S
H499 C512 0.960 . S
C500 H492 0.929 . S
C500 C501 1.377 . S
C500 C502 1.384 . S
C501 C500 1.377 . S
C501 C507 1.390 . S
C502 H493 0.930 . S
C502 C500 1.384 . S
C502 C503 1.372 . S
C503 C502 1.372 . S
C503 C504 1.400 . S
C503 C508 1.490 . S
C504 H494 0.930 . S
C504 C503 1.400 . S
C504 C507 1.386 . S
H505 C521 0.930 . S
H506 C522 0.931 . S
C507 H495 0.929 . S
C507 C501 1.390 . S
C507 C504 1.386 . S
C508 C503 1.490 . S
C508 C510 1.395 . S
C508 C511 1.403 . S
H509 C515 0.930 . S
C510 H496 0.930 . S
C510 C508 1.395 . S
C510 C513 1.403 . S
C511 C508 1.403 . S
C511 C512 1.524 . S
C511 C515 1.400 . S
C512 H497 0.960 . S
C512 H498 0.960 . S
C512 H499 0.960 . S
C512 C511 1.524 . S
C513 C510 1.403 . S
C513 C514 1.392 . S
C513 C517 1.495 . S
C514 C513 1.392 . S
C514 C515 1.385 . S
C514 C516 1.478 . S
C515 H509 0.930 . S
C515 C511 1.400 . S
C515 C514 1.385 . S
C516 C514 1.478 . S
C516 C518 1.381 . S
C516 C522 1.383 . S
C517 C513 1.495 . S
C517 H523 0.959 . S
C517 H524 0.961 . S
C517 H525 0.960 . S
C518 C516 1.381 . S
C518 C519 1.394 . S
C518 H526 0.930 . S
C519 C518 1.394 . S
C519 C520 1.383 . S
C519 H527 0.929 . S
C520 C519 1.383 . S
C520 C521 1.377 . S
C521 H505 0.930 . S
C521 C520 1.377 . S
C521 C522 1.379 . S
C522 H506 0.931 . S
C522 C516 1.383 . S
C522 C521 1.379 . S
H523 C517 0.959 . S
H524 C517 0.961 . S
H525 C517 0.960 . S
H526 C518 0.930 . S
H527 C519 0.929 . S
H528 C536 0.929 . S
H529 C538 0.930 . S
H530 C540 0.930 . S
H531 C543 0.929 . S
H532 C546 0.930 . S
H533 C548 0.960 . S
H534 C548 0.960 . S
H535 C548 0.960 . S
C536 H528 0.929 . S
C536 C537 1.377 . S
C536 C538 1.384 . S
C537 C536 1.377 . S
C537 C543 1.390 . S
C538 H529 0.930 . S
C538 C536 1.384 . S
C538 C539 1.372 . S
C539 C538 1.372 . S
C539 C540 1.400 . S
C539 C544 1.490 . S
C540 H530 0.930 . S
C540 C539 1.400 . S
C540 C543 1.386 . S
H541 C557 0.930 . S
H542 C558 0.931 . S
C543 H531 0.929 . S
C543 C537 1.390 . S
C543 C540 1.386 . S
C544 C539 1.490 . S
C544 C546 1.395 . S
C544 C547 1.403 . S
H545 C551 0.930 . S
C546 H532 0.930 . S
C546 C544 1.395 . S
C546 C549 1.403 . S
C547 C544 1.403 . S
C547 C548 1.524 . S
C547 C551 1.400 . S
C548 H533 0.960 . S
C548 H534 0.960 . S
C548 H535 0.960 . S
C548 C547 1.524 . S
C549 C546 1.403 . S
C549 C550 1.392 . S
C549 C553 1.495 . S
C550 C549 1.392 . S
C550 C551 1.385 . S
C550 C552 1.478 . S
C551 H545 0.930 . S
C551 C547 1.400 . S
C551 C550 1.385 . S
C552 C550 1.478 . S
C552 C554 1.381 . S
C552 C558 1.383 . S
C553 C549 1.495 . S
C553 H559 0.959 . S
C553 H560 0.961 . S
C553 H561 0.960 . S
C554 C552 1.381 . S
C554 C555 1.394 . S
C554 H562 0.930 . S
C555 C554 1.394 . S
C555 C556 1.383 . S
C555 H563 0.929 . S
C556 C555 1.383 . S
C556 C557 1.377 . S
C557 H541 0.930 . S
C557 C556 1.377 . S
C557 C558 1.379 . S
C558 H542 0.931 . S
C558 C552 1.383 . S
C558 C557 1.379 . S
H559 C553 0.959 . S
H560 C553 0.961 . S
H561 C553 0.960 . S
H562 C554 0.930 . S
H563 C555 0.929 . S
H564 C572 0.929 . S
H565 C574 0.930 . S
H566 C576 0.930 . S
H567 C579 0.929 . S
H568 C582 0.930 . S
H569 C584 0.960 . S
H570 C584 0.960 . S
H571 C584 0.960 . S
C572 H564 0.929 . S
C572 C573 1.377 . S
C572 C574 1.384 . S
C573 C572 1.377 . S
C573 C579 1.390 . S
C574 H565 0.930 . S
C574 C572 1.384 . S
C574 C575 1.372 . S
C575 C574 1.372 . S
C575 C576 1.400 . S
C575 C580 1.490 . S
C576 H566 0.930 . S
C576 C575 1.400 . S
C576 C579 1.386 . S
H577 C593 0.930 . S
H578 C594 0.931 . S
C579 H567 0.929 . S
C579 C573 1.390 . S
C579 C576 1.386 . S
C580 C575 1.490 . S
C580 C582 1.395 . S
C580 C583 1.403 . S
H581 C587 0.930 . S
C582 H568 0.930 . S
C582 C580 1.395 . S
C582 C585 1.403 . S
C583 C580 1.403 . S
C583 C584 1.524 . S
C583 C587 1.400 . S
C584 H569 0.960 . S
C584 H570 0.960 . S
C584 H571 0.960 . S
C584 C583 1.524 . S
C585 C582 1.403 . S
C585 C586 1.392 . S
C585 C589 1.495 . S
C586 C585 1.392 . S
C586 C587 1.385 . S
C586 C588 1.478 . S
C587 H581 0.930 . S
C587 C583 1.400 . S
C587 C586 1.385 . S
C588 C586 1.478 . S
C588 C590 1.381 . S
C588 C594 1.383 . S
C589 C585 1.495 . S
C589 H595 0.959 . S
C589 H596 0.961 . S
C589 H597 0.960 . S
C590 C588 1.381 . S
C590 C591 1.394 . S
C590 H598 0.930 . S
C591 C590 1.394 . S
C591 C592 1.383 . S
C591 H599 0.929 . S
C592 C591 1.383 . S
C592 C593 1.377 . S
C593 H577 0.930 . S
C593 C592 1.377 . S
C593 C594 1.379 . S
C594 H578 0.931 . S
C594 C588 1.383 . S
C594 C593 1.379 . S
H595 C589 0.959 . S
H596 C589 0.961 . S
H597 C589 0.960 . S
H598 C590 0.930 . S
H599 C591 0.929 . S
H600 C608 0.929 . S
H601 C610 0.930 . S
H602 C612 0.930 . S
H603 C615 0.929 . S
H604 C618 0.930 . S
H605 C620 0.960 . S
H606 C620 0.960 . S
H607 C620 0.960 . S
C608 H600 0.929 . S
C608 C609 1.377 . S
C608 C610 1.384 . S
C609 C608 1.377 . S
C609 C615 1.390 . S
C610 H601 0.930 . S
C610 C608 1.384 . S
C610 C611 1.372 . S
C611 C610 1.372 . S
C611 C612 1.400 . S
C611 C616 1.490 . S
C612 H602 0.930 . S
C612 C611 1.400 . S
C612 C615 1.386 . S
H613 C629 0.930 . S
H614 C630 0.931 . S
C615 H603 0.929 . S
C615 C609 1.390 . S
C615 C612 1.386 . S
C616 C611 1.490 . S
C616 C618 1.395 . S
C616 C619 1.403 . S
H617 C623 0.930 . S
C618 H604 0.930 . S
C618 C616 1.395 . S
C618 C621 1.403 . S
C619 C616 1.403 . S
C619 C620 1.524 . S
C619 C623 1.400 . S
C620 H605 0.960 . S
C620 H606 0.960 . S
C620 H607 0.960 . S
C620 C619 1.524 . S
C621 C618 1.403 . S
C621 C622 1.392 . S
C621 C625 1.495 . S
C622 C621 1.392 . S
C622 C623 1.385 . S
C622 C624 1.478 . S
C623 H617 0.930 . S
C623 C619 1.400 . S
C623 C622 1.385 . S
C624 C622 1.478 . S
C624 C626 1.381 . S
C624 C630 1.383 . S
C625 C621 1.495 . S
C625 H631 0.959 . S
C625 H632 0.961 . S
C625 H633 0.960 . S
C626 C624 1.381 . S
C626 C627 1.394 . S
C626 H634 0.930 . S
C627 C626 1.394 . S
C627 C628 1.383 . S
C627 H635 0.929 . S
C628 C627 1.383 . S
C628 C629 1.377 . S
C629 H613 0.930 . S
C629 C628 1.377 . S
C629 C630 1.379 . S
C630 H614 0.931 . S
C630 C624 1.383 . S
C630 C629 1.379 . S
H631 C625 0.959 . S
H632 C625 0.961 . S
H633 C625 0.960 . S
H634 C626 0.930 . S
H635 C627 0.929 . S
H636 C644 0.929 . S
H637 C646 0.930 . S
H638 C648 0.930 . S
H639 C651 0.929 . S
H640 C654 0.930 . S
H641 C656 0.960 . S
H642 C656 0.960 . S
H643 C656 0.960 . S
C644 H636 0.929 . S
C644 C645 1.377 . S
C644 C646 1.384 . S
C645 C644 1.377 . S
C645 C651 1.390 . S
C646 H637 0.930 . S
C646 C644 1.384 . S
C646 C647 1.372 . S
C647 C646 1.372 . S
C647 C648 1.400 . S
C647 C652 1.490 . S
C648 H638 0.930 . S
C648 C647 1.400 . S
C648 C651 1.386 . S
H649 C665 0.930 . S
H650 C666 0.931 . S
C651 H639 0.929 . S
C651 C645 1.390 . S
C651 C648 1.386 . S
C652 C647 1.490 . S
C652 C654 1.395 . S
C652 C655 1.403 . S
H653 C659 0.930 . S
C654 H640 0.930 . S
C654 C652 1.395 . S
C654 C657 1.403 . S
C655 C652 1.403 . S
C655 C656 1.524 . S
C655 C659 1.400 . S
C656 H641 0.960 . S
C656 H642 0.960 . S
C656 H643 0.960 . S
C656 C655 1.524 . S
C657 C654 1.403 . S
C657 C658 1.392 . S
C657 C661 1.495 . S
C658 C657 1.392 . S
C658 C659 1.385 . S
C658 C660 1.478 . S
C659 H653 0.930 . S
C659 C655 1.400 . S
C659 C658 1.385 . S
C660 C658 1.478 . S
C660 C662 1.381 . S
C660 C666 1.383 . S
C661 C657 1.495 . S
C661 H667 0.959 . S
C661 H668 0.961 . S
C661 H669 0.960 . S
C662 C660 1.381 . S
C662 C663 1.394 . S
C662 H670 0.930 . S
C663 C662 1.394 . S
C663 C664 1.383 . S
C663 H671 0.929 . S
C664 C663 1.383 . S
C664 C665 1.377 . S
C665 H649 0.930 . S
C665 C664 1.377 . S
C665 C666 1.379 . S
C666 H650 0.931 . S
C666 C660 1.383 . S
C666 C665 1.379 . S
H667 C661 0.959 . S
H668 C661 0.961 . S
H669 C661 0.960 . S
H670 C662 0.930 . S
H671 C663 0.929 . S
H672 C680 0.929 . S
H673 C682 0.930 . S
H674 C684 0.930 . S
H675 C687 0.929 . S
H676 C690 0.930 . S
H677 C692 0.960 . S
H678 C692 0.960 . S
H679 C692 0.960 . S
C680 H672 0.929 . S
C680 C681 1.377 . S
C680 C682 1.384 . S
C681 C680 1.377 . S
C681 C687 1.390 . S
C682 H673 0.930 . S
C682 C680 1.384 . S
C682 C683 1.372 . S
C683 C682 1.372 . S
C683 C684 1.400 . S
C683 C688 1.490 . S
C684 H674 0.930 . S
C684 C683 1.400 . S
C684 C687 1.386 . S
H685 C701 0.930 . S
H686 C702 0.931 . S
C687 H675 0.929 . S
C687 C681 1.390 . S
C687 C684 1.386 . S
C688 C683 1.490 . S
C688 C690 1.395 . S
C688 C691 1.403 . S
H689 C695 0.930 . S
C690 H676 0.930 . S
C690 C688 1.395 . S
C690 C693 1.403 . S
C691 C688 1.403 . S
C691 C692 1.524 . S
C691 C695 1.400 . S
C692 H677 0.960 . S
C692 H678 0.960 . S
C692 H679 0.960 . S
C692 C691 1.524 . S
C693 C690 1.403 . S
C693 C694 1.392 . S
C693 C697 1.495 . S
C694 C693 1.392 . S
C694 C695 1.385 . S
C694 C696 1.478 . S
C695 H689 0.930 . S
C695 C691 1.400 . S
C695 C694 1.385 . S
C696 C694 1.478 . S
C696 C698 1.381 . S
C696 C702 1.383 . S
C697 C693 1.495 . S
C697 H703 0.959 . S
C697 H704 0.961 . S
C697 H705 0.960 . S
C698 C696 1.381 . S
C698 C699 1.394 . S
C698 H706 0.930 . S
C699 C698 1.394 . S
C699 C700 1.383 . S
C699 H707 0.929 . S
C700 C699 1.383 . S
C700 C701 1.377 . S
C701 H685 0.930 . S
C701 C700 1.377 . S
C701 C702 1.379 . S
C702 H686 0.931 . S
C702 C696 1.383 . S
C702 C701 1.379 . S
H703 C697 0.959 . S
H704 C697 0.961 . S
H705 C697 0.960 . S
H706 C698 0.930 . S
H707 C699 0.929 . S
H708 C716 0.929 . S
H709 C718 0.930 . S
H710 C720 0.930 . S
H711 C723 0.929 . S
H712 C726 0.930 . S
H713 C728 0.960 . S
H714 C728 0.960 . S
H715 C728 0.960 . S
C716 H708 0.929 . S
C716 C717 1.377 . S
C716 C718 1.384 . S
C717 C716 1.377 . S
C717 C723 1.390 . S
C718 H709 0.930 . S
C718 C716 1.384 . S
C718 C719 1.372 . S
C719 C718 1.372 . S
C719 C720 1.400 . S
C719 C724 1.490 . S
C720 H710 0.930 . S
C720 C719 1.400 . S
C720 C723 1.386 . S
H721 C737 0.930 . S
H722 C738 0.931 . S
C723 H711 0.929 . S
C723 C717 1.390 . S
C723 C720 1.386 . S
C724 C719 1.490 . S
C724 C726 1.395 . S
C724 C727 1.403 . S
H725 C731 0.930 . S
C726 H712 0.930 . S
C726 C724 1.395 . S
C726 C729 1.403 . S
C727 C724 1.403 . S
C727 C728 1.524 . S
C727 C731 1.400 . S
C728 H713 0.960 . S
C728 H714 0.960 . S
C728 H715 0.960 . S
C728 C727 1.524 . S
C729 C726 1.403 . S
C729 C730 1.392 . S
C729 C733 1.495 . S
C730 C729 1.392 . S
C730 C731 1.385 . S
C730 C732 1.478 . S
C731 H725 0.930 . S
C731 C727 1.400 . S
C731 C730 1.385 . S
C732 C730 1.478 . S
C732 C734 1.381 . S
C732 C738 1.383 . S
C733 C729 1.495 . S
C733 H739 0.959 . S
C733 H740 0.961 . S
C733 H741 0.960 . S
C734 C732 1.381 . S
C734 C735 1.394 . S
C734 H742 0.930 . S
C735 C734 1.394 . S
C735 C736 1.383 . S
C735 H743 0.929 . S
C736 C735 1.383 . S
C736 C737 1.377 . S
C737 H721 0.930 . S
C737 C736 1.377 . S
C737 C738 1.379 . S
C738 H722 0.931 . S
C738 C732 1.383 . S
C738 C737 1.379 . S
H739 C733 0.959 . S
H740 C733 0.961 . S
H741 C733 0.960 . S
H742 C734 0.930 . S
H743 C735 0.929 . S
H744 C752 0.929 . S
H745 C754 0.930 . S
H746 C756 0.930 . S
H747 C759 0.929 . S
H748 C762 0.930 . S
H749 C764 0.960 . S
H750 C764 0.960 . S
H751 C764 0.960 . S
C752 H744 0.929 . S
C752 C753 1.377 . S
C752 C754 1.384 . S
C753 C752 1.377 . S
C753 C759 1.390 . S
C754 H745 0.930 . S
C754 C752 1.384 . S
C754 C755 1.372 . S
C755 C754 1.372 . S
C755 C756 1.400 . S
C755 C760 1.490 . S
C756 H746 0.930 . S
C756 C755 1.400 . S
C756 C759 1.386 . S
H757 C773 0.930 . S
H758 C774 0.931 . S
C759 H747 0.929 . S
C759 C753 1.390 . S
C759 C756 1.386 . S
C760 C755 1.490 . S
C760 C762 1.395 . S
C760 C763 1.403 . S
H761 C767 0.930 . S
C762 H748 0.930 . S
C762 C760 1.395 . S
C762 C765 1.403 . S
C763 C760 1.403 . S
C763 C764 1.524 . S
C763 C767 1.400 . S
C764 H749 0.960 . S
C764 H750 0.960 . S
C764 H751 0.960 . S
C764 C763 1.524 . S
C765 C762 1.403 . S
C765 C766 1.392 . S
C765 C769 1.495 . S
C766 C765 1.392 . S
C766 C767 1.385 . S
C766 C768 1.478 . S
C767 H761 0.930 . S
C767 C763 1.400 . S
C767 C766 1.385 . S
C768 C766 1.478 . S
C768 C770 1.381 . S
C768 C774 1.383 . S
C769 C765 1.495 . S
C769 H775 0.959 . S
C769 H776 0.961 . S
C769 H777 0.960 . S
C770 C768 1.381 . S
C770 C771 1.394 . S
C770 H778 0.930 . S
C771 C770 1.394 . S
C771 C772 1.383 . S
C771 H779 0.929 . S
C772 C771 1.383 . S
C772 C773 1.377 . S
C773 H757 0.930 . S
C773 C772 1.377 . S
C773 C774 1.379 . S
C774 H758 0.931 . S
C774 C768 1.383 . S
C774 C773 1.379 . S
H775 C769 0.959 . S
H776 C769 0.961 . S
H777 C769 0.960 . S
H778 C770 0.930 . S
H779 C771 0.929 . S
H780 C788 0.929 . S
H781 C790 0.930 . S
H782 C792 0.930 . S
H783 C795 0.929 . S
H784 C798 0.930 . S
H785 C800 0.960 . S
H786 C800 0.960 . S
H787 C800 0.960 . S
C788 H780 0.929 . S
C788 C789 1.377 . S
C788 C790 1.384 . S
C789 C788 1.377 . S
C789 C795 1.390 . S
C790 H781 0.930 . S
C790 C788 1.384 . S
C790 C791 1.372 . S
C791 C790 1.372 . S
C791 C792 1.400 . S
C791 C796 1.490 . S
C792 H782 0.930 . S
C792 C791 1.400 . S
C792 C795 1.386 . S
H793 C809 0.930 . S
H794 C810 0.931 . S
C795 H783 0.929 . S
C795 C789 1.390 . S
C795 C792 1.386 . S
C796 C791 1.490 . S
C796 C798 1.395 . S
C796 C799 1.403 . S
H797 C803 0.930 . S
C798 H784 0.930 . S
C798 C796 1.395 . S
C798 C801 1.403 . S
C799 C796 1.403 . S
C799 C800 1.524 . S
C799 C803 1.400 . S
C800 H785 0.960 . S
C800 H786 0.960 . S
C800 H787 0.960 . S
C800 C799 1.524 . S
C801 C798 1.403 . S
C801 C802 1.392 . S
C801 C805 1.495 . S
C802 C801 1.392 . S
C802 C803 1.385 . S
C802 C804 1.478 . S
C803 H797 0.930 . S
C803 C799 1.400 . S
C803 C802 1.385 . S
C804 C802 1.478 . S
C804 C806 1.381 . S
C804 C810 1.383 . S
C805 C801 1.495 . S
C805 H811 0.959 . S
C805 H812 0.961 . S
C805 H813 0.960 . S
C806 C804 1.381 . S
C806 C807 1.394 . S
C806 H814 0.930 . S
C807 C806 1.394 . S
C807 C808 1.383 . S
C807 H815 0.929 . S
C808 C807 1.383 . S
C808 C809 1.377 . S
C809 H793 0.930 . S
C809 C808 1.377 . S
C809 C810 1.379 . S
C810 H794 0.931 . S
C810 C804 1.383 . S
C810 C809 1.379 . S
H811 C805 0.959 . S
H812 C805 0.961 . S
H813 C805 0.960 . S
H814 C806 0.930 . S
H815 C807 0.929 . S
H816 C824 0.929 . S
H817 C826 0.930 . S
H818 C828 0.930 . S
H819 C831 0.929 1_556 S
H820 C834 0.930 . S
H821 C836 0.960 . S
H822 C836 0.960 . S
H823 C836 0.960 . S
C824 H816 0.929 . S
C824 C825 1.377 . S
C824 C826 1.384 . S
C825 C824 1.377 . S
C825 C831 1.390 . S
C826 H817 0.930 . S
C826 C824 1.384 . S
C826 C827 1.372 . S
C827 C826 1.372 . S
C827 C828 1.400 . S
C827 C832 1.490 . S
C828 H818 0.930 . S
C828 C827 1.400 . S
C828 C831 1.386 . S
H829 C845 0.930 . S
H830 C846 0.931 . S
C831 H819 0.929 1_554 S
C831 C825 1.390 . S
C831 C828 1.386 . S
C832 C827 1.490 . S
C832 C834 1.395 . S
C832 C835 1.403 . S
H833 C839 0.930 . S
C834 H820 0.930 . S
C834 C832 1.395 . S
C834 C837 1.403 . S
C835 C832 1.403 . S
C835 C836 1.524 . S
C835 C839 1.400 . S
C836 H821 0.960 . S
C836 H822 0.960 . S
C836 H823 0.960 . S
C836 C835 1.524 . S
C837 C834 1.403 . S
C837 C838 1.392 . S
C837 C841 1.495 . S
C838 C837 1.392 . S
C838 C839 1.385 . S
C838 C840 1.478 . S
C839 H833 0.930 . S
C839 C835 1.400 . S
C839 C838 1.385 . S
C840 C838 1.478 . S
C840 C842 1.381 . S
C840 C846 1.383 . S
C841 C837 1.495 . S
C841 H847 0.959 . S
C841 H848 0.961 . S
C841 H849 0.960 . S
C842 C840 1.381 . S
C842 C843 1.394 . S
C842 H850 0.930 . S
C843 C842 1.394 . S
C843 C844 1.383 . S
C843 H851 0.929 . S
C844 C843 1.383 . S
C844 C845 1.377 . S
C845 H829 0.930 . S
C845 C844 1.377 . S
C845 C846 1.379 . S
C846 H830 0.931 . S
C846 C840 1.383 . S
C846 C845 1.379 . S
H847 C841 0.959 . S
H848 C841 0.961 . S
H849 C841 0.960 . S
H850 C842 0.930 . S
H851 C843 0.929 . S
H852 C860 0.929 . S
H853 C862 0.930 . S
H854 C864 0.930 . S
H855 C867 0.929 . S
H856 C870 0.930 . S
H857 C872 0.960 . S
H858 C872 0.960 . S
H859 C872 0.960 . S
C860 H852 0.929 . S
C860 C861 1.377 . S
C860 C862 1.384 . S
C861 C860 1.377 . S
C861 C867 1.390 . S
C862 H853 0.930 . S
C862 C860 1.384 . S
C862 C863 1.372 . S
C863 C862 1.372 . S
C863 C864 1.400 . S
C863 C868 1.490 . S
C864 H854 0.930 . S
C864 C863 1.400 . S
C864 C867 1.386 . S
H865 C881 0.930 . S
H866 C882 0.931 . S
C867 H855 0.929 . S
C867 C861 1.390 . S
C867 C864 1.386 . S
C868 C863 1.490 . S
C868 C870 1.395 . S
C868 C871 1.403 . S
H869 C875 0.930 . S
C870 H856 0.930 . S
C870 C868 1.395 . S
C870 C873 1.403 . S
C871 C868 1.403 . S
C871 C872 1.524 . S
C871 C875 1.400 . S
C872 H857 0.960 . S
C872 H858 0.960 . S
C872 H859 0.960 . S
C872 C871 1.524 . S
C873 C870 1.403 . S
C873 C874 1.392 . S
C873 C877 1.495 . S
C874 C873 1.392 . S
C874 C875 1.385 . S
C874 C876 1.478 . S
C875 H869 0.930 . S
C875 C871 1.400 . S
C875 C874 1.385 . S
C876 C874 1.478 . S
C876 C878 1.381 . S
C876 C882 1.383 . S
C877 C873 1.495 . S
C877 H883 0.959 . S
C877 H884 0.961 . S
C877 H885 0.960 . S
C878 C876 1.381 . S
C878 C879 1.394 . S
C878 H886 0.930 . S
C879 C878 1.394 . S
C879 C880 1.383 . S
C879 H887 0.929 . S
C880 C879 1.383 . S
C880 C881 1.377 . S
C881 H865 0.930 . S
C881 C880 1.377 . S
C881 C882 1.379 . S
C882 H866 0.931 . S
C882 C876 1.383 . S
C882 C881 1.379 . S
H883 C877 0.959 . S
H884 C877 0.961 . S
H885 C877 0.960 . S
H886 C878 0.930 . S
H887 C879 0.929 . S
H888 C896 0.929 . S
H889 C898 0.930 . S
H890 C900 0.930 . S
H891 C903 0.929 . S
H892 C906 0.930 . S
H893 C908 0.960 . S
H894 C908 0.960 . S
H895 C908 0.960 . S
C896 H888 0.929 . S
C896 C897 1.377 . S
C896 C898 1.384 . S
C897 C896 1.377 . S
C897 C903 1.390 . S
C898 H889 0.930 . S
C898 C896 1.384 . S
C898 C899 1.372 . S
C899 C898 1.372 . S
C899 C900 1.400 . S
C899 C904 1.490 . S
C900 H890 0.930 . S
C900 C899 1.400 . S
C900 C903 1.386 . S
H901 C917 0.930 . S
H902 C918 0.931 . S
C903 H891 0.929 . S
C903 C897 1.390 . S
C903 C900 1.386 . S
C904 C899 1.490 . S
C904 C906 1.395 . S
C904 C907 1.403 . S
H905 C911 0.930 . S
C906 H892 0.930 . S
C906 C904 1.395 . S
C906 C909 1.403 . S
C907 C904 1.403 . S
C907 C908 1.524 . S
C907 C911 1.400 . S
C908 H893 0.960 . S
C908 H894 0.960 . S
C908 H895 0.960 . S
C908 C907 1.524 . S
C909 C906 1.403 . S
C909 C910 1.392 . S
C909 C913 1.495 . S
C910 C909 1.392 . S
C910 C911 1.385 . S
C910 C912 1.478 . S
C911 H905 0.930 . S
C911 C907 1.400 . S
C911 C910 1.385 . S
C912 C910 1.478 . S
C912 C914 1.381 . S
C912 C918 1.383 . S
C913 C909 1.495 . S
C913 H919 0.959 . S
C913 H920 0.961 . S
C913 H921 0.960 . S
C914 C912 1.381 . S
C914 C915 1.394 . S
C914 H922 0.930 . S
C915 C914 1.394 . S
C915 C916 1.383 . S
C915 H923 0.929 . S
C916 C915 1.383 . S
C916 C917 1.377 . S
C917 H901 0.930 . S
C917 C916 1.377 . S
C917 C918 1.379 . S
C918 H902 0.931 . S
C918 C912 1.383 . S
C918 C917 1.379 . S
H919 C913 0.959 . S
H920 C913 0.961 . S
H921 C913 0.960 . S
H922 C914 0.930 . S
H923 C915 0.929 . S
H924 C932 0.929 . S
H925 C934 0.930 . S
H926 C936 0.930 . S
H927 C939 0.929 . S
H928 C942 0.930 . S
H929 C944 0.960 . S
H930 C944 0.960 . S
H931 C944 0.960 . S
C932 H924 0.929 . S
C932 C933 1.377 . S
C932 C934 1.384 . S
C933 C932 1.377 . S
C933 C939 1.390 . S
C934 H925 0.930 . S
C934 C932 1.384 . S
C934 C935 1.372 . S
C935 C934 1.372 . S
C935 C936 1.400 . S
C935 C940 1.490 . S
C936 H926 0.930 . S
C936 C935 1.400 . S
C936 C939 1.386 . S
H937 C953 0.930 . S
H938 C954 0.931 . S
C939 H927 0.929 . S
C939 C933 1.390 . S
C939 C936 1.386 . S
C940 C935 1.490 . S
C940 C942 1.395 . S
C940 C943 1.403 . S
H941 C947 0.930 . S
C942 H928 0.930 . S
C942 C940 1.395 . S
C942 C945 1.403 . S
C943 C940 1.403 . S
C943 C944 1.524 . S
C943 C947 1.400 . S
C944 H929 0.960 . S
C944 H930 0.960 . S
C944 H931 0.960 . S
C944 C943 1.524 . S
C945 C942 1.403 . S
C945 C946 1.392 . S
C945 C949 1.495 . S
C946 C945 1.392 . S
C946 C947 1.385 . S
C946 C948 1.478 . S
C947 H941 0.930 . S
C947 C943 1.400 . S
C947 C946 1.385 . S
C948 C946 1.478 . S
C948 C950 1.381 . S
C948 C954 1.383 . S
C949 C945 1.495 . S
C949 H955 0.959 . S
C949 H956 0.961 . S
C949 H957 0.960 . S
C950 C948 1.381 . S
C950 C951 1.394 . S
C950 H958 0.930 . S
C951 C950 1.394 . S
C951 C952 1.383 . S
C951 H959 0.929 . S
C952 C951 1.383 . S
C952 C953 1.377 . S
C953 H937 0.930 . S
C953 C952 1.377 . S
C953 C954 1.379 . S
C954 H938 0.931 . S
C954 C948 1.383 . S
C954 C953 1.379 . S
H955 C949 0.959 . S
H956 C949 0.961 . S
H957 C949 0.960 . S
H958 C950 0.930 . S
H959 C951 0.929 . S
H960 C968 0.929 . S
H961 C970 0.930 . S
H962 C972 0.930 . S
H963 C975 0.929 . S
H964 C978 0.930 . S
H965 C980 0.960 . S
H966 C980 0.960 . S
H967 C980 0.960 . S
C968 H960 0.929 . S
C968 C969 1.377 . S
C968 C970 1.384 . S
C969 C968 1.377 . S
C969 C975 1.390 . S
C970 H961 0.930 . S
C970 C968 1.384 . S
C970 C971 1.372 . S
C971 C970 1.372 . S
C971 C972 1.400 . S
C971 C976 1.490 . S
C972 H962 0.930 . S
C972 C971 1.400 . S
C972 C975 1.386 . S
H973 C989 0.930 . S
H974 C990 0.931 . S
C975 H963 0.929 . S
C975 C969 1.390 . S
C975 C972 1.386 . S
C976 C971 1.490 . S
C976 C978 1.395 . S
C976 C979 1.403 . S
H977 C983 0.930 . S
C978 H964 0.930 . S
C978 C976 1.395 . S
C978 C981 1.403 . S
C979 C976 1.403 . S
C979 C980 1.524 . S
C979 C983 1.400 . S
C980 H965 0.960 . S
C980 H966 0.960 . S
C980 H967 0.960 . S
C980 C979 1.524 . S
C981 C978 1.403 . S
C981 C982 1.392 . S
C981 C985 1.495 . S
C982 C981 1.392 . S
C982 C983 1.385 . S
C982 C984 1.478 . S
C983 H977 0.930 . S
C983 C979 1.400 . S
C983 C982 1.385 . S
C984 C982 1.478 . S
C984 C986 1.381 . S
C984 C990 1.383 . S
C985 C981 1.495 . S
C985 H991 0.959 . S
C985 H992 0.961 . S
C985 H993 0.960 . S
C986 C984 1.381 . S
C986 C987 1.394 . S
C986 H994 0.930 . S
C987 C986 1.394 . S
C987 C988 1.383 . S
C987 H995 0.929 . S
C988 C987 1.383 . S
C988 C989 1.377 . S
C989 H973 0.930 . S
C989 C988 1.377 . S
C989 C990 1.379 . S
C990 H974 0.931 . S
C990 C984 1.383 . S
C990 C989 1.379 . S
H991 C985 0.959 . S
H992 C985 0.961 . S
H993 C985 0.960 . S
H994 C986 0.930 . S
H995 C987 0.929 . S
H996 C1004 0.929 . S
H997 C1006 0.930 . S
H998 C1008 0.930 . S
H999 C1011 0.929 . S
H1000 C1014 0.930 . S
H1001 C1016 0.960 . S
H1002 C1016 0.960 . S
H1003 C1016 0.960 . S
C1004 H996 0.929 . S
C1004 C1005 1.377 . S
C1004 C1006 1.384 . S
C1005 C1004 1.377 . S
C1005 C1011 1.390 . S
C1006 H997 0.930 . S
C1006 C1004 1.384 . S
C1006 C1007 1.372 . S
C1007 C1006 1.372 . S
C1007 C1008 1.400 . S
C1007 C1012 1.490 . S
C1008 H998 0.930 . S
C1008 C1007 1.400 . S
C1008 C1011 1.386 . S
H1009 C1025 0.930 . S
H1010 C1026 0.931 . S
C1011 H999 0.929 . S
C1011 C1005 1.390 . S
C1011 C1008 1.386 . S
C1012 C1007 1.490 . S
C1012 C1014 1.395 . S
C1012 C1015 1.403 . S
H1013 C1019 0.930 . S
C1014 H1000 0.930 . S
C1014 C1012 1.395 . S
C1014 C1017 1.403 . S
C1015 C1012 1.403 . S
C1015 C1016 1.524 . S
C1015 C1019 1.400 . S
C1016 H1001 0.960 . S
C1016 H1002 0.960 . S
C1016 H1003 0.960 . S
C1016 C1015 1.524 . S
C1017 C1014 1.403 . S
C1017 C1018 1.392 . S
C1017 C1021 1.495 . S
C1018 C1017 1.392 . S
C1018 C1019 1.385 . S
C1018 C1020 1.478 . S
C1019 H1013 0.930 . S
C1019 C1015 1.400 . S
C1019 C1018 1.385 . S
C1020 C1018 1.478 . S
C1020 C1022 1.381 . S
C1020 C1026 1.383 . S
C1021 C1017 1.495 . S
C1021 H1027 0.959 . S
C1021 H1028 0.961 . S
C1021 H1029 0.960 . S
C1022 C1020 1.381 . S
C1022 C1023 1.394 . S
C1022 H1030 0.930 . S
C1023 C1022 1.394 . S
C1023 C1024 1.383 . S
C1023 H1031 0.929 . S
C1024 C1023 1.383 . S
C1024 C1025 1.377 . S
C1025 H1009 0.930 . S
C1025 C1024 1.377 . S
C1025 C1026 1.379 . S
C1026 H1010 0.931 . S
C1026 C1020 1.383 . S
C1026 C1025 1.379 . S
H1027 C1021 0.959 . S
H1028 C1021 0.961 . S
H1029 C1021 0.960 . S
H1030 C1022 0.930 . S
H1031 C1023 0.929 . S
H1032 C1040 0.929 . S
H1033 C1042 0.930 . S
H1034 C1044 0.930 . S
H1035 C1047 0.929 . S
H1036 C1050 0.930 . S
H1037 C1052 0.960 . S
H1038 C1052 0.960 . S
H1039 C1052 0.960 . S
C1040 H1032 0.929 . S
C1040 C1041 1.377 . S
C1040 C1042 1.384 . S
C1041 C1040 1.377 . S
C1041 C1047 1.390 . S
C1042 H1033 0.930 . S
C1042 C1040 1.384 . S
C1042 C1043 1.372 . S
C1043 C1042 1.372 . S
C1043 C1044 1.400 . S
C1043 C1048 1.490 . S
C1044 H1034 0.930 . S
C1044 C1043 1.400 . S
C1044 C1047 1.386 . S
H1045 C1061 0.930 . S
H1046 C1062 0.934 . S
C1047 H1035 0.929 . S
C1047 C1041 1.390 . S
C1047 C1044 1.386 . S
C1048 C1043 1.490 . S
C1048 C1050 1.395 . S
C1048 C1051 1.403 . S
H1049 C1055 0.930 . S
C1050 H1036 0.930 . S
C1050 C1048 1.395 . S
C1050 C1053 1.403 . S
C1051 C1048 1.403 . S
C1051 C1052 1.524 . S
C1051 C1055 1.400 . S
C1052 H1037 0.960 . S
C1052 H1038 0.960 . S
C1052 H1039 0.960 . S
C1052 C1051 1.524 . S
C1053 C1050 1.403 . S
C1053 C1054 1.392 . S
C1053 C1057 1.495 . S
C1054 C1053 1.392 . S
C1054 C1055 1.385 . S
C1054 C1056 1.478 . S
C1055 H1049 0.930 . S
C1055 C1051 1.400 . S
C1055 C1054 1.385 . S
C1056 C1054 1.478 . S
C1056 C1058 1.381 1_556 S
C1056 C1062 1.383 . S
C1057 C1053 1.495 . S
C1057 H1063 0.959 . S
C1057 H1064 0.961 . S
C1057 H1065 0.960 . S
C1058 C1056 1.381 1_554 S
C1058 C1059 1.394 . S
C1058 H1066 0.930 . S
C1059 C1058 1.394 . S
C1059 C1060 1.383 . S
C1059 H1067 0.929 . S
C1060 C1059 1.383 . S
C1060 C1061 1.377 . S
C1061 H1045 0.930 . S
C1061 C1060 1.377 . S
C1061 C1062 1.376 1_554 S
C1062 H1046 0.934 . S
C1062 C1056 1.383 . S
C1062 C1061 1.376 1_556 S
H1063 C1057 0.959 . S
H1064 C1057 0.961 . S
H1065 C1057 0.960 . S
H1066 C1058 0.930 . S
H1067 C1059 0.929 . S
H1068 C1076 0.929 . S
H1069 C1078 0.930 . S
H1070 C1080 0.930 . S
H1071 C1083 0.929 . S
H1072 C1086 0.930 . S
H1073 C1088 0.960 . S
H1074 C1088 0.960 . S
H1075 C1088 0.960 . S
C1076 H1068 0.929 . S
C1076 C1077 1.377 . S
C1076 C1078 1.384 . S
C1077 C1076 1.377 . S
C1077 C1083 1.390 . S
C1078 H1069 0.930 . S
C1078 C1076 1.384 . S
C1078 C1079 1.372 . S
C1079 C1078 1.372 . S
C1079 C1080 1.400 . S
C1079 C1084 1.490 . S
C1080 H1070 0.930 . S
C1080 C1079 1.400 . S
C1080 C1083 1.386 . S
H1081 C1097 0.930 . S
H1082 C1098 0.931 . S
C1083 H1071 0.929 . S
C1083 C1077 1.390 . S
C1083 C1080 1.386 . S
C1084 C1079 1.490 . S
C1084 C1086 1.395 . S
C1084 C1087 1.403 . S
H1085 C1091 0.930 . S
C1086 H1072 0.930 . S
C1086 C1084 1.395 . S
C1086 C1089 1.403 . S
C1087 C1084 1.403 . S
C1087 C1088 1.524 . S
C1087 C1091 1.400 . S
C1088 H1073 0.960 . S
C1088 H1074 0.960 . S
C1088 H1075 0.960 . S
C1088 C1087 1.524 . S
C1089 C1086 1.403 . S
C1089 C1090 1.392 . S
C1089 C1093 1.495 . S
C1090 C1089 1.392 . S
C1090 C1091 1.385 . S
C1090 C1092 1.478 . S
C1091 H1085 0.930 . S
C1091 C1087 1.400 . S
C1091 C1090 1.385 . S
C1092 C1090 1.478 . S
C1092 C1094 1.381 . S
C1092 C1098 1.383 . S
C1093 C1089 1.495 . S
C1093 H1099 0.959 . S
C1093 H1100 0.961 . S
C1093 H1101 0.960 . S
C1094 C1092 1.381 . S
C1094 C1095 1.394 . S
C1094 H1102 0.930 . S
C1095 C1094 1.394 . S
C1095 C1096 1.383 . S
C1095 H1103 0.929 . S
C1096 C1095 1.383 . S
C1096 C1097 1.377 . S
C1097 H1081 0.930 . S
C1097 C1096 1.377 . S
C1097 C1098 1.379 . S
C1098 H1082 0.931 . S
C1098 C1092 1.383 . S
C1098 C1097 1.379 . S
H1099 C1093 0.959 . S
H1100 C1093 0.961 . S
H1101 C1093 0.960 . S
H1102 C1094 0.930 . S
H1103 C1095 0.929 . S
H1104 C1112 0.929 . S
H1105 C1114 0.930 . S
H1106 C1116 0.930 . S
H1107 C1119 0.929 . S
H1108 C1122 0.930 . S
H1109 C1124 0.960 . S
H1110 C1124 0.960 . S
H1111 C1124 0.960 . S
C1112 H1104 0.929 . S
C1112 C1113 1.377 . S
C1112 C1114 1.384 . S
C1113 C1112 1.377 . S
C1113 C1119 1.390 . S
C1114 H1105 0.930 . S
C1114 C1112 1.384 . S
C1114 C1115 1.372 . S
C1115 C1114 1.372 . S
C1115 C1116 1.400 . S
C1115 C1120 1.490 . S
C1116 H1106 0.930 . S
C1116 C1115 1.400 . S
C1116 C1119 1.386 . S
H1117 C1133 0.930 . S
H1118 C1134 0.931 . S
C1119 H1107 0.929 . S
C1119 C1113 1.390 . S
C1119 C1116 1.386 . S
C1120 C1115 1.490 . S
C1120 C1122 1.395 . S
C1120 C1123 1.403 . S
H1121 C1127 0.930 . S
C1122 H1108 0.930 . S
C1122 C1120 1.395 . S
C1122 C1125 1.403 . S
C1123 C1120 1.403 . S
C1123 C1124 1.524 . S
C1123 C1127 1.400 . S
C1124 H1109 0.960 . S
C1124 H1110 0.960 . S
C1124 H1111 0.960 . S
C1124 C1123 1.524 . S
C1125 C1122 1.403 . S
C1125 C1126 1.392 . S
C1125 C1129 1.495 . S
C1126 C1125 1.392 . S
C1126 C1127 1.385 . S
C1126 C1128 1.478 . S
C1127 H1121 0.930 . S
C1127 C1123 1.400 . S
C1127 C1126 1.385 . S
C1128 C1126 1.478 . S
C1128 C1130 1.381 . S
C1128 C1134 1.383 . S
C1129 C1125 1.495 . S
C1129 H1135 0.959 . S
C1129 H1136 0.961 . S
C1129 H1137 0.960 . S
C1130 C1128 1.381 . S
C1130 C1131 1.394 . S
C1130 H1138 0.930 . S
C1131 C1130 1.394 . S
C1131 C1132 1.383 . S
C1131 H1139 0.929 . S
C1132 C1131 1.383 . S
C1132 C1133 1.377 . S
C1133 H1117 0.930 . S
C1133 C1132 1.377 . S
C1133 C1134 1.379 . S
C1134 H1118 0.931 . S
C1134 C1128 1.383 . S
C1134 C1133 1.379 . S
H1135 C1129 0.959 . S
H1136 C1129 0.961 . S
H1137 C1129 0.960 . S
H1138 C1130 0.930 . S
H1139 C1131 0.929 . S
H1140 C1148 0.929 . S
H1141 C1150 0.930 . S
H1142 C1152 0.930 . S
H1143 C1155 0.929 . S
H1144 C1158 0.930 . S
H1145 C1160 0.960 . S
H1146 C1160 0.960 . S
H1147 C1160 0.960 . S
C1148 H1140 0.929 . S
C1148 C1149 1.377 . S
C1148 C1150 1.384 . S
C1149 C1148 1.377 . S
C1149 C1155 1.390 . S
C1150 H1141 0.930 . S
C1150 C1148 1.384 . S
C1150 C1151 1.372 . S
C1151 C1150 1.372 . S
C1151 C1152 1.400 . S
C1151 C1156 1.490 . S
C1152 H1142 0.930 . S
C1152 C1151 1.400 . S
C1152 C1155 1.386 . S
H1153 C1169 0.930 . S
H1154 C1170 0.931 . S
C1155 H1143 0.929 . S
C1155 C1149 1.390 . S
C1155 C1152 1.386 . S
C1156 C1151 1.490 . S
C1156 C1158 1.395 . S
C1156 C1159 1.403 . S
H1157 C1163 0.930 . S
C1158 H1144 0.930 . S
C1158 C1156 1.395 . S
C1158 C1161 1.403 . S
C1159 C1156 1.403 . S
C1159 C1160 1.524 . S
C1159 C1163 1.400 . S
C1160 H1145 0.960 . S
C1160 H1146 0.960 . S
C1160 H1147 0.960 . S
C1160 C1159 1.524 . S
C1161 C1158 1.403 . S
C1161 C1162 1.392 . S
C1161 C1165 1.495 . S
C1162 C1161 1.392 . S
C1162 C1163 1.385 . S
C1162 C1164 1.478 . S
C1163 H1157 0.930 . S
C1163 C1159 1.400 . S
C1163 C1162 1.385 . S
C1164 C1162 1.478 . S
C1164 C1166 1.381 . S
C1164 C1170 1.383 . S
C1165 C1161 1.495 . S
C1165 H1171 0.959 . S
C1165 H1172 0.961 . S
C1165 H1173 0.960 . S
C1166 C1164 1.381 . S
C1166 C1167 1.394 . S
C1166 H1174 0.930 . S
C1167 C1166 1.394 . S
C1167 C1168 1.383 . S
C1167 H1175 0.929 . S
C1168 C1167 1.383 . S
C1168 C1169 1.377 . S
C1169 H1153 0.930 . S
C1169 C1168 1.377 . S
C1169 C1170 1.379 . S
C1170 H1154 0.931 . S
C1170 C1164 1.383 . S
C1170 C1169 1.379 . S
H1171 C1165 0.959 . S
H1172 C1165 0.961 . S
H1173 C1165 0.960 . S
H1174 C1166 0.930 . S
H1175 C1167 0.929 . S
H1176 C1184 0.929 . S
H1177 C1186 0.930 . S
H1178 C1188 0.930 . S
H1179 C1191 0.929 . S
H1180 C1194 0.930 . S
H1181 C1196 0.960 . S
H1182 C1196 0.960 . S
H1183 C1196 0.960 . S
C1184 H1176 0.929 . S
C1184 C1185 1.377 . S
C1184 C1186 1.384 . S
C1185 C1184 1.377 . S
C1185 C1191 1.390 . S
C1186 H1177 0.930 . S
C1186 C1184 1.384 . S
C1186 C1187 1.372 . S
C1187 C1186 1.372 . S
C1187 C1188 1.400 . S
C1187 C1192 1.490 . S
C1188 H1178 0.930 . S
C1188 C1187 1.400 . S
C1188 C1191 1.386 . S
H1189 C1205 0.930 . S
H1190 C1206 0.931 . S
C1191 H1179 0.929 . S
C1191 C1185 1.390 . S
C1191 C1188 1.386 . S
C1192 C1187 1.490 . S
C1192 C1194 1.395 . S
C1192 C1195 1.403 . S
H1193 C1199 0.930 . S
C1194 H1180 0.930 . S
C1194 C1192 1.395 . S
C1194 C1197 1.403 . S
C1195 C1192 1.403 . S
C1195 C1196 1.524 . S
C1195 C1199 1.400 . S
C1196 H1181 0.960 . S
C1196 H1182 0.960 . S
C1196 H1183 0.960 . S
C1196 C1195 1.524 . S
C1197 C1194 1.403 . S
C1197 C1198 1.392 . S
C1197 C1201 1.495 . S
C1198 C1197 1.392 . S
C1198 C1199 1.385 . S
C1198 C1200 1.478 . S
C1199 H1193 0.930 . S
C1199 C1195 1.400 . S
C1199 C1198 1.385 . S
C1200 C1198 1.478 . S
C1200 C1202 1.381 . S
C1200 C1206 1.383 . S
C1201 C1197 1.495 . S
C1201 H1207 0.959 . S
C1201 H1208 0.961 . S
C1201 H1209 0.960 . S
C1202 C1200 1.381 . S
C1202 C1203 1.394 . S
C1202 H1210 0.930 . S
C1203 C1202 1.394 . S
C1203 C1204 1.383 . S
C1203 H1211 0.929 . S
C1204 C1203 1.383 . S
C1204 C1205 1.377 . S
C1205 H1189 0.930 . S
C1205 C1204 1.377 . S
C1205 C1206 1.379 . S
C1206 H1190 0.931 . S
C1206 C1200 1.383 . S
C1206 C1205 1.379 . S
H1207 C1201 0.959 . S
H1208 C1201 0.961 . S
H1209 C1201 0.960 . S
H1210 C1202 0.930 . S
H1211 C1203 0.929 . S
H1212 C1220 0.929 . S
H1213 C1222 0.930 . S
H1214 C1224 0.930 . S
H1215 C1227 0.929 . S
H1216 C1230 0.930 . S
H1217 C1232 0.960 . S
H1218 C1232 0.960 . S
H1219 C1232 0.960 . S
C1220 H1212 0.929 . S
C1220 C1221 1.377 . S
C1220 C1222 1.384 . S
C1221 C1220 1.377 . S
C1221 C1227 1.390 . S
C1222 H1213 0.930 . S
C1222 C1220 1.384 . S
C1222 C1223 1.372 . S
C1223 C1222 1.372 . S
C1223 C1224 1.400 . S
C1223 C1228 1.490 . S
C1224 H1214 0.930 . S
C1224 C1223 1.400 . S
C1224 C1227 1.386 . S
H1225 C1241 0.930 . S
H1226 C1242 0.931 . S
C1227 H1215 0.929 . S
C1227 C1221 1.390 . S
C1227 C1224 1.386 . S
C1228 C1223 1.490 . S
C1228 C1230 1.395 . S
C1228 C1231 1.403 . S
H1229 C1235 0.930 . S
C1230 H1216 0.930 . S
C1230 C1228 1.395 . S
C1230 C1233 1.403 . S
C1231 C1228 1.403 . S
C1231 C1232 1.524 . S
C1231 C1235 1.400 . S
C1232 H1217 0.960 . S
C1232 H1218 0.960 . S
C1232 H1219 0.960 . S
C1232 C1231 1.524 . S
C1233 C1230 1.403 . S
C1233 C1234 1.392 . S
C1233 C1237 1.495 . S
C1234 C1233 1.392 . S
C1234 C1235 1.385 . S
C1234 C1236 1.478 . S
C1235 H1229 0.930 . S
C1235 C1231 1.400 . S
C1235 C1234 1.385 . S
C1236 C1234 1.478 . S
C1236 C1238 1.381 . S
C1236 C1242 1.383 . S
C1237 C1233 1.495 . S
C1237 H1243 0.959 . S
C1237 H1244 0.961 . S
C1237 H1245 0.960 . S
C1238 C1236 1.381 . S
C1238 C1239 1.394 . S
C1238 H1246 0.930 . S
C1239 C1238 1.394 . S
C1239 C1240 1.383 . S
C1239 H1247 0.929 . S
C1240 C1239 1.383 . S
C1240 C1241 1.377 . S
C1241 H1225 0.930 . S
C1241 C1240 1.377 . S
C1241 C1242 1.379 . S
C1242 H1226 0.931 . S
C1242 C1236 1.383 . S
C1242 C1241 1.379 . S
H1243 C1237 0.959 . S
H1244 C1237 0.961 . S
H1245 C1237 0.960 . S
H1246 C1238 0.930 . S
H1247 C1239 0.929 . S
H1248 C1256 0.929 . S
H1249 C1258 0.930 . S
H1250 C1260 0.930 . S
H1251 C1263 0.929 . S
H1252 C1266 0.930 . S
H1253 C1268 0.960 . S
H1254 C1268 0.960 . S
H1255 C1268 0.960 . S
C1256 H1248 0.929 . S
C1256 C1257 1.377 . S
C1256 C1258 1.384 . S
C1257 C1256 1.377 . S
C1257 C1263 1.390 . S
C1258 H1249 0.930 . S
C1258 C1256 1.384 . S
C1258 C1259 1.372 . S
C1259 C1258 1.372 . S
C1259 C1260 1.400 . S
C1259 C1264 1.490 . S
C1260 H1250 0.930 . S
C1260 C1259 1.400 . S
C1260 C1263 1.386 . S
H1261 C1277 0.930 . S
H1262 C1278 0.931 . S
C1263 H1251 0.929 . S
C1263 C1257 1.390 . S
C1263 C1260 1.386 . S
C1264 C1259 1.490 . S
C1264 C1266 1.395 . S
C1264 C1267 1.403 . S
H1265 C1271 0.930 . S
C1266 H1252 0.930 . S
C1266 C1264 1.395 . S
C1266 C1269 1.403 . S
C1267 C1264 1.403 . S
C1267 C1268 1.524 . S
C1267 C1271 1.400 . S
C1268 H1253 0.960 . S
C1268 H1254 0.960 . S
C1268 H1255 0.960 . S
C1268 C1267 1.524 . S
C1269 C1266 1.403 . S
C1269 C1270 1.392 . S
C1269 C1273 1.495 . S
C1270 C1269 1.392 . S
C1270 C1271 1.385 . S
C1270 C1272 1.478 . S
C1271 H1265 0.930 . S
C1271 C1267 1.400 . S
C1271 C1270 1.385 . S
C1272 C1270 1.478 . S
C1272 C1274 1.381 . S
C1272 C1278 1.383 . S
C1273 C1269 1.495 . S
C1273 H1279 0.959 . S
C1273 H1280 0.961 . S
C1273 H1281 0.960 . S
C1274 C1272 1.381 . S
C1274 C1275 1.394 . S
C1274 H1282 0.930 . S
C1275 C1274 1.394 . S
C1275 C1276 1.383 . S
C1275 H1283 0.929 . S
C1276 C1275 1.383 . S
C1276 C1277 1.377 . S
C1277 H1261 0.930 . S
C1277 C1276 1.377 . S
C1277 C1278 1.379 . S
C1278 H1262 0.931 . S
C1278 C1272 1.383 . S
C1278 C1277 1.379 . S
H1279 C1273 0.959 . S
H1280 C1273 0.961 . S
H1281 C1273 0.960 . S
H1282 C1274 0.930 . S
H1283 C1275 0.929 . S
H1284 C1292 0.929 . S
H1285 C1294 0.930 . S
H1286 C1296 0.930 . S
H1287 C1299 0.929 . S
H1288 C1302 0.930 . S
H1289 C1304 0.960 . S
H1290 C1304 0.960 . S
H1291 C1304 0.960 . S
C1292 H1284 0.929 . S
C1292 C1293 1.377 . S
C1292 C1294 1.384 . S
C1293 C1292 1.377 . S
C1293 C1299 1.390 . S
C1294 H1285 0.930 . S
C1294 C1292 1.384 . S
C1294 C1295 1.372 . S
C1295 C1294 1.372 . S
C1295 C1296 1.400 . S
C1295 C1300 1.490 . S
C1296 H1286 0.930 . S
C1296 C1295 1.400 . S
C1296 C1299 1.386 . S
H1297 C1313 0.930 . S
H1298 C1314 0.931 . S
C1299 H1287 0.929 . S
C1299 C1293 1.390 . S
C1299 C1296 1.386 . S
C1300 C1295 1.490 . S
C1300 C1302 1.395 . S
C1300 C1303 1.403 . S
H1301 C1307 0.930 . S
C1302 H1288 0.930 . S
C1302 C1300 1.395 . S
C1302 C1305 1.403 1_554 S
C1303 C1300 1.403 . S
C1303 C1304 1.524 . S
C1303 C1307 1.400 . S
C1304 H1289 0.960 . S
C1304 H1290 0.960 . S
C1304 H1291 0.960 . S
C1304 C1303 1.524 . S
C1305 C1302 1.403 1_556 S
C1305 C1306 1.392 . S
C1305 C1309 1.495 . S
C1306 C1305 1.392 . S
C1306 C1307 1.385 1_556 S
C1306 C1308 1.478 . S
C1307 H1301 0.930 . S
C1307 C1303 1.400 . S
C1307 C1306 1.385 1_554 S
C1308 C1306 1.478 . S
C1308 C1310 1.381 . S
C1308 C1314 1.383 . S
C1309 C1305 1.495 . S
C1309 H1315 0.959 . S
C1309 H1316 0.961 . S
C1309 H1317 0.960 . S
C1310 C1308 1.381 . S
C1310 C1311 1.394 . S
C1310 H1318 0.930 . S
C1311 C1310 1.394 . S
C1311 C1312 1.383 . S
C1311 H1319 0.929 . S
C1312 C1311 1.383 . S
C1312 C1313 1.377 . S
C1313 H1297 0.930 . S
C1313 C1312 1.377 . S
C1313 C1314 1.379 . S
C1314 H1298 0.931 . S
C1314 C1308 1.383 . S
C1314 C1313 1.379 . S
H1315 C1309 0.959 . S
H1316 C1309 0.961 . S
H1317 C1309 0.960 . S
H1318 C1310 0.930 . S
H1319 C1311 0.929 . S
H1320 C1328 0.929 . S
H1321 C1330 0.930 . S
H1322 C1332 0.930 . S
H1323 C1335 0.929 . S
H1324 C1338 0.930 . S
H1325 C1340 0.960 . S
H1326 C1340 0.960 . S
H1327 C1340 0.960 . S
C1328 H1320 0.929 . S
C1328 C1329 1.377 . S
C1328 C1330 1.384 . S
C1329 C1328 1.377 . S
C1329 C1335 1.390 . S
C1330 H1321 0.930 . S
C1330 C1328 1.384 . S
C1330 C1331 1.372 . S
C1331 C1330 1.372 . S
C1331 C1332 1.400 . S
C1331 C1336 1.490 . S
C1332 H1322 0.930 . S
C1332 C1331 1.400 . S
C1332 C1335 1.386 . S
H1333 C1349 0.930 . S
H1334 C1350 0.931 . S
C1335 H1323 0.929 . S
C1335 C1329 1.390 . S
C1335 C1332 1.386 . S
C1336 C1331 1.490 . S
C1336 C1338 1.395 . S
C1336 C1339 1.403 . S
H1337 C1343 0.930 . S
C1338 H1324 0.930 . S
C1338 C1336 1.395 . S
C1338 C1341 1.403 . S
C1339 C1336 1.403 . S
C1339 C1340 1.524 . S
C1339 C1343 1.400 . S
C1340 H1325 0.960 . S
C1340 H1326 0.960 . S
C1340 H1327 0.960 . S
C1340 C1339 1.524 . S
C1341 C1338 1.403 . S
C1341 C1342 1.392 . S
C1341 C1345 1.495 . S
C1342 C1341 1.392 . S
C1342 C1343 1.385 . S
C1342 C1344 1.478 . S
C1343 H1337 0.930 . S
C1343 C1339 1.400 . S
C1343 C1342 1.385 . S
C1344 C1342 1.478 . S
C1344 C1346 1.381 . S
C1344 C1350 1.383 . S
C1345 C1341 1.495 . S
C1345 H1351 0.959 . S
C1345 H1352 0.961 . S
C1345 H1353 0.960 . S
C1346 C1344 1.381 . S
C1346 C1347 1.394 . S
C1346 H1354 0.930 . S
C1347 C1346 1.394 . S
C1347 C1348 1.383 . S
C1347 H1355 0.929 . S
C1348 C1347 1.383 . S
C1348 C1349 1.377 . S
C1349 H1333 0.930 . S
C1349 C1348 1.377 . S
C1349 C1350 1.379 . S
C1350 H1334 0.931 . S
C1350 C1344 1.383 . S
C1350 C1349 1.379 . S
H1351 C1345 0.959 . S
H1352 C1345 0.961 . S
H1353 C1345 0.960 . S
H1354 C1346 0.930 . S
H1355 C1347 0.929 . S
C520 C459 1.596 . S
C501 C15 1.576 . S
C537 C61 1.613 . S
C556 C279 1.634 . S
C573 C114 1.576 . S
C592 C326 1.583 . S
C609 C139 1.529 . S
C628 C362 1.526 . S
C664 C387 1.570 . S
C645 C185 1.565 . S
C681 C245 1.555 . S
C700 C423 1.567 . S
C717 C47 1.613 . S
C736 C315 1.626 . S
C753 C100 1.564 . S
C772 C351 1.563 . S
C789 C153 1.514 . S
C808 C398 1.480 . S
C844 C434 1.538 . S
C825 C199 1.562 . S
C880 C470 1.575 . S
C861 C231 1.575 . S
C916 C290 1.556 . S
C897 C1 1.595 . S
C933 C22 1.464 . S
C952 C314 1.462 . S
C969 C68 1.486 . S
C988 C350 1.474 . S
C1024 C388 1.484 . S
C1005 C107 1.487 . S
C1041 C146 1.486 . S
C1060 C424 1.487 . S
C1096 C460 1.459 . S
C1077 C192 1.458 . S
C1132 C280 1.425 . S
C1113 C252 1.439 . S
C1168 C458 1.451 . S
C1149 C54 1.465 . S
C1185 C93 1.462 . S
C1204 C278 1.451 . S
C1240 C316 1.461 . S
C1221 C160 1.462 . S
C1257 C206 1.481 . S
C1276 C352 1.472 . S
C1293 C238 1.510 . S
C1312 C386 1.488 . S
C1329 C8 1.491 . S
C1348 C422 1.481 . S
