# Generated by pormake.
# Topology anh, (6,3)-cn, num edge types: 1
# Building blocks:
#     Node 0, Type 0, BuildingBlock: BETFEN_clean_sbu_0, # of connection points: 6
#     Node 1, Type 0, BuildingBlock: BETFEN_clean_sbu_0, # of connection points: 6
#     Node 2, Type 0, BuildingBlock: BETFEN_clean_sbu_0, # of connection points: 6
#     Node 3, Type 1, BuildingBlock: QEWDON_clean_linker_0, # of connection points: 3
#     Node 4, Type 1, BuildingBlock: QEWDON_clean_linker_0, # of connection points: 3
#     Node 5, Type 1, BuildingBlock: QEWDON_clean_linker_0, # of connection points: 3
#     Node 6, Type 1, BuildingBlock: QEWDON_clean_linker_0, # of connection points: 3
#     Node 7, Type 1, BuildingBlock: QEWDON_clean_linker_0, # of connection points: 3
#     Node 8, Type 1, BuildingBlock: QEWDON_clean_linker_0, # of connection points: 3
#     Edge 9, Type (0, 1), BuildingBlock: AJUNOK_clean_linker_0, # of connection points: 2
#     Edge 10, Type (0, 1), BuildingBlock: AJUNOK_clean_linker_0, # of connection points: 2
#     Edge 11, Type (0, 1), BuildingBlock: AJUNOK_clean_linker_0, # of connection points: 2
#     Edge 12, Type (0, 1), BuildingBlock: AJUNOK_clean_linker_0, # of connection points: 2
#     Edge 13, Type (0, 1), BuildingBlock: AJUNOK_clean_linker_0, # of connection points: 2
#     Edge 14, Type (0, 1), BuildingBlock: AJUNOK_clean_linker_0, # of connection points: 2
#     Edge 15, Type (0, 1), BuildingBlock: AJUNOK_clean_linker_0, # of connection points: 2
#     Edge 16, Type (0, 1), BuildingBlock: AJUNOK_clean_linker_0, # of connection points: 2
#     Edge 17, Type (0, 1), BuildingBlock: AJUNOK_clean_linker_0, # of connection points: 2
#     Edge 18, Type (0, 1), BuildingBlock: AJUNOK_clean_linker_0, # of connection points: 2
#     Edge 19, Type (0, 1), BuildingBlock: AJUNOK_clean_linker_0, # of connection points: 2
#     Edge 20, Type (0, 1), BuildingBlock: AJUNOK_clean_linker_0, # of connection points: 2
#     Edge 21, Type (0, 1), BuildingBlock: AJUNOK_clean_linker_0, # of connection points: 2
#     Edge 22, Type (0, 1), BuildingBlock: AJUNOK_clean_linker_0, # of connection points: 2
#     Edge 23, Type (0, 1), BuildingBlock: AJUNOK_clean_linker_0, # of connection points: 2
#     Edge 24, Type (0, 1), BuildingBlock: AJUNOK_clean_linker_0, # of connection points: 2
#     Edge 25, Type (0, 1), BuildingBlock: AJUNOK_clean_linker_0, # of connection points: 2
#     Edge 26, Type (0, 1), BuildingBlock: AJUNOK_clean_linker_0, # of connection points: 2
# Relax obj value: 0.191
# Max RMSD: 0.196
# Mean RMSD: 0.130
data_MOF--net-anh--node1-BETFEN_clean_sbu_0--node2-QEWDON_clean_linker_0--edge1-AJUNOK_clean_linker_0
_symmetry_space_group_name_H-M    P1
_symmetry_Int_Tables_number       1
_symmetry_cell_setting            triclinic
loop_
_symmetry_equiv_pos_as_xyz
'x, y, z'
_cell_length_a     23.308762
_cell_length_b     24.142334
_cell_length_c     35.724947
_cell_angle_alpha  94.716712
_cell_angle_beta   94.890674
_cell_angle_gamma 97.685354
loop_
_atom_site_label
_atom_site_type_symbol
_atom_site_fract_x
_atom_site_fract_y
_atom_site_fract_z
_atom_type_partial_charge
Pr0 Pr 0.1078 0.5987 0.15236 0.0
Pr1 Pr 0.12597 0.72609 0.12717 0.0
C2 C 0.07777 0.51452 0.19453 0.0
C3 C 1.02422 0.47486 0.19598 0.0
C4 C 0.9947 0.44468 0.16305 0.0
C5 C 0.9401 0.41319 0.16417 0.0
C6 C 0.91385 0.41176 0.19812 0.0
C7 C 0.94392 0.4409 0.23117 0.0
C8 C 0.9988 0.47191 0.23014 0.0
C9 C 0.09297 0.59859 0.0732 0.0
C10 C 0.99276 0.66399 0.128 0.0
C11 C 0.16107 0.82437 0.10014 0.0
C12 C 0.21283 0.86736 0.10929 0.0
C13 C 0.2058 0.92177 0.12334 0.0
C14 C 0.25419 0.96096 0.13702 0.0
C15 C 0.31066 0.94658 0.13676 0.0
C16 C 0.31784 0.893 0.1209 0.0
C17 C 0.26937 0.85363 0.1075 0.0
C18 C 0.11447 0.71393 0.20303 0.0
C19 C 0.24275 0.65745 0.14405 0.0
O20 O 0.07359 0.56703 0.20497 0.0
O21 O 0.10723 0.50826 0.16506 0.0
O22 O 0.10419 0.63946 0.09782 0.0
O23 O 0.08823 0.5524 0.08981 0.0
O24 O 1.02632 0.69941 0.10988 0.0
O25 O 1.01493 0.62843 0.14963 0.0
O26 O 0.16881 0.77587 0.08352 0.0
O27 O 0.12553 0.81957 0.1265 0.0
O28 O 0.14336 0.68578 0.18226 0.0
O29 O 0.09329 0.75256 0.18526 0.0
O30 O 0.21003 0.61459 0.15626 0.0
O31 O 0.22096 0.70138 0.1316 0.0
H32 H 1.01275 0.44697 0.13617 0.0
H33 H 0.91726 0.39197 0.13816 0.0
H34 H 0.92439 0.4406 0.25762 0.0
H35 H 1.0205 0.49532 0.25579 0.0
H36 H 0.16268 0.93335 0.12503 0.0
H37 H 0.24726 1.00189 0.14909 0.0
H38 H 0.36085 0.88119 0.11939 0.0
H39 H 0.27625 0.81208 0.09671 0.0
Pr40 Pr 0.62211 0.18117 0.50187 0.0
Pr41 Pr 0.49399 0.16427 0.51006 0.0
C42 C 0.72828 0.21628 0.4811 0.0
C43 C 0.7586 0.27055 0.47162 0.0
C44 C 0.80429 0.30024 0.49661 0.0
C45 C 0.82979 0.35383 0.48983 0.0
C46 C 0.81031 0.37878 0.45781 0.0
C47 C 0.76649 0.34799 0.43188 0.0
C48 C 0.74069 0.29457 0.43877 0.0
C49 C 0.59357 0.16521 0.5745 0.0
C50 C 0.55395 0.29733 0.51645 0.0
C51 C 0.386 0.12577 0.52606 0.0
C52 C 0.34812 1.0731 0.51246 0.0
C53 C 0.3595 1.04209 0.47961 0.0
C54 C 0.32429 0.9918 0.46638 0.0
C55 C 0.27751 0.97121 0.48602 0.0
C56 C 0.26688 1.00163 0.5194 0.0
C57 C 0.30202 1.05239 0.53254 0.0
C58 C 0.52067 0.17467 0.43624 0.0
C59 C 0.56465 1.04773 0.50295 0.0
O60 O 0.685 0.19116 0.45725 0.0
O61 O 0.71788 0.21346 0.51637 0.0
O62 O 0.57078 0.19652 0.5528 0.0
O63 O 0.63564 0.14359 0.55974 0.0
O64 O 0.51072 0.26279 0.52754 0.0
O65 O 0.59743 0.27561 0.5015 0.0
O66 O 0.43264 0.12018 0.54763 0.0
O67 O 0.39638 0.16092 0.50066 0.0
O68 O 0.54488 0.14541 0.45883 0.0
O69 O 0.47993 0.19801 0.45109 0.0
O70 O 0.61139 1.08102 0.49509 0.0
O71 O 0.51725 1.06997 0.51067 0.0
H72 H 0.81926 0.28262 0.52198 0.0
H73 H 0.86349 0.37651 0.51031 0.0
H74 H 0.7516 0.3655 0.40645 0.0
H75 H 0.70597 0.27271 0.41868 0.0
H76 H 0.39556 1.05695 0.46408 0.0
H77 H 0.33355 0.96892 0.44073 0.0
H78 H 0.23071 0.98677 0.53481 0.0
H79 H 0.29309 1.07555 0.55817 0.0
Pr80 Pr 0.60472 0.58381 0.81107 0.0
Pr81 Pr 0.62025 0.70506 0.83842 0.0
C82 C 0.58656 0.47782 0.7796 0.0
C83 C 0.61223 0.42864 0.7905 0.0
C84 C 0.63225 0.42513 0.82839 0.0
C85 C 0.64837 0.3751 0.83989 0.0
C86 C 0.64487 0.32823 0.81353 0.0
C87 C 0.63071 0.33382 0.77502 0.0
C88 C 0.6142 0.38373 0.76361 0.0
C89 C 0.62079 0.60278 0.88946 0.0
C90 C 0.74005 0.64375 0.83083 0.0
C91 C 0.63405 0.80675 0.87718 0.0
C92 C 0.59036 0.83554 0.89518 0.0
C93 C 0.58837 0.89224 0.89047 0.0
C94 C 0.53749 0.91528 0.89578 0.0
C95 C 0.48796 0.88176 0.90579 0.0
C96 C 0.49276 0.8273 0.91531 0.0
C97 C 0.54338 0.80405 0.90958 0.0
C98 C 0.6032 0.68338 0.7597 0.0
C99 C 0.48711 0.64359 0.82144 0.0
O100 O 0.62171 0.51697 0.76667 0.0
O101 O 0.55265 0.49743 0.80325 0.0
O102 O 0.58881 0.6279 0.86843 0.0
O103 O 0.64471 0.56602 0.87015 0.0
O104 O 0.71821 0.68845 0.844 0.0
O105 O 0.70608 0.59878 0.81448 0.0
O106 O 0.64818 0.76223 0.89223 0.0
O107 O 0.62553 0.79944 0.84034 0.0
O108 O 0.63599 0.66015 0.78126 0.0
O109 O 0.57937 0.72142 0.77815 0.0
O110 O 0.50986 0.60809 0.79881 0.0
O111 O 0.52143 0.68086 0.84513 0.0
H112 H 0.63187 0.45978 0.84953 0.0
H113 H 0.65866 0.37154 0.86967 0.0
H114 H 0.62685 0.2979 0.75421 0.0
H115 H 0.59969 0.38607 0.73421 0.0
H116 H 0.62394 0.91712 0.87918 0.0
H117 H 0.53497 0.95741 0.88802 0.0
H118 H 0.45548 0.80102 0.92353 0.0
H119 H 0.5435 0.76004 0.91311 0.0
H120 H 0.59459 0.23939 0.2722 0.0
C121 C 0.56805 0.20363 0.25604 0.0
C122 C 0.53816 0.1617 0.27494 0.0
C123 C 0.5611 0.20118 0.21649 0.0
H124 H 0.47727 1.08548 0.26876 0.0
C125 C 0.50233 0.11637 0.254 0.0
C126 C 0.49515 0.11317 0.21438 0.0
C127 C 0.52486 0.15576 0.19588 0.0
C128 C 0.5874 0.24849 0.19686 0.0
H129 H 0.51907 0.15404 0.16535 0.0
C130 C 0.64702 0.26924 0.20391 0.0
C131 C 0.67097 0.31534 0.18594 0.0
C132 C 0.55218 0.27415 0.17156 0.0
H133 H 0.50606 0.25915 0.16592 0.0
C134 C 0.57588 0.32023 0.15398 0.0
H135 H 0.67467 0.24961 0.22322 0.0
C136 C 0.63494 0.34096 0.16123 0.0
H137 H 0.65272 0.37658 0.14718 0.0
H138 H 0.54838 0.34 0.13475 0.0
H139 H 0.56497 0.70518 0.58298 0.0
C140 C 0.56776 0.66293 0.57153 0.0
C141 C 0.5752 0.62243 0.59704 0.0
C142 C 0.56112 0.64936 0.53214 0.0
H143 H 0.57834 0.53475 0.60307 0.0
C144 C 0.57315 0.56579 0.58322 0.0
C145 C 0.56454 0.54812 0.5444 0.0
C146 C 0.56028 0.5907 0.51889 0.0
C147 C 0.55107 0.69613 0.50609 0.0
H148 H 0.55531 0.57735 0.48905 0.0
C149 C 0.56416 0.75611 0.51759 0.0
C150 C 0.54971 0.79744 0.49283 0.0
C151 C 0.5245 0.68063 0.46914 0.0
H152 H 0.51172 0.63713 0.45862 0.0
C153 C 0.51164 0.72075 0.4449 0.0
H154 H 0.58516 0.77114 0.54537 0.0
C155 C 0.52371 0.77798 0.45652 0.0
H156 H 0.51217 0.80753 0.43689 0.0
H157 H 0.49102 0.70715 0.41673 0.0
H158 H 0.15065 0.64335 0.90204 0.0
C159 C 0.10589 0.63988 0.8901 0.0
C160 C 0.06122 0.62466 0.91301 0.0
C161 C 0.09281 0.65163 0.85248 0.0
H162 H 0.96871 0.61264 0.91684 0.0
C163 C 1.00302 0.62244 0.89871 0.0
C164 C 0.98859 0.63564 0.86204 0.0
C165 C 1.03331 0.64918 0.83884 0.0
C166 C 0.14069 0.66869 0.82803 0.0
H167 H 1.02112 0.65741 0.81013 0.0
C168 C 0.19615 0.6501 0.83253 0.0
C169 C 0.24008 0.6669 0.80898 0.0
C170 C 0.13122 0.70508 0.79992 0.0
H171 H 0.09103 0.72269 0.79631 0.0
C172 C 0.17388 0.72057 0.77624 0.0
H173 H 0.20515 0.62209 0.85374 0.0
C174 C 0.22754 0.70142 0.78047 0.0
H175 H 0.26013 0.71521 0.76207 0.0
H176 H 0.16554 0.74836 0.75474 0.0
H177 H 1.00392 0.65957 0.36334 0.0
C178 C 1.03832 0.68889 0.37937 0.0
C179 C 0.08672 0.71068 0.36153 0.0
C180 C 1.0328 0.70738 0.41716 0.0
H181 H 0.16597 0.76895 0.36733 0.0
C182 C 0.12973 0.75083 0.38161 0.0
C183 C 0.12419 0.77104 0.41887 0.0
C184 C 0.07621 0.74835 0.43667 0.0
C185 C 0.97966 0.6879 0.43546 0.0
H186 H 0.07132 0.76441 0.46527 0.0
C187 C 0.95545 0.63073 0.43209 0.0
C188 C 0.90587 0.61288 0.4504 0.0
C189 C 0.95299 0.727 0.45685 0.0
H190 H 0.96967 0.77136 0.45933 0.0
C191 C 0.90432 0.70946 0.4752 0.0
H192 H 0.97546 0.60018 0.41564 0.0
C193 C 0.8812 0.65285 0.47235 0.0
H194 H 0.8444 0.64027 0.48784 0.0
H195 H 0.88465 0.73988 0.49194 0.0
H196 H 0.42326 1.0494 0.7 0.0
C197 C 0.45679 1.06778 0.72204 0.0
C198 C 0.50926 1.09602 0.71237 0.0
C199 C 0.4483 1.06331 0.76031 0.0
H200 H 0.5898 0.14684 0.73228 0.0
C201 C 0.55182 0.12149 0.74064 0.0
C202 C 0.54354 0.11941 0.77893 0.0
C203 C 0.49272 1.08804 0.78839 0.0
C204 C 0.39278 1.03534 0.77202 0.0
H205 H 0.48637 1.08545 0.81787 0.0
C206 C 0.39451 1.00429 0.80337 0.0
C207 C 0.34361 0.98288 0.81846 0.0
C208 C 0.33825 1.04231 0.75437 0.0
H209 H 0.33522 1.06661 0.7303 0.0
C210 C 0.28693 1.01922 0.76859 0.0
H211 H 0.4361 0.99655 0.81646 0.0
C212 C 0.28945 0.98962 0.80072 0.0
H213 H 0.24967 0.97217 0.81159 0.0
H214 H 0.24515 1.02487 0.75493 0.0
H215 H 0.57754 0.65754 0.0668 0.0
C216 C 0.62229 0.65754 0.07767 0.0
C217 C 0.66236 0.64558 0.05198 0.0
C218 C 0.64004 0.66964 0.11668 0.0
H219 H 0.75243 0.64208 0.04453 0.0
C220 C 0.72126 0.64911 0.06469 0.0
C221 C 0.74079 0.66132 0.10286 0.0
C222 C 0.69996 0.66985 0.12896 0.0
C223 C 0.5969 0.68396 0.14408 0.0
H224 H 0.71559 0.67737 0.15855 0.0
C225 C 0.53584 0.66633 0.13637 0.0
C226 C 0.49645 0.68183 0.16208 0.0
C227 C 0.61657 0.7176 0.17813 0.0
H228 H 0.66189 0.73458 0.18497 0.0
C229 C 0.57787 0.73158 0.20386 0.0
H230 H 0.5184 0.64022 0.11082 0.0
C231 C 0.51844 0.7138 0.19603 0.0
H232 H 0.48927 0.7265 0.21614 0.0
H233 H 0.59404 0.75735 0.22982 0.0
C234 C 0.33697 0.63482 0.17504 0.0
C235 C 0.30708 0.65803 0.14559 0.0
C236 C 0.39819 0.64036 0.17921 0.0
C237 C 0.43196 0.66808 0.15357 0.0
H238 H 0.31309 0.61439 0.19603 0.0
H239 H 0.41943 0.62413 0.20329 0.0
S240 S 0.37498 0.73217 0.06983 0.0
N241 N 0.31615 0.70701 0.08907 0.0
N242 N 0.43069 0.71663 0.09675 0.0
C243 C 0.40254 0.68911 0.12305 0.0
C244 C 0.34032 0.68434 0.11913 0.0
C245 C 0.89449 0.45545 0.45745 0.0
C246 C 0.83406 0.43767 0.45256 0.0
C247 C 0.91755 0.51174 0.45525 0.0
C248 C 0.88103 0.55246 0.44828 0.0
H249 H 0.92419 0.42573 0.4635 0.0
H250 H 0.96421 0.52378 0.46034 0.0
S251 S 0.7198 0.52725 0.43192 0.0
N252 N 0.73821 0.46526 0.43982 0.0
N253 N 0.78154 0.5704 0.4344 0.0
C254 C 0.82062 0.53486 0.44217 0.0
C255 C 0.79716 0.47768 0.44458 0.0
C256 C 0.42096 0.95405 0.90648 0.0
C257 C 0.43014 0.89872 0.89613 0.0
C258 C 0.38138 0.97974 0.8845 0.0
C259 C 0.35061 0.95086 0.85145 0.0
H260 H 0.44958 0.97965 0.9287 0.0
H261 H 0.38157 1.0246 0.89005 0.0
S262 S 0.34838 0.80184 0.81782 0.0
N263 N 0.39633 0.8127 0.85533 0.0
N264 N 0.32233 0.86164 0.81415 0.0
C265 C 0.35192 0.89317 0.84479 0.0
C266 C 0.39204 0.86685 0.8671 0.0
C267 C 0.90394 0.70197 0.10142 0.0
C268 C 0.92827 0.6646 0.12435 0.0
C269 C 0.84357 0.70233 0.09626 0.0
C270 C 0.80459 0.66572 0.11398 0.0
H271 H 0.93155 0.73069 0.08664 0.0
H272 H 0.82704 0.73078 0.07745 0.0
S273 S 0.84456 0.56039 0.17759 0.0
N274 N 0.90749 0.59049 0.16581 0.0
N275 N 0.79425 0.59164 0.1558 0.0
C276 C 0.82796 0.62919 0.13778 0.0
C277 C 0.8896 0.62847 0.14298 0.0
C278 C 0.21333 0.91592 0.43278 0.0
C279 C 0.23843 0.91959 0.47023 0.0
C280 C 0.17685 0.86766 0.41659 0.0
C281 C 0.16437 0.82084 0.43708 0.0
H282 H 0.22146 0.95099 0.41595 0.0
H283 H 0.15758 0.86741 0.38788 0.0
S284 S 0.22192 0.80828 0.53562 0.0
N285 N 0.24982 0.87211 0.5272 0.0
N286 N 0.1817 0.78062 0.49654 0.0
C287 C 0.18952 0.8238 0.47455 0.0
C288 C 0.22646 0.87333 0.49117 0.0
C289 C 0.66767 0.23063 0.80864 0.0
C290 C 0.63787 0.27112 0.82577 0.0
C291 C 0.64064 0.17507 0.80038 0.0
C292 C 0.58205 0.15991 0.8071 0.0
H293 H 0.70824 0.24347 0.79692 0.0
H294 H 0.66214 0.14664 0.7832 0.0
S295 S 0.4963 0.24617 0.86564 0.0
N296 N 0.55658 0.2883 0.8611 0.0
N297 N 0.50353 0.18542 0.84316 0.0
C298 C 0.55749 0.19707 0.83153 0.0
C299 C 0.58614 0.25284 0.84129 0.0
C300 C 0.51349 0.94862 0.51075 0.0
C301 C 0.56426 0.98395 0.5035 0.0
C302 C 0.51066 0.88924 0.51008 0.0
C303 C 0.55863 0.86112 0.5028 0.0
H304 H 0.4746 0.96677 0.5161 0.0
H305 H 0.46953 0.86475 0.514 0.0
S306 S 0.70247 0.93193 0.48226 0.0
N307 N 0.66448 0.98434 0.48916 0.0
N308 N 0.65871 0.87411 0.4879 0.0
C309 C 0.60992 0.89571 0.49618 0.0
C310 C 0.61289 0.95629 0.49665 0.0
C311 C 0.82552 0.59126 0.83963 0.0
C312 C 0.80408 0.64265 0.83583 0.0
C313 C 0.8854 0.58903 0.84681 0.0
C314 C 0.92642 0.63786 0.84944 0.0
H315 H 0.79566 0.55254 0.83836 0.0
H316 H 0.89973 0.54892 0.85102 0.0
S317 S 0.89396 0.78243 0.83971 0.0
N318 N 0.8294 0.7434 0.8342 0.0
N319 N 0.94186 0.73878 0.8467 0.0
C320 C 0.90594 0.68919 0.84449 0.0
C321 C 0.84486 0.6917 0.83796 0.0
C322 C 0.36613 1.0437 0.14695 0.0
C323 C 0.36131 0.98705 0.15442 0.0
C324 C 0.41058 1.08374 0.16563 0.0
C325 C 0.45196 1.06875 0.1926 0.0
H326 H 0.33475 1.05739 0.12685 0.0
H327 H 0.41136 0.12712 0.15975 0.0
S328 S 0.46038 0.92557 0.2212 0.0
N329 N 0.4026 0.91773 0.1901 0.0
N330 N 0.48716 0.99284 0.22441 0.0
C331 C 0.44873 1.01198 0.19955 0.0
C332 C 0.40331 0.97117 0.18059 0.0
C333 C 0.59595 0.39958 0.5061 0.0
C334 C 0.55417 0.36148 0.52134 0.0
C335 C 0.59755 0.45925 0.51151 0.0
C336 C 0.55766 0.48455 0.53271 0.0
H337 H 0.62849 0.38326 0.49012 0.0
H338 H 0.6317 0.48578 0.50009 0.0
S339 S 0.4383 0.40563 0.57798 0.0
N340 N 0.47069 0.35576 0.55796 0.0
N341 N 0.4741 0.46555 0.5681 0.0
C342 C 0.51522 0.44698 0.54742 0.0
C343 C 0.51332 0.38657 0.54178 0.0
C344 C 0.38727 0.62718 0.78589 0.0
C345 C 0.42276 0.64299 0.81998 0.0
C346 C 0.32754 0.63211 0.78308 0.0
C347 C 0.30043 0.65192 0.81441 0.0
H348 H 0.40622 0.61324 0.76075 0.0
H349 H 0.30263 0.62187 0.7558 0.0
S350 S 0.37255 0.69286 0.91114 0.0
N351 N 0.4253 0.6753 0.88651 0.0
N352 N 0.31331 0.68372 0.88122 0.0
C353 C 0.33475 0.66474 0.84914 0.0
C354 C 0.39577 0.66067 0.85188 0.0
C355 C 0.81094 0.41528 0.2115 0.0
C356 C 0.85318 0.38409 0.19824 0.0
C357 C 0.75207 0.39228 0.20817 0.0
C358 C 0.7337 0.33688 0.19234 0.0
H359 H 0.82321 0.45842 0.22332 0.0
H360 H 0.72054 0.4182 0.21754 0.0
S361 S 0.82738 0.23633 0.1561 0.0
N362 N 0.87292 0.29418 0.17033 0.0
N363 N 0.76215 0.25051 0.16489 0.0
C364 C 0.77563 0.30447 0.18043 0.0
C365 C 0.83545 0.3282 0.18316 0.0
C366 C 0.111 0.65239 0.01749 0.0
C367 C 0.08781 0.60262 0.03198 0.0
C368 C 0.1048 0.65824 0.97865 0.0
C369 C 0.07441 0.61477 0.95303 0.0
H370 H 0.13381 0.68723 0.03631 0.0
H371 H 0.12207 0.69775 0.96875 0.0
S372 S 1.0071 0.47539 0.97623 0.0
N373 N 1.03517 0.50832 0.01742 0.0
N374 N 1.02246 0.51979 0.9445 0.0
C375 C 0.052 0.56442 0.96702 0.0
C376 C 0.05903 0.55817 0.00648 0.0
C377 C 0.5533 0.13005 0.37742 0.0
C378 C 0.52965 0.17433 0.39579 0.0
C379 C 0.55709 0.12663 0.33829 0.0
C380 C 0.53875 0.16812 0.31652 0.0
H381 H 0.56712 1.09684 0.39314 0.0
H382 H 0.5738 1.09102 0.32487 0.0
S383 S 0.47678 0.29402 0.35136 0.0
N384 N 0.48959 0.26142 0.38942 0.0
N385 N 0.49778 0.25542 0.31613 0.0
C386 C 0.51695 0.21349 0.33475 0.0
C387 C 0.51216 0.2165 0.37435 0.0
C388 C 0.55823 0.62151 0.70253 0.0
C389 C 0.59516 0.67001 0.7184 0.0
C390 C 0.55186 0.60655 0.66338 0.0
C391 C 0.58288 0.63918 0.63868 0.0
H392 H 0.53402 0.59498 0.72051 0.0
H393 H 0.52206 0.56937 0.65237 0.0
S394 S 0.68865 0.76816 0.66739 0.0
N395 N 0.66449 0.74962 0.70734 0.0
N396 N 0.65453 0.72097 0.63397 0.0
C397 C 0.62074 0.68746 0.65464 0.0
C398 C 0.62648 0.70293 0.69443 0.0
C399 C 0.58779 0.10002 0.62504 0.0
C400 C 0.56716 0.14487 0.60786 0.0
C401 C 0.56482 1.0807 0.6573 0.0
C402 C 0.51997 0.10507 0.67317 0.0
H403 H 0.62297 1.08053 0.6141 0.0
H404 H 0.58413 1.04829 0.67102 0.0
S405 S 0.44923 0.22207 0.63853 0.0
N406 N 0.49798 0.21203 0.60863 0.0
N407 N 0.4547 0.17507 0.66926 0.0
C408 C 0.49734 0.14834 0.65556 0.0
C409 C 0.52102 0.16846 0.62288 0.0
C410 C 0.60552 0.6555 0.95034 0.0
C411 C 0.62594 0.6099 0.93115 0.0
C412 C 0.61469 0.66559 -0.01018 0.0
C413 C 0.64423 0.63004 0.0113 0.0
H414 H 0.58398 0.68453 0.93469 0.0
H415 H 0.60081 0.70264 0.00343 0.0
S416 S 0.6984 0.50016 0.97522 0.0
N417 N 0.67183 0.5258 0.93704 0.0
N418 N 0.68792 0.5441 0.01107 0.0
C419 C 0.66157 0.5824 -0.00738 0.0
C420 C 0.65275 0.57248 0.95257 0.0
C421 C 0.05604 0.72367 0.25767 0.0
C422 C 0.10416 0.7043 0.24234 0.0
C423 C 1.04813 0.72113 0.29595 0.0
C424 C 0.08854 0.69991 0.32033 0.0
H425 H 1.02506 0.74244 0.24018 0.0
H426 H 1.01203 0.73897 0.30699 0.0
S427 S 0.21925 0.6399 0.29376 0.0
N428 N 0.19031 0.65915 0.25388 0.0
N429 N 0.17634 0.65608 0.3263 0.0
C430 C 0.13539 0.67809 0.3051 0.0
C431 C 0.14291 0.67974 0.26592 0.0
loop_
_geom_bond_atom_site_label_1
_geom_bond_atom_site_label_2
_geom_bond_distance
_geom_bond_site_symmetry_2
_ccdc_geom_bond_type
Pr0 C2 2.880 . S
Pr0 O20 2.562 . S
Pr0 O21 2.490 . S
Pr0 O22 2.695 1_655 S
Pr0 O23 2.512 . S
Pr0 O25 2.437 . S
Pr0 O28 2.436 1_655 S
Pr0 O30 2.438 1_655 S
Pr1 C11 2.880 . S
Pr1 O22 2.436 . S
Pr1 O24 2.438 1_455 S
Pr1 O26 2.562 . S
Pr1 O27 2.490 . S
Pr1 O28 2.695 . S
Pr1 O29 2.512 . S
Pr1 O31 2.437 . S
C2 Pr0 2.880 . S
C2 C3 1.491 . S
C2 O20 1.254 . S
C2 O21 1.225 . S
C3 C2 1.491 . S
C3 C4 1.392 . S
C3 C8 1.356 . S
C4 C3 1.392 . S
C4 C5 1.368 . S
C4 H32 0.929 . S
C5 C4 1.368 . S
C5 C6 1.386 . S
C5 H33 0.929 . S
C6 C5 1.386 . S
C6 C7 1.373 . S
C7 C6 1.373 . S
C7 C8 1.409 . S
C7 H34 0.931 . S
C8 C3 1.356 . S
C8 C7 1.409 . S
C8 H35 0.930 . S
C9 O22 1.270 . S
C9 O23 1.248 1_455 S
C10 O24 1.267 . S
C10 O25 1.278 . S
C11 Pr1 2.880 . S
C11 C12 1.491 . S
C11 O26 1.254 . S
C11 O27 1.225 . S
C12 C11 1.491 . S
C12 C13 1.392 . S
C12 C17 1.356 . S
C13 C12 1.392 . S
C13 C14 1.368 . S
C13 H36 0.929 . S
C14 C13 1.368 . S
C14 C15 1.386 . S
C14 H37 0.929 . S
C15 C14 1.386 . S
C15 C16 1.373 . S
C16 C15 1.373 . S
C16 C17 1.409 . S
C16 H38 0.931 . S
C17 C12 1.356 . S
C17 C16 1.409 . S
C17 H39 0.930 . S
C18 O28 1.270 . S
C18 O29 1.248 . S
C19 O30 1.267 . S
C19 O31 1.278 . S
O20 Pr0 2.562 . S
O20 C2 1.254 . S
O21 Pr0 2.490 . S
O21 C2 1.225 . S
O22 Pr0 2.695 1_455 S
O22 Pr1 2.436 . S
O22 C9 1.270 . S
O23 Pr0 2.512 . S
O23 C9 1.248 1_655 S
O24 Pr1 2.438 1_655 S
O24 C10 1.267 . S
O25 Pr0 2.437 . S
O25 C10 1.278 . S
O26 Pr1 2.562 . S
O26 C11 1.254 . S
O27 Pr1 2.490 . S
O27 C11 1.225 . S
O28 Pr0 2.436 1_455 S
O28 Pr1 2.695 . S
O28 C18 1.270 . S
O29 Pr1 2.512 . S
O29 C18 1.248 . S
O30 Pr0 2.438 1_455 S
O30 C19 1.267 . S
O31 Pr1 2.437 . S
O31 C19 1.278 . S
H32 C4 0.929 . S
H33 C5 0.929 . S
H34 C7 0.931 . S
H35 C8 0.930 . S
H36 C13 0.929 . S
H37 C14 0.929 . S
H38 C16 0.931 . S
H39 C17 0.930 . S
Pr40 C42 2.880 . S
Pr40 O60 2.562 . S
Pr40 O61 2.490 . S
Pr40 O62 2.695 . S
Pr40 O63 2.512 . S
Pr40 O65 2.437 . S
Pr40 O68 2.436 . S
Pr40 O70 2.438 1_545 S
Pr41 C51 2.880 1_545 S
Pr41 O62 2.436 . S
Pr41 O64 2.438 . S
Pr41 O66 2.562 1_545 S
Pr41 O67 2.490 1_545 S
Pr41 O68 2.695 . S
Pr41 O69 2.512 . S
Pr41 O71 2.437 1_545 S
C42 Pr40 2.880 . S
C42 C43 1.491 . S
C42 O60 1.254 . S
C42 O61 1.225 . S
C43 C42 1.491 . S
C43 C44 1.392 . S
C43 C48 1.356 . S
C44 C43 1.392 . S
C44 C45 1.368 . S
C44 H72 0.929 . S
C45 C44 1.368 . S
C45 C46 1.386 . S
C45 H73 0.929 . S
C46 C45 1.386 . S
C46 C47 1.373 . S
C47 C46 1.373 . S
C47 C48 1.409 . S
C47 H74 0.931 . S
C48 C43 1.356 . S
C48 C47 1.409 . S
C48 H75 0.930 . S
C49 O62 1.270 . S
C49 O63 1.248 . S
C50 O64 1.267 . S
C50 O65 1.278 . S
C51 Pr41 2.880 1_565 S
C51 C52 1.491 . S
C51 O66 1.254 . S
C51 O67 1.225 . S
C52 C51 1.491 . S
C52 C53 1.392 . S
C52 C57 1.356 . S
C53 C52 1.392 . S
C53 C54 1.368 . S
C53 H76 0.929 . S
C54 C53 1.368 . S
C54 C55 1.386 . S
C54 H77 0.929 . S
C55 C54 1.386 . S
C55 C56 1.373 . S
C56 C55 1.373 . S
C56 C57 1.409 . S
C56 H78 0.931 . S
C57 C52 1.356 . S
C57 C56 1.409 . S
C57 H79 0.930 . S
C58 O68 1.270 . S
C58 O69 1.248 . S
C59 O70 1.267 . S
C59 O71 1.278 . S
O60 Pr40 2.562 . S
O60 C42 1.254 . S
O61 Pr40 2.490 . S
O61 C42 1.225 . S
O62 Pr40 2.695 . S
O62 Pr41 2.436 . S
O62 C49 1.270 . S
O63 Pr40 2.512 . S
O63 C49 1.248 . S
O64 Pr41 2.438 . S
O64 C50 1.267 . S
O65 Pr40 2.437 . S
O65 C50 1.278 . S
O66 Pr41 2.562 1_565 S
O66 C51 1.254 . S
O67 Pr41 2.490 1_565 S
O67 C51 1.225 . S
O68 Pr40 2.436 . S
O68 Pr41 2.695 . S
O68 C58 1.270 . S
O69 Pr41 2.512 . S
O69 C58 1.248 . S
O70 Pr40 2.438 1_565 S
O70 C59 1.267 . S
O71 Pr41 2.437 1_565 S
O71 C59 1.278 . S
H72 C44 0.929 . S
H73 C45 0.929 . S
H74 C47 0.931 . S
H75 C48 0.930 . S
H76 C53 0.929 . S
H77 C54 0.929 . S
H78 C56 0.931 . S
H79 C57 0.930 . S
Pr80 C82 2.880 . S
Pr80 O100 2.562 . S
Pr80 O101 2.490 . S
Pr80 O102 2.695 . S
Pr80 O103 2.512 . S
Pr80 O105 2.437 . S
Pr80 O108 2.436 . S
Pr80 O110 2.438 . S
Pr81 C91 2.880 . S
Pr81 O102 2.436 . S
Pr81 O104 2.438 . S
Pr81 O106 2.562 . S
Pr81 O107 2.490 . S
Pr81 O108 2.695 . S
Pr81 O109 2.512 . S
Pr81 O111 2.437 . S
C82 Pr80 2.880 . S
C82 C83 1.491 . S
C82 O100 1.254 . S
C82 O101 1.225 . S
C83 C82 1.491 . S
C83 C84 1.392 . S
C83 C88 1.356 . S
C84 C83 1.392 . S
C84 C85 1.368 . S
C84 H112 0.929 . S
C85 C84 1.368 . S
C85 C86 1.386 . S
C85 H113 0.929 . S
C86 C85 1.386 . S
C86 C87 1.373 . S
C87 C86 1.373 . S
C87 C88 1.409 . S
C87 H114 0.931 . S
C88 C83 1.356 . S
C88 C87 1.409 . S
C88 H115 0.930 . S
C89 O102 1.270 . S
C89 O103 1.248 . S
C90 O104 1.267 . S
C90 O105 1.278 . S
C91 Pr81 2.880 . S
C91 C92 1.491 . S
C91 O106 1.254 . S
C91 O107 1.225 . S
C92 C91 1.491 . S
C92 C93 1.392 . S
C92 C97 1.356 . S
C93 C92 1.392 . S
C93 C94 1.368 . S
C93 H116 0.929 . S
C94 C93 1.368 . S
C94 C95 1.386 . S
C94 H117 0.929 . S
C95 C94 1.386 . S
C95 C96 1.373 . S
C96 C95 1.373 . S
C96 C97 1.409 . S
C96 H118 0.931 . S
C97 C92 1.356 . S
C97 C96 1.409 . S
C97 H119 0.930 . S
C98 O108 1.270 . S
C98 O109 1.248 . S
C99 O110 1.267 . S
C99 O111 1.278 . S
O100 Pr80 2.562 . S
O100 C82 1.254 . S
O101 Pr80 2.490 . S
O101 C82 1.225 . S
O102 Pr80 2.695 . S
O102 Pr81 2.436 . S
O102 C89 1.270 . S
O103 Pr80 2.512 . S
O103 C89 1.248 . S
O104 Pr81 2.438 . S
O104 C90 1.267 . S
O105 Pr80 2.437 . S
O105 C90 1.278 . S
O106 Pr81 2.562 . S
O106 C91 1.254 . S
O107 Pr81 2.490 . S
O107 C91 1.225 . S
O108 Pr80 2.436 . S
O108 Pr81 2.695 . S
O108 C98 1.270 . S
O109 Pr81 2.512 . S
O109 C98 1.248 . S
O110 Pr80 2.438 . S
O110 C99 1.267 . S
O111 Pr81 2.437 . S
O111 C99 1.278 . S
H112 C84 0.929 . S
H113 C85 0.929 . S
H114 C87 0.931 . S
H115 C88 0.930 . S
H116 C93 0.929 . S
H117 C94 0.929 . S
H118 C96 0.931 . S
H119 C97 0.930 . S
H120 C121 0.949 . S
C121 H120 0.949 . S
C121 C122 1.395 . S
C121 C123 1.391 . S
C122 C121 1.395 . S
C122 C125 1.390 . S
C123 C121 1.391 . S
C123 C127 1.387 . S
C123 C128 1.491 . S
H124 C125 0.950 1_565 S
C125 C122 1.390 . S
C125 H124 0.950 1_545 S
C125 C126 1.379 . S
C126 C125 1.379 . S
C126 C127 1.424 . S
C127 C123 1.387 . S
C127 C126 1.424 . S
C127 H129 0.951 . S
C128 C123 1.491 . S
C128 C130 1.382 . S
C128 C132 1.404 . S
H129 C127 0.951 . S
C130 C128 1.382 . S
C130 C131 1.390 . S
C130 H135 0.949 . S
C131 C130 1.390 . S
C131 C136 1.399 . S
C132 C128 1.404 . S
C132 H133 0.950 . S
C132 C134 1.375 . S
H133 C132 0.950 . S
C134 C132 1.375 . S
C134 C136 1.382 . S
C134 H138 0.950 . S
H135 C130 0.949 . S
C136 C131 1.399 . S
C136 C134 1.382 . S
C136 H137 0.952 . S
H137 C136 0.952 . S
H138 C134 0.950 . S
H139 C140 0.949 . S
C140 H139 0.949 . S
C140 C141 1.395 . S
C140 C142 1.391 . S
C141 C140 1.395 . S
C141 C144 1.390 . S
C142 C140 1.391 . S
C142 C146 1.387 . S
C142 C147 1.491 . S
H143 C144 0.950 . S
C144 C141 1.390 . S
C144 H143 0.950 . S
C144 C145 1.378 . S
C145 C144 1.378 . S
C145 C146 1.409 . S
C146 C142 1.387 . S
C146 C145 1.409 . S
C146 H148 0.951 . S
C147 C142 1.491 . S
C147 C149 1.382 . S
C147 C151 1.404 . S
H148 C146 0.951 . S
C149 C147 1.382 . S
C149 C150 1.390 . S
C149 H154 0.949 . S
C150 C149 1.390 . S
C150 C155 1.399 . S
C151 C147 1.404 . S
C151 H152 0.950 . S
C151 C153 1.375 . S
H152 C151 0.950 . S
C153 C151 1.375 . S
C153 C155 1.382 . S
C153 H157 0.950 . S
H154 C149 0.949 . S
C155 C150 1.399 . S
C155 C153 1.382 . S
C155 H156 0.952 . S
H156 C155 0.952 . S
H157 C153 0.950 . S
H158 C159 0.949 . S
C159 H158 0.949 . S
C159 C160 1.395 . S
C159 C161 1.391 . S
C160 C159 1.395 . S
C160 C163 1.390 1_455 S
C161 C159 1.391 . S
C161 C165 1.387 1_455 S
C161 C166 1.491 . S
H162 C163 0.950 . S
C163 C160 1.390 1_655 S
C163 H162 0.950 . S
C163 C164 1.378 . S
C164 C163 1.378 . S
C164 C165 1.409 . S
C165 C161 1.387 1_655 S
C165 C164 1.409 . S
C165 H167 0.951 . S
C166 C161 1.491 . S
C166 C168 1.382 . S
C166 C170 1.404 . S
H167 C165 0.951 . S
C168 C166 1.382 . S
C168 C169 1.390 . S
C168 H173 0.949 . S
C169 C168 1.390 . S
C169 C174 1.399 . S
C170 C166 1.404 . S
C170 H171 0.950 . S
C170 C172 1.375 . S
H171 C170 0.950 . S
C172 C170 1.375 . S
C172 C174 1.382 . S
C172 H176 0.950 . S
H173 C168 0.949 . S
C174 C169 1.399 . S
C174 C172 1.382 . S
C174 H175 0.952 . S
H175 C174 0.952 . S
H176 C172 0.950 . S
H177 C178 0.949 . S
C178 H177 0.949 . S
C178 C179 1.395 1_655 S
C178 C180 1.391 1_655 S
C179 C178 1.395 1_455 S
C179 C182 1.390 . S
C180 C178 1.391 1_455 S
C180 C184 1.387 . S
C180 C185 1.491 1_455 S
H181 C182 0.950 . S
C182 C179 1.390 . S
C182 H181 0.950 . S
C182 C183 1.378 . S
C183 C182 1.378 . S
C183 C184 1.409 . S
C184 C180 1.387 . S
C184 C183 1.409 . S
C184 H186 0.951 . S
C185 C180 1.491 1_655 S
C185 C187 1.382 . S
C185 C189 1.404 . S
H186 C184 0.951 . S
C187 C185 1.382 . S
C187 C188 1.390 . S
C187 H192 0.949 . S
C188 C187 1.390 . S
C188 C193 1.399 . S
C189 C185 1.404 . S
C189 H190 0.950 . S
C189 C191 1.375 . S
H190 C189 0.950 . S
C191 C189 1.375 . S
C191 C193 1.382 . S
C191 H195 0.950 . S
H192 C187 0.949 . S
C193 C188 1.399 . S
C193 C191 1.382 . S
C193 H194 0.952 . S
H194 C193 0.952 . S
H195 C191 0.950 . S
H196 C197 0.949 1_565 S
C197 H196 0.949 1_545 S
C197 C198 1.395 . S
C197 C199 1.391 . S
C198 C197 1.395 . S
C198 C201 1.390 . S
C199 C197 1.391 . S
C199 C203 1.387 . S
C199 C204 1.491 1_545 S
H200 C201 0.950 . S
C201 C198 1.390 . S
C201 H200 0.950 . S
C201 C202 1.378 . S
C202 C201 1.378 . S
C202 C203 1.409 . S
C203 C199 1.387 . S
C203 C202 1.409 . S
C203 H205 0.951 . S
C204 C199 1.491 1_565 S
C204 C206 1.382 . S
C204 C208 1.404 . S
H205 C203 0.951 . S
C206 C204 1.382 . S
C206 C207 1.390 . S
C206 H211 0.949 . S
C207 C206 1.390 . S
C207 C212 1.399 . S
C208 C204 1.404 . S
C208 H209 0.950 1_565 S
C208 C210 1.375 . S
H209 C208 0.950 1_545 S
C210 C208 1.375 . S
C210 C212 1.382 . S
C210 H214 0.950 . S
H211 C206 0.949 . S
C212 C207 1.399 . S
C212 C210 1.382 . S
C212 H213 0.952 . S
H213 C212 0.952 . S
H214 C210 0.950 . S
H215 C216 0.949 . S
C216 H215 0.949 . S
C216 C217 1.395 . S
C216 C218 1.391 . S
C217 C216 1.395 . S
C217 C220 1.390 . S
C218 C216 1.391 . S
C218 C222 1.387 . S
C218 C223 1.491 . S
H219 C220 0.950 . S
C220 C217 1.390 . S
C220 H219 0.950 . S
C220 C221 1.378 . S
C221 C220 1.378 . S
C221 C222 1.409 . S
C222 C218 1.387 . S
C222 C221 1.409 . S
C222 H224 0.951 . S
C223 C218 1.491 . S
C223 C225 1.382 . S
C223 C227 1.404 . S
H224 C222 0.951 . S
C225 C223 1.382 . S
C225 C226 1.390 . S
C225 H230 0.949 . S
C226 C225 1.390 . S
C226 C231 1.399 . S
C227 C223 1.404 . S
C227 H228 0.950 . S
C227 C229 1.375 . S
H228 C227 0.950 . S
C229 C227 1.375 . S
C229 C231 1.382 . S
C229 H233 0.950 . S
H230 C225 0.949 . S
C231 C226 1.399 . S
C231 C229 1.382 . S
C231 H232 0.952 . S
H232 C231 0.952 . S
H233 C229 0.950 . S
C234 C235 1.369 . S
C234 C236 1.419 . S
C234 H238 0.930 . S
C235 C234 1.369 . S
C235 C244 1.429 . S
C236 C234 1.419 . S
C236 C237 1.363 . S
C236 H239 0.929 . S
C237 C236 1.363 . S
C237 C243 1.428 . S
H238 C234 0.930 . S
H239 C236 0.929 . S
S240 N241 1.613 . S
S240 N242 1.610 . S
N241 S240 1.613 . S
N241 C244 1.350 . S
N242 S240 1.610 . S
N242 C243 1.351 . S
C243 C237 1.428 . S
C243 N242 1.351 . S
C243 C244 1.434 . S
C244 C235 1.429 . S
C244 N241 1.350 . S
C244 C243 1.434 . S
C245 C246 1.369 . S
C245 C247 1.419 . S
C245 H249 0.930 . S
C246 C245 1.369 . S
C246 C255 1.429 . S
C247 C245 1.419 . S
C247 C248 1.363 . S
C247 H250 0.929 . S
C248 C247 1.363 . S
C248 C254 1.428 . S
H249 C245 0.930 . S
H250 C247 0.929 . S
S251 N252 1.613 . S
S251 N253 1.610 . S
N252 S251 1.613 . S
N252 C255 1.350 . S
N253 S251 1.610 . S
N253 C254 1.351 . S
C254 C248 1.428 . S
C254 N253 1.351 . S
C254 C255 1.434 . S
C255 C246 1.429 . S
C255 N252 1.350 . S
C255 C254 1.434 . S
C256 C257 1.369 . S
C256 C258 1.419 . S
C256 H260 0.930 . S
C257 C256 1.369 . S
C257 C266 1.429 . S
C258 C256 1.419 . S
C258 C259 1.363 . S
C258 H261 0.929 . S
C259 C258 1.363 . S
C259 C265 1.428 . S
H260 C256 0.930 . S
H261 C258 0.929 . S
S262 N263 1.613 . S
S262 N264 1.610 . S
N263 S262 1.613 . S
N263 C266 1.350 . S
N264 S262 1.610 . S
N264 C265 1.351 . S
C265 C259 1.428 . S
C265 N264 1.351 . S
C265 C266 1.434 . S
C266 C257 1.429 . S
C266 N263 1.350 . S
C266 C265 1.434 . S
C267 C268 1.369 . S
C267 C269 1.419 . S
C267 H271 0.930 . S
C268 C267 1.369 . S
C268 C277 1.429 . S
C269 C267 1.419 . S
C269 C270 1.363 . S
C269 H272 0.929 . S
C270 C269 1.363 . S
C270 C276 1.428 . S
H271 C267 0.930 . S
H272 C269 0.929 . S
S273 N274 1.613 . S
S273 N275 1.610 . S
N274 S273 1.613 . S
N274 C277 1.350 . S
N275 S273 1.610 . S
N275 C276 1.351 . S
C276 C270 1.428 . S
C276 N275 1.351 . S
C276 C277 1.434 . S
C277 C268 1.429 . S
C277 N274 1.350 . S
C277 C276 1.434 . S
C278 C279 1.369 . S
C278 C280 1.419 . S
C278 H282 0.930 . S
C279 C278 1.369 . S
C279 C288 1.429 . S
C280 C278 1.419 . S
C280 C281 1.363 . S
C280 H283 0.929 . S
C281 C280 1.363 . S
C281 C287 1.428 . S
H282 C278 0.930 . S
H283 C280 0.929 . S
S284 N285 1.613 . S
S284 N286 1.610 . S
N285 S284 1.613 . S
N285 C288 1.350 . S
N286 S284 1.610 . S
N286 C287 1.351 . S
C287 C281 1.428 . S
C287 N286 1.351 . S
C287 C288 1.434 . S
C288 C279 1.429 . S
C288 N285 1.350 . S
C288 C287 1.434 . S
C289 C290 1.369 . S
C289 C291 1.419 . S
C289 H293 0.930 . S
C290 C289 1.369 . S
C290 C299 1.429 . S
C291 C289 1.419 . S
C291 C292 1.363 . S
C291 H294 0.929 . S
C292 C291 1.363 . S
C292 C298 1.428 . S
H293 C289 0.930 . S
H294 C291 0.929 . S
S295 N296 1.613 . S
S295 N297 1.610 . S
N296 S295 1.613 . S
N296 C299 1.350 . S
N297 S295 1.610 . S
N297 C298 1.351 . S
C298 C292 1.428 . S
C298 N297 1.351 . S
C298 C299 1.434 . S
C299 C290 1.429 . S
C299 N296 1.350 . S
C299 C298 1.434 . S
C300 C301 1.369 . S
C300 C302 1.419 . S
C300 H304 0.930 . S
C301 C300 1.369 . S
C301 C310 1.429 . S
C302 C300 1.419 . S
C302 C303 1.363 . S
C302 H305 0.929 . S
C303 C302 1.363 . S
C303 C309 1.428 . S
H304 C300 0.930 . S
H305 C302 0.929 . S
S306 N307 1.613 . S
S306 N308 1.610 . S
N307 S306 1.613 . S
N307 C310 1.350 . S
N308 S306 1.610 . S
N308 C309 1.351 . S
C309 C303 1.428 . S
C309 N308 1.351 . S
C309 C310 1.434 . S
C310 C301 1.429 . S
C310 N307 1.350 . S
C310 C309 1.434 . S
C311 C312 1.369 . S
C311 C313 1.419 . S
C311 H315 0.930 . S
C312 C311 1.369 . S
C312 C321 1.429 . S
C313 C311 1.419 . S
C313 C314 1.363 . S
C313 H316 0.929 . S
C314 C313 1.363 . S
C314 C320 1.428 . S
H315 C311 0.930 . S
H316 C313 0.929 . S
S317 N318 1.613 . S
S317 N319 1.610 . S
N318 S317 1.613 . S
N318 C321 1.350 . S
N319 S317 1.610 . S
N319 C320 1.351 . S
C320 C314 1.428 . S
C320 N319 1.351 . S
C320 C321 1.434 . S
C321 C312 1.429 . S
C321 N318 1.350 . S
C321 C320 1.434 . S
C322 C323 1.369 . S
C322 C324 1.419 . S
C322 H326 0.930 . S
C323 C322 1.369 . S
C323 C332 1.429 . S
C324 C322 1.419 . S
C324 C325 1.363 . S
C324 H327 0.929 . S
C325 C324 1.363 . S
C325 C331 1.428 . S
H326 C322 0.930 . S
H327 C324 0.929 . S
S328 N329 1.613 . S
S328 N330 1.610 . S
N329 S328 1.613 . S
N329 C332 1.350 . S
N330 S328 1.610 . S
N330 C331 1.351 . S
C331 C325 1.428 . S
C331 N330 1.351 . S
C331 C332 1.434 . S
C332 C323 1.429 . S
C332 N329 1.350 . S
C332 C331 1.434 . S
C333 C334 1.369 . S
C333 C335 1.419 . S
C333 H337 0.930 . S
C334 C333 1.369 . S
C334 C343 1.429 . S
C335 C333 1.419 . S
C335 C336 1.363 . S
C335 H338 0.929 . S
C336 C335 1.363 . S
C336 C342 1.428 . S
H337 C333 0.930 . S
H338 C335 0.929 . S
S339 N340 1.613 . S
S339 N341 1.610 . S
N340 S339 1.613 . S
N340 C343 1.350 . S
N341 S339 1.610 . S
N341 C342 1.351 . S
C342 C336 1.428 . S
C342 N341 1.351 . S
C342 C343 1.434 . S
C343 C334 1.429 . S
C343 N340 1.350 . S
C343 C342 1.434 . S
C344 C345 1.369 . S
C344 C346 1.419 . S
C344 H348 0.930 . S
C345 C344 1.369 . S
C345 C354 1.429 . S
C346 C344 1.419 . S
C346 C347 1.363 . S
C346 H349 0.929 . S
C347 C346 1.363 . S
C347 C353 1.428 . S
H348 C344 0.930 . S
H349 C346 0.929 . S
S350 N351 1.613 . S
S350 N352 1.610 . S
N351 S350 1.613 . S
N351 C354 1.350 . S
N352 S350 1.610 . S
N352 C353 1.351 . S
C353 C347 1.428 . S
C353 N352 1.351 . S
C353 C354 1.434 . S
C354 C345 1.429 . S
C354 N351 1.350 . S
C354 C353 1.434 . S
C355 C356 1.369 . S
C355 C357 1.419 . S
C355 H359 0.930 . S
C356 C355 1.369 . S
C356 C365 1.429 . S
C357 C355 1.419 . S
C357 C358 1.363 . S
C357 H360 0.929 . S
C358 C357 1.363 . S
C358 C364 1.428 . S
H359 C355 0.930 . S
H360 C357 0.929 . S
S361 N362 1.613 . S
S361 N363 1.610 . S
N362 S361 1.613 . S
N362 C365 1.350 . S
N363 S361 1.610 . S
N363 C364 1.351 . S
C364 C358 1.428 . S
C364 N363 1.351 . S
C364 C365 1.434 . S
C365 C356 1.429 . S
C365 N362 1.350 . S
C365 C364 1.434 . S
C366 C367 1.369 . S
C366 C368 1.419 1_554 S
C366 H370 0.930 . S
C367 C366 1.369 . S
C367 C376 1.429 1_455 S
C368 C366 1.419 1_556 S
C368 C369 1.363 . S
C368 H371 0.929 . S
C369 C368 1.363 . S
C369 C375 1.428 1_455 S
H370 C366 0.930 . S
H371 C368 0.929 . S
S372 N373 1.613 1_556 S
S372 N374 1.610 . S
N373 S372 1.613 1_554 S
N373 C376 1.350 . S
N374 S372 1.610 . S
N374 C375 1.351 . S
C375 C369 1.428 1_655 S
C375 N374 1.351 . S
C375 C376 1.434 1_556 S
C376 C367 1.429 1_655 S
C376 N373 1.350 . S
C376 C375 1.434 1_554 S
C377 C378 1.369 . S
C377 C379 1.419 . S
C377 H381 0.930 . S
C378 C377 1.369 . S
C378 C387 1.429 . S
C379 C377 1.419 . S
C379 C380 1.363 . S
C379 H382 0.929 . S
C380 C379 1.363 . S
C380 C386 1.428 . S
H381 C377 0.930 . S
H382 C379 0.929 . S
S383 N384 1.613 . S
S383 N385 1.610 . S
N384 S383 1.613 . S
N384 C387 1.350 . S
N385 S383 1.610 . S
N385 C386 1.351 . S
C386 C380 1.428 . S
C386 N385 1.351 . S
C386 C387 1.434 . S
C387 C378 1.429 . S
C387 N384 1.350 . S
C387 C386 1.434 . S
C388 C389 1.369 . S
C388 C390 1.419 . S
C388 H392 0.930 . S
C389 C388 1.369 . S
C389 C398 1.429 . S
C390 C388 1.419 . S
C390 C391 1.363 . S
C390 H393 0.929 . S
C391 C390 1.363 . S
C391 C397 1.428 . S
H392 C388 0.930 . S
H393 C390 0.929 . S
S394 N395 1.613 . S
S394 N396 1.610 . S
N395 S394 1.613 . S
N395 C398 1.350 . S
N396 S394 1.610 . S
N396 C397 1.351 . S
C397 C391 1.428 . S
C397 N396 1.351 . S
C397 C398 1.434 . S
C398 C389 1.429 . S
C398 N395 1.350 . S
C398 C397 1.434 . S
C399 C400 1.369 . S
C399 C401 1.419 . S
C399 H403 0.930 . S
C400 C399 1.369 . S
C400 C409 1.429 . S
C401 C399 1.419 . S
C401 C402 1.363 . S
C401 H404 0.929 . S
C402 C401 1.363 . S
C402 C408 1.428 . S
H403 C399 0.930 . S
H404 C401 0.929 . S
S405 N406 1.613 . S
S405 N407 1.610 . S
N406 S405 1.613 . S
N406 C409 1.350 1_565 S
N407 S405 1.610 . S
N407 C408 1.351 1_565 S
C408 C402 1.428 . S
C408 N407 1.351 1_545 S
C408 C409 1.434 . S
C409 C400 1.429 . S
C409 N406 1.350 1_545 S
C409 C408 1.434 . S
C410 C411 1.369 . S
C410 C412 1.419 1_556 S
C410 H414 0.930 . S
C411 C410 1.369 . S
C411 C420 1.429 . S
C412 C410 1.419 1_554 S
C412 C413 1.363 . S
C412 H415 0.929 . S
C413 C412 1.363 . S
C413 C419 1.428 . S
H414 C410 0.930 . S
H415 C412 0.929 . S
S416 N417 1.613 1_554 S
S416 N418 1.610 . S
N417 S416 1.613 1_556 S
N417 C420 1.350 . S
N418 S416 1.610 . S
N418 C419 1.351 . S
C419 C413 1.428 . S
C419 N418 1.351 . S
C419 C420 1.434 1_554 S
C420 C411 1.429 . S
C420 N417 1.350 . S
C420 C419 1.434 1_556 S
C421 C422 1.369 . S
C421 C423 1.419 . S
C421 H425 0.930 . S
C422 C421 1.369 . S
C422 C431 1.429 1_455 S
C423 C421 1.419 . S
C423 C424 1.363 . S
C423 H426 0.929 . S
C424 C423 1.363 . S
C424 C430 1.428 1_455 S
H425 C421 0.930 . S
H426 C423 0.929 . S
S427 N428 1.613 . S
S427 N429 1.610 . S
N428 S427 1.613 . S
N428 C431 1.350 . S
N429 S427 1.610 . S
N429 C430 1.351 . S
C430 C424 1.428 1_655 S
C430 N429 1.351 . S
C430 C431 1.434 . S
C431 C422 1.429 1_655 S
C431 N428 1.350 . S
C431 C430 1.434 . S
C235 C19 2.014 . S
C237 C226 1.961 . S
C246 C46 1.338 . S
C248 C188 1.272 . S
C257 C95 0.740 . S
C259 C207 0.760 . S
C268 C10 1.929 . S
C270 C221 1.884 . S
C281 C183 1.254 . S
C279 C55 1.248 . S
C292 C202 0.712 . S
C290 C86 0.736 . S
C301 C59 3.222 . S
C303 C150 3.154 . S
C312 C90 1.956 . S
C314 C164 1.957 . S
C323 C15 1.150 . S
C325 C126 1.142 1_565 S
C336 C145 3.019 . S
C334 C50 3.052 . S
C347 C169 1.980 . S
C345 C99 2.018 . S
C356 C6 1.358 . S
C358 C131 1.259 . S
C369 C160 1.521 . S
C367 C9 1.435 . S
C378 C58 1.583 . S
C380 C122 1.569 . S
C389 C98 1.700 . S
C391 C141 1.796 . S
C402 C198 1.287 . S
C400 C49 1.227 . S
C413 C217 1.507 . S
C411 C89 1.487 . S
C422 C18 1.564 . S
C424 C179 1.550 . S
