# Generated by pormake.
# Topology tsx, (6,3)-cn, num edge types: 1
# Building blocks:
#     Node 0, Type 0, BuildingBlock: FUNLAD_clean_sbu_0, # of connection points: 6
#     Node 1, Type 0, BuildingBlock: FUNLAD_clean_sbu_0, # of connection points: 6
#     Node 2, Type 1, BuildingBlock: BETDAH_clean_linker_0, # of connection points: 3
#     Node 3, Type 1, BuildingBlock: BETDAH_clean_linker_0, # of connection points: 3
#     Node 4, Type 1, BuildingBlock: BETDAH_clean_linker_0, # of connection points: 3
#     Node 5, Type 1, BuildingBlock: BETDAH_clean_linker_0, # of connection points: 3
#     Edge 6, Type (0, 1), BuildingBlock: XUDNAN_clean_linker_2, # of connection points: 2
#     Edge 7, Type (0, 1), BuildingBlock: XUDNAN_clean_linker_2, # of connection points: 2
#     Edge 8, Type (0, 1), BuildingBlock: XUDNAN_clean_linker_2, # of connection points: 2
#     Edge 9, Type (0, 1), BuildingBlock: XUDNAN_clean_linker_2, # of connection points: 2
#     Edge 10, Type (0, 1), BuildingBlock: XUDNAN_clean_linker_2, # of connection points: 2
#     Edge 11, Type (0, 1), BuildingBlock: XUDNAN_clean_linker_2, # of connection points: 2
#     Edge 12, Type (0, 1), BuildingBlock: XUDNAN_clean_linker_2, # of connection points: 2
#     Edge 13, Type (0, 1), BuildingBlock: XUDNAN_clean_linker_2, # of connection points: 2
#     Edge 14, Type (0, 1), BuildingBlock: XUDNAN_clean_linker_2, # of connection points: 2
#     Edge 15, Type (0, 1), BuildingBlock: XUDNAN_clean_linker_2, # of connection points: 2
#     Edge 16, Type (0, 1), BuildingBlock: XUDNAN_clean_linker_2, # of connection points: 2
#     Edge 17, Type (0, 1), BuildingBlock: XUDNAN_clean_linker_2, # of connection points: 2
# Relax obj value: 0.108
# Max RMSD: 0.112
# Mean RMSD: 0.108
data_MOF--net-tsx--node1-FUNLAD_clean_sbu_0--node2-BETDAH_clean_linker_0--edge1-XUDNAN_clean_linker_2
_symmetry_space_group_name_H-M    P1
_symmetry_Int_Tables_number       1
_symmetry_cell_setting            triclinic
loop_
_symmetry_equiv_pos_as_xyz
'x, y, z'
_cell_length_a     19.539904
_cell_length_b     21.357606
_cell_length_c     39.428709
_cell_angle_alpha  91.025043
_cell_angle_beta   100.93783
_cell_angle_gamma 89.811067
loop_
_atom_site_label
_atom_site_type_symbol
_atom_site_fract_x
_atom_site_fract_y
_atom_site_fract_z
_atom_type_partial_charge
C0 C 0.89708 0.92217 -0.00058 0.0
N1 N 0.98424 0.02351 0.08852 0.0
C2 C 0.92444 0.00929 0.09971 0.0
C3 C 0.92053 0.01666 0.13454 0.0
C4 C 0.97823 0.04007 0.15792 0.0
C5 C 0.04 0.05249 0.14599 0.0
C6 C 0.04207 0.04335 0.11102 0.0
Zn7 Zn 0.98111 0.0264 0.03635 0.0
C8 C 0.09198 0.95442 0.01125 0.0
N9 N 0.96663 0.03865 0.92715 0.0
C10 C 0.90959 0.01933 0.90396 0.0
C11 C 0.02607 0.05644 0.91662 0.0
C12 C 0.03053 0.05336 0.88175 0.0
C13 C 0.97392 0.03037 0.85763 0.0
C14 C 0.91239 0.01419 0.86885 0.0
Zn15 Zn 0.96912 0.03393 0.97921 0.0
O16 O 0.92299 0.94445 0.02905 0.0
C17 C 0.85739 0.10479 0.00292 0.0
O18 O 0.90531 0.95088 0.97246 0.0
H19 H 0.07143 0.07038 0.9354 0.0
H20 H 0.87864 0.99466 0.08139 0.0
H21 H 0.86288 0.00544 0.91282 0.0
O22 O 0.88872 0.08309 0.03157 0.0
O23 O 0.87967 0.0908 0.97547 0.0
H24 H 0.08907 0.05446 0.10165 0.0
O25 O 0.03265 0.11674 0.98755 0.0
O26 O 0.03934 0.10817 0.04341 0.0
O27 O 0.05804 0.97627 0.98328 0.0
O28 O 0.07365 0.96955 0.03968 0.0
C29 C 0.05341 0.13783 0.01809 0.0
H30 H 0.87194 0.00683 0.14282 0.0
H31 H 0.08584 0.06991 0.16344 0.0
H32 H 0.07919 0.06509 0.87402 0.0
H33 H 0.86789 0.99583 0.85081 0.0
C34 C 0.45759 0.42244 0.48914 0.0
N35 N 0.55159 0.53876 0.57148 0.0
C36 C 0.48864 0.54493 0.58125 0.0
C37 C 0.4844 0.54595 0.61625 0.0
C38 C 0.54543 0.53978 0.64112 0.0
C39 C 0.60985 0.53656 0.63047 0.0
C40 C 0.61183 0.53663 0.5953 0.0
Zn41 Zn 0.55602 0.52518 0.52051 0.0
C42 C 0.65974 0.42749 0.50954 0.0
N43 N 0.56525 0.4962 0.41412 0.0
C44 C 0.50736 0.49191 0.38881 0.0
C45 C 0.63007 0.5005 0.40632 0.0
C46 C 0.63829 0.50439 0.37208 0.0
C47 C 0.57941 0.50247 0.34568 0.0
C48 C 0.5134 0.49449 0.35407 0.0
Zn49 Zn 0.55802 0.50775 0.46491 0.0
O50 O 0.47905 0.45439 0.5166 0.0
C51 C 0.45525 0.60528 0.47393 0.0
O52 O 0.48147 0.43448 0.46201 0.0
H53 H 0.67548 0.50365 0.42676 0.0
H54 H 0.44138 0.54615 0.56188 0.0
H55 H 0.45637 0.48904 0.3956 0.0
O56 O 0.47686 0.59482 0.50586 0.0
O57 O 0.48008 0.57396 0.45146 0.0
H58 H 0.6613 0.5321 0.587 0.0
O59 O 0.63384 0.58105 0.4691 0.0
O60 O 0.63385 0.59523 0.52424 0.0
O61 O 0.63632 0.44182 0.47844 0.0
O62 O 0.63542 0.45493 0.53362 0.0
C63 C 0.65714 0.60962 0.49743 0.0
H64 H 0.4338 0.54737 0.62369 0.0
H65 H 0.65783 0.53111 0.64913 0.0
H66 H 0.68989 0.51035 0.3663 0.0
H67 H 0.46695 0.49312 0.33408 0.0
H68 H 0.06943 0.93781 0.38008 0.0
H69 H 0.98519 0.08807 0.43333 0.0
H70 H 0.1426 0.9678 0.48878 0.0
C71 C 0.06665 0.96288 0.4039 0.0
C72 C 0.11052 0.94529 0.43464 0.0
C73 C 0.0226 0.01514 0.403 0.0
C74 C 0.01873 0.04753 0.43394 0.0
C75 C 0.06035 0.02854 0.46525 0.0
C76 C 0.10701 0.97878 0.46511 0.0
N77 N 0.05962 0.05987 0.49719 0.0
C78 C 0.01032 0.10374 0.50274 0.0
H79 H 0.95297 0.94664 0.60595 0.0
H80 H 0.15508 0.03276 0.62573 0.0
H81 H 0.08229 0.93579 0.52949 0.0
C82 C -4e-05 0.95962 0.59688 0.0
C83 C 0.01049 0.93751 0.56464 0.0
C84 C 0.05311 0.99044 0.61984 0.0
C85 C 0.11294 0.00995 0.60804 0.0
C86 C 0.12153 0.99379 0.57432 0.0
C87 C 0.07165 0.95509 0.55344 0.0
N88 N 0.18637 0.00461 0.56428 0.0
C89 C 0.20337 0.06074 0.55042 0.0
H90 H 0.58698 0.44506 0.89928 0.0
H91 H 0.39784 0.55253 0.87636 0.0
H92 H 0.44554 0.44845 0.96995 0.0
C93 C 0.53956 0.46236 0.90666 0.0
C94 C 0.52198 0.44197 0.93742 0.0
C95 C 0.4929 0.49791 0.88315 0.0
C96 C 0.43464 0.52484 0.89402 0.0
C97 C 0.42008 0.51054 0.92667 0.0
C98 C 0.46161 0.46612 0.9472 0.0
N99 N 0.35673 0.53071 0.93591 0.0
C100 C 0.34658 0.59072 0.94858 0.0
H101 H 0.42081 0.45559 0.11325 0.0
H102 H 0.56948 0.56728 0.07324 0.0
H103 H 0.38392 0.49946 0.00593 0.0
C104 C 0.43788 0.47762 0.09174 0.0
C105 C 0.39623 0.47229 0.05883 0.0
C106 C 0.50053 0.51167 0.09732 0.0
C107 C 0.5214 0.54075 0.06916 0.0
C108 C 0.47957 0.53545 0.03588 0.0
C109 C 0.41726 0.50163 0.03117 0.0
N110 N 0.49718 0.56426 0.00655 0.0
C111 C 0.55787 0.5977 0.0068 0.0
H112 H 0.14802 0.18836 0.98285 0.0
H113 H 0.04326 0.22103 0.06921 0.0
H114 H 0.11016 0.31836 0.0843 0.0
H115 H 0.31256 0.23302 0.02734 0.0
H116 H 0.34032 0.26974 0.99142 0.0
H117 H 0.27662 0.20797 0.98369 0.0
H118 H 0.19095 0.28092 0.94438 0.0
H119 H 0.25458 0.34305 0.95205 0.0
H120 H 0.1685 0.35583 0.96104 0.0
H121 H 0.19406 0.4054 0.09358 0.0
H122 H 0.29571 0.47537 0.09835 0.0
H123 H 0.35109 0.38513 0.00779 0.0
C124 C 0.13821 0.21703 0.00436 0.0
C125 C 0.09036 0.19783 0.02476 0.0
C126 C 0.07985 0.23523 0.05332 0.0
C127 C 0.11715 0.29073 0.06193 0.0
C128 C 0.16504 0.30795 0.04183 0.0
C129 C 0.17607 0.27228 0.01372 0.0
C130 C 0.23617 0.29801 -0.00107 0.0
C131 C 0.29487 0.24929 0.00046 0.0
C132 C 0.21102 0.32081 0.9619 0.0
C133 C 0.25816 0.35244 0.02374 0.0
C134 C 0.21551 0.35789 0.04786 0.0
C135 C 0.22752 0.40214 0.07467 0.0
C136 C 0.28555 0.4413 0.07732 0.0
C137 C 0.3311 0.43541 0.0535 0.0
C138 C 0.31636 0.39123 0.026 0.0
H139 H 0.12785 0.90262 0.9531 0.0
H140 H 0.17826 0.89597 0.06503 0.0
H141 H 0.25928 0.80796 0.0608 0.0
H142 H 0.12014 0.74187 0.93866 0.0
H143 H 0.15685 0.74257 0.90004 0.0
H144 H 0.11074 0.81007 0.91187 0.0
H145 H 0.21844 0.87971 0.91062 0.0
H146 H 0.26498 0.81239 0.8986 0.0
H147 H 0.30169 0.8589 0.93621 0.0
H148 H 0.32603 0.71409 0.04405 0.0
H149 H 0.3708 0.62197 0.01656 0.0
H150 H 0.27519 0.68857 0.91559 0.0
C151 C 0.15706 0.8838 0.97684 0.0
C152 C 0.14705 0.90681 0.00949 0.0
C153 C 0.18542 0.87968 0.03977 0.0
C154 C 0.23159 0.82966 0.03758 0.0
C155 C 0.23891 0.80733 0.00493 0.0
C156 C 0.20277 0.83374 0.9751 0.0
C157 C 0.21531 0.79815 0.94317 0.0
C158 C 0.14669 0.77159 0.92222 0.0
C159 C 0.25232 0.83978 0.92084 0.0
C160 C 0.2629 0.74645 0.95964 0.0
C161 C 0.27666 0.75308 -0.00472 0.0
C162 C 0.31644 0.70916 0.01618 0.0
C163 C 0.34192 0.65693 0.00034 0.0
C164 C 0.32757 0.64886 0.96403 0.0
C165 C 0.28812 0.69447 0.94342 0.0
H166 H 0.76968 0.88955 0.96072 0.0
H167 H 0.94355 0.82011 0.03564 0.0
H168 H 0.87892 0.7228 0.04064 0.0
H169 H 0.64238 0.84023 0.00374 0.0
H170 H 0.57853 0.81827 0.96617 0.0
H171 H 0.6424 0.87724 0.963 0.0
H172 H 0.6825 0.81392 0.9136 0.0
H173 H 0.61807 0.75493 0.91634 0.0
H174 H 0.70844 0.7333 0.92026 0.0
H175 H 0.79199 0.64013 0.04344 0.0
H176 H 0.68636 0.57605 0.04326 0.0
H177 H 0.56657 0.69926 0.96823 0.0
C178 C 0.79469 0.8527 0.97713 0.0
C179 C 0.86164 0.86141 -0.00256 0.0
C180 C 0.89231 0.81362 0.01972 0.0
C181 C 0.85617 0.75824 0.02265 0.0
C182 C 0.78922 0.75162 0.00325 0.0
C183 C 0.75865 0.79727 0.98079 0.0
C184 C 0.68326 0.78128 0.96599 0.0
C185 C 0.63376 0.83228 0.9753 0.0
C186 C 0.67245 0.77019 0.92671 0.0
C187 C 0.67583 0.72089 0.98458 0.0
C188 C 0.73797 0.70413 0.00551 0.0
C189 C 0.74328 0.65211 0.02676 0.0
C190 C 0.68332 0.61626 0.02666 0.0
C191 C 0.61951 0.63321 0.00569 0.0
C192 C 0.61554 0.68558 0.98422 0.0
H193 H 0.76658 0.14422 0.94583 0.0
H194 H 0.81775 0.16875 0.05721 0.0
H195 H 0.72954 0.25304 0.05398 0.0
H196 H 0.74751 0.30125 0.92564 0.0
H197 H 0.6756 0.29041 0.88995 0.0
H198 H 0.73721 0.22812 0.90166 0.0
H199 H 0.63684 0.1531 0.90853 0.0
H200 H 0.57473 0.21516 0.89656 0.0
H201 H 0.57796 0.17532 0.93676 0.0
H202 H 0.64307 0.34374 0.03699 0.0
H203 H 0.56615 0.42762 0.00795 0.0
H204 H 0.56968 0.33753 0.90882 0.0
C205 C 0.75844 0.16645 0.96965 0.0
C206 C 0.79905 0.14982 0.00175 0.0
C207 C 0.7869 0.18039 0.0323 0.0
C208 C 0.73696 0.22843 0.03071 0.0
C209 C 0.69886 0.24469 -0.00154 0.0
C210 C 0.70855 0.21383 0.96857 0.0
C211 C 0.6637 0.24146 0.93692 0.0
C212 C 0.70871 0.26681 0.9121 0.0
C213 C 0.61012 0.19339 0.91863 0.0
C214 C 0.62878 0.29392 0.95345 0.0
C215 C 0.64909 0.29527 0.98896 0.0
C216 C 0.6262 0.34249 0.00921 0.0
C217 C 0.58243 0.38987 0.99257 0.0
C218 C 0.56261 0.38969 0.9561 0.0
C219 C 0.58482 0.33988 0.93669 0.0
H220 H 0.74254 0.65615 0.55522 0.0
H221 H 0.69397 0.67391 0.44383 0.0
H222 H 0.78257 0.75782 0.44762 0.0
H223 H 0.76898 0.81677 0.57667 0.0
H224 H 0.84043 0.80359 0.61207 0.0
H225 H 0.77436 0.74457 0.60004 0.0
H226 H 0.86924 0.66308 0.59243 0.0
H227 H 0.93565 0.7219 0.60452 0.0
H228 H 0.92885 0.67973 0.56401 0.0
H229 H 0.87449 0.84512 0.46499 0.0
H230 H 0.9606 0.92365 0.49416 0.0
H231 H 0.95169 0.84041 0.59286 0.0
C232 C 0.75048 0.67759 0.53158 0.0
C233 C 0.71105 0.65882 0.49927 0.0
C234 C 0.72364 0.68763 0.46891 0.0
C235 C 0.77383 0.73533 0.4708 0.0
C236 C 0.81168 0.75296 0.5032 0.0
C237 C 0.80086 0.72434 0.53296 0.0
C238 C 0.84804 0.75111 0.56464 0.0
C239 C 0.80539 0.78078 0.58982 0.0
C240 C 0.89844 0.70097 0.58244 0.0
C241 C 0.88613 0.80023 0.54828 0.0
C242 C 0.86486 0.80101 0.51285 0.0
C243 C 0.89175 0.84454 0.49273 0.0
C244 C 0.94077 0.88883 0.50945 0.0
C245 C 0.96206 0.88913 0.54587 0.0
C246 C 0.93531 0.84295 0.56509 0.0
H247 H 0.71942 0.36341 0.46245 0.0
H248 H 0.7231 0.38118 0.57267 0.0
H249 H 0.81367 0.29846 0.58321 0.0
H250 H 0.74013 0.19708 0.45942 0.0
H251 H 0.79415 0.19939 0.42714 0.0
H252 H 0.73001 0.25957 0.42872 0.0
H253 H 0.82593 0.34459 0.43364 0.0
H254 H 0.89038 0.28474 0.43202 0.0
H255 H 0.90171 0.34017 0.46766 0.0
H256 H 0.90436 0.2131 0.58104 0.0
H257 H 0.98797 0.13388 0.56634 0.0
H258 H 0.92298 0.17452 0.45776 0.0
C259 C 0.73906 0.35013 0.4889 0.0
C260 C 0.71418 0.37876 0.51679 0.0
C261 C 0.74147 0.35985 0.55093 0.0
C262 C 0.79279 0.31293 0.55713 0.0
C263 C 0.81595 0.28566 0.5289 0.0
C264 C 0.78986 0.30374 0.49548 0.0
C265 C 0.82312 0.26776 0.46948 0.0
C266 C 0.7686 0.22863 0.44474 0.0
C267 C 0.86264 0.31196 0.44954 0.0
C268 C 0.87255 0.22656 0.49343 0.0
C269 C 0.86765 0.23728 0.52763 0.0
C270 C 0.90854 0.20444 0.55438 0.0
C271 C 0.95568 0.15974 0.54587 0.0
C272 C 0.96115 0.14884 0.51106 0.0
C273 C 0.91925 0.18235 0.48457 0.0
H274 H 0.40459 0.38178 0.54458 0.0
H275 H 0.40106 0.34202 0.43589 0.0
H276 H 0.32729 0.24912 0.43894 0.0
H277 H 0.42075 0.22639 0.57192 0.0
H278 H 0.3661 0.23523 0.60374 0.0
H279 H 0.41267 0.30168 0.59221 0.0
H280 H 0.29691 0.36328 0.5766 0.0
H281 H 0.24985 0.297 0.58818 0.0
H282 H 0.2256 0.33003 0.54584 0.0
H283 H 0.2624 0.15547 0.45518 0.0
H284 H 0.21127 0.06928 0.48317 0.0
H285 H 0.25533 0.17037 0.58102 0.0
C286 C 0.38747 0.35422 0.5212 0.0
C287 C 0.40856 0.36952 0.48989 0.0
C288 C 0.38547 0.33156 0.46011 0.0
C289 C 0.34347 0.27869 0.46161 0.0
C290 C 0.32465 0.26447 0.49303 0.0
C291 C 0.34566 0.30136 0.52226 0.0
C292 C 0.3215 0.27415 0.55329 0.0
C293 C 0.38398 0.25843 0.58197 0.0
C294 C 0.27042 0.31878 0.56676 0.0
C295 C 0.28486 0.21534 0.5372 0.0
C296 C 0.28677 0.21092 0.50232 0.0
C297 C 0.25956 0.1591 0.48229 0.0
C298 C 0.23026 0.11047 0.49834 0.0
C299 C 0.22797 0.11409 0.53393 0.0
C300 C 0.25523 0.16728 0.55356 0.0
H301 H 0.36253 0.66248 0.50956 0.0
H302 H 0.43508 0.66219 0.41198 0.0
H303 H 0.35467 0.74817 0.39178 0.0
H304 H 0.18072 0.69287 0.47208 0.0
H305 H 0.16616 0.74247 0.5075 0.0
H306 H 0.23009 0.68078 0.51496 0.0
H307 H 0.32444 0.76161 0.54184 0.0
H308 H 0.26081 0.82352 0.53433 0.0
H309 H 0.33983 0.82877 0.51724 0.0
H310 H 0.27276 0.83674 0.38295 0.0
H311 H 0.18604 0.91965 0.3841 0.0
H312 H 0.15701 0.85845 0.48506 0.0
C313 C 0.3613 0.68061 0.48398 0.0
C314 C 0.40509 0.65578 0.46237 0.0
C315 C 0.40177 0.68029 0.42893 0.0
C316 C 0.35645 0.72928 0.41721 0.0
C317 C 0.3141 0.7528 0.43904 0.0
C318 C 0.31529 0.7291 0.47154 0.0
C319 C 0.26278 0.76254 0.48927 0.0
C320 C 0.2066 0.71694 0.49636 0.0
C321 C 0.29916 0.7961 0.52264 0.0
C322 C 0.23284 0.80903 0.46174 0.0
C323 C 0.26369 0.80267 0.43315 0.0
C324 C 0.2471 0.84157 0.40488 0.0
C325 C 0.19712 0.88821 0.40568 0.0
C326 C 0.16325 0.89504 0.43433 0.0
C327 C 0.18174 0.8547 0.46274 0.0
H328 H 0.93263 0.96176 0.20301 0.0
H329 H 0.01405 0.14821 0.19482 0.0
H330 H 0.00997 0.16966 0.25626 0.0
H331 H 0.81981 1.00069 0.26744 0.0
H332 H 0.84159 0.92845 0.28992 0.0
H333 H 0.83901 0.93158 0.24402 0.0
H334 H 0.96609 0.89034 0.25268 0.0
H335 H 0.96843 0.88628 0.29834 0.0
H336 H 0.03348 0.93098 0.28248 0.0
H337 H 0.01025 0.16648 0.31955 0.0
H338 H 0.02963 0.13435 0.38045 0.0
H339 H 0.9484 0.94986 0.34796 0.0
C340 C 0.94789 0.00758 0.21404 0.0
C341 C 0.97317 0.05355 0.19431 0.0
C342 C 0.99465 0.11241 0.20967 0.0
C343 C 0.99171 0.12521 0.24437 0.0
C344 C 0.96712 0.07866 0.26332 0.0
C345 C 0.94604 0.02081 0.24874 0.0
C346 C 0.93073 0.97606 0.27569 0.0
C347 C 0.85316 0.95816 0.26885 0.0
C348 C 0.97749 0.91751 0.2774 0.0
C349 C 0.94951 0.01679 0.30793 0.0
C350 C 0.96842 0.07641 0.30015 0.0
C351 C 0.99427 0.12039 0.32595 0.0
C352 C 0.00458 0.10193 0.36052 0.0
C353 C 0.99005 0.03979 0.36882 0.0
C354 C 0.95901 0.99789 0.34225 0.0
H355 H 0.00947 0.10935 0.80917 0.0
H356 H 0.96037 0.91615 0.82686 0.0
H357 H 0.98482 0.88569 0.76969 0.0
H358 H 0.92806 0.10728 0.71835 0.0
H359 H 0.99213 0.15775 0.7056 0.0
H360 H 0.97353 0.16444 0.74854 0.0
H361 H 0.10441 0.148 0.77415 0.0
H362 H 0.12327 0.14046 0.73125 0.0
H363 H 0.14814 0.07908 0.76195 0.0
H364 H 0.01765 0.87486 0.71303 0.0
H365 H 0.03992 0.88522 0.65417 0.0
H366 H 0.06079 0.0866 0.66918 0.0
C367 C 0.00366 0.06081 0.80073 0.0
C368 C 0.98292 0.01487 0.82214 0.0
C369 C 0.97551 0.95185 0.81054 0.0
C370 C 0.9899 0.93411 0.77833 0.0
C371 C 0.01089 0.98017 0.75794 0.0
C372 C 0.01652 0.04239 0.76818 0.0
C373 C 0.03634 0.08252 0.74006 0.0
C374 C 0.97909 0.13085 0.72739 0.0
C375 C 0.10727 0.1144 0.75262 0.0
C376 C 0.04075 0.03294 0.71246 0.0
C377 C 0.02703 0.97423 0.72387 0.0
C378 C 0.02785 0.92053 0.70362 0.0
C379 C 0.04057 0.92697 0.67027 0.0
C380 C 0.0511 0.98677 0.65709 0.0
C381 C 0.05299 0.04045 0.67872 0.0
H382 H 0.50041 0.61553 0.69022 0.0
H383 H 0.58061 0.4307 0.67231 0.0
H384 H 0.57109 0.4007 0.73131 0.0
H385 H 0.59266 0.63053 0.77928 0.0
H386 H 0.52297 0.67142 0.79432 0.0
H387 H 0.53337 0.67869 0.75013 0.0
H388 H 0.40603 0.64177 0.72911 0.0
H389 H 0.39536 0.63407 0.77325 0.0
H390 H 0.37835 0.56816 0.74368 0.0
H391 H 0.54846 0.38821 0.78924 0.0
H392 H 0.52731 0.39582 0.84819 0.0
H393 H 0.47085 0.592 0.83361 0.0
C394 C 0.51589 0.56892 0.69899 0.0
C395 C 0.54126 0.52512 0.67703 0.0
C396 C 0.56148 0.46466 0.68902 0.0
C397 C 0.5559 0.4472 0.72232 0.0
C398 C 0.53071 0.49107 0.7434 0.0
C399 C 0.5119 0.55095 0.73266 0.0
C400 C 0.48923 0.58911 0.76159 0.0
C401 C 0.53745 0.6458 0.77194 0.0
C402 C 0.41268 0.60948 0.75128 0.0
C403 C 0.49829 0.54104 0.79008 0.0
C404 C 0.52135 0.48479 0.77848 0.0
C405 C 0.53185 0.43229 0.79897 0.0
C406 C 0.52022 0.43747 0.83264 0.0
C407 C 0.49998 0.49527 0.8462 0.0
C408 C 0.48733 0.54754 0.82426 0.0
H409 H 0.55994 0.41793 0.29218 0.0
H410 H 0.61367 0.61142 0.31885 0.0
H411 H 0.61813 0.63228 0.25765 0.0
H412 H 0.67036 0.40196 0.22429 0.0
H413 H 0.6073 0.3518 0.19762 0.0
H414 H 0.61655 0.35083 0.24399 0.0
H415 H 0.48478 0.37515 0.23854 0.0
H416 H 0.47518 0.37568 0.19233 0.0
H417 H 0.44862 0.4429 0.21493 0.0
H418 H 0.59966 0.63479 0.19271 0.0
H419 H 0.55891 0.61881 0.12986 0.0
H420 H 0.52818 0.42142 0.14619 0.0
C421 C 0.57387 0.46426 0.28503 0.0
C422 C 0.58656 0.5132 0.30977 0.0
C423 C 0.60422 0.57349 0.29994 0.0
C424 C 0.60715 0.58558 0.26539 0.0
C425 C 0.59383 0.5364 0.24133 0.0
C426 C 0.57839 0.47673 0.25082 0.0
C427 C 0.56193 0.43304 0.21977 0.0
C428 C 0.61735 0.38135 0.22153 0.0
C429 C 0.48826 0.40511 0.21619 0.0
C430 C 0.56642 0.47823 0.19116 0.0
C431 C 0.58589 0.53744 0.20404 0.0
C432 C 0.58608 0.58829 0.1823 0.0
C433 C 0.56326 0.57876 0.14659 0.0
C434 C 0.54036 0.51891 0.13316 0.0
C435 C 0.54527 0.46774 0.15572 0.0
loop_
_geom_bond_atom_site_label_1
_geom_bond_atom_site_label_2
_geom_bond_distance
_geom_bond_site_symmetry_2
_ccdc_geom_bond_type
C0 O16 1.251 . S
C0 O18 1.254 1_554 S
N1 C2 1.333 1_445 S
N1 C6 1.307 . S
N1 Zn7 2.020 . S
C2 N1 1.333 1_665 S
C2 C3 1.379 . S
C2 H20 0.952 . S
C3 C2 1.379 . S
C3 C4 1.390 1_665 S
C3 H30 0.949 . S
C4 C3 1.390 1_445 S
C4 C5 1.357 . S
C5 C4 1.357 . S
C5 C6 1.370 . S
C5 H31 0.950 . S
C6 N1 1.307 . S
C6 C5 1.370 . S
C6 H24 0.948 . S
Zn7 N1 2.020 . S
Zn7 O16 2.039 1_445 S
Zn7 O22 2.034 1_455 S
Zn7 O26 2.025 . S
Zn7 O28 2.024 1_545 S
C8 O27 1.246 1_554 S
C8 O28 1.249 . S
N9 C10 1.310 1_545 S
N9 C11 1.329 1_655 S
N9 Zn15 2.020 1_655 S
C10 N9 1.310 1_565 S
C10 C14 1.370 . S
C10 H21 0.948 . S
C11 N9 1.329 1_455 S
C11 C12 1.379 . S
C11 H19 0.952 . S
C12 C11 1.379 . S
C12 C13 1.390 1_455 S
C12 H32 0.949 . S
C13 C12 1.390 1_655 S
C13 C14 1.357 1_545 S
C14 C10 1.370 . S
C14 C13 1.357 1_565 S
C14 H33 0.950 . S
Zn15 N9 2.020 1_455 S
Zn15 O18 2.025 1_445 S
Zn15 O23 2.024 1_455 S
Zn15 O25 2.039 . S
Zn15 O27 2.034 1_545 S
O16 C0 1.251 . S
O16 Zn7 2.039 1_665 S
C17 O22 1.246 . S
C17 O23 1.249 1_554 S
O18 C0 1.254 1_556 S
O18 Zn15 2.025 1_665 S
H19 C11 0.952 . S
H20 C2 0.952 . S
H21 C10 0.948 . S
O22 Zn7 2.034 1_655 S
O22 C17 1.246 . S
O23 Zn15 2.024 1_655 S
O23 C17 1.249 1_556 S
H24 C6 0.948 . S
O25 Zn15 2.039 . S
O25 C29 1.251 1_556 S
O26 Zn7 2.025 . S
O26 C29 1.254 . S
O27 C8 1.246 1_556 S
O27 Zn15 2.034 1_565 S
O28 Zn7 2.024 1_565 S
O28 C8 1.249 . S
C29 O25 1.251 1_554 S
C29 O26 1.254 . S
H30 C3 0.949 . S
H31 C5 0.950 . S
H32 C12 0.949 . S
H33 C14 0.950 . S
C34 O50 1.251 . S
C34 O52 1.254 . S
N35 C36 1.333 . S
N35 C40 1.307 . S
N35 Zn41 2.020 . S
C36 N35 1.333 . S
C36 C37 1.379 . S
C36 H54 0.952 . S
C37 C36 1.379 . S
C37 C38 1.390 . S
C37 H64 0.949 . S
C38 C37 1.390 . S
C38 C39 1.357 . S
C39 C38 1.357 . S
C39 C40 1.370 . S
C39 H65 0.950 . S
C40 N35 1.307 . S
C40 C39 1.370 . S
C40 H58 0.948 . S
Zn41 N35 2.020 . S
Zn41 O50 2.039 . S
Zn41 O56 2.034 . S
Zn41 O60 2.025 . S
Zn41 O62 2.024 . S
C42 O61 1.246 . S
C42 O62 1.249 . S
N43 C44 1.307 . S
N43 C45 1.333 . S
N43 Zn49 2.020 . S
C44 N43 1.307 . S
C44 C48 1.370 . S
C44 H55 0.948 . S
C45 N43 1.333 . S
C45 C46 1.379 . S
C45 H53 0.952 . S
C46 C45 1.379 . S
C46 C47 1.390 . S
C46 H66 0.949 . S
C47 C46 1.390 . S
C47 C48 1.357 . S
C48 C44 1.370 . S
C48 C47 1.357 . S
C48 H67 0.950 . S
Zn49 N43 2.020 . S
Zn49 O52 2.025 . S
Zn49 O57 2.024 . S
Zn49 O59 2.039 . S
Zn49 O61 2.034 . S
O50 C34 1.251 . S
O50 Zn41 2.039 . S
C51 O56 1.246 . S
C51 O57 1.249 . S
O52 C34 1.254 . S
O52 Zn49 2.025 . S
H53 C45 0.952 . S
H54 C36 0.952 . S
H55 C44 0.948 . S
O56 Zn41 2.034 . S
O56 C51 1.246 . S
O57 Zn49 2.024 . S
O57 C51 1.249 . S
H58 C40 0.948 . S
O59 Zn49 2.039 . S
O59 C63 1.251 . S
O60 Zn41 2.025 . S
O60 C63 1.254 . S
O61 C42 1.246 . S
O61 Zn49 2.034 . S
O62 Zn41 2.024 . S
O62 C42 1.249 . S
C63 O59 1.251 . S
C63 O60 1.254 . S
H64 C37 0.949 . S
H65 C39 0.950 . S
H66 C46 0.949 . S
H67 C48 0.950 . S
H68 C71 0.929 . S
H69 C74 0.929 1_655 S
H70 C76 0.930 . S
C71 H68 0.929 . S
C71 C72 1.398 . S
C71 C73 1.396 1_565 S
C72 C71 1.398 . S
C72 C76 1.407 . S
C73 C71 1.396 1_545 S
C73 C74 1.394 . S
C74 H69 0.929 1_455 S
C74 C73 1.394 . S
C74 C75 1.382 . S
C75 C74 1.382 . S
C75 C76 1.392 1_545 S
C75 N77 1.420 1_455 S
C76 H70 0.930 . S
C76 C72 1.407 . S
C76 C75 1.392 1_565 S
N77 C75 1.420 1_655 S
N77 C78 1.244 . S
C78 N77 1.244 . S
H79 C82 0.929 . S
H80 C85 0.929 . S
H81 C87 0.930 . S
C82 H79 0.929 . S
C82 C83 1.398 . S
C82 C84 1.396 1_565 S
C83 C82 1.398 . S
C83 C87 1.407 . S
C84 C82 1.396 1_545 S
C84 C85 1.394 1_655 S
C85 H80 0.929 . S
C85 C84 1.394 1_455 S
C85 C86 1.382 . S
C86 C85 1.382 . S
C86 C87 1.392 1_445 S
C86 N88 1.420 . S
C87 H81 0.930 . S
C87 C83 1.407 . S
C87 C86 1.392 1_665 S
N88 C86 1.420 . S
N88 C89 1.244 . S
C89 N88 1.244 . S
H90 C93 0.929 . S
H91 C96 0.929 . S
H92 C98 0.930 1_554 S
C93 H90 0.929 . S
C93 C94 1.398 . S
C93 C95 1.396 . S
C94 C93 1.398 . S
C94 C98 1.407 . S
C95 C93 1.396 . S
C95 C96 1.394 . S
C96 H91 0.929 . S
C96 C95 1.394 . S
C96 C97 1.382 . S
C97 C96 1.382 . S
C97 C98 1.392 . S
C97 N99 1.420 . S
C98 H92 0.930 1_556 S
C98 C94 1.407 . S
C98 C97 1.392 . S
N99 C97 1.420 . S
N99 C100 1.244 . S
C100 N99 1.244 . S
H101 C104 0.929 . S
H102 C107 0.929 . S
H103 C109 0.930 1_556 S
C104 H101 0.929 . S
C104 C105 1.398 . S
C104 C106 1.396 . S
C105 C104 1.398 . S
C105 C109 1.407 . S
C106 C104 1.396 . S
C106 C107 1.394 . S
C107 H102 0.929 . S
C107 C106 1.394 . S
C107 C108 1.382 . S
C108 C107 1.382 . S
C108 C109 1.392 . S
C108 N110 1.420 . S
C109 H103 0.930 1_554 S
C109 C105 1.407 . S
C109 C108 1.392 . S
N110 C108 1.420 . S
N110 C111 1.244 . S
C111 N110 1.244 . S
H112 C124 0.930 . S
H113 C126 0.930 . S
H114 C127 0.930 . S
H115 C131 0.959 . S
H116 C131 0.959 . S
H117 C131 0.961 . S
H118 C132 0.960 . S
H119 C132 0.961 . S
H120 C132 0.959 . S
H121 C135 0.929 . S
H122 C136 0.931 . S
H123 C138 0.930 1_556 S
C124 H112 0.930 . S
C124 C125 1.399 1_556 S
C124 C129 1.400 . S
C125 C124 1.399 1_554 S
C125 C126 1.376 . S
C126 H113 0.930 . S
C126 C125 1.376 . S
C126 C127 1.388 . S
C127 H114 0.930 . S
C127 C126 1.388 . S
C127 C128 1.390 . S
C128 C127 1.390 . S
C128 C129 1.385 1_554 S
C128 C134 1.465 . S
C129 C124 1.400 . S
C129 C128 1.385 1_556 S
C129 C130 1.522 . S
C130 C129 1.522 . S
C130 C131 1.502 . S
C130 C132 1.561 . S
C130 C133 1.526 1_556 S
C131 H115 0.959 . S
C131 H116 0.959 . S
C131 H117 0.961 . S
C131 C130 1.502 . S
C132 H118 0.960 . S
C132 H119 0.961 . S
C132 H120 0.959 . S
C132 C130 1.561 . S
C133 C130 1.526 1_554 S
C133 C134 1.396 . S
C133 C138 1.390 . S
C134 C128 1.465 . S
C134 C133 1.396 . S
C134 C135 1.399 . S
C135 H121 0.929 . S
C135 C134 1.399 . S
C135 C136 1.385 . S
C136 H122 0.931 . S
C136 C135 1.385 . S
C136 C137 1.389 . S
C137 C136 1.389 . S
C137 C138 1.387 . S
C138 H123 0.930 1_554 S
C138 C133 1.390 . S
C138 C137 1.387 . S
H139 C151 0.930 . S
H140 C153 0.930 . S
H141 C154 0.930 . S
H142 C158 0.959 . S
H143 C158 0.959 . S
H144 C158 0.961 . S
H145 C159 0.960 . S
H146 C159 0.961 . S
H147 C159 0.959 . S
H148 C162 0.929 . S
H149 C163 0.931 . S
H150 C165 0.930 . S
C151 H139 0.930 . S
C151 C152 1.399 1_556 S
C151 C156 1.399 . S
C152 C151 1.399 1_554 S
C152 C153 1.376 . S
C153 H140 0.930 . S
C153 C152 1.376 . S
C153 C154 1.388 . S
C154 H141 0.930 . S
C154 C153 1.388 . S
C154 C155 1.390 . S
C155 C154 1.390 . S
C155 C156 1.394 1_554 S
C155 C161 1.465 . S
C156 C151 1.399 . S
C156 C155 1.394 1_556 S
C156 C157 1.516 . S
C157 C156 1.516 . S
C157 C158 1.502 . S
C157 C159 1.561 . S
C157 C160 1.526 . S
C158 H142 0.959 . S
C158 H143 0.959 . S
C158 H144 0.961 . S
C158 C157 1.502 . S
C159 H145 0.960 . S
C159 H146 0.961 . S
C159 H147 0.959 . S
C159 C157 1.561 . S
C160 C157 1.526 . S
C160 C161 1.396 1_556 S
C160 C165 1.390 . S
C161 C155 1.465 . S
C161 C160 1.396 1_554 S
C161 C162 1.399 . S
C162 H148 0.929 . S
C162 C161 1.399 . S
C162 C163 1.385 . S
C163 H149 0.931 . S
C163 C162 1.385 . S
C163 C164 1.389 . S
C164 C163 1.389 . S
C164 C165 1.387 1_554 S
C165 H150 0.930 . S
C165 C160 1.390 . S
C165 C164 1.387 1_556 S
H166 C178 0.930 . S
H167 C180 0.930 . S
H168 C181 0.930 . S
H169 C185 0.959 . S
H170 C185 0.959 . S
H171 C185 0.961 . S
H172 C186 0.960 . S
H173 C186 0.961 . S
H174 C186 0.959 . S
H175 C189 0.929 . S
H176 C190 0.931 . S
H177 C192 0.930 . S
C178 H166 0.930 . S
C178 C179 1.399 1_556 S
C178 C183 1.399 . S
C179 C178 1.399 1_554 S
C179 C180 1.376 . S
C180 H167 0.930 . S
C180 C179 1.376 . S
C180 C181 1.388 . S
C181 H168 0.930 . S
C181 C180 1.388 . S
C181 C182 1.390 . S
C182 C181 1.390 . S
C182 C183 1.394 1_554 S
C182 C188 1.465 . S
C183 C178 1.399 . S
C183 C182 1.394 1_556 S
C183 C184 1.516 . S
C184 C183 1.516 . S
C184 C185 1.502 . S
C184 C186 1.561 . S
C184 C187 1.526 . S
C185 H169 0.959 . S
C185 H170 0.959 . S
C185 H171 0.961 . S
C185 C184 1.502 . S
C186 H172 0.960 . S
C186 H173 0.961 . S
C186 H174 0.959 . S
C186 C184 1.561 . S
C187 C184 1.526 . S
C187 C188 1.396 1_556 S
C187 C192 1.390 . S
C188 C182 1.465 . S
C188 C187 1.396 1_554 S
C188 C189 1.399 . S
C189 H175 0.929 . S
C189 C188 1.399 . S
C189 C190 1.385 . S
C190 H176 0.931 . S
C190 C189 1.385 . S
C190 C191 1.389 . S
C191 C190 1.389 . S
C191 C192 1.387 1_554 S
C192 H177 0.930 . S
C192 C187 1.390 . S
C192 C191 1.387 1_556 S
H193 C205 0.930 . S
H194 C207 0.930 . S
H195 C208 0.930 . S
H196 C212 0.959 . S
H197 C212 0.959 . S
H198 C212 0.961 . S
H199 C213 0.960 . S
H200 C213 0.961 . S
H201 C213 0.959 . S
H202 C216 0.929 . S
H203 C217 0.931 . S
H204 C219 0.930 . S
C205 H193 0.930 . S
C205 C206 1.399 1_556 S
C205 C210 1.399 . S
C206 C205 1.399 1_554 S
C206 C207 1.376 . S
C207 H194 0.930 . S
C207 C206 1.376 . S
C207 C208 1.388 . S
C208 H195 0.930 . S
C208 C207 1.388 . S
C208 C209 1.390 . S
C209 C208 1.390 . S
C209 C210 1.394 1_554 S
C209 C215 1.465 . S
C210 C205 1.399 . S
C210 C209 1.394 1_556 S
C210 C211 1.516 . S
C211 C210 1.516 . S
C211 C212 1.502 . S
C211 C213 1.561 . S
C211 C214 1.526 . S
C212 H196 0.959 . S
C212 H197 0.959 . S
C212 H198 0.961 . S
C212 C211 1.502 . S
C213 H199 0.960 . S
C213 H200 0.961 . S
C213 H201 0.959 . S
C213 C211 1.561 . S
C214 C211 1.526 . S
C214 C215 1.396 1_556 S
C214 C219 1.390 . S
C215 C209 1.465 . S
C215 C214 1.396 1_554 S
C215 C216 1.399 . S
C216 H202 0.929 . S
C216 C215 1.399 . S
C216 C217 1.385 . S
C217 H203 0.931 . S
C217 C216 1.385 . S
C217 C218 1.389 1_554 S
C218 C217 1.389 1_556 S
C218 C219 1.387 . S
C219 H204 0.930 . S
C219 C214 1.390 . S
C219 C218 1.387 . S
H220 C232 0.930 . S
H221 C234 0.930 . S
H222 C235 0.930 . S
H223 C239 0.959 . S
H224 C239 0.959 . S
H225 C239 0.961 . S
H226 C240 0.960 . S
H227 C240 0.961 . S
H228 C240 0.959 . S
H229 C243 0.929 . S
H230 C244 0.931 . S
H231 C246 0.930 . S
C232 H220 0.930 . S
C232 C233 1.399 . S
C232 C237 1.399 . S
C233 C232 1.399 . S
C233 C234 1.376 . S
C234 H221 0.930 . S
C234 C233 1.376 . S
C234 C235 1.388 . S
C235 H222 0.930 . S
C235 C234 1.388 . S
C235 C236 1.390 . S
C236 C235 1.390 . S
C236 C237 1.394 . S
C236 C242 1.465 . S
C237 C232 1.399 . S
C237 C236 1.394 . S
C237 C238 1.516 . S
C238 C237 1.516 . S
C238 C239 1.502 . S
C238 C240 1.561 . S
C238 C241 1.526 . S
C239 H223 0.959 . S
C239 H224 0.959 . S
C239 H225 0.961 . S
C239 C238 1.502 . S
C240 H226 0.960 . S
C240 H227 0.961 . S
C240 H228 0.959 . S
C240 C238 1.561 . S
C241 C238 1.526 . S
C241 C242 1.396 . S
C241 C246 1.390 . S
C242 C236 1.465 . S
C242 C241 1.396 . S
C242 C243 1.399 . S
C243 H229 0.929 . S
C243 C242 1.399 . S
C243 C244 1.385 . S
C244 H230 0.931 . S
C244 C243 1.385 . S
C244 C245 1.389 . S
C245 C244 1.389 . S
C245 C246 1.387 . S
C246 H231 0.930 . S
C246 C241 1.390 . S
C246 C245 1.387 . S
H247 C259 0.930 . S
H248 C261 0.930 . S
H249 C262 0.930 . S
H250 C266 0.959 . S
H251 C266 0.959 . S
H252 C266 0.961 . S
H253 C267 0.960 . S
H254 C267 0.961 . S
H255 C267 0.959 . S
H256 C270 0.929 . S
H257 C271 0.931 . S
H258 C273 0.930 . S
C259 H247 0.930 . S
C259 C260 1.399 . S
C259 C264 1.399 . S
C260 C259 1.399 . S
C260 C261 1.376 . S
C261 H248 0.930 . S
C261 C260 1.376 . S
C261 C262 1.388 . S
C262 H249 0.930 . S
C262 C261 1.388 . S
C262 C263 1.390 . S
C263 C262 1.390 . S
C263 C264 1.394 . S
C263 C269 1.465 . S
C264 C259 1.399 . S
C264 C263 1.394 . S
C264 C265 1.516 . S
C265 C264 1.516 . S
C265 C266 1.502 . S
C265 C267 1.561 . S
C265 C268 1.526 . S
C266 H250 0.959 . S
C266 H251 0.959 . S
C266 H252 0.961 . S
C266 C265 1.502 . S
C267 H253 0.960 . S
C267 H254 0.961 . S
C267 H255 0.959 . S
C267 C265 1.561 . S
C268 C265 1.526 . S
C268 C269 1.396 . S
C268 C273 1.390 . S
C269 C263 1.465 . S
C269 C268 1.396 . S
C269 C270 1.399 . S
C270 H256 0.929 . S
C270 C269 1.399 . S
C270 C271 1.385 . S
C271 H257 0.931 . S
C271 C270 1.385 . S
C271 C272 1.389 . S
C272 C271 1.389 . S
C272 C273 1.387 . S
C273 H258 0.930 . S
C273 C268 1.390 . S
C273 C272 1.387 . S
H274 C286 0.930 . S
H275 C288 0.930 . S
H276 C289 0.930 . S
H277 C293 0.959 . S
H278 C293 0.959 . S
H279 C293 0.961 . S
H280 C294 0.960 . S
H281 C294 0.961 . S
H282 C294 0.959 . S
H283 C297 0.929 . S
H284 C298 0.931 . S
H285 C300 0.930 . S
C286 H274 0.930 . S
C286 C287 1.399 . S
C286 C291 1.399 . S
C287 C286 1.399 . S
C287 C288 1.376 . S
C288 H275 0.930 . S
C288 C287 1.376 . S
C288 C289 1.388 . S
C289 H276 0.930 . S
C289 C288 1.388 . S
C289 C290 1.390 . S
C290 C289 1.390 . S
C290 C291 1.394 . S
C290 C296 1.465 . S
C291 C286 1.399 . S
C291 C290 1.394 . S
C291 C292 1.516 . S
C292 C291 1.516 . S
C292 C293 1.502 . S
C292 C294 1.561 . S
C292 C295 1.526 . S
C293 H277 0.959 . S
C293 H278 0.959 . S
C293 H279 0.961 . S
C293 C292 1.502 . S
C294 H280 0.960 . S
C294 H281 0.961 . S
C294 H282 0.959 . S
C294 C292 1.561 . S
C295 C292 1.526 . S
C295 C296 1.396 . S
C295 C300 1.390 . S
C296 C290 1.465 . S
C296 C295 1.396 . S
C296 C297 1.399 . S
C297 H283 0.929 . S
C297 C296 1.399 . S
C297 C298 1.385 . S
C298 H284 0.931 . S
C298 C297 1.385 . S
C298 C299 1.389 . S
C299 C298 1.389 . S
C299 C300 1.387 . S
C300 H285 0.930 . S
C300 C295 1.390 . S
C300 C299 1.387 . S
H301 C313 0.930 . S
H302 C315 0.930 . S
H303 C316 0.930 . S
H304 C320 0.959 . S
H305 C320 0.959 . S
H306 C320 0.961 . S
H307 C321 0.960 . S
H308 C321 0.961 . S
H309 C321 0.959 . S
H310 C324 0.929 . S
H311 C325 0.931 . S
H312 C327 0.930 . S
C313 H301 0.930 . S
C313 C314 1.399 . S
C313 C318 1.399 . S
C314 C313 1.399 . S
C314 C315 1.376 . S
C315 H302 0.930 . S
C315 C314 1.376 . S
C315 C316 1.388 . S
C316 H303 0.930 . S
C316 C315 1.388 . S
C316 C317 1.390 . S
C317 C316 1.390 . S
C317 C318 1.394 . S
C317 C323 1.465 . S
C318 C313 1.399 . S
C318 C317 1.394 . S
C318 C319 1.516 . S
C319 C318 1.516 . S
C319 C320 1.502 . S
C319 C321 1.561 . S
C319 C322 1.526 . S
C320 H304 0.959 . S
C320 H305 0.959 . S
C320 H306 0.961 . S
C320 C319 1.502 . S
C321 H307 0.960 . S
C321 H308 0.961 . S
C321 H309 0.959 . S
C321 C319 1.561 . S
C322 C319 1.526 . S
C322 C323 1.396 . S
C322 C327 1.390 . S
C323 C317 1.465 . S
C323 C322 1.396 . S
C323 C324 1.399 . S
C324 H310 0.929 . S
C324 C323 1.399 . S
C324 C325 1.385 . S
C325 H311 0.931 . S
C325 C324 1.385 . S
C325 C326 1.389 . S
C326 C325 1.389 . S
C326 C327 1.387 . S
C327 H312 0.930 . S
C327 C322 1.390 . S
C327 C326 1.387 . S
H328 C340 0.930 . S
H329 C342 0.930 . S
H330 C343 0.930 . S
H331 C347 0.959 . S
H332 C347 0.959 . S
H333 C347 0.961 . S
H334 C348 0.960 . S
H335 C348 0.961 . S
H336 C348 0.959 . S
H337 C351 0.929 . S
H338 C352 0.931 . S
H339 C354 0.930 . S
C340 H328 0.930 . S
C340 C341 1.399 1_565 S
C340 C345 1.399 . S
C341 C340 1.399 1_545 S
C341 C342 1.376 . S
C342 H329 0.930 . S
C342 C341 1.376 . S
C342 C343 1.388 . S
C343 H330 0.930 . S
C343 C342 1.388 . S
C343 C344 1.390 . S
C344 C343 1.390 . S
C344 C345 1.394 1_545 S
C344 C350 1.465 . S
C345 C340 1.399 . S
C345 C344 1.394 1_565 S
C345 C346 1.516 . S
C346 C345 1.516 . S
C346 C347 1.502 1_455 S
C346 C348 1.561 . S
C346 C349 1.526 . S
C347 H331 0.959 . S
C347 H332 0.959 . S
C347 H333 0.961 . S
C347 C346 1.502 1_655 S
C348 H334 0.960 . S
C348 H335 0.961 . S
C348 H336 0.959 . S
C348 C346 1.561 . S
C349 C346 1.526 . S
C349 C350 1.396 1_565 S
C349 C354 1.390 . S
C350 C344 1.465 . S
C350 C349 1.396 1_545 S
C350 C351 1.399 . S
C351 H337 0.929 . S
C351 C350 1.399 . S
C351 C352 1.385 . S
C352 H338 0.931 . S
C352 C351 1.385 . S
C352 C353 1.389 . S
C353 C352 1.389 . S
C353 C354 1.387 1_545 S
C354 H339 0.930 . S
C354 C349 1.390 . S
C354 C353 1.387 1_565 S
H355 C367 0.930 . S
H356 C369 0.930 . S
H357 C370 0.930 . S
H358 C374 0.959 . S
H359 C374 0.959 . S
H360 C374 0.961 . S
H361 C375 0.960 . S
H362 C375 0.961 . S
H363 C375 0.959 . S
H364 C378 0.929 . S
H365 C379 0.931 . S
H366 C381 0.930 . S
C367 H355 0.930 . S
C367 C368 1.399 . S
C367 C372 1.399 . S
C368 C367 1.399 . S
C368 C369 1.376 1_645 S
C369 H356 0.930 . S
C369 C368 1.376 1_465 S
C369 C370 1.388 . S
C370 H357 0.930 . S
C370 C369 1.388 . S
C370 C371 1.390 . S
C371 C370 1.390 . S
C371 C372 1.394 1_465 S
C371 C377 1.465 . S
C372 C367 1.399 . S
C372 C371 1.394 1_645 S
C372 C373 1.516 . S
C373 C372 1.516 . S
C373 C374 1.502 . S
C373 C375 1.561 1_655 S
C373 C376 1.526 . S
C374 H358 0.959 . S
C374 H359 0.959 . S
C374 H360 0.961 . S
C374 C373 1.502 . S
C375 H361 0.960 . S
C375 H362 0.961 . S
C375 H363 0.959 . S
C375 C373 1.561 1_455 S
C376 C373 1.526 . S
C376 C377 1.396 1_645 S
C376 C381 1.390 . S
C377 C371 1.465 . S
C377 C376 1.396 1_465 S
C377 C378 1.399 . S
C378 H364 0.929 . S
C378 C377 1.399 . S
C378 C379 1.385 . S
C379 H365 0.931 . S
C379 C378 1.385 . S
C379 C380 1.389 1_465 S
C380 C379 1.389 1_645 S
C380 C381 1.387 . S
C381 H366 0.930 . S
C381 C376 1.390 . S
C381 C380 1.387 . S
H382 C394 0.930 . S
H383 C396 0.930 . S
H384 C397 0.930 . S
H385 C401 0.959 . S
H386 C401 0.959 . S
H387 C401 0.961 . S
H388 C402 0.960 . S
H389 C402 0.961 . S
H390 C402 0.959 . S
H391 C405 0.929 . S
H392 C406 0.931 . S
H393 C408 0.930 . S
C394 H382 0.930 . S
C394 C395 1.399 . S
C394 C399 1.399 . S
C395 C394 1.399 . S
C395 C396 1.376 . S
C396 H383 0.930 . S
C396 C395 1.376 . S
C396 C397 1.388 . S
C397 H384 0.930 . S
C397 C396 1.388 . S
C397 C398 1.390 . S
C398 C397 1.390 . S
C398 C399 1.394 . S
C398 C404 1.465 . S
C399 C394 1.399 . S
C399 C398 1.394 . S
C399 C400 1.516 . S
C400 C399 1.516 . S
C400 C401 1.502 . S
C400 C402 1.561 . S
C400 C403 1.526 . S
C401 H385 0.959 . S
C401 H386 0.959 . S
C401 H387 0.961 . S
C401 C400 1.502 . S
C402 H388 0.960 . S
C402 H389 0.961 . S
C402 H390 0.959 . S
C402 C400 1.561 . S
C403 C400 1.526 . S
C403 C404 1.396 . S
C403 C408 1.390 . S
C404 C398 1.465 . S
C404 C403 1.396 . S
C404 C405 1.399 . S
C405 H391 0.929 . S
C405 C404 1.399 . S
C405 C406 1.385 . S
C406 H392 0.931 . S
C406 C405 1.385 . S
C406 C407 1.389 . S
C407 C406 1.389 . S
C407 C408 1.387 . S
C408 H393 0.930 . S
C408 C403 1.390 . S
C408 C407 1.387 . S
H409 C421 0.930 . S
H410 C423 0.930 . S
H411 C424 0.930 . S
H412 C428 0.959 . S
H413 C428 0.959 . S
H414 C428 0.961 . S
H415 C429 0.960 . S
H416 C429 0.961 . S
H417 C429 0.959 . S
H418 C432 0.929 . S
H419 C433 0.931 . S
H420 C435 0.930 . S
C421 H409 0.930 . S
C421 C422 1.399 . S
C421 C426 1.399 . S
C422 C421 1.399 . S
C422 C423 1.376 . S
C423 H410 0.930 . S
C423 C422 1.376 . S
C423 C424 1.388 . S
C424 H411 0.930 . S
C424 C423 1.388 . S
C424 C425 1.390 . S
C425 C424 1.390 . S
C425 C426 1.394 . S
C425 C431 1.465 . S
C426 C421 1.399 . S
C426 C425 1.394 . S
C426 C427 1.516 . S
C427 C426 1.516 . S
C427 C428 1.502 . S
C427 C429 1.561 . S
C427 C430 1.526 . S
C428 H412 0.959 . S
C428 H413 0.959 . S
C428 H414 0.961 . S
C428 C427 1.502 . S
C429 H415 0.960 . S
C429 H416 0.961 . S
C429 H417 0.959 . S
C429 C427 1.561 . S
C430 C427 1.526 . S
C430 C431 1.396 . S
C430 C435 1.390 . S
C431 C425 1.465 . S
C431 C430 1.396 . S
C431 C432 1.399 . S
C432 H418 0.929 . S
C432 C431 1.399 . S
C432 C433 1.385 . S
C433 H419 0.931 . S
C433 C432 1.385 . S
C433 C434 1.389 . S
C434 C433 1.389 . S
C434 C435 1.387 . S
C435 H420 0.930 . S
C435 C430 1.390 . S
C435 C434 1.387 . S
C137 C105 1.421 . S
C125 C29 1.475 . S
C152 C8 1.396 . S
C164 C100 1.394 1_554 S
C179 C0 1.402 . S
C191 C111 1.330 . S
C206 C17 1.482 . S
C218 C94 1.475 . S
C233 C63 1.485 . S
C245 C83 1.468 . S
C260 C42 1.395 . S
C272 C78 1.392 . S
C299 C89 1.399 . S
C287 C34 1.407 . S
C326 C72 1.432 . S
C314 C51 1.483 . S
C341 C4 1.508 . S
C353 C73 1.513 . S
C368 C13 1.499 . S
C380 C84 1.489 . S
C407 C95 1.498 . S
C395 C38 1.515 . S
C422 C47 1.508 . S
C434 C106 1.503 . S
