# Generated by pormake.
# Topology zzz, (3,6)-cn, num edge types: 1
# Building blocks:
#     Node 0, Type 0, BuildingBlock: QEWDON_clean_linker_0, # of connection points: 3
#     Node 1, Type 0, BuildingBlock: QEWDON_clean_linker_0, # of connection points: 3
#     Node 2, Type 0, BuildingBlock: QEWDON_clean_linker_0, # of connection points: 3
#     Node 3, Type 0, BuildingBlock: QEWDON_clean_linker_0, # of connection points: 3
#     Node 4, Type 0, BuildingBlock: QEWDON_clean_linker_0, # of connection points: 3
#     Node 5, Type 0, BuildingBlock: QEWDON_clean_linker_0, # of connection points: 3
#     Node 6, Type 0, BuildingBlock: QEWDON_clean_linker_0, # of connection points: 3
#     Node 7, Type 0, BuildingBlock: QEWDON_clean_linker_0, # of connection points: 3
#     Node 8, Type 1, BuildingBlock: KUMBOL_clean_sbu_1, # of connection points: 6
#     Node 9, Type 1, BuildingBlock: KUMBOL_clean_sbu_1, # of connection points: 6
#     Node 10, Type 1, BuildingBlock: KUMBOL_clean_sbu_1, # of connection points: 6
#     Node 11, Type 1, BuildingBlock: KUMBOL_clean_sbu_1, # of connection points: 6
#     Edge 12, Type (0, 1), BuildingBlock: AJUNOK_clean_linker_0, # of connection points: 2
#     Edge 13, Type (0, 1), BuildingBlock: AJUNOK_clean_linker_0, # of connection points: 2
#     Edge 14, Type (0, 1), BuildingBlock: AJUNOK_clean_linker_0, # of connection points: 2
#     Edge 15, Type (0, 1), BuildingBlock: AJUNOK_clean_linker_0, # of connection points: 2
#     Edge 16, Type (0, 1), BuildingBlock: AJUNOK_clean_linker_0, # of connection points: 2
#     Edge 17, Type (0, 1), BuildingBlock: AJUNOK_clean_linker_0, # of connection points: 2
#     Edge 18, Type (0, 1), BuildingBlock: AJUNOK_clean_linker_0, # of connection points: 2
#     Edge 19, Type (0, 1), BuildingBlock: AJUNOK_clean_linker_0, # of connection points: 2
#     Edge 20, Type (0, 1), BuildingBlock: AJUNOK_clean_linker_0, # of connection points: 2
#     Edge 21, Type (0, 1), BuildingBlock: AJUNOK_clean_linker_0, # of connection points: 2
#     Edge 22, Type (0, 1), BuildingBlock: AJUNOK_clean_linker_0, # of connection points: 2
#     Edge 23, Type (0, 1), BuildingBlock: AJUNOK_clean_linker_0, # of connection points: 2
#     Edge 24, Type (0, 1), BuildingBlock: AJUNOK_clean_linker_0, # of connection points: 2
#     Edge 25, Type (0, 1), BuildingBlock: AJUNOK_clean_linker_0, # of connection points: 2
#     Edge 26, Type (0, 1), BuildingBlock: AJUNOK_clean_linker_0, # of connection points: 2
#     Edge 27, Type (0, 1), BuildingBlock: AJUNOK_clean_linker_0, # of connection points: 2
#     Edge 28, Type (0, 1), BuildingBlock: AJUNOK_clean_linker_0, # of connection points: 2
#     Edge 29, Type (0, 1), BuildingBlock: AJUNOK_clean_linker_0, # of connection points: 2
#     Edge 30, Type (0, 1), BuildingBlock: AJUNOK_clean_linker_0, # of connection points: 2
#     Edge 31, Type (0, 1), BuildingBlock: AJUNOK_clean_linker_0, # of connection points: 2
#     Edge 32, Type (0, 1), BuildingBlock: AJUNOK_clean_linker_0, # of connection points: 2
#     Edge 33, Type (0, 1), BuildingBlock: AJUNOK_clean_linker_0, # of connection points: 2
#     Edge 34, Type (0, 1), BuildingBlock: AJUNOK_clean_linker_0, # of connection points: 2
#     Edge 35, Type (0, 1), BuildingBlock: AJUNOK_clean_linker_0, # of connection points: 2
# Relax obj value: 0.159
# Max RMSD: 0.112
# Mean RMSD: 0.043
data_MOF--net-zzz--node1-KUMBOL_clean_sbu_1--node2-QEWDON_clean_linker_0--edge1-AJUNOK_clean_linker_0
_symmetry_space_group_name_H-M    P1
_symmetry_Int_Tables_number       1
_symmetry_cell_setting            triclinic
loop_
_symmetry_equiv_pos_as_xyz
'x, y, z'
_cell_length_a     39.348961
_cell_length_b     39.27345
_cell_length_c     11.542445
_cell_angle_alpha  89.961729
_cell_angle_beta   90.346411
_cell_angle_gamma 89.793911
loop_
_atom_site_label
_atom_site_type_symbol
_atom_site_fract_x
_atom_site_fract_y
_atom_site_fract_z
_atom_type_partial_charge
H0 H 0.78059 0.50941 0.18849 0.0
C1 C 0.79925 0.51645 0.25326 0.0
C2 C 0.83207 0.50387 0.24036 0.0
C3 C 0.79035 0.53641 0.34969 0.0
H4 H 0.88265 0.502 0.30597 0.0
C5 C 0.85702 0.51078 0.32319 0.0
C6 C 0.84973 0.5279 0.42674 0.0
C7 C 0.81602 0.54155 0.43831 0.0
C8 C 0.75366 0.54902 0.35803 0.0
H9 H 0.80982 0.55552 0.51584 0.0
C10 C 0.73162 0.55217 0.25842 0.0
C11 C 0.69635 0.56021 0.26891 0.0
C12 C 0.73943 0.55578 0.46699 0.0
H13 H 0.75417 0.55307 0.54577 0.0
C14 C 0.70531 0.56496 0.47745 0.0
H15 H 0.74163 0.5487 0.1723 0.0
C16 C 0.68405 0.56698 0.38039 0.0
H17 H 0.65748 0.57284 0.3932 0.0
H18 H 0.69503 0.56956 0.56259 0.0
H19 H 0.0756 0.77738 0.19963 0.0
C20 C 0.06951 0.79564 0.26655 0.0
C21 C 0.0836 0.82787 0.2574 0.0
C22 C 0.04951 0.78661 0.36204 0.0
H23 H 0.08906 0.87738 0.33157 0.0
C24 C 0.07849 0.85216 0.34376 0.0
C25 C 0.06059 0.8446 0.44511 0.0
C26 C 0.04509 0.81171 0.45256 0.0
C27 C 0.03689 0.75001 0.36828 0.0
H28 H 1.03039 0.80578 0.52872 0.0
C29 C 1.03333 0.72867 0.26739 0.0
C30 C 1.02731 0.69288 0.27595 0.0
C31 C 1.03176 0.73485 0.4767 0.0
H32 H 1.03489 0.74913 0.55607 0.0
C33 C 1.02414 0.70038 0.48565 0.0
H34 H 1.03506 0.73983 0.18216 0.0
C35 C 1.02215 0.67968 0.38759 0.0
H36 H 1.01781 0.65281 0.40022 0.0
H37 H 1.02122 0.68938 0.57052 0.0
H38 H 0.81798 0.08242 0.24898 0.0
C39 C 0.79856 0.07287 0.30658 0.0
C40 C 0.76792 0.09054 0.31365 0.0
C41 C 0.80436 0.0436 0.37419 0.0
H42 H 0.71826 0.0921 0.38926 0.0
C43 C 0.74241 0.07897 0.38815 0.0
C44 C 0.74584 0.04908 0.45269 0.0
C45 C 0.77748 1.03142 0.44716 0.0
C46 C 0.8397 1.02871 0.37439 0.0
H47 H 0.78094 1.00826 0.49686 0.0
C48 C 0.86047 1.0279 0.27292 0.0
C49 C 0.89605 1.02084 0.27985 0.0
C50 C 0.85472 1.02055 0.48105 0.0
H51 H 0.84017 1.02164 0.56033 0.0
C52 C 0.88932 1.01354 0.4886 0.0
H53 H 0.84885 1.03309 0.18961 0.0
C54 C 0.90976 1.01406 0.39029 0.0
H55 H 0.93676 1.0102 0.40163 0.0
H56 H 0.90055 1.00912 0.57255 0.0
H57 H 0.50305 0.80229 0.13976 0.0
C58 C 0.50763 0.78645 0.2148 0.0
C59 C 0.4886 0.75689 0.22413 0.0
C60 C 0.53327 0.79424 0.29538 0.0
H61 H 0.48327 0.70896 0.30585 0.0
C62 C 0.49584 0.73334 0.31162 0.0
C63 C 0.51973 0.73968 0.40018 0.0
C64 C 0.53841 0.77099 0.39117 0.0
C65 C 0.55586 0.82487 0.2702 0.0
H66 H 0.55659 0.77746 0.45766 0.0
C67 C 0.54581 0.852 0.19292 0.0
C68 C 0.56893 0.87776 0.15856 0.0
C69 C 0.58925 0.82562 0.31444 0.0
H70 H 0.59876 0.80568 0.37063 0.0
C71 C 0.61171 0.85145 0.28331 0.0
H72 H 0.52011 0.85378 0.16 0.0
C73 C 0.60186 0.87698 0.20584 0.0
H74 H 0.62015 0.89634 0.18266 0.0
H75 H 0.63731 0.85136 0.31818 0.0
H76 H 0.2962 0.52634 0.31092 0.0
C77 C 0.28056 0.53163 0.23606 0.0
C78 C 0.24645 0.53842 0.25643 0.0
C79 C 0.29425 0.53327 0.12401 0.0
H80 H 0.19726 0.54725 0.18024 0.0
C81 C 0.22384 0.54214 0.163 0.0
C82 C 0.23481 0.54143 0.04801 0.0
C83 C 0.27051 0.53752 0.02848 0.0
C84 C 0.33299 0.53158 0.11182 0.0
H85 H 0.27926 0.53899 0.94018 0.0
C86 C 0.35615 0.5352 0.20876 0.0
C87 C 0.39205 0.532 0.19643 0.0
C88 C 0.34755 0.52627 1.00247 0.0
H89 H 0.33212 0.52321 0.92557 0.0
C90 C 0.38267 0.5244 0.98937 0.0
H91 H 0.34695 0.54035 0.29461 0.0
C92 C 0.40454 0.52652 0.08465 0.0
H93 H 0.43156 0.52449 0.07075 0.0
H94 H 0.39297 0.52129 0.90376 0.0
H95 H 0.04941 0.29491 0.323 0.0
C96 C 0.04835 0.27897 0.24703 0.0
C97 C 0.04142 0.2448 0.26521 0.0
C98 C 0.05339 0.29214 0.13547 0.0
H99 H 0.03547 0.19524 0.19068 0.0
C100 C 0.0412 0.22176 0.17317 0.0
C101 C 0.04626 0.23243 0.05886 0.0
C102 C 0.05245 0.26807 0.03987 0.0
C103 C 0.05997 0.33054 0.12439 0.0
H104 H 0.05548 0.27666 0.95164 0.0
C105 C 0.05363 0.35468 0.2168 0.0
C106 C 0.06399 0.38937 0.20954 0.0
C107 C 0.07464 0.34346 0.02285 0.0
H108 H 0.08042 0.3271 0.95035 0.0
C109 C 0.08311 0.37782 1.01328 0.0
H110 H 0.04112 0.34715 0.29559 0.0
C111 C 0.07836 0.40032 0.1054 0.0
H112 H 0.08577 0.42661 0.09528 0.0
H113 H 0.09407 0.38691 0.93378 0.0
H114 H 0.28643 0.09944 0.28506 0.0
C115 C 0.30348 0.09067 0.21804 0.0
C116 C 0.33664 0.10269 0.21928 0.0
C117 C 0.29237 0.06806 0.13169 0.0
H118 H 0.38567 0.10107 0.13681 0.0
C119 C 0.35958 0.09242 0.133 0.0
C120 C 0.3507 0.06904 0.04733 0.0
C121 C 0.31654 0.0569 0.0459 0.0
C122 C 0.25498 0.05918 0.12872 0.0
H123 H 0.30908 1.0387 0.98023 0.0
C124 C 0.23417 0.05811 0.23076 0.0
C125 C 0.19804 0.05621 0.22286 0.0
C126 C 0.23884 0.05637 0.02073 0.0
H127 H 0.25319 0.05764 0.94112 0.0
C128 C 0.20368 0.05415 1.01274 0.0
H129 H 0.24581 0.05975 0.31572 0.0
C130 C 0.18349 0.05462 0.11181 0.0
H131 H 0.15619 0.05349 0.10199 0.0
H132 H 0.19217 0.05282 0.92799 0.0
H133 H 0.54705 0.29459 0.30977 0.0
C134 C 0.54498 0.31148 0.2358 0.0
C135 C 0.54973 0.34578 0.25591 0.0
C136 C 0.5419 0.2986 0.12346 0.0
H137 H 0.55462 0.39564 0.18281 0.0
C138 C 0.55018 0.36896 0.164 0.0
C139 C 0.54733 0.35821 0.04858 0.0
C140 C 0.54301 0.3224 0.02811 0.0
C141 C 0.54449 0.26024 0.11329 0.0
H142 H 0.54182 0.31316 0.93986 0.0
C143 C 0.5331 0.23815 0.20459 0.0
C144 C 0.54555 0.20438 0.21545 0.0
C145 C 0.56593 0.24632 0.02891 0.0
H146 H 0.5764 0.26216 0.96124 0.0
C147 C 0.57711 0.21263 0.0377 0.0
H148 H 0.51691 0.24791 0.27251 0.0
C149 C 0.56698 0.1919 0.12891 0.0
H150 H 0.57747 0.16648 0.13546 0.0
H151 H 0.59575 0.20305 0.97823 0.0
C152 C 0.11538 0.10336 0.96911 0.0
C153 C 0.08244 0.12022 0.13675 0.0
C154 C 0.0888 0.09718 0.04525 0.0
C155 C 0.10304 0.14906 0.15062 0.0
C156 C 0.13639 0.13211 0.98397 0.0
C157 C 0.13019 0.15475 0.07547 0.0
N158 N 0.11976 0.08207 0.87735 0.0
C159 C 0.14497 0.08775 0.79875 0.0
C160 C 0.16235 0.13791 0.90406 0.0
C161 C 0.1666 0.11568 0.81095 0.0
Gd162 Gd 1.011 0.04034 0.63789 0.0
Gd163 Gd 0.08343 1.03472 0.86778 0.0
N164 N 0.06944 0.06872 0.0308 0.0
C165 C 0.05606 0.11322 0.21351 0.0
C166 C 0.04645 0.06011 0.114 0.0
C167 C 0.03839 0.08273 0.20318 0.0
H168 H 1.03477 1.03551 0.11519 0.0
H169 H 1.01914 0.07616 0.2658 0.0
H170 H 0.0599 1.03788 0.3919 0.0
H171 H 0.14895 0.07021 0.72834 0.0
H172 H 0.0736 0.99736 0.23896 0.0
H173 H 0.05014 0.13042 0.284 0.0
H174 H 0.09851 0.16689 0.22032 0.0
H175 H 0.94741 1.00432 0.78659 0.0
H176 H 0.179 0.15968 0.91273 0.0
H177 H 0.18664 0.11992 0.74887 0.0
H178 H 0.99217 0.90858 0.28587 0.0
H179 H 0.14589 0.17708 0.08768 0.0
H180 H 0.91564 0.91493 0.60546 0.0
H181 H 0.91017 0.95415 0.77182 0.0
N182 N 0.97524 0.99251 0.63457 0.0
C183 C 0.9785 0.97144 0.54164 0.0
C184 C 0.95089 0.98674 0.71613 0.0
C185 C 0.93238 0.93669 0.61235 0.0
C186 C 0.92941 0.95858 0.70697 0.0
C187 C 0.95716 0.94284 0.52847 0.0
H188 H 0.94605 0.8984 0.42398 0.0
N189 N 1.02436 1.00563 0.47633 0.0
C190 C 1.00439 0.97756 0.46266 0.0
C191 C 0.03567 0.96136 0.29133 0.0
C192 C 1.00961 0.95472 0.36976 0.0
C193 C 0.04745 1.01369 0.39281 0.0
C194 C 0.05441 0.99118 0.30229 0.0
O195 O 0.07276 0.08747 0.79059 0.0
O196 O 1.01587 0.08729 0.75792 0.0
O197 O 0.99595 0.07258 0.49369 0.0
O198 O 0.95782 0.052 0.60622 0.0
O199 O 1.03023 1.01635 0.92492 0.0
O200 O 0.99463 0.05096 0.82056 0.0
O201 O 1.0231 0.98759 0.71407 0.0
O202 O 0.08006 0.99015 0.74077 0.0
O203 O 0.09658 0.99565 0.99549 0.0
O204 O 0.1355 1.02518 0.91383 0.0
O205 O 0.06387 0.05977 0.57903 0.0
O206 O 0.10063 1.02629 0.68414 0.0
C207 C 0.0435 0.10357 0.79208 0.0
C208 C 1.00028 1.03148 0.91074 0.0
C209 C 0.95326 0.10989 0.56214 0.0
C210 C 0.96943 0.16928 0.58261 0.0
C211 C 0.9216 0.14745 0.6904 0.0
C212 C 0.9268 0.11518 0.64181 0.0
C213 C 0.94314 0.17444 0.66215 0.0
C214 C 0.97306 0.13754 0.52909 0.0
C215 C 0.96477 0.07532 0.53074 0.0
C216 C 0.98846 0.92625 0.35676 0.0
C217 C 0.96207 0.92056 0.43504 0.0
H218 H 0.04069 0.94428 0.21966 0.0
C219 C 0.0529 0.97246 0.7127 0.0
C220 C 0.09439 0.04567 0.5938 0.0
C221 C 0.14789 0.96749 0.94064 0.0
C222 C 0.15311 0.90585 0.94114 0.0
C223 C 0.19487 0.93964 0.84096 0.0
C224 C 0.17766 0.96935 0.87349 0.0
C225 C 0.18282 0.90783 0.87557 0.0
C226 C 0.1359 0.93559 0.97361 0.0
C227 C 0.12902 0.99846 0.97475 0.0
H228 H 0.90144 0.15128 0.75249 0.0
H229 H 0.91097 0.09422 0.66952 0.0
H230 H 0.93941 0.19909 0.70221 0.0
H231 H 0.99246 0.13403 0.46376 0.0
H232 H 0.21775 0.94134 0.78974 0.0
H233 H 0.18768 0.99365 0.84591 0.0
H234 H 0.19668 0.88497 0.85239 0.0
H235 H 0.11343 0.93375 0.02735 0.0
C236 C 0.51346 0.943 0.58106 0.0
C237 C 0.45382 0.93212 0.61668 0.0
C238 C 0.48104 0.95517 0.6043 0.0
C239 C 0.45999 0.89691 0.61119 0.0
C240 C 0.51937 0.90768 0.56929 0.0
C241 C 0.49266 0.88473 0.58704 0.0
N242 N 0.53892 0.96573 0.56455 0.0
C243 C 0.57026 0.95501 0.52932 0.0
C244 C 0.55183 0.89649 0.53759 0.0
C245 C 0.57728 0.9203 0.51641 0.0
Gd246 Gd 0.56082 0.07684 0.84018 0.0
Gd247 Gd 0.52465 1.02355 0.5838 0.0
N248 N 0.4756 0.98942 0.60506 0.0
C249 C 0.42088 0.9451 0.62861 0.0
C250 C 0.44304 1.00187 0.60511 0.0
C251 C 0.41543 0.98011 0.62047 0.0
H252 H 0.43793 1.02858 0.5914 0.0
H253 H 0.38986 0.99033 0.62349 0.0
H254 H 0.64313 0.09155 0.81043 0.0
H255 H 0.59 0.97314 0.51173 0.0
H256 H 0.68149 0.13978 0.77261 0.0
H257 H 0.39935 0.92825 0.63845 0.0
H258 H 0.43942 0.87891 0.62145 0.0
H259 H 0.47983 0.11234 0.85983 0.0
H260 H 0.55729 0.86961 0.52698 0.0
H261 H 0.60225 0.91195 0.48945 0.0
H262 H 0.60613 0.23503 0.72381 0.0
H263 H 0.49682 0.85752 0.57953 0.0
H264 H 0.48716 0.217 0.77386 0.0
H265 H 0.45279 0.16698 0.82685 0.0
N266 N 0.53002 0.12892 0.82078 0.0
C267 C 0.54953 0.15675 0.79698 0.0
C268 C 0.4957 0.13282 0.83382 0.0
C269 C 0.49948 0.19259 0.78741 0.0
C270 C 0.48001 0.16441 0.81674 0.0
C271 C 0.53467 0.18911 0.77789 0.0
H272 H 0.54415 0.24191 0.73419 0.0
N273 N 0.59829 0.12132 0.80128 0.0
C274 C 0.5846 0.15293 0.78967 0.0
C275 C 0.64073 0.17643 0.76131 0.0
C276 C 0.60547 0.18123 0.76555 0.0
C277 C 0.63251 0.11638 0.79503 0.0
C278 C 0.65429 0.14381 0.77582 0.0
O279 O 0.55041 0.9915 0.72647 0.0
O280 O 0.53989 1.02461 0.8844 0.0
O281 O 0.59729 0.06334 0.97357 0.0
O282 O 0.55818 0.10136 1.00795 0.0
O283 O 0.48461 0.05213 0.68918 0.0
O284 O 0.5069 0.05645 0.87181 0.0
O285 O 0.56706 0.09584 0.65532 0.0
O286 O 0.51516 0.08085 0.59419 0.0
O287 O 0.49818 1.01068 0.42448 0.0
O288 O 0.54312 0.04212 0.4193 0.0
O289 O 0.60303 0.04481 0.75635 0.0
O290 O 0.58227 1.03291 0.57243 0.0
C291 C 0.54769 0.99486 0.83961 0.0
C292 C 0.48055 0.05157 0.80217 0.0
C293 C 0.60532 0.09924 0.13552 0.0
C294 C 0.6582 0.12662 0.18998 0.0
C295 C 0.62263 0.09986 0.33595 0.0
C296 C 0.59929 0.09097 0.25111 0.0
C297 C 0.65191 0.11741 0.30599 0.0
C298 C 0.63402 0.11817 0.10527 0.0
C299 C 0.58342 0.08363 0.04924 0.0
C300 C 0.59056 0.21315 0.74412 0.0
C301 C 0.55526 0.21703 0.74987 0.0
H302 H 0.6576 0.19759 0.74469 0.0
C303 C 0.54094 0.10194 0.58775 0.0
C304 C 0.608 1.03626 0.64651 0.0
C305 C 0.49717 0.05812 0.3025 0.0
C306 C 0.45187 0.10073 0.30208 0.0
C307 C 0.48772 0.09284 0.13307 0.0
C308 C 0.50577 0.0672 0.18976 0.0
C309 C 0.46075 0.1092 0.18746 0.0
C310 C 0.47052 0.07501 0.35861 0.0
C311 C 0.51627 1.03167 0.36368 0.0
H312 H 0.61868 0.09191 0.42453 0.0
H313 H 0.57731 0.0762 0.27484 0.0
H314 H 0.67018 0.12258 0.3739 0.0
H315 H 0.6386 0.12447 1.01612 0.0
H316 H 0.49406 0.0995 0.04563 0.0
H317 H 0.52603 0.05419 0.14527 0.0
H318 H 0.44623 0.12745 0.13719 0.0
H319 H 0.46451 0.06816 0.44692 0.0
C320 C 0.47594 0.48388 0.94072 0.0
C321 C 0.50798 0.46706 0.11186 0.0
C322 C 0.50211 0.49013 0.01991 0.0
C323 C 0.48732 0.43821 0.12348 0.0
C324 C 0.45449 0.45548 0.95471 0.0
C325 C 0.46035 0.43273 0.04641 0.0
N326 N 0.47179 0.50527 0.84879 0.0
C327 C 0.44673 0.4998 0.76832 0.0
C328 C 0.42826 0.45025 0.87422 0.0
C329 C 0.42474 0.47215 0.77958 0.0
Gd330 Gd 0.58065 0.5482 0.62065 0.0
Gd331 Gd 0.50754 0.55298 0.8458 0.0
N332 N 0.5213 0.51884 1.00869 0.0
C333 C 0.53392 0.47409 0.19141 0.0
C334 C 0.54332 0.52771 0.09552 0.0
C335 C 0.55111 0.50492 0.18474 0.0
H336 H 0.55459 0.55254 0.0991 0.0
H337 H 0.56979 0.51155 0.25002 0.0
H338 H 0.5319 0.55344 0.37193 0.0
H339 H 0.44298 0.51741 0.69768 0.0
H340 H 0.52084 0.59461 0.21819 0.0
H341 H 0.5399 0.45665 0.26117 0.0
H342 H 0.49147 0.42031 0.19336 0.0
H343 H 0.64477 0.58141 0.77645 0.0
H344 H 0.41112 0.42887 0.88276 0.0
H345 H 0.40473 0.4681 0.71641 0.0
H346 H 0.60726 0.67838 0.26942 0.0
H347 H 0.44441 0.41054 0.0576 0.0
H348 H 0.68378 0.66674 0.59053 0.0
H349 H 0.68614 0.62806 0.75947 0.0
N350 N 0.61794 0.59465 0.62237 0.0
C351 C 0.6161 0.61568 0.52875 0.0
C352 C 0.64259 0.59894 0.70497 0.0
C353 C 0.66522 0.64657 0.59841 0.0
C354 C 0.66645 0.625 0.69446 0.0
C355 C 0.63965 0.64236 0.5148 0.0
H356 H 0.65414 0.68538 0.40865 0.0
N357 N 0.56878 0.58384 0.45962 0.0
C358 C 0.59015 0.61089 0.44773 0.0
C359 C 0.56046 0.62854 0.27348 0.0
C360 C 0.5866 0.63379 0.35384 0.0
C361 C 0.54556 0.57697 0.37426 0.0
C362 C 0.54008 0.59981 0.28317 0.0
O363 O 0.51878 0.50097 0.76486 0.0
O364 O 0.57582 0.50155 0.74159 0.0
O365 O 0.59505 0.51512 0.47849 0.0
O366 O 0.63363 0.53709 0.58722 0.0
O367 O 0.56085 0.57052 0.90913 0.0
O368 O 0.59696 0.53692 0.80395 0.0
O369 O 0.56773 0.60091 0.69427 0.0
O370 O 0.51064 0.59744 0.71834 0.0
O371 O 0.49283 0.59437 0.96231 0.0
O372 O 0.45589 0.55819 0.90322 0.0
O373 O 0.52775 0.52972 0.55593 0.0
O374 O 0.48992 0.5617 0.66174 0.0
C375 C 0.54803 0.48502 0.77109 0.0
C376 C 0.59072 0.55511 0.89661 0.0
C377 C 0.63918 0.47923 0.54685 0.0
C378 C 0.62199 0.42053 0.57145 0.0
C379 C 0.66817 0.4429 0.68745 0.0
C380 C 0.66407 0.47471 0.63392 0.0
C381 C 0.64656 0.41596 0.6585 0.0
C382 C 0.6206 0.45121 0.51021 0.0
C383 C 0.62664 0.5133 0.51364 0.0
C384 C 0.60963 0.66072 0.34122 0.0
C385 C 0.63643 0.66461 0.42017 0.0
H386 H 0.55668 0.64575 0.20106 0.0
C387 C 0.53757 0.61534 0.68976 0.0
C388 C 0.49717 0.54383 0.56881 0.0
C389 C 0.43709 0.61455 0.91611 0.0
C390 C 0.42068 0.67415 0.92263 0.0
C391 C 0.38766 0.63491 0.80738 0.0
C392 C 0.40941 0.60831 0.84077 0.0
C393 C 0.39319 0.66791 0.84842 0.0
C394 C 0.44231 0.64751 0.95663 0.0
C395 C 0.4606 0.58715 0.95294 0.0
H396 H 0.68715 0.43953 0.75473 0.0
H397 H 0.67921 0.49595 0.66405 0.0
H398 H 0.64875 0.39195 0.70417 0.0
H399 H 0.60283 0.4541 0.43858 0.0
H400 H 0.36643 0.62988 0.74991 0.0
H401 H 0.4045 0.58302 0.80751 0.0
H402 H 0.37613 0.68834 0.82313 0.0
H403 H 0.4632 0.65256 1.01599 0.0
C404 C 0.11064 0.47223 0.9336 0.0
C405 C 0.12757 0.50162 0.10938 0.0
C406 C 0.10416 0.49681 0.01774 0.0
C407 C 0.15758 0.48217 0.11357 0.0
C408 C 0.1407 0.45256 0.93816 0.0
C409 C 0.16402 0.45759 0.02884 0.0
N410 N 0.08813 0.46851 0.84454 0.0
C411 C 0.09339 0.44461 0.76045 0.0
C412 C 0.14689 0.42902 0.84963 0.0
C413 C 0.1231 0.42501 0.76049 0.0
Gd414 Gd 0.04399 0.57885 0.6249 0.0
Gd415 Gd 0.04031 0.50451 0.84727 0.0
N416 N 0.07502 0.51569 1.01077 0.0
C417 C 0.11997 0.52554 0.19509 0.0
C418 C 0.06624 0.5366 0.10038 0.0
C419 C 0.08895 0.5427 0.19144 0.0
H420 H 0.04152 0.5482 0.10451 0.0
H421 H 0.08228 0.56026 0.25986 0.0
H422 H 0.03876 0.52979 0.37845 0.0
H423 H 0.07462 0.44058 0.69355 0.0
H424 H 0.9969 0.51692 0.22823 0.0
H425 H 0.1373 0.53015 0.26644 0.0
H426 H 0.17595 0.48574 0.18258 0.0
H427 H 1.01098 0.64377 0.77504 0.0
H428 H 0.16984 0.4137 0.84969 0.0
H429 H 0.12741 0.40651 0.69265 0.0
H430 H 0.90944 0.5998 0.28482 0.0
H431 H 0.18733 0.44287 0.03349 0.0
H432 H 0.92224 0.67925 0.5961 0.0
H433 H 0.9629 0.68399 0.75938 0.0
N434 N 0.99676 0.61548 0.62578 0.0
C435 C 0.97469 0.61237 0.5352 0.0
C436 C 0.99275 0.64072 0.70592 0.0
C437 C 0.94309 0.66126 0.60334 0.0
C438 C 0.9658 0.66385 0.69624 0.0
C439 C 0.94702 0.63502 0.5224 0.0
H440 H 0.9021 0.64727 0.42102 0.0
N441 N 1.0073 0.56541 0.46775 0.0
C442 C 0.97943 0.58594 0.45659 0.0
C443 C 0.96145 0.55499 0.28586 0.0
C444 C 0.95578 0.58115 0.36544 0.0
C445 C 1.01458 0.54243 0.38236 0.0
C446 C 0.99129 0.53593 0.2933 0.0
O447 O 0.09223 0.51698 0.76917 0.0
O448 O 0.09068 0.57417 0.745 0.0
O449 O 0.07176 0.59346 0.47134 0.0
O450 O 0.05882 0.63143 0.59831 0.0
O451 O 1.02319 0.55772 0.91454 0.0
O452 O 0.0549 0.59529 0.8083 0.0
O453 O 0.99211 0.567 0.70485 0.0
O454 O 0.99539 0.50967 0.72193 0.0
O455 O 1.00159 0.49111 0.97309 0.0
O456 O 1.03184 0.45173 0.89388 0.0
O457 O 0.06395 0.52616 0.56332 0.0
O458 O 1.03021 0.4885 0.66191 0.0
C459 C 0.10757 0.5465 0.77518 0.0
C460 C 0.03719 0.58826 0.90124 0.0
C461 C 0.11086 0.63707 0.50568 0.0
C462 C 0.17074 0.62205 0.51673 0.0
C463 C 0.15275 0.67746 0.4411 0.0
C464 C 0.1188 0.66861 0.45692 0.0
C465 C 0.17854 0.65399 0.46694 0.0
C466 C 0.13681 0.6155 0.54469 0.0
C467 C 0.07592 0.62477 0.50566 0.0
C468 C 0.92778 0.60318 0.35424 0.0
C469 C 0.92369 0.63032 0.43143 0.0
H470 H 0.94378 0.55035 0.21529 0.0
C471 C 0.9772 0.53718 0.70092 0.0
C472 C 0.04925 0.49583 0.57233 0.0
C473 C 0.973 0.4423 0.90532 0.0
C474 C 0.91152 0.43771 0.9139 0.0
C475 C 0.94149 0.41436 0.74981 0.0
C476 C 0.97236 0.42512 0.79802 0.0
C477 C 0.91096 0.42102 0.80686 0.0
C478 C 0.94249 0.44781 0.96338 0.0
C479 C 1.00417 0.45873 0.94938 0.0
H480 H 0.15899 0.70157 0.40116 0.0
H481 H 0.09892 0.6858 0.42791 0.0
H482 H 0.20396 0.66023 0.43947 0.0
H483 H 0.13009 0.5917 0.58514 0.0
H484 H 0.94119 0.40164 0.66665 0.0
H485 H 0.99548 0.42089 0.74953 0.0
H486 H 0.88708 0.41357 0.7674 0.0
H487 H 0.94259 0.46169 0.04472 0.0
C488 C 0.14463 0.07638 0.32645 0.0
C489 C 0.17441 0.05605 0.32658 0.0
C490 C 0.11949 0.07358 0.4132 0.0
C491 C 0.12247 0.04993 0.50472 0.0
H492 H 0.14055 0.09449 0.25724 0.0
H493 H 0.09727 0.08981 0.40739 0.0
S494 S 0.19677 0.99213 0.55127 0.0
N495 N 0.20606 1.01266 0.4308 0.0
N496 N 0.15957 1.00713 0.59297 0.0
C497 C 0.15289 1.03033 0.5084 0.0
C498 C 0.17854 1.03343 0.42013 0.0
C499 C 0.51205 0.16691 0.35499 0.0
C500 C 0.54226 0.18353 0.32432 0.0
C501 C 0.51139 0.14241 0.44548 0.0
C502 C 0.54121 0.13186 0.5041 0.0
H503 H 0.48909 0.17234 0.30692 0.0
H504 H 0.48736 0.13158 0.46999 0.0
S505 S 0.62475 0.17546 0.4771 0.0
N506 N 0.60077 0.19377 0.37747 0.0
N507 N 0.60067 0.14615 0.53797 0.0
C508 C 0.57091 0.15077 0.48022 0.0
C509 C 0.57118 0.17661 0.39207 0.0
C510 C 0.44593 0.51247 0.30247 0.0
C511 C 0.41728 0.53441 0.29695 0.0
C512 C 0.47144 0.51562 0.38889 0.0
C513 C 0.46969 0.54066 0.47605 0.0
H514 H 0.44875 0.49248 0.23884 0.0
H515 H 0.49279 0.49824 0.38713 0.0
S516 S 0.40066 0.60547 0.50133 0.0
N517 N 0.38964 0.58296 0.38653 0.0
N518 N 0.43628 0.5882 0.54996 0.0
C519 C 0.44093 0.56257 0.4726 0.0
C520 C 0.41516 0.55959 0.38359 0.0
C521 C 1.02908 0.42266 0.35877 0.0
C522 C 0.06076 0.41483 0.30837 0.0
C523 C 1.02563 0.44879 0.44304 0.0
C524 C 0.05354 0.46878 0.47997 0.0
H525 H 1.00662 0.40895 0.33118 0.0
H526 H 1.00067 0.45374 0.47836 0.0
S527 S 0.14281 0.45494 0.39139 0.0
N528 N 0.12125 0.42706 0.31327 0.0
N529 N 0.11446 0.47605 0.46825 0.0
C530 C 0.08539 0.46058 0.43289 0.0
C531 C 0.08903 0.43377 0.34838 0.0
C532 C 0.94847 0.99967 0.17195 0.0
C533 C 0.92008 1.02195 0.17689 0.0
C534 C 0.9738 1.00253 0.08619 0.0
C535 C 0.97216 1.02768 0.9993 0.0
H536 H 0.95135 0.97973 0.23586 0.0
H537 H 0.99499 0.98489 0.08855 0.0
S538 S 0.90122 0.08996 0.9617 0.0
N539 N 0.89122 0.0689 0.08027 0.0
N540 N 0.93734 0.07319 0.91697 0.0
C541 C 0.94292 0.04891 0.99886 0.0
C542 C 0.91737 0.04631 0.08748 0.0
C543 C 0.55269 0.90219 0.95912 0.0
C544 C 0.55948 0.90689 0.07841 0.0
C545 C 0.54906 0.93032 0.88196 0.0
C546 C 0.55166 0.96445 0.92053 0.0
H547 H 0.5513 0.87662 0.9244 0.0
H548 H 0.54445 0.92516 0.79148 0.0
S549 S 0.57008 0.98986 0.22372 0.0
N550 N 0.56887 0.94805 0.23001 0.0
N551 N 0.56239 1.00024 0.08786 0.0
C552 C 0.55819 0.96903 0.03988 0.0
C553 C 0.56198 0.9406 0.11755 0.0
C554 C 0.64483 0.58455 0.15949 0.0
C555 C 0.67135 0.56009 0.16739 0.0
C556 C 0.61908 0.58298 0.07311 0.0
C557 C 0.61836 0.55688 0.98928 0.0
H558 H 0.64391 0.60523 0.22118 0.0
H559 H 0.59959 0.60251 0.07191 0.0
S560 S 0.68135 0.48603 0.9707 0.0
N561 N 0.69446 0.50852 0.0829 0.0
N562 N 0.64734 0.50593 0.92038 0.0
C563 C 0.64508 0.53258 0.99496 0.0
C564 C 0.67111 0.53409 0.08338 0.0
C565 C 1.00761 0.63857 0.1716 0.0
C566 C 1.02806 0.66829 0.17293 0.0
C567 C 1.01045 0.61318 0.08485 0.0
C568 C 1.03368 0.61603 0.99287 0.0
H569 H 0.98901 0.63469 0.23878 0.0
H570 H 0.99413 0.59112 0.09 0.0
S571 S 0.09126 0.68999 0.94646 0.0
N572 N 0.07175 0.69907 0.0687 0.0
N573 N 0.07564 0.65312 0.90381 0.0
C574 C 0.05318 0.64637 0.98971 0.0
C575 C 0.05071 0.67191 0.07936 0.0
C576 C 0.99551 0.24398 0.40929 0.0
C577 C 1.02847 0.23386 0.37781 0.0
C578 C 0.97739 0.22562 0.49206 0.0
C579 C 0.99202 0.19684 0.54466 0.0
H580 H 0.98241 0.26378 0.36097 0.0
H581 H 0.9507 0.23142 0.5039 0.0
S582 S 0.08087 0.16644 0.51394 0.0
N583 N 0.07739 0.19827 0.42093 0.0
N584 N 0.04369 0.16395 0.57893 0.0
C585 C 1.02678 0.19008 0.52685 0.0
C586 C 0.04495 0.20842 0.44159 0.0
C587 C 0.36332 0.09614 0.40355 0.0
C588 C 0.35049 0.1197 0.32286 0.0
C589 C 0.39856 0.0924 0.4145 0.0
C590 C 0.42039 0.11486 0.35516 0.0
H591 H 0.34757 0.0751 0.43136 0.0
H592 H 0.40781 0.06897 0.45263 0.0
S593 S 0.39425 0.19725 0.22495 0.0
N594 N 0.35835 0.17648 0.24605 0.0
N595 N 0.42477 0.17248 0.27692 0.0
C596 C 0.40619 0.14588 0.31637 0.0
C597 C 0.3704 0.14841 0.30164 0.0
C598 C 0.59296 0.34462 0.41162 0.0
C599 C 0.5614 0.35665 0.37053 0.0
C600 C 0.61113 0.36302 0.49468 0.0
C601 C 0.59802 0.39379 0.53693 0.0
H602 H 0.60538 0.32326 0.36993 0.0
H603 H 0.63712 0.35559 0.51362 0.0
S604 S 0.51265 0.43036 0.47685 0.0
N605 N 0.5147 0.39608 0.39483 0.0
N606 N 0.54884 0.43142 0.55 0.0
C607 C 0.56413 0.40269 0.51017 0.0
C608 C 0.54582 0.38398 0.42592 0.0
C609 C 0.20247 0.53858 0.40838 0.0
C610 C 0.23496 0.54841 0.37333 0.0
C611 C 0.18253 0.56065 0.47371 0.0
C612 C 0.19507 0.59284 0.50864 0.0
H613 H 0.19063 0.5164 0.37019 0.0
H614 H 0.15601 0.55397 0.48084 0.0
S615 S 0.28511 0.6198 0.49611 0.0
N616 N 0.28327 0.58518 0.41525 0.0
N617 N 0.24646 0.62528 0.54816 0.0
C618 C 0.2303 0.59807 0.50075 0.0
C619 C 0.25031 0.57607 0.43052 0.0
C620 C 0.1391 0.84444 0.17603 0.0
C621 C 0.10468 0.83675 0.15768 0.0
C622 C 0.15733 0.86257 0.09303 0.0
C623 C 0.14128 0.87382 0.99104 0.0
H624 H 0.15103 0.83905 0.25895 0.0
H625 H 0.18261 0.87142 0.11511 0.0
S626 S 0.05357 0.85472 0.89455 0.0
N627 N 0.0568 0.83691 0.02396 0.0
N628 N 0.09108 0.87174 0.8681 0.0
C629 C 0.10821 0.86269 0.96599 0.0
C630 C 0.08975 0.84401 0.04999 0.0
C631 C 0.74417 0.14706 0.27248 0.0
C632 C 0.75846 0.11691 0.22818 0.0
C633 C 0.71151 0.15708 0.2369 0.0
C634 C 0.69322 0.13671 0.15796 0.0
H635 H 0.75453 0.15819 0.3509 0.0
H636 H 0.69826 0.17589 0.28852 0.0
S637 S 0.72992 0.07022 0.968 0.0
N638 N 0.76005 0.07849 0.06407 0.0
N639 N 0.69837 0.09651 0.99819 0.0
C640 C 0.71201 0.11418 0.08823 0.0
C641 C 0.74536 0.1045 0.12338 0.0
C642 C 0.47495 0.74449 0.01816 0.0
C643 C 0.46384 0.74766 0.13314 0.0
C644 C 0.45674 0.72463 0.93901 0.0
C645 C 0.42715 0.70759 0.97338 0.0
H646 H 0.49964 0.754 0.993 0.0
H647 H 0.46819 0.71895 0.856 0.0
S648 S 0.3836 0.71477 0.25528 0.0
N649 N 0.41824 0.73805 0.27027 0.0
N650 N 0.38427 0.70013 0.12114 0.0
C651 C 0.4133 0.71474 0.08214 0.0
C652 C 0.43176 0.7349 0.16271 0.0
C653 C 0.85379 0.44939 0.16289 0.0
C654 C 0.84128 0.48234 0.14116 0.0
C655 C 0.87313 0.43232 0.08004 0.0
C656 C 0.88032 0.44778 0.97346 0.0
H657 H 0.85127 0.43814 0.24816 0.0
H658 H 0.8854 0.40856 0.10387 0.0
S659 S 0.84882 0.53122 0.86857 0.0
N660 N 0.83351 0.52789 1.00108 0.0
N661 N 0.87012 0.49561 0.84439 0.0
C662 C 0.8648 0.47898 0.94591 0.0
C663 C 0.84511 0.49641 0.03042 0.0
C664 C 0.07093 0.1933 0.90121 0.0
C665 C 0.04281 0.20492 0.96574 0.0
C666 C 0.07031 0.16169 0.84043 0.0
C667 C 0.04176 0.1397 0.84175 0.0
H668 H 0.09436 0.20767 0.9033 0.0
H669 H 0.09296 0.15386 0.79481 0.0
S670 S 0.96022 0.15984 0.98709 0.0
N671 N 0.98441 0.19292 0.01723 0.0
N672 N 0.98353 0.13425 0.90631 0.0
C673 C 1.01284 0.15222 0.89955 0.0
C674 C 1.01337 0.18435 0.9606 0.0
C675 C 0.38558 0.07214 0.86108 0.0
C676 C 0.37951 0.05696 0.97017 0.0
C677 C 0.41747 0.06896 0.80411 0.0
C678 C 0.44519 0.05118 0.85484 0.0
H679 H 0.36618 0.0882 0.82237 0.0
H680 H 0.42099 0.08215 0.72264 0.0
S681 S 0.44204 1.00447 0.13447 0.0
N682 N 0.40384 1.02172 0.12223 0.0
N683 N 0.46293 1.0159 0.01706 0.0
C684 C 0.43889 1.03478 0.96126 0.0
C685 C 0.40648 1.03766 0.01818 0.0
C686 C 0.57716 0.41019 0.96507 0.0
C687 C 0.55075 0.38579 0.95631 0.0
C688 C 0.57694 0.44094 0.90074 0.0
C689 C 0.54993 0.44964 0.82555 0.0
H690 H 0.59768 0.40612 0.02655 0.0
H691 H 0.59728 0.4589 0.91523 0.0
S692 S 0.47741 0.39242 0.75493 0.0
N693 N 0.49924 0.37084 0.85318 0.0
N694 N 0.49761 0.42889 0.73767 0.0
C695 C 0.52428 0.42467 0.81124 0.0
C696 C 0.52507 0.39282 0.87449 0.0
C697 C 0.19875 0.52133 0.87482 0.0
C698 C 0.20758 0.54702 0.95506 0.0
C699 C 0.16743 0.52221 0.81204 0.0
C700 C 0.14323 0.54864 0.82681 0.0
H701 H 0.21503 0.49921 0.86608 0.0
H702 H 0.16149 0.50119 0.75486 0.0
S703 S 0.15533 0.62385 0.01708 0.0
N704 N 0.19045 0.6014 0.03615 0.0
N705 N 0.13226 0.60249 0.92207 0.0
C706 C 0.1529 0.5755 0.90066 0.0
C707 C 0.18468 0.57477 0.96359 0.0
C708 C 1.02922 0.88375 0.58854 0.0
C709 C 0.05972 0.87223 0.53811 0.0
C710 C 1.02777 0.91469 0.65262 0.0
C711 C 0.05625 0.9364 0.66516 0.0
H712 H 1.00597 0.86969 0.57407 0.0
H713 H 1.00381 0.92211 0.69024 0.0
S714 S 0.14416 0.91307 0.57962 0.0
N715 N 0.1208 0.88127 0.53113 0.0
N716 N 0.11742 0.93975 0.64179 0.0
C717 C 0.08749 0.92324 0.62588 0.0
C718 C 0.08926 0.89135 0.56455 0.0
C719 C 0.70682 0.04115 0.62812 0.0
C720 C 0.71364 1.03622 0.50939 0.0
C721 C 0.67325 1.03879 0.67306 0.0
C722 C 0.64446 1.03295 0.60093 0.0
H723 H 0.7273 0.04848 0.6859 0.0
H724 H 0.66988 0.04276 0.76492 0.0
S725 S 0.64978 1.01524 0.28419 0.0
N726 N 0.68948 1.02203 0.32311 0.0
N727 N 0.6271 1.01912 0.40345 0.0
C728 C 0.65164 1.02615 0.48291 0.0
C729 C 0.68578 1.02761 0.43853 0.0
C730 C 0.4975 0.68836 0.51451 0.0
C731 C 0.52432 0.71179 0.49354 0.0
C732 C 0.50192 0.65824 0.57935 0.0
C733 C 0.53295 0.65004 0.63343 0.0
H734 H 0.47236 0.69267 0.47906 0.0
H735 H 0.48071 0.64088 0.58499 0.0
S736 S 0.6063 0.7091 0.65592 0.0
N737 N 0.58069 0.72795 0.56176 0.0
N738 N 0.58742 0.67322 0.69306 0.0
C739 C 0.55844 0.67531 0.62908 0.0
C740 C 0.55445 0.70568 0.55834 0.0
C741 C 0.90239 0.5023 0.52362 0.0
C742 C 0.8785 0.5295 0.51699 0.0
C743 C 0.93318 0.50466 0.58602 0.0
C744 C 0.94183 0.53395 0.64932 0.0
H745 H 0.89788 0.47885 0.47687 0.0
H746 H 0.95088 0.48354 0.58113 0.0
S747 S 0.88357 0.60713 0.69991 0.0
N748 N 0.86316 0.58388 0.60289 0.0
N749 N 0.91979 0.58708 0.72685 0.0
C750 C 0.91656 0.5596 0.65646 0.0
C751 C 0.88528 0.5576 0.5898 0.0
loop_
_geom_bond_atom_site_label_1
_geom_bond_atom_site_label_2
_geom_bond_distance
_geom_bond_site_symmetry_2
_ccdc_geom_bond_type
H0 C1 0.949 . S
C1 H0 0.949 . S
C1 C2 1.395 . S
C1 C3 1.391 . S
C2 C1 1.395 . S
C2 C5 1.390 . S
C3 C1 1.391 . S
C3 C7 1.387 . S
C3 C8 1.491 . S
H4 C5 0.950 . S
C5 C2 1.390 . S
C5 H4 0.950 . S
C5 C6 1.378 . S
C6 C5 1.378 . S
C6 C7 1.409 . S
C7 C3 1.387 . S
C7 C6 1.409 . S
C7 H9 0.951 . S
C8 C3 1.491 . S
C8 C10 1.382 . S
C8 C12 1.404 . S
H9 C7 0.951 . S
C10 C8 1.382 . S
C10 C11 1.390 . S
C10 H15 0.949 . S
C11 C10 1.390 . S
C11 C16 1.399 . S
C12 C8 1.404 . S
C12 H13 0.950 . S
C12 C14 1.375 . S
H13 C12 0.950 . S
C14 C12 1.375 . S
C14 C16 1.382 . S
C14 H18 0.950 . S
H15 C10 0.949 . S
C16 C11 1.399 . S
C16 C14 1.382 . S
C16 H17 0.952 . S
H17 C16 0.952 . S
H18 C14 0.950 . S
H19 C20 0.949 . S
C20 H19 0.949 . S
C20 C21 1.395 . S
C20 C22 1.391 . S
C21 C20 1.395 . S
C21 C24 1.390 . S
C22 C20 1.391 . S
C22 C26 1.387 . S
C22 C27 1.491 . S
H23 C24 0.950 . S
C24 C21 1.390 . S
C24 H23 0.950 . S
C24 C25 1.378 . S
C25 C24 1.378 . S
C25 C26 1.409 . S
C26 C22 1.387 . S
C26 C25 1.409 . S
C26 H28 0.951 . S
C27 C22 1.491 . S
C27 C29 1.382 . S
C27 C31 1.404 . S
H28 C26 0.951 . S
C29 C27 1.382 . S
C29 C30 1.390 . S
C29 H34 0.949 . S
C30 C29 1.390 . S
C30 C35 1.399 . S
C31 C27 1.404 . S
C31 H32 0.950 . S
C31 C33 1.375 . S
H32 C31 0.950 . S
C33 C31 1.375 . S
C33 C35 1.382 . S
C33 H37 0.950 . S
H34 C29 0.949 . S
C35 C30 1.399 . S
C35 C33 1.382 . S
C35 H36 0.952 . S
H36 C35 0.952 . S
H37 C33 0.950 . S
H38 C39 0.949 . S
C39 H38 0.949 . S
C39 C40 1.395 . S
C39 C41 1.391 . S
C40 C39 1.395 . S
C40 C43 1.390 . S
C41 C39 1.391 . S
C41 C45 1.387 . S
C41 C46 1.491 . S
H42 C43 0.950 . S
C43 C40 1.390 . S
C43 H42 0.950 . S
C43 C44 1.378 . S
C44 C43 1.378 . S
C44 C45 1.409 . S
C45 C41 1.387 . S
C45 C44 1.409 . S
C45 H47 0.951 . S
C46 C41 1.491 . S
C46 C48 1.382 . S
C46 C50 1.404 . S
H47 C45 0.951 . S
C48 C46 1.382 . S
C48 C49 1.390 . S
C48 H53 0.949 . S
C49 C48 1.390 . S
C49 C54 1.399 . S
C50 C46 1.404 . S
C50 H51 0.950 . S
C50 C52 1.375 . S
H51 C50 0.950 . S
C52 C50 1.375 . S
C52 C54 1.382 . S
C52 H56 0.950 . S
H53 C48 0.949 . S
C54 C49 1.399 . S
C54 C52 1.382 . S
C54 H55 0.952 . S
H55 C54 0.952 . S
H56 C52 0.950 . S
H57 C58 0.949 . S
C58 H57 0.949 . S
C58 C59 1.395 . S
C58 C60 1.391 . S
C59 C58 1.395 . S
C59 C62 1.390 . S
C60 C58 1.391 . S
C60 C64 1.387 . S
C60 C65 1.491 . S
H61 C62 0.950 . S
C62 C59 1.390 . S
C62 H61 0.950 . S
C62 C63 1.378 . S
C63 C62 1.378 . S
C63 C64 1.409 . S
C64 C60 1.387 . S
C64 C63 1.409 . S
C64 H66 0.951 . S
C65 C60 1.491 . S
C65 C67 1.382 . S
C65 C69 1.404 . S
H66 C64 0.951 . S
C67 C65 1.382 . S
C67 C68 1.390 . S
C67 H72 0.949 . S
C68 C67 1.390 . S
C68 C73 1.399 . S
C69 C65 1.404 . S
C69 H70 0.950 . S
C69 C71 1.375 . S
H70 C69 0.950 . S
C71 C69 1.375 . S
C71 C73 1.382 . S
C71 H75 0.950 . S
H72 C67 0.949 . S
C73 C68 1.399 . S
C73 C71 1.382 . S
C73 H74 0.952 . S
H74 C73 0.952 . S
H75 C71 0.950 . S
H76 C77 0.949 . S
C77 H76 0.949 . S
C77 C78 1.395 . S
C77 C79 1.392 1_554 S
C78 C77 1.395 . S
C78 C81 1.390 1_554 S
C79 C77 1.392 1_556 S
C79 C83 1.387 . S
C79 C84 1.491 1_556 S
H80 C81 0.950 . S
C81 C78 1.390 1_556 S
C81 H80 0.950 . S
C81 C82 1.378 . S
C82 C81 1.378 . S
C82 C83 1.409 . S
C83 C79 1.387 . S
C83 C82 1.409 . S
C83 H85 0.951 . S
C84 C79 1.491 1_554 S
C84 C86 1.382 . S
C84 C88 1.404 1_554 S
H85 C83 0.951 . S
C86 C84 1.382 . S
C86 C87 1.390 . S
C86 H91 0.949 . S
C87 C86 1.390 . S
C87 C92 1.399 . S
C88 C84 1.404 1_556 S
C88 H89 0.950 . S
C88 C90 1.375 . S
H89 C88 0.950 . S
C90 C88 1.375 . S
C90 C92 1.382 1_556 S
C90 H94 0.950 . S
H91 C86 0.949 . S
C92 C87 1.399 . S
C92 C90 1.382 1_554 S
C92 H93 0.952 . S
H93 C92 0.952 . S
H94 C90 0.950 . S
H95 C96 0.949 . S
C96 H95 0.949 . S
C96 C97 1.395 . S
C96 C98 1.391 . S
C97 C96 1.395 . S
C97 C100 1.390 1_554 S
C98 C96 1.391 . S
C98 C102 1.387 1_554 S
C98 C103 1.491 . S
H99 C100 0.950 . S
C100 C97 1.390 1_556 S
C100 H99 0.950 . S
C100 C101 1.378 . S
C101 C100 1.378 . S
C101 C102 1.409 . S
C102 C98 1.387 1_556 S
C102 C101 1.409 . S
C102 H104 0.951 . S
C103 C98 1.491 . S
C103 C105 1.382 . S
C103 C107 1.404 1_454 S
H104 C102 0.951 . S
C105 C103 1.382 . S
C105 C106 1.390 . S
C105 H110 0.949 . S
C106 C105 1.390 . S
C106 C111 1.399 . S
C107 C103 1.404 1_656 S
C107 H108 0.950 . S
C107 C109 1.375 . S
H108 C107 0.950 . S
C109 C107 1.375 . S
C109 C111 1.382 1_656 S
C109 H113 0.950 . S
H110 C105 0.949 . S
C111 C106 1.399 . S
C111 C109 1.382 1_454 S
C111 H112 0.952 1_455 S
H112 C111 0.952 1_655 S
H113 C109 0.950 . S
H114 C115 0.949 . S
C115 H114 0.949 . S
C115 C116 1.395 . S
C115 C117 1.391 . S
C116 C115 1.395 . S
C116 C119 1.390 1_554 S
C117 C115 1.391 . S
C117 C121 1.387 1_554 S
C117 C122 1.491 . S
H118 C119 0.950 . S
C119 C116 1.390 1_556 S
C119 H118 0.950 . S
C119 C120 1.378 . S
C120 C119 1.378 . S
C120 C121 1.409 . S
C121 C117 1.387 1_556 S
C121 C120 1.409 . S
C121 H123 0.951 . S
C122 C117 1.491 . S
C122 C124 1.382 . S
C122 C126 1.404 1_544 S
H123 C121 0.951 . S
C124 C122 1.382 . S
C124 C125 1.390 . S
C124 H129 0.949 . S
C125 C124 1.390 . S
C125 C130 1.399 . S
C126 C122 1.404 1_566 S
C126 H127 0.950 . S
C126 C128 1.375 . S
H127 C126 0.950 . S
C128 C126 1.375 . S
C128 C130 1.382 1_566 S
C128 H132 0.950 . S
H129 C124 0.949 . S
C130 C125 1.399 . S
C130 C128 1.382 1_544 S
C130 H131 0.952 1_545 S
H131 C130 0.952 1_565 S
H132 C128 0.950 . S
H133 C134 0.949 . S
C134 H133 0.949 . S
C134 C135 1.395 . S
C134 C136 1.391 1_554 S
C135 C134 1.395 . S
C135 C138 1.390 1_554 S
C136 C134 1.391 1_556 S
C136 C140 1.387 . S
C136 C141 1.491 1_556 S
H137 C138 0.950 . S
C138 C135 1.390 1_556 S
C138 H137 0.950 . S
C138 C139 1.378 . S
C139 C138 1.378 . S
C139 C140 1.409 . S
C140 C136 1.387 . S
C140 C139 1.409 . S
C140 H142 0.951 . S
C141 C136 1.491 1_554 S
C141 C143 1.382 . S
C141 C145 1.404 1_554 S
H142 C140 0.951 . S
C143 C141 1.382 . S
C143 C144 1.390 . S
C143 H148 0.949 . S
C144 C143 1.390 . S
C144 C149 1.399 . S
C145 C141 1.404 1_556 S
C145 H146 0.950 . S
C145 C147 1.375 . S
H146 C145 0.950 . S
C147 C145 1.375 . S
C147 C149 1.382 1_556 S
C147 H151 0.950 . S
H148 C143 0.949 . S
C149 C144 1.399 . S
C149 C147 1.382 1_554 S
C149 H150 0.952 . S
H150 C149 0.952 . S
H151 C147 0.950 . S
C152 C154 1.422 . S
C152 C156 1.415 . S
C152 N158 1.369 1_554 S
C153 C154 1.421 . S
C153 C155 1.417 . S
C153 C165 1.422 . S
C154 C152 1.422 . S
C154 C153 1.421 . S
C154 N164 1.359 . S
C155 C153 1.417 . S
C155 C157 1.329 . S
C155 H174 0.930 . S
C156 C152 1.415 . S
C156 C157 1.437 . S
C156 C160 1.413 1_554 S
C157 C155 1.329 . S
C157 C156 1.437 . S
C157 H179 0.929 . S
N158 C152 1.369 1_556 S
N158 C159 1.338 . S
N158 Gd163 2.622 1_545 S
C159 N158 1.338 . S
C159 C161 1.378 . S
C159 H171 0.929 1_545 S
C160 C156 1.413 1_556 S
C160 C161 1.348 . S
C160 H176 0.931 1_556 S
C161 C159 1.378 . S
C161 C160 1.348 . S
C161 H177 0.930 . S
Gd162 N182 2.622 . S
Gd162 N189 2.570 . S
Gd162 O196 2.353 1_655 S
Gd162 O197 2.463 1_655 S
Gd162 O198 2.427 . S
Gd162 O200 2.388 . S
Gd162 O201 2.386 1_545 S
Gd162 O205 2.307 1_655 S
Gd162 C215 2.805 . S
Gd163 N158 2.622 1_565 S
Gd163 N164 2.570 1_566 S
Gd163 O195 2.386 1_565 S
Gd163 O199 2.307 1_465 S
Gd163 O202 2.353 . S
Gd163 O203 2.468 . S
Gd163 O204 2.427 . S
Gd163 O206 2.388 . S
Gd163 C227 2.805 . S
N164 C154 1.359 . S
N164 Gd163 2.570 1_544 S
N164 C166 1.343 . S
C165 C153 1.422 . S
C165 C167 1.321 . S
C165 H173 0.931 . S
C166 N164 1.343 . S
C166 C167 1.390 . S
C166 H168 0.931 1_455 S
C167 C165 1.321 . S
C167 C166 1.390 . S
C167 H169 0.930 1_455 S
H168 C166 0.931 1_655 S
H169 C167 0.930 1_655 S
H170 C193 0.931 . S
H171 C159 0.929 1_565 S
H172 C194 0.930 . S
H173 C165 0.931 . S
H174 C155 0.930 . S
H175 C184 0.929 . S
H176 C160 0.931 1_554 S
H177 C161 0.930 . S
H178 C216 0.930 . S
H179 C157 0.929 . S
H180 C185 0.931 . S
H181 C186 0.930 . S
N182 Gd162 2.622 . S
N182 C183 1.369 1_545 S
N182 C184 1.338 . S
C183 N182 1.369 1_565 S
C183 C187 1.415 . S
C183 C190 1.422 . S
C184 H175 0.929 . S
C184 N182 1.338 . S
C184 C186 1.378 . S
C185 H180 0.931 . S
C185 C186 1.348 1_565 S
C185 C187 1.413 . S
C186 H181 0.930 . S
C186 C184 1.378 . S
C186 C185 1.348 1_545 S
C187 C183 1.415 . S
C187 C185 1.413 . S
C187 C217 1.437 . S
H188 C217 0.929 . S
N189 Gd162 2.570 . S
N189 C190 1.359 1_545 S
N189 C193 1.343 1_655 S
C190 C183 1.422 . S
C190 N189 1.359 1_565 S
C190 C192 1.421 . S
C191 C192 1.422 . S
C191 C194 1.321 1_655 S
C191 H218 0.931 . S
C192 C190 1.421 . S
C192 C191 1.422 . S
C192 C216 1.417 . S
C193 H170 0.931 . S
C193 N189 1.343 1_455 S
C193 C194 1.390 1_545 S
C194 H172 0.930 . S
C194 C191 1.321 1_455 S
C194 C193 1.390 1_565 S
O195 Gd163 2.386 1_545 S
O195 C207 1.265 . S
O196 Gd162 2.353 1_455 S
O196 C207 1.242 . S
O197 Gd162 2.463 1_455 S
O197 C215 1.251 1_455 S
O198 Gd162 2.427 . S
O198 C215 1.252 . S
O199 Gd163 2.307 1_645 S
O199 C208 1.261 . S
O200 Gd162 2.388 . S
O200 C208 1.252 . S
O201 Gd162 2.386 1_565 S
O201 C219 1.265 . S
O202 Gd163 2.353 . S
O202 C219 1.242 1_455 S
O203 Gd163 2.468 . S
O203 C227 1.263 . S
O204 Gd163 2.427 . S
O204 C227 1.252 . S
O205 Gd162 2.307 1_455 S
O205 C220 1.261 . S
O206 Gd163 2.388 . S
O206 C220 1.252 1_565 S
C207 O195 1.265 . S
C207 O196 1.242 . S
C208 O199 1.261 . S
C208 O200 1.252 . S
C209 C212 1.394 . S
C209 C214 1.370 . S
C209 C215 1.500 . S
C210 C213 1.383 . S
C210 C214 1.395 . S
C211 C212 1.396 . S
C211 C213 1.365 . S
C211 H228 0.929 . S
C212 C209 1.394 . S
C212 C211 1.396 . S
C212 H229 0.930 . S
C213 C210 1.383 . S
C213 C211 1.365 . S
C213 H230 0.931 . S
C214 C209 1.370 . S
C214 C210 1.395 . S
C214 H231 0.930 1_655 S
C215 Gd162 2.805 . S
C215 O197 1.251 1_655 S
C215 O198 1.252 . S
C215 C209 1.500 . S
C216 H178 0.930 . S
C216 C192 1.417 . S
C216 C217 1.329 . S
C217 C187 1.437 . S
C217 H188 0.929 . S
C217 C216 1.329 . S
H218 C191 0.931 . S
C219 O201 1.265 . S
C219 O202 1.242 1_655 S
C220 O205 1.261 . S
C220 O206 1.252 1_545 S
C221 C224 1.394 . S
C221 C226 1.370 . S
C221 C227 1.500 1_554 S
C222 C225 1.383 . S
C222 C226 1.395 . S
C223 C224 1.396 . S
C223 C225 1.365 . S
C223 H232 0.929 . S
C224 C221 1.394 . S
C224 C223 1.396 . S
C224 H233 0.930 1_554 S
C225 C222 1.383 . S
C225 C223 1.365 . S
C225 H234 0.931 . S
C226 C221 1.370 . S
C226 C222 1.395 . S
C226 H235 0.930 . S
C227 Gd163 2.805 . S
C227 O203 1.263 . S
C227 O204 1.252 . S
C227 C221 1.500 1_556 S
H228 C211 0.929 . S
H229 C212 0.930 . S
H230 C213 0.931 . S
H231 C214 0.930 1_455 S
H232 C223 0.929 . S
H233 C224 0.930 1_556 S
H234 C225 0.931 . S
H235 C226 0.930 . S
C236 C238 1.422 . S
C236 C240 1.415 . S
C236 N242 1.369 . S
C237 C238 1.421 . S
C237 C239 1.417 . S
C237 C249 1.422 . S
C238 C236 1.422 . S
C238 C237 1.421 . S
C238 N248 1.359 . S
C239 C237 1.417 . S
C239 C241 1.329 . S
C239 H258 0.930 . S
C240 C236 1.415 . S
C240 C241 1.437 . S
C240 C244 1.413 . S
C241 C239 1.329 . S
C241 C240 1.437 . S
C241 H263 0.929 . S
N242 C236 1.369 . S
N242 C243 1.338 . S
N242 Gd247 2.622 . S
C243 N242 1.338 . S
C243 C245 1.378 . S
C243 H255 0.929 . S
C244 C240 1.413 . S
C244 C245 1.348 . S
C244 H260 0.931 . S
C245 C243 1.378 . S
C245 C244 1.348 . S
C245 H261 0.930 . S
Gd246 N266 2.622 . S
Gd246 N273 2.570 . S
Gd246 O280 2.353 1_545 S
Gd246 O281 2.468 . S
Gd246 O282 2.427 1_556 S
Gd246 O284 2.388 . S
Gd246 O285 2.386 . S
Gd246 O289 2.307 . S
Gd246 C299 2.805 1_556 S
Gd247 N242 2.622 . S
Gd247 N248 2.570 . S
Gd247 O279 2.386 . S
Gd247 O283 2.296 1_565 S
Gd247 O286 2.353 1_565 S
Gd247 O287 2.468 . S
Gd247 O288 2.427 . S
Gd247 O290 2.388 . S
Gd247 C311 2.805 . S
N248 C238 1.359 . S
N248 Gd247 2.570 . S
N248 C250 1.343 . S
C249 C237 1.422 . S
C249 C251 1.321 . S
C249 H257 0.931 . S
C250 N248 1.343 . S
C250 C251 1.390 . S
C250 H252 0.931 . S
C251 C249 1.321 . S
C251 C250 1.390 . S
C251 H253 0.930 . S
H252 C250 0.931 . S
H253 C251 0.930 . S
H254 C277 0.931 . S
H255 C243 0.929 . S
H256 C278 0.930 . S
H257 C249 0.931 . S
H258 C239 0.930 . S
H259 C268 0.929 1_554 S
H260 C244 0.931 . S
H261 C245 0.930 . S
H262 C300 0.930 . S
H263 C241 0.929 . S
H264 C269 0.931 . S
H265 C270 0.930 . S
N266 Gd246 2.622 . S
N266 C267 1.369 . S
N266 C268 1.338 . S
C267 N266 1.369 . S
C267 C271 1.415 . S
C267 C274 1.422 . S
C268 H259 0.929 1_556 S
C268 N266 1.338 . S
C268 C270 1.378 1_556 S
C269 H264 0.931 . S
C269 C270 1.348 . S
C269 C271 1.413 1_554 S
C270 H265 0.930 . S
C270 C268 1.378 1_554 S
C270 C269 1.348 . S
C271 C267 1.415 . S
C271 C269 1.413 1_556 S
C271 C301 1.437 . S
H272 C301 0.929 . S
N273 Gd246 2.570 . S
N273 C274 1.359 . S
N273 C277 1.343 . S
C274 C267 1.422 . S
C274 N273 1.359 . S
C274 C276 1.421 . S
C275 C276 1.422 . S
C275 C278 1.321 . S
C275 H302 0.931 . S
C276 C274 1.421 . S
C276 C275 1.422 . S
C276 C300 1.417 . S
C277 H254 0.931 . S
C277 N273 1.343 . S
C277 C278 1.390 . S
C278 H256 0.930 . S
C278 C275 1.321 . S
C278 C277 1.390 . S
O279 Gd247 2.386 . S
O279 C291 1.265 . S
O280 Gd246 2.353 1_565 S
O280 C291 1.242 . S
O281 Gd246 2.468 . S
O281 C299 1.263 1_556 S
O282 Gd246 2.427 1_554 S
O282 C299 1.252 . S
O283 Gd247 2.296 1_545 S
O283 C292 1.278 . S
O284 Gd246 2.388 . S
O284 C292 1.252 . S
O285 Gd246 2.386 . S
O285 C303 1.265 . S
O286 Gd247 2.353 1_545 S
O286 C303 1.242 . S
O287 Gd247 2.468 . S
O287 C311 1.263 . S
O288 Gd247 2.427 . S
O288 C311 1.252 . S
O289 Gd246 2.307 . S
O289 C304 1.261 1_545 S
O290 Gd247 2.388 . S
O290 C304 1.252 . S
C291 O279 1.265 . S
C291 O280 1.242 . S
C292 O283 1.278 . S
C292 O284 1.252 . S
C293 C296 1.394 . S
C293 C298 1.370 . S
C293 C299 1.500 . S
C294 C297 1.383 . S
C294 C298 1.395 . S
C295 C296 1.396 . S
C295 C297 1.365 . S
C295 H312 0.929 . S
C296 C293 1.394 . S
C296 C295 1.396 . S
C296 H313 0.930 . S
C297 C294 1.383 . S
C297 C295 1.365 . S
C297 H314 0.931 . S
C298 C293 1.370 . S
C298 C294 1.395 . S
C298 H315 0.930 . S
C299 Gd246 2.805 1_554 S
C299 O281 1.263 1_554 S
C299 O282 1.252 . S
C299 C293 1.500 . S
C300 H262 0.930 . S
C300 C276 1.417 . S
C300 C301 1.329 . S
C301 C271 1.437 . S
C301 H272 0.929 . S
C301 C300 1.329 . S
H302 C275 0.931 . S
C303 O285 1.265 . S
C303 O286 1.242 . S
C304 O289 1.261 1_565 S
C304 O290 1.252 . S
C305 C308 1.394 . S
C305 C310 1.378 . S
C305 C311 1.500 . S
C306 C309 1.378 1_545 S
C306 C310 1.394 1_545 S
C307 C308 1.396 . S
C307 C309 1.365 . S
C307 H316 0.929 . S
C308 C305 1.394 . S
C308 C307 1.396 . S
C308 H317 0.930 . S
C309 C306 1.378 1_565 S
C309 C307 1.365 . S
C309 H318 0.931 . S
C310 C305 1.378 . S
C310 C306 1.394 1_565 S
C310 H319 0.924 1_565 S
C311 Gd247 2.805 . S
C311 O287 1.263 . S
C311 O288 1.252 . S
C311 C305 1.500 . S
H312 C295 0.929 . S
H313 C296 0.930 . S
H314 C297 0.931 . S
H315 C298 0.930 . S
H316 C307 0.929 . S
H317 C308 0.930 . S
H318 C309 0.931 . S
H319 C310 0.924 1_545 S
C320 C322 1.422 . S
C320 C324 1.415 . S
C320 N326 1.369 1_554 S
C321 C322 1.421 . S
C321 C323 1.417 . S
C321 C333 1.422 . S
C322 C320 1.422 . S
C322 C321 1.421 . S
C322 N332 1.359 . S
C323 C321 1.417 . S
C323 C325 1.329 . S
C323 H342 0.930 . S
C324 C320 1.415 . S
C324 C325 1.437 . S
C324 C328 1.413 1_554 S
C325 C323 1.329 . S
C325 C324 1.437 . S
C325 H347 0.929 . S
N326 C320 1.369 1_556 S
N326 C327 1.338 . S
N326 Gd331 2.622 . S
C327 N326 1.338 . S
C327 C329 1.378 . S
C327 H339 0.929 . S
C328 C324 1.413 1_556 S
C328 C329 1.348 . S
C328 H344 0.931 1_556 S
C329 C327 1.378 . S
C329 C328 1.348 . S
C329 H345 0.930 . S
Gd330 N350 2.622 . S
Gd330 N357 2.570 . S
Gd330 O364 2.353 . S
Gd330 O365 2.468 . S
Gd330 O366 2.427 . S
Gd330 O368 2.388 . S
Gd330 O369 2.386 . S
Gd330 O373 2.307 . S
Gd330 C383 2.805 . S
Gd331 N326 2.622 . S
Gd331 N332 2.570 1_556 S
Gd331 O363 2.386 . S
Gd331 O367 2.307 . S
Gd331 O370 2.353 . S
Gd331 O371 2.468 . S
Gd331 O372 2.427 . S
Gd331 O374 2.388 . S
Gd331 C395 2.805 . S
N332 C322 1.359 . S
N332 Gd331 2.570 1_554 S
N332 C334 1.343 . S
C333 C321 1.422 . S
C333 C335 1.321 . S
C333 H341 0.931 . S
C334 N332 1.343 . S
C334 C335 1.390 . S
C334 H336 0.931 . S
C335 C333 1.321 . S
C335 C334 1.390 . S
C335 H337 0.930 . S
H336 C334 0.931 . S
H337 C335 0.930 . S
H338 C361 0.931 . S
H339 C327 0.929 . S
H340 C362 0.930 . S
H341 C333 0.931 . S
H342 C323 0.930 . S
H343 C352 0.929 . S
H344 C328 0.931 1_554 S
H345 C329 0.930 . S
H346 C384 0.930 . S
H347 C325 0.929 . S
H348 C353 0.931 . S
H349 C354 0.930 . S
N350 Gd330 2.622 . S
N350 C351 1.369 . S
N350 C352 1.338 . S
C351 N350 1.369 . S
C351 C355 1.415 . S
C351 C358 1.422 . S
C352 H343 0.929 . S
C352 N350 1.338 . S
C352 C354 1.378 . S
C353 H348 0.931 . S
C353 C354 1.348 . S
C353 C355 1.413 . S
C354 H349 0.930 . S
C354 C352 1.378 . S
C354 C353 1.348 . S
C355 C351 1.415 . S
C355 C353 1.413 . S
C355 C385 1.437 . S
H356 C385 0.929 . S
N357 Gd330 2.570 . S
N357 C358 1.359 . S
N357 C361 1.343 . S
C358 C351 1.422 . S
C358 N357 1.359 . S
C358 C360 1.421 . S
C359 C360 1.422 . S
C359 C362 1.321 . S
C359 H386 0.931 . S
C360 C358 1.421 . S
C360 C359 1.422 . S
C360 C384 1.417 . S
C361 H338 0.931 . S
C361 N357 1.343 . S
C361 C362 1.390 . S
C362 H340 0.930 . S
C362 C359 1.321 . S
C362 C361 1.390 . S
O363 Gd331 2.386 . S
O363 C375 1.265 . S
O364 Gd330 2.353 . S
O364 C375 1.242 . S
O365 Gd330 2.468 . S
O365 C383 1.263 . S
O366 Gd330 2.427 . S
O366 C383 1.252 . S
O367 Gd331 2.307 . S
O367 C376 1.261 . S
O368 Gd330 2.388 . S
O368 C376 1.252 . S
O369 Gd330 2.386 . S
O369 C387 1.265 . S
O370 Gd331 2.353 . S
O370 C387 1.242 . S
O371 Gd331 2.468 . S
O371 C395 1.263 . S
O372 Gd331 2.427 . S
O372 C395 1.252 . S
O373 Gd330 2.307 . S
O373 C388 1.261 . S
O374 Gd331 2.388 . S
O374 C388 1.252 . S
C375 O363 1.265 . S
C375 O364 1.242 . S
C376 O367 1.261 . S
C376 O368 1.252 . S
C377 C380 1.394 . S
C377 C382 1.370 . S
C377 C383 1.500 . S
C378 C381 1.383 . S
C378 C382 1.395 . S
C379 C380 1.396 . S
C379 C381 1.365 . S
C379 H396 0.929 . S
C380 C377 1.394 . S
C380 C379 1.396 . S
C380 H397 0.930 . S
C381 C378 1.383 . S
C381 C379 1.365 . S
C381 H398 0.931 . S
C382 C377 1.370 . S
C382 C378 1.395 . S
C382 H399 0.930 . S
C383 Gd330 2.805 . S
C383 O365 1.263 . S
C383 O366 1.252 . S
C383 C377 1.500 . S
C384 H346 0.930 . S
C384 C360 1.417 . S
C384 C385 1.329 . S
C385 C355 1.437 . S
C385 H356 0.929 . S
C385 C384 1.329 . S
H386 C359 0.931 . S
C387 O369 1.265 . S
C387 O370 1.242 . S
C388 O373 1.261 . S
C388 O374 1.252 . S
C389 C392 1.394 . S
C389 C394 1.370 . S
C389 C395 1.500 1_554 S
C390 C393 1.383 . S
C390 C394 1.395 . S
C391 C392 1.396 . S
C391 C393 1.365 . S
C391 H400 0.929 . S
C392 C389 1.394 . S
C392 C391 1.396 . S
C392 H401 0.930 1_554 S
C393 C390 1.383 . S
C393 C391 1.365 . S
C393 H402 0.931 . S
C394 C389 1.370 . S
C394 C390 1.395 . S
C394 H403 0.930 . S
C395 Gd331 2.805 . S
C395 O371 1.263 . S
C395 O372 1.252 . S
C395 C389 1.500 1_556 S
H396 C379 0.929 . S
H397 C380 0.930 . S
H398 C381 0.931 . S
H399 C382 0.930 . S
H400 C391 0.929 . S
H401 C392 0.930 1_556 S
H402 C393 0.931 . S
H403 C394 0.930 . S
C404 C406 1.422 . S
C404 C408 1.415 . S
C404 N410 1.369 1_554 S
C405 C406 1.421 . S
C405 C407 1.417 . S
C405 C417 1.422 . S
C406 C404 1.422 . S
C406 C405 1.421 . S
C406 N416 1.359 . S
C407 C405 1.417 . S
C407 C409 1.329 . S
C407 H426 0.930 . S
C408 C404 1.415 . S
C408 C409 1.437 . S
C408 C412 1.413 1_554 S
C409 C407 1.329 . S
C409 C408 1.437 . S
C409 H431 0.929 . S
N410 C404 1.369 1_556 S
N410 C411 1.338 . S
N410 Gd415 2.622 1_455 S
C411 N410 1.338 . S
C411 C413 1.378 . S
C411 H423 0.929 1_455 S
C412 C408 1.413 1_556 S
C412 C413 1.348 . S
C412 H428 0.931 1_556 S
C413 C411 1.378 . S
C413 C412 1.348 . S
C413 H429 0.930 . S
Gd414 N434 2.622 . S
Gd414 N441 2.570 . S
Gd414 O448 2.353 . S
Gd414 O449 2.468 . S
Gd414 O450 2.427 . S
Gd414 O452 2.388 . S
Gd414 O453 2.386 1_455 S
Gd414 O457 2.307 . S
Gd414 C467 2.805 . S
Gd415 N410 2.622 1_655 S
Gd415 N416 2.570 1_656 S
Gd415 O447 2.386 1_655 S
Gd415 O451 2.307 1_655 S
Gd415 O454 2.353 . S
Gd415 O455 2.468 . S
Gd415 O456 2.427 . S
Gd415 O458 2.388 . S
Gd415 C479 2.805 . S
N416 C406 1.359 . S
N416 Gd415 2.570 1_454 S
N416 C418 1.343 . S
C417 C405 1.422 . S
C417 C419 1.321 . S
C417 H425 0.931 . S
C418 N416 1.343 . S
C418 C419 1.390 . S
C418 H420 0.931 . S
C419 C417 1.321 . S
C419 C418 1.390 . S
C419 H421 0.930 . S
H420 C418 0.931 . S
H421 C419 0.930 . S
H422 C445 0.931 . S
H423 C411 0.929 1_655 S
H424 C446 0.930 . S
H425 C417 0.931 . S
H426 C407 0.930 . S
H427 C436 0.929 . S
H428 C412 0.931 1_554 S
H429 C413 0.930 . S
H430 C468 0.930 . S
H431 C409 0.929 . S
H432 C437 0.931 . S
H433 C438 0.930 . S
N434 Gd414 2.622 . S
N434 C435 1.351 1_455 S
N434 C436 1.338 . S
C435 N434 1.351 1_655 S
C435 C439 1.430 . S
C435 C442 1.427 . S
C436 H427 0.929 . S
C436 N434 1.338 . S
C436 C438 1.378 . S
C437 H432 0.931 . S
C437 C438 1.348 1_655 S
C437 C439 1.413 . S
C438 H433 0.930 . S
C438 C436 1.378 . S
C438 C437 1.348 1_455 S
C439 C435 1.430 . S
C439 C437 1.413 . S
C439 C469 1.437 . S
H440 C469 0.929 . S
N441 Gd414 2.570 . S
N441 C442 1.359 1_455 S
N441 C445 1.343 . S
C442 C435 1.427 . S
C442 N441 1.359 1_655 S
C442 C444 1.421 . S
C443 C444 1.422 . S
C443 C446 1.321 . S
C443 H470 0.931 . S
C444 C442 1.421 . S
C444 C443 1.422 . S
C444 C468 1.417 . S
C445 H422 0.931 . S
C445 N441 1.343 . S
C445 C446 1.390 1_455 S
C446 H424 0.930 . S
C446 C443 1.321 . S
C446 C445 1.390 1_655 S
O447 Gd415 2.386 1_455 S
O447 C459 1.265 . S
O448 Gd414 2.353 . S
O448 C459 1.242 . S
O449 Gd414 2.468 . S
O449 C467 1.263 . S
O450 Gd414 2.427 . S
O450 C467 1.252 . S
O451 Gd415 2.307 1_455 S
O451 C460 1.261 . S
O452 Gd414 2.388 . S
O452 C460 1.252 . S
O453 Gd414 2.386 1_655 S
O453 C471 1.265 . S
O454 Gd415 2.353 . S
O454 C471 1.242 . S
O455 Gd415 2.468 . S
O455 C479 1.263 . S
O456 Gd415 2.427 . S
O456 C479 1.252 . S
O457 Gd414 2.307 . S
O457 C472 1.261 . S
O458 Gd415 2.388 . S
O458 C472 1.252 1_655 S
C459 O447 1.265 . S
C459 O448 1.242 . S
C460 O451 1.261 . S
C460 O452 1.252 . S
C461 C464 1.394 . S
C461 C466 1.370 . S
C461 C467 1.500 . S
C462 C465 1.383 . S
C462 C466 1.395 . S
C463 C464 1.396 . S
C463 C465 1.365 . S
C463 H480 0.929 . S
C464 C461 1.394 . S
C464 C463 1.396 . S
C464 H481 0.930 . S
C465 C462 1.383 . S
C465 C463 1.365 . S
C465 H482 0.931 . S
C466 C461 1.370 . S
C466 C462 1.395 . S
C466 H483 0.930 . S
C467 Gd414 2.805 . S
C467 O449 1.263 . S
C467 O450 1.252 . S
C467 C461 1.500 . S
C468 H430 0.930 . S
C468 C444 1.417 . S
C468 C469 1.329 . S
C469 C439 1.437 . S
C469 H440 0.929 . S
C469 C468 1.329 . S
H470 C443 0.931 . S
C471 O453 1.265 . S
C471 O454 1.242 . S
C472 O457 1.261 . S
C472 O458 1.252 1_455 S
C473 C476 1.394 . S
C473 C478 1.370 . S
C473 C479 1.500 1_554 S
C474 C477 1.383 . S
C474 C478 1.395 . S
C475 C476 1.396 . S
C475 C477 1.365 . S
C475 H484 0.929 . S
C476 C473 1.394 . S
C476 C475 1.396 . S
C476 H485 0.930 1_554 S
C477 C474 1.383 . S
C477 C475 1.365 . S
C477 H486 0.931 . S
C478 C473 1.370 . S
C478 C474 1.395 . S
C478 H487 0.930 . S
C479 Gd415 2.805 . S
C479 O455 1.263 . S
C479 O456 1.252 . S
C479 C473 1.500 1_556 S
H480 C463 0.929 . S
H481 C464 0.930 . S
H482 C465 0.931 . S
H483 C466 0.930 . S
H484 C475 0.929 . S
H485 C476 0.930 1_556 S
H486 C477 0.931 . S
H487 C478 0.930 . S
C488 C489 1.369 . S
C488 C490 1.419 . S
C488 H492 0.930 . S
C489 C488 1.369 . S
C489 C498 1.429 . S
C490 C488 1.419 . S
C490 C491 1.363 . S
C490 H493 0.929 . S
C491 C490 1.363 . S
C491 C497 1.428 1_545 S
H492 C488 0.930 . S
H493 C490 0.929 . S
S494 N495 1.613 . S
S494 N496 1.610 . S
N495 S494 1.613 . S
N495 C498 1.350 1_565 S
N496 S494 1.610 . S
N496 C497 1.351 . S
C497 C491 1.428 1_565 S
C497 N496 1.351 . S
C497 C498 1.434 1_565 S
C498 C489 1.429 . S
C498 N495 1.350 1_545 S
C498 C497 1.434 1_545 S
C499 C500 1.369 . S
C499 C501 1.419 . S
C499 H503 0.930 . S
C500 C499 1.369 . S
C500 C509 1.429 . S
C501 C499 1.419 . S
C501 C502 1.363 . S
C501 H504 0.929 . S
C502 C501 1.363 . S
C502 C508 1.428 . S
H503 C499 0.930 . S
H504 C501 0.929 . S
S505 N506 1.613 . S
S505 N507 1.610 . S
N506 S505 1.613 . S
N506 C509 1.350 . S
N507 S505 1.610 . S
N507 C508 1.351 . S
C508 C502 1.428 . S
C508 N507 1.351 . S
C508 C509 1.434 . S
C509 C500 1.429 . S
C509 N506 1.350 . S
C509 C508 1.434 . S
C510 C511 1.369 . S
C510 C512 1.419 . S
C510 H514 0.930 . S
C511 C510 1.369 . S
C511 C520 1.429 . S
C512 C510 1.419 . S
C512 C513 1.363 . S
C512 H515 0.929 . S
C513 C512 1.363 . S
C513 C519 1.428 . S
H514 C510 0.930 . S
H515 C512 0.929 . S
S516 N517 1.613 . S
S516 N518 1.610 . S
N517 S516 1.613 . S
N517 C520 1.350 . S
N518 S516 1.610 . S
N518 C519 1.351 . S
C519 C513 1.428 . S
C519 N518 1.351 . S
C519 C520 1.434 . S
C520 C511 1.429 . S
C520 N517 1.350 . S
C520 C519 1.434 . S
C521 C522 1.369 . S
C521 C523 1.423 . S
C521 H525 0.930 1_455 S
C522 C521 1.369 . S
C522 C531 1.429 . S
C523 C521 1.423 . S
C523 C524 1.385 . S
C523 H526 0.902 1_455 S
C524 C523 1.385 . S
C524 C530 1.428 . S
H525 C521 0.930 1_655 S
H526 C523 0.902 1_655 S
S527 N528 1.613 . S
S527 N529 1.610 . S
N528 S527 1.613 . S
N528 C531 1.350 . S
N529 S527 1.610 . S
N529 C530 1.351 . S
C530 C524 1.428 . S
C530 N529 1.351 . S
C530 C531 1.434 . S
C531 C522 1.429 . S
C531 N528 1.350 . S
C531 C530 1.434 . S
C532 C533 1.369 . S
C532 C534 1.419 . S
C532 H536 0.930 . S
C533 C532 1.369 . S
C533 C542 1.429 1_565 S
C534 C532 1.419 . S
C534 C535 1.363 1_554 S
C534 H537 0.929 1_554 S
C535 C534 1.363 1_556 S
C535 C541 1.428 1_566 S
H536 C532 0.930 . S
H537 C534 0.929 1_556 S
S538 N539 1.613 . S
S538 N540 1.610 . S
N539 S538 1.613 . S
N539 C542 1.350 . S
N540 S538 1.610 . S
N540 C541 1.351 . S
C541 C535 1.428 1_544 S
C541 N540 1.351 . S
C541 C542 1.434 . S
C542 C533 1.429 1_545 S
C542 N539 1.350 . S
C542 C541 1.434 . S
C543 C544 1.369 . S
C543 C545 1.419 . S
C543 H547 0.930 . S
C544 C543 1.369 . S
C544 C553 1.429 . S
C545 C543 1.419 . S
C545 C546 1.363 1_554 S
C545 H548 0.929 1_554 S
C546 C545 1.363 1_556 S
C546 C552 1.428 1_556 S
H547 C543 0.930 . S
H548 C545 0.929 1_556 S
S549 N550 1.613 . S
S549 N551 1.610 . S
N550 S549 1.613 . S
N550 C553 1.350 . S
N551 S549 1.610 . S
N551 C552 1.351 . S
C552 C546 1.428 1_554 S
C552 N551 1.351 . S
C552 C553 1.434 . S
C553 C544 1.429 . S
C553 N550 1.350 . S
C553 C552 1.434 . S
C554 C555 1.369 . S
C554 C556 1.419 1_554 S
C554 H558 0.930 . S
C555 C554 1.369 . S
C555 C564 1.429 . S
C556 C554 1.419 1_556 S
C556 C557 1.363 . S
C556 H559 0.929 . S
C557 C556 1.363 . S
C557 C563 1.428 1_556 S
H558 C554 0.930 . S
H559 C556 0.929 . S
S560 N561 1.613 . S
S560 N562 1.610 . S
N561 S560 1.613 . S
N561 C564 1.350 . S
N562 S560 1.610 . S
N562 C563 1.351 . S
C563 C557 1.428 1_554 S
C563 N562 1.351 . S
C563 C564 1.434 . S
C564 C555 1.429 . S
C564 N561 1.350 . S
C564 C563 1.434 . S
C565 C566 1.369 . S
C565 C567 1.419 . S
C565 H569 0.930 . S
C566 C565 1.369 . S
C566 C575 1.429 1_655 S
C567 C565 1.419 . S
C567 C568 1.363 1_554 S
C567 H570 0.929 . S
C568 C567 1.363 1_556 S
C568 C574 1.430 1_655 S
H569 C565 0.930 . S
H570 C567 0.929 . S
S571 N572 1.613 1_556 S
S571 N573 1.610 . S
N572 S571 1.613 1_554 S
N572 C575 1.350 . S
N573 S571 1.610 . S
N573 C574 1.355 . S
C574 C568 1.430 1_455 S
C574 N573 1.355 . S
C574 C575 1.429 1_556 S
C575 C566 1.429 1_455 S
C575 N572 1.350 . S
C575 C574 1.429 1_554 S
C576 C577 1.369 . S
C576 C578 1.419 1_455 S
C576 H580 0.930 . S
C577 C576 1.369 . S
C577 C586 1.429 . S
C578 C576 1.419 1_655 S
C578 C579 1.363 1_655 S
C578 H581 0.929 . S
C579 C578 1.363 1_455 S
C579 C585 1.428 . S
H580 C576 0.930 . S
H581 C578 0.929 . S
S582 N583 1.613 . S
S582 N584 1.610 . S
N583 S582 1.613 . S
N583 C586 1.350 . S
N584 S582 1.610 . S
N584 C585 1.351 . S
C585 C579 1.428 . S
C585 N584 1.351 . S
C585 C586 1.434 . S
C586 C577 1.429 . S
C586 N583 1.350 . S
C586 C585 1.434 . S
C587 C588 1.369 . S
C587 C589 1.419 1_545 S
C587 H591 0.930 1_545 S
C588 C587 1.369 . S
C588 C597 1.429 . S
C589 C587 1.419 1_565 S
C589 C590 1.363 1_565 S
C589 H592 0.929 . S
C590 C589 1.363 1_545 S
C590 C596 1.428 . S
H591 C587 0.930 1_565 S
H592 C589 0.929 . S
S593 N594 1.613 . S
S593 N595 1.610 . S
N594 S593 1.613 . S
N594 C597 1.350 . S
N595 S593 1.610 . S
N595 C596 1.351 . S
C596 C590 1.428 . S
C596 N595 1.351 . S
C596 C597 1.434 . S
C597 C588 1.429 . S
C597 N594 1.350 . S
C597 C596 1.434 . S
C598 C599 1.369 . S
C598 C600 1.419 . S
C598 H602 0.930 . S
C599 C598 1.369 . S
C599 C608 1.429 . S
C600 C598 1.419 . S
C600 C601 1.363 . S
C600 H603 0.929 . S
C601 C600 1.363 . S
C601 C607 1.428 . S
H602 C598 0.930 . S
H603 C600 0.929 . S
S604 N605 1.613 . S
S604 N606 1.610 . S
N605 S604 1.613 . S
N605 C608 1.350 . S
N606 S604 1.610 . S
N606 C607 1.351 . S
C607 C601 1.428 . S
C607 N606 1.351 . S
C607 C608 1.434 . S
C608 C599 1.429 . S
C608 N605 1.350 . S
C608 C607 1.434 . S
C609 C610 1.369 . S
C609 C611 1.419 . S
C609 H613 0.930 . S
C610 C609 1.369 . S
C610 C619 1.429 . S
C611 C609 1.419 . S
C611 C612 1.363 . S
C611 H614 0.929 . S
C612 C611 1.363 . S
C612 C618 1.428 . S
H613 C609 0.930 . S
H614 C611 0.929 . S
S615 N616 1.613 . S
S615 N617 1.610 . S
N616 S615 1.613 . S
N616 C619 1.350 . S
N617 S615 1.610 . S
N617 C618 1.351 . S
C618 C612 1.428 . S
C618 N617 1.351 . S
C618 C619 1.434 . S
C619 C610 1.429 . S
C619 N616 1.350 . S
C619 C618 1.434 . S
C620 C621 1.369 1_455 S
C620 C622 1.419 . S
C620 H624 0.930 . S
C621 C620 1.369 1_655 S
C621 C630 1.429 . S
C622 C620 1.419 . S
C622 C623 1.363 . S
C622 H625 0.929 . S
C623 C622 1.363 . S
C623 C629 1.428 1_455 S
H624 C620 0.930 . S
H625 C622 0.929 . S
S626 N627 1.613 . S
S626 N628 1.610 . S
N627 S626 1.613 . S
N627 C630 1.350 . S
N628 S626 1.610 . S
N628 C629 1.351 . S
C629 C623 1.428 1_655 S
C629 N628 1.351 . S
C629 C630 1.434 . S
C630 C621 1.429 . S
C630 N627 1.350 . S
C630 C629 1.434 . S
C631 C632 1.369 1_545 S
C631 C633 1.419 . S
C631 H635 0.930 . S
C632 C631 1.369 1_565 S
C632 C641 1.429 . S
C633 C631 1.419 . S
C633 C634 1.363 . S
C633 H636 0.929 . S
C634 C633 1.363 . S
C634 C640 1.428 1_545 S
H635 C631 0.930 . S
H636 C633 0.929 . S
S637 N638 1.613 . S
S637 N639 1.610 . S
N638 S637 1.613 . S
N638 C641 1.350 . S
N639 S637 1.610 . S
N639 C640 1.351 . S
C640 C634 1.428 1_565 S
C640 N639 1.351 . S
C640 C641 1.434 . S
C641 C632 1.429 . S
C641 N638 1.350 . S
C641 C640 1.434 . S
C642 C643 1.369 . S
C642 C644 1.419 . S
C642 H646 0.930 . S
C643 C642 1.369 . S
C643 C652 1.429 . S
C644 C642 1.419 . S
C644 C645 1.363 . S
C644 H647 0.929 . S
C645 C644 1.363 . S
C645 C651 1.428 . S
H646 C642 0.930 . S
H647 C644 0.929 . S
S648 N649 1.613 . S
S648 N650 1.610 . S
N649 S648 1.613 . S
N649 C652 1.350 . S
N650 S648 1.610 . S
N650 C651 1.351 . S
C651 C645 1.428 . S
C651 N650 1.351 . S
C651 C652 1.434 . S
C652 C643 1.429 . S
C652 N649 1.350 . S
C652 C651 1.434 . S
C653 C654 1.369 . S
C653 C655 1.419 . S
C653 H657 0.930 . S
C654 C653 1.369 . S
C654 C663 1.429 . S
C655 C653 1.419 . S
C655 C656 1.363 . S
C655 H658 0.929 . S
C656 C655 1.363 . S
C656 C662 1.428 . S
H657 C653 0.930 . S
H658 C655 0.929 . S
S659 N660 1.613 . S
S659 N661 1.610 . S
N660 S659 1.613 . S
N660 C663 1.350 . S
N661 S659 1.610 . S
N661 C662 1.351 . S
C662 C656 1.428 . S
C662 N661 1.351 . S
C662 C663 1.434 . S
C663 C654 1.429 . S
C663 N660 1.350 . S
C663 C662 1.434 . S
C664 C665 1.369 . S
C664 C666 1.419 . S
C664 H668 0.930 . S
C665 C664 1.369 . S
C665 C674 1.429 . S
C666 C664 1.419 . S
C666 C667 1.363 . S
C666 H669 0.929 . S
C667 C666 1.363 . S
C667 C673 1.428 . S
H668 C664 0.930 . S
H669 C666 0.929 . S
S670 N671 1.613 1_554 S
S670 N672 1.610 1_554 S
N671 S670 1.613 1_556 S
N671 C674 1.350 1_655 S
N672 S670 1.610 1_556 S
N672 C673 1.351 1_655 S
C673 C667 1.428 . S
C673 N672 1.351 1_455 S
C673 C674 1.434 . S
C674 C665 1.429 . S
C674 N671 1.350 1_455 S
C674 C673 1.434 . S
C675 C676 1.369 . S
C675 C677 1.419 . S
C675 H679 0.930 . S
C676 C675 1.369 . S
C676 C685 1.435 . S
C677 C675 1.419 . S
C677 C678 1.363 . S
C677 H680 0.929 . S
C678 C677 1.363 . S
C678 C684 1.428 1_545 S
H679 C675 0.930 . S
H680 C677 0.929 . S
S681 N682 1.613 . S
S681 N683 1.610 . S
N682 S681 1.613 . S
N682 C685 1.343 1_565 S
N683 S681 1.610 . S
N683 C684 1.351 . S
C684 C678 1.428 1_565 S
C684 N683 1.351 . S
C684 C685 1.433 1_565 S
C685 C676 1.435 . S
C685 N682 1.343 1_545 S
C685 C684 1.433 1_545 S
C686 C687 1.369 . S
C686 C688 1.419 . S
C686 H690 0.930 . S
C687 C686 1.369 . S
C687 C696 1.429 . S
C688 C686 1.419 . S
C688 C689 1.363 . S
C688 H691 0.929 . S
C689 C688 1.363 . S
C689 C695 1.428 . S
H690 C686 0.930 . S
H691 C688 0.929 . S
S692 N693 1.613 . S
S692 N694 1.610 . S
N693 S692 1.613 . S
N693 C696 1.350 . S
N694 S692 1.610 . S
N694 C695 1.351 . S
C695 C689 1.428 . S
C695 N694 1.351 . S
C695 C696 1.434 . S
C696 C687 1.429 . S
C696 N693 1.350 . S
C696 C695 1.434 . S
C697 C698 1.369 . S
C697 C699 1.419 . S
C697 H701 0.930 . S
C698 C697 1.369 . S
C698 C707 1.429 . S
C699 C697 1.419 . S
C699 C700 1.363 . S
C699 H702 0.929 . S
C700 C699 1.363 . S
C700 C706 1.428 . S
H701 C697 0.930 . S
H702 C699 0.929 . S
S703 N704 1.613 . S
S703 N705 1.610 . S
N704 S703 1.613 . S
N704 C707 1.350 . S
N705 S703 1.610 . S
N705 C706 1.351 . S
C706 C700 1.428 . S
C706 N705 1.351 . S
C706 C707 1.434 . S
C707 C698 1.429 . S
C707 N704 1.350 . S
C707 C706 1.434 . S
C708 C709 1.369 . S
C708 C710 1.419 . S
C708 H712 0.930 . S
C709 C708 1.369 . S
C709 C718 1.429 . S
C710 C708 1.419 . S
C710 C711 1.363 . S
C710 H713 0.929 . S
C711 C710 1.363 . S
C711 C717 1.429 . S
H712 C708 0.930 . S
H713 C710 0.929 . S
S714 N715 1.613 . S
S714 N716 1.610 . S
N715 S714 1.613 . S
N715 C718 1.350 1_455 S
N716 S714 1.610 . S
N716 C717 1.350 1_455 S
C717 C711 1.429 . S
C717 N716 1.350 1_655 S
C717 C718 1.434 . S
C718 C709 1.429 . S
C718 N715 1.350 1_655 S
C718 C717 1.434 . S
C719 C720 1.369 1_545 S
C719 C721 1.419 . S
C719 H723 0.930 . S
C720 C719 1.369 1_565 S
C720 C729 1.429 . S
C721 C719 1.419 . S
C721 C722 1.363 1_545 S
C721 H724 0.929 . S
C722 C721 1.363 1_565 S
C722 C728 1.428 . S
H723 C719 0.930 . S
H724 C721 0.929 . S
S725 N726 1.613 . S
S725 N727 1.610 . S
N726 S725 1.613 . S
N726 C729 1.350 . S
N727 S725 1.610 . S
N727 C728 1.351 . S
C728 C722 1.428 . S
C728 N727 1.351 . S
C728 C729 1.434 . S
C729 C720 1.429 . S
C729 N726 1.350 . S
C729 C728 1.434 . S
C730 C731 1.369 . S
C730 C732 1.419 . S
C730 H734 0.930 . S
C731 C730 1.369 . S
C731 C740 1.429 . S
C732 C730 1.419 . S
C732 C733 1.363 . S
C732 H735 0.929 . S
C733 C732 1.363 . S
C733 C739 1.428 . S
H734 C730 0.930 . S
H735 C732 0.929 . S
S736 N737 1.613 . S
S736 N738 1.610 . S
N737 S736 1.613 . S
N737 C740 1.350 . S
N738 S736 1.610 . S
N738 C739 1.351 . S
C739 C733 1.428 . S
C739 N738 1.351 . S
C739 C740 1.434 . S
C740 C731 1.429 . S
C740 N737 1.350 . S
C740 C739 1.434 . S
C741 C742 1.369 . S
C741 C743 1.419 . S
C741 H745 0.930 . S
C742 C741 1.369 . S
C742 C751 1.429 . S
C743 C741 1.419 . S
C743 C744 1.363 . S
C743 H746 0.929 . S
C744 C743 1.363 . S
C744 C750 1.428 . S
H745 C741 0.930 . S
H746 C743 0.929 . S
S747 N748 1.613 . S
S747 N749 1.610 . S
N748 S747 1.613 . S
N748 C751 1.350 . S
N749 S747 1.610 . S
N749 C750 1.351 . S
C750 C744 1.428 . S
C750 N749 1.351 . S
C750 C751 1.434 . S
C751 C742 1.429 . S
C751 N748 1.350 . S
C751 C750 1.434 . S
C489 C125 2.096 . S
C491 C220 2.149 . S
C502 C303 2.154 . S
C500 C144 2.101 . S
C513 C388 2.150 . S
C511 C87 2.101 . S
C524 C472 2.138 . S
C522 C106 2.090 . S
C535 C208 2.149 1_565 S
C533 C49 2.162 . S
C544 C68 2.164 . S
C546 C291 2.155 . S
C555 C11 2.159 . S
C557 C376 2.147 . S
C566 C30 2.145 . S
C568 C460 2.137 1_655 S
C579 C210 0.796 1_455 S
C577 C97 0.781 . S
C590 C306 0.780 . S
C588 C116 0.771 . S
C601 C378 0.799 . S
C599 C135 0.801 . S
C610 C78 0.783 . S
C612 C462 0.771 . S
C621 C21 0.793 . S
C623 C222 0.797 . S
C634 C294 0.780 . S
C632 C40 0.785 . S
C645 C390 0.797 . S
C643 C59 0.783 . S
C654 C2 0.769 . S
C656 C474 0.782 . S
C665 C101 2.024 . S
C667 C207 2.260 . S
C676 C120 2.033 . S
C678 C292 2.314 . S
C689 C375 2.275 . S
C687 C139 2.050 . S
C700 C459 2.281 . S
C698 C82 2.044 . S
C709 C25 2.037 . S
C711 C219 2.256 . S
C722 C304 2.315 . S
C720 C44 2.032 . S
C733 C387 2.276 . S
C731 C63 2.047 . S
C742 C6 2.047 . S
C744 C471 2.281 . S
