# Generated by pormake.
# Topology llk, (3,12)-cn, num edge types: 1
# Building blocks:
#     Node 0, Type 0, BuildingBlock: BETDAH_clean_linker_0, # of connection points: 3
#     Node 1, Type 0, BuildingBlock: BETDAH_clean_linker_0, # of connection points: 3
#     Node 2, Type 0, BuildingBlock: BETDAH_clean_linker_0, # of connection points: 3
#     Node 3, Type 0, BuildingBlock: BETDAH_clean_linker_0, # of connection points: 3
#     Node 4, Type 0, BuildingBlock: BETDAH_clean_linker_0, # of connection points: 3
#     Node 5, Type 0, BuildingBlock: BETDAH_clean_linker_0, # of connection points: 3
#     Node 6, Type 0, BuildingBlock: BETDAH_clean_linker_0, # of connection points: 3
#     Node 7, Type 0, BuildingBlock: BETDAH_clean_linker_0, # of connection points: 3
#     Node 8, Type 0, BuildingBlock: BETDAH_clean_linker_0, # of connection points: 3
#     Node 9, Type 0, BuildingBlock: BETDAH_clean_linker_0, # of connection points: 3
#     Node 10, Type 0, BuildingBlock: BETDAH_clean_linker_0, # of connection points: 3
#     Node 11, Type 0, BuildingBlock: BETDAH_clean_linker_0, # of connection points: 3
#     Node 12, Type 0, BuildingBlock: BETDAH_clean_linker_0, # of connection points: 3
#     Node 13, Type 0, BuildingBlock: BETDAH_clean_linker_0, # of connection points: 3
#     Node 14, Type 0, BuildingBlock: BETDAH_clean_linker_0, # of connection points: 3
#     Node 15, Type 0, BuildingBlock: BETDAH_clean_linker_0, # of connection points: 3
#     Node 16, Type 0, BuildingBlock: BETDAH_clean_linker_0, # of connection points: 3
#     Node 17, Type 0, BuildingBlock: BETDAH_clean_linker_0, # of connection points: 3
#     Node 18, Type 0, BuildingBlock: BETDAH_clean_linker_0, # of connection points: 3
#     Node 19, Type 0, BuildingBlock: BETDAH_clean_linker_0, # of connection points: 3
#     Node 20, Type 0, BuildingBlock: BETDAH_clean_linker_0, # of connection points: 3
#     Node 21, Type 0, BuildingBlock: BETDAH_clean_linker_0, # of connection points: 3
#     Node 22, Type 0, BuildingBlock: BETDAH_clean_linker_0, # of connection points: 3
#     Node 23, Type 0, BuildingBlock: BETDAH_clean_linker_0, # of connection points: 3
#     Node 24, Type 1, BuildingBlock: QEWDON_clean_sbu_0, # of connection points: 12
#     Node 25, Type 1, BuildingBlock: QEWDON_clean_sbu_0, # of connection points: 12
#     Node 26, Type 1, BuildingBlock: QEWDON_clean_sbu_0, # of connection points: 12
#     Node 27, Type 1, BuildingBlock: QEWDON_clean_sbu_0, # of connection points: 12
#     Node 28, Type 1, BuildingBlock: QEWDON_clean_sbu_0, # of connection points: 12
#     Node 29, Type 1, BuildingBlock: QEWDON_clean_sbu_0, # of connection points: 12
#     Edge 30, Type (0, 1), BuildingBlock: KIFKEQ_clean_linker_1, # of connection points: 2
#     Edge 31, Type (0, 1), BuildingBlock: KIFKEQ_clean_linker_1, # of connection points: 2
#     Edge 32, Type (0, 1), BuildingBlock: KIFKEQ_clean_linker_1, # of connection points: 2
#     Edge 33, Type (0, 1), BuildingBlock: KIFKEQ_clean_linker_1, # of connection points: 2
#     Edge 34, Type (0, 1), BuildingBlock: KIFKEQ_clean_linker_1, # of connection points: 2
#     Edge 35, Type (0, 1), BuildingBlock: KIFKEQ_clean_linker_1, # of connection points: 2
#     Edge 36, Type (0, 1), BuildingBlock: KIFKEQ_clean_linker_1, # of connection points: 2
#     Edge 37, Type (0, 1), BuildingBlock: KIFKEQ_clean_linker_1, # of connection points: 2
#     Edge 38, Type (0, 1), BuildingBlock: KIFKEQ_clean_linker_1, # of connection points: 2
#     Edge 39, Type (0, 1), BuildingBlock: KIFKEQ_clean_linker_1, # of connection points: 2
#     Edge 40, Type (0, 1), BuildingBlock: KIFKEQ_clean_linker_1, # of connection points: 2
#     Edge 41, Type (0, 1), BuildingBlock: KIFKEQ_clean_linker_1, # of connection points: 2
#     Edge 42, Type (0, 1), BuildingBlock: KIFKEQ_clean_linker_1, # of connection points: 2
#     Edge 43, Type (0, 1), BuildingBlock: KIFKEQ_clean_linker_1, # of connection points: 2
#     Edge 44, Type (0, 1), BuildingBlock: KIFKEQ_clean_linker_1, # of connection points: 2
#     Edge 45, Type (0, 1), BuildingBlock: KIFKEQ_clean_linker_1, # of connection points: 2
#     Edge 46, Type (0, 1), BuildingBlock: KIFKEQ_clean_linker_1, # of connection points: 2
#     Edge 47, Type (0, 1), BuildingBlock: KIFKEQ_clean_linker_1, # of connection points: 2
#     Edge 48, Type (0, 1), BuildingBlock: KIFKEQ_clean_linker_1, # of connection points: 2
#     Edge 49, Type (0, 1), BuildingBlock: KIFKEQ_clean_linker_1, # of connection points: 2
#     Edge 50, Type (0, 1), BuildingBlock: KIFKEQ_clean_linker_1, # of connection points: 2
#     Edge 51, Type (0, 1), BuildingBlock: KIFKEQ_clean_linker_1, # of connection points: 2
#     Edge 52, Type (0, 1), BuildingBlock: KIFKEQ_clean_linker_1, # of connection points: 2
#     Edge 53, Type (0, 1), BuildingBlock: KIFKEQ_clean_linker_1, # of connection points: 2
#     Edge 54, Type (0, 1), BuildingBlock: KIFKEQ_clean_linker_1, # of connection points: 2
#     Edge 55, Type (0, 1), BuildingBlock: KIFKEQ_clean_linker_1, # of connection points: 2
#     Edge 56, Type (0, 1), BuildingBlock: KIFKEQ_clean_linker_1, # of connection points: 2
#     Edge 57, Type (0, 1), BuildingBlock: KIFKEQ_clean_linker_1, # of connection points: 2
#     Edge 58, Type (0, 1), BuildingBlock: KIFKEQ_clean_linker_1, # of connection points: 2
#     Edge 59, Type (0, 1), BuildingBlock: KIFKEQ_clean_linker_1, # of connection points: 2
#     Edge 60, Type (0, 1), BuildingBlock: KIFKEQ_clean_linker_1, # of connection points: 2
#     Edge 61, Type (0, 1), BuildingBlock: KIFKEQ_clean_linker_1, # of connection points: 2
#     Edge 62, Type (0, 1), BuildingBlock: KIFKEQ_clean_linker_1, # of connection points: 2
#     Edge 63, Type (0, 1), BuildingBlock: KIFKEQ_clean_linker_1, # of connection points: 2
#     Edge 64, Type (0, 1), BuildingBlock: KIFKEQ_clean_linker_1, # of connection points: 2
#     Edge 65, Type (0, 1), BuildingBlock: KIFKEQ_clean_linker_1, # of connection points: 2
#     Edge 66, Type (0, 1), BuildingBlock: KIFKEQ_clean_linker_1, # of connection points: 2
#     Edge 67, Type (0, 1), BuildingBlock: KIFKEQ_clean_linker_1, # of connection points: 2
#     Edge 68, Type (0, 1), BuildingBlock: KIFKEQ_clean_linker_1, # of connection points: 2
#     Edge 69, Type (0, 1), BuildingBlock: KIFKEQ_clean_linker_1, # of connection points: 2
#     Edge 70, Type (0, 1), BuildingBlock: KIFKEQ_clean_linker_1, # of connection points: 2
#     Edge 71, Type (0, 1), BuildingBlock: KIFKEQ_clean_linker_1, # of connection points: 2
#     Edge 72, Type (0, 1), BuildingBlock: KIFKEQ_clean_linker_1, # of connection points: 2
#     Edge 73, Type (0, 1), BuildingBlock: KIFKEQ_clean_linker_1, # of connection points: 2
#     Edge 74, Type (0, 1), BuildingBlock: KIFKEQ_clean_linker_1, # of connection points: 2
#     Edge 75, Type (0, 1), BuildingBlock: KIFKEQ_clean_linker_1, # of connection points: 2
#     Edge 76, Type (0, 1), BuildingBlock: KIFKEQ_clean_linker_1, # of connection points: 2
#     Edge 77, Type (0, 1), BuildingBlock: KIFKEQ_clean_linker_1, # of connection points: 2
#     Edge 78, Type (0, 1), BuildingBlock: KIFKEQ_clean_linker_1, # of connection points: 2
#     Edge 79, Type (0, 1), BuildingBlock: KIFKEQ_clean_linker_1, # of connection points: 2
#     Edge 80, Type (0, 1), BuildingBlock: KIFKEQ_clean_linker_1, # of connection points: 2
#     Edge 81, Type (0, 1), BuildingBlock: KIFKEQ_clean_linker_1, # of connection points: 2
#     Edge 82, Type (0, 1), BuildingBlock: KIFKEQ_clean_linker_1, # of connection points: 2
#     Edge 83, Type (0, 1), BuildingBlock: KIFKEQ_clean_linker_1, # of connection points: 2
#     Edge 84, Type (0, 1), BuildingBlock: KIFKEQ_clean_linker_1, # of connection points: 2
#     Edge 85, Type (0, 1), BuildingBlock: KIFKEQ_clean_linker_1, # of connection points: 2
#     Edge 86, Type (0, 1), BuildingBlock: KIFKEQ_clean_linker_1, # of connection points: 2
#     Edge 87, Type (0, 1), BuildingBlock: KIFKEQ_clean_linker_1, # of connection points: 2
#     Edge 88, Type (0, 1), BuildingBlock: KIFKEQ_clean_linker_1, # of connection points: 2
#     Edge 89, Type (0, 1), BuildingBlock: KIFKEQ_clean_linker_1, # of connection points: 2
#     Edge 90, Type (0, 1), BuildingBlock: KIFKEQ_clean_linker_1, # of connection points: 2
#     Edge 91, Type (0, 1), BuildingBlock: KIFKEQ_clean_linker_1, # of connection points: 2
#     Edge 92, Type (0, 1), BuildingBlock: KIFKEQ_clean_linker_1, # of connection points: 2
#     Edge 93, Type (0, 1), BuildingBlock: KIFKEQ_clean_linker_1, # of connection points: 2
#     Edge 94, Type (0, 1), BuildingBlock: KIFKEQ_clean_linker_1, # of connection points: 2
#     Edge 95, Type (0, 1), BuildingBlock: KIFKEQ_clean_linker_1, # of connection points: 2
#     Edge 96, Type (0, 1), BuildingBlock: KIFKEQ_clean_linker_1, # of connection points: 2
#     Edge 97, Type (0, 1), BuildingBlock: KIFKEQ_clean_linker_1, # of connection points: 2
#     Edge 98, Type (0, 1), BuildingBlock: KIFKEQ_clean_linker_1, # of connection points: 2
#     Edge 99, Type (0, 1), BuildingBlock: KIFKEQ_clean_linker_1, # of connection points: 2
#     Edge 100, Type (0, 1), BuildingBlock: KIFKEQ_clean_linker_1, # of connection points: 2
#     Edge 101, Type (0, 1), BuildingBlock: KIFKEQ_clean_linker_1, # of connection points: 2
# Relax obj value: 0.093
# Max RMSD: 0.167
# Mean RMSD: 0.132
data_MOF--net-llk--node1-QEWDON_clean_sbu_0--node2-BETDAH_clean_linker_0--edge1-KIFKEQ_clean_linker_1
_symmetry_space_group_name_H-M    P1
_symmetry_Int_Tables_number       1
_symmetry_cell_setting            triclinic
loop_
_symmetry_equiv_pos_as_xyz
'x, y, z'
_cell_length_a     46.897182
_cell_length_b     48.604008
_cell_length_c     48.437916
_cell_angle_alpha  90.122858
_cell_angle_beta   90.016746
_cell_angle_gamma 89.547715
loop_
_atom_site_label
_atom_site_type_symbol
_atom_site_fract_x
_atom_site_fract_y
_atom_site_fract_z
_atom_type_partial_charge
H0 H 0.04551 0.25661 0.34675 0.0
H1 H 0.05338 0.30588 0.27376 0.0
H2 H 0.0628 0.21796 0.26842 0.0
C3 C 0.04968 0.25814 0.3248 0.0
C4 C 0.05437 0.23408 0.30929 0.0
C5 C 0.0493 0.28412 0.31215 0.0
C6 C 0.05422 0.28595 0.28361 0.0
C7 C 0.05921 0.2621 0.26775 0.0
C8 C 0.05926 0.23632 0.28073 0.0
N9 N 0.06356 0.26324 0.23871 0.0
C10 C 0.0618 0.28729 0.22322 0.0
H11 H 0.67106 0.06516 0.20222 0.0
H12 H 0.73875 0.08632 0.25752 0.0
H13 H 0.75471 0.08141 0.16998 0.0
C14 C 0.69314 0.07074 0.20559 0.0
C15 C 0.71168 0.0724 0.18297 0.0
C16 C 0.70276 0.07557 0.23247 0.0
C17 C 0.73122 0.08306 0.23665 0.0
C18 C 0.75012 0.08535 0.21419 0.0
C19 C 0.7401 0.0804 0.18727 0.0
N20 N 0.77947 0.09116 0.21846 0.0
C21 C 0.7922 0.08865 0.24432 0.0
H22 H 0.01332 0.67728 0.26996 0.0
H23 H 0.01636 0.75785 0.30572 0.0
H24 H 0.00474 0.74891 0.21807 0.0
C25 C 0.01297 0.6994 0.26716 0.0
C26 C 0.00849 0.71071 0.24082 0.0
C27 C 0.01622 0.7163 0.29039 0.0
C28 C 0.01412 0.74493 0.28761 0.0
C29 C 0.00986 0.75668 0.26138 0.0
C30 C 0.00744 0.73954 0.23818 0.0
N31 N 0.00812 0.78559 0.2575 0.0
C32 C 0.00483 0.80437 0.27895 0.0
H33 H 0.22802 0.99687 0.31675 0.0
H34 H 0.29031 0.99311 0.25168 0.0
H35 H 0.20108 0.98311 0.23319 0.0
C36 C 0.23327 0.99463 0.29505 0.0
C37 C 0.21136 0.98998 0.276 0.0
C38 C 0.26178 0.99604 0.28652 0.0
C39 C 0.26832 0.99226 0.25839 0.0
C40 C 0.24635 0.98758 0.23905 0.0
C41 C 0.21796 0.9868 0.24801 0.0
N42 N 0.25189 0.9832 0.21057 0.0
C43 C 0.27883 0.98371 0.19869 0.0
H44 H -0.00146 0.75925 0.67847 0.0
H45 H 0.00365 0.71091 0.75262 0.0
H46 H 0.01935 0.79786 0.75562 0.0
C47 C 0.00128 0.7579 0.70063 0.0
C48 C 0.00825 0.78175 0.71544 0.0
C49 C -0.00054 0.73218 0.71374 0.0
C50 C 0.00499 0.73056 0.74228 0.0
C51 C 0.01246 0.75426 0.75736 0.0
C52 C 0.01384 0.77967 0.74384 0.0
N53 N 0.01917 0.75335 0.78597 0.0
C54 C 0.01893 0.72959 0.80192 0.0
H55 H 0.29393 0.01465 0.69381 0.0
H56 H 0.31981 0.99976 0.77733 0.0
H57 H 0.234 0.98137 0.7517 0.0
C58 C 0.28892 0.008 0.71459 0.0
C59 C 0.26143 0.99854 0.72037 0.0
C60 C 0.31006 0.0085 0.73507 0.0
C61 C 0.30349 0.9991 0.76159 0.0
C62 C 0.2762 0.98883 0.7677 0.0
C63 C 0.25506 0.98915 0.74711 0.0
N64 N 0.26995 0.97745 0.79405 0.0
C65 C 0.29082 0.97399 0.81424 0.0
H66 H 0.01568 0.34173 0.73851 0.0
H67 H 0.99019 0.27119 0.69113 0.0
H68 H 0.9742 0.27412 0.77856 0.0
C69 C 0.00665 0.32128 0.73755 0.0
C70 C -0.00413 0.30938 0.76172 0.0
C71 C 0.00457 0.30778 0.71196 0.0
C72 C 0.99178 0.28174 0.71077 0.0
C73 C 0.98084 0.26954 0.73487 0.0
C74 C 0.98266 0.2836 0.7601 0.0
N75 N 0.96768 0.24333 0.73445 0.0
C76 C 0.97084 0.22463 0.7129 0.0
H77 H 0.80025 0.08752 0.71114 0.0
H78 H 0.73717 0.10462 0.77326 0.0
H79 H 0.82637 0.10058 0.79507 0.0
C80 C 0.79481 0.09255 0.73235 0.0
C81 C 0.81646 0.09361 0.75216 0.0
C82 C 0.76625 0.09672 0.73966 0.0
C83 C 0.7593 0.10174 0.76746 0.0
C84 C 0.78105 0.10348 0.78754 0.0
C85 C 0.80965 0.09981 0.77964 0.0
N86 N 0.77481 0.10834 0.81584 0.0
C87 C 0.74844 0.10285 0.82763 0.0
H88 H 0.32441 0.26817 0.02955 0.0
H89 H 0.24284 0.3056 0.0451 0.0
H90 H 0.24839 0.22004 0.02168 0.0
C91 C 0.30138 0.2666 0.03072 0.0
C92 C 0.28839 0.24158 0.02436 0.0
C93 C 0.28517 0.28961 0.03856 0.0
C94 C 0.25534 0.28771 0.0393 0.0
C95 C 0.24193 0.26249 0.0333 0.0
C96 C 0.25865 0.23942 0.02633 0.0
N97 N 0.21181 0.25969 0.03402 0.0
C98 C 0.19306 0.28197 0.03361 0.0
H99 H 0.30845 0.77488 0.03748 0.0
H100 H 0.22591 0.73934 0.0485 0.0
H101 H 0.2342 0.82728 0.04255 0.0
C102 C 0.28564 0.77739 0.04031 0.0
C103 C 0.27352 0.8039 0.03983 0.0
C104 C 0.26855 0.75402 0.04335 0.0
C105 C 0.23896 0.75737 0.04597 0.0
C106 C 0.22642 0.7838 0.04589 0.0
C107 C 0.24383 0.80693 0.04266 0.0
N108 N 0.19651 0.78769 0.04914 0.0
C109 C 0.17726 0.76605 0.04932 0.0
H110 H 0.81939 0.34362 0.99713 0.0
H111 H 0.76829 0.27075 0.99116 0.0
H112 H 0.85991 0.26426 0.99092 0.0
C113 C 0.81785 0.3215 0.99474 0.0
C114 C 0.84286 0.30551 0.99383 0.0
C115 C 0.79086 0.30922 0.99385 0.0
C116 C 0.78903 0.28036 0.99201 0.0
C117 C 0.81407 0.26411 0.99075 0.0
C118 C 0.84073 0.27684 0.99179 0.0
N119 N 0.81352 0.23499 0.98834 0.0
C120 C 0.78899 0.21916 0.98845 0.0
H121 H 0.7754 0.68169 0.97954 0.0
H122 H 0.73523 0.76126 0.98436 0.0
H123 H 0.82538 0.75469 0.96885 0.0
C124 C 0.77669 0.70392 0.97843 0.0
C125 C 0.80319 0.71621 0.97366 0.0
C126 C 0.75208 0.72005 0.98255 0.0
C127 C 0.75411 0.74879 0.98084 0.0
C128 C 0.78048 0.76141 0.97555 0.0
C129 C 0.80497 0.74501 0.97241 0.0
N130 N 0.78293 0.79048 0.9736 0.0
C131 C 0.75933 0.80796 0.97409 0.0
H132 H 0.48659 0.76027 0.80835 0.0
H133 H 0.50784 0.79841 0.73135 0.0
H134 H 0.51058 0.71018 0.73872 0.0
C135 C 0.49249 0.75862 0.78677 0.0
C136 C 0.49708 0.73242 0.77524 0.0
C137 C 0.49672 0.78258 0.7712 0.0
C138 C 0.50539 0.78001 0.7436 0.0
C139 C 0.51084 0.75397 0.73182 0.0
C140 C 0.50658 0.73025 0.74777 0.0
N141 N 0.52095 0.75125 0.70422 0.0
C142 C 0.52877 0.77384 0.68837 0.0
H143 H 0.2195 0.55615 0.73718 0.0
H144 H 0.2782 0.58092 0.80045 0.0
H145 H 0.30322 0.58345 0.7149 0.0
C146 C 0.24041 0.5633 0.74333 0.0
C147 C 0.26074 0.56874 0.72292 0.0
C148 C 0.24638 0.56765 0.77134 0.0
C149 C 0.27338 0.57756 0.77888 0.0
C150 C 0.29408 0.5831 0.75854 0.0
C151 C 0.28736 0.57922 0.73057 0.0
N152 N 0.32187 0.59222 0.76556 0.0
C153 C 0.33424 0.58778 0.79128 0.0
H154 H 0.46875 0.16327 0.76009 0.0
H155 H 0.45696 0.24001 0.80313 0.0
H156 H 0.4625 0.23915 0.71475 0.0
C157 C 0.46513 0.18531 0.75978 0.0
C158 C 0.46495 0.19915 0.73427 0.0
C159 C 0.46259 0.19983 0.78486 0.0
C160 C 0.45959 0.22863 0.78407 0.0
C161 C 0.46017 0.24291 0.7589 0.0
C162 C 0.46232 0.22804 0.73412 0.0
N163 N 0.45953 0.27218 0.75803 0.0
C164 C 0.46573 0.28858 0.78087 0.0
H165 H 0.70505 0.51809 0.84109 0.0
H166 H 0.77232 0.52095 0.78094 0.0
H167 H 0.68454 0.52749 0.75518 0.0
C168 C 0.71202 0.51985 0.81982 0.0
C169 C 0.69162 0.5228 0.79892 0.0
C170 C 0.74117 0.519 0.81352 0.0
C171 C 0.74979 0.52115 0.78582 0.0
C172 C 0.72941 0.52427 0.76463 0.0
C173 C 0.70031 0.5249 0.77135 0.0
N174 N 0.73749 0.52732 0.73654 0.0
C175 C 0.76567 0.5274 0.72759 0.0
H176 H 0.49042 0.26031 0.18337 0.0
H177 H 0.5148 0.21841 0.25755 0.0
H178 H 0.51896 0.30664 0.25408 0.0
C179 C 0.49776 0.26131 0.20454 0.0
C180 C 0.50426 0.28691 0.21652 0.0
C181 C 0.50219 0.23662 0.21893 0.0
C182 C 0.51126 0.2375 0.24652 0.0
C183 C 0.51647 0.26289 0.25949 0.0
C184 C 0.51343 0.28737 0.24427 0.0
N185 N 0.52588 0.26448 0.28739 0.0
C186 C 0.52574 0.24243 0.30576 0.0
H187 H 0.74884 0.50107 0.18637 0.0
H188 H 0.77993 0.51726 0.26839 0.0
H189 H 0.69123 0.49959 0.25533 0.0
C190 C 0.74512 0.50297 0.20838 0.0
C191 C 0.71744 0.49939 0.21871 0.0
C192 C 0.7678 0.5097 0.22612 0.0
C193 C 0.76262 0.51188 0.25466 0.0
C194 C 0.73494 0.50812 0.26526 0.0
C195 C 0.71255 0.50217 0.24715 0.0
N196 N 0.7287 0.51065 0.29387 0.0
C197 C 0.74926 0.51431 0.31417 0.0
H198 H 0.54828 0.83722 0.24677 0.0
H199 H 0.56856 0.76394 0.2009 0.0
H200 H 0.56583 0.76172 0.28981 0.0
C201 C 0.55363 0.81548 0.24627 0.0
C202 C 0.55627 0.80111 0.2712 0.0
C203 C 0.55815 0.80231 0.22084 0.0
C204 C 0.56535 0.77422 0.2205 0.0
C205 C 0.56799 0.75934 0.24531 0.0
C206 C 0.56401 0.77309 0.27066 0.0
N207 N 0.57393 0.73055 0.24525 0.0
C208 C 0.57039 0.71388 0.22203 0.0
H209 H 0.31694 0.60443 0.17643 0.0
H210 H 0.25692 0.60654 0.24313 0.0
H211 H 0.34691 0.61343 0.25978 0.0
C212 C 0.3124 0.60724 0.19822 0.0
C213 C 0.33508 0.61016 0.21682 0.0
C214 C 0.28426 0.60545 0.20758 0.0
C215 C 0.27874 0.60763 0.23596 0.0
C216 C 0.30125 0.61077 0.25496 0.0
C217 C 0.32944 0.61186 0.24523 0.0
N218 N 0.29617 0.6119 0.28387 0.0
C219 C 0.2697 0.60636 0.29549 0.0
H220 H 0.86301 0.76887 0.48431 0.0
H221 H 0.78227 0.81057 0.48664 0.0
H222 H 0.78515 0.72225 0.48365 0.0
C223 C 0.83995 0.76796 0.48433 0.0
C224 C 0.82632 0.74226 0.48386 0.0
C225 C 0.82423 0.79259 0.48586 0.0
C226 C 0.79435 0.79155 0.48559 0.0
C227 C 0.78019 0.76616 0.48419 0.0
C228 C 0.79627 0.74169 0.48362 0.0
N229 N 0.7499 0.7646 0.48395 0.0
C230 C 0.73213 0.78767 0.4835 0.0
H231 H 0.83851 0.27871 0.47643 0.0
H232 H 0.76287 0.23037 0.48495 0.0
H233 H 0.75703 0.31885 0.48553 0.0
C234 C 0.81548 0.27763 0.47802 0.0
C235 C 0.79937 0.30192 0.48018 0.0
C236 C 0.80246 0.25185 0.47973 0.0
C237 C 0.77278 0.25031 0.48309 0.0
C238 C 0.75633 0.27464 0.48524 0.0
C239 C 0.76972 0.30022 0.48343 0.0
N240 N 0.72656 0.27433 0.49043 0.0
C241 C 0.71156 0.25117 0.49844 0.0
H242 H 0.2424 0.85763 0.55402 0.0
H243 H 0.1995 0.78003 0.55372 0.0
H244 H 0.29103 0.7826 0.56144 0.0
C245 C 0.24331 0.83539 0.55568 0.0
C246 C 0.26982 0.82207 0.55812 0.0
C247 C 0.21796 0.8204 0.55414 0.0
C248 C 0.21913 0.79155 0.55497 0.0
C249 C 0.24559 0.77784 0.55786 0.0
C250 C 0.27075 0.79321 0.55926 0.0
N251 N 0.2477 0.74871 0.55955 0.0
C252 C 0.22463 0.73118 0.55666 0.0
H253 H 0.25936 0.16452 0.50209 0.0
H254 H 0.21643 0.24283 0.50701 0.0
H255 H 0.30774 0.23919 0.49748 0.0
C256 C 0.26023 0.18681 0.50211 0.0
C257 C 0.28654 0.19995 0.49905 0.0
C258 C 0.235 0.20219 0.50522 0.0
C259 C 0.23602 0.23106 0.50483 0.0
C260 C 0.26238 0.24451 0.50224 0.0
C261 C 0.28748 0.22882 0.49962 0.0
N262 N 0.26455 0.27366 0.50226 0.0
C263 C 0.24141 0.29175 0.50222 0.0
Zn264 Zn 0.92355 0.9954 0.44152 0.0
Zn265 Zn 0.93565 0.05915 0.45494 0.0
O266 O 0.95401 0.02196 0.4534 0.0
H267 H 0.97202 0.01682 0.46168 0.0
C268 C 0.93883 0.96138 0.53124 0.0
O269 O 0.95135 0.97603 0.51205 0.0
Zn270 Zn 0.06611 0.0479 0.54608 0.0
Zn271 Zn 0.06004 0.98304 0.55454 0.0
O272 O 0.03717 0.01867 0.55367 0.0
H273 H 0.01842 0.02126 0.56154 0.0
Zn274 Zn 0.96128 0.00558 0.56533 0.0
O275 O 0.96262 0.03288 0.53377 0.0
Zn276 Zn 0.96835 0.069 0.55192 0.0
H277 H 0.96908 0.02842 0.51534 0.0
Zn278 Zn 0.03081 0.98167 0.45637 0.0
O279 O 0.02855 0.01799 0.47696 0.0
H280 H 0.01992 0.02047 0.4949 0.0
Zn281 Zn 0.03541 0.04766 0.44935 0.0
C282 C 0.07101 0.95578 0.49294 0.0
O283 O 0.07856 0.98171 0.49467 0.0
O284 O 0.89028 0.01596 0.42279 0.0
O285 O 0.8959 0.05907 0.43742 0.0
O286 O 0.10098 0.99049 0.56723 0.0
O287 O 0.10475 0.0358 0.56198 0.0
O288 O 0.95431 0.02382 0.60353 0.0
O289 O 0.95523 0.06804 0.59176 0.0
C290 C 0.98427 0.08247 0.42797 0.0
O291 O 0.04435 0.98633 0.41609 0.0
O292 O 0.05046 0.03165 0.41343 0.0
O293 O 0.0424 0.94998 0.57528 0.0
C294 C 0.88212 0.04104 0.42363 0.0
O295 O 0.93745 0.95924 0.4228 0.0
C296 C 0.02758 0.08807 0.56719 0.0
O297 O 0.9404 0.96918 0.55627 0.0
C298 C 0.1151 0.01262 0.56969 0.0
O299 O 0.04991 0.94952 0.47779 0.0
C300 C 0.93607 0.0942 0.50665 0.0
O301 O 0.95746 0.08475 0.43057 0.0
O302 O -0.00309 0.06454 0.44272 0.0
C303 C 0.95173 0.04924 0.60977 0.0
O304 O 0.05397 0.08206 0.56651 0.0
O305 O 0.01085 0.07432 0.55189 0.0
C306 C 0.07196 0.07418 0.48983 0.0
O307 O 0.94601 0.09798 0.53081 0.0
O308 O 0.94065 0.0714 0.49456 0.0
C309 C 0.05201 0.00763 0.40275 0.0
O310 O 0.06313 0.07537 0.46504 0.0
O311 O 0.06367 0.05457 0.50506 0.0
C312 C 0.04395 0.95134 0.60145 0.0
O313 O 0.05502 0.9734 0.61279 0.0
C314 C 0.96026 0.95953 0.40863 0.0
O315 O 0.97463 0.98255 0.40676 0.0
Zn316 Zn 0.47166 0.05204 0.03639 0.0
Zn317 Zn 0.47504 0.05609 0.96997 0.0
O318 O 0.48002 0.02999 0.00179 0.0
H319 H 0.48954 0.0123 0.00176 0.0
C320 C 0.53498 0.10079 0.07014 0.0
O321 O 0.52535 0.10708 0.04545 0.0
Zn322 Zn 0.55147 0.969 0.93473 0.0
Zn323 Zn 0.55294 0.9755 -0.00032 0.0
O324 O 0.53177 0.98943 0.96522 0.0
H325 H 0.52331 0.00749 0.96315 0.0
Zn326 Zn 0.57562 0.06935 0.03682 0.0
O327 O 0.55174 0.0554 0.0051 0.0
Zn328 Zn 0.57528 0.06023 0.97104 0.0
H329 H 0.53543 0.04356 0.00687 0.0
Zn330 Zn 0.48952 0.95026 0.01591 0.0
O331 O 0.50674 0.9432 0.97803 0.0
H332 H 0.52061 0.92917 0.97333 0.0
Zn333 Zn 0.47344 0.95487 0.95543 0.0
C334 C 0.5221 0.91044 0.04733 0.0
O335 O 0.52044 0.89748 0.02356 0.0
O336 O 0.44873 0.08698 0.02734 0.0
O337 O 0.44972 0.08835 0.98144 0.0
O338 O 0.57724 0.94044 0.99461 0.0
O339 O 0.57786 0.93883 0.94891 0.0
O340 O 0.6133 0.08703 0.02469 0.0
O341 O 0.61384 0.07772 0.97966 0.0
C342 C 0.45456 0.01015 0.93774 0.0
O343 O 0.44667 0.94103 0.01682 0.0
O344 O 0.43755 0.93797 0.97194 0.0
O345 O 0.57375 0.00266 0.02556 0.0
C346 C 0.44122 0.09797 0.0046 0.0
O347 O 0.45457 0.03137 0.06979 0.0
C348 C 0.58536 0.01792 0.9268 0.0
O349 O 0.55607 0.08437 0.07224 0.0
C350 C 0.58596 0.92954 0.97224 0.0
O351 O 0.51149 0.93449 0.0494 0.0
C352 C 0.52763 0.08575 0.94463 0.0
O353 O 0.45486 0.03623 0.93916 0.0
O354 O 0.46955 0.99614 0.95456 0.0
C355 C 0.62542 0.08806 0.00117 0.0
O356 O 0.57765 0.99565 0.91522 0.0
O357 O 0.5757 0.02378 0.95064 0.0
C358 C 0.50049 0.94077 0.90036 0.0
O359 O 0.55464 0.08637 0.94625 0.0
O360 O 0.51458 0.06843 0.95958 0.0
C361 C 0.42979 0.93523 0.99707 0.0
O362 O 0.47935 0.94119 0.91691 0.0
O363 O 0.52483 0.95043 0.907 0.0
C364 C 0.59956 0.00863 0.02032 0.0
O365 O 0.61132 0.99917 0.99755 0.0
C366 C 0.43569 0.01334 0.06509 0.0
O367 O 0.42978 0.00689 0.03936 0.0
Zn368 Zn 0.9559 0.47303 0.96136 0.0
Zn369 Zn 0.9537 0.53905 0.96671 0.0
O370 O 0.98084 0.5072 0.96325 0.0
H371 H 0.00106 0.50743 0.96706 0.0
C372 C 0.98704 0.44008 0.04553 0.0
O373 O -0.00067 0.45681 0.02798 0.0
Zn374 Zn 0.07282 0.56171 0.05409 0.0
Zn375 Zn 0.08669 0.49784 0.06841 0.0
O376 O 0.05502 0.52431 0.05721 0.0
H377 H 0.03686 0.51892 0.04958 0.0
Zn378 Zn 0.98384 0.49025 0.07929 0.0
O379 O 0.97703 0.51591 0.04679 0.0
Zn380 Zn 0.97293 0.55179 0.06639 0.0
H381 H 0.98537 0.51312 0.02875 0.0
Zn382 Zn 0.0647 0.49643 0.95323 0.0
O383 O 0.05841 0.52739 0.98086 0.0
H384 H 0.04921 0.52488 -0.0015 0.0
Zn385 Zn 0.05288 0.55962 0.95566 0.0
C386 C 0.08176 0.45313 0.99281 0.0
O387 O 0.07963 0.47342 0.01068 0.0
O388 O 0.91426 0.48246 0.9513 0.0
O389 O 0.91395 0.52805 0.95481 0.0
O390 O 0.12327 0.51756 0.08072 0.0
O391 O 0.11356 0.56065 0.06824 0.0
O392 O 0.96003 0.50263 0.11308 0.0
O393 O 0.95144 0.54642 0.10256 0.0
C394 C 0.99131 0.57563 0.93688 0.0
O395 O 0.08654 0.50971 0.91903 0.0
O396 O 0.07661 0.55447 0.92062 0.0
O397 O 0.07731 0.46065 0.08764 0.0
C398 C 0.90139 0.50554 0.94921 0.0
O399 O 0.97117 0.43908 0.93976 0.0
C400 C 0.02504 0.58521 0.08215 0.0
O401 O 0.98003 0.44908 0.06925 0.0
C402 C 0.13034 0.54275 0.07877 0.0
O403 O 0.07586 0.45762 0.9676 0.0
C404 C 0.94684 0.57441 0.01702 0.0
O405 O 0.96542 0.56948 0.94114 0.0
O406 O 0.01034 0.56203 0.94981 0.0
C407 C 0.94819 0.52573 0.11847 0.0
O408 O 0.0515 0.58844 0.07825 0.0
O409 O 0.01288 0.56515 0.07038 0.0
C410 C 0.07253 0.59532 -0.00015 0.0
O411 O 0.95164 0.57891 0.04245 0.0
O412 O 0.95513 0.55187 0.0063 0.0
C413 C 0.08906 0.53389 0.90927 0.0
O414 O 0.06652 0.59416 0.97429 0.0
O415 O 0.06944 0.57361 0.0142 0.0
C416 C 0.06135 0.45956 0.1088 0.0
O417 O 0.04954 0.48236 0.11812 0.0
C418 C 0.98745 0.44289 0.91918 0.0
O419 O -0.00424 0.46802 0.91357 0.0
Zn420 Zn 0.46048 0.47768 0.99521 0.0
Zn421 Zn 0.47598 0.47323 0.06016 0.0
O422 O 0.48388 0.49462 0.0257 0.0
H423 H 0.49801 0.50882 0.02372 0.0
C424 C 0.53003 0.39791 0.94631 0.0
O425 O 0.53343 0.38536 0.9701 0.0
Zn426 Zn 0.54997 0.56026 0.04331 0.0
Zn427 Zn 0.53693 0.56875 0.9815 0.0
O428 O 0.54341 0.53788 0.00918 0.0
H429 H 0.55117 0.51996 0.00476 0.0
Zn430 Zn 0.55859 0.44178 0.97751 0.0
O431 O 0.53734 0.44884 0.01344 0.0
Zn432 Zn 0.56736 0.45621 0.04237 0.0
H433 H 0.51741 0.44499 0.01645 0.0
Zn434 Zn 0.44003 0.57533 0.97586 0.0
O435 O 0.47084 0.56819 0.00478 0.0
H436 H 0.4893 0.56005 0.0011 0.0
Zn437 Zn 0.45083 0.56837 0.04141 0.0
C438 C 0.47435 0.59973 0.93043 0.0
O439 O 0.49439 0.60046 0.94936 0.0
O440 O 0.43185 0.44947 0.00979 0.0
O441 O 0.44394 0.44571 0.05413 0.0
O442 O 0.56239 0.60191 0.99079 0.0
O443 O 0.57534 0.59251 0.03392 0.0
O444 O 0.59999 0.42995 0.9852 0.0
O445 O 0.60589 0.43978 0.02984 0.0
C446 C 0.45542 0.52377 0.08317 0.0
O447 O 0.40276 0.5905 0.99254 0.0
O448 O 0.41041 0.58378 0.03732 0.0
O449 O 0.53874 0.55838 0.94 0.0
C450 C 0.42822 0.43904 0.03365 0.0
O451 O 0.44822 0.50109 0.96131 0.0
C452 C 0.57394 0.51083 0.07079 0.0
O453 O 0.53831 0.42267 0.94402 0.0
C454 C 0.57706 0.60732 0.01225 0.0
O455 O 0.45021 0.58978 0.93659 0.0
C456 C 0.52946 0.44042 0.08452 0.0
O457 O 0.46385 0.4998 0.09 0.0
O458 O 0.45451 0.53011 0.05767 0.0
C459 C 0.61532 0.4301 0.00694 0.0
O460 O 0.56867 0.53654 0.07255 0.0
O461 O 0.56689 0.4976 0.04916 0.0
C462 C 0.49804 0.59164 0.07036 0.0
O463 O 0.55543 0.43743 0.07763 0.0
O464 O 0.5138 0.45556 0.06933 0.0
C465 C 0.39457 0.59217 0.01756 0.0
O466 O 0.47117 0.5933 0.06768 0.0
O467 O 0.51124 0.5745 0.05495 0.0
C468 C 0.54044 0.53377 0.93125 0.0
O469 O 0.53875 0.51344 0.94899 0.0
C470 C 0.42644 0.51665 0.96357 0.0
O471 O 0.41326 0.51812 0.98748 0.0
Zn472 Zn 0.96501 0.48613 0.46281 0.0
Zn473 Zn 0.96396 0.55132 0.4693 0.0
O474 O 0.99074 0.5192 0.46654 0.0
H475 H 0.00956 0.51826 0.47459 0.0
C476 C 0.93135 0.45363 0.53192 0.0
O477 O 0.93825 0.47462 0.51632 0.0
Zn478 Zn 0.07377 0.55773 0.55198 0.0
Zn479 Zn 0.08839 0.49372 0.55231 0.0
O480 O 0.05515 0.52103 0.55325 0.0
H481 H 0.03622 0.51728 0.54639 0.0
Zn482 Zn 0.96381 0.48413 0.57351 0.0
O483 O 0.97255 0.51509 0.54727 0.0
Zn484 Zn 0.97137 0.54961 0.56941 0.0
H485 H 0.98255 0.51271 0.52998 0.0
Zn486 Zn 0.08612 0.49839 0.44116 0.0
O487 O 0.07341 0.52479 0.47144 0.0
H488 H 0.06605 0.51932 0.48923 0.0
Zn489 Zn 0.06584 0.56069 0.45213 0.0
C490 C 0.10981 0.45298 0.47608 0.0
O491 O 0.10211 0.46911 0.4966 0.0
O492 O 0.92469 0.49648 0.44947 0.0
O493 O 0.92517 0.54215 0.45261 0.0
O494 O 0.12666 0.51104 0.56448 0.0
O495 O 0.11385 0.5551 0.56723 0.0
O496 O 0.94782 0.49813 0.61055 0.0
O497 O 0.95251 0.5435 0.60698 0.0
C498 C 0.00671 0.58488 0.44345 0.0
O499 O 0.1029 0.51901 0.40782 0.0
O500 O 0.08633 0.56147 0.41491 0.0
O501 O 0.07993 0.45473 0.56768 0.0
C502 C 0.91261 0.5198 0.44611 0.0
O503 O 0.98267 0.45124 0.44491 0.0
C504 C 0.02515 0.5823 0.58002 0.0
O505 O 0.94048 0.45251 0.5566 0.0
C506 C 0.13239 0.536 0.57027 0.0
O507 O 0.10496 0.46065 0.45141 0.0
C508 C 0.94606 0.57723 0.52296 0.0
O509 O 0.98022 0.58357 0.4487 0.0
O510 O 0.02304 0.56561 0.45169 0.0
C511 C 0.94422 0.5223 0.62023 0.0
O512 O 0.05147 0.58543 0.57473 0.0
O513 O 0.01241 0.56154 0.57022 0.0
C514 C 0.0847 0.58963 0.50025 0.0
O515 O 0.94724 0.57752 0.54915 0.0
O516 O 0.96089 0.55962 0.50981 0.0
C517 C 0.10073 0.54415 0.4006 0.0
O518 O 0.08275 0.59161 0.47422 0.0
O519 O 0.07442 0.56864 0.51205 0.0
C520 C 0.05452 0.44585 0.56855 0.0
O521 O 0.03382 0.46113 0.55838 0.0
C522 C 0.99188 0.45336 0.42035 0.0
O523 O 0.99026 0.47737 0.40799 0.0
Zn524 Zn 0.46961 0.97775 0.4465 0.0
Zn525 Zn 0.46097 0.04272 0.45814 0.0
O526 O 0.49129 0.01371 0.45088 0.0
H527 H 0.51109 0.01636 0.4462 0.0
C528 C 0.43363 0.95442 0.55186 0.0
O529 O 0.42675 0.98067 0.55287 0.0
Zn530 Zn 0.5819 0.06181 0.55181 0.0
Zn531 Zn 0.596 0.99814 0.56534 0.0
O532 O 0.56435 0.02425 0.5542 0.0
H533 H 0.54695 0.01853 0.54529 0.0
Zn534 Zn 0.48574 0.98026 0.56535 0.0
O535 O 0.48799 0.01113 0.53709 0.0
Zn536 Zn 0.48308 0.04617 0.5584 0.0
H537 H 0.49622 0.00944 0.51886 0.0
Zn538 Zn 0.57132 0.99781 0.44827 0.0
O539 O 0.56202 0.02824 0.47596 0.0
H540 H 0.55327 0.02518 0.49369 0.0
Zn541 Zn 0.55793 0.06258 0.45321 0.0
C542 C 0.61612 0.96163 0.46864 0.0
O543 O 0.62932 0.98538 0.46911 0.0
O544 O 0.42872 0.98572 0.43342 0.0
O545 O 0.423 0.03052 0.4416 0.0
O546 O 0.62791 0.01894 0.58528 0.0
O547 O 0.62053 0.06213 0.57145 0.0
O548 O 0.47685 0.99443 0.60463 0.0
O549 O 0.46896 0.03893 0.59696 0.0
C550 C 0.49725 0.085 0.43689 0.0
O551 O 0.58527 0.01256 0.41085 0.0
O552 O 0.57678 0.05733 0.41616 0.0
O553 O 0.58541 0.95899 0.57946 0.0
C554 C 0.41367 0.00764 0.43234 0.0
O555 O 0.48791 0.94311 0.42735 0.0
C556 C 0.5311 0.08398 0.57458 0.0
O557 O 0.45956 0.94753 0.5554 0.0
C558 C 0.63486 0.04426 0.58511 0.0
O559 O 0.59012 0.96109 0.46126 0.0
C560 C 0.44965 0.06941 0.51336 0.0
O561 O 0.47131 0.07807 0.43908 0.0
O562 O 0.51583 0.06925 0.4479 0.0
C563 C 0.46901 0.01817 0.61301 0.0
O564 O 0.55754 0.08883 0.57301 0.0
O565 O 0.52136 0.0637 0.56106 0.0
C566 C 0.58468 0.09337 0.49754 0.0
O567 O 0.45578 0.07161 0.53883 0.0
O568 O 0.46059 0.04985 0.49933 0.0
C569 C 0.58619 0.03715 0.40189 0.0
O570 O 0.57687 0.09433 0.47242 0.0
O571 O 0.57998 0.07167 0.51133 0.0
C572 C 0.5721 0.95688 0.60221 0.0
O573 O 0.56524 0.97942 0.61577 0.0
C574 C 0.51327 0.9403 0.41838 0.0
O575 O 0.53145 0.96045 0.42182 0.0
H576 H 0.2199 0.16678 0.5459 0.0
H577 H 0.18913 0.20464 0.47113 0.0
H578 H 0.1768 0.13904 0.54852 0.0
H579 H 0.14693 0.17585 0.47237 0.0
H580 H 0.06768 0.12915 0.48152 0.0
H581 H 0.1038 0.16368 0.49096 0.0
H582 H 0.15749 0.10079 0.5277 0.0
H583 H 0.12041 0.06698 0.51967 0.0
C584 C 0.2037 0.16917 0.53011 0.0
C585 C 0.20765 0.1877 0.50831 0.0
C586 C 0.17912 0.15314 0.53141 0.0
C587 C 0.15828 0.15482 0.51053 0.0
C588 C 0.16204 0.17417 0.48918 0.0
C589 C 0.18633 0.19061 0.48826 0.0
C590 C 0.08695 0.12304 0.49232 0.0
C591 C 0.09133 0.09554 0.50005 0.0
C592 C 0.10785 0.14271 0.49745 0.0
C593 C 0.13401 0.13511 0.50962 0.0
C594 C 0.13761 0.10772 0.51863 0.0
C595 C 0.11635 0.0882 0.51409 0.0
H596 H 0.84404 0.24161 0.51668 0.0
H597 H 0.80207 0.20657 0.44576 0.0
H598 H 0.87723 0.20309 0.51781 0.0
H599 H 0.83625 0.16792 0.44608 0.0
H600 H 0.88435 0.08978 0.48188 0.0
H601 H 0.85127 0.12759 0.47174 0.0
H602 H 0.9169 0.18597 0.49297 0.0
H603 H 0.94922 0.14813 0.50414 0.0
C604 C 0.8421 0.22557 0.50123 0.0
C605 C 0.82075 0.22702 0.48104 0.0
C606 C 0.86131 0.20363 0.50162 0.0
C607 C 0.85994 0.18271 0.48157 0.0
C608 C 0.83795 0.18373 0.46176 0.0
C609 C 0.8184 0.20573 0.46156 0.0
C610 C 0.89186 0.11074 0.48338 0.0
C611 C 0.91919 0.11621 0.49372 0.0
C612 C 0.87291 0.13241 0.47774 0.0
C613 C 0.88118 0.15983 0.48224 0.0
C614 C 0.90951 0.1651 0.49016 0.0
C615 C 0.92817 0.1435 0.49625 0.0
H616 H 0.87207 0.8108 0.45928 0.0
H617 H 0.81047 0.8342 0.52152 0.0
H618 H 0.8996 0.85195 0.46961 0.0
H619 H 0.83731 0.87585 0.53103 0.0
H620 H 0.91096 0.9262 0.56569 0.0
H621 H 0.88236 0.88654 0.55303 0.0
H622 H 0.89937 0.90191 0.46677 0.0
H623 H 0.92851 0.94129 0.47946 0.0
C624 C 0.86427 0.82487 0.47497 0.0
C625 C 0.8392 0.81914 0.48971 0.0
C626 C 0.8799 0.84857 0.48072 0.0
C627 C 0.87078 0.86704 0.50133 0.0
C628 C 0.84516 0.86179 0.51536 0.0
C629 C 0.82956 0.83811 0.50963 0.0
C630 C 0.90866 0.9211 0.54403 0.0
C631 C 0.92201 0.9369 0.5236 0.0
C632 C 0.89206 0.89849 0.53675 0.0
C633 C 0.88839 0.89118 0.50888 0.0
C634 C 0.90194 0.90686 0.48844 0.0
C635 C 0.91858 0.92948 0.49572 0.0
H636 H 0.19732 0.86215 0.58585 0.0
H637 H 0.17776 0.81309 0.51409 0.0
H638 H 0.15736 0.89282 0.57536 0.0
H639 H 0.13819 0.84421 0.50294 0.0
H640 H 0.06112 0.90023 0.49473 0.0
H641 H 0.09217 0.86451 0.51406 0.0
H642 H 0.15145 0.92697 0.54038 0.0
H643 H 0.12045 0.96239 0.52156 0.0
C644 C 0.18412 0.85776 0.56804 0.0
C645 C 0.19068 0.83549 0.55061 0.0
C646 C 0.16137 0.87538 0.56191 0.0
C647 C 0.1449 0.8713 0.53802 0.0
C648 C 0.15032 0.84788 0.5216 0.0
C649 C 0.17298 0.83006 0.52792 0.0
C650 C 0.08064 0.90629 0.50495 0.0
C651 C 0.08835 0.93416 0.50656 0.0
C652 C 0.09846 0.88582 0.51593 0.0
C653 C 0.12432 0.89283 0.52878 0.0
C654 C 0.13148 0.92079 0.53109 0.0
C655 C 0.11373 0.94117 0.52014 0.0
H656 H 0.459 0.21765 0.18622 0.0
H657 H 0.54305 0.19684 0.21619 0.0
H658 H 0.46151 0.17944 0.15345 0.0
H659 H 0.54624 0.15946 0.18293 0.0
H660 H 0.54625 0.08943 0.1244 0.0
H661 H 0.53262 0.11672 0.16464 0.0
H662 H 0.48605 0.17276 0.11167 0.0
H663 H 0.4986 0.14485 0.07184 0.0
C664 C 0.47779 0.20454 0.18609 0.0
C665 C 0.50089 0.21024 0.20359 0.0
C666 C 0.47938 0.18281 0.16718 0.0
C667 C 0.5043 0.16659 0.16509 0.0
C668 C 0.52657 0.17121 0.18402 0.0
C669 C 0.5248 0.19271 0.20314 0.0
C670 C 0.53269 0.10734 0.12147 0.0
C671 C 0.52382 0.11519 0.09489 0.0
C672 C 0.52499 0.12308 0.14453 0.0
C673 C 0.50852 0.14721 0.1415 0.0
C674 C 0.49845 0.15418 0.11501 0.0
C675 C 0.50586 0.13826 0.09202 0.0
H676 H 0.7808 0.5397 0.18033 0.0
H677 H 0.81989 0.49263 0.24592 0.0
H678 H 0.82732 0.54654 0.15942 0.0
H679 H 0.86682 0.5003 0.22543 0.0
H680 H 0.91446 0.56964 0.13358 0.0
H681 H 0.87313 0.56883 0.16412 0.0
H682 H 0.89181 0.48411 0.18451 0.0
H683 H 0.93333 0.48502 0.15456 0.0
C684 C 0.79939 0.53091 0.19036 0.0
C685 C 0.79658 0.51529 0.21458 0.0
C686 C 0.82616 0.53521 0.1786 0.0
C687 C 0.85088 0.52402 0.19075 0.0
C688 C 0.84819 0.50903 0.21543 0.0
C689 C 0.82134 0.50478 0.22727 0.0
C690 C 0.91015 0.55102 0.14505 0.0
C691 C 0.92699 0.52726 0.14121 0.0
C692 C 0.88631 0.5505 0.16241 0.0
C693 C 0.87883 0.52624 0.17636 0.0
C694 C 0.89695 0.50317 0.17418 0.0
C695 C 0.92076 0.50368 0.15684 0.0
H696 H 0.51625 0.83935 0.20799 0.0
H697 H 0.59204 0.80057 0.17469 0.0
H698 H 0.51108 0.86632 0.16603 0.0
H699 H 0.58669 0.82757 0.1324 0.0
H700 H 0.54313 0.85791 0.05071 0.0
H701 H 0.55389 0.83191 0.09251 0.0
H702 H 0.53533 0.90392 0.14194 0.0
H703 H 0.52414 0.92982 0.10028 0.0
C704 C 0.53197 0.83677 0.19179 0.0
C705 C 0.55469 0.81798 0.19476 0.0
C706 C 0.52903 0.85226 0.16776 0.0
C707 C 0.54867 0.8493 0.14604 0.0
C708 C 0.57116 0.8302 0.14876 0.0
C709 C 0.57417 0.81471 0.17291 0.0
C710 C 0.54168 0.8683 0.07047 0.0
C711 C 0.53244 0.89584 0.07219 0.0
C712 C 0.54796 0.85341 0.0944 0.0
C713 C 0.54508 0.86577 0.12051 0.0
C714 C 0.5372 0.89369 0.12212 0.0
C715 C 0.53097 0.90858 0.09823 0.0
H716 H 0.24229 0.56759 0.21411 0.0
H717 H 0.27485 0.62706 0.15617 0.0
H718 H 0.20725 0.55286 0.18016 0.0
H719 H 0.24023 0.61169 0.12179 0.0
H720 H 0.15014 0.59544 0.08323 0.0
H721 H 0.18812 0.61162 0.11336 0.0
H722 H 0.20804 0.52771 0.13588 0.0
H723 H 0.16987 0.51143 0.10614 0.0
C724 C 0.24173 0.57774 0.19423 0.0
C725 C 0.26127 0.59851 0.18781 0.0
C726 C 0.22198 0.569 0.17463 0.0
C727 C 0.22131 0.58085 0.14819 0.0
C728 C 0.24028 0.60218 0.142 0.0
C729 C 0.26013 0.61089 0.16161 0.0
C730 C 0.16293 0.58037 0.09421 0.0
C731 C 0.15668 0.55214 0.09256 0.0
C732 C 0.18471 0.58968 0.11146 0.0
C733 C 0.20063 0.57095 0.12737 0.0
C734 C 0.19562 0.54265 0.12434 0.0
C735 C 0.17391 0.53332 0.1071 0.0
H736 H 0.45687 0.79958 0.80919 0.0
H737 H 0.52958 0.82832 0.76292 0.0
H738 H 0.45601 0.84235 0.83514 0.0
H739 H 0.52733 0.87193 0.78741 0.0
H740 H 0.54353 0.92072 0.86805 0.0
H741 H 0.53989 0.8863 0.83203 0.0
H742 H 0.44789 0.89032 0.83734 0.0
H743 H 0.45164 0.92415 0.87439 0.0
C744 C 0.47244 0.81516 0.80426 0.0
C745 C 0.4936 0.81021 0.78427 0.0
C746 C 0.47163 0.83997 0.81884 0.0
C747 C 0.49175 0.86064 0.81356 0.0
C748 C 0.51182 0.85633 0.79239 0.0
C749 C 0.51286 0.83137 0.77806 0.0
C750 C 0.52248 0.91475 0.86116 0.0
C751 C 0.49789 0.9248 0.87446 0.0
C752 C 0.52036 0.89501 0.84032 0.0
C753 C 0.49358 0.88511 0.832 0.0
C754 C 0.46889 0.89692 0.84373 0.0
C755 C 0.47103 0.91645 0.86484 0.0
H756 H 0.23135 0.59866 0.81655 0.0
H757 H 0.21062 0.52367 0.7732 0.0
H758 H 0.19229 0.59041 0.84883 0.0
H759 H 0.17092 0.51615 0.80441 0.0
H760 H 0.12273 0.49567 0.88342 0.0
H761 H 0.16102 0.50375 0.85086 0.0
H762 H 0.14054 0.59059 0.85063 0.0
H763 H 0.10253 0.58262 0.88401 0.0
C764 C 0.21857 0.58036 0.81401 0.0
C765 C 0.22402 0.5619 0.79225 0.0
C766 C 0.19591 0.57584 0.83223 0.0
C767 C 0.17827 0.55274 0.82908 0.0
C768 C 0.18414 0.53405 0.80761 0.0
C769 C 0.20677 0.53851 0.78953 0.0
C770 C 0.1261 0.51648 0.87624 0.0
C771 C 0.10956 0.5385 0.88647 0.0
C772 C 0.1481 0.52111 0.85747 0.0
C773 C 0.15405 0.54786 0.84825 0.0
C774 C 0.13689 0.5698 0.85772 0.0
C775 C 0.11488 0.56518 0.87662 0.0
H776 H 0.4887 0.21839 0.83193 0.0
H777 H 0.44368 0.14813 0.79923 0.0
H778 H 0.49787 0.19357 0.87422 0.0
H779 H 0.45501 0.12242 0.84112 0.0
H780 H 0.55133 0.12872 0.91817 0.0
H781 H 0.53088 0.15739 0.88274 0.0
H782 H 0.45025 0.11585 0.89145 0.0
H783 H 0.47134 0.08615 0.92708 0.0
C784 C 0.48029 0.1978 0.8338 0.0
C785 C 0.46562 0.18528 0.81183 0.0
C786 C 0.48595 0.18338 0.85805 0.0
C787 C 0.4777 0.1558 0.86088 0.0
C788 C 0.46166 0.14365 0.83964 0.0
C789 C 0.45559 0.15827 0.81542 0.0
C790 C 0.52912 0.12571 0.91287 0.0
C791 C 0.51303 0.10491 0.92541 0.0
C792 C 0.51727 0.14245 0.89261 0.0
C793 C 0.48883 0.13909 0.88428 0.0
C794 C 0.4723 0.11883 0.89731 0.0
C795 C 0.48429 0.10193 0.91782 0.0
H796 H 0.74196 0.54597 0.86308 0.0
H797 H 0.78841 0.48579 0.81472 0.0
H798 H 0.77688 0.54128 0.90021 0.0
H799 H 0.82373 0.48166 0.85149 0.0
H800 H 0.87021 0.46237 0.92954 0.0
H801 H 0.8288 0.46479 0.89929 0.0
H802 H 0.82732 0.5533 0.90742 0.0
H803 H 0.86849 0.55099 0.93799 0.0
C804 C 0.75956 0.53163 0.86046 0.0
C805 C 0.76248 0.51624 0.83599 0.0
C806 C 0.77963 0.5291 0.88164 0.0
C807 C 0.80295 0.51101 0.87884 0.0
C808 C 0.80574 0.49546 0.85444 0.0
C809 C 0.78575 0.49809 0.83323 0.0
C810 C 0.86073 0.48233 0.92539 0.0
C811 C 0.87297 0.50652 0.93589 0.0
C812 C 0.83714 0.4837 0.90786 0.0
C813 C 0.82518 0.50925 0.90057 0.0
C814 C 0.83606 0.53329 0.91267 0.0
C815 C 0.85972 0.53195 0.93017 0.0
H816 H 0.74287 0.67672 0.01721 0.0
H817 H 0.69877 0.73381 0.96351 0.0
H818 H 0.69821 0.65348 0.02649 0.0
H819 H 0.65372 0.71144 0.97401 0.0
H820 H 0.59107 0.63846 0.96749 0.0
H821 H 0.63157 0.66876 0.9626 0.0
H822 H 0.65255 0.65686 0.04867 0.0
H823 H 0.61233 0.62571 0.05342 0.0
C824 C 0.7236 0.68438 0.00746 0.0
C825 C 0.72447 0.70689 0.98931 0.0
C826 C 0.69788 0.67135 0.01317 0.0
C827 C 0.67233 0.6806 0.00103 0.0
C828 C 0.67305 0.7036 0.98348 0.0
C829 C 0.69884 0.71657 0.97765 0.0
C830 C 0.60401 0.64258 0.98554 0.0
C831 C 0.59868 0.6293 0.01076 0.0
C832 C 0.62721 0.66014 0.98275 0.0
C833 C 0.64554 0.66501 0.00516 0.0
C834 C 0.63918 0.65307 0.03085 0.0
C835 C 0.61602 0.63536 0.03361 0.0
H836 H 0.31619 0.7371 0.07098 0.0
H837 H 0.25074 0.70807 0.01561 0.0
H838 H 0.34071 0.6929 0.06745 0.0
H839 H 0.27498 0.66341 0.01258 0.0
H840 H 0.35533 0.61305 0.98127 0.0
H841 H 0.31978 0.64851 0.99069 0.0
H842 H 0.33886 0.64353 0.07779 0.0
H843 H 0.37487 0.60832 0.06839 0.0
C844 C 0.3069 0.72113 0.05828 0.0
C845 C 0.28175 0.72616 0.04331 0.0
C846 C 0.32073 0.69565 0.05655 0.0
C847 C 0.30978 0.67461 0.03973 0.0
C848 C 0.28402 0.67928 0.02557 0.0
C849 C 0.27008 0.70477 0.02743 0.0
C850 C 0.35152 0.61901 0.00252 0.0
C851 C 0.3684 0.60823 0.024 0.0
C852 C 0.33098 0.63928 0.00794 0.0
C853 C 0.32688 0.64919 0.03494 0.0
C854 C 0.34197 0.63669 0.0567 0.0
C855 C 0.36247 0.61636 0.0513 0.0
H856 H 0.33025 0.29632 0.07302 0.0
H857 H 0.27433 0.34097 0.01798 0.0
H858 H 0.36209 0.3355 0.07509 0.0
H859 H 0.30578 0.38085 0.02074 0.0
H860 H 0.39123 0.41994 0.99471 0.0
H861 H 0.3525 0.38777 0.00078 0.0
H862 H 0.37165 0.38245 0.08789 0.0
H863 H 0.41112 0.41431 0.08172 0.0
C864 C 0.32443 0.31488 0.06194 0.0
C865 C 0.30016 0.31552 0.04495 0.0
C866 C 0.34256 0.33742 0.06328 0.0
C867 C 0.33673 0.36115 0.0477 0.0
C868 C 0.31113 0.36262 0.03254 0.0
C869 C 0.29295 0.33997 0.03119 0.0
C870 C 0.38722 0.41202 0.01521 0.0
C871 C 0.40449 0.41955 0.03769 0.0
C872 C 0.36471 0.39381 0.01876 0.0
C873 C 0.3588 0.38269 0.04486 0.0
C874 C 0.37576 0.39053 0.06747 0.0
C875 C 0.39839 0.40876 0.06392 0.0
H876 H 0.74326 0.30256 0.02598 0.0
H877 H 0.78025 0.35633 0.96511 0.0
H878 H 0.70216 0.33378 0.03009 0.0
H879 H 0.73966 0.38765 0.96955 0.0
H880 H 0.64769 0.41056 0.05007 0.0
H881 H 0.69053 0.38155 0.04713 0.0
H882 H 0.68861 0.38789 0.95824 0.0
H883 H 0.6462 0.41684 0.9611 0.0
C884 C 0.74249 0.32092 0.01336 0.0
C885 C 0.76495 0.32699 0.99522 0.0
C886 C 0.71919 0.33897 0.01597 0.0
C887 C 0.71776 0.36328 0.00028 0.0
C888 C 0.74004 0.36906 0.98185 0.0
C889 C 0.76335 0.35118 0.97939 0.0
C890 C 0.65671 0.40613 0.02995 0.0
C891 C 0.64347 0.41598 0.00582 0.0
C892 C 0.68104 0.38927 0.02826 0.0
C893 C 0.69279 0.38222 0.00244 0.0
C894 C 0.68019 0.39302 0.97845 0.0
C895 C 0.65582 0.40961 0.98011 0.0
H896 H 0.02307 0.68055 0.71957 0.0
H897 H 0.96331 0.72676 0.66942 0.0
H898 H 0.01993 0.64209 0.68737 0.0
H899 H 0.96161 0.68867 0.63654 0.0
H900 H 0.02273 0.63736 0.57289 0.0
H901 H 0.00777 0.67175 0.60701 0.0
H902 H 0.98254 0.60694 0.66246 0.0
H903 H -0.00311 0.57248 0.62783 0.0
C904 C 0.00871 0.68235 0.70215 0.0
C905 C -0.00615 0.70706 0.69691 0.0
C906 C 0.00698 0.66027 0.68367 0.0
C907 C 0.99069 0.6626 0.65946 0.0
C908 C 0.97446 0.68652 0.65502 0.0
C909 C 0.97572 0.70838 0.67373 0.0
C910 C 0.01303 0.63058 0.59198 0.0
C911 C 0.01053 0.60246 0.59774 0.0
C912 C 0.00446 0.65017 0.61144 0.0
C913 C -0.00597 0.6419 0.63728 0.0
C914 C 0.9904 0.61374 0.6426 0.0
C915 C -0.00167 0.59412 0.62278 0.0
H916 H 0.32621 0.05141 0.70251 0.0
H917 H 0.36047 0.98464 0.7514 0.0
H918 H 0.37243 0.05801 0.68159 0.0
H919 H 0.40753 0.99259 0.73199 0.0
H920 H 0.45697 0.97724 0.64961 0.0
H921 H 0.42477 0.98027 0.68844 0.0
H922 H 0.42058 0.06873 0.6792 0.0
H923 H 0.4511 0.06534 0.63885 0.0
C924 C 0.34386 0.0386 0.70931 0.0
C925 C 0.33945 0.01692 0.72787 0.0
C926 C 0.37063 0.0427 0.69767 0.0
C927 C 0.39375 0.02543 0.70464 0.0
C928 C 0.39003 0.00579 0.7256 0.0
C929 C 0.36308 1.00142 0.73696 0.0
C930 C 0.44971 0.99743 0.65619 0.0
C931 C 0.45608 0.02098 0.6407 0.0
C932 C 0.43139 0.99924 0.67879 0.0
C933 C 0.41942 0.02473 0.68665 0.0
C934 C 0.42868 0.04867 0.67321 0.0
C935 C 0.44649 0.04677 0.65021 0.0
H936 H 0.97766 0.31127 0.66183 0.0
H937 H 0.05381 0.33649 0.70483 0.0
H938 H 0.99104 0.3397 0.62244 0.0
H939 H 0.06655 0.36571 0.6662 0.0
H940 H 0.09211 0.40766 0.58892 0.0
H941 H 0.08161 0.36904 0.61919 0.0
H942 H 0.99168 0.38846 0.61395 0.0
H943 H 0.0021 0.42648 0.58309 0.0
C944 C -0.00251 0.32251 0.66269 0.0
C945 C 0.01453 0.32187 0.68656 0.0
C946 C 0.005 0.33905 0.64025 0.0
C947 C 0.02973 0.35524 0.64122 0.0
C948 C 0.0475 0.35338 0.66455 0.0
C949 C 0.04002 0.33686 0.68689 0.0
C950 C 0.07007 0.40342 0.59391 0.0
C951 C 0.04798 0.42037 0.5839 0.0
C952 C 0.06405 0.38135 0.61136 0.0
C953 C 0.03583 0.37582 0.61932 0.0
C954 C 0.01364 0.3919 0.60808 0.0
C955 C 0.01964 0.41387 0.59049 0.0
H956 H 0.71841 0.06517 0.74115 0.0
H957 H 0.76491 0.12116 0.68914 0.0
H958 H 0.68699 0.05412 0.7024 0.0
H959 H 0.73376 0.10991 0.65032 0.0
H960 H 0.6532 0.097 0.59485 0.0
H961 H 0.68327 0.11253 0.63299 0.0
H962 H 0.69613 0.02825 0.65839 0.0
H963 H 0.66625 0.01266 0.62058 0.0
C964 C 0.72148 0.07554 0.72161 0.0
C965 C 0.74412 0.09388 0.71805 0.0
C966 C 0.70378 0.06899 0.69935 0.0
C967 C 0.70826 0.08084 0.67323 0.0
C968 C 0.72981 0.10046 0.67017 0.0
C969 C 0.74764 0.10683 0.69234 0.0
C970 C 0.66281 0.08175 0.60829 0.0
C971 C 0.65708 0.05358 0.60473 0.0
C972 C 0.67994 0.09067 0.63018 0.0
C973 C 0.69148 0.07163 0.649 0.0
C974 C 0.6869 0.04345 0.64463 0.0
C975 C 0.67002 0.03452 0.62271 0.0
H976 H 0.00765 0.29035 0.35108 0.0
H977 H 0.07508 0.33449 0.31016 0.0
H978 H -0.00421 0.33128 0.37784 0.0
H979 H 0.06324 0.37559 0.33709 0.0
H980 H 0.0101 0.45052 0.36684 0.0
H981 H 0.0253 0.40978 0.34123 0.0
H982 H 0.01421 0.36028 0.41438 0.0
H983 H -0.00162 0.40091 0.43985 0.0
C984 C 0.0202 0.30871 0.34807 0.0
C985 C 0.04242 0.30913 0.3286 0.0
C986 C 0.01341 0.33218 0.36343 0.0
C987 C 0.02866 0.35668 0.35972 0.0
C988 C 0.05089 0.35713 0.34024 0.0
C989 C 0.05768 0.33361 0.32482 0.0
C990 C 0.01104 0.43097 0.37751 0.0
C991 C 0.00283 0.42893 0.40534 0.0
C992 C 0.01992 0.40764 0.36286 0.0
C993 C 0.02084 0.38175 0.37571 0.0
C994 C 0.01329 0.37985 0.40374 0.0
C995 C 0.00437 0.40317 0.41838 0.0
H996 H 0.66578 0.0332 0.23961 0.0
H997 H 0.69658 0.10709 0.27904 0.0
H998 H 0.63473 0.02469 0.27883 0.0
H999 H 0.66635 0.09787 0.31894 0.0
H1000 H 0.58997 0.08648 0.37514 0.0
H1001 H 0.61622 0.09635 0.33297 0.0
H1002 H 0.6407 0.01067 0.32651 0.0
H1003 H 0.61404 1.00062 0.36828 0.0
C1004 C 0.66575 0.04775 0.25658 0.0
C1005 C 0.68353 0.0709 0.25621 0.0
C1006 C 0.64821 0.04268 0.27918 0.0
C1007 C 0.64816 0.06056 0.30197 0.0
C1008 C 0.6657 0.08389 0.30151 0.0
C1009 C 0.68324 0.089 0.27884 0.0
C1010 C 0.60075 0.06968 0.3646 0.0
C1011 C 0.60005 0.04276 0.37515 0.0
C1012 C 0.61591 0.07541 0.34054 0.0
C1013 C 0.63066 0.05433 0.32656 0.0
C1014 C 0.62929 0.0273 0.33668 0.0
C1015 C 0.6141 0.02155 0.36069 0.0
H1016 H 0.98123 0.71732 0.335 0.0
H1017 H 0.06198 0.6857 0.30607 0.0
H1018 H 0.98504 0.6888 0.37617 0.0
H1019 H 0.067 0.65827 0.348 0.0
H1020 H 0.03877 0.58159 0.39729 0.0
H1021 H 0.04682 0.61784 0.36385 0.0
H1022 H 0.00503 0.6763 0.41826 0.0
H1023 H -0.00383 0.63933 0.45115 0.0
C1024 C 0.00025 0.70489 0.33804 0.0
C1025 C 0.02121 0.70343 0.31751 0.0
C1026 C 0.00262 0.68861 0.3617 0.0
C1027 C 0.02625 0.67087 0.36543 0.0
C1028 C 0.04819 0.67109 0.3456 0.0
C1029 C 0.0455 0.68696 0.32171 0.0
C1030 C 0.03248 0.60243 0.40253 0.0
C1031 C 0.01732 0.60785 0.42684 0.0
C1032 C 0.0369 0.62332 0.38329 0.0
C1033 C 0.02632 0.65014 0.38809 0.0
C1034 C 0.01291 0.65583 0.4135 0.0
C1035 C 0.00809 0.63478 0.43251 0.0
H1036 H 0.31251 0.96847 0.29179 0.0
H1037 H 0.26181 0.03321 0.32893 0.0
H1038 H 0.34718 0.97241 0.32917 0.0
H1039 H 0.29601 0.0366 0.36676 0.0
H1040 H 0.38225 0.05143 0.41298 0.0
H1041 H 0.3452 0.05008 0.37757 0.0
H1042 H 0.34823 0.96125 0.37852 0.0
H1043 H 0.38538 0.96251 0.41349 0.0
C1044 C 0.30895 0.98374 0.30777 0.0
C1045 C 0.28438 1.0004 0.30751 0.0
C1046 C 0.32856 0.98574 0.3294 0.0
C1047 C 0.32408 0.00452 0.35118 0.0
C1048 C 0.30007 0.02193 0.35033 0.0
C1049 C 0.28042 0.01987 0.32875 0.0
C1050 C 0.37458 0.03161 0.40607 0.0
C1051 C 0.38707 0.00708 0.41583 0.0
C1052 C 0.35341 0.03085 0.3857 0.0
C1053 C 0.3443 0.00556 0.37477 0.0
C1054 C 0.35539 0.98107 0.38594 0.0
C1055 C 0.37649 0.98182 0.40622 0.0
H1056 H 0.02539 0.18934 0.29037 0.0
H1057 H 0.07638 0.21733 0.35901 0.0
H1058 H 0.01327 0.14793 0.31607 0.0
H1059 H 0.06371 0.1761 0.38497 0.0
H1060 H 0.04219 0.09065 0.42022 0.0
H1061 H 0.06458 0.12332 0.38849 0.0
H1062 H 0.98146 0.14604 0.35725 0.0
H1063 H 0.95937 0.11418 0.3888 0.0
C1064 C 0.03462 0.18633 0.31065 0.0
C1065 C 0.05154 0.20678 0.32279 0.0
C1066 C 0.02751 0.1627 0.32545 0.0
C1067 C 0.03725 0.15895 0.35266 0.0
C1068 C 0.05596 0.17836 0.36402 0.0
C1069 C 0.06297 0.20209 0.34926 0.0
C1070 C 0.02881 0.10257 0.40657 0.0
C1071 C -0.00101 0.10008 0.40752 0.0
C1072 C 0.0416 0.12122 0.38834 0.0
C1073 C 0.02477 0.13718 0.37031 0.0
C1074 C -0.0049 0.13381 0.37057 0.0
C1075 C 0.98241 0.11564 0.38893 0.0
H1076 H 0.78504 0.12072 0.28951 0.0
H1077 H 0.82254 0.04468 0.26076 0.0
H1078 H 0.80095 0.11035 0.33674 0.0
H1079 H 0.83878 0.03429 0.30755 0.0
H1080 H 0.84507 0.009 0.39452 0.0
H1081 H 0.81974 0.0218 0.35256 0.0
H1082 H 0.8454 0.10623 0.36369 0.0
H1083 H 0.87037 0.09357 0.40602 0.0
C1084 C 0.79694 0.10193 0.29338 0.0
C1085 C 0.80294 0.08356 0.27176 0.0
C1086 C 0.80598 0.09595 0.32032 0.0
C1087 C 0.8209 0.07136 0.326 0.0
C1088 C 0.82686 0.05313 0.30406 0.0
C1089 C 0.81791 0.05918 0.27722 0.0
C1090 C 0.84469 0.03045 0.38848 0.0
C1091 C 0.8602 0.05015 0.40343 0.0
C1092 C 0.83039 0.03773 0.36424 0.0
C1093 C 0.83126 0.06488 0.35433 0.0
C1094 C 0.84441 0.08511 0.37066 0.0
C1095 C 0.85869 0.07783 0.39503 0.0
H1096 H 0.04449 0.83355 0.30653 0.0
H1097 H 0.95405 0.82054 0.29874 0.0
H1098 H 0.03561 0.86962 0.34106 0.0
H1099 H 0.94485 0.85685 0.33264 0.0
H1100 H 0.93679 0.9082 0.4095 0.0
H1101 H 0.94938 0.86877 0.3807 0.0
H1102 H 0.01639 0.91595 0.34258 0.0
H1103 H 0.00423 0.95515 0.37181 0.0
C1104 C 0.02273 0.83843 0.31241 0.0
C1105 C -0.00012 0.82453 0.30026 0.0
C1106 C 0.0176 0.85911 0.33198 0.0
C1107 C 0.9895 0.86616 0.33963 0.0
C1108 C 0.96674 0.85169 0.3276 0.0
C1109 C 0.97193 0.83105 0.30809 0.0
C1110 C 0.95436 0.91009 0.39513 0.0
C1111 C 0.96933 0.9349 0.39276 0.0
C1112 C 0.96149 0.88752 0.37852 0.0
C1113 C 0.9837 0.88925 0.35911 0.0
C1114 C -0.00067 0.91378 0.35746 0.0
C1115 C 0.99224 0.93634 0.37413 0.0
H1116 H 0.16563 0.02155 0.26076 0.0
H1117 H 0.19099 0.9549 0.31428 0.0
H1118 H 0.11916 0.02402 0.28404 0.0
H1119 H 0.14505 0.95727 0.33753 0.0
H1120 H 0.06068 0.95971 0.37401 0.0
H1121 H 0.09288 0.95265 0.33515 0.0
H1122 H 0.10812 0.0401 0.33166 0.0
H1123 H 0.07559 0.04733 0.37012 0.0
C1124 C 0.16088 0.00698 0.27698 0.0
C1125 C 0.18175 0.98819 0.286 0.0
C1126 C 0.13445 0.00846 0.29036 0.0
C1127 C 0.12849 0.99091 0.31266 0.0
C1128 C 0.14877 0.97085 0.32021 0.0
C1129 C 0.17517 0.9696 0.3071 0.0
C1130 C 0.07032 0.97754 0.36454 0.0
C1131 C 0.06616 0.00402 0.37566 0.0
C1132 C 0.08879 0.97345 0.34228 0.0
C1133 C 0.10343 0.99575 0.33072 0.0
C1134 C 0.0971 0.0225 0.34007 0.0
C1135 C 0.07861 0.02661 0.36231 0.0
H1136 H 0.97301 0.80294 0.67563 0.0
H1137 H 0.04957 0.82079 0.72171 0.0
H1138 H 0.97936 0.8449 0.64884 0.0
H1139 H 0.05586 0.86276 0.695 0.0
H1140 H 0.04606 0.94783 0.65764 0.0
H1141 H 0.03512 0.90824 0.68639 0.0
H1142 H 0.01239 0.86177 0.61362 0.0
H1143 H 0.02293 0.90154 0.58482 0.0
C1144 C 0.99119 0.81584 0.68005 0.0
C1145 C 0.01086 0.80845 0.70073 0.0
C1146 C -0.00517 0.83986 0.66468 0.0
C1147 C 0.01818 0.8571 0.66968 0.0
C1148 C 0.03744 0.8501 0.69086 0.0
C1149 C 0.03382 0.82605 0.70621 0.0
C1150 C 0.03852 0.92924 0.64775 0.0
C1151 C 0.03547 0.92781 0.61891 0.0
C1152 C 0.03241 0.9065 0.66425 0.0
C1153 C 0.02304 0.8818 0.65231 0.0
C1154 C 0.0193 0.88058 0.62351 0.0
C1155 C 0.02547 0.90334 0.60698 0.0
H1156 H 0.20828 0.02191 0.72045 0.0
H1157 H 0.26681 0.97555 0.66938 0.0
H1158 H 0.17544 0.02627 0.68123 0.0
H1159 H 0.23414 0.97984 0.63025 0.0
H1160 H 0.14898 0.96797 0.58043 0.0
H1161 H 0.18507 0.96394 0.61652 0.0
H1162 H 0.1759 0.05058 0.63451 0.0
H1163 H 0.13981 0.05475 0.59831 0.0
C1164 C 0.21388 0.01235 0.70095 0.0
C1165 C 0.23999 0.99839 0.69789 0.0
C1166 C 0.19534 0.01513 0.67844 0.0
C1167 C 0.20242 0.00367 0.65259 0.0
C1168 C 0.22812 0.9889 0.64987 0.0
C1169 C 0.24678 0.98644 0.67223 0.0
C1170 C 0.15514 0.98632 0.59163 0.0
C1171 C 0.14143 0.01167 0.58656 0.0
C1172 C 0.17576 0.98397 0.61235 0.0
C1173 C 0.18289 0.00684 0.62866 0.0
C1174 C 0.17041 0.03251 0.62257 0.0
C1175 C 0.15004 0.03496 0.60157 0.0
H1176 H 0.98906 0.17287 0.72065 0.0
H1177 H 0.96359 0.23084 0.65791 0.0
H1178 H 0.00018 0.13866 0.68503 0.0
H1179 H 0.97503 0.19677 0.62195 0.0
H1180 H 0.97796 0.11864 0.56703 0.0
H1181 H 0.96118 0.15076 0.60264 0.0
H1182 H 0.03777 0.13502 0.64975 0.0
H1183 H 0.05397 0.10263 0.61476 0.0
C1184 C 0.98572 0.17812 0.69915 0.0
C1185 C 0.97564 0.20425 0.69177 0.0
C1186 C 0.99217 0.15867 0.67878 0.0
C1187 C 0.98867 0.1651 0.65067 0.0
C1188 C 0.97772 0.19115 0.64343 0.0
C1189 C 0.97133 0.21064 0.66389 0.0
C1190 C 0.99091 0.12177 0.58517 0.0
C1191 C 0.01703 0.10781 0.58821 0.0
C1192 C 0.98149 0.14037 0.60542 0.0
C1193 C -0.00195 0.14524 0.62912 0.0
C1194 C 0.02425 0.13136 0.632 0.0
C1195 C 0.03366 0.11297 0.61178 0.0
H1196 H 0.83488 0.04347 0.73667 0.0
H1197 H 0.86244 0.12728 0.74643 0.0
H1198 H 0.87651 0.0332 0.70875 0.0
H1199 H 0.90521 0.117 0.71902 0.0
H1200 H 0.93393 0.09987 0.62778 0.0
H1201 H 0.90976 0.11058 0.67073 0.0
H1202 H 0.92524 0.02755 0.69928 0.0
H1203 H 0.94835 0.01648 0.65559 0.0
C1204 C 0.85069 0.05935 0.73377 0.0
C1205 C 0.8456 0.08611 0.74347 0.0
C1206 C 0.8747 0.05351 0.71782 0.0
C1207 C 0.89416 0.07438 0.7112 0.0
C1208 C 0.89039 0.10058 0.72328 0.0
C1209 C 0.86616 0.10644 0.73923 0.0
C1210 C 0.93261 0.08398 0.64337 0.0
C1211 C 0.94226 0.05706 0.6379 0.0
C1212 C 0.91897 0.09023 0.66826 0.0
C1213 C 0.91496 0.06977 0.68838 0.0
C1214 C 0.92722 0.0436 0.68395 0.0
C1215 C 0.94052 0.03725 0.6589 0.0
H1216 H 0.30314 0.94234 0.16995 0.0
H1217 H 0.31363 0.0271 0.19394 0.0
H1218 H 0.34551 0.94519 0.14049 0.0
H1219 H 0.3556 0.0304 0.16419 0.0
H1220 H 0.43902 0.02618 0.12005 0.0
H1221 H 0.40443 0.01543 0.15595 0.0
H1222 H 0.35593 0.96788 0.09716 0.0
H1223 H 0.39066 0.97824 0.06146 0.0
C1224 C 0.31487 0.96145 0.16911 0.0
C1225 C 0.30547 0.98452 0.18399 0.0
C1226 C 0.33895 0.96316 0.15219 0.0
C1227 C 0.35389 0.98805 0.14988 0.0
C1228 C 0.34487 0.01082 0.16576 0.0
C1229 C 0.3208 0.00905 0.18266 0.0
C1230 C 0.42125 0.01302 0.11491 0.0
C1231 C 0.41742 0.00332 0.08781 0.0
C1232 C 0.40134 0.007 0.13546 0.0
C1233 C 0.37722 0.9911 0.12936 0.0
C1234 C 0.37435 0.98004 0.10266 0.0
C1235 C 0.39423 0.98608 0.08211 0.0
H1236 H 0.0517 0.28954 0.16856 0.0
H1237 H 0.06794 0.33988 0.24016 0.0
H1238 H 0.04902 0.33089 0.13972 0.0
H1239 H 0.06552 0.38125 0.21155 0.0
H1240 H 0.03331 0.45118 0.15754 0.0
H1241 H 0.03152 0.40903 0.18471 0.0
H1242 H 0.08104 0.36667 0.12235 0.0
H1243 H 0.08255 0.40869 0.09499 0.0
C1244 C 0.05465 0.30953 0.17804 0.0
C1245 C 0.05994 0.31175 0.20642 0.0
C1246 C 0.05324 0.33315 0.16159 0.0
C1247 C 0.057 0.35939 0.17333 0.0
C1248 C 0.0621 0.36141 0.20191 0.0
C1249 C 0.06363 0.33777 0.2183 0.0
C1250 C 0.04362 0.43283 0.14949 0.0
C1251 C 0.05826 0.43339 0.12418 0.0
C1252 C 0.04274 0.40871 0.16516 0.0
C1253 C 0.05635 0.38454 0.15583 0.0
C1254 C 0.07017 0.38486 0.13007 0.0
C1255 C 0.07115 0.40901 0.11444 0.0
H1256 H 0.68536 0.02468 0.17126 0.0
H1257 H 0.71362 0.10002 0.13333 0.0
H1258 H 0.6595 0.01271 0.12944 0.0
H1259 H 0.68775 0.0876 0.09074 0.0
H1260 H 0.65488 0.02609 0.01561 0.0
H1261 H 0.68539 0.04399 0.0526 0.0
H1262 H 0.61452 0.04049 0.10921 0.0
H1263 H 0.58405 0.02292 0.07264 0.0
C1264 C 0.68633 0.0385 0.15375 0.0
C1265 C 0.70103 0.0635 0.15563 0.0
C1266 C 0.6715 0.03167 0.1299 0.0
C1267 C 0.67122 0.04953 0.10722 0.0
C1268 C 0.68758 0.07363 0.10814 0.0
C1269 C 0.70241 0.08064 0.13233 0.0
C1270 C 0.64575 0.02947 0.03589 0.0
C1271 C 0.61714 0.0227 0.04132 0.0
C1272 C 0.66317 0.03986 0.05691 0.0
C1273 C 0.65231 0.0432 0.08369 0.0
C1274 C 0.62342 0.03776 0.08873 0.0
C1275 C 0.606 0.02769 0.06778 0.0
H1276 H 0.03457 0.66087 0.23089 0.0
H1277 H 0.97469 0.71871 0.19478 0.0
H1278 H 0.02843 0.63047 0.19155 0.0
H1279 H 0.97027 0.6887 0.15439 0.0
H1280 H 0.02381 0.64069 0.07979 0.0
H1281 H 0.01246 0.67187 0.11806 0.0
H1282 H 0.98467 0.60284 0.16675 0.0
H1283 H -0.00447 0.57173 0.12817 0.0
C1284 C 0.01978 0.66704 0.21486 0.0
C1285 C 0.005 0.69234 0.21632 0.0
C1286 C 0.01634 0.64956 0.19226 0.0
C1287 C -0.00142 0.65714 0.17023 0.0
C1288 C 0.98393 0.68239 0.17131 0.0
C1289 C 0.98682 0.69968 0.19429 0.0
C1290 C 0.01399 0.63244 0.09822 0.0
C1291 C 0.0101 0.60399 0.10105 0.0
C1292 C 0.00756 0.65022 0.12007 0.0
C1293 C -0.00214 0.63964 0.14527 0.0
C1294 C 0.99205 0.6114 0.14741 0.0
C1295 C -0.00207 0.59368 0.12531 0.0
H1296 H 0.34444 0.95898 0.80118 0.0
H1297 H 0.29125 0.9864 0.86855 0.0
H1298 H 0.38663 0.96187 0.83092 0.0
H1299 H 0.33326 0.98938 0.89843 0.0
H1300 H 0.41028 0.97783 0.95133 0.0
H1301 H 0.37155 0.96264 0.92137 0.0
H1302 H 0.41277 1.00115 0.85184 0.0
H1303 H 0.45193 0.01549 0.88195 0.0
C1304 C 0.34184 0.96522 0.82253 0.0
C1305 C 0.31485 0.97246 0.83279 0.0
C1306 C 0.36592 0.967 0.83947 0.0
C1307 C 0.36331 0.97588 0.86701 0.0
C1308 C 0.33596 0.98211 0.87744 0.0
C1309 C 0.31193 0.98052 0.8604 0.0
C1310 C 0.41173 0.98172 0.9294 0.0
C1311 C 0.43446 0.99691 0.91869 0.0
C1312 C 0.38927 0.9736 0.91234 0.0
C1313 C 0.38903 0.98076 0.88424 0.0
C1314 C 0.41249 0.995 0.87331 0.0
C1315 C 0.43487 0.00325 0.89048 0.0
H1316 H 0.95403 0.3167 0.80046 0.0
H1317 H 0.04171 0.33662 0.78282 0.0
H1318 H 0.9554 0.34606 0.84133 0.0
H1319 H 0.04326 0.36574 0.82387 0.0
H1320 H 0.01843 0.44505 0.87158 0.0
H1321 H 0.02293 0.40971 0.83625 0.0
H1322 H 0.97501 0.35362 0.88709 0.0
H1323 H 0.96993 0.38931 0.92231 0.0
C1324 C 0.97378 0.3269 0.80566 0.0
C1325 C -0.00234 0.3246 0.78828 0.0
C1326 C 0.97461 0.34369 0.82912 0.0
C1327 C -0.00061 0.35846 0.83577 0.0
C1328 C 0.02368 0.35509 0.81906 0.0
C1329 C 0.0228 0.3384 0.79557 0.0
C1330 C 0.00916 0.42508 0.87543 0.0
C1331 C -0.00644 0.42013 0.89964 0.0
C1332 C 0.01189 0.40471 0.8552 0.0
C1333 C -0.00085 0.37885 0.85873 0.0
C1334 C 0.98467 0.37346 0.88353 0.0
C1335 C 0.98193 0.39387 0.90379 0.0
H1336 H 0.72705 0.12226 0.8756 0.0
H1337 H 0.71113 0.06559 0.8089 0.0
H1338 H 0.68429 0.10609 0.89952 0.0
H1339 H 0.66883 0.04877 0.83283 0.0
H1340 H 0.58412 0.03428 0.87309 0.0
H1341 H 0.62122 0.0592 0.84817 0.0
H1342 H 0.67044 0.0648 0.92342 0.0
H1343 H 0.63318 0.04018 0.94804 0.0
C1344 C 0.71412 0.10651 0.86602 0.0
C1345 C 0.72203 0.0951 0.84055 0.0
C1346 C 0.6898 0.09712 0.87972 0.0
C1347 C 0.6731 0.07607 0.86815 0.0
C1348 C 0.68086 0.06528 0.84217 0.0
C1349 C 0.70514 0.07473 0.82852 0.0
C1350 C 0.60263 0.04147 0.8843 0.0
C1351 C 0.60553 0.03613 0.91261 0.0
C1352 C 0.62396 0.05553 0.87005 0.0
C1353 C 0.64885 0.06408 0.88378 0.0
C1354 C 0.65131 0.05918 0.91231 0.0
C1355 C 0.62988 0.04529 0.92653 0.0
H1356 H 0.98711 0.68424 0.79522 0.0
H1357 H 0.04887 0.72213 0.84882 0.0
H1358 H 0.98313 0.64557 0.8272 0.0
H1359 H 0.04461 0.68373 0.88134 0.0
H1360 H 0.04366 0.5978 0.92296 0.0
H1361 H 0.05291 0.63372 0.88878 0.0
H1362 H 0.96252 0.64052 0.87278 0.0
H1363 H 0.95343 0.60463 0.90603 0.0
C1364 C -3e-05 0.68408 0.81381 0.0
C1365 C 0.01821 0.70593 0.81978 0.0
C1366 C -0.00238 0.6621 0.8322 0.0
C1367 C 0.01338 0.66168 0.85697 0.0
C1368 C 0.03237 0.68329 0.86238 0.0
C1369 C 0.0347 0.7053 0.84392 0.0
C1370 C 0.02587 0.60682 0.91201 0.0
C1371 C -0.00211 0.598 0.91709 0.0
C1372 C 0.03112 0.62753 0.89253 0.0
C1373 C 0.00846 0.63972 0.87775 0.0
C1374 C 0.98054 0.63114 0.88325 0.0
C1375 C 0.97534 0.61063 0.90258 0.0
H1376 H 0.14275 0.28299 0.00707 0.0
H1377 H 0.20048 0.33283 0.05465 0.0
H1378 H 0.11168 0.32306 -0.00014 0.0
H1379 H 0.17013 0.37316 0.04687 0.0
H1380 H 0.10135 0.43793 0.04378 0.0
H1381 H 0.12478 0.39485 0.05658 0.0
H1382 H 0.11371 0.36471 0.97328 0.0
H1383 H 0.08945 0.40729 0.96083 0.0
C1384 C 0.1486 0.30257 0.0161 0.0
C1385 C 0.17384 0.3051 0.03128 0.0
C1386 C 0.13098 0.32552 0.01186 0.0
C1387 C 0.13847 0.35139 0.02265 0.0
C1388 C 0.1635 0.35352 0.03855 0.0
C1389 C 0.18102 0.33053 0.04284 0.0
C1390 C 0.10346 0.42192 0.02836 0.0
C1391 C 0.09362 0.42611 0.00128 0.0
C1392 C 0.11713 0.39731 0.03562 0.0
C1393 C 0.12135 0.37638 0.01591 0.0
C1394 C 0.11057 0.38023 0.98909 0.0
C1395 C 0.09682 0.40477 0.98188 0.0
H1396 H 0.18765 0.71451 0.06756 0.0
H1397 H 0.12461 0.76547 0.02728 0.0
H1398 H 0.15869 0.67391 0.05896 0.0
H1399 H 0.09467 0.72515 0.01977 0.0
H1400 H 0.07441 0.64484 0.97408 0.0
H1401 H 0.09654 0.68681 0.98981 0.0
H1402 H 0.11657 0.64825 0.06785 0.0
H1403 H 0.09535 0.60571 0.05143 0.0
C1404 C 0.1673 0.717 0.05724 0.0
C1405 C 0.15838 0.74284 0.04768 0.0
C1406 C 0.15052 0.6938 0.05257 0.0
C1407 C 0.12439 0.69613 0.03842 0.0
C1408 C 0.11491 0.72246 0.03022 0.0
C1409 C 0.13188 0.74559 0.03466 0.0
C1410 C 0.0833 0.64524 0.99473 0.0
C1411 C 0.0832 0.62161 0.01145 0.0
C1412 C 0.09579 0.66955 0.00388 0.0
C1413 C 0.10843 0.67105 0.03014 0.0
C1414 C 0.10737 0.64777 0.04735 0.0
C1415 C 0.09494 0.62333 0.03805 0.0
H1416 H 0.28917 0.1901 0.04664 0.0
H1417 H 0.32932 0.24037 0.98469 0.0
H1418 H 0.3256 0.15442 0.03947 0.0
H1419 H 0.36593 0.20505 0.9778 0.0
H1420 H 0.41601 0.12443 0.96076 0.0
H1421 H 0.37608 0.15705 0.96239 0.0
H1422 H 0.37722 0.15405 0.05148 0.0
H1423 H 0.41675 0.12154 0.05002 0.0
C1424 C 0.3054 0.19318 0.03106 0.0
C1425 C 0.30666 0.21797 0.01638 0.0
C1426 C 0.3264 0.17298 0.02716 0.0
C1427 C 0.34884 0.1772 0.00839 0.0
C1428 C 0.34891 0.20121 0.99237 0.0
C1429 C 0.32805 0.22144 0.99639 0.0
C1430 C 0.40791 0.13094 0.98069 0.0
C1431 C 0.41953 0.12025 0.00525 0.0
C1432 C 0.385 0.14953 0.9816 0.0
C1433 C 0.37321 0.15765 0.00705 0.0
C1434 C 0.38538 0.14761 0.03155 0.0
C1435 C 0.4083 0.12921 0.03068 0.0
H1436 H 0.88741 0.29073 0.02719 0.0
H1437 H 0.86155 0.35093 0.96654 0.0
H1438 H 0.93043 0.31721 0.03673 0.0
H1439 H 0.90407 0.37766 0.97643 0.0
H1440 H 0.98491 0.42005 0.99272 0.0
H1441 H 0.95643 0.38143 0.97638 0.0
H1442 H 0.93483 0.36151 0.06067 0.0
H1443 H 0.96334 0.39978 0.07694 0.0
C1444 C 0.89126 0.30928 0.01546 0.0
C1445 C 0.87098 0.319 0.9964 0.0
C1446 C 0.91578 0.32451 0.02103 0.0
C1447 C 0.92054 0.34963 0.00751 0.0
C1448 C 0.9012 0.35829 0.98705 0.0
C1449 C 0.87666 0.34317 0.9816 0.0
C1450 C 0.97468 0.40698 0.00777 0.0
C1451 C 0.97582 0.41332 0.03608 0.0
C1452 C 0.95829 0.38493 -0.0016 0.0
C1453 C 0.94302 0.36869 0.0172 0.0
C1454 C 0.9464 0.37353 0.04563 0.0
C1455 C 0.9626 0.39563 0.05497 0.0
H1456 H 0.71246 0.79865 0.94385 0.0
H1457 H 0.74807 0.85283 0.00518 0.0
H1458 H 0.6679 0.82532 0.94436 0.0
H1459 H 0.70375 0.8799 0.00559 0.0
H1460 H 0.61243 0.90806 0.01789 0.0
H1461 H 0.65329 0.87676 0.019 0.0
H1462 H 0.65134 0.87099 0.93003 0.0
H1463 H 0.6103 0.90193 0.92884 0.0
C1464 C 0.71064 0.81642 0.95732 0.0
C1465 C 0.73343 0.82403 0.97431 0.0
C1466 C 0.68525 0.83167 0.95762 0.0
C1467 C 0.68227 0.85472 0.97503 0.0
C1468 C 0.70522 0.86205 0.99223 0.0
C1469 C 0.73063 0.8468 0.99185 0.0
C1470 C 0.62043 0.89982 -0.00143 0.0
C1471 C 0.60817 0.9077 0.97325 0.0
C1472 C 0.64401 0.88205 -0.00078 0.0
C1473 C 0.65576 0.87165 0.97459 0.0
C1474 C 0.6427 0.87852 0.94938 0.0
C1475 C 0.6192 0.89635 0.94871 0.0
H1476 H 0.81292 0.6723 0.93965 0.0
H1477 H 0.85118 0.72024 0.00464 0.0
H1478 H 0.85237 0.63928 0.94204 0.0
H1479 H 0.88974 0.68679 0.00831 0.0
H1480 H 0.96056 0.62798 0.01075 0.0
H1481 H 0.93019 0.66454 0.99224 0.0
H1482 H 0.86624 0.60411 0.97164 0.0
H1483 H 0.8975 0.56779 0.98878 0.0
C1484 C 0.83002 0.67585 0.95423 0.0
C1485 C 0.82907 0.69868 0.97203 0.0
C1486 C 0.85252 0.65687 0.9558 0.0
C1487 C 0.87423 0.66001 0.97561 0.0
C1488 C 0.87383 0.68373 0.99244 0.0
C1489 C 0.85162 0.70293 0.9905 0.0
C1490 C 0.94034 0.62263 0.00142 0.0
C1491 C 0.9313 0.59523 0.00094 0.0
C1492 C 0.92277 0.64354 0.99109 0.0
C1493 C 0.89538 0.63752 0.98091 0.0
C1494 C 0.88722 0.60971 0.97894 0.0
C1495 C 0.90512 0.58876 0.98874 0.0
H1496 H 0.32287 0.81522 0.06689 0.0
H1497 H 0.26665 0.84679 0.0037 0.0
H1498 H 0.35676 0.85158 0.05711 0.0
H1499 H 0.30055 0.88374 0.99406 0.0
H1500 H 0.39039 0.91358 0.96126 0.0
H1501 H 0.34885 0.88601 0.9731 0.0
H1502 H 0.36429 0.90115 0.0597 0.0
H1503 H 0.40603 0.9281 0.04802 0.0
C1504 C 0.31763 0.8302 0.05112 0.0
C1505 C 0.29223 0.82808 0.03594 0.0
C1506 C 0.33692 0.85121 0.04566 0.0
C1507 C 0.33137 0.87059 0.02479 0.0
C1508 C 0.30551 0.86901 0.01014 0.0
C1509 C 0.28602 0.84804 0.0158 0.0
C1510 C 0.38466 0.91139 0.9828 0.0
C1511 C 0.4019 0.92263 0.00369 0.0
C1512 C 0.36074 0.89571 0.98959 0.0
C1513 C 0.35354 0.89101 0.01737 0.0
C1514 C 0.36962 0.90389 0.03812 0.0
C1515 C 0.3935 0.91946 0.03138 0.0
H1516 H 0.74499 0.21944 0.02416 0.0
H1517 H 0.78064 0.17644 0.95416 0.0
H1518 H 0.70653 0.18572 0.02674 0.0
H1519 H 0.74254 0.14232 0.95679 0.0
H1520 H 0.65116 0.106 0.95379 0.0
H1521 H 0.6913 0.13734 0.95001 0.0
H1522 H 0.70014 0.13756 0.0388 0.0
H1523 H 0.6599 0.10646 0.04263 0.0
C1524 C 0.7444 0.20275 0.0093 0.0
C1525 C 0.76541 0.20037 0.98892 0.0
C1526 C 0.72263 0.18332 0.01087 0.0
C1527 C 0.72159 0.16117 0.99209 0.0
C1528 C 0.74258 0.1592 0.97142 0.0
C1529 C 0.76436 0.17864 0.96991 0.0
C1530 C 0.66198 0.11233 0.97247 0.0
C1531 C 0.65216 0.10387 -0.00149 0.0
C1532 C 0.68498 0.13036 0.97031 0.0
C1533 C 0.69864 0.14032 0.99414 0.0
C1534 C 0.68964 0.13082 0.02008 0.0
C1535 C 0.66669 0.11282 0.02225 0.0
H1536 H 0.45079 0.72073 0.80669 0.0
H1537 H 0.53352 0.6888 0.78356 0.0
H1538 H 0.44573 0.68403 0.84045 0.0
H1539 H 0.52839 0.6516 0.81732 0.0
H1540 H 0.52318 0.62277 0.91027 0.0
H1541 H 0.52834 0.65027 0.86852 0.0
H1542 H 0.44056 0.63432 0.84722 0.0
H1543 H 0.43523 0.60718 0.88916 0.0
C1544 C 0.4677 0.70553 0.80856 0.0
C1545 C 0.49261 0.70771 0.79265 0.0
C1546 C 0.46473 0.68436 0.82775 0.0
C1547 C 0.4867 0.66491 0.83166 0.0
C1548 C 0.51119 0.66641 0.81494 0.0
C1549 C 0.51404 0.68753 0.79548 0.0
C1550 C 0.50507 0.62484 0.89651 0.0
C1551 C 0.47866 0.61315 0.90329 0.0
C1552 C 0.50811 0.64043 0.87245 0.0
C1553 C 0.48477 0.64475 0.85468 0.0
C1554 C 0.45882 0.63176 0.8607 0.0
C1555 C 0.45581 0.6161 0.8847 0.0
H1556 H 0.38958 0.59507 0.80411 0.0
H1557 H 0.3097 0.56581 0.83633 0.0
H1558 H 0.41357 0.5815 0.84701 0.0
H1559 H 0.33339 0.55197 0.879 0.0
H1560 H 0.37801 0.54811 0.96073 0.0
H1561 H 0.35685 0.56931 0.92001 0.0
H1562 H 0.42691 0.539 0.87035 0.0
H1563 H 0.44848 0.51835 0.91124 0.0
C1564 C 0.37719 0.58596 0.82056 0.0
C1565 C 0.34791 0.58154 0.81721 0.0
C1566 C 0.39087 0.57809 0.84502 0.0
C1567 C 0.3754 0.56573 0.86651 0.0
C1568 C 0.34588 0.56186 0.86311 0.0
C1569 C 0.33229 0.56965 0.83864 0.0
C1570 C 0.38909 0.54621 0.9412 0.0
C1571 C 0.41479 0.53127 0.9392 0.0
C1572 C 0.37686 0.55824 0.91781 0.0
C1573 C 0.38998 0.55556 0.89184 0.0
C1574 C 0.41629 0.54158 0.89004 0.0
C1575 C 0.42855 0.52954 0.91346 0.0
H1576 H 0.49754 0.2716 0.82381 0.0
H1577 H 0.45176 0.34167 0.79145 0.0
H1578 H 0.51195 0.29864 0.86402 0.0
H1579 H 0.46568 0.36891 0.83191 0.0
H1580 H 0.5239 0.416 0.89293 0.0
H1581 H 0.50737 0.38984 0.85298 0.0
H1582 H 0.49274 0.3195 0.90532 0.0
H1583 H 0.50974 0.34539 0.94504 0.0
C1584 C 0.49042 0.2928 0.82552 0.0
C1585 C 0.47355 0.30466 0.80481 0.0
C1586 C 0.49851 0.30828 0.84858 0.0
C1587 C 0.48991 0.33599 0.85132 0.0
C1588 C 0.47294 0.34775 0.83037 0.0
C1589 C 0.46481 0.33218 0.80731 0.0
C1590 C 0.51701 0.395 0.89593 0.0
C1591 C 0.51831 0.38277 0.9222 0.0
C1592 C 0.5074 0.38002 0.87302 0.0
C1593 C 0.49887 0.35246 0.87584 0.0
C1594 C 0.49961 0.3405 0.90225 0.0
C1595 C 0.50921 0.35543 0.9251 0.0
H1596 H 0.65165 0.4825 0.79747 0.0
H1597 H 0.66479 0.56731 0.81975 0.0
H1598 H 0.60548 0.48324 0.82132 0.0
H1599 H 0.61938 0.56824 0.84395 0.0
H1600 H 0.56575 0.48711 0.91103 0.0
H1601 H 0.59525 0.48383 0.86995 0.0
H1602 H 0.56857 0.56567 0.84591 0.0
H1603 H 0.53977 0.5693 0.88766 0.0
C1604 C 0.6441 0.50152 0.80672 0.0
C1605 C 0.6614 0.5249 0.80682 0.0
C1606 C 0.61788 0.50193 0.82055 0.0
C1607 C 0.60875 0.52573 0.83475 0.0
C1608 C 0.62537 0.54967 0.83294 0.0
C1609 C 0.65147 0.54919 0.81919 0.0
C1610 C 0.5655 0.5041 0.89659 0.0
C1611 C 0.55113 0.52877 0.90297 0.0
C1612 C 0.58234 0.50217 0.87286 0.0
C1613 C 0.58486 0.52478 0.85493 0.0
C1614 C 0.56771 0.54818 0.85969 0.0
C1615 C 0.55113 0.55022 0.88356 0.0
H1616 H 0.49148 0.34051 0.23259 0.0
H1617 H 0.51569 0.29211 0.16105 0.0
H1618 H 0.49233 0.38214 0.20401 0.0
H1619 H 0.51415 0.33315 0.13279 0.0
H1620 H 0.4799 0.41153 0.08824 0.0
H1621 H 0.46878 0.37656 0.12316 0.0
H1622 H 0.54369 0.39934 0.16923 0.0
H1623 H 0.55538 0.43349 0.13396 0.0
C1624 C 0.49668 0.33852 0.2109 0.0
C1625 C 0.50321 0.31256 0.19931 0.0
C1626 C 0.4968 0.36236 0.19455 0.0
C1627 C 0.50272 0.36061 0.16619 0.0
C1628 C 0.50882 0.33487 0.1545 0.0
C1629 C 0.50947 0.31126 0.17084 0.0
C1630 C 0.49337 0.4097 0.10632 0.0
C1631 C 0.51848 0.42511 0.10848 0.0
C1632 C 0.48709 0.38969 0.12619 0.0
C1633 C 0.50537 0.38547 0.14884 0.0
C1634 C 0.52914 0.40247 0.15211 0.0
C1635 C 0.53583 0.42191 0.13194 0.0
H1636 H 0.66776 0.52814 0.2154 0.0
H1637 H 0.71317 0.45986 0.17863 0.0
H1638 H 0.63015 0.52354 0.18139 0.0
H1639 H 0.67464 0.45393 0.14518 0.0
H1640 H 0.62371 0.48241 0.0676 0.0
H1641 H 0.6566 0.47402 0.10561 0.0
H1642 H 0.5917 0.50078 0.1635 0.0
H1643 H 0.55989 0.51108 0.12502 0.0
C1644 C 0.66926 0.51165 0.20037 0.0
C1645 C 0.69337 0.49445 0.19954 0.0
C1646 C 0.64753 0.50877 0.1809 0.0
C1647 C 0.64905 0.48823 0.16034 0.0
C1648 C 0.67281 0.47029 0.16029 0.0
C1649 C 0.69485 0.47355 0.17951 0.0
C1650 C 0.61632 0.48563 0.08856 0.0
C1651 C 0.5895 0.49754 0.09352 0.0
C1652 C 0.63516 0.48086 0.11047 0.0
C1653 C 0.62725 0.48745 0.13781 0.0
C1654 C 0.59907 0.49647 0.14275 0.0
C1655 C 0.5806 0.50197 0.12079 0.0
H1656 H 0.53883 0.72852 0.17812 0.0
H1657 H 0.58819 0.66152 0.21213 0.0
H1658 H 0.5252 0.69962 0.13909 0.0
H1659 H 0.57402 0.63202 0.17323 0.0
H1660 H 0.5549 0.59299 0.0868 0.0
H1661 H 0.57601 0.62344 0.12184 0.0
H1662 H 0.49342 0.66085 0.13574 0.0
H1663 H 0.4728 0.63147 0.10105 0.0
C1664 C 0.54698 0.70763 0.17702 0.0
C1665 C 0.56445 0.69713 0.19799 0.0
C1666 C 0.53907 0.69099 0.15477 0.0
C1667 C 0.54828 0.66336 0.15313 0.0
C1668 C 0.56673 0.65322 0.17373 0.0
C1669 C 0.57469 0.66999 0.19605 0.0
C1670 C 0.54145 0.60799 0.09712 0.0
C1671 C 0.51224 0.60995 0.09074 0.0
C1672 C 0.55346 0.62528 0.11733 0.0
C1673 C 0.53647 0.64488 0.13136 0.0
C1674 C 0.50734 0.64655 0.12495 0.0
C1675 C 0.49545 0.62944 0.10503 0.0
H1676 H 0.37421 0.5706 0.22902 0.0
H1677 H 0.36056 0.64245 0.17852 0.0
H1678 H 0.41267 0.55561 0.19843 0.0
H1679 H 0.39947 0.62792 0.14818 0.0
H1680 H 0.41115 0.55912 0.08073 0.0
H1681 H 0.39228 0.58849 0.11695 0.0
H1682 H 0.45836 0.55964 0.17218 0.0
H1683 H 0.47795 0.53083 0.13486 0.0
C1684 C 0.38054 0.58393 0.21224 0.0
C1685 C 0.36434 0.60746 0.20585 0.0
C1686 C 0.40255 0.57535 0.19465 0.0
C1687 C 0.4086 0.59027 0.17053 0.0
C1688 C 0.39488 0.61574 0.16634 0.0
C1689 C 0.37279 0.62419 0.18377 0.0
C1690 C 0.42261 0.56033 0.09999 0.0
C1691 C 0.44648 0.54355 0.10463 0.0
C1692 C 0.41169 0.57695 0.12097 0.0
C1693 C 0.42407 0.57673 0.14741 0.0
C1694 C 0.44848 0.56035 0.15198 0.0
C1695 C 0.4596 0.54387 0.13072 0.0
H1696 H 0.79112 0.48649 0.6995 0.0
H1697 H 0.80485 0.56749 0.73305 0.0
H1698 H 0.83893 0.4865 0.67962 0.0
H1699 H 0.85323 0.56757 0.71365 0.0
H1700 H 0.9155 0.56869 0.63709 0.0
H1701 H 0.87472 0.57039 0.6682 0.0
H1702 H 0.88916 0.48517 0.68962 0.0
H1703 H 0.9294 0.48324 0.65794 0.0
C1704 C 0.80468 0.50413 0.70288 0.0
C1705 C 0.79459 0.52701 0.71756 0.0
C1706 C 0.83215 0.50411 0.69175 0.0
C1707 C 0.85007 0.52701 0.69515 0.0
C1708 C 0.83996 0.54971 0.71048 0.0
C1709 C 0.81239 0.54968 0.72163 0.0
C1710 C 0.91049 0.55053 0.64902 0.0
C1711 C 0.92536 0.52567 0.64459 0.0
C1712 C 0.88706 0.5515 0.66691 0.0
C1713 C 0.87819 0.52769 0.68088 0.0
C1714 C 0.89489 0.50365 0.67855 0.0
C1715 C 0.91814 0.50262 0.66055 0.0
H1716 H 0.51986 0.78727 0.63481 0.0
H1717 H 0.5544 0.8172 0.7116 0.0
H1718 H 0.53029 0.83161 0.61287 0.0
H1719 H 0.56492 0.86138 0.68994 0.0
H1720 H 0.54742 0.94565 0.65192 0.0
H1721 H 0.53734 0.90079 0.6718 0.0
H1722 H 0.5712 0.86108 0.59888 0.0
H1723 H 0.58116 0.9061 0.57878 0.0
C1724 C 0.52992 0.80333 0.64683 0.0
C1725 C 0.53638 0.79911 0.67474 0.0
C1726 C 0.53593 0.82861 0.63434 0.0
C1727 C 0.54826 0.85007 0.64972 0.0
C1728 C 0.55504 0.84544 0.67764 0.0
C1729 C 0.5492 0.82016 0.69 0.0
C1730 C 0.55269 0.9274 0.64005 0.0
C1731 C 0.56523 0.9295 0.61379 0.0
C1732 C 0.54704 0.90166 0.65153 0.0
C1733 C 0.55366 0.87737 0.63701 0.0
C1734 C 0.56571 0.87943 0.61052 0.0
C1735 C 0.57153 0.90521 0.59907 0.0
H1736 H 0.26182 0.60418 0.67909 0.0
H1737 H 0.24222 0.52067 0.7017 0.0
H1738 H 0.2391 0.59706 0.63402 0.0
H1739 H 0.2191 0.5136 0.65749 0.0
H1740 H 0.17825 0.50172 0.57859 0.0
H1741 H 0.21912 0.51009 0.60842 0.0
H1742 H 0.18927 0.5933 0.62249 0.0
H1743 H 0.14911 0.58529 0.59203 0.0
C1744 C 0.25338 0.5841 0.67405 0.0
C1745 C 0.25338 0.56304 0.69382 0.0
C1746 C 0.24019 0.58006 0.64841 0.0
C1747 C 0.22695 0.55487 0.64221 0.0
C1748 C 0.22925 0.53318 0.66128 0.0
C1749 C 0.2423 0.53725 0.68677 0.0
C1750 C 0.18078 0.522 0.58753 0.0
C1751 C 0.15998 0.54259 0.58353 0.0
C1752 C 0.20419 0.52678 0.60468 0.0
C1753 C 0.20715 0.55215 0.61839 0.0
C1754 C 0.18779 0.57353 0.61227 0.0
C1755 C 0.16451 0.56882 0.59495 0.0
H1756 H 0.44143 0.14992 0.71891 0.0
H1757 H 0.49924 0.21253 0.69059 0.0
H1758 H 0.45222 0.12229 0.67802 0.0
H1759 H 0.51024 0.18492 0.64993 0.0
H1760 H 0.51446 0.13743 0.57041 0.0
H1761 H 0.49382 0.16623 0.607 0.0
H1762 H 0.49175 0.09556 0.66097 0.0
H1763 H 0.51141 0.06694 0.62401 0.0
C1764 C 0.45638 0.15783 0.70391 0.0
C1765 C 0.46953 0.18343 0.70812 0.0
C1766 C 0.4626 0.14197 0.68047 0.0
C1767 C 0.48221 0.15126 0.66064 0.0
C1768 C 0.49468 0.17725 0.66446 0.0
C1769 C 0.4884 0.19312 0.68786 0.0
C1770 C 0.50864 0.12804 0.58986 0.0
C1771 C 0.51364 0.0999 0.59425 0.0
C1772 C 0.49719 0.14453 0.61094 0.0
C1773 C 0.49109 0.13328 0.63705 0.0
C1774 C 0.49554 0.10488 0.64103 0.0
C1775 C 0.50668 0.08839 0.61984 0.0
H1776 H 0.79553 0.54677 0.31322 0.0
H1777 H 0.74999 0.48837 0.36308 0.0
H1778 H 0.83251 0.55003 0.3488 0.0
H1779 H 0.78658 0.49179 0.39901 0.0
H1780 H 0.87787 0.47676 0.43339 0.0
H1781 H 0.83616 0.47729 0.40363 0.0
H1782 H 0.84219 0.56561 0.39622 0.0
H1783 H 0.88441 0.56511 0.42577 0.0
C1784 C 0.79341 0.53489 0.33201 0.0
C1785 C 0.77026 0.51726 0.33563 0.0
C1786 C 0.81437 0.53687 0.35244 0.0
C1787 C 0.81248 0.52117 0.37676 0.0
C1788 C 0.78881 0.50393 0.38042 0.0
C1789 C 0.76787 0.50201 0.35998 0.0
C1790 C 0.87014 0.49638 0.42575 0.0
C1791 C 0.88472 0.52086 0.43172 0.0
C1792 C 0.84608 0.49669 0.40878 0.0
C1793 C 0.83601 0.52147 0.39733 0.0
C1794 C 0.84972 0.54614 0.40438 0.0
C1795 C 0.87378 0.54586 0.42149 0.0
H1796 H 0.50708 0.82747 0.28421 0.0
H1797 H 0.59076 0.80877 0.31635 0.0
H1798 H 0.49774 0.8577 0.32339 0.0
H1799 H 0.58145 0.83923 0.35604 0.0
H1800 H 0.56474 0.92809 0.39398 0.0
H1801 H 0.57552 0.89028 0.3622 0.0
H1802 H 0.49049 0.8588 0.37352 0.0
H1803 H 0.47958 0.89661 0.40494 0.0
C1804 C 0.52327 0.82949 0.30004 0.0
C1805 C 0.54961 0.81582 0.29732 0.0
C1806 C 0.51791 0.84672 0.32256 0.0
C1807 C 0.53886 0.85094 0.34287 0.0
C1808 C 0.56496 0.83654 0.34063 0.0
C1809 C 0.5702 0.81894 0.31813 0.0
C1810 C 0.54845 0.91292 0.38996 0.0
C1811 C 0.52115 0.91565 0.40174 0.0
C1812 C 0.55471 0.89113 0.37187 0.0
C1813 C 0.53377 0.87166 0.3651 0.0
C1814 C 0.50696 0.87368 0.37796 0.0
C1815 C 0.50074 0.89535 0.39606 0.0
H1816 H 0.24399 0.62901 0.33987 0.0
H1817 H 0.23375 0.56817 0.27585 0.0
H1818 H 0.1985 0.61538 0.36026 0.0
H1819 H 0.18791 0.55467 0.29577 0.0
H1820 H 0.1351 0.51376 0.36637 0.0
H1821 H 0.17318 0.53063 0.33714 0.0
H1822 H 0.14677 0.61432 0.35408 0.0
H1823 H 0.10878 0.59746 0.38384 0.0
C1824 C 0.2317 0.61294 0.33005 0.0
C1825 C 0.24214 0.59945 0.30655 0.0
C1826 C 0.20558 0.60527 0.3415 0.0
C1827 C 0.1895 0.58393 0.32962 0.0
C1828 C 0.19985 0.57098 0.30557 0.0
C1829 C 0.22598 0.5787 0.29414 0.0
C1830 C 0.13694 0.53576 0.36344 0.0
C1831 C 0.11914 0.55423 0.3779 0.0
C1832 C 0.15879 0.54546 0.34654 0.0
C1833 C 0.16336 0.57385 0.34365 0.0
C1834 C 0.14419 0.59232 0.35638 0.0
C1835 C 0.12225 0.58262 0.37326 0.0
H1836 H 0.55226 0.19265 0.3042 0.0
H1837 H 0.49645 0.24385 0.35329 0.0
H1838 H 0.54826 0.15558 0.33845 0.0
H1839 H 0.49257 0.20724 0.38763 0.0
H1840 H 0.46034 0.12386 0.41817 0.0
H1841 H 0.46961 0.16239 0.38799 0.0
H1842 H 0.55935 0.14186 0.38771 0.0
H1843 H 0.54998 0.1029 0.41848 0.0
C1844 C 0.53934 0.19595 0.32247 0.0
C1845 C 0.52447 0.22082 0.32621 0.0
C1846 C 0.53721 0.17489 0.34215 0.0
C1847 C 0.52 0.17839 0.36574 0.0
C1848 C 0.50571 0.20371 0.36956 0.0
C1849 C 0.50794 0.22469 0.34998 0.0
C1850 C 0.48217 0.12752 0.41193 0.0
C1851 C 0.5044 0.1099 0.42054 0.0
C1852 C 0.48748 0.14982 0.39468 0.0
C1853 C 0.51521 0.15524 0.38533 0.0
C1854 C 0.53768 0.13805 0.39432 0.0
C1855 C 0.53235 0.11575 0.41199 0.0
H1856 H 0.67983 0.79515 0.50585 0.0
H1857 H 0.74559 0.8354 0.4591 0.0
H1858 H 0.65078 0.8374 0.50465 0.0
H1859 H 0.7168 0.87751 0.45766 0.0
H1860 H 0.67198 0.95606 0.48361 0.0
H1861 H 0.69946 0.91368 0.48894 0.0
H1862 H 0.62424 0.86617 0.47096 0.0
H1863 H 0.59654 0.90865 0.46591 0.0
C1864 C 0.68795 0.8131 0.49532 0.0
C1865 C 0.7148 0.81232 0.48265 0.0
C1866 C 0.67137 0.83719 0.49453 0.0
C1867 C 0.68155 0.86087 0.48119 0.0
C1868 C 0.70853 0.85981 0.4685 0.0
C1869 C 0.72496 0.83572 0.46918 0.0
C1870 C 0.6612 0.9366 0.481 0.0
C1871 C 0.63209 0.93577 0.47414 0.0
C1872 C 0.67701 0.9123 0.4839 0.0
C1873 C 0.66412 0.88656 0.48009 0.0
C1874 C 0.63478 0.88567 0.47418 0.0
C1875 C 0.61893 0.91002 0.47119 0.0
H1876 H 0.65947 0.25483 0.52094 0.0
H1877 H 0.72394 0.19698 0.49412 0.0
H1878 H 0.62698 0.2168 0.53056 0.0
H1879 H 0.69155 0.15886 0.50338 0.0
H1880 H 0.63238 0.09321 0.52952 0.0
H1881 H 0.66358 0.13249 0.53816 0.0
H1882 H 0.60243 0.18602 0.498 0.0
H1883 H 0.57137 0.14695 0.48992 0.0
C1884 C 0.66672 0.23387 0.51752 0.0
C1885 C 0.69389 0.22857 0.50668 0.0
C1886 C 0.64822 0.21217 0.523 0.0
C1887 C 0.65668 0.18485 0.5177 0.0
C1888 C 0.68454 0.17963 0.50807 0.0
C1889 C 0.70299 0.20139 0.50253 0.0
C1890 C 0.6251 0.1136 0.52384 0.0
C1891 C 0.59944 0.1172 0.50935 0.0
C1892 C 0.64312 0.13599 0.52834 0.0
C1893 C 0.63557 0.16229 0.51853 0.0
C1894 C 0.60878 0.16612 0.50605 0.0
C1895 C 0.59099 0.14375 0.50134 0.0
H1896 H 0.81522 0.69183 0.45966 0.0
H1897 H 0.87673 0.73336 0.51139 0.0
H1898 H 0.8435 0.64936 0.4633 0.0
H1899 H 0.90546 0.69173 0.51313 0.0
H1900 H 0.96253 0.61938 0.49023 0.0
H1901 H 0.9328 0.65847 0.47541 0.0
H1902 H 0.85872 0.61959 0.51036 0.0
H1903 H 0.88861 0.58089 0.52569 0.0
C1904 C 0.83471 0.6921 0.47162 0.0
C1905 C 0.84366 0.71633 0.485 0.0
C1906 C 0.851 0.66785 0.47341 0.0
C1907 C 0.87683 0.66755 0.48805 0.0
C1908 C 0.88594 0.69166 0.50115 0.0
C1909 C 0.86944 0.7156 0.49996 0.0
C1910 C 0.93974 0.61885 0.49383 0.0
C1911 C 0.92765 0.59722 0.50878 0.0
C1912 C 0.92282 0.64119 0.48556 0.0
C1913 C 0.89353 0.6419 0.49176 0.0
C1914 C 0.88117 0.61933 0.50509 0.0
C1915 C 0.89821 0.5973 0.51387 0.0
H1916 H 0.31992 0.81293 0.53012 0.0
H1917 H 0.2793 0.86894 0.58752 0.0
H1918 H 0.36101 0.84367 0.52728 0.0
H1919 H 0.32 0.89954 0.58453 0.0
H1920 H 0.37659 0.96321 0.5458 0.0
H1921 H 0.33869 0.92944 0.54737 0.0
H1922 H 0.40115 0.8642 0.55546 0.0
H1923 H 0.43942 0.89814 0.55367 0.0
C1924 C 0.31998 0.83154 0.54245 0.0
C1925 C 0.29624 0.83871 0.55878 0.0
C1926 C 0.34343 0.84915 0.54075 0.0
C1927 C 0.34345 0.87423 0.55529 0.0
C1928 C 0.32028 0.88069 0.57255 0.0
C1929 C 0.297 0.86313 0.57431 0.0
C1930 C 0.38236 0.94168 0.54769 0.0
C1931 C 0.41104 0.93341 0.54988 0.0
C1932 C 0.3606 0.92233 0.54877 0.0
C1933 C 0.36695 0.89422 0.552 0.0
C1934 C 0.39565 0.88573 0.55297 0.0
C1935 C 0.41752 0.90517 0.55199 0.0
H1936 H 0.2397 0.33901 0.53105 0.0
H1937 H 0.1938 0.29116 0.47091 0.0
H1938 H 0.2049 0.37647 0.52628 0.0
H1939 H 0.15849 0.32838 0.46628 0.0
H1940 H 0.12875 0.41513 0.43832 0.0
H1941 H 0.1579 0.37434 0.44663 0.0
H1942 H 0.15565 0.39072 0.5343 0.0
H1943 H 0.12679 0.4319 0.52596 0.0
C1944 C 0.22179 0.33644 0.51715 0.0
C1945 C 0.21921 0.31245 0.50132 0.0
C1946 C 0.20179 0.35778 0.51448 0.0
C1947 C 0.1789 0.3555 0.49582 0.0
C1948 C 0.17604 0.33096 0.48057 0.0
C1949 C 0.19607 0.30961 0.4833 0.0
C1950 C 0.13427 0.40996 0.45941 0.0
C1951 C 0.12562 0.42696 0.48144 0.0
C1952 C 0.15084 0.38642 0.4642 0.0
C1953 C 0.15923 0.37926 0.49113 0.0
C1954 C 0.1499 0.39584 0.51326 0.0
C1955 C 0.13324 0.41939 0.50848 0.0
H1956 H 0.29706 0.15957 0.46115 0.0
H1957 H 0.33519 0.2027 0.52952 0.0
H1958 H 0.33937 0.1302 0.45729 0.0
H1959 H 0.37676 0.17258 0.52699 0.0
H1960 H 0.45499 0.12469 0.51449 0.0
H1961 H 0.41784 0.1587 0.50497 0.0
H1962 H 0.36164 0.0934 0.47879 0.0
H1963 H 0.39974 0.0599 0.48664 0.0
C1964 C 0.31459 0.16268 0.47536 0.0
C1965 C 0.31293 0.18331 0.49566 0.0
C1966 C 0.3388 0.14577 0.47329 0.0
C1967 C 0.3617 0.14876 0.49185 0.0
C1968 C 0.36005 0.16988 0.51184 0.0
C1969 C 0.33609 0.1871 0.51352 0.0
C1970 C 0.43495 0.11789 0.50576 0.0
C1971 C 0.43013 0.08983 0.50114 0.0
C1972 C 0.41345 0.13727 0.50072 0.0
C1973 C 0.38626 0.12891 0.49183 0.0
C1974 C 0.38221 0.10085 0.48544 0.0
C1975 C 0.40406 0.08154 0.48986 0.0
H1976 H 0.8428 0.3215 0.44821 0.0
H1977 H 0.79013 0.3419 0.5186 0.0
H1978 H 0.87346 0.3607 0.45858 0.0
H1979 H 0.82043 0.38122 0.52863 0.0
H1980 H 0.9061 0.4132 0.56176 0.0
H1981 H 0.87123 0.37993 0.54603 0.0
H1982 H 0.87564 0.41333 0.46361 0.0
H1983 H 0.91079 0.44693 0.47935 0.0
C1984 C 0.83744 0.33474 0.4655 0.0
C1985 C 0.81424 0.32856 0.48273 0.0
C1986 C 0.85487 0.3572 0.47133 0.0
C1987 C 0.84948 0.37368 0.49461 0.0
C1988 C 0.82522 0.36857 0.51075 0.0
C1989 C 0.80772 0.34626 0.50483 0.0
C1990 C 0.89974 0.4135 0.54026 0.0
C1991 C 0.91118 0.43273 0.52181 0.0
C1992 C 0.87955 0.3946 0.53133 0.0
C1993 C 0.87049 0.39434 0.5037 0.0
C1994 C 0.88225 0.41319 0.48504 0.0
C1995 C 0.90232 0.43237 0.49406 0.0
H1996 H 0.18502 0.73333 0.51668 0.0
H1997 H 0.21258 0.68676 0.58758 0.0
H1998 H 0.14792 0.69947 0.50744 0.0
H1999 H 0.17504 0.65298 0.57897 0.0
H2000 H 0.13473 0.58221 0.52683 0.0
H2001 H 0.16618 0.61768 0.54487 0.0
H2002 H 0.10376 0.6799 0.52308 0.0
H2003 H 0.07243 0.64401 0.50502 0.0
C2004 C 0.18272 0.71597 0.53049 0.0
C2005 C 0.20141 0.71237 0.55272 0.0
C2006 C 0.16139 0.69669 0.52539 0.0
C2007 C 0.15844 0.67348 0.5425 0.0
C2008 C 0.17689 0.67044 0.56524 0.0
C2009 C 0.19825 0.68976 0.57028 0.0
C2010 C 0.12727 0.60334 0.52717 0.0
C2011 C 0.1009 0.61042 0.51549 0.0
C2012 C 0.14537 0.62375 0.53721 0.0
C2013 C 0.13754 0.6517 0.5354 0.0
C2014 C 0.11058 0.65861 0.52452 0.0
C2015 C 0.09253 0.63814 0.51444 0.0
loop_
_geom_bond_atom_site_label_1
_geom_bond_atom_site_label_2
_geom_bond_distance
_geom_bond_site_symmetry_2
_ccdc_geom_bond_type
H0 C3 0.929 . S
H1 C6 0.929 . S
H2 C8 0.930 . S
C3 H0 0.929 . S
C3 C4 1.398 . S
C3 C5 1.396 . S
C4 C3 1.398 . S
C4 C8 1.407 . S
C5 C3 1.396 . S
C5 C6 1.394 . S
C6 H1 0.929 . S
C6 C5 1.394 . S
C6 C7 1.382 . S
C7 C6 1.382 . S
C7 C8 1.392 . S
C7 N9 1.420 . S
C8 H2 0.930 . S
C8 C4 1.407 . S
C8 C7 1.392 . S
N9 C7 1.420 . S
N9 C10 1.244 . S
C10 N9 1.244 . S
H11 C14 0.929 . S
H12 C17 0.929 . S
H13 C19 0.930 . S
C14 H11 0.929 . S
C14 C15 1.398 . S
C14 C16 1.396 . S
C15 C14 1.398 . S
C15 C19 1.407 . S
C16 C14 1.396 . S
C16 C17 1.394 . S
C17 H12 0.929 . S
C17 C16 1.394 . S
C17 C18 1.382 . S
C18 C17 1.382 . S
C18 C19 1.392 . S
C18 N20 1.420 . S
C19 H13 0.930 . S
C19 C15 1.407 . S
C19 C18 1.392 . S
N20 C18 1.420 . S
N20 C21 1.244 . S
C21 N20 1.244 . S
H22 C25 0.929 . S
H23 C28 0.929 . S
H24 C30 0.930 . S
C25 H22 0.929 . S
C25 C26 1.398 . S
C25 C27 1.396 . S
C26 C25 1.398 . S
C26 C30 1.407 . S
C27 C25 1.396 . S
C27 C28 1.394 . S
C28 H23 0.929 . S
C28 C27 1.394 . S
C28 C29 1.382 . S
C29 C28 1.382 . S
C29 C30 1.392 . S
C29 N31 1.420 . S
C30 H24 0.930 . S
C30 C26 1.407 . S
C30 C29 1.392 . S
N31 C29 1.420 . S
N31 C32 1.244 . S
C32 N31 1.244 . S
H33 C36 0.929 . S
H34 C39 0.929 . S
H35 C41 0.930 . S
C36 H33 0.929 . S
C36 C37 1.402 . S
C36 C38 1.396 . S
C37 C36 1.402 . S
C37 C41 1.401 1_545 S
C38 C36 1.396 . S
C38 C39 1.394 1_545 S
C39 H34 0.929 . S
C39 C38 1.394 1_565 S
C39 C40 1.382 . S
C40 C39 1.382 . S
C40 C41 1.392 . S
C40 N42 1.420 . S
C41 H35 0.930 . S
C41 C37 1.401 1_565 S
C41 C40 1.392 . S
N42 C40 1.420 . S
N42 C43 1.244 1_565 S
C43 N42 1.244 1_545 S
H44 C47 0.935 . S
H45 C50 0.929 . S
H46 C52 0.930 . S
C47 H44 0.935 . S
C47 C48 1.395 1_655 S
C47 C49 1.394 1_655 S
C48 C47 1.395 1_455 S
C48 C52 1.407 . S
C49 C47 1.394 1_455 S
C49 C50 1.394 . S
C50 H45 0.929 . S
C50 C49 1.394 . S
C50 C51 1.382 . S
C51 C50 1.382 . S
C51 C52 1.392 . S
C51 N53 1.420 . S
C52 H46 0.930 . S
C52 C48 1.407 . S
C52 C51 1.392 . S
N53 C51 1.420 . S
N53 C54 1.244 1_455 S
C54 N53 1.244 1_655 S
H55 C58 0.930 . S
H56 C61 0.929 . S
H57 C63 0.930 . S
C58 H55 0.930 . S
C58 C59 1.398 . S
C58 C60 1.396 . S
C59 C58 1.398 . S
C59 C63 1.407 . S
C60 C58 1.396 . S
C60 C61 1.394 . S
C61 H56 0.929 . S
C61 C60 1.394 . S
C61 C62 1.382 . S
C62 C61 1.382 . S
C62 C63 1.392 . S
C62 N64 1.420 . S
C63 H57 0.930 . S
C63 C59 1.407 . S
C63 C62 1.392 . S
N64 C62 1.420 . S
N64 C65 1.244 . S
C65 N64 1.244 . S
H66 C69 0.929 . S
H67 C72 0.929 . S
H68 C74 0.930 . S
C69 H66 0.929 . S
C69 C70 1.398 . S
C69 C71 1.396 . S
C70 C69 1.398 . S
C70 C74 1.407 . S
C71 C69 1.396 . S
C71 C72 1.394 . S
C72 H67 0.929 . S
C72 C71 1.394 . S
C72 C73 1.382 . S
C73 C72 1.382 . S
C73 C74 1.392 . S
C73 N75 1.420 . S
C74 H68 0.930 . S
C74 C70 1.407 . S
C74 C73 1.392 . S
N75 C73 1.420 . S
N75 C76 1.244 . S
C76 N75 1.244 . S
H77 C80 0.929 . S
H78 C83 0.929 . S
H79 C85 0.930 . S
C80 H77 0.929 . S
C80 C81 1.398 . S
C80 C82 1.396 . S
C81 C80 1.398 . S
C81 C85 1.407 . S
C82 C80 1.396 . S
C82 C83 1.394 . S
C83 H78 0.929 . S
C83 C82 1.394 . S
C83 C84 1.382 . S
C84 C83 1.382 . S
C84 C85 1.392 . S
C84 N86 1.420 . S
C85 H79 0.930 . S
C85 C81 1.407 . S
C85 C84 1.392 . S
N86 C84 1.420 . S
N86 C87 1.244 . S
C87 N86 1.244 . S
H88 C91 0.929 . S
H89 C94 0.929 . S
H90 C96 0.930 . S
C91 H88 0.929 . S
C91 C92 1.398 . S
C91 C93 1.396 . S
C92 C91 1.398 . S
C92 C96 1.407 . S
C93 C91 1.396 . S
C93 C94 1.394 . S
C94 H89 0.929 . S
C94 C93 1.394 . S
C94 C95 1.382 . S
C95 C94 1.382 . S
C95 C96 1.392 . S
C95 N97 1.420 . S
C96 H90 0.930 . S
C96 C92 1.407 . S
C96 C95 1.392 . S
N97 C95 1.420 . S
N97 C98 1.244 . S
C98 N97 1.244 . S
H99 C102 0.929 . S
H100 C105 0.929 . S
H101 C107 0.930 . S
C102 H99 0.929 . S
C102 C103 1.398 . S
C102 C104 1.396 . S
C103 C102 1.398 . S
C103 C107 1.407 . S
C104 C102 1.396 . S
C104 C105 1.394 . S
C105 H100 0.929 . S
C105 C104 1.394 . S
C105 C106 1.382 . S
C106 C105 1.382 . S
C106 C107 1.392 . S
C106 N108 1.420 . S
C107 H101 0.930 . S
C107 C103 1.407 . S
C107 C106 1.392 . S
N108 C106 1.420 . S
N108 C109 1.244 . S
C109 N108 1.244 . S
H110 C113 0.929 . S
H111 C116 0.929 . S
H112 C118 0.930 . S
C113 H110 0.929 . S
C113 C114 1.394 1_554 S
C113 C115 1.396 1_554 S
C114 C113 1.394 1_556 S
C114 C118 1.416 . S
C115 C113 1.396 1_556 S
C115 C116 1.394 . S
C116 H111 0.929 . S
C116 C115 1.394 . S
C116 C117 1.382 . S
C117 C116 1.382 . S
C117 C118 1.392 . S
C117 N119 1.420 . S
C118 H112 0.930 . S
C118 C114 1.416 . S
C118 C117 1.392 . S
N119 C117 1.420 . S
N119 C120 1.244 1_556 S
C120 N119 1.244 1_554 S
H121 C124 0.938 . S
H122 C127 0.929 . S
H123 C129 0.930 . S
C124 H121 0.938 . S
C124 C125 1.395 1_556 S
C124 C126 1.392 1_556 S
C125 C124 1.395 1_554 S
C125 C129 1.407 . S
C126 C124 1.392 1_554 S
C126 C127 1.394 . S
C127 H122 0.929 . S
C127 C126 1.394 . S
C127 C128 1.382 . S
C128 C127 1.382 . S
C128 C129 1.392 . S
C128 N130 1.420 . S
C129 H123 0.930 . S
C129 C125 1.407 . S
C129 C128 1.392 . S
N130 C128 1.420 . S
N130 C131 1.244 . S
C131 N130 1.244 . S
H132 C135 0.929 . S
H133 C138 0.929 . S
H134 C140 0.930 . S
C135 H132 0.929 . S
C135 C136 1.398 . S
C135 C137 1.396 . S
C136 C135 1.398 . S
C136 C140 1.407 . S
C137 C135 1.396 . S
C137 C138 1.394 . S
C138 H133 0.929 . S
C138 C137 1.394 . S
C138 C139 1.382 . S
C139 C138 1.382 . S
C139 C140 1.392 . S
C139 N141 1.420 . S
C140 H134 0.930 . S
C140 C136 1.407 . S
C140 C139 1.392 . S
N141 C139 1.420 . S
N141 C142 1.244 . S
C142 N141 1.244 . S
H143 C146 0.929 . S
H144 C149 0.929 . S
H145 C151 0.930 . S
C146 H143 0.929 . S
C146 C147 1.398 . S
C146 C148 1.396 . S
C147 C146 1.398 . S
C147 C151 1.407 . S
C148 C146 1.396 . S
C148 C149 1.394 . S
C149 H144 0.929 . S
C149 C148 1.394 . S
C149 C150 1.382 . S
C150 C149 1.382 . S
C150 C151 1.392 . S
C150 N152 1.420 . S
C151 H145 0.930 . S
C151 C147 1.407 . S
C151 C150 1.392 . S
N152 C150 1.420 . S
N152 C153 1.244 . S
C153 N152 1.244 . S
H154 C157 0.929 . S
H155 C160 0.929 . S
H156 C162 0.930 . S
C157 H154 0.929 . S
C157 C158 1.398 . S
C157 C159 1.396 . S
C158 C157 1.398 . S
C158 C162 1.407 . S
C159 C157 1.396 . S
C159 C160 1.394 . S
C160 H155 0.929 . S
C160 C159 1.394 . S
C160 C161 1.382 . S
C161 C160 1.382 . S
C161 C162 1.392 . S
C161 N163 1.420 . S
C162 H156 0.930 . S
C162 C158 1.407 . S
C162 C161 1.392 . S
N163 C161 1.420 . S
N163 C164 1.244 . S
C164 N163 1.244 . S
H165 C168 0.929 . S
H166 C171 0.929 . S
H167 C173 0.930 . S
C168 H165 0.929 . S
C168 C169 1.398 . S
C168 C170 1.396 . S
C169 C168 1.398 . S
C169 C173 1.407 . S
C170 C168 1.396 . S
C170 C171 1.394 . S
C171 H166 0.929 . S
C171 C170 1.394 . S
C171 C172 1.382 . S
C172 C171 1.382 . S
C172 C173 1.392 . S
C172 N174 1.420 . S
C173 H167 0.930 . S
C173 C169 1.407 . S
C173 C172 1.392 . S
N174 C172 1.420 . S
N174 C175 1.244 . S
C175 N174 1.244 . S
H176 C179 0.929 . S
H177 C182 0.929 . S
H178 C184 0.930 . S
C179 H176 0.929 . S
C179 C180 1.398 . S
C179 C181 1.396 . S
C180 C179 1.398 . S
C180 C184 1.407 . S
C181 C179 1.396 . S
C181 C182 1.394 . S
C182 H177 0.929 . S
C182 C181 1.394 . S
C182 C183 1.382 . S
C183 C182 1.382 . S
C183 C184 1.392 . S
C183 N185 1.420 . S
C184 H178 0.930 . S
C184 C180 1.407 . S
C184 C183 1.392 . S
N185 C183 1.420 . S
N185 C186 1.244 . S
C186 N185 1.244 . S
H187 C190 0.929 . S
H188 C193 0.929 . S
H189 C195 0.930 . S
C190 H187 0.929 . S
C190 C191 1.398 . S
C190 C192 1.396 . S
C191 C190 1.398 . S
C191 C195 1.407 . S
C192 C190 1.396 . S
C192 C193 1.394 . S
C193 H188 0.929 . S
C193 C192 1.394 . S
C193 C194 1.382 . S
C194 C193 1.382 . S
C194 C195 1.392 . S
C194 N196 1.420 . S
C195 H189 0.930 . S
C195 C191 1.407 . S
C195 C194 1.392 . S
N196 C194 1.420 . S
N196 C197 1.244 . S
C197 N196 1.244 . S
H198 C201 0.929 . S
H199 C204 0.929 . S
H200 C206 0.930 . S
C201 H198 0.929 . S
C201 C202 1.398 . S
C201 C203 1.396 . S
C202 C201 1.398 . S
C202 C206 1.407 . S
C203 C201 1.396 . S
C203 C204 1.394 . S
C204 H199 0.929 . S
C204 C203 1.394 . S
C204 C205 1.382 . S
C205 C204 1.382 . S
C205 C206 1.392 . S
C205 N207 1.420 . S
C206 H200 0.930 . S
C206 C202 1.407 . S
C206 C205 1.392 . S
N207 C205 1.420 . S
N207 C208 1.244 . S
C208 N207 1.244 . S
H209 C212 0.929 . S
H210 C215 0.929 . S
H211 C217 0.930 . S
C212 H209 0.929 . S
C212 C213 1.398 . S
C212 C214 1.396 . S
C213 C212 1.398 . S
C213 C217 1.407 . S
C214 C212 1.396 . S
C214 C215 1.394 . S
C215 H210 0.929 . S
C215 C214 1.394 . S
C215 C216 1.382 . S
C216 C215 1.382 . S
C216 C217 1.392 . S
C216 N218 1.420 . S
C217 H211 0.930 . S
C217 C213 1.407 . S
C217 C216 1.392 . S
N218 C216 1.420 . S
N218 C219 1.244 . S
C219 N218 1.244 . S
H220 C223 0.929 . S
H221 C226 0.929 . S
H222 C228 0.930 . S
C223 H220 0.929 . S
C223 C224 1.398 . S
C223 C225 1.396 . S
C224 C223 1.398 . S
C224 C228 1.407 . S
C225 C223 1.396 . S
C225 C226 1.394 . S
C226 H221 0.929 . S
C226 C225 1.394 . S
C226 C227 1.382 . S
C227 C226 1.382 . S
C227 C228 1.392 . S
C227 N229 1.420 . S
C228 H222 0.930 . S
C228 C224 1.407 . S
C228 C227 1.392 . S
N229 C227 1.420 . S
N229 C230 1.244 . S
C230 N229 1.244 . S
H231 C234 0.929 . S
H232 C237 0.929 . S
H233 C239 0.930 . S
C234 H231 0.929 . S
C234 C235 1.398 . S
C234 C236 1.396 . S
C235 C234 1.398 . S
C235 C239 1.407 . S
C236 C234 1.396 . S
C236 C237 1.394 . S
C237 H232 0.929 . S
C237 C236 1.394 . S
C237 C238 1.382 . S
C238 C237 1.382 . S
C238 C239 1.392 . S
C238 N240 1.420 . S
C239 H233 0.930 . S
C239 C235 1.407 . S
C239 C238 1.392 . S
N240 C238 1.420 . S
N240 C241 1.244 . S
C241 N240 1.244 . S
H242 C245 0.929 . S
H243 C248 0.929 . S
H244 C250 0.930 . S
C245 H242 0.929 . S
C245 C246 1.398 . S
C245 C247 1.396 . S
C246 C245 1.398 . S
C246 C250 1.407 . S
C247 C245 1.396 . S
C247 C248 1.394 . S
C248 H243 0.929 . S
C248 C247 1.394 . S
C248 C249 1.382 . S
C249 C248 1.382 . S
C249 C250 1.392 . S
C249 N251 1.420 . S
C250 H244 0.930 . S
C250 C246 1.407 . S
C250 C249 1.392 . S
N251 C249 1.420 . S
N251 C252 1.244 . S
C252 N251 1.244 . S
H253 C256 0.929 . S
H254 C259 0.929 . S
H255 C261 0.930 . S
C256 H253 0.929 . S
C256 C257 1.398 . S
C256 C258 1.396 . S
C257 C256 1.398 . S
C257 C261 1.407 . S
C258 C256 1.396 . S
C258 C259 1.394 . S
C259 H254 0.929 . S
C259 C258 1.394 . S
C259 C260 1.382 . S
C260 C259 1.382 . S
C260 C261 1.392 . S
C260 N262 1.420 . S
C261 H255 0.930 . S
C261 C257 1.407 . S
C261 C260 1.392 . S
N262 C260 1.420 . S
N262 C263 1.244 . S
C263 N262 1.244 . S
Zn264 O266 1.933 1_665 S
Zn264 O284 1.985 . S
Zn264 O295 1.955 1_655 S
Zn265 O266 1.911 1_655 S
Zn265 O285 1.970 . S
Zn265 O301 1.945 1_655 S
Zn265 O308 1.981 . S
O266 Zn264 1.933 1_445 S
O266 Zn265 1.911 1_455 S
O266 H267 0.841 . S
H267 O266 0.841 . S
C268 O269 1.246 . S
C268 O297 1.276 . S
O269 C268 1.246 . S
Zn270 O272 1.911 . S
Zn270 O287 1.970 . S
Zn270 O304 1.945 . S
Zn270 O311 1.981 . S
Zn271 O272 1.933 1_565 S
Zn271 O286 1.985 . S
Zn271 O293 1.955 . S
O272 Zn270 1.911 . S
O272 Zn271 1.933 1_545 S
O272 H273 0.841 . S
H273 O272 0.841 . S
Zn274 O275 1.933 1_565 S
Zn274 O288 1.985 . S
Zn274 O297 1.955 . S
O275 Zn274 1.933 1_545 S
O275 Zn276 1.911 . S
O275 H277 0.841 . S
Zn276 O275 1.911 . S
Zn276 O289 1.970 . S
Zn276 O305 1.981 1_655 S
Zn276 O307 1.945 . S
H277 O275 0.841 . S
Zn278 O279 1.933 1_565 S
Zn278 O291 1.985 . S
Zn278 O299 1.955 . S
O279 Zn278 1.933 1_545 S
O279 H280 0.841 . S
O279 Zn281 1.911 . S
H280 O279 0.841 . S
Zn281 O279 1.911 . S
Zn281 O292 1.970 . S
Zn281 O302 1.981 . S
Zn281 O310 1.945 . S
C282 O283 1.246 . S
C282 O299 1.276 . S
O283 C282 1.246 . S
O284 Zn264 1.985 . S
O284 C294 1.245 1_565 S
O285 Zn265 1.970 . S
O285 C294 1.263 . S
O286 Zn271 1.985 . S
O286 C298 1.245 1_565 S
O287 Zn270 1.970 . S
O287 C298 1.263 . S
O288 Zn274 1.985 . S
O288 C303 1.245 1_565 S
O289 Zn276 1.970 . S
O289 C303 1.263 . S
C290 O301 1.262 . S
C290 O302 1.245 . S
O291 Zn278 1.985 . S
O291 C309 1.245 1_565 S
O292 Zn281 1.970 . S
O292 C309 1.263 . S
O293 Zn271 1.955 . S
O293 C312 1.276 . S
C294 O284 1.245 1_545 S
C294 O285 1.263 . S
O295 Zn264 1.955 1_455 S
O295 C314 1.276 . S
C296 O304 1.262 . S
C296 O305 1.245 . S
O297 C268 1.276 . S
O297 Zn274 1.955 . S
C298 O286 1.245 1_545 S
C298 O287 1.263 . S
O299 Zn278 1.955 . S
O299 C282 1.276 . S
C300 O307 1.262 . S
C300 O308 1.245 . S
O301 Zn265 1.945 1_455 S
O301 C290 1.262 . S
O302 Zn281 1.981 . S
O302 C290 1.245 . S
C303 O288 1.245 1_545 S
C303 O289 1.263 . S
O304 Zn270 1.945 . S
O304 C296 1.262 . S
O305 Zn276 1.981 1_455 S
O305 C296 1.245 . S
C306 O310 1.262 . S
C306 O311 1.245 . S
O307 Zn276 1.945 . S
O307 C300 1.262 . S
O308 Zn265 1.981 . S
O308 C300 1.245 . S
C309 O291 1.245 1_545 S
C309 O292 1.263 . S
O310 Zn281 1.945 . S
O310 C306 1.262 . S
O311 Zn270 1.981 . S
O311 C306 1.245 . S
C312 O293 1.276 . S
C312 O313 1.246 . S
O313 C312 1.246 . S
C314 O295 1.276 . S
C314 O315 1.246 . S
O315 C314 1.246 . S
Zn316 O318 1.933 . S
Zn316 O336 1.985 . S
Zn316 O347 1.955 . S
Zn317 O318 1.911 1_556 S
Zn317 O337 1.970 . S
Zn317 O353 1.945 . S
Zn317 O360 1.981 . S
O318 Zn316 1.933 . S
O318 Zn317 1.911 1_554 S
O318 H319 0.841 . S
H319 O318 0.841 . S
C320 O321 1.246 . S
C320 O349 1.276 . S
O321 C320 1.246 . S
Zn322 O324 1.911 1_556 S
Zn322 O339 1.970 . S
Zn322 O356 1.945 . S
Zn322 O363 1.981 . S
Zn323 O324 1.933 . S
Zn323 O338 1.985 . S
Zn323 O345 1.955 . S
O324 Zn322 1.911 1_554 S
O324 Zn323 1.933 . S
O324 H325 0.841 1_565 S
H325 O324 0.841 1_545 S
Zn326 O327 1.933 . S
Zn326 O340 1.985 . S
Zn326 O349 1.955 . S
O327 Zn326 1.933 . S
O327 Zn328 1.911 1_554 S
O327 H329 0.841 . S
Zn328 O327 1.911 1_556 S
Zn328 O341 1.970 . S
Zn328 O357 1.981 . S
Zn328 O359 1.945 . S
H329 O327 0.841 . S
Zn330 O331 1.933 . S
Zn330 O343 1.985 . S
Zn330 O351 1.955 . S
O331 Zn330 1.933 . S
O331 H332 0.841 . S
O331 Zn333 1.911 1_554 S
H332 O331 0.841 . S
Zn333 O331 1.911 1_556 S
Zn333 O344 1.970 . S
Zn333 O354 1.981 1_565 S
Zn333 O362 1.945 . S
C334 O335 1.246 . S
C334 O351 1.276 . S
O335 C334 1.246 . S
O336 Zn316 1.985 . S
O336 C346 1.245 . S
O337 Zn317 1.970 . S
O337 C346 1.263 1_556 S
O338 Zn323 1.985 . S
O338 C350 1.245 . S
O339 Zn322 1.970 . S
O339 C350 1.263 1_556 S
O340 Zn326 1.985 . S
O340 C355 1.245 . S
O341 Zn328 1.970 . S
O341 C355 1.263 1_556 S
C342 O353 1.262 . S
C342 O354 1.245 . S
O343 Zn330 1.985 . S
O343 C361 1.245 . S
O344 Zn333 1.970 . S
O344 C361 1.263 1_556 S
O345 Zn323 1.955 . S
O345 C364 1.276 1_565 S
C346 O336 1.245 . S
C346 O337 1.263 1_554 S
O347 Zn316 1.955 . S
O347 C366 1.276 . S
C348 O356 1.262 1_545 S
C348 O357 1.245 . S
O349 C320 1.276 . S
O349 Zn326 1.955 . S
C350 O338 1.245 . S
C350 O339 1.263 1_554 S
O351 Zn330 1.955 . S
O351 C334 1.276 . S
C352 O359 1.262 . S
C352 O360 1.245 . S
O353 Zn317 1.945 . S
O353 C342 1.262 . S
O354 Zn333 1.981 1_545 S
O354 C342 1.245 . S
C355 O340 1.245 . S
C355 O341 1.263 1_554 S
O356 Zn322 1.945 . S
O356 C348 1.262 1_565 S
O357 Zn328 1.981 . S
O357 C348 1.245 . S
C358 O362 1.262 . S
C358 O363 1.245 . S
O359 Zn328 1.945 . S
O359 C352 1.262 . S
O360 Zn317 1.981 . S
O360 C352 1.245 . S
C361 O343 1.245 . S
C361 O344 1.263 1_554 S
O362 Zn333 1.945 . S
O362 C358 1.262 . S
O363 Zn322 1.981 . S
O363 C358 1.245 . S
C364 O345 1.276 1_545 S
C364 O365 1.246 . S
O365 C364 1.246 . S
C366 O347 1.276 . S
C366 O367 1.246 . S
O367 C366 1.246 . S
Zn368 O370 1.933 . S
Zn368 O388 1.985 . S
Zn368 O399 1.955 . S
Zn369 O370 1.911 . S
Zn369 O389 1.970 . S
Zn369 O405 1.945 . S
Zn369 O412 1.981 . S
O370 Zn368 1.933 . S
O370 Zn369 1.911 . S
O370 H371 0.841 1_655 S
H371 O370 0.841 1_455 S
C372 O373 1.246 1_554 S
C372 O401 1.276 . S
O373 C372 1.246 1_556 S
Zn374 O376 1.911 . S
Zn374 O391 1.970 . S
Zn374 O408 1.945 . S
Zn374 O415 1.981 . S
Zn375 O376 1.933 . S
Zn375 O390 1.985 . S
Zn375 O397 1.955 . S
O376 Zn374 1.911 . S
O376 Zn375 1.933 . S
O376 H377 0.841 . S
H377 O376 0.841 . S
Zn378 O379 1.933 . S
Zn378 O392 1.985 . S
Zn378 O401 1.955 . S
O379 Zn378 1.933 . S
O379 Zn380 1.911 . S
O379 H381 0.841 . S
Zn380 O379 1.911 . S
Zn380 O393 1.970 . S
Zn380 O409 1.981 . S
Zn380 O411 1.945 . S
H381 O379 0.841 . S
Zn382 O383 1.933 . S
Zn382 O395 1.985 . S
Zn382 O403 1.955 . S
O383 Zn382 1.933 . S
O383 H384 0.841 . S
O383 Zn385 1.911 . S
H384 O383 0.841 . S
Zn385 O383 1.911 . S
Zn385 O396 1.970 . S
Zn385 O406 1.981 . S
Zn385 O414 1.945 . S
C386 O387 1.246 . S
C386 O403 1.276 1_554 S
O387 C386 1.246 . S
O388 Zn368 1.985 . S
O388 C398 1.245 . S
O389 Zn369 1.970 . S
O389 C398 1.263 . S
O390 Zn375 1.985 . S
O390 C402 1.245 . S
O391 Zn374 1.970 . S
O391 C402 1.263 . S
O392 Zn378 1.985 . S
O392 C407 1.245 . S
O393 Zn380 1.970 . S
O393 C407 1.263 . S
C394 O405 1.262 1_455 S
C394 O406 1.245 . S
O395 Zn382 1.985 . S
O395 C413 1.245 . S
O396 Zn385 1.970 . S
O396 C413 1.263 . S
O397 Zn375 1.955 . S
O397 C416 1.276 . S
C398 O388 1.245 . S
C398 O389 1.263 . S
O399 Zn368 1.955 . S
O399 C418 1.276 1_655 S
C400 O408 1.262 . S
C400 O409 1.245 1_455 S
O401 C372 1.276 . S
O401 Zn378 1.955 . S
C402 O390 1.245 . S
C402 O391 1.263 . S
O403 Zn382 1.955 . S
O403 C386 1.276 1_556 S
C404 O411 1.262 . S
C404 O412 1.245 1_554 S
O405 Zn369 1.945 . S
O405 C394 1.262 1_655 S
O406 Zn385 1.981 . S
O406 C394 1.245 . S
C407 O392 1.245 . S
C407 O393 1.263 . S
O408 Zn374 1.945 . S
O408 C400 1.262 . S
O409 Zn380 1.981 . S
O409 C400 1.245 1_655 S
C410 O414 1.262 1_554 S
C410 O415 1.245 . S
O411 Zn380 1.945 . S
O411 C404 1.262 . S
O412 Zn369 1.981 . S
O412 C404 1.245 1_556 S
C413 O395 1.245 . S
C413 O396 1.263 . S
O414 Zn385 1.945 . S
O414 C410 1.262 1_556 S
O415 Zn374 1.981 . S
O415 C410 1.245 . S
C416 O397 1.276 . S
C416 O417 1.246 1_455 S
O417 C416 1.246 1_655 S
C418 O399 1.276 1_455 S
C418 O419 1.246 . S
O419 C418 1.246 . S
Zn420 O422 1.933 1_556 S
Zn420 O440 1.985 . S
Zn420 O451 1.955 . S
Zn421 O422 1.911 . S
Zn421 O441 1.970 . S
Zn421 O457 1.945 . S
Zn421 O464 1.981 . S
O422 Zn420 1.933 1_554 S
O422 Zn421 1.911 . S
O422 H423 0.841 . S
H423 O422 0.841 . S
C424 O425 1.246 . S
C424 O453 1.276 . S
O425 C424 1.246 . S
Zn426 O428 1.911 . S
Zn426 O443 1.970 . S
Zn426 O460 1.945 . S
Zn426 O467 1.981 . S
Zn427 O428 1.933 1_556 S
Zn427 O442 1.985 . S
Zn427 O449 1.955 . S
O428 Zn426 1.911 . S
O428 Zn427 1.933 1_554 S
O428 H429 0.841 . S
H429 O428 0.841 . S
Zn430 O431 1.933 1_556 S
Zn430 O444 1.985 . S
Zn430 O453 1.955 . S
O431 Zn430 1.933 1_554 S
O431 Zn432 1.911 . S
O431 H433 0.841 . S
Zn432 O431 1.911 . S
Zn432 O445 1.970 . S
Zn432 O461 1.981 . S
Zn432 O463 1.945 . S
H433 O431 0.841 . S
Zn434 O435 1.933 1_556 S
Zn434 O447 1.985 . S
Zn434 O455 1.955 . S
O435 Zn434 1.933 1_554 S
O435 H436 0.841 . S
O435 Zn437 1.911 . S
H436 O435 0.841 . S
Zn437 O435 1.911 . S
Zn437 O448 1.970 . S
Zn437 O458 1.981 . S
Zn437 O466 1.945 . S
C438 O439 1.246 . S
C438 O455 1.276 . S
O439 C438 1.246 . S
O440 Zn420 1.985 . S
O440 C450 1.245 1_556 S
O441 Zn421 1.970 . S
O441 C450 1.263 . S
O442 Zn427 1.985 . S
O442 C454 1.245 1_556 S
O443 Zn426 1.970 . S
O443 C454 1.263 . S
O444 Zn430 1.985 . S
O444 C459 1.245 1_556 S
O445 Zn432 1.970 . S
O445 C459 1.263 . S
C446 O457 1.262 . S
C446 O458 1.245 . S
O447 Zn434 1.985 . S
O447 C465 1.245 1_556 S
O448 Zn437 1.970 . S
O448 C465 1.263 . S
O449 Zn427 1.955 . S
O449 C468 1.276 . S
C450 O440 1.245 1_554 S
C450 O441 1.263 . S
O451 Zn420 1.955 . S
O451 C470 1.276 . S
C452 O460 1.262 . S
C452 O461 1.245 . S
O453 C424 1.276 . S
O453 Zn430 1.955 . S
C454 O442 1.245 1_554 S
C454 O443 1.263 . S
O455 Zn434 1.955 . S
O455 C438 1.276 . S
C456 O463 1.262 . S
C456 O464 1.245 . S
O457 Zn421 1.945 . S
O457 C446 1.262 . S
O458 Zn437 1.981 . S
O458 C446 1.245 . S
C459 O444 1.245 1_554 S
C459 O445 1.263 . S
O460 Zn426 1.945 . S
O460 C452 1.262 . S
O461 Zn432 1.981 . S
O461 C452 1.245 . S
C462 O466 1.262 . S
C462 O467 1.245 . S
O463 Zn432 1.945 . S
O463 C456 1.262 . S
O464 Zn421 1.981 . S
O464 C456 1.245 . S
C465 O447 1.245 1_554 S
C465 O448 1.263 . S
O466 Zn437 1.945 . S
O466 C462 1.262 . S
O467 Zn426 1.981 . S
O467 C462 1.245 . S
C468 O449 1.276 . S
C468 O469 1.246 . S
O469 C468 1.246 . S
C470 O451 1.276 . S
C470 O471 1.246 . S
O471 C470 1.246 . S
Zn472 O474 1.933 . S
Zn472 O492 1.985 . S
Zn472 O503 1.964 . S
Zn473 O474 1.911 . S
Zn473 O493 1.970 . S
Zn473 O509 1.945 . S
Zn473 O516 1.981 . S
O474 Zn472 1.933 . S
O474 Zn473 1.911 . S
O474 H475 0.841 1_655 S
H475 O474 0.841 1_455 S
C476 O477 1.246 . S
C476 O505 1.276 . S
O477 C476 1.246 . S
Zn478 O480 1.911 . S
Zn478 O495 1.970 . S
Zn478 O512 1.945 . S
Zn478 O519 1.981 . S
Zn479 O480 1.933 . S
Zn479 O494 1.985 . S
Zn479 O501 1.955 . S
O480 Zn478 1.911 . S
O480 Zn479 1.933 . S
O480 H481 0.841 . S
H481 O480 0.841 . S
Zn482 O483 1.933 . S
Zn482 O496 1.985 . S
Zn482 O505 1.955 . S
O483 Zn482 1.933 . S
O483 Zn484 1.911 . S
O483 H485 0.841 . S
Zn484 O483 1.911 . S
Zn484 O497 1.970 . S
Zn484 O513 1.981 1_655 S
Zn484 O515 1.945 . S
H485 O483 0.841 . S
Zn486 O487 1.933 . S
Zn486 O499 1.985 . S
Zn486 O507 1.955 . S
O487 Zn486 1.933 . S
O487 H488 0.841 . S
O487 Zn489 1.911 . S
H488 O487 0.841 . S
Zn489 O487 1.911 . S
Zn489 O500 1.970 . S
Zn489 O510 1.981 . S
Zn489 O518 1.945 . S
C490 O491 1.246 . S
C490 O507 1.276 . S
O491 C490 1.246 . S
O492 Zn472 1.985 . S
O492 C502 1.245 . S
O493 Zn473 1.970 . S
O493 C502 1.263 . S
O494 Zn479 1.985 . S
O494 C506 1.245 . S
O495 Zn478 1.970 . S
O495 C506 1.263 . S
O496 Zn482 1.985 . S
O496 C511 1.245 . S
O497 Zn484 1.970 . S
O497 C511 1.263 . S
C498 O509 1.262 1_455 S
C498 O510 1.245 . S
O499 Zn486 1.985 . S
O499 C517 1.245 . S
O500 Zn489 1.970 . S
O500 C517 1.263 . S
O501 Zn479 1.955 . S
O501 C520 1.276 . S
C502 O492 1.245 . S
C502 O493 1.263 . S
O503 Zn472 1.964 . S
O503 C522 1.247 1_655 S
C504 O512 1.262 . S
C504 O513 1.245 . S
O505 C476 1.276 . S
O505 Zn482 1.955 . S
C506 O494 1.245 . S
C506 O495 1.263 . S
O507 Zn486 1.955 . S
O507 C490 1.276 . S
C508 O515 1.262 . S
C508 O516 1.245 . S
O509 Zn473 1.945 . S
O509 C498 1.262 1_655 S
O510 Zn489 1.981 . S
O510 C498 1.245 . S
C511 O496 1.245 . S
C511 O497 1.263 . S
O512 Zn478 1.945 . S
O512 C504 1.262 . S
O513 Zn484 1.981 1_455 S
O513 C504 1.245 . S
C514 O518 1.262 . S
C514 O519 1.245 . S
O515 Zn484 1.945 . S
O515 C508 1.262 . S
O516 Zn473 1.981 . S
O516 C508 1.245 . S
C517 O499 1.245 . S
C517 O500 1.263 . S
O518 Zn489 1.945 . S
O518 C514 1.262 . S
O519 Zn478 1.981 . S
O519 C514 1.245 . S
C520 O501 1.276 . S
C520 O521 1.246 . S
O521 C520 1.246 . S
C522 O503 1.247 1_455 S
C522 O523 1.246 . S
O523 C522 1.246 . S
Zn524 O526 1.933 1_565 S
Zn524 O544 1.985 . S
Zn524 O555 1.955 . S
Zn525 O526 1.911 . S
Zn525 O545 1.970 . S
Zn525 O561 1.945 . S
Zn525 O568 1.981 . S
O526 Zn524 1.933 1_545 S
O526 Zn525 1.911 . S
O526 H527 0.841 . S
H527 O526 0.841 . S
C528 O529 1.246 . S
C528 O557 1.276 . S
O529 C528 1.246 . S
Zn530 O532 1.911 . S
Zn530 O547 1.970 . S
Zn530 O564 1.945 . S
Zn530 O571 1.981 . S
Zn531 O532 1.933 1_565 S
Zn531 O546 1.986 1_565 S
Zn531 O553 1.955 . S
O532 Zn530 1.911 . S
O532 Zn531 1.933 1_545 S
O532 H533 0.841 . S
H533 O532 0.841 . S
Zn534 O535 1.933 1_565 S
Zn534 O548 1.985 . S
Zn534 O557 1.955 . S
O535 Zn534 1.933 1_545 S
O535 Zn536 1.911 . S
O535 H537 0.841 . S
Zn536 O535 1.911 . S
Zn536 O549 1.970 . S
Zn536 O565 1.981 . S
Zn536 O567 1.945 . S
H537 O535 0.841 . S
Zn538 O539 1.933 1_565 S
Zn538 O551 1.985 . S
Zn538 O559 1.955 . S
O539 Zn538 1.933 1_545 S
O539 H540 0.841 . S
O539 Zn541 1.911 . S
H540 O539 0.841 . S
Zn541 O539 1.911 . S
Zn541 O552 1.970 . S
Zn541 O562 1.981 . S
Zn541 O570 1.945 . S
C542 O543 1.246 . S
C542 O559 1.276 . S
O543 C542 1.246 . S
O544 Zn524 1.985 . S
O544 C554 1.245 1_565 S
O545 Zn525 1.970 . S
O545 C554 1.263 . S
O546 Zn531 1.986 1_545 S
O546 C558 1.241 . S
O547 Zn530 1.970 . S
O547 C558 1.263 . S
O548 Zn534 1.985 . S
O548 C563 1.245 1_565 S
O549 Zn536 1.970 . S
O549 C563 1.263 . S
C550 O561 1.262 . S
C550 O562 1.245 . S
O551 Zn538 1.985 . S
O551 C569 1.245 1_565 S
O552 Zn541 1.970 . S
O552 C569 1.263 . S
O553 Zn531 1.955 . S
O553 C572 1.276 . S
C554 O544 1.245 1_545 S
C554 O545 1.263 . S
O555 Zn524 1.955 . S
O555 C574 1.276 . S
C556 O564 1.262 . S
C556 O565 1.245 . S
O557 C528 1.276 . S
O557 Zn534 1.955 . S
C558 O546 1.241 . S
C558 O547 1.263 . S
O559 Zn538 1.955 . S
O559 C542 1.276 . S
C560 O567 1.262 . S
C560 O568 1.245 . S
O561 Zn525 1.945 . S
O561 C550 1.262 . S
O562 Zn541 1.981 . S
O562 C550 1.245 . S
C563 O548 1.245 1_545 S
C563 O549 1.263 . S
O564 Zn530 1.945 . S
O564 C556 1.262 . S
O565 Zn536 1.981 . S
O565 C556 1.245 . S
C566 O570 1.262 . S
C566 O571 1.245 . S
O567 Zn536 1.945 . S
O567 C560 1.262 . S
O568 Zn525 1.981 . S
O568 C560 1.245 . S
C569 O551 1.245 1_545 S
C569 O552 1.263 . S
O570 Zn541 1.945 . S
O570 C566 1.262 . S
O571 Zn530 1.981 . S
O571 C566 1.245 . S
C572 O553 1.276 . S
C572 O573 1.246 . S
O573 C572 1.246 . S
C574 O555 1.276 . S
C574 O575 1.246 . S
O575 C574 1.246 . S
H576 C584 0.950 . S
H577 C589 0.950 . S
H578 C586 0.950 . S
H579 C588 0.950 . S
H580 C590 0.950 . S
H581 C592 0.950 . S
H582 C594 0.950 . S
H583 C595 0.950 . S
C584 H576 0.950 . S
C584 C585 1.386 . S
C584 C586 1.391 . S
C585 C584 1.386 . S
C585 C589 1.393 . S
C586 H578 0.950 . S
C586 C584 1.391 . S
C586 C587 1.400 . S
C587 C586 1.400 . S
C587 C588 1.398 . S
C587 C593 1.491 . S
C588 H579 0.950 . S
C588 C587 1.398 . S
C588 C589 1.391 . S
C589 H577 0.950 . S
C589 C585 1.393 . S
C589 C588 1.391 . S
C590 H580 0.950 . S
C590 C591 1.386 . S
C590 C592 1.391 . S
C591 C590 1.386 . S
C591 C595 1.393 . S
C592 H581 0.950 . S
C592 C590 1.391 . S
C592 C593 1.400 . S
C593 C587 1.491 . S
C593 C592 1.400 . S
C593 C594 1.398 . S
C594 H582 0.950 . S
C594 C593 1.398 . S
C594 C595 1.391 . S
C595 H583 0.950 . S
C595 C591 1.393 . S
C595 C594 1.391 . S
H596 C604 0.950 . S
H597 C609 0.950 . S
H598 C606 0.950 . S
H599 C608 0.950 . S
H600 C610 0.950 . S
H601 C612 0.950 . S
H602 C614 0.950 . S
H603 C615 0.950 . S
C604 H596 0.950 . S
C604 C605 1.386 . S
C604 C606 1.391 . S
C605 C604 1.386 . S
C605 C609 1.393 . S
C606 H598 0.950 . S
C606 C604 1.391 . S
C606 C607 1.400 . S
C607 C606 1.400 . S
C607 C608 1.398 . S
C607 C613 1.491 . S
C608 H599 0.950 . S
C608 C607 1.398 . S
C608 C609 1.391 . S
C609 H597 0.950 . S
C609 C605 1.393 . S
C609 C608 1.391 . S
C610 H600 0.950 . S
C610 C611 1.386 . S
C610 C612 1.391 . S
C611 C610 1.386 . S
C611 C615 1.393 . S
C612 H601 0.950 . S
C612 C610 1.391 . S
C612 C613 1.400 . S
C613 C607 1.491 . S
C613 C612 1.400 . S
C613 C614 1.398 . S
C614 H602 0.950 . S
C614 C613 1.398 . S
C614 C615 1.391 . S
C615 H603 0.950 . S
C615 C611 1.393 . S
C615 C614 1.391 . S
H616 C624 0.950 . S
H617 C629 0.950 . S
H618 C626 0.950 . S
H619 C628 0.950 . S
H620 C630 0.950 . S
H621 C632 0.950 . S
H622 C634 0.950 . S
H623 C635 0.950 . S
C624 H616 0.950 . S
C624 C625 1.386 . S
C624 C626 1.391 . S
C625 C624 1.386 . S
C625 C629 1.393 . S
C626 H618 0.950 . S
C626 C624 1.391 . S
C626 C627 1.400 . S
C627 C626 1.400 . S
C627 C628 1.398 . S
C627 C633 1.491 . S
C628 H619 0.950 . S
C628 C627 1.398 . S
C628 C629 1.391 . S
C629 H617 0.950 . S
C629 C625 1.393 . S
C629 C628 1.391 . S
C630 H620 0.950 . S
C630 C631 1.386 . S
C630 C632 1.391 . S
C631 C630 1.386 . S
C631 C635 1.393 . S
C632 H621 0.950 . S
C632 C630 1.391 . S
C632 C633 1.400 . S
C633 C627 1.491 . S
C633 C632 1.400 . S
C633 C634 1.398 . S
C634 H622 0.950 . S
C634 C633 1.398 . S
C634 C635 1.391 . S
C635 H623 0.950 . S
C635 C631 1.393 . S
C635 C634 1.391 . S
H636 C644 0.950 . S
H637 C649 0.950 . S
H638 C646 0.950 . S
H639 C648 0.950 . S
H640 C650 0.950 . S
H641 C652 0.950 . S
H642 C654 0.950 . S
H643 C655 0.950 . S
C644 H636 0.950 . S
C644 C645 1.386 . S
C644 C646 1.391 . S
C645 C644 1.386 . S
C645 C649 1.393 . S
C646 H638 0.950 . S
C646 C644 1.391 . S
C646 C647 1.400 . S
C647 C646 1.400 . S
C647 C648 1.398 . S
C647 C653 1.491 . S
C648 H639 0.950 . S
C648 C647 1.398 . S
C648 C649 1.391 . S
C649 H637 0.950 . S
C649 C645 1.393 . S
C649 C648 1.391 . S
C650 H640 0.950 . S
C650 C651 1.386 . S
C650 C652 1.391 . S
C651 C650 1.386 . S
C651 C655 1.393 . S
C652 H641 0.950 . S
C652 C650 1.391 . S
C652 C653 1.400 . S
C653 C647 1.491 . S
C653 C652 1.400 . S
C653 C654 1.398 . S
C654 H642 0.950 . S
C654 C653 1.398 . S
C654 C655 1.391 . S
C655 H643 0.950 . S
C655 C651 1.393 . S
C655 C654 1.391 . S
H656 C664 0.950 . S
H657 C669 0.950 . S
H658 C666 0.950 . S
H659 C668 0.950 . S
H660 C670 0.950 . S
H661 C672 0.950 . S
H662 C674 0.950 . S
H663 C675 0.950 . S
C664 H656 0.950 . S
C664 C665 1.386 . S
C664 C666 1.391 . S
C665 C664 1.386 . S
C665 C669 1.393 . S
C666 H658 0.950 . S
C666 C664 1.391 . S
C666 C667 1.400 . S
C667 C666 1.400 . S
C667 C668 1.398 . S
C667 C673 1.491 . S
C668 H659 0.950 . S
C668 C667 1.398 . S
C668 C669 1.391 . S
C669 H657 0.950 . S
C669 C665 1.393 . S
C669 C668 1.391 . S
C670 H660 0.950 . S
C670 C671 1.386 . S
C670 C672 1.391 . S
C671 C670 1.386 . S
C671 C675 1.393 . S
C672 H661 0.950 . S
C672 C670 1.391 . S
C672 C673 1.400 . S
C673 C667 1.491 . S
C673 C672 1.400 . S
C673 C674 1.398 . S
C674 H662 0.950 . S
C674 C673 1.398 . S
C674 C675 1.391 . S
C675 H663 0.950 . S
C675 C671 1.393 . S
C675 C674 1.391 . S
H676 C684 0.950 . S
H677 C689 0.950 . S
H678 C686 0.950 . S
H679 C688 0.950 . S
H680 C690 0.950 . S
H681 C692 0.950 . S
H682 C694 0.950 . S
H683 C695 0.950 . S
C684 H676 0.950 . S
C684 C685 1.386 . S
C684 C686 1.391 . S
C685 C684 1.386 . S
C685 C689 1.393 . S
C686 H678 0.950 . S
C686 C684 1.391 . S
C686 C687 1.400 . S
C687 C686 1.400 . S
C687 C688 1.398 . S
C687 C693 1.491 . S
C688 H679 0.950 . S
C688 C687 1.398 . S
C688 C689 1.391 . S
C689 H677 0.950 . S
C689 C685 1.393 . S
C689 C688 1.391 . S
C690 H680 0.950 . S
C690 C691 1.386 . S
C690 C692 1.391 . S
C691 C690 1.386 . S
C691 C695 1.393 . S
C692 H681 0.950 . S
C692 C690 1.391 . S
C692 C693 1.400 . S
C693 C687 1.491 . S
C693 C692 1.400 . S
C693 C694 1.398 . S
C694 H682 0.950 . S
C694 C693 1.398 . S
C694 C695 1.391 . S
C695 H683 0.950 . S
C695 C691 1.393 . S
C695 C694 1.391 . S
H696 C704 0.950 . S
H697 C709 0.950 . S
H698 C706 0.950 . S
H699 C708 0.950 . S
H700 C710 0.950 . S
H701 C712 0.950 . S
H702 C714 0.950 . S
H703 C715 0.950 . S
C704 H696 0.950 . S
C704 C705 1.386 . S
C704 C706 1.391 . S
C705 C704 1.386 . S
C705 C709 1.393 . S
C706 H698 0.950 . S
C706 C704 1.391 . S
C706 C707 1.400 . S
C707 C706 1.400 . S
C707 C708 1.398 . S
C707 C713 1.491 . S
C708 H699 0.950 . S
C708 C707 1.398 . S
C708 C709 1.391 . S
C709 H697 0.950 . S
C709 C705 1.393 . S
C709 C708 1.391 . S
C710 H700 0.950 . S
C710 C711 1.386 . S
C710 C712 1.391 . S
C711 C710 1.386 . S
C711 C715 1.393 . S
C712 H701 0.950 . S
C712 C710 1.391 . S
C712 C713 1.400 . S
C713 C707 1.491 . S
C713 C712 1.400 . S
C713 C714 1.398 . S
C714 H702 0.950 . S
C714 C713 1.398 . S
C714 C715 1.391 . S
C715 H703 0.950 . S
C715 C711 1.393 . S
C715 C714 1.391 . S
H716 C724 0.950 . S
H717 C729 0.950 . S
H718 C726 0.950 . S
H719 C728 0.950 . S
H720 C730 0.950 . S
H721 C732 0.950 . S
H722 C734 0.950 . S
H723 C735 0.950 . S
C724 H716 0.950 . S
C724 C725 1.386 . S
C724 C726 1.391 . S
C725 C724 1.386 . S
C725 C729 1.393 . S
C726 H718 0.950 . S
C726 C724 1.391 . S
C726 C727 1.400 . S
C727 C726 1.400 . S
C727 C728 1.398 . S
C727 C733 1.491 . S
C728 H719 0.950 . S
C728 C727 1.398 . S
C728 C729 1.391 . S
C729 H717 0.950 . S
C729 C725 1.393 . S
C729 C728 1.391 . S
C730 H720 0.950 . S
C730 C731 1.386 . S
C730 C732 1.391 . S
C731 C730 1.386 . S
C731 C735 1.393 . S
C732 H721 0.950 . S
C732 C730 1.391 . S
C732 C733 1.400 . S
C733 C727 1.491 . S
C733 C732 1.400 . S
C733 C734 1.398 . S
C734 H722 0.950 . S
C734 C733 1.398 . S
C734 C735 1.391 . S
C735 H723 0.950 . S
C735 C731 1.393 . S
C735 C734 1.391 . S
H736 C744 0.950 . S
H737 C749 0.950 . S
H738 C746 0.950 . S
H739 C748 0.950 . S
H740 C750 0.950 . S
H741 C752 0.950 . S
H742 C754 0.950 . S
H743 C755 0.950 . S
C744 H736 0.950 . S
C744 C745 1.386 . S
C744 C746 1.391 . S
C745 C744 1.386 . S
C745 C749 1.393 . S
C746 H738 0.950 . S
C746 C744 1.391 . S
C746 C747 1.400 . S
C747 C746 1.400 . S
C747 C748 1.398 . S
C747 C753 1.491 . S
C748 H739 0.950 . S
C748 C747 1.398 . S
C748 C749 1.391 . S
C749 H737 0.950 . S
C749 C745 1.393 . S
C749 C748 1.391 . S
C750 H740 0.950 . S
C750 C751 1.386 . S
C750 C752 1.391 . S
C751 C750 1.386 . S
C751 C755 1.393 . S
C752 H741 0.950 . S
C752 C750 1.391 . S
C752 C753 1.400 . S
C753 C747 1.491 . S
C753 C752 1.400 . S
C753 C754 1.398 . S
C754 H742 0.950 . S
C754 C753 1.398 . S
C754 C755 1.391 . S
C755 H743 0.950 . S
C755 C751 1.393 . S
C755 C754 1.391 . S
H756 C764 0.950 . S
H757 C769 0.950 . S
H758 C766 0.950 . S
H759 C768 0.950 . S
H760 C770 0.950 . S
H761 C772 0.950 . S
H762 C774 0.950 . S
H763 C775 0.950 . S
C764 H756 0.950 . S
C764 C765 1.386 . S
C764 C766 1.391 . S
C765 C764 1.386 . S
C765 C769 1.393 . S
C766 H758 0.950 . S
C766 C764 1.391 . S
C766 C767 1.400 . S
C767 C766 1.400 . S
C767 C768 1.398 . S
C767 C773 1.491 . S
C768 H759 0.950 . S
C768 C767 1.398 . S
C768 C769 1.391 . S
C769 H757 0.950 . S
C769 C765 1.393 . S
C769 C768 1.391 . S
C770 H760 0.950 . S
C770 C771 1.386 . S
C770 C772 1.391 . S
C771 C770 1.386 . S
C771 C775 1.393 . S
C772 H761 0.950 . S
C772 C770 1.391 . S
C772 C773 1.400 . S
C773 C767 1.491 . S
C773 C772 1.400 . S
C773 C774 1.398 . S
C774 H762 0.950 . S
C774 C773 1.398 . S
C774 C775 1.391 . S
C775 H763 0.950 . S
C775 C771 1.393 . S
C775 C774 1.391 . S
H776 C784 0.950 . S
H777 C789 0.950 . S
H778 C786 0.950 . S
H779 C788 0.950 . S
H780 C790 0.950 . S
H781 C792 0.950 . S
H782 C794 0.950 . S
H783 C795 0.950 . S
C784 H776 0.950 . S
C784 C785 1.386 . S
C784 C786 1.391 . S
C785 C784 1.386 . S
C785 C789 1.393 . S
C786 H778 0.950 . S
C786 C784 1.391 . S
C786 C787 1.400 . S
C787 C786 1.400 . S
C787 C788 1.398 . S
C787 C793 1.491 . S
C788 H779 0.950 . S
C788 C787 1.398 . S
C788 C789 1.391 . S
C789 H777 0.950 . S
C789 C785 1.393 . S
C789 C788 1.391 . S
C790 H780 0.950 . S
C790 C791 1.386 . S
C790 C792 1.391 . S
C791 C790 1.386 . S
C791 C795 1.393 . S
C792 H781 0.950 . S
C792 C790 1.391 . S
C792 C793 1.400 . S
C793 C787 1.491 . S
C793 C792 1.400 . S
C793 C794 1.398 . S
C794 H782 0.950 . S
C794 C793 1.398 . S
C794 C795 1.391 . S
C795 H783 0.950 . S
C795 C791 1.393 . S
C795 C794 1.391 . S
H796 C804 0.950 . S
H797 C809 0.950 . S
H798 C806 0.950 . S
H799 C808 0.950 . S
H800 C810 0.950 . S
H801 C812 0.950 . S
H802 C814 0.950 . S
H803 C815 0.950 . S
C804 H796 0.950 . S
C804 C805 1.386 . S
C804 C806 1.391 . S
C805 C804 1.386 . S
C805 C809 1.393 . S
C806 H798 0.950 . S
C806 C804 1.391 . S
C806 C807 1.400 . S
C807 C806 1.400 . S
C807 C808 1.398 . S
C807 C813 1.491 . S
C808 H799 0.950 . S
C808 C807 1.398 . S
C808 C809 1.391 . S
C809 H797 0.950 . S
C809 C805 1.393 . S
C809 C808 1.391 . S
C810 H800 0.950 . S
C810 C811 1.386 . S
C810 C812 1.391 . S
C811 C810 1.386 . S
C811 C815 1.393 . S
C812 H801 0.950 . S
C812 C810 1.391 . S
C812 C813 1.400 . S
C813 C807 1.491 . S
C813 C812 1.400 . S
C813 C814 1.398 . S
C814 H802 0.950 . S
C814 C813 1.398 . S
C814 C815 1.391 . S
C815 H803 0.950 . S
C815 C811 1.393 . S
C815 C814 1.391 . S
H816 C824 0.950 . S
H817 C829 0.950 . S
H818 C826 0.950 . S
H819 C828 0.950 . S
H820 C830 0.950 . S
H821 C832 0.950 . S
H822 C834 0.950 . S
H823 C835 0.950 . S
C824 H816 0.950 . S
C824 C825 1.386 . S
C824 C826 1.391 . S
C825 C824 1.386 . S
C825 C829 1.393 1_554 S
C826 H818 0.950 . S
C826 C824 1.391 . S
C826 C827 1.400 . S
C827 C826 1.400 . S
C827 C828 1.398 1_554 S
C827 C833 1.491 . S
C828 H819 0.950 . S
C828 C827 1.398 1_556 S
C828 C829 1.391 . S
C829 H817 0.950 . S
C829 C825 1.393 1_556 S
C829 C828 1.391 . S
C830 H820 0.950 . S
C830 C831 1.386 1_556 S
C830 C832 1.391 . S
C831 C830 1.386 1_554 S
C831 C835 1.393 . S
C832 H821 0.950 . S
C832 C830 1.391 . S
C832 C833 1.400 1_556 S
C833 C827 1.491 . S
C833 C832 1.400 1_554 S
C833 C834 1.398 . S
C834 H822 0.950 . S
C834 C833 1.398 . S
C834 C835 1.391 . S
C835 H823 0.950 . S
C835 C831 1.393 . S
C835 C834 1.391 . S
H836 C844 0.950 . S
H837 C849 0.950 . S
H838 C846 0.950 . S
H839 C848 0.950 . S
H840 C850 0.950 . S
H841 C852 0.950 . S
H842 C854 0.950 . S
H843 C855 0.950 . S
C844 H836 0.950 . S
C844 C845 1.386 . S
C844 C846 1.391 . S
C845 C844 1.386 . S
C845 C849 1.393 1_554 S
C846 H838 0.950 . S
C846 C844 1.391 . S
C846 C847 1.400 . S
C847 C846 1.400 . S
C847 C848 1.398 1_554 S
C847 C853 1.491 . S
C848 H839 0.950 . S
C848 C847 1.398 1_556 S
C848 C849 1.391 . S
C849 H837 0.950 . S
C849 C845 1.393 1_556 S
C849 C848 1.391 . S
C850 H840 0.950 . S
C850 C851 1.386 1_556 S
C850 C852 1.391 . S
C851 C850 1.386 1_554 S
C851 C855 1.393 . S
C852 H841 0.950 . S
C852 C850 1.391 . S
C852 C853 1.400 1_556 S
C853 C847 1.491 . S
C853 C852 1.400 1_554 S
C853 C854 1.398 . S
C854 H842 0.950 . S
C854 C853 1.398 . S
C854 C855 1.391 . S
C855 H843 0.950 . S
C855 C851 1.393 . S
C855 C854 1.391 . S
H856 C864 0.950 . S
H857 C869 0.950 . S
H858 C866 0.950 . S
H859 C868 0.950 . S
H860 C870 0.950 . S
H861 C872 0.950 . S
H862 C874 0.950 . S
H863 C875 0.950 . S
C864 H856 0.950 . S
C864 C865 1.386 . S
C864 C866 1.391 . S
C865 C864 1.386 . S
C865 C869 1.393 1_554 S
C866 H858 0.950 . S
C866 C864 1.391 . S
C866 C867 1.400 . S
C867 C866 1.400 . S
C867 C868 1.398 1_554 S
C867 C873 1.491 . S
C868 H859 0.950 . S
C868 C867 1.398 1_556 S
C868 C869 1.391 . S
C869 H857 0.950 . S
C869 C865 1.393 1_556 S
C869 C868 1.391 . S
C870 H860 0.950 . S
C870 C871 1.386 1_556 S
C870 C872 1.391 . S
C871 C870 1.386 1_554 S
C871 C875 1.393 . S
C872 H861 0.950 . S
C872 C870 1.391 . S
C872 C873 1.400 1_556 S
C873 C867 1.491 . S
C873 C872 1.400 1_554 S
C873 C874 1.398 . S
C874 H862 0.950 . S
C874 C873 1.398 . S
C874 C875 1.391 . S
C875 H863 0.950 . S
C875 C871 1.393 . S
C875 C874 1.391 . S
H876 C884 0.950 . S
H877 C889 0.950 . S
H878 C886 0.950 . S
H879 C888 0.950 . S
H880 C890 0.945 1_556 S
H881 C892 0.954 . S
H882 C894 0.950 . S
H883 C895 0.950 . S
C884 H876 0.950 . S
C884 C885 1.386 . S
C884 C886 1.391 . S
C885 C884 1.386 . S
C885 C889 1.393 1_554 S
C886 H878 0.950 . S
C886 C884 1.391 . S
C886 C887 1.400 . S
C887 C886 1.400 . S
C887 C888 1.398 1_554 S
C887 C893 1.491 . S
C888 H879 0.950 . S
C888 C887 1.398 1_556 S
C888 C889 1.391 . S
C889 H877 0.950 . S
C889 C885 1.393 1_556 S
C889 C888 1.391 . S
C890 H880 0.945 1_554 S
C890 C891 1.391 . S
C890 C892 1.390 1_554 S
C891 C890 1.391 . S
C891 C895 1.393 . S
C892 H881 0.954 . S
C892 C890 1.390 1_556 S
C892 C893 1.397 1_556 S
C893 C887 1.491 . S
C893 C892 1.397 1_554 S
C893 C894 1.398 . S
C894 H882 0.950 . S
C894 C893 1.398 . S
C894 C895 1.391 . S
C895 H883 0.950 . S
C895 C891 1.393 . S
C895 C894 1.391 . S
H896 C904 0.950 . S
H897 C909 0.950 . S
H898 C906 0.950 . S
H899 C908 0.950 . S
H900 C910 0.950 . S
H901 C912 0.950 . S
H902 C914 0.950 . S
H903 C915 0.950 . S
C904 H896 0.950 . S
C904 C905 1.412 . S
C904 C906 1.391 . S
C905 C904 1.412 . S
C905 C909 1.369 1_455 S
C906 H898 0.950 . S
C906 C904 1.391 . S
C906 C907 1.400 . S
C907 C906 1.400 . S
C907 C908 1.398 1_455 S
C907 C913 1.491 . S
C908 H899 0.950 . S
C908 C907 1.398 1_655 S
C908 C909 1.391 . S
C909 H897 0.950 . S
C909 C905 1.369 1_655 S
C909 C908 1.391 . S
C910 H900 0.950 . S
C910 C911 1.386 1_655 S
C910 C912 1.391 . S
C911 C910 1.386 1_455 S
C911 C915 1.393 . S
C912 H901 0.950 . S
C912 C910 1.391 . S
C912 C913 1.400 1_655 S
C913 C907 1.491 . S
C913 C912 1.400 1_455 S
C913 C914 1.398 . S
C914 H902 0.950 . S
C914 C913 1.398 . S
C914 C915 1.391 . S
C915 H903 0.950 . S
C915 C911 1.393 . S
C915 C914 1.391 . S
H916 C924 0.950 . S
H917 C929 0.950 . S
H918 C926 0.950 . S
H919 C928 0.950 . S
H920 C930 0.950 1_565 S
H921 C932 0.950 1_565 S
H922 C934 0.950 . S
H923 C935 0.950 . S
C924 H916 0.950 . S
C924 C925 1.386 . S
C924 C926 1.391 . S
C925 C924 1.386 . S
C925 C929 1.393 1_545 S
C926 H918 0.950 . S
C926 C924 1.391 . S
C926 C927 1.400 . S
C927 C926 1.400 . S
C927 C928 1.398 1_545 S
C927 C933 1.491 . S
C928 H919 0.950 . S
C928 C927 1.398 1_565 S
C928 C929 1.391 . S
C929 H917 0.950 . S
C929 C925 1.393 1_565 S
C929 C928 1.391 . S
C930 H920 0.950 1_545 S
C930 C931 1.386 . S
C930 C932 1.391 . S
C931 C930 1.386 . S
C931 C935 1.393 . S
C932 H921 0.950 1_545 S
C932 C930 1.391 . S
C932 C933 1.400 . S
C933 C927 1.491 . S
C933 C932 1.400 . S
C933 C934 1.398 . S
C934 H922 0.950 . S
C934 C933 1.398 . S
C934 C935 1.391 . S
C935 H923 0.950 . S
C935 C931 1.393 . S
C935 C934 1.391 . S
H936 C944 0.950 . S
H937 C949 0.950 . S
H938 C946 0.950 . S
H939 C948 0.950 . S
H940 C950 0.950 . S
H941 C952 0.950 . S
H942 C954 0.950 . S
H943 C955 0.950 . S
C944 H936 0.950 . S
C944 C945 1.386 1_655 S
C944 C946 1.391 . S
C945 C944 1.386 1_455 S
C945 C949 1.393 . S
C946 H938 0.950 . S
C946 C944 1.391 . S
C946 C947 1.400 1_655 S
C947 C946 1.400 1_455 S
C947 C948 1.398 . S
C947 C953 1.491 . S
C948 H939 0.950 . S
C948 C947 1.398 . S
C948 C949 1.391 . S
C949 H937 0.950 . S
C949 C945 1.393 . S
C949 C948 1.391 . S
C950 H940 0.950 . S
C950 C951 1.386 . S
C950 C952 1.391 . S
C951 C950 1.386 . S
C951 C955 1.393 1_455 S
C952 H941 0.950 . S
C952 C950 1.391 . S
C952 C953 1.400 . S
C953 C947 1.491 . S
C953 C952 1.400 . S
C953 C954 1.398 1_455 S
C954 H942 0.950 . S
C954 C953 1.398 1_655 S
C954 C955 1.391 . S
C955 H943 0.950 . S
C955 C951 1.393 1_655 S
C955 C954 1.391 . S
H956 C964 0.950 . S
H957 C969 0.950 . S
H958 C966 0.950 . S
H959 C968 0.950 . S
H960 C970 0.950 . S
H961 C972 0.950 . S
H962 C974 0.950 . S
H963 C975 0.950 . S
C964 H956 0.950 . S
C964 C965 1.386 . S
C964 C966 1.391 . S
C965 C964 1.386 . S
C965 C969 1.393 . S
C966 H958 0.950 . S
C966 C964 1.391 . S
C966 C967 1.400 . S
C967 C966 1.400 . S
C967 C968 1.398 . S
C967 C973 1.491 . S
C968 H959 0.950 . S
C968 C967 1.398 . S
C968 C969 1.391 . S
C969 H957 0.950 . S
C969 C965 1.393 . S
C969 C968 1.391 . S
C970 H960 0.950 . S
C970 C971 1.386 . S
C970 C972 1.391 . S
C971 C970 1.386 . S
C971 C975 1.393 . S
C972 H961 0.950 . S
C972 C970 1.391 . S
C972 C973 1.400 . S
C973 C967 1.491 . S
C973 C972 1.400 . S
C973 C974 1.398 . S
C974 H962 0.950 . S
C974 C973 1.398 . S
C974 C975 1.391 . S
C975 H963 0.950 . S
C975 C971 1.393 . S
C975 C974 1.391 . S
H976 C984 0.930 1_655 S
H977 C989 0.950 . S
H978 C986 0.950 1_655 S
H979 C988 0.950 . S
H980 C990 0.950 . S
H981 C992 0.950 . S
H982 C994 0.950 1_655 S
H983 C995 0.950 1_655 S
C984 H976 0.930 1_455 S
C984 C985 1.386 . S
C984 C986 1.391 . S
C985 C984 1.386 . S
C985 C989 1.393 . S
C986 H978 0.950 1_455 S
C986 C984 1.391 . S
C986 C987 1.400 . S
C987 C986 1.400 . S
C987 C988 1.398 . S
C987 C993 1.491 . S
C988 H979 0.950 . S
C988 C987 1.398 . S
C988 C989 1.391 . S
C989 H977 0.950 . S
C989 C985 1.393 . S
C989 C988 1.391 . S
C990 H980 0.950 . S
C990 C991 1.386 . S
C990 C992 1.391 . S
C991 C990 1.386 . S
C991 C995 1.393 . S
C992 H981 0.950 . S
C992 C990 1.391 . S
C992 C993 1.400 . S
C993 C987 1.491 . S
C993 C992 1.400 . S
C993 C994 1.398 . S
C994 H982 0.950 1_455 S
C994 C993 1.398 . S
C994 C995 1.391 . S
C995 H983 0.950 1_455 S
C995 C991 1.393 . S
C995 C994 1.391 . S
H996 C1004 0.950 . S
H997 C1009 0.950 . S
H998 C1006 0.950 . S
H999 C1008 0.950 . S
H1000 C1010 0.950 . S
H1001 C1012 0.950 . S
H1002 C1014 0.950 . S
H1003 C1015 0.950 . S
C1004 H996 0.950 . S
C1004 C1005 1.386 . S
C1004 C1006 1.391 . S
C1005 C1004 1.386 . S
C1005 C1009 1.393 . S
C1006 H998 0.950 . S
C1006 C1004 1.391 . S
C1006 C1007 1.400 . S
C1007 C1006 1.400 . S
C1007 C1008 1.398 . S
C1007 C1013 1.491 . S
C1008 H999 0.950 . S
C1008 C1007 1.398 . S
C1008 C1009 1.391 . S
C1009 H997 0.950 . S
C1009 C1005 1.393 . S
C1009 C1008 1.391 . S
C1010 H1000 0.950 . S
C1010 C1011 1.386 . S
C1010 C1012 1.391 . S
C1011 C1010 1.386 . S
C1011 C1015 1.393 . S
C1012 H1001 0.950 . S
C1012 C1010 1.391 . S
C1012 C1013 1.400 . S
C1013 C1007 1.491 . S
C1013 C1012 1.400 . S
C1013 C1014 1.398 . S
C1014 H1002 0.950 . S
C1014 C1013 1.398 . S
C1014 C1015 1.391 . S
C1015 H1003 0.950 . S
C1015 C1011 1.393 . S
C1015 C1014 1.391 . S
H1016 C1024 0.950 1_655 S
H1017 C1029 0.950 . S
H1018 C1026 0.950 1_655 S
H1019 C1028 0.950 . S
H1020 C1030 0.950 . S
H1021 C1032 0.950 . S
H1022 C1034 0.950 1_655 S
H1023 C1035 0.950 1_655 S
C1024 H1016 0.950 1_455 S
C1024 C1025 1.386 . S
C1024 C1026 1.391 . S
C1025 C1024 1.386 . S
C1025 C1029 1.393 . S
C1026 H1018 0.950 1_455 S
C1026 C1024 1.391 . S
C1026 C1027 1.400 . S
C1027 C1026 1.400 . S
C1027 C1028 1.398 . S
C1027 C1033 1.491 . S
C1028 H1019 0.950 . S
C1028 C1027 1.398 . S
C1028 C1029 1.391 . S
C1029 H1017 0.950 . S
C1029 C1025 1.393 . S
C1029 C1028 1.391 . S
C1030 H1020 0.950 . S
C1030 C1031 1.386 . S
C1030 C1032 1.391 . S
C1031 C1030 1.386 . S
C1031 C1035 1.393 . S
C1032 H1021 0.950 . S
C1032 C1030 1.391 . S
C1032 C1033 1.400 . S
C1033 C1027 1.491 . S
C1033 C1032 1.400 . S
C1033 C1034 1.398 . S
C1034 H1022 0.950 1_455 S
C1034 C1033 1.398 . S
C1034 C1035 1.391 . S
C1035 H1023 0.950 1_455 S
C1035 C1031 1.393 . S
C1035 C1034 1.391 . S
H1036 C1044 0.950 . S
H1037 C1049 0.950 . S
H1038 C1046 0.950 . S
H1039 C1048 0.950 . S
H1040 C1050 0.950 . S
H1041 C1052 0.950 . S
H1042 C1054 0.938 1_565 S
H1043 C1055 0.950 1_565 S
C1044 H1036 0.950 . S
C1044 C1045 1.386 1_565 S
C1044 C1046 1.391 . S
C1045 C1044 1.386 1_545 S
C1045 C1049 1.393 . S
C1046 H1038 0.950 . S
C1046 C1044 1.391 . S
C1046 C1047 1.400 1_565 S
C1047 C1046 1.400 1_545 S
C1047 C1048 1.398 . S
C1047 C1053 1.491 . S
C1048 H1039 0.950 . S
C1048 C1047 1.398 . S
C1048 C1049 1.391 . S
C1049 H1037 0.950 . S
C1049 C1045 1.393 . S
C1049 C1048 1.391 . S
C1050 H1040 0.950 . S
C1050 C1051 1.386 . S
C1050 C1052 1.391 . S
C1051 C1050 1.386 . S
C1051 C1055 1.393 . S
C1052 H1041 0.950 . S
C1052 C1050 1.391 . S
C1052 C1053 1.400 . S
C1053 C1047 1.491 . S
C1053 C1052 1.400 . S
C1053 C1054 1.408 . S
C1054 H1042 0.938 1_545 S
C1054 C1053 1.408 . S
C1054 C1055 1.393 . S
C1055 H1043 0.950 1_545 S
C1055 C1051 1.393 . S
C1055 C1054 1.393 . S
H1056 C1064 0.950 1_655 S
H1057 C1069 0.950 . S
H1058 C1066 0.950 1_655 S
H1059 C1068 0.950 . S
H1060 C1070 0.950 . S
H1061 C1072 0.950 . S
H1062 C1074 0.950 1_655 S
H1063 C1075 0.950 1_655 S
C1064 H1056 0.950 1_455 S
C1064 C1065 1.386 . S
C1064 C1066 1.391 . S
C1065 C1064 1.386 . S
C1065 C1069 1.393 . S
C1066 H1058 0.950 1_455 S
C1066 C1064 1.391 . S
C1066 C1067 1.400 . S
C1067 C1066 1.400 . S
C1067 C1068 1.398 . S
C1067 C1073 1.491 . S
C1068 H1059 0.950 . S
C1068 C1067 1.398 . S
C1068 C1069 1.391 . S
C1069 H1057 0.950 . S
C1069 C1065 1.393 . S
C1069 C1068 1.391 . S
C1070 H1060 0.950 . S
C1070 C1071 1.386 . S
C1070 C1072 1.391 . S
C1071 C1070 1.386 . S
C1071 C1075 1.393 . S
C1072 H1061 0.950 . S
C1072 C1070 1.391 . S
C1072 C1073 1.400 . S
C1073 C1067 1.491 . S
C1073 C1072 1.400 . S
C1073 C1074 1.398 . S
C1074 H1062 0.950 1_455 S
C1074 C1073 1.398 . S
C1074 C1075 1.391 . S
C1075 H1063 0.950 1_455 S
C1075 C1071 1.393 . S
C1075 C1074 1.391 . S
H1076 C1084 0.950 . S
H1077 C1089 0.950 . S
H1078 C1086 0.950 . S
H1079 C1088 0.950 . S
H1080 C1090 0.950 . S
H1081 C1092 0.950 . S
H1082 C1094 0.950 . S
H1083 C1095 0.950 . S
C1084 H1076 0.950 . S
C1084 C1085 1.386 . S
C1084 C1086 1.391 . S
C1085 C1084 1.386 . S
C1085 C1089 1.393 . S
C1086 H1078 0.950 . S
C1086 C1084 1.391 . S
C1086 C1087 1.400 . S
C1087 C1086 1.400 . S
C1087 C1088 1.398 . S
C1087 C1093 1.491 . S
C1088 H1079 0.950 . S
C1088 C1087 1.398 . S
C1088 C1089 1.391 . S
C1089 H1077 0.950 . S
C1089 C1085 1.393 . S
C1089 C1088 1.391 . S
C1090 H1080 0.950 . S
C1090 C1091 1.386 . S
C1090 C1092 1.391 . S
C1091 C1090 1.386 . S
C1091 C1095 1.393 . S
C1092 H1081 0.950 . S
C1092 C1090 1.391 . S
C1092 C1093 1.400 . S
C1093 C1087 1.491 . S
C1093 C1092 1.400 . S
C1093 C1094 1.398 . S
C1094 H1082 0.950 . S
C1094 C1093 1.398 . S
C1094 C1095 1.391 . S
C1095 H1083 0.950 . S
C1095 C1091 1.393 . S
C1095 C1094 1.391 . S
H1096 C1104 0.950 . S
H1097 C1109 0.950 1_655 S
H1098 C1106 0.950 . S
H1099 C1108 0.950 1_655 S
H1100 C1110 0.950 1_655 S
H1101 C1112 0.950 1_655 S
H1102 C1114 0.950 . S
H1103 C1115 0.950 . S
C1104 H1096 0.950 . S
C1104 C1105 1.386 . S
C1104 C1106 1.391 . S
C1105 C1104 1.386 . S
C1105 C1109 1.393 . S
C1106 H1098 0.950 . S
C1106 C1104 1.391 . S
C1106 C1107 1.400 . S
C1107 C1106 1.400 . S
C1107 C1108 1.398 . S
C1107 C1113 1.491 . S
C1108 H1099 0.950 1_455 S
C1108 C1107 1.398 . S
C1108 C1109 1.391 . S
C1109 H1097 0.950 1_455 S
C1109 C1105 1.393 . S
C1109 C1108 1.391 . S
C1110 H1100 0.950 1_455 S
C1110 C1111 1.386 . S
C1110 C1112 1.391 . S
C1111 C1110 1.386 . S
C1111 C1115 1.393 . S
C1112 H1101 0.950 1_455 S
C1112 C1110 1.391 . S
C1112 C1113 1.400 . S
C1113 C1107 1.491 . S
C1113 C1112 1.400 . S
C1113 C1114 1.398 . S
C1114 H1102 0.950 . S
C1114 C1113 1.398 . S
C1114 C1115 1.391 . S
C1115 H1103 0.950 . S
C1115 C1111 1.393 . S
C1115 C1114 1.391 . S
H1116 C1124 0.950 . S
H1117 C1129 0.961 . S
H1118 C1126 0.950 . S
H1119 C1128 0.950 1_565 S
H1120 C1130 0.950 . S
H1121 C1132 0.959 . S
H1122 C1134 0.950 . S
H1123 C1135 0.950 . S
C1124 H1116 0.950 . S
C1124 C1125 1.386 . S
C1124 C1126 1.391 . S
C1125 C1124 1.386 . S
C1125 C1129 1.387 1_545 S
C1126 H1118 0.950 . S
C1126 C1124 1.391 . S
C1126 C1127 1.400 . S
C1127 C1126 1.400 . S
C1127 C1128 1.398 . S
C1127 C1133 1.491 . S
C1128 H1119 0.950 1_545 S
C1128 C1127 1.398 . S
C1128 C1129 1.387 1_545 S
C1129 H1117 0.961 . S
C1129 C1125 1.387 1_565 S
C1129 C1128 1.387 1_565 S
C1130 H1120 0.950 . S
C1130 C1131 1.386 . S
C1130 C1132 1.391 . S
C1131 C1130 1.386 . S
C1131 C1135 1.393 . S
C1132 H1121 0.959 . S
C1132 C1130 1.391 . S
C1132 C1133 1.400 . S
C1133 C1127 1.491 . S
C1133 C1132 1.400 . S
C1133 C1134 1.398 . S
C1134 H1122 0.950 . S
C1134 C1133 1.398 . S
C1134 C1135 1.391 . S
C1135 H1123 0.950 . S
C1135 C1131 1.393 . S
C1135 C1134 1.391 . S
H1136 C1144 0.950 . S
H1137 C1149 0.950 . S
H1138 C1146 0.950 . S
H1139 C1148 0.950 . S
H1140 C1150 0.950 . S
H1141 C1152 0.950 . S
H1142 C1154 0.944 1_655 S
H1143 C1155 0.950 1_655 S
C1144 H1136 0.950 . S
C1144 C1145 1.386 1_655 S
C1144 C1146 1.391 . S
C1145 C1144 1.386 1_455 S
C1145 C1149 1.393 . S
C1146 H1138 0.950 . S
C1146 C1144 1.391 . S
C1146 C1147 1.400 1_655 S
C1147 C1146 1.400 1_455 S
C1147 C1148 1.398 . S
C1147 C1153 1.491 . S
C1148 H1139 0.950 . S
C1148 C1147 1.398 . S
C1148 C1149 1.391 . S
C1149 H1137 0.950 . S
C1149 C1145 1.393 . S
C1149 C1148 1.391 . S
C1150 H1140 0.950 . S
C1150 C1151 1.386 . S
C1150 C1152 1.391 . S
C1151 C1150 1.386 . S
C1151 C1155 1.393 . S
C1152 H1141 0.950 . S
C1152 C1150 1.391 . S
C1152 C1153 1.400 . S
C1153 C1147 1.491 . S
C1153 C1152 1.400 . S
C1153 C1154 1.403 . S
C1154 H1142 0.944 1_455 S
C1154 C1153 1.403 . S
C1154 C1155 1.392 . S
C1155 H1143 0.950 1_455 S
C1155 C1151 1.393 . S
C1155 C1154 1.392 . S
H1156 C1164 0.950 . S
H1157 C1169 0.950 . S
H1158 C1166 0.950 . S
H1159 C1168 0.950 . S
H1160 C1170 0.951 . S
H1161 C1172 0.950 1_565 S
H1162 C1174 0.950 . S
H1163 C1175 0.950 . S
C1164 H1156 0.950 . S
C1164 C1165 1.386 . S
C1164 C1166 1.391 . S
C1165 C1164 1.386 . S
C1165 C1169 1.393 1_545 S
C1166 H1158 0.950 . S
C1166 C1164 1.391 . S
C1166 C1167 1.400 . S
C1167 C1166 1.400 . S
C1167 C1168 1.398 1_545 S
C1167 C1173 1.491 . S
C1168 H1159 0.950 . S
C1168 C1167 1.398 1_565 S
C1168 C1169 1.391 . S
C1169 H1157 0.950 . S
C1169 C1165 1.393 1_565 S
C1169 C1168 1.391 . S
C1170 H1160 0.951 . S
C1170 C1171 1.386 . S
C1170 C1172 1.391 . S
C1171 C1170 1.386 . S
C1171 C1175 1.393 . S
C1172 H1161 0.950 1_545 S
C1172 C1170 1.391 . S
C1172 C1173 1.400 . S
C1173 C1167 1.491 . S
C1173 C1172 1.400 . S
C1173 C1174 1.398 . S
C1174 H1162 0.950 . S
C1174 C1173 1.398 . S
C1174 C1175 1.391 . S
C1175 H1163 0.950 . S
C1175 C1171 1.393 . S
C1175 C1174 1.391 . S
H1176 C1184 0.950 . S
H1177 C1189 0.925 1_655 S
H1178 C1186 0.950 . S
H1179 C1188 0.950 1_655 S
H1180 C1190 0.950 1_655 S
H1181 C1192 0.950 1_655 S
H1182 C1194 0.950 . S
H1183 C1195 0.950 . S
C1184 H1176 0.950 . S
C1184 C1185 1.386 . S
C1184 C1186 1.391 . S
C1185 C1184 1.386 . S
C1185 C1189 1.418 . S
C1186 H1178 0.950 . S
C1186 C1184 1.391 . S
C1186 C1187 1.400 . S
C1187 C1186 1.400 . S
C1187 C1188 1.398 . S
C1187 C1193 1.491 . S
C1188 H1179 0.950 1_455 S
C1188 C1187 1.398 . S
C1188 C1189 1.391 . S
C1189 H1177 0.925 1_455 S
C1189 C1185 1.418 . S
C1189 C1188 1.391 . S
C1190 H1180 0.950 1_455 S
C1190 C1191 1.386 . S
C1190 C1192 1.391 . S
C1191 C1190 1.386 . S
C1191 C1195 1.393 . S
C1192 H1181 0.950 1_455 S
C1192 C1190 1.391 . S
C1192 C1193 1.400 . S
C1193 C1187 1.491 . S
C1193 C1192 1.400 . S
C1193 C1194 1.398 . S
C1194 H1182 0.950 . S
C1194 C1193 1.398 . S
C1194 C1195 1.391 . S
C1195 H1183 0.950 . S
C1195 C1191 1.393 . S
C1195 C1194 1.391 . S
H1196 C1204 0.950 . S
H1197 C1209 0.950 . S
H1198 C1206 0.950 . S
H1199 C1208 0.950 . S
H1200 C1210 0.950 . S
H1201 C1212 0.950 . S
H1202 C1214 0.950 . S
H1203 C1215 0.950 . S
C1204 H1196 0.950 . S
C1204 C1205 1.386 . S
C1204 C1206 1.391 . S
C1205 C1204 1.386 . S
C1205 C1209 1.393 . S
C1206 H1198 0.950 . S
C1206 C1204 1.391 . S
C1206 C1207 1.400 . S
C1207 C1206 1.400 . S
C1207 C1208 1.398 . S
C1207 C1213 1.491 . S
C1208 H1199 0.950 . S
C1208 C1207 1.398 . S
C1208 C1209 1.391 . S
C1209 H1197 0.950 . S
C1209 C1205 1.393 . S
C1209 C1208 1.391 . S
C1210 H1200 0.950 . S
C1210 C1211 1.386 . S
C1210 C1212 1.391 . S
C1211 C1210 1.386 . S
C1211 C1215 1.393 . S
C1212 H1201 0.950 . S
C1212 C1210 1.391 . S
C1212 C1213 1.400 . S
C1213 C1207 1.491 . S
C1213 C1212 1.400 . S
C1213 C1214 1.398 . S
C1214 H1202 0.950 . S
C1214 C1213 1.398 . S
C1214 C1215 1.391 . S
C1215 H1203 0.950 . S
C1215 C1211 1.393 . S
C1215 C1214 1.391 . S
H1216 C1224 0.950 . S
H1217 C1229 0.950 . S
H1218 C1226 0.950 . S
H1219 C1228 0.950 . S
H1220 C1230 0.950 . S
H1221 C1232 0.950 . S
H1222 C1234 0.950 . S
H1223 C1235 0.950 . S
C1224 H1216 0.950 . S
C1224 C1225 1.386 1_565 S
C1224 C1226 1.391 . S
C1225 C1224 1.386 1_545 S
C1225 C1229 1.393 . S
C1226 H1218 0.950 . S
C1226 C1224 1.391 . S
C1226 C1227 1.400 1_565 S
C1227 C1226 1.400 1_545 S
C1227 C1228 1.398 . S
C1227 C1233 1.491 . S
C1228 H1219 0.950 . S
C1228 C1227 1.398 . S
C1228 C1229 1.391 . S
C1229 H1217 0.950 . S
C1229 C1225 1.393 . S
C1229 C1228 1.391 . S
C1230 H1220 0.950 . S
C1230 C1231 1.386 . S
C1230 C1232 1.391 . S
C1231 C1230 1.386 . S
C1231 C1235 1.393 1_545 S
C1232 H1221 0.950 . S
C1232 C1230 1.391 . S
C1232 C1233 1.400 . S
C1233 C1227 1.491 . S
C1233 C1232 1.400 . S
C1233 C1234 1.398 1_545 S
C1234 H1222 0.950 . S
C1234 C1233 1.398 1_565 S
C1234 C1235 1.391 . S
C1235 H1223 0.950 . S
C1235 C1231 1.393 1_565 S
C1235 C1234 1.391 . S
H1236 C1244 0.950 . S
H1237 C1249 0.950 . S
H1238 C1246 0.950 . S
H1239 C1248 0.950 . S
H1240 C1250 0.950 . S
H1241 C1252 0.950 . S
H1242 C1254 0.950 . S
H1243 C1255 0.950 . S
C1244 H1236 0.950 . S
C1244 C1245 1.386 . S
C1244 C1246 1.391 . S
C1245 C1244 1.386 . S
C1245 C1249 1.393 . S
C1246 H1238 0.950 . S
C1246 C1244 1.391 . S
C1246 C1247 1.400 . S
C1247 C1246 1.400 . S
C1247 C1248 1.398 . S
C1247 C1253 1.491 . S
C1248 H1239 0.950 . S
C1248 C1247 1.398 . S
C1248 C1249 1.391 . S
C1249 H1237 0.950 . S
C1249 C1245 1.393 . S
C1249 C1248 1.391 . S
C1250 H1240 0.950 . S
C1250 C1251 1.386 . S
C1250 C1252 1.391 . S
C1251 C1250 1.386 . S
C1251 C1255 1.393 . S
C1252 H1241 0.950 . S
C1252 C1250 1.391 . S
C1252 C1253 1.400 . S
C1253 C1247 1.491 . S
C1253 C1252 1.400 . S
C1253 C1254 1.398 . S
C1254 H1242 0.950 . S
C1254 C1253 1.398 . S
C1254 C1255 1.391 . S
C1255 H1243 0.950 . S
C1255 C1251 1.393 . S
C1255 C1254 1.391 . S
H1256 C1264 0.950 . S
H1257 C1269 0.950 . S
H1258 C1266 0.950 . S
H1259 C1268 0.950 . S
H1260 C1270 0.950 . S
H1261 C1272 0.950 . S
H1262 C1274 0.950 . S
H1263 C1275 0.950 . S
C1264 H1256 0.950 . S
C1264 C1265 1.386 . S
C1264 C1266 1.391 . S
C1265 C1264 1.386 . S
C1265 C1269 1.393 . S
C1266 H1258 0.950 . S
C1266 C1264 1.391 . S
C1266 C1267 1.400 . S
C1267 C1266 1.400 . S
C1267 C1268 1.398 . S
C1267 C1273 1.491 . S
C1268 H1259 0.950 . S
C1268 C1267 1.398 . S
C1268 C1269 1.391 . S
C1269 H1257 0.950 . S
C1269 C1265 1.393 . S
C1269 C1268 1.391 . S
C1270 H1260 0.950 . S
C1270 C1271 1.386 . S
C1270 C1272 1.391 . S
C1271 C1270 1.386 . S
C1271 C1275 1.393 . S
C1272 H1261 0.950 . S
C1272 C1270 1.391 . S
C1272 C1273 1.400 . S
C1273 C1267 1.491 . S
C1273 C1272 1.400 . S
C1273 C1274 1.398 . S
C1274 H1262 0.950 . S
C1274 C1273 1.398 . S
C1274 C1275 1.391 . S
C1275 H1263 0.950 . S
C1275 C1271 1.393 . S
C1275 C1274 1.391 . S
H1276 C1284 0.950 . S
H1277 C1289 0.950 . S
H1278 C1286 0.950 . S
H1279 C1288 0.950 . S
H1280 C1290 0.950 1_655 S
H1281 C1292 0.950 . S
H1282 C1294 0.950 . S
H1283 C1295 0.950 . S
C1284 H1276 0.950 . S
C1284 C1285 1.386 . S
C1284 C1286 1.391 . S
C1285 C1284 1.386 . S
C1285 C1289 1.393 . S
C1286 H1278 0.950 . S
C1286 C1284 1.391 . S
C1286 C1287 1.400 . S
C1287 C1286 1.400 . S
C1287 C1288 1.398 . S
C1287 C1293 1.491 . S
C1288 H1279 0.950 . S
C1288 C1287 1.398 . S
C1288 C1289 1.391 . S
C1289 H1277 0.950 . S
C1289 C1285 1.393 . S
C1289 C1288 1.391 . S
C1290 H1280 0.950 1_455 S
C1290 C1291 1.386 . S
C1290 C1292 1.391 . S
C1291 C1290 1.386 . S
C1291 C1295 1.393 . S
C1292 H1281 0.950 . S
C1292 C1290 1.391 . S
C1292 C1293 1.400 . S
C1293 C1287 1.491 . S
C1293 C1292 1.400 . S
C1293 C1294 1.398 . S
C1294 H1282 0.950 . S
C1294 C1293 1.398 . S
C1294 C1295 1.391 . S
C1295 H1283 0.950 . S
C1295 C1291 1.393 . S
C1295 C1294 1.391 . S
H1296 C1304 0.950 . S
H1297 C1309 0.950 . S
H1298 C1306 0.950 . S
H1299 C1308 0.950 . S
H1300 C1310 0.950 . S
H1301 C1312 0.950 . S
H1302 C1314 0.950 . S
H1303 C1315 0.950 . S
C1304 H1296 0.950 . S
C1304 C1305 1.386 1_565 S
C1304 C1306 1.391 . S
C1305 C1304 1.386 1_545 S
C1305 C1309 1.393 . S
C1306 H1298 0.950 . S
C1306 C1304 1.391 . S
C1306 C1307 1.400 1_565 S
C1307 C1306 1.400 1_545 S
C1307 C1308 1.398 . S
C1307 C1313 1.491 . S
C1308 H1299 0.950 . S
C1308 C1307 1.398 . S
C1308 C1309 1.391 . S
C1309 H1297 0.950 . S
C1309 C1305 1.393 . S
C1309 C1308 1.391 . S
C1310 H1300 0.950 . S
C1310 C1311 1.386 . S
C1310 C1312 1.391 . S
C1311 C1310 1.386 . S
C1311 C1315 1.393 1_545 S
C1312 H1301 0.950 . S
C1312 C1310 1.391 . S
C1312 C1313 1.400 . S
C1313 C1307 1.491 . S
C1313 C1312 1.400 . S
C1313 C1314 1.398 1_545 S
C1314 H1302 0.950 . S
C1314 C1313 1.398 1_565 S
C1314 C1315 1.391 . S
C1315 H1303 0.950 . S
C1315 C1311 1.393 1_565 S
C1315 C1314 1.391 . S
H1316 C1324 0.950 . S
H1317 C1329 0.950 . S
H1318 C1326 0.950 . S
H1319 C1328 0.950 . S
H1320 C1330 0.950 . S
H1321 C1332 0.950 . S
H1322 C1334 0.950 . S
H1323 C1335 0.950 . S
C1324 H1316 0.950 . S
C1324 C1325 1.386 . S
C1324 C1326 1.391 . S
C1325 C1324 1.386 . S
C1325 C1329 1.393 . S
C1326 H1318 0.950 . S
C1326 C1324 1.391 . S
C1326 C1327 1.400 . S
C1327 C1326 1.400 . S
C1327 C1328 1.398 . S
C1327 C1333 1.491 . S
C1328 H1319 0.950 . S
C1328 C1327 1.398 . S
C1328 C1329 1.391 . S
C1329 H1317 0.950 . S
C1329 C1325 1.393 . S
C1329 C1328 1.391 . S
C1330 H1320 0.950 . S
C1330 C1331 1.386 . S
C1330 C1332 1.391 . S
C1331 C1330 1.386 . S
C1331 C1335 1.393 . S
C1332 H1321 0.950 . S
C1332 C1330 1.391 . S
C1332 C1333 1.400 . S
C1333 C1327 1.491 . S
C1333 C1332 1.400 . S
C1333 C1334 1.398 . S
C1334 H1322 0.950 . S
C1334 C1333 1.398 . S
C1334 C1335 1.391 . S
C1335 H1323 0.950 . S
C1335 C1331 1.393 . S
C1335 C1334 1.391 . S
H1336 C1344 0.950 . S
H1337 C1349 0.950 1_565 S
H1338 C1346 0.950 . S
H1339 C1348 0.950 1_565 S
H1340 C1350 0.950 1_565 S
H1341 C1352 0.950 1_565 S
H1342 C1354 0.950 . S
H1343 C1355 0.950 . S
C1344 H1336 0.950 . S
C1344 C1345 1.386 . S
C1344 C1346 1.391 . S
C1345 C1344 1.386 . S
C1345 C1349 1.393 . S
C1346 H1338 0.950 . S
C1346 C1344 1.391 . S
C1346 C1347 1.400 . S
C1347 C1346 1.400 . S
C1347 C1348 1.398 . S
C1347 C1353 1.491 . S
C1348 H1339 0.950 1_545 S
C1348 C1347 1.398 . S
C1348 C1349 1.391 . S
C1349 H1337 0.950 1_545 S
C1349 C1345 1.393 . S
C1349 C1348 1.391 . S
C1350 H1340 0.950 1_545 S
C1350 C1351 1.386 . S
C1350 C1352 1.391 . S
C1351 C1350 1.386 . S
C1351 C1355 1.393 . S
C1352 H1341 0.950 1_545 S
C1352 C1350 1.391 . S
C1352 C1353 1.400 . S
C1353 C1347 1.491 . S
C1353 C1352 1.400 . S
C1353 C1354 1.398 . S
C1354 H1342 0.950 . S
C1354 C1353 1.398 . S
C1354 C1355 1.391 . S
C1355 H1343 0.950 . S
C1355 C1351 1.393 . S
C1355 C1354 1.391 . S
H1356 C1364 0.950 . S
H1357 C1369 0.950 . S
H1358 C1366 0.950 . S
H1359 C1368 0.950 . S
H1360 C1370 0.950 . S
H1361 C1372 0.950 . S
H1362 C1374 0.950 . S
H1363 C1375 0.950 . S
C1364 H1356 0.950 . S
C1364 C1365 1.407 . S
C1364 C1366 1.391 . S
C1365 C1364 1.407 . S
C1365 C1369 1.370 1_655 S
C1366 H1358 0.950 . S
C1366 C1364 1.391 . S
C1366 C1367 1.400 1_655 S
C1367 C1366 1.400 1_455 S
C1367 C1368 1.398 . S
C1367 C1373 1.491 . S
C1368 H1359 0.950 . S
C1368 C1367 1.398 . S
C1368 C1369 1.391 . S
C1369 H1357 0.950 . S
C1369 C1365 1.370 1_455 S
C1369 C1368 1.391 . S
C1370 H1360 0.950 . S
C1370 C1371 1.386 . S
C1370 C1372 1.391 . S
C1371 C1370 1.386 . S
C1371 C1375 1.393 1_455 S
C1372 H1361 0.950 . S
C1372 C1370 1.391 . S
C1372 C1373 1.400 . S
C1373 C1367 1.491 . S
C1373 C1372 1.400 . S
C1373 C1374 1.398 1_455 S
C1374 H1362 0.950 . S
C1374 C1373 1.398 1_655 S
C1374 C1375 1.391 . S
C1375 H1363 0.950 . S
C1375 C1371 1.393 1_655 S
C1375 C1374 1.391 . S
H1376 C1384 0.939 1_556 S
H1377 C1389 0.950 . S
H1378 C1386 0.958 . S
H1379 C1388 0.950 . S
H1380 C1390 0.950 . S
H1381 C1392 0.950 . S
H1382 C1394 0.950 . S
H1383 C1395 0.950 . S
C1384 H1376 0.939 1_554 S
C1384 C1385 1.397 . S
C1384 C1386 1.391 1_554 S
C1385 C1384 1.397 . S
C1385 C1389 1.393 . S
C1386 H1378 0.958 . S
C1386 C1384 1.391 1_556 S
C1386 C1387 1.393 1_556 S
C1387 C1386 1.393 1_554 S
C1387 C1388 1.398 . S
C1387 C1393 1.491 . S
C1388 H1379 0.950 . S
C1388 C1387 1.398 . S
C1388 C1389 1.391 . S
C1389 H1377 0.950 . S
C1389 C1385 1.393 . S
C1389 C1388 1.391 . S
C1390 H1380 0.950 . S
C1390 C1391 1.386 . S
C1390 C1392 1.391 . S
C1391 C1390 1.386 . S
C1391 C1395 1.393 1_554 S
C1392 H1381 0.950 . S
C1392 C1390 1.391 . S
C1392 C1393 1.400 . S
C1393 C1387 1.491 . S
C1393 C1392 1.400 . S
C1393 C1394 1.398 1_554 S
C1394 H1382 0.950 . S
C1394 C1393 1.398 1_556 S
C1394 C1395 1.391 . S
C1395 H1383 0.950 . S
C1395 C1391 1.393 1_556 S
C1395 C1394 1.391 . S
H1396 C1404 0.950 . S
H1397 C1409 0.950 . S
H1398 C1406 0.950 . S
H1399 C1408 0.950 . S
H1400 C1410 0.950 . S
H1401 C1412 0.950 . S
H1402 C1414 0.950 . S
H1403 C1415 0.950 . S
C1404 H1396 0.950 . S
C1404 C1405 1.386 . S
C1404 C1406 1.391 . S
C1405 C1404 1.386 . S
C1405 C1409 1.393 . S
C1406 H1398 0.950 . S
C1406 C1404 1.391 . S
C1406 C1407 1.400 . S
C1407 C1406 1.400 . S
C1407 C1408 1.398 . S
C1407 C1413 1.491 . S
C1408 H1399 0.950 . S
C1408 C1407 1.398 . S
C1408 C1409 1.391 . S
C1409 H1397 0.950 . S
C1409 C1405 1.393 . S
C1409 C1408 1.391 . S
C1410 H1400 0.950 . S
C1410 C1411 1.386 . S
C1410 C1412 1.391 . S
C1411 C1410 1.386 . S
C1411 C1415 1.393 . S
C1412 H1401 0.950 . S
C1412 C1410 1.391 . S
C1412 C1413 1.400 . S
C1413 C1407 1.491 . S
C1413 C1412 1.400 . S
C1413 C1414 1.398 . S
C1414 H1402 0.950 . S
C1414 C1413 1.398 . S
C1414 C1415 1.391 . S
C1415 H1403 0.950 . S
C1415 C1411 1.393 . S
C1415 C1414 1.391 . S
H1416 C1424 0.950 . S
H1417 C1429 0.950 . S
H1418 C1426 0.950 . S
H1419 C1428 0.950 . S
H1420 C1430 0.950 1_556 S
H1421 C1432 0.950 1_556 S
H1422 C1434 0.950 . S
H1423 C1435 0.950 . S
C1424 H1416 0.950 . S
C1424 C1425 1.386 . S
C1424 C1426 1.391 . S
C1425 C1424 1.386 . S
C1425 C1429 1.393 . S
C1426 H1418 0.950 . S
C1426 C1424 1.391 . S
C1426 C1427 1.400 . S
C1427 C1426 1.400 . S
C1427 C1428 1.398 . S
C1427 C1433 1.491 . S
C1428 H1419 0.950 . S
C1428 C1427 1.398 . S
C1428 C1429 1.391 . S
C1429 H1417 0.950 . S
C1429 C1425 1.393 . S
C1429 C1428 1.391 . S
C1430 H1420 0.950 1_554 S
C1430 C1431 1.386 . S
C1430 C1432 1.391 . S
C1431 C1430 1.386 . S
C1431 C1435 1.393 . S
C1432 H1421 0.950 1_554 S
C1432 C1430 1.391 . S
C1432 C1433 1.400 . S
C1433 C1427 1.491 . S
C1433 C1432 1.400 . S
C1433 C1434 1.398 . S
C1434 H1422 0.950 . S
C1434 C1433 1.398 . S
C1434 C1435 1.391 . S
C1435 H1423 0.950 . S
C1435 C1431 1.393 . S
C1435 C1434 1.391 . S
H1436 C1444 0.950 . S
H1437 C1449 0.950 . S
H1438 C1446 0.950 . S
H1439 C1448 0.950 . S
H1440 C1450 0.950 . S
H1441 C1452 0.950 . S
H1442 C1454 0.950 . S
H1443 C1455 0.950 . S
C1444 H1436 0.950 . S
C1444 C1445 1.359 1_554 S
C1444 C1446 1.391 . S
C1445 C1444 1.359 1_556 S
C1445 C1449 1.420 . S
C1446 H1438 0.950 . S
C1446 C1444 1.391 . S
C1446 C1447 1.400 1_554 S
C1447 C1446 1.400 1_556 S
C1447 C1448 1.398 . S
C1447 C1453 1.491 . S
C1448 H1439 0.950 . S
C1448 C1447 1.398 . S
C1448 C1449 1.391 . S
C1449 H1437 0.950 . S
C1449 C1445 1.420 . S
C1449 C1448 1.391 . S
C1450 H1440 0.950 . S
C1450 C1451 1.386 . S
C1450 C1452 1.391 . S
C1451 C1450 1.386 . S
C1451 C1455 1.393 1_556 S
C1452 H1441 0.950 . S
C1452 C1450 1.391 . S
C1452 C1453 1.400 . S
C1453 C1447 1.491 . S
C1453 C1452 1.400 . S
C1453 C1454 1.398 1_556 S
C1454 H1442 0.950 . S
C1454 C1453 1.398 1_554 S
C1454 C1455 1.391 . S
C1455 H1443 0.950 . S
C1455 C1451 1.393 1_554 S
C1455 C1454 1.391 . S
H1456 C1464 0.950 . S
H1457 C1469 0.950 . S
H1458 C1466 0.950 . S
H1459 C1468 0.953 . S
H1460 C1470 0.950 1_556 S
H1461 C1472 0.947 1_556 S
H1462 C1474 0.950 . S
H1463 C1475 0.950 . S
C1464 H1456 0.950 . S
C1464 C1465 1.386 . S
C1464 C1466 1.391 . S
C1465 C1464 1.386 . S
C1465 C1469 1.393 1_554 S
C1466 H1458 0.950 . S
C1466 C1464 1.391 . S
C1466 C1467 1.400 . S
C1467 C1466 1.400 . S
C1467 C1468 1.395 1_554 S
C1467 C1473 1.491 . S
C1468 H1459 0.953 . S
C1468 C1467 1.395 1_556 S
C1468 C1469 1.392 . S
C1469 H1457 0.950 . S
C1469 C1465 1.393 1_556 S
C1469 C1468 1.392 . S
C1470 H1460 0.950 1_554 S
C1470 C1471 1.386 . S
C1470 C1472 1.392 . S
C1471 C1470 1.386 . S
C1471 C1475 1.393 . S
C1472 H1461 0.947 1_554 S
C1472 C1470 1.392 . S
C1472 C1473 1.402 . S
C1473 C1467 1.491 . S
C1473 C1472 1.402 . S
C1473 C1474 1.398 . S
C1474 H1462 0.950 . S
C1474 C1473 1.398 . S
C1474 C1475 1.391 . S
C1475 H1463 0.950 . S
C1475 C1471 1.393 . S
C1475 C1474 1.391 . S
H1476 C1484 0.950 . S
H1477 C1489 0.950 . S
H1478 C1486 0.950 . S
H1479 C1488 0.950 . S
H1480 C1490 0.950 . S
H1481 C1492 0.950 . S
H1482 C1494 0.950 . S
H1483 C1495 0.950 . S
C1484 H1476 0.950 . S
C1484 C1485 1.374 1_556 S
C1484 C1486 1.391 . S
C1485 C1484 1.374 1_554 S
C1485 C1489 1.404 . S
C1486 H1478 0.950 . S
C1486 C1484 1.391 . S
C1486 C1487 1.420 . S
C1487 C1486 1.420 . S
C1487 C1488 1.379 1_556 S
C1487 C1493 1.490 . S
C1488 H1479 0.950 . S
C1488 C1487 1.379 1_554 S
C1488 C1489 1.391 . S
C1489 H1477 0.950 . S
C1489 C1485 1.404 . S
C1489 C1488 1.391 . S
C1490 H1480 0.950 . S
C1490 C1491 1.386 1_554 S
C1490 C1492 1.391 . S
C1491 C1490 1.386 1_556 S
C1491 C1495 1.393 . S
C1492 H1481 0.950 . S
C1492 C1490 1.391 . S
C1492 C1493 1.367 1_554 S
C1493 C1487 1.490 . S
C1493 C1492 1.367 1_556 S
C1493 C1494 1.432 . S
C1494 H1482 0.950 . S
C1494 C1493 1.432 . S
C1494 C1495 1.391 . S
C1495 H1483 0.950 . S
C1495 C1491 1.393 . S
C1495 C1494 1.391 . S
H1496 C1504 0.950 . S
H1497 C1509 0.950 . S
H1498 C1506 0.950 . S
H1499 C1508 0.950 . S
H1500 C1510 0.950 . S
H1501 C1512 0.950 . S
H1502 C1514 0.950 . S
H1503 C1515 0.950 . S
C1504 H1496 0.950 . S
C1504 C1505 1.386 . S
C1504 C1506 1.391 . S
C1505 C1504 1.386 . S
C1505 C1509 1.393 1_554 S
C1506 H1498 0.950 . S
C1506 C1504 1.391 . S
C1506 C1507 1.400 . S
C1507 C1506 1.400 . S
C1507 C1508 1.398 1_554 S
C1507 C1513 1.491 . S
C1508 H1499 0.950 . S
C1508 C1507 1.398 1_556 S
C1508 C1509 1.391 . S
C1509 H1497 0.950 . S
C1509 C1505 1.393 1_556 S
C1509 C1508 1.391 . S
C1510 H1500 0.950 . S
C1510 C1511 1.386 1_556 S
C1510 C1512 1.391 . S
C1511 C1510 1.386 1_554 S
C1511 C1515 1.393 . S
C1512 H1501 0.950 . S
C1512 C1510 1.391 . S
C1512 C1513 1.400 1_556 S
C1513 C1507 1.491 . S
C1513 C1512 1.400 1_554 S
C1513 C1514 1.398 . S
C1514 H1502 0.950 . S
C1514 C1513 1.398 . S
C1514 C1515 1.391 . S
C1515 H1503 0.950 . S
C1515 C1511 1.393 . S
C1515 C1514 1.391 . S
H1516 C1524 0.950 . S
H1517 C1529 0.950 . S
H1518 C1526 0.950 . S
H1519 C1528 0.951 . S
H1520 C1530 0.950 . S
H1521 C1532 0.950 . S
H1522 C1534 0.950 . S
H1523 C1535 0.950 . S
C1524 H1516 0.950 . S
C1524 C1525 1.388 . S
C1524 C1526 1.391 . S
C1525 C1524 1.388 . S
C1525 C1529 1.392 1_554 S
C1526 H1518 0.950 . S
C1526 C1524 1.391 . S
C1526 C1527 1.400 . S
C1527 C1526 1.400 . S
C1527 C1528 1.397 1_554 S
C1527 C1533 1.491 . S
C1528 H1519 0.951 . S
C1528 C1527 1.397 1_556 S
C1528 C1529 1.391 . S
C1529 H1517 0.950 . S
C1529 C1525 1.392 1_556 S
C1529 C1528 1.391 . S
C1530 H1520 0.950 . S
C1530 C1531 1.386 . S
C1530 C1532 1.391 . S
C1531 C1530 1.386 . S
C1531 C1535 1.393 . S
C1532 H1521 0.950 . S
C1532 C1530 1.391 . S
C1532 C1533 1.400 . S
C1533 C1527 1.491 . S
C1533 C1532 1.400 . S
C1533 C1534 1.398 . S
C1534 H1522 0.950 . S
C1534 C1533 1.398 . S
C1534 C1535 1.391 . S
C1535 H1523 0.950 . S
C1535 C1531 1.393 . S
C1535 C1534 1.391 . S
H1536 C1544 0.950 . S
H1537 C1549 0.950 . S
H1538 C1546 0.950 . S
H1539 C1548 0.950 . S
H1540 C1550 0.950 . S
H1541 C1552 0.950 . S
H1542 C1554 0.950 . S
H1543 C1555 0.950 . S
C1544 H1536 0.950 . S
C1544 C1545 1.386 . S
C1544 C1546 1.391 . S
C1545 C1544 1.386 . S
C1545 C1549 1.393 . S
C1546 H1538 0.950 . S
C1546 C1544 1.391 . S
C1546 C1547 1.400 . S
C1547 C1546 1.400 . S
C1547 C1548 1.398 . S
C1547 C1553 1.491 . S
C1548 H1539 0.950 . S
C1548 C1547 1.398 . S
C1548 C1549 1.391 . S
C1549 H1537 0.950 . S
C1549 C1545 1.393 . S
C1549 C1548 1.391 . S
C1550 H1540 0.950 . S
C1550 C1551 1.386 . S
C1550 C1552 1.391 . S
C1551 C1550 1.386 . S
C1551 C1555 1.393 . S
C1552 H1541 0.950 . S
C1552 C1550 1.391 . S
C1552 C1553 1.400 . S
C1553 C1547 1.491 . S
C1553 C1552 1.400 . S
C1553 C1554 1.398 . S
C1554 H1542 0.950 . S
C1554 C1553 1.398 . S
C1554 C1555 1.391 . S
C1555 H1543 0.950 . S
C1555 C1551 1.393 . S
C1555 C1554 1.391 . S
H1556 C1564 0.950 . S
H1557 C1569 0.950 . S
H1558 C1566 0.950 . S
H1559 C1568 0.950 . S
H1560 C1570 0.950 . S
H1561 C1572 0.950 . S
H1562 C1574 0.950 . S
H1563 C1575 0.950 . S
C1564 H1556 0.950 . S
C1564 C1565 1.386 . S
C1564 C1566 1.391 . S
C1565 C1564 1.386 . S
C1565 C1569 1.393 . S
C1566 H1558 0.950 . S
C1566 C1564 1.391 . S
C1566 C1567 1.400 . S
C1567 C1566 1.400 . S
C1567 C1568 1.398 . S
C1567 C1573 1.491 . S
C1568 H1559 0.950 . S
C1568 C1567 1.398 . S
C1568 C1569 1.391 . S
C1569 H1557 0.950 . S
C1569 C1565 1.393 . S
C1569 C1568 1.391 . S
C1570 H1560 0.950 . S
C1570 C1571 1.386 . S
C1570 C1572 1.391 . S
C1571 C1570 1.386 . S
C1571 C1575 1.393 . S
C1572 H1561 0.950 . S
C1572 C1570 1.391 . S
C1572 C1573 1.400 . S
C1573 C1567 1.491 . S
C1573 C1572 1.400 . S
C1573 C1574 1.398 . S
C1574 H1562 0.950 . S
C1574 C1573 1.398 . S
C1574 C1575 1.391 . S
C1575 H1563 0.950 . S
C1575 C1571 1.393 . S
C1575 C1574 1.391 . S
H1576 C1584 0.950 . S
H1577 C1589 0.950 . S
H1578 C1586 0.950 . S
H1579 C1588 0.950 . S
H1580 C1590 0.950 . S
H1581 C1592 0.950 . S
H1582 C1594 0.950 . S
H1583 C1595 0.950 . S
C1584 H1576 0.950 . S
C1584 C1585 1.386 . S
C1584 C1586 1.391 . S
C1585 C1584 1.386 . S
C1585 C1589 1.393 . S
C1586 H1578 0.950 . S
C1586 C1584 1.391 . S
C1586 C1587 1.400 . S
C1587 C1586 1.400 . S
C1587 C1588 1.398 . S
C1587 C1593 1.491 . S
C1588 H1579 0.950 . S
C1588 C1587 1.398 . S
C1588 C1589 1.391 . S
C1589 H1577 0.950 . S
C1589 C1585 1.393 . S
C1589 C1588 1.391 . S
C1590 H1580 0.950 . S
C1590 C1591 1.386 . S
C1590 C1592 1.391 . S
C1591 C1590 1.386 . S
C1591 C1595 1.393 . S
C1592 H1581 0.950 . S
C1592 C1590 1.391 . S
C1592 C1593 1.400 . S
C1593 C1587 1.491 . S
C1593 C1592 1.400 . S
C1593 C1594 1.398 . S
C1594 H1582 0.950 . S
C1594 C1593 1.398 . S
C1594 C1595 1.391 . S
C1595 H1583 0.950 . S
C1595 C1591 1.393 . S
C1595 C1594 1.391 . S
H1596 C1604 0.950 . S
H1597 C1609 0.950 . S
H1598 C1606 0.950 . S
H1599 C1608 0.950 . S
H1600 C1610 0.950 . S
H1601 C1612 0.950 . S
H1602 C1614 0.950 . S
H1603 C1615 0.950 . S
C1604 H1596 0.950 . S
C1604 C1605 1.386 . S
C1604 C1606 1.391 . S
C1605 C1604 1.386 . S
C1605 C1609 1.393 . S
C1606 H1598 0.950 . S
C1606 C1604 1.391 . S
C1606 C1607 1.400 . S
C1607 C1606 1.400 . S
C1607 C1608 1.398 . S
C1607 C1613 1.491 . S
C1608 H1599 0.950 . S
C1608 C1607 1.398 . S
C1608 C1609 1.391 . S
C1609 H1597 0.950 . S
C1609 C1605 1.393 . S
C1609 C1608 1.391 . S
C1610 H1600 0.950 . S
C1610 C1611 1.386 . S
C1610 C1612 1.391 . S
C1611 C1610 1.386 . S
C1611 C1615 1.393 . S
C1612 H1601 0.950 . S
C1612 C1610 1.391 . S
C1612 C1613 1.400 . S
C1613 C1607 1.491 . S
C1613 C1612 1.400 . S
C1613 C1614 1.398 . S
C1614 H1602 0.950 . S
C1614 C1613 1.398 . S
C1614 C1615 1.391 . S
C1615 H1603 0.950 . S
C1615 C1611 1.393 . S
C1615 C1614 1.391 . S
H1616 C1624 0.950 . S
H1617 C1629 0.950 . S
H1618 C1626 0.950 . S
H1619 C1628 0.950 . S
H1620 C1630 0.950 . S
H1621 C1632 0.950 . S
H1622 C1634 0.950 . S
H1623 C1635 0.950 . S
C1624 H1616 0.950 . S
C1624 C1625 1.386 . S
C1624 C1626 1.391 . S
C1625 C1624 1.386 . S
C1625 C1629 1.393 . S
C1626 H1618 0.950 . S
C1626 C1624 1.391 . S
C1626 C1627 1.400 . S
C1627 C1626 1.400 . S
C1627 C1628 1.398 . S
C1627 C1633 1.491 . S
C1628 H1619 0.950 . S
C1628 C1627 1.398 . S
C1628 C1629 1.391 . S
C1629 H1617 0.950 . S
C1629 C1625 1.393 . S
C1629 C1628 1.391 . S
C1630 H1620 0.950 . S
C1630 C1631 1.386 . S
C1630 C1632 1.391 . S
C1631 C1630 1.386 . S
C1631 C1635 1.393 . S
C1632 H1621 0.950 . S
C1632 C1630 1.391 . S
C1632 C1633 1.400 . S
C1633 C1627 1.491 . S
C1633 C1632 1.400 . S
C1633 C1634 1.398 . S
C1634 H1622 0.950 . S
C1634 C1633 1.398 . S
C1634 C1635 1.391 . S
C1635 H1623 0.950 . S
C1635 C1631 1.393 . S
C1635 C1634 1.391 . S
H1636 C1644 0.950 . S
H1637 C1649 0.950 . S
H1638 C1646 0.950 . S
H1639 C1648 0.950 . S
H1640 C1650 0.950 . S
H1641 C1652 0.950 . S
H1642 C1654 0.950 . S
H1643 C1655 0.950 . S
C1644 H1636 0.950 . S
C1644 C1645 1.386 . S
C1644 C1646 1.391 . S
C1645 C1644 1.386 . S
C1645 C1649 1.393 . S
C1646 H1638 0.950 . S
C1646 C1644 1.391 . S
C1646 C1647 1.400 . S
C1647 C1646 1.400 . S
C1647 C1648 1.398 . S
C1647 C1653 1.491 . S
C1648 H1639 0.950 . S
C1648 C1647 1.398 . S
C1648 C1649 1.391 . S
C1649 H1637 0.950 . S
C1649 C1645 1.393 . S
C1649 C1648 1.391 . S
C1650 H1640 0.950 . S
C1650 C1651 1.386 . S
C1650 C1652 1.391 . S
C1651 C1650 1.386 . S
C1651 C1655 1.393 . S
C1652 H1641 0.950 . S
C1652 C1650 1.391 . S
C1652 C1653 1.400 . S
C1653 C1647 1.491 . S
C1653 C1652 1.400 . S
C1653 C1654 1.398 . S
C1654 H1642 0.950 . S
C1654 C1653 1.398 . S
C1654 C1655 1.391 . S
C1655 H1643 0.950 . S
C1655 C1651 1.393 . S
C1655 C1654 1.391 . S
H1656 C1664 0.950 . S
H1657 C1669 0.950 . S
H1658 C1666 0.950 . S
H1659 C1668 0.950 . S
H1660 C1670 0.950 . S
H1661 C1672 0.950 . S
H1662 C1674 0.950 . S
H1663 C1675 0.950 . S
C1664 H1656 0.950 . S
C1664 C1665 1.386 . S
C1664 C1666 1.391 . S
C1665 C1664 1.386 . S
C1665 C1669 1.393 . S
C1666 H1658 0.950 . S
C1666 C1664 1.391 . S
C1666 C1667 1.400 . S
C1667 C1666 1.400 . S
C1667 C1668 1.398 . S
C1667 C1673 1.491 . S
C1668 H1659 0.950 . S
C1668 C1667 1.398 . S
C1668 C1669 1.391 . S
C1669 H1657 0.950 . S
C1669 C1665 1.393 . S
C1669 C1668 1.391 . S
C1670 H1660 0.950 . S
C1670 C1671 1.386 . S
C1670 C1672 1.391 . S
C1671 C1670 1.386 . S
C1671 C1675 1.393 . S
C1672 H1661 0.950 . S
C1672 C1670 1.391 . S
C1672 C1673 1.400 . S
C1673 C1667 1.491 . S
C1673 C1672 1.400 . S
C1673 C1674 1.398 . S
C1674 H1662 0.950 . S
C1674 C1673 1.398 . S
C1674 C1675 1.391 . S
C1675 H1663 0.950 . S
C1675 C1671 1.393 . S
C1675 C1674 1.391 . S
H1676 C1684 0.950 . S
H1677 C1689 0.950 . S
H1678 C1686 0.950 . S
H1679 C1688 0.950 . S
H1680 C1690 0.950 . S
H1681 C1692 0.950 . S
H1682 C1694 0.950 . S
H1683 C1695 0.950 . S
C1684 H1676 0.950 . S
C1684 C1685 1.386 . S
C1684 C1686 1.391 . S
C1685 C1684 1.386 . S
C1685 C1689 1.393 . S
C1686 H1678 0.950 . S
C1686 C1684 1.391 . S
C1686 C1687 1.400 . S
C1687 C1686 1.400 . S
C1687 C1688 1.398 . S
C1687 C1693 1.491 . S
C1688 H1679 0.950 . S
C1688 C1687 1.398 . S
C1688 C1689 1.391 . S
C1689 H1677 0.950 . S
C1689 C1685 1.393 . S
C1689 C1688 1.391 . S
C1690 H1680 0.950 . S
C1690 C1691 1.386 . S
C1690 C1692 1.391 . S
C1691 C1690 1.386 . S
C1691 C1695 1.393 . S
C1692 H1681 0.950 . S
C1692 C1690 1.391 . S
C1692 C1693 1.400 . S
C1693 C1687 1.491 . S
C1693 C1692 1.400 . S
C1693 C1694 1.398 . S
C1694 H1682 0.950 . S
C1694 C1693 1.398 . S
C1694 C1695 1.391 . S
C1695 H1683 0.950 . S
C1695 C1691 1.393 . S
C1695 C1694 1.391 . S
H1696 C1704 0.950 . S
H1697 C1709 0.950 . S
H1698 C1706 0.950 . S
H1699 C1708 0.950 . S
H1700 C1710 0.950 . S
H1701 C1712 0.950 . S
H1702 C1714 0.950 . S
H1703 C1715 0.950 . S
C1704 H1696 0.950 . S
C1704 C1705 1.386 . S
C1704 C1706 1.391 . S
C1705 C1704 1.386 . S
C1705 C1709 1.393 . S
C1706 H1698 0.950 . S
C1706 C1704 1.391 . S
C1706 C1707 1.400 . S
C1707 C1706 1.400 . S
C1707 C1708 1.398 . S
C1707 C1713 1.491 . S
C1708 H1699 0.950 . S
C1708 C1707 1.398 . S
C1708 C1709 1.391 . S
C1709 H1697 0.950 . S
C1709 C1705 1.393 . S
C1709 C1708 1.391 . S
C1710 H1700 0.950 . S
C1710 C1711 1.386 . S
C1710 C1712 1.391 . S
C1711 C1710 1.386 . S
C1711 C1715 1.393 . S
C1712 H1701 0.950 . S
C1712 C1710 1.391 . S
C1712 C1713 1.400 . S
C1713 C1707 1.491 . S
C1713 C1712 1.400 . S
C1713 C1714 1.398 . S
C1714 H1702 0.950 . S
C1714 C1713 1.398 . S
C1714 C1715 1.391 . S
C1715 H1703 0.950 . S
C1715 C1711 1.393 . S
C1715 C1714 1.391 . S
H1716 C1724 0.950 . S
H1717 C1729 0.950 . S
H1718 C1726 0.950 . S
H1719 C1728 0.950 . S
H1720 C1730 0.950 . S
H1721 C1732 0.950 . S
H1722 C1734 0.950 . S
H1723 C1735 0.950 . S
C1724 H1716 0.950 . S
C1724 C1725 1.386 . S
C1724 C1726 1.391 . S
C1725 C1724 1.386 . S
C1725 C1729 1.393 . S
C1726 H1718 0.950 . S
C1726 C1724 1.391 . S
C1726 C1727 1.400 . S
C1727 C1726 1.400 . S
C1727 C1728 1.398 . S
C1727 C1733 1.491 . S
C1728 H1719 0.950 . S
C1728 C1727 1.398 . S
C1728 C1729 1.391 . S
C1729 H1717 0.950 . S
C1729 C1725 1.393 . S
C1729 C1728 1.391 . S
C1730 H1720 0.950 . S
C1730 C1731 1.386 . S
C1730 C1732 1.391 . S
C1731 C1730 1.386 . S
C1731 C1735 1.393 . S
C1732 H1721 0.950 . S
C1732 C1730 1.391 . S
C1732 C1733 1.400 . S
C1733 C1727 1.491 . S
C1733 C1732 1.400 . S
C1733 C1734 1.398 . S
C1734 H1722 0.950 . S
C1734 C1733 1.398 . S
C1734 C1735 1.391 . S
C1735 H1723 0.950 . S
C1735 C1731 1.393 . S
C1735 C1734 1.391 . S
H1736 C1744 0.950 . S
H1737 C1749 0.950 . S
H1738 C1746 0.950 . S
H1739 C1748 0.950 . S
H1740 C1750 0.950 . S
H1741 C1752 0.950 . S
H1742 C1754 0.950 . S
H1743 C1755 0.950 . S
C1744 H1736 0.950 . S
C1744 C1745 1.386 . S
C1744 C1746 1.391 . S
C1745 C1744 1.386 . S
C1745 C1749 1.393 . S
C1746 H1738 0.950 . S
C1746 C1744 1.391 . S
C1746 C1747 1.400 . S
C1747 C1746 1.400 . S
C1747 C1748 1.398 . S
C1747 C1753 1.491 . S
C1748 H1739 0.950 . S
C1748 C1747 1.398 . S
C1748 C1749 1.391 . S
C1749 H1737 0.950 . S
C1749 C1745 1.393 . S
C1749 C1748 1.391 . S
C1750 H1740 0.950 . S
C1750 C1751 1.386 . S
C1750 C1752 1.391 . S
C1751 C1750 1.386 . S
C1751 C1755 1.393 . S
C1752 H1741 0.950 . S
C1752 C1750 1.391 . S
C1752 C1753 1.400 . S
C1753 C1747 1.491 . S
C1753 C1752 1.400 . S
C1753 C1754 1.398 . S
C1754 H1742 0.950 . S
C1754 C1753 1.398 . S
C1754 C1755 1.391 . S
C1755 H1743 0.950 . S
C1755 C1751 1.393 . S
C1755 C1754 1.391 . S
H1756 C1764 0.950 . S
H1757 C1769 0.950 . S
H1758 C1766 0.950 . S
H1759 C1768 0.950 . S
H1760 C1770 0.950 . S
H1761 C1772 0.950 . S
H1762 C1774 0.950 . S
H1763 C1775 0.950 . S
C1764 H1756 0.950 . S
C1764 C1765 1.386 . S
C1764 C1766 1.391 . S
C1765 C1764 1.386 . S
C1765 C1769 1.393 . S
C1766 H1758 0.950 . S
C1766 C1764 1.391 . S
C1766 C1767 1.400 . S
C1767 C1766 1.400 . S
C1767 C1768 1.398 . S
C1767 C1773 1.491 . S
C1768 H1759 0.950 . S
C1768 C1767 1.398 . S
C1768 C1769 1.391 . S
C1769 H1757 0.950 . S
C1769 C1765 1.393 . S
C1769 C1768 1.391 . S
C1770 H1760 0.950 . S
C1770 C1771 1.386 . S
C1770 C1772 1.391 . S
C1771 C1770 1.386 . S
C1771 C1775 1.393 . S
C1772 H1761 0.950 . S
C1772 C1770 1.391 . S
C1772 C1773 1.400 . S
C1773 C1767 1.491 . S
C1773 C1772 1.400 . S
C1773 C1774 1.398 . S
C1774 H1762 0.950 . S
C1774 C1773 1.398 . S
C1774 C1775 1.391 . S
C1775 H1763 0.950 . S
C1775 C1771 1.393 . S
C1775 C1774 1.391 . S
H1776 C1784 0.950 . S
H1777 C1789 0.950 . S
H1778 C1786 0.950 . S
H1779 C1788 0.950 . S
H1780 C1790 0.950 . S
H1781 C1792 0.950 . S
H1782 C1794 0.950 . S
H1783 C1795 0.950 . S
C1784 H1776 0.950 . S
C1784 C1785 1.386 . S
C1784 C1786 1.391 . S
C1785 C1784 1.386 . S
C1785 C1789 1.393 . S
C1786 H1778 0.950 . S
C1786 C1784 1.391 . S
C1786 C1787 1.400 . S
C1787 C1786 1.400 . S
C1787 C1788 1.398 . S
C1787 C1793 1.491 . S
C1788 H1779 0.950 . S
C1788 C1787 1.398 . S
C1788 C1789 1.391 . S
C1789 H1777 0.950 . S
C1789 C1785 1.393 . S
C1789 C1788 1.391 . S
C1790 H1780 0.950 . S
C1790 C1791 1.386 . S
C1790 C1792 1.391 . S
C1791 C1790 1.386 . S
C1791 C1795 1.393 . S
C1792 H1781 0.950 . S
C1792 C1790 1.391 . S
C1792 C1793 1.400 . S
C1793 C1787 1.491 . S
C1793 C1792 1.400 . S
C1793 C1794 1.398 . S
C1794 H1782 0.950 . S
C1794 C1793 1.398 . S
C1794 C1795 1.391 . S
C1795 H1783 0.950 . S
C1795 C1791 1.393 . S
C1795 C1794 1.391 . S
H1796 C1804 0.950 . S
H1797 C1809 0.950 . S
H1798 C1806 0.950 . S
H1799 C1808 0.950 . S
H1800 C1810 0.950 . S
H1801 C1812 0.950 . S
H1802 C1814 0.950 . S
H1803 C1815 0.950 . S
C1804 H1796 0.950 . S
C1804 C1805 1.386 . S
C1804 C1806 1.391 . S
C1805 C1804 1.386 . S
C1805 C1809 1.393 . S
C1806 H1798 0.950 . S
C1806 C1804 1.391 . S
C1806 C1807 1.400 . S
C1807 C1806 1.400 . S
C1807 C1808 1.398 . S
C1807 C1813 1.491 . S
C1808 H1799 0.950 . S
C1808 C1807 1.398 . S
C1808 C1809 1.391 . S
C1809 H1797 0.950 . S
C1809 C1805 1.393 . S
C1809 C1808 1.391 . S
C1810 H1800 0.950 . S
C1810 C1811 1.386 . S
C1810 C1812 1.391 . S
C1811 C1810 1.386 . S
C1811 C1815 1.393 . S
C1812 H1801 0.950 . S
C1812 C1810 1.391 . S
C1812 C1813 1.400 . S
C1813 C1807 1.491 . S
C1813 C1812 1.400 . S
C1813 C1814 1.398 . S
C1814 H1802 0.950 . S
C1814 C1813 1.398 . S
C1814 C1815 1.391 . S
C1815 H1803 0.950 . S
C1815 C1811 1.393 . S
C1815 C1814 1.391 . S
H1816 C1824 0.950 . S
H1817 C1829 0.950 . S
H1818 C1826 0.950 . S
H1819 C1828 0.950 . S
H1820 C1830 0.950 . S
H1821 C1832 0.950 . S
H1822 C1834 0.950 . S
H1823 C1835 0.950 . S
C1824 H1816 0.950 . S
C1824 C1825 1.386 . S
C1824 C1826 1.391 . S
C1825 C1824 1.386 . S
C1825 C1829 1.393 . S
C1826 H1818 0.950 . S
C1826 C1824 1.391 . S
C1826 C1827 1.400 . S
C1827 C1826 1.400 . S
C1827 C1828 1.398 . S
C1827 C1833 1.491 . S
C1828 H1819 0.950 . S
C1828 C1827 1.398 . S
C1828 C1829 1.391 . S
C1829 H1817 0.950 . S
C1829 C1825 1.393 . S
C1829 C1828 1.391 . S
C1830 H1820 0.950 . S
C1830 C1831 1.386 . S
C1830 C1832 1.391 . S
C1831 C1830 1.386 . S
C1831 C1835 1.393 . S
C1832 H1821 0.950 . S
C1832 C1830 1.391 . S
C1832 C1833 1.400 . S
C1833 C1827 1.491 . S
C1833 C1832 1.400 . S
C1833 C1834 1.398 . S
C1834 H1822 0.950 . S
C1834 C1833 1.398 . S
C1834 C1835 1.391 . S
C1835 H1823 0.950 . S
C1835 C1831 1.393 . S
C1835 C1834 1.391 . S
H1836 C1844 0.950 . S
H1837 C1849 0.950 . S
H1838 C1846 0.950 . S
H1839 C1848 0.950 . S
H1840 C1850 0.950 . S
H1841 C1852 0.950 . S
H1842 C1854 0.950 . S
H1843 C1855 0.950 . S
C1844 H1836 0.950 . S
C1844 C1845 1.386 . S
C1844 C1846 1.391 . S
C1845 C1844 1.386 . S
C1845 C1849 1.393 . S
C1846 H1838 0.950 . S
C1846 C1844 1.391 . S
C1846 C1847 1.400 . S
C1847 C1846 1.400 . S
C1847 C1848 1.398 . S
C1847 C1853 1.491 . S
C1848 H1839 0.950 . S
C1848 C1847 1.398 . S
C1848 C1849 1.391 . S
C1849 H1837 0.950 . S
C1849 C1845 1.393 . S
C1849 C1848 1.391 . S
C1850 H1840 0.950 . S
C1850 C1851 1.386 . S
C1850 C1852 1.391 . S
C1851 C1850 1.386 . S
C1851 C1855 1.393 . S
C1852 H1841 0.950 . S
C1852 C1850 1.391 . S
C1852 C1853 1.400 . S
C1853 C1847 1.491 . S
C1853 C1852 1.400 . S
C1853 C1854 1.398 . S
C1854 H1842 0.950 . S
C1854 C1853 1.398 . S
C1854 C1855 1.391 . S
C1855 H1843 0.950 . S
C1855 C1851 1.393 . S
C1855 C1854 1.391 . S
H1856 C1864 0.950 . S
H1857 C1869 0.950 . S
H1858 C1866 0.950 . S
H1859 C1868 0.950 . S
H1860 C1870 0.950 . S
H1861 C1872 0.950 . S
H1862 C1874 0.950 . S
H1863 C1875 0.950 . S
C1864 H1856 0.950 . S
C1864 C1865 1.386 . S
C1864 C1866 1.391 . S
C1865 C1864 1.386 . S
C1865 C1869 1.393 . S
C1866 H1858 0.950 . S
C1866 C1864 1.391 . S
C1866 C1867 1.400 . S
C1867 C1866 1.400 . S
C1867 C1868 1.398 . S
C1867 C1873 1.491 . S
C1868 H1859 0.950 . S
C1868 C1867 1.398 . S
C1868 C1869 1.391 . S
C1869 H1857 0.950 . S
C1869 C1865 1.393 . S
C1869 C1868 1.391 . S
C1870 H1860 0.950 . S
C1870 C1871 1.386 . S
C1870 C1872 1.391 . S
C1871 C1870 1.386 . S
C1871 C1875 1.393 . S
C1872 H1861 0.950 . S
C1872 C1870 1.391 . S
C1872 C1873 1.400 . S
C1873 C1867 1.491 . S
C1873 C1872 1.400 . S
C1873 C1874 1.398 . S
C1874 H1862 0.950 . S
C1874 C1873 1.398 . S
C1874 C1875 1.391 . S
C1875 H1863 0.950 . S
C1875 C1871 1.393 . S
C1875 C1874 1.391 . S
H1876 C1884 0.950 . S
H1877 C1889 0.950 . S
H1878 C1886 0.950 . S
H1879 C1888 0.950 . S
H1880 C1890 0.950 . S
H1881 C1892 0.950 . S
H1882 C1894 0.950 . S
H1883 C1895 0.950 . S
C1884 H1876 0.950 . S
C1884 C1885 1.386 . S
C1884 C1886 1.391 . S
C1885 C1884 1.386 . S
C1885 C1889 1.393 . S
C1886 H1878 0.950 . S
C1886 C1884 1.391 . S
C1886 C1887 1.400 . S
C1887 C1886 1.400 . S
C1887 C1888 1.398 . S
C1887 C1893 1.491 . S
C1888 H1879 0.950 . S
C1888 C1887 1.398 . S
C1888 C1889 1.391 . S
C1889 H1877 0.950 . S
C1889 C1885 1.393 . S
C1889 C1888 1.391 . S
C1890 H1880 0.950 . S
C1890 C1891 1.386 . S
C1890 C1892 1.391 . S
C1891 C1890 1.386 . S
C1891 C1895 1.393 . S
C1892 H1881 0.950 . S
C1892 C1890 1.391 . S
C1892 C1893 1.400 . S
C1893 C1887 1.491 . S
C1893 C1892 1.400 . S
C1893 C1894 1.398 . S
C1894 H1882 0.950 . S
C1894 C1893 1.398 . S
C1894 C1895 1.391 . S
C1895 H1883 0.950 . S
C1895 C1891 1.393 . S
C1895 C1894 1.391 . S
H1896 C1904 0.950 . S
H1897 C1909 0.950 . S
H1898 C1906 0.950 . S
H1899 C1908 0.950 . S
H1900 C1910 0.950 . S
H1901 C1912 0.950 . S
H1902 C1914 0.950 . S
H1903 C1915 0.950 . S
C1904 H1896 0.950 . S
C1904 C1905 1.386 . S
C1904 C1906 1.391 . S
C1905 C1904 1.386 . S
C1905 C1909 1.393 . S
C1906 H1898 0.950 . S
C1906 C1904 1.391 . S
C1906 C1907 1.400 . S
C1907 C1906 1.400 . S
C1907 C1908 1.398 . S
C1907 C1913 1.491 . S
C1908 H1899 0.950 . S
C1908 C1907 1.398 . S
C1908 C1909 1.391 . S
C1909 H1897 0.950 . S
C1909 C1905 1.393 . S
C1909 C1908 1.391 . S
C1910 H1900 0.950 . S
C1910 C1911 1.386 . S
C1910 C1912 1.391 . S
C1911 C1910 1.386 . S
C1911 C1915 1.393 . S
C1912 H1901 0.950 . S
C1912 C1910 1.391 . S
C1912 C1913 1.400 . S
C1913 C1907 1.491 . S
C1913 C1912 1.400 . S
C1913 C1914 1.398 . S
C1914 H1902 0.950 . S
C1914 C1913 1.398 . S
C1914 C1915 1.391 . S
C1915 H1903 0.950 . S
C1915 C1911 1.393 . S
C1915 C1914 1.391 . S
H1916 C1924 0.950 . S
H1917 C1929 0.950 . S
H1918 C1926 0.950 . S
H1919 C1928 0.950 . S
H1920 C1930 0.950 . S
H1921 C1932 0.950 . S
H1922 C1934 0.950 . S
H1923 C1935 0.950 . S
C1924 H1916 0.950 . S
C1924 C1925 1.386 . S
C1924 C1926 1.391 . S
C1925 C1924 1.386 . S
C1925 C1929 1.393 . S
C1926 H1918 0.950 . S
C1926 C1924 1.391 . S
C1926 C1927 1.400 . S
C1927 C1926 1.400 . S
C1927 C1928 1.398 . S
C1927 C1933 1.491 . S
C1928 H1919 0.950 . S
C1928 C1927 1.398 . S
C1928 C1929 1.391 . S
C1929 H1917 0.950 . S
C1929 C1925 1.393 . S
C1929 C1928 1.391 . S
C1930 H1920 0.950 . S
C1930 C1931 1.386 . S
C1930 C1932 1.391 . S
C1931 C1930 1.386 . S
C1931 C1935 1.393 . S
C1932 H1921 0.950 . S
C1932 C1930 1.391 . S
C1932 C1933 1.400 . S
C1933 C1927 1.491 . S
C1933 C1932 1.400 . S
C1933 C1934 1.398 . S
C1934 H1922 0.950 . S
C1934 C1933 1.398 . S
C1934 C1935 1.391 . S
C1935 H1923 0.950 . S
C1935 C1931 1.393 . S
C1935 C1934 1.391 . S
H1936 C1944 0.950 . S
H1937 C1949 0.950 . S
H1938 C1946 0.950 . S
H1939 C1948 0.950 . S
H1940 C1950 0.950 . S
H1941 C1952 0.950 . S
H1942 C1954 0.950 . S
H1943 C1955 0.950 . S
C1944 H1936 0.950 . S
C1944 C1945 1.386 . S
C1944 C1946 1.391 . S
C1945 C1944 1.386 . S
C1945 C1949 1.393 . S
C1946 H1938 0.950 . S
C1946 C1944 1.391 . S
C1946 C1947 1.400 . S
C1947 C1946 1.400 . S
C1947 C1948 1.398 . S
C1947 C1953 1.491 . S
C1948 H1939 0.950 . S
C1948 C1947 1.398 . S
C1948 C1949 1.391 . S
C1949 H1937 0.950 . S
C1949 C1945 1.393 . S
C1949 C1948 1.391 . S
C1950 H1940 0.950 . S
C1950 C1951 1.386 . S
C1950 C1952 1.391 . S
C1951 C1950 1.386 . S
C1951 C1955 1.393 . S
C1952 H1941 0.950 . S
C1952 C1950 1.391 . S
C1952 C1953 1.400 . S
C1953 C1947 1.491 . S
C1953 C1952 1.400 . S
C1953 C1954 1.398 . S
C1954 H1942 0.950 . S
C1954 C1953 1.398 . S
C1954 C1955 1.391 . S
C1955 H1943 0.950 . S
C1955 C1951 1.393 . S
C1955 C1954 1.391 . S
H1956 C1964 0.950 . S
H1957 C1969 0.950 . S
H1958 C1966 0.950 . S
H1959 C1968 0.950 . S
H1960 C1970 0.950 . S
H1961 C1972 0.950 . S
H1962 C1974 0.950 . S
H1963 C1975 0.950 . S
C1964 H1956 0.950 . S
C1964 C1965 1.386 . S
C1964 C1966 1.391 . S
C1965 C1964 1.386 . S
C1965 C1969 1.393 . S
C1966 H1958 0.950 . S
C1966 C1964 1.391 . S
C1966 C1967 1.400 . S
C1967 C1966 1.400 . S
C1967 C1968 1.398 . S
C1967 C1973 1.491 . S
C1968 H1959 0.950 . S
C1968 C1967 1.398 . S
C1968 C1969 1.391 . S
C1969 H1957 0.950 . S
C1969 C1965 1.393 . S
C1969 C1968 1.391 . S
C1970 H1960 0.950 . S
C1970 C1971 1.386 . S
C1970 C1972 1.391 . S
C1971 C1970 1.386 . S
C1971 C1975 1.393 . S
C1972 H1961 0.950 . S
C1972 C1970 1.391 . S
C1972 C1973 1.400 . S
C1973 C1967 1.491 . S
C1973 C1972 1.400 . S
C1973 C1974 1.398 . S
C1974 H1962 0.950 . S
C1974 C1973 1.398 . S
C1974 C1975 1.391 . S
C1975 H1963 0.950 . S
C1975 C1971 1.393 . S
C1975 C1974 1.391 . S
H1976 C1984 0.950 . S
H1977 C1989 0.950 . S
H1978 C1986 0.950 . S
H1979 C1988 0.950 . S
H1980 C1990 0.950 . S
H1981 C1992 0.950 . S
H1982 C1994 0.950 . S
H1983 C1995 0.950 . S
C1984 H1976 0.950 . S
C1984 C1985 1.386 . S
C1984 C1986 1.391 . S
C1985 C1984 1.386 . S
C1985 C1989 1.393 . S
C1986 H1978 0.950 . S
C1986 C1984 1.391 . S
C1986 C1987 1.400 . S
C1987 C1986 1.400 . S
C1987 C1988 1.398 . S
C1987 C1993 1.491 . S
C1988 H1979 0.950 . S
C1988 C1987 1.398 . S
C1988 C1989 1.391 . S
C1989 H1977 0.950 . S
C1989 C1985 1.393 . S
C1989 C1988 1.391 . S
C1990 H1980 0.950 . S
C1990 C1991 1.386 . S
C1990 C1992 1.391 . S
C1991 C1990 1.386 . S
C1991 C1995 1.393 . S
C1992 H1981 0.950 . S
C1992 C1990 1.391 . S
C1992 C1993 1.400 . S
C1993 C1987 1.491 . S
C1993 C1992 1.400 . S
C1993 C1994 1.398 . S
C1994 H1982 0.950 . S
C1994 C1993 1.398 . S
C1994 C1995 1.391 . S
C1995 H1983 0.950 . S
C1995 C1991 1.393 . S
C1995 C1994 1.391 . S
H1996 C2004 0.950 . S
H1997 C2009 0.950 . S
H1998 C2006 0.950 . S
H1999 C2008 0.950 . S
H2000 C2010 0.950 . S
H2001 C2012 0.950 . S
H2002 C2014 0.950 . S
H2003 C2015 0.950 . S
C2004 H1996 0.950 . S
C2004 C2005 1.386 . S
C2004 C2006 1.391 . S
C2005 C2004 1.386 . S
C2005 C2009 1.393 . S
C2006 H1998 0.950 . S
C2006 C2004 1.391 . S
C2006 C2007 1.400 . S
C2007 C2006 1.400 . S
C2007 C2008 1.398 . S
C2007 C2013 1.491 . S
C2008 H1999 0.950 . S
C2008 C2007 1.398 . S
C2008 C2009 1.391 . S
C2009 H1997 0.950 . S
C2009 C2005 1.393 . S
C2009 C2008 1.391 . S
C2010 H2000 0.950 . S
C2010 C2011 1.386 . S
C2010 C2012 1.391 . S
C2011 C2010 1.386 . S
C2011 C2015 1.393 . S
C2012 H2001 0.950 . S
C2012 C2010 1.391 . S
C2012 C2013 1.400 . S
C2013 C2007 1.491 . S
C2013 C2012 1.400 . S
C2013 C2014 1.398 . S
C2014 H2002 0.950 . S
C2014 C2013 1.398 . S
C2014 C2015 1.391 . S
C2015 H2003 0.950 . S
C2015 C2011 1.393 . S
C2015 C2014 1.391 . S
C591 C306 1.201 . S
C585 C258 1.267 . S
C605 C236 1.608 . S
C611 C300 1.545 . S
C631 C268 1.654 . S
C625 C225 1.744 . S
C645 C247 1.448 . S
C651 C282 1.378 . S
C671 C320 1.879 . S
C665 C181 1.994 . S
C691 C407 1.350 . S
C685 C192 1.381 . S
C705 C203 2.017 . S
C711 C334 1.921 . S
C731 C402 1.324 . S
C725 C214 1.335 . S
C745 C137 2.124 . S
C751 C358 2.025 . S
C771 C413 1.605 . S
C765 C148 1.649 . S
C785 C159 2.053 . S
C791 C352 1.976 . S
C805 C170 1.007 . S
C811 C398 0.985 . S
C831 C454 1.016 . S
C825 C126 1.044 . S
C845 C104 1.705 . S
C851 C465 1.664 . S
C865 C93 1.415 . S
C871 C450 1.386 . S
C891 C459 1.434 . S
C885 C115 1.462 1_554 S
C905 C49 1.552 . S
C911 C504 1.491 . S
C925 C60 0.687 . S
C931 C563 0.679 . S
C945 C71 1.685 . S
C951 C520 1.582 . S
C965 C82 1.320 . S
C971 C558 1.301 . S
C991 C522 1.695 . S
C985 C5 1.802 . S
C1011 C569 0.827 . S
C1005 C16 0.832 . S
C1025 C27 1.635 . S
C1031 C498 1.552 . S
C1051 C554 0.918 . S
C1045 C38 0.926 . S
C1071 C290 1.662 . S
C1065 C4 1.711 . S
C1085 C21 1.171 . S
C1091 C294 1.219 . S
C1105 C32 1.485 . S
C1111 C314 1.465 . S
C1125 C37 0.975 . S
C1131 C309 0.972 . S
C1145 C48 1.759 . S
C1151 C312 1.711 . S
C1171 C298 1.263 . S
C1165 C59 1.250 . S
C1185 C76 1.408 . S
C1191 C296 1.413 . S
C1211 C303 1.280 . S
C1205 C81 1.271 . S
C1231 C366 1.362 . S
C1225 C43 1.359 . S
C1245 C10 1.772 . S
C1251 C416 1.748 . S
C1271 C364 1.386 . S
C1265 C15 1.436 . S
C1291 C400 1.892 . S
C1285 C26 2.009 . S
C1305 C65 1.053 . S
C1311 C342 1.067 . S
C1331 C418 1.848 . S
C1325 C70 1.929 . S
C1351 C348 1.389 . S
C1345 C87 1.374 . S
C1371 C394 1.596 . S
C1365 C54 1.550 . S
C1391 C386 1.402 . S
C1385 C98 1.387 . S
C1405 C109 1.221 . S
C1411 C410 1.255 . S
C1431 C346 1.354 . S
C1425 C92 1.339 . S
C1451 C372 1.283 1_556 S
C1445 C114 1.306 . S
C1465 C131 0.943 . S
C1471 C350 0.969 . S
C1485 C125 1.379 . S
C1491 C404 1.360 1_556 S
C1511 C361 1.579 . S
C1505 C103 1.542 . S
C1531 C355 1.293 . S
C1525 C120 1.204 . S
C1551 C438 1.945 . S
C1545 C136 2.028 . S
C1571 C470 1.430 . S
C1565 C153 1.373 . S
C1585 C164 1.705 . S
C1591 C424 1.765 . S
C1611 C468 1.120 . S
C1605 C169 1.127 . S
C1631 C456 1.940 . S
C1625 C180 1.970 . S
C1645 C191 1.356 . S
C1651 C452 1.401 . S
C1665 C208 1.682 . S
C1671 C462 1.773 . S
C1691 C446 1.411 . S
C1685 C213 1.439 . S
C1711 C511 1.258 . S
C1705 C175 1.204 . S
C1725 C142 1.530 . S
C1731 C572 1.566 . S
C1751 C506 1.268 . S
C1745 C147 1.265 . S
C1771 C556 1.715 . S
C1765 C158 1.762 . S
C1791 C502 0.995 . S
C1785 C197 0.974 . S
C1805 C202 1.654 . S
C1811 C574 1.615 . S
C1831 C517 1.285 . S
C1825 C219 1.223 . S
C1851 C550 1.354 . S
C1845 C186 1.314 . S
C1871 C542 1.542 . S
C1865 C230 1.536 . S
C1885 C241 1.631 . S
C1891 C566 1.611 . S
C1911 C508 1.550 . S
C1905 C224 1.590 . S
C1925 C246 1.722 . S
C1931 C528 1.660 . S
C1951 C490 1.266 . S
C1945 C263 1.254 . S
C1971 C560 1.468 . S
C1965 C257 1.520 . S
C1991 C476 1.577 . S
C1985 C235 1.633 . S
C2005 C252 1.222 . S
C2011 C514 1.227 . S
