# Generated by pormake.
# Topology pyr, (3,6)-cn, num edge types: 1
# Building blocks:
#     Node 0, Type 0, BuildingBlock: QEWDON_clean_linker_0, # of connection points: 3
#     Node 1, Type 0, BuildingBlock: QEWDON_clean_linker_0, # of connection points: 3
#     Node 2, Type 0, BuildingBlock: QEWDON_clean_linker_0, # of connection points: 3
#     Node 3, Type 0, BuildingBlock: QEWDON_clean_linker_0, # of connection points: 3
#     Node 4, Type 0, BuildingBlock: QEWDON_clean_linker_0, # of connection points: 3
#     Node 5, Type 0, BuildingBlock: QEWDON_clean_linker_0, # of connection points: 3
#     Node 6, Type 0, BuildingBlock: QEWDON_clean_linker_0, # of connection points: 3
#     Node 7, Type 0, BuildingBlock: QEWDON_clean_linker_0, # of connection points: 3
#     Node 8, Type 1, BuildingBlock: FUNLAD_clean_sbu_0, # of connection points: 6
#     Node 9, Type 1, BuildingBlock: FUNLAD_clean_sbu_0, # of connection points: 6
#     Node 10, Type 1, BuildingBlock: FUNLAD_clean_sbu_0, # of connection points: 6
#     Node 11, Type 1, BuildingBlock: FUNLAD_clean_sbu_0, # of connection points: 6
#     Edge 12, Type (0, 1), BuildingBlock: XIVTED_clean_linker_0, # of connection points: 2
#     Edge 13, Type (0, 1), BuildingBlock: XIVTED_clean_linker_0, # of connection points: 2
#     Edge 14, Type (0, 1), BuildingBlock: XIVTED_clean_linker_0, # of connection points: 2
#     Edge 15, Type (0, 1), BuildingBlock: XIVTED_clean_linker_0, # of connection points: 2
#     Edge 16, Type (0, 1), BuildingBlock: XIVTED_clean_linker_0, # of connection points: 2
#     Edge 17, Type (0, 1), BuildingBlock: XIVTED_clean_linker_0, # of connection points: 2
#     Edge 18, Type (0, 1), BuildingBlock: XIVTED_clean_linker_0, # of connection points: 2
#     Edge 19, Type (0, 1), BuildingBlock: XIVTED_clean_linker_0, # of connection points: 2
#     Edge 20, Type (0, 1), BuildingBlock: XIVTED_clean_linker_0, # of connection points: 2
#     Edge 21, Type (0, 1), BuildingBlock: XIVTED_clean_linker_0, # of connection points: 2
#     Edge 22, Type (0, 1), BuildingBlock: XIVTED_clean_linker_0, # of connection points: 2
#     Edge 23, Type (0, 1), BuildingBlock: XIVTED_clean_linker_0, # of connection points: 2
#     Edge 24, Type (0, 1), BuildingBlock: XIVTED_clean_linker_0, # of connection points: 2
#     Edge 25, Type (0, 1), BuildingBlock: XIVTED_clean_linker_0, # of connection points: 2
#     Edge 26, Type (0, 1), BuildingBlock: XIVTED_clean_linker_0, # of connection points: 2
#     Edge 27, Type (0, 1), BuildingBlock: XIVTED_clean_linker_0, # of connection points: 2
#     Edge 28, Type (0, 1), BuildingBlock: XIVTED_clean_linker_0, # of connection points: 2
#     Edge 29, Type (0, 1), BuildingBlock: XIVTED_clean_linker_0, # of connection points: 2
#     Edge 30, Type (0, 1), BuildingBlock: XIVTED_clean_linker_0, # of connection points: 2
#     Edge 31, Type (0, 1), BuildingBlock: XIVTED_clean_linker_0, # of connection points: 2
#     Edge 32, Type (0, 1), BuildingBlock: XIVTED_clean_linker_0, # of connection points: 2
#     Edge 33, Type (0, 1), BuildingBlock: XIVTED_clean_linker_0, # of connection points: 2
#     Edge 34, Type (0, 1), BuildingBlock: XIVTED_clean_linker_0, # of connection points: 2
#     Edge 35, Type (0, 1), BuildingBlock: XIVTED_clean_linker_0, # of connection points: 2
# Relax obj value: 0.267
# Max RMSD: 0.293
# Mean RMSD: 0.188
data_MOF--net-pry--node1-FUNLAD_clean_sbu_0--node2-QEWDON_clean_linker_0--edge1-XIVTED_clean_linker_0
_symmetry_space_group_name_H-M    P1
_symmetry_Int_Tables_number       1
_symmetry_cell_setting            triclinic
loop_
_symmetry_equiv_pos_as_xyz
'x, y, z'
_cell_length_a     34.790593
_cell_length_b     37.504482
_cell_length_c     40.272786
_cell_angle_alpha  90.048873
_cell_angle_beta   90.36234
_cell_angle_gamma 92.294653
loop_
_atom_site_label
_atom_site_type_symbol
_atom_site_fract_x
_atom_site_fract_y
_atom_site_fract_z
_atom_type_partial_charge
H0 H 0.2221 0.24398 0.19762 0.0
C1 C 0.20898 0.23048 0.2187 0.0
C2 C 0.22145 0.19656 0.22866 0.0
C3 C 0.18121 0.24831 0.23691 0.0
H4 H 0.21396 0.15479 0.26549 0.0
C5 C 0.20397 0.18013 0.2568 0.0
C6 C 0.17559 0.19727 0.27533 0.0
C7 C 0.16462 0.23136 0.26492 0.0
C8 C 0.1759 0.28733 0.23173 0.0
H9 H 0.1437 0.24545 0.27917 0.0
C10 C 0.15772 0.30191 0.2033 0.0
C11 C 0.15277 0.33934 0.20113 0.0
C12 C 0.18971 0.31056 0.25686 0.0
H13 H 0.20393 0.30022 0.27864 0.0
C14 C 0.18563 0.34721 0.25431 0.0
H15 H 0.14657 0.28439 0.18381 0.0
C16 C 0.16722 0.36145 0.22687 0.0
H17 H 0.16397 0.39005 0.22582 0.0
H18 H 0.19651 0.36469 0.27391 0.0
H19 H 0.36864 0.95122 0.81717 0.0
C20 C 0.38504 0.93229 0.80332 0.0
C21 C 0.42162 0.92327 0.81492 0.0
C22 C 0.3682 0.91587 0.77515 0.0
H23 H 0.46938 0.88907 0.80648 0.0
C24 C 0.44141 0.89665 0.7976 0.0
C25 C 0.42536 0.88039 0.76845 0.0
C26 C 0.38875 0.89064 0.75756 0.0
C27 C 0.32679 0.92065 0.76778 0.0
H28 H 0.37495 0.87725 0.73653 0.0
C29 C 0.31365 0.9342 0.73712 0.0
C30 C 0.27377 0.93711 0.73121 0.0
C31 C 0.29981 0.91045 0.79214 0.0
H32 H 0.30918 0.89986 0.81575 0.0
C33 C 0.26056 0.91311 0.78619 0.0
H34 H 0.33415 0.94233 0.71816 0.0
C35 C 0.24759 0.9262 0.75596 0.0
H36 H 0.21691 0.92829 0.752 0.0
H37 H 0.24007 0.90497 0.80512 0.0
H38 H 0.6621 0.57661 0.04094 0.0
C39 C 0.65142 0.54971 0.04638 0.0
C40 C 0.67707 0.52177 0.04828 0.0
C41 C 0.6117 0.54268 0.04976 0.0
H42 H 0.682 0.46507 0.05468 0.0
C43 C 0.66255 0.48695 0.05437 0.0
C44 C 0.62288 0.47965 0.05744 0.0
C45 C 0.59757 0.50767 0.05509 0.0
C46 C 0.58465 0.5705 0.04151 0.0
H47 H 0.56677 0.50219 0.05649 0.0
C48 C 0.56582 0.56861 1.01078 0.0
C49 C 0.54315 0.59641 0.99997 0.0
C50 C 0.57954 0.59981 0.06242 0.0
H51 H 0.59413 0.60168 0.08623 0.0
C52 C 0.55575 0.62709 0.05231 0.0
H53 H 0.57106 0.54647 0.99425 0.0
C54 C 0.53806 0.62574 1.02097 0.0
H55 H 0.52114 0.64778 1.01286 0.0
H56 H 0.55189 0.64979 0.0684 0.0
H57 H 0.89563 0.66152 0.43063 0.0
C58 C 0.88745 0.65305 0.45536 0.0
C59 C 0.90311 0.67226 0.48242 0.0
C60 C 0.8588 0.62595 0.45974 0.0
H61 H 0.9012 0.67961 0.53541 0.0
C62 C 0.89089 0.66346 0.51461 0.0
C63 C 0.86178 0.63702 0.51966 0.0
C64 C 0.84738 0.61722 0.49225 0.0
C65 C 0.83659 0.61178 0.4303 0.0
H66 H 0.82464 0.59714 0.49601 0.0
C67 C 0.85398 0.61102 0.39887 0.0
C68 C 0.83184 0.60624 0.36979 0.0
C69 C 0.79673 0.60363 0.43234 0.0
H70 H 0.78162 0.60469 0.45567 0.0
C71 C 0.77508 0.59594 0.40373 0.0
H72 H 0.8848 0.61552 0.39678 0.0
C73 C 0.79227 0.59787 0.37257 0.0
H74 H 0.77428 0.59414 0.35071 0.0
H75 H 0.74444 0.59014 0.40563 0.0
H76 H 0.86895 0.87427 0.90167 0.0
C77 C 0.88304 0.88706 0.88064 0.0
C78 C 0.91874 0.87501 0.86947 0.0
C79 C 0.8637 0.91359 0.86346 0.0
H80 H 0.96225 0.88185 0.83117 0.0
C81 C 0.93499 0.89067 0.84027 0.0
C82 C 0.91645 0.91844 0.82328 0.0
C83 C 0.88088 0.92933 0.8353 0.0
C84 C 0.82302 0.92108 0.87141 0.0
H85 H 0.86553 0.94942 0.82182 0.0
C86 C 0.81159 0.93414 0.90273 0.0
C87 C 0.77243 0.94074 0.90862 0.0
C88 C 0.79496 0.91463 0.84663 0.0
H89 H 0.80289 0.90442 0.82255 0.0
C90 C 0.7564 0.92076 0.85265 0.0
H91 H 0.83287 0.93946 0.92204 0.0
C92 C 0.74518 0.93369 0.88338 0.0
H93 H 0.71506 0.93855 0.88741 0.0
H94 H 0.7351 0.91553 0.83337 0.0
H95 H 0.70001 0.2273 0.46038 0.0
C96 C 0.69219 0.21907 0.43537 0.0
C97 C 0.71457 0.19405 0.41854 0.0
C98 C 0.65778 0.23108 0.42133 0.0
H99 H 0.71907 0.16313 0.37338 0.0
C100 C 0.70208 0.18187 0.38682 0.0
C101 C 0.66797 0.19366 0.37204 0.0
C102 C 0.64641 0.21854 0.38949 0.0
C103 C 0.6294 0.25009 0.44216 0.0
H104 H 0.6193 0.22669 0.37912 0.0
C105 C 0.63694 0.28408 0.45725 0.0
C106 C 0.60837 0.29977 0.47715 0.0
C107 C 0.59342 0.23263 0.44731 0.0
H108 H 0.58688 0.20663 0.43643 0.0
C109 C 0.56564 0.24794 0.46682 0.0
H110 H 0.66444 0.29803 0.45358 0.0
C111 C 0.573 0.28105 0.48162 0.0
H112 H 0.55064 0.29235 0.49649 0.0
H113 H 0.53816 0.23399 0.47054 0.0
H114 H 0.47628 0.63985 0.16485 0.0
C115 C 0.44899 0.63463 0.15226 0.0
C116 C 0.43484 0.6602 0.13053 0.0
C117 C 0.42749 0.60309 0.15914 0.0
H118 H 0.38761 0.67334 0.09846 0.0
C119 C 0.39965 0.65307 0.11415 0.0
C120 C 0.37787 0.62154 0.12046 0.0
C121 C 0.392 0.59649 0.14296 0.0
C122 C 0.44056 0.57928 0.18587 0.0
H123 H 0.37468 0.57271 0.14892 0.0
C124 C 0.45236 0.59402 0.21656 0.0
C125 C 0.46565 0.57234 0.24222 0.0
C126 C 0.44161 0.54228 0.18111 0.0
H127 H 0.43261 0.53033 0.15768 0.0
C128 C 0.45512 0.52052 0.20647 0.0
H129 H 0.45119 0.62257 0.22048 0.0
C130 C 0.46727 0.5354 0.23682 0.0
H131 H 0.47719 0.518 0.25625 0.0
H132 H 0.45614 0.49201 0.20261 0.0
H133 H 0.16413 0.56826 0.58684 0.0
C134 C 0.15437 0.54048 0.58535 0.0
C135 C 0.18128 0.51355 0.58579 0.0
C136 C 0.11489 0.53163 0.58687 0.0
H137 H 0.18894 0.45686 0.58607 0.0
C138 C 0.16821 0.47768 0.58612 0.0
C139 C 0.12877 0.46847 0.58773 0.0
C140 C 0.10225 0.49567 0.58778 0.0
C141 C 0.08792 0.5593 0.59574 0.0
H142 H 0.07185 0.48907 0.59088 0.0
C143 C 0.07217 0.55836 0.62758 0.0
C144 C 0.04916 0.58568 0.63881 0.0
C145 C 0.08015 0.58767 0.57443 0.0
H146 H 0.09253 0.58898 0.54983 0.0
C147 C 0.05638 0.61465 0.58507 0.0
H148 H 0.07986 0.53714 0.64436 0.0
C149 C 0.04119 0.6139 0.61722 0.0
H150 H 0.02364 0.63545 0.6253 0.0
H151 H 0.05032 0.63653 0.5686 0.0
C152 C 0.05898 0.0927 0.4873 0.0
N153 N 0.03974 0.13964 0.58046 0.0
C154 C 0.0756 0.15492 0.5771 0.0
C155 C 0.08308 0.19015 0.58678 0.0
C156 C 0.05324 0.20999 0.59966 0.0
C157 C 1.0169 0.19316 0.60423 0.0
C158 C 1.01078 0.1576 0.59456 0.0
Zn159 Zn 0.02907 0.09136 0.55878 0.0
C160 C 0.95292 0.08988 0.52172 0.0
N161 N 1.0083 0.99209 0.51051 0.0
C162 C 0.0381 0.975 0.49673 0.0
C163 C 0.97243 0.97646 0.51204 0.0
C164 C 0.96564 0.94189 0.50015 0.0
C165 C 0.99622 0.92312 0.48715 0.0
C166 C 0.03274 0.94008 0.48512 0.0
Zn167 Zn 1.01816 0.0402 0.53265 0.0
O168 O 0.0562 0.11163 0.51343 0.0
C169 C 0.09338 0.04204 0.57031 0.0
O170 O 0.0455 0.06064 0.48797 0.0
H171 H 0.94932 0.99037 0.52348 0.0
H172 H 0.09803 0.14034 0.5654 0.0
H173 H 0.06634 0.98805 0.49564 0.0
O174 O 0.083 0.07333 0.57704 0.0
O175 O 0.07208 0.02249 0.55138 0.0
H176 H 0.98251 0.14485 0.59699 0.0
O177 O 0.99199 0.01943 0.57788 0.0
O178 O 1.00268 0.07015 0.60396 0.0
O179 O 0.96348 0.05872 0.51434 0.0
O180 O 0.97464 0.10922 0.54053 0.0
C181 C 0.99063 0.03757 0.6046 0.0
H182 H 0.11134 0.20233 0.58238 0.0
H183 H 0.99326 0.20762 0.61425 0.0
H184 H 0.93717 0.92937 0.50247 0.0
H185 H 0.0569 0.9263 0.47514 0.0
C186 C 0.59494 0.04641 0.06983 0.0
N187 N 0.54228 0.14526 0.06446 0.0
C188 C 0.57858 0.15897 0.06969 0.0
C189 C 0.58688 0.19524 0.06552 0.0
C190 C 0.55742 0.21785 0.05644 0.0
C191 C 0.52082 0.20269 0.04887 0.0
C192 C 0.51383 0.166 0.05306 0.0
Zn193 Zn 0.53042 0.09533 0.08228 0.0
C194 C 0.49292 0.04504 0.03357 0.0
N195 N 0.50853 0.99346 0.12464 0.0
C196 C 0.53726 0.97505 0.13884 0.0
C197 C 0.47393 0.97733 0.11694 0.0
C198 C 0.46816 0.94068 0.12112 0.0
C199 C 0.49827 0.92056 0.13339 0.0
C200 C 0.53264 0.93826 0.14361 0.0
Zn201 Zn 0.51951 0.04323 0.10663 0.0
O202 O 0.58429 0.07782 0.0639 0.0
C203 C 0.55928 0.09265 0.15482 0.0
O204 O 0.57389 0.02624 0.08818 0.0
H205 H 0.45159 0.99251 0.10557 0.0
H206 H 0.6007 0.1422 0.07915 0.0
H207 H 0.5646 0.98848 0.14452 0.0
O208 O 0.55678 0.11228 0.12916 0.0
O209 O 0.54599 0.06054 0.15309 0.0
H210 H 0.48513 0.15454 0.04919 0.0
O211 O 0.46435 0.06076 0.12474 0.0
O212 O 0.47613 0.11228 0.10066 0.0
O213 O 0.49446 0.0259 0.05961 0.0
O214 O 0.50453 0.07768 0.03549 0.0
C215 C 0.45415 0.09233 0.11844 0.0
H216 H 0.61573 0.20572 0.07087 0.0
H217 H 0.49727 0.2192 0.04185 0.0
H218 H 0.44101 0.92798 0.11349 0.0
H219 H 0.55651 0.92356 0.15312 0.0
C220 C 0.55764 0.53328 0.58979 0.0
N221 N 0.54596 0.57198 0.68823 0.0
C222 C 0.52504 0.54451 0.70222 0.0
C223 C 0.52444 0.54055 0.73684 0.0
C224 C 0.54562 0.56508 0.75691 0.0
C225 C 0.56808 0.59209 0.74148 0.0
C226 C 0.56781 0.59506 0.70718 0.0
Zn227 Zn 0.54029 0.58719 0.6399 0.0
C228 C 0.61523 0.6203 0.61496 0.0
N229 N 0.53001 0.6289 0.54204 0.0
C230 C 0.50669 0.60668 0.52339 0.0
C231 C 0.54985 0.65703 0.52795 0.0
C232 C 0.54694 0.66314 0.49364 0.0
C233 C 0.52277 0.64048 0.4743 0.0
C234 C 0.50222 0.61233 0.48957 0.0
Zn235 Zn 0.53636 0.61347 0.59062 0.0
O236 O 0.55391 0.53553 0.62119 0.0
C237 C 0.46121 0.58066 0.61483 0.0
O238 O 0.5519 0.56091 0.57224 0.0
H239 H 0.56871 0.67407 0.54305 0.0
H240 H 0.50746 0.52674 0.68672 0.0
H241 H 0.49234 0.58358 0.53441 0.0
O242 O 0.48055 0.57183 0.64018 0.0
O243 O 0.47797 0.59764 0.59155 0.0
H244 H 0.58331 0.61739 0.6959 0.0
O245 O 0.52136 0.66528 0.60981 0.0
O246 O 0.52652 0.63945 0.65826 0.0
O247 O 0.59449 0.62982 0.59075 0.0
O248 O 0.60018 0.60204 0.63839 0.0
C249 C 0.51964 0.6672 0.6414 0.0
H250 H 0.50684 0.51922 0.74775 0.0
H251 H 0.58407 0.61224 0.75576 0.0
H252 H 0.56352 0.68491 0.48234 0.0
H253 H 0.48397 0.59393 0.47517 0.0
C254 C 1.01176 0.66017 0.9967 0.0
N255 N 1.00538 0.61898 0.095 0.0
C256 C 1.0074 0.65237 0.10843 0.0
C257 C 0.9883 0.65921 0.13825 0.0
C258 C 0.96685 0.6314 0.15372 0.0
C259 C 0.96679 0.59718 0.13994 0.0
C260 C 0.986 0.5916 0.11055 0.0
Zn261 Zn 0.0244 0.60577 0.04883 0.0
C262 C 0.95762 0.5682 1.01408 0.0
N263 N 0.05427 0.56886 0.95315 0.0
C264 C 0.07672 0.59296 0.93611 0.0
C265 C 0.03532 0.54124 0.93736 0.0
C266 C 0.03544 0.53924 0.90272 0.0
C267 C 0.05551 0.56578 0.88437 0.0
C268 C 0.07804 0.59171 0.90159 0.0
Zn269 Zn 0.03928 0.58264 1.0001 0.0
O270 O 1.00823 0.6567 1.02806 0.0
C271 C 0.10615 0.61846 0.03793 0.0
O272 O 0.02432 0.63411 0.98027 0.0
H273 H 1.01759 0.52239 0.95138 0.0
H274 H 0.02264 0.67384 0.09551 0.0
H275 H 0.09118 0.61499 0.94902 0.0
O276 O 0.08014 0.62572 0.05862 0.0
O277 O 0.09692 0.60196 1.01118 0.0
H278 H 0.98379 0.56537 0.0995 0.0
O279 O 0.05445 0.53114 1.02017 0.0
O280 O 0.04127 0.55481 0.06827 0.0
O281 O 0.98106 0.56296 0.99073 0.0
O282 O 0.96905 0.58503 0.03969 0.0
C283 C 0.05249 0.52831 0.05167 0.0
H284 H 0.98907 0.68598 0.14838 0.0
H285 H 0.95128 0.57486 0.15145 0.0
H286 H 1.01768 0.51872 0.89054 0.0
H287 H 0.09481 0.61211 0.8885 0.0
H288 H 0.1546 0.12649 0.28807 0.0
H289 H 0.08686 0.16147 0.47605 0.0
H290 H 0.15892 0.23011 0.33478 0.0
H291 H 0.07269 0.05918 0.42756 0.0
H292 H 0.11542 0.18627 0.4252 0.0
H293 H 0.12724 0.10075 0.3392 0.0
C294 C 0.14999 0.14389 0.30901 0.0
C295 C 0.15903 0.18075 0.30664 0.0
C296 C 0.10611 0.15838 0.42561 0.0
C297 C 0.12734 0.15119 0.36575 0.0
C298 C 0.08978 0.14412 0.45478 0.0
C299 C 0.07715 0.10804 0.45638 0.0
C300 C 0.11021 0.13656 0.39749 0.0
C301 C 0.08185 0.0871 0.42771 0.0
C302 C 0.13412 0.12914 0.33825 0.0
C303 C 0.15191 0.20175 0.33485 0.0
N304 N 0.09793 0.10159 0.39964 0.0
N305 N 0.13666 0.18675 0.36298 0.0
H306 H 0.45332 0.89272 0.87081 0.0
H307 H 0.48022 0.07729 0.97283 0.0
H308 H 0.42432 0.99465 0.8305 0.0
H309 H 0.48036 0.97376 1.01934 0.0
H310 H 0.46564 0.04804 0.91932 0.0
H311 H 0.47071 0.92233 0.92372 0.0
C312 C 0.45119 0.92137 0.87286 0.0
C313 C 0.43724 0.9411 0.846 0.0
C314 C 0.46873 0.03172 0.94127 0.0
C315 C 0.45687 0.97534 0.90683 0.0
C316 C 0.47696 0.04847 0.97193 0.0
C317 C 0.48132 0.02815 1.00096 0.0
C318 C 0.46533 0.99421 0.93925 0.0
C319 C 0.477 0.99073 0.99788 0.0
C320 C 0.46076 0.93826 0.90322 0.0
C321 C 0.43467 0.97822 0.85048 0.0
N322 N 0.46951 0.97509 0.96776 0.0
N323 N 0.44432 0.99401 0.88009 0.0
H324 H 0.55943 0.64745 0.95404 0.0
H325 H 0.60254 0.57963 0.80263 0.0
H326 H 0.50128 0.54461 0.96616 0.0
H327 H 0.48121 0.55121 0.7951 0.0
H328 H 0.59448 0.59143 0.86168 0.0
H329 H 0.55647 0.63929 0.89368 0.0
C330 C 0.54478 0.62378 0.94393 0.0
C331 C 0.53076 0.59655 0.96488 0.0
C332 C 0.5697 0.58262 0.84696 0.0
C333 C 0.52803 0.58685 0.89646 0.0
C334 C 0.57422 0.57573 0.81336 0.0
C335 C 0.54231 0.56523 0.79364 0.0
C336 C 0.53322 0.57834 0.86121 0.0
C337 C 0.50658 0.55933 0.80931 0.0
C338 C 0.5436 0.61895 0.90966 0.0
C339 C 0.51254 0.56607 0.9506 0.0
N340 N 0.50292 0.56599 0.84237 0.0
N341 N 0.51198 0.5618 0.91707 0.0
H342 H 0.8169 0.57094 0.31092 0.0
H343 H 0.98814 0.66606 0.21153 0.0
H344 H 0.88689 0.65744 0.35331 0.0
H345 H 0.89285 0.60867 0.16412 0.0
H346 H 0.9526 0.66389 0.26409 0.0
H347 H 0.84617 0.58341 0.25705 0.0
C348 C 0.83827 0.59262 0.30893 0.0
C349 C 0.84967 0.61287 0.33684 0.0
C350 C 0.93933 0.65223 0.24202 0.0
C351 C 0.88359 0.62709 0.27529 0.0
C352 C 0.95947 0.6537 0.21207 0.0
C353 C 0.94362 0.63696 0.18374 0.0
C354 C 0.90343 0.63367 0.24341 0.0
C355 C 0.90642 0.62118 0.18567 0.0
C356 C 0.85499 0.59974 0.27816 0.0
C357 C 0.87787 0.64046 0.33272 0.0
N358 N 0.88784 0.61944 0.2151 0.0
N359 N 0.89407 0.64658 0.30258 0.0
H360 H 0.23433 0.12469 0.21788 0.0
H361 H 0.42994 0.161 0.1161 0.0
H362 H 0.28551 0.2296 0.19974 0.0
H363 H 0.3964 0.05697 0.15422 0.0
H364 H 0.37327 0.18535 0.14185 0.0
H365 H 0.28962 0.09855 0.1909 0.0
C366 C 0.257 0.14237 0.20837 0.0
C367 C 0.25457 0.1797 0.21121 0.0
C368 C 0.37816 0.15717 0.14459 0.0
C369 C 0.31818 0.14955 0.17953 0.0
C370 C 0.41058 0.14312 0.12972 0.0
C371 C 0.41827 0.10674 0.13289 0.0
C372 C 0.35261 0.1348 0.16274 0.0
C373 C 0.39185 0.08515 0.15105 0.0
C374 C 0.2886 0.1273 0.19277 0.0
C375 C 0.28507 0.20084 0.19771 0.0
N376 N 0.36028 0.09945 0.1652 0.0
N377 N 0.31525 0.18555 0.18255 0.0
H378 H 0.28147 1.00565 0.70801 0.0
H379 H 0.11702 0.97313 0.56916 0.0
H380 H 0.22809 0.90292 0.68515 0.0
H381 H 0.14725 0.07678 0.61048 0.0
H382 H 0.16779 0.94754 0.60276 0.0
H383 H 0.24304 0.03228 0.66359 0.0
C384 C 0.26251 0.98858 0.69294 0.0
C385 C 0.25808 0.95204 0.70001 0.0
C386 C 0.16361 0.97595 0.60422 0.0
C387 C 0.21365 0.98222 0.64967 0.0
C388 C 0.13467 0.99066 0.58491 0.0
C389 C 0.12751 0.0272 0.58712 0.0
C390 C 0.1859 0.99786 0.62587 0.0
C391 C 0.15148 0.04846 0.60807 0.0
C392 C 0.24029 1.0038 0.66787 0.0
C393 C 0.23249 0.93117 0.68029 0.0
N394 N 0.17939 0.03347 0.62675 0.0
N395 N 0.21115 0.94654 0.65618 0.0
H396 H 0.71085 0.56103 0.99804 0.0
H397 H 0.92383 0.52863 0.0618 0.0
H398 H 0.73777 0.49571 0.08253 0.0
H399 H 0.90113 0.57687 0.96699 0.0
H400 H 0.85535 0.51483 0.06834 0.0
H401 H 0.77975 0.56768 0.98568 0.0
C402 C 0.73129 0.54839 1.01415 0.0
C403 C 0.71864 0.52797 0.04149 0.0
C404 C 0.86514 0.52793 0.0458 0.0
C405 C 0.79718 0.53493 1.02718 0.0
C406 C 0.90426 0.53559 0.042 0.0
C407 C 0.91787 0.55363 1.01374 0.0
C408 C 0.8392 0.5391 1.02148 0.0
C409 C 0.89155 0.5625 0.98893 0.0
C410 C 0.77051 0.55183 1.00684 0.0
C411 C 0.74624 0.51157 0.06115 0.0
N412 N 0.85319 0.55559 0.99358 0.0
N413 N 0.78414 0.51552 0.05368 0.0
H414 H 0.84069 0.6942 0.55658 0.0
H415 H 0.65239 0.67793 0.58755 0.0
H416 H 0.82984 0.57911 0.55336 0.0
H417 H 0.67239 0.58043 0.64048 0.0
H418 H 0.72135 0.68625 0.5788 0.0
H419 H 0.78649 0.69484 0.59423 0.0
C420 C 0.82788 0.66889 0.5646 0.0
C421 C 0.83918 0.6365 0.55085 0.0
C422 C 0.71096 0.66364 0.59335 0.0
C423 C 0.77576 0.63746 0.59266 0.0
C424 C 0.67153 0.65871 0.59796 0.0
C425 C 0.65689 0.62838 0.61451 0.0
C426 C 0.73585 0.6376 0.60472 0.0
C427 C 0.68277 0.60419 0.62758 0.0
C428 C 0.79641 0.66942 0.58572 0.0
C429 C 0.82122 0.60473 0.56247 0.0
N430 N 0.72107 0.6088 0.62159 0.0
N431 N 0.78967 0.60602 0.58209 0.0
H432 H 0.08442 0.37109 0.20585 0.0
H433 H 0.09798 0.47353 1.03041 0.0
H434 H 0.1737 0.3508 0.13562 0.0
H435 H 0.03282 0.50771 0.11456 0.0
H436 H 0.11887 0.4221 0.06321 0.0
H437 H 0.05704 0.4133 0.16693 0.0
C438 C 0.0976 0.37476 0.18173 0.0
C439 C 0.13111 0.35695 0.17387 0.0
C440 C 0.09979 0.44077 0.07433 0.0
C441 C 0.1005 0.40654 0.12917 0.0
C442 C 0.08771 0.47008 0.05557 0.0
C443 C 0.06365 0.49525 0.06968 0.0
C444 C 0.08721 0.43618 0.10729 0.0
C445 C 0.05152 0.48933 0.10255 0.0
C446 C 0.08224 0.39926 0.15961 0.0
C447 C 0.14746 0.36344 0.14247 0.0
N448 N 0.06332 0.46062 0.12003 0.0
N449 N 0.13222 0.38789 0.12137 0.0
H450 H 0.56488 0.44637 1.0215 0.0
H451 H 0.59794 0.25599 0.10349 0.0
H452 H 0.64794 0.42796 0.09897 0.0
H453 H 0.53155 0.26916 1.0137 0.0
H454 H 0.61028 0.32018 0.10593 0.0
H455 H 0.54542 0.38286 1.02261 0.0
C456 C 0.57857 0.42902 0.03909 0.0
C457 C 0.60811 0.44228 0.06015 0.0
C458 C 0.59306 0.3091 0.08563 0.0
C459 C 0.58639 0.36985 0.06128 0.0
C460 C 0.58624 0.27238 0.08404 0.0
C461 C 0.56428 0.25707 0.05796 0.0
C462 C 0.57768 0.33093 0.06106 0.0
C463 C 0.54871 0.27983 0.03418 0.0
C464 C 0.5677 0.3928 0.03951 0.0
C465 C 0.6253 0.41868 0.08214 0.0
N466 N 0.55588 0.31569 0.0362 0.0
N467 N 0.61425 0.38359 0.08207 0.0
H468 H 0.9676 0.6985 0.5157 0.0
H469 H 0.94092 0.89338 0.44653 0.0
H470 H 0.8888 0.72354 0.43662 0.0
H471 H 0.03733 0.86699 0.50832 0.0
H472 H 0.92519 0.82985 0.43903 0.0
H473 H 0.99756 0.75858 0.51053 0.0
C474 C 0.95708 0.71639 0.49691 0.0
C475 C 0.9257 0.70599 0.47659 0.0
C476 C 0.95018 0.83782 0.45382 0.0
C477 C 0.95941 0.77452 0.4707 0.0
C478 C 0.95905 0.87405 0.45811 0.0
C479 C 0.99021 0.88519 0.47822 0.0
C480 C 0.97218 0.81261 0.47037 0.0
C481 C 1.01307 0.85928 0.49257 0.0
C482 C 0.97422 0.75057 0.49388 0.0
C483 C 0.91324 0.73012 0.45254 0.0
N484 N 1.00321 0.82407 0.48883 0.0
N485 N 0.92982 0.76333 0.45056 0.0
H486 H 0.46491 0.82354 0.79349 0.0
H487 H 0.49503 0.73077 0.61507 0.0
H488 H 0.43007 0.87018 0.70078 0.0
H489 H 0.51982 0.68023 0.70853 0.0
H490 H 0.47566 0.7839 0.64556 0.0
H491 H 0.49035 0.77331 0.76254 0.0
C492 C 0.46304 0.82357 0.76664 0.0
C493 C 0.44498 0.85131 0.74992 0.0
C494 C 0.48546 0.76121 0.6594 0.0
C495 C 0.47386 0.79325 0.71405 0.0
C496 C 0.49662 0.73082 0.64193 0.0
C497 C 0.50905 0.70068 0.65908 0.0
C498 C 0.48684 0.76179 0.69439 0.0
C499 C 0.51035 0.70258 0.69405 0.0
C500 C 0.47732 0.79463 0.74893 0.0
C501 C 0.44316 0.84932 0.71495 0.0
N502 N 0.49942 0.73238 0.7104 0.0
N503 N 0.45719 0.82094 0.69834 0.0
H504 H 0.92441 0.98996 0.8096 0.0
H505 H 0.97506 0.96607 0.61662 0.0
H506 H 0.94352 0.8874 0.7658 0.0
H507 H 0.97971 0.06805 0.66632 0.0
H508 H 0.96019 0.93692 0.66975 0.0
H509 H 0.9423 1.01873 0.75706 0.0
C510 C 0.93273 0.97344 0.78898 0.0
C511 C 0.93244 0.93606 0.79238 0.0
C512 C 0.96437 0.96568 0.66907 0.0
C513 C 0.95253 0.96915 0.73132 0.0
C514 C 0.97263 0.98248 0.63859 0.0
C515 C 0.97855 0.01982 0.63663 0.0
C516 C 0.96157 0.98617 0.69817 0.0
C517 C 0.97529 0.03932 0.66631 0.0
C518 C 0.94291 0.98996 0.75887 0.0
C519 C 0.94362 0.91624 0.7646 0.0
N520 N 0.96697 0.02236 0.69562 0.0
N521 N 0.95279 0.93293 0.73528 0.0
H522 H 0.66648 0.12362 0.35073 0.0
H523 H 0.57847 0.16268 0.16997 0.0
H524 H 0.63588 0.22849 0.31874 0.0
H525 H 0.57958 0.05705 0.21211 0.0
H526 H 0.60535 0.1871 0.22197 0.0
H527 H 0.64109 0.09894 0.2982 0.0
C528 C 0.65476 0.14159 0.33259 0.0
C529 C 0.65353 0.17836 0.33941 0.0
C530 C 0.59975 0.15858 0.21989 0.0
C531 C 0.6241 0.14998 0.27878 0.0
C532 C 0.58446 0.14451 0.19007 0.0
C533 C 0.57656 0.1076 0.18641 0.0
C534 C 0.60784 0.13569 0.24646 0.0
C535 C 0.58501 0.08563 0.21362 0.0
C536 C 0.63997 0.12736 0.30262 0.0
C537 C 0.63731 0.20001 0.31488 0.0
N538 N 0.60026 0.09993 0.24229 0.0
N539 N 0.62349 0.18559 0.28578 0.0
H540 H 0.42727 0.62131 0.27811 0.0
H541 H 0.57795 0.62638 0.4292 0.0
H542 H 0.52971 0.56018 0.28004 0.0
H543 H 0.46084 0.65828 0.43748 0.0
H544 H 0.56725 0.6151 0.36966 0.0
H545 H 0.44544 0.64692 0.33207 0.0
C546 C 0.45378 0.61352 0.28978 0.0
C547 C 0.47693 0.58842 0.27469 0.0
C548 C 0.54417 0.62532 0.38437 0.0
C549 C 0.49789 0.61768 0.3364 0.0
C550 C 0.55044 0.63219 0.41813 0.0
C551 C 0.52026 0.64347 0.43791 0.0
C552 C 0.50752 0.62994 0.37053 0.0
C553 C 0.48482 0.64984 0.4228 0.0
C554 C 0.46407 0.62808 0.32059 0.0
C555 C 0.5108 0.57906 0.29106 0.0
N556 N 0.47931 0.64274 0.39001 0.0
N557 N 0.52026 0.59366 0.32109 0.0
H558 H 0.0531 0.64157 0.68264 0.0
H559 H 0.04828 0.51177 0.83809 0.0
H560 H 0.02039 0.5296 0.67566 0.0
H561 H 0.04884 0.62654 0.84751 0.0
H562 H 0.03738 0.51788 0.7784 0.0
H563 H 0.04892 0.63748 0.7431 0.0
C564 C 0.04404 0.61636 0.69377 0.0
C565 C 0.03764 0.58576 0.67416 0.0
C566 C 0.03975 0.5417 0.7936 0.0
C567 C 0.03397 0.58061 0.74321 0.0
C568 C 0.04603 0.53822 0.82768 0.0
C569 C 0.05002 0.56867 0.84788 0.0
C570 C 0.03767 0.57587 0.77956 0.0
C571 C 0.04705 0.6023 0.83288 0.0
C572 C 0.04204 0.61393 0.72831 0.0
C573 C 0.02635 0.55368 0.68995 0.0
N574 N 0.04132 0.605 0.79963 0.0
N575 N 0.02552 0.55178 0.72358 0.0
H576 H 0.73628 0.90511 0.95919 0.0
H577 H 0.64746 0.08269 1.03032 0.0
H578 H 0.77328 1.01057 0.92783 0.0
H579 H 0.61983 0.97769 0.06923 0.0
H580 H 0.69799 0.05751 0.99657 0.0
H581 H 0.69872 0.9314 1.0037 0.0
C582 C 0.73743 0.93382 0.96244 0.0
C583 C 0.75845 0.95571 0.94028 0.0
C584 C 0.68121 0.04001 1.01278 0.0
C585 C 0.71425 0.98622 0.99027 0.0
C586 C 0.6523 0.0544 0.03214 0.0
C587 C 0.62905 0.03232 0.05262 0.0
C588 C 0.6869 1.0031 1.01355 0.0
C589 C 0.63687 0.99582 0.05383 0.0
C590 C 0.71569 0.94888 0.98762 0.0
C591 C 0.75806 0.99279 0.94485 0.0
N592 N 0.66475 0.98237 0.03435 0.0
N593 N 0.73597 1.00688 0.96905 0.0
H594 H 0.76938 0.22807 0.45906 0.0
H595 H 0.89875 0.0561 0.48092 0.0
H596 H 0.74033 0.12526 0.41547 0.0
H597 H 0.92421 0.15672 0.52985 0.0
H598 H 0.84096 0.08109 0.45655 0.0
H599 H 0.82604 0.20271 0.48498 0.0
C600 C 0.77468 0.20017 0.45495 0.0
C601 C 0.74972 0.17904 0.43468 0.0
C602 C 0.85911 0.09771 0.47268 0.0
C603 C 0.81534 0.14967 0.46435 0.0
C604 C 0.8922 0.0834 0.48669 0.0
C605 C 0.91664 0.1042 0.5076 0.0
C606 C 0.85014 0.13328 0.47942 0.0
C607 C 0.90639 0.13952 0.51397 0.0
C608 C 0.80729 0.1857 0.46971 0.0
C609 C 0.75881 0.14304 0.43021 0.0
N610 N 0.87416 0.15287 0.49994 0.0
N611 N 0.79066 0.12964 0.4448 0.0
H612 H 0.31175 0.60669 0.15449 0.0
H613 H 0.17007 0.61201 0.9989 0.0
H614 H 0.35404 0.62927 0.05599 0.0
H615 H 0.13552 0.63587 0.09903 0.0
H616 H 0.23723 0.6118 1.01797 0.0
H617 H 0.24581 0.60821 0.13318 0.0
C618 C 0.30709 0.6113 0.12825 0.0
C619 C 0.33826 0.61769 0.1069 0.0
C620 C 0.21488 0.61743 0.03559 0.0
C621 C 0.26308 0.62 0.08247 0.0
C622 C 0.17663 0.61771 1.02474 0.0
C623 C 0.14711 0.62395 0.0474 0.0
C624 C 0.22345 0.62273 0.0694 0.0
C625 C 0.15726 0.63103 0.08063 0.0
C626 C 0.26953 0.61264 0.11619 0.0
C627 C 0.33067 0.62422 0.0732 0.0
N628 N 0.19449 0.62978 0.09069 0.0
N629 N 0.29377 0.62514 0.06195 0.0
H630 H 0.23185 0.48386 0.62879 0.0
H631 H 0.41218 0.60364 0.56732 0.0
H632 H 0.22491 0.56466 0.55299 0.0
H633 H 0.41572 0.53675 0.65444 0.0
H634 H 0.3443 0.58743 0.56033 0.0
H635 H 0.29992 0.50025 0.63672 0.0
C636 C 0.24479 0.50483 0.61356 0.0
C637 C 0.22282 0.52274 0.58994 0.0
C638 C 0.3598 0.57635 0.58106 0.0
C639 C 0.30055 0.54194 0.59928 0.0
C640 C 0.39865 0.58554 0.58508 0.0
C641 C 0.41971 0.57147 0.61154 0.0
C642 C 0.34171 0.55267 0.60348 0.0
C643 C 0.40054 0.54824 0.63375 0.0
C644 C 0.28355 0.51437 0.61834 0.0
C645 C 0.24081 0.55023 0.57148 0.0
N646 N 0.36256 0.53941 0.62913 0.0
N647 N 0.27869 0.55891 0.57646 0.0
H648 H 0.95727 0.81744 0.84447 0.0
H649 H 0.9812 0.72143 1.02234 0.0
H650 H 0.92249 0.86358 0.93714 0.0
H651 H 1.01657 0.67517 0.9299 0.0
H652 H 0.9616 0.77445 0.99182 0.0
H653 H 0.98185 0.76661 0.87532 0.0
C654 C 0.95514 0.81723 0.87127 0.0
C655 C 0.93735 0.84508 0.88797 0.0
C656 C 0.97376 0.75275 0.97819 0.0
C657 C 0.96523 0.78621 0.92374 0.0
C658 C 0.98502 0.72238 0.99569 0.0
C659 C 1.00063 0.69348 0.97886 0.0
C660 C 0.97802 0.75456 0.94343 0.0
C661 C 1.0047 0.69656 0.94414 0.0
C662 C 0.96896 0.78793 0.88893 0.0
C663 C 0.93524 0.84268 0.92289 0.0
N664 N 0.99347 0.7263 0.92772 0.0
N665 N 0.94875 0.81393 0.93943 0.0
H666 H 0.44521 0.70282 0.07564 0.0
H667 H 0.51802 0.87323 0.18195 0.0
H668 H 0.46656 0.70011 0.18135 0.0
H669 H 0.4718 0.87854 0.08249 0.0
H670 H 0.51062 0.80793 0.17962 0.0
H671 H 0.46689 0.76566 0.07513 0.0
C672 C 0.45486 0.71532 0.09865 0.0
C673 C 0.45372 0.69627 0.1286 0.0
C674 C 0.50224 0.82345 0.15829 0.0
C675 C 0.47851 0.76799 0.12822 0.0
C676 C 0.50647 0.8606 0.15963 0.0
C677 C 0.49485 0.88118 0.13261 0.0
C678 C 0.48668 0.80693 0.1296 0.0
C679 C 0.48024 0.86362 0.10417 0.0
C680 C 0.46724 0.75113 0.09835 0.0
C681 C 0.4672 0.71362 0.15761 0.0
N682 N 0.47645 0.82752 0.10345 0.0
N683 N 0.47868 0.7486 0.15675 0.0
H684 H 0.16104 0.41859 0.62757 0.0
H685 H 1.00682 0.26304 0.57982 0.0
H686 H 0.06586 0.4328 0.56016 0.0
H687 H 0.11419 0.24517 0.63014 0.0
H688 H 0.02235 0.32721 0.58046 0.0
H689 H 0.13938 0.3566 0.63542 0.0
C690 C 0.13575 0.4086 0.61416 0.0
C691 C 0.11559 0.43078 0.59271 0.0
C692 C 0.04231 0.30927 0.59167 0.0
C693 C 0.09013 0.35998 0.60227 0.0
C694 C 0.03329 0.27271 0.59163 0.0
C695 C 0.05941 0.24883 0.60479 0.0
C696 C 0.07762 0.32196 0.60507 0.0
C697 C 0.09352 0.26271 0.61938 0.0
C698 C 0.12321 0.37327 0.61892 0.0
C699 C 0.08228 0.41664 0.57691 0.0
N700 N 0.10176 0.29838 0.61894 0.0
N701 N 0.07067 0.38205 0.58189 0.0
H702 H 0.61701 0.36634 0.44837 0.0
H703 H 0.57103 0.46844 0.61913 0.0
H704 H 0.60678 0.31454 0.54342 0.0
H705 H 0.57123 0.5201 0.52348 0.0
H706 H 0.59003 0.41328 0.59229 0.0
H707 H 0.60792 0.4242 0.47576 0.0
C708 C 0.61411 0.36727 0.47512 0.0
C709 C 0.61321 0.33553 0.49365 0.0
C710 C 0.58602 0.43667 0.57711 0.0
C711 C 0.60154 0.4016 0.52519 0.0
C712 C 0.57505 0.46829 0.59248 0.0
C713 C 0.56922 0.49921 0.57368 0.0
C714 C 0.59143 0.43559 0.54249 0.0
C715 C 0.57515 0.49706 0.53913 0.0
C716 C 0.60835 0.40026 0.49073 0.0
C717 C 0.60814 0.33833 0.52819 0.0
N718 N 0.58581 0.46596 0.52475 0.0
N719 N 0.60231 0.37052 0.5427 0.0
loop_
_geom_bond_atom_site_label_1
_geom_bond_atom_site_label_2
_geom_bond_distance
_geom_bond_site_symmetry_2
_ccdc_geom_bond_type
H0 C1 0.949 . S
C1 H0 0.949 . S
C1 C2 1.395 . S
C1 C3 1.391 . S
C2 C1 1.395 . S
C2 C5 1.390 . S
C3 C1 1.391 . S
C3 C7 1.387 . S
C3 C8 1.491 . S
H4 C5 0.950 . S
C5 C2 1.390 . S
C5 H4 0.950 . S
C5 C6 1.378 . S
C6 C5 1.378 . S
C6 C7 1.409 . S
C7 C3 1.387 . S
C7 C6 1.409 . S
C7 H9 0.951 . S
C8 C3 1.491 . S
C8 C10 1.382 . S
C8 C12 1.404 . S
H9 C7 0.951 . S
C10 C8 1.382 . S
C10 C11 1.390 . S
C10 H15 0.949 . S
C11 C10 1.390 . S
C11 C16 1.399 . S
C12 C8 1.404 . S
C12 H13 0.950 . S
C12 C14 1.375 . S
H13 C12 0.950 . S
C14 C12 1.375 . S
C14 C16 1.382 . S
C14 H18 0.950 . S
H15 C10 0.949 . S
C16 C11 1.399 . S
C16 C14 1.382 . S
C16 H17 0.952 . S
H17 C16 0.952 . S
H18 C14 0.950 . S
H19 C20 0.949 . S
C20 H19 0.949 . S
C20 C21 1.395 . S
C20 C22 1.391 . S
C21 C20 1.395 . S
C21 C24 1.390 . S
C22 C20 1.391 . S
C22 C26 1.387 . S
C22 C27 1.491 . S
H23 C24 0.950 . S
C24 C21 1.390 . S
C24 H23 0.950 . S
C24 C25 1.378 . S
C25 C24 1.378 . S
C25 C26 1.409 . S
C26 C22 1.387 . S
C26 C25 1.409 . S
C26 H28 0.951 . S
C27 C22 1.491 . S
C27 C29 1.382 . S
C27 C31 1.404 . S
H28 C26 0.951 . S
C29 C27 1.382 . S
C29 C30 1.390 . S
C29 H34 0.949 . S
C30 C29 1.390 . S
C30 C35 1.399 . S
C31 C27 1.404 . S
C31 H32 0.950 . S
C31 C33 1.375 . S
H32 C31 0.950 . S
C33 C31 1.375 . S
C33 C35 1.382 . S
C33 H37 0.950 . S
H34 C29 0.949 . S
C35 C30 1.399 . S
C35 C33 1.382 . S
C35 H36 0.952 . S
H36 C35 0.952 . S
H37 C33 0.950 . S
H38 C39 0.949 . S
C39 H38 0.949 . S
C39 C40 1.395 . S
C39 C41 1.391 . S
C40 C39 1.395 . S
C40 C43 1.390 . S
C41 C39 1.391 . S
C41 C45 1.387 . S
C41 C46 1.491 . S
H42 C43 0.969 . S
C43 C40 1.390 . S
C43 H42 0.969 . S
C43 C44 1.378 . S
C44 C43 1.378 . S
C44 C45 1.409 . S
C45 C41 1.387 . S
C45 C44 1.409 . S
C45 H47 0.951 . S
C46 C41 1.491 . S
C46 C48 1.382 . S
C46 C50 1.404 . S
H47 C45 0.951 . S
C48 C46 1.382 . S
C48 C49 1.390 . S
C48 H53 0.949 . S
C49 C48 1.390 . S
C49 C54 1.399 . S
C50 C46 1.404 . S
C50 H51 0.950 . S
C50 C52 1.375 . S
H51 C50 0.950 . S
C52 C50 1.375 . S
C52 C54 1.382 . S
C52 H56 0.950 . S
H53 C48 0.949 . S
C54 C49 1.399 . S
C54 C52 1.382 . S
C54 H55 0.952 . S
H55 C54 0.952 . S
H56 C52 0.950 . S
H57 C58 0.949 . S
C58 H57 0.949 . S
C58 C59 1.395 . S
C58 C60 1.391 . S
C59 C58 1.395 . S
C59 C62 1.390 . S
C60 C58 1.391 . S
C60 C64 1.387 . S
C60 C65 1.491 . S
H61 C62 0.950 . S
C62 C59 1.390 . S
C62 H61 0.950 . S
C62 C63 1.378 . S
C63 C62 1.378 . S
C63 C64 1.409 . S
C64 C60 1.387 . S
C64 C63 1.409 . S
C64 H66 0.951 . S
C65 C60 1.491 . S
C65 C67 1.382 . S
C65 C69 1.404 . S
H66 C64 0.951 . S
C67 C65 1.382 . S
C67 C68 1.390 . S
C67 H72 0.949 . S
C68 C67 1.390 . S
C68 C73 1.399 . S
C69 C65 1.404 . S
C69 H70 0.950 . S
C69 C71 1.375 . S
H70 C69 0.950 . S
C71 C69 1.375 . S
C71 C73 1.382 . S
C71 H75 0.950 . S
H72 C67 0.949 . S
C73 C68 1.399 . S
C73 C71 1.382 . S
C73 H74 0.952 . S
H74 C73 0.952 . S
H75 C71 0.950 . S
H76 C77 0.949 . S
C77 H76 0.949 . S
C77 C78 1.395 . S
C77 C79 1.391 . S
C78 C77 1.395 . S
C78 C81 1.390 . S
C79 C77 1.391 . S
C79 C83 1.387 . S
C79 C84 1.491 . S
H80 C81 0.950 . S
C81 C78 1.390 . S
C81 H80 0.950 . S
C81 C82 1.378 . S
C82 C81 1.378 . S
C82 C83 1.409 . S
C83 C79 1.387 . S
C83 C82 1.409 . S
C83 H85 0.951 . S
C84 C79 1.491 . S
C84 C86 1.382 . S
C84 C88 1.404 . S
H85 C83 0.951 . S
C86 C84 1.382 . S
C86 C87 1.390 . S
C86 H91 0.949 . S
C87 C86 1.390 . S
C87 C92 1.399 . S
C88 C84 1.404 . S
C88 H89 0.950 . S
C88 C90 1.375 . S
H89 C88 0.950 . S
C90 C88 1.375 . S
C90 C92 1.382 . S
C90 H94 0.950 . S
H91 C86 0.949 . S
C92 C87 1.399 . S
C92 C90 1.382 . S
C92 H93 0.952 . S
H93 C92 0.952 . S
H94 C90 0.950 . S
H95 C96 0.949 . S
C96 H95 0.949 . S
C96 C97 1.395 . S
C96 C98 1.391 . S
C97 C96 1.395 . S
C97 C100 1.390 . S
C98 C96 1.391 . S
C98 C102 1.387 . S
C98 C103 1.491 . S
H99 C100 0.950 . S
C100 C97 1.390 . S
C100 H99 0.950 . S
C100 C101 1.378 . S
C101 C100 1.378 . S
C101 C102 1.409 . S
C102 C98 1.387 . S
C102 C101 1.409 . S
C102 H104 0.951 . S
C103 C98 1.491 . S
C103 C105 1.382 . S
C103 C107 1.404 . S
H104 C102 0.951 . S
C105 C103 1.382 . S
C105 C106 1.390 . S
C105 H110 0.949 . S
C106 C105 1.390 . S
C106 C111 1.399 . S
C107 C103 1.404 . S
C107 H108 0.950 . S
C107 C109 1.375 . S
H108 C107 0.950 . S
C109 C107 1.375 . S
C109 C111 1.382 . S
C109 H113 0.950 . S
H110 C105 0.949 . S
C111 C106 1.399 . S
C111 C109 1.382 . S
C111 H112 0.952 . S
H112 C111 0.952 . S
H113 C109 0.950 . S
H114 C115 0.949 . S
C115 H114 0.949 . S
C115 C116 1.395 . S
C115 C117 1.391 . S
C116 C115 1.395 . S
C116 C119 1.390 . S
C117 C115 1.391 . S
C117 C121 1.387 . S
C117 C122 1.491 . S
H118 C119 0.950 . S
C119 C116 1.390 . S
C119 H118 0.950 . S
C119 C120 1.378 . S
C120 C119 1.378 . S
C120 C121 1.409 . S
C121 C117 1.387 . S
C121 C120 1.409 . S
C121 H123 0.951 . S
C122 C117 1.491 . S
C122 C124 1.382 . S
C122 C126 1.404 . S
H123 C121 0.951 . S
C124 C122 1.382 . S
C124 C125 1.390 . S
C124 H129 0.949 . S
C125 C124 1.390 . S
C125 C130 1.399 . S
C126 C122 1.404 . S
C126 H127 0.950 . S
C126 C128 1.375 . S
H127 C126 0.950 . S
C128 C126 1.375 . S
C128 C130 1.382 . S
C128 H132 0.950 . S
H129 C124 0.949 . S
C130 C125 1.399 . S
C130 C128 1.382 . S
C130 H131 0.952 . S
H131 C130 0.952 . S
H132 C128 0.950 . S
H133 C134 0.949 . S
C134 H133 0.949 . S
C134 C135 1.395 . S
C134 C136 1.391 . S
C135 C134 1.395 . S
C135 C138 1.390 . S
C136 C134 1.391 . S
C136 C140 1.387 . S
C136 C141 1.491 . S
H137 C138 0.950 . S
C138 C135 1.390 . S
C138 H137 0.950 . S
C138 C139 1.378 . S
C139 C138 1.378 . S
C139 C140 1.409 . S
C140 C136 1.387 . S
C140 C139 1.409 . S
C140 H142 0.951 . S
C141 C136 1.491 . S
C141 C143 1.382 . S
C141 C145 1.404 . S
H142 C140 0.951 . S
C143 C141 1.382 . S
C143 C144 1.390 . S
C143 H148 0.949 . S
C144 C143 1.390 . S
C144 C149 1.399 . S
C145 C141 1.404 . S
C145 H146 0.950 . S
C145 C147 1.375 . S
H146 C145 0.950 . S
C147 C145 1.375 . S
C147 C149 1.382 . S
C147 H151 0.950 . S
H148 C143 0.949 . S
C149 C144 1.399 . S
C149 C147 1.382 . S
C149 H150 0.952 . S
H150 C149 0.952 . S
H151 C147 0.950 . S
C152 O168 1.251 . S
C152 O170 1.254 . S
N153 C154 1.333 . S
N153 C158 1.307 . S
N153 Zn159 2.020 . S
C154 N153 1.333 . S
C154 C155 1.379 . S
C154 H172 0.952 . S
C155 C154 1.379 . S
C155 C156 1.390 . S
C155 H182 0.949 . S
C156 C155 1.390 . S
C156 C157 1.357 . S
C157 C156 1.357 . S
C157 C158 1.370 . S
C157 H183 0.950 . S
C158 N153 1.307 . S
C158 C157 1.370 . S
C158 H176 0.948 1_455 S
Zn159 N153 2.020 . S
Zn159 O168 2.039 . S
Zn159 O174 2.034 . S
Zn159 O178 2.025 1_455 S
Zn159 O180 2.024 1_455 S
C160 O179 1.246 . S
C160 O180 1.249 . S
N161 C162 1.307 . S
N161 C163 1.333 . S
N161 Zn167 2.020 1_565 S
C162 N161 1.307 . S
C162 C166 1.370 . S
C162 H173 0.948 1_655 S
C163 N161 1.333 . S
C163 C164 1.379 . S
C163 H171 0.952 . S
C164 C163 1.379 . S
C164 C165 1.390 . S
C164 H184 0.949 . S
C165 C164 1.390 . S
C165 C166 1.357 . S
C166 C162 1.370 . S
C166 C165 1.357 . S
C166 H185 0.950 . S
Zn167 N161 2.020 1_545 S
Zn167 O170 2.025 1_655 S
Zn167 O175 2.024 1_655 S
Zn167 O177 2.039 . S
Zn167 O179 2.034 . S
O168 C152 1.251 . S
O168 Zn159 2.039 . S
C169 O174 1.246 . S
C169 O175 1.249 . S
O170 C152 1.254 . S
O170 Zn167 2.025 1_455 S
H171 C163 0.952 . S
H172 C154 0.952 . S
H173 C162 0.948 1_455 S
O174 Zn159 2.034 . S
O174 C169 1.246 . S
O175 Zn167 2.024 1_455 S
O175 C169 1.249 . S
H176 C158 0.948 1_655 S
O177 Zn167 2.039 . S
O177 C181 1.251 . S
O178 Zn159 2.025 1_655 S
O178 C181 1.254 . S
O179 C160 1.246 . S
O179 Zn167 2.034 . S
O180 Zn159 2.024 1_655 S
O180 C160 1.249 . S
C181 O177 1.251 . S
C181 O178 1.254 . S
H182 C155 0.949 . S
H183 C157 0.950 . S
H184 C164 0.949 . S
H185 C166 0.950 . S
C186 O202 1.251 . S
C186 O204 1.254 . S
N187 C188 1.333 . S
N187 C192 1.307 . S
N187 Zn193 2.020 . S
C188 N187 1.333 . S
C188 C189 1.379 . S
C188 H206 0.952 . S
C189 C188 1.379 . S
C189 C190 1.390 . S
C189 H216 0.949 . S
C190 C189 1.390 . S
C190 C191 1.357 . S
C191 C190 1.357 . S
C191 C192 1.370 . S
C191 H217 0.950 . S
C192 N187 1.307 . S
C192 C191 1.370 . S
C192 H210 0.948 . S
Zn193 N187 2.020 . S
Zn193 O202 2.039 . S
Zn193 O208 2.034 . S
Zn193 O212 2.025 . S
Zn193 O214 2.024 . S
C194 O213 1.245 . S
C194 O214 1.249 . S
N195 C196 1.307 . S
N195 C197 1.333 . S
N195 Zn201 2.020 1_565 S
C196 N195 1.307 . S
C196 C200 1.370 . S
C196 H207 0.948 . S
C197 N195 1.333 . S
C197 C198 1.379 . S
C197 H205 0.952 . S
C198 C197 1.379 . S
C198 C199 1.390 . S
C198 H218 0.949 . S
C199 C198 1.390 . S
C199 C200 1.357 . S
C200 C196 1.370 . S
C200 C199 1.357 . S
C200 H219 0.950 . S
Zn201 N195 2.020 1_545 S
Zn201 O204 2.025 . S
Zn201 O209 2.024 . S
Zn201 O211 2.039 . S
Zn201 O213 2.034 . S
O202 C186 1.251 . S
O202 Zn193 2.039 . S
C203 O208 1.246 . S
C203 O209 1.249 . S
O204 C186 1.254 . S
O204 Zn201 2.025 . S
H205 C197 0.952 . S
H206 C188 0.952 . S
H207 C196 0.948 . S
O208 Zn193 2.034 . S
O208 C203 1.246 . S
O209 Zn201 2.024 . S
O209 C203 1.249 . S
H210 C192 0.948 . S
O211 Zn201 2.039 . S
O211 C215 1.251 . S
O212 Zn193 2.025 . S
O212 C215 1.254 . S
O213 C194 1.245 . S
O213 Zn201 2.034 . S
O214 Zn193 2.024 . S
O214 C194 1.249 . S
C215 O211 1.251 . S
C215 O212 1.254 . S
H216 C189 0.949 . S
H217 C191 0.950 . S
H218 C198 0.949 . S
H219 C200 0.950 . S
C220 O236 1.251 . S
C220 O238 1.254 . S
N221 C222 1.333 . S
N221 C226 1.307 . S
N221 Zn227 2.020 . S
C222 N221 1.333 . S
C222 C223 1.379 . S
C222 H240 0.952 . S
C223 C222 1.379 . S
C223 C224 1.390 . S
C223 H250 0.949 . S
C224 C223 1.390 . S
C224 C225 1.357 . S
C225 C224 1.357 . S
C225 C226 1.370 . S
C225 H251 0.950 . S
C226 N221 1.307 . S
C226 C225 1.370 . S
C226 H244 0.948 . S
Zn227 N221 2.020 . S
Zn227 O236 2.039 . S
Zn227 O242 2.034 . S
Zn227 O246 2.025 . S
Zn227 O248 2.024 . S
C228 O247 1.246 . S
C228 O248 1.249 . S
N229 C230 1.307 . S
N229 C231 1.333 . S
N229 Zn235 2.020 . S
C230 N229 1.307 . S
C230 C234 1.370 . S
C230 H241 0.948 . S
C231 N229 1.333 . S
C231 C232 1.379 . S
C231 H239 0.952 . S
C232 C231 1.379 . S
C232 C233 1.390 . S
C232 H252 0.949 . S
C233 C232 1.390 . S
C233 C234 1.357 . S
C234 C230 1.370 . S
C234 C233 1.357 . S
C234 H253 0.950 . S
Zn235 N229 2.020 . S
Zn235 O238 2.025 . S
Zn235 O243 2.024 . S
Zn235 O245 2.039 . S
Zn235 O247 2.034 . S
O236 C220 1.251 . S
O236 Zn227 2.039 . S
C237 O242 1.246 . S
C237 O243 1.249 . S
O238 C220 1.254 . S
O238 Zn235 2.025 . S
H239 C231 0.952 . S
H240 C222 0.952 . S
H241 C230 0.948 . S
O242 Zn227 2.034 . S
O242 C237 1.246 . S
O243 Zn235 2.024 . S
O243 C237 1.249 . S
H244 C226 0.948 . S
O245 Zn235 2.039 . S
O245 C249 1.251 . S
O246 Zn227 2.025 . S
O246 C249 1.254 . S
O247 C228 1.246 . S
O247 Zn235 2.034 . S
O248 Zn227 2.024 . S
O248 C228 1.249 . S
C249 O245 1.251 . S
C249 O246 1.254 . S
H250 C223 0.949 . S
H251 C225 0.950 . S
H252 C232 0.949 . S
H253 C234 0.950 . S
C254 O270 1.270 . S
C254 O272 1.240 1_654 S
N255 C256 1.333 . S
N255 C260 1.307 . S
N255 Zn261 2.020 . S
C256 N255 1.333 . S
C256 C257 1.379 . S
C256 H274 0.952 . S
C257 C256 1.379 . S
C257 C258 1.390 . S
C257 H284 0.949 . S
C258 C257 1.390 . S
C258 C259 1.357 . S
C259 C258 1.357 . S
C259 C260 1.370 . S
C259 H285 0.950 . S
C260 N255 1.307 . S
C260 C259 1.370 . S
C260 H278 0.948 . S
Zn261 N255 2.020 . S
Zn261 O270 2.039 . S
Zn261 O276 2.034 1_655 S
Zn261 O280 2.025 1_655 S
Zn261 O282 2.024 . S
C262 O281 1.246 . S
C262 O282 1.249 1_556 S
N263 C264 1.307 . S
N263 C265 1.333 . S
N263 Zn269 2.020 . S
C264 N263 1.307 . S
C264 C268 1.370 . S
C264 H275 0.948 . S
C265 N263 1.333 . S
C265 C266 1.379 . S
C265 H273 0.952 . S
C266 C265 1.379 . S
C266 C267 1.390 . S
C266 H286 0.949 . S
C267 C266 1.390 . S
C267 C268 1.357 . S
C268 C264 1.370 . S
C268 C267 1.357 . S
C268 H287 0.950 . S
Zn269 N263 2.020 . S
Zn269 O272 2.025 . S
Zn269 O277 2.024 1_556 S
Zn269 O279 2.039 1_556 S
Zn269 O281 2.034 1_455 S
O270 C254 1.270 . S
O270 Zn261 2.039 . S
C271 O276 1.246 . S
C271 O277 1.249 . S
O272 C254 1.240 1_456 S
O272 Zn269 2.025 . S
H273 C265 0.952 . S
H274 C256 0.952 . S
H275 C264 0.948 . S
O276 Zn261 2.034 1_455 S
O276 C271 1.246 . S
O277 Zn269 2.024 1_554 S
O277 C271 1.249 . S
H278 C260 0.948 . S
O279 Zn269 2.039 1_554 S
O279 C283 1.251 . S
O280 Zn261 2.025 1_455 S
O280 C283 1.254 . S
O281 C262 1.246 . S
O281 Zn269 2.034 1_655 S
O282 Zn261 2.024 . S
O282 C262 1.249 1_554 S
C283 O279 1.251 . S
C283 O280 1.254 . S
H284 C257 0.949 . S
H285 C259 0.950 . S
H286 C266 0.949 . S
H287 C268 0.950 . S
H288 C294 0.930 . S
H289 C298 0.930 . S
H290 C303 0.929 . S
H291 C301 0.929 . S
H292 C296 0.929 . S
H293 C302 0.929 . S
C294 H288 0.930 . S
C294 C295 1.367 . S
C294 C302 1.378 . S
C295 C294 1.367 . S
C295 C303 1.433 . S
C296 H292 0.929 . S
C296 C298 1.378 . S
C296 C300 1.350 . S
C297 C300 1.463 . S
C297 C302 1.350 . S
C297 N305 1.427 . S
C298 H289 0.930 . S
C298 C296 1.378 . S
C298 C299 1.367 . S
C299 C298 1.367 . S
C299 C301 1.433 . S
C300 C296 1.350 . S
C300 C297 1.463 . S
C300 N304 1.427 . S
C301 H291 0.929 . S
C301 C299 1.433 . S
C301 N304 1.384 . S
C302 H293 0.929 . S
C302 C294 1.378 . S
C302 C297 1.350 . S
C303 H290 0.929 . S
C303 C295 1.433 . S
C303 N305 1.384 . S
N304 C300 1.427 . S
N304 C301 1.384 . S
N305 C297 1.427 . S
N305 C303 1.384 . S
H306 C312 0.930 . S
H307 C316 0.930 . S
H308 C321 0.929 1_545 S
H309 C319 0.929 . S
H310 C314 0.929 . S
H311 C320 0.929 . S
C312 H306 0.930 . S
C312 C313 1.367 . S
C312 C320 1.378 . S
C313 C312 1.367 . S
C313 C321 1.433 . S
C314 H310 0.929 . S
C314 C316 1.378 . S
C314 C318 1.350 1_545 S
C315 C318 1.463 . S
C315 C320 1.350 . S
C315 N323 1.427 1_565 S
C316 H307 0.930 . S
C316 C314 1.378 . S
C316 C317 1.367 . S
C317 C316 1.367 . S
C317 C319 1.433 1_545 S
C318 C314 1.350 1_565 S
C318 C315 1.463 . S
C318 N322 1.427 . S
C319 H309 0.929 . S
C319 C317 1.433 1_565 S
C319 N322 1.384 . S
C320 H311 0.929 . S
C320 C312 1.378 . S
C320 C315 1.350 . S
C321 H308 0.929 1_565 S
C321 C313 1.433 . S
C321 N323 1.384 1_565 S
N322 C318 1.427 . S
N322 C319 1.384 . S
N323 C315 1.427 1_545 S
N323 C321 1.384 1_545 S
H324 C330 0.930 . S
H325 C334 0.930 . S
H326 C339 0.929 . S
H327 C337 0.929 . S
H328 C332 0.929 . S
H329 C338 0.929 . S
C330 H324 0.930 . S
C330 C331 1.367 . S
C330 C338 1.378 . S
C331 C330 1.367 . S
C331 C339 1.433 . S
C332 H328 0.929 . S
C332 C334 1.378 . S
C332 C336 1.350 . S
C333 C336 1.463 . S
C333 C338 1.350 . S
C333 N341 1.427 . S
C334 H325 0.930 . S
C334 C332 1.378 . S
C334 C335 1.367 . S
C335 C334 1.367 . S
C335 C337 1.433 . S
C336 C332 1.350 . S
C336 C333 1.463 . S
C336 N340 1.427 . S
C337 H327 0.929 . S
C337 C335 1.433 . S
C337 N340 1.384 . S
C338 H329 0.929 . S
C338 C330 1.378 . S
C338 C333 1.350 . S
C339 H326 0.929 . S
C339 C331 1.433 . S
C339 N341 1.384 . S
N340 C336 1.427 . S
N340 C337 1.384 . S
N341 C333 1.427 . S
N341 C339 1.384 . S
H342 C348 0.930 . S
H343 C352 0.930 . S
H344 C357 0.929 . S
H345 C355 0.929 . S
H346 C350 0.929 . S
H347 C356 0.929 . S
C348 H342 0.930 . S
C348 C349 1.367 . S
C348 C356 1.378 . S
C349 C348 1.367 . S
C349 C357 1.433 . S
C350 H346 0.929 . S
C350 C352 1.378 . S
C350 C354 1.350 . S
C351 C354 1.463 . S
C351 C356 1.350 . S
C351 N359 1.427 . S
C352 H343 0.930 . S
C352 C350 1.378 . S
C352 C353 1.367 . S
C353 C352 1.367 . S
C353 C355 1.433 . S
C354 C350 1.350 . S
C354 C351 1.463 . S
C354 N358 1.427 . S
C355 H345 0.929 . S
C355 C353 1.433 . S
C355 N358 1.384 . S
C356 H347 0.929 . S
C356 C348 1.378 . S
C356 C351 1.350 . S
C357 H344 0.929 . S
C357 C349 1.433 . S
C357 N359 1.384 . S
N358 C354 1.427 . S
N358 C355 1.384 . S
N359 C351 1.427 . S
N359 C357 1.384 . S
H360 C366 0.930 . S
H361 C370 0.930 . S
H362 C375 0.929 . S
H363 C373 0.929 . S
H364 C368 0.929 . S
H365 C374 0.929 . S
C366 H360 0.930 . S
C366 C367 1.367 . S
C366 C374 1.378 . S
C367 C366 1.367 . S
C367 C375 1.433 . S
C368 H364 0.929 . S
C368 C370 1.378 . S
C368 C372 1.350 . S
C369 C372 1.463 . S
C369 C374 1.350 . S
C369 N377 1.427 . S
C370 H361 0.930 . S
C370 C368 1.378 . S
C370 C371 1.367 . S
C371 C370 1.367 . S
C371 C373 1.433 . S
C372 C368 1.350 . S
C372 C369 1.463 . S
C372 N376 1.427 . S
C373 H363 0.929 . S
C373 C371 1.433 . S
C373 N376 1.384 . S
C374 H365 0.929 . S
C374 C366 1.378 . S
C374 C369 1.350 . S
C375 H362 0.929 . S
C375 C367 1.433 . S
C375 N377 1.384 . S
N376 C372 1.427 . S
N376 C373 1.384 . S
N377 C369 1.427 . S
N377 C375 1.384 . S
H378 C384 0.930 . S
H379 C388 0.930 . S
H380 C393 0.929 . S
H381 C391 0.929 . S
H382 C386 0.929 . S
H383 C392 0.929 . S
C384 H378 0.930 . S
C384 C385 1.367 1_545 S
C384 C392 1.378 . S
C385 C384 1.367 1_565 S
C385 C393 1.433 . S
C386 H382 0.929 . S
C386 C388 1.378 . S
C386 C390 1.350 1_565 S
C387 C390 1.463 . S
C387 C392 1.350 . S
C387 N395 1.427 1_545 S
C388 H379 0.930 . S
C388 C386 1.378 . S
C388 C389 1.367 1_565 S
C389 C388 1.367 1_545 S
C389 C391 1.433 . S
C390 C386 1.350 1_545 S
C390 C387 1.463 . S
C390 N394 1.427 . S
C391 H381 0.929 . S
C391 C389 1.433 . S
C391 N394 1.384 . S
C392 H383 0.929 . S
C392 C384 1.378 . S
C392 C387 1.350 . S
C393 H380 0.929 . S
C393 C385 1.433 . S
C393 N395 1.384 . S
N394 C390 1.427 . S
N394 C391 1.384 . S
N395 C387 1.427 1_565 S
N395 C393 1.384 . S
H396 C402 0.930 . S
H397 C406 0.930 . S
H398 C411 0.929 1_554 S
H399 C409 0.929 . S
H400 C404 0.929 . S
H401 C410 0.929 . S
C402 H396 0.930 . S
C402 C403 1.367 . S
C402 C410 1.378 . S
C403 C402 1.367 . S
C403 C411 1.433 . S
C404 H400 0.929 . S
C404 C406 1.378 . S
C404 C408 1.350 1_554 S
C405 C408 1.463 . S
C405 C410 1.350 . S
C405 N413 1.427 . S
C406 H397 0.930 . S
C406 C404 1.378 . S
C406 C407 1.367 1_554 S
C407 C406 1.367 1_556 S
C407 C409 1.433 . S
C408 C404 1.350 1_556 S
C408 C405 1.463 . S
C408 N412 1.427 . S
C409 H399 0.929 . S
C409 C407 1.433 . S
C409 N412 1.384 . S
C410 H401 0.929 . S
C410 C402 1.378 . S
C410 C405 1.350 . S
C411 H398 0.929 1_556 S
C411 C403 1.433 . S
C411 N413 1.384 . S
N412 C408 1.427 . S
N412 C409 1.384 . S
N413 C405 1.427 . S
N413 C411 1.384 . S
H414 C420 0.930 . S
H415 C424 0.930 . S
H416 C429 0.929 . S
H417 C427 0.929 . S
H418 C422 0.929 . S
H419 C428 0.929 . S
C420 H414 0.930 . S
C420 C421 1.367 . S
C420 C428 1.378 . S
C421 C420 1.367 . S
C421 C429 1.433 . S
C422 H418 0.929 . S
C422 C424 1.378 . S
C422 C426 1.350 . S
C423 C426 1.463 . S
C423 C428 1.350 . S
C423 N431 1.427 . S
C424 H415 0.930 . S
C424 C422 1.378 . S
C424 C425 1.367 . S
C425 C424 1.367 . S
C425 C427 1.433 . S
C426 C422 1.350 . S
C426 C423 1.463 . S
C426 N430 1.427 . S
C427 H417 0.929 . S
C427 C425 1.433 . S
C427 N430 1.384 . S
C428 H419 0.929 . S
C428 C420 1.378 . S
C428 C423 1.350 . S
C429 H416 0.929 . S
C429 C421 1.433 . S
C429 N431 1.384 . S
N430 C426 1.427 . S
N430 C427 1.384 . S
N431 C423 1.427 . S
N431 C429 1.384 . S
H432 C438 0.930 . S
H433 C442 0.930 . S
H434 C447 0.929 . S
H435 C445 0.929 . S
H436 C440 0.929 . S
H437 C446 0.929 . S
C438 H432 0.930 . S
C438 C439 1.367 . S
C438 C446 1.378 . S
C439 C438 1.367 . S
C439 C447 1.433 . S
C440 H436 0.929 . S
C440 C442 1.378 . S
C440 C444 1.350 . S
C441 C444 1.463 . S
C441 C446 1.350 . S
C441 N449 1.427 . S
C442 H433 0.930 . S
C442 C440 1.378 . S
C442 C443 1.367 . S
C443 C442 1.367 . S
C443 C445 1.433 . S
C444 C440 1.350 . S
C444 C441 1.463 . S
C444 N448 1.427 . S
C445 H435 0.929 . S
C445 C443 1.433 . S
C445 N448 1.384 . S
C446 H437 0.929 . S
C446 C438 1.378 . S
C446 C441 1.350 . S
C447 H434 0.929 . S
C447 C439 1.433 . S
C447 N449 1.384 . S
N448 C444 1.427 . S
N448 C445 1.384 . S
N449 C441 1.427 . S
N449 C447 1.384 . S
H450 C456 0.930 . S
H451 C460 0.930 . S
H452 C465 0.929 . S
H453 C463 0.929 . S
H454 C458 0.929 . S
H455 C464 0.929 . S
C456 H450 0.930 . S
C456 C457 1.367 . S
C456 C464 1.378 . S
C457 C456 1.367 . S
C457 C465 1.433 1_556 S
C458 H454 0.929 . S
C458 C460 1.378 . S
C458 C462 1.350 1_554 S
C459 C462 1.463 . S
C459 C464 1.350 . S
C459 N467 1.427 1_556 S
C460 H451 0.930 . S
C460 C458 1.378 . S
C460 C461 1.367 . S
C461 C460 1.367 . S
C461 C463 1.433 1_554 S
C462 C458 1.350 1_556 S
C462 C459 1.463 . S
C462 N466 1.427 . S
C463 H453 0.929 . S
C463 C461 1.433 1_556 S
C463 N466 1.384 . S
C464 H455 0.929 . S
C464 C456 1.378 . S
C464 C459 1.350 . S
C465 H452 0.929 . S
C465 C457 1.433 1_554 S
C465 N467 1.384 . S
N466 C462 1.427 . S
N466 C463 1.384 . S
N467 C459 1.427 1_554 S
N467 C465 1.384 . S
H468 C474 0.930 . S
H469 C478 0.930 . S
H470 C483 0.929 . S
H471 C481 0.929 . S
H472 C476 0.929 . S
H473 C482 0.929 . S
C474 H468 0.930 . S
C474 C475 1.367 . S
C474 C482 1.378 . S
C475 C474 1.367 . S
C475 C483 1.433 . S
C476 H472 0.929 . S
C476 C478 1.378 . S
C476 C480 1.350 . S
C477 C480 1.463 . S
C477 C482 1.350 . S
C477 N485 1.427 . S
C478 H469 0.930 . S
C478 C476 1.378 . S
C478 C479 1.367 . S
C479 C478 1.367 . S
C479 C481 1.433 . S
C480 C476 1.350 . S
C480 C477 1.463 . S
C480 N484 1.427 . S
C481 H471 0.929 . S
C481 C479 1.433 . S
C481 N484 1.384 . S
C482 H473 0.929 . S
C482 C474 1.378 . S
C482 C477 1.350 . S
C483 H470 0.929 . S
C483 C475 1.433 . S
C483 N485 1.384 . S
N484 C480 1.427 . S
N484 C481 1.384 . S
N485 C477 1.427 . S
N485 C483 1.384 . S
H486 C492 0.930 . S
H487 C496 0.930 . S
H488 C501 0.929 . S
H489 C499 0.929 . S
H490 C494 0.929 . S
H491 C500 0.929 . S
C492 H486 0.930 . S
C492 C493 1.367 . S
C492 C500 1.378 . S
C493 C492 1.367 . S
C493 C501 1.433 . S
C494 H490 0.929 . S
C494 C496 1.378 . S
C494 C498 1.350 . S
C495 C498 1.463 . S
C495 C500 1.350 . S
C495 N503 1.427 . S
C496 H487 0.930 . S
C496 C494 1.378 . S
C496 C497 1.367 . S
C497 C496 1.367 . S
C497 C499 1.433 . S
C498 C494 1.350 . S
C498 C495 1.463 . S
C498 N502 1.427 . S
C499 H489 0.929 . S
C499 C497 1.433 . S
C499 N502 1.384 . S
C500 H491 0.929 . S
C500 C492 1.378 . S
C500 C495 1.350 . S
C501 H488 0.929 . S
C501 C493 1.433 . S
C501 N503 1.384 . S
N502 C498 1.427 . S
N502 C499 1.384 . S
N503 C495 1.427 . S
N503 C501 1.384 . S
H504 C510 0.927 1_545 S
H505 C514 0.930 . S
H506 C519 0.929 . S
H507 C517 0.929 1_455 S
H508 C512 0.929 . S
H509 C518 0.929 1_545 S
C510 H504 0.927 1_565 S
C510 C511 1.367 . S
C510 C518 1.378 . S
C511 C510 1.367 . S
C511 C519 1.433 . S
C512 H508 0.929 . S
C512 C514 1.378 . S
C512 C516 1.350 . S
C513 C516 1.463 . S
C513 C518 1.350 . S
C513 N521 1.427 . S
C514 H505 0.930 . S
C514 C512 1.378 . S
C514 C515 1.367 1_565 S
C515 C514 1.367 1_545 S
C515 C517 1.433 . S
C516 C512 1.350 . S
C516 C513 1.463 . S
C516 N520 1.427 1_565 S
C517 H507 0.929 1_655 S
C517 C515 1.433 . S
C517 N520 1.384 . S
C518 H509 0.929 1_565 S
C518 C510 1.378 . S
C518 C513 1.350 . S
C519 H506 0.929 . S
C519 C511 1.433 . S
C519 N521 1.384 . S
N520 C516 1.427 1_545 S
N520 C517 1.384 . S
N521 C513 1.427 . S
N521 C519 1.384 . S
H522 C528 0.930 . S
H523 C532 0.930 . S
H524 C537 0.929 . S
H525 C535 0.929 . S
H526 C530 0.929 . S
H527 C536 0.929 . S
C528 H522 0.930 . S
C528 C529 1.367 . S
C528 C536 1.378 . S
C529 C528 1.367 . S
C529 C537 1.433 . S
C530 H526 0.929 . S
C530 C532 1.378 . S
C530 C534 1.350 . S
C531 C534 1.463 . S
C531 C536 1.350 . S
C531 N539 1.427 . S
C532 H523 0.930 . S
C532 C530 1.378 . S
C532 C533 1.367 . S
C533 C532 1.367 . S
C533 C535 1.433 . S
C534 C530 1.350 . S
C534 C531 1.463 . S
C534 N538 1.427 . S
C535 H525 0.929 . S
C535 C533 1.433 . S
C535 N538 1.384 . S
C536 H527 0.929 . S
C536 C528 1.378 . S
C536 C531 1.350 . S
C537 H524 0.929 . S
C537 C529 1.433 . S
C537 N539 1.384 . S
N538 C534 1.427 . S
N538 C535 1.384 . S
N539 C531 1.427 . S
N539 C537 1.384 . S
H540 C546 0.930 . S
H541 C550 0.930 . S
H542 C555 0.929 . S
H543 C553 0.929 . S
H544 C548 0.929 . S
H545 C554 0.929 . S
C546 H540 0.930 . S
C546 C547 1.367 . S
C546 C554 1.378 . S
C547 C546 1.367 . S
C547 C555 1.433 . S
C548 H544 0.929 . S
C548 C550 1.378 . S
C548 C552 1.350 . S
C549 C552 1.463 . S
C549 C554 1.350 . S
C549 N557 1.427 . S
C550 H541 0.930 . S
C550 C548 1.378 . S
C550 C551 1.367 . S
C551 C550 1.367 . S
C551 C553 1.433 . S
C552 C548 1.350 . S
C552 C549 1.463 . S
C552 N556 1.427 . S
C553 H543 0.929 . S
C553 C551 1.433 . S
C553 N556 1.384 . S
C554 H545 0.929 . S
C554 C546 1.378 . S
C554 C549 1.350 . S
C555 H542 0.929 . S
C555 C547 1.433 . S
C555 N557 1.384 . S
N556 C552 1.427 . S
N556 C553 1.384 . S
N557 C549 1.427 . S
N557 C555 1.384 . S
H558 C564 0.930 . S
H559 C568 0.930 . S
H560 C573 0.929 . S
H561 C571 0.929 . S
H562 C566 0.929 . S
H563 C572 0.929 . S
C564 H558 0.930 . S
C564 C565 1.367 . S
C564 C572 1.378 . S
C565 C564 1.367 . S
C565 C573 1.433 . S
C566 H562 0.929 . S
C566 C568 1.378 . S
C566 C570 1.350 . S
C567 C570 1.463 . S
C567 C572 1.350 . S
C567 N575 1.427 . S
C568 H559 0.930 . S
C568 C566 1.378 . S
C568 C569 1.367 . S
C569 C568 1.367 . S
C569 C571 1.433 . S
C570 C566 1.350 . S
C570 C567 1.463 . S
C570 N574 1.427 . S
C571 H561 0.929 . S
C571 C569 1.433 . S
C571 N574 1.384 . S
C572 H563 0.929 . S
C572 C564 1.378 . S
C572 C567 1.350 . S
C573 H560 0.929 . S
C573 C565 1.433 . S
C573 N575 1.384 . S
N574 C570 1.427 . S
N574 C571 1.384 . S
N575 C567 1.427 . S
N575 C573 1.384 . S
H576 C582 0.930 . S
H577 C586 0.930 1_556 S
H578 C591 0.929 . S
H579 C589 0.929 . S
H580 C584 0.929 . S
H581 C590 0.929 1_554 S
C582 H576 0.930 . S
C582 C583 1.367 . S
C582 C590 1.378 . S
C583 C582 1.367 . S
C583 C591 1.433 1_565 S
C584 H580 0.929 . S
C584 C586 1.378 1_556 S
C584 C588 1.350 . S
C585 C588 1.463 1_565 S
C585 C590 1.350 . S
C585 N593 1.427 1_565 S
C586 H577 0.930 1_554 S
C586 C584 1.378 1_554 S
C586 C587 1.367 . S
C587 C586 1.367 . S
C587 C589 1.433 1_545 S
C588 C584 1.350 . S
C588 C585 1.463 1_545 S
C588 N592 1.427 1_546 S
C589 H579 0.929 . S
C589 C587 1.433 1_565 S
C589 N592 1.384 . S
C590 H581 0.929 1_556 S
C590 C582 1.378 . S
C590 C585 1.350 . S
C591 H578 0.929 . S
C591 C583 1.433 1_545 S
C591 N593 1.384 . S
N592 C588 1.427 1_564 S
N592 C589 1.384 . S
N593 C585 1.427 1_545 S
N593 C591 1.384 . S
H594 C600 0.930 . S
H595 C604 0.930 . S
H596 C609 0.929 . S
H597 C607 0.929 . S
H598 C602 0.929 . S
H599 C608 0.929 . S
C600 H594 0.930 . S
C600 C601 1.367 . S
C600 C608 1.378 . S
C601 C600 1.367 . S
C601 C609 1.433 . S
C602 H598 0.929 . S
C602 C604 1.378 . S
C602 C606 1.350 . S
C603 C606 1.463 . S
C603 C608 1.350 . S
C603 N611 1.427 . S
C604 H595 0.930 . S
C604 C602 1.378 . S
C604 C605 1.367 . S
C605 C604 1.367 . S
C605 C607 1.433 . S
C606 C602 1.350 . S
C606 C603 1.463 . S
C606 N610 1.427 . S
C607 H597 0.929 . S
C607 C605 1.433 . S
C607 N610 1.384 . S
C608 H599 0.929 . S
C608 C600 1.378 . S
C608 C603 1.350 . S
C609 H596 0.929 . S
C609 C601 1.433 . S
C609 N611 1.384 . S
N610 C606 1.427 . S
N610 C607 1.384 . S
N611 C603 1.427 . S
N611 C609 1.384 . S
H612 C618 0.930 . S
H613 C622 0.930 . S
H614 C627 0.929 . S
H615 C625 0.929 . S
H616 C620 0.929 . S
H617 C626 0.929 . S
C618 H612 0.930 . S
C618 C619 1.367 . S
C618 C626 1.378 . S
C619 C618 1.367 . S
C619 C627 1.433 . S
C620 H616 0.929 . S
C620 C622 1.378 . S
C620 C624 1.350 . S
C621 C624 1.463 . S
C621 C626 1.350 . S
C621 N629 1.427 . S
C622 H613 0.930 . S
C622 C620 1.378 . S
C622 C623 1.367 . S
C623 C622 1.367 . S
C623 C625 1.433 . S
C624 C620 1.350 . S
C624 C621 1.463 . S
C624 N628 1.427 . S
C625 H615 0.929 . S
C625 C623 1.433 . S
C625 N628 1.384 . S
C626 H617 0.929 . S
C626 C618 1.378 . S
C626 C621 1.350 . S
C627 H614 0.929 . S
C627 C619 1.433 . S
C627 N629 1.384 . S
N628 C624 1.427 . S
N628 C625 1.384 . S
N629 C621 1.427 . S
N629 C627 1.384 . S
H630 C636 0.930 . S
H631 C640 0.930 . S
H632 C645 0.929 . S
H633 C643 0.929 . S
H634 C638 0.929 . S
H635 C644 0.929 . S
C636 H630 0.930 . S
C636 C637 1.367 . S
C636 C644 1.378 . S
C637 C636 1.367 . S
C637 C645 1.433 . S
C638 H634 0.929 . S
C638 C640 1.378 . S
C638 C642 1.350 . S
C639 C642 1.463 . S
C639 C644 1.350 . S
C639 N647 1.427 . S
C640 H631 0.930 . S
C640 C638 1.378 . S
C640 C641 1.367 . S
C641 C640 1.367 . S
C641 C643 1.433 . S
C642 C638 1.350 . S
C642 C639 1.463 . S
C642 N646 1.427 . S
C643 H633 0.929 . S
C643 C641 1.433 . S
C643 N646 1.384 . S
C644 H635 0.929 . S
C644 C636 1.378 . S
C644 C639 1.350 . S
C645 H632 0.929 . S
C645 C637 1.433 . S
C645 N647 1.384 . S
N646 C642 1.427 . S
N646 C643 1.384 . S
N647 C639 1.427 . S
N647 C645 1.384 . S
H648 C654 0.930 . S
H649 C658 0.930 . S
H650 C663 0.929 . S
H651 C661 0.929 . S
H652 C656 0.929 . S
H653 C662 0.929 1_455 S
C654 H648 0.930 . S
C654 C655 1.367 . S
C654 C662 1.378 . S
C655 C654 1.367 . S
C655 C663 1.433 . S
C656 H652 0.929 . S
C656 C658 1.378 . S
C656 C660 1.350 . S
C657 C660 1.463 . S
C657 C662 1.350 . S
C657 N665 1.427 . S
C658 H649 0.930 . S
C658 C656 1.378 . S
C658 C659 1.367 . S
C659 C658 1.367 . S
C659 C661 1.433 1_655 S
C660 C656 1.350 . S
C660 C657 1.463 . S
C660 N664 1.427 . S
C661 H651 0.929 . S
C661 C659 1.433 1_455 S
C661 N664 1.384 1_455 S
C662 H653 0.929 1_655 S
C662 C654 1.378 . S
C662 C657 1.350 . S
C663 H650 0.929 . S
C663 C655 1.433 . S
C663 N665 1.384 . S
N664 C660 1.427 . S
N664 C661 1.384 1_655 S
N665 C657 1.427 . S
N665 C663 1.384 . S
H666 C672 0.930 . S
H667 C676 0.930 . S
H668 C681 0.929 . S
H669 C679 0.929 . S
H670 C674 0.929 . S
H671 C680 0.929 . S
C672 H666 0.930 . S
C672 C673 1.367 . S
C672 C680 1.378 . S
C673 C672 1.367 . S
C673 C681 1.433 . S
C674 H670 0.929 . S
C674 C676 1.378 . S
C674 C678 1.350 . S
C675 C678 1.463 . S
C675 C680 1.350 . S
C675 N683 1.427 . S
C676 H667 0.930 . S
C676 C674 1.378 . S
C676 C677 1.367 . S
C677 C676 1.367 . S
C677 C679 1.433 . S
C678 C674 1.350 . S
C678 C675 1.463 . S
C678 N682 1.427 . S
C679 H669 0.929 . S
C679 C677 1.433 . S
C679 N682 1.384 . S
C680 H671 0.929 . S
C680 C672 1.378 . S
C680 C675 1.350 . S
C681 H668 0.929 . S
C681 C673 1.433 . S
C681 N683 1.384 . S
N682 C678 1.427 . S
N682 C679 1.384 . S
N683 C675 1.427 . S
N683 C681 1.384 . S
H684 C690 0.930 . S
H685 C694 0.930 . S
H686 C699 0.929 . S
H687 C697 0.929 . S
H688 C692 0.929 . S
H689 C698 0.929 . S
C690 H684 0.930 . S
C690 C691 1.367 . S
C690 C698 1.378 . S
C691 C690 1.367 . S
C691 C699 1.433 . S
C692 H688 0.929 . S
C692 C694 1.378 . S
C692 C696 1.350 . S
C693 C696 1.463 . S
C693 C698 1.350 . S
C693 N701 1.427 . S
C694 H685 0.930 . S
C694 C692 1.378 . S
C694 C695 1.367 . S
C695 C694 1.367 . S
C695 C697 1.433 . S
C696 C692 1.350 . S
C696 C693 1.463 . S
C696 N700 1.427 . S
C697 H687 0.929 . S
C697 C695 1.433 . S
C697 N700 1.384 . S
C698 H689 0.929 . S
C698 C690 1.378 . S
C698 C693 1.350 . S
C699 H686 0.929 . S
C699 C691 1.433 . S
C699 N701 1.384 . S
N700 C696 1.427 . S
N700 C697 1.384 . S
N701 C693 1.427 . S
N701 C699 1.384 . S
H702 C708 0.930 . S
H703 C712 0.930 . S
H704 C717 0.929 . S
H705 C715 0.929 . S
H706 C710 0.929 . S
H707 C716 0.929 . S
C708 H702 0.930 . S
C708 C709 1.367 . S
C708 C716 1.378 . S
C709 C708 1.367 . S
C709 C717 1.433 . S
C710 H706 0.929 . S
C710 C712 1.378 . S
C710 C714 1.350 . S
C711 C714 1.463 . S
C711 C716 1.350 . S
C711 N719 1.427 . S
C712 H703 0.930 . S
C712 C710 1.378 . S
C712 C713 1.367 . S
C713 C712 1.367 . S
C713 C715 1.433 . S
C714 C710 1.350 . S
C714 C711 1.463 . S
C714 N718 1.427 . S
C715 H705 0.929 . S
C715 C713 1.433 . S
C715 N718 1.384 . S
C716 H707 0.929 . S
C716 C708 1.378 . S
C716 C711 1.350 . S
C717 H704 0.929 . S
C717 C709 1.433 . S
C717 N719 1.384 . S
N718 C714 1.427 . S
N718 C715 1.384 . S
N719 C711 1.427 . S
N719 C717 1.384 . S
C295 C6 2.616 . S
C299 C152 2.635 . S
C313 C21 2.866 . S
C317 C194 2.883 1_556 S
C335 C224 0.510 . S
C331 C49 0.548 . S
C349 C68 0.828 . S
C353 C258 0.884 . S
C371 C215 2.542 . S
C367 C2 2.522 . S
C389 C169 1.646 . S
C385 C30 1.441 . S
C407 C262 1.028 . S
C403 C40 1.032 . S
C425 C228 1.053 . S
C421 C63 1.040 . S
C439 C11 1.987 . S
C443 C283 2.220 . S
C461 C190 1.267 . S
C457 C44 1.250 . S
C475 C59 0.860 . S
C479 C165 0.859 . S
C493 C25 2.466 . S
C497 C249 2.491 . S
C515 C181 2.818 . S
C511 C82 2.796 . S
C529 C101 2.574 . S
C533 C203 2.586 . S
C547 C125 0.833 . S
C551 C233 0.822 . S
C565 C144 0.695 . S
C569 C267 0.615 . S
C583 C87 1.493 . S
C587 C186 1.652 . S
C605 C160 2.509 . S
C601 C97 2.496 . S
C623 C271 0.975 . S
C619 C120 0.963 . S
C641 C237 1.149 . S
C637 C135 1.129 . S
C655 C78 2.590 . S
C659 C254 2.590 1_556 S
C677 C199 0.836 . S
C673 C116 0.832 . S
C695 C156 1.260 . S
C691 C139 1.232 . S
C709 C106 2.063 . S
C713 C220 2.187 . S
