# Generated by pormake.
# Topology zzz, (3,6)-cn, num edge types: 1
# Building blocks:
#     Node 0, Type 0, BuildingBlock: BETDIP_clean_linker_0, # of connection points: 3
#     Node 1, Type 0, BuildingBlock: BETDIP_clean_linker_0, # of connection points: 3
#     Node 2, Type 0, BuildingBlock: BETDIP_clean_linker_0, # of connection points: 3
#     Node 3, Type 0, BuildingBlock: BETDIP_clean_linker_0, # of connection points: 3
#     Node 4, Type 0, BuildingBlock: BETDIP_clean_linker_0, # of connection points: 3
#     Node 5, Type 0, BuildingBlock: BETDIP_clean_linker_0, # of connection points: 3
#     Node 6, Type 0, BuildingBlock: BETDIP_clean_linker_0, # of connection points: 3
#     Node 7, Type 0, BuildingBlock: BETDIP_clean_linker_0, # of connection points: 3
#     Node 8, Type 1, BuildingBlock: KUMBUR_clean_sbu_1, # of connection points: 6
#     Node 9, Type 1, BuildingBlock: KUMBUR_clean_sbu_1, # of connection points: 6
#     Node 10, Type 1, BuildingBlock: KUMBUR_clean_sbu_1, # of connection points: 6
#     Node 11, Type 1, BuildingBlock: KUMBUR_clean_sbu_1, # of connection points: 6
#     Edge 12, Type (0, 1), BuildingBlock: CIFDUS_clean_linker_0, # of connection points: 2
#     Edge 13, Type (0, 1), BuildingBlock: CIFDUS_clean_linker_0, # of connection points: 2
#     Edge 14, Type (0, 1), BuildingBlock: CIFDUS_clean_linker_0, # of connection points: 2
#     Edge 15, Type (0, 1), BuildingBlock: CIFDUS_clean_linker_0, # of connection points: 2
#     Edge 16, Type (0, 1), BuildingBlock: CIFDUS_clean_linker_0, # of connection points: 2
#     Edge 17, Type (0, 1), BuildingBlock: CIFDUS_clean_linker_0, # of connection points: 2
#     Edge 18, Type (0, 1), BuildingBlock: CIFDUS_clean_linker_0, # of connection points: 2
#     Edge 19, Type (0, 1), BuildingBlock: CIFDUS_clean_linker_0, # of connection points: 2
#     Edge 20, Type (0, 1), BuildingBlock: CIFDUS_clean_linker_0, # of connection points: 2
#     Edge 21, Type (0, 1), BuildingBlock: CIFDUS_clean_linker_0, # of connection points: 2
#     Edge 22, Type (0, 1), BuildingBlock: CIFDUS_clean_linker_0, # of connection points: 2
#     Edge 23, Type (0, 1), BuildingBlock: CIFDUS_clean_linker_0, # of connection points: 2
#     Edge 24, Type (0, 1), BuildingBlock: CIFDUS_clean_linker_0, # of connection points: 2
#     Edge 25, Type (0, 1), BuildingBlock: CIFDUS_clean_linker_0, # of connection points: 2
#     Edge 26, Type (0, 1), BuildingBlock: CIFDUS_clean_linker_0, # of connection points: 2
#     Edge 27, Type (0, 1), BuildingBlock: CIFDUS_clean_linker_0, # of connection points: 2
#     Edge 28, Type (0, 1), BuildingBlock: CIFDUS_clean_linker_0, # of connection points: 2
#     Edge 29, Type (0, 1), BuildingBlock: CIFDUS_clean_linker_0, # of connection points: 2
#     Edge 30, Type (0, 1), BuildingBlock: CIFDUS_clean_linker_0, # of connection points: 2
#     Edge 31, Type (0, 1), BuildingBlock: CIFDUS_clean_linker_0, # of connection points: 2
#     Edge 32, Type (0, 1), BuildingBlock: CIFDUS_clean_linker_0, # of connection points: 2
#     Edge 33, Type (0, 1), BuildingBlock: CIFDUS_clean_linker_0, # of connection points: 2
#     Edge 34, Type (0, 1), BuildingBlock: CIFDUS_clean_linker_0, # of connection points: 2
#     Edge 35, Type (0, 1), BuildingBlock: CIFDUS_clean_linker_0, # of connection points: 2
# Relax obj value: 0.205
# Max RMSD: 0.112
# Mean RMSD: 0.082
data_MOF--net-zzz--node1-KUMBUR_clean_sbu_1--node2-BETDIP_clean_linker_0--edge1-CIFDUS_clean_linker_0
_symmetry_space_group_name_H-M    P1
_symmetry_Int_Tables_number       1
_symmetry_cell_setting            triclinic
loop_
_symmetry_equiv_pos_as_xyz
'x, y, z'
_cell_length_a     43.96919
_cell_length_b     43.93458
_cell_length_c     13.813029
_cell_angle_alpha  89.735135
_cell_angle_beta   90.113702
_cell_angle_gamma 90.37367
loop_
_atom_site_label
_atom_site_type_symbol
_atom_site_fract_x
_atom_site_fract_y
_atom_site_fract_z
_atom_type_partial_charge
H0 H 0.76859 0.54659 0.46808 0.0
H1 H 0.75902 0.56916 0.16475 0.0
H2 H 0.84763 0.56298 0.28922 0.0
H3 H 0.71551 0.59311 0.22381 0.0
C4 C 0.7066 0.57182 0.25274 0.0
C5 C 0.77864 0.55288 0.39933 0.0
C6 C 0.81133 0.55472 0.39068 0.0
C7 C 0.75915 0.55874 0.31702 0.0
C8 C 0.77298 0.56594 0.22857 0.0
C9 C 0.80451 0.56657 0.21792 0.0
C10 C 0.8232 0.56212 0.29898 0.0
N11 N 0.72628 0.55497 0.31808 0.0
H12 H 0.03247 0.78496 0.4064 0.0
H13 H 0.96965 0.75662 0.18408 0.0
H14 H 0.97894 0.85119 0.25421 0.0
H15 H 0.97388 0.71011 0.27485 0.0
C16 C 0.99786 0.71035 0.2558 0.0
C17 C 1.01485 0.79027 0.35428 0.0
C18 C 1.00371 0.82087 0.34662 0.0
C19 C 1.00263 0.76657 0.29404 0.0
C20 C 0.97963 0.77426 0.22849 0.0
C21 C 0.9737 0.80465 0.20514 0.0
C22 C 0.98397 0.82753 0.26906 0.0
N23 N 1.01551 0.73636 0.28801 0.0
H24 H 0.7788 0.05535 0.38005 0.0
H25 H 0.81272 0.9759 0.23358 0.0
H26 H 0.729 0.97096 0.39137 0.0
H27 H 0.8601 0.99881 0.28702 0.0
C28 C 0.85464 1.01931 0.24637 0.0
C29 C 0.77702 0.03134 0.3636 0.0
C30 C 0.75084 1.01441 0.39502 0.0
C31 C 0.80049 1.01704 0.30801 0.0
C32 C 0.79654 0.98634 0.28197 0.0
C33 C 0.77005 0.97006 0.30602 0.0
C34 C 0.74904 0.9836 0.36925 0.0
N35 N 0.82603 0.03379 0.26794 0.0
H36 H 0.5388 0.7876 0.43455 0.0
H37 H 0.56468 0.80238 0.13666 0.0
H38 H 0.55899 0.71159 0.2482 0.0
H39 H 0.58793 0.84633 0.21869 0.0
C40 C 0.56457 0.85297 0.23273 0.0
C41 C 0.54596 0.77877 0.36527 0.0
C42 C 0.54929 0.74643 0.35288 0.0
C43 C 0.55177 0.79948 0.28629 0.0
C44 C 0.56093 0.78733 0.19789 0.0
C45 C 0.56289 0.75606 0.18339 0.0
C46 C 0.5576 0.7359 0.26072 0.0
N47 N 0.54654 0.83196 0.29022 0.0
H48 H 0.27617 0.52609 0.05086 0.0
H49 H 0.29678 0.47714 0.31404 0.0
H50 H 0.20467 0.48246 0.2138 0.0
H51 H 0.34479 0.46979 0.21529 0.0
C52 C 0.34657 0.49432 0.224 0.0
C53 C 0.26898 0.51167 0.1104 0.0
C54 C 0.23757 0.50254 0.11788 0.0
C55 C 0.291 0.50172 0.18081 0.0
C56 C 0.28079 0.48379 0.25817 0.0
C57 C 0.24978 0.47876 0.27429 0.0
C58 C 0.22872 0.48638 0.20139 0.0
N59 N 0.32223 0.51241 0.1832 0.0
H60 H 0.06514 0.27523 0.08738 0.0
H61 H 0.98641 0.29794 0.25912 0.0
H62 H 0.98808 0.21462 0.09928 0.0
H63 H 1.00028 0.34625 0.21072 0.0
C64 C 0.02359 0.34528 0.23681 0.0
C65 C 0.04232 0.27016 0.11225 0.0
C66 C 0.02745 0.24272 0.08131 0.0
C67 C 0.0271 0.29119 0.17474 0.0
C68 C 0.99782 0.28326 0.20835 0.0
C69 C 0.98359 0.25583 0.18185 0.0
C70 C 0.99839 0.23637 0.11728 0.0
N71 N 0.0413 0.31914 0.20857 0.0
H72 H 0.27571 0.0358 0.031 0.0
H73 H 0.26572 0.0967 0.27383 0.0
H74 H 0.34765 0.09799 0.10674 0.0
H75 H 0.2137 0.09728 0.205 0.0
C76 C 0.21212 0.07276 0.21499 0.0
C77 C 0.28418 0.05444 0.07458 0.0
C78 C 0.31417 0.06617 0.058 0.0
C79 C 0.26552 0.06666 0.1501 0.0
C80 C 0.27806 0.08931 0.21041 0.0
C81 C 0.30762 0.10044 0.1956 0.0
C82 C 0.32449 0.08989 0.1167 0.0
N83 N 0.23571 0.05446 0.17246 0.0
H84 H 0.49698 0.29419 0.09819 0.0
H85 H 0.56657 0.26448 0.29739 0.0
H86 H 0.57718 0.34899 0.14428 0.0
H87 H 0.54149 0.21174 0.18646 0.0
C88 C 0.52544 0.21924 0.24092 0.0
C89 C 0.5191 0.29746 0.1312 0.0
C90 C 0.53696 0.32379 0.10646 0.0
C91 C 0.53042 0.2751 0.1981 0.0
C92 C 0.55859 0.28035 0.24279 0.0
C93 C 0.57512 0.30715 0.22521 0.0
C94 C 0.56469 0.3279 0.15529 0.0
N95 N 0.51268 0.24922 0.22985 0.0
Tb96 Tb 0.99542 0.04985 0.61609 0.0
C97 C 0.11938 0.05126 0.85847 0.0
N98 N 0.10959 0.03373 0.7839 0.0
C99 C 0.15994 0.0346 0.71638 0.0
C100 C 0.14966 0.06192 0.8638 0.0
C101 C 0.12985 0.02405 0.71584 0.0
C102 C 0.16981 0.05398 0.79002 0.0
C103 C 0.10895 0.07291 0.01573 0.0
C104 C 0.09948 0.05663 0.93309 0.0
C105 C 0.13874 0.08456 0.02021 0.0
C106 C 0.15908 0.0791 0.94424 0.0
Tb107 Tb 0.0596 1.01814 0.78828 0.0
N108 N 0.07104 0.04478 0.92611 0.0
C109 C 0.0883 0.07655 0.09172 0.0
C110 C 0.05144 0.04659 1.00273 0.0
C111 C 0.05941 0.06328 0.08513 0.0
H112 H 0.12315 1.00749 0.66239 0.0
H113 H 0.04328 0.06591 0.14343 0.0
H114 H 0.93483 0.02256 0.7291 0.0
H115 H 0.0425 0.02662 0.26045 0.0
H116 H 0.0293 0.03592 0.9989 0.0
H117 H 0.09455 0.08914 0.15613 0.0
H118 H 0.037 0.05561 0.40995 0.0
H119 H 0.17566 0.02724 0.66115 0.0
H120 H 0.14644 0.09727 0.08278 0.0
H121 H 0.18222 0.08758 0.94955 0.0
H122 H 0.89423 0.98484 0.69759 0.0
H123 H 0.19327 0.0617 0.79126 0.0
H124 H 1.0062 0.9853 0.22169 0.0
N125 N 0.95783 1.01437 0.59651 0.0
C126 C 0.95723 0.99973 0.51001 0.0
C127 C 0.91198 0.98861 0.64463 0.0
C128 C 0.93449 0.97799 0.48894 0.0
C129 C 0.93522 1.00973 0.66281 0.0
C130 C 0.91168 0.97255 0.55755 0.0
N131 N 1.00151 0.02743 0.46706 0.0
C132 C 0.02254 0.03609 0.39929 0.0
C133 C 0.9813 0.99001 0.35579 0.0
C134 C 0.98029 1.00585 0.44437 0.0
C135 C 1.00446 0.9971 0.29018 0.0
C136 C 0.02499 1.02041 0.3118 0.0
H137 H 0.89377 0.95605 0.54401 0.0
H138 H 0.9185 0.94498 0.38407 0.0
H139 H 0.95974 0.95514 0.26825 0.0
O140 O 0.98007 0.07851 0.50437 0.0
O141 O 0.99893 1.00057 0.65346 0.0
O142 O 0.04939 0.99155 0.65554 0.0
O143 O 0.9574 0.07765 0.64217 0.0
O144 O 0.04289 0.06327 0.57822 0.0
O145 O 0.07163 0.02326 0.63345 0.0
O146 O 0.04481 0.98366 0.88147 0.0
O147 O 0.04602 0.06601 0.81892 0.0
O148 O 0.0262 0.08492 0.67628 0.0
O149 O 0.09035 0.98322 0.82641 0.0
O150 O 1.01123 1.0124 0.83199 0.0
O151 O 0.98296 0.05208 0.77081 0.0
C152 C 0.02179 0.98263 0.63183 0.0
C153 C 0.92855 0.0929 0.50428 0.0
C154 C 0.8973 0.1264 0.40461 0.0
C155 C 0.87559 0.10303 0.39471 0.0
C156 C 0.9066 0.06978 0.49517 0.0
C157 C 0.88015 0.07495 0.44086 0.0
C158 C 0.92363 0.12096 0.4596 0.0
C159 C 0.06823 0.04712 0.57669 0.0
C160 C 0.95767 0.08893 0.55508 0.0
C161 C 0.93558 0.96201 0.40125 0.0
C162 C 0.95908 0.96781 0.33526 0.0
C163 C 0.03642 0.089 0.7653 0.0
C164 C 0.06204 0.93693 0.82617 0.0
C165 C 0.02338 0.89734 0.80232 0.0
C166 C 0.04135 0.88487 0.72831 0.0
C167 C 0.07979 0.924 0.75287 0.0
C168 C 0.03467 0.92277 0.85245 0.0
C169 C 0.06962 0.89779 0.70543 0.0
C170 C 0.98825 0.03165 0.8389 0.0
C171 C 0.06881 0.96724 0.86673 0.0
H172 H 0.85537 0.10644 0.3512 0.0
H173 H 0.90988 0.04783 0.52856 0.0
H174 H 0.86335 0.05699 0.43352 0.0
H175 H 0.9412 0.13836 0.4646 0.0
H176 H 0.03372 0.86521 0.68792 0.0
H177 H 0.10099 0.93451 0.7304 0.0
H178 H 0.02207 0.93206 0.91268 0.0
H179 H 0.08325 0.88802 0.64845 0.0
Tb180 Tb 0.54926 0.06208 0.83404 0.0
C181 C 0.51942 0.93815 0.71698 0.0
N182 N 0.53611 0.95915 0.66768 0.0
C183 C 0.57625 0.92301 0.64783 0.0
C184 C 0.53121 0.90916 0.73851 0.0
C185 C 0.56365 0.95161 0.62908 0.0
C186 C 0.56017 0.90185 0.70407 0.0
C187 C 0.47197 0.92463 0.7949 0.0
C188 C 0.49035 0.94591 0.74503 0.0
C189 C 0.48403 0.89618 0.82086 0.0
C190 C 0.5136 0.88843 0.79258 0.0
Tb191 Tb 0.51419 1.00563 0.64451 0.0
N192 N 0.47953 0.97361 0.7181 0.0
C193 C 0.44172 0.93218 0.81391 0.0
C194 C 0.44917 0.97959 0.72749 0.0
C195 C 0.4301 0.95949 0.77803 0.0
H196 H 0.57616 0.96789 0.5857 0.0
H197 H 0.40631 0.96487 0.78778 0.0
H198 H 0.50786 0.06255 0.03368 0.0
H199 H 0.61052 0.15515 0.66487 0.0
H200 H 0.43931 0.9996 0.69491 0.0
H201 H 0.42682 0.9165 0.85212 0.0
H202 H 0.60086 0.10143 0.70979 0.0
H203 H 0.59839 0.91735 0.61917 0.0
H204 H 0.4704 0.87968 0.86033 0.0
H205 H 0.52238 0.86617 0.81116 0.0
H206 H 0.47808 0.0998 0.12763 0.0
H207 H 0.57006 0.87979 0.71896 0.0
H208 H 0.57757 0.19573 0.7296 0.0
N209 N 0.52258 0.09507 0.92918 0.0
C210 C 0.52423 0.12495 0.90518 0.0
C211 C 0.49055 0.10708 0.06417 0.0
C212 C 0.50816 0.14712 0.95745 0.0
C213 C 0.5072 0.08604 1.01041 0.0
C214 C 0.49055 0.1377 0.03649 0.0
N215 N 0.56167 0.11136 0.79405 0.0
C216 C 0.58622 0.11896 0.73782 0.0
C217 C 0.54968 0.16446 0.81305 0.0
C218 C 0.54466 0.13345 0.83473 0.0
C219 C 0.57304 0.17219 0.7486 0.0
C220 C 0.59174 0.14935 0.71219 0.0
H221 H 0.47799 0.15401 0.07905 0.0
H222 H 0.49917 0.1954 0.97088 0.0
H223 H 0.53548 0.2106 0.84354 0.0
O224 O 0.58706 0.0365 0.8755 0.0
O225 O 0.5414 0.08142 0.68755 0.0
O226 O 0.50205 0.05378 0.6201 0.0
O227 O 0.57362 0.07681 0.95775 0.0
O228 O 0.58352 0.04646 0.72628 0.0
O229 O 0.55876 0.02302 0.5973 0.0
O230 O 0.48468 0.98407 0.54583 0.0
O231 O 0.54574 0.99345 0.76393 0.0
O232 O 0.52931 1.01947 0.89159 0.0
O233 O 0.52644 1.00438 0.49772 0.0
O234 O 0.47969 0.03521 0.71473 0.0
O235 O 0.50228 0.0454 0.86154 0.0
C236 C 0.51982 0.07812 0.62214 0.0
C237 C 0.61731 0.04811 0.01668 0.0
C238 C 0.65873 1.01593 0.07009 0.0
C239 C 0.66435 0.03597 0.14708 0.0
C240 C 0.62281 0.06774 0.09482 0.0
C241 C 0.64635 0.06164 0.1597 0.0
C242 C 0.6354 0.02214 1.0045 0.0
C243 C 0.5835 0.03436 0.63851 0.0
C244 C 0.59201 0.05382 0.95017 0.0
C245 C 0.51153 0.178 0.93229 0.0
C246 C 0.53223 0.18666 0.85988 0.0
C247 C 0.5374 0.99332 0.85531 0.0
C248 C 0.48426 1.01119 0.39901 0.0
C249 C 0.44697 0.0502 0.36022 0.0
C250 C 0.45664 0.04951 0.26313 0.0
C251 C 0.49366 1.0108 0.30224 0.0
C252 C 0.46118 0.03111 0.42786 0.0
C253 C 0.47991 0.03 0.23468 0.0
C254 C 0.47764 0.04209 0.80753 0.0
C255 C 0.50044 0.99303 0.47147 0.0
H256 H 0.6831 0.03201 0.19619 0.0
H257 H 0.60895 0.08772 0.10581 0.0
H258 H 0.65076 0.0769 0.21948 0.0
H259 H 0.63137 1.0067 0.94473 0.0
H260 H 0.44545 0.0632 0.20849 0.0
H261 H 0.5118 0.99591 0.2793 0.0
H262 H 0.45426 0.03182 0.5031 0.0
H263 H 0.48706 0.02947 0.1599 0.0
Tb264 Tb 0.56172 0.52483 0.619 0.0
C265 C 0.44048 0.51163 0.88831 0.0
N266 N 0.44835 0.5302 0.81346 0.0
C267 C 0.39672 0.52919 0.75584 0.0
C268 C 0.41036 0.50093 0.89964 0.0
C269 C 0.42679 0.53948 0.74831 0.0
C270 C 0.38847 0.50974 0.83165 0.0
C271 C 0.45539 0.48491 0.03449 0.0
C272 C 0.4626 0.50394 0.95504 0.0
C273 C 0.42548 0.47409 0.04608 0.0
C274 C 0.403 0.48211 0.97883 0.0
Tb275 Tb 0.49822 0.5458 0.80814 0.0
N276 N 0.49128 0.51485 0.94135 0.0
C277 C 0.4785 0.47712 0.09947 0.0
C278 C 0.51375 0.50776 1.00631 0.0
C279 C 0.50783 0.48848 0.08486 0.0
H280 H 0.43244 0.55537 0.69135 0.0
H281 H 0.52599 0.48236 0.13411 0.0
H282 H 0.61768 0.5746 0.66154 0.0
H283 H 0.50122 0.5018 0.28462 0.0
H284 H 0.53662 0.51585 0.99691 0.0
H285 H 0.47397 0.46232 0.16082 0.0
H286 H 0.52465 0.48831 0.43998 0.0
H287 H 0.37986 0.53655 0.70372 0.0
H288 H 0.41951 0.45954 0.10679 0.0
H289 H 0.37998 0.47373 0.9889 0.0
H290 H 0.63877 0.62116 0.58537 0.0
H291 H 0.3651 0.502 0.83773 0.0
H292 H 0.51137 0.55229 0.21034 0.0
N293 N 0.58414 0.56758 0.55241 0.0
C294 C 0.57296 0.57703 0.46581 0.0
C295 C 0.6202 0.60901 0.55108 0.0
C296 C 0.58413 0.60359 0.42004 0.0
C297 C 0.60836 0.58255 0.5937 0.0
C298 C 0.60778 0.61981 0.46448 0.0
N299 N 0.54261 0.53282 0.4654 0.0
C300 C 0.52756 0.51118 0.41237 0.0
C301 C 0.53991 0.56735 0.32906 0.0
C302 C 0.55098 0.55932 0.42169 0.0
C303 C 0.5206 0.54695 0.28116 0.0
C304 C 0.51496 0.51843 0.32233 0.0
H305 H 0.61692 0.64038 0.43179 0.0
H306 H 0.5797 0.63334 0.29522 0.0
H307 H 0.54108 0.60139 0.21493 0.0
O308 O 0.57693 0.48621 0.54273 0.0
O309 O 0.55348 0.57276 0.66475 0.0
O310 O 0.5026 0.57301 0.67391 0.0
O311 O 0.60862 0.51821 0.59991 0.0
O312 O 0.51496 0.50451 0.60197 0.0
O313 O 0.48407 0.54227 0.65525 0.0
O314 O 0.51337 0.58625 0.87291 0.0
O315 O 0.50758 0.49625 0.80649 0.0
O316 O 0.55489 0.49024 0.7344 0.0
O317 O 0.46567 0.57405 0.87317 0.0
O318 O 0.54575 0.54974 0.8695 0.0
O319 O 0.58194 0.5312 0.76182 0.0
C320 C 0.52783 0.58722 0.65035 0.0
C321 C 0.62211 0.46654 0.61015 0.0
C322 C 0.63624 0.41304 0.61265 0.0
C323 C 0.64902 0.41665 0.70491 0.0
C324 C 0.63557 0.47008 0.70212 0.0
C325 C 0.64905 0.44525 0.74877 0.0
C326 C 0.62308 0.43808 0.5654 0.0
C327 C 0.48861 0.51895 0.59823 0.0
C328 C 0.60529 0.49152 0.56268 0.0
C329 C 0.57175 0.61276 0.33084 0.0
C330 C 0.54964 0.59466 0.2854 0.0
C331 C 0.53212 0.48002 0.78856 0.0
C332 C 0.47912 0.62408 0.82521 0.0
C333 C 0.49813 0.67361 0.77142 0.0
C334 C 0.47624 0.67405 0.69733 0.0
C335 C 0.45716 0.6249 0.75096 0.0
C336 C 0.49889 0.64871 0.83586 0.0
C337 C 0.45574 0.64982 0.68774 0.0
C338 C 0.57422 0.54226 0.84691 0.0
C339 C 0.48547 0.59604 0.88073 0.0
H340 H 0.65874 0.39739 0.74289 0.0
H341 H 0.63511 0.49175 0.73902 0.0
H342 H 0.65895 0.44805 0.82 0.0
H343 H 0.61232 0.43506 0.49529 0.0
H344 H 0.47497 0.69306 0.64732 0.0
H345 H 0.44166 0.60605 0.73986 0.0
H346 H 0.51515 0.64814 0.89494 0.0
H347 H 0.43899 0.65012 0.63021 0.0
Tb348 Tb 0.04322 0.55528 0.66712 0.0
C349 C 0.05064 0.47004 1.00173 0.0
N350 N 0.0394 0.46378 0.91271 0.0
C351 C 0.06765 0.41719 0.9099 0.0
C352 C 0.07222 0.45108 0.04669 0.0
C353 C 0.04678 0.4372 0.86745 0.0
C354 C 0.0808 0.42438 0.9993 0.0
C355 C 0.05045 0.50299 0.14089 0.0
C356 C 0.03951 0.49506 0.04841 0.0
C357 C 0.07333 0.48535 0.18444 0.0
C358 C 0.08397 0.45918 0.13779 0.0
Tb359 Tb 1.00583 0.49792 0.8474 0.0
N360 N 1.01642 0.5104 1.00559 0.0
C361 C 0.03742 0.52788 0.1874 0.0
C362 C 1.00067 0.5314 0.05764 0.0
C363 C 1.01205 0.54189 0.14595 0.0
H364 H 0.0372 0.43194 0.7973 0.0
H365 H 1.0009 0.56046 0.1823 0.0
H366 H 0.05221 0.62229 0.77944 0.0
H367 H 0.9894 0.52924 0.32683 0.0
H368 H 0.9797 0.54072 0.03031 0.0
H369 H 0.04586 0.5355 0.25697 0.0
H370 H 0.02734 0.5225 0.45671 0.0
H371 H 0.07388 0.39646 0.87309 0.0
H372 H 0.08215 0.49113 0.25536 0.0
H373 H 0.10088 0.44516 0.17331 0.0
H374 H 0.02709 0.67221 0.77955 0.0
H375 H 0.09719 0.40905 0.03154 0.0
H376 H 0.95917 0.57656 0.31746 0.0
N377 N 0.02418 0.60397 0.66755 0.0
C378 C 1.00387 0.61068 0.59663 0.0
C379 C 0.01994 0.65493 0.72857 0.0
C380 C 0.98952 0.63925 0.59175 0.0
C381 C 0.03372 0.62631 0.72952 0.0
C382 C 0.99729 0.66125 0.66054 0.0
N383 N 1.01498 0.56317 0.52961 0.0
C384 C 1.01381 0.54292 0.45462 0.0
C385 C 0.97897 0.59551 0.4478 0.0
C386 C 0.99916 0.58954 0.52475 0.0
C387 C 0.97519 0.57335 0.37629 0.0
C388 C 0.99264 0.54689 0.38011 0.0
H389 H 0.98684 0.68352 0.65935 0.0
H390 H 0.9573 0.66695 0.51195 0.0
H391 H 0.94763 0.62831 0.38659 0.0
O392 O 0.08267 0.541 0.59616 0.0
O393 O 0.99659 0.53728 0.63516 0.0
O394 O 0.97248 0.52936 0.77897 0.0
O395 O 0.07293 0.5886 0.60967 0.0
O396 O 0.04857 0.50644 0.62241 0.0
O397 O 1.00823 0.48226 0.69743 0.0
O398 O 0.96936 0.48016 0.93028 0.0
O399 O 0.05586 0.49689 0.8175 0.0
O400 O 0.06847 0.54657 0.80302 0.0
O401 O 0.98432 0.45794 0.80155 0.0
O402 O 0.99519 0.54705 0.86638 0.0
O403 O 0.03919 0.57053 0.81983 0.0
C404 C 0.97117 0.53568 0.68569 0.0
C405 C 0.12304 0.57221 0.64383 0.0
C406 C 0.172 0.54951 0.68455 0.0
C407 C 0.17597 0.57113 0.75821 0.0
C408 C 0.12718 0.59351 0.71845 0.0
C409 C 0.15371 0.59313 0.77443 0.0
C410 C 0.14576 0.55092 0.62637 0.0
C411 C 0.02926 0.48319 0.62984 0.0
C412 C 0.09375 0.5685 0.59297 0.0
C413 C 0.96878 0.64523 0.51651 0.0
C414 C 0.96337 0.6233 0.44491 0.0
C415 C 0.07567 0.5191 0.83222 0.0
C416 C 0.93207 0.4622 0.81759 0.0
C417 C 0.88398 0.48893 0.79739 0.0
C418 C 0.87853 0.47296 0.71122 0.0
C419 C 0.92597 0.44601 0.7319 0.0
C420 C 0.91069 0.48318 0.85041 0.0
C421 C 0.89942 0.4515 0.67904 0.0
C422 C 1.01442 0.57018 0.87308 0.0
C423 C 0.96245 0.4604 0.86339 0.0
H424 H 0.19611 0.57099 0.80341 0.0
H425 H 0.10973 0.60995 0.73511 0.0
H426 H 0.15675 0.6095 0.832 0.0
H427 H 0.14263 0.53522 0.56679 0.0
H428 H 0.85818 0.47708 0.66896 0.0
H429 H 0.9422 0.42981 0.70408 0.0
H430 H 0.91492 0.49515 0.91756 0.0
H431 H 0.89521 0.4393 0.6124 0.0
H432 H 0.16511 0.1055 0.28474 0.0
H433 H 0.20022 1.01422 0.28625 0.0
H434 H 0.159 0.99815 0.39599 0.0
H435 H 0.11298 1.01047 0.49504 0.0
H436 H 0.07919 0.10243 0.49241 0.0
H437 H 0.11919 0.11744 0.37914 0.0
C438 C 0.16373 0.08198 0.30853 0.0
C439 C 0.18602 0.06117 0.27664 0.0
C440 C 0.13999 0.07298 0.37209 0.0
C441 C 0.18357 0.03081 0.30867 0.0
C442 C 0.15994 0.02164 0.37199 0.0
C443 C 0.11458 0.03392 0.47099 0.0
C444 C 0.09303 0.05538 0.50487 0.0
C445 C 0.13809 0.04259 0.40516 0.0
C446 C 0.09521 0.08536 0.46903 0.0
C447 C 0.11826 0.09403 0.40399 0.0
H448 H 0.52108 0.15733 0.23334 0.0
H449 H 0.5165 0.23153 0.4351 0.0
H450 H 0.51464 0.19503 0.57075 0.0
H451 H 0.51709 0.1413 0.63325 0.0
H452 H 0.51779 0.06771 0.42844 0.0
H453 H 0.51768 0.10416 0.29415 0.0
C454 C 0.51902 0.16556 0.30692 0.0
C455 C 0.51872 0.19737 0.32328 0.0
C456 C 0.51734 0.14429 0.38465 0.0
C457 C 0.51628 0.20739 0.41957 0.0
C458 C 0.51549 0.18639 0.49746 0.0
C459 C 0.51704 0.13326 0.55924 0.0
C460 C 0.51738 0.10145 0.54171 0.0
C461 C 0.51647 0.1547 0.48124 0.0
C462 C 0.51702 0.09174 0.44479 0.0
C463 C 0.51723 0.11273 0.36759 0.0
H464 H 0.39336 0.46126 0.2975 0.0
H465 H 0.35799 0.55244 0.29882 0.0
H466 H 0.39838 0.56789 0.41261 0.0
H467 H 0.44366 0.55512 0.51567 0.0
H468 H 0.47785 0.46335 0.51393 0.0
H469 H 0.4386 0.44881 0.39675 0.0
C470 C 0.3945 0.48464 0.32206 0.0
C471 C 0.37233 0.50559 0.28854 0.0
C472 C 0.4178 0.49329 0.38823 0.0
C473 C 0.3745 0.53574 0.32205 0.0
C474 C 0.39768 0.54454 0.38782 0.0
C475 C 0.44245 0.53184 0.49037 0.0
C476 C 0.4641 0.51037 0.52509 0.0
C477 C 0.41939 0.52347 0.42231 0.0
C478 C 0.462 0.4805 0.48923 0.0
C479 C 0.43936 0.47212 0.42197 0.0
H480 H 0.98554 0.38089 0.33547 0.0
H481 H 0.08144 0.36646 0.29782 0.0
H482 H 0.09243 0.40921 0.40877 0.0
H483 H 0.07385 0.45112 0.52154 0.0
H484 H 0.97693 0.45939 0.56305 0.0
H485 H 0.96759 0.41963 0.44637 0.0
C486 C 1.00898 0.38691 0.35144 0.0
C487 C 0.03252 0.37011 0.30779 0.0
C488 C 1.01499 0.41104 0.4164 0.0
C489 C 0.0627 0.37853 0.33038 0.0
C490 C 0.06895 0.40322 0.39384 0.0
C491 C 0.05072 0.44445 0.50407 0.0
C492 C 0.02611 0.45934 0.55095 0.0
C493 C 0.04521 0.41982 0.43792 0.0
C494 C 0.99642 0.44937 0.52804 0.0
C495 C 0.99094 0.42619 0.46126 0.0
H496 H 0.90653 0.99054 0.19911 0.0
H497 H 0.85283 0.06766 0.11276 0.0
H498 H 0.88906 0.07867 0.98087 0.0
H499 H 0.93626 0.06537 0.88667 0.0
H500 H 0.98827 0.98718 0.97789 0.0
H501 H 0.95268 0.97774 0.10858 0.0
C502 C 0.90269 1.00992 0.15179 0.0
C503 C 0.87672 0.02818 0.16672 0.0
C504 C 0.92353 1.0159 0.07575 0.0
C505 C 0.8724 0.05312 0.10388 0.0
C506 C 0.89323 0.05937 0.02802 0.0
C507 C 0.93992 0.04631 0.9353 0.0
C508 C 0.9655 0.02712 0.92069 0.0
C509 C 0.91892 0.04079 1.01255 0.0
C510 C 0.96932 1.00258 0.98564 0.0
C511 C 0.9488 0.99708 0.0614 0.0
H512 H 0.5932 0.87996 0.08236 0.0
H513 H 0.51032 0.88635 0.24621 0.0
H514 H 0.49502 0.93073 0.1476 0.0
H515 H 0.50568 0.96842 1.01236 0.0
H516 H 0.58805 0.95852 0.84686 0.0
H517 H 0.60286 0.91528 0.94742 0.0
C518 C 0.57167 0.89094 0.09678 0.0
C519 C 0.55307 0.87957 0.17263 0.0
C520 C 0.56292 0.91613 0.03876 0.0
C521 C 0.52519 0.89426 0.18887 0.0
C522 C 0.51649 0.9198 0.13223 0.0
C523 C 0.52695 0.95686 0.99881 0.0
C524 C 0.5458 0.96712 0.92147 0.0
C525 C 0.53522 0.93112 0.05682 0.0
C526 C 0.57303 0.95139 0.90488 0.0
C527 C 0.58156 0.92653 0.96275 0.0
H528 H 0.70253 0.56101 0.06037 0.0
H529 H 0.64797 0.55875 0.31814 0.0
H530 H 0.60185 0.55093 0.21912 0.0
H531 H 0.57625 0.54739 0.05424 0.0
H532 H 0.63397 0.5476 0.80114 0.0
H533 H 0.67841 0.55382 0.90177 0.0
C534 C 0.68067 0.5579 0.09543 0.0
C535 C 0.67927 0.55949 0.19753 0.0
C536 C 0.65418 0.55365 0.03763 0.0
C537 C 0.65029 0.5565 0.24045 0.0
C538 C 0.62368 0.55251 0.18316 0.0
C539 C 0.59845 0.54862 0.02072 0.0
C540 C 0.6008 0.54697 0.91767 0.0
C541 C 0.62513 0.55147 0.08083 0.0
C542 C 0.63046 0.54875 0.87849 0.0
C543 C 0.65638 0.55226 0.93661 0.0
H544 H 0.96209 0.66819 0.16924 0.0
H545 H 0.05567 0.69747 0.17997 0.0
H546 H 0.06916 0.6573 0.06368 0.0
H547 H 0.05403 0.61281 0.95843 0.0
H548 H 0.9593 0.58678 0.94541 0.0
H549 H 0.94689 0.62616 0.06216 0.0
C550 C 0.98555 0.6659 0.1464 0.0
C551 C 1.00778 0.68608 0.18458 0.0
C552 C 0.99299 0.64299 0.0784 0.0
C553 C 0.03796 0.68252 0.15284 0.0
C554 C 0.04565 0.65942 0.08591 0.0
C555 C 0.03061 0.61591 0.98031 0.0
C556 C 1.00771 0.59615 0.94239 0.0
C557 C 0.02335 0.6394 0.04781 0.0
C558 C 0.97759 0.60093 0.97308 0.0
C559 C 0.97039 0.62367 0.04019 0.0
H560 H 0.93642 0.22222 0.10691 0.0
H561 H 0.96778 0.26378 0.37223 0.0
H562 H 0.93322 0.23189 0.46482 0.0
H563 H 0.90674 0.183 0.47418 0.0
H564 H 0.88465 0.13461 0.21241 0.0
H565 H 0.90215 0.17796 0.1154 0.0
C566 C 0.93539 0.22461 0.18494 0.0
C567 C 0.95568 0.24463 0.23235 0.0
C568 C 0.91735 0.20431 0.2389 0.0
C569 C 0.95285 0.24851 0.33304 0.0
C570 C 0.93327 0.22989 0.38663 0.0
C571 C 0.90486 0.18244 0.39584 0.0
C572 C 0.89533 0.15546 0.35027 0.0
C573 C 0.91729 0.20628 0.34093 0.0
C574 C 0.89217 0.15507 0.2491 0.0
C575 C 0.90262 0.17971 0.19363 0.0
H576 H 0.31274 0.08019 0.37874 0.0
H577 H 0.34335 0.15245 0.19138 0.0
H578 H 0.39514 0.14688 0.25212 0.0
H579 H 0.43207 0.10809 0.30604 0.0
H580 H 0.40036 0.03173 0.47678 0.0
H581 H 0.34923 0.05218 0.4767 0.0
C582 C 0.33037 0.09602 0.35568 0.0
C583 C 0.32507 0.1149 0.27519 0.0
C584 C 0.36042 0.09065 0.38459 0.0
C585 C 0.3474 0.13666 0.2504 0.0
C586 C 0.37726 0.13286 0.28317 0.0
C587 C 0.41409 0.09646 0.34554 0.0
C588 C 0.41967 0.06781 0.38755 0.0
C589 C 0.3843 0.10767 0.34167 0.0
C590 C 0.3966 0.05354 0.44206 0.0
C591 C 0.36719 0.06516 0.4417 0.0
H592 H 0.5753 0.30278 0.42084 0.0
H593 H 0.62954 0.33454 0.18028 0.0
H594 H 0.65898 0.3671 0.28895 0.0
H595 H 0.66005 0.39517 0.44273 0.0
H596 H 0.60454 0.36453 0.68096 0.0
H597 H 0.58536 0.32213 0.58364 0.0
C598 C 0.59445 0.31572 0.39265 0.0
C599 C 0.59967 0.31696 0.29223 0.0
C600 C 0.61067 0.33496 0.45508 0.0
C601 C 0.62463 0.33384 0.25709 0.0
C602 C 0.64136 0.35255 0.31908 0.0
C603 C 0.64468 0.37841 0.47405 0.0
C604 C 0.63333 0.38288 0.56773 0.0
C605 C 0.63319 0.35473 0.41683 0.0
C606 C 0.6135 0.36129 0.60872 0.0
C607 C 0.60234 0.3373 0.55279 0.0
H608 H 0.27362 0.5047 0.43434 0.0
H609 H 0.20133 0.44434 0.34221 0.0
H610 H 0.17411 0.45415 0.49313 0.0
H611 H 0.16501 0.49089 0.62304 0.0
H612 H 0.23375 0.55839 0.68857 0.0
H613 H 0.26934 0.53282 0.58292 0.0
C614 C 0.25263 0.4924 0.44841 0.0
C615 C 0.23912 0.47443 0.37553 0.0
C616 C 0.23638 0.49968 0.53168 0.0
C617 C 0.21183 0.45889 0.39603 0.0
C618 C 0.19626 0.46458 0.4822 0.0
C619 C 0.18801 0.49966 0.61534 0.0
C620 C 0.19613 0.52753 0.65889 0.0
C621 C 0.20727 0.4868 0.54639 0.0
C622 C 0.2265 0.5375 0.654 0.0
C623 C 0.24679 0.5231 0.59216 0.0
H624 H 0.94461 0.85575 0.13145 0.0
H625 H 0.98445 0.77049 0.04097 0.0
H626 H 0.99387 0.79085 0.88381 0.0
H627 H 1.00955 0.83669 0.80034 0.0
H628 H 0.97186 0.92315 0.88317 0.0
H629 H 0.94358 0.89845 0.01363 0.0
C630 C 0.95473 0.84135 0.07695 0.0
C631 C 0.96558 0.81228 0.10246 0.0
C632 C 0.96187 0.8537 0.98567 0.0
C633 C 0.97646 0.79333 0.02756 0.0
C634 C 0.98238 0.80506 0.93608 0.0
C635 C 0.99412 0.8502 0.84319 0.0
C636 C 0.99519 0.88206 0.83826 0.0
C637 C 0.97813 0.83597 0.91835 0.0
C638 C 0.97348 0.89867 0.89114 0.0
C639 C 0.95714 0.88458 0.96572 0.0
H640 H 0.78019 0.96114 0.11037 0.0
H641 H 0.73436 0.91768 0.34711 0.0
H642 H 0.68564 0.92331 0.26454 0.0
H643 H 0.658 0.96302 0.16998 0.0
H644 H 0.70518 1.01159 0.94362 0.0
H645 H 0.75131 0.98264 0.97636 0.0
C646 C 0.75972 0.95166 0.14247 0.0
C647 C 0.75925 0.94463 0.24209 0.0
C648 C 0.73183 0.95779 0.09736 0.0
C649 C 0.73427 0.92715 0.27456 0.0
C650 C 0.70616 0.93107 0.22843 0.0
C651 C 0.6779 0.96585 0.12438 0.0
C652 C 0.67893 0.98982 0.0569 0.0
C653 C 0.70461 0.95003 0.14646 0.0
C654 C 0.7044 0.99344 0.99697 0.0
C655 C 0.73079 0.97701 0.01613 0.0
H656 H 0.53161 0.77629 0.02902 0.0
H657 H 0.59862 0.70996 0.11422 0.0
H658 H 0.5921 0.68393 0.95906 0.0
H659 H 0.55764 0.6731 0.82443 0.0
H660 H 0.48336 0.73396 0.76438 0.0
H661 H 0.50456 0.77098 0.87656 0.0
C662 C 0.54574 0.75686 1.01225 0.0
C663 C 0.56515 0.74462 0.08328 0.0
C664 C 0.54069 0.74132 0.92589 0.0
C665 C 0.58307 0.71929 0.06107 0.0
C666 C 0.57942 0.70456 0.9724 0.0
C667 C 0.54665 0.69492 0.83413 0.0
C668 C 0.51805 0.70007 0.79146 0.0
C669 C 0.5568 0.71424 0.90757 0.0
C670 C 0.50491 0.72899 0.79888 0.0
C671 C 0.51671 0.74993 0.86472 0.0
H672 H 0.78346 0.53528 0.06349 0.0
H673 H 0.85614 0.59571 0.15182 0.0
H674 H 0.88531 0.58164 1.0085 0.0
H675 H 0.89415 0.54373 0.88238 0.0
H676 H 0.82253 0.48072 0.80472 0.0
H677 H 0.78805 0.50576 0.91625 0.0
C678 C 0.80507 0.54649 0.04974 0.0
C679 C 0.81795 0.56595 0.11955 0.0
C680 C 0.82193 0.53769 0.96913 0.0
C681 C 0.84612 0.58003 0.10037 0.0
C682 C 0.86276 0.57201 0.01849 0.0
C683 C 0.87074 0.53601 0.88806 0.0
C684 C 0.86115 0.50983 0.83794 0.0
C685 C 0.8516 0.54946 0.95599 0.0
C686 C 0.83057 0.50061 0.84336 0.0
C687 C 0.81094 0.5147 0.90801 0.0
H688 H 1.00857 0.22487 0.90163 0.0
H689 H 0.07335 0.20244 0.1241 0.0
H690 H 0.08253 0.15305 0.04676 0.0
H691 H 0.0681 0.11377 0.92331 0.0
H692 H 1.00329 0.13748 0.70125 0.0
H693 H 0.99835 0.18816 0.77002 0.0
C694 C 0.02565 0.20972 0.93117 0.0
C695 C 0.04085 0.21815 0.01778 0.0
C696 C 0.03028 0.18093 0.88718 0.0
C697 C 0.06203 0.1974 0.05626 0.0
C698 C 0.06685 0.16875 1.0127 0.0
C699 C 0.05304 0.12997 0.8895 0.0
C700 C 0.03596 0.12104 0.8067 0.0
C701 C 0.05046 0.1598 0.92945 0.0
C702 C 1.01687 0.14309 0.76429 0.0
C703 C 1.01395 0.17235 0.80393 0.0
H704 H 0.36678 0.03758 0.10402 0.0
H705 H 0.31648 0.07025 0.85775 0.0
H706 H 0.36196 0.06482 0.75552 0.0
H707 H 0.41854 0.0559 0.74047 0.0
H708 H 0.4674 0.02484 0.99307 0.0
H709 H 0.42072 0.02474 0.08677 0.0
C710 C 0.36537 0.04246 0.02706 0.0
C711 C 0.33763 0.05356 0.98877 0.0
C712 C 0.39203 0.04051 0.96981 0.0
C713 C 0.33692 0.06076 0.88928 0.0
C714 C 0.36327 0.05818 0.83104 0.0
C715 C 0.41894 0.04897 0.81586 0.0
C716 C 0.44719 0.04109 0.85946 0.0
C717 C 0.39137 0.04894 0.87101 0.0
C718 C 0.44668 0.03197 0.95741 0.0
C719 C 0.41974 0.03161 1.01139 0.0
H720 H 0.57122 0.35128 0.96509 0.0
H721 H 0.48233 0.3553 0.09462 0.0
H722 H 0.4723 0.40312 1.00681 0.0
H723 H 0.49047 0.44615 0.90049 0.0
H724 H 0.58056 0.44137 0.77829 0.0
H725 H 0.58816 0.39212 0.85489 0.0
C726 C 0.54936 0.36226 0.97328 0.0
C727 C 0.52757 0.34916 0.03708 0.0
C728 C 0.54409 0.39022 0.92432 0.0
C729 C 0.49946 0.36415 0.0456 0.0
C730 C 0.49388 0.39188 0.996 0.0
C731 C 0.51184 0.43451 0.89085 0.0
C732 C 0.5351 0.44848 0.83393 0.0
C733 C 0.5163 0.40559 0.93656 0.0
C734 C 0.56225 0.43204 0.82158 0.0
C735 C 0.56666 0.40355 0.86566 0.0
H736 H 0.19993 0.46596 1.00829 0.0
H737 H 0.21539 0.56002 0.07957 0.0
H738 H 0.16719 0.57375 1.00056 0.0
H739 H 0.11816 0.55846 0.91882 0.0
H740 H 0.10566 0.46471 0.83737 0.0
H741 H 0.15415 0.45164 0.91223 0.0
C742 C 0.19326 0.48965 1.00414 0.0
C743 C 0.21211 0.51194 0.04886 0.0
C744 C 0.16528 0.49742 0.95796 0.0
C745 C 0.20222 0.54236 0.04418 0.0
C746 C 0.17423 0.55017 0.99989 0.0
C747 C 0.12615 0.5352 0.91637 0.0
C748 C 0.10718 0.51248 0.87388 0.0
C749 C 0.15518 0.52786 0.95755 0.0
C750 C 0.11862 0.48261 0.87196 0.0
C751 C 0.14682 0.47512 0.91405 0.0
H752 H 0.96983 0.85561 0.47112 0.0
H753 H 0.06036 0.84834 0.35639 0.0
H754 H 0.07413 0.89739 0.43041 0.0
H755 H 0.05957 0.9445 0.52267 0.0
H756 H 0.97013 0.94828 0.64881 0.0
H757 H 0.957 0.89952 0.57586 0.0
C758 C 0.99284 0.86436 0.46409 0.0
C759 C 1.01412 0.84756 0.409 0.0
C760 C 1.00067 0.89274 0.50761 0.0
C761 C 0.04361 0.85999 0.39977 0.0
C762 C 0.05138 0.88843 0.44129 0.0
C763 C 0.03723 0.93463 0.53458 0.0
C764 C 1.01564 0.95108 0.59002 0.0
C765 C 0.02999 0.9054 0.49443 0.0
C766 C 0.98704 0.93717 0.60475 0.0
C767 C 0.97953 0.90887 0.56348 0.0
H768 H 0.69136 1.00844 0.3424 0.0
H769 H 0.74681 0.04739 0.56743 0.0
H770 H 0.70065 0.05788 0.66267 0.0
H771 H 0.64368 0.05219 0.68708 0.0
H772 H 0.59051 1.01327 0.45431 0.0
H773 H 0.63608 1.00703 0.35865 0.0
C774 C 0.69351 1.02012 0.41097 0.0
C775 C 0.72302 0.02739 0.44607 0.0
C776 C 0.66687 0.02568 0.46559 0.0
C777 C 0.72478 0.04187 0.5368 0.0
C778 C 0.69819 0.04754 0.59202 0.0
C779 C 0.64196 0.04255 0.61521 0.0
C780 C 0.6129 0.03299 0.57993 0.0
C781 C 0.66896 0.03895 0.55821 0.0
C782 C 0.61187 0.02071 0.48565 0.0
C783 C 0.6382 1.01709 0.42991 0.0
H784 H 0.50905 0.69809 0.35409 0.0
H785 H 0.58068 0.73836 0.52443 0.0
H786 H 0.58133 0.69306 0.62973 0.0
H787 H 0.56368 0.63967 0.6677 0.0
H788 H 0.48959 0.60168 0.50222 0.0
H789 H 0.488 0.64763 0.40166 0.0
C790 C 0.52431 0.69739 0.4158 0.0
C791 C 0.54453 0.72229 0.43123 0.0
C792 C 0.52453 0.67105 0.47642 0.0
C793 C 0.56439 0.72026 0.51116 0.0
C794 C 0.56503 0.69398 0.57088 0.0
C795 C 0.54707 0.64153 0.60995 0.0
C796 C 0.52688 0.61672 0.59271 0.0
C797 C 0.54562 0.66886 0.55332 0.0
C798 C 0.50537 0.62005 0.51788 0.0
C799 C 0.50447 0.64649 0.45997 0.0
H800 H 0.86302 0.52002 0.3805 0.0
H801 H 0.81425 0.57601 0.5818 0.0
H802 H 0.85797 0.57414 0.6939 0.0
H803 H 0.91333 0.56065 0.72753 0.0
H804 H 0.96081 0.50749 0.51535 0.0
H805 H 0.91542 0.50513 0.41537 0.0
C806 C 0.86159 0.53179 0.44915 0.0
C807 C 0.83479 0.5484 0.47085 0.0
C808 C 0.88737 0.53165 0.51144 0.0
C809 C 0.83397 0.56283 0.5619 0.0
C810 C 0.85938 0.56209 0.62583 0.0
C811 C 0.91355 0.5481 0.6603 0.0
C812 C 0.9411 0.53396 0.63047 0.0
C813 C 0.88671 0.54721 0.60053 0.0
C814 C 0.94055 0.51853 0.54143 0.0
C815 C 0.91432 0.51712 0.48364 0.0
loop_
_geom_bond_atom_site_label_1
_geom_bond_atom_site_label_2
_geom_bond_distance
_geom_bond_site_symmetry_2
_ccdc_geom_bond_type
H0 C5 0.930 . S
H1 C8 0.930 . S
H2 C10 0.930 . S
H3 C4 1.016 . S
C4 H3 1.016 . S
C4 N11 1.286 . S
C5 H0 0.930 . S
C5 C6 1.397 . S
C5 C7 1.361 . S
C6 C5 1.397 . S
C6 C10 1.390 . S
C7 C5 1.361 . S
C7 C8 1.393 . S
C7 N11 1.413 . S
C8 H1 0.930 . S
C8 C7 1.393 . S
C8 C9 1.399 . S
C9 C8 1.399 . S
C9 C10 1.381 . S
C10 H2 0.930 . S
C10 C6 1.390 . S
C10 C9 1.381 . S
N11 C4 1.286 . S
N11 C7 1.413 . S
H12 C17 0.930 . S
H13 C20 0.930 . S
H14 C22 0.930 . S
H15 C16 1.016 . S
C16 H15 1.016 . S
C16 N23 1.286 . S
C17 H12 0.930 . S
C17 C18 1.397 . S
C17 C19 1.361 . S
C18 C17 1.397 . S
C18 C22 1.390 . S
C19 C17 1.361 . S
C19 C20 1.393 . S
C19 N23 1.413 . S
C20 H13 0.930 . S
C20 C19 1.393 . S
C20 C21 1.399 . S
C21 C20 1.399 . S
C21 C22 1.381 . S
C22 H14 0.930 . S
C22 C18 1.390 . S
C22 C21 1.381 . S
N23 C16 1.286 . S
N23 C19 1.413 . S
H24 C29 0.930 . S
H25 C32 0.930 . S
H26 C34 0.930 . S
H27 C28 1.016 . S
C28 H27 1.016 . S
C28 N35 1.286 . S
C29 H24 0.930 . S
C29 C30 1.397 . S
C29 C31 1.361 . S
C30 C29 1.397 . S
C30 C34 1.390 . S
C31 C29 1.361 . S
C31 C32 1.393 . S
C31 N35 1.413 . S
C32 H25 0.930 . S
C32 C31 1.393 . S
C32 C33 1.399 . S
C33 C32 1.399 . S
C33 C34 1.381 . S
C34 H26 0.930 . S
C34 C30 1.390 . S
C34 C33 1.381 . S
N35 C28 1.286 . S
N35 C31 1.413 . S
H36 C41 0.930 . S
H37 C44 0.930 . S
H38 C46 0.930 . S
H39 C40 1.016 . S
C40 H39 1.016 . S
C40 N47 1.286 . S
C41 H36 0.930 . S
C41 C42 1.397 . S
C41 C43 1.361 . S
C42 C41 1.397 . S
C42 C46 1.390 . S
C43 C41 1.361 . S
C43 C44 1.393 . S
C43 N47 1.413 . S
C44 H37 0.930 . S
C44 C43 1.393 . S
C44 C45 1.399 . S
C45 C44 1.399 . S
C45 C46 1.381 . S
C46 H38 0.930 . S
C46 C42 1.390 . S
C46 C45 1.381 . S
N47 C40 1.286 . S
N47 C43 1.413 . S
H48 C53 0.930 . S
H49 C56 0.930 . S
H50 C58 0.930 . S
H51 C52 1.016 . S
C52 H51 1.016 . S
C52 N59 1.286 . S
C53 H48 0.930 . S
C53 C54 1.397 . S
C53 C55 1.361 1_556 S
C54 C53 1.397 . S
C54 C58 1.390 1_556 S
C55 C53 1.361 1_554 S
C55 C56 1.393 . S
C55 N59 1.413 . S
C56 H49 0.930 . S
C56 C55 1.393 . S
C56 C57 1.399 . S
C57 C56 1.399 . S
C57 C58 1.381 . S
C58 H50 0.930 . S
C58 C54 1.390 1_554 S
C58 C57 1.381 . S
N59 C52 1.286 . S
N59 C55 1.413 . S
H60 C65 0.930 . S
H61 C68 0.930 . S
H62 C70 0.930 . S
H63 C64 1.016 . S
C64 H63 1.016 . S
C64 N71 1.286 . S
C65 H60 0.930 . S
C65 C66 1.397 . S
C65 C67 1.361 1_556 S
C66 C65 1.397 . S
C66 C70 1.390 1_556 S
C67 C65 1.361 1_554 S
C67 C68 1.393 . S
C67 N71 1.413 . S
C68 H61 0.930 . S
C68 C67 1.393 . S
C68 C69 1.399 . S
C69 C68 1.399 . S
C69 C70 1.381 . S
C70 H62 0.930 . S
C70 C66 1.390 1_554 S
C70 C69 1.381 . S
N71 C64 1.286 . S
N71 C67 1.413 . S
H72 C77 0.930 . S
H73 C80 0.930 . S
H74 C82 0.930 . S
H75 C76 1.016 . S
C76 H75 1.016 . S
C76 N83 1.286 . S
C77 H72 0.930 . S
C77 C78 1.397 . S
C77 C79 1.361 1_556 S
C78 C77 1.397 . S
C78 C82 1.390 1_556 S
C79 C77 1.361 1_554 S
C79 C80 1.393 . S
C79 N83 1.413 . S
C80 H73 0.930 . S
C80 C79 1.393 . S
C80 C81 1.399 . S
C81 C80 1.399 . S
C81 C82 1.381 . S
C82 H74 0.930 . S
C82 C78 1.390 1_554 S
C82 C81 1.381 . S
N83 C76 1.286 . S
N83 C79 1.413 . S
H84 C89 0.930 . S
H85 C92 0.930 . S
H86 C94 0.930 . S
H87 C88 1.016 . S
C88 H87 1.016 . S
C88 N95 1.286 . S
C89 H84 0.930 . S
C89 C90 1.397 . S
C89 C91 1.361 1_556 S
C90 C89 1.397 . S
C90 C94 1.390 1_556 S
C91 C89 1.361 1_554 S
C91 C92 1.393 . S
C91 N95 1.413 . S
C92 H85 0.930 . S
C92 C91 1.393 . S
C92 C93 1.399 . S
C93 C92 1.399 . S
C93 C94 1.381 . S
C94 H86 0.930 . S
C94 C90 1.390 1_554 S
C94 C93 1.381 . S
N95 C88 1.286 . S
N95 C91 1.413 . S
Tb96 N125 2.617 . S
Tb96 N131 2.572 . S
Tb96 O140 2.465 . S
Tb96 O141 2.387 1_545 S
Tb96 O143 2.428 . S
Tb96 O144 2.308 1_655 S
Tb96 O148 2.349 1_655 S
Tb96 O151 2.393 . S
Tb96 C160 2.802 . S
C97 N98 1.379 . S
C97 C100 1.416 . S
C97 C104 1.424 1_556 S
N98 C97 1.379 . S
N98 C101 1.334 . S
N98 Tb107 2.617 1_545 S
C99 C101 1.390 . S
C99 C102 1.339 . S
C99 H119 0.930 . S
C100 C97 1.416 . S
C100 C102 1.416 . S
C100 C106 1.448 1_556 S
C101 N98 1.334 . S
C101 C99 1.390 . S
C101 H112 0.930 1_545 S
C102 C99 1.339 . S
C102 C100 1.416 . S
C102 H123 0.930 . S
C103 C104 1.413 . S
C103 C105 1.427 . S
C103 C109 1.416 . S
C104 C97 1.424 1_554 S
C104 C103 1.413 . S
C104 N108 1.361 1_554 S
C105 C103 1.427 . S
C105 C106 1.328 . S
C105 H120 0.929 . S
C106 C100 1.448 1_554 S
C106 C105 1.328 . S
C106 H121 0.930 . S
Tb107 N98 2.617 1_565 S
Tb107 N108 2.572 1_565 S
Tb107 O142 2.349 . S
Tb107 O145 2.393 . S
Tb107 O146 2.465 . S
Tb107 O147 2.387 1_565 S
Tb107 O149 2.428 . S
Tb107 O150 2.308 1_465 S
Tb107 C171 2.802 . S
N108 C104 1.361 1_556 S
N108 Tb107 2.572 1_545 S
N108 C110 1.340 1_556 S
C109 C103 1.416 . S
C109 C111 1.332 . S
C109 H117 0.931 . S
C110 N108 1.340 1_554 S
C110 C111 1.407 . S
C110 H116 0.930 1_455 S
C111 C109 1.332 . S
C111 C110 1.407 . S
C111 H113 0.938 . S
H112 C101 0.930 1_565 S
H113 C111 0.938 . S
H114 C129 0.930 . S
H115 C136 0.926 . S
H116 C110 0.930 1_655 S
H117 C109 0.931 . S
H118 C132 0.950 . S
H119 C99 0.930 . S
H120 C105 0.929 . S
H121 C106 0.930 . S
H122 C127 0.930 . S
H123 C102 0.930 . S
H124 C135 0.931 . S
N125 Tb96 2.617 . S
N125 C126 1.379 . S
N125 C129 1.334 . S
C126 N125 1.379 . S
C126 C128 1.416 1_545 S
C126 C134 1.424 1_545 S
C127 H122 0.930 . S
C127 C129 1.390 . S
C127 C130 1.339 1_545 S
C128 C126 1.416 1_565 S
C128 C130 1.416 . S
C128 C161 1.448 . S
C129 H114 0.930 . S
C129 N125 1.334 . S
C129 C127 1.390 . S
C130 C127 1.339 1_565 S
C130 C128 1.416 . S
C130 H137 0.930 . S
N131 Tb96 2.572 . S
N131 C132 1.321 1_655 S
N131 C134 1.361 1_545 S
C132 H118 0.950 . S
C132 N131 1.321 1_455 S
C132 C136 1.407 1_545 S
C133 C134 1.413 . S
C133 C135 1.416 . S
C133 C162 1.427 . S
C134 C126 1.424 1_565 S
C134 N131 1.361 1_565 S
C134 C133 1.413 . S
C135 H124 0.931 . S
C135 C133 1.416 . S
C135 C136 1.336 1_655 S
C136 H115 0.926 . S
C136 C132 1.407 1_565 S
C136 C135 1.336 1_455 S
H137 C130 0.930 . S
H138 C161 0.930 . S
H139 C162 0.929 . S
O140 Tb96 2.465 . S
O140 C160 1.264 . S
O141 Tb96 2.387 1_565 S
O141 C152 1.264 . S
O142 Tb107 2.349 . S
O142 C152 1.243 1_455 S
O143 Tb96 2.428 . S
O143 C160 1.256 . S
O144 Tb96 2.308 1_455 S
O144 C159 1.266 . S
O145 Tb107 2.393 . S
O145 C159 1.248 1_565 S
O146 Tb107 2.465 . S
O146 C171 1.264 . S
O147 Tb107 2.387 1_545 S
O147 C163 1.264 . S
O148 Tb96 2.349 1_455 S
O148 C163 1.243 . S
O149 Tb107 2.428 . S
O149 C171 1.256 . S
O150 Tb107 2.308 1_645 S
O150 C170 1.266 . S
O151 Tb96 2.393 . S
O151 C170 1.248 . S
C152 O141 1.264 . S
C152 O142 1.243 1_655 S
C153 C156 1.399 . S
C153 C158 1.383 . S
C153 C160 1.496 . S
C154 C155 1.399 . S
C154 C158 1.389 . S
C155 C154 1.399 . S
C155 C157 1.380 . S
C155 H172 0.929 . S
C156 C153 1.399 . S
C156 C157 1.392 . S
C156 H173 0.929 . S
C157 C155 1.380 . S
C157 C156 1.392 . S
C157 H174 0.929 . S
C158 C153 1.383 . S
C158 C154 1.389 . S
C158 H175 0.931 1_655 S
C159 O144 1.266 . S
C159 O145 1.248 1_545 S
C160 Tb96 2.802 . S
C160 O140 1.264 . S
C160 O143 1.256 . S
C160 C153 1.496 . S
C161 C128 1.448 . S
C161 H138 0.930 . S
C161 C162 1.328 . S
C162 C133 1.427 . S
C162 H139 0.929 . S
C162 C161 1.328 . S
C163 O147 1.264 . S
C163 O148 1.243 . S
C164 C167 1.399 . S
C164 C168 1.383 1_556 S
C164 C171 1.496 . S
C165 C166 1.399 . S
C165 C168 1.389 . S
C166 C165 1.399 . S
C166 C169 1.384 . S
C166 H176 0.929 . S
C167 C164 1.399 . S
C167 C169 1.388 1_556 S
C167 H177 0.929 . S
C168 C164 1.383 1_554 S
C168 C165 1.389 . S
C168 H178 0.931 . S
C169 C166 1.384 . S
C169 C167 1.388 1_554 S
C169 H179 0.929 1_554 S
C170 O150 1.266 . S
C170 O151 1.248 . S
C171 Tb107 2.802 . S
C171 O146 1.264 . S
C171 O149 1.256 . S
C171 C164 1.496 . S
H172 C155 0.929 . S
H173 C156 0.929 . S
H174 C157 0.929 . S
H175 C158 0.931 1_455 S
H176 C166 0.929 . S
H177 C167 0.929 . S
H178 C168 0.931 . S
H179 C169 0.929 1_556 S
Tb180 N209 2.617 . S
Tb180 N215 2.572 . S
Tb180 O224 2.465 . S
Tb180 O225 2.387 . S
Tb180 O227 2.428 . S
Tb180 O228 2.308 . S
Tb180 O232 2.349 1_545 S
Tb180 O235 2.393 . S
Tb180 C244 2.802 . S
C181 N182 1.379 . S
C181 C184 1.416 . S
C181 C188 1.424 . S
N182 C181 1.379 . S
N182 C185 1.334 . S
N182 Tb191 2.617 . S
C183 C185 1.390 . S
C183 C186 1.339 . S
C183 H203 0.930 . S
C184 C181 1.416 . S
C184 C186 1.416 . S
C184 C190 1.448 . S
C185 N182 1.334 . S
C185 C183 1.390 . S
C185 H196 0.930 . S
C186 C183 1.339 . S
C186 C184 1.416 . S
C186 H207 0.930 . S
C187 C188 1.413 . S
C187 C189 1.427 . S
C187 C193 1.416 . S
C188 C181 1.424 . S
C188 C187 1.413 . S
C188 N192 1.361 . S
C189 C187 1.427 . S
C189 C190 1.328 . S
C189 H204 0.929 . S
C190 C184 1.448 . S
C190 C189 1.328 . S
C190 H205 0.930 . S
Tb191 N182 2.617 . S
Tb191 N192 2.572 . S
Tb191 O226 2.349 1_565 S
Tb191 O229 2.393 . S
Tb191 O230 2.465 . S
Tb191 O231 2.387 . S
Tb191 O233 2.428 . S
Tb191 O234 2.308 1_565 S
Tb191 C255 2.802 . S
N192 C188 1.361 . S
N192 Tb191 2.572 . S
N192 C194 1.340 . S
C193 C187 1.416 . S
C193 C195 1.332 . S
C193 H201 0.931 . S
C194 N192 1.340 . S
C194 C195 1.407 . S
C194 H200 0.930 . S
C195 C193 1.332 . S
C195 C194 1.407 . S
C195 H197 0.929 . S
H196 C185 0.930 . S
H197 C195 0.929 . S
H198 C213 0.930 . S
H199 C220 0.929 . S
H200 C194 0.930 . S
H201 C193 0.931 . S
H202 C216 0.930 . S
H203 C183 0.930 . S
H204 C189 0.929 . S
H205 C190 0.930 . S
H206 C211 0.930 1_554 S
H207 C186 0.930 . S
H208 C219 0.931 . S
N209 Tb180 2.617 . S
N209 C210 1.379 . S
N209 C213 1.334 . S
C210 N209 1.379 . S
C210 C212 1.416 . S
C210 C218 1.424 . S
C211 H206 0.930 1_556 S
C211 C213 1.390 . S
C211 C214 1.339 . S
C212 C210 1.416 . S
C212 C214 1.416 . S
C212 C245 1.448 . S
C213 H198 0.930 . S
C213 N209 1.334 . S
C213 C211 1.390 . S
C214 C211 1.339 . S
C214 C212 1.416 . S
C214 H221 0.930 . S
N215 Tb180 2.572 . S
N215 C216 1.340 . S
N215 C218 1.361 . S
C216 H202 0.930 . S
C216 N215 1.340 . S
C216 C220 1.407 . S
C217 C218 1.413 . S
C217 C219 1.416 . S
C217 C246 1.427 . S
C218 C210 1.424 . S
C218 N215 1.361 . S
C218 C217 1.413 . S
C219 H208 0.931 . S
C219 C217 1.416 . S
C219 C220 1.332 . S
C220 H199 0.929 . S
C220 C216 1.407 . S
C220 C219 1.332 . S
H221 C214 0.930 . S
H222 C245 0.930 . S
H223 C246 0.929 . S
O224 Tb180 2.465 . S
O224 C244 1.264 . S
O225 Tb180 2.387 . S
O225 C236 1.264 . S
O226 Tb191 2.349 1_545 S
O226 C236 1.243 . S
O227 Tb180 2.428 . S
O227 C244 1.256 . S
O228 Tb180 2.308 . S
O228 C243 1.266 . S
O229 Tb191 2.393 . S
O229 C243 1.248 1_565 S
O230 Tb191 2.465 . S
O230 C255 1.264 . S
O231 Tb191 2.387 . S
O231 C247 1.264 . S
O232 Tb180 2.349 1_565 S
O232 C247 1.243 . S
O233 Tb191 2.428 . S
O233 C255 1.256 . S
O234 Tb191 2.308 1_545 S
O234 C254 1.266 . S
O235 Tb180 2.393 . S
O235 C254 1.248 . S
C236 O225 1.264 . S
C236 O226 1.243 . S
C237 C240 1.399 . S
C237 C242 1.383 . S
C237 C244 1.496 1_554 S
C238 C239 1.399 . S
C238 C242 1.389 . S
C239 C238 1.399 . S
C239 C241 1.380 . S
C239 H256 0.929 . S
C240 C237 1.399 . S
C240 C241 1.392 . S
C240 H257 0.929 . S
C241 C239 1.380 . S
C241 C240 1.392 . S
C241 H258 0.929 . S
C242 C237 1.383 . S
C242 C238 1.389 . S
C242 H259 0.931 1_554 S
C243 O228 1.266 . S
C243 O229 1.248 1_545 S
C244 Tb180 2.802 . S
C244 O224 1.264 . S
C244 O227 1.256 . S
C244 C237 1.496 1_556 S
C245 C212 1.448 . S
C245 H222 0.930 . S
C245 C246 1.328 . S
C246 C217 1.427 . S
C246 H223 0.929 . S
C246 C245 1.328 . S
C247 O231 1.264 . S
C247 O232 1.243 . S
C248 C251 1.399 . S
C248 C252 1.383 1_565 S
C248 C255 1.496 . S
C249 C250 1.399 1_545 S
C249 C252 1.389 . S
C250 C249 1.399 1_565 S
C250 C253 1.380 . S
C250 H260 0.929 . S
C251 C248 1.399 . S
C251 C253 1.392 . S
C251 H261 0.929 . S
C252 C248 1.383 1_545 S
C252 C249 1.389 . S
C252 H262 0.931 . S
C253 C250 1.380 . S
C253 C251 1.392 . S
C253 H263 0.929 . S
C254 O234 1.266 . S
C254 O235 1.248 . S
C255 Tb191 2.802 . S
C255 O230 1.264 . S
C255 O233 1.256 . S
C255 C248 1.496 . S
H256 C239 0.929 . S
H257 C240 0.929 . S
H258 C241 0.929 . S
H259 C242 0.931 1_556 S
H260 C250 0.929 . S
H261 C251 0.929 . S
H262 C252 0.931 . S
H263 C253 0.929 . S
Tb264 N293 2.617 . S
Tb264 N299 2.572 . S
Tb264 O308 2.465 . S
Tb264 O309 2.387 . S
Tb264 O311 2.428 . S
Tb264 O312 2.308 . S
Tb264 O316 2.349 . S
Tb264 O319 2.393 . S
Tb264 C328 2.802 . S
C265 N266 1.379 . S
C265 C268 1.416 . S
C265 C272 1.424 1_556 S
N266 C265 1.379 . S
N266 C269 1.334 . S
N266 Tb275 2.617 . S
C267 C269 1.390 . S
C267 C270 1.339 . S
C267 H287 0.930 . S
C268 C265 1.416 . S
C268 C270 1.416 . S
C268 C274 1.448 1_556 S
C269 N266 1.334 . S
C269 C267 1.390 . S
C269 H280 0.930 . S
C270 C267 1.339 . S
C270 C268 1.416 . S
C270 H291 0.930 . S
C271 C272 1.413 . S
C271 C273 1.427 . S
C271 C277 1.416 . S
C272 C265 1.424 1_554 S
C272 C271 1.413 . S
C272 N276 1.361 1_554 S
C273 C271 1.427 . S
C273 C274 1.328 . S
C273 H288 0.929 . S
C274 C268 1.448 1_554 S
C274 C273 1.328 . S
C274 H289 0.930 . S
Tb275 N266 2.617 . S
Tb275 N276 2.572 . S
Tb275 O310 2.349 . S
Tb275 O313 2.393 . S
Tb275 O314 2.465 . S
Tb275 O315 2.387 . S
Tb275 O317 2.428 . S
Tb275 O318 2.308 . S
Tb275 C339 2.802 . S
N276 C272 1.361 1_556 S
N276 Tb275 2.572 . S
N276 C278 1.340 1_556 S
C277 C271 1.416 . S
C277 C279 1.332 . S
C277 H285 0.931 . S
C278 N276 1.340 1_554 S
C278 C279 1.407 . S
C278 H284 0.930 . S
C279 C277 1.332 . S
C279 C278 1.407 . S
C279 H281 0.929 . S
H280 C269 0.930 . S
H281 C279 0.929 . S
H282 C297 0.930 . S
H283 C304 0.929 . S
H284 C278 0.930 . S
H285 C277 0.931 . S
H286 C300 0.930 . S
H287 C267 0.930 . S
H288 C273 0.929 . S
H289 C274 0.930 . S
H290 C295 0.930 . S
H291 C270 0.930 . S
H292 C303 0.931 . S
N293 Tb264 2.617 . S
N293 C294 1.379 . S
N293 C297 1.334 . S
C294 N293 1.379 . S
C294 C296 1.416 . S
C294 C302 1.424 . S
C295 H290 0.930 . S
C295 C297 1.390 . S
C295 C298 1.339 . S
C296 C294 1.416 . S
C296 C298 1.416 . S
C296 C329 1.448 . S
C297 H282 0.930 . S
C297 N293 1.334 . S
C297 C295 1.390 . S
C298 C295 1.339 . S
C298 C296 1.416 . S
C298 H305 0.930 . S
N299 Tb264 2.572 . S
N299 C300 1.340 . S
N299 C302 1.361 . S
C300 H286 0.930 . S
C300 N299 1.340 . S
C300 C304 1.407 . S
C301 C302 1.413 . S
C301 C303 1.416 . S
C301 C330 1.427 . S
C302 C294 1.424 . S
C302 N299 1.361 . S
C302 C301 1.413 . S
C303 H292 0.931 . S
C303 C301 1.416 . S
C303 C304 1.332 . S
C304 H283 0.929 . S
C304 C300 1.407 . S
C304 C303 1.332 . S
H305 C298 0.930 . S
H306 C329 0.930 . S
H307 C330 0.929 . S
O308 Tb264 2.465 . S
O308 C328 1.264 . S
O309 Tb264 2.387 . S
O309 C320 1.264 . S
O310 Tb275 2.349 . S
O310 C320 1.243 . S
O311 Tb264 2.428 . S
O311 C328 1.256 . S
O312 Tb264 2.308 . S
O312 C327 1.266 . S
O313 Tb275 2.393 . S
O313 C327 1.248 . S
O314 Tb275 2.465 . S
O314 C339 1.264 . S
O315 Tb275 2.387 . S
O315 C331 1.264 . S
O316 Tb264 2.349 . S
O316 C331 1.243 . S
O317 Tb275 2.428 . S
O317 C339 1.256 . S
O318 Tb275 2.308 . S
O318 C338 1.266 . S
O319 Tb264 2.393 . S
O319 C338 1.248 . S
C320 O309 1.264 . S
C320 O310 1.243 . S
C321 C324 1.399 . S
C321 C326 1.383 . S
C321 C328 1.496 . S
C322 C323 1.399 . S
C322 C326 1.389 . S
C323 C322 1.399 . S
C323 C325 1.380 . S
C323 H340 0.929 . S
C324 C321 1.399 . S
C324 C325 1.392 . S
C324 H341 0.929 . S
C325 C323 1.380 . S
C325 C324 1.392 . S
C325 H342 0.929 . S
C326 C321 1.383 . S
C326 C322 1.389 . S
C326 H343 0.931 . S
C327 O312 1.266 . S
C327 O313 1.248 . S
C328 Tb264 2.802 . S
C328 O308 1.264 . S
C328 O311 1.256 . S
C328 C321 1.496 . S
C329 C296 1.448 . S
C329 H306 0.930 . S
C329 C330 1.328 . S
C330 C301 1.427 . S
C330 H307 0.929 . S
C330 C329 1.328 . S
C331 O315 1.264 . S
C331 O316 1.243 . S
C332 C335 1.399 . S
C332 C336 1.383 1_556 S
C332 C339 1.496 . S
C333 C334 1.399 . S
C333 C336 1.389 . S
C334 C333 1.399 . S
C334 C337 1.380 . S
C334 H344 0.929 . S
C335 C332 1.399 . S
C335 C337 1.392 1_556 S
C335 H345 0.929 . S
C336 C332 1.383 1_554 S
C336 C333 1.389 . S
C336 H346 0.931 . S
C337 C334 1.380 . S
C337 C335 1.392 1_554 S
C337 H347 0.929 1_554 S
C338 O318 1.266 . S
C338 O319 1.248 . S
C339 Tb275 2.802 . S
C339 O314 1.264 . S
C339 O317 1.256 . S
C339 C332 1.496 . S
H340 C323 0.929 . S
H341 C324 0.929 . S
H342 C325 0.929 . S
H343 C326 0.931 . S
H344 C334 0.929 . S
H345 C335 0.929 . S
H346 C336 0.931 . S
H347 C337 0.929 1_556 S
Tb348 N377 2.617 . S
Tb348 N383 2.572 . S
Tb348 O392 2.465 . S
Tb348 O393 2.387 1_455 S
Tb348 O395 2.428 . S
Tb348 O396 2.308 . S
Tb348 O400 2.349 . S
Tb348 O403 2.393 . S
Tb348 C412 2.802 . S
C349 N350 1.379 . S
C349 C352 1.416 . S
C349 C356 1.424 1_556 S
N350 C349 1.379 . S
N350 C353 1.332 1_455 S
N350 Tb359 2.617 1_455 S
C351 C353 1.383 1_455 S
C351 C354 1.339 . S
C351 H371 0.930 . S
C352 C349 1.416 . S
C352 C354 1.416 . S
C352 C358 1.448 1_556 S
C353 N350 1.332 1_655 S
C353 C351 1.383 1_655 S
C353 H364 0.940 . S
C354 C351 1.339 . S
C354 C352 1.416 . S
C354 H375 0.930 . S
C355 C356 1.413 . S
C355 C357 1.427 . S
C355 C361 1.416 . S
C356 C349 1.424 1_554 S
C356 C355 1.413 . S
C356 N360 1.361 1_554 S
C357 C355 1.427 . S
C357 C358 1.328 . S
C357 H372 0.929 . S
C358 C352 1.448 1_554 S
C358 C357 1.328 . S
C358 H373 0.930 . S
Tb359 N350 2.617 1_655 S
Tb359 N360 2.572 1_655 S
Tb359 O394 2.349 . S
Tb359 O397 2.393 . S
Tb359 O398 2.465 . S
Tb359 O399 2.387 1_655 S
Tb359 O401 2.428 . S
Tb359 O402 2.308 1_655 S
Tb359 C423 2.802 . S
N360 C356 1.361 1_556 S
N360 Tb359 2.572 1_455 S
N360 C362 1.340 1_556 S
C361 C355 1.416 . S
C361 C363 1.332 . S
C361 H369 0.931 . S
C362 N360 1.340 1_554 S
C362 C363 1.407 . S
C362 H368 0.930 . S
C363 C361 1.332 . S
C363 C362 1.407 . S
C363 H365 0.929 . S
H364 C353 0.940 . S
H365 C363 0.929 . S
H366 C381 0.930 . S
H367 C388 0.929 . S
H368 C362 0.930 . S
H369 C361 0.931 . S
H370 C384 0.930 . S
H371 C351 0.930 . S
H372 C357 0.929 . S
H373 C358 0.930 . S
H374 C379 0.930 . S
H375 C354 0.930 . S
H376 C387 0.931 . S
N377 Tb348 2.617 . S
N377 C378 1.388 . S
N377 C381 1.334 . S
C378 N377 1.388 . S
C378 C380 1.409 1_455 S
C378 C386 1.422 1_455 S
C379 H374 0.930 . S
C379 C381 1.390 . S
C379 C382 1.339 1_455 S
C380 C378 1.409 1_655 S
C380 C382 1.416 . S
C380 C413 1.448 . S
C381 H366 0.930 . S
C381 N377 1.334 . S
C381 C379 1.390 . S
C382 C379 1.339 1_655 S
C382 C380 1.416 . S
C382 H389 0.930 . S
N383 Tb348 2.572 . S
N383 C384 1.340 . S
N383 C386 1.361 1_455 S
C384 H370 0.930 . S
C384 N383 1.340 . S
C384 C388 1.407 1_455 S
C385 C386 1.413 . S
C385 C387 1.416 . S
C385 C414 1.427 . S
C386 C378 1.422 1_655 S
C386 N383 1.361 1_655 S
C386 C385 1.413 . S
C387 H376 0.931 . S
C387 C385 1.416 . S
C387 C388 1.332 . S
C388 H367 0.929 . S
C388 C384 1.407 1_655 S
C388 C387 1.332 . S
H389 C382 0.930 . S
H390 C413 0.930 . S
H391 C414 0.929 . S
O392 Tb348 2.465 . S
O392 C412 1.264 . S
O393 Tb348 2.387 1_655 S
O393 C404 1.264 . S
O394 Tb359 2.349 . S
O394 C404 1.243 . S
O395 Tb348 2.428 . S
O395 C412 1.256 . S
O396 Tb348 2.308 . S
O396 C411 1.266 . S
O397 Tb359 2.393 . S
O397 C411 1.248 1_655 S
O398 Tb359 2.465 . S
O398 C423 1.264 . S
O399 Tb359 2.387 1_455 S
O399 C415 1.264 . S
O400 Tb348 2.349 . S
O400 C415 1.243 . S
O401 Tb359 2.428 . S
O401 C423 1.256 . S
O402 Tb359 2.308 1_455 S
O402 C422 1.266 . S
O403 Tb348 2.393 . S
O403 C422 1.248 . S
C404 O393 1.264 . S
C404 O394 1.243 . S
C405 C408 1.399 . S
C405 C410 1.383 . S
C405 C412 1.496 . S
C406 C407 1.399 . S
C406 C410 1.389 . S
C407 C406 1.399 . S
C407 C409 1.380 . S
C407 H424 0.929 . S
C408 C405 1.399 . S
C408 C409 1.392 . S
C408 H425 0.929 . S
C409 C407 1.380 . S
C409 C408 1.392 . S
C409 H426 0.929 . S
C410 C405 1.383 . S
C410 C406 1.389 . S
C410 H427 0.931 . S
C411 O396 1.266 . S
C411 O397 1.248 1_455 S
C412 Tb348 2.802 . S
C412 O392 1.264 . S
C412 O395 1.256 . S
C412 C405 1.496 . S
C413 C380 1.448 . S
C413 H390 0.930 . S
C413 C414 1.328 . S
C414 C385 1.427 . S
C414 H391 0.929 . S
C414 C413 1.328 . S
C415 O399 1.264 . S
C415 O400 1.243 . S
C416 C419 1.399 . S
C416 C420 1.383 1_556 S
C416 C423 1.496 . S
C417 C418 1.399 . S
C417 C420 1.389 . S
C418 C417 1.399 . S
C418 C421 1.380 . S
C418 H428 0.929 . S
C419 C416 1.399 . S
C419 C421 1.392 1_556 S
C419 H429 0.929 . S
C420 C416 1.383 1_554 S
C420 C417 1.389 . S
C420 H430 0.931 . S
C421 C418 1.380 . S
C421 C419 1.392 1_554 S
C421 H431 0.929 1_554 S
C422 O402 1.266 . S
C422 O403 1.248 . S
C423 Tb359 2.802 . S
C423 O398 1.264 . S
C423 O401 1.256 . S
C423 C416 1.496 . S
H424 C407 0.929 . S
H425 C408 0.929 . S
H426 C409 0.929 . S
H427 C410 0.931 . S
H428 C418 0.929 . S
H429 C419 0.929 . S
H430 C420 0.931 . S
H431 C421 0.929 1_556 S
H432 C438 0.930 . S
H433 C441 0.930 1_565 S
H434 C442 0.930 . S
H435 C443 0.930 1_565 S
H436 C446 0.930 . S
H437 C447 0.930 . S
C438 H432 0.930 . S
C438 C439 1.355 . S
C438 C440 1.415 . S
C439 C438 1.355 . S
C439 C441 1.419 . S
C440 C438 1.415 . S
C440 C445 1.425 . S
C440 C447 1.409 . S
C441 H433 0.930 1_545 S
C441 C439 1.419 . S
C441 C442 1.362 1_545 S
C442 H434 0.930 . S
C442 C441 1.362 1_565 S
C442 C445 1.409 1_565 S
C443 H435 0.930 1_545 S
C443 C444 1.355 . S
C443 C445 1.415 . S
C444 C443 1.355 . S
C444 C446 1.419 . S
C445 C440 1.425 . S
C445 C442 1.409 1_545 S
C445 C443 1.415 . S
C446 H436 0.930 . S
C446 C444 1.419 . S
C446 C447 1.362 . S
C447 H437 0.930 . S
C447 C440 1.409 . S
C447 C446 1.362 . S
H448 C454 0.930 . S
H449 C457 0.930 . S
H450 C458 0.930 . S
H451 C459 0.930 . S
H452 C462 0.930 . S
H453 C463 0.930 . S
C454 H448 0.930 . S
C454 C455 1.355 . S
C454 C456 1.415 . S
C455 C454 1.355 . S
C455 C457 1.419 . S
C456 C454 1.415 . S
C456 C461 1.425 . S
C456 C463 1.409 . S
C457 H449 0.930 . S
C457 C455 1.419 . S
C457 C458 1.362 . S
C458 H450 0.930 . S
C458 C457 1.362 . S
C458 C461 1.409 . S
C459 H451 0.930 . S
C459 C460 1.355 . S
C459 C461 1.415 . S
C460 C459 1.355 . S
C460 C462 1.419 . S
C461 C456 1.425 . S
C461 C458 1.409 . S
C461 C459 1.415 . S
C462 H452 0.930 . S
C462 C460 1.419 . S
C462 C463 1.362 . S
C463 H453 0.930 . S
C463 C456 1.409 . S
C463 C462 1.362 . S
H464 C470 0.930 . S
H465 C473 0.930 . S
H466 C474 0.930 . S
H467 C475 0.930 . S
H468 C478 0.930 . S
H469 C479 0.930 . S
C470 H464 0.930 . S
C470 C471 1.355 . S
C470 C472 1.415 . S
C471 C470 1.355 . S
C471 C473 1.419 . S
C472 C470 1.415 . S
C472 C477 1.425 . S
C472 C479 1.409 . S
C473 H465 0.930 . S
C473 C471 1.419 . S
C473 C474 1.362 . S
C474 H466 0.930 . S
C474 C473 1.362 . S
C474 C477 1.409 . S
C475 H467 0.930 . S
C475 C476 1.355 . S
C475 C477 1.415 . S
C476 C475 1.355 . S
C476 C478 1.419 . S
C477 C472 1.425 . S
C477 C474 1.409 . S
C477 C475 1.415 . S
C478 H468 0.930 . S
C478 C476 1.419 . S
C478 C479 1.362 . S
C479 H469 0.930 . S
C479 C472 1.409 . S
C479 C478 1.362 . S
H480 C486 0.930 1_655 S
H481 C489 0.930 . S
H482 C490 0.930 . S
H483 C491 0.930 . S
H484 C494 0.930 . S
H485 C495 0.930 . S
C486 H480 0.930 1_455 S
C486 C487 1.355 . S
C486 C488 1.415 . S
C487 C486 1.355 . S
C487 C489 1.419 . S
C488 C486 1.415 . S
C488 C493 1.425 . S
C488 C495 1.409 1_455 S
C489 H481 0.930 . S
C489 C487 1.419 . S
C489 C490 1.362 . S
C490 H482 0.930 . S
C490 C489 1.362 . S
C490 C493 1.409 . S
C491 H483 0.930 . S
C491 C492 1.355 . S
C491 C493 1.415 . S
C492 C491 1.355 . S
C492 C494 1.419 1_455 S
C493 C488 1.425 . S
C493 C490 1.409 . S
C493 C491 1.415 . S
C494 H484 0.930 . S
C494 C492 1.419 1_655 S
C494 C495 1.362 . S
C495 H485 0.930 . S
C495 C488 1.409 1_655 S
C495 C494 1.362 . S
H496 C502 0.930 . S
H497 C505 0.930 . S
H498 C506 0.943 . S
H499 C507 0.930 . S
H500 C510 0.930 1_556 S
H501 C511 0.930 . S
C502 H496 0.930 . S
C502 C503 1.355 . S
C502 C504 1.415 . S
C503 C502 1.355 . S
C503 C505 1.419 . S
C504 C502 1.415 . S
C504 C509 1.425 . S
C504 C511 1.409 . S
C505 H497 0.930 . S
C505 C503 1.419 . S
C505 C506 1.359 1_565 S
C506 H498 0.943 . S
C506 C505 1.359 1_545 S
C506 C509 1.407 1_545 S
C507 H499 0.930 . S
C507 C508 1.355 1_545 S
C507 C509 1.415 1_546 S
C508 C507 1.355 1_565 S
C508 C510 1.419 1_556 S
C509 C504 1.425 . S
C509 C506 1.407 1_565 S
C509 C507 1.415 1_564 S
C510 H500 0.930 1_554 S
C510 C508 1.419 1_554 S
C510 C511 1.362 . S
C511 H501 0.930 . S
C511 C504 1.409 . S
C511 C510 1.362 . S
H512 C518 0.930 . S
H513 C521 0.930 . S
H514 C522 0.930 . S
H515 C523 0.930 . S
H516 C526 0.930 . S
H517 C527 0.930 . S
C518 H512 0.930 . S
C518 C519 1.355 . S
C518 C520 1.415 . S
C519 C518 1.355 . S
C519 C521 1.419 . S
C520 C518 1.415 . S
C520 C525 1.425 . S
C520 C527 1.409 1_554 S
C521 H513 0.930 . S
C521 C519 1.419 . S
C521 C522 1.362 . S
C522 H514 0.930 . S
C522 C521 1.362 . S
C522 C525 1.409 . S
C523 H515 0.930 . S
C523 C524 1.355 1_554 S
C523 C525 1.415 . S
C524 C523 1.355 1_556 S
C524 C526 1.419 . S
C525 C520 1.425 . S
C525 C522 1.409 . S
C525 C523 1.415 . S
C526 H516 0.930 . S
C526 C524 1.419 . S
C526 C527 1.362 . S
C527 H517 0.930 . S
C527 C520 1.409 1_556 S
C527 C526 1.362 . S
H528 C534 0.930 . S
H529 C537 0.930 . S
H530 C538 0.930 . S
H531 C539 0.930 . S
H532 C542 0.930 . S
H533 C543 0.930 . S
C534 H528 0.930 . S
C534 C535 1.355 . S
C534 C536 1.415 . S
C535 C534 1.355 . S
C535 C537 1.419 . S
C536 C534 1.415 . S
C536 C541 1.425 . S
C536 C543 1.409 1_554 S
C537 H529 0.930 . S
C537 C535 1.419 . S
C537 C538 1.362 . S
C538 H530 0.930 . S
C538 C537 1.362 . S
C538 C541 1.409 . S
C539 H531 0.930 . S
C539 C540 1.355 1_554 S
C539 C541 1.415 . S
C540 C539 1.355 1_556 S
C540 C542 1.419 . S
C541 C536 1.425 . S
C541 C538 1.409 . S
C541 C539 1.415 . S
C542 H532 0.930 . S
C542 C540 1.419 . S
C542 C543 1.362 . S
C543 H533 0.930 . S
C543 C536 1.409 1_556 S
C543 C542 1.362 . S
H544 C550 0.930 . S
H545 C553 0.930 . S
H546 C554 0.930 . S
H547 C555 0.930 . S
H548 C558 0.930 . S
H549 C559 0.930 . S
C550 H544 0.930 . S
C550 C551 1.355 . S
C550 C552 1.415 . S
C551 C550 1.355 . S
C551 C553 1.419 1_655 S
C552 C550 1.415 . S
C552 C557 1.437 . S
C552 C559 1.409 1_554 S
C553 H545 0.930 . S
C553 C551 1.419 1_455 S
C553 C554 1.362 . S
C554 H546 0.930 . S
C554 C553 1.362 . S
C554 C557 1.403 1_455 S
C555 H547 0.930 . S
C555 C556 1.355 1_454 S
C555 C557 1.410 1_455 S
C556 C555 1.355 1_656 S
C556 C558 1.419 . S
C557 C552 1.437 . S
C557 C554 1.403 1_655 S
C557 C555 1.410 1_655 S
C558 H548 0.930 . S
C558 C556 1.419 . S
C558 C559 1.362 . S
C559 H549 0.930 . S
C559 C552 1.409 1_556 S
C559 C558 1.362 . S
H560 C566 0.930 . S
H561 C569 0.930 . S
H562 C570 0.930 . S
H563 C571 0.930 . S
H564 C574 0.930 . S
H565 C575 0.930 . S
C566 H560 0.930 . S
C566 C567 1.355 . S
C566 C568 1.415 . S
C567 C566 1.355 . S
C567 C569 1.419 . S
C568 C566 1.415 . S
C568 C573 1.425 . S
C568 C575 1.409 1_455 S
C569 H561 0.930 . S
C569 C567 1.419 . S
C569 C570 1.362 . S
C570 H562 0.930 . S
C570 C569 1.362 . S
C570 C573 1.409 . S
C571 H563 0.930 . S
C571 C572 1.355 1_455 S
C571 C573 1.415 . S
C572 C571 1.355 1_655 S
C572 C574 1.419 . S
C573 C568 1.425 . S
C573 C570 1.409 . S
C573 C571 1.415 . S
C574 H564 0.930 . S
C574 C572 1.419 . S
C574 C575 1.362 . S
C575 H565 0.930 . S
C575 C568 1.409 1_655 S
C575 C574 1.362 . S
H576 C582 0.930 . S
H577 C585 0.930 . S
H578 C586 0.930 . S
H579 C587 0.930 . S
H580 C590 0.930 . S
H581 C591 0.930 . S
C582 H576 0.930 . S
C582 C583 1.355 . S
C582 C584 1.415 . S
C583 C582 1.355 . S
C583 C585 1.419 . S
C584 C582 1.415 . S
C584 C589 1.425 . S
C584 C591 1.409 . S
C585 H577 0.930 . S
C585 C583 1.419 . S
C585 C586 1.362 . S
C586 H578 0.930 . S
C586 C585 1.362 . S
C586 C589 1.409 . S
C587 H579 0.930 . S
C587 C588 1.355 . S
C587 C589 1.415 . S
C588 C587 1.355 . S
C588 C590 1.419 . S
C589 C584 1.425 . S
C589 C586 1.409 . S
C589 C587 1.415 . S
C590 H580 0.930 . S
C590 C588 1.419 . S
C590 C591 1.362 . S
C591 H581 0.930 . S
C591 C584 1.409 . S
C591 C590 1.362 . S
H592 C598 0.930 . S
H593 C601 0.930 . S
H594 C602 0.930 . S
H595 C603 0.930 . S
H596 C606 0.930 . S
H597 C607 0.930 . S
C598 H592 0.930 . S
C598 C599 1.355 . S
C598 C600 1.415 . S
C599 C598 1.355 . S
C599 C601 1.419 . S
C600 C598 1.415 . S
C600 C605 1.425 . S
C600 C607 1.409 . S
C601 H593 0.930 . S
C601 C599 1.419 . S
C601 C602 1.362 . S
C602 H594 0.930 . S
C602 C601 1.362 . S
C602 C605 1.409 . S
C603 H595 0.930 . S
C603 C604 1.355 . S
C603 C605 1.415 . S
C604 C603 1.355 . S
C604 C606 1.419 . S
C605 C600 1.425 . S
C605 C602 1.409 . S
C605 C603 1.415 . S
C606 H596 0.930 . S
C606 C604 1.419 . S
C606 C607 1.362 . S
C607 H597 0.930 . S
C607 C600 1.409 . S
C607 C606 1.362 . S
H608 C614 0.930 . S
H609 C617 0.930 . S
H610 C618 0.930 . S
H611 C619 0.930 . S
H612 C622 0.930 . S
H613 C623 0.930 . S
C614 H608 0.930 . S
C614 C615 1.355 . S
C614 C616 1.415 . S
C615 C614 1.355 . S
C615 C617 1.419 . S
C616 C614 1.415 . S
C616 C621 1.425 . S
C616 C623 1.409 . S
C617 H609 0.930 . S
C617 C615 1.419 . S
C617 C618 1.362 . S
C618 H610 0.930 . S
C618 C617 1.362 . S
C618 C621 1.409 . S
C619 H611 0.930 . S
C619 C620 1.355 . S
C619 C621 1.415 . S
C620 C619 1.355 . S
C620 C622 1.419 . S
C621 C616 1.425 . S
C621 C618 1.409 . S
C621 C619 1.415 . S
C622 H612 0.930 . S
C622 C620 1.419 . S
C622 C623 1.362 . S
C623 H613 0.930 . S
C623 C616 1.409 . S
C623 C622 1.362 . S
H624 C630 0.930 . S
H625 C633 0.930 . S
H626 C634 0.930 . S
H627 C635 0.930 . S
H628 C638 0.930 . S
H629 C639 0.930 . S
C630 H624 0.930 . S
C630 C631 1.355 . S
C630 C632 1.415 . S
C631 C630 1.355 . S
C631 C633 1.419 1_655 S
C632 C630 1.415 . S
C632 C637 1.425 1_655 S
C632 C639 1.409 . S
C633 H625 0.930 . S
C633 C631 1.419 1_455 S
C633 C634 1.362 . S
C634 H626 0.930 . S
C634 C633 1.362 . S
C634 C637 1.409 . S
C635 H627 0.930 . S
C635 C636 1.355 . S
C635 C637 1.415 . S
C636 C635 1.355 . S
C636 C638 1.419 1_455 S
C637 C632 1.425 1_455 S
C637 C634 1.409 . S
C637 C635 1.415 . S
C638 H628 0.930 . S
C638 C636 1.419 1_655 S
C638 C639 1.362 . S
C639 H629 0.930 . S
C639 C632 1.409 . S
C639 C638 1.362 . S
H640 C646 0.930 . S
H641 C649 0.930 . S
H642 C650 0.930 . S
H643 C651 0.930 . S
H644 C654 0.930 1_556 S
H645 C655 0.930 . S
C646 H640 0.930 . S
C646 C647 1.355 . S
C646 C648 1.415 . S
C647 C646 1.355 . S
C647 C649 1.419 . S
C648 C646 1.415 . S
C648 C653 1.425 1_565 S
C648 C655 1.409 1_565 S
C649 H641 0.930 . S
C649 C647 1.419 . S
C649 C650 1.362 . S
C650 H642 0.930 . S
C650 C649 1.362 . S
C650 C653 1.409 1_565 S
C651 H643 0.930 . S
C651 C652 1.355 . S
C651 C653 1.415 . S
C652 C651 1.355 . S
C652 C654 1.419 . S
C653 C648 1.425 1_545 S
C653 C650 1.409 1_545 S
C653 C651 1.415 . S
C654 H644 0.930 1_554 S
C654 C652 1.419 . S
C654 C655 1.362 . S
C655 H645 0.930 . S
C655 C648 1.409 1_545 S
C655 C654 1.362 . S
H656 C662 0.930 . S
H657 C665 0.930 . S
H658 C666 0.930 . S
H659 C667 0.930 . S
H660 C670 0.930 . S
H661 C671 0.930 . S
C662 H656 0.930 . S
C662 C663 1.355 . S
C662 C664 1.415 . S
C663 C662 1.355 . S
C663 C665 1.419 . S
C664 C662 1.415 . S
C664 C669 1.425 . S
C664 C671 1.409 . S
C665 H657 0.930 . S
C665 C663 1.419 . S
C665 C666 1.362 . S
C666 H658 0.930 . S
C666 C665 1.362 . S
C666 C669 1.409 . S
C667 H659 0.930 . S
C667 C668 1.355 . S
C667 C669 1.415 . S
C668 C667 1.355 . S
C668 C670 1.419 . S
C669 C664 1.425 . S
C669 C666 1.409 . S
C669 C667 1.415 . S
C670 H660 0.930 . S
C670 C668 1.419 . S
C670 C671 1.362 . S
C671 H661 0.930 . S
C671 C664 1.409 . S
C671 C670 1.362 . S
H672 C678 0.930 . S
H673 C681 0.930 . S
H674 C682 0.930 . S
H675 C683 0.930 . S
H676 C686 0.930 . S
H677 C687 0.930 . S
C678 H672 0.930 . S
C678 C679 1.355 . S
C678 C680 1.415 . S
C679 C678 1.355 . S
C679 C681 1.419 . S
C680 C678 1.415 . S
C680 C685 1.425 . S
C680 C687 1.409 . S
C681 H673 0.930 . S
C681 C679 1.419 . S
C681 C682 1.362 . S
C682 H674 0.930 . S
C682 C681 1.362 . S
C682 C685 1.409 . S
C683 H675 0.930 . S
C683 C684 1.355 . S
C683 C685 1.415 . S
C684 C683 1.355 . S
C684 C686 1.419 . S
C685 C680 1.425 . S
C685 C682 1.409 . S
C685 C683 1.415 . S
C686 H676 0.930 . S
C686 C684 1.419 . S
C686 C687 1.362 . S
C687 H677 0.930 . S
C687 C680 1.409 . S
C687 C686 1.362 . S
H688 C694 0.930 . S
H689 C697 0.930 1_554 S
H690 C698 0.930 1_554 S
H691 C699 0.930 . S
H692 C702 0.930 . S
H693 C703 0.930 . S
C694 H688 0.930 . S
C694 C695 1.355 . S
C694 C696 1.415 . S
C695 C694 1.355 . S
C695 C697 1.419 . S
C696 C694 1.415 . S
C696 C701 1.425 . S
C696 C703 1.409 . S
C697 H689 0.930 1_556 S
C697 C695 1.419 . S
C697 C698 1.362 . S
C698 H690 0.930 1_556 S
C698 C697 1.362 . S
C698 C701 1.409 . S
C699 H691 0.930 . S
C699 C700 1.355 . S
C699 C701 1.415 . S
C700 C699 1.355 . S
C700 C702 1.419 . S
C701 C696 1.425 . S
C701 C698 1.409 . S
C701 C699 1.415 . S
C702 H692 0.930 . S
C702 C700 1.419 . S
C702 C703 1.362 . S
C703 H693 0.930 . S
C703 C696 1.409 . S
C703 C702 1.362 . S
H704 C710 0.930 . S
H705 C713 0.930 . S
H706 C714 0.930 . S
H707 C715 0.930 . S
H708 C718 0.930 . S
H709 C719 0.930 1_554 S
C710 H704 0.930 . S
C710 C711 1.355 . S
C710 C712 1.415 . S
C711 C710 1.355 . S
C711 C713 1.419 . S
C712 C710 1.415 . S
C712 C717 1.425 . S
C712 C719 1.409 . S
C713 H705 0.930 . S
C713 C711 1.419 . S
C713 C714 1.362 . S
C714 H706 0.930 . S
C714 C713 1.362 . S
C714 C717 1.409 . S
C715 H707 0.930 . S
C715 C716 1.355 . S
C715 C717 1.415 . S
C716 C715 1.355 . S
C716 C718 1.419 . S
C717 C712 1.425 . S
C717 C714 1.409 . S
C717 C715 1.415 . S
C718 H708 0.930 . S
C718 C716 1.419 . S
C718 C719 1.362 . S
C719 H709 0.930 1_556 S
C719 C712 1.409 . S
C719 C718 1.362 . S
H720 C726 0.930 . S
H721 C729 0.930 1_554 S
H722 C730 0.930 1_554 S
H723 C731 0.930 . S
H724 C734 0.930 . S
H725 C735 0.930 . S
C726 H720 0.930 . S
C726 C727 1.355 . S
C726 C728 1.415 . S
C727 C726 1.355 . S
C727 C729 1.419 . S
C728 C726 1.415 . S
C728 C733 1.425 . S
C728 C735 1.409 . S
C729 H721 0.930 1_556 S
C729 C727 1.419 . S
C729 C730 1.362 . S
C730 H722 0.930 1_556 S
C730 C729 1.362 . S
C730 C733 1.409 . S
C731 H723 0.930 . S
C731 C732 1.355 . S
C731 C733 1.415 . S
C732 C731 1.355 . S
C732 C734 1.419 . S
C733 C728 1.425 . S
C733 C730 1.409 . S
C733 C731 1.415 . S
C734 H724 0.930 . S
C734 C732 1.419 . S
C734 C735 1.362 . S
C735 H725 0.930 . S
C735 C728 1.409 . S
C735 C734 1.362 . S
H736 C742 0.930 . S
H737 C745 0.930 1_554 S
H738 C746 0.930 1_554 S
H739 C747 0.930 . S
H740 C750 0.930 . S
H741 C751 0.930 . S
C742 H736 0.930 . S
C742 C743 1.355 . S
C742 C744 1.415 . S
C743 C742 1.355 . S
C743 C745 1.419 . S
C744 C742 1.415 . S
C744 C749 1.425 . S
C744 C751 1.409 . S
C745 H737 0.930 1_556 S
C745 C743 1.419 . S
C745 C746 1.362 . S
C746 H738 0.930 1_556 S
C746 C745 1.362 . S
C746 C749 1.409 . S
C747 H739 0.930 . S
C747 C748 1.355 . S
C747 C749 1.415 . S
C748 C747 1.355 . S
C748 C750 1.419 . S
C749 C744 1.425 . S
C749 C746 1.409 . S
C749 C747 1.415 . S
C750 H740 0.930 . S
C750 C748 1.419 . S
C750 C751 1.362 . S
C751 H741 0.930 . S
C751 C744 1.409 . S
C751 C750 1.362 . S
H752 C758 0.930 . S
H753 C761 0.930 . S
H754 C762 0.930 . S
H755 C763 0.930 . S
H756 C766 0.930 . S
H757 C767 0.930 . S
C758 H752 0.930 . S
C758 C759 1.355 . S
C758 C760 1.415 . S
C759 C758 1.355 . S
C759 C761 1.419 1_655 S
C760 C758 1.415 . S
C760 C765 1.425 1_655 S
C760 C767 1.409 . S
C761 H753 0.930 . S
C761 C759 1.419 1_455 S
C761 C762 1.362 . S
C762 H754 0.930 . S
C762 C761 1.362 . S
C762 C765 1.409 . S
C763 H755 0.930 . S
C763 C764 1.355 1_455 S
C763 C765 1.415 . S
C764 C763 1.355 1_655 S
C764 C766 1.419 . S
C765 C760 1.425 1_455 S
C765 C762 1.409 . S
C765 C763 1.415 . S
C766 H756 0.930 . S
C766 C764 1.419 . S
C766 C767 1.362 . S
C767 H757 0.930 . S
C767 C760 1.409 . S
C767 C766 1.362 . S
H768 C774 0.930 . S
H769 C777 0.930 . S
H770 C778 0.930 . S
H771 C779 0.930 . S
H772 C782 0.930 . S
H773 C783 0.930 . S
C774 H768 0.930 . S
C774 C775 1.355 1_545 S
C774 C776 1.417 . S
C775 C774 1.355 1_565 S
C775 C777 1.419 . S
C776 C774 1.417 . S
C776 C781 1.405 1_545 S
C776 C783 1.428 . S
C777 H769 0.930 . S
C777 C775 1.419 . S
C777 C778 1.362 . S
C778 H770 0.930 . S
C778 C777 1.362 . S
C778 C781 1.409 . S
C779 H771 0.930 . S
C779 C780 1.355 . S
C779 C781 1.415 . S
C780 C779 1.355 . S
C780 C782 1.419 1_565 S
C781 C776 1.405 1_565 S
C781 C778 1.409 . S
C781 C779 1.415 . S
C782 H772 0.930 . S
C782 C780 1.419 1_545 S
C782 C783 1.362 . S
C783 H773 0.930 . S
C783 C776 1.428 . S
C783 C782 1.362 . S
H784 C790 0.930 . S
H785 C793 0.930 . S
H786 C794 0.930 . S
H787 C795 0.930 . S
H788 C798 0.930 . S
H789 C799 0.930 . S
C790 H784 0.930 . S
C790 C791 1.355 . S
C790 C792 1.415 . S
C791 C790 1.355 . S
C791 C793 1.419 . S
C792 C790 1.415 . S
C792 C797 1.425 . S
C792 C799 1.409 . S
C793 H785 0.930 . S
C793 C791 1.419 . S
C793 C794 1.362 . S
C794 H786 0.930 . S
C794 C793 1.362 . S
C794 C797 1.409 . S
C795 H787 0.930 . S
C795 C796 1.355 . S
C795 C797 1.415 . S
C796 C795 1.355 . S
C796 C798 1.419 . S
C797 C792 1.425 . S
C797 C794 1.409 . S
C797 C795 1.415 . S
C798 H788 0.930 . S
C798 C796 1.419 . S
C798 C799 1.362 . S
C799 H789 0.930 . S
C799 C792 1.409 . S
C799 C798 1.362 . S
H800 C806 0.930 . S
H801 C809 0.930 . S
H802 C810 0.930 . S
H803 C811 0.930 . S
H804 C814 0.930 . S
H805 C815 0.930 . S
C806 H800 0.930 . S
C806 C807 1.355 . S
C806 C808 1.415 . S
C807 C806 1.355 . S
C807 C809 1.419 . S
C808 C806 1.415 . S
C808 C813 1.425 . S
C808 C815 1.409 . S
C809 H801 0.930 . S
C809 C807 1.419 . S
C809 C810 1.362 . S
C810 H802 0.930 . S
C810 C809 1.362 . S
C810 C813 1.409 . S
C811 H803 0.930 . S
C811 C812 1.355 . S
C811 C813 1.415 . S
C812 C811 1.355 . S
C812 C814 1.419 . S
C813 C808 1.425 . S
C813 C810 1.409 . S
C813 C811 1.415 . S
C814 H804 0.930 . S
C814 C812 1.419 . S
C814 C815 1.362 . S
C815 H805 0.930 . S
C815 C808 1.409 . S
C815 C814 1.362 . S
C439 C76 1.875 . S
C444 C159 2.088 . S
C460 C236 2.085 . S
C455 C88 1.875 . S
C476 C327 2.094 . S
C471 C52 1.934 . S
C492 C411 2.066 . S
C487 C64 1.926 . S
C508 C170 2.079 1_565 S
C503 C28 1.871 . S
C519 C40 1.944 . S
C524 C247 2.106 . S
C535 C4 1.927 . S
C540 C338 2.071 . S
C551 C16 1.938 . S
C556 C422 2.079 1_655 S
C572 C154 0.570 . S
C567 C69 0.670 . S
C588 C249 0.736 . S
C583 C81 0.582 . S
C604 C322 0.741 . S
C599 C93 0.660 . S
C615 C57 0.700 . S
C620 C406 0.633 . S
C631 C21 0.646 . S
C636 C165 0.742 . S
C652 C238 0.735 . S
C647 C33 0.560 . S
C668 C333 0.571 . S
C663 C45 0.675 . S
C679 C9 0.712 . S
C684 C417 0.631 . S
C695 C66 1.932 . S
C700 C163 2.170 . S
C711 C78 2.016 . S
C716 C254 2.205 . S
C732 C331 2.187 . S
C727 C90 1.949 . S
C748 C415 2.193 . S
C743 C54 1.961 . S
C759 C18 1.960 . S
C764 C152 2.184 . S
C780 C243 2.205 1_565 S
C775 C30 2.012 . S
C796 C320 2.203 . S
C791 C42 1.994 . S
C807 C6 2.031 . S
C812 C404 2.221 . S
