# Generated by pormake.
# Topology pto, (3,4)-cn, num edge types: 1
# Building blocks:
#     Node 0, Type 0, BuildingBlock: INOVEN_clean_linker_0, # of connection points: 3
#     Node 1, Type 0, BuildingBlock: INOVEN_clean_linker_0, # of connection points: 3
#     Node 2, Type 0, BuildingBlock: INOVEN_clean_linker_0, # of connection points: 3
#     Node 3, Type 0, BuildingBlock: INOVEN_clean_linker_0, # of connection points: 3
#     Node 4, Type 0, BuildingBlock: INOVEN_clean_linker_0, # of connection points: 3
#     Node 5, Type 0, BuildingBlock: INOVEN_clean_linker_0, # of connection points: 3
#     Node 6, Type 0, BuildingBlock: INOVEN_clean_linker_0, # of connection points: 3
#     Node 7, Type 0, BuildingBlock: INOVEN_clean_linker_0, # of connection points: 3
#     Node 8, Type 1, BuildingBlock: NAWXER_clean_sbu_0, # of connection points: 4
#     Node 9, Type 1, BuildingBlock: NAWXER_clean_sbu_0, # of connection points: 4
#     Node 10, Type 1, BuildingBlock: NAWXER_clean_sbu_0, # of connection points: 4
#     Node 11, Type 1, BuildingBlock: NAWXER_clean_sbu_0, # of connection points: 4
#     Node 12, Type 1, BuildingBlock: NAWXER_clean_sbu_0, # of connection points: 4
#     Node 13, Type 1, BuildingBlock: NAWXER_clean_sbu_0, # of connection points: 4
#     Edge 14, Type (0, 1), BuildingBlock: EZIPEK_clean_linker_0, # of connection points: 2
#     Edge 15, Type (0, 1), BuildingBlock: EZIPEK_clean_linker_0, # of connection points: 2
#     Edge 16, Type (0, 1), BuildingBlock: EZIPEK_clean_linker_0, # of connection points: 2
#     Edge 17, Type (0, 1), BuildingBlock: EZIPEK_clean_linker_0, # of connection points: 2
#     Edge 18, Type (0, 1), BuildingBlock: EZIPEK_clean_linker_0, # of connection points: 2
#     Edge 19, Type (0, 1), BuildingBlock: EZIPEK_clean_linker_0, # of connection points: 2
#     Edge 20, Type (0, 1), BuildingBlock: EZIPEK_clean_linker_0, # of connection points: 2
#     Edge 21, Type (0, 1), BuildingBlock: EZIPEK_clean_linker_0, # of connection points: 2
#     Edge 22, Type (0, 1), BuildingBlock: EZIPEK_clean_linker_0, # of connection points: 2
#     Edge 23, Type (0, 1), BuildingBlock: EZIPEK_clean_linker_0, # of connection points: 2
#     Edge 24, Type (0, 1), BuildingBlock: EZIPEK_clean_linker_0, # of connection points: 2
#     Edge 25, Type (0, 1), BuildingBlock: EZIPEK_clean_linker_0, # of connection points: 2
#     Edge 26, Type (0, 1), BuildingBlock: EZIPEK_clean_linker_0, # of connection points: 2
#     Edge 27, Type (0, 1), BuildingBlock: EZIPEK_clean_linker_0, # of connection points: 2
#     Edge 28, Type (0, 1), BuildingBlock: EZIPEK_clean_linker_0, # of connection points: 2
#     Edge 29, Type (0, 1), BuildingBlock: EZIPEK_clean_linker_0, # of connection points: 2
#     Edge 30, Type (0, 1), BuildingBlock: EZIPEK_clean_linker_0, # of connection points: 2
#     Edge 31, Type (0, 1), BuildingBlock: EZIPEK_clean_linker_0, # of connection points: 2
#     Edge 32, Type (0, 1), BuildingBlock: EZIPEK_clean_linker_0, # of connection points: 2
#     Edge 33, Type (0, 1), BuildingBlock: EZIPEK_clean_linker_0, # of connection points: 2
#     Edge 34, Type (0, 1), BuildingBlock: EZIPEK_clean_linker_0, # of connection points: 2
#     Edge 35, Type (0, 1), BuildingBlock: EZIPEK_clean_linker_0, # of connection points: 2
#     Edge 36, Type (0, 1), BuildingBlock: EZIPEK_clean_linker_0, # of connection points: 2
#     Edge 37, Type (0, 1), BuildingBlock: EZIPEK_clean_linker_0, # of connection points: 2
# Relax obj value: 0.011
# Max RMSD: 0.130
# Mean RMSD: 0.054
data_MOF--net-pto--node1-NAWXER_clean_sbu_0--node2-INOVEN_clean_linker_0--edge1-EZIPEK_clean_linker_0
_symmetry_space_group_name_H-M    P1
_symmetry_Int_Tables_number       1
_symmetry_cell_setting            triclinic
loop_
_symmetry_equiv_pos_as_xyz
'x, y, z'
_cell_length_a     30.473944
_cell_length_b     28.054618
_cell_length_c     27.251615
_cell_angle_alpha  109.52391
_cell_angle_beta   96.025424
_cell_angle_gamma 98.96875
loop_
_atom_site_label
_atom_site_type_symbol
_atom_site_fract_x
_atom_site_fract_y
_atom_site_fract_z
_atom_type_partial_charge
H0 H 0.24148 0.21489 0.41736 0.0
H1 H 0.38363 0.22024 0.41955 0.0
H2 H 0.31307 0.29424 0.33009 0.0
N3 N 0.23282 0.27416 0.36095 0.0
N4 N 0.23252 0.3072 0.33961 0.0
C5 C 0.27252 0.22679 0.4046 0.0
C6 C 0.31224 0.21297 0.42126 0.0
C7 C 0.27269 0.25682 0.37259 0.0
C8 C 0.31287 0.27185 0.3557 0.0
C9 C 0.3532 0.25906 0.37244 0.0
C10 C 0.35276 0.23016 0.40608 0.0
H11 H 0.23023 0.79691 0.85465 0.0
H12 H 0.31593 0.7314 0.93812 0.0
H13 H 0.37074 0.80927 0.83952 0.0
N14 N 0.29234 0.83855 0.81272 0.0
N15 N 0.32301 0.85847 0.79435 0.0
C16 C 0.26334 0.79022 0.86551 0.0
C17 C 0.26896 0.76204 0.89882 0.0
C18 C 0.3 0.80894 0.84516 0.0
C19 C 0.34256 0.79711 0.85671 0.0
C20 C 0.34838 0.76897 0.89046 0.0
C21 C 0.31176 0.75339 0.9125 0.0
H22 H 0.82993 0.63267 0.2572 0.0
H23 H 0.90077 0.7281 0.41248 0.0
H24 H 0.78911 0.77348 0.34067 0.0
N25 N 0.7653 0.68846 0.25574 0.0
N26 N 0.75594 0.64682 0.21718 0.0
C27 C 0.83457 0.6677 0.2915 0.0
C28 C 0.86973 0.67772 0.33333 0.0
C29 C 0.80455 0.70136 0.2947 0.0
C30 C 0.81186 0.7471 0.33896 0.0
C31 C 0.84637 0.75753 0.38235 0.0
C32 C 0.87479 0.72177 0.3793 0.0
H33 H 0.8419 0.38571 0.04401 0.0
H34 H 0.91064 0.31279 0.91897 0.0
H35 H 0.7873 0.22863 0.9396 0.0
N36 N 0.77152 0.30621 0.02134 0.0
N37 N 0.76795 0.34501 0.05909 0.0
C38 C 0.84414 0.35147 0.01157 0.0
C39 C 0.87999 0.3538 0.98384 0.0
C40 C 0.8102 0.30661 0.99591 0.0
C41 C 0.8136 0.26312 0.95259 0.0
C42 C 0.85025 0.26487 0.92495 0.0
C43 C 0.88323 0.31046 0.94098 0.0
H44 H 0.76481 0.82339 0.92619 0.0
H45 H 0.81849 0.70599 0.96702 0.0
H46 H 0.87334 0.76488 0.85411 0.0
N47 N 0.81412 0.82872 0.85605 0.0
N48 N 0.83011 0.82184 0.81462 0.0
C49 C 0.78939 0.79883 0.92302 0.0
C50 C 0.78803 0.7649 0.95067 0.0
C51 C 0.81883 0.79798 0.8873 0.0
C52 C 0.84996 0.76529 0.88153 0.0
C53 C 0.85111 0.73324 0.91163 0.0
C54 C 0.81943 0.73247 0.94571 0.0
H55 H 0.71465 0.16394 0.34748 0.0
H56 H 0.77193 0.29976 0.31728 0.0
H57 H 0.83924 0.26028 0.44102 0.0
N58 N 0.77374 0.17798 0.42956 0.0
N59 N 0.79101 0.19434 0.47712 0.0
C60 C 0.7409 0.19802 0.35661 0.0
C61 C 0.73774 0.2314 0.32854 0.0
C62 C 0.77544 0.21011 0.39915 0.0
C63 C 0.81077 0.25278 0.41019 0.0
C64 C 0.81051 0.28407 0.37932 0.0
C65 C 0.77291 0.27471 0.34007 0.0
H66 H 0.2927 0.30442 0.82384 0.0
H67 H 0.397 0.28721 0.93142 0.0
H68 H 0.30338 0.383 0.99179 0.0
N69 N 0.25671 0.36855 0.89428 0.0
N70 N 0.23808 0.3951 0.9292 0.0
C71 C 0.31003 0.31439 0.86385 0.0
C72 C 0.34676 0.29232 0.87307 0.0
C73 C 0.2944 0.34777 0.90612 0.0
C74 C 0.31571 0.35853 0.95846 0.0
C75 C 0.35297 0.33666 0.96733 0.0
C76 C 0.36886 0.30491 0.92451 0.0
H77 H 0.28337 0.62354 0.3085 0.0
H78 H 0.27327 0.74409 0.45255 0.0
H79 H 0.38049 0.76762 0.36855 0.0
N80 N 0.35603 0.67745 0.28747 0.0
N81 N 0.38552 0.70974 0.2805 0.0
C82 C 0.29651 0.6614 0.33844 0.0
C83 C 0.2744 0.6795 0.38214 0.0
C84 C 0.33479 0.69322 0.3328 0.0
C85 C 0.35112 0.74228 0.37183 0.0
C86 C 0.32899 0.76065 0.41428 0.0
C87 C 0.29082 0.7293 0.41982 0.0
C88 C 0.9741 0.42813 0.38972 0.0
C89 C 0.10952 0.55516 0.39697 0.0
O90 O 1.00033 0.45885 0.43173 0.0
Zn91 Zn 0.04295 0.49385 0.39869 0.0
O92 O 0.98294 0.42818 0.34493 0.0
Zn93 Zn 0.03206 0.46507 0.31287 0.0
O94 O 0.06143 0.40793 0.27761 0.0
O95 O 0.07939 0.43667 0.36422 0.0
O96 O 0.08909 0.52646 0.35048 0.0
O97 O 0.09417 0.55064 0.43735 0.0
O98 O 1.00116 0.53136 0.36321 0.0
O99 O 0.99459 0.49755 0.27619 0.0
C100 C 0.08431 0.40676 0.31899 0.0
C101 C 0.98525 0.5299 0.31728 0.0
C102 C 1.00778 0.52918 0.99581 0.0
C103 C 0.12115 0.64955 0.95787 0.0
O104 O 0.0353 0.5674 0.03048 0.0
Zn105 Zn 0.06395 0.59223 0.98043 0.0
O106 O 1.00726 0.52083 0.94665 0.0
Zn107 Zn 0.04129 0.55141 0.89654 0.0
O108 O 0.06808 0.49368 0.85922 0.0
O109 O 0.09658 0.53028 0.94435 0.0
O110 O 0.09666 0.61448 0.91677 0.0
O111 O 0.11384 0.65189 0.00367 0.0
O112 O 0.01098 0.61872 0.94645 0.0
O113 O 0.99331 0.5727 0.86104 0.0
C114 C 0.09569 0.49621 0.89893 0.0
C115 C 0.98683 0.60833 0.90138 0.0
C116 C 0.30607 0.98466 0.66931 0.0
C117 C 0.30956 0.08694 0.55266 0.0
O118 O 0.27176 0.99395 0.64588 0.0
Zn119 Zn 0.30477 0.03556 0.61109 0.0
O120 O 0.34575 1.00348 0.66438 0.0
Zn121 Zn 0.37753 0.05051 0.6245 0.0
O122 O 0.41123 0.11048 0.68263 0.0
O123 O 0.33709 0.10224 0.67633 0.0
O124 O 0.34872 0.08461 0.57274 0.0
O125 O 0.27458 0.06381 0.5634 0.0
O126 O 0.33422 0.97911 0.56054 0.0
O127 O 0.40872 1.00238 0.58014 0.0
C128 C 0.37697 0.12684 0.69928 0.0
C129 C 0.37325 0.96995 0.55304 0.0
C130 C 0.5988 0.63684 0.08519 0.0
C131 C 0.49412 0.70054 0.98226 0.0
O132 O 0.57302 0.60836 0.04184 0.0
Zn133 Zn 0.54449 0.66338 0.03182 0.0
O134 O 0.59717 0.68449 0.10599 0.0
Zn135 Zn 0.56432 0.74058 0.09052 0.0
O136 O 0.5327 0.75923 0.14966 0.0
O137 O 0.50553 0.67906 0.09413 0.0
O138 O 0.5144 0.73404 0.02681 0.0
O139 O 0.50279 0.65541 0.9683 0.0
O140 O 0.60271 0.70867 0.02292 0.0
O141 O 0.6171 0.78675 0.08404 0.0
C142 C 0.50458 0.71662 0.13637 0.0
C143 C 0.62779 0.75356 0.04467 0.0
C144 C 0.79804 0.94862 0.69628 0.0
C145 C 0.78638 0.0585 0.59222 0.0
O146 O 0.76113 0.95665 0.67709 0.0
Zn147 Zn 0.7887 1.00224 0.64431 0.0
O148 O 0.83595 0.97037 0.68967 0.0
Zn149 Zn 0.86163 0.02162 0.65242 0.0
O150 O 0.89372 0.08208 0.71468 0.0
O151 O 0.81998 0.06836 0.71183 0.0
O152 O 0.8267 0.05716 0.60898 0.0
O153 O 0.75323 0.03184 0.60241 0.0
O154 O 0.81666 0.9489 0.58673 0.0
O155 O 0.88898 0.97708 0.59547 0.0
C156 C 0.85936 0.09477 0.73478 0.0
C157 C 0.85383 0.94284 0.57014 0.0
C158 C 0.58276 0.22879 0.1967 0.0
C159 C 0.47514 0.30707 0.11851 0.0
O160 O 0.55264 0.20383 0.15612 0.0
Zn161 Zn 0.52753 0.26404 0.15585 0.0
O162 O 0.58518 0.27692 0.22141 0.0
Zn163 Zn 0.55469 0.33864 0.21681 0.0
O164 O 0.52966 0.35656 0.28275 0.0
O165 O 0.49588 0.28023 0.22436 0.0
O166 O 0.50036 0.339 0.161 0.0
O167 O 0.47979 0.26034 0.10119 0.0
O168 O 0.58488 0.30632 0.13998 0.0
O169 O 0.60744 0.38148 0.20528 0.0
C170 C 0.49919 0.31577 0.26957 0.0
C171 C 0.61301 0.34925 0.16174 0.0
C172 C 0.18527 0.34164 0.28697 0.0
C173 C 0.19364 0.32816 0.33217 0.0
C174 C 0.12396 0.35285 0.35848 0.0
C175 C 0.11851 0.37354 0.31756 0.0
N176 N 0.15109 0.39612 0.24869 0.0
N177 N 0.17844 0.33886 0.42012 0.0
C178 C 0.15077 0.3698 0.28279 0.0
C179 C 0.165 0.33832 0.37047 0.0
N180 N 0.21069 0.32774 0.24813 0.0
N181 N 0.09012 0.34706 0.38639 0.0
H182 H 0.21065 0.33514 0.43319 0.0
H183 H 0.15996 0.35053 0.45058 0.0
H184 H 0.0591 0.35645 0.3789 0.0
H185 H 0.09138 0.32778 0.41309 0.0
H186 H 0.20337 0.33162 0.2116 0.0
H187 H 0.2369 0.30837 0.25106 0.0
H188 H 0.17685 0.39887 0.22687 0.0
H189 H 0.12844 0.41955 0.24566 0.0
C190 C 0.22137 0.68067 0.89754 0.0
C191 C 0.2297 0.73531 0.91452 0.0
C192 C 0.16607 0.73554 0.96304 0.0
C193 C 0.16144 0.68145 0.95018 0.0
N194 N 0.19434 0.60627 0.91951 0.0
N195 N 0.21483 0.81593 0.97099 0.0
C196 C 0.19216 0.65522 0.92191 0.0
C197 C 0.20342 0.76328 0.94953 0.0
N198 N 0.23984 0.65272 0.85647 0.0
N199 N 0.13424 0.76002 0.98642 0.0
H200 H 0.24203 0.8373 0.96216 0.0
H201 H 0.19959 0.83798 1.00062 0.0
H202 H 0.10707 0.74091 0.99756 0.0
H203 H 0.13318 0.79827 0.99147 0.0
H204 H 0.23169 0.6125 0.84003 0.0
H205 H 0.25888 0.66981 0.83487 0.0
H206 H 0.21949 0.58764 0.90385 0.0
H207 H 0.17459 0.58709 0.93892 0.0
C208 C 0.8834 0.59263 0.3362 0.0
C209 C 0.89962 0.63974 0.32904 0.0
C210 C 0.96861 0.6099 0.30369 0.0
C211 C 0.95355 0.56426 0.31399 0.0
N212 N 0.89796 0.5114 0.34085 0.0
N213 N 0.95756 0.69535 0.30842 0.0
C214 C 0.91114 0.55533 0.33017 0.0
C215 C 0.94222 0.64891 0.31329 0.0
N216 N 0.8411 0.58343 0.34813 0.0
N217 N 1.00814 0.61565 0.28468 0.0
H218 H 0.93855 0.72398 0.31351 0.0
H219 H 0.98981 0.70709 0.30192 0.0
H220 H 0.02847 0.58823 0.27829 0.0
H221 H 0.01993 0.64578 0.27226 0.0
H222 H 0.82471 0.54787 0.34772 0.0
H223 H 0.82105 0.61113 0.35651 0.0
H224 H 0.87065 0.50502 0.35936 0.0
H225 H 0.91544 0.48127 0.33252 0.0
C226 C 0.95559 0.41251 0.0253 0.0
C227 C 0.91169 0.40374 0.9965 0.0
C228 C 0.92852 0.4894 0.99011 0.0
C229 C 0.9744 0.49384 0.00971 0.0
N230 N 0.03266 0.46136 0.04762 0.0
N231 N 0.85628 0.43236 0.94885 0.0
C232 C 0.98817 0.45638 0.02885 0.0
C233 C 0.89783 0.44214 0.97887 0.0
N234 N 0.96588 0.37893 0.04918 0.0
N235 N 0.91468 0.53064 0.982 0.0
H236 H 0.83268 0.39811 0.93943 0.0
H237 H 0.84636 0.45649 0.92982 0.0
H238 H 0.93682 0.56584 0.99049 0.0
H239 H 0.88102 0.53177 0.97203 0.0
H240 H 0.99584 0.38547 0.07482 0.0
H241 H 0.94278 0.34619 0.0466 0.0
H242 H 0.04587 0.43262 0.05652 0.0
H243 H 0.05699 0.49376 0.05214 0.0
C244 C 0.29798 0.1257 0.43082 0.0
C245 C 0.31095 0.18037 0.45488 0.0
C246 C 0.31562 0.17332 0.54279 0.0
C247 C 0.30612 0.11864 0.51876 0.0
N248 N 0.292 0.04202 0.44073 0.0
N249 N 0.33612 0.25658 0.53312 0.0
C250 C 0.29804 0.09459 0.46293 0.0
C251 C 0.32086 0.20428 0.51076 0.0
N252 N 0.28505 0.10363 0.37722 0.0
N253 N 0.31831 0.19554 0.59628 0.0
H254 H 0.33889 0.28064 0.51106 0.0
H255 H 0.34888 0.27597 0.57309 0.0
H256 H 0.31455 0.17399 0.62079 0.0
H257 H 0.32066 0.23485 0.61611 0.0
H258 H 0.27031 0.0648 0.35754 0.0
H259 H 0.28658 0.12485 0.35226 0.0
H260 H 0.29141 0.02214 0.40079 0.0
H261 H 0.29008 0.01807 0.46294 0.0
C262 C 0.38941 0.69795 0.88846 0.0
C263 C 0.39116 0.75162 0.90152 0.0
C264 C 0.4673 0.76796 0.95057 0.0
C265 C 0.46055 0.71579 0.9488 0.0
N266 N 0.40851 0.6329 0.9214 0.0
N267 N 0.43152 0.83899 0.94989 0.0
C268 C 0.42011 0.68081 0.91849 0.0
C269 C 0.43025 0.7871 0.93348 0.0
N270 N 0.3577 0.66337 0.84796 0.0
N271 N 0.50919 0.79908 0.96725 0.0
H272 H 0.40522 0.85472 0.93835 0.0
H273 H 0.45734 0.86609 0.97822 0.0
H274 H 0.5378 0.78606 0.97717 0.0
H275 H 0.51628 0.83578 0.96498 0.0
H276 H 0.35688 0.62376 0.83424 0.0
H277 H 0.33588 0.67528 0.82438 0.0
H278 H 0.37727 0.60859 0.90353 0.0
H279 H 0.42703 0.61955 0.94644 0.0
C280 C 0.89189 0.83922 0.45689 0.0
C281 C 0.85024 0.80414 0.43183 0.0
C282 C 0.81205 0.86525 0.48934 0.0
C283 C 0.85391 0.89602 0.52151 0.0
N284 N 0.93443 0.89828 0.54059 0.0
N285 N 0.77298 0.77765 0.44059 0.0
C286 C 0.89425 0.87916 0.50682 0.0
C287 C 0.81112 0.81504 0.45344 0.0
N288 N 0.92897 0.83596 0.43285 0.0
N289 N 0.77331 0.88406 0.48939 0.0
H290 H 0.77171 0.73928 0.41727 0.0
H291 H 0.74475 0.78383 0.4586 0.0
H292 H 0.77224 0.92279 0.50714 0.0
H293 H 0.74338 0.86253 0.46412 0.0
H294 H 0.95891 0.86351 0.44803 0.0
H295 H 0.92818 0.80951 0.39515 0.0
H296 H 0.96336 0.88391 0.5318 0.0
H297 H 0.93784 0.92239 0.57974 0.0
C298 C 0.7351 0.35601 0.1392 0.0
C299 C 0.72933 0.34738 0.08453 0.0
C300 C 0.64981 0.35372 0.08468 0.0
C301 C 0.65438 0.35639 0.13809 0.0
N302 N 0.70026 0.35248 0.21411 0.0
N303 N 0.68257 0.33987 0.00455 0.0
C304 C 0.69688 0.35618 0.16512 0.0
C305 C 0.68695 0.3466 0.05698 0.0
N306 N 0.77754 0.36414 0.16636 0.0
N307 N 0.61017 0.35963 0.06118 0.0
H308 H 0.70993 0.33938 0.98455 0.0
H309 H 0.65187 0.333 0.98015 0.0
H310 H 0.58292 0.36579 0.08088 0.0
H311 H 0.60505 0.36243 0.02399 0.0
H312 H 0.78502 0.37631 0.20737 0.0
H313 H 0.80589 0.3624 0.14789 0.0
H314 H 0.72889 0.34547 0.23275 0.0
H315 H 0.67335 0.35213 0.23468 0.0
C316 C 0.31984 0.87016 0.70913 0.0
C317 C 0.31401 0.88846 0.76257 0.0
C318 C 0.29599 0.968 0.75322 0.0
C319 C 0.30159 0.94917 0.69948 0.0
N320 N 0.30893 0.8786 0.62306 0.0
N321 N 0.2947 0.95283 0.83612 0.0
C322 C 0.31052 0.89901 0.67649 0.0
C323 C 0.30096 0.93665 0.78466 0.0
N324 N 0.33543 0.8255 0.69012 0.0
N325 N 0.28773 0.01664 0.7744 0.0
H326 H 0.30204 0.93303 0.86121 0.0
H327 H 0.28125 0.98495 0.85399 0.0
H328 H 0.28249 0.03946 0.75181 0.0
H329 H 0.28725 0.03537 0.81426 0.0
H330 H 0.34525 0.8124 0.65327 0.0
H331 H 0.34131 0.80306 0.71297 0.0
H332 H 0.31106 0.84057 0.60279 0.0
H333 H 0.30154 0.8986 0.59814 0.0
C334 C 0.67318 0.62162 0.19437 0.0
C335 C 0.71566 0.63367 0.17979 0.0
C336 C 0.67895 0.62797 0.09316 0.0
C337 C 0.63638 0.61982 0.10914 0.0
N338 N 0.59151 0.59636 0.16776 0.0
N339 N 0.76002 0.63517 0.1126 0.0
C340 C 0.63313 0.61227 0.15754 0.0
C341 C 0.71875 0.63204 0.12793 0.0
N342 N 0.67157 0.61988 0.24365 0.0
N343 N 0.68131 0.63518 0.04624 0.0
H344 H 0.78954 0.63933 0.1382 0.0
H345 H 0.76477 0.63006 0.07404 0.0
H346 H 0.65267 0.62984 0.01887 0.0
H347 H 0.71124 0.6481 0.03513 0.0
H348 H 0.64206 0.61589 0.2592 0.0
H349 H 0.70057 0.62371 0.26985 0.0
H350 H 0.58596 0.58737 0.20094 0.0
H351 H 0.56224 0.58865 0.14038 0.0
C352 C 0.83622 0.22094 0.82589 0.0
C353 C 0.85307 0.22079 0.87645 0.0
C354 C 0.87792 0.13935 0.83412 0.0
C355 C 0.86291 0.14088 0.78361 0.0
N356 N 0.8354 0.18743 0.73114 0.0
N357 N 0.89593 0.18461 0.92924 0.0
C358 C 0.84426 0.18302 0.77952 0.0
C359 C 0.87575 0.18135 0.88069 0.0
N360 N 0.81153 0.25672 0.8222 0.0
N361 N 0.89248 0.09672 0.83758 0.0
H362 H 0.89374 0.21376 0.96416 0.0
H363 H 0.91725 0.16058 0.93478 0.0
H364 H 0.89571 0.06608 0.80451 0.0
H365 H 0.89867 0.09009 0.8728 0.0
H366 H 0.79398 0.2556 0.78681 0.0
H367 H 0.80561 0.28559 0.85515 0.0
H368 H 0.82595 0.2196 0.7256 0.0
H369 H 0.84147 0.16074 0.69661 0.0
C370 C 0.41033 0.32888 0.36103 0.0
C371 C 0.39541 0.27587 0.35366 0.0
C372 C 0.45946 0.25629 0.30902 0.0
C373 C 0.46805 0.30624 0.30581 0.0
N374 N 0.44699 0.3894 0.32485 0.0
N375 N 0.40245 0.18725 0.31087 0.0
C376 C 0.4426 0.34276 0.33128 0.0
C377 C 0.41925 0.23898 0.32534 0.0
N378 N 0.39428 0.36603 0.39705 0.0
N379 N 0.49034 0.22565 0.29749 0.0
H380 H 0.37161 0.17226 0.31874 0.0
H381 H 0.41691 0.15926 0.28593 0.0
H382 H 0.52142 0.23893 0.28885 0.0
H383 H 0.48739 0.19043 0.30324 0.0
H384 H 0.40689 0.40542 0.4072 0.0
H385 H 0.37197 0.35738 0.42086 0.0
H386 H 0.42559 0.41485 0.33801 0.0
H387 H 0.46922 0.40087 0.30249 0.0
C388 C 0.87269 0.6459 0.88233 0.0
C389 C 0.88564 0.70045 0.90689 0.0
C390 C 0.96512 0.69364 0.91597 0.0
C391 C 0.95192 0.63903 0.89779 0.0
N392 N 0.8926 0.563 0.87111 0.0
N393 N 0.94376 0.77592 0.95509 0.0
C394 C 0.90554 0.61496 0.88262 0.0
C395 C 0.9318 0.72428 0.92581 0.0
N396 N 0.82931 0.6237 0.85749 0.0
N397 N 1.00953 0.7162 0.92254 0.0
H398 H 0.92035 0.79965 0.96405 0.0
H399 H 0.97641 0.79426 0.97465 0.0
H400 H 0.03477 0.69487 0.91442 0.0
H401 H 0.02073 0.75552 0.93076 0.0
H402 H 0.81904 0.5847 0.83421 0.0
H403 H 0.80438 0.64507 0.8562 0.0
H404 H 0.85915 0.54444 0.86593 0.0
H405 H 0.91544 0.53893 0.87109 0.0
C406 C 0.86072 0.37309 0.41993 0.0
C407 C 0.8523 0.32167 0.38328 0.0
C408 C 0.92619 0.33837 0.35727 0.0
C409 C 0.93326 0.39128 0.3906 0.0
N410 N 0.90299 0.46096 0.44608 0.0
N411 N 0.87397 0.2567 0.31195 0.0
C412 C 0.89952 0.40919 0.42029 0.0
C413 C 0.88418 0.30478 0.35052 0.0
N414 N 0.83173 0.38734 0.45463 0.0
N415 N 0.96024 0.31944 0.33329 0.0
H416 H 0.84469 0.22966 0.30715 0.0
H417 H 0.89288 0.24477 0.28205 0.0
H418 H 0.99112 0.34234 0.33537 0.0
H419 H 0.95939 0.28022 0.31468 0.0
H420 H 0.83849 0.42237 0.48625 0.0
H421 H 0.80226 0.36245 0.45406 0.0
H422 H 0.87719 0.47677 0.4634 0.0
H423 H 0.92994 0.48883 0.44611 0.0
C424 C 0.20448 0.4489 0.88626 0.0
C425 C 0.20062 0.41565 0.9157 0.0
C426 C 0.12332 0.42712 0.92457 0.0
C427 C 0.12723 0.46031 0.895 0.0
N428 N 0.16647 0.49245 0.83656 0.0
N429 N 0.15596 0.36703 0.95686 0.0
C430 C 0.16607 0.46742 0.8718 0.0
C431 C 0.15973 0.40293 0.93299 0.0
N432 N 0.24569 0.46603 0.87585 0.0
N433 N 0.0849 0.41955 0.94513 0.0
H434 H 0.18261 0.34962 0.96398 0.0
H435 H 0.12619 0.35218 0.96689 0.0
H436 H 0.05655 0.43375 0.93635 0.0
H437 H 0.08109 0.4002 0.97146 0.0
H438 H 0.25175 0.49454 0.85944 0.0
H439 H 0.27498 0.45555 0.88849 0.0
H440 H 0.19212 0.49448 0.81447 0.0
H441 H 0.13933 0.50758 0.82612 0.0
C442 C 0.18987 0.65823 0.3716 0.0
C443 C 0.23225 0.64811 0.38763 0.0
C444 C 0.19421 0.57975 0.41525 0.0
C445 C 0.15202 0.59157 0.40152 0.0
N446 N 0.10976 0.64732 0.37548 0.0
N447 N 0.27581 0.606 0.43299 0.0
C448 C 0.14996 0.63253 0.38239 0.0
C449 C 0.23472 0.6109 0.41203 0.0
N450 N 0.18773 0.69132 0.34464 0.0
N451 N 0.19548 0.53717 0.42878 0.0
H452 H 0.30616 0.62715 0.43013 0.0
H453 H 0.2798 0.58385 0.45649 0.0
H454 H 0.16673 0.51408 0.43272 0.0
H455 H 0.22456 0.52268 0.43273 0.0
H456 H 0.1577 0.69624 0.32682 0.0
H457 H 0.21624 0.71119 0.33644 0.0
H458 H 0.10637 0.67988 0.36635 0.0
H459 H 0.08011 0.62947 0.38355 0.0
C460 C 0.8035 0.82951 0.7306 0.0
C461 C 0.82286 0.85341 0.78459 0.0
C462 C 0.81523 0.93796 0.7821 0.0
C463 C 0.79906 0.91471 0.72715 0.0
N464 N 0.78196 0.83979 0.64696 0.0
N465 N 0.85735 0.93053 0.85867 0.0
C466 C 0.79406 0.86072 0.7007 0.0
C467 C 0.8314 0.90778 0.80969 0.0
N468 N 0.79317 0.77683 0.70861 0.0
N469 N 0.81489 0.98889 0.80778 0.0
H470 H 0.87222 0.90933 0.87823 0.0
H471 H 0.86822 0.97033 0.87723 0.0
H472 H 0.80299 0.01196 0.78842 0.0
H473 H 0.82242 1.00689 0.84869 0.0
H474 H 0.77466 0.75645 0.67096 0.0
H475 H 0.8011 0.75339 0.72961 0.0
H476 H 0.7827 0.8018 0.62464 0.0
H477 H 0.77325 0.86136 0.62417 0.0
C478 C 0.70058 0.21704 0.23544 0.0
C479 C 0.69676 0.22075 0.28816 0.0
C480 C 0.61482 0.19605 0.26181 0.0
C481 C 0.61854 0.20594 0.21512 0.0
N482 N 0.66497 0.22492 0.15529 0.0
N483 N 0.64767 0.22278 0.35329 0.0
C484 C 0.66152 0.21538 0.20081 0.0
C485 C 0.65312 0.21196 0.30182 0.0
N486 N 0.74086 0.2139 0.21815 0.0
N487 N 0.57426 0.17291 0.26828 0.0
H488 H 0.67429 0.23987 0.38492 0.0
H489 H 0.61605 0.22053 0.36473 0.0
H490 H 0.54627 0.16049 0.23815 0.0
H491 H 0.57012 0.16163 0.30057 0.0
H492 H 0.74451 0.20731 0.17898 0.0
H493 H 0.76957 0.21252 0.24166 0.0
H494 H 0.69559 0.23816 0.14568 0.0
H495 H 0.63659 0.22157 0.12836 0.0
C496 C 0.38025 0.2631 0.79013 0.0
C497 C 0.35931 0.25118 0.8299 0.0
C498 C 0.36755 0.1616 0.79205 0.0
C499 C 0.38129 0.17154 0.74795 0.0
N500 N 0.39957 0.23031 0.70245 0.0
N501 N 0.32662 0.18728 0.86448 0.0
C502 C 0.38787 0.22208 0.74643 0.0
C503 C 0.35157 0.19998 0.83008 0.0
N504 N 0.39346 0.31343 0.79465 0.0
N505 N 0.36962 0.11515 0.79721 0.0
H506 H 0.31248 0.21373 0.89176 0.0
H507 H 0.31613 0.14942 0.86248 0.0
H508 H 0.38138 0.08628 0.76961 0.0
H509 H 0.36415 0.10743 0.83116 0.0
H510 H 0.41264 0.32476 0.7695 0.0
H511 H 0.38828 0.34432 0.82621 0.0
H512 H 0.39957 0.26494 0.69617 0.0
H513 H 0.40709 0.20128 0.67082 0.0
C514 C 0.39652 0.71284 0.19447 0.0
C515 C 0.40978 0.69829 0.23781 0.0
C516 C 0.4839 0.69139 0.21202 0.0
C517 C 0.47151 0.70901 0.17039 0.0
N518 N 0.41436 0.72706 0.11491 0.0
N519 N 0.46414 0.67358 0.28941 0.0
C520 C 0.42713 0.71666 0.1593 0.0
C521 C 0.45272 0.6865 0.24633 0.0
N522 N 0.35536 0.72585 0.18921 0.0
N523 N 0.52533 0.67903 0.21818 0.0
H524 H 0.44113 0.66856 0.31396 0.0
H525 H 0.49606 0.66884 0.30185 0.0
H526 H 0.54935 0.68377 0.1947 0.0
H527 H 0.53568 0.66213 0.24483 0.0
H528 H 0.34471 0.74236 0.1623 0.0
H529 H 0.33209 0.72161 0.21375 0.0
H530 H 0.38149 0.7285 0.10167 0.0
H531 H 0.43638 0.73147 0.08916 0.0
C532 C 0.7663 0.17034 0.54965 0.0
C533 C 0.78877 0.16019 0.50555 0.0
C534 C 0.79939 0.07796 0.512 0.0
C535 C 0.7804 0.08989 0.55899 0.0
N536 N 0.74999 0.1496 0.62636 0.0
N537 N 0.83476 0.11072 0.45096 0.0
C538 C 0.76456 0.13653 0.57875 0.0
C539 C 0.80734 0.11554 0.48818 0.0
N540 N 0.74596 0.2119 0.5628 0.0
N541 N 0.80949 0.03039 0.48997 0.0
H542 H 0.84287 0.13904 0.43463 0.0
H543 H 0.85308 0.08153 0.44024 0.0
H544 H 0.8043 1.00197 0.50663 0.0
H545 H 0.81912 0.01748 0.45299 0.0
H546 H 0.72499 0.21895 0.59111 0.0
H547 H 0.74796 0.23777 0.54268 0.0
H548 H 0.74292 0.18565 0.6458 0.0
H549 H 0.7475 0.12534 0.64819 0.0
C550 C 0.36324 0.30166 0.03967 0.0
C551 C 0.37511 0.34226 0.02059 0.0
C552 C 0.45008 0.36729 0.07452 0.0
C553 C 0.43944 0.32411 0.09074 0.0
N554 N 0.38178 0.26247 0.10405 0.0
N555 N 0.42265 0.42274 0.03134 0.0
C556 C 0.39456 0.29521 0.07823 0.0
C557 C 0.41611 0.37844 0.04251 0.0
N558 N 0.323 0.26762 0.0186 0.0
N559 N 0.49313 0.39547 0.08639 0.0
H560 H 0.39795 0.4309 0.00754 0.0
H561 H 0.45012 0.45322 0.04944 0.0
H562 H 0.51906 0.38968 0.11032 0.0
H563 H 0.50404 0.42291 0.07001 0.0
H564 H 0.31469 0.23321 0.02541 0.0
H565 H 0.29854 0.27306 0.99227 0.0
H566 H 0.34861 0.24362 0.09994 0.0
H567 H 0.40363 0.25826 0.13379 0.0
C568 C 0.37163 0.82729 0.49954 0.0
C569 C 0.34432 0.81505 0.44981 0.0
C570 C 0.35394 0.90675 0.46247 0.0
C571 C 0.37482 0.91903 0.51512 0.0
N572 N 0.40302 0.89227 0.58571 0.0
N573 N 0.30588 0.84235 0.38489 0.0
C574 C 0.38431 0.87971 0.53405 0.0
C575 C 0.33478 0.85459 0.43125 0.0
N576 N 0.38575 0.7889 0.51337 0.0
N577 N 0.35254 0.9454 0.44271 0.0
H578 H 0.29059 0.80447 0.36109 0.0
H579 H 0.29404 0.86978 0.3721 0.0
H580 H 0.36707 0.98394 0.46517 0.0
H581 H 0.34118 0.93895 0.40319 0.0
H582 H 0.40951 0.7958 0.54662 0.0
H583 H 0.37611 0.74994 0.48948 0.0
H584 H 0.40538 0.86513 0.60369 0.0
H585 H 0.41408 0.9303 0.61169 0.0
C586 C 0.7525 0.77931 0.03289 0.0
C587 C 0.74853 0.75882 0.97715 0.0
C588 C 0.66668 0.74774 0.96799 0.0
C589 C 0.66989 0.76321 0.02363 0.0
N590 N 0.71613 0.78278 0.10851 0.0
N591 N 0.70169 0.71125 0.8923 0.0
C592 C 0.7129 0.77629 0.0562 0.0
C593 C 0.70549 0.73915 0.94495 0.0
N594 N 0.79381 0.80249 0.06347 0.0
N595 N 0.62655 0.74225 0.93708 0.0
H596 H 0.72952 0.70299 0.87419 0.0
H597 H 0.67091 0.69175 0.86798 0.0
H598 H 0.59745 0.74933 0.95267 0.0
H599 H 0.62333 0.73599 0.89685 0.0
H600 H 0.79812 0.82308 0.1039 0.0
H601 H 0.82352 0.80411 0.04769 0.0
H602 H 0.74644 0.78643 0.13234 0.0
H603 H 0.68822 0.78007 0.12718 0.0
loop_
_geom_bond_atom_site_label_1
_geom_bond_atom_site_label_2
_geom_bond_distance
_geom_bond_site_symmetry_2
_ccdc_geom_bond_type
H0 C5 0.929 . S
H1 C10 0.931 . S
H2 C8 0.930 . S
N3 N4 1.234 . S
N3 C7 1.453 . S
N4 N3 1.234 . S
C5 H0 0.929 . S
C5 C6 1.373 . S
C5 C7 1.368 . S
C6 C5 1.373 . S
C6 C10 1.397 . S
C7 N3 1.453 . S
C7 C5 1.368 . S
C7 C8 1.373 . S
C8 H2 0.930 . S
C8 C7 1.373 . S
C8 C9 1.371 . S
C9 C8 1.371 . S
C9 C10 1.383 . S
C10 H1 0.931 . S
C10 C6 1.397 . S
C10 C9 1.383 . S
H11 C16 0.929 . S
H12 C21 0.931 . S
H13 C19 0.930 . S
N14 N15 1.234 . S
N14 C18 1.453 . S
N15 N14 1.234 . S
C16 H11 0.929 . S
C16 C17 1.373 . S
C16 C18 1.368 . S
C17 C16 1.373 . S
C17 C21 1.397 . S
C18 N14 1.453 . S
C18 C16 1.368 . S
C18 C19 1.373 . S
C19 H13 0.930 . S
C19 C18 1.373 . S
C19 C20 1.371 . S
C20 C19 1.371 . S
C20 C21 1.383 . S
C21 H12 0.931 . S
C21 C17 1.397 . S
C21 C20 1.383 . S
H22 C27 0.929 . S
H23 C32 0.931 . S
H24 C30 0.930 . S
N25 N26 1.234 . S
N25 C29 1.453 . S
N26 N25 1.234 . S
C27 H22 0.929 . S
C27 C28 1.373 . S
C27 C29 1.368 . S
C28 C27 1.373 . S
C28 C32 1.397 . S
C29 N25 1.453 . S
C29 C27 1.368 . S
C29 C30 1.373 . S
C30 H24 0.930 . S
C30 C29 1.373 . S
C30 C31 1.371 . S
C31 C30 1.371 . S
C31 C32 1.383 . S
C32 H23 0.931 . S
C32 C28 1.397 . S
C32 C31 1.383 . S
H33 C38 0.935 . S
H34 C43 0.931 . S
H35 C41 0.930 . S
N36 N37 1.234 . S
N36 C40 1.453 1_554 S
N37 N36 1.234 . S
C38 H33 0.935 . S
C38 C39 1.364 1_554 S
C38 C40 1.371 1_554 S
C39 C38 1.364 1_556 S
C39 C43 1.397 . S
C40 N36 1.453 1_556 S
C40 C38 1.371 1_556 S
C40 C41 1.373 . S
C41 H35 0.930 . S
C41 C40 1.373 . S
C41 C42 1.371 . S
C42 C41 1.371 . S
C42 C43 1.383 . S
C43 H34 0.931 . S
C43 C39 1.397 . S
C43 C42 1.383 . S
H44 C49 0.929 . S
H45 C54 0.931 . S
H46 C52 0.930 . S
N47 N48 1.234 . S
N47 C51 1.453 . S
N48 N47 1.234 . S
C49 H44 0.929 . S
C49 C50 1.373 . S
C49 C51 1.368 . S
C50 C49 1.373 . S
C50 C54 1.397 . S
C51 N47 1.453 . S
C51 C49 1.368 . S
C51 C52 1.373 . S
C52 H46 0.930 . S
C52 C51 1.373 . S
C52 C53 1.371 . S
C53 C52 1.371 . S
C53 C54 1.383 . S
C54 H45 0.931 . S
C54 C50 1.397 . S
C54 C53 1.383 . S
H55 C60 0.929 . S
H56 C65 0.931 . S
H57 C63 0.930 . S
N58 N59 1.234 . S
N58 C62 1.453 . S
N59 N58 1.234 . S
C60 H55 0.929 . S
C60 C61 1.373 . S
C60 C62 1.368 . S
C61 C60 1.373 . S
C61 C65 1.397 . S
C62 N58 1.453 . S
C62 C60 1.368 . S
C62 C63 1.373 . S
C63 H57 0.930 . S
C63 C62 1.373 . S
C63 C64 1.371 . S
C64 C63 1.371 . S
C64 C65 1.383 . S
C65 H56 0.931 . S
C65 C61 1.397 . S
C65 C64 1.383 . S
H66 C71 0.929 . S
H67 C76 0.931 . S
H68 C74 0.936 . S
N69 N70 1.234 . S
N69 C73 1.453 . S
N70 N69 1.234 . S
C71 H66 0.929 . S
C71 C72 1.373 . S
C71 C73 1.368 . S
C72 C71 1.373 . S
C72 C76 1.397 . S
C73 N69 1.453 . S
C73 C71 1.368 . S
C73 C74 1.373 . S
C74 H68 0.936 . S
C74 C73 1.373 . S
C74 C75 1.371 . S
C75 C74 1.371 . S
C75 C76 1.383 . S
C76 H67 0.931 . S
C76 C72 1.397 . S
C76 C75 1.383 . S
H77 C82 0.929 . S
H78 C87 0.931 . S
H79 C85 0.930 . S
N80 N81 1.234 . S
N80 C84 1.453 . S
N81 N80 1.234 . S
C82 H77 0.929 . S
C82 C83 1.373 . S
C82 C84 1.368 . S
C83 C82 1.373 . S
C83 C87 1.397 . S
C84 N80 1.453 . S
C84 C82 1.368 . S
C84 C85 1.373 . S
C85 H79 0.930 . S
C85 C84 1.373 . S
C85 C86 1.371 . S
C86 C85 1.371 . S
C86 C87 1.383 . S
C87 H78 0.931 . S
C87 C83 1.397 . S
C87 C86 1.383 . S
C88 O90 1.247 1_655 S
C88 O92 1.258 . S
C89 O96 1.247 . S
C89 O97 1.258 . S
O90 C88 1.247 1_455 S
O90 Zn91 2.028 . S
Zn91 O90 2.028 . S
Zn91 O95 2.035 . S
Zn91 O97 2.035 . S
Zn91 O98 2.028 . S
O92 C88 1.258 . S
O92 Zn93 2.035 1_655 S
Zn93 O92 2.035 1_455 S
Zn93 O94 2.028 . S
Zn93 O96 2.028 . S
Zn93 O99 2.035 1_455 S
O94 Zn93 2.028 . S
O94 C100 1.247 . S
O95 Zn91 2.035 . S
O95 C100 1.258 . S
O96 C89 1.247 . S
O96 Zn93 2.028 . S
O97 C89 1.258 . S
O97 Zn91 2.035 . S
O98 Zn91 2.028 . S
O98 C101 1.247 1_455 S
O99 Zn93 2.035 1_655 S
O99 C101 1.258 . S
C100 O94 1.247 . S
C100 O95 1.258 . S
C101 O98 1.247 1_655 S
C101 O99 1.258 . S
C102 O104 1.247 1_656 S
C102 O106 1.258 . S
C103 O110 1.247 . S
C103 O111 1.258 . S
O104 C102 1.247 1_454 S
O104 Zn105 2.028 . S
Zn105 O104 2.028 . S
Zn105 O109 2.035 . S
Zn105 O111 2.035 1_554 S
Zn105 O112 2.028 1_554 S
O106 C102 1.258 . S
O106 Zn107 2.035 1_655 S
Zn107 O106 2.035 1_455 S
Zn107 O108 2.028 . S
Zn107 O110 2.028 . S
Zn107 O113 2.035 1_455 S
O108 Zn107 2.028 . S
O108 C114 1.247 . S
O109 Zn105 2.035 . S
O109 C114 1.258 1_554 S
O110 C103 1.247 . S
O110 Zn107 2.028 . S
O111 C103 1.258 . S
O111 Zn105 2.035 1_556 S
O112 Zn105 2.028 1_556 S
O112 C115 1.247 1_455 S
O113 Zn107 2.035 1_655 S
O113 C115 1.258 . S
C114 O108 1.247 . S
C114 O109 1.258 1_556 S
C115 O112 1.247 1_655 S
C115 O113 1.258 . S
C116 O118 1.247 . S
C116 O120 1.258 . S
C117 O124 1.247 . S
C117 O125 1.258 . S
O118 C116 1.247 . S
O118 Zn119 2.028 1_565 S
Zn119 O118 2.028 1_545 S
Zn119 O123 2.035 . S
Zn119 O125 2.035 . S
Zn119 O126 2.028 1_545 S
O120 C116 1.258 . S
O120 Zn121 2.035 1_565 S
Zn121 O120 2.035 1_545 S
Zn121 O122 2.028 . S
Zn121 O124 2.028 . S
Zn121 O127 2.035 1_545 S
O122 Zn121 2.028 . S
O122 C128 1.247 . S
O123 Zn119 2.035 . S
O123 C128 1.258 . S
O124 C117 1.247 . S
O124 Zn121 2.028 . S
O125 C117 1.258 . S
O125 Zn119 2.035 . S
O126 Zn119 2.028 1_565 S
O126 C129 1.247 . S
O127 Zn121 2.035 1_565 S
O127 C129 1.258 . S
C128 O122 1.247 . S
C128 O123 1.258 . S
C129 O126 1.247 . S
C129 O127 1.258 . S
C130 O132 1.247 . S
C130 O134 1.258 . S
C131 O138 1.247 . S
C131 O139 1.258 . S
O132 C130 1.247 . S
O132 Zn133 2.028 1_554 S
Zn133 O132 2.028 1_556 S
Zn133 O137 2.035 1_556 S
Zn133 O139 2.035 . S
Zn133 O140 2.028 . S
O134 C130 1.258 . S
O134 Zn135 2.035 . S
Zn135 O134 2.035 . S
Zn135 O136 2.028 . S
Zn135 O138 2.028 1_554 S
Zn135 O141 2.035 1_554 S
O136 Zn135 2.028 . S
O136 C142 1.247 . S
O137 Zn133 2.035 1_554 S
O137 C142 1.258 . S
O138 C131 1.247 . S
O138 Zn135 2.028 1_556 S
O139 C131 1.258 . S
O139 Zn133 2.035 . S
O140 Zn133 2.028 . S
O140 C143 1.247 . S
O141 Zn135 2.035 1_556 S
O141 C143 1.258 . S
C142 O136 1.247 . S
C142 O137 1.258 . S
C143 O140 1.247 . S
C143 O141 1.258 . S
C144 O146 1.247 . S
C144 O148 1.258 . S
C145 O152 1.247 . S
C145 O153 1.258 . S
O146 C144 1.247 . S
O146 Zn147 2.028 1_565 S
Zn147 O146 2.028 1_545 S
Zn147 O151 2.035 . S
Zn147 O153 2.035 . S
Zn147 O154 2.028 1_545 S
O148 C144 1.258 . S
O148 Zn149 2.035 1_565 S
Zn149 O148 2.035 1_545 S
Zn149 O150 2.028 . S
Zn149 O152 2.028 . S
Zn149 O155 2.035 1_545 S
O150 Zn149 2.028 . S
O150 C156 1.247 . S
O151 Zn147 2.035 . S
O151 C156 1.258 . S
O152 C145 1.247 . S
O152 Zn149 2.028 . S
O153 C145 1.258 . S
O153 Zn147 2.035 . S
O154 Zn147 2.028 1_565 S
O154 C157 1.247 . S
O155 Zn149 2.035 1_565 S
O155 C157 1.258 . S
C156 O150 1.247 . S
C156 O151 1.258 . S
C157 O154 1.247 . S
C157 O155 1.258 . S
C158 O160 1.247 . S
C158 O162 1.258 . S
C159 O166 1.247 . S
C159 O167 1.258 . S
O160 C158 1.247 . S
O160 Zn161 2.028 . S
Zn161 O160 2.028 . S
Zn161 O165 2.035 . S
Zn161 O167 2.035 . S
Zn161 O168 2.028 . S
O162 C158 1.258 . S
O162 Zn163 2.035 . S
Zn163 O162 2.035 . S
Zn163 O164 2.028 . S
Zn163 O166 2.028 . S
Zn163 O169 2.035 . S
O164 Zn163 2.028 . S
O164 C170 1.247 . S
O165 Zn161 2.035 . S
O165 C170 1.258 . S
O166 C159 1.247 . S
O166 Zn163 2.028 . S
O167 C159 1.258 . S
O167 Zn161 2.035 . S
O168 Zn161 2.028 . S
O168 C171 1.247 . S
O169 Zn163 2.035 . S
O169 C171 1.258 . S
C170 O164 1.247 . S
C170 O165 1.258 . S
C171 O168 1.247 . S
C171 O169 1.258 . S
C172 C173 1.363 . S
C172 C178 1.379 . S
C172 N180 1.356 . S
C173 C172 1.363 . S
C173 C179 1.363 . S
C174 C175 1.363 . S
C174 C179 1.379 . S
C174 N181 1.356 . S
C175 C174 1.363 . S
C175 C178 1.363 . S
N176 C178 1.356 . S
N176 H188 0.984 . S
N176 H189 0.985 . S
N177 C179 1.356 . S
N177 H182 0.984 . S
N177 H183 0.985 . S
C178 C172 1.379 . S
C178 C175 1.363 . S
C178 N176 1.356 . S
C179 C173 1.363 . S
C179 C174 1.379 . S
C179 N177 1.356 . S
N180 C172 1.356 . S
N180 H186 0.984 . S
N180 H187 0.984 . S
N181 C174 1.356 . S
N181 H184 0.984 . S
N181 H185 0.985 . S
H182 N177 0.984 . S
H183 N177 0.985 . S
H184 N181 0.984 . S
H185 N181 0.985 . S
H186 N180 0.984 . S
H187 N180 0.984 . S
H188 N176 0.984 . S
H189 N176 0.985 . S
C190 C191 1.363 . S
C190 C196 1.379 . S
C190 N198 1.356 . S
C191 C190 1.363 . S
C191 C197 1.363 . S
C192 C193 1.363 . S
C192 C197 1.379 . S
C192 N199 1.356 . S
C193 C192 1.363 . S
C193 C196 1.363 . S
N194 C196 1.356 . S
N194 H206 0.984 . S
N194 H207 0.985 . S
N195 C197 1.356 . S
N195 H200 0.984 . S
N195 H201 0.985 . S
C196 C190 1.379 . S
C196 C193 1.363 . S
C196 N194 1.356 . S
C197 C191 1.363 . S
C197 C192 1.379 . S
C197 N195 1.356 . S
N198 C190 1.356 . S
N198 H204 0.984 . S
N198 H205 0.984 . S
N199 C192 1.356 . S
N199 H202 0.984 . S
N199 H203 0.985 . S
H200 N195 0.984 . S
H201 N195 0.985 . S
H202 N199 0.984 . S
H203 N199 0.985 . S
H204 N198 0.984 . S
H205 N198 0.984 . S
H206 N194 0.984 . S
H207 N194 0.985 . S
C208 C209 1.363 . S
C208 C214 1.379 . S
C208 N216 1.356 . S
C209 C208 1.363 . S
C209 C215 1.363 . S
C210 C211 1.363 . S
C210 C215 1.379 . S
C210 N217 1.356 . S
C211 C210 1.363 . S
C211 C214 1.363 . S
N212 C214 1.356 . S
N212 H224 0.984 . S
N212 H225 0.985 . S
N213 C215 1.356 . S
N213 H218 0.984 . S
N213 H219 0.985 . S
C214 C208 1.379 . S
C214 C211 1.363 . S
C214 N212 1.356 . S
C215 C209 1.363 . S
C215 C210 1.379 . S
C215 N213 1.356 . S
N216 C208 1.356 . S
N216 H222 0.984 . S
N216 H223 0.984 . S
N217 C210 1.356 . S
N217 H220 0.984 . S
N217 H221 0.985 . S
H218 N213 0.984 . S
H219 N213 0.985 . S
H220 N217 0.984 . S
H221 N217 0.985 . S
H222 N216 0.984 . S
H223 N216 0.984 . S
H224 N212 0.984 . S
H225 N212 0.985 . S
C226 C227 1.363 . S
C226 C232 1.379 . S
C226 N234 1.356 . S
C227 C226 1.363 . S
C227 C233 1.363 1_556 S
C228 C229 1.363 1_554 S
C228 C233 1.379 . S
C228 N235 1.356 . S
C229 C228 1.363 1_556 S
C229 C232 1.363 . S
N230 C232 1.356 . S
N230 H242 0.984 . S
N230 H243 0.985 . S
N231 C233 1.356 . S
N231 H236 0.984 . S
N231 H237 0.985 . S
C232 C226 1.379 . S
C232 C229 1.363 . S
C232 N230 1.356 . S
C233 C227 1.363 1_554 S
C233 C228 1.379 . S
C233 N231 1.356 . S
N234 C226 1.356 . S
N234 H240 0.984 . S
N234 H241 0.984 . S
N235 C228 1.356 . S
N235 H238 0.984 . S
N235 H239 0.985 . S
H236 N231 0.984 . S
H237 N231 0.985 . S
H238 N235 0.984 . S
H239 N235 0.985 . S
H240 N234 0.984 . S
H241 N234 0.984 . S
H242 N230 0.984 . S
H243 N230 0.985 . S
C244 C245 1.363 . S
C244 C250 1.379 . S
C244 N252 1.356 . S
C245 C244 1.363 . S
C245 C251 1.363 . S
C246 C247 1.363 . S
C246 C251 1.379 . S
C246 N253 1.356 . S
C247 C246 1.363 . S
C247 C250 1.363 . S
N248 C250 1.356 . S
N248 H260 0.984 . S
N248 H261 0.985 . S
N249 C251 1.356 . S
N249 H254 0.984 . S
N249 H255 0.985 . S
C250 C244 1.379 . S
C250 C247 1.363 . S
C250 N248 1.356 . S
C251 C245 1.363 . S
C251 C246 1.379 . S
C251 N249 1.356 . S
N252 C244 1.356 . S
N252 H258 0.984 . S
N252 H259 0.984 . S
N253 C246 1.356 . S
N253 H256 0.984 . S
N253 H257 0.985 . S
H254 N249 0.984 . S
H255 N249 0.985 . S
H256 N253 0.984 . S
H257 N253 0.985 . S
H258 N252 0.984 . S
H259 N252 0.984 . S
H260 N248 0.984 . S
H261 N248 0.985 . S
C262 C263 1.363 . S
C262 C268 1.379 . S
C262 N270 1.356 . S
C263 C262 1.363 . S
C263 C269 1.363 . S
C264 C265 1.363 . S
C264 C269 1.379 . S
C264 N271 1.356 . S
C265 C264 1.363 . S
C265 C268 1.363 . S
N266 C268 1.356 . S
N266 H278 0.984 . S
N266 H279 0.985 . S
N267 C269 1.356 . S
N267 H272 0.984 . S
N267 H273 0.985 . S
C268 C262 1.379 . S
C268 C265 1.363 . S
C268 N266 1.356 . S
C269 C263 1.363 . S
C269 C264 1.379 . S
C269 N267 1.356 . S
N270 C262 1.356 . S
N270 H276 0.984 . S
N270 H277 0.984 . S
N271 C264 1.356 . S
N271 H274 0.984 . S
N271 H275 0.985 . S
H272 N267 0.984 . S
H273 N267 0.985 . S
H274 N271 0.984 . S
H275 N271 0.985 . S
H276 N270 0.984 . S
H277 N270 0.984 . S
H278 N266 0.984 . S
H279 N266 0.985 . S
C280 C281 1.363 . S
C280 C286 1.379 . S
C280 N288 1.356 . S
C281 C280 1.363 . S
C281 C287 1.363 . S
C282 C283 1.363 . S
C282 C287 1.379 . S
C282 N289 1.356 . S
C283 C282 1.363 . S
C283 C286 1.363 . S
N284 C286 1.356 . S
N284 H296 0.984 . S
N284 H297 0.985 . S
N285 C287 1.356 . S
N285 H290 0.984 . S
N285 H291 0.985 . S
C286 C280 1.379 . S
C286 C283 1.363 . S
C286 N284 1.356 . S
C287 C281 1.363 . S
C287 C282 1.379 . S
C287 N285 1.356 . S
N288 C280 1.356 . S
N288 H294 0.984 . S
N288 H295 0.984 . S
N289 C282 1.356 . S
N289 H292 0.984 . S
N289 H293 0.985 . S
H290 N285 0.984 . S
H291 N285 0.985 . S
H292 N289 0.984 . S
H293 N289 0.985 . S
H294 N288 0.984 . S
H295 N288 0.984 . S
H296 N284 0.984 . S
H297 N284 0.985 . S
C298 C299 1.363 . S
C298 C304 1.379 . S
C298 N306 1.356 . S
C299 C298 1.363 . S
C299 C305 1.363 . S
C300 C301 1.363 . S
C300 C305 1.379 . S
C300 N307 1.356 . S
C301 C300 1.363 . S
C301 C304 1.363 . S
N302 C304 1.356 . S
N302 H314 0.984 . S
N302 H315 0.985 . S
N303 C305 1.356 1_556 S
N303 H308 0.984 . S
N303 H309 0.985 . S
C304 C298 1.379 . S
C304 C301 1.363 . S
C304 N302 1.356 . S
C305 C299 1.363 . S
C305 C300 1.379 . S
C305 N303 1.356 1_554 S
N306 C298 1.356 . S
N306 H312 0.984 . S
N306 H313 0.984 . S
N307 C300 1.356 . S
N307 H310 0.984 . S
N307 H311 0.985 . S
H308 N303 0.984 . S
H309 N303 0.985 . S
H310 N307 0.984 . S
H311 N307 0.985 . S
H312 N306 0.984 . S
H313 N306 0.984 . S
H314 N302 0.984 . S
H315 N302 0.985 . S
C316 C317 1.363 . S
C316 C322 1.379 . S
C316 N324 1.356 . S
C317 C316 1.363 . S
C317 C323 1.363 . S
C318 C319 1.363 . S
C318 C323 1.379 . S
C318 N325 1.356 . S
C319 C318 1.363 . S
C319 C322 1.363 . S
N320 C322 1.356 . S
N320 H332 0.984 . S
N320 H333 0.985 . S
N321 C323 1.356 . S
N321 H326 0.984 . S
N321 H327 0.985 . S
C322 C316 1.379 . S
C322 C319 1.363 . S
C322 N320 1.356 . S
C323 C317 1.363 . S
C323 C318 1.379 . S
C323 N321 1.356 . S
N324 C316 1.356 . S
N324 H330 0.984 . S
N324 H331 0.984 . S
N325 C318 1.356 . S
N325 H328 0.984 . S
N325 H329 0.985 . S
H326 N321 0.984 . S
H327 N321 0.985 . S
H328 N325 0.984 . S
H329 N325 0.985 . S
H330 N324 0.984 . S
H331 N324 0.984 . S
H332 N320 0.984 . S
H333 N320 0.985 . S
C334 C335 1.363 . S
C334 C340 1.379 . S
C334 N342 1.356 . S
C335 C334 1.363 . S
C335 C341 1.363 . S
C336 C337 1.363 . S
C336 C341 1.379 . S
C336 N343 1.356 . S
C337 C336 1.363 . S
C337 C340 1.363 . S
N338 C340 1.356 . S
N338 H350 0.984 . S
N338 H351 0.985 . S
N339 C341 1.356 . S
N339 H344 0.984 . S
N339 H345 0.985 . S
C340 C334 1.379 . S
C340 C337 1.363 . S
C340 N338 1.356 . S
C341 C335 1.363 . S
C341 C336 1.379 . S
C341 N339 1.356 . S
N342 C334 1.356 . S
N342 H348 0.984 . S
N342 H349 0.984 . S
N343 C336 1.356 . S
N343 H346 0.984 . S
N343 H347 0.985 . S
H344 N339 0.984 . S
H345 N339 0.985 . S
H346 N343 0.984 . S
H347 N343 0.985 . S
H348 N342 0.984 . S
H349 N342 0.984 . S
H350 N338 0.984 . S
H351 N338 0.985 . S
C352 C353 1.363 . S
C352 C358 1.379 . S
C352 N360 1.356 . S
C353 C352 1.363 . S
C353 C359 1.363 . S
C354 C355 1.363 . S
C354 C359 1.379 . S
C354 N361 1.356 . S
C355 C354 1.363 . S
C355 C358 1.363 . S
N356 C358 1.356 . S
N356 H368 0.984 . S
N356 H369 0.985 . S
N357 C359 1.356 . S
N357 H362 0.984 . S
N357 H363 0.985 . S
C358 C352 1.379 . S
C358 C355 1.363 . S
C358 N356 1.356 . S
C359 C353 1.363 . S
C359 C354 1.379 . S
C359 N357 1.356 . S
N360 C352 1.356 . S
N360 H366 0.984 . S
N360 H367 0.984 . S
N361 C354 1.356 . S
N361 H364 0.984 . S
N361 H365 0.985 . S
H362 N357 0.984 . S
H363 N357 0.985 . S
H364 N361 0.984 . S
H365 N361 0.985 . S
H366 N360 0.984 . S
H367 N360 0.984 . S
H368 N356 0.984 . S
H369 N356 0.985 . S
C370 C371 1.363 . S
C370 C376 1.379 . S
C370 N378 1.356 . S
C371 C370 1.363 . S
C371 C377 1.363 . S
C372 C373 1.363 . S
C372 C377 1.379 . S
C372 N379 1.356 . S
C373 C372 1.363 . S
C373 C376 1.363 . S
N374 C376 1.356 . S
N374 H386 0.984 . S
N374 H387 0.985 . S
N375 C377 1.356 . S
N375 H380 0.984 . S
N375 H381 0.985 . S
C376 C370 1.379 . S
C376 C373 1.363 . S
C376 N374 1.356 . S
C377 C371 1.363 . S
C377 C372 1.379 . S
C377 N375 1.356 . S
N378 C370 1.356 . S
N378 H384 0.984 . S
N378 H385 0.984 . S
N379 C372 1.356 . S
N379 H382 0.984 . S
N379 H383 0.985 . S
H380 N375 0.984 . S
H381 N375 0.985 . S
H382 N379 0.984 . S
H383 N379 0.985 . S
H384 N378 0.984 . S
H385 N378 0.984 . S
H386 N374 0.984 . S
H387 N374 0.985 . S
C388 C389 1.363 . S
C388 C394 1.379 . S
C388 N396 1.356 . S
C389 C388 1.363 . S
C389 C395 1.363 . S
C390 C391 1.363 . S
C390 C395 1.379 . S
C390 N397 1.356 . S
C391 C390 1.363 . S
C391 C394 1.363 . S
N392 C394 1.356 . S
N392 H404 0.984 . S
N392 H405 0.985 . S
N393 C395 1.356 . S
N393 H398 0.984 . S
N393 H399 0.985 . S
C394 C388 1.379 . S
C394 C391 1.363 . S
C394 N392 1.356 . S
C395 C389 1.363 . S
C395 C390 1.379 . S
C395 N393 1.356 . S
N396 C388 1.356 . S
N396 H402 0.984 . S
N396 H403 0.984 . S
N397 C390 1.356 . S
N397 H400 0.984 1_655 S
N397 H401 0.985 1_655 S
H398 N393 0.984 . S
H399 N393 0.985 . S
H400 N397 0.984 1_455 S
H401 N397 0.985 1_455 S
H402 N396 0.984 . S
H403 N396 0.984 . S
H404 N392 0.984 . S
H405 N392 0.985 . S
C406 C407 1.363 . S
C406 C412 1.379 . S
C406 N414 1.356 . S
C407 C406 1.363 . S
C407 C413 1.363 . S
C408 C409 1.363 . S
C408 C413 1.379 . S
C408 N415 1.356 . S
C409 C408 1.363 . S
C409 C412 1.363 . S
N410 C412 1.356 . S
N410 H422 0.984 . S
N410 H423 0.985 . S
N411 C413 1.356 . S
N411 H416 0.984 . S
N411 H417 0.985 . S
C412 C406 1.379 . S
C412 C409 1.363 . S
C412 N410 1.356 . S
C413 C407 1.363 . S
C413 C408 1.379 . S
C413 N411 1.356 . S
N414 C406 1.356 . S
N414 H420 0.984 . S
N414 H421 0.984 . S
N415 C408 1.356 . S
N415 H418 0.984 . S
N415 H419 0.985 . S
H416 N411 0.984 . S
H417 N411 0.985 . S
H418 N415 0.984 . S
H419 N415 0.985 . S
H420 N414 0.984 . S
H421 N414 0.984 . S
H422 N410 0.984 . S
H423 N410 0.985 . S
C424 C425 1.363 . S
C424 C430 1.379 . S
C424 N432 1.356 . S
C425 C424 1.363 . S
C425 C431 1.363 . S
C426 C427 1.363 . S
C426 C431 1.379 . S
C426 N433 1.356 1_556 S
C427 C426 1.363 . S
C427 C430 1.363 . S
N428 C430 1.356 . S
N428 H440 0.984 . S
N428 H441 0.985 . S
N429 C431 1.356 1_554 S
N429 H434 0.984 . S
N429 H435 0.985 . S
C430 C424 1.379 . S
C430 C427 1.363 . S
C430 N428 1.356 . S
C431 C425 1.363 . S
C431 C426 1.379 . S
C431 N429 1.356 1_556 S
N432 C424 1.356 . S
N432 H438 0.984 . S
N432 H439 0.984 . S
N433 C426 1.356 1_554 S
N433 H436 0.984 . S
N433 H437 0.985 . S
H434 N429 0.984 . S
H435 N429 0.985 . S
H436 N433 0.984 . S
H437 N433 0.985 . S
H438 N432 0.984 . S
H439 N432 0.984 . S
H440 N428 0.984 . S
H441 N428 0.985 . S
C442 C443 1.363 . S
C442 C448 1.379 . S
C442 N450 1.356 . S
C443 C442 1.363 . S
C443 C449 1.363 . S
C444 C445 1.363 . S
C444 C449 1.379 . S
C444 N451 1.356 . S
C445 C444 1.363 . S
C445 C448 1.363 . S
N446 C448 1.356 . S
N446 H458 0.984 . S
N446 H459 0.985 . S
N447 C449 1.356 . S
N447 H452 0.984 . S
N447 H453 0.985 . S
C448 C442 1.379 . S
C448 C445 1.363 . S
C448 N446 1.356 . S
C449 C443 1.363 . S
C449 C444 1.379 . S
C449 N447 1.356 . S
N450 C442 1.356 . S
N450 H456 0.984 . S
N450 H457 0.984 . S
N451 C444 1.356 . S
N451 H454 0.984 . S
N451 H455 0.985 . S
H452 N447 0.984 . S
H453 N447 0.985 . S
H454 N451 0.984 . S
H455 N451 0.985 . S
H456 N450 0.984 . S
H457 N450 0.984 . S
H458 N446 0.984 . S
H459 N446 0.985 . S
C460 C461 1.363 . S
C460 C466 1.379 . S
C460 N468 1.356 . S
C461 C460 1.363 . S
C461 C467 1.363 . S
C462 C463 1.363 . S
C462 C467 1.379 . S
C462 N469 1.356 . S
C463 C462 1.363 . S
C463 C466 1.363 . S
N464 C466 1.356 . S
N464 H476 0.984 . S
N464 H477 0.985 . S
N465 C467 1.356 . S
N465 H470 0.984 . S
N465 H471 0.985 . S
C466 C460 1.379 . S
C466 C463 1.363 . S
C466 N464 1.356 . S
C467 C461 1.363 . S
C467 C462 1.379 . S
C467 N465 1.356 . S
N468 C460 1.356 . S
N468 H474 0.984 . S
N468 H475 0.984 . S
N469 C462 1.356 . S
N469 H472 0.984 . S
N469 H473 0.985 . S
H470 N465 0.984 . S
H471 N465 0.985 . S
H472 N469 0.984 . S
H473 N469 0.985 . S
H474 N468 0.984 . S
H475 N468 0.984 . S
H476 N464 0.984 . S
H477 N464 0.985 . S
C478 C479 1.363 . S
C478 C484 1.379 . S
C478 N486 1.356 . S
C479 C478 1.363 . S
C479 C485 1.363 . S
C480 C481 1.363 . S
C480 C485 1.379 . S
C480 N487 1.356 . S
C481 C480 1.363 . S
C481 C484 1.363 . S
N482 C484 1.356 . S
N482 H494 0.984 . S
N482 H495 0.985 . S
N483 C485 1.356 . S
N483 H488 0.984 . S
N483 H489 0.985 . S
C484 C478 1.379 . S
C484 C481 1.363 . S
C484 N482 1.356 . S
C485 C479 1.363 . S
C485 C480 1.379 . S
C485 N483 1.356 . S
N486 C478 1.356 . S
N486 H492 0.984 . S
N486 H493 0.984 . S
N487 C480 1.356 . S
N487 H490 0.984 . S
N487 H491 0.985 . S
H488 N483 0.984 . S
H489 N483 0.985 . S
H490 N487 0.984 . S
H491 N487 0.985 . S
H492 N486 0.984 . S
H493 N486 0.984 . S
H494 N482 0.984 . S
H495 N482 0.985 . S
C496 C497 1.363 . S
C496 C502 1.379 . S
C496 N504 1.356 . S
C497 C496 1.363 . S
C497 C503 1.363 . S
C498 C499 1.363 . S
C498 C503 1.379 . S
C498 N505 1.356 . S
C499 C498 1.363 . S
C499 C502 1.363 . S
N500 C502 1.356 . S
N500 H512 0.984 . S
N500 H513 0.985 . S
N501 C503 1.356 . S
N501 H506 0.984 . S
N501 H507 0.985 . S
C502 C496 1.379 . S
C502 C499 1.363 . S
C502 N500 1.356 . S
C503 C497 1.363 . S
C503 C498 1.379 . S
C503 N501 1.356 . S
N504 C496 1.356 . S
N504 H510 0.984 . S
N504 H511 0.984 . S
N505 C498 1.356 . S
N505 H508 0.984 . S
N505 H509 0.985 . S
H506 N501 0.984 . S
H507 N501 0.985 . S
H508 N505 0.984 . S
H509 N505 0.985 . S
H510 N504 0.984 . S
H511 N504 0.984 . S
H512 N500 0.984 . S
H513 N500 0.985 . S
C514 C515 1.363 . S
C514 C520 1.379 . S
C514 N522 1.356 . S
C515 C514 1.363 . S
C515 C521 1.363 . S
C516 C517 1.363 . S
C516 C521 1.379 . S
C516 N523 1.356 . S
C517 C516 1.363 . S
C517 C520 1.363 . S
N518 C520 1.356 . S
N518 H530 0.984 . S
N518 H531 0.985 . S
N519 C521 1.356 . S
N519 H524 0.984 . S
N519 H525 0.985 . S
C520 C514 1.379 . S
C520 C517 1.363 . S
C520 N518 1.356 . S
C521 C515 1.363 . S
C521 C516 1.379 . S
C521 N519 1.356 . S
N522 C514 1.356 . S
N522 H528 0.984 . S
N522 H529 0.984 . S
N523 C516 1.356 . S
N523 H526 0.984 . S
N523 H527 0.985 . S
H524 N519 0.984 . S
H525 N519 0.985 . S
H526 N523 0.984 . S
H527 N523 0.985 . S
H528 N522 0.984 . S
H529 N522 0.984 . S
H530 N518 0.984 . S
H531 N518 0.985 . S
C532 C533 1.363 . S
C532 C538 1.379 . S
C532 N540 1.356 . S
C533 C532 1.363 . S
C533 C539 1.363 . S
C534 C535 1.363 . S
C534 C539 1.379 . S
C534 N541 1.356 . S
C535 C534 1.363 . S
C535 C538 1.363 . S
N536 C538 1.356 . S
N536 H548 0.984 . S
N536 H549 0.985 . S
N537 C539 1.356 . S
N537 H542 0.984 . S
N537 H543 0.985 . S
C538 C532 1.379 . S
C538 C535 1.363 . S
C538 N536 1.356 . S
C539 C533 1.363 . S
C539 C534 1.379 . S
C539 N537 1.356 . S
N540 C532 1.356 . S
N540 H546 0.984 . S
N540 H547 0.984 . S
N541 C534 1.356 . S
N541 H544 0.984 . S
N541 H545 0.985 . S
H542 N537 0.984 . S
H543 N537 0.985 . S
H544 N541 0.984 . S
H545 N541 0.985 . S
H546 N540 0.984 . S
H547 N540 0.984 . S
H548 N536 0.984 . S
H549 N536 0.985 . S
C550 C551 1.363 . S
C550 C556 1.379 . S
C550 N558 1.356 1_554 S
C551 C550 1.363 . S
C551 C557 1.363 . S
C552 C553 1.363 . S
C552 C557 1.379 . S
C552 N559 1.356 . S
C553 C552 1.363 . S
C553 C556 1.363 . S
N554 C556 1.356 . S
N554 H566 0.984 . S
N554 H567 0.985 . S
N555 C557 1.356 . S
N555 H560 0.984 . S
N555 H561 0.985 . S
C556 C550 1.379 . S
C556 C553 1.363 . S
C556 N554 1.356 . S
C557 C551 1.363 . S
C557 C552 1.379 . S
C557 N555 1.356 . S
N558 C550 1.356 1_556 S
N558 H564 0.984 . S
N558 H565 0.984 . S
N559 C552 1.356 . S
N559 H562 0.984 . S
N559 H563 0.985 . S
H560 N555 0.984 . S
H561 N555 0.985 . S
H562 N559 0.984 . S
H563 N559 0.985 . S
H564 N558 0.984 . S
H565 N558 0.984 . S
H566 N554 0.984 . S
H567 N554 0.985 . S
C568 C569 1.363 . S
C568 C574 1.379 . S
C568 N576 1.356 . S
C569 C568 1.363 . S
C569 C575 1.363 . S
C570 C571 1.363 . S
C570 C575 1.379 . S
C570 N577 1.356 . S
C571 C570 1.363 . S
C571 C574 1.363 . S
N572 C574 1.356 . S
N572 H584 0.984 . S
N572 H585 0.985 . S
N573 C575 1.356 . S
N573 H578 0.984 . S
N573 H579 0.985 . S
C574 C568 1.379 . S
C574 C571 1.363 . S
C574 N572 1.356 . S
C575 C569 1.363 . S
C575 C570 1.379 . S
C575 N573 1.356 . S
N576 C568 1.356 . S
N576 H582 0.984 . S
N576 H583 0.984 . S
N577 C570 1.356 . S
N577 H580 0.984 . S
N577 H581 0.985 . S
H578 N573 0.984 . S
H579 N573 0.985 . S
H580 N577 0.984 . S
H581 N577 0.985 . S
H582 N576 0.984 . S
H583 N576 0.984 . S
H584 N572 0.984 . S
H585 N572 0.985 . S
C586 C587 1.363 . S
C586 C592 1.379 . S
C586 N594 1.356 . S
C587 C586 1.363 . S
C587 C593 1.363 . S
C588 C589 1.363 . S
C588 C593 1.379 . S
C588 N595 1.356 . S
C589 C588 1.363 . S
C589 C592 1.363 . S
N590 C592 1.356 . S
N590 H602 0.984 1_556 S
N590 H603 0.985 . S
N591 C593 1.356 . S
N591 H596 0.984 . S
N591 H597 0.985 . S
C592 C586 1.379 . S
C592 C589 1.363 . S
C592 N590 1.356 . S
C593 C587 1.363 . S
C593 C588 1.379 . S
C593 N591 1.356 . S
N594 C586 1.356 . S
N594 H600 0.984 . S
N594 H601 0.984 . S
N595 C588 1.356 . S
N595 H598 0.984 . S
N595 H599 0.985 . S
H596 N591 0.984 . S
H597 N591 0.985 . S
H598 N595 0.984 . S
H599 N595 0.985 . S
H600 N594 0.984 . S
H601 N594 0.984 . S
H602 N590 0.984 1_554 S
H603 N590 0.985 . S
C175 C100 1.512 . S
C173 N4 1.506 . S
C193 C103 1.665 . S
C191 C17 1.679 . S
C211 C101 1.436 . S
C209 C28 1.440 . S
C229 C102 1.505 . S
C227 C39 1.535 . S
C247 C117 1.694 . S
C245 C6 1.703 . S
C265 C131 1.649 . S
C263 C20 1.640 . S
C281 C31 1.583 . S
C283 C157 1.588 . S
C301 C171 1.429 . S
C299 N37 1.423 . S
C319 C116 1.633 . S
C317 N15 1.614 . S
C335 N26 1.483 . S
C337 C130 1.456 . S
C355 C156 1.589 . S
C353 C42 1.570 . S
C373 C170 1.572 . S
C371 C9 1.569 . S
C389 C53 1.718 . S
C391 C115 1.711 . S
C409 C88 1.586 . S
C407 C64 1.584 . S
C425 N70 1.553 . S
C427 C114 1.545 . S
C443 C83 1.522 . S
C445 C89 1.541 . S
C463 C144 1.505 . S
C461 N48 1.494 . S
C481 C158 1.581 . S
C479 C61 1.585 . S
C499 C128 1.580 . S
C497 C72 1.591 . S
C515 N81 1.603 . S
C517 C142 1.587 . S
C535 C145 1.551 . S
C533 N59 1.531 . S
C553 C159 1.591 . S
C551 C75 1.569 1_554 S
C571 C129 1.592 . S
C569 C86 1.599 . S
C587 C50 1.679 . S
C589 C143 1.663 . S
