# Generated by pormake.
# Topology eea, (3,6)-cn, num edge types: 1
# Building blocks:
#     Node 0, Type 0, BuildingBlock: BELTOD_clean_linker_0, # of connection points: 3
#     Node 1, Type 0, BuildingBlock: BELTOD_clean_linker_0, # of connection points: 3
#     Node 2, Type 0, BuildingBlock: BELTOD_clean_linker_0, # of connection points: 3
#     Node 3, Type 0, BuildingBlock: BELTOD_clean_linker_0, # of connection points: 3
#     Node 4, Type 0, BuildingBlock: BELTOD_clean_linker_0, # of connection points: 3
#     Node 5, Type 0, BuildingBlock: BELTOD_clean_linker_0, # of connection points: 3
#     Node 6, Type 0, BuildingBlock: BELTOD_clean_linker_0, # of connection points: 3
#     Node 7, Type 0, BuildingBlock: BELTOD_clean_linker_0, # of connection points: 3
#     Node 8, Type 0, BuildingBlock: BELTOD_clean_linker_0, # of connection points: 3
#     Node 9, Type 0, BuildingBlock: BELTOD_clean_linker_0, # of connection points: 3
#     Node 10, Type 0, BuildingBlock: BELTOD_clean_linker_0, # of connection points: 3
#     Node 11, Type 0, BuildingBlock: BELTOD_clean_linker_0, # of connection points: 3
#     Node 12, Type 0, BuildingBlock: BELTOD_clean_linker_0, # of connection points: 3
#     Node 13, Type 0, BuildingBlock: BELTOD_clean_linker_0, # of connection points: 3
#     Node 14, Type 0, BuildingBlock: BELTOD_clean_linker_0, # of connection points: 3
#     Node 15, Type 0, BuildingBlock: BELTOD_clean_linker_0, # of connection points: 3
#     Node 16, Type 0, BuildingBlock: BELTOD_clean_linker_0, # of connection points: 3
#     Node 17, Type 0, BuildingBlock: BELTOD_clean_linker_0, # of connection points: 3
#     Node 18, Type 1, BuildingBlock: HISSIN_clean_sbu_0, # of connection points: 6
#     Node 19, Type 1, BuildingBlock: HISSIN_clean_sbu_0, # of connection points: 6
#     Node 20, Type 1, BuildingBlock: HISSIN_clean_sbu_0, # of connection points: 6
#     Node 21, Type 1, BuildingBlock: HISSIN_clean_sbu_0, # of connection points: 6
#     Node 22, Type 1, BuildingBlock: HISSIN_clean_sbu_0, # of connection points: 6
#     Node 23, Type 1, BuildingBlock: HISSIN_clean_sbu_0, # of connection points: 6
#     Node 24, Type 1, BuildingBlock: HISSIN_clean_sbu_0, # of connection points: 6
#     Node 25, Type 1, BuildingBlock: HISSIN_clean_sbu_0, # of connection points: 6
#     Node 26, Type 1, BuildingBlock: HISSIN_clean_sbu_0, # of connection points: 6
#     Edge 27, Type (0, 1), BuildingBlock: AJUNOK_clean_linker_0, # of connection points: 2
#     Edge 28, Type (0, 1), BuildingBlock: AJUNOK_clean_linker_0, # of connection points: 2
#     Edge 29, Type (0, 1), BuildingBlock: AJUNOK_clean_linker_0, # of connection points: 2
#     Edge 30, Type (0, 1), BuildingBlock: AJUNOK_clean_linker_0, # of connection points: 2
#     Edge 31, Type (0, 1), BuildingBlock: AJUNOK_clean_linker_0, # of connection points: 2
#     Edge 32, Type (0, 1), BuildingBlock: AJUNOK_clean_linker_0, # of connection points: 2
#     Edge 33, Type (0, 1), BuildingBlock: AJUNOK_clean_linker_0, # of connection points: 2
#     Edge 34, Type (0, 1), BuildingBlock: AJUNOK_clean_linker_0, # of connection points: 2
#     Edge 35, Type (0, 1), BuildingBlock: AJUNOK_clean_linker_0, # of connection points: 2
#     Edge 36, Type (0, 1), BuildingBlock: AJUNOK_clean_linker_0, # of connection points: 2
#     Edge 37, Type (0, 1), BuildingBlock: AJUNOK_clean_linker_0, # of connection points: 2
#     Edge 38, Type (0, 1), BuildingBlock: AJUNOK_clean_linker_0, # of connection points: 2
#     Edge 39, Type (0, 1), BuildingBlock: AJUNOK_clean_linker_0, # of connection points: 2
#     Edge 40, Type (0, 1), BuildingBlock: AJUNOK_clean_linker_0, # of connection points: 2
#     Edge 41, Type (0, 1), BuildingBlock: AJUNOK_clean_linker_0, # of connection points: 2
#     Edge 42, Type (0, 1), BuildingBlock: AJUNOK_clean_linker_0, # of connection points: 2
#     Edge 43, Type (0, 1), BuildingBlock: AJUNOK_clean_linker_0, # of connection points: 2
#     Edge 44, Type (0, 1), BuildingBlock: AJUNOK_clean_linker_0, # of connection points: 2
#     Edge 45, Type (0, 1), BuildingBlock: AJUNOK_clean_linker_0, # of connection points: 2
#     Edge 46, Type (0, 1), BuildingBlock: AJUNOK_clean_linker_0, # of connection points: 2
#     Edge 47, Type (0, 1), BuildingBlock: AJUNOK_clean_linker_0, # of connection points: 2
#     Edge 48, Type (0, 1), BuildingBlock: AJUNOK_clean_linker_0, # of connection points: 2
#     Edge 49, Type (0, 1), BuildingBlock: AJUNOK_clean_linker_0, # of connection points: 2
#     Edge 50, Type (0, 1), BuildingBlock: AJUNOK_clean_linker_0, # of connection points: 2
#     Edge 51, Type (0, 1), BuildingBlock: AJUNOK_clean_linker_0, # of connection points: 2
#     Edge 52, Type (0, 1), BuildingBlock: AJUNOK_clean_linker_0, # of connection points: 2
#     Edge 53, Type (0, 1), BuildingBlock: AJUNOK_clean_linker_0, # of connection points: 2
#     Edge 54, Type (0, 1), BuildingBlock: AJUNOK_clean_linker_0, # of connection points: 2
#     Edge 55, Type (0, 1), BuildingBlock: AJUNOK_clean_linker_0, # of connection points: 2
#     Edge 56, Type (0, 1), BuildingBlock: AJUNOK_clean_linker_0, # of connection points: 2
#     Edge 57, Type (0, 1), BuildingBlock: AJUNOK_clean_linker_0, # of connection points: 2
#     Edge 58, Type (0, 1), BuildingBlock: AJUNOK_clean_linker_0, # of connection points: 2
#     Edge 59, Type (0, 1), BuildingBlock: AJUNOK_clean_linker_0, # of connection points: 2
#     Edge 60, Type (0, 1), BuildingBlock: AJUNOK_clean_linker_0, # of connection points: 2
#     Edge 61, Type (0, 1), BuildingBlock: AJUNOK_clean_linker_0, # of connection points: 2
#     Edge 62, Type (0, 1), BuildingBlock: AJUNOK_clean_linker_0, # of connection points: 2
#     Edge 63, Type (0, 1), BuildingBlock: AJUNOK_clean_linker_0, # of connection points: 2
#     Edge 64, Type (0, 1), BuildingBlock: AJUNOK_clean_linker_0, # of connection points: 2
#     Edge 65, Type (0, 1), BuildingBlock: AJUNOK_clean_linker_0, # of connection points: 2
#     Edge 66, Type (0, 1), BuildingBlock: AJUNOK_clean_linker_0, # of connection points: 2
#     Edge 67, Type (0, 1), BuildingBlock: AJUNOK_clean_linker_0, # of connection points: 2
#     Edge 68, Type (0, 1), BuildingBlock: AJUNOK_clean_linker_0, # of connection points: 2
#     Edge 69, Type (0, 1), BuildingBlock: AJUNOK_clean_linker_0, # of connection points: 2
#     Edge 70, Type (0, 1), BuildingBlock: AJUNOK_clean_linker_0, # of connection points: 2
#     Edge 71, Type (0, 1), BuildingBlock: AJUNOK_clean_linker_0, # of connection points: 2
#     Edge 72, Type (0, 1), BuildingBlock: AJUNOK_clean_linker_0, # of connection points: 2
#     Edge 73, Type (0, 1), BuildingBlock: AJUNOK_clean_linker_0, # of connection points: 2
#     Edge 74, Type (0, 1), BuildingBlock: AJUNOK_clean_linker_0, # of connection points: 2
#     Edge 75, Type (0, 1), BuildingBlock: AJUNOK_clean_linker_0, # of connection points: 2
#     Edge 76, Type (0, 1), BuildingBlock: AJUNOK_clean_linker_0, # of connection points: 2
#     Edge 77, Type (0, 1), BuildingBlock: AJUNOK_clean_linker_0, # of connection points: 2
#     Edge 78, Type (0, 1), BuildingBlock: AJUNOK_clean_linker_0, # of connection points: 2
#     Edge 79, Type (0, 1), BuildingBlock: AJUNOK_clean_linker_0, # of connection points: 2
#     Edge 80, Type (0, 1), BuildingBlock: AJUNOK_clean_linker_0, # of connection points: 2
# Relax obj value: 0.032
# Max RMSD: 0.127
# Mean RMSD: 0.095
data_MOF--net-eea--node1-HISSIN_clean_sbu_0--node2-BELTOD_clean_linker_0--edge1-AJUNOK_clean_linker_0
_symmetry_space_group_name_H-M    P1
_symmetry_Int_Tables_number       1
_symmetry_cell_setting            triclinic
loop_
_symmetry_equiv_pos_as_xyz
'x, y, z'
_cell_length_a     44.666841
_cell_length_b     44.336534
_cell_length_c     67.32364
_cell_angle_alpha  93.443949
_cell_angle_beta   93.237808
_cell_angle_gamma 119.61234
loop_
_atom_site_label
_atom_site_type_symbol
_atom_site_fract_x
_atom_site_fract_y
_atom_site_fract_z
_atom_type_partial_charge
P0 P 0.33192 0.18038 0.40837 0.0
H1 H 0.32851 0.1363 0.37324 0.0
H2 H 0.29431 0.07331 0.36379 0.0
H3 H 0.24488 0.06037 0.41845 0.0
H4 H 0.27993 0.12305 0.42812 0.0
H5 H 0.34945 0.24359 0.38895 0.0
H6 H 0.31484 0.26925 0.3774 0.0
H7 H 0.22439 0.18522 0.39855 0.0
H8 H 0.25913 0.15999 0.41037 0.0
H9 H 0.37185 0.16086 0.43443 0.0
H10 H 0.31408 0.21467 0.44089 0.0
O11 O 0.36865 0.19706 0.39742 0.0
H12 H 0.38142 0.16425 0.47088 0.0
H13 H 0.3232 0.21767 0.47725 0.0
C14 C 0.30726 0.13415 0.40154 0.0
C15 C 0.3106 0.11982 0.38328 0.0
C16 C 0.29089 0.08392 0.37784 0.0
C17 C 0.26729 0.06191 0.39053 0.0
C18 C 0.2635 0.07655 0.40863 0.0
C19 C 0.28341 0.11238 0.41411 0.0
C20 C 0.30668 0.1995 0.40011 0.0
C21 C 0.32215 0.2306 0.39101 0.0
C22 C 0.30237 0.24515 0.38436 0.0
C23 C 0.26685 0.22881 0.38679 0.0
C24 C 0.25167 0.19819 0.39642 0.0
C25 C 0.27146 0.18365 0.40303 0.0
C26 C 0.34241 0.18759 0.43499 0.0
C27 C 0.36168 0.17384 0.4437 0.0
C28 C 0.36693 0.17558 0.46445 0.0
C29 C 0.35311 0.19129 0.4768 0.0
C30 C 0.33454 0.20587 0.46804 0.0
C31 C 0.3292 0.204 0.44725 0.0
P32 P 0.91809 0.10044 0.44678 0.0
H33 H 0.90864 0.0383 0.42352 0.0
H34 H 0.85925 0.9907 0.40269 0.0
H35 H 0.79739 0.03816 0.41584 0.0
H36 H 0.84689 0.08571 0.43682 0.0
H37 H 0.98142 0.16726 0.45627 0.0
H38 H 0.0213 0.20969 0.43526 0.0
H39 H 0.95111 0.15081 0.38285 0.0
H40 H 0.91171 0.10833 0.40377 0.0
H41 H 0.90151 0.07491 0.48554 0.0
H42 H 0.90074 0.15614 0.45376 0.0
O43 O 0.94324 0.08534 0.45568 0.0
H44 H 0.87724 0.09018 0.5134 0.0
H45 H 0.87556 0.17117 0.48161 0.0
C46 C 0.8812 0.06511 0.43201 0.0
C47 C 0.88441 0.03836 0.42204 0.0
C48 C 0.85631 0.01139 0.41 0.0
C49 C 0.82464 0.01096 0.40758 0.0
C50 C 0.8215 0.03786 0.41756 0.0
C51 C 0.84972 0.06495 0.42955 0.0
C52 C 0.94362 0.13465 0.43165 0.0
C53 C 0.97439 0.16381 0.4403 0.0
C54 C 0.99715 0.18797 0.42828 0.0
C55 C 0.98955 0.18319 0.40738 0.0
C56 C 0.95798 0.15471 0.39886 0.0
C57 C 0.93527 0.13057 0.41089 0.0
C58 C 0.90346 0.11479 0.46777 0.0
C59 C 0.89636 0.09627 0.48464 0.0
C60 C 0.88206 0.1047 0.50044 0.0
C61 C 0.87397 0.13148 0.49953 0.0
C62 C 0.88155 0.15041 0.48269 0.0
C63 C 0.896 0.14194 0.46684 0.0
P64 P 0.86761 0.72192 0.41989 0.0
H65 H 0.81987 0.70169 0.38372 0.0
H66 H 0.78241 0.72298 0.37072 0.0
H67 H 0.82349 0.80456 0.41973 0.0
H68 H 0.8604 0.78235 0.43303 0.0
H69 H 0.91986 0.70115 0.41809 0.0
H70 H 0.97768 0.72843 0.40669 0.0
H71 H 0.97055 0.8197 0.39567 0.0
H72 H 0.91245 0.79217 0.40709 0.0
H73 H 0.81139 0.70987 0.44421 0.0
H74 H 0.91408 0.72414 0.45367 0.0
O75 O 0.84992 0.68089 0.40952 0.0
H76 H 0.80203 0.69693 0.47876 0.0
H77 H 0.90428 0.70971 0.48803 0.0
C78 C 0.84247 0.74006 0.40954 0.0
C79 C 0.82085 0.72413 0.39172 0.0
C80 C 0.79952 0.73643 0.38424 0.0
C81 C 0.79952 0.76511 0.39436 0.0
C82 C 0.8222 0.78185 0.41187 0.0
C83 C 0.84351 0.7694 0.41939 0.0
C84 C 0.91175 0.74454 0.41348 0.0
C85 C 0.93087 0.72723 0.41349 0.0
C86 C 0.964 0.74292 0.40704 0.0
C87 C 0.97879 0.77634 0.40041 0.0
C88 C 0.95978 0.7939 0.40066 0.0
C89 C 0.92661 0.77822 0.40727 0.0
C90 C 0.86384 0.71901 0.4464 0.0
C91 C 0.83231 0.71109 0.45382 0.0
C92 C 0.82678 0.70324 0.47356 0.0
C93 C 0.85247 0.70252 0.48625 0.0
C94 C 0.88425 0.7109 0.47885 0.0
C95 C 0.88985 0.71904 0.45911 0.0
P96 P 0.13442 0.28577 0.61213 0.0
H97 H 0.11331 0.28112 0.65238 0.0
H98 H 0.05747 0.25978 0.66565 0.0
H99 H 0.00705 0.23391 0.60544 0.0
H100 H 0.06298 0.25305 0.59225 0.0
H101 H 0.19039 0.28156 0.5941 0.0
H102 H 0.22293 0.25239 0.60259 0.0
H103 H 0.15749 0.20618 0.64959 0.0
H104 H 0.12381 0.23338 0.64022 0.0
H105 H 0.14847 0.34808 0.59282 0.0
H106 H 0.11751 0.24105 0.57434 0.0
O107 O 0.16038 0.32407 0.62544 0.0
H108 H 0.15226 0.36095 0.55797 0.0
H109 H 0.12165 0.25392 0.53928 0.0
C110 C 0.09241 0.26867 0.62134 0.0
C111 C 0.0902 0.27052 0.64201 0.0
C112 C 0.05823 0.25879 0.64959 0.0
C113 C 0.02775 0.24596 0.63664 0.0
C114 C 0.02999 0.24367 0.61586 0.0
C115 C 0.06202 0.25476 0.60828 0.0
C116 C 0.15404 0.25916 0.61617 0.0
C117 C 0.18225 0.26417 0.60578 0.0
C118 C 0.20115 0.2478 0.61081 0.0
C119 C 0.19269 0.22662 0.62666 0.0
C120 C 0.16416 0.22139 0.63691 0.0
C121 C 0.14496 0.23734 0.63165 0.0
C122 C 0.13337 0.29377 0.58618 0.0
C123 C 0.14233 0.32728 0.58126 0.0
C124 C 0.14455 0.33464 0.56133 0.0
C125 C 0.13745 0.30851 0.54591 0.0
C126 C 0.127 0.27452 0.55082 0.0
C127 C 0.12483 0.26719 0.57083 0.0
P128 P 0.81195 0.90357 0.58863 0.0
H129 H 0.86705 0.97038 0.60836 0.0
H130 H 0.86583 0.01731 0.62873 0.0
H131 H 0.75449 0.95541 0.62625 0.0
H132 H 0.75579 0.90869 0.60567 0.0
H133 H 0.83145 0.85087 0.58038 0.0
H134 H 0.82814 0.80369 0.59901 0.0
H135 H 0.78114 0.83193 0.64547 0.0
H136 H 0.784 0.87868 0.6268 0.0
H137 H 0.78112 0.93952 0.56852 0.0
H138 H 0.7693 0.83659 0.56393 0.0
O139 O 0.84939 0.92091 0.5784 0.0
H140 H 0.73783 0.92196 0.54012 0.0
H141 H 0.72764 0.81961 0.53461 0.0
C142 C 0.81146 0.93654 0.60518 0.0
C143 C 0.84241 0.96687 0.61225 0.0
C144 C 0.84171 0.99353 0.62395 0.0
C145 C 0.81001 0.99004 0.62872 0.0
C146 C 0.77916 0.95893 0.62238 0.0
C147 C 0.7799 0.9323 0.61072 0.0
C148 C 0.80827 0.86847 0.60225 0.0
C149 C 0.82028 0.8468 0.59452 0.0
C150 C 0.81824 0.81984 0.60509 0.0
C151 C 0.80429 0.81433 0.62357 0.0
C152 C 0.79206 0.83587 0.63125 0.0
C153 C 0.79371 0.86257 0.62054 0.0
C154 C 0.77777 0.88908 0.56876 0.0
C155 C 0.76877 0.91291 0.56166 0.0
C156 C 0.74421 0.90295 0.54529 0.0
C157 C 0.72896 0.86926 0.53527 0.0
C158 C 0.73805 0.84538 0.54239 0.0
C159 C 0.7622 0.85521 0.55906 0.0
P160 P 0.13635 0.82766 0.61364 0.0
H161 H 0.18175 0.86812 0.64965 0.0
H162 H 0.2145 0.93074 0.66021 0.0
H163 H 0.17623 0.95101 0.6052 0.0
H164 H 0.14371 0.88825 0.59458 0.0
H165 H 0.07721 0.75718 0.60751 0.0
H166 H 0.0192 0.73072 0.61903 0.0
H167 H 0.04114 0.83188 0.64491 0.0
H168 H 0.0989 0.8581 0.63362 0.0
H169 H 0.19434 0.83751 0.59243 0.0
H170 H 0.08743 0.8075 0.57735 0.0
O171 O 0.15419 0.80787 0.62585 0.0
H172 H 0.20313 0.83725 0.55688 0.0
H173 H 0.0961 0.80666 0.54163 0.0
C174 C 0.16081 0.87369 0.62123 0.0
C175 C 0.18054 0.88602 0.63982 0.0
C176 C 0.19899 0.92173 0.64589 0.0
C177 C 0.19764 0.94559 0.63354 0.0
C178 C 0.17781 0.93313 0.61491 0.0
C179 C 0.15928 0.89736 0.60887 0.0
C180 C 0.09238 0.80953 0.61969 0.0
C181 C 0.06933 0.77368 0.61545 0.0
C182 C 0.03626 0.75864 0.62199 0.0
C183 C 0.02596 0.77925 0.63307 0.0
C184 C 0.0487 0.81535 0.6367 0.0
C185 C 0.08168 0.83037 0.63011 0.0
C186 C 0.14015 0.82198 0.58746 0.0
C187 C 0.17261 0.83021 0.58144 0.0
C188 C 0.17768 0.83031 0.5612 0.0
C189 C 0.15031 0.82213 0.54668 0.0
C190 C 0.11749 0.81293 0.55265 0.0
C191 C 0.11253 0.81325 0.57299 0.0
P192 P 1.00045 0.51055 0.74263 0.0
H193 H 1.00273 0.46373 0.71091 0.0
H194 H 0.9665 0.40083 0.70163 0.0
H195 H 0.9072 0.39302 0.75153 0.0
H196 H 0.94387 0.45562 0.76096 0.0
H197 H 0.01142 0.58127 0.74707 0.0
H198 H 0.97646 0.60665 0.7353 0.0
H199 H 0.8982 0.50547 0.70728 0.0
H200 H 0.93307 0.4805 0.71855 0.0
H201 H 0.05154 0.50594 0.7688 0.0
H202 H 0.97005 0.5304 0.77503 0.0
O203 O 0.03705 0.52749 0.73156 0.0
H204 H 0.06065 0.50865 0.80527 0.0
H205 H 0.97941 0.53352 0.81143 0.0
C206 C 0.97647 0.46407 0.73688 0.0
C207 C 0.98237 0.44834 0.72006 0.0
C208 C 0.96149 0.41254 0.71468 0.0
C209 C 0.9343 0.39208 0.726 0.0
C210 C 0.92847 0.40802 0.74283 0.0
C211 C 0.94941 0.44376 0.74822 0.0
C212 C 0.97484 0.52902 0.73384 0.0
C213 C 0.98676 0.56464 0.73835 0.0
C214 C 0.96678 0.57903 0.73172 0.0
C215 C 0.9348 0.55798 0.7203 0.0
C216 C 0.92299 0.52234 0.71581 0.0
C217 C 0.94292 0.50801 0.72242 0.0
C218 C 0.01071 0.51875 0.76926 0.0
C219 C 0.03619 0.51268 0.77802 0.0
C220 C 0.04116 0.51392 0.79878 0.0
C221 C 0.02058 0.52112 0.81101 0.0
C222 C 0.99571 0.52816 0.80225 0.0
C223 C 0.99053 0.52658 0.78147 0.0
P224 P 0.58526 0.43782 0.77723 0.0
H225 H 0.57547 0.37322 0.75656 0.0
H226 H 0.52592 0.32441 0.73635 0.0
H227 H 0.46758 0.37776 0.74228 0.0
H228 H 0.51725 0.42661 0.76243 0.0
H229 H 0.65423 0.4978 0.78705 0.0
H230 H 0.69566 0.54081 0.76692 0.0
H231 H 0.62126 0.49387 0.71488 0.0
H232 H 0.57971 0.45118 0.73504 0.0
H233 H 0.53093 0.39981 0.80239 0.0
H234 H 0.60212 0.50778 0.79558 0.0
O235 O 0.60793 0.4217 0.78829 0.0
H236 H 0.50777 0.4176 0.82987 0.0
H237 H 0.57932 0.52566 0.82348 0.0
C238 C 0.54961 0.403 0.7614 0.0
C239 C 0.55202 0.3744 0.75352 0.0
C240 C 0.52383 0.34666 0.74193 0.0
C241 C 0.49286 0.34719 0.73808 0.0
C242 C 0.49096 0.37647 0.74541 0.0
C243 C 0.51927 0.40432 0.75686 0.0
C244 C 0.61381 0.47143 0.76264 0.0
C245 C 0.64662 0.49709 0.77139 0.0
C246 C 0.67024 0.52159 0.75989 0.0
C247 C 0.66152 0.52063 0.73939 0.0
C248 C 0.62857 0.49505 0.73065 0.0
C249 C 0.60479 0.47077 0.74223 0.0
C250 C 0.5679 0.45242 0.79671 0.0
C251 C 0.54131 0.42737 0.80664 0.0
C252 C 0.52799 0.43752 0.82229 0.0
C253 C 0.54142 0.47298 0.82855 0.0
C254 C 0.56838 0.49815 0.81878 0.0
C255 C 0.58142 0.48793 0.80286 0.0
P256 P 0.52673 0.0452 0.75268 0.0
H257 H 0.52912 0.08175 0.71784 0.0
H258 H 0.49529 0.10761 0.70558 0.0
H259 H 0.44307 0.08647 0.75939 0.0
H260 H 0.47794 0.06209 0.77196 0.0
H261 H 0.56012 0.02356 0.72334 0.0
H262 H 0.61691 0.05338 0.71078 0.0
H263 H 0.64655 0.14335 0.75257 0.0
H264 H 0.5888 0.11375 0.7648 0.0
H265 H 0.4682 0.99935 0.77327 0.0
H266 H 0.57754 0.06876 0.78889 0.0
O267 O 0.50407 0.0068 0.73889 0.0
H268 H 0.46164 0.98361 0.80756 0.0
H269 H 0.57101 0.05297 0.82332 0.0
C270 C 0.50647 0.07023 0.74593 0.0
C271 C 0.51112 0.08357 0.72728 0.0
C272 C 0.49151 0.09806 0.72019 0.0
C273 C 0.46649 0.09915 0.73151 0.0
C274 C 0.46255 0.08666 0.75045 0.0
C275 C 0.4824 0.07239 0.75761 0.0
C276 C 0.5703 0.06618 0.74528 0.0
C277 C 0.57873 0.04958 0.72999 0.0
C278 C 0.61114 0.06669 0.72269 0.0
C279 C 0.6359 0.10064 0.73066 0.0
C280 C 0.62781 0.11712 0.74623 0.0
C281 C 0.59501 0.10018 0.75329 0.0
C282 C 0.52328 0.03545 0.77846 0.0
C283 C 0.49081 0.01137 0.7841 0.0
C284 C 0.48704 0.00241 0.80371 0.0
C285 C 0.51581 0.01694 0.81809 0.0
C286 C 0.54844 0.04109 0.81247 0.0
C287 C 0.55213 0.05034 0.7928 0.0
P288 P 0.80174 0.62682 0.94342 0.0
H289 H 0.78072 0.61797 0.98365 0.0
H290 H 0.72477 0.59428 0.99709 0.0
H291 H 0.67424 0.57282 0.93713 0.0
H292 H 0.73028 0.59429 0.9237 0.0
H293 H 0.86836 0.63733 0.93331 0.0
H294 H 0.90314 0.6112 0.94314 0.0
H295 H 0.82346 0.54396 0.97886 0.0
H296 H 0.78756 0.56787 0.96749 0.0
H297 H 0.79292 0.67557 0.91998 0.0
H298 H 0.80576 0.58609 0.90839 0.0
O299 O 0.82476 0.66722 0.95486 0.0
H300 H 0.7983 0.68624 0.88467 0.0
H301 H 0.81191 0.59718 0.8732 0.0
C302 C 0.75971 0.6077 0.95269 0.0
C303 C 0.75754 0.60779 0.97337 0.0
C304 C 0.72553 0.59472 0.98106 0.0
C305 C 0.69499 0.5824 0.96824 0.0
C306 C 0.69722 0.58206 0.94744 0.0
C307 C 0.72931 0.59449 0.93973 0.0
C308 C 0.8254 0.60483 0.94971 0.0
C309 C 0.85816 0.61659 0.94303 0.0
C310 C 0.8783 0.60199 0.94894 0.0
C311 C 0.86661 0.57615 0.9623 0.0
C312 C 0.83336 0.56385 0.9686 0.0
C313 C 0.81285 0.57786 0.96224 0.0
C314 C 0.79989 0.63065 0.91691 0.0
C315 C 0.79658 0.65806 0.90981 0.0
C316 C 0.79958 0.66409 0.88967 0.0
C317 C 0.80616 0.64289 0.87638 0.0
C318 C 0.80746 0.61423 0.88328 0.0
C319 C 0.80397 0.60793 0.90336 0.0
P320 P 0.48847 0.23748 0.92243 0.0
H321 H 0.53987 0.2989 0.94823 0.0
H322 H 0.53623 0.3452 0.96771 0.0
H323 H 0.42581 0.29172 0.95156 0.0
H324 H 0.42966 0.2457 0.93185 0.0
H325 H 0.51192 0.18736 0.91755 0.0
H326 H 0.50405 0.1385 0.93593 0.0
H327 H 0.43919 0.15694 0.97427 0.0
H328 H 0.44745 0.20617 0.95591 0.0
H329 H 0.47836 0.27889 0.89412 0.0
H330 H 0.43327 0.1697 0.90245 0.0
O331 O 0.52835 0.2555 0.91522 0.0
H332 H 0.43947 0.26394 0.86358 0.0
H333 H 0.39488 0.1546 0.87159 0.0
C334 C 0.48519 0.26951 0.93824 0.0
C335 C 0.51489 0.29712 0.94893 0.0
C336 C 0.51276 0.32339 0.96012 0.0
C337 C 0.48082 0.32222 0.96081 0.0
C338 C 0.45082 0.29357 0.95087 0.0
C339 C 0.453 0.26732 0.93968 0.0
C340 C 0.48098 0.20083 0.93568 0.0
C341 C 0.49609 0.18096 0.92994 0.0
C342 C 0.49138 0.15295 0.94035 0.0
C343 C 0.47133 0.14427 0.95664 0.0
C344 C 0.45529 0.16356 0.962 0.0
C345 C 0.45996 0.19161 0.9515 0.0
C346 C 0.45877 0.22543 0.90045 0.0
C347 C 0.4601 0.2517 0.88934 0.0
C348 C 0.43803 0.24316 0.87189 0.0
C349 C 0.41457 0.20812 0.86514 0.0
C350 C 0.41275 0.18182 0.87653 0.0
C351 C 0.4348 0.19042 0.89408 0.0
P352 P 0.80766 0.16675 0.95065 0.0
H353 H 0.85101 0.21106 0.98632 0.0
H354 H 0.8814 0.27423 0.99505 0.0
H355 H 0.84103 0.2872 0.93835 0.0
H356 H 0.81113 0.22402 0.92956 0.0
H357 H 0.7565 0.09447 0.95377 0.0
H358 H 0.69802 0.06655 0.96447 0.0
H359 H 0.70336 0.16662 0.97141 0.0
H360 H 0.76186 0.19444 0.96098 0.0
H361 H 0.86621 0.17953 0.92914 0.0
H362 H 0.75715 0.14078 0.91478 0.0
O363 O 0.82815 0.15008 0.96347 0.0
H364 H 0.87402 0.1781 0.89348 0.0
H365 H 0.7649 0.13903 0.87896 0.0
C366 C 0.8295 0.21305 0.95715 0.0
C367 C 0.8489 0.22751 0.97572 0.0
C368 C 0.86607 0.26353 0.98072 0.0
C369 C 0.86388 0.28556 0.96724 0.0
C370 C 0.84378 0.27087 0.9488 0.0
C371 C 0.82663 0.23483 0.94382 0.0
C372 C 0.7637 0.14651 0.95688 0.0
C373 C 0.74502 0.11035 0.95755 0.0
C374 C 0.71164 0.09446 0.9636 0.0
C375 C 0.69643 0.11455 0.96906 0.0
C376 C 0.71479 0.15066 0.96772 0.0
C377 C 0.74818 0.16653 0.96164 0.0
C378 C 0.81109 0.15982 0.92454 0.0
C379 C 0.84385 0.17009 0.91829 0.0
C380 C 0.84835 0.16957 0.89798 0.0
C381 C 0.82008 0.15876 0.88361 0.0
C382 C 0.78701 0.1474 0.88985 0.0
C383 C 0.78258 0.14827 0.91025 0.0
P384 P 0.67168 0.84106 0.07313 0.0
H385 H 0.66492 0.79668 0.03739 0.0
H386 H 0.62765 0.73411 0.02751 0.0
H387 H 0.58523 0.72161 0.08451 0.0
H388 H 0.62302 0.78383 0.09447 0.0
H389 H 0.69098 0.91022 0.06137 0.0
H390 H 0.65661 0.93641 0.05002 0.0
H391 H 0.56271 0.83985 0.05522 0.0
H392 H 0.59686 0.81385 0.06638 0.0
H393 H 0.71733 0.82996 0.10017 0.0
H394 H 0.64581 0.86839 0.10474 0.0
O395 O 0.7086 0.85756 0.06238 0.0
H396 H 0.72467 0.83266 0.13671 0.0
H397 H 0.65303 0.87098 0.14118 0.0
C398 C 0.64718 0.79471 0.06676 0.0
C399 C 0.64796 0.78035 0.04784 0.0
C400 C 0.62636 0.74475 0.04214 0.0
C401 C 0.60324 0.72318 0.05517 0.0
C402 C 0.6029 0.73763 0.07423 0.0
C403 C 0.62461 0.77316 0.07994 0.0
C404 C 0.64652 0.85987 0.06421 0.0
C405 C 0.66301 0.89462 0.05984 0.0
C406 C 0.64341 0.90956 0.05347 0.0
C407 C 0.60707 0.88989 0.05144 0.0
C408 C 0.59068 0.85527 0.05617 0.0
C409 C 0.61025 0.84043 0.06259 0.0
C410 C 0.68137 0.84931 0.09979 0.0
C411 C 0.70374 0.83959 0.10905 0.0
C412 C 0.70764 0.8408 0.12984 0.0
C413 C 0.68906 0.85163 0.14163 0.0
C414 C 0.66765 0.8626 0.13236 0.0
C415 C 0.66361 0.86119 0.11154 0.0
P416 P 0.25124 0.7753 0.11259 0.0
H417 H 0.2394 0.70844 0.09445 0.0
H418 H 0.19001 0.65999 0.07409 0.0
H419 H 0.1368 0.71904 0.07385 0.0
H420 H 0.18617 0.76734 0.09451 0.0
H421 H 0.32649 0.81503 0.11665 0.0
H422 H 0.36854 0.85555 0.09599 0.0
H423 H 0.28531 0.84743 0.05591 0.0
H424 H 0.24311 0.80624 0.07657 0.0
H425 H 0.19131 0.74276 0.13495 0.0
H426 H 0.27598 0.84664 0.1312 0.0
O427 O 0.27118 0.75786 0.1252 0.0
H428 H 0.17153 0.76471 0.16236 0.0
H429 H 0.25613 0.86882 0.15878 0.0
C430 C 0.21599 0.74102 0.09635 0.0
C431 C 0.21711 0.71096 0.09004 0.0
C432 C 0.18899 0.6834 0.07834 0.0
C433 C 0.15942 0.68562 0.07272 0.0
C434 C 0.15897 0.71639 0.0784 0.0
C435 C 0.18716 0.74398 0.09009 0.0
C436 C 0.2817 0.80716 0.09795 0.0
C437 C 0.31721 0.82186 0.10341 0.0
C438 C 0.34123 0.8451 0.09162 0.0
C439 C 0.33018 0.85426 0.07417 0.0
C440 C 0.29452 0.84021 0.06901 0.0
C441 C 0.27044 0.81689 0.08088 0.0
C442 C 0.23471 0.79317 0.13077 0.0
C443 C 0.2052 0.77046 0.13972 0.0
C444 C 0.19389 0.783 0.15539 0.0
C445 C 0.21231 0.81843 0.16268 0.0
C446 C 0.24159 0.84134 0.15349 0.0
C447 C 0.25281 0.82874 0.13767 0.0
P448 P 0.19721 0.38933 0.08648 0.0
H449 H 0.17178 0.39247 0.0464 0.0
H450 H 0.13359 0.413 0.0336 0.0
H451 H 0.12291 0.44206 0.09411 0.0
H452 H 0.16336 0.42387 0.10674 0.0
H453 H 0.26035 0.38853 0.09945 0.0
H454 H 0.31806 0.41606 0.08797 0.0
H455 H 0.2879 0.47075 0.04763 0.0
H456 H 0.23175 0.44577 0.06045 0.0
H457 H 0.13809 0.33954 0.10497 0.0
H458 H 0.24226 0.4209 0.12484 0.0
O459 O 0.18253 0.35064 0.07345 0.0
H460 H 0.12816 0.32515 0.13927 0.0
H461 H 0.23321 0.40526 0.15916 0.0
C462 C 0.17019 0.40631 0.0775 0.0
C463 C 0.1614 0.40349 0.05691 0.0
C464 C 0.13913 0.41479 0.04963 0.0
C465 C 0.12423 0.42817 0.06285 0.0
C466 C 0.13376 0.43173 0.08351 0.0
C467 C 0.15676 0.42112 0.09077 0.0
C468 C 0.24173 0.41554 0.08123 0.0
C469 C 0.26665 0.4076 0.08876 0.0
C470 C 0.29954 0.42298 0.08191 0.0
C471 C 0.30791 0.44584 0.06686 0.0
C472 C 0.283 0.45418 0.05962 0.0
C473 C 0.25044 0.43945 0.06685 0.0
C474 C 0.19111 0.38076 0.11226 0.0
C475 C 0.15895 0.35417 0.11673 0.0
C476 C 0.15334 0.34588 0.13636 0.0
C477 C 0.17989 0.36391 0.15202 0.0
C478 C 0.212 0.39115 0.14755 0.0
C479 C 0.21741 0.39979 0.12785 0.0
P480 P 0.47508 0.96435 0.27727 0.0
H481 H 0.45202 0.96735 0.31635 0.0
H482 H 0.39502 0.94366 0.32854 0.0
H483 H 0.34719 0.89243 0.26953 0.0
H484 H 0.40465 0.91729 0.25726 0.0
H485 H 0.54806 0.98632 0.28449 0.0
H486 H 0.57899 0.95635 0.29479 0.0
H487 H 0.48169 0.86011 0.29295 0.0
H488 H 0.45077 0.89061 0.28311 0.0
H489 H 0.47429 0.01859 0.25538 0.0
H490 H 0.47578 0.9232 0.24131 0.0
O491 O 0.49795 0.00403 0.28968 0.0
H492 H 0.48209 0.03159 0.22061 0.0
H493 H 0.48365 0.93619 0.20637 0.0
C494 C 0.43251 0.94469 0.28583 0.0
C495 C 0.42927 0.95115 0.30599 0.0
C496 C 0.39664 0.93739 0.31298 0.0
C497 C 0.36647 0.91655 0.29997 0.0
C498 C 0.36986 0.90913 0.27983 0.0
C499 C 0.40267 0.92312 0.27282 0.0
C500 C 0.49712 0.94088 0.28354 0.0
C501 C 0.53336 0.95878 0.28636 0.0
C502 C 0.55103 0.94157 0.29211 0.0
C503 C 0.53278 0.90598 0.29501 0.0
C504 C 0.49643 0.88774 0.29135 0.0
C505 C 0.47874 0.90508 0.28564 0.0
C506 C 0.4752 0.97033 0.25101 0.0
C507 C 0.47602 1.0003 0.24477 0.0
C508 C 0.48064 0.00779 0.22493 0.0
C509 C 0.48423 0.98527 0.21093 0.0
C510 C 0.48122 0.95411 0.21692 0.0
C511 C 0.47679 0.94672 0.23686 0.0
P512 P 0.14698 0.56876 0.25405 0.0
H513 H 0.1726 0.5991 0.29534 0.0
H514 H 0.1718 0.64656 0.31541 0.0
H515 H 0.11931 0.66263 0.26477 0.0
H516 H 0.11881 0.61452 0.24516 0.0
H517 H 0.16641 0.51541 0.24938 0.0
H518 H 0.15811 0.46766 0.26908 0.0
H519 H 0.09894 0.49332 0.30826 0.0
H520 H 0.10659 0.54064 0.28822 0.0
H521 H 0.15536 0.58822 0.2134 0.0
H522 H 0.07227 0.52057 0.24689 0.0
O523 O 0.18706 0.58545 0.24726 0.0
H524 H 0.11385 0.57486 0.18441 0.0
H525 H 0.03041 0.50717 0.21778 0.0
C526 C 0.14489 0.60255 0.26897 0.0
C527 C 0.16026 0.61237 0.28873 0.0
C528 C 0.15997 0.63958 0.30012 0.0
C529 C 0.14488 0.65784 0.29176 0.0
C530 C 0.13004 0.64828 0.27184 0.0
C531 C 0.13001 0.62085 0.26055 0.0
C532 C 0.13812 0.5322 0.26777 0.0
C533 C 0.15152 0.51068 0.26215 0.0
C534 C 0.14665 0.48338 0.27332 0.0
C535 C 0.12836 0.47734 0.29029 0.0
C536 C 0.11363 0.49797 0.2954 0.0
C537 C 0.11812 0.525 0.28403 0.0
C538 C 0.1169 0.55483 0.2321 0.0
C539 C 0.12823 0.57008 0.21441 0.0
C540 C 0.10448 0.5628 0.19797 0.0
C541 C 0.06897 0.54042 0.19904 0.0
C542 C 0.05769 0.52455 0.21665 0.0
C543 C 0.08153 0.53201 0.23318 0.0
P544 P 0.46152 0.49524 0.28087 0.0
H545 H 0.45468 0.54079 0.31147 0.0
H546 H 0.48704 0.60382 0.32034 0.0
H547 H 0.55122 0.61509 0.27251 0.0
H548 H 0.51797 0.55233 0.2632 0.0
H549 H 0.42155 0.433 0.30108 0.0
H550 H 0.36402 0.40686 0.31288 0.0
H551 H 0.34793 0.48592 0.28812 0.0
H552 H 0.40571 0.51212 0.27631 0.0
H553 H 0.50458 0.47461 0.25948 0.0
H554 H 0.4221 0.49599 0.2447 0.0
O555 O 0.48394 0.4812 0.29427 0.0
H556 H 0.51231 0.46973 0.22403 0.0
H557 H 0.42987 0.49121 0.20916 0.0
C558 C 0.48313 0.54189 0.28627 0.0
C559 C 0.47504 0.55688 0.30252 0.0
C560 C 0.49374 0.59289 0.30768 0.0
C561 C 0.52134 0.61448 0.29692 0.0
C562 C 0.52944 0.59933 0.28068 0.0
C563 C 0.51051 0.56335 0.27543 0.0
C564 C 0.41801 0.47468 0.28798 0.0
C565 C 0.40566 0.44467 0.29809 0.0
C566 C 0.37285 0.42981 0.30488 0.0
C567 C 0.35164 0.44445 0.30146 0.0
C568 C 0.36366 0.47395 0.2908 0.0
C569 C 0.39662 0.48892 0.28408 0.0
C570 C 0.46229 0.48498 0.25472 0.0
C571 C 0.48752 0.47737 0.2486 0.0
C572 C 0.49212 0.47485 0.22836 0.0
C573 C 0.47156 0.47991 0.2139 0.0
C574 C 0.44563 0.48658 0.22 0.0
C575 C 0.44117 0.48928 0.2403 0.0
Eu576 Eu 0.48575 0.96862 0.99175 0.0
Eu577 Eu 0.51351 0.01983 0.03488 0.0
C578 C 0.47957 0.03737 0.9974 0.0
C579 C 0.47464 0.94687 0.93603 0.0
C580 C 0.48184 0.98065 0.93255 0.0
C581 C 0.4841 0.93718 0.90154 0.0
C582 C 0.48966 0.99243 0.91368 0.0
C583 C 0.47596 0.92528 0.9204 0.0
C584 C 0.49101 0.97089 0.89799 0.0
C585 C 0.46703 0.93473 0.95607 0.0
O586 O 0.4708 0.96771 0.0409 0.0
O587 O 0.43986 0.94856 1.01012 0.0
C588 C 0.44172 0.94803 0.02965 0.0
O589 O 0.50205 0.94076 0.01282 0.0
O590 O 0.50079 0.04484 0.05926 0.0
O591 O 0.55133 0.04923 0.06063 0.0
O592 O 0.54059 0.98843 0.0343 0.0
C593 C 0.52868 0.95618 0.02651 0.0
O594 O 0.54262 0.00636 0.99112 0.0
O595 O 0.55211 0.05173 0.01395 0.0
O596 O 0.48066 0.036 0.01681 0.0
O597 O 0.49333 0.93846 0.96762 0.0
O598 O 0.44773 0.94394 0.96567 0.0
O599 O 0.48763 0.01846 0.98565 0.0
C600 C 0.52549 0.04465 0.09091 0.0
C601 C 0.51902 0.01149 0.09529 0.0
C602 C 0.52005 0.0581 0.12557 0.0
C603 C 0.51332 1.0018 0.11475 0.0
C604 C 0.5259 0.06781 0.10616 0.0
C605 C 0.51391 0.02506 0.13015 0.0
C606 C 0.52955 0.0545 0.07031 0.0
C607 C 0.56164 0.03887 0.99906 0.0
H608 H 0.48151 0.998 0.94444 0.0
H609 H 0.48451 0.91987 0.88964 0.0
H610 H 0.49501 0.01855 0.9114 0.0
H611 H 0.47071 0.89923 0.9228 0.0
H612 H 0.51809 0.99302 0.08363 0.0
H613 H 0.51971 0.07626 0.13693 0.0
H614 H 0.5086 0.97617 0.11778 0.0
H615 H 0.53023 0.09326 0.10298 0.0
Eu616 Eu 0.01403 0.50465 0.99166 0.0
Eu617 Eu 0.97146 0.49199 0.03136 0.0
C618 C 0.94511 0.43302 0.99415 0.0
C619 C 0.04261 0.51673 0.93851 0.0
C620 C 0.01209 0.49102 0.92728 0.0
C621 C 0.06402 0.54386 0.90826 0.0
C622 C 0.00784 0.4915 0.9066 0.0
C623 C 0.06839 0.54323 0.92889 0.0
C624 C 0.03391 0.51779 0.89693 0.0
C625 C 0.04832 0.51638 0.96017 0.0
O626 O 0.0192 0.48913 0.04094 0.0
O627 O 0.02696 0.47104 1.01005 0.0
C628 C 0.03207 0.47408 0.02963 0.0
O629 O 0.05149 0.54385 0.01628 0.0
O630 O 0.94703 0.46039 0.05547 0.0
O631 O 0.94576 0.50814 0.05264 0.0
O632 O 0.01195 0.54895 0.03404 0.0
C633 C 0.04382 0.56128 0.02949 0.0
O634 O 0.98347 0.53257 0.98909 0.0
O635 O 0.93882 0.49758 1.00674 0.0
O636 O 0.94992 0.43983 0.01368 0.0
O637 O 0.04753 0.54081 0.97151 0.0
O638 O 0.03277 0.48615 0.96728 0.0
O639 O 0.96194 0.45732 0.98237 0.0
C640 C 0.95469 0.49493 0.0849 0.0
C641 C 0.98958 0.52051 0.08937 0.0
C642 C 0.94981 0.48727 0.12017 0.0
C643 C 1.00451 0.52945 0.10907 0.0
C644 C 0.93475 0.47851 0.10037 0.0
C645 C 0.98487 0.51273 0.12464 0.0
C646 C 0.94047 0.48341 0.06396 0.0
C647 C 0.95178 0.52079 0.99389 0.0
H648 H 0.99167 0.47053 0.93444 0.0
H649 H 0.08445 0.56435 0.90108 0.0
H650 H 0.98416 0.47143 0.89817 0.0
H651 H 0.09204 0.56332 0.93734 0.0
H652 H 1.00556 0.53276 0.07753 0.0
H653 H 0.93429 0.47387 0.13195 0.0
H654 H 0.03181 0.54848 0.11205 0.0
H655 H 0.90789 0.45834 0.09708 0.0
Eu656 Eu 0.51416 0.50333 0.0369 0.0
Eu657 Eu 0.48309 0.51346 0.99373 0.0
C658 C 0.51959 0.57562 0.02929 0.0
C659 C 0.52454 0.49111 0.09222 0.0
C660 C 0.53245 0.52145 0.10447 0.0
C661 C 0.49709 0.45645 0.11933 0.0
C662 C 0.52276 0.51925 0.12394 0.0
C663 C 0.50697 0.45863 0.09991 0.0
C664 C 0.50484 0.48673 0.13149 0.0
C665 C 0.53467 0.49281 0.0716 0.0
O666 O 0.53351 0.5158 0.98815 0.0
O667 O 0.56056 0.53419 0.02008 0.0
C668 C 0.56174 0.53086 1.00065 0.0
O669 O 0.51198 0.46272 0.01444 0.0
O670 O 0.48738 0.54523 0.96937 0.0
O671 O 0.4443 0.49264 0.96783 0.0
O672 O 0.46625 0.45663 0.99422 0.0
C673 C 0.48646 0.4448 1.00043 0.0
O674 O 0.45615 0.47754 0.03672 0.0
O675 O 0.44564 0.51074 0.0157 0.0
O676 O 0.51625 0.56679 1.01001 0.0
O677 O 0.51266 0.46776 0.05832 0.0
O678 O 0.54877 0.52315 0.06455 0.0
O679 O 0.51158 0.55246 0.04224 0.0
C680 C 0.47058 0.51208 0.93832 0.0
C681 C 0.49169 0.497 0.93695 0.0
C682 C 0.47037 0.51644 0.90252 0.0
C683 C 0.50236 0.49201 0.91856 0.0
C684 C 0.45984 0.52165 0.92102 0.0
C685 C 0.49194 0.50179 0.90118 0.0
C686 C 0.46179 0.51956 0.95803 0.0
C687 C 0.43666 0.48997 0.03005 0.0
H688 H 0.54613 0.54692 0.09906 0.0
H689 H 0.48392 0.43113 0.12497 0.0
H690 H 0.5291 0.54298 0.13309 0.0
H691 H 0.50092 0.43487 0.09091 0.0
H692 H 0.5003 0.4895 0.95016 0.0
H693 H 0.46227 0.52449 0.88936 0.0
H694 H 0.51876 0.48043 0.9179 0.0
H695 H 0.44379 0.53359 0.92186 0.0
Eu696 Eu 0.14359 0.30703 0.32543 0.0
Eu697 Eu 0.17018 0.35157 0.37016 0.0
C698 C 0.13695 0.37461 0.33537 0.0
C699 C 0.13356 0.28969 0.26896 0.0
C700 C 0.12796 0.31676 0.26348 0.0
C701 C 0.15675 0.28935 0.23716 0.0
C702 C 0.13646 0.3298 0.24494 0.0
C703 C 0.14796 0.27611 0.25561 0.0
C704 C 0.15122 0.31643 0.2316 0.0
C705 C 0.12647 0.27667 0.28886 0.0
O706 O 0.11315 0.31359 0.36925 0.0
O707 O 0.1083 0.27072 0.34645 0.0
C708 C 0.09723 0.28082 0.36177 0.0
O709 O 0.18229 0.29502 0.34032 0.0
O710 O 0.16181 0.38006 0.39479 0.0
O711 O 0.20611 0.37243 0.39724 0.0
O712 O 0.17316 0.30278 0.37275 0.0
C713 C 0.18537 0.29043 0.35921 0.0
O714 O 0.18994 0.35841 0.32122 0.0
O715 O 0.21739 0.37213 0.35297 0.0
O716 O 0.16216 0.38583 0.34978 0.0
O717 O 0.15331 0.28105 0.3001 0.0
O718 O 0.10603 0.28344 0.299 0.0
O719 O 0.12036 0.34187 0.3278 0.0
C720 C 0.17892 0.37078 0.4265 0.0
C721 C 0.16451 0.33534 0.42938 0.0
C722 C 0.17695 0.38389 0.46177 0.0
C723 C 0.15664 0.32428 0.4484 0.0
C724 C 0.18495 0.39493 0.44278 0.0
C725 C 0.16273 0.34844 0.46482 0.0
C726 C 0.18736 0.38268 0.40657 0.0
C727 C 0.21815 0.37522 0.33364 0.0
H728 H 0.11712 0.32795 0.27352 0.0
H729 H 0.1682 0.27857 0.22729 0.0
H730 H 0.13103 0.35004 0.24096 0.0
H731 H 0.15282 0.25547 0.25957 0.0
H732 H 0.15958 0.31627 0.41694 0.0
H733 H 0.18176 0.40309 0.47409 0.0
H734 H 0.14638 0.29694 0.45031 0.0
H735 H 0.19587 0.42234 0.4408 0.0
Eu736 Eu 0.67948 0.83355 0.3228 0.0
Eu737 Eu 0.63883 0.81945 0.36333 0.0
C738 C 0.61281 0.76046 0.32635 0.0
C739 C 0.70664 0.84693 0.26923 0.0
C740 C 0.6753 0.82269 0.25813 0.0
C741 C 0.72916 0.87309 0.23893 0.0
C742 C 0.67117 0.82336 0.23746 0.0
C743 C 0.73335 0.87229 0.25955 0.0
C744 C 0.69823 0.84835 0.22769 0.0
C745 C 0.71245 0.84608 0.29079 0.0
O746 O 0.68767 0.81842 0.37237 0.0
O747 O 0.69804 0.80399 0.34128 0.0
C748 C 0.70321 0.8066 0.36089 0.0
O749 O 0.71721 0.87428 0.34674 0.0
O750 O 0.61349 0.78566 0.3864 0.0
O751 O 0.61474 0.83502 0.38604 0.0
O752 O 0.67888 0.87664 0.36697 0.0
C753 C 0.71002 0.89038 0.36102 0.0
O754 O 0.64643 0.85888 0.32021 0.0
O755 O 0.6046 0.82499 0.33976 0.0
O756 O 0.61955 0.76751 0.34581 0.0
O757 O 0.71158 0.87018 0.30243 0.0
O758 O 0.69721 0.81561 0.29766 0.0
O759 O 0.62793 0.78489 0.31438 0.0
C760 C 0.6231 0.81784 0.41707 0.0
C761 C 0.65897 0.83306 0.42135 0.0
C762 C 0.61672 0.81956 0.45258 0.0
C763 C 0.67363 0.84109 0.44107 0.0
C764 C 0.60197 0.81117 0.43271 0.0
C765 C 0.65271 0.83443 0.4569 0.0
C766 C 0.60833 0.80868 0.3962 0.0
C767 C 0.61543 0.84716 0.32621 0.0
H768 H 0.65421 0.80312 0.26539 0.0
H769 H 0.75036 0.89255 0.2317 0.0
H770 H 0.64688 0.80437 0.2291 0.0
H771 H 0.75765 0.89125 0.26792 0.0
H772 H 0.67564 0.83854 0.4094 0.0
H773 H 0.60011 0.81477 0.46451 0.0
H774 H 0.70138 0.85227 0.44394 0.0
H775 H 0.57421 0.79955 0.42957 0.0
Eu776 Eu 0.1884 0.84113 0.37036 0.0
Eu777 Eu 0.15484 0.85216 0.32833 0.0
C778 C 0.19298 0.91358 0.36432 0.0
C779 C 0.20036 0.82968 0.42495 0.0
C780 C 0.18869 0.85205 0.43216 0.0
C781 C 0.19148 0.80444 0.45658 0.0
C782 C 0.17901 0.85099 0.45159 0.0
C783 C 0.20147 0.80574 0.43722 0.0
C784 C 0.18051 0.82729 0.46397 0.0
C785 C 0.20995 0.82993 0.40443 0.0
O786 O 0.20521 0.85587 0.32116 0.0
O787 O 0.23413 0.86991 0.35267 0.0
C788 C 0.23397 0.86831 0.33307 0.0
O789 O 0.18496 0.80093 0.34718 0.0
O790 O 0.15717 0.88519 0.30501 0.0
O791 O 0.11592 0.8316 0.3025 0.0
O792 O 0.13845 0.79512 0.32788 0.0
C793 C 0.15871 0.78306 0.33362 0.0
O794 O 0.13073 0.81585 0.3717 0.0
O795 O 0.11724 0.84716 0.35073 0.0
O796 O 0.18834 0.90535 0.34492 0.0
O797 O 0.1865 0.80511 0.39159 0.0
O798 O 0.2248 0.86013 0.39719 0.0
O799 O 0.1857 0.88989 0.37681 0.0
C800 C 0.14225 0.85397 0.27346 0.0
C801 C 0.16211 0.83761 0.27154 0.0
C802 C 0.14583 0.86362 0.23831 0.0
C803 C 0.17401 0.83454 0.25325 0.0
C804 C 0.13402 0.86685 0.25674 0.0
C805 C 0.16639 0.84789 0.23651 0.0
C806 C 0.13246 0.85946 0.29325 0.0
C807 C 0.11013 0.82738 0.36554 0.0
H808 H 0.18697 0.87026 0.42278 0.0
H809 H 0.19286 0.78601 0.46591 0.0
H810 H 0.17019 0.86852 0.45693 0.0
H811 H 0.21003 0.78803 0.4318 0.0
H812 H 0.16874 0.8275 0.28429 0.0
H813 H 0.13949 0.87396 0.22558 0.0
H814 H 0.18912 0.82158 0.25217 0.0
H815 H 0.11891 0.87977 0.25801 0.0
Eu816 Eu 0.8168 0.64039 0.65803 0.0
Eu817 Eu 0.8451 0.68674 0.70228 0.0
C818 C 0.81382 0.71 0.66685 0.0
C819 C 0.80408 0.6234 0.60193 0.0
C820 C 0.81754 0.65919 0.60048 0.0
C821 C 0.80683 0.61485 0.56623 0.0
C822 C 0.82538 0.6727 0.58201 0.0
C823 C 0.79871 0.60132 0.58469 0.0
C824 C 0.82052 0.65076 0.56468 0.0
C825 C 0.79749 0.6095 0.62154 0.0
O826 O 0.78761 0.65116 0.70128 0.0
O827 O 0.78058 0.6061 0.6795 0.0
C828 C 0.77037 0.61806 0.69447 0.0
O829 O 0.85252 0.62513 0.67342 0.0
O830 O 0.83873 0.71766 0.72635 0.0
O831 O 0.88102 0.70696 0.72944 0.0
O832 O 0.84562 0.6369 0.70581 0.0
C833 C 0.85576 0.62188 0.69252 0.0
O834 O 0.8651 0.69004 0.65333 0.0
O835 O 0.89208 0.70479 0.68526 0.0
O836 O 0.83924 0.72128 0.68113 0.0
O837 O 0.82465 0.61361 0.6323 0.0
O838 O 0.77802 0.617 0.63214 0.0
O839 O 0.79553 0.67681 0.66046 0.0
C840 C 0.8542 0.70775 0.75837 0.0
C841 C 0.82431 0.676 0.7605 0.0
C842 C 0.86785 0.71716 0.79442 0.0
C843 C 0.81603 0.66509 0.77949 0.0
C844 C 0.87587 0.72827 0.77543 0.0
C845 C 0.83792 0.68542 0.7966 0.0
C846 C 0.86341 0.71902 0.73841 0.0
C847 C 0.89318 0.70693 0.6659 0.0
H848 H 0.82224 0.67675 0.61367 0.0
H849 H 0.80292 0.59729 0.55319 0.0
H850 H 0.83508 0.7003 0.5813 0.0
H851 H 0.78867 0.57369 0.58556 0.0
H852 H 0.80759 0.65954 0.74745 0.0
H853 H 0.88494 0.73343 0.80742 0.0
H854 H 0.79291 0.64046 0.7808 0.0
H855 H 0.89911 0.75277 0.77406 0.0
Eu856 Eu 0.34834 0.16569 0.65681 0.0
Eu857 Eu 0.30725 0.1533 0.69715 0.0
C858 C 0.28212 0.09264 0.66136 0.0
C859 C 0.37614 0.18022 0.60354 0.0
C860 C 0.34376 0.1589 0.59263 0.0
C861 C 0.39939 0.20717 0.57355 0.0
C862 C 0.33936 0.16153 0.57221 0.0
C863 C 0.40383 0.20439 0.59391 0.0
C864 C 0.36712 0.18577 0.56253 0.0
C865 C 0.38173 0.17803 0.62495 0.0
O866 O 0.35601 0.15246 0.70669 0.0
O867 O 0.36636 0.13644 0.67595 0.0
C868 C 0.3715 0.14005 0.69559 0.0
O869 O 0.38574 0.20662 0.6808 0.0
O870 O 0.27716 0.11905 0.71897 0.0
O871 O 0.28904 0.17276 0.72156 0.0
O872 O 0.34584 0.21068 0.69865 0.0
C873 C 0.37774 0.22354 0.69411 0.0
O874 O 0.31459 0.19023 0.65348 0.0
O875 O 0.27237 0.15651 0.67299 0.0
O876 O 0.28912 0.1008 0.68074 0.0
O877 O 0.38208 0.20234 0.63702 0.0
O878 O 0.36511 0.14725 0.63136 0.0
O879 O 0.29736 0.11608 0.64885 0.0
C880 C 0.29375 0.14933 0.75107 0.0
C881 C 0.32145 0.14323 0.75482 0.0
C882 C 0.30127 0.1719 0.78585 0.0
C883 C 0.33919 0.15183 0.77379 0.0
C884 C 0.28339 0.16324 0.76675 0.0
C885 C 0.32982 0.16702 0.78932 0.0
C886 C 0.27826 0.14438 0.73047 0.0
C887 C 0.28308 0.17755 0.65886 0.0
H888 H 0.32199 0.14024 0.59986 0.0
H889 H 0.42132 0.22562 0.56635 0.0
H890 H 0.31425 0.14478 0.56397 0.0
H891 H 0.42898 0.22102 0.60214 0.0
H892 H 0.33005 0.13265 0.74295 0.0
H893 H 0.29367 0.18358 0.7977 0.0
H894 H 0.36077 0.14731 0.77626 0.0
H895 H 0.26225 0.16836 0.76407 0.0
Eu896 Eu 0.84815 0.1729 0.7054 0.0
Eu897 Eu 0.81716 0.18344 0.66231 0.0
C898 C 0.8523 0.24454 0.6988 0.0
C899 C 0.86262 0.16342 0.76042 0.0
C900 C 0.85115 0.18573 0.76801 0.0
C901 C 0.85698 0.13958 0.7924 0.0
C902 C 0.84312 0.18529 0.78779 0.0
C903 C 0.86531 0.14025 0.77269 0.0
C904 C 0.8461 0.1623 0.80015 0.0
C905 C 0.87079 0.16311 0.73962 0.0
O906 O 0.86641 0.18321 0.65673 0.0
O907 O 0.894 0.20433 0.68828 0.0
C908 C 0.89493 0.19928 0.66895 0.0
O909 O 0.84374 0.13099 0.68305 0.0
O910 O 0.82512 0.21487 0.63729 0.0
O911 O 0.77751 0.16582 0.63705 0.0
O912 O 0.79922 0.12632 0.66229 0.0
C913 C 0.81823 0.11345 0.66897 0.0
O914 O 0.79063 0.14909 0.70681 0.0
O915 O 0.77752 0.17765 0.68341 0.0
O916 O 0.84918 0.23653 0.67942 0.0
O917 O 0.84681 0.13789 0.7272 0.0
O918 O 0.88499 0.193 0.73206 0.0
O919 O 0.8435 0.22057 0.71122 0.0
C920 C 0.80307 0.17997 0.60676 0.0
C921 C 0.81095 0.15304 0.60455 0.0
C922 C 0.81261 0.18997 0.57198 0.0
C923 C 0.81937 0.1445 0.58621 0.0
C924 C 0.80384 0.19832 0.59036 0.0
C925 C 0.82045 0.16296 0.56976 0.0
C926 C 0.7973 0.19084 0.62658 0.0
C927 C 0.76958 0.15864 0.69861 0.0
H928 H 0.84833 0.20339 0.75866 0.0
H929 H 0.85951 0.12169 0.80169 0.0
H930 H 0.83433 0.20271 0.7934 0.0
H931 H 0.87383 0.12266 0.767 0.0
H932 H 0.81142 0.13918 0.61717 0.0
H933 H 0.81344 0.20468 0.55954 0.0
H934 H 0.82607 0.12411 0.58505 0.0
H935 H 0.79837 0.21954 0.59188 0.0
C936 C 0.38464 0.90977 0.07124 0.0
C937 C 0.35629 0.8789 0.06182 0.0
C938 C 0.41145 0.93214 0.0605 0.0
C939 C 0.41111 0.92471 0.03981 0.0
H940 H 0.38638 0.91651 0.08717 0.0
H941 H 0.43287 0.95535 0.06864 0.0
S942 S 0.34222 0.84748 1.00792 0.0
N943 N 0.32894 0.84216 0.03052 0.0
N944 N 0.37938 0.88462 1.01017 0.0
C945 C 0.38235 0.89448 0.03001 0.0
C946 C 0.35494 0.8715 0.04104 0.0
C947 C 0.10104 0.46971 0.06287 0.0
C948 C 0.09897 0.43844 0.05503 0.0
C949 C 0.07854 0.48063 0.05503 0.0
C950 C 0.05358 0.46096 0.03888 0.0
H951 H 0.12075 0.48636 0.07481 0.0
H952 H 0.08149 0.50521 0.06119 0.0
S953 S 0.03422 0.37514 0.01463 0.0
N954 N 0.06699 0.38615 0.03162 0.0
N955 N 0.02603 0.40762 0.01636 0.0
C956 C 0.05048 0.42926 0.03129 0.0
C957 C 0.07283 0.41777 0.03949 0.0
C958 C 0.5769 0.66054 0.06157 0.0
C959 C 0.57945 0.68566 0.04892 0.0
C960 C 0.55603 0.62484 0.05551 0.0
C961 C 0.5371 0.61304 0.03654 0.0
H962 H 0.592 0.6685 0.07601 0.0
H963 H 0.55594 0.60644 0.06543 0.0
S964 S 0.5313 0.6684 0.99901 0.0
N965 N 0.55857 0.69641 0.01751 0.0
N966 N 0.51973 0.62932 1.00593 0.0
C967 C 0.53822 0.63793 0.02414 0.0
C968 C 0.55933 0.67424 0.03036 0.0
C969 C 0.8794 0.33693 0.99153 0.0
C970 C 0.88239 0.32373 0.97272 0.0
C971 C 0.89875 0.37254 0.9979 0.0
C972 C 0.92192 0.39643 0.98572 0.0
H973 H 0.8623 0.31947 1.00155 0.0
H974 H 0.89599 0.38124 0.01272 0.0
S975 S 0.9385 0.37509 0.93481 0.0
N976 N 0.90957 0.33716 0.9417 0.0
N977 N 0.94591 0.40437 0.9536 0.0
C978 C 0.92426 0.38374 0.96654 0.0
C979 C 0.90451 0.34732 0.96006 0.0
C980 C 0.63135 0.5394 0.96774 0.0
C981 C 0.661 0.57003 0.97655 0.0
C982 C 0.59926 0.52699 0.97553 0.0
C983 C 0.59572 0.5444 0.9926 0.0
H984 H 0.63301 0.52458 0.95489 0.0
H985 H 0.5772 0.50324 0.96832 0.0
S986 S 0.66403 0.62758 0.02003 0.0
N987 N 0.68364 0.6191 1.00228 0.0
N988 N 0.62374 0.59491 0.01731 0.0
C989 C 0.62487 0.57525 1.00139 0.0
C990 C 0.65738 0.58826 0.99327 0.0
C991 C 0.45981 0.08345 0.95777 0.0
C992 C 0.46818 0.11553 0.96808 0.0
C993 C 0.46173 0.05758 0.96769 0.0
C994 C 0.47212 0.06279 0.98833 0.0
H995 H 0.45276 0.07872 0.94176 0.0
H996 H 0.45604 0.03371 0.95895 0.0
S997 S 0.49471 0.14156 0.02239 0.0
N998 N 0.48554 0.15062 1.00019 0.0
N999 N 0.48893 0.10176 0.01898 0.0
C1000 C 0.47871 0.09402 0.99905 0.0
C1001 C 0.47681 0.12048 0.98889 0.0
C1002 C 0.63449 0.06737 0.96556 0.0
C1003 C 0.66162 0.09759 0.97636 0.0
C1004 C 0.60205 0.04932 0.97279 0.0
C1005 C 0.5954 0.06067 0.99117 0.0
H1006 H 0.63846 0.05739 0.95147 0.0
H1007 H 0.58217 0.02595 0.96394 0.0
S1008 S 0.65801 0.13872 0.02514 0.0
N1009 N 0.67992 0.13843 1.00624 0.0
N1010 N 0.6188 0.10464 0.01985 0.0
C1011 C 0.62212 0.09143 1.0019 0.0
C1012 C 0.65525 0.10984 0.9945 0.0
C1013 C 0.87488 0.52656 0.97194 0.0
C1014 C 0.88911 0.56244 0.96996 0.0
C1015 C 0.89529 0.51322 0.97969 0.0
C1016 C 0.93084 0.53513 0.98537 0.0
H1017 H 0.84774 0.50854 0.96739 0.0
H1018 H 0.88324 0.4855 0.98105 0.0
S1019 S 0.98052 0.6311 0.98473 0.0
N1020 N 0.94083 0.61987 0.97577 0.0
N1021 N 0.97931 0.59438 0.98933 0.0
C1022 C 0.94551 0.57092 0.98347 0.0
C1023 C 0.92464 0.58467 0.97601 0.0
C1024 C 0.49532 0.36473 0.99076 0.0
C1025 C 0.47933 0.35169 0.9712 0.0
C1026 C 0.49665 0.39435 1.0003 0.0
C1027 C 0.48199 0.41194 0.99063 0.0
H1028 H 0.50725 0.35216 0.99866 0.0
H1029 H 0.50965 0.40373 0.0153 0.0
S1030 S 0.43809 0.38875 0.939 0.0
N1031 N 0.44913 0.35879 0.94227 0.0
N1032 N 0.45124 0.41428 0.96024 0.0
C1033 C 0.46539 0.39879 0.97114 0.0
C1034 C 0.46416 0.36869 0.96142 0.0
C1035 C 0.13344 0.63899 0.0441 0.0
C1036 C 0.12902 0.65546 0.06125 0.0
C1037 C 0.10555 0.60908 0.03372 0.0
C1038 C 0.0721 0.59439 0.04008 0.0
H1039 H 0.15876 0.64918 0.03875 0.0
H1040 H 0.11047 0.59721 0.0207 0.0
S1041 S 0.04711 0.62774 0.0844 0.0
N1042 N 0.08896 0.65504 0.08435 0.0
N1043 N 0.03624 0.59913 0.06468 0.0
C1044 C 0.06722 0.61108 0.05705 0.0
C1045 C 0.09574 0.64153 0.06767 0.0
C1046 C 0.35379 0.43527 0.05368 0.0
C1047 C 0.34126 0.45839 0.05766 0.0
C1048 C 0.38453 0.44575 0.04469 0.0
C1049 C 0.40372 0.47957 0.03888 0.0
H1050 H 0.33952 0.40857 0.05728 0.0
H1051 H 0.39309 0.42699 0.04202 0.0
S1052 S 0.38399 0.55109 0.04693 0.0
N1053 N 0.35208 0.51767 0.05608 0.0
N1054 N 0.40903 0.5367 0.03834 0.0
C1055 C 0.39171 0.50305 0.04268 0.0
C1056 C 0.36071 0.49263 0.05224 0.0
C1057 C 0.59291 0.93767 0.05464 0.0
C1058 C 0.58627 0.90576 0.04492 0.0
C1059 C 0.57365 0.95328 0.04881 0.0
C1060 C 0.54705 0.93768 0.03293 0.0
H1061 H 0.61304 0.95058 0.06696 0.0
H1062 H 0.57991 0.97793 0.05681 0.0
S1063 S 0.5203 0.85422 1.00228 0.0
N1064 N 0.55188 0.85918 0.01852 0.0
N1065 N 0.51546 0.88835 1.00745 0.0
C1066 C 0.54008 0.90557 0.02312 0.0
C1067 C 0.55974 0.88966 0.02914 0.0
C1068 C 0.03049 0.24354 0.39919 0.0
C1069 C 0.01511 0.20734 0.39456 0.0
C1070 C 0.05611 0.2669 0.38808 0.0
C1071 C 0.06766 0.25507 0.37188 0.0
H1072 H 0.0228 0.25393 0.41163 0.0
H1073 H 0.06735 0.29452 0.39253 0.0
S1074 S 0.03564 0.16244 0.35377 0.0
N1075 N 0.01315 0.16052 0.37276 0.0
N1076 N 0.06118 0.20434 0.35174 0.0
C1077 C 0.05201 0.21882 0.36687 0.0
C1078 C 0.02581 0.195 0.37823 0.0
C1079 C 0.77262 0.78073 0.366 0.0
C1080 C 0.77572 0.77713 0.38652 0.0
C1081 C 0.74927 0.79033 0.35796 0.0
C1082 C 0.72793 0.7968 0.37008 0.0
H1083 H 0.78848 0.77613 0.35603 0.0
H1084 H 0.74806 0.79272 0.34206 0.0
S1085 S 0.72535 0.79007 0.42479 0.0
N1086 N 0.75495 0.78006 0.41879 0.0
N1087 N 0.71136 0.79853 0.4038 0.0
C1088 C 0.73092 0.7935 0.39069 0.0
C1089 C 0.75472 0.78362 0.39888 0.0
C1090 C 0.22974 0.01118 0.36532 0.0
C1091 C 0.24661 0.0238 0.38474 0.0
C1092 C 0.21149 0.97542 0.3591 0.0
C1093 C 0.20932 0.95082 0.37208 0.0
H1094 H 0.23083 0.02914 0.35477 0.0
H1095 H 0.1994 0.96709 0.34387 0.0
S1096 S 0.24916 0.97054 0.42458 0.0
N1097 N 0.26019 0.00907 0.41696 0.0
N1098 N 0.22544 0.94175 0.40544 0.0
C1099 C 0.22543 0.96306 0.39174 0.0
C1100 C 0.24419 0.99956 0.39802 0.0
C1101 C 0.55528 0.66241 0.32417 0.0
C1102 C 0.54347 0.65215 0.30379 0.0
C1103 C 0.57733 0.69742 0.33118 0.0
C1104 C 0.58868 0.7238 0.31813 0.0
H1105 H 0.54803 0.64312 0.33479 0.0
H1106 H 0.58587 0.70365 0.34702 0.0
S1107 S 0.56365 0.71079 0.26342 0.0
N1108 N 0.5434 0.67114 0.27066 0.0
N1109 N 0.58539 0.73719 0.28379 0.0
C1110 C 0.57674 0.71398 0.29769 0.0
C1111 C 0.55407 0.67814 0.29054 0.0
C1112 C 0.3258 0.88875 0.3261 0.0
C1113 C 0.33182 0.903 0.3076 0.0
C1114 C 0.29417 0.87762 0.33422 0.0
C1115 C 0.26708 0.87994 0.32409 0.0
H1116 H 0.34577 0.88617 0.33441 0.0
H1117 H 0.29084 0.86687 0.3485 0.0
S1118 S 0.27012 0.91732 0.2759 0.0
N1119 N 0.30838 0.92037 0.2799 0.0
N1120 N 0.24868 0.89863 0.29491 0.0
C1121 C 0.2726 0.89398 0.30556 0.0
C1122 C 0.30496 0.90566 0.29738 0.0
C1123 C 0.11314 0.41609 0.29447 0.0
C1124 C 0.12624 0.45046 0.30298 0.0
C1125 C 0.11488 0.39117 0.30551 0.0
C1126 C 0.13043 0.39992 0.32536 0.0
H1127 H 0.10228 0.40867 0.27898 0.0
H1128 H 0.10539 0.3653 0.29807 0.0
S1129 S 0.16656 0.48613 0.35481 0.0
N1130 N 0.15339 0.49173 0.33263 0.0
N1131 N 0.15713 0.445 0.35344 0.0
C1132 C 0.14237 0.43394 0.33429 0.0
C1133 C 0.14015 0.45919 0.32308 0.0
C1134 C 0.31501 0.42321 0.32977 0.0
C1135 C 0.31746 0.42921 0.3095 0.0
C1136 C 0.28292 0.40704 0.3376 0.0
C1137 C 0.2519 0.3959 0.32542 0.0
H1138 H 0.33815 0.43081 0.33964 0.0
H1139 H 0.28247 0.40237 0.35322 0.0
S1140 S 0.24453 0.40652 0.27128 0.0
N1141 N 0.28647 0.42363 0.27744 0.0
N1142 N 0.22601 0.39329 0.29201 0.0
C1143 C 0.25411 0.40259 0.30516 0.0
C1144 C 0.2869 0.41924 0.29724 0.0
C1145 C 0.58185 0.89367 0.29373 0.0
C1146 C 0.5519 0.88856 0.30234 0.0
C1147 C 0.60177 0.87966 0.30129 0.0
C1148 C 0.59262 0.85993 0.31782 0.0
H1149 H 0.59012 0.90885 0.28108 0.0
H1150 H 0.62472 0.88466 0.29418 0.0
S1151 S 0.51666 0.83943 0.34601 0.0
N1152 N 0.51421 0.86274 0.32844 0.0
N1153 N 0.55119 0.83601 0.34254 0.0
C1154 C 0.56234 0.85416 0.32639 0.0
C1155 C 0.54212 0.86853 0.31869 0.0
C1156 C 0.17837 0.71377 0.31377 0.0
C1157 C 0.14679 0.68835 0.30334 0.0
C1158 C 0.18167 0.74392 0.32383 0.0
C1159 C 0.15357 0.74997 0.32374 0.0
H1160 H 0.20105 0.71083 0.31372 0.0
H1161 H 0.20676 0.76306 0.33129 0.0
S1162 S 0.06439 0.68997 0.30018 0.0
N1163 N 0.08614 0.66989 0.29474 0.0
N1164 N 0.09253 0.72709 0.31333 0.0
C1165 C 0.12159 0.72442 0.31375 0.0
C1166 C 0.11815 0.69349 0.30363 0.0
C1167 C 0.7627 0.96323 0.40249 0.0
C1168 C 0.79487 0.98215 0.39484 0.0
C1169 C 0.73499 0.9342 0.39121 0.0
C1170 C 0.73846 0.9231 0.37186 0.0
H1171 H 0.75928 0.97023 0.41754 0.0
H1172 H 0.71107 0.91976 0.39799 0.0
S1173 S 0.81623 0.96669 0.34418 0.0
N1174 N 0.82777 0.98984 0.3662 0.0
N1175 N 0.77589 0.93534 0.34496 0.0
C1176 C 0.77013 0.94277 0.36376 0.0
C1177 C 0.79827 0.97227 0.37526 0.0
C1178 C 0.01776 0.80484 0.37363 0.0
C1179 C 0.01332 0.79196 0.3925 0.0
C1180 C 0.04931 0.81695 0.36515 0.0
C1181 C 0.07762 0.81656 0.37521 0.0
H1182 H 0.99634 0.80458 0.36506 0.0
H1183 H 0.05116 0.82578 0.35038 0.0
S1184 S 0.08076 0.78989 0.42625 0.0
N1185 N 0.04092 0.78272 0.4218 0.0
N1186 N 0.09998 0.80522 0.406 0.0
C1187 C 0.07389 0.80506 0.39447 0.0
C1188 C 0.04184 0.79282 0.40307 0.0
C1189 C 0.22468 0.24952 0.39198 0.0
C1190 C 0.24557 0.24361 0.37928 0.0
C1191 C 0.20492 0.2642 0.38529 0.0
C1192 C 0.20504 0.27319 0.36557 0.0
H1193 H 0.2241 0.24334 0.40733 0.0
H1194 H 0.18962 0.26871 0.39573 0.0
S1195 S 0.25433 0.26111 0.32614 0.0
N1196 N 0.26432 0.24644 0.34595 0.0
N1197 N 0.22742 0.27413 0.33325 0.0
C1198 C 0.2254 0.26671 0.3526 0.0
C1199 C 0.24564 0.25196 0.35949 0.0
C1200 C 0.69677 0.53415 0.71009 0.0
C1201 C 0.68715 0.54592 0.72713 0.0
C1202 C 0.72298 0.55766 0.69922 0.0
C1203 C 0.74028 0.59386 0.70489 0.0
H1204 H 0.68471 0.50647 0.7055 0.0
H1205 H 0.73022 0.54724 0.68659 0.0
S1206 S 0.72162 0.63781 0.74735 0.0
N1207 N 0.69497 0.59584 0.74844 0.0
N1208 N 0.7435 0.64023 0.72799 0.0
C1209 C 0.72961 0.60592 0.72146 0.0
C1210 C 0.70329 0.58192 0.7326 0.0
C1211 C 0.42716 0.09812 0.70311 0.0
C1212 C 0.44285 0.11071 0.72281 0.0
C1213 C 0.40424 0.10778 0.69452 0.0
C1214 C 0.3958 0.1303 0.70529 0.0
H1215 H 0.43224 0.08017 0.6943 0.0
H1216 H 0.39274 0.09711 0.67934 0.0
S1217 S 0.43157 0.17242 0.757 0.0
N1218 N 0.44962 0.14827 0.75256 0.0
N1219 N 0.40616 0.16614 0.73655 0.0
C1220 C 0.41148 0.14334 0.72499 0.0
C1221 C 0.43504 0.13361 0.73371 0.0
C1222 C 0.89732 0.34289 0.69988 0.0
C1223 C 0.91155 0.35435 0.71986 0.0
C1224 C 0.87694 0.30734 0.69344 0.0
C1225 C 0.87 0.28182 0.70672 0.0
H1226 H 0.90218 0.36158 0.68909 0.0
H1227 H 0.86714 0.29987 0.67779 0.0
S1228 S 0.90116 0.29856 0.76079 0.0
N1229 N 0.91726 0.33772 0.753 0.0
N1230 N 0.87865 0.2708 0.74104 0.0
C1231 C 0.88338 0.29304 0.72693 0.0
C1232 C 0.90423 0.32932 0.73346 0.0
C1233 C 0.23958 0.00725 0.62781 0.0
C1234 C 0.21693 0.98341 0.64018 0.0
C1235 C 0.25987 0.04286 0.63448 0.0
C1236 C 0.25817 0.05575 0.65375 0.0
H1237 H 0.24242 0.99816 0.61312 0.0
H1238 H 0.27776 0.06014 0.6247 0.0
S1239 S 0.19921 0.0045 0.69074 0.0
N1240 N 0.19136 0.97551 0.67169 0.0
N1241 N 0.2294 0.04221 0.68433 0.0
C1242 C 0.23439 0.0323 0.66588 0.0
C1243 C 0.21381 0.99618 0.65908 0.0
C1244 C 0.96389 0.20404 0.63659 0.0
C1245 C 0.99383 0.23496 0.6448 0.0
C1246 C 0.9319 0.19282 0.64434 0.0
C1247 C 0.92873 0.21179 0.6608 0.0
H1248 H 0.96524 0.18804 0.62426 0.0
H1249 H 0.90964 0.16875 0.63764 0.0
S1250 S 0.99793 0.29629 0.68644 0.0
N1251 N 0.01714 0.28595 0.66923 0.0
N1252 N 0.95746 0.26403 0.68423 0.0
C1253 C 0.95817 0.24297 0.66896 0.0
C1254 C 0.99058 0.25474 0.66086 0.0
C1255 C 0.82073 0.79535 0.65444 0.0
C1256 C 0.80353 0.78674 0.63508 0.0
C1257 C 0.82304 0.7701 0.66491 0.0
C1258 C 0.80777 0.73528 0.65647 0.0
H1259 H 0.83351 0.82204 0.66124 0.0
H1260 H 0.83746 0.77811 0.67955 0.0
S1261 S 0.75733 0.6993 0.60661 0.0
N1262 N 0.76945 0.74115 0.60821 0.0
N1263 N 0.77305 0.69332 0.62785 0.0
C1264 C 0.78917 0.72615 0.63737 0.0
C1265 C 0.78729 0.752 0.62667 0.0
C1266 C 0.96164 0.74008 0.62925 0.0
C1267 C 0.99215 0.76277 0.64156 0.0
C1268 C 0.92966 0.72299 0.63718 0.0
C1269 C 0.92702 0.72758 0.65779 0.0
H1270 H 0.96253 0.7354 0.61337 0.0
H1271 H 0.90698 0.70542 0.62708 0.0
S1272 S 0.99963 0.78472 0.69632 0.0
N1273 N 0.01796 0.78929 0.67525 0.0
N1274 N 0.95797 0.75734 0.69024 0.0
C1275 C 0.9574 0.75067 0.67021 0.0
C1276 C 0.98991 0.76822 0.66207 0.0
C1277 C 0.25144 0.2337 0.63529 0.0
C1278 C 0.21514 0.21234 0.63349 0.0
C1279 C 0.27323 0.22191 0.64299 0.0
C1280 C 0.25961 0.18846 0.64947 0.0
H1281 H 0.26319 0.26019 0.63127 0.0
H1282 H 0.30094 0.23958 0.64447 0.0
S1283 S 0.16677 0.12073 0.64581 0.0
N1284 N 0.16683 0.15475 0.63705 0.0
N1285 N 0.20775 0.13308 0.65216 0.0
C1286 C 0.22348 0.16642 0.64724 0.0
C1287 C 0.20128 0.17823 0.63911 0.0
C1288 C 0.83076 0.03601 0.65744 0.0
C1289 C 0.80927 0.01952 0.6396 0.0
C1290 C 0.83251 0.06567 0.66718 0.0
C1291 C 0.81295 0.08005 0.65937 0.0
H1292 H 0.84666 0.02613 0.66378 0.0
H1293 H 0.84991 0.07775 0.68073 0.0
S1294 S 0.75249 0.0461 0.61288 0.0
N1295 N 0.76793 0.01923 0.61443 0.0
N1296 N 0.7707 0.07476 0.6328 0.0
C1297 C 0.79063 0.06316 0.64174 0.0
C1298 C 0.78893 0.03295 0.63183 0.0
C1299 C 0.46596 0.30369 0.70799 0.0
C1300 C 0.46252 0.31692 0.72668 0.0
C1301 C 0.4381 0.27401 0.69736 0.0
C1302 C 0.40575 0.25638 0.70505 0.0
H1303 H 0.49047 0.31631 0.70159 0.0
H1304 H 0.44212 0.26467 0.68308 0.0
S1305 S 0.38408 0.2798 0.75396 0.0
N1306 N 0.42481 0.30989 0.75276 0.0
N1307 N 0.37228 0.25405 0.73285 0.0
C1308 C 0.40194 0.26955 0.72372 0.0
C1309 C 0.43037 0.29983 0.73452 0.0
C1310 C 0.7003 0.12688 0.73486 0.0
C1311 C 0.67012 0.11842 0.72264 0.0
C1312 C 0.73245 0.14045 0.72701 0.0
C1313 C 0.7357 0.1467 0.70674 0.0
H1314 H 0.69885 0.1219 0.75044 0.0
H1315 H 0.7549 0.14581 0.73688 0.0
S1316 S 0.6644 0.13049 0.66883 0.0
N1317 N 0.6454 0.11811 0.68953 0.0
N1318 N 0.70585 0.14436 0.67483 0.0
C1319 C 0.7058 0.13946 0.69456 0.0
C1320 C 0.67301 0.12507 0.70249 0.0
C1321 C 0.90581 0.59312 0.72635 0.0
C1322 C 0.91378 0.57315 0.71297 0.0
C1323 C 0.88607 0.60783 0.7197 0.0
C1324 C 0.87386 0.60339 0.69938 0.0
H1325 H 0.91485 0.59732 0.74209 0.0
H1326 H 0.88103 0.62341 0.73056 0.0
S1327 S 0.88782 0.55308 0.65839 0.0
N1328 N 0.90814 0.54956 0.67859 0.0
N1329 N 0.87083 0.57689 0.666 0.0
C1330 C 0.8814 0.58308 0.68589 0.0
C1331 C 0.9014 0.56804 0.69271 0.0
C1332 C 0.4723 0.97242 0.17352 0.0
C1333 C 0.49266 0.9952 0.19042 0.0
C1334 C 0.47952 0.98206 0.15408 0.0
C1335 C 0.50749 0.01474 0.15084 0.0
H1336 H 0.45024 0.94728 0.17535 0.0
H1337 H 0.46264 0.96406 0.14152 0.0
S1338 S 0.57107 0.08192 0.19014 0.0
N1339 N 0.5434 0.05064 0.20266 0.0
N1340 N 0.55729 0.06854 0.16626 0.0
C1341 C 0.52866 0.03721 0.16766 0.0
C1342 C 0.52118 0.02749 0.18739 0.0
C1343 C 0.02105 0.49925 0.17336 0.0
C1344 C 0.04404 0.53365 0.18163 0.0
C1345 C 1.00041 0.49255 0.15537 0.0
C1346 C 1.00211 0.52005 0.14516 0.0
H1347 H 0.02023 0.47749 0.18032 0.0
H1348 H 0.98436 0.46578 0.1489 0.0
S1349 S 0.05398 0.61438 0.16234 0.0
N1350 N 0.06435 0.59523 0.17958 0.0
N1351 N 0.02551 0.58261 0.14576 0.0
C1352 C 0.02336 0.5544 0.15396 0.0
C1353 C 0.04435 0.56121 0.17221 0.0
C1354 C 0.51298 0.50281 0.18797 0.0
C1355 C 0.47908 0.48086 0.19273 0.0
C1356 C 0.52096 0.50479 0.16811 0.0
C1357 C 0.4954 0.48459 0.1523 0.0
H1358 H 0.53345 0.51889 0.1997 0.0
H1359 H 0.54743 0.52195 0.16511 0.0
S1360 S 0.4027 0.42311 0.15679 0.0
N1361 N 0.41975 0.43859 0.18008 0.0
N1362 N 0.43477 0.44227 0.14265 0.0
C1363 C 0.4614 0.46251 0.15684 0.0
C1364 C 0.45321 0.46072 0.17707 0.0
C1365 C 0.03051 0.54873 0.846 0.0
C1366 C 0.02395 0.51983 0.83285 0.0
C1367 C 0.0338 0.54792 0.86675 0.0
C1368 C 0.03 0.51796 0.875 0.0
H1369 H 0.03349 0.57222 0.84017 0.0
H1370 H 0.03905 0.57076 0.87643 0.0
S1371 S 0.01197 0.43526 0.84692 0.0
N1372 N 0.0133 0.46036 0.82944 0.0
N1373 N 0.01936 0.45879 0.86849 0.0
C1374 C 0.02313 0.48881 0.862 0.0
C1375 C 0.02017 0.48977 0.8409 0.0
C1376 C 0.55169 0.50337 0.86281 0.0
C1377 C 0.52853 0.48323 0.84605 0.0
C1378 C 0.53966 0.50987 0.88045 0.0
C1379 C 0.5041 0.49688 0.88184 0.0
H1380 H 0.57917 0.51305 0.86255 0.0
H1381 H 0.55827 0.52478 0.89321 0.0
S1382 S 0.43318 0.44456 0.84169 0.0
N1383 N 0.46866 0.45171 0.83156 0.0
N1384 N 0.44604 0.4641 0.86471 0.0
C1385 C 0.48082 0.47781 0.86494 0.0
C1386 C 0.49304 0.47089 0.84705 0.0
C1387 C 0.48552 0.00802 0.84928 0.0
C1388 C 0.5113 0.00661 0.83883 0.0
C1389 C 0.47951 0.99689 0.86848 0.0
C1390 C 0.49869 0.9834 0.87786 0.0
H1391 H 0.46982 0.0178 0.84254 0.0
H1392 H 0.45923 0.99824 0.87588 0.0
S1393 S 0.56947 0.97463 0.85706 0.0
N1394 N 0.55644 0.99109 0.83941 0.0
N1395 N 0.54509 0.97009 0.87547 0.0
C1396 C 0.52472 0.98209 0.86766 0.0
C1397 C 0.53109 0.99379 0.84819 0.0
C1398 C 0.17425 0.34649 0.52104 0.0
C1399 C 0.143 0.31753 0.525 0.0
C1400 C 0.18035 0.35609 0.50159 0.0
C1401 C 0.15543 0.33717 0.48525 0.0
H1402 H 0.19436 0.36175 0.53309 0.0
H1403 H 0.20499 0.37837 0.49931 0.0
S1404 S 0.06853 0.26022 0.48771 0.0
N1405 N 0.08639 0.27053 0.51106 0.0
N1406 N 0.09769 0.28871 0.47446 0.0
C1407 C 0.12397 0.30816 0.48898 0.0
C1408 C 0.11781 0.29831 0.50884 0.0
C1409 C 0.71751 0.88449 0.50174 0.0
C1410 C 0.70673 0.86057 0.51621 0.0
C1411 C 0.69903 0.87621 0.48292 0.0
C1412 C 0.66914 0.84358 0.47773 0.0
H1413 H 0.74113 0.90946 0.5047 0.0
H1414 H 0.70868 0.8953 0.47217 0.0
S1415 S 0.62861 0.77256 0.51064 0.0
N1416 N 0.66286 0.80378 0.5246 0.0
N1417 N 0.62868 0.78764 0.48879 0.0
C1418 C 0.65732 0.81978 0.49224 0.0
C1419 C 0.67607 0.82835 0.51154 0.0
C1420 C 0.13867 0.79459 0.51152 0.0
C1421 C 0.15657 0.82433 0.52537 0.0
C1422 C 0.14629 0.79578 0.49155 0.0
C1423 C 0.17157 0.8269 0.48479 0.0
H1424 H 0.11937 0.77009 0.51629 0.0
H1425 H 0.13247 0.7722 0.48135 0.0
S1426 S 0.22449 0.91217 0.51508 0.0
N1427 N 0.19982 0.88586 0.53094 0.0
N1428 N 0.21389 0.8882 0.49337 0.0
C1429 C 0.18895 0.85698 0.49841 0.0
C1430 C 0.18152 0.85566 0.51873 0.0
C1431 C 0.69946 0.87996 0.17648 0.0
C1432 C 0.69092 0.8502 0.16351 0.0
C1433 C 0.70162 0.87912 0.19727 0.0
C1434 C 0.69475 0.84835 0.20572 0.0
H1435 H 0.70498 0.90414 0.17051 0.0
H1436 H 0.70858 0.90265 0.2068 0.0
S1437 S 0.67043 0.76323 0.17817 0.0
N1438 N 0.67484 0.789 0.1605 0.0
N1439 N 0.67899 0.78747 0.19959 0.0
C1440 C 0.68577 0.81834 0.1929 0.0
C1441 C 0.68388 0.81927 0.17178 0.0
C1442 C 0.16736 0.82156 0.18194 0.0
C1443 C 0.20208 0.8304 0.18078 0.0
C1444 C 0.15625 0.82874 0.1998 0.0
C1445 C 0.1794 0.84455 0.21717 0.0
H1446 H 0.14849 0.80827 0.16908 0.0
H1447 H 0.1291 0.82054 0.20023 0.0
S1448 S 0.27334 0.87448 0.22171 0.0
N1449 N 0.25977 0.85707 0.19832 0.0
N1450 N 0.23894 0.8707 0.23178 0.0
C1451 C 0.2144 0.85462 0.21599 0.0
C1452 C 0.22575 0.84756 0.19781 0.0
C1453 C 0.15714 0.31731 0.17545 0.0
C1454 C 0.17399 0.35304 0.17266 0.0
C1455 C 0.15016 0.30589 0.19449 0.0
C1456 C 0.15977 0.32967 0.21164 0.0
H1457 H 0.14928 0.29786 0.16278 0.0
H1458 H 0.13661 0.27809 0.19572 0.0
S1459 S 0.20546 0.42616 0.21275 0.0
N1460 N 0.20028 0.41224 0.18882 0.0
N1461 N 0.18825 0.3908 0.2247 0.0
C1462 C 0.17712 0.36553 0.20917 0.0
C1463 C 0.18408 0.37719 0.1897 0.0
C1464 C 0.79013 0.65569 0.84287 0.0
C1465 C 0.81386 0.65212 0.85575 0.0
C1466 C 0.79778 0.66581 0.82358 0.0
C1467 C 0.82972 0.67342 0.81671 0.0
H1468 H 0.76551 0.65061 0.84777 0.0
H1469 H 0.7789 0.6684 0.81412 0.0
S1470 S 0.90057 0.66799 0.84464 0.0
N1471 N 0.87038 0.65672 0.86024 0.0
N1472 N 0.8849 0.67611 0.82412 0.0
C1473 C 0.85356 0.66982 0.82942 0.0
C1474 C 0.84559 0.65905 0.8489 0.0
C1475 C 0.35702 0.17603 0.8447 0.0
C1476 C 0.39297 0.19896 0.84586 0.0
C1477 C 0.33637 0.16648 0.82642 0.0
C1478 C 0.35117 0.17922 0.80874 0.0
H1479 H 0.34482 0.16543 0.85801 0.0
H1480 H 0.30885 0.14841 0.82601 0.0
S1481 S 0.44373 0.24034 0.80379 0.0
N1482 N 0.44232 0.23432 0.82776 0.0
N1483 N 0.40344 0.21665 0.79351 0.0
C1484 C 0.38693 0.20251 0.80975 0.0
C1485 C 0.40787 0.21232 0.82829 0.0
C1486 C 0.808 0.13017 0.84869 0.0
C1487 C 0.82555 0.16044 0.86218 0.0
C1488 C 0.81458 0.131 0.82855 0.0
C1489 C 0.83846 0.16224 0.82124 0.0
H1490 H 0.78971 0.10559 0.85386 0.0
H1491 H 0.80098 0.10705 0.81863 0.0
S1492 S 0.89001 0.24879 0.85043 0.0
N1493 N 0.86698 0.22258 0.86682 0.0
N1494 N 0.8792 0.22418 0.82893 0.0
C1495 C 0.85555 0.19279 0.8345 0.0
C1496 C 0.84915 0.19187 0.855 0.0
C1497 C 0.34695 0.159 0.50678 0.0
C1498 C 0.35659 0.19074 0.49874 0.0
C1499 C 0.34986 0.15755 0.52747 0.0
C1500 C 0.36284 0.18786 0.54081 0.0
H1501 H 0.33688 0.13505 0.497 0.0
H1502 H 0.34246 0.13264 0.53306 0.0
S1503 S 0.39126 0.27732 0.52735 0.0
N1504 N 0.37938 0.2531 0.50565 0.0
N1505 N 0.38475 0.25037 0.54463 0.0
C1506 C 0.37239 0.21973 0.53298 0.0
C1507 C 0.36921 0.22116 0.51192 0.0
C1508 C 0.87193 0.17399 0.52502 0.0
C1509 C 0.85783 0.13951 0.51624 0.0
C1510 C 0.85892 0.18158 0.54195 0.0
C1511 C 0.8314 0.15496 0.55069 0.0
H1512 H 0.89394 0.19507 0.5192 0.0
H1513 H 0.8713 0.20829 0.54868 0.0
S1514 S 0.7824 0.06121 0.5318 0.0
N1515 N 0.81257 0.07908 0.51635 0.0
N1516 N 0.78843 0.09336 0.54823 0.0
C1517 C 0.81612 0.12066 0.54153 0.0
C1518 C 0.82924 0.11294 0.52429 0.0
C1519 C 0.81351 0.66043 0.50904 0.0
C1520 C 0.84496 0.69058 0.50658 0.0
C1521 C 0.80589 0.6479 0.52781 0.0
C1522 C 0.82933 0.665 0.54498 0.0
H1523 H 0.79475 0.64602 0.49627 0.0
H1524 H 0.78128 0.62467 0.52889 0.0
S1525 S 0.91528 0.74512 0.54675 0.0
N1526 N 0.89951 0.7376 0.52307 0.0
N1527 N 0.88562 0.71355 0.55824 0.0
C1528 C 0.86087 0.69524 0.54278 0.0
C1529 C 0.86862 0.70806 0.52363 0.0
loop_
_geom_bond_atom_site_label_1
_geom_bond_atom_site_label_2
_geom_bond_distance
_geom_bond_site_symmetry_2
_ccdc_geom_bond_type
P0 O11 1.490 . S
P0 C14 1.812 . S
P0 C20 1.803 . S
P0 C26 1.819 . S
H1 C15 0.941 . S
H2 C16 0.939 . S
H3 C18 0.940 . S
H4 C19 0.940 . S
H5 C21 0.939 . S
H6 C22 0.942 . S
H7 C24 0.940 . S
H8 C25 0.939 . S
H9 C27 0.941 . S
H10 C31 0.939 . S
O11 P0 1.490 . S
H12 C28 0.939 . S
H13 C30 0.940 . S
C14 P0 1.812 . S
C14 C15 1.389 . S
C14 C19 1.391 . S
C15 H1 0.941 . S
C15 C14 1.389 . S
C15 C16 1.397 . S
C16 H2 0.939 . S
C16 C15 1.397 . S
C16 C17 1.378 . S
C17 C16 1.378 . S
C17 C18 1.378 . S
C18 H3 0.940 . S
C18 C17 1.378 . S
C18 C19 1.396 . S
C19 H4 0.940 . S
C19 C14 1.391 . S
C19 C18 1.396 . S
C20 P0 1.803 . S
C20 C21 1.378 . S
C20 C25 1.400 . S
C21 H5 0.939 . S
C21 C20 1.378 . S
C21 C22 1.361 . S
C22 H6 0.942 . S
C22 C21 1.361 . S
C22 C23 1.369 . S
C23 C22 1.369 . S
C23 C24 1.404 . S
C24 H7 0.940 . S
C24 C23 1.404 . S
C24 C25 1.389 . S
C25 H8 0.939 . S
C25 C20 1.400 . S
C25 C24 1.389 . S
C26 P0 1.819 . S
C26 C27 1.391 . S
C26 C31 1.391 . S
C27 H9 0.941 . S
C27 C26 1.391 . S
C27 C28 1.396 . S
C28 H12 0.939 . S
C28 C27 1.396 . S
C28 C29 1.397 . S
C29 C28 1.397 . S
C29 C30 1.385 . S
C30 H13 0.940 . S
C30 C29 1.385 . S
C30 C31 1.388 . S
C31 H10 0.939 . S
C31 C26 1.391 . S
C31 C30 1.388 . S
P32 O43 1.490 . S
P32 C46 1.812 . S
P32 C52 1.803 . S
P32 C58 1.819 . S
H33 C47 0.941 . S
H34 C48 0.939 . S
H35 C50 0.940 . S
H36 C51 0.940 . S
H37 C53 0.939 . S
H38 C54 0.921 1_455 S
H39 C56 0.940 . S
H40 C57 0.939 . S
H41 C59 0.941 . S
H42 C63 0.939 . S
O43 P32 1.490 . S
H44 C60 0.939 . S
H45 C62 0.940 . S
C46 P32 1.812 . S
C46 C47 1.389 . S
C46 C51 1.391 . S
C47 H33 0.941 . S
C47 C46 1.389 . S
C47 C48 1.397 . S
C48 H34 0.939 . S
C48 C47 1.397 . S
C48 C49 1.378 . S
C49 C48 1.378 . S
C49 C50 1.378 . S
C50 H35 0.940 . S
C50 C49 1.378 . S
C50 C51 1.396 . S
C51 H36 0.940 . S
C51 C46 1.391 . S
C51 C50 1.396 . S
C52 P32 1.803 . S
C52 C53 1.378 . S
C52 C57 1.400 . S
C53 H37 0.939 . S
C53 C52 1.378 . S
C53 C54 1.361 . S
C54 H38 0.921 1_655 S
C54 C53 1.361 . S
C54 C55 1.369 . S
C55 C54 1.369 . S
C55 C56 1.404 . S
C56 H39 0.940 . S
C56 C55 1.404 . S
C56 C57 1.389 . S
C57 H40 0.939 . S
C57 C52 1.400 . S
C57 C56 1.389 . S
C58 P32 1.819 . S
C58 C59 1.391 . S
C58 C63 1.391 . S
C59 H41 0.941 . S
C59 C58 1.391 . S
C59 C60 1.396 . S
C60 H44 0.939 . S
C60 C59 1.396 . S
C60 C61 1.397 . S
C61 C60 1.397 . S
C61 C62 1.385 . S
C62 H45 0.940 . S
C62 C61 1.385 . S
C62 C63 1.388 . S
C63 H42 0.939 . S
C63 C58 1.391 . S
C63 C62 1.388 . S
P64 O75 1.490 . S
P64 C78 1.812 . S
P64 C84 1.803 . S
P64 C90 1.819 . S
H65 C79 0.941 . S
H66 C80 0.939 . S
H67 C82 0.940 . S
H68 C83 0.940 . S
H69 C85 0.939 . S
H70 C86 0.942 . S
H71 C88 0.940 . S
H72 C89 0.939 . S
H73 C91 0.941 . S
H74 C95 0.939 . S
O75 P64 1.490 . S
H76 C92 0.939 . S
H77 C94 0.940 . S
C78 P64 1.812 . S
C78 C79 1.389 . S
C78 C83 1.391 . S
C79 H65 0.941 . S
C79 C78 1.389 . S
C79 C80 1.397 . S
C80 H66 0.939 . S
C80 C79 1.397 . S
C80 C81 1.378 . S
C81 C80 1.378 . S
C81 C82 1.378 . S
C82 H67 0.940 . S
C82 C81 1.378 . S
C82 C83 1.396 . S
C83 H68 0.940 . S
C83 C78 1.391 . S
C83 C82 1.396 . S
C84 P64 1.803 . S
C84 C85 1.378 . S
C84 C89 1.400 . S
C85 H69 0.939 . S
C85 C84 1.378 . S
C85 C86 1.361 . S
C86 H70 0.942 . S
C86 C85 1.361 . S
C86 C87 1.369 . S
C87 C86 1.369 . S
C87 C88 1.404 . S
C88 H71 0.940 . S
C88 C87 1.404 . S
C88 C89 1.389 . S
C89 H72 0.939 . S
C89 C84 1.400 . S
C89 C88 1.389 . S
C90 P64 1.819 . S
C90 C91 1.391 . S
C90 C95 1.391 . S
C91 H73 0.941 . S
C91 C90 1.391 . S
C91 C92 1.396 . S
C92 H76 0.939 . S
C92 C91 1.396 . S
C92 C93 1.397 . S
C93 C92 1.397 . S
C93 C94 1.385 . S
C94 H77 0.940 . S
C94 C93 1.385 . S
C94 C95 1.388 . S
C95 H74 0.939 . S
C95 C90 1.391 . S
C95 C94 1.388 . S
P96 O107 1.490 . S
P96 C110 1.812 . S
P96 C116 1.803 . S
P96 C122 1.819 . S
H97 C111 0.941 . S
H98 C112 0.939 . S
H99 C114 0.940 . S
H100 C115 0.940 . S
H101 C117 0.939 . S
H102 C118 0.942 . S
H103 C120 0.940 . S
H104 C121 0.939 . S
H105 C123 0.941 . S
H106 C127 0.939 . S
O107 P96 1.490 . S
H108 C124 0.939 . S
H109 C126 0.940 . S
C110 P96 1.812 . S
C110 C111 1.389 . S
C110 C115 1.391 . S
C111 H97 0.941 . S
C111 C110 1.389 . S
C111 C112 1.397 . S
C112 H98 0.939 . S
C112 C111 1.397 . S
C112 C113 1.378 . S
C113 C112 1.378 . S
C113 C114 1.378 . S
C114 H99 0.940 . S
C114 C113 1.378 . S
C114 C115 1.396 . S
C115 H100 0.940 . S
C115 C110 1.391 . S
C115 C114 1.396 . S
C116 P96 1.803 . S
C116 C117 1.378 . S
C116 C121 1.400 . S
C117 H101 0.939 . S
C117 C116 1.378 . S
C117 C118 1.361 . S
C118 H102 0.942 . S
C118 C117 1.361 . S
C118 C119 1.369 . S
C119 C118 1.369 . S
C119 C120 1.404 . S
C120 H103 0.940 . S
C120 C119 1.404 . S
C120 C121 1.389 . S
C121 H104 0.939 . S
C121 C116 1.400 . S
C121 C120 1.389 . S
C122 P96 1.819 . S
C122 C123 1.391 . S
C122 C127 1.391 . S
C123 H105 0.941 . S
C123 C122 1.391 . S
C123 C124 1.396 . S
C124 H108 0.939 . S
C124 C123 1.396 . S
C124 C125 1.397 . S
C125 C124 1.397 . S
C125 C126 1.385 . S
C126 H109 0.940 . S
C126 C125 1.385 . S
C126 C127 1.388 . S
C127 H106 0.939 . S
C127 C122 1.391 . S
C127 C126 1.388 . S
P128 O139 1.490 . S
P128 C142 1.812 . S
P128 C148 1.803 . S
P128 C154 1.819 . S
H129 C143 0.941 . S
H130 C144 0.939 . S
H131 C146 0.940 . S
H132 C147 0.940 . S
H133 C149 0.939 . S
H134 C150 0.942 . S
H135 C152 0.940 . S
H136 C153 0.939 . S
H137 C155 0.941 . S
H138 C159 0.939 . S
O139 P128 1.490 . S
H140 C156 0.939 . S
H141 C158 0.940 . S
C142 P128 1.812 . S
C142 C143 1.389 . S
C142 C147 1.391 . S
C143 H129 0.941 . S
C143 C142 1.389 . S
C143 C144 1.397 . S
C144 H130 0.939 . S
C144 C143 1.397 . S
C144 C145 1.378 . S
C145 C144 1.378 . S
C145 C146 1.378 . S
C146 H131 0.940 . S
C146 C145 1.378 . S
C146 C147 1.396 . S
C147 H132 0.940 . S
C147 C142 1.391 . S
C147 C146 1.396 . S
C148 P128 1.803 . S
C148 C149 1.378 . S
C148 C153 1.400 . S
C149 H133 0.939 . S
C149 C148 1.378 . S
C149 C150 1.361 . S
C150 H134 0.942 . S
C150 C149 1.361 . S
C150 C151 1.369 . S
C151 C150 1.369 . S
C151 C152 1.404 . S
C152 H135 0.940 . S
C152 C151 1.404 . S
C152 C153 1.389 . S
C153 H136 0.939 . S
C153 C148 1.400 . S
C153 C152 1.389 . S
C154 P128 1.819 . S
C154 C155 1.391 . S
C154 C159 1.391 . S
C155 H137 0.941 . S
C155 C154 1.391 . S
C155 C156 1.396 . S
C156 H140 0.939 . S
C156 C155 1.396 . S
C156 C157 1.397 . S
C157 C156 1.397 . S
C157 C158 1.385 . S
C158 H141 0.940 . S
C158 C157 1.385 . S
C158 C159 1.388 . S
C159 H138 0.939 . S
C159 C154 1.391 . S
C159 C158 1.388 . S
P160 O171 1.490 . S
P160 C174 1.812 . S
P160 C180 1.803 . S
P160 C186 1.819 . S
H161 C175 0.941 . S
H162 C176 0.939 . S
H163 C178 0.940 . S
H164 C179 0.940 . S
H165 C181 0.939 . S
H166 C182 0.942 . S
H167 C184 0.940 . S
H168 C185 0.939 . S
H169 C187 0.941 . S
H170 C191 0.939 . S
O171 P160 1.490 . S
H172 C188 0.939 . S
H173 C190 0.940 . S
C174 P160 1.812 . S
C174 C175 1.389 . S
C174 C179 1.391 . S
C175 H161 0.941 . S
C175 C174 1.389 . S
C175 C176 1.397 . S
C176 H162 0.939 . S
C176 C175 1.397 . S
C176 C177 1.378 . S
C177 C176 1.378 . S
C177 C178 1.378 . S
C178 H163 0.940 . S
C178 C177 1.378 . S
C178 C179 1.396 . S
C179 H164 0.940 . S
C179 C174 1.391 . S
C179 C178 1.396 . S
C180 P160 1.803 . S
C180 C181 1.378 . S
C180 C185 1.400 . S
C181 H165 0.939 . S
C181 C180 1.378 . S
C181 C182 1.361 . S
C182 H166 0.942 . S
C182 C181 1.361 . S
C182 C183 1.369 . S
C183 C182 1.369 . S
C183 C184 1.404 . S
C184 H167 0.940 . S
C184 C183 1.404 . S
C184 C185 1.389 . S
C185 H168 0.939 . S
C185 C180 1.400 . S
C185 C184 1.389 . S
C186 P160 1.819 . S
C186 C187 1.391 . S
C186 C191 1.391 . S
C187 H169 0.941 . S
C187 C186 1.391 . S
C187 C188 1.396 . S
C188 H172 0.939 . S
C188 C187 1.396 . S
C188 C189 1.397 . S
C189 C188 1.397 . S
C189 C190 1.385 . S
C190 H173 0.940 . S
C190 C189 1.385 . S
C190 C191 1.388 . S
C191 H170 0.939 . S
C191 C186 1.391 . S
C191 C190 1.388 . S
P192 O203 1.490 . S
P192 C206 1.812 1_455 S
P192 C212 1.803 1_455 S
P192 C218 1.818 1_455 S
H193 C207 0.941 1_455 S
H194 C208 0.939 . S
H195 C210 0.940 . S
H196 C211 0.940 . S
H197 C213 0.939 1_455 S
H198 C214 0.942 . S
H199 C216 0.940 . S
H200 C217 0.939 . S
H201 C219 0.941 . S
H202 C223 0.939 . S
O203 P192 1.490 . S
H204 C220 0.939 . S
H205 C222 0.940 . S
C206 P192 1.812 1_655 S
C206 C207 1.389 . S
C206 C211 1.391 . S
C207 H193 0.941 1_655 S
C207 C206 1.389 . S
C207 C208 1.397 . S
C208 H194 0.939 . S
C208 C207 1.397 . S
C208 C209 1.378 . S
C209 C208 1.378 . S
C209 C210 1.378 . S
C210 H195 0.940 . S
C210 C209 1.378 . S
C210 C211 1.396 . S
C211 H196 0.940 . S
C211 C206 1.391 . S
C211 C210 1.396 . S
C212 P192 1.803 1_655 S
C212 C213 1.378 . S
C212 C217 1.400 . S
C213 H197 0.939 1_655 S
C213 C212 1.378 . S
C213 C214 1.361 . S
C214 H198 0.942 . S
C214 C213 1.361 . S
C214 C215 1.369 . S
C215 C214 1.369 . S
C215 C216 1.404 . S
C216 H199 0.940 . S
C216 C215 1.404 . S
C216 C217 1.389 . S
C217 H200 0.939 . S
C217 C212 1.400 . S
C217 C216 1.389 . S
C218 P192 1.818 1_655 S
C218 C219 1.388 1_655 S
C218 C223 1.396 . S
C219 H201 0.941 . S
C219 C218 1.388 1_455 S
C219 C220 1.396 . S
C220 H204 0.939 . S
C220 C219 1.396 . S
C220 C221 1.397 1_455 S
C221 C220 1.397 1_655 S
C221 C222 1.385 . S
C222 H205 0.940 . S
C222 C221 1.385 . S
C222 C223 1.388 . S
C223 H202 0.939 . S
C223 C218 1.396 . S
C223 C222 1.388 . S
P224 O235 1.490 . S
P224 C238 1.812 . S
P224 C244 1.803 . S
P224 C250 1.819 . S
H225 C239 0.941 . S
H226 C240 0.939 . S
H227 C242 0.940 . S
H228 C243 0.940 . S
H229 C245 0.939 . S
H230 C246 0.942 . S
H231 C248 0.940 . S
H232 C249 0.939 . S
H233 C251 0.941 . S
H234 C255 0.939 . S
O235 P224 1.490 . S
H236 C252 0.939 . S
H237 C254 0.940 . S
C238 P224 1.812 . S
C238 C239 1.389 . S
C238 C243 1.391 . S
C239 H225 0.941 . S
C239 C238 1.389 . S
C239 C240 1.397 . S
C240 H226 0.939 . S
C240 C239 1.397 . S
C240 C241 1.378 . S
C241 C240 1.378 . S
C241 C242 1.378 . S
C242 H227 0.940 . S
C242 C241 1.378 . S
C242 C243 1.396 . S
C243 H228 0.940 . S
C243 C238 1.391 . S
C243 C242 1.396 . S
C244 P224 1.803 . S
C244 C245 1.378 . S
C244 C249 1.400 . S
C245 H229 0.939 . S
C245 C244 1.378 . S
C245 C246 1.361 . S
C246 H230 0.942 . S
C246 C245 1.361 . S
C246 C247 1.369 . S
C247 C246 1.369 . S
C247 C248 1.404 . S
C248 H231 0.940 . S
C248 C247 1.404 . S
C248 C249 1.389 . S
C249 H232 0.939 . S
C249 C244 1.400 . S
C249 C248 1.389 . S
C250 P224 1.819 . S
C250 C251 1.391 . S
C250 C255 1.391 . S
C251 H233 0.941 . S
C251 C250 1.391 . S
C251 C252 1.396 . S
C252 H236 0.939 . S
C252 C251 1.396 . S
C252 C253 1.397 . S
C253 C252 1.397 . S
C253 C254 1.385 . S
C254 H237 0.940 . S
C254 C253 1.385 . S
C254 C255 1.388 . S
C255 H234 0.939 . S
C255 C250 1.391 . S
C255 C254 1.388 . S
P256 O267 1.490 1_545 S
P256 C270 1.812 . S
P256 C276 1.803 . S
P256 C282 1.819 . S
H257 C271 0.941 . S
H258 C272 0.939 . S
H259 C274 0.940 . S
H260 C275 0.940 . S
H261 C277 0.939 . S
H262 C278 0.942 . S
H263 C280 0.940 . S
H264 C281 0.939 . S
H265 C283 0.941 1_565 S
H266 C287 0.939 . S
O267 P256 1.490 1_565 S
H268 C284 0.939 . S
H269 C286 0.940 . S
C270 P256 1.812 . S
C270 C271 1.389 . S
C270 C275 1.391 . S
C271 H257 0.941 . S
C271 C270 1.389 . S
C271 C272 1.397 . S
C272 H258 0.939 . S
C272 C271 1.397 . S
C272 C273 1.378 . S
C273 C272 1.378 . S
C273 C274 1.378 . S
C274 H259 0.940 . S
C274 C273 1.378 . S
C274 C275 1.396 . S
C275 H260 0.940 . S
C275 C270 1.391 . S
C275 C274 1.396 . S
C276 P256 1.803 . S
C276 C277 1.378 . S
C276 C281 1.400 . S
C277 H261 0.939 . S
C277 C276 1.378 . S
C277 C278 1.361 . S
C278 H262 0.942 . S
C278 C277 1.361 . S
C278 C279 1.369 . S
C279 C278 1.369 . S
C279 C280 1.404 . S
C280 H263 0.940 . S
C280 C279 1.404 . S
C280 C281 1.389 . S
C281 H264 0.939 . S
C281 C276 1.400 . S
C281 C280 1.389 . S
C282 P256 1.819 . S
C282 C283 1.391 . S
C282 C287 1.391 . S
C283 H265 0.941 1_545 S
C283 C282 1.391 . S
C283 C284 1.396 . S
C284 H268 0.939 . S
C284 C283 1.396 . S
C284 C285 1.397 . S
C285 C284 1.397 . S
C285 C286 1.385 . S
C286 H269 0.940 . S
C286 C285 1.385 . S
C286 C287 1.388 . S
C287 H266 0.939 . S
C287 C282 1.391 . S
C287 C286 1.388 . S
P288 O299 1.490 . S
P288 C302 1.812 . S
P288 C308 1.803 . S
P288 C314 1.819 . S
H289 C303 0.941 . S
H290 C304 0.939 . S
H291 C306 0.940 . S
H292 C307 0.940 . S
H293 C309 0.939 . S
H294 C310 0.942 . S
H295 C312 0.940 . S
H296 C313 0.939 . S
H297 C315 0.941 . S
H298 C319 0.939 . S
O299 P288 1.490 . S
H300 C316 0.939 . S
H301 C318 0.940 . S
C302 P288 1.812 . S
C302 C303 1.389 . S
C302 C307 1.391 . S
C303 H289 0.941 . S
C303 C302 1.389 . S
C303 C304 1.397 . S
C304 H290 0.939 . S
C304 C303 1.397 . S
C304 C305 1.378 . S
C305 C304 1.378 . S
C305 C306 1.378 . S
C306 H291 0.940 . S
C306 C305 1.378 . S
C306 C307 1.396 . S
C307 H292 0.940 . S
C307 C302 1.391 . S
C307 C306 1.396 . S
C308 P288 1.803 . S
C308 C309 1.378 . S
C308 C313 1.400 . S
C309 H293 0.939 . S
C309 C308 1.378 . S
C309 C310 1.361 . S
C310 H294 0.942 . S
C310 C309 1.361 . S
C310 C311 1.369 . S
C311 C310 1.369 . S
C311 C312 1.404 . S
C312 H295 0.940 . S
C312 C311 1.404 . S
C312 C313 1.389 . S
C313 H296 0.939 . S
C313 C308 1.400 . S
C313 C312 1.389 . S
C314 P288 1.819 . S
C314 C315 1.391 . S
C314 C319 1.391 . S
C315 H297 0.941 . S
C315 C314 1.391 . S
C315 C316 1.396 . S
C316 H300 0.939 . S
C316 C315 1.396 . S
C316 C317 1.397 . S
C317 C316 1.397 . S
C317 C318 1.385 . S
C318 H301 0.940 . S
C318 C317 1.385 . S
C318 C319 1.388 . S
C319 H298 0.939 . S
C319 C314 1.391 . S
C319 C318 1.388 . S
P320 O331 1.490 . S
P320 C334 1.812 . S
P320 C340 1.803 . S
P320 C346 1.819 . S
H321 C335 0.941 . S
H322 C336 0.939 . S
H323 C338 0.940 . S
H324 C339 0.940 . S
H325 C341 0.939 . S
H326 C342 0.942 . S
H327 C344 0.940 . S
H328 C345 0.939 . S
H329 C347 0.941 . S
H330 C351 0.939 . S
O331 P320 1.490 . S
H332 C348 0.939 . S
H333 C350 0.940 . S
C334 P320 1.812 . S
C334 C335 1.389 . S
C334 C339 1.391 . S
C335 H321 0.941 . S
C335 C334 1.389 . S
C335 C336 1.397 . S
C336 H322 0.939 . S
C336 C335 1.397 . S
C336 C337 1.378 . S
C337 C336 1.378 . S
C337 C338 1.378 . S
C338 H323 0.940 . S
C338 C337 1.378 . S
C338 C339 1.396 . S
C339 H324 0.940 . S
C339 C334 1.391 . S
C339 C338 1.396 . S
C340 P320 1.803 . S
C340 C341 1.378 . S
C340 C345 1.400 . S
C341 H325 0.939 . S
C341 C340 1.378 . S
C341 C342 1.361 . S
C342 H326 0.942 . S
C342 C341 1.361 . S
C342 C343 1.369 . S
C343 C342 1.369 . S
C343 C344 1.404 . S
C344 H327 0.940 . S
C344 C343 1.404 . S
C344 C345 1.389 . S
C345 H328 0.939 . S
C345 C340 1.400 . S
C345 C344 1.389 . S
C346 P320 1.819 . S
C346 C347 1.391 . S
C346 C351 1.391 . S
C347 H329 0.941 . S
C347 C346 1.391 . S
C347 C348 1.396 . S
C348 H332 0.939 . S
C348 C347 1.396 . S
C348 C349 1.397 . S
C349 C348 1.397 . S
C349 C350 1.385 . S
C350 H333 0.940 . S
C350 C349 1.385 . S
C350 C351 1.388 . S
C351 H330 0.939 . S
C351 C346 1.391 . S
C351 C350 1.388 . S
P352 O363 1.490 . S
P352 C366 1.812 . S
P352 C372 1.803 . S
P352 C378 1.819 . S
H353 C367 0.941 . S
H354 C368 0.939 . S
H355 C370 0.940 . S
H356 C371 0.940 . S
H357 C373 0.939 . S
H358 C374 0.942 . S
H359 C376 0.940 . S
H360 C377 0.939 . S
H361 C379 0.941 . S
H362 C383 0.939 . S
O363 P352 1.490 . S
H364 C380 0.939 . S
H365 C382 0.940 . S
C366 P352 1.812 . S
C366 C367 1.389 . S
C366 C371 1.391 . S
C367 H353 0.941 . S
C367 C366 1.389 . S
C367 C368 1.397 . S
C368 H354 0.939 . S
C368 C367 1.397 . S
C368 C369 1.378 . S
C369 C368 1.378 . S
C369 C370 1.378 . S
C370 H355 0.940 . S
C370 C369 1.378 . S
C370 C371 1.396 . S
C371 H356 0.940 . S
C371 C366 1.391 . S
C371 C370 1.396 . S
C372 P352 1.803 . S
C372 C373 1.378 . S
C372 C377 1.400 . S
C373 H357 0.939 . S
C373 C372 1.378 . S
C373 C374 1.361 . S
C374 H358 0.942 . S
C374 C373 1.361 . S
C374 C375 1.369 . S
C375 C374 1.369 . S
C375 C376 1.404 . S
C376 H359 0.940 . S
C376 C375 1.404 . S
C376 C377 1.389 . S
C377 H360 0.939 . S
C377 C372 1.400 . S
C377 C376 1.389 . S
C378 P352 1.819 . S
C378 C379 1.391 . S
C378 C383 1.391 . S
C379 H361 0.941 . S
C379 C378 1.391 . S
C379 C380 1.396 . S
C380 H364 0.939 . S
C380 C379 1.396 . S
C380 C381 1.397 . S
C381 C380 1.397 . S
C381 C382 1.385 . S
C382 H365 0.940 . S
C382 C381 1.385 . S
C382 C383 1.388 . S
C383 H362 0.939 . S
C383 C378 1.391 . S
C383 C382 1.388 . S
P384 O395 1.490 . S
P384 C398 1.812 . S
P384 C404 1.803 . S
P384 C410 1.819 . S
H385 C399 0.941 . S
H386 C400 0.939 . S
H387 C402 0.940 . S
H388 C403 0.940 . S
H389 C405 0.939 . S
H390 C406 0.942 . S
H391 C408 0.940 . S
H392 C409 0.939 . S
H393 C411 0.941 . S
H394 C415 0.939 . S
O395 P384 1.490 . S
H396 C412 0.939 . S
H397 C414 0.940 . S
C398 P384 1.812 . S
C398 C399 1.389 . S
C398 C403 1.391 . S
C399 H385 0.941 . S
C399 C398 1.389 . S
C399 C400 1.397 . S
C400 H386 0.939 . S
C400 C399 1.397 . S
C400 C401 1.378 . S
C401 C400 1.378 . S
C401 C402 1.378 . S
C402 H387 0.940 . S
C402 C401 1.378 . S
C402 C403 1.396 . S
C403 H388 0.940 . S
C403 C398 1.391 . S
C403 C402 1.396 . S
C404 P384 1.803 . S
C404 C405 1.378 . S
C404 C409 1.400 . S
C405 H389 0.939 . S
C405 C404 1.378 . S
C405 C406 1.361 . S
C406 H390 0.942 . S
C406 C405 1.361 . S
C406 C407 1.369 . S
C407 C406 1.369 . S
C407 C408 1.404 . S
C408 H391 0.940 . S
C408 C407 1.404 . S
C408 C409 1.389 . S
C409 H392 0.939 . S
C409 C404 1.400 . S
C409 C408 1.389 . S
C410 P384 1.819 . S
C410 C411 1.391 . S
C410 C415 1.391 . S
C411 H393 0.941 . S
C411 C410 1.391 . S
C411 C412 1.396 . S
C412 H396 0.939 . S
C412 C411 1.396 . S
C412 C413 1.397 . S
C413 C412 1.397 . S
C413 C414 1.385 . S
C414 H397 0.940 . S
C414 C413 1.385 . S
C414 C415 1.388 . S
C415 H394 0.939 . S
C415 C410 1.391 . S
C415 C414 1.388 . S
P416 O427 1.490 . S
P416 C430 1.812 . S
P416 C436 1.803 . S
P416 C442 1.819 . S
H417 C431 0.941 . S
H418 C432 0.939 . S
H419 C434 0.940 . S
H420 C435 0.940 . S
H421 C437 0.939 . S
H422 C438 0.942 . S
H423 C440 0.940 . S
H424 C441 0.939 . S
H425 C443 0.941 . S
H426 C447 0.939 . S
O427 P416 1.490 . S
H428 C444 0.939 . S
H429 C446 0.940 . S
C430 P416 1.812 . S
C430 C431 1.389 . S
C430 C435 1.391 . S
C431 H417 0.941 . S
C431 C430 1.389 . S
C431 C432 1.397 . S
C432 H418 0.939 . S
C432 C431 1.397 . S
C432 C433 1.378 . S
C433 C432 1.378 . S
C433 C434 1.378 . S
C434 H419 0.940 . S
C434 C433 1.378 . S
C434 C435 1.396 . S
C435 H420 0.940 . S
C435 C430 1.391 . S
C435 C434 1.396 . S
C436 P416 1.803 . S
C436 C437 1.378 . S
C436 C441 1.400 . S
C437 H421 0.939 . S
C437 C436 1.378 . S
C437 C438 1.361 . S
C438 H422 0.942 . S
C438 C437 1.361 . S
C438 C439 1.369 . S
C439 C438 1.369 . S
C439 C440 1.404 . S
C440 H423 0.940 . S
C440 C439 1.404 . S
C440 C441 1.389 . S
C441 H424 0.939 . S
C441 C436 1.400 . S
C441 C440 1.389 . S
C442 P416 1.819 . S
C442 C443 1.391 . S
C442 C447 1.391 . S
C443 H425 0.941 . S
C443 C442 1.391 . S
C443 C444 1.396 . S
C444 H428 0.939 . S
C444 C443 1.396 . S
C444 C445 1.397 . S
C445 C444 1.397 . S
C445 C446 1.385 . S
C446 H429 0.940 . S
C446 C445 1.385 . S
C446 C447 1.388 . S
C447 H426 0.939 . S
C447 C442 1.391 . S
C447 C446 1.388 . S
P448 O459 1.490 . S
P448 C462 1.812 . S
P448 C468 1.803 . S
P448 C474 1.819 . S
H449 C463 0.941 . S
H450 C464 0.939 . S
H451 C466 0.940 . S
H452 C467 0.940 . S
H453 C469 0.939 . S
H454 C470 0.942 . S
H455 C472 0.940 . S
H456 C473 0.939 . S
H457 C475 0.941 . S
H458 C479 0.939 . S
O459 P448 1.490 . S
H460 C476 0.939 . S
H461 C478 0.940 . S
C462 P448 1.812 . S
C462 C463 1.389 . S
C462 C467 1.391 . S
C463 H449 0.941 . S
C463 C462 1.389 . S
C463 C464 1.397 . S
C464 H450 0.939 . S
C464 C463 1.397 . S
C464 C465 1.378 . S
C465 C464 1.378 . S
C465 C466 1.378 . S
C466 H451 0.940 . S
C466 C465 1.378 . S
C466 C467 1.396 . S
C467 H452 0.940 . S
C467 C462 1.391 . S
C467 C466 1.396 . S
C468 P448 1.803 . S
C468 C469 1.378 . S
C468 C473 1.400 . S
C469 H453 0.939 . S
C469 C468 1.378 . S
C469 C470 1.361 . S
C470 H454 0.942 . S
C470 C469 1.361 . S
C470 C471 1.369 . S
C471 C470 1.369 . S
C471 C472 1.404 . S
C472 H455 0.940 . S
C472 C471 1.404 . S
C472 C473 1.389 . S
C473 H456 0.939 . S
C473 C468 1.400 . S
C473 C472 1.389 . S
C474 P448 1.819 . S
C474 C475 1.391 . S
C474 C479 1.391 . S
C475 H457 0.941 . S
C475 C474 1.391 . S
C475 C476 1.396 . S
C476 H460 0.939 . S
C476 C475 1.396 . S
C476 C477 1.397 . S
C477 C476 1.397 . S
C477 C478 1.385 . S
C478 H461 0.940 . S
C478 C477 1.385 . S
C478 C479 1.388 . S
C479 H458 0.939 . S
C479 C474 1.391 . S
C479 C478 1.388 . S
P480 O491 1.490 1_565 S
P480 C494 1.812 . S
P480 C500 1.803 . S
P480 C506 1.819 . S
H481 C495 0.941 . S
H482 C496 0.939 . S
H483 C498 0.940 . S
H484 C499 0.940 . S
H485 C501 0.939 . S
H486 C502 0.942 . S
H487 C504 0.940 . S
H488 C505 0.939 . S
H489 C507 0.941 1_545 S
H490 C511 0.939 . S
O491 P480 1.490 1_545 S
H492 C508 0.966 . S
H493 C510 0.940 . S
C494 P480 1.812 . S
C494 C495 1.389 . S
C494 C499 1.391 . S
C495 H481 0.941 . S
C495 C494 1.389 . S
C495 C496 1.397 . S
C496 H482 0.939 . S
C496 C495 1.397 . S
C496 C497 1.378 . S
C497 C496 1.378 . S
C497 C498 1.378 . S
C498 H483 0.940 . S
C498 C497 1.378 . S
C498 C499 1.396 . S
C499 H484 0.940 . S
C499 C494 1.391 . S
C499 C498 1.396 . S
C500 P480 1.803 . S
C500 C501 1.378 . S
C500 C505 1.400 . S
C501 H485 0.939 . S
C501 C500 1.378 . S
C501 C502 1.361 . S
C502 H486 0.942 . S
C502 C501 1.361 . S
C502 C503 1.369 . S
C503 C502 1.369 . S
C503 C504 1.404 . S
C504 H487 0.940 . S
C504 C503 1.404 . S
C504 C505 1.389 . S
C505 H488 0.939 . S
C505 C500 1.400 . S
C505 C504 1.389 . S
C506 P480 1.819 . S
C506 C507 1.391 . S
C506 C511 1.391 . S
C507 H489 0.941 1_565 S
C507 C506 1.391 . S
C507 C508 1.396 . S
C508 H492 0.966 . S
C508 C507 1.396 . S
C508 C509 1.397 . S
C509 C508 1.397 . S
C509 C510 1.385 . S
C510 H493 0.940 . S
C510 C509 1.385 . S
C510 C511 1.388 . S
C511 H490 0.939 . S
C511 C506 1.391 . S
C511 C510 1.388 . S
P512 O523 1.490 . S
P512 C526 1.812 . S
P512 C532 1.803 . S
P512 C538 1.819 . S
H513 C527 0.941 . S
H514 C528 0.939 . S
H515 C530 0.940 . S
H516 C531 0.940 . S
H517 C533 0.939 . S
H518 C534 0.942 . S
H519 C536 0.940 . S
H520 C537 0.939 . S
H521 C539 0.941 . S
H522 C543 0.939 . S
O523 P512 1.490 . S
H524 C540 0.939 . S
H525 C542 0.940 1_655 S
C526 P512 1.812 . S
C526 C527 1.389 . S
C526 C531 1.391 . S
C527 H513 0.941 . S
C527 C526 1.389 . S
C527 C528 1.397 . S
C528 H514 0.939 . S
C528 C527 1.397 . S
C528 C529 1.378 . S
C529 C528 1.378 . S
C529 C530 1.378 . S
C530 H515 0.940 . S
C530 C529 1.378 . S
C530 C531 1.396 . S
C531 H516 0.940 . S
C531 C526 1.391 . S
C531 C530 1.396 . S
C532 P512 1.803 . S
C532 C533 1.378 . S
C532 C537 1.400 . S
C533 H517 0.939 . S
C533 C532 1.378 . S
C533 C534 1.361 . S
C534 H518 0.942 . S
C534 C533 1.361 . S
C534 C535 1.369 . S
C535 C534 1.369 . S
C535 C536 1.404 . S
C536 H519 0.940 . S
C536 C535 1.404 . S
C536 C537 1.389 . S
C537 H520 0.939 . S
C537 C532 1.400 . S
C537 C536 1.389 . S
C538 P512 1.819 . S
C538 C539 1.391 . S
C538 C543 1.391 . S
C539 H521 0.941 . S
C539 C538 1.391 . S
C539 C540 1.396 . S
C540 H524 0.939 . S
C540 C539 1.396 . S
C540 C541 1.397 . S
C541 C540 1.397 . S
C541 C542 1.385 . S
C542 H525 0.940 1_455 S
C542 C541 1.385 . S
C542 C543 1.388 . S
C543 H522 0.939 . S
C543 C538 1.391 . S
C543 C542 1.388 . S
P544 O555 1.490 . S
P544 C558 1.812 . S
P544 C564 1.803 . S
P544 C570 1.819 . S
H545 C559 0.941 . S
H546 C560 0.939 . S
H547 C562 0.940 . S
H548 C563 0.940 . S
H549 C565 0.939 . S
H550 C566 0.942 . S
H551 C568 0.940 . S
H552 C569 0.939 . S
H553 C571 0.941 . S
H554 C575 0.939 . S
O555 P544 1.490 . S
H556 C572 0.939 . S
H557 C574 0.940 . S
C558 P544 1.812 . S
C558 C559 1.389 . S
C558 C563 1.391 . S
C559 H545 0.941 . S
C559 C558 1.389 . S
C559 C560 1.397 . S
C560 H546 0.939 . S
C560 C559 1.397 . S
C560 C561 1.378 . S
C561 C560 1.378 . S
C561 C562 1.378 . S
C562 H547 0.940 . S
C562 C561 1.378 . S
C562 C563 1.396 . S
C563 H548 0.940 . S
C563 C558 1.391 . S
C563 C562 1.396 . S
C564 P544 1.803 . S
C564 C565 1.378 . S
C564 C569 1.400 . S
C565 H549 0.939 . S
C565 C564 1.378 . S
C565 C566 1.361 . S
C566 H550 0.942 . S
C566 C565 1.361 . S
C566 C567 1.369 . S
C567 C566 1.369 . S
C567 C568 1.404 . S
C568 H551 0.940 . S
C568 C567 1.404 . S
C568 C569 1.389 . S
C569 H552 0.939 . S
C569 C564 1.400 . S
C569 C568 1.389 . S
C570 P544 1.819 . S
C570 C571 1.391 . S
C570 C575 1.391 . S
C571 H553 0.941 . S
C571 C570 1.391 . S
C571 C572 1.396 . S
C572 H556 0.939 . S
C572 C571 1.396 . S
C572 C573 1.397 . S
C573 C572 1.397 . S
C573 C574 1.385 . S
C574 H557 0.940 . S
C574 C573 1.385 . S
C574 C575 1.388 . S
C575 H554 0.939 . S
C575 C570 1.391 . S
C575 C574 1.388 . S
Eu576 C585 2.828 . S
Eu576 O587 2.400 . S
Eu576 O589 2.418 . S
Eu576 O594 2.373 1_565 S
Eu576 O597 2.488 . S
Eu576 O598 2.471 1_565 S
Eu576 O599 2.349 1_565 S
Eu577 O586 2.373 1_545 S
Eu577 O590 2.488 . S
Eu577 O591 2.461 1_545 S
Eu577 O592 2.349 1_545 S
Eu577 O595 2.392 . S
Eu577 O596 2.418 . S
Eu577 C606 2.828 . S
C578 O596 1.223 1_556 S
C578 O599 1.273 . S
C579 C580 1.379 1_565 S
C579 C583 1.373 . S
C579 C585 1.505 . S
C580 C579 1.379 1_545 S
C580 C582 1.369 . S
C580 H608 0.930 . S
C581 C583 1.383 . S
C581 C584 1.382 1_565 S
C581 H609 0.930 . S
C582 C580 1.369 . S
C582 C584 1.392 . S
C582 H610 0.930 . S
C583 C579 1.373 . S
C583 C581 1.383 . S
C583 H611 0.931 . S
C584 C581 1.382 1_545 S
C584 C582 1.392 . S
C585 Eu576 2.828 . S
C585 C579 1.505 . S
C585 O597 1.249 . S
C585 O598 1.244 1_565 S
O586 Eu577 2.373 1_565 S
O586 C588 1.258 . S
O587 Eu576 2.400 . S
O587 C588 1.233 1_556 S
C588 O586 1.258 . S
C588 O587 1.233 1_554 S
O589 Eu576 2.418 . S
O589 C593 1.244 1_556 S
O590 Eu577 2.488 . S
O590 C606 1.249 . S
O591 Eu577 2.461 1_565 S
O591 C606 1.229 1_565 S
O592 Eu577 2.349 1_565 S
O592 C593 1.265 . S
C593 O589 1.244 1_554 S
C593 O592 1.265 . S
O594 Eu576 2.373 1_545 S
O594 C607 1.258 . S
O595 Eu577 2.392 . S
O595 C607 1.242 1_554 S
O596 Eu577 2.418 . S
O596 C578 1.223 1_554 S
O597 Eu576 2.488 . S
O597 C585 1.249 . S
O598 Eu576 2.471 1_545 S
O598 C585 1.244 1_545 S
O599 Eu576 2.349 1_545 S
O599 C578 1.273 . S
C600 C601 1.379 1_545 S
C600 C604 1.373 . S
C600 C606 1.505 . S
C601 C600 1.379 1_565 S
C601 C603 1.369 . S
C601 H612 0.930 . S
C602 C604 1.383 . S
C602 C605 1.382 1_545 S
C602 H613 0.930 . S
C603 C601 1.369 . S
C603 C605 1.392 . S
C603 H614 0.930 . S
C604 C600 1.373 . S
C604 C602 1.383 . S
C604 H615 0.931 . S
C605 C602 1.382 1_565 S
C605 C603 1.392 . S
C606 Eu577 2.828 . S
C606 O590 1.249 . S
C606 O591 1.229 1_545 S
C606 C600 1.505 . S
C607 O594 1.258 . S
C607 O595 1.242 1_556 S
H608 C580 0.930 . S
H609 C581 0.930 . S
H610 C582 0.930 . S
H611 C583 0.931 . S
H612 C601 0.930 . S
H613 C602 0.930 . S
H614 C603 0.930 . S
H615 C604 0.931 . S
Eu616 C625 2.828 . S
Eu616 O627 2.392 1_556 S
Eu616 O629 2.418 . S
Eu616 O634 2.373 1_455 S
Eu616 O637 2.488 . S
Eu616 O638 2.471 1_455 S
Eu616 O639 2.349 1_455 S
Eu617 O626 2.373 1_655 S
Eu617 O630 2.488 . S
Eu617 O631 2.471 1_655 S
Eu617 O632 2.349 1_655 S
Eu617 O635 2.427 . S
Eu617 O636 2.418 . S
Eu617 C646 2.828 . S
C618 O636 1.244 1_556 S
C618 O639 1.265 . S
C619 C620 1.379 1_455 S
C619 C623 1.373 . S
C619 C625 1.505 . S
C620 C619 1.379 1_655 S
C620 C622 1.369 . S
C620 H648 0.930 . S
C621 C623 1.383 . S
C621 C624 1.382 1_455 S
C621 H649 0.930 . S
C622 C620 1.369 . S
C622 C624 1.392 . S
C622 H650 0.930 . S
C623 C619 1.373 . S
C623 C621 1.383 . S
C623 H651 0.931 . S
C624 C621 1.382 1_655 S
C624 C622 1.392 . S
C625 Eu616 2.828 . S
C625 C619 1.505 . S
C625 O637 1.249 . S
C625 O638 1.244 1_455 S
O626 Eu617 2.373 1_455 S
O626 C628 1.258 . S
O627 Eu616 2.392 1_554 S
O627 C628 1.242 . S
C628 O626 1.258 . S
C628 O627 1.242 . S
O629 Eu616 2.418 . S
O629 C633 1.244 1_556 S
O630 Eu617 2.488 . S
O630 C646 1.249 . S
O631 Eu617 2.471 1_455 S
O631 C646 1.244 1_455 S
O632 Eu617 2.349 1_455 S
O632 C633 1.265 . S
C633 O629 1.244 1_554 S
C633 O632 1.265 . S
O634 Eu616 2.373 1_655 S
O634 C647 1.258 . S
O635 Eu617 2.427 . S
O635 C647 1.200 1_554 S
O636 Eu617 2.418 . S
O636 C618 1.244 1_554 S
O637 Eu616 2.488 . S
O637 C625 1.249 . S
O638 Eu616 2.471 1_655 S
O638 C625 1.244 1_655 S
O639 Eu616 2.349 1_655 S
O639 C618 1.265 . S
C640 C641 1.379 . S
C640 C644 1.373 1_455 S
C640 C646 1.505 1_455 S
C641 C640 1.379 . S
C641 C643 1.369 . S
C641 H652 0.930 . S
C642 C644 1.383 . S
C642 C645 1.382 1_655 S
C642 H653 0.930 . S
C643 C641 1.369 . S
C643 C645 1.392 . S
C643 H654 0.930 . S
C644 C640 1.373 1_655 S
C644 C642 1.383 . S
C644 H655 0.931 . S
C645 C642 1.382 1_455 S
C645 C643 1.392 . S
C646 Eu617 2.828 . S
C646 O630 1.249 . S
C646 O631 1.244 1_655 S
C646 C640 1.505 1_655 S
C647 O634 1.258 . S
C647 O635 1.200 1_556 S
H648 C620 0.930 . S
H649 C621 0.930 . S
H650 C622 0.930 . S
H651 C623 0.931 . S
H652 C641 0.930 . S
H653 C642 0.930 . S
H654 C643 0.930 . S
H655 C644 0.931 . S
Eu656 C665 2.828 . S
Eu656 O667 2.392 . S
Eu656 O669 2.418 . S
Eu656 O674 2.373 . S
Eu656 O677 2.488 . S
Eu656 O678 2.471 . S
Eu656 O679 2.349 . S
Eu657 O666 2.373 . S
Eu657 O670 2.488 . S
Eu657 O671 2.471 . S
Eu657 O672 2.349 . S
Eu657 O675 2.392 1_556 S
Eu657 O676 2.418 . S
Eu657 C686 2.828 . S
C658 O676 1.244 1_554 S
C658 O679 1.265 . S
C659 C660 1.379 . S
C659 C663 1.373 . S
C659 C665 1.505 . S
C660 C659 1.379 . S
C660 C662 1.369 . S
C660 H688 0.930 . S
C661 C663 1.383 . S
C661 C664 1.382 . S
C661 H689 0.930 . S
C662 C660 1.369 . S
C662 C664 1.392 . S
C662 H690 0.930 . S
C663 C659 1.373 . S
C663 C661 1.383 . S
C663 H691 0.931 . S
C664 C661 1.382 . S
C664 C662 1.392 . S
C665 Eu656 2.828 . S
C665 C659 1.505 . S
C665 O677 1.249 . S
C665 O678 1.244 . S
O666 Eu657 2.373 . S
O666 C668 1.258 . S
O667 Eu656 2.392 . S
O667 C668 1.242 1_554 S
C668 O666 1.258 . S
C668 O667 1.242 1_556 S
O669 Eu656 2.418 . S
O669 C673 1.244 1_554 S
O670 Eu657 2.488 . S
O670 C686 1.249 . S
O671 Eu657 2.471 . S
O671 C686 1.244 . S
O672 Eu657 2.349 . S
O672 C673 1.265 . S
C673 O669 1.244 1_556 S
C673 O672 1.265 . S
O674 Eu656 2.373 . S
O674 C687 1.258 . S
O675 Eu657 2.392 1_554 S
O675 C687 1.242 . S
O676 Eu657 2.418 . S
O676 C658 1.244 1_556 S
O677 Eu656 2.488 . S
O677 C665 1.249 . S
O678 Eu656 2.471 . S
O678 C665 1.244 . S
O679 Eu656 2.349 . S
O679 C658 1.265 . S
C680 C681 1.379 . S
C680 C684 1.373 . S
C680 C686 1.505 . S
C681 C680 1.379 . S
C681 C683 1.369 . S
C681 H692 0.930 . S
C682 C684 1.383 . S
C682 C685 1.382 . S
C682 H693 0.930 . S
C683 C681 1.369 . S
C683 C685 1.392 . S
C683 H694 0.930 . S
C684 C680 1.373 . S
C684 C682 1.383 . S
C684 H695 0.931 . S
C685 C682 1.382 . S
C685 C683 1.392 . S
C686 Eu657 2.828 . S
C686 O670 1.249 . S
C686 O671 1.244 . S
C686 C680 1.505 . S
C687 O674 1.258 . S
C687 O675 1.242 . S
H688 C660 0.930 . S
H689 C661 0.930 . S
H690 C662 0.930 . S
H691 C663 0.931 . S
H692 C681 0.930 . S
H693 C682 0.930 . S
H694 C683 0.930 . S
H695 C684 0.931 . S
Eu696 C705 2.828 . S
Eu696 O707 2.392 . S
Eu696 O709 2.418 . S
Eu696 O714 2.373 . S
Eu696 O717 2.488 . S
Eu696 O718 2.471 . S
Eu696 O719 2.349 . S
Eu697 O706 2.373 . S
Eu697 O710 2.488 . S
Eu697 O711 2.471 . S
Eu697 O712 2.349 . S
Eu697 O715 2.392 . S
Eu697 O716 2.418 . S
Eu697 C726 2.828 . S
C698 O716 1.244 . S
C698 O719 1.265 . S
C699 C700 1.379 . S
C699 C703 1.373 . S
C699 C705 1.505 . S
C700 C699 1.379 . S
C700 C702 1.369 . S
C700 H728 0.930 . S
C701 C703 1.383 . S
C701 C704 1.382 . S
C701 H729 0.930 . S
C702 C700 1.369 . S
C702 C704 1.392 . S
C702 H730 0.930 . S
C703 C699 1.373 . S
C703 C701 1.383 . S
C703 H731 0.931 . S
C704 C701 1.382 . S
C704 C702 1.392 . S
C705 Eu696 2.828 . S
C705 C699 1.505 . S
C705 O717 1.249 . S
C705 O718 1.244 . S
O706 Eu697 2.373 . S
O706 C708 1.258 . S
O707 Eu696 2.392 . S
O707 C708 1.242 . S
C708 O706 1.258 . S
C708 O707 1.242 . S
O709 Eu696 2.418 . S
O709 C713 1.244 . S
O710 Eu697 2.488 . S
O710 C726 1.249 . S
O711 Eu697 2.471 . S
O711 C726 1.244 . S
O712 Eu697 2.349 . S
O712 C713 1.265 . S
C713 O709 1.244 . S
C713 O712 1.265 . S
O714 Eu696 2.373 . S
O714 C727 1.258 . S
O715 Eu697 2.392 . S
O715 C727 1.242 . S
O716 Eu697 2.418 . S
O716 C698 1.244 . S
O717 Eu696 2.488 . S
O717 C705 1.249 . S
O718 Eu696 2.471 . S
O718 C705 1.244 . S
O719 Eu696 2.349 . S
O719 C698 1.265 . S
C720 C721 1.379 . S
C720 C724 1.373 . S
C720 C726 1.505 . S
C721 C720 1.379 . S
C721 C723 1.369 . S
C721 H732 0.930 . S
C722 C724 1.383 . S
C722 C725 1.382 . S
C722 H733 0.930 . S
C723 C721 1.369 . S
C723 C725 1.392 . S
C723 H734 0.930 . S
C724 C720 1.373 . S
C724 C722 1.383 . S
C724 H735 0.931 . S
C725 C722 1.382 . S
C725 C723 1.392 . S
C726 Eu697 2.828 . S
C726 O710 1.249 . S
C726 O711 1.244 . S
C726 C720 1.505 . S
C727 O714 1.258 . S
C727 O715 1.242 . S
H728 C700 0.930 . S
H729 C701 0.930 . S
H730 C702 0.930 . S
H731 C703 0.931 . S
H732 C721 0.930 . S
H733 C722 0.930 . S
H734 C723 0.930 . S
H735 C724 0.931 . S
Eu736 C745 2.828 . S
Eu736 O747 2.392 . S
Eu736 O749 2.418 . S
Eu736 O754 2.373 . S
Eu736 O757 2.488 . S
Eu736 O758 2.471 . S
Eu736 O759 2.349 . S
Eu737 O746 2.373 . S
Eu737 O750 2.488 . S
Eu737 O751 2.471 . S
Eu737 O752 2.349 . S
Eu737 O755 2.392 . S
Eu737 O756 2.418 . S
Eu737 C766 2.828 . S
C738 O756 1.244 . S
C738 O759 1.265 . S
C739 C740 1.379 . S
C739 C743 1.373 . S
C739 C745 1.505 . S
C740 C739 1.379 . S
C740 C742 1.369 . S
C740 H768 0.930 . S
C741 C743 1.383 . S
C741 C744 1.382 . S
C741 H769 0.930 . S
C742 C740 1.369 . S
C742 C744 1.392 . S
C742 H770 0.930 . S
C743 C739 1.373 . S
C743 C741 1.383 . S
C743 H771 0.931 . S
C744 C741 1.382 . S
C744 C742 1.392 . S
C745 Eu736 2.828 . S
C745 C739 1.505 . S
C745 O757 1.249 . S
C745 O758 1.244 . S
O746 Eu737 2.373 . S
O746 C748 1.258 . S
O747 Eu736 2.392 . S
O747 C748 1.242 . S
C748 O746 1.258 . S
C748 O747 1.242 . S
O749 Eu736 2.418 . S
O749 C753 1.244 . S
O750 Eu737 2.488 . S
O750 C766 1.249 . S
O751 Eu737 2.471 . S
O751 C766 1.244 . S
O752 Eu737 2.349 . S
O752 C753 1.265 . S
C753 O749 1.244 . S
C753 O752 1.265 . S
O754 Eu736 2.373 . S
O754 C767 1.258 . S
O755 Eu737 2.392 . S
O755 C767 1.242 . S
O756 Eu737 2.418 . S
O756 C738 1.244 . S
O757 Eu736 2.488 . S
O757 C745 1.249 . S
O758 Eu736 2.471 . S
O758 C745 1.244 . S
O759 Eu736 2.349 . S
O759 C738 1.265 . S
C760 C761 1.379 . S
C760 C764 1.373 . S
C760 C766 1.505 . S
C761 C760 1.379 . S
C761 C763 1.369 . S
C761 H772 0.930 . S
C762 C764 1.383 . S
C762 C765 1.382 . S
C762 H773 0.930 . S
C763 C761 1.369 . S
C763 C765 1.392 . S
C763 H774 0.930 . S
C764 C760 1.373 . S
C764 C762 1.383 . S
C764 H775 0.931 . S
C765 C762 1.382 . S
C765 C763 1.392 . S
C766 Eu737 2.828 . S
C766 O750 1.249 . S
C766 O751 1.244 . S
C766 C760 1.505 . S
C767 O754 1.258 . S
C767 O755 1.242 . S
H768 C740 0.930 . S
H769 C741 0.930 . S
H770 C742 0.930 . S
H771 C743 0.931 . S
H772 C761 0.930 . S
H773 C762 0.930 . S
H774 C763 0.930 . S
H775 C764 0.931 . S
Eu776 C785 2.828 . S
Eu776 O787 2.392 . S
Eu776 O789 2.418 . S
Eu776 O794 2.373 . S
Eu776 O797 2.488 . S
Eu776 O798 2.471 . S
Eu776 O799 2.349 . S
Eu777 O786 2.373 . S
Eu777 O790 2.488 . S
Eu777 O791 2.471 . S
Eu777 O792 2.349 . S
Eu777 O795 2.392 . S
Eu777 O796 2.418 . S
Eu777 C806 2.828 . S
C778 O796 1.244 . S
C778 O799 1.265 . S
C779 C780 1.379 . S
C779 C783 1.373 . S
C779 C785 1.505 . S
C780 C779 1.379 . S
C780 C782 1.369 . S
C780 H808 0.930 . S
C781 C783 1.383 . S
C781 C784 1.382 . S
C781 H809 0.930 . S
C782 C780 1.369 . S
C782 C784 1.392 . S
C782 H810 0.930 . S
C783 C779 1.373 . S
C783 C781 1.383 . S
C783 H811 0.931 . S
C784 C781 1.382 . S
C784 C782 1.392 . S
C785 Eu776 2.828 . S
C785 C779 1.505 . S
C785 O797 1.249 . S
C785 O798 1.244 . S
O786 Eu777 2.373 . S
O786 C788 1.258 . S
O787 Eu776 2.392 . S
O787 C788 1.242 . S
C788 O786 1.258 . S
C788 O787 1.242 . S
O789 Eu776 2.418 . S
O789 C793 1.244 . S
O790 Eu777 2.488 . S
O790 C806 1.249 . S
O791 Eu777 2.471 . S
O791 C806 1.244 . S
O792 Eu777 2.349 . S
O792 C793 1.265 . S
C793 O789 1.244 . S
C793 O792 1.265 . S
O794 Eu776 2.373 . S
O794 C807 1.258 . S
O795 Eu777 2.392 . S
O795 C807 1.242 . S
O796 Eu777 2.418 . S
O796 C778 1.244 . S
O797 Eu776 2.488 . S
O797 C785 1.249 . S
O798 Eu776 2.471 . S
O798 C785 1.244 . S
O799 Eu776 2.349 . S
O799 C778 1.265 . S
C800 C801 1.379 . S
C800 C804 1.373 . S
C800 C806 1.505 . S
C801 C800 1.379 . S
C801 C803 1.369 . S
C801 H812 0.930 . S
C802 C804 1.383 . S
C802 C805 1.382 . S
C802 H813 0.930 . S
C803 C801 1.369 . S
C803 C805 1.392 . S
C803 H814 0.930 . S
C804 C800 1.373 . S
C804 C802 1.383 . S
C804 H815 0.931 . S
C805 C802 1.382 . S
C805 C803 1.392 . S
C806 Eu777 2.828 . S
C806 O790 1.249 . S
C806 O791 1.244 . S
C806 C800 1.505 . S
C807 O794 1.258 . S
C807 O795 1.242 . S
H808 C780 0.930 . S
H809 C781 0.930 . S
H810 C782 0.930 . S
H811 C783 0.931 . S
H812 C801 0.930 . S
H813 C802 0.930 . S
H814 C803 0.930 . S
H815 C804 0.931 . S
Eu816 C825 2.828 . S
Eu816 O827 2.392 . S
Eu816 O829 2.418 . S
Eu816 O834 2.373 . S
Eu816 O837 2.488 . S
Eu816 O838 2.471 . S
Eu816 O839 2.349 . S
Eu817 O826 2.373 . S
Eu817 O830 2.488 . S
Eu817 O831 2.471 . S
Eu817 O832 2.349 . S
Eu817 O835 2.392 . S
Eu817 O836 2.418 . S
Eu817 C846 2.828 . S
C818 O836 1.244 . S
C818 O839 1.265 . S
C819 C820 1.379 . S
C819 C823 1.373 . S
C819 C825 1.505 . S
C820 C819 1.379 . S
C820 C822 1.369 . S
C820 H848 0.930 . S
C821 C823 1.383 . S
C821 C824 1.382 . S
C821 H849 0.930 . S
C822 C820 1.369 . S
C822 C824 1.392 . S
C822 H850 0.930 . S
C823 C819 1.373 . S
C823 C821 1.383 . S
C823 H851 0.931 . S
C824 C821 1.382 . S
C824 C822 1.392 . S
C825 Eu816 2.828 . S
C825 C819 1.505 . S
C825 O837 1.249 . S
C825 O838 1.244 . S
O826 Eu817 2.373 . S
O826 C828 1.258 . S
O827 Eu816 2.392 . S
O827 C828 1.242 . S
C828 O826 1.258 . S
C828 O827 1.242 . S
O829 Eu816 2.418 . S
O829 C833 1.244 . S
O830 Eu817 2.488 . S
O830 C846 1.249 . S
O831 Eu817 2.471 . S
O831 C846 1.244 . S
O832 Eu817 2.349 . S
O832 C833 1.265 . S
C833 O829 1.244 . S
C833 O832 1.265 . S
O834 Eu816 2.373 . S
O834 C847 1.258 . S
O835 Eu817 2.392 . S
O835 C847 1.242 . S
O836 Eu817 2.418 . S
O836 C818 1.244 . S
O837 Eu816 2.488 . S
O837 C825 1.249 . S
O838 Eu816 2.471 . S
O838 C825 1.244 . S
O839 Eu816 2.349 . S
O839 C818 1.265 . S
C840 C841 1.379 . S
C840 C844 1.373 . S
C840 C846 1.505 . S
C841 C840 1.379 . S
C841 C843 1.369 . S
C841 H852 0.930 . S
C842 C844 1.383 . S
C842 C845 1.382 . S
C842 H853 0.930 . S
C843 C841 1.369 . S
C843 C845 1.392 . S
C843 H854 0.930 . S
C844 C840 1.373 . S
C844 C842 1.383 . S
C844 H855 0.931 . S
C845 C842 1.382 . S
C845 C843 1.392 . S
C846 Eu817 2.828 . S
C846 O830 1.249 . S
C846 O831 1.244 . S
C846 C840 1.505 . S
C847 O834 1.258 . S
C847 O835 1.242 . S
H848 C820 0.930 . S
H849 C821 0.930 . S
H850 C822 0.930 . S
H851 C823 0.931 . S
H852 C841 0.930 . S
H853 C842 0.930 . S
H854 C843 0.930 . S
H855 C844 0.931 . S
Eu856 C865 2.828 . S
Eu856 O867 2.392 . S
Eu856 O869 2.418 . S
Eu856 O874 2.373 . S
Eu856 O877 2.488 . S
Eu856 O878 2.471 . S
Eu856 O879 2.349 . S
Eu857 O866 2.373 . S
Eu857 O870 2.488 . S
Eu857 O871 2.471 . S
Eu857 O872 2.349 . S
Eu857 O875 2.392 . S
Eu857 O876 2.418 . S
Eu857 C886 2.828 . S
C858 O876 1.244 . S
C858 O879 1.265 . S
C859 C860 1.379 . S
C859 C863 1.373 . S
C859 C865 1.505 . S
C860 C859 1.379 . S
C860 C862 1.369 . S
C860 H888 0.930 . S
C861 C863 1.383 . S
C861 C864 1.382 . S
C861 H889 0.930 . S
C862 C860 1.369 . S
C862 C864 1.392 . S
C862 H890 0.930 . S
C863 C859 1.373 . S
C863 C861 1.383 . S
C863 H891 0.931 . S
C864 C861 1.382 . S
C864 C862 1.392 . S
C865 Eu856 2.828 . S
C865 C859 1.505 . S
C865 O877 1.249 . S
C865 O878 1.244 . S
O866 Eu857 2.373 . S
O866 C868 1.258 . S
O867 Eu856 2.392 . S
O867 C868 1.242 . S
C868 O866 1.258 . S
C868 O867 1.242 . S
O869 Eu856 2.418 . S
O869 C873 1.244 . S
O870 Eu857 2.488 . S
O870 C886 1.249 . S
O871 Eu857 2.471 . S
O871 C886 1.244 . S
O872 Eu857 2.349 . S
O872 C873 1.265 . S
C873 O869 1.244 . S
C873 O872 1.265 . S
O874 Eu856 2.373 . S
O874 C887 1.258 . S
O875 Eu857 2.392 . S
O875 C887 1.242 . S
O876 Eu857 2.418 . S
O876 C858 1.244 . S
O877 Eu856 2.488 . S
O877 C865 1.249 . S
O878 Eu856 2.471 . S
O878 C865 1.244 . S
O879 Eu856 2.349 . S
O879 C858 1.265 . S
C880 C881 1.379 . S
C880 C884 1.373 . S
C880 C886 1.505 . S
C881 C880 1.379 . S
C881 C883 1.369 . S
C881 H892 0.930 . S
C882 C884 1.383 . S
C882 C885 1.382 . S
C882 H893 0.930 . S
C883 C881 1.369 . S
C883 C885 1.392 . S
C883 H894 0.930 . S
C884 C880 1.373 . S
C884 C882 1.383 . S
C884 H895 0.931 . S
C885 C882 1.382 . S
C885 C883 1.392 . S
C886 Eu857 2.828 . S
C886 O870 1.249 . S
C886 O871 1.244 . S
C886 C880 1.505 . S
C887 O874 1.258 . S
C887 O875 1.242 . S
H888 C860 0.930 . S
H889 C861 0.930 . S
H890 C862 0.930 . S
H891 C863 0.931 . S
H892 C881 0.930 . S
H893 C882 0.930 . S
H894 C883 0.930 . S
H895 C884 0.931 . S
Eu896 C905 2.828 . S
Eu896 O907 2.392 . S
Eu896 O909 2.418 . S
Eu896 O914 2.373 . S
Eu896 O917 2.488 . S
Eu896 O918 2.471 . S
Eu896 O919 2.349 . S
Eu897 O906 2.373 . S
Eu897 O910 2.488 . S
Eu897 O911 2.471 . S
Eu897 O912 2.349 . S
Eu897 O915 2.392 . S
Eu897 O916 2.418 . S
Eu897 C926 2.828 . S
C898 O916 1.244 . S
C898 O919 1.265 . S
C899 C900 1.379 . S
C899 C903 1.373 . S
C899 C905 1.505 . S
C900 C899 1.379 . S
C900 C902 1.369 . S
C900 H928 0.930 . S
C901 C903 1.383 . S
C901 C904 1.382 . S
C901 H929 0.930 . S
C902 C900 1.369 . S
C902 C904 1.392 . S
C902 H930 0.930 . S
C903 C899 1.373 . S
C903 C901 1.383 . S
C903 H931 0.931 . S
C904 C901 1.382 . S
C904 C902 1.392 . S
C905 Eu896 2.828 . S
C905 C899 1.505 . S
C905 O917 1.249 . S
C905 O918 1.244 . S
O906 Eu897 2.373 . S
O906 C908 1.258 . S
O907 Eu896 2.392 . S
O907 C908 1.242 . S
C908 O906 1.258 . S
C908 O907 1.242 . S
O909 Eu896 2.418 . S
O909 C913 1.244 . S
O910 Eu897 2.488 . S
O910 C926 1.249 . S
O911 Eu897 2.471 . S
O911 C926 1.244 . S
O912 Eu897 2.349 . S
O912 C913 1.265 . S
C913 O909 1.244 . S
C913 O912 1.265 . S
O914 Eu896 2.373 . S
O914 C927 1.258 . S
O915 Eu897 2.392 . S
O915 C927 1.242 . S
O916 Eu897 2.418 . S
O916 C898 1.244 . S
O917 Eu896 2.488 . S
O917 C905 1.249 . S
O918 Eu896 2.471 . S
O918 C905 1.244 . S
O919 Eu896 2.349 . S
O919 C898 1.265 . S
C920 C921 1.379 . S
C920 C924 1.373 . S
C920 C926 1.505 . S
C921 C920 1.379 . S
C921 C923 1.369 . S
C921 H932 0.930 . S
C922 C924 1.383 . S
C922 C925 1.382 . S
C922 H933 0.930 . S
C923 C921 1.369 . S
C923 C925 1.392 . S
C923 H934 0.930 . S
C924 C920 1.373 . S
C924 C922 1.383 . S
C924 H935 0.931 . S
C925 C922 1.382 . S
C925 C923 1.392 . S
C926 Eu897 2.828 . S
C926 O910 1.249 . S
C926 O911 1.244 . S
C926 C920 1.505 . S
C927 O914 1.258 . S
C927 O915 1.242 . S
H928 C900 0.930 . S
H929 C901 0.930 . S
H930 C902 0.930 . S
H931 C903 0.931 . S
H932 C921 0.930 . S
H933 C922 0.930 . S
H934 C923 0.930 . S
H935 C924 0.931 . S
C936 C937 1.369 . S
C936 C938 1.419 . S
C936 H940 0.930 . S
C937 C936 1.369 . S
C937 C946 1.429 . S
C938 C936 1.419 . S
C938 C939 1.363 . S
C938 H941 0.929 . S
C939 C938 1.363 . S
C939 C945 1.428 . S
H940 C936 0.930 . S
H941 C938 0.929 . S
S942 N943 1.613 1_556 S
S942 N944 1.613 . S
N943 S942 1.613 1_554 S
N943 C946 1.350 . S
N944 S942 1.613 . S
N944 C945 1.332 1_556 S
C945 C939 1.428 . S
C945 N944 1.332 1_554 S
C945 C946 1.434 . S
C946 C937 1.429 . S
C946 N943 1.350 . S
C946 C945 1.434 . S
C947 C948 1.369 . S
C947 C949 1.419 . S
C947 H951 0.930 . S
C948 C947 1.369 . S
C948 C957 1.429 . S
C949 C947 1.419 . S
C949 C950 1.363 . S
C949 H952 0.929 . S
C950 C949 1.363 . S
C950 C956 1.428 . S
H951 C947 0.930 . S
H952 C949 0.929 . S
S953 N954 1.613 . S
S953 N955 1.610 . S
N954 S953 1.613 . S
N954 C957 1.350 . S
N955 S953 1.610 . S
N955 C956 1.351 . S
C956 C950 1.428 . S
C956 N955 1.351 . S
C956 C957 1.434 . S
C957 C948 1.429 . S
C957 N954 1.350 . S
C957 C956 1.434 . S
C958 C959 1.369 . S
C958 C960 1.419 . S
C958 H962 0.930 . S
C959 C958 1.369 . S
C959 C968 1.429 . S
C960 C958 1.419 . S
C960 C961 1.363 . S
C960 H963 0.929 . S
C961 C960 1.363 . S
C961 C967 1.428 . S
H962 C958 0.930 . S
H963 C960 0.929 . S
S964 N965 1.613 . S
S964 N966 1.610 . S
N965 S964 1.613 . S
N965 C968 1.350 1_556 S
N966 S964 1.610 . S
N966 C967 1.351 1_556 S
C967 C961 1.428 . S
C967 N966 1.351 1_554 S
C967 C968 1.434 . S
C968 C959 1.429 . S
C968 N965 1.350 1_554 S
C968 C967 1.434 . S
C969 C970 1.369 . S
C969 C971 1.419 . S
C969 H973 0.930 1_556 S
C970 C969 1.369 . S
C970 C979 1.429 . S
C971 C969 1.419 . S
C971 C972 1.363 . S
C971 H974 0.929 1_556 S
C972 C971 1.363 . S
C972 C978 1.428 . S
H973 C969 0.930 1_554 S
H974 C971 0.929 1_554 S
S975 N976 1.613 . S
S975 N977 1.610 . S
N976 S975 1.613 . S
N976 C979 1.350 . S
N977 S975 1.610 . S
N977 C978 1.351 . S
C978 C972 1.428 . S
C978 N977 1.351 . S
C978 C979 1.434 . S
C979 C970 1.429 . S
C979 N976 1.350 . S
C979 C978 1.434 . S
C980 C981 1.369 . S
C980 C982 1.419 . S
C980 H984 0.930 . S
C981 C980 1.369 . S
C981 C990 1.429 . S
C982 C980 1.419 . S
C982 C983 1.363 . S
C982 H985 0.929 . S
C983 C982 1.363 . S
C983 C989 1.428 . S
H984 C980 0.930 . S
H985 C982 0.929 . S
S986 N987 1.613 . S
S986 N988 1.610 . S
N987 S986 1.613 . S
N987 C990 1.350 . S
N988 S986 1.610 . S
N988 C989 1.351 . S
C989 C983 1.428 . S
C989 N988 1.351 . S
C989 C990 1.434 . S
C990 C981 1.429 . S
C990 N987 1.350 . S
C990 C989 1.434 . S
C991 C992 1.369 . S
C991 C993 1.419 . S
C991 H995 0.930 . S
C992 C991 1.369 . S
C992 C1001 1.429 . S
C993 C991 1.419 . S
C993 C994 1.363 . S
C993 H996 0.929 . S
C994 C993 1.363 . S
C994 C1000 1.428 . S
H995 C991 0.930 . S
H996 C993 0.929 . S
S997 N998 1.613 . S
S997 N999 1.610 . S
N998 S997 1.613 . S
N998 C1001 1.350 . S
N999 S997 1.610 . S
N999 C1000 1.351 . S
C1000 C994 1.428 . S
C1000 N999 1.351 . S
C1000 C1001 1.434 . S
C1001 C992 1.429 . S
C1001 N998 1.350 . S
C1001 C1000 1.434 . S
C1002 C1003 1.369 . S
C1002 C1004 1.419 . S
C1002 H1006 0.930 . S
C1003 C1002 1.369 . S
C1003 C1012 1.429 . S
C1004 C1002 1.419 . S
C1004 C1005 1.363 . S
C1004 H1007 0.929 . S
C1005 C1004 1.363 . S
C1005 C1011 1.428 . S
H1006 C1002 0.930 . S
H1007 C1004 0.929 . S
S1008 N1009 1.613 . S
S1008 N1010 1.610 . S
N1009 S1008 1.613 . S
N1009 C1012 1.350 1_554 S
N1010 S1008 1.610 . S
N1010 C1011 1.351 1_554 S
C1011 C1005 1.428 . S
C1011 N1010 1.351 1_556 S
C1011 C1012 1.434 . S
C1012 C1003 1.429 . S
C1012 N1009 1.350 1_556 S
C1012 C1011 1.434 . S
C1013 C1014 1.369 . S
C1013 C1015 1.419 . S
C1013 H1017 0.930 . S
C1014 C1013 1.369 . S
C1014 C1023 1.429 . S
C1015 C1013 1.419 . S
C1015 C1016 1.363 . S
C1015 H1018 0.929 . S
C1016 C1015 1.363 . S
C1016 C1022 1.428 . S
H1017 C1013 0.930 . S
H1018 C1015 0.929 . S
S1019 N1020 1.613 1_554 S
S1019 N1021 1.610 1_554 S
N1020 S1019 1.613 1_556 S
N1020 C1023 1.350 . S
N1021 S1019 1.610 1_556 S
N1021 C1022 1.351 . S
C1022 C1016 1.428 . S
C1022 N1021 1.351 . S
C1022 C1023 1.434 . S
C1023 C1014 1.429 . S
C1023 N1020 1.350 . S
C1023 C1022 1.434 . S
C1024 C1025 1.369 1_554 S
C1024 C1026 1.419 . S
C1024 H1028 0.930 . S
C1025 C1024 1.369 1_556 S
C1025 C1034 1.429 . S
C1026 C1024 1.419 . S
C1026 C1027 1.363 1_554 S
C1026 H1029 0.929 . S
C1027 C1026 1.363 1_556 S
C1027 C1033 1.428 . S
H1028 C1024 0.930 . S
H1029 C1026 0.929 . S
S1030 N1031 1.613 . S
S1030 N1032 1.610 . S
N1031 S1030 1.613 . S
N1031 C1034 1.350 . S
N1032 S1030 1.610 . S
N1032 C1033 1.351 . S
C1033 C1027 1.428 . S
C1033 N1032 1.351 . S
C1033 C1034 1.434 . S
C1034 C1025 1.429 . S
C1034 N1031 1.350 . S
C1034 C1033 1.434 . S
C1035 C1036 1.369 . S
C1035 C1037 1.419 . S
C1035 H1039 0.930 . S
C1036 C1035 1.369 . S
C1036 C1045 1.429 . S
C1037 C1035 1.419 . S
C1037 C1038 1.363 . S
C1037 H1040 0.929 . S
C1038 C1037 1.363 . S
C1038 C1044 1.428 . S
H1039 C1035 0.930 . S
H1040 C1037 0.929 . S
S1041 N1042 1.613 . S
S1041 N1043 1.610 . S
N1042 S1041 1.613 . S
N1042 C1045 1.350 . S
N1043 S1041 1.610 . S
N1043 C1044 1.351 . S
C1044 C1038 1.428 . S
C1044 N1043 1.351 . S
C1044 C1045 1.434 . S
C1045 C1036 1.429 . S
C1045 N1042 1.350 . S
C1045 C1044 1.434 . S
C1046 C1047 1.369 . S
C1046 C1048 1.419 . S
C1046 H1050 0.930 . S
C1047 C1046 1.369 . S
C1047 C1056 1.429 . S
C1048 C1046 1.419 . S
C1048 C1049 1.363 . S
C1048 H1051 0.929 . S
C1049 C1048 1.363 . S
C1049 C1055 1.428 . S
H1050 C1046 0.930 . S
H1051 C1048 0.929 . S
S1052 N1053 1.613 . S
S1052 N1054 1.610 . S
N1053 S1052 1.613 . S
N1053 C1056 1.350 . S
N1054 S1052 1.610 . S
N1054 C1055 1.351 . S
C1055 C1049 1.428 . S
C1055 N1054 1.351 . S
C1055 C1056 1.434 . S
C1056 C1047 1.429 . S
C1056 N1053 1.350 . S
C1056 C1055 1.434 . S
C1057 C1058 1.369 . S
C1057 C1059 1.419 . S
C1057 H1061 0.930 . S
C1058 C1057 1.369 . S
C1058 C1067 1.429 . S
C1059 C1057 1.419 . S
C1059 C1060 1.363 . S
C1059 H1062 0.929 . S
C1060 C1059 1.363 . S
C1060 C1066 1.423 1_554 S
H1061 C1057 0.930 . S
H1062 C1059 0.929 . S
S1063 N1064 1.613 . S
S1063 N1065 1.610 . S
N1064 S1063 1.613 . S
N1064 C1067 1.350 1_556 S
N1065 S1063 1.610 . S
N1065 C1066 1.358 . S
C1066 C1060 1.423 1_556 S
C1066 N1065 1.358 . S
C1066 C1067 1.433 1_556 S
C1067 C1058 1.429 . S
C1067 N1064 1.350 1_554 S
C1067 C1066 1.433 1_554 S
C1068 C1069 1.369 1_455 S
C1068 C1070 1.419 . S
C1068 H1072 0.930 . S
C1069 C1068 1.369 1_655 S
C1069 C1078 1.429 1_655 S
C1070 C1068 1.419 . S
C1070 C1071 1.363 . S
C1070 H1073 0.929 . S
C1071 C1070 1.363 . S
C1071 C1077 1.428 . S
H1072 C1068 0.930 . S
H1073 C1070 0.929 . S
S1074 N1075 1.613 1_455 S
S1074 N1076 1.610 . S
N1075 S1074 1.613 1_655 S
N1075 C1078 1.350 1_655 S
N1076 S1074 1.610 . S
N1076 C1077 1.351 . S
C1077 C1071 1.428 . S
C1077 N1076 1.351 . S
C1077 C1078 1.434 . S
C1078 C1069 1.429 1_455 S
C1078 N1075 1.350 1_455 S
C1078 C1077 1.434 . S
C1079 C1080 1.369 . S
C1079 C1081 1.419 . S
C1079 H1083 0.930 . S
C1080 C1079 1.369 . S
C1080 C1089 1.429 . S
C1081 C1079 1.419 . S
C1081 C1082 1.363 . S
C1081 H1084 0.929 . S
C1082 C1081 1.363 . S
C1082 C1088 1.428 . S
H1083 C1079 0.930 . S
H1084 C1081 0.929 . S
S1085 N1086 1.613 . S
S1085 N1087 1.610 . S
N1086 S1085 1.613 . S
N1086 C1089 1.350 . S
N1087 S1085 1.610 . S
N1087 C1088 1.351 . S
C1088 C1082 1.428 . S
C1088 N1087 1.351 . S
C1088 C1089 1.434 . S
C1089 C1080 1.429 . S
C1089 N1086 1.350 . S
C1089 C1088 1.434 . S
C1090 C1091 1.369 . S
C1090 C1092 1.419 1_545 S
C1090 H1094 0.930 . S
C1091 C1090 1.369 . S
C1091 C1100 1.427 1_545 S
C1092 C1090 1.419 1_565 S
C1092 C1093 1.363 . S
C1092 H1095 0.929 . S
C1093 C1092 1.363 . S
C1093 C1099 1.428 . S
H1094 C1090 0.930 . S
H1095 C1092 0.929 . S
S1096 N1097 1.613 1_565 S
S1096 N1098 1.610 . S
N1097 S1096 1.613 1_545 S
N1097 C1100 1.350 1_545 S
N1098 S1096 1.610 . S
N1098 C1099 1.351 . S
C1099 C1093 1.428 . S
C1099 N1098 1.351 . S
C1099 C1100 1.435 . S
C1100 C1091 1.427 1_565 S
C1100 N1097 1.350 1_565 S
C1100 C1099 1.435 . S
C1101 C1102 1.369 . S
C1101 C1103 1.419 . S
C1101 H1105 0.930 . S
C1102 C1101 1.369 . S
C1102 C1111 1.429 . S
C1103 C1101 1.419 . S
C1103 C1104 1.363 . S
C1103 H1106 0.929 . S
C1104 C1103 1.363 . S
C1104 C1110 1.428 . S
H1105 C1101 0.930 . S
H1106 C1103 0.929 . S
S1107 N1108 1.613 . S
S1107 N1109 1.610 . S
N1108 S1107 1.613 . S
N1108 C1111 1.350 . S
N1109 S1107 1.610 . S
N1109 C1110 1.351 . S
C1110 C1104 1.428 . S
C1110 N1109 1.351 . S
C1110 C1111 1.434 . S
C1111 C1102 1.429 . S
C1111 N1108 1.350 . S
C1111 C1110 1.434 . S
C1112 C1113 1.369 . S
C1112 C1114 1.419 . S
C1112 H1116 0.930 . S
C1113 C1112 1.369 . S
C1113 C1122 1.429 . S
C1114 C1112 1.419 . S
C1114 C1115 1.363 . S
C1114 H1117 0.929 . S
C1115 C1114 1.363 . S
C1115 C1121 1.428 . S
H1116 C1112 0.930 . S
H1117 C1114 0.929 . S
S1118 N1119 1.613 . S
S1118 N1120 1.610 . S
N1119 S1118 1.613 . S
N1119 C1122 1.350 . S
N1120 S1118 1.610 . S
N1120 C1121 1.351 . S
C1121 C1115 1.428 . S
C1121 N1120 1.351 . S
C1121 C1122 1.434 . S
C1122 C1113 1.429 . S
C1122 N1119 1.350 . S
C1122 C1121 1.434 . S
C1123 C1124 1.369 . S
C1123 C1125 1.419 . S
C1123 H1127 0.930 . S
C1124 C1123 1.369 . S
C1124 C1133 1.429 . S
C1125 C1123 1.419 . S
C1125 C1126 1.363 . S
C1125 H1128 0.929 . S
C1126 C1125 1.363 . S
C1126 C1132 1.428 . S
H1127 C1123 0.930 . S
H1128 C1125 0.929 . S
S1129 N1130 1.613 . S
S1129 N1131 1.610 . S
N1130 S1129 1.613 . S
N1130 C1133 1.350 . S
N1131 S1129 1.610 . S
N1131 C1132 1.351 . S
C1132 C1126 1.428 . S
C1132 N1131 1.351 . S
C1132 C1133 1.434 . S
C1133 C1124 1.429 . S
C1133 N1130 1.350 . S
C1133 C1132 1.434 . S
C1134 C1135 1.369 . S
C1134 C1136 1.419 . S
C1134 H1138 0.930 . S
C1135 C1134 1.369 . S
C1135 C1144 1.429 . S
C1136 C1134 1.419 . S
C1136 C1137 1.363 . S
C1136 H1139 0.929 . S
C1137 C1136 1.363 . S
C1137 C1143 1.428 . S
H1138 C1134 0.930 . S
H1139 C1136 0.929 . S
S1140 N1141 1.613 . S
S1140 N1142 1.610 . S
N1141 S1140 1.613 . S
N1141 C1144 1.350 . S
N1142 S1140 1.610 . S
N1142 C1143 1.351 . S
C1143 C1137 1.428 . S
C1143 N1142 1.351 . S
C1143 C1144 1.434 . S
C1144 C1135 1.429 . S
C1144 N1141 1.350 . S
C1144 C1143 1.434 . S
C1145 C1146 1.369 . S
C1145 C1147 1.419 . S
C1145 H1149 0.930 . S
C1146 C1145 1.369 . S
C1146 C1155 1.429 . S
C1147 C1145 1.419 . S
C1147 C1148 1.363 . S
C1147 H1150 0.929 . S
C1148 C1147 1.363 . S
C1148 C1154 1.428 . S
H1149 C1145 0.930 . S
H1150 C1147 0.929 . S
S1151 N1152 1.613 . S
S1151 N1153 1.610 . S
N1152 S1151 1.613 . S
N1152 C1155 1.350 . S
N1153 S1151 1.610 . S
N1153 C1154 1.351 . S
C1154 C1148 1.428 . S
C1154 N1153 1.351 . S
C1154 C1155 1.434 . S
C1155 C1146 1.429 . S
C1155 N1152 1.350 . S
C1155 C1154 1.434 . S
C1156 C1157 1.369 . S
C1156 C1158 1.419 . S
C1156 H1160 0.930 . S
C1157 C1156 1.369 . S
C1157 C1166 1.429 . S
C1158 C1156 1.419 . S
C1158 C1159 1.363 . S
C1158 H1161 0.929 . S
C1159 C1158 1.363 . S
C1159 C1165 1.428 . S
H1160 C1156 0.930 . S
H1161 C1158 0.929 . S
S1162 N1163 1.613 . S
S1162 N1164 1.610 . S
N1163 S1162 1.613 . S
N1163 C1166 1.350 . S
N1164 S1162 1.610 . S
N1164 C1165 1.351 . S
C1165 C1159 1.428 . S
C1165 N1164 1.351 . S
C1165 C1166 1.434 . S
C1166 C1157 1.429 . S
C1166 N1163 1.350 . S
C1166 C1165 1.434 . S
C1167 C1168 1.369 1_565 S
C1167 C1169 1.419 . S
C1167 H1171 0.930 1_565 S
C1168 C1167 1.369 1_545 S
C1168 C1177 1.429 1_545 S
C1169 C1167 1.419 . S
C1169 C1170 1.363 . S
C1169 H1172 0.929 . S
C1170 C1169 1.363 . S
C1170 C1176 1.428 . S
H1171 C1167 0.930 1_545 S
H1172 C1169 0.929 . S
S1173 N1174 1.613 1_565 S
S1173 N1175 1.610 . S
N1174 S1173 1.613 1_545 S
N1174 C1177 1.350 1_545 S
N1175 S1173 1.610 . S
N1175 C1176 1.351 . S
C1176 C1170 1.428 . S
C1176 N1175 1.351 . S
C1176 C1177 1.434 . S
C1177 C1168 1.429 1_565 S
C1177 N1174 1.350 1_565 S
C1177 C1176 1.434 . S
C1178 C1179 1.369 . S
C1178 C1180 1.419 . S
C1178 H1182 0.930 1_455 S
C1179 C1178 1.369 . S
C1179 C1188 1.429 . S
C1180 C1178 1.419 . S
C1180 C1181 1.363 . S
C1180 H1183 0.929 . S
C1181 C1180 1.363 . S
C1181 C1187 1.428 . S
H1182 C1178 0.930 1_655 S
H1183 C1180 0.929 . S
S1184 N1185 1.613 . S
S1184 N1186 1.610 . S
N1185 S1184 1.613 . S
N1185 C1188 1.350 . S
N1186 S1184 1.610 . S
N1186 C1187 1.351 . S
C1187 C1181 1.428 . S
C1187 N1186 1.351 . S
C1187 C1188 1.434 . S
C1188 C1179 1.429 . S
C1188 N1185 1.350 . S
C1188 C1187 1.434 . S
C1189 C1190 1.369 . S
C1189 C1191 1.419 . S
C1189 H1193 0.930 . S
C1190 C1189 1.369 . S
C1190 C1199 1.429 . S
C1191 C1189 1.419 . S
C1191 C1192 1.363 . S
C1191 H1194 0.929 . S
C1192 C1191 1.363 . S
C1192 C1198 1.428 . S
H1193 C1189 0.930 . S
H1194 C1191 0.929 . S
S1195 N1196 1.613 . S
S1195 N1197 1.610 . S
N1196 S1195 1.613 . S
N1196 C1199 1.350 . S
N1197 S1195 1.610 . S
N1197 C1198 1.351 . S
C1198 C1192 1.428 . S
C1198 N1197 1.351 . S
C1198 C1199 1.434 . S
C1199 C1190 1.429 . S
C1199 N1196 1.350 . S
C1199 C1198 1.434 . S
C1200 C1201 1.369 . S
C1200 C1202 1.419 . S
C1200 H1204 0.930 . S
C1201 C1200 1.369 . S
C1201 C1210 1.429 . S
C1202 C1200 1.419 . S
C1202 C1203 1.363 . S
C1202 H1205 0.929 . S
C1203 C1202 1.363 . S
C1203 C1209 1.428 . S
H1204 C1200 0.930 . S
H1205 C1202 0.929 . S
S1206 N1207 1.613 . S
S1206 N1208 1.610 . S
N1207 S1206 1.613 . S
N1207 C1210 1.350 . S
N1208 S1206 1.610 . S
N1208 C1209 1.351 . S
C1209 C1203 1.428 . S
C1209 N1208 1.351 . S
C1209 C1210 1.434 . S
C1210 C1201 1.429 . S
C1210 N1207 1.350 . S
C1210 C1209 1.434 . S
C1211 C1212 1.369 . S
C1211 C1213 1.419 . S
C1211 H1215 0.930 . S
C1212 C1211 1.369 . S
C1212 C1221 1.429 . S
C1213 C1211 1.419 . S
C1213 C1214 1.363 . S
C1213 H1216 0.929 . S
C1214 C1213 1.363 . S
C1214 C1220 1.428 . S
H1215 C1211 0.930 . S
H1216 C1213 0.929 . S
S1217 N1218 1.613 . S
S1217 N1219 1.610 . S
N1218 S1217 1.613 . S
N1218 C1221 1.350 . S
N1219 S1217 1.610 . S
N1219 C1220 1.351 . S
C1220 C1214 1.428 . S
C1220 N1219 1.351 . S
C1220 C1221 1.434 . S
C1221 C1212 1.429 . S
C1221 N1218 1.350 . S
C1221 C1220 1.434 . S
C1222 C1223 1.369 . S
C1222 C1224 1.419 . S
C1222 H1226 0.930 . S
C1223 C1222 1.369 . S
C1223 C1232 1.429 . S
C1224 C1222 1.419 . S
C1224 C1225 1.363 . S
C1224 H1227 0.929 . S
C1225 C1224 1.363 . S
C1225 C1231 1.428 . S
H1226 C1222 0.930 . S
H1227 C1224 0.929 . S
S1228 N1229 1.613 . S
S1228 N1230 1.610 . S
N1229 S1228 1.613 . S
N1229 C1232 1.350 . S
N1230 S1228 1.610 . S
N1230 C1231 1.351 . S
C1231 C1225 1.428 . S
C1231 N1230 1.351 . S
C1231 C1232 1.434 . S
C1232 C1223 1.429 . S
C1232 N1229 1.350 . S
C1232 C1231 1.434 . S
C1233 C1234 1.369 1_545 S
C1233 C1235 1.419 . S
C1233 H1237 0.930 1_545 S
C1234 C1233 1.369 1_565 S
C1234 C1243 1.429 1_565 S
C1235 C1233 1.419 . S
C1235 C1236 1.363 . S
C1235 H1238 0.929 . S
C1236 C1235 1.363 . S
C1236 C1242 1.428 . S
H1237 C1233 0.930 1_565 S
H1238 C1235 0.929 . S
S1239 N1240 1.613 1_545 S
S1239 N1241 1.610 . S
N1240 S1239 1.613 1_565 S
N1240 C1243 1.350 1_565 S
N1241 S1239 1.610 . S
N1241 C1242 1.351 . S
C1242 C1236 1.428 . S
C1242 N1241 1.351 . S
C1242 C1243 1.434 . S
C1243 C1234 1.429 1_545 S
C1243 N1240 1.350 1_545 S
C1243 C1242 1.434 . S
C1244 C1245 1.369 . S
C1244 C1246 1.419 . S
C1244 H1248 0.930 . S
C1245 C1244 1.369 . S
C1245 C1254 1.429 . S
C1246 C1244 1.419 . S
C1246 C1247 1.363 . S
C1246 H1249 0.929 . S
C1247 C1246 1.363 . S
C1247 C1253 1.428 . S
H1248 C1244 0.930 . S
H1249 C1246 0.929 . S
S1250 N1251 1.613 1_655 S
S1250 N1252 1.610 . S
N1251 S1250 1.613 1_455 S
N1251 C1254 1.350 1_455 S
N1252 S1250 1.610 . S
N1252 C1253 1.351 . S
C1253 C1247 1.428 . S
C1253 N1252 1.351 . S
C1253 C1254 1.434 . S
C1254 C1245 1.429 . S
C1254 N1251 1.350 1_655 S
C1254 C1253 1.434 . S
C1255 C1256 1.369 . S
C1255 C1257 1.419 . S
C1255 H1259 0.930 . S
C1256 C1255 1.369 . S
C1256 C1265 1.429 . S
C1257 C1255 1.419 . S
C1257 C1258 1.363 . S
C1257 H1260 0.929 . S
C1258 C1257 1.363 . S
C1258 C1264 1.428 . S
H1259 C1255 0.930 . S
H1260 C1257 0.929 . S
S1261 N1262 1.613 . S
S1261 N1263 1.610 . S
N1262 S1261 1.613 . S
N1262 C1265 1.350 . S
N1263 S1261 1.610 . S
N1263 C1264 1.351 . S
C1264 C1258 1.428 . S
C1264 N1263 1.351 . S
C1264 C1265 1.434 . S
C1265 C1256 1.429 . S
C1265 N1262 1.350 . S
C1265 C1264 1.434 . S
C1266 C1267 1.369 1_655 S
C1266 C1268 1.419 . S
C1266 H1270 0.930 . S
C1267 C1266 1.369 1_455 S
C1267 C1276 1.429 1_455 S
C1268 C1266 1.419 . S
C1268 C1269 1.363 . S
C1268 H1271 0.929 . S
C1269 C1268 1.363 . S
C1269 C1275 1.428 . S
H1270 C1266 0.930 . S
H1271 C1268 0.929 . S
S1272 N1273 1.613 1_655 S
S1272 N1274 1.610 . S
N1273 S1272 1.613 1_455 S
N1273 C1276 1.350 1_455 S
N1274 S1272 1.610 . S
N1274 C1275 1.351 . S
C1275 C1269 1.428 . S
C1275 N1274 1.351 . S
C1275 C1276 1.434 . S
C1276 C1267 1.429 1_655 S
C1276 N1273 1.350 1_655 S
C1276 C1275 1.434 . S
C1277 C1278 1.369 . S
C1277 C1279 1.419 . S
C1277 H1281 0.930 . S
C1278 C1277 1.369 . S
C1278 C1287 1.429 . S
C1279 C1277 1.419 . S
C1279 C1280 1.363 . S
C1279 H1282 0.929 . S
C1280 C1279 1.363 . S
C1280 C1286 1.428 . S
H1281 C1277 0.930 . S
H1282 C1279 0.929 . S
S1283 N1284 1.613 . S
S1283 N1285 1.610 . S
N1284 S1283 1.613 . S
N1284 C1287 1.350 . S
N1285 S1283 1.610 . S
N1285 C1286 1.351 . S
C1286 C1280 1.428 . S
C1286 N1285 1.351 . S
C1286 C1287 1.434 . S
C1287 C1278 1.429 . S
C1287 N1284 1.350 . S
C1287 C1286 1.434 . S
C1288 C1289 1.370 . S
C1288 C1290 1.394 1_565 S
C1288 H1292 0.956 . S
C1289 C1288 1.370 . S
C1289 C1298 1.429 1_565 S
C1290 C1288 1.394 1_545 S
C1290 C1291 1.363 . S
C1290 H1293 0.929 . S
C1291 C1290 1.363 . S
C1291 C1297 1.428 . S
H1292 C1288 0.956 . S
H1293 C1290 0.929 . S
S1294 N1295 1.613 1_545 S
S1294 N1296 1.610 . S
N1295 S1294 1.613 1_565 S
N1295 C1298 1.350 1_565 S
N1296 S1294 1.610 . S
N1296 C1297 1.351 . S
C1297 C1291 1.428 . S
C1297 N1296 1.351 . S
C1297 C1298 1.434 . S
C1298 C1289 1.429 1_545 S
C1298 N1295 1.350 1_545 S
C1298 C1297 1.434 . S
C1299 C1300 1.369 . S
C1299 C1301 1.419 . S
C1299 H1303 0.930 . S
C1300 C1299 1.369 . S
C1300 C1309 1.429 . S
C1301 C1299 1.419 . S
C1301 C1302 1.363 . S
C1301 H1304 0.929 . S
C1302 C1301 1.363 . S
C1302 C1308 1.428 . S
H1303 C1299 0.930 . S
H1304 C1301 0.929 . S
S1305 N1306 1.613 . S
S1305 N1307 1.610 . S
N1306 S1305 1.613 . S
N1306 C1309 1.350 . S
N1307 S1305 1.610 . S
N1307 C1308 1.351 . S
C1308 C1302 1.428 . S
C1308 N1307 1.351 . S
C1308 C1309 1.434 . S
C1309 C1300 1.429 . S
C1309 N1306 1.350 . S
C1309 C1308 1.434 . S
C1310 C1311 1.369 . S
C1310 C1312 1.419 . S
C1310 H1314 0.930 . S
C1311 C1310 1.369 . S
C1311 C1320 1.429 . S
C1312 C1310 1.419 . S
C1312 C1313 1.363 . S
C1312 H1315 0.929 . S
C1313 C1312 1.363 . S
C1313 C1319 1.428 . S
H1314 C1310 0.930 . S
H1315 C1312 0.929 . S
S1316 N1317 1.613 . S
S1316 N1318 1.610 . S
N1317 S1316 1.613 . S
N1317 C1320 1.350 . S
N1318 S1316 1.610 . S
N1318 C1319 1.351 . S
C1319 C1313 1.428 . S
C1319 N1318 1.351 . S
C1319 C1320 1.434 . S
C1320 C1311 1.429 . S
C1320 N1317 1.350 . S
C1320 C1319 1.434 . S
C1321 C1322 1.369 . S
C1321 C1323 1.419 . S
C1321 H1325 0.930 . S
C1322 C1321 1.369 . S
C1322 C1331 1.429 . S
C1323 C1321 1.419 . S
C1323 C1324 1.363 . S
C1323 H1326 0.929 . S
C1324 C1323 1.363 . S
C1324 C1330 1.428 . S
H1325 C1321 0.930 . S
H1326 C1323 0.929 . S
S1327 N1328 1.613 . S
S1327 N1329 1.610 . S
N1328 S1327 1.613 . S
N1328 C1331 1.350 . S
N1329 S1327 1.610 . S
N1329 C1330 1.351 . S
C1330 C1324 1.428 . S
C1330 N1329 1.351 . S
C1330 C1331 1.434 . S
C1331 C1322 1.429 . S
C1331 N1328 1.350 . S
C1331 C1330 1.434 . S
C1332 C1333 1.369 . S
C1332 C1334 1.419 . S
C1332 H1336 0.930 . S
C1333 C1332 1.369 . S
C1333 C1342 1.429 . S
C1334 C1332 1.419 . S
C1334 C1335 1.363 . S
C1334 H1337 0.929 . S
C1335 C1334 1.363 . S
C1335 C1341 1.428 1_565 S
H1336 C1332 0.930 . S
H1337 C1334 0.929 . S
S1338 N1339 1.613 . S
S1338 N1340 1.610 . S
N1339 S1338 1.613 . S
N1339 C1342 1.350 1_545 S
N1340 S1338 1.610 . S
N1340 C1341 1.351 . S
C1341 C1335 1.428 1_545 S
C1341 N1340 1.351 . S
C1341 C1342 1.434 1_545 S
C1342 C1333 1.429 . S
C1342 N1339 1.350 1_565 S
C1342 C1341 1.434 1_565 S
C1343 C1344 1.369 . S
C1343 C1345 1.419 . S
C1343 H1347 0.930 1_455 S
C1344 C1343 1.369 . S
C1344 C1353 1.429 . S
C1345 C1343 1.419 . S
C1345 C1346 1.363 . S
C1345 H1348 0.929 1_455 S
C1346 C1345 1.363 . S
C1346 C1352 1.428 . S
H1347 C1343 0.930 1_655 S
H1348 C1345 0.929 1_655 S
S1349 N1350 1.613 . S
S1349 N1351 1.610 . S
N1350 S1349 1.613 . S
N1350 C1353 1.350 . S
N1351 S1349 1.610 . S
N1351 C1352 1.351 . S
C1352 C1346 1.428 . S
C1352 N1351 1.351 . S
C1352 C1353 1.434 . S
C1353 C1344 1.429 . S
C1353 N1350 1.350 . S
C1353 C1352 1.434 . S
C1354 C1355 1.369 . S
C1354 C1356 1.419 . S
C1354 H1358 0.930 . S
C1355 C1354 1.369 . S
C1355 C1364 1.429 . S
C1356 C1354 1.419 . S
C1356 C1357 1.363 . S
C1356 H1359 0.929 . S
C1357 C1356 1.363 . S
C1357 C1363 1.428 . S
H1358 C1354 0.930 . S
H1359 C1356 0.929 . S
S1360 N1361 1.613 . S
S1360 N1362 1.610 . S
N1361 S1360 1.613 . S
N1361 C1364 1.350 . S
N1362 S1360 1.610 . S
N1362 C1363 1.351 . S
C1363 C1357 1.428 . S
C1363 N1362 1.351 . S
C1363 C1364 1.434 . S
C1364 C1355 1.429 . S
C1364 N1361 1.350 . S
C1364 C1363 1.434 . S
C1365 C1366 1.369 . S
C1365 C1367 1.419 . S
C1365 H1369 0.930 . S
C1366 C1365 1.369 . S
C1366 C1375 1.429 . S
C1367 C1365 1.419 . S
C1367 C1368 1.363 . S
C1367 H1370 0.929 . S
C1368 C1367 1.363 . S
C1368 C1374 1.428 . S
H1369 C1365 0.930 . S
H1370 C1367 0.929 . S
S1371 N1372 1.613 . S
S1371 N1373 1.610 . S
N1372 S1371 1.613 . S
N1372 C1375 1.350 . S
N1373 S1371 1.610 . S
N1373 C1374 1.351 . S
C1374 C1368 1.428 . S
C1374 N1373 1.351 . S
C1374 C1375 1.434 . S
C1375 C1366 1.429 . S
C1375 N1372 1.350 . S
C1375 C1374 1.434 . S
C1376 C1377 1.369 . S
C1376 C1378 1.419 . S
C1376 H1380 0.930 . S
C1377 C1376 1.369 . S
C1377 C1386 1.429 . S
C1378 C1376 1.419 . S
C1378 C1379 1.363 . S
C1378 H1381 0.929 . S
C1379 C1378 1.363 . S
C1379 C1385 1.428 . S
H1380 C1376 0.930 . S
H1381 C1378 0.929 . S
S1382 N1383 1.613 . S
S1382 N1384 1.610 . S
N1383 S1382 1.613 . S
N1383 C1386 1.350 . S
N1384 S1382 1.610 . S
N1384 C1385 1.351 . S
C1385 C1379 1.428 . S
C1385 N1384 1.351 . S
C1385 C1386 1.434 . S
C1386 C1377 1.429 . S
C1386 N1383 1.350 . S
C1386 C1385 1.434 . S
C1387 C1388 1.369 . S
C1387 C1389 1.419 . S
C1387 H1391 0.930 . S
C1388 C1387 1.369 . S
C1388 C1397 1.429 . S
C1389 C1387 1.419 . S
C1389 C1390 1.363 . S
C1389 H1392 0.929 . S
C1390 C1389 1.363 . S
C1390 C1396 1.428 . S
H1391 C1387 0.930 . S
H1392 C1389 0.929 . S
S1393 N1394 1.613 . S
S1393 N1395 1.610 . S
N1394 S1393 1.613 . S
N1394 C1397 1.350 1_565 S
N1395 S1393 1.610 . S
N1395 C1396 1.351 1_565 S
C1396 C1390 1.428 . S
C1396 N1395 1.351 1_545 S
C1396 C1397 1.434 . S
C1397 C1388 1.429 . S
C1397 N1394 1.350 1_545 S
C1397 C1396 1.434 . S
C1398 C1399 1.369 . S
C1398 C1400 1.419 . S
C1398 H1402 0.930 . S
C1399 C1398 1.369 . S
C1399 C1408 1.429 . S
C1400 C1398 1.419 . S
C1400 C1401 1.363 . S
C1400 H1403 0.929 . S
C1401 C1400 1.363 . S
C1401 C1407 1.428 . S
H1402 C1398 0.930 . S
H1403 C1400 0.929 . S
S1404 N1405 1.613 . S
S1404 N1406 1.610 . S
N1405 S1404 1.613 . S
N1405 C1408 1.350 . S
N1406 S1404 1.610 . S
N1406 C1407 1.351 . S
C1407 C1401 1.428 . S
C1407 N1406 1.351 . S
C1407 C1408 1.434 . S
C1408 C1399 1.429 . S
C1408 N1405 1.350 . S
C1408 C1407 1.434 . S
C1409 C1410 1.369 . S
C1409 C1411 1.419 . S
C1409 H1413 0.930 . S
C1410 C1409 1.369 . S
C1410 C1419 1.429 . S
C1411 C1409 1.419 . S
C1411 C1412 1.363 . S
C1411 H1414 0.929 . S
C1412 C1411 1.363 . S
C1412 C1418 1.428 . S
H1413 C1409 0.930 . S
H1414 C1411 0.929 . S
S1415 N1416 1.613 . S
S1415 N1417 1.610 . S
N1416 S1415 1.613 . S
N1416 C1419 1.350 . S
N1417 S1415 1.610 . S
N1417 C1418 1.351 . S
C1418 C1412 1.428 . S
C1418 N1417 1.351 . S
C1418 C1419 1.434 . S
C1419 C1410 1.429 . S
C1419 N1416 1.350 . S
C1419 C1418 1.434 . S
C1420 C1421 1.369 . S
C1420 C1422 1.419 . S
C1420 H1424 0.930 . S
C1421 C1420 1.369 . S
C1421 C1430 1.429 . S
C1422 C1420 1.419 . S
C1422 C1423 1.363 . S
C1422 H1425 0.929 . S
C1423 C1422 1.363 . S
C1423 C1429 1.428 . S
H1424 C1420 0.930 . S
H1425 C1422 0.929 . S
S1426 N1427 1.613 . S
S1426 N1428 1.610 . S
N1427 S1426 1.613 . S
N1427 C1430 1.350 . S
N1428 S1426 1.610 . S
N1428 C1429 1.351 . S
C1429 C1423 1.428 . S
C1429 N1428 1.351 . S
C1429 C1430 1.434 . S
C1430 C1421 1.429 . S
C1430 N1427 1.350 . S
C1430 C1429 1.434 . S
C1431 C1432 1.369 . S
C1431 C1433 1.419 . S
C1431 H1435 0.930 . S
C1432 C1431 1.369 . S
C1432 C1441 1.429 . S
C1433 C1431 1.419 . S
C1433 C1434 1.363 . S
C1433 H1436 0.929 . S
C1434 C1433 1.363 . S
C1434 C1440 1.428 . S
H1435 C1431 0.930 . S
H1436 C1433 0.929 . S
S1437 N1438 1.613 . S
S1437 N1439 1.610 . S
N1438 S1437 1.613 . S
N1438 C1441 1.350 . S
N1439 S1437 1.610 . S
N1439 C1440 1.351 . S
C1440 C1434 1.428 . S
C1440 N1439 1.351 . S
C1440 C1441 1.434 . S
C1441 C1432 1.429 . S
C1441 N1438 1.350 . S
C1441 C1440 1.434 . S
C1442 C1443 1.369 . S
C1442 C1444 1.419 . S
C1442 H1446 0.930 . S
C1443 C1442 1.369 . S
C1443 C1452 1.429 . S
C1444 C1442 1.419 . S
C1444 C1445 1.363 . S
C1444 H1447 0.929 . S
C1445 C1444 1.363 . S
C1445 C1451 1.428 . S
H1446 C1442 0.930 . S
H1447 C1444 0.929 . S
S1448 N1449 1.613 . S
S1448 N1450 1.610 . S
N1449 S1448 1.613 . S
N1449 C1452 1.350 . S
N1450 S1448 1.610 . S
N1450 C1451 1.351 . S
C1451 C1445 1.428 . S
C1451 N1450 1.351 . S
C1451 C1452 1.434 . S
C1452 C1443 1.429 . S
C1452 N1449 1.350 . S
C1452 C1451 1.434 . S
C1453 C1454 1.369 . S
C1453 C1455 1.419 . S
C1453 H1457 0.930 . S
C1454 C1453 1.369 . S
C1454 C1463 1.429 . S
C1455 C1453 1.419 . S
C1455 C1456 1.363 . S
C1455 H1458 0.929 . S
C1456 C1455 1.363 . S
C1456 C1462 1.428 . S
H1457 C1453 0.930 . S
H1458 C1455 0.929 . S
S1459 N1460 1.613 . S
S1459 N1461 1.610 . S
N1460 S1459 1.613 . S
N1460 C1463 1.350 . S
N1461 S1459 1.610 . S
N1461 C1462 1.351 . S
C1462 C1456 1.428 . S
C1462 N1461 1.351 . S
C1462 C1463 1.434 . S
C1463 C1454 1.429 . S
C1463 N1460 1.350 . S
C1463 C1462 1.434 . S
C1464 C1465 1.369 . S
C1464 C1466 1.419 . S
C1464 H1468 0.930 . S
C1465 C1464 1.369 . S
C1465 C1474 1.429 . S
C1466 C1464 1.419 . S
C1466 C1467 1.363 . S
C1466 H1469 0.929 . S
C1467 C1466 1.363 . S
C1467 C1473 1.428 . S
H1468 C1464 0.930 . S
H1469 C1466 0.929 . S
S1470 N1471 1.613 . S
S1470 N1472 1.610 . S
N1471 S1470 1.613 . S
N1471 C1474 1.350 . S
N1472 S1470 1.610 . S
N1472 C1473 1.351 . S
C1473 C1467 1.428 . S
C1473 N1472 1.351 . S
C1473 C1474 1.434 . S
C1474 C1465 1.429 . S
C1474 N1471 1.350 . S
C1474 C1473 1.434 . S
C1475 C1476 1.369 . S
C1475 C1477 1.419 . S
C1475 H1479 0.930 . S
C1476 C1475 1.369 . S
C1476 C1485 1.429 . S
C1477 C1475 1.419 . S
C1477 C1478 1.363 . S
C1477 H1480 0.929 . S
C1478 C1477 1.363 . S
C1478 C1484 1.428 . S
H1479 C1475 0.930 . S
H1480 C1477 0.929 . S
S1481 N1482 1.613 . S
S1481 N1483 1.610 . S
N1482 S1481 1.613 . S
N1482 C1485 1.350 . S
N1483 S1481 1.610 . S
N1483 C1484 1.351 . S
C1484 C1478 1.428 . S
C1484 N1483 1.351 . S
C1484 C1485 1.434 . S
C1485 C1476 1.429 . S
C1485 N1482 1.350 . S
C1485 C1484 1.434 . S
C1486 C1487 1.369 . S
C1486 C1488 1.419 . S
C1486 H1490 0.930 . S
C1487 C1486 1.369 . S
C1487 C1496 1.429 . S
C1488 C1486 1.419 . S
C1488 C1489 1.363 . S
C1488 H1491 0.929 . S
C1489 C1488 1.363 . S
C1489 C1495 1.428 . S
H1490 C1486 0.930 . S
H1491 C1488 0.929 . S
S1492 N1493 1.613 . S
S1492 N1494 1.610 . S
N1493 S1492 1.613 . S
N1493 C1496 1.350 . S
N1494 S1492 1.610 . S
N1494 C1495 1.351 . S
C1495 C1489 1.428 . S
C1495 N1494 1.351 . S
C1495 C1496 1.434 . S
C1496 C1487 1.429 . S
C1496 N1493 1.350 . S
C1496 C1495 1.434 . S
C1497 C1498 1.369 . S
C1497 C1499 1.419 . S
C1497 H1501 0.930 . S
C1498 C1497 1.369 . S
C1498 C1507 1.429 . S
C1499 C1497 1.419 . S
C1499 C1500 1.363 . S
C1499 H1502 0.929 . S
C1500 C1499 1.363 . S
C1500 C1506 1.428 . S
H1501 C1497 0.930 . S
H1502 C1499 0.929 . S
S1503 N1504 1.613 . S
S1503 N1505 1.610 . S
N1504 S1503 1.613 . S
N1504 C1507 1.350 . S
N1505 S1503 1.610 . S
N1505 C1506 1.351 . S
C1506 C1500 1.428 . S
C1506 N1505 1.351 . S
C1506 C1507 1.434 . S
C1507 C1498 1.429 . S
C1507 N1504 1.350 . S
C1507 C1506 1.434 . S
C1508 C1509 1.369 . S
C1508 C1510 1.419 . S
C1508 H1512 0.930 . S
C1509 C1508 1.369 . S
C1509 C1518 1.429 . S
C1510 C1508 1.419 . S
C1510 C1511 1.363 . S
C1510 H1513 0.929 . S
C1511 C1510 1.363 . S
C1511 C1517 1.428 . S
H1512 C1508 0.930 . S
H1513 C1510 0.929 . S
S1514 N1515 1.613 . S
S1514 N1516 1.610 . S
N1515 S1514 1.613 . S
N1515 C1518 1.350 . S
N1516 S1514 1.610 . S
N1516 C1517 1.351 . S
C1517 C1511 1.428 . S
C1517 N1516 1.351 . S
C1517 C1518 1.434 . S
C1518 C1509 1.429 . S
C1518 N1515 1.350 . S
C1518 C1517 1.434 . S
C1519 C1520 1.369 . S
C1519 C1521 1.419 . S
C1519 H1523 0.930 . S
C1520 C1519 1.369 . S
C1520 C1529 1.429 . S
C1521 C1519 1.419 . S
C1521 C1522 1.363 . S
C1521 H1524 0.929 . S
C1522 C1521 1.363 . S
C1522 C1528 1.428 . S
H1523 C1519 0.930 . S
H1524 C1521 0.929 . S
S1525 N1526 1.613 . S
S1525 N1527 1.610 . S
N1526 S1525 1.613 . S
N1526 C1529 1.350 . S
N1527 S1525 1.610 . S
N1527 C1528 1.351 . S
C1528 C1522 1.428 . S
C1528 N1527 1.351 . S
C1528 C1529 1.434 . S
C1529 C1520 1.429 . S
C1529 N1526 1.350 . S
C1529 C1528 1.434 . S
C937 C439 1.520 . S
C939 C588 1.668 . S
C948 C465 1.794 . S
C950 C628 1.777 . S
C959 C401 1.769 . S
C961 C658 1.719 . S
C970 C369 1.611 . S
C972 C618 1.574 . S
C983 C668 1.546 . S
C981 C305 1.549 . S
C992 C343 1.319 . S
C994 C578 1.493 . S
C1005 C607 1.697 . S
C1003 C375 1.724 . S
C1016 C647 1.745 . S
C1014 C311 1.763 . S
C1025 C337 1.592 . S
C1027 C673 1.727 . S
C1036 C433 1.479 . S
C1038 C633 1.573 . S
C1047 C471 1.519 . S
C1049 C687 1.516 . S
C1060 C593 1.514 . S
C1058 C407 1.543 . S
C1071 C708 1.669 . S
C1069 C55 1.518 . S
C1080 C81 1.794 . S
C1082 C748 1.778 . S
C1091 C17 1.767 . S
C1093 C778 1.723 . S
C1102 C561 1.611 . S
C1104 C738 1.574 . S
C1113 C497 1.550 . S
C1115 C788 1.546 . S
C1124 C535 1.321 . S
C1126 C698 1.483 . S
C1135 C567 1.723 . S
C1137 C727 1.700 . S
C1146 C503 1.763 . S
C1148 C767 1.745 . S
C1159 C793 1.724 . S
C1157 C529 1.603 . S
C1168 C49 1.478 . S
C1170 C753 1.569 . S
C1181 C807 1.514 . S
C1179 C87 1.522 1_455 S
C1190 C23 1.543 . S
C1192 C713 1.514 . S
C1203 C828 1.667 . S
C1201 C247 1.525 . S
C1212 C273 1.794 . S
C1214 C868 1.779 . S
C1225 C898 1.724 . S
C1223 C209 1.767 . S
C1236 C858 1.568 . S
C1234 C177 1.614 . S
C1247 C908 1.547 . S
C1245 C113 1.547 1_655 S
C1256 C151 1.335 . S
C1258 C818 1.479 . S
C1267 C183 1.722 . S
C1269 C847 1.699 . S
C1278 C119 1.764 . S
C1280 C887 1.747 . S
C1291 C913 1.726 . S
C1289 C145 1.598 . S
C1300 C241 1.472 . S
C1302 C873 1.574 . S
C1311 C279 1.519 . S
C1313 C927 1.513 . S
C1322 C215 1.539 . S
C1324 C833 1.517 . S
C1333 C509 1.407 . S
C1335 C605 1.420 . S
C1346 C645 1.750 . S
C1344 C541 1.661 . S
C1355 C573 1.559 . S
C1357 C664 1.555 . S
C1366 C221 1.816 . S
C1368 C624 1.768 . S
C1377 C253 1.469 . S
C1379 C685 1.531 . S
C1390 C584 1.418 . S
C1388 C285 1.396 . S
C1399 C125 1.414 . S
C1401 C725 1.420 . S
C1410 C157 1.662 . S
C1412 C765 1.752 . S
C1421 C189 1.560 . S
C1423 C784 1.553 . S
C1432 C413 1.816 . S
C1434 C744 1.767 . S
C1445 C805 1.533 . S
C1443 C445 1.459 . S
C1454 C477 1.404 . S
C1456 C704 1.417 . S
C1465 C317 1.407 . S
C1467 C845 1.420 . S
C1476 C349 1.658 . S
C1478 C885 1.752 . S
C1489 C904 1.554 . S
C1487 C381 1.560 . S
C1498 C29 1.814 . S
C1500 C864 1.771 . S
C1509 C61 1.463 . S
C1511 C925 1.531 . S
C1520 C93 1.404 . S
C1522 C824 1.417 . S
