# Generated by pormake.
# Topology zzz, (3,6)-cn, num edge types: 1
# Building blocks:
#     Node 0, Type 0, BuildingBlock: QEWDON_clean_linker_0, # of connection points: 3
#     Node 1, Type 0, BuildingBlock: QEWDON_clean_linker_0, # of connection points: 3
#     Node 2, Type 0, BuildingBlock: QEWDON_clean_linker_0, # of connection points: 3
#     Node 3, Type 0, BuildingBlock: QEWDON_clean_linker_0, # of connection points: 3
#     Node 4, Type 0, BuildingBlock: QEWDON_clean_linker_0, # of connection points: 3
#     Node 5, Type 0, BuildingBlock: QEWDON_clean_linker_0, # of connection points: 3
#     Node 6, Type 0, BuildingBlock: QEWDON_clean_linker_0, # of connection points: 3
#     Node 7, Type 0, BuildingBlock: QEWDON_clean_linker_0, # of connection points: 3
#     Node 8, Type 1, BuildingBlock: BETDEL_clean_sbu_0, # of connection points: 6
#     Node 9, Type 1, BuildingBlock: BETDEL_clean_sbu_0, # of connection points: 6
#     Node 10, Type 1, BuildingBlock: BETDEL_clean_sbu_0, # of connection points: 6
#     Node 11, Type 1, BuildingBlock: BETDEL_clean_sbu_0, # of connection points: 6
#     Edge 12, Type (0, 1), BuildingBlock: EZIPEK_clean_linker_0, # of connection points: 2
#     Edge 13, Type (0, 1), BuildingBlock: EZIPEK_clean_linker_0, # of connection points: 2
#     Edge 14, Type (0, 1), BuildingBlock: EZIPEK_clean_linker_0, # of connection points: 2
#     Edge 15, Type (0, 1), BuildingBlock: EZIPEK_clean_linker_0, # of connection points: 2
#     Edge 16, Type (0, 1), BuildingBlock: EZIPEK_clean_linker_0, # of connection points: 2
#     Edge 17, Type (0, 1), BuildingBlock: EZIPEK_clean_linker_0, # of connection points: 2
#     Edge 18, Type (0, 1), BuildingBlock: EZIPEK_clean_linker_0, # of connection points: 2
#     Edge 19, Type (0, 1), BuildingBlock: EZIPEK_clean_linker_0, # of connection points: 2
#     Edge 20, Type (0, 1), BuildingBlock: EZIPEK_clean_linker_0, # of connection points: 2
#     Edge 21, Type (0, 1), BuildingBlock: EZIPEK_clean_linker_0, # of connection points: 2
#     Edge 22, Type (0, 1), BuildingBlock: EZIPEK_clean_linker_0, # of connection points: 2
#     Edge 23, Type (0, 1), BuildingBlock: EZIPEK_clean_linker_0, # of connection points: 2
#     Edge 24, Type (0, 1), BuildingBlock: EZIPEK_clean_linker_0, # of connection points: 2
#     Edge 25, Type (0, 1), BuildingBlock: EZIPEK_clean_linker_0, # of connection points: 2
#     Edge 26, Type (0, 1), BuildingBlock: EZIPEK_clean_linker_0, # of connection points: 2
#     Edge 27, Type (0, 1), BuildingBlock: EZIPEK_clean_linker_0, # of connection points: 2
#     Edge 28, Type (0, 1), BuildingBlock: EZIPEK_clean_linker_0, # of connection points: 2
#     Edge 29, Type (0, 1), BuildingBlock: EZIPEK_clean_linker_0, # of connection points: 2
#     Edge 30, Type (0, 1), BuildingBlock: EZIPEK_clean_linker_0, # of connection points: 2
#     Edge 31, Type (0, 1), BuildingBlock: EZIPEK_clean_linker_0, # of connection points: 2
#     Edge 32, Type (0, 1), BuildingBlock: EZIPEK_clean_linker_0, # of connection points: 2
#     Edge 33, Type (0, 1), BuildingBlock: EZIPEK_clean_linker_0, # of connection points: 2
#     Edge 34, Type (0, 1), BuildingBlock: EZIPEK_clean_linker_0, # of connection points: 2
#     Edge 35, Type (0, 1), BuildingBlock: EZIPEK_clean_linker_0, # of connection points: 2
# Relax obj value: 0.098
# Max RMSD: 0.197
# Mean RMSD: 0.077
data_MOF--net-zzz--node1-BETDEL_clean_sbu_0--node2-QEWDON_clean_linker_0--edge1-EZIPEK_clean_linker_0
_symmetry_space_group_name_H-M    P1
_symmetry_Int_Tables_number       1
_symmetry_cell_setting            triclinic
loop_
_symmetry_equiv_pos_as_xyz
'x, y, z'
_cell_length_a     38.598104
_cell_length_b     39.643937
_cell_length_c     10.969649
_cell_angle_alpha  91.62688
_cell_angle_beta   88.065244
_cell_angle_gamma 94.701278
loop_
_atom_site_label
_atom_site_type_symbol
_atom_site_fract_x
_atom_site_fract_y
_atom_site_fract_z
_atom_type_partial_charge
H0 H 0.77154 0.50746 0.93953 0.0
C1 C 0.78783 0.51332 0.01671 0.0
C2 C 0.82024 0.49974 0.017 0.0
C3 C 0.77793 0.53633 0.11011 0.0
H4 H 0.86799 0.49845 0.11131 0.0
C5 C 0.84233 0.50791 0.11323 0.0
C6 C 0.83369 0.53037 0.20648 0.0
C7 C 0.80128 0.54435 0.20667 0.0
C8 C 0.7456 0.55474 0.09734 0.0
H9 H 0.79492 0.56173 0.28028 0.0
C10 C 0.71718 0.54065 0.02834 0.0
C11 C 0.68979 0.56031 -0.00066 0.0
C12 C 0.74435 0.58817 0.14377 0.0
H13 H 0.76555 0.60062 0.19426 0.0
C14 C 0.71636 0.60698 0.1207 0.0
H15 H 0.7166 0.51485 -0.00696 0.0
C16 C 0.68955 0.59342 0.04769 0.0
H17 H 0.66881 0.609 0.02717 0.0
H18 H 0.71603 0.6327 0.15637 0.0
H19 H 1.00492 0.77821 0.89426 0.0
C20 C 1.00823 0.79258 -0.02095 0.0
C21 C 1.02182 0.82641 0.97447 0.0
C22 C 0.99642 0.77853 0.09173 0.0
H23 H 0.03481 0.87233 0.07623 0.0
C24 C 1.02496 0.84587 0.08135 0.0
C25 C 1.00931 0.8345 0.18944 0.0
C26 C 0.99607 0.80044 0.19716 0.0
C27 C 0.9818 0.74222 0.09585 0.0
H28 H 0.98528 0.79167 0.28393 0.0
C29 C 0.99346 0.71732 0.01184 0.0
C30 C 0.97872 0.68356 0.01425 0.0
C31 C 0.95523 0.73221 0.18186 0.0
H32 H 0.94446 0.75027 0.24513 0.0
C33 C 0.94121 0.69867 0.18552 0.0
H34 H 1.01392 0.72385 0.94467 0.0
C35 C 0.95283 0.67457 0.10236 0.0
H36 H 0.94109 0.64895 0.10428 0.0
H37 H 0.92075 0.69143 0.25191 0.0
H38 H 0.77808 0.02291 0.91549 0.0
C39 C 0.76012 1.01755 -0.00871 0.0
C40 C 0.72669 0.02841 -0.01628 0.0
C41 C 0.7692 0.9987 0.09163 0.0
H42 H 0.67583 0.02884 0.06809 0.0
C43 C 0.7019 0.02084 0.07604 0.0
C44 C 0.70985 1.00353 0.17874 0.0
C45 C 0.74366 0.99278 0.18784 0.0
C46 C 0.80412 0.98371 0.0907 0.0
H47 H 0.74955 0.98002 0.26946 0.0
C48 C 0.83239 0.99575 0.01248 0.0
C49 C 0.86317 0.97886 0.00088 0.0
C50 C 0.80882 0.95528 0.16126 0.0
H51 H 0.78822 0.94411 0.21992 0.0
C52 C 0.84003 0.93962 0.15414 0.0
H53 H 0.8309 1.01784 0.95816 0.0
C54 C 0.86691 0.95107 0.0738 0.0
H55 H 0.89042 0.93787 0.0667 0.0
H56 H 0.84299 0.91781 0.20889 0.0
H57 H 0.51186 0.76638 0.95821 0.0
C58 C 0.51767 0.75161 0.03503 0.0
C59 C 0.50452 0.71759 0.03562 0.0
C60 C 0.54085 0.76503 0.12495 0.0
H61 H 0.50359 0.67047 0.12783 0.0
C62 C 0.51273 0.69715 0.12989 0.0
C63 C 0.53632 0.7088 0.21706 0.0
C64 C 0.54982 0.74291 0.21735 0.0
C65 C 0.55838 0.8004 0.11271 0.0
H66 H 0.5675 0.75147 0.28813 0.0
C67 C 0.5443 0.82508 0.04116 0.0
C68 C 0.56299 0.85651 0.01874 0.0
C69 C 0.59093 0.8092 0.16514 0.0
H70 H 0.60378 0.79146 0.21719 0.0
C71 C 0.60854 0.84096 0.14755 0.0
H72 H 0.51916 0.8202 0.00082 0.0
C73 C 0.59487 0.86435 0.07414 0.0
H74 H 0.60945 0.88846 0.05868 0.0
H75 H 0.63346 0.84714 0.18856 0.0
H76 H 0.27616 0.56389 0.15526 0.0
C77 C 0.2579 0.55013 0.09544 0.0
C78 C 0.22234 0.55492 0.10961 0.0
C79 C 0.26978 0.52783 0.00316 0.0
H80 H 0.17127 0.54123 0.04288 0.0
C81 C 0.19884 0.53777 0.03136 0.0
C82 C 0.20979 0.51675 0.93702 0.0
C83 C 0.2453 0.51131 0.92293 0.0
C84 C 0.30773 0.52287 -0.01128 0.0
H85 H 0.25367 0.49476 0.84939 0.0
C86 C 0.32864 0.521 0.09149 0.0
C87 C 0.3647 0.51782 0.07701 0.0
C88 C 0.32359 0.52102 0.87156 0.0
H89 H 0.3086 0.52292 0.79074 0.0
C90 C 0.35927 0.51765 0.85715 0.0
H91 H 0.31705 0.52205 0.18274 0.0
C92 C 0.37975 0.51619 0.959 0.0
H93 H 0.40742 0.51391 0.94589 0.0
H94 H 0.37116 0.5165 0.76649 0.0
H95 H 1.00328 0.26875 0.16258 0.0
C96 C 1.01665 0.25399 0.09408 0.0
C97 C 1.0133 0.21858 0.10026 0.0
C98 C 0.03688 0.26991 -0.00138 0.0
H99 H 0.02617 0.17162 0.01586 0.0
C100 C 0.02931 0.19907 0.01112 0.0
C101 C 0.0491 0.21377 0.91585 0.0
C102 C 0.05356 0.24928 0.91021 0.0
C103 C 0.03923 0.30768 -0.01165 0.0
H104 H 0.06942 0.26052 0.83635 0.0
C105 C 0.03872 0.3294 0.09309 0.0
C106 C 0.03927 0.36477 0.08156 0.0
C107 C 0.04071 0.32237 0.87255 0.0
H108 H 0.04023 0.3068 0.78989 0.0
C109 C 0.04179 0.35746 0.86143 0.0
H110 H 0.0379 0.31906 0.18357 0.0
C111 C 0.04095 0.37855 0.96515 0.0
H112 H 0.04119 0.40567 0.95481 0.0
H113 H 0.04279 0.36832 0.77182 0.0
H114 H 0.28267 1.00376 0.16665 0.0
C115 C 0.30184 1.0152 0.10278 0.0
C116 C 0.33699 1.012 0.12284 0.0
C117 C 0.29167 0.03223 -0.0002 0.0
H118 H 0.38946 0.02183 0.05504 0.0
C119 C 0.36227 0.02505 0.03966 0.0
C120 C 0.35329 0.0396 0.93232 0.0
C121 C 0.31795 0.04386 0.9128 0.0
C122 C 0.25365 0.03576 -0.01821 0.0
H123 H 0.31128 0.05564 0.82994 0.0
C124 C 0.22989 0.03751 0.08293 0.0
C125 C 0.19375 0.03701 0.06653 0.0
C126 C 0.24028 0.03534 0.86377 0.0
H127 H 0.2571 0.03336 0.78346 0.0
C128 C 0.20456 0.03604 0.84734 0.0
H129 H 0.23909 0.03835 0.17519 0.0
C130 C 0.18137 0.0364 0.94777 0.0
H131 H 0.1537 0.03564 0.93297 0.0
H132 H 0.1947 0.03534 0.75599 0.0
H133 H 0.55561 0.28042 0.13567 0.0
C134 C 0.5422 0.2959 0.07593 0.0
C135 C 0.54824 0.3312 0.08573 0.0
C136 C 0.51897 0.28081 -0.01067 0.0
H137 H 0.53668 0.37882 0.01495 0.0
C138 C 0.53212 0.35144 0.00682 0.0
C139 C 0.50995 0.33752 0.91845 0.0
C140 C 0.50285 0.30211 0.90993 0.0
C141 C 0.51282 0.24299 -0.01989 0.0
H142 H 0.4852 0.29147 0.84168 0.0
C143 C 0.51295 0.22283 0.08475 0.0
C144 C 0.51107 0.18718 0.07373 0.0
C145 C 0.50884 0.22656 0.86536 0.0
H146 H 0.50914 0.24091 0.78279 0.0
C147 C 0.50579 0.19124 0.85488 0.0
H148 H 0.51553 0.23464 0.17461 0.0
C149 C 0.50728 0.17165 0.95801 0.0
H150 H 0.50584 0.14432 0.94753 0.0
H151 H 0.50308 0.17898 0.76588 0.0
Dy152 Dy 0.04551 1.00844 0.65898 0.0
C153 C 0.99481 0.09685 0.31408 0.0
C154 C 0.03467 0.95244 0.79273 0.0
Dy155 Dy 1.01186 0.04361 0.44662 0.0
O156 O 1.0129 0.96353 0.71951 0.0
O157 O 0.06187 0.9743 0.80426 0.0
O158 O 0.10094 1.00895 0.58714 0.0
O159 O 0.06294 0.02723 0.48224 0.0
C160 C 0.09454 0.02046 0.48081 0.0
C161 C 0.96807 1.01853 0.62415 0.0
O162 O 1.01288 0.99297 0.35139 0.0
O163 O 0.0253 0.96699 0.53021 0.0
O164 O 0.97799 0.08519 0.40979 0.0
O165 O 1.01984 0.07768 0.28454 0.0
O166 O 0.96011 1.01843 0.50982 0.0
O167 O 0.99812 0.0331 0.63687 0.0
O168 O 0.04764 0.06024 0.74618 0.0
O169 O 0.04086 0.08439 0.55866 0.0
C170 C 1.01657 0.96549 0.41471 0.0
C171 C 0.04772 0.08711 0.67618 0.0
Dy172 Dy 0.50713 1.00505 0.47443 0.0
C173 C 0.62053 0.06996 0.73052 0.0
C174 C 0.44415 0.97965 0.39302 0.0
Dy175 Dy 0.55761 0.04401 0.64984 0.0
O176 O 0.47049 0.99038 0.32363 0.0
O177 O 0.45312 0.98079 0.50587 0.0
O178 O 0.54839 0.99865 0.32667 0.0
O179 O 0.56222 1.00418 0.50978 0.0
C180 C 0.57407 1.00407 0.40078 0.0
C181 C 0.49034 0.04338 0.72161 0.0
O182 O 0.54895 0.08664 0.52614 0.0
O183 O 0.50744 0.05823 0.40427 0.0
O184 O 0.59461 0.05801 0.79967 0.0
O185 O 0.61083 0.06995 0.61856 0.0
O186 O 0.51566 0.04844 0.79748 0.0
O187 O 0.50268 0.04448 0.61365 0.0
O188 O 0.51365 0.96408 0.60966 0.0
O189 O 0.55922 0.99121 0.71778 0.0
C190 C 0.5275 0.08599 0.43399 0.0
C191 C 0.53707 0.96451 0.69618 0.0
Dy192 Dy 0.50362 0.5391 0.65509 0.0
C193 C 0.56029 0.45059 0.32272 0.0
C194 C 0.49493 0.59733 0.78582 0.0
Dy195 Dy 0.53914 0.50338 0.46688 0.0
O196 O 0.47859 0.5682 0.81332 0.0
O197 O 0.51542 0.59342 0.69288 0.0
O198 O 0.45071 0.51945 0.59397 0.0
O199 O 0.49064 0.52864 0.46267 0.0
C200 C 0.45943 0.5169 0.47911 0.0
C201 C 0.58193 0.52749 0.6447 0.0
O202 O 0.54238 0.55269 0.36904 0.0
O203 O 0.53723 0.57925 0.55562 0.0
O204 O 0.57758 0.46564 0.41011 0.0
O205 O 0.53237 0.466 0.30803 0.0
O206 O 0.58943 0.52957 0.52867 0.0
O207 O 0.55156 0.51336 0.66039 0.0
O208 O 0.50449 0.49103 0.75696 0.0
O209 O 0.50561 0.46415 0.57076 0.0
C210 C 0.54312 0.58089 0.43686 0.0
C211 C 0.50136 0.46277 0.6901 0.0
Dy212 Dy 1.00098 0.4999 0.66536 0.0
C213 C 0.10187 0.56406 0.34975 0.0
C214 C 0.94322 0.47869 0.80216 0.0
Dy215 Dy 0.04345 0.54029 0.48118 0.0
O216 O 0.95289 0.46548 0.69888 0.0
O217 O 0.96701 0.50184 0.8364 0.0
O218 O 1.02477 0.45255 0.60149 0.0
O219 O 1.01648 0.48946 0.47419 0.0
C220 C 0.02915 0.46135 0.48826 0.0
C221 C 1.0151 0.57897 0.65711 0.0
O222 O 0.99356 0.53799 0.38019 0.0
O223 O 0.96269 0.52611 0.55952 0.0
O224 O 0.08786 0.57945 0.44203 0.0
O225 O 0.08268 0.53641 0.32415 0.0
O226 O 1.01995 0.5878 0.54414 0.0
O227 O 0.02747 0.55073 0.67132 0.0
O228 O 0.05004 0.50166 0.76886 0.0
O229 O 0.08071 0.51411 0.59055 0.0
C230 C 0.96359 0.53394 0.44325 0.0
C231 C 0.07987 0.50608 0.70627 0.0
C232 C 0.14866 0.06058 0.21228 0.0
C233 C 0.16869 0.03348 0.17368 0.0
C234 C 0.14292 0.9992 0.34234 0.0
C235 C 0.12112 0.0255 0.37767 0.0
N236 N 0.11135 0.08453 0.36879 0.0
N237 N 0.17915 0.97459 0.18461 0.0
C238 C 0.12582 0.05699 0.31747 0.0
C239 C 0.16438 1.00226 0.23446 0.0
N240 N 0.15123 0.08967 0.14737 0.0
N241 N 0.14464 0.9717 0.41377 0.0
H242 H 0.19482 0.97536 0.10527 0.0
H243 H 0.17307 0.95004 0.21447 0.0
H244 H 0.12959 0.96701 0.49248 0.0
H245 H 0.16363 0.9546 0.40121 0.0
H246 H 0.13418 0.10861 0.15913 0.0
H247 H 0.16935 0.09416 0.07584 0.0
H248 H 0.11596 0.10904 0.33733 0.0
H249 H 0.09792 0.08363 0.45251 0.0
C250 C 0.48544 0.14645 0.23224 0.0
C251 C 0.51485 0.16566 0.18174 0.0
C252 C 0.55294 0.13832 0.31818 0.0
C253 C 0.52357 0.11766 0.36427 0.0
N254 N 0.46142 0.11168 0.39811 0.0
N255 N 0.57563 0.18478 0.1908 0.0
C256 C 0.48965 0.12463 0.33086 0.0
C257 C 0.54824 0.16319 0.22969 0.0
N258 N 0.45346 0.14858 0.18446 0.0
N259 N 0.58563 0.13358 0.35453 0.0
H260 H 0.57416 0.20149 0.1199 0.0
H261 H 0.59943 0.18782 0.23325 0.0
H262 H 0.59069 0.12095 0.43256 0.0
H263 H 0.60825 0.1424 0.30721 0.0
H264 H 0.4319 0.13203 0.20589 0.0
H265 H 0.4489 0.16578 0.11773 0.0
H266 H 0.43614 0.11798 0.38571 0.0
H267 H 0.46378 0.09766 0.4761 0.0
C268 C 0.40302 0.4868 0.21026 0.0
C269 C 0.38723 0.51688 0.18502 0.0
C270 C 0.41424 0.54497 0.36482 0.0
C271 C 0.43331 0.51629 0.38151 0.0
N272 N 0.44788 0.46063 0.31487 0.0
N273 N 0.38274 0.57652 0.22518 0.0
C274 C 0.4283 0.48743 0.3024 0.0
C275 C 0.39406 0.54646 0.25907 0.0
N276 N 0.39293 0.45731 0.14888 0.0
N277 N 0.41479 0.57065 0.4507 0.0
H278 H 0.36821 0.57889 0.14791 0.0
H279 H 0.39047 0.5997 0.2671 0.0
H280 H 0.4292 0.57096 0.52926 0.0
H281 H 0.39843 0.59026 0.44977 0.0
H282 H 0.40076 0.43379 0.17102 0.0
H283 H 0.37422 0.4558 0.08209 0.0
H284 H 0.44884 0.44071 0.25119 0.0
H285 H 0.46484 0.45928 0.38605 0.0
C286 C 0.06753 0.40672 0.23188 0.0
C287 C 0.03711 0.38784 0.19092 0.0
C288 C 1.00239 0.41421 0.35365 0.0
C289 C 0.03215 0.43558 0.38723 0.0
N290 N 0.09266 0.4539 0.35399 0.0
N291 N 0.97477 0.37667 0.20067 0.0
C292 C 0.06463 0.43227 0.32501 0.0
C293 C 1.00432 0.39234 0.24877 0.0
N294 N 0.09932 0.39951 0.18378 0.0
N295 N 0.97245 0.41413 0.42377 0.0
H296 H 0.97509 0.35994 0.12556 0.0
H297 H 0.94979 0.38216 0.229 0.0
H298 H 0.96981 0.42981 0.50061 0.0
H299 H 0.95118 0.39654 0.41228 0.0
H300 H 0.12286 0.40969 0.21791 0.0
H301 H 0.10232 0.38118 0.11492 0.0
H302 H 0.11589 0.45598 0.30269 0.0
H303 H 0.09193 0.47126 0.42655 0.0
C304 C 0.9142 1.01782 0.92642 0.0
C305 C 0.89082 0.98887 0.90673 0.0
C306 C 0.92249 0.9764 0.71456 0.0
C307 C 0.94292 1.00778 0.72579 0.0
N308 N 0.95366 0.06128 0.83591 0.0
N309 N 0.86949 0.94295 0.77331 0.0
C310 C 0.9378 0.02921 0.83048 0.0
C311 C 0.89409 0.96881 0.79828 0.0
N312 N 0.91437 0.03416 0.03777 0.0
N313 N 0.93117 0.95302 0.62724 0.0
H314 H 0.84835 0.93648 0.83213 0.0
H315 H 0.86837 0.92989 0.6896 0.0
H316 H 0.95253 0.95699 0.56734 0.0
H317 H 0.91963 0.92834 0.62292 0.0
H318 H 0.93364 0.05281 0.06238 0.0
H319 H 0.89712 0.02694 0.10939 0.0
H320 H 0.94784 0.07912 0.90349 0.0
H321 H 0.97008 0.07142 0.76698 0.0
C322 C 0.55615 0.8772 0.80569 0.0
C323 C 0.55036 0.88135 0.9337 0.0
C324 C 0.53271 0.93869 0.90468 0.0
C325 C 0.53836 0.93462 0.77608 0.0
N326 N 0.54901 0.89774 0.60237 0.0
N327 N 0.52639 0.91253 0.10305 0.0
C328 C 0.54774 0.90302 0.72603 0.0
C329 C 0.5365 0.91107 -0.01761 0.0
N330 N 0.57148 0.84932 0.76077 0.0
N331 N 0.52429 0.96922 0.95312 0.0
H332 H 0.52892 0.89272 0.16194 0.0
H333 H 0.51284 0.93186 0.14284 0.0
H334 H 0.51862 0.98929 0.90006 0.0
H335 H 0.52446 0.97539 0.04597 0.0
H336 H 0.58058 0.84661 0.67092 0.0
H337 H 0.57724 0.82954 0.81536 0.0
H338 H 0.55182 0.87421 0.5603 0.0
H339 H 0.54465 0.91632 0.54092 0.0
C340 C 0.67073 0.53884 0.78997 0.0
C341 C 0.66205 0.54744 0.9131 0.0
C342 C 0.60013 0.54261 0.86309 0.0
C343 C 0.60878 0.53175 0.74158 0.0
N344 N 0.65205 0.50643 0.61136 0.0
N345 N 0.61782 0.54766 0.07343 0.0
C346 C 0.644 0.52595 0.71129 0.0
C347 C 0.62648 0.54615 0.95174 0.0
N348 N 0.70417 0.54415 0.74559 0.0
N349 N 0.56735 0.55116 0.89367 0.0
H350 H 0.63645 0.5494 0.14058 0.0
H351 H 0.59234 0.54354 0.10755 0.0
H352 H 0.54732 0.54988 0.83245 0.0
H353 H 0.56094 0.56271 0.97701 0.0
H354 H 0.71086 0.54127 0.6532 0.0
H355 H 0.72456 0.55469 0.79788 0.0
H356 H 0.67717 0.49959 0.59135 0.0
H357 H 0.63321 0.493 0.55933 0.0
C358 C 0.96633 0.64787 0.82466 0.0
C359 C 0.9888 0.65729 0.92185 0.0
C360 C 0.02581 0.61156 0.8594 0.0
C361 C 1.00466 0.60351 0.75629 0.0
N362 N 0.95473 0.61424 0.64047 0.0
N363 N 0.04123 0.65066 0.02783 0.0
C364 C 0.9749 0.62178 0.73931 0.0
C365 C 1.01882 0.63974 0.93821 0.0
N366 N 0.93622 0.66352 0.81569 0.0
N367 N 0.05245 0.5923 0.88363 0.0
H368 H 0.03628 0.67015 0.09025 0.0
H369 H 0.06586 0.64225 0.03595 0.0
H370 H 0.0606 0.57306 0.82645 0.0
H371 H 0.06548 0.59379 0.96536 0.0
H372 H 0.91617 0.65511 0.75852 0.0
H373 H 0.93026 0.68436 0.87025 0.0
H374 H 0.9361 0.62945 0.61112 0.0
H375 H 0.95712 0.5929 0.5845 0.0
C376 C 1.01837 0.19165 0.29282 0.0
C377 C 0.99585 0.19962 0.20218 0.0
C378 C 0.9651 0.14325 0.21817 0.0
C379 C 0.99403 0.13265 0.27941 0.0
N380 N 0.04881 0.14766 0.37761 0.0
N381 N 0.94381 0.18642 0.09275 0.0
C382 C 1.0206 0.1572 0.31963 0.0
C383 C 0.9671 0.17672 0.17297 0.0
N384 N 0.03924 0.21697 0.34575 0.0
N385 N 0.93644 0.12129 0.20089 0.0
H386 H 0.94518 0.21122 0.06197 0.0
H387 H 0.92433 0.17011 0.05473 0.0
H388 H 0.93472 0.09642 0.23054 0.0
H389 H 0.91359 0.12831 0.16469 0.0
H390 H 0.05491 0.21339 0.41902 0.0
H391 H 0.03779 0.24224 0.32349 0.0
H392 H 0.07024 0.16418 0.39892 0.0
H393 H 0.05237 0.12266 0.39493 0.0
C394 C 0.36537 0.96349 0.20116 0.0
C395 C 0.34932 0.99387 0.22713 0.0
C396 C 0.38911 1.00901 0.39051 0.0
C397 C 0.40788 0.98057 0.35563 0.0
N398 N 0.40919 0.9261 0.25448 0.0
N399 N 0.33605 0.03729 0.37323 0.0
C400 C 0.39413 0.95598 0.27043 0.0
C401 C 0.35754 1.01339 0.3329 0.0
N402 N 0.35456 0.94354 0.10399 0.0
N403 N 0.40295 0.03359 0.46884 0.0
H404 H 0.31312 0.04097 0.3295 0.0
H405 H 0.339 0.05069 0.45579 0.0
H406 H 0.42675 0.0326 0.50963 0.0
H407 H 0.39216 0.05653 0.4864 0.0
H408 H 0.36731 0.92299 0.06979 0.0
H409 H 0.33272 0.94846 0.05573 0.0
H410 H 0.39931 0.9061 0.19904 0.0
H411 H 0.43036 0.92043 0.30477 0.0
C412 C 0.54634 0.35462 0.29084 0.0
C413 C 0.56722 0.34918 0.18643 0.0
C414 C 0.59362 0.40738 0.20597 0.0
C415 C 0.56482 0.41511 0.28285 0.0
N416 N 0.51335 0.39487 0.40136 0.0
N417 N 0.61673 0.36653 0.06057 0.0
C418 C 0.54138 0.38831 0.32824 0.0
C419 C 0.59387 0.37414 0.1528 0.0
N420 N 0.52946 0.32758 0.34776 0.0
N421 N 0.61965 0.43186 0.18059 0.0
H422 H 0.61657 0.34198 0.02312 0.0
H423 H 0.63469 0.38414 0.02004 0.0
H424 H 0.61933 0.45666 0.21486 0.0
H425 H 0.64243 0.42718 0.13179 0.0
H426 H 0.51517 0.32967 0.42952 0.0
H427 H 0.53319 0.30279 0.31922 0.0
H428 H 0.49377 0.37649 0.42648 0.0
H429 H 0.50804 0.41909 0.42893 0.0
C430 C 0.18417 0.59886 0.17945 0.0
C431 C 0.20695 0.57456 0.21168 0.0
C432 C 0.16441 0.55027 0.3573 0.0
C433 C 0.1391 0.57058 0.31171 0.0
N434 N 0.12732 0.62102 0.20784 0.0
N435 N 0.22573 0.54189 0.37259 0.0
C436 C 0.14995 0.59765 0.2335 0.0
C437 C 0.19951 0.55597 0.31718 0.0
N438 N 0.19445 0.62015 0.08727 0.0
N439 N 0.15483 0.5243 0.43294 0.0
H440 H 0.25153 0.5461 0.34168 0.0
H441 H 0.22243 0.52947 0.4551 0.0
H442 H 0.1294 0.51895 0.46264 0.0
H443 H 0.17155 0.50659 0.45846 0.0
H444 H 0.17838 0.63637 0.04797 0.0
H445 H 0.21964 0.62058 0.0489 0.0
H446 H 0.13421 0.64244 0.15699 0.0
H447 H 0.1019 0.61994 0.24391 0.0
C448 C 0.99436 0.86417 0.84804 0.0
C449 C 1.02393 0.84629 0.86267 0.0
C450 C 0.06054 0.8958 0.79436 0.0
C451 C 0.03215 0.91605 0.82059 0.0
N452 N 0.97136 0.91857 0.88085 0.0
N453 N 0.08522 0.84293 0.83505 0.0
C454 C 0.99861 0.89992 0.84786 0.0
C455 C 0.05704 0.86127 0.82766 0.0
N456 N 0.96229 0.84702 0.84758 0.0
N457 N 0.08989 0.90866 0.73331 0.0
H458 H 0.08236 0.81731 0.85638 0.0
H459 H 0.11079 0.85342 0.82538 0.0
H460 H 0.09283 0.93303 0.69956 0.0
H461 H 0.10977 0.89379 0.70405 0.0
H462 H 0.93965 0.85857 0.83117 0.0
H463 H 0.95931 0.82065 0.85113 0.0
H464 H 0.94716 0.90773 0.91066 0.0
H465 H 0.97392 0.94488 0.89106 0.0
C466 C 0.7024 0.02657 0.77856 0.0
C467 C 0.71517 0.04657 0.878 0.0
C468 C 0.67513 0.08946 0.83684 0.0
C469 C 0.65671 0.06531 0.76089 0.0
N470 N 0.65257 1.01029 0.65712 0.0
N471 N 0.71954 0.09956 -0.01091 0.0
C472 C 0.67081 0.03411 0.72766 0.0
C473 C 0.70399 0.07942 0.90029 0.0
N474 N 0.71954 0.99949 0.73745 0.0
N475 N 0.66432 0.12134 0.8501 0.0
H476 H 0.7414 0.09254 0.03272 0.0
H477 H 0.71074 0.12243 0.02074 0.0
H478 H 0.64309 0.12878 0.80401 0.0
H479 H 0.67758 0.14093 0.89899 0.0
H480 H 0.71322 0.98561 0.65812 0.0
H481 H 0.74247 0.99327 0.77543 0.0
H482 H 0.65969 0.9857 0.64242 0.0
H483 H 0.62877 1.01392 0.62007 0.0
C484 C 0.46122 0.67721 0.93656 0.0
C485 C 0.49199 0.69914 0.92441 0.0
C486 C 0.52278 0.65424 0.83261 0.0
C487 C 0.49259 0.63127 0.84353 0.0
N488 N 0.42997 0.6241 0.8754 0.0
N489 N 0.54359 0.71235 0.80056 0.0
C490 C 0.46057 0.64364 0.88555 0.0
C491 C 0.51926 0.68904 0.84773 0.0
N492 N 0.43393 0.68796 0.00499 0.0
N493 N 0.55521 0.64298 0.817 0.0
H494 H 0.54108 0.73827 0.81019 0.0
H495 H 0.5635 0.70561 0.74027 0.0
H496 H 0.5598 0.61749 0.82111 0.0
H497 H 0.57781 0.65932 0.81708 0.0
H498 H 0.41212 0.67217 0.0303 0.0
H499 H 0.43439 0.7128 0.03987 0.0
H500 H 0.40584 0.63321 0.89598 0.0
H501 H 0.42843 0.59969 0.83732 0.0
C502 C 0.85143 0.50602 0.82309 0.0
C503 C 0.83607 0.48319 0.90833 0.0
C504 C 0.8871 0.45033 0.88638 0.0
C505 C 0.90593 0.4793 0.83637 0.0
N506 N 0.90507 0.53617 0.75846 0.0
N507 N 0.83462 0.42907 -0.00098 0.0
C508 C 0.88782 0.50744 0.80319 0.0
C509 C 0.85205 0.45305 0.92842 0.0
N510 N 0.83151 0.52737 0.76686 0.0
N511 N 0.9029 0.42102 0.89701 0.0
H512 H 0.80887 0.43146 0.02851 0.0
H513 H 0.8456 0.40796 0.03043 0.0
H514 H 0.92892 0.41889 0.87135 0.0
H515 H 0.88977 0.39839 0.92459 0.0
H516 H 0.84112 0.54312 0.69687 0.0
H517 H 0.80458 0.526 0.78009 0.0
H518 H 0.89284 0.5581 0.7435 0.0
H519 H 0.93192 0.53969 0.74821 0.0
C520 C 0.03757 0.18119 0.72661 0.0
C521 C 0.06108 0.18975 0.81994 0.0
C522 C 0.08238 0.13293 0.79802 0.0
C523 C 0.05311 0.12235 0.72716 0.0
N524 N 0.99918 0.13656 0.64105 0.0
N525 N 0.10777 0.17502 0.94178 0.0
C526 C 0.02999 0.14664 0.69417 0.0
C527 C 0.08466 0.1661 0.85278 0.0
N528 N 1.02096 0.20594 0.67448 0.0
N529 N 0.10813 0.11177 0.81111 0.0
H530 H 0.11063 0.19967 -0.02155 0.0
H531 H 0.12277 0.15794 -0.01815 0.0
H532 H 0.10759 0.08768 0.77013 0.0
H533 H 0.13136 0.11915 0.85363 0.0
H534 H 1.00535 0.20146 0.59907 0.0
H535 H 0.0261 0.23147 0.69819 0.0
H536 H 0.98021 0.15302 0.62523 0.0
H537 H 0.99054 0.11129 0.62607 0.0
C538 C 0.40314 0.07519 0.83172 0.0
C539 C 0.38185 0.04433 0.83756 0.0
C540 C 0.43112 1.01345 0.76557 0.0
C541 C 0.45257 0.04417 0.75647 0.0
N542 N 0.45752 0.10532 0.77044 0.0
N543 N 0.37259 0.98629 0.76986 0.0
C544 C 0.43794 0.07535 0.7842 0.0
C545 C 0.39485 1.01439 0.78833 0.0
N546 N 0.39111 0.10481 0.8734 0.0
N547 N 0.44564 0.98328 0.76511 0.0
H548 H 0.34585 0.98649 0.7877 0.0
H549 H 0.38021 0.96438 0.7254 0.0
H550 H 0.47235 0.98199 0.76205 0.0
H551 H 0.43152 0.9603 0.78284 0.0
H552 H 0.36583 0.10669 0.90844 0.0
H553 H 0.36583 0.10669 0.90844 0.0
H554 H 0.44765 0.12863 0.79116 0.0
H555 H 0.48314 0.10671 0.73611 0.0
C556 C 0.52094 0.37188 0.73651 0.0
C557 C 0.49755 0.36207 0.83298 0.0
C558 C 0.472 0.41693 0.82438 0.0
C559 C 0.49976 0.42863 0.7442 0.0
N560 N 0.55526 0.41877 0.64617 0.0
N561 N 0.45055 0.37473 0.97141 0.0
C562 C 0.52529 0.40638 0.70497 0.0
C563 C 0.47254 0.38433 0.87632 0.0
N564 N 0.54036 0.34843 0.67981 0.0
N565 N 0.44512 0.43665 0.84963 0.0
H566 H 0.44953 0.35042 0.00633 0.0
H567 H 0.43459 0.39104 0.01802 0.0
H568 H 0.44423 0.46064 0.81372 0.0
H569 H 0.42265 0.42831 0.89883 0.0
H570 H 0.55613 0.35355 0.60247 0.0
H571 H 0.53767 0.32297 0.70286 0.0
H572 H 0.57598 0.40419 0.62455 0.0
H573 H 0.56126 0.4445 0.63214 0.0
C574 C 0.17528 0.52879 0.76269 0.0
C575 C 0.18273 0.50495 0.84892 0.0
C576 C 0.12343 0.47757 0.83008 0.0
C577 C 0.11439 0.50551 0.76283 0.0
N578 N 0.13111 0.56191 0.68999 0.0
N579 N 0.16402 0.45677 0.96945 0.0
C580 C 0.14025 0.53218 0.73504 0.0
C581 C 0.15689 0.47903 0.88288 0.0
N582 N 0.20166 0.54944 0.71228 0.0
N583 N 0.1007 0.4495 0.84098 0.0
H584 H 0.18881 0.45651 0.00461 0.0
H585 H 0.14521 0.43984 0.00936 0.0
H586 H 0.07631 0.44747 0.80222 0.0
H587 H 0.10718 0.42726 0.87971 0.0
H588 H 0.19806 0.56567 0.64149 0.0
H589 H 0.22763 0.54748 0.73246 0.0
H590 H 0.14861 0.58311 0.67862 0.0
H591 H 0.10542 0.56689 0.67716 0.0
C592 C 0.97709 0.88369 0.26104 0.0
C593 C 1.00339 0.86159 0.28252 0.0
C594 C 0.03845 0.90818 0.37897 0.0
C595 C 1.01218 0.93057 0.35969 0.0
N596 N 0.95303 0.9375 0.30633 0.0
N597 N 0.05354 0.85011 0.39136 0.0
C598 C 0.98035 0.9177 0.30801 0.0
C599 C 0.03194 0.873 0.35327 0.0
N600 N 0.95002 0.87253 0.18931 0.0
N601 N 0.07061 0.92094 0.41397 0.0
H602 H 0.04902 0.82425 0.37124 0.0
H603 H 0.07337 0.85624 0.45225 0.0
H604 H 0.07711 0.94683 0.42376 0.0
H605 H 0.09175 0.90639 0.41965 0.0
H606 H 0.93259 0.8884 0.15553 0.0
H607 H 0.94608 0.84734 0.15916 0.0
H608 H 0.9281 0.92834 0.28176 0.0
H609 H 0.95452 0.96257 0.33814 0.0
C610 C 0.65845 0.96896 0.27415 0.0
C611 C 0.68135 0.99891 0.27442 0.0
C612 C 0.63448 0.0312 0.35848 0.0
C613 C 0.61151 1.00148 0.36336 0.0
N614 N 0.60306 0.94071 0.34256 0.0
N615 N 0.69415 0.05539 0.35366 0.0
C616 C 0.62409 0.96979 0.32756 0.0
C617 C 0.67035 0.02873 0.33153 0.0
N618 N 0.66895 0.94035 0.21686 0.0
N619 N 0.6216 0.06214 0.36708 0.0
H620 H 0.72062 0.05405 0.33281 0.0
H621 H 0.68803 0.07701 0.4035 0.0
H622 H 0.59505 0.06476 0.37658 0.0
H623 H 0.63682 0.08464 0.35151 0.0
H624 H 0.6525 0.91867 0.20072 0.0
H625 H 0.69421 0.93888 0.18136 0.0
H626 H 0.61149 0.91657 0.32883 0.0
H627 H 0.5775 0.94078 0.37638 0.0
C628 C 0.57213 0.66005 0.25283 0.0
C629 C 0.54753 0.68254 0.2985 0.0
C630 C 0.5195 0.63774 0.42338 0.0
C631 C 0.54499 0.61539 0.38386 0.0
N632 N 0.59996 0.60801 0.27982 0.0
N633 N 0.50508 0.69581 0.45296 0.0
C634 C 0.57278 0.62737 0.30432 0.0
C635 C 0.52414 0.67242 0.39425 0.0
N636 N 0.59366 0.66939 0.1562 0.0
N637 N 0.48913 0.62533 0.47922 0.0
H638 H 0.50797 0.72136 0.43095 0.0
H639 H 0.48954 0.69041 0.53068 0.0
H640 H 0.48289 0.59953 0.49012 0.0
H641 H 0.46851 0.64005 0.50073 0.0
H642 H 0.60902 0.65275 0.10839 0.0
H643 H 0.59476 0.69361 0.12062 0.0
H644 H 0.62243 0.61668 0.23116 0.0
H645 H 0.6012 0.58419 0.31667 0.0
C646 C 0.86727 0.51518 0.38155 0.0
C647 C 0.86144 0.53965 0.29555 0.0
C648 C 0.92152 0.56462 0.31992 0.0
C649 C 0.92905 0.53611 0.38691 0.0
N650 N 0.90941 0.48048 0.45968 0.0
N651 N 0.88339 0.58717 0.17652 0.0
C652 C 0.90185 0.51055 0.41335 0.0
C653 C 0.88857 0.56459 0.26432 0.0
N654 N 0.83971 0.49537 0.42843 0.0
N655 N 0.94513 0.5921 0.3124 0.0
H656 H 0.85914 0.58894 0.13886 0.0
H657 H 0.90352 0.60257 0.1368 0.0
H658 H 0.96939 0.59317 0.35185 0.0
H659 H 0.93918 0.61496 0.27715 0.0
H660 H 0.84188 0.47889 0.49967 0.0
H661 H 0.81421 0.49834 0.40431 0.0
H662 H 0.89102 0.46 0.47159 0.0
H663 H 0.93481 0.47448 0.4715 0.0
loop_
_geom_bond_atom_site_label_1
_geom_bond_atom_site_label_2
_geom_bond_distance
_geom_bond_site_symmetry_2
_ccdc_geom_bond_type
H0 C1 0.949 1_556 S
C1 H0 0.949 1_554 S
C1 C2 1.395 . S
C1 C3 1.391 . S
C2 C1 1.395 . S
C2 C5 1.390 . S
C3 C1 1.391 . S
C3 C7 1.387 . S
C3 C8 1.491 . S
H4 C5 0.950 . S
C5 C2 1.390 . S
C5 H4 0.950 . S
C5 C6 1.378 . S
C6 C5 1.378 . S
C6 C7 1.409 . S
C7 C3 1.387 . S
C7 C6 1.409 . S
C7 H9 0.951 . S
C8 C3 1.491 . S
C8 C10 1.382 . S
C8 C12 1.404 . S
H9 C7 0.951 . S
C10 C8 1.382 . S
C10 C11 1.390 . S
C10 H15 0.949 1_554 S
C11 C10 1.390 . S
C11 C16 1.399 . S
C12 C8 1.404 . S
C12 H13 0.950 . S
C12 C14 1.375 . S
H13 C12 0.950 . S
C14 C12 1.375 . S
C14 C16 1.382 . S
C14 H18 0.950 . S
H15 C10 0.949 1_556 S
C16 C11 1.399 . S
C16 C14 1.382 . S
C16 H17 0.952 . S
H17 C16 0.952 . S
H18 C14 0.950 . S
H19 C20 0.949 . S
C20 H19 0.949 . S
C20 C21 1.395 . S
C20 C22 1.391 1_556 S
C21 C20 1.395 . S
C21 C24 1.389 1_656 S
C22 C20 1.391 1_554 S
C22 C26 1.387 . S
C22 C27 1.491 . S
H23 C24 0.952 . S
C24 C21 1.389 1_454 S
C24 H23 0.952 . S
C24 C25 1.378 1_455 S
C25 C24 1.378 1_655 S
C25 C26 1.409 . S
C26 C22 1.387 . S
C26 C25 1.409 . S
C26 H28 0.951 . S
C27 C22 1.491 . S
C27 C29 1.382 . S
C27 C31 1.404 . S
H28 C26 0.951 . S
C29 C27 1.382 . S
C29 C30 1.390 1_554 S
C29 H34 0.949 1_654 S
C30 C29 1.390 1_556 S
C30 C35 1.399 1_556 S
C31 C27 1.404 . S
C31 H32 0.950 . S
C31 C33 1.375 . S
H32 C31 0.950 . S
C33 C31 1.375 . S
C33 C35 1.382 . S
C33 H37 0.950 . S
H34 C29 0.949 1_456 S
C35 C30 1.399 1_554 S
C35 C33 1.382 . S
C35 H36 0.952 . S
H36 C35 0.952 . S
H37 C33 0.950 . S
H38 C39 0.949 . S
C39 H38 0.949 . S
C39 C40 1.395 . S
C39 C41 1.391 1_556 S
C40 C39 1.395 . S
C40 C43 1.390 1_556 S
C41 C39 1.391 1_554 S
C41 C45 1.387 . S
C41 C46 1.491 . S
H42 C43 0.950 . S
C43 C40 1.390 1_554 S
C43 H42 0.950 . S
C43 C44 1.378 . S
C44 C43 1.378 . S
C44 C45 1.409 . S
C45 C41 1.387 . S
C45 C44 1.409 . S
C45 H47 0.951 . S
C46 C41 1.491 . S
C46 C48 1.382 1_554 S
C46 C50 1.404 . S
H47 C45 0.951 . S
C48 C46 1.382 1_556 S
C48 C49 1.390 . S
C48 H53 0.949 . S
C49 C48 1.390 . S
C49 C54 1.399 1_556 S
C50 C46 1.404 . S
C50 H51 0.950 . S
C50 C52 1.375 . S
H51 C50 0.950 . S
C52 C50 1.375 . S
C52 C54 1.382 . S
C52 H56 0.950 . S
H53 C48 0.949 . S
C54 C49 1.399 1_554 S
C54 C52 1.382 . S
C54 H55 0.952 . S
H55 C54 0.952 . S
H56 C52 0.950 . S
H57 C58 0.949 1_556 S
C58 H57 0.949 1_554 S
C58 C59 1.395 . S
C58 C60 1.391 . S
C59 C58 1.395 . S
C59 C62 1.390 . S
C60 C58 1.391 . S
C60 C64 1.387 . S
C60 C65 1.491 . S
H61 C62 0.950 . S
C62 C59 1.390 . S
C62 H61 0.950 . S
C62 C63 1.378 . S
C63 C62 1.378 . S
C63 C64 1.409 . S
C64 C60 1.387 . S
C64 C63 1.409 . S
C64 H66 0.951 . S
C65 C60 1.491 . S
C65 C67 1.382 . S
C65 C69 1.404 . S
H66 C64 0.951 . S
C67 C65 1.382 . S
C67 C68 1.390 . S
C67 H72 0.949 . S
C68 C67 1.390 . S
C68 C73 1.399 . S
C69 C65 1.404 . S
C69 H70 0.950 . S
C69 C71 1.375 . S
H70 C69 0.950 . S
C71 C69 1.375 . S
C71 C73 1.382 . S
C71 H75 0.950 . S
H72 C67 0.949 . S
C73 C68 1.399 . S
C73 C71 1.382 . S
C73 H74 0.952 . S
H74 C73 0.952 . S
H75 C71 0.950 . S
H76 C77 0.949 . S
C77 H76 0.949 . S
C77 C78 1.395 . S
C77 C79 1.391 . S
C78 C77 1.395 . S
C78 C81 1.390 . S
C79 C77 1.391 . S
C79 C83 1.387 1_554 S
C79 C84 1.491 . S
H80 C81 0.950 . S
C81 C78 1.390 . S
C81 H80 0.950 . S
C81 C82 1.378 1_554 S
C82 C81 1.378 1_556 S
C82 C83 1.409 . S
C83 C79 1.387 1_556 S
C83 C82 1.409 . S
C83 H85 0.951 . S
C84 C79 1.491 . S
C84 C86 1.382 . S
C84 C88 1.404 1_554 S
H85 C83 0.951 . S
C86 C84 1.382 . S
C86 C87 1.390 . S
C86 H91 0.949 . S
C87 C86 1.390 . S
C87 C92 1.399 . S
C88 C84 1.404 1_556 S
C88 H89 0.950 . S
C88 C90 1.375 . S
H89 C88 0.950 . S
C90 C88 1.375 . S
C90 C92 1.382 1_556 S
C90 H94 0.950 . S
H91 C86 0.949 . S
C92 C87 1.399 . S
C92 C90 1.382 1_554 S
C92 H93 0.952 . S
H93 C92 0.952 . S
H94 C90 0.950 . S
H95 C96 0.949 . S
C96 H95 0.949 . S
C96 C97 1.395 1_655 S
C96 C98 1.391 . S
C97 C96 1.395 1_455 S
C97 C100 1.390 . S
C98 C96 1.391 . S
C98 C102 1.387 1_554 S
C98 C103 1.491 . S
H99 C100 0.950 . S
C100 C97 1.390 . S
C100 H99 0.950 . S
C100 C101 1.378 1_554 S
C101 C100 1.378 1_556 S
C101 C102 1.409 1_455 S
C102 C98 1.387 1_556 S
C102 C101 1.409 1_655 S
C102 H104 0.951 . S
C103 C98 1.491 . S
C103 C105 1.372 1_655 S
C103 C107 1.404 1_554 S
H104 C102 0.951 . S
C105 C103 1.372 1_455 S
C105 C106 1.382 1_455 S
C105 H110 0.967 . S
C106 C105 1.382 1_655 S
C106 C111 1.399 . S
C107 C103 1.404 1_556 S
C107 H108 0.950 . S
C107 C109 1.375 . S
H108 C107 0.950 . S
C109 C107 1.375 . S
C109 C111 1.382 1_556 S
C109 H113 0.950 . S
H110 C105 0.967 . S
C111 C106 1.399 . S
C111 C109 1.382 1_554 S
C111 H112 0.952 . S
H112 C111 0.952 . S
H113 C109 0.950 . S
H114 C115 0.949 . S
C115 H114 0.949 . S
C115 C116 1.395 . S
C115 C117 1.391 . S
C116 C115 1.395 . S
C116 C119 1.390 . S
C117 C115 1.391 . S
C117 C121 1.387 1_554 S
C117 C122 1.491 . S
H118 C119 0.950 . S
C119 C116 1.390 . S
C119 H118 0.950 . S
C119 C120 1.378 1_554 S
C120 C119 1.378 1_556 S
C120 C121 1.409 . S
C121 C117 1.387 1_556 S
C121 C120 1.409 . S
C121 H123 0.951 . S
C122 C117 1.491 . S
C122 C124 1.382 . S
C122 C126 1.404 1_554 S
H123 C121 0.951 . S
C124 C122 1.382 . S
C124 C125 1.390 . S
C124 H129 0.949 . S
C125 C124 1.390 . S
C125 C130 1.399 . S
C126 C122 1.404 1_556 S
C126 H127 0.950 1_545 S
C126 C128 1.375 1_545 S
H127 C126 0.950 1_565 S
C128 C126 1.375 1_565 S
C128 C130 1.382 1_566 S
C128 H132 0.950 . S
H129 C124 0.949 . S
C130 C125 1.399 . S
C130 C128 1.382 1_544 S
C130 H131 0.952 . S
H131 C130 0.952 . S
H132 C128 0.950 . S
H133 C134 0.949 . S
C134 H133 0.949 . S
C134 C135 1.395 . S
C134 C136 1.391 1_554 S
C135 C134 1.395 . S
C135 C138 1.390 1_554 S
C136 C134 1.391 1_556 S
C136 C140 1.387 . S
C136 C141 1.491 . S
H137 C138 0.950 . S
C138 C135 1.390 1_556 S
C138 H137 0.950 . S
C138 C139 1.378 . S
C139 C138 1.378 . S
C139 C140 1.409 . S
C140 C136 1.387 . S
C140 C139 1.409 . S
C140 H142 0.951 . S
C141 C136 1.491 . S
C141 C143 1.382 1_556 S
C141 C145 1.404 . S
H142 C140 0.951 . S
C143 C141 1.382 1_554 S
C143 C144 1.390 . S
C143 H148 0.949 . S
C144 C143 1.390 . S
C144 C149 1.399 1_554 S
C145 C141 1.404 . S
C145 H146 0.950 . S
C145 C147 1.375 . S
H146 C145 0.950 . S
C147 C145 1.375 . S
C147 C149 1.382 . S
C147 H151 0.950 . S
H148 C143 0.949 . S
C149 C144 1.399 1_556 S
C149 C147 1.382 . S
C149 H150 0.952 . S
H150 C149 0.952 . S
H151 C147 0.950 . S
Dy152 O156 2.398 . S
Dy152 O157 2.491 1_455 S
Dy152 O158 2.403 . S
Dy152 O159 2.664 1_565 S
Dy152 O163 2.326 . S
Dy152 O167 2.310 1_455 S
Dy152 O168 2.351 1_565 S
C153 O164 1.185 . S
C153 O165 1.355 1_655 S
C154 O156 1.185 . S
C154 O157 1.355 1_455 S
Dy155 O159 2.310 1_655 S
Dy155 O162 2.351 1_545 S
Dy155 O164 2.398 . S
Dy155 O165 2.491 1_655 S
Dy155 O166 2.403 . S
Dy155 O167 2.664 1_545 S
Dy155 O169 2.326 . S
O156 Dy152 2.398 . S
O156 C154 1.185 . S
O157 Dy152 2.491 1_655 S
O157 C154 1.355 1_655 S
O158 Dy152 2.403 . S
O158 C160 1.254 1_565 S
O159 Dy152 2.664 1_545 S
O159 Dy155 2.310 1_455 S
O159 C160 1.268 . S
C160 O158 1.254 1_545 S
C160 O159 1.268 . S
C161 O166 1.233 1_565 S
C161 O167 1.278 . S
O162 Dy155 2.351 1_565 S
O162 C170 1.249 . S
O163 Dy152 2.326 . S
O163 C170 1.267 1_455 S
O164 C153 1.185 . S
O164 Dy155 2.398 . S
O165 C153 1.355 1_455 S
O165 Dy155 2.491 1_455 S
O166 Dy155 2.403 . S
O166 C161 1.233 1_545 S
O167 Dy152 2.310 1_655 S
O167 Dy155 2.664 1_565 S
O167 C161 1.278 . S
O168 Dy152 2.351 1_545 S
O168 C171 1.249 . S
O169 Dy155 2.326 . S
O169 C171 1.267 1_655 S
C170 O162 1.249 . S
C170 O163 1.267 1_655 S
C171 O168 1.249 . S
C171 O169 1.267 1_455 S
Dy172 O176 2.398 . S
Dy172 O177 2.491 1_565 S
Dy172 O178 2.403 . S
Dy172 O179 2.664 . S
Dy172 O183 2.326 1_565 S
Dy172 O187 2.310 1_565 S
Dy172 O188 2.351 . S
C173 O184 1.185 . S
C173 O185 1.355 1_545 S
C174 O176 1.185 1_545 S
C174 O177 1.355 . S
Dy175 O179 2.310 1_545 S
Dy175 O182 2.351 . S
Dy175 O184 2.398 . S
Dy175 O185 2.491 1_545 S
Dy175 O186 2.403 . S
Dy175 O187 2.664 . S
Dy175 O189 2.326 1_545 S
O176 Dy172 2.398 . S
O176 C174 1.185 1_565 S
O177 Dy172 2.491 1_545 S
O177 C174 1.355 . S
O178 Dy172 2.403 . S
O178 C180 1.254 . S
O179 Dy172 2.664 . S
O179 Dy175 2.310 1_565 S
O179 C180 1.268 . S
C180 O178 1.254 . S
C180 O179 1.268 . S
C181 O186 1.254 . S
C181 O187 1.268 . S
O182 Dy175 2.351 . S
O182 C190 1.249 . S
O183 Dy172 2.326 1_545 S
O183 C190 1.267 . S
O184 C173 1.185 . S
O184 Dy175 2.398 . S
O185 C173 1.355 1_565 S
O185 Dy175 2.491 1_565 S
O186 Dy175 2.403 . S
O186 C181 1.254 . S
O187 Dy172 2.310 1_545 S
O187 Dy175 2.664 . S
O187 C181 1.268 . S
O188 Dy172 2.351 . S
O188 C191 1.249 . S
O189 Dy175 2.326 1_565 S
O189 C191 1.267 . S
C190 O182 1.249 . S
C190 O183 1.267 . S
C191 O188 1.249 . S
C191 O189 1.267 . S
Dy192 O196 2.398 . S
Dy192 O197 2.491 . S
Dy192 O198 2.403 . S
Dy192 O199 2.664 . S
Dy192 O203 2.326 . S
Dy192 O207 2.310 . S
Dy192 O208 2.351 . S
C193 O204 1.185 . S
C193 O205 1.355 . S
C194 O196 1.185 . S
C194 O197 1.355 . S
Dy195 O199 2.310 . S
Dy195 O202 2.351 . S
Dy195 O204 2.398 . S
Dy195 O205 2.491 . S
Dy195 O206 2.403 . S
Dy195 O207 2.664 . S
Dy195 O209 2.326 . S
O196 Dy192 2.398 . S
O196 C194 1.185 . S
O197 Dy192 2.491 . S
O197 C194 1.355 . S
O198 Dy192 2.403 . S
O198 C200 1.254 . S
O199 Dy192 2.664 . S
O199 Dy195 2.310 . S
O199 C200 1.268 . S
C200 O198 1.254 . S
C200 O199 1.268 . S
C201 O206 1.254 . S
C201 O207 1.268 . S
O202 Dy195 2.351 . S
O202 C210 1.249 . S
O203 Dy192 2.326 . S
O203 C210 1.267 . S
O204 C193 1.185 . S
O204 Dy195 2.398 . S
O205 C193 1.355 . S
O205 Dy195 2.491 . S
O206 Dy195 2.403 . S
O206 C201 1.254 . S
O207 Dy192 2.310 . S
O207 Dy195 2.664 . S
O207 C201 1.268 . S
O208 Dy192 2.351 . S
O208 C211 1.249 . S
O209 Dy195 2.326 . S
O209 C211 1.267 . S
C210 O202 1.249 . S
C210 O203 1.267 . S
C211 O208 1.249 . S
C211 O209 1.267 . S
Dy212 O216 2.398 . S
Dy212 O217 2.491 . S
Dy212 O218 2.403 . S
Dy212 O219 2.664 1_655 S
Dy212 O223 2.326 . S
Dy212 O227 2.310 . S
Dy212 O228 2.351 1_655 S
C213 O224 1.185 . S
C213 O225 1.355 . S
C214 O216 1.185 . S
C214 O217 1.355 . S
Dy215 O219 2.310 . S
Dy215 O222 2.351 1_455 S
Dy215 O224 2.398 . S
Dy215 O225 2.491 . S
Dy215 O226 2.403 . S
Dy215 O227 2.664 1_455 S
Dy215 O229 2.326 . S
O216 Dy212 2.398 . S
O216 C214 1.185 . S
O217 Dy212 2.491 . S
O217 C214 1.355 . S
O218 Dy212 2.403 . S
O218 C220 1.254 . S
O219 Dy212 2.664 1_455 S
O219 Dy215 2.310 . S
O219 C220 1.268 1_455 S
C220 O218 1.254 . S
C220 O219 1.268 1_655 S
C221 O226 1.254 . S
C221 O227 1.268 1_455 S
O222 Dy215 2.351 1_655 S
O222 C230 1.249 . S
O223 Dy212 2.326 . S
O223 C230 1.267 . S
O224 C213 1.185 . S
O224 Dy215 2.398 . S
O225 C213 1.355 . S
O225 Dy215 2.491 . S
O226 Dy215 2.403 . S
O226 C221 1.254 . S
O227 Dy212 2.310 . S
O227 Dy215 2.664 1_655 S
O227 C221 1.268 1_655 S
O228 Dy212 2.351 1_455 S
O228 C231 1.249 . S
O229 Dy215 2.326 . S
O229 C231 1.267 . S
C230 O222 1.249 . S
C230 O223 1.267 . S
C231 O228 1.249 . S
C231 O229 1.267 . S
C232 C233 1.363 . S
C232 C238 1.379 . S
C232 N240 1.356 . S
C233 C232 1.363 . S
C233 C239 1.363 . S
C234 C235 1.369 . S
C234 C239 1.381 . S
C234 N241 1.349 1_545 S
C235 C234 1.369 . S
C235 C238 1.363 . S
N236 C238 1.356 . S
N236 H248 0.984 . S
N236 H249 0.985 . S
N237 C239 1.356 1_565 S
N237 H242 0.984 1_565 S
N237 H243 0.985 . S
C238 C232 1.379 . S
C238 C235 1.363 . S
C238 N236 1.356 . S
C239 C233 1.363 . S
C239 C234 1.381 . S
C239 N237 1.356 1_545 S
N240 C232 1.356 . S
N240 H246 0.984 . S
N240 H247 0.984 . S
N241 C234 1.349 1_565 S
N241 H244 0.984 . S
N241 H245 0.985 . S
H242 N237 0.984 1_545 S
H243 N237 0.985 . S
H244 N241 0.984 . S
H245 N241 0.985 . S
H246 N240 0.984 . S
H247 N240 0.984 . S
H248 N236 0.984 . S
H249 N236 0.985 . S
C250 C251 1.363 . S
C250 C256 1.379 . S
C250 N258 1.356 . S
C251 C250 1.363 . S
C251 C257 1.363 . S
C252 C253 1.363 . S
C252 C257 1.379 . S
C252 N259 1.356 . S
C253 C252 1.363 . S
C253 C256 1.363 . S
N254 C256 1.356 . S
N254 H266 0.984 . S
N254 H267 0.985 . S
N255 C257 1.356 . S
N255 H260 0.984 . S
N255 H261 0.985 . S
C256 C250 1.379 . S
C256 C253 1.363 . S
C256 N254 1.356 . S
C257 C251 1.363 . S
C257 C252 1.379 . S
C257 N255 1.356 . S
N258 C250 1.356 . S
N258 H264 0.984 . S
N258 H265 0.984 . S
N259 C252 1.356 . S
N259 H262 0.984 . S
N259 H263 0.985 . S
H260 N255 0.984 . S
H261 N255 0.985 . S
H262 N259 0.984 . S
H263 N259 0.985 . S
H264 N258 0.984 . S
H265 N258 0.984 . S
H266 N254 0.984 . S
H267 N254 0.985 . S
C268 C269 1.363 . S
C268 C274 1.379 . S
C268 N276 1.356 . S
C269 C268 1.363 . S
C269 C275 1.363 . S
C270 C271 1.363 . S
C270 C275 1.379 . S
C270 N277 1.356 . S
C271 C270 1.363 . S
C271 C274 1.363 . S
N272 C274 1.356 . S
N272 H284 0.984 . S
N272 H285 0.985 . S
N273 C275 1.356 . S
N273 H278 0.984 . S
N273 H279 0.985 . S
C274 C268 1.379 . S
C274 C271 1.363 . S
C274 N272 1.356 . S
C275 C269 1.363 . S
C275 C270 1.379 . S
C275 N273 1.356 . S
N276 C268 1.356 . S
N276 H282 0.984 . S
N276 H283 0.984 . S
N277 C270 1.356 . S
N277 H280 0.984 . S
N277 H281 0.985 . S
H278 N273 0.984 . S
H279 N273 0.985 . S
H280 N277 0.984 . S
H281 N277 0.985 . S
H282 N276 0.984 . S
H283 N276 0.984 . S
H284 N272 0.984 . S
H285 N272 0.985 . S
C286 C287 1.363 . S
C286 C292 1.379 . S
C286 N294 1.356 . S
C287 C286 1.363 . S
C287 C293 1.363 1_455 S
C288 C289 1.362 1_655 S
C288 C293 1.379 . S
C288 N295 1.356 . S
C289 C288 1.362 1_455 S
C289 C292 1.364 . S
N290 C292 1.356 . S
N290 H302 0.984 . S
N290 H303 0.985 . S
N291 C293 1.356 . S
N291 H296 0.984 . S
N291 H297 0.985 . S
C292 C286 1.379 . S
C292 C289 1.364 . S
C292 N290 1.356 . S
C293 C287 1.363 1_655 S
C293 C288 1.379 . S
C293 N291 1.356 . S
N294 C286 1.356 . S
N294 H300 0.984 . S
N294 H301 0.984 . S
N295 C288 1.356 . S
N295 H298 0.984 . S
N295 H299 0.985 . S
H296 N291 0.984 . S
H297 N291 0.985 . S
H298 N295 0.984 . S
H299 N295 0.985 . S
H300 N294 0.984 . S
H301 N294 0.984 . S
H302 N290 0.984 . S
H303 N290 0.985 . S
C304 C305 1.363 . S
C304 C310 1.379 1_565 S
C304 N312 1.356 1_565 S
C305 C304 1.363 . S
C305 C311 1.363 . S
C306 C307 1.363 . S
C306 C311 1.379 . S
C306 N313 1.356 . S
C307 C306 1.363 . S
C307 C310 1.363 1_565 S
N308 C310 1.356 . S
N308 H320 0.984 . S
N308 H321 0.985 . S
N309 C311 1.356 . S
N309 H314 0.984 . S
N309 H315 0.985 . S
C310 C304 1.379 1_545 S
C310 C307 1.363 1_545 S
C310 N308 1.356 . S
C311 C305 1.363 . S
C311 C306 1.379 . S
C311 N309 1.356 . S
N312 C304 1.356 1_545 S
N312 H318 0.984 . S
N312 H319 0.971 1_545 S
N313 C306 1.356 . S
N313 H316 0.984 . S
N313 H317 0.985 . S
H314 N309 0.984 . S
H315 N309 0.985 . S
H316 N313 0.984 . S
H317 N313 0.985 . S
H318 N312 0.984 . S
H319 N312 0.971 1_565 S
H320 N308 0.984 . S
H321 N308 0.985 . S
C322 C323 1.363 . S
C322 C328 1.379 . S
C322 N330 1.356 . S
C323 C322 1.363 . S
C323 C329 1.363 . S
C324 C325 1.363 . S
C324 C329 1.379 . S
C324 N331 1.356 . S
C325 C324 1.363 . S
C325 C328 1.363 . S
N326 C328 1.356 . S
N326 H338 0.984 . S
N326 H339 0.985 . S
N327 C329 1.356 1_554 S
N327 H332 0.984 . S
N327 H333 0.985 . S
C328 C322 1.379 . S
C328 C325 1.363 . S
C328 N326 1.356 . S
C329 C323 1.363 . S
C329 C324 1.379 . S
C329 N327 1.356 1_556 S
N330 C322 1.356 . S
N330 H336 0.984 . S
N330 H337 0.984 . S
N331 C324 1.356 . S
N331 H334 0.984 . S
N331 H335 0.985 . S
H332 N327 0.984 . S
H333 N327 0.985 . S
H334 N331 0.984 . S
H335 N331 0.985 . S
H336 N330 0.984 . S
H337 N330 0.984 . S
H338 N326 0.984 . S
H339 N326 0.985 . S
C340 C341 1.363 . S
C340 C346 1.379 . S
C340 N348 1.356 . S
C341 C340 1.363 . S
C341 C347 1.363 . S
C342 C343 1.363 . S
C342 C347 1.379 . S
C342 N349 1.356 . S
C343 C342 1.363 . S
C343 C346 1.363 . S
N344 C346 1.356 . S
N344 H356 0.984 . S
N344 H357 0.985 . S
N345 C347 1.356 1_554 S
N345 H350 0.984 . S
N345 H351 0.985 . S
C346 C340 1.379 . S
C346 C343 1.363 . S
C346 N344 1.356 . S
C347 C341 1.363 . S
C347 C342 1.379 . S
C347 N345 1.356 1_556 S
N348 C340 1.356 . S
N348 H354 0.984 . S
N348 H355 0.984 . S
N349 C342 1.356 . S
N349 H352 0.984 . S
N349 H353 0.985 . S
H350 N345 0.984 . S
H351 N345 0.985 . S
H352 N349 0.984 . S
H353 N349 0.985 . S
H354 N348 0.984 . S
H355 N348 0.984 . S
H356 N344 0.984 . S
H357 N344 0.985 . S
C358 C359 1.380 . S
C358 C364 1.379 . S
C358 N366 1.356 . S
C359 C358 1.380 . S
C359 C365 1.344 1_655 S
C360 C361 1.375 . S
C360 C365 1.379 . S
C360 N367 1.356 . S
C361 C360 1.375 . S
C361 C364 1.350 1_455 S
N362 C364 1.356 . S
N362 H374 0.984 . S
N362 H375 0.985 . S
N363 C365 1.356 1_554 S
N363 H368 0.984 . S
N363 H369 0.985 . S
C364 C358 1.379 . S
C364 C361 1.350 1_655 S
C364 N362 1.356 . S
C365 C359 1.344 1_455 S
C365 C360 1.379 . S
C365 N363 1.356 1_556 S
N366 C358 1.356 . S
N366 H372 0.984 . S
N366 H373 0.984 . S
N367 C360 1.356 . S
N367 H370 0.984 . S
N367 H371 0.985 . S
H368 N363 0.984 . S
H369 N363 0.985 . S
H370 N367 0.984 . S
H371 N367 0.985 . S
H372 N366 0.984 . S
H373 N366 0.984 . S
H374 N362 0.984 . S
H375 N362 0.985 . S
C376 C377 1.374 . S
C376 C382 1.379 . S
C376 N384 1.356 . S
C377 C376 1.374 . S
C377 C383 1.350 1_455 S
C378 C379 1.363 . S
C378 C383 1.379 . S
C378 N385 1.356 . S
C379 C378 1.363 . S
C379 C382 1.363 1_655 S
N380 C382 1.356 . S
N380 H392 0.984 . S
N380 H393 0.985 . S
N381 C383 1.356 . S
N381 H386 0.984 . S
N381 H387 0.985 . S
C382 C376 1.379 . S
C382 C379 1.363 1_455 S
C382 N380 1.356 . S
C383 C377 1.350 1_655 S
C383 C378 1.379 . S
C383 N381 1.356 . S
N384 C376 1.356 . S
N384 H390 0.984 . S
N384 H391 0.984 . S
N385 C378 1.356 . S
N385 H388 0.984 . S
N385 H389 0.985 . S
H386 N381 0.984 . S
H387 N381 0.985 . S
H388 N385 0.984 . S
H389 N385 0.985 . S
H390 N384 0.984 . S
H391 N384 0.984 . S
H392 N380 0.984 . S
H393 N380 0.985 . S
C394 C395 1.363 . S
C394 C400 1.379 . S
C394 N402 1.356 . S
C395 C394 1.363 . S
C395 C401 1.363 . S
C396 C397 1.363 . S
C396 C401 1.379 . S
C396 N403 1.356 . S
C397 C396 1.363 . S
C397 C400 1.363 . S
N398 C400 1.356 1_565 S
N398 H410 0.984 . S
N398 H411 0.985 . S
N399 C401 1.356 . S
N399 H404 0.984 . S
N399 H405 0.985 . S
C400 C394 1.379 . S
C400 C397 1.363 . S
C400 N398 1.356 1_545 S
C401 C395 1.363 . S
C401 C396 1.379 . S
C401 N399 1.356 . S
N402 C394 1.356 . S
N402 H408 0.984 1_545 S
N402 H409 0.984 . S
N403 C396 1.356 . S
N403 H406 0.984 . S
N403 H407 0.985 . S
H404 N399 0.984 . S
H405 N399 0.985 . S
H406 N403 0.984 . S
H407 N403 0.985 . S
H408 N402 0.984 1_565 S
H409 N402 0.984 . S
H410 N398 0.984 . S
H411 N398 0.985 . S
C412 C413 1.363 . S
C412 C418 1.379 . S
C412 N420 1.356 . S
C413 C412 1.363 . S
C413 C419 1.363 . S
C414 C415 1.363 . S
C414 C419 1.379 . S
C414 N421 1.356 . S
C415 C414 1.363 . S
C415 C418 1.363 . S
N416 C418 1.356 . S
N416 H428 0.984 . S
N416 H429 0.985 . S
N417 C419 1.356 1_556 S
N417 H422 0.984 . S
N417 H423 0.985 . S
C418 C412 1.379 . S
C418 C415 1.363 . S
C418 N416 1.356 . S
C419 C413 1.363 . S
C419 C414 1.379 . S
C419 N417 1.356 1_554 S
N420 C412 1.356 . S
N420 H426 0.984 . S
N420 H427 0.984 . S
N421 C414 1.356 . S
N421 H424 0.984 . S
N421 H425 0.985 . S
H422 N417 0.984 . S
H423 N417 0.985 . S
H424 N421 0.984 . S
H425 N421 0.985 . S
H426 N420 0.984 . S
H427 N420 0.984 . S
H428 N416 0.984 . S
H429 N416 0.985 . S
C430 C431 1.363 . S
C430 C436 1.379 . S
C430 N438 1.356 . S
C431 C430 1.363 . S
C431 C437 1.363 . S
C432 C433 1.363 . S
C432 C437 1.379 . S
C432 N439 1.356 . S
C433 C432 1.363 . S
C433 C436 1.363 . S
N434 C436 1.356 . S
N434 H446 0.984 . S
N434 H447 0.985 . S
N435 C437 1.356 . S
N435 H440 0.984 . S
N435 H441 0.985 . S
C436 C430 1.379 . S
C436 C433 1.363 . S
C436 N434 1.356 . S
C437 C431 1.363 . S
C437 C432 1.379 . S
C437 N435 1.356 . S
N438 C430 1.356 . S
N438 H444 0.984 . S
N438 H445 0.984 . S
N439 C432 1.356 . S
N439 H442 0.984 . S
N439 H443 0.985 . S
H440 N435 0.984 . S
H441 N435 0.985 . S
H442 N439 0.984 . S
H443 N439 0.985 . S
H444 N438 0.984 . S
H445 N438 0.984 . S
H446 N434 0.984 . S
H447 N434 0.985 . S
C448 C449 1.361 1_655 S
C448 C454 1.379 . S
C448 N456 1.356 1_556 S
C449 C448 1.361 1_455 S
C449 C455 1.365 . S
C450 C451 1.363 . S
C450 C455 1.379 . S
C450 N457 1.356 . S
C451 C450 1.363 . S
C451 C454 1.363 1_455 S
N452 C454 1.356 . S
N452 H464 0.984 1_556 S
N452 H465 0.985 . S
N453 C455 1.356 . S
N453 H458 0.984 . S
N453 H459 0.985 . S
C454 C448 1.379 . S
C454 C451 1.363 1_655 S
C454 N452 1.356 . S
C455 C449 1.365 . S
C455 C450 1.379 . S
C455 N453 1.356 . S
N456 C448 1.356 1_554 S
N456 H462 0.984 . S
N456 H463 0.984 . S
N457 C450 1.356 . S
N457 H460 0.984 . S
N457 H461 0.985 . S
H458 N453 0.984 . S
H459 N453 0.985 . S
H460 N457 0.984 . S
H461 N457 0.985 . S
H462 N456 0.984 . S
H463 N456 0.984 . S
H464 N452 0.984 1_554 S
H465 N452 0.985 . S
C466 C467 1.363 1_554 S
C466 C472 1.379 . S
C466 N474 1.356 . S
C467 C466 1.363 1_556 S
C467 C473 1.363 . S
C468 C469 1.361 1_545 S
C468 C473 1.374 1_545 S
C468 N475 1.363 . S
C469 C468 1.361 1_565 S
C469 C472 1.363 1_556 S
N470 C472 1.356 . S
N470 H482 0.984 . S
N470 H483 0.985 . S
N471 C473 1.356 . S
N471 H476 0.984 . S
N471 H477 0.969 1_565 S
C472 C466 1.379 . S
C472 C469 1.363 1_554 S
C472 N470 1.356 . S
C473 C467 1.363 . S
C473 C468 1.374 1_565 S
C473 N471 1.356 . S
N474 C466 1.356 . S
N474 H480 0.984 . S
N474 H481 0.984 . S
N475 C468 1.363 . S
N475 H478 0.984 . S
N475 H479 0.985 . S
H476 N471 0.984 . S
H477 N471 0.969 1_545 S
H478 N475 0.984 . S
H479 N475 0.985 . S
H480 N474 0.984 . S
H481 N474 0.984 . S
H482 N470 0.984 . S
H483 N470 0.985 . S
C484 C485 1.363 . S
C484 C490 1.379 . S
C484 N492 1.356 . S
C485 C484 1.363 . S
C485 C491 1.363 1_556 S
C486 C487 1.363 . S
C486 C491 1.379 1_556 S
C486 N493 1.356 . S
C487 C486 1.363 . S
C487 C490 1.363 . S
N488 C490 1.356 . S
N488 H500 0.984 . S
N488 H501 0.985 . S
N489 C491 1.356 . S
N489 H494 0.984 . S
N489 H495 0.985 . S
C490 C484 1.379 . S
C490 C487 1.363 . S
C490 N488 1.356 . S
C491 C485 1.363 1_554 S
C491 C486 1.379 1_554 S
C491 N489 1.356 . S
N492 C484 1.356 . S
N492 H498 0.984 . S
N492 H499 0.984 . S
N493 C486 1.356 . S
N493 H496 0.984 . S
N493 H497 0.985 1_556 S
H494 N489 0.984 . S
H495 N489 0.985 . S
H496 N493 0.984 . S
H497 N493 0.985 1_554 S
H498 N492 0.984 . S
H499 N492 0.984 . S
H500 N488 0.984 . S
H501 N488 0.985 . S
C502 C503 1.363 . S
C502 C508 1.379 . S
C502 N510 1.356 . S
C503 C502 1.363 . S
C503 C509 1.363 1_556 S
C504 C505 1.363 . S
C504 C509 1.379 1_556 S
C504 N511 1.356 . S
C505 C504 1.363 . S
C505 C508 1.363 . S
N506 C508 1.356 . S
N506 H518 0.984 . S
N506 H519 0.985 . S
N507 C509 1.356 . S
N507 H512 0.984 . S
N507 H513 0.985 . S
C508 C502 1.379 . S
C508 C505 1.363 . S
C508 N506 1.356 . S
C509 C503 1.363 1_554 S
C509 C504 1.379 1_554 S
C509 N507 1.356 . S
N510 C502 1.356 . S
N510 H516 0.984 . S
N510 H517 0.984 . S
N511 C504 1.356 . S
N511 H514 0.984 . S
N511 H515 0.985 1_556 S
H512 N507 0.984 . S
H513 N507 0.985 . S
H514 N511 0.984 . S
H515 N511 0.985 1_554 S
H516 N510 0.984 . S
H517 N510 0.984 . S
H518 N506 0.984 . S
H519 N506 0.985 . S
C520 C521 1.363 1_655 S
C520 C526 1.379 . S
C520 N528 1.356 . S
C521 C520 1.363 1_455 S
C521 C527 1.363 . S
C522 C523 1.363 . S
C522 C527 1.379 . S
C522 N529 1.356 . S
C523 C522 1.363 . S
C523 C526 1.363 1_455 S
N524 C526 1.356 . S
N524 H536 0.984 . S
N524 H537 0.985 . S
N525 C527 1.356 . S
N525 H530 0.984 . S
N525 H531 0.985 1_556 S
C526 C520 1.379 . S
C526 C523 1.363 1_655 S
C526 N524 1.356 . S
C527 C521 1.363 . S
C527 C522 1.379 . S
C527 N525 1.356 . S
N528 C520 1.356 . S
N528 H534 0.984 . S
N528 H535 0.984 . S
N529 C522 1.356 . S
N529 H532 0.984 . S
N529 H533 0.985 . S
H530 N525 0.984 . S
H531 N525 0.985 1_554 S
H532 N529 0.984 . S
H533 N529 0.985 . S
H534 N528 0.984 . S
H535 N528 0.984 . S
H536 N524 0.984 . S
H537 N524 0.985 . S
C538 C539 1.363 . S
C538 C544 1.379 . S
C538 N546 1.356 1_556 S
C539 C538 1.363 . S
C539 C545 1.363 . S
C540 C541 1.363 . S
C540 C545 1.379 . S
C540 N547 1.356 1_545 S
C541 C540 1.363 . S
C541 C544 1.363 . S
N542 C544 1.356 . S
N542 H554 0.984 1_556 S
N542 H555 0.985 . S
N543 C545 1.356 . S
N543 H548 0.984 . S
N543 H549 0.985 1_545 S
C544 C538 1.379 . S
C544 C541 1.363 . S
C544 N542 1.356 . S
C545 C539 1.363 . S
C545 C540 1.379 . S
C545 N543 1.356 . S
N546 C538 1.356 1_554 S
N546 H552 0.984 . S
N546 H553 0.984 . S
N547 C540 1.356 1_565 S
N547 H550 0.984 . S
N547 H551 0.985 . S
H548 N543 0.984 . S
H549 N543 0.985 1_565 S
H550 N547 0.984 . S
H551 N547 0.985 . S
H552 N546 0.984 . S
H553 N546 0.984 . S
H554 N542 0.984 1_554 S
H555 N542 0.985 . S
C556 C557 1.363 . S
C556 C562 1.379 . S
C556 N564 1.356 . S
C557 C556 1.363 . S
C557 C563 1.363 . S
C558 C559 1.363 . S
C558 C563 1.379 . S
C558 N565 1.356 . S
C559 C558 1.363 . S
C559 C562 1.363 . S
N560 C562 1.356 . S
N560 H572 0.984 . S
N560 H573 0.985 . S
N561 C563 1.356 . S
N561 H566 0.984 . S
N561 H567 0.985 1_556 S
C562 C556 1.379 . S
C562 C559 1.363 . S
C562 N560 1.356 . S
C563 C557 1.363 . S
C563 C558 1.379 . S
C563 N561 1.356 . S
N564 C556 1.356 . S
N564 H570 0.984 . S
N564 H571 0.984 . S
N565 C558 1.356 . S
N565 H568 0.984 . S
N565 H569 0.985 . S
H566 N561 0.984 . S
H567 N561 0.985 1_554 S
H568 N565 0.984 . S
H569 N565 0.985 . S
H570 N564 0.984 . S
H571 N564 0.984 . S
H572 N560 0.984 . S
H573 N560 0.985 . S
C574 C575 1.363 . S
C574 C580 1.379 . S
C574 N582 1.356 . S
C575 C574 1.363 . S
C575 C581 1.363 . S
C576 C577 1.363 . S
C576 C581 1.379 . S
C576 N583 1.356 . S
C577 C576 1.363 . S
C577 C580 1.363 . S
N578 C580 1.356 . S
N578 H590 0.984 . S
N578 H591 0.985 . S
N579 C581 1.356 . S
N579 H584 0.984 . S
N579 H585 0.985 . S
C580 C574 1.379 . S
C580 C577 1.363 . S
C580 N578 1.356 . S
C581 C575 1.363 . S
C581 C576 1.379 . S
C581 N579 1.356 . S
N582 C574 1.356 . S
N582 H588 0.984 . S
N582 H589 0.984 . S
N583 C576 1.356 . S
N583 H586 0.984 . S
N583 H587 0.985 . S
H584 N579 0.984 . S
H585 N579 0.985 . S
H586 N583 0.984 . S
H587 N583 0.985 . S
H588 N582 0.984 . S
H589 N582 0.984 . S
H590 N578 0.984 . S
H591 N578 0.985 . S
C592 C593 1.363 . S
C592 C598 1.379 . S
C592 N600 1.356 . S
C593 C592 1.363 . S
C593 C599 1.363 1_655 S
C594 C595 1.363 1_455 S
C594 C599 1.379 . S
C594 N601 1.356 . S
C595 C594 1.363 1_655 S
C595 C598 1.363 . S
N596 C598 1.356 . S
N596 H608 0.984 . S
N596 H609 0.985 . S
N597 C599 1.356 . S
N597 H602 0.984 . S
N597 H603 0.985 . S
C598 C592 1.379 . S
C598 C595 1.363 . S
C598 N596 1.356 . S
C599 C593 1.363 1_455 S
C599 C594 1.379 . S
C599 N597 1.356 . S
N600 C592 1.356 . S
N600 H606 0.984 . S
N600 H607 0.984 . S
N601 C594 1.356 . S
N601 H604 0.984 . S
N601 H605 0.985 . S
H602 N597 0.984 . S
H603 N597 0.985 . S
H604 N601 0.984 . S
H605 N601 0.985 . S
H606 N600 0.984 . S
H607 N600 0.984 . S
H608 N596 0.984 . S
H609 N596 0.985 . S
C610 C611 1.363 . S
C610 C616 1.379 . S
C610 N618 1.356 . S
C611 C610 1.363 . S
C611 C617 1.363 . S
C612 C613 1.363 . S
C612 C617 1.379 . S
C612 N619 1.356 1_565 S
C613 C612 1.363 . S
C613 C616 1.363 . S
N614 C616 1.356 . S
N614 H626 0.984 . S
N614 H627 0.985 . S
N615 C617 1.356 . S
N615 H620 0.984 . S
N615 H621 0.985 1_565 S
C616 C610 1.379 . S
C616 C613 1.363 . S
C616 N614 1.356 . S
C617 C611 1.363 . S
C617 C612 1.379 . S
C617 N615 1.356 . S
N618 C610 1.356 . S
N618 H624 0.984 . S
N618 H625 0.984 . S
N619 C612 1.356 1_545 S
N619 H622 0.984 . S
N619 H623 0.985 . S
H620 N615 0.984 . S
H621 N615 0.985 1_545 S
H622 N619 0.984 . S
H623 N619 0.985 . S
H624 N618 0.984 . S
H625 N618 0.984 . S
H626 N614 0.984 . S
H627 N614 0.985 . S
C628 C629 1.363 . S
C628 C634 1.379 . S
C628 N636 1.356 . S
C629 C628 1.363 . S
C629 C635 1.363 . S
C630 C631 1.363 . S
C630 C635 1.379 . S
C630 N637 1.356 . S
C631 C630 1.363 . S
C631 C634 1.363 . S
N632 C634 1.356 . S
N632 H644 0.984 . S
N632 H645 0.985 . S
N633 C635 1.356 . S
N633 H638 0.984 . S
N633 H639 0.985 . S
C634 C628 1.379 . S
C634 C631 1.363 . S
C634 N632 1.356 . S
C635 C629 1.363 . S
C635 C630 1.379 . S
C635 N633 1.356 . S
N636 C628 1.356 . S
N636 H642 0.984 . S
N636 H643 0.984 . S
N637 C630 1.356 . S
N637 H640 0.984 . S
N637 H641 0.985 . S
H638 N633 0.984 . S
H639 N633 0.985 . S
H640 N637 0.984 . S
H641 N637 0.985 . S
H642 N636 0.984 . S
H643 N636 0.984 . S
H644 N632 0.984 . S
H645 N632 0.985 . S
C646 C647 1.363 . S
C646 C652 1.379 . S
C646 N654 1.356 . S
C647 C646 1.363 . S
C647 C653 1.363 . S
C648 C649 1.363 . S
C648 C653 1.379 . S
C648 N655 1.356 . S
C649 C648 1.363 . S
C649 C652 1.363 . S
N650 C652 1.356 . S
N650 H662 0.984 . S
N650 H663 0.985 . S
N651 C653 1.356 . S
N651 H656 0.984 . S
N651 H657 0.985 . S
C652 C646 1.379 . S
C652 C649 1.363 . S
C652 N650 1.356 . S
C653 C647 1.363 . S
C653 C648 1.379 . S
C653 N651 1.356 . S
N654 C646 1.356 . S
N654 H660 0.984 . S
N654 H661 0.984 . S
N655 C648 1.356 . S
N655 H658 0.984 . S
N655 H659 0.985 . S
H656 N651 0.984 . S
H657 N651 0.985 . S
H658 N655 0.984 . S
H659 N655 0.985 . S
H660 N654 0.984 . S
H661 N654 0.984 . S
H662 N650 0.984 . S
H663 N650 0.985 . S
C233 C125 1.619 . S
C235 C160 1.736 . S
C253 C190 1.804 . S
C251 C144 1.754 . S
C271 C200 1.633 . S
C269 C87 1.589 . S
C289 C220 1.514 1_455 S
C287 C106 1.469 1_455 S
C307 C161 1.744 . S
C305 C49 1.718 . S
C323 C68 1.832 1_556 S
C325 C191 1.804 . S
C341 C11 1.598 1_556 S
C343 C201 1.633 . S
C359 C30 1.487 . S
C361 C221 1.518 . S
C379 C153 1.076 . S
C377 C97 1.039 . S
C397 C174 0.964 . S
C395 C116 0.909 . S
C415 C193 1.218 . S
C413 C135 1.178 . S
C431 C78 0.960 . S
C433 C213 0.986 . S
C449 C21 1.040 1_455 S
C451 C154 1.076 . S
C469 C173 0.964 1_565 S
C467 C40 0.910 . S
C487 C194 1.218 . S
C485 C59 1.180 1_556 S
C503 C2 0.961 1_556 S
C505 C214 0.986 . S
C521 C101 1.535 . S
C523 C171 1.636 . S
C539 C120 1.484 . S
C541 C181 1.634 . S
C559 C211 1.827 . S
C557 C139 1.682 . S
C577 C231 1.797 . S
C575 C82 1.680 . S
C593 C25 1.533 . S
C595 C170 1.636 . S
C613 C180 1.634 . S
C611 C44 1.489 . S
C631 C210 1.827 . S
C629 C63 1.684 . S
C647 C6 1.678 . S
C649 C230 1.797 . S
