# Generated by pormake.
# Topology ctn, (3,4)-cn, num edge types: 1
# Building blocks:
#     Node 0, Type 0, BuildingBlock: PAMTOO_clean_linker_0, # of connection points: 3
#     Node 1, Type 0, BuildingBlock: PAMTOO_clean_linker_0, # of connection points: 3
#     Node 2, Type 0, BuildingBlock: PAMTOO_clean_linker_0, # of connection points: 3
#     Node 3, Type 0, BuildingBlock: PAMTOO_clean_linker_0, # of connection points: 3
#     Node 4, Type 0, BuildingBlock: PAMTOO_clean_linker_0, # of connection points: 3
#     Node 5, Type 0, BuildingBlock: PAMTOO_clean_linker_0, # of connection points: 3
#     Node 6, Type 0, BuildingBlock: PAMTOO_clean_linker_0, # of connection points: 3
#     Node 7, Type 0, BuildingBlock: PAMTOO_clean_linker_0, # of connection points: 3
#     Node 8, Type 0, BuildingBlock: PAMTOO_clean_linker_0, # of connection points: 3
#     Node 9, Type 0, BuildingBlock: PAMTOO_clean_linker_0, # of connection points: 3
#     Node 10, Type 0, BuildingBlock: PAMTOO_clean_linker_0, # of connection points: 3
#     Node 11, Type 0, BuildingBlock: PAMTOO_clean_linker_0, # of connection points: 3
#     Node 12, Type 0, BuildingBlock: PAMTOO_clean_linker_0, # of connection points: 3
#     Node 13, Type 0, BuildingBlock: PAMTOO_clean_linker_0, # of connection points: 3
#     Node 14, Type 0, BuildingBlock: PAMTOO_clean_linker_0, # of connection points: 3
#     Node 15, Type 0, BuildingBlock: PAMTOO_clean_linker_0, # of connection points: 3
#     Node 16, Type 1, BuildingBlock: KUFVIS_clean_sbu_0, # of connection points: 4
#     Node 17, Type 1, BuildingBlock: KUFVIS_clean_sbu_0, # of connection points: 4
#     Node 18, Type 1, BuildingBlock: KUFVIS_clean_sbu_0, # of connection points: 4
#     Node 19, Type 1, BuildingBlock: KUFVIS_clean_sbu_0, # of connection points: 4
#     Node 20, Type 1, BuildingBlock: KUFVIS_clean_sbu_0, # of connection points: 4
#     Node 21, Type 1, BuildingBlock: KUFVIS_clean_sbu_0, # of connection points: 4
#     Node 22, Type 1, BuildingBlock: KUFVIS_clean_sbu_0, # of connection points: 4
#     Node 23, Type 1, BuildingBlock: KUFVIS_clean_sbu_0, # of connection points: 4
#     Node 24, Type 1, BuildingBlock: KUFVIS_clean_sbu_0, # of connection points: 4
#     Node 25, Type 1, BuildingBlock: KUFVIS_clean_sbu_0, # of connection points: 4
#     Node 26, Type 1, BuildingBlock: KUFVIS_clean_sbu_0, # of connection points: 4
#     Node 27, Type 1, BuildingBlock: KUFVIS_clean_sbu_0, # of connection points: 4
#     Edge 28, Type (0, 1), BuildingBlock: AJUNOK_clean_linker_0, # of connection points: 2
#     Edge 29, Type (0, 1), BuildingBlock: AJUNOK_clean_linker_0, # of connection points: 2
#     Edge 30, Type (0, 1), BuildingBlock: AJUNOK_clean_linker_0, # of connection points: 2
#     Edge 31, Type (0, 1), BuildingBlock: AJUNOK_clean_linker_0, # of connection points: 2
#     Edge 32, Type (0, 1), BuildingBlock: AJUNOK_clean_linker_0, # of connection points: 2
#     Edge 33, Type (0, 1), BuildingBlock: AJUNOK_clean_linker_0, # of connection points: 2
#     Edge 34, Type (0, 1), BuildingBlock: AJUNOK_clean_linker_0, # of connection points: 2
#     Edge 35, Type (0, 1), BuildingBlock: AJUNOK_clean_linker_0, # of connection points: 2
#     Edge 36, Type (0, 1), BuildingBlock: AJUNOK_clean_linker_0, # of connection points: 2
#     Edge 37, Type (0, 1), BuildingBlock: AJUNOK_clean_linker_0, # of connection points: 2
#     Edge 38, Type (0, 1), BuildingBlock: AJUNOK_clean_linker_0, # of connection points: 2
#     Edge 39, Type (0, 1), BuildingBlock: AJUNOK_clean_linker_0, # of connection points: 2
#     Edge 40, Type (0, 1), BuildingBlock: AJUNOK_clean_linker_0, # of connection points: 2
#     Edge 41, Type (0, 1), BuildingBlock: AJUNOK_clean_linker_0, # of connection points: 2
#     Edge 42, Type (0, 1), BuildingBlock: AJUNOK_clean_linker_0, # of connection points: 2
#     Edge 43, Type (0, 1), BuildingBlock: AJUNOK_clean_linker_0, # of connection points: 2
#     Edge 44, Type (0, 1), BuildingBlock: AJUNOK_clean_linker_0, # of connection points: 2
#     Edge 45, Type (0, 1), BuildingBlock: AJUNOK_clean_linker_0, # of connection points: 2
#     Edge 46, Type (0, 1), BuildingBlock: AJUNOK_clean_linker_0, # of connection points: 2
#     Edge 47, Type (0, 1), BuildingBlock: AJUNOK_clean_linker_0, # of connection points: 2
#     Edge 48, Type (0, 1), BuildingBlock: AJUNOK_clean_linker_0, # of connection points: 2
#     Edge 49, Type (0, 1), BuildingBlock: AJUNOK_clean_linker_0, # of connection points: 2
#     Edge 50, Type (0, 1), BuildingBlock: AJUNOK_clean_linker_0, # of connection points: 2
#     Edge 51, Type (0, 1), BuildingBlock: AJUNOK_clean_linker_0, # of connection points: 2
#     Edge 52, Type (0, 1), BuildingBlock: AJUNOK_clean_linker_0, # of connection points: 2
#     Edge 53, Type (0, 1), BuildingBlock: AJUNOK_clean_linker_0, # of connection points: 2
#     Edge 54, Type (0, 1), BuildingBlock: AJUNOK_clean_linker_0, # of connection points: 2
#     Edge 55, Type (0, 1), BuildingBlock: AJUNOK_clean_linker_0, # of connection points: 2
#     Edge 56, Type (0, 1), BuildingBlock: AJUNOK_clean_linker_0, # of connection points: 2
#     Edge 57, Type (0, 1), BuildingBlock: AJUNOK_clean_linker_0, # of connection points: 2
#     Edge 58, Type (0, 1), BuildingBlock: AJUNOK_clean_linker_0, # of connection points: 2
#     Edge 59, Type (0, 1), BuildingBlock: AJUNOK_clean_linker_0, # of connection points: 2
#     Edge 60, Type (0, 1), BuildingBlock: AJUNOK_clean_linker_0, # of connection points: 2
#     Edge 61, Type (0, 1), BuildingBlock: AJUNOK_clean_linker_0, # of connection points: 2
#     Edge 62, Type (0, 1), BuildingBlock: AJUNOK_clean_linker_0, # of connection points: 2
#     Edge 63, Type (0, 1), BuildingBlock: AJUNOK_clean_linker_0, # of connection points: 2
#     Edge 64, Type (0, 1), BuildingBlock: AJUNOK_clean_linker_0, # of connection points: 2
#     Edge 65, Type (0, 1), BuildingBlock: AJUNOK_clean_linker_0, # of connection points: 2
#     Edge 66, Type (0, 1), BuildingBlock: AJUNOK_clean_linker_0, # of connection points: 2
#     Edge 67, Type (0, 1), BuildingBlock: AJUNOK_clean_linker_0, # of connection points: 2
#     Edge 68, Type (0, 1), BuildingBlock: AJUNOK_clean_linker_0, # of connection points: 2
#     Edge 69, Type (0, 1), BuildingBlock: AJUNOK_clean_linker_0, # of connection points: 2
#     Edge 70, Type (0, 1), BuildingBlock: AJUNOK_clean_linker_0, # of connection points: 2
#     Edge 71, Type (0, 1), BuildingBlock: AJUNOK_clean_linker_0, # of connection points: 2
#     Edge 72, Type (0, 1), BuildingBlock: AJUNOK_clean_linker_0, # of connection points: 2
#     Edge 73, Type (0, 1), BuildingBlock: AJUNOK_clean_linker_0, # of connection points: 2
#     Edge 74, Type (0, 1), BuildingBlock: AJUNOK_clean_linker_0, # of connection points: 2
#     Edge 75, Type (0, 1), BuildingBlock: AJUNOK_clean_linker_0, # of connection points: 2
# Relax obj value: 0.078
# Max RMSD: 0.177
# Mean RMSD: 0.120
data_MOF--net-ctn--node1-KUFVIS_clean_sbu_0--node2-PAMTOO_clean_linker_0--edge1-AJUNOK_clean_linker_0
_symmetry_space_group_name_H-M    P1
_symmetry_Int_Tables_number       1
_symmetry_cell_setting            triclinic
loop_
_symmetry_equiv_pos_as_xyz
'x, y, z'
_cell_length_a     37.773072
_cell_length_b     38.083272
_cell_length_c     38.962217
_cell_angle_alpha  86.075599
_cell_angle_beta   92.56522
_cell_angle_gamma 98.758355
loop_
_atom_site_label
_atom_site_type_symbol
_atom_site_fract_x
_atom_site_fract_y
_atom_site_fract_z
_atom_type_partial_charge
H0 H 1.0052 0.10871 0.082 0.0
H1 H 0.06936 0.02487 0.10405 0.0
H2 H 0.08941 0.09582 1.01493 0.0
H3 H 0.08096 0.01989 1.00339 0.0
C4 C 0.09543 1.01061 0.027 0.0
O5 O 0.10562 0.03847 0.04792 0.0
H6 H 0.07651 0.98959 0.04074 0.0
C7 C 0.02726 0.0953 0.07598 0.0
C8 C 0.04621 0.10618 0.04582 0.0
C9 C 0.0357 0.06631 0.09765 0.0
C10 C 0.06278 0.04765 0.08821 0.0
C11 C 0.08138 0.05797 0.05806 0.0
C12 C 0.07388 0.08769 0.03759 0.0
H13 H 0.37259 0.65619 0.27739 0.0
H14 H 0.31142 0.68514 0.18642 0.0
H15 H 0.40791 0.75164 0.21511 0.0
H16 H 0.34327 0.78556 0.19915 0.0
C17 C 0.33207 0.76997 0.17693 0.0
O18 O 0.35341 0.74446 0.17206 0.0
H19 H 0.30454 0.75682 0.18295 0.0
C20 C 0.36853 0.6741 0.25536 0.0
C21 C 0.39265 0.70597 0.25068 0.0
C22 C 0.33874 0.66597 0.23254 0.0
C23 C 0.3347 0.68956 0.20371 0.0
C24 C 0.3595 0.72036 0.19789 0.0
C25 C 0.38885 0.7279 0.22062 0.0
H26 H 1.00134 0.5655 0.11804 0.0
H27 H 0.95608 0.50184 0.03472 0.0
H28 H 0.03937 0.46739 0.10015 0.0
H29 H 0.05096 0.46608 0.02774 0.0
C30 C 0.02318 0.45699 0.01798 0.0
O31 O 0.99997 0.45493 0.0448 0.0
H32 H 1.01608 0.47696 0.99767 0.0
C33 C 0.99978 0.54187 0.10378 0.0
C34 C 0.02369 0.5173 0.11293 0.0
C35 C 0.97437 0.53642 0.07607 0.0
C36 C 0.97491 0.50685 0.05624 0.0
C37 C 0.99915 0.48284 0.06444 0.0
C38 C 0.02239 0.48744 0.09327 0.0
H39 H 0.70897 0.89076 0.26572 0.0
H40 H 0.67325 0.78739 0.22781 0.0
H41 H 0.76465 0.8535 0.18446 0.0
H42 H 0.71659 0.82064 0.13454 0.0
C43 C 0.70799 0.79404 0.14772 0.0
O44 O 0.72227 0.79298 0.18095 0.0
H45 H 0.67823 0.78976 0.14869 0.0
C46 C 0.71145 0.87077 0.24779 0.0
C47 C 0.73953 0.87643 0.22465 0.0
C48 C 0.68769 0.83872 0.24936 0.0
C49 C 0.6913 0.81242 0.22669 0.0
C50 C 0.71856 0.81827 0.20273 0.0
C51 C 0.74276 0.85004 0.202 0.0
H52 H 0.13011 0.96216 0.56372 0.0
H53 H 0.0391 0.92684 0.49683 0.0
H54 H 0.11053 0.02132 0.46872 0.0
H55 H 0.03772 0.02938 0.45845 0.0
C56 C 0.02584 1.00272 0.44994 0.0
O57 O 0.05198 0.98088 0.45153 0.0
H58 H 1.00404 0.99127 0.4675 0.0
C59 C 0.114 0.96552 0.54035 0.0
C60 C 0.12426 0.99476 0.51705 0.0
C61 C 0.08379 0.94006 0.53296 0.0
C62 C 0.06246 0.94585 0.50315 0.0
C63 C 0.07197 0.97557 0.48049 0.0
C64 C 0.10308 0.99925 0.48708 0.0
H65 H 0.16357 0.76273 0.85022 0.0
H66 H 0.20472 0.67654 0.80713 0.0
H67 H 0.25646 0.72253 0.89684 0.0
H68 H 0.30967 0.70479 0.85832 0.0
C69 C 0.29259 0.69151 0.83758 0.0
O70 O 0.25968 0.67713 0.8506 0.0
H71 H 0.28881 0.71202 0.81647 0.0
C72 C 0.18227 0.74371 0.85165 0.0
C73 C 0.21021 0.74587 0.87703 0.0
C74 C 0.17977 0.71835 0.82662 0.0
C75 C 0.20567 0.69547 0.82681 0.0
C76 C 0.23321 0.69719 0.85208 0.0
C77 C 0.23481 0.72154 0.87756 0.0
H78 H 0.94312 0.57282 0.55825 0.0
H79 H 0.96708 0.50547 0.48135 0.0
H80 H 0.04621 0.59226 0.51088 0.0
H81 H 1.01515 0.57429 0.43057 0.0
C82 C 0.02224 0.54691 0.43466 0.0
O83 O 0.03072 0.53988 0.46912 0.0
H84 H 0.99808 0.52828 0.42683 0.0
C85 C 0.9621 0.56569 0.54095 0.0
C86 C 0.9969 0.58532 0.53897 0.0
C87 C 0.95129 0.53714 0.52009 0.0
C88 C 0.97547 0.52741 0.49765 0.0
C89 C 1.00943 0.54748 0.49392 0.0
C90 C 0.02013 0.57646 0.51448 0.0
H91 H 0.78823 0.83564 0.88666 0.0
H92 H 0.88694 0.80995 0.84965 0.0
H93 H 0.8311 0.88551 0.79198 0.0
H94 H 0.87113 0.85432 0.74238 0.0
C95 C 0.87859 0.83432 0.76244 0.0
O96 O 0.8859 0.85055 0.79319 0.0
H97 H 0.8549 0.81296 0.76444 0.0
C98 C 0.80917 0.83933 0.86806 0.0
C99 C 0.80654 0.86331 0.83926 0.0
C100 C 0.83781 0.81918 0.87214 0.0
C101 C 0.8641 0.82409 0.84697 0.0
C102 C 0.86141 0.84757 0.81803 0.0
C103 C 0.83292 0.86736 0.81444 0.0
H104 H 0.28336 0.33678 0.39152 0.0
H105 H 0.3757 0.30059 0.35166 0.0
H106 H 0.32868 0.38406 0.29682 0.0
H107 H 0.42392 0.35655 0.31953 0.0
C108 C 0.41082 0.35659 0.29336 0.0
O109 O 0.37565 0.34011 0.29471 0.0
H110 H 0.41115 0.38472 0.2836 0.0
C111 C 0.3037 0.33845 0.37249 0.0
C112 C 0.30369 0.36401 0.34456 0.0
C113 C 0.32953 0.31497 0.37564 0.0
C114 C 0.35504 0.31749 0.34993 0.0
C115 C 0.35424 0.34175 0.32135 0.0
C116 C 0.32913 0.3654 0.31906 0.0
H117 H 0.48158 0.0539 0.62495 0.0
H118 H 0.45972 1.00216 0.52948 0.0
H119 H 0.54002 0.97046 0.60051 0.0
H120 H 0.55683 0.95941 0.536 0.0
C121 C 0.5307 0.95647 0.52138 0.0
O122 O 0.5032 0.95581 0.54379 0.0
H123 H 0.53058 0.97971 0.50244 0.0
C124 C 0.48738 0.03495 0.60729 0.0
C125 C 0.51477 0.01399 0.61615 0.0
C126 C 0.46673 0.03092 0.57618 0.0
C127 C 0.47416 1.00541 0.55395 0.0
C128 C 0.49972 0.98312 0.56332 0.0
C129 C 0.51985 0.98748 0.59418 0.0
H130 H 0.21815 0.38787 0.77914 0.0
H131 H 0.17382 0.28845 0.73689 0.0
H132 H 0.27208 0.34652 0.69901 0.0
H133 H 0.22365 0.32005 0.647 0.0
C134 C 0.21209 0.29363 0.65892 0.0
O135 O 0.22469 0.28989 0.69257 0.0
H136 H 0.18244 0.29234 0.6587 0.0
C137 C 0.21964 0.36753 0.76131 0.0
C138 C 0.248 0.37149 0.73852 0.0
C139 C 0.1928 0.33772 0.76101 0.0
C140 C 0.1943 0.31168 0.73741 0.0
C141 C 0.22287 0.31507 0.71503 0.0
C142 C 0.24979 0.34466 0.71594 0.0
H143 H 0.86758 0.15049 0.7834 0.0
H144 H 0.80522 0.17957 0.69321 0.0
H145 H 0.90289 0.24498 0.71959 0.0
H146 H 0.83769 0.28001 0.70554 0.0
C147 C 0.82534 0.26364 0.68426 0.0
O148 O 0.84689 0.23859 0.67849 0.0
H149 H 0.79845 0.2501 0.69214 0.0
C150 C 0.8634 0.1682 0.76124 0.0
C151 C 0.8878 0.19985 0.75587 0.0
C152 C 0.83333 0.16005 0.73869 0.0
C153 C 0.82886 0.18373 0.71006 0.0
C154 C 0.85368 0.2143 0.7038 0.0
C155 C 0.88367 0.22152 0.72572 0.0
H156 H 0.51446 0.61675 0.58779 0.0
H157 H 0.56486 0.52204 0.59655 0.0
H158 H 0.585 0.59658 0.50998 0.0
H159 H 0.58072 0.52328 0.49428 0.0
C160 C 0.59104 0.51163 0.51902 0.0
O161 O 0.60167 0.53829 0.54118 0.0
H162 H 0.56899 0.49209 0.53026 0.0
C163 C 0.53173 0.59993 0.57773 0.0
C164 C 0.54802 0.61016 0.54606 0.0
C165 C 0.53727 0.56807 0.5964 0.0
C166 C 0.56074 0.54718 0.58347 0.0
C167 C 0.57842 0.55803 0.55284 0.0
C168 C 0.57199 0.58927 0.53421 0.0
H169 H 0.63252 0.46966 0.06023 0.0
H170 H 0.53723 0.44118 0.99631 0.0
H171 H 0.61583 0.52834 0.96433 0.0
H172 H 0.55107 0.54664 0.95202 0.0
C173 C 0.53348 0.52118 0.94729 0.0
O174 O 0.55327 0.49337 0.9499 0.0
H175 H 0.51266 0.51632 0.96711 0.0
C176 C 0.61607 0.4741 0.0373 0.0
C177 C 0.62822 0.50187 1.01305 0.0
C178 C 0.5834 0.45139 0.03151 0.0
C179 C 0.56208 0.45837 1.00194 0.0
C180 C 0.57365 0.48661 0.97827 0.0
C181 C 0.60698 0.50735 0.98335 0.0
H182 H 0.66682 0.26504 0.34978 0.0
H183 H 0.69924 0.17585 0.30379 0.0
H184 H 0.75355 0.21414 0.39563 0.0
H185 H 0.80136 0.20538 0.34587 0.0
C186 C 0.78586 0.18438 0.33037 0.0
O187 O 0.75423 0.17145 0.34657 0.0
H188 H 0.77979 0.1965 0.30436 0.0
C189 C 0.68381 0.2445 0.3502 0.0
C190 C 0.71129 0.2435 0.37573 0.0
C191 C 0.67865 0.21965 0.32459 0.0
C192 C 0.70172 0.19405 0.32426 0.0
C193 C 0.72923 0.19293 0.34941 0.0
C194 C 0.73285 0.21642 0.37583 0.0
H195 H 0.44105 0.08303 0.05082 0.0
H196 H 0.47163 0.0311 0.96452 0.0
H197 H 0.54872 0.10763 1.01365 0.0
H198 H 0.5337 1.00886 0.97027 0.0
C199 C 0.55346 0.03305 0.96424 0.0
O200 O 0.53736 0.06339 0.96406 0.0
H201 H 0.57521 0.03461 0.98452 0.0
C202 C 0.46124 0.07911 0.03315 0.0
C203 C 0.49589 0.09917 0.03529 0.0
C204 C 0.4522 0.05467 1.00753 0.0
C205 C 0.47823 0.04972 0.9845 0.0
C206 C 0.51313 0.06795 0.98733 0.0
C207 C 0.52199 0.09254 1.01271 0.0
Mn208 Mn 0.26935 0.89282 0.01521 0.0
Mn209 Mn 0.26341 0.92778 0.9337 0.0
C210 C 0.2404 0.85846 0.97264 0.0
C211 C 0.29806 0.863 0.05965 0.0
C212 C 0.21747 0.94442 0.99052 0.0
O213 O 0.30805 0.93649 0.01503 0.0
O214 O 0.30336 0.95634 0.95948 0.0
C215 C 0.33236 0.91309 0.90897 0.0
N216 N 0.29592 0.90921 0.90607 0.0
C217 C 0.29502 0.87352 0.85729 0.0
C218 C 0.33254 0.87731 0.85965 0.0
C219 C 0.35128 0.89718 0.88561 0.0
C220 C 0.27763 0.8903 0.88106 0.0
H221 H 0.34688 0.92813 0.92902 0.0
C222 C 0.31818 0.95833 0.98973 0.0
O223 O 0.27549 0.88412 0.06573 0.0
O224 O 0.30517 0.86032 0.02772 0.0
N225 N 0.22627 0.90213 0.90612 0.0
C226 C 0.19006 0.89929 0.90862 0.0
C227 C 0.16739 0.87926 0.88522 0.0
C228 C 0.18215 0.86245 0.85949 0.0
C229 C 0.21948 0.86603 0.85722 0.0
C230 C 0.24074 0.88662 0.88104 0.0
H231 H 0.17855 0.91191 0.92852 0.0
O232 O 0.23311 0.85048 1.00472 0.0
O233 O 0.26416 0.88645 0.96655 0.0
O234 O 0.23026 0.92439 1.01385 0.0
O235 O 0.2282 0.94799 0.95968 0.0
C236 C 0.23642 0.8493 0.83276 0.0
C237 C 0.27416 0.85307 0.83278 0.0
H238 H 0.34723 0.86481 0.84188 0.0
H239 H 0.38023 0.90008 0.88771 0.0
H240 H 0.1386 0.87653 0.88721 0.0
H241 H 0.16457 0.84662 0.84179 0.0
H242 H 0.22067 0.83305 0.81415 0.0
H243 H 0.28686 0.83969 0.81414 0.0
Mn244 Mn 0.17695 0.51149 0.28542 0.0
Mn245 Mn 0.16116 0.59679 0.27467 0.0
C246 C 0.21735 0.55497 0.25737 0.0
C247 C 0.20415 0.46609 0.31529 0.0
C248 C 0.12212 0.53751 0.23278 0.0
O249 O 0.13944 0.51369 0.32198 0.0
O250 O 0.13424 0.57206 0.31392 0.0
C251 C 0.19406 0.62565 0.33937 0.0
N252 N 0.19242 0.62654 0.30433 0.0
C253 C 0.23628 0.67949 0.30064 0.0
C254 C 0.23799 0.67945 0.33666 0.0
C255 C 0.2169 0.65229 0.3561 0.0
C256 C 0.2128 0.6524 0.28539 0.0
H257 H 0.1781 0.60476 0.35444 0.0
C258 C 0.12702 0.54151 0.33011 0.0
O259 O 0.17694 0.45886 0.29404 0.0
O260 O 0.21348 0.49936 0.32126 0.0
N261 N 0.18674 0.6235 0.23771 0.0
C262 C 0.18238 0.61945 0.20322 0.0
C263 C 0.20262 0.64369 0.18021 0.0
C264 C 0.2268 0.67202 0.19286 0.0
C265 C 0.23066 0.67576 0.22844 0.0
C266 C 0.20993 0.65069 0.25013 0.0
H267 H 0.16369 0.59785 0.19334 0.0
O268 O 0.2165 0.52173 0.25156 0.0
O269 O 0.19405 0.56164 0.27848 0.0
O270 O 0.13877 0.51279 0.24598 0.0
O271 O 0.12771 0.56931 0.24234 0.0
C272 C 0.25436 0.7033 0.24324 0.0
C273 C 0.25713 0.70522 0.27928 0.0
H274 H 0.25575 0.69983 0.34966 0.0
H275 H 0.21835 0.65183 0.38393 0.0
H276 H 0.19951 0.6406 0.15279 0.0
H277 H 0.24234 0.69068 0.17503 0.0
H278 H 0.27063 0.72313 0.22717 0.0
H279 H 0.27546 0.72654 0.29029 0.0
Mn280 Mn 0.80706 0.6485 0.03291 0.0
Mn281 Mn 0.73484 0.66861 0.98475 0.0
C282 C 0.75438 0.60788 0.03023 0.0
C283 C 0.86062 0.62384 0.04194 0.0
C284 C 0.75395 0.69631 0.05501 0.0
O285 O 0.82965 0.69044 1.00104 0.0
O286 O 0.77871 0.70188 0.97298 0.0
C287 C 0.75896 0.65124 0.9175 0.0
N288 N 0.73357 0.64708 0.94175 0.0
C289 C 0.69132 0.61218 0.90493 0.0
C290 C 0.71699 0.61617 0.87949 0.0
C291 C 0.75109 0.63554 0.88594 0.0
C292 C 0.70105 0.62772 0.93618 0.0
H293 H 0.78489 0.66659 0.92215 0.0
C294 C 0.81246 0.70868 0.97915 0.0
O295 O 0.85238 0.6475 0.06139 0.0
O296 O 0.83878 0.61593 0.01598 0.0
N297 N 0.68974 0.63921 0.99225 0.0
C298 C 0.66811 0.63765 0.01954 0.0
C299 C 0.63319 0.6188 0.0175 0.0
C300 C 0.62047 0.60271 0.98706 0.0
C301 C 0.64294 0.60528 0.95902 0.0
C302 C 0.67769 0.62384 0.9628 0.0
H303 H 0.67752 0.65056 0.04274 0.0
O304 O 0.7771 0.60633 0.05603 0.0
O305 O 0.76291 0.63297 1.00637 0.0
O306 O 0.78293 0.68286 0.05979 0.0
O307 O 0.73331 0.69151 0.02836 0.0
C308 C 0.63211 0.59054 0.9273 0.0
C309 C 0.65643 0.59353 0.90047 0.0
H310 H 0.71084 0.60445 0.85497 0.0
H311 H 0.7711 0.63874 0.86649 0.0
H312 H 0.61597 0.61704 0.03921 0.0
H313 H 0.59339 0.58856 0.9855 0.0
H314 H 0.60521 0.57662 0.92329 0.0
H315 H 0.64795 0.58153 0.87646 0.0
Mn316 Mn 0.89604 0.0348 0.26772 0.0
Mn317 Mn 0.91807 0.95274 0.26212 0.0
C318 C 0.85717 0.99115 0.24107 0.0
C319 C 0.8701 0.07665 0.29509 0.0
C320 C 0.95016 0.01719 0.21764 0.0
O321 O 0.93548 0.03283 0.30509 0.0
O322 O 0.94633 0.97677 0.3004 0.0
C323 C 0.89022 0.91953 0.32847 0.0
N324 N 0.89068 0.91968 0.29352 0.0
C325 C 0.84834 0.86563 0.29304 0.0
C326 C 0.84766 0.86476 0.32904 0.0
C327 C 0.8686 0.8919 0.34681 0.0
C328 C 0.87041 0.89383 0.27615 0.0
H329 H 0.90614 0.94038 0.34227 0.0
C330 C 0.95137 1.00636 0.31508 0.0
O331 O 0.89509 0.08605 0.27309 0.0
O332 O 0.86094 0.04274 0.30219 0.0
N333 N 0.89174 0.92638 0.22662 0.0
C334 C 0.89347 0.9324 0.19182 0.0
C335 C 0.87326 0.90821 0.17024 0.0
C336 C 0.85155 0.87804 0.18462 0.0
C337 C 0.85021 0.87237 0.2205 0.0
C338 C 0.8711 0.89729 0.24072 0.0
H339 H 0.90992 0.95562 0.18059 0.0
O340 O 0.85513 0.02451 0.23332 0.0
O341 O 0.8822 0.98465 0.26335 0.0
O342 O 0.93251 0.03898 0.23003 0.0
O343 O 0.94715 0.98434 0.22799 0.0
C344 C 0.8286 0.84322 0.23699 0.0
C345 C 0.82749 0.83997 0.27322 0.0
H346 H 0.83092 0.84357 0.34327 0.0
H347 H 0.86804 0.89155 0.37458 0.0
H348 H 0.87428 0.9129 0.14256 0.0
H349 H 0.83579 0.8596 0.16789 0.0
H350 H 0.81235 0.82339 0.22205 0.0
H351 H 0.81023 0.81781 0.28557 0.0
Mn352 Mn 0.29949 0.14466 0.53782 0.0
Mn353 Mn 0.22505 0.16639 0.49464 0.0
C354 C 0.24597 0.10512 0.53776 0.0
C355 C 0.35193 0.11761 0.54279 0.0
C356 C 0.24992 0.1939 0.56386 0.0
O357 O 0.32071 0.18592 0.50444 0.0
O358 O 0.2685 0.19899 0.48011 0.0
C359 C 0.24297 0.14904 0.42516 0.0
N360 N 0.21988 0.14485 0.45147 0.0
C361 C 0.17442 0.11014 0.41758 0.0
C362 C 0.19772 0.11411 0.39009 0.0
C363 C 0.23228 0.1334 0.39402 0.0
C364 C 0.18692 0.12562 0.44826 0.0
H365 H 0.26919 0.16442 0.42785 0.0
C366 C 0.30263 0.2048 0.48399 0.0
O367 O 0.34697 0.14219 0.56277 0.0
O368 O 0.32769 0.11051 0.51859 0.0
N369 N 0.18045 0.13738 0.50528 0.0
C370 C 0.16143 0.13554 0.53442 0.0
C371 C 0.12657 0.11639 0.53506 0.0
C372 C 0.11124 0.10026 0.50544 0.0
C373 C 0.13103 0.10319 0.47552 0.0
C374 C 0.16593 0.12187 0.47668 0.0
H375 H 0.17287 0.14838 0.55704 0.0
O376 O 0.26988 0.10307 0.56247 0.0
O377 O 0.25366 0.13034 0.51392 0.0
O378 O 0.2788 0.18005 0.56658 0.0
O379 O 0.22742 0.18931 0.53856 0.0
C380 C 0.11736 0.08869 0.44445 0.0
C381 C 0.1392 0.09166 0.41567 0.0
H382 H 0.18938 0.10245 0.3659 0.0
H383 H 0.25047 0.13662 0.37296 0.0
H384 H 0.11143 0.11438 0.55822 0.0
H385 H 0.08423 0.08579 0.50592 0.0
H386 H 0.09017 0.07485 0.44249 0.0
H387 H 0.12859 0.07979 0.39215 0.0
Mn388 Mn 0.39863 0.54052 0.76604 0.0
Mn389 Mn 0.42743 0.46049 0.76903 0.0
C390 C 0.36187 0.49162 0.746 0.0
C391 C 0.3711 0.58403 0.78925 0.0
C392 C 0.45317 0.52113 0.71756 0.0
O393 O 0.43997 0.5457 0.80185 0.0
O394 O 0.4548 0.49015 0.80408 0.0
C395 C 0.40331 0.43211 0.83813 0.0
N396 N 0.40281 0.42902 0.80349 0.0
C397 C 0.36305 0.3733 0.8084 0.0
C398 C 0.36331 0.3758 0.84415 0.0
C399 C 0.38348 0.40537 0.85906 0.0
C400 C 0.38349 0.40068 0.78887 0.0
H401 H 0.41864 0.45485 0.8497 0.0
C402 C 0.45813 0.52178 0.81437 0.0
O403 O 0.39428 0.59172 0.76533 0.0
O404 O 0.36463 0.55087 0.80066 0.0
N405 N 0.40223 0.42923 0.73663 0.0
C406 C 0.40298 0.43198 0.70161 0.0
C407 C 0.3832 0.4051 0.68264 0.0
C408 C 0.36294 0.37567 0.69985 0.0
C409 C 0.36276 0.37331 0.73591 0.0
C410 C 0.38324 0.40076 0.75346 0.0
H411 H 0.41838 0.4546 0.68822 0.0
O412 O 0.35684 0.5235 0.73491 0.0
O413 O 0.38849 0.48949 0.76787 0.0
O414 O 0.43291 0.5423 0.72675 0.0
O415 O 0.45423 0.49029 0.7322 0.0
C416 C 0.34254 0.34514 0.7551 0.0
C417 C 0.34264 0.34516 0.79131 0.0
H418 H 0.34786 0.35535 0.86037 0.0
H419 H 0.38366 0.40757 0.88662 0.0
H420 H 0.38337 0.40718 0.65481 0.0
H421 H 0.34739 0.3552 0.68511 0.0
H422 H 0.32638 0.3236 0.74223 0.0
H423 H 0.32652 0.32365 0.80573 0.0
Mn424 Mn 0.76205 0.38511 0.52077 0.0
Mn425 Mn 0.76239 0.42334 0.44017 0.0
C426 C 0.73714 0.35247 0.47554 0.0
C427 C 0.78786 0.35415 0.56614 0.0
C428 C 0.71173 0.43752 0.49412 0.0
O429 O 0.80057 0.42837 0.52439 0.0
O430 O 0.80034 0.45074 0.46931 0.0
C431 C 0.83362 0.41174 0.41839 0.0
N432 N 0.79726 0.40646 0.41397 0.0
C433 C 0.80045 0.37435 0.36336 0.0
C434 C 0.83794 0.37964 0.36727 0.0
C435 C 0.85457 0.39833 0.39496 0.0
C436 C 0.78099 0.38862 0.38734 0.0
H437 H 0.84657 0.42617 0.43956 0.0
C438 C 0.8128 0.45105 0.50053 0.0
O439 O 0.76435 0.37461 0.57125 0.0
O440 O 0.79725 0.35247 0.53472 0.0
N441 N 0.72752 0.39857 0.40968 0.0
C442 C 0.6911 0.39539 0.40977 0.0
C443 C 0.67038 0.37638 0.38435 0.0
C444 C 0.68729 0.361 0.35904 0.0
C445 C 0.72481 0.36494 0.35927 0.0
C446 C 0.74407 0.38427 0.38517 0.0
H447 H 0.67793 0.407 0.42925 0.0
O448 O 0.72706 0.34332 0.50672 0.0
O449 O 0.76105 0.38077 0.47182 0.0
O450 O 0.72281 0.41663 0.51766 0.0
O451 O 0.72497 0.4423 0.46428 0.0
C452 C 0.74384 0.35014 0.33501 0.0
C453 C 0.78164 0.35497 0.33697 0.0
H454 H 0.85419 0.36912 0.3494 0.0
H455 H 0.88348 0.40237 0.39824 0.0
H456 H 0.64143 0.37345 0.38437 0.0
H457 H 0.67122 0.34613 0.33963 0.0
H458 H 0.72967 0.33491 0.3148 0.0
H459 H 0.79597 0.34337 0.31823 0.0
Mn460 Mn 0.67082 1.00402 0.78549 0.0
Mn461 Mn 0.65452 0.0891 0.78269 0.0
C462 C 0.71082 0.0498 0.7608 0.0
C463 C 0.69898 0.95686 0.81053 0.0
C464 C 0.6156 0.03454 0.73541 0.0
O465 O 0.63494 1.00235 0.82368 0.0
O466 O 0.62596 0.06001 0.81909 0.0
C467 C 0.68394 0.11118 0.85098 0.0
N468 N 0.68423 0.11552 0.81599 0.0
C469 C 0.72795 0.16846 0.8185 0.0
C470 C 0.72799 0.16461 0.85455 0.0
C471 C 0.70599 0.13575 0.87084 0.0
C472 C 0.70531 0.14321 0.80006 0.0
H473 H 0.66683 0.08928 0.86366 0.0
C474 C 0.62045 0.02828 0.83316 0.0
O475 O 0.67164 0.95128 0.78911 0.0
O476 O 0.70806 0.98929 0.8193 0.0
N477 N 0.68149 0.11972 0.74896 0.0
C478 C 0.67932 0.11893 0.71401 0.0
C479 C 0.7006 0.14528 0.69386 0.0
C480 C 0.7239 0.17214 0.70983 0.0
C481 C 0.72592 0.17225 0.74584 0.0
C482 C 0.70403 0.14531 0.76458 0.0
H483 H 0.6619 0.09805 0.70162 0.0
O484 O 0.7093 0.01764 0.75121 0.0
O485 O 0.68787 0.05442 0.78326 0.0
O486 O 0.63096 1.00836 0.74752 0.0
O487 O 0.6228 0.06541 0.74696 0.0
C488 C 0.74897 0.19787 0.76387 0.0
C489 C 0.74978 0.19612 0.80016 0.0
H490 H 0.74509 0.18341 0.86996 0.0
H491 H 0.70598 0.13252 0.89865 0.0
H492 H 0.69915 0.14479 0.66609 0.0
H493 H 0.7403 0.1924 0.6942 0.0
H494 H 0.76624 0.219 0.75008 0.0
H495 H 0.76741 0.2161 0.81373 0.0
Mn496 Mn 0.03672 0.27838 0.89582 0.0
Mn497 Mn 0.9523 0.26266 0.92432 0.0
C498 C 0.99191 0.24435 0.86513 0.0
C499 C 0.08206 0.30976 0.86222 0.0
C500 C 1.01247 0.22561 0.95575 0.0
O501 O 0.03652 0.31738 0.9296 0.0
O502 O 0.97862 0.30623 0.94465 0.0
C503 C 0.92262 0.32549 0.8928 0.0
N504 N 0.92179 0.28954 0.89631 0.0
C505 C 0.86914 0.27998 0.85895 0.0
C506 C 0.86924 0.31688 0.85524 0.0
C507 C 0.89616 0.33972 0.87216 0.0
C508 C 0.89591 0.26732 0.88023 0.0
H509 H 0.94326 0.34316 0.9057 0.0
C510 C 1.01002 0.32474 0.94582 0.0
O511 O 0.08926 0.29 0.88933 0.0
O512 O 0.04877 0.31383 0.85644 0.0
N513 N 0.92448 0.22162 0.9056 0.0
C514 C 0.92848 0.18672 0.91145 0.0
C515 C 0.9045 0.1605 0.89537 0.0
C516 C 0.8766 0.17039 0.87358 0.0
C517 C 0.87283 0.20643 0.86815 0.0
C518 C 0.89748 0.23138 0.88496 0.0
H519 H 0.94994 0.17892 0.92806 0.0
O520 O 0.02519 0.24077 0.86196 0.0
O521 O 0.98591 0.2672 0.88668 0.0
O522 O 0.03633 0.24019 0.93516 0.0
O523 O 0.98054 0.23272 0.95476 0.0
C524 C 0.84588 0.21859 0.84638 0.0
C525 C 0.84392 0.25533 0.8419 0.0
H526 H 0.84909 0.32799 0.83908 0.0
H527 H 0.89658 0.36824 0.8692 0.0
H528 H 0.9076 0.13274 0.89964 0.0
H529 H 0.85838 0.15009 0.86106 0.0
H530 H 0.82666 0.19992 0.83283 0.0
H531 H 0.82316 0.26438 0.82499 0.0
Mn532 Mn 0.54006 0.7812 0.3933 0.0
Mn533 Mn 0.4557 0.76831 0.4215 0.0
C534 C 0.49431 0.74843 0.36266 0.0
C535 C 0.58595 0.81008 0.35896 0.0
C536 C 0.51389 0.72869 0.45344 0.0
O537 O 0.54148 0.82133 0.42596 0.0
O538 O 0.48422 0.80998 0.44333 0.0
C539 C 0.42957 0.83388 0.39215 0.0
N540 N 0.42684 0.79773 0.39451 0.0
C541 C 0.37376 0.79193 0.35747 0.0
C542 C 0.37591 0.8291 0.35481 0.0
C543 C 0.40399 0.85015 0.37215 0.0
C544 C 0.39981 0.77722 0.37805 0.0
H545 H 0.45101 0.85017 0.40553 0.0
C546 C 0.51582 0.82812 0.44367 0.0
O547 O 0.59256 0.79031 0.38627 0.0
O548 O 0.55307 0.8156 0.35337 0.0
N549 N 0.42593 0.72914 0.4016 0.0
C550 C 0.42849 0.69379 0.40583 0.0
C551 C 0.40322 0.66916 0.38917 0.0
C552 C 0.3757 0.68114 0.3683 0.0
C553 C 0.37364 0.71763 0.36423 0.0
C554 C 0.39948 0.74093 0.38163 0.0
H555 H 0.44996 0.68447 0.42133 0.0
O556 O 0.52715 0.74302 0.36031 0.0
O557 O 0.48908 0.77197 0.38383 0.0
O558 O 0.53865 0.74391 0.43399 0.0
O559 O 0.48205 0.73601 0.45082 0.0
C560 C 0.34727 0.73182 0.34325 0.0
C561 C 0.34721 0.76894 0.33999 0.0
H562 H 0.35641 0.84178 0.33921 0.0
H563 H 0.40592 0.87886 0.37008 0.0
H564 H 0.40512 0.64104 0.39219 0.0
H565 H 0.35651 0.66208 0.35536 0.0
H566 H 0.32705 0.7144 0.32939 0.0
H567 H 0.32688 0.77956 0.32366 0.0
Mn568 Mn 0.04282 0.75697 0.65501 0.0
Mn569 Mn 0.99348 0.68443 0.69262 0.0
C570 C 0.0357 0.70315 0.62879 0.0
C571 C 0.05081 0.80971 0.62038 0.0
C572 C 0.06769 0.7154 0.71886 0.0
O573 O 1.01298 0.77767 0.68918 0.0
O574 O 0.977 0.72783 0.70784 0.0
C575 C 0.92227 0.69014 0.65965 0.0
N576 N 0.94996 0.67135 0.66657 0.0
C577 C 0.9194 0.6218 0.63643 0.0
C578 C 0.89047 0.64054 0.62912 0.0
C579 C 0.89198 0.6749 0.64069 0.0
C580 C 0.94888 0.63836 0.65539 0.0
H581 H 0.92332 0.71654 0.66853 0.0
C582 C 0.98649 0.76171 0.70643 0.0
O583 O 0.07293 0.80342 0.64555 0.0
O584 O 0.02289 0.7857 0.61563 0.0
N585 N 1.00662 0.64076 0.67949 0.0
C586 C 0.03753 0.62706 0.68712 0.0
C587 C 0.04085 0.59328 0.67641 0.0
C588 C 1.01232 0.57386 0.65819 0.0
C589 C 0.98065 0.58837 0.65094 0.0
C590 C 0.97885 0.62211 0.66234 0.0
H591 H 0.05954 0.64183 0.70114 0.0
O592 O 0.06263 0.7277 0.62163 0.0
O593 O 1.01382 0.71092 0.651 0.0
O594 O 0.07383 0.73843 0.69394 0.0
O595 O 0.03786 0.69481 0.72199 0.0
C596 C 0.95096 0.57084 0.63252 0.0
C597 C 0.92037 0.58757 0.62523 0.0
H598 H 0.86709 0.62892 0.61445 0.0
H599 H 0.86982 0.68959 0.63503 0.0
H600 H 0.0654 0.58228 0.68208 0.0
H601 H 1.01508 0.54793 0.64975 0.0
H602 H 0.95155 0.54471 0.6234 0.0
H603 H 0.89793 0.57405 0.61058 0.0
Mn604 Mn 0.54147 0.26873 0.15374 0.0
Mn605 Mn 0.49172 0.19683 0.19221 0.0
C606 C 0.53256 0.21494 0.12756 0.0
C607 C 0.54891 0.32161 0.11935 0.0
C608 C 0.56709 0.22617 0.21682 0.0
O609 O 0.51372 0.2901 0.18888 0.0
O610 O 0.47818 0.24088 0.20961 0.0
C611 C 0.41989 0.20616 0.16277 0.0
N612 N 0.44688 0.18616 0.16757 0.0
C613 C 0.41341 0.13894 0.13623 0.0
C614 C 0.38514 0.15893 0.13116 0.0
C615 C 0.38846 0.19273 0.1444 0.0
C616 C 0.44403 0.15366 0.15483 0.0
H617 H 0.42235 0.23216 0.17288 0.0
C618 C 0.48845 0.27467 0.20787 0.0
O619 O 0.572 0.31486 0.1435 0.0
O620 O 0.52075 0.29774 0.11518 0.0
N621 N 0.50198 0.15267 0.17737 0.0
C622 C 0.53194 0.13707 0.18398 0.0
C623 C 0.53322 0.10336 0.17197 0.0
C624 C 0.50366 0.08597 0.15346 0.0
C625 C 0.47298 0.10238 0.14729 0.0
C626 C 0.47315 0.13587 0.16013 0.0
H627 H 0.55476 0.15033 0.19813 0.0
O628 O 0.55964 0.23907 0.11976 0.0
O629 O 0.51146 0.22314 0.1503 0.0
O630 O 0.57275 0.24968 0.19218 0.0
O631 O 0.53759 0.20494 0.2197 0.0
C632 C 0.44238 0.08697 0.12865 0.0
C633 C 0.41264 0.10526 0.12307 0.0
H634 H 0.36093 0.14875 0.11686 0.0
H635 H 0.36685 0.2084 0.14041 0.0
H636 H 0.55699 0.09087 0.17683 0.0
H637 H 0.50486 0.06011 0.14398 0.0
H638 H 0.44154 0.06118 0.11826 0.0
H639 H 0.3894 0.09328 0.10841 0.0
C640 C 0.25133 0.79319 0.90662 0.0
C641 C 0.21628 0.77521 0.90107 0.0
C642 C 0.25859 0.82026 0.92957 0.0
C643 C 0.23105 0.83115 0.94733 0.0
H644 H 0.27349 0.78645 0.89298 0.0
H645 H 0.28609 0.83272 0.93353 0.0
S646 S 0.13506 0.79229 0.94349 0.0
N647 N 0.15385 0.76966 0.91648 0.0
N648 N 0.16773 0.82127 0.95929 0.0
C649 C 0.19601 0.81334 0.94257 0.0
C650 C 0.1885 0.78551 0.91921 0.0
C651 C 0.07535 0.5738 0.40012 0.0
C652 C 0.05273 0.54317 0.41197 0.0
C653 C 0.09988 0.57239 0.37462 0.0
C654 C 0.10339 0.54017 0.36003 0.0
H655 H 0.07292 0.59943 0.40952 0.0
H656 H 0.11552 0.59727 0.36566 0.0
S657 S 0.05317 0.45146 0.3856 0.0
N658 N 0.03725 0.47903 0.40981 0.0
N659 N 0.08394 0.47619 0.36193 0.0
C660 C 0.08256 0.50883 0.37338 0.0
C661 C 0.05717 0.51037 0.39936 0.0
C662 C 0.82861 0.79948 0.93467 0.0
C663 C 0.8392 0.79222 0.90194 0.0
C664 C 0.82417 0.77292 0.96162 0.0
C665 C 0.83114 0.73831 0.95734 0.0
H666 H 0.82199 0.82545 0.93908 0.0
H667 H 0.81283 0.77883 0.98524 0.0
S668 S 0.8625 0.70563 0.87846 0.0
N669 N 0.85812 0.74749 0.86775 0.0
N670 N 0.85199 0.69873 0.91929 0.0
C671 C 0.8446 0.73138 0.92594 0.0
C672 C 0.84815 0.75802 0.89805 0.0
C673 C 1.00146 0.9749 0.39526 0.0
C674 C 1.01001 1.00562 0.41373 0.0
C675 C 0.98422 0.97601 0.36277 0.0
C676 C 0.97389 1.00778 0.34752 0.0
H677 H 1.00759 0.94953 0.4063 0.0
H678 H 0.97785 0.95124 0.35017 0.0
S679 S 0.99067 0.09598 0.38537 0.0
N680 N 1.00762 0.06897 0.41444 0.0
N681 N 0.97463 0.07116 0.35344 0.0
C682 C 0.98278 0.03893 0.36558 0.0
C683 C 1.00076 0.03779 0.39868 0.0
C684 C 0.19622 0.24519 0.61748 0.0
C685 C 0.22248 0.26522 0.63774 0.0
C686 C 0.20544 0.2216 0.59454 0.0
C687 C 0.24136 0.21685 0.59088 0.0
H688 H 0.16831 0.24843 0.61867 0.0
H689 H 0.18409 0.20744 0.5791 0.0
S690 S 0.32035 0.26323 0.63832 0.0
N691 N 0.2859 0.27903 0.65289 0.0
N692 N 0.30338 0.23417 0.6101 0.0
C693 C 0.26789 0.23614 0.61167 0.0
C694 C 0.25843 0.26051 0.63489 0.0
C695 C 0.4804 0.56007 0.62893 0.0
C696 C 0.51681 0.55592 0.6281 0.0
C697 C 0.46023 0.54897 0.65808 0.0
C698 C 0.47534 0.53251 0.68735 0.0
H699 H 0.4671 0.57164 0.6067 0.0
H700 H 0.43234 0.55274 0.65745 0.0
S701 S 0.56961 0.51684 0.69972 0.0
N702 N 0.56753 0.53586 0.66044 0.0
N703 N 0.52884 0.51337 0.7145 0.0
C704 C 0.5115 0.52794 0.68706 0.0
C705 C 0.5324 0.53999 0.65763 0.0
C706 C 0.81287 0.32201 0.65658 0.0
C707 C 0.82015 0.28744 0.65246 0.0
C708 C 0.80354 0.34386 0.62832 0.0
C709 C 0.80136 0.33202 0.59483 0.0
H710 H 0.81346 0.33193 0.68204 0.0
H711 H 0.79742 0.37002 0.63281 0.0
S712 S 0.81606 0.24321 0.57003 0.0
N713 N 0.82293 0.24181 0.61222 0.0
N714 N 0.80661 0.28346 0.55893 0.0
C715 C 0.809 0.29773 0.59014 0.0
C716 C 0.81787 0.27518 0.61902 0.0
C717 C 0.54919 0.99063 0.66803 0.0
C718 C 0.53869 0.01978 0.6478 0.0
C719 C 0.57375 0.99547 0.69623 0.0
C720 C 0.5887 0.02972 0.70587 0.0
H721 H 0.53844 0.96366 0.66197 0.0
H722 H 0.58102 0.9721 0.71058 0.0
S723 S 0.5705 0.11518 0.66124 0.0
N724 N 0.54615 0.08421 0.6391 0.0
N725 N 0.59051 0.09351 0.69266 0.0
C726 C 0.57783 0.05914 0.68622 0.0
C727 C 0.55333 0.05415 0.6572 0.0
C728 C 0.93394 0.18687 0.80216 0.0
C729 C 0.9155 0.2117 0.783 0.0
C730 C 0.95874 0.1974 0.82885 0.0
C731 C 0.96559 0.23299 0.83758 0.0
H732 H 0.92936 0.15909 0.79645 0.0
H733 H 0.97225 0.17754 0.84306 0.0
S734 S 0.92871 0.30937 0.79329 0.0
N735 N 0.90775 0.27427 0.77435 0.0
N736 N 0.95609 0.29375 0.82265 0.0
C737 C 0.9489 0.25831 0.81781 0.0
C738 C 0.92333 0.24774 0.79109 0.0
C739 C 0.54221 0.92315 0.47002 0.0
C740 C 0.52689 0.92238 0.50245 0.0
C741 C 0.53982 0.8923 0.45163 0.0
C742 C 0.52181 0.85949 0.46492 0.0
H743 H 0.55591 0.94797 0.45859 0.0
H744 H 0.55116 0.8944 0.42638 0.0
S745 S 0.48131 0.84163 0.55051 0.0
N746 N 0.49665 0.88468 0.54864 0.0
N747 N 0.49095 0.82727 0.51351 0.0
C748 C 0.50755 0.85797 0.4978 0.0
C749 C 0.51055 0.88918 0.51679 0.0
C750 C 0.17297 0.3315 0.8218 0.0
C751 C 0.16406 0.33337 0.78635 0.0
C752 C 0.14626 0.3254 0.84634 0.0
C753 C 0.10968 0.3218 0.83634 0.0
H754 H 0.2008 0.33363 0.83058 0.0
H755 H 0.15431 0.32274 0.87332 0.0
S756 S 0.0726 0.32696 0.74651 0.0
N757 N 0.11647 0.33264 0.74238 0.0
N758 N 0.06614 0.32199 0.78832 0.0
C759 C 0.10053 0.32511 0.80092 0.0
C760 C 0.12776 0.33061 0.77597 0.0
C761 C 0.56597 0.66565 0.50818 0.0
C762 C 0.53888 0.64165 0.52451 0.0
C763 C 0.55773 0.69409 0.48594 0.0
C764 C 0.52203 0.69989 0.47917 0.0
H765 H 0.59383 0.66231 0.51242 0.0
H766 H 0.57962 0.71144 0.47371 0.0
S767 S 0.44103 0.64436 0.51553 0.0
N768 N 0.47482 0.62517 0.53199 0.0
N769 N 0.4593 0.67916 0.49148 0.0
C770 C 0.4947 0.67647 0.49605 0.0
C771 C 0.50312 0.64728 0.51836 0.0
C772 C 0.91385 0.78315 0.76271 0.0
C773 C 0.91035 0.81835 0.75164 0.0
C774 C 0.93973 0.76573 0.74914 0.0
C775 C 0.9635 0.78291 0.72416 0.0
H776 H 0.89538 0.76844 0.78092 0.0
H777 H 0.94029 0.73812 0.75759 0.0
S778 S 0.96816 0.87696 0.69007 0.0
N779 N 0.93487 0.87113 0.71696 0.0
N780 N 0.98366 0.83859 0.69138 0.0
C781 C 0.96183 0.81903 0.71469 0.0
C782 C 0.93528 0.83671 0.72849 0.0
C783 C 0.03988 0.89316 0.56391 0.0
C784 C 0.0755 0.90663 0.55526 0.0
C785 C 0.03168 0.8613 0.58439 0.0
C786 C 0.05887 0.84215 0.59732 0.0
H787 H 1.01822 0.90753 0.5551 0.0
H788 H 1.00406 0.85208 0.59081 0.0
S789 S 0.15566 0.86349 0.57935 0.0
N790 N 0.13755 0.89609 0.55882 0.0
N791 N 0.12232 0.83742 0.59838 0.0
C792 C 0.09439 0.85491 0.58845 0.0
C793 C 0.10266 0.88685 0.56719 0.0
C794 C 0.115 0.7094 0.80695 0.0
C795 C 0.15143 0.717 0.79894 0.0
C796 C 0.08793 0.70747 0.78084 0.0
C797 C 0.09642 0.71382 0.74591 0.0
H798 H 0.10743 0.70476 0.83355 0.0
H799 H 0.06019 0.702 0.7881 0.0
S800 S 0.18794 0.73441 0.71168 0.0
N801 N 0.19462 0.73034 0.75384 0.0
N802 N 0.14404 0.72734 0.70487 0.0
C803 C 0.13284 0.72125 0.73771 0.0
C804 C 0.16026 0.72269 0.76419 0.0
C805 C 0.98397 0.63952 0.56703 0.0
C806 C 1.00803 0.61569 0.56157 0.0
C807 C 0.9931 0.66747 0.58902 0.0
C808 C 0.02658 0.67272 0.60663 0.0
H809 H 0.95782 0.63672 0.55407 0.0
H810 H 0.97379 0.68522 0.5922 0.0
S811 S 0.09966 0.61885 0.6013 0.0
N812 N 0.06713 0.59965 0.57604 0.0
N813 N 0.08448 0.65305 0.6163 0.0
C814 C 0.05132 0.64998 0.60078 0.0
C815 C 0.04195 0.62118 0.57868 0.0
C816 C 0.7824 0.91629 0.26016 0.0
C817 C 0.76776 0.90783 0.22741 0.0
C818 C 0.81079 0.94392 0.264 0.0
C819 C 0.82598 0.96388 0.23527 0.0
H820 H 0.77269 0.90067 0.28304 0.0
H821 H 0.82154 0.94915 0.28972 0.0
S822 S 0.79534 0.95531 0.14431 0.0
N823 N 0.76879 0.92363 0.16582 0.0
N824 N 0.82268 0.9759 0.17336 0.0
C825 C 0.81068 0.95714 0.20252 0.0
C826 C 0.78165 0.92877 0.19849 0.0
C827 C 0.79406 0.11941 0.32654 0.0
C828 C 0.80867 0.15575 0.32589 0.0
C829 C 0.81481 0.09364 0.31845 0.0
C830 C 0.85056 0.10337 0.3086 0.0
H831 H 0.76623 0.1108 0.33245 0.0
H832 H 0.80219 0.06612 0.31835 0.0
S833 S 0.90157 0.19478 0.30402 0.0
N834 N 0.86131 0.19988 0.31579 0.0
N835 N 0.90006 0.15167 0.30017 0.0
C836 C 0.86565 0.13946 0.30863 0.0
C837 C 0.84471 0.16556 0.31724 0.0
C838 C 0.4012 1.01122 0.03155 0.0
C839 C 0.41566 0.03405 1.00415 0.0
C840 C 0.36908 0.98767 0.02703 0.0
C841 C 0.35008 0.9862 0.99496 0.0
H842 H 0.41559 1.01047 0.05621 0.0
H843 H 0.35974 0.96976 0.04863 0.0
S844 S 0.37501 0.04433 0.91638 0.0
N845 N 0.40735 0.05633 0.94499 0.0
N846 N 0.34714 0.0126 0.93622 0.0
C847 C 0.36352 1.01051 0.96793 0.0
C848 C 0.39623 0.03425 0.97259 0.0
C849 C 0.28791 0.4257 0.34297 0.0
C850 C 0.27673 0.38893 0.34117 0.0
C851 C 0.26366 0.45017 0.33663 0.0
C852 C 0.22734 0.43895 0.32743 0.0
H853 H 0.31582 0.43567 0.34866 0.0
H854 H 0.27394 0.47827 0.33741 0.0
S855 S 0.18444 0.34515 0.32071 0.0
N856 N 0.22678 0.34218 0.33128 0.0
N857 N 0.18131 0.38807 0.31837 0.0
C858 C 0.21568 0.40207 0.32646 0.0
C859 C 0.24032 0.37712 0.33357 0.0
C860 C 0.16326 0.03693 0.5549 0.0
C861 C 0.1572 0.0206 0.52337 0.0
C862 C 0.19264 0.06379 0.55991 0.0
C863 C 0.21631 0.07561 0.53328 0.0
H864 H 0.14457 0.02971 0.5754 0.0
H865 H 0.19603 0.07638 0.58419 0.0
S866 S 0.21661 0.03651 0.44883 0.0
N867 N 0.18051 0.01465 0.46722 0.0
N868 N 0.23518 0.06537 0.47655 0.0
C869 C 0.21188 0.05798 0.50258 0.0
C870 C 0.18234 0.03053 0.49758 0.0
C871 C 0.78665 0.111 0.71765 0.0
C872 C 0.80488 0.12872 0.74554 0.0
C873 C 0.75655 0.0849 0.7226 0.0
C874 C 0.7436 0.07556 0.75559 0.0
H875 H 0.79522 0.11781 0.69158 0.0
H876 H 0.74267 0.07283 0.70042 0.0
S877 S 0.78557 0.10663 0.838 0.0
N878 N 0.80947 0.13089 0.80808 0.0
N879 N 0.75469 0.08009 0.81702 0.0
C880 C 0.76319 0.0903 0.78391 0.0
C881 C 0.79338 0.11733 0.779 0.0
C882 C 0.44167 0.08935 0.57372 0.0
C883 C 0.43723 0.05288 0.56711 0.0
C884 C 0.4143 0.11027 0.5655 0.0
C885 C 0.38154 0.09587 0.54967 0.0
H886 H 0.46662 0.10198 0.58518 0.0
H887 H 0.41894 0.13801 0.57141 0.0
S888 S 0.3545 1.00142 0.52973 0.0
N889 N 0.39564 1.00293 0.5463 0.0
N890 N 0.34547 0.0425 0.52937 0.0
C891 C 0.37662 0.05956 0.54302 0.0
C892 C 0.40407 0.03807 0.55206 0.0
C893 C 0.63837 0.49623 0.48101 0.0
C894 C 0.62233 0.49271 0.51316 0.0
C895 C 0.6673 0.4785 0.47521 0.0
C896 C 0.68151 0.45668 0.50141 0.0
H897 H 0.62836 0.51264 0.46009 0.0
H898 H 0.67841 0.48186 0.44985 0.0
S899 S 0.64936 0.44025 0.59085 0.0
N900 N 0.62288 0.46691 0.57174 0.0
N901 N 0.6773 0.43363 0.56136 0.0
C902 C 0.66583 0.45349 0.53395 0.0
C903 C 0.63632 0.47152 0.53969 0.0
C904 C 0.68968 0.28358 0.4166 0.0
C905 C 0.71838 0.27159 0.40117 0.0
C906 C 0.69577 0.31002 0.44052 0.0
C907 C 0.7307 0.32588 0.44934 0.0
H908 H 0.66228 0.2721 0.41055 0.0
H909 H 0.67303 0.31831 0.45199 0.0
S910 S 0.81523 0.30235 0.41923 0.0
N911 N 0.78335 0.27752 0.39766 0.0
N912 N 0.79436 0.3256 0.44385 0.0
C913 C 0.7596 0.3136 0.43505 0.0
C914 C 0.75355 0.28698 0.41055 0.0
C915 C 0.5998 0.01383 0.92754 0.0
C916 C 0.56847 0.02941 0.92938 0.0
C917 C 0.61512 1.01094 0.89582 0.0
C918 C 0.59965 0.02358 0.86482 0.0
H919 H 0.61312 1.00465 0.95091 0.0
H920 H 0.64027 1.00053 0.89576 0.0
S921 S 0.51465 0.06123 0.85475 0.0
N922 N 0.5199 0.05302 0.8967 0.0
N923 N 0.54965 0.04907 0.83741 0.0
C924 C 0.56732 0.03732 0.86606 0.0
C925 C 0.55135 0.03967 0.89823 0.0
C926 C 0.32033 0.29529 0.43826 0.0
C927 C 0.32911 0.28733 0.40512 0.0
C928 C 0.31558 0.26887 0.46536 0.0
C929 C 0.32059 0.23369 0.46083 0.0
H930 H 0.31571 0.32186 0.44307 0.0
H931 H 0.3059 0.27555 0.48949 0.0
S932 S 0.34559 0.19855 0.38056 0.0
N933 N 0.3431 0.24085 0.37004 0.0
N934 N 0.33697 0.19248 0.42187 0.0
C935 C 0.33183 0.22579 0.42883 0.0
C936 C 0.33546 0.25226 0.40079 0.0
C937 C 0.48177 0.5347 0.90794 0.0
C938 C 0.51616 0.52467 0.91174 0.0
C939 C 0.46415 0.53657 0.87556 0.0
C940 C 0.48032 0.52839 0.84593 0.0
H941 H 0.46793 0.54009 0.93032 0.0
H942 H 0.43691 0.54244 0.874 0.0
S943 S 0.57222 0.50685 0.8409 0.0
N944 N 0.56774 0.51177 0.88221 0.0
N945 N 0.53375 0.51354 0.8216 0.0
C946 C 0.51543 0.52049 0.84898 0.0
C947 C 0.53369 0.51929 0.88181 0.0
C948 C 0.69576 0.74593 0.10559 0.0
C949 C 0.72051 0.76633 0.12704 0.0
C950 C 0.70685 0.72286 0.08315 0.0
C951 C 0.74323 0.71904 0.08119 0.0
H952 H 0.66756 0.74842 0.10553 0.0
H953 H 0.68662 0.7083 0.06683 0.0
S954 S 0.81896 0.76743 0.13138 0.0
N955 N 0.78317 0.78205 0.14446 0.0
N956 N 0.80412 0.73808 0.10276 0.0
C957 C 0.7683 0.73896 0.1029 0.0
C958 C 0.75695 0.76283 0.12555 0.0
C959 C 1.00295 0.01802 0.13659 0.0
C960 C 1.01525 0.05444 0.12927 0.0
C961 C 0.98288 1.00616 0.16569 0.0
C962 C 0.97387 0.03026 0.18852 0.0
H963 H 1.00823 0.99847 0.11931 0.0
H964 H 0.97366 0.9779 0.16977 0.0
S965 S 1.00274 0.12816 0.18294 0.0
N966 N 0.01953 0.11425 0.14881 0.0
N967 N 0.98105 0.09221 0.20298 0.0
C968 C 0.98679 0.06672 0.18197 0.0
C969 C 1.00756 0.07873 0.15249 0.0
C970 C 0.32387 0.82987 0.14958 0.0
C971 C 0.3292 0.79469 0.1453 0.0
C972 C 0.3154 0.85236 0.12145 0.0
C973 C 0.31214 0.8406 0.08791 0.0
H974 H 0.32495 0.83971 0.1751 0.0
H975 H 0.31043 0.87887 0.12615 0.0
S976 S 0.32266 0.75069 0.06265 0.0
N977 N 0.32978 0.74889 0.10482 0.0
N978 N 0.31499 0.7916 0.05176 0.0
C979 C 0.31832 0.80582 0.08301 0.0
C980 C 0.32636 0.78267 0.11178 0.0
C981 C 0.03853 0.53438 0.1741 0.0
C982 C 0.04942 0.52226 0.14338 0.0
C983 C 0.06194 0.5387 0.20315 0.0
C984 C 0.09688 0.53019 0.203 0.0
H985 H 1.01158 0.54039 0.17589 0.0
H986 H 0.05259 0.5486 0.22599 0.0
S987 S 0.14023 0.50082 0.12881 0.0
N988 N 0.09923 0.50485 0.11422 0.0
N989 N 0.1421 0.51108 0.1694 0.0
C990 C 0.10828 0.51823 0.17268 0.0
C991 C 0.08486 0.51469 0.14279 0.0
C992 C 0.43782 0.69242 0.29764 0.0
C993 C 0.41969 0.7175 0.2785 0.0
C994 C 0.46176 0.70242 0.32512 0.0
C995 C 0.46814 0.73774 0.3347 0.0
H996 H 0.43373 0.66484 0.29129 0.0
H997 H 0.47511 0.68235 0.33918 0.0
S998 S 0.43184 0.81471 0.29082 0.0
N999 N 0.41167 0.78 0.27075 0.0
N1000 N 0.45855 0.79865 0.32057 0.0
C1001 C 0.45171 0.76336 0.31501 0.0
C1002 C 0.42695 0.75327 0.28746 0.0
C1003 C 0.98715 0.40254 0.99297 0.0
C1004 C 0.02079 0.4214 1.00205 0.0
C1005 C 0.98413 0.37105 0.97562 0.0
C1006 C 1.01465 0.3573 0.96593 0.0
H1007 H 0.96289 0.4125 0.9989 0.0
H1008 H 0.95744 0.3579 0.96909 0.0
S1009 S 0.10922 0.39679 0.98389 0.0
N1010 N 0.08541 0.42409 1.00033 0.0
N1011 N 0.07984 0.36513 0.96753 0.0
C1012 C 0.04855 0.37591 0.97504 0.0
C1013 C 0.05158 0.40789 0.993 0.0
C1014 C 0.66467 0.80565 0.30323 0.0
C1015 C 0.66123 0.83202 0.27682 0.0
C1016 C 0.64124 0.80006 0.33065 0.0
C1017 C 0.61313 0.82027 0.33236 0.0
H1018 H 0.68584 0.78943 0.30281 0.0
H1019 H 0.64456 0.77897 0.35009 0.0
S1020 S 0.5935 0.89325 0.26971 0.0
N1021 N 0.62866 0.87934 0.25438 0.0
N1022 N 0.5838 0.86823 0.30537 0.0
C1023 C 0.60967 0.84697 0.30616 0.0
C1024 C 0.63394 0.85302 0.27854 0.0
C1025 C 0.03008 0.168 0.03618 0.0
C1026 C 0.03669 0.13632 0.02254 0.0
C1027 C 0.02195 0.197 1.01455 0.0
C1028 C 0.0208 0.19542 0.97863 0.0
H1029 H 0.03168 0.1706 0.06374 0.0
H1030 H 1.01712 0.22094 0.02592 0.0
S1031 S 0.03198 0.11799 0.92986 0.0
N1032 N 0.03795 0.10443 0.97059 0.0
N1033 N 0.02448 0.15954 0.93025 0.0
C1034 C 0.02666 0.16395 0.96465 0.0
C1035 C 0.03419 0.13425 0.98652 0.0
C1036 C 0.43224 0.3001 0.27842 0.0
C1037 C 0.43133 0.33656 0.27068 0.0
C1038 C 0.45075 0.28049 0.25802 0.0
C1039 C 0.46963 0.29661 0.22922 0.0
H1040 H 0.4183 0.28657 0.30041 0.0
H1041 H 0.4504 0.25244 0.26511 0.0
S1042 S 0.47587 0.39169 0.19806 0.0
N1043 N 0.45103 0.38822 0.23231 0.0
N1044 N 0.48612 0.35156 0.19409 0.0
C1045 C 0.46928 0.33325 0.22141 0.0
C1046 C 0.45011 0.35316 0.24209 0.0
C1047 C 0.59985 0.39831 0.06662 0.0
C1048 C 0.57328 0.41889 0.05474 0.0
C1049 C 0.59147 0.36702 0.08749 0.0
C1050 C 0.55607 0.35445 0.09677 0.0
H1051 H 0.6274 0.40607 0.05932 0.0
H1052 H 0.61291 0.35218 0.09596 0.0
S1053 S 0.47674 0.39901 0.07486 0.0
N1054 N 0.51012 0.42528 0.05599 0.0
N1055 N 0.49434 0.3653 0.09396 0.0
C1056 C 0.52912 0.37448 0.08529 0.0
C1057 C 0.53772 0.40694 0.06457 0.0
C1058 C 0.62519 0.19154 0.29027 0.0
C1059 C 0.65046 0.22166 0.29702 0.0
C1060 C 0.59815 0.19312 0.26446 0.0
C1061 C 0.59586 0.2247 0.244 0.0
H1062 H 0.62607 0.1667 0.30537 0.0
H1063 H 0.57913 0.16934 0.26033 0.0
S1064 S 0.65625 0.31088 0.25138 0.0
N1065 N 0.67188 0.28374 0.28114 0.0
N1066 N 0.62145 0.28698 0.23273 0.0
C1067 C 0.62129 0.25495 0.25048 0.0
C1068 C 0.64846 0.25336 0.27695 0.0
C1069 C 0.53711 0.13243 0.07901 0.0
C1070 C 0.50439 0.12821 0.05972 0.0
C1071 C 0.5461 0.16044 0.10109 0.0
C1072 C 0.52234 0.18469 0.10539 0.0
H1073 H 0.55591 0.11389 0.0771 0.0
H1074 H 0.5716 0.16284 0.11526 0.0
S1075 S 0.43625 0.18922 0.05709 0.0
N1076 N 0.45018 0.1536 0.04373 0.0
N1077 N 0.46683 0.20539 0.0858 0.0
C1078 C 0.49018 0.18155 0.0856 0.0
C1079 C 0.48116 0.15341 0.06282 0.0
C1080 C 0.29144 0.41414 0.77115 0.0
C1081 C 0.27635 0.40304 0.73932 0.0
C1082 C 0.31895 0.44306 0.77283 0.0
C1083 C 0.3327 0.46165 0.74278 0.0
H1084 H 0.2825 0.3999 0.79498 0.0
H1085 H 0.32988 0.45068 0.79789 0.0
S1086 S 0.30023 0.44602 0.65334 0.0
N1087 N 0.27536 0.41491 0.67709 0.0
N1088 N 0.32757 0.46931 0.68056 0.0
C1089 C 0.31701 0.45203 0.71089 0.0
C1090 C 0.28893 0.42247 0.70907 0.0
C1091 C 0.30809 0.62859 0.83976 0.0
C1092 C 0.3118 0.6634 0.82427 0.0
C1093 C 0.32744 0.60309 0.82842 0.0
C1094 C 0.35174 0.61164 0.80166 0.0
H1095 H 0.29016 0.62095 0.8608 0.0
H1096 H 0.32335 0.57653 0.84083 0.0
S1097 S 0.3731 0.70008 0.75452 0.0
N1098 N 0.34287 0.70562 0.78215 0.0
N1099 N 0.37928 0.65812 0.76091 0.0
C1100 C 0.3563 0.64669 0.7866 0.0
C1101 C 0.33646 0.67246 0.798 0.0
C1102 C 0.90204 0.49045 0.54174 0.0
C1103 C 0.91374 0.51932 0.51863 0.0
C1104 C 0.86835 0.46965 0.53683 0.0
C1105 C 0.84541 0.47687 0.50843 0.0
H1106 H 0.91965 0.48301 0.56282 0.0
H1107 H 0.86111 0.44669 0.55447 0.0
S1108 S 0.86287 0.5525 0.44296 0.0
N1109 N 0.89932 0.55613 0.46828 0.0
N1110 N 0.83603 0.51742 0.45886 0.0
C1111 C 0.85633 0.50704 0.48629 0.0
C1112 C 0.89051 0.52813 0.49142 0.0
C1113 C 0.77346 0.91184 0.85547 0.0
C1114 C 0.77597 0.88385 0.83443 0.0
C1115 C 0.7473 0.9343 0.84856 0.0
C1116 C 0.72223 0.92923 0.82071 0.0
H1117 H 0.79278 0.91731 0.87654 0.0
H1118 H 0.74739 0.95646 0.8646 0.0
S1119 S 0.71614 0.85768 0.75958 0.0
N1120 N 0.75041 0.85105 0.78579 0.0
N1121 N 0.70077 0.89247 0.77316 0.0
C1122 C 0.72349 0.90011 0.80057 0.0
C1123 C 0.75051 0.87769 0.80729 0.0
C1124 C 0.66957 0.54348 0.0494 0.0
C1125 C 0.66258 0.52593 0.01862 0.0
C1126 C 0.69989 0.56948 0.05339 0.0
C1127 C 0.72369 0.57924 0.02646 0.0
H1128 H 0.65081 0.53805 0.07001 0.0
H1129 H 0.70391 0.58311 0.07708 0.0
S1130 S 0.72173 0.53593 0.94399 0.0
N1131 N 0.68502 0.51639 0.963 0.0
N1132 N 0.74167 0.56542 0.97052 0.0
C1133 C 0.71839 0.56022 0.99662 0.0
C1134 C 0.6878 0.53363 0.99263 0.0
C1135 C 0.29212 0.6162 0.21226 0.0
C1136 C 0.31024 0.63472 0.23974 0.0
C1137 C 0.26252 0.58952 0.21786 0.0
C1138 C 0.25006 0.58052 0.2511 0.0
H1139 H 0.30039 0.62277 0.18606 0.0
H1140 H 0.24861 0.57681 0.19602 0.0
S1141 S 0.29109 0.61482 0.33254 0.0
N1142 N 0.31448 0.63879 0.30211 0.0
N1143 N 0.26099 0.58692 0.31223 0.0
C1144 C 0.2694 0.59637 0.27895 0.0
C1145 C 0.29892 0.62395 0.27339 0.0
C1146 C 0.93656 0.56957 0.03342 0.0
C1147 C 0.94691 0.56096 0.06792 0.0
C1148 C 0.90915 0.59033 0.02515 0.0
C1149 C 0.89141 0.60421 0.05093 0.0
H1150 H 0.94957 0.56001 1.01246 0.0
H1151 H 0.90177 0.59553 0.9983 0.0
S1152 S 0.9067 0.58885 0.14517 0.0
N1153 N 0.93541 0.56707 0.12806 0.0
N1154 N 0.88563 0.60749 0.11241 0.0
C1155 C 0.90181 0.59651 0.08544 0.0
C1156 C 0.9291 0.57466 0.09394 0.0
C1157 C 0.14062 0.96878 0.0394 0.0
C1158 C 0.12786 0.99524 0.01749 0.0
C1159 C 0.16987 0.95301 0.03065 0.0
C1160 C 0.18768 0.96315 0.99963 0.0
H1161 H 0.12749 0.95982 0.06327 0.0
H1162 H 0.17811 0.9322 0.04818 0.0
S1163 S 0.16643 0.03405 0.93505 0.0
N1164 N 0.13645 0.03294 0.96483 0.0
N1165 N 0.1914 1.00331 0.94802 0.0
C1166 C 0.17578 0.99056 0.97802 0.0
C1167 C 0.14601 1.00669 0.98711 0.0
loop_
_geom_bond_atom_site_label_1
_geom_bond_atom_site_label_2
_geom_bond_distance
_geom_bond_site_symmetry_2
_ccdc_geom_bond_type
H0 C7 0.929 . S
H1 C10 0.930 1_565 S
H2 C12 0.902 1_556 S
H3 C4 0.969 . S
C4 H3 0.969 . S
C4 O5 1.550 1_565 S
C4 H6 0.973 . S
O5 C4 1.550 1_545 S
O5 C11 1.412 . S
H6 C4 0.973 . S
C7 H0 0.929 . S
C7 C8 1.400 1_655 S
C7 C9 1.364 1_655 S
C8 C7 1.400 1_455 S
C8 C12 1.387 . S
C9 C7 1.364 1_455 S
C9 C10 1.374 . S
C10 H1 0.930 1_545 S
C10 C9 1.374 . S
C10 C11 1.383 . S
C11 O5 1.412 . S
C11 C10 1.383 . S
C11 C12 1.413 . S
C12 H2 0.902 1_554 S
C12 C8 1.387 . S
C12 C11 1.413 . S
H13 C20 0.929 . S
H14 C23 0.930 . S
H15 C25 0.929 . S
H16 C17 0.969 . S
C17 H16 0.969 . S
C17 O18 1.550 . S
C17 H19 0.973 . S
O18 C17 1.550 . S
O18 C24 1.412 . S
H19 C17 0.973 . S
C20 H13 0.929 . S
C20 C21 1.400 . S
C20 C22 1.364 . S
C21 C20 1.400 . S
C21 C25 1.377 . S
C22 C20 1.364 . S
C22 C23 1.374 . S
C23 H14 0.930 . S
C23 C22 1.374 . S
C23 C24 1.383 . S
C24 O18 1.412 . S
C24 C23 1.383 . S
C24 C25 1.394 . S
C25 H15 0.929 . S
C25 C21 1.377 . S
C25 C24 1.394 . S
H26 C33 0.929 . S
H27 C36 0.930 . S
H28 C38 0.929 . S
H29 C30 0.969 . S
C30 H29 0.969 . S
C30 O31 1.550 1_556 S
C30 H32 0.973 . S
O31 C30 1.550 1_554 S
O31 C37 1.412 . S
H32 C30 0.973 . S
C33 H26 0.929 . S
C33 C34 1.400 1_655 S
C33 C35 1.364 . S
C34 C33 1.400 1_455 S
C34 C38 1.377 . S
C35 C33 1.364 . S
C35 C36 1.374 . S
C36 H27 0.930 . S
C36 C35 1.374 . S
C36 C37 1.383 . S
C37 O31 1.412 . S
C37 C36 1.383 . S
C37 C38 1.394 1_655 S
C38 H28 0.929 . S
C38 C34 1.377 . S
C38 C37 1.394 1_455 S
H39 C46 0.929 . S
H40 C49 0.930 . S
H41 C51 0.929 . S
H42 C43 0.969 . S
C43 H42 0.969 . S
C43 O44 1.550 . S
C43 H45 0.973 . S
O44 C43 1.550 . S
O44 C50 1.412 . S
H45 C43 0.973 . S
C46 H39 0.929 . S
C46 C47 1.400 . S
C46 C48 1.364 . S
C47 C46 1.400 . S
C47 C51 1.377 . S
C48 C46 1.364 . S
C48 C49 1.374 . S
C49 H40 0.930 . S
C49 C48 1.374 . S
C49 C50 1.383 . S
C50 O44 1.412 . S
C50 C49 1.383 . S
C50 C51 1.394 . S
C51 H41 0.929 . S
C51 C47 1.377 . S
C51 C50 1.394 . S
H52 C59 0.929 . S
H53 C62 0.930 . S
H54 C64 0.929 . S
H55 C56 0.969 . S
C56 H55 0.969 . S
C56 O57 1.550 1_655 S
C56 H58 0.973 . S
O57 C56 1.550 1_455 S
O57 C63 1.412 . S
H58 C56 0.973 . S
C59 H52 0.929 . S
C59 C60 1.400 1_565 S
C59 C61 1.364 . S
C60 C59 1.400 1_545 S
C60 C64 1.377 . S
C61 C59 1.364 . S
C61 C62 1.374 . S
C62 H53 0.930 . S
C62 C61 1.374 . S
C62 C63 1.383 . S
C63 O57 1.412 . S
C63 C62 1.383 . S
C63 C64 1.394 1_565 S
C64 H54 0.929 . S
C64 C60 1.377 . S
C64 C63 1.394 1_545 S
H65 C72 0.929 . S
H66 C75 0.930 . S
H67 C77 0.929 . S
H68 C69 0.969 . S
C69 H68 0.969 . S
C69 O70 1.550 . S
C69 H71 0.973 . S
O70 C69 1.550 . S
O70 C76 1.412 . S
H71 C69 0.973 . S
C72 H65 0.929 . S
C72 C73 1.400 . S
C72 C74 1.364 . S
C73 C72 1.400 . S
C73 C77 1.377 . S
C74 C72 1.364 . S
C74 C75 1.374 . S
C75 H66 0.930 . S
C75 C74 1.374 . S
C75 C76 1.383 . S
C76 O70 1.412 . S
C76 C75 1.383 . S
C76 C77 1.394 . S
C77 H67 0.929 . S
C77 C73 1.377 . S
C77 C76 1.394 . S
H78 C85 0.929 . S
H79 C88 0.930 . S
H80 C90 0.929 . S
H81 C82 0.969 . S
C82 H81 0.969 . S
C82 O83 1.550 . S
C82 H84 0.973 . S
O83 C82 1.550 . S
O83 C89 1.412 . S
H84 C82 0.973 . S
C85 H78 0.929 . S
C85 C86 1.400 . S
C85 C87 1.364 . S
C86 C85 1.400 . S
C86 C90 1.377 1_655 S
C87 C85 1.364 . S
C87 C88 1.374 . S
C88 H79 0.930 . S
C88 C87 1.374 . S
C88 C89 1.383 1_655 S
C89 O83 1.412 . S
C89 C88 1.383 1_455 S
C89 C90 1.394 . S
C90 H80 0.929 . S
C90 C86 1.377 1_455 S
C90 C89 1.394 . S
H91 C98 0.929 . S
H92 C101 0.930 . S
H93 C103 0.929 . S
H94 C95 0.969 . S
C95 H94 0.969 . S
C95 O96 1.550 . S
C95 H97 0.973 . S
O96 C95 1.550 . S
O96 C102 1.412 . S
H97 C95 0.973 . S
C98 H91 0.929 . S
C98 C99 1.400 . S
C98 C100 1.364 . S
C99 C98 1.400 . S
C99 C103 1.377 . S
C100 C98 1.364 . S
C100 C101 1.374 . S
C101 H92 0.930 . S
C101 C100 1.374 . S
C101 C102 1.383 . S
C102 O96 1.412 . S
C102 C101 1.383 . S
C102 C103 1.394 . S
C103 H93 0.929 . S
C103 C99 1.377 . S
C103 C102 1.394 . S
H104 C111 0.929 . S
H105 C114 0.930 . S
H106 C116 0.929 . S
H107 C108 0.969 . S
C108 H107 0.969 . S
C108 O109 1.550 . S
C108 H110 0.973 . S
O109 C108 1.550 . S
O109 C115 1.412 . S
H110 C108 0.973 . S
C111 H104 0.929 . S
C111 C112 1.400 . S
C111 C113 1.364 . S
C112 C111 1.400 . S
C112 C116 1.377 . S
C113 C111 1.364 . S
C113 C114 1.374 . S
C114 H105 0.930 . S
C114 C113 1.374 . S
C114 C115 1.383 . S
C115 O109 1.412 . S
C115 C114 1.383 . S
C115 C116 1.394 . S
C116 H106 0.929 . S
C116 C112 1.377 . S
C116 C115 1.394 . S
H117 C124 0.954 . S
H118 C127 0.930 . S
H119 C129 0.929 . S
H120 C121 0.969 . S
C121 H120 0.969 . S
C121 O122 1.550 . S
C121 H123 0.973 . S
O122 C121 1.550 . S
O122 C128 1.412 . S
H123 C121 0.973 . S
C124 H117 0.954 . S
C124 C125 1.380 1_545 S
C124 C126 1.359 1_545 S
C125 C124 1.380 1_565 S
C125 C129 1.377 . S
C126 C124 1.359 1_565 S
C126 C127 1.374 . S
C127 H118 0.930 . S
C127 C126 1.374 . S
C127 C128 1.383 . S
C128 O122 1.412 . S
C128 C127 1.383 . S
C128 C129 1.394 . S
C129 H119 0.929 . S
C129 C125 1.377 . S
C129 C128 1.394 . S
H130 C137 0.929 . S
H131 C140 0.930 . S
H132 C142 0.929 . S
H133 C134 0.969 . S
C134 H133 0.969 . S
C134 O135 1.550 . S
C134 H136 0.973 . S
O135 C134 1.550 . S
O135 C141 1.412 . S
H136 C134 0.973 . S
C137 H130 0.929 . S
C137 C138 1.400 . S
C137 C139 1.364 . S
C138 C137 1.400 . S
C138 C142 1.377 . S
C139 C137 1.364 . S
C139 C140 1.374 . S
C140 H131 0.930 . S
C140 C139 1.374 . S
C140 C141 1.383 . S
C141 O135 1.412 . S
C141 C140 1.383 . S
C141 C142 1.394 . S
C142 H132 0.929 . S
C142 C138 1.377 . S
C142 C141 1.394 . S
H143 C150 0.929 . S
H144 C153 0.930 . S
H145 C155 0.929 . S
H146 C147 0.969 . S
C147 H146 0.969 . S
C147 O148 1.550 . S
C147 H149 0.973 . S
O148 C147 1.550 . S
O148 C154 1.412 . S
H149 C147 0.973 . S
C150 H143 0.929 . S
C150 C151 1.400 . S
C150 C152 1.364 . S
C151 C150 1.400 . S
C151 C155 1.377 . S
C152 C150 1.364 . S
C152 C153 1.374 . S
C153 H144 0.930 . S
C153 C152 1.374 . S
C153 C154 1.383 . S
C154 O148 1.412 . S
C154 C153 1.383 . S
C154 C155 1.394 . S
C155 H145 0.929 . S
C155 C151 1.377 . S
C155 C154 1.394 . S
H156 C163 0.929 . S
H157 C166 0.930 . S
H158 C168 0.929 . S
H159 C160 0.969 . S
C160 H159 0.969 . S
C160 O161 1.550 . S
C160 H162 0.973 . S
O161 C160 1.550 . S
O161 C167 1.412 . S
H162 C160 0.973 . S
C163 H156 0.929 . S
C163 C164 1.400 . S
C163 C165 1.364 . S
C164 C163 1.400 . S
C164 C168 1.377 . S
C165 C163 1.364 . S
C165 C166 1.374 . S
C166 H157 0.930 . S
C166 C165 1.374 . S
C166 C167 1.383 . S
C167 O161 1.412 . S
C167 C166 1.383 . S
C167 C168 1.394 . S
C168 H158 0.929 . S
C168 C164 1.377 . S
C168 C167 1.394 . S
H169 C176 0.929 . S
H170 C179 0.930 . S
H171 C181 0.929 . S
H172 C173 0.969 . S
C173 H172 0.969 . S
C173 O174 1.550 . S
C173 H175 0.973 . S
O174 C173 1.550 . S
O174 C180 1.412 . S
H175 C173 0.973 . S
C176 H169 0.929 . S
C176 C177 1.400 1_554 S
C176 C178 1.364 1_554 S
C177 C176 1.400 1_556 S
C177 C181 1.377 . S
C178 C176 1.364 1_556 S
C178 C179 1.374 . S
C179 H170 0.930 . S
C179 C178 1.374 . S
C179 C180 1.383 . S
C180 O174 1.412 . S
C180 C179 1.383 . S
C180 C181 1.394 . S
C181 H171 0.929 . S
C181 C177 1.377 . S
C181 C180 1.394 . S
H182 C189 0.929 . S
H183 C192 0.930 . S
H184 C194 0.929 . S
H185 C186 0.969 . S
C186 H185 0.969 . S
C186 O187 1.550 . S
C186 H188 0.973 . S
O187 C186 1.550 . S
O187 C193 1.412 . S
H188 C186 0.973 . S
C189 H182 0.929 . S
C189 C190 1.400 . S
C189 C191 1.364 . S
C190 C189 1.400 . S
C190 C194 1.377 . S
C191 C189 1.364 . S
C191 C192 1.374 . S
C192 H183 0.930 . S
C192 C191 1.374 . S
C192 C193 1.383 . S
C193 O187 1.412 . S
C193 C192 1.383 . S
C193 C194 1.394 . S
C194 H184 0.929 . S
C194 C190 1.377 . S
C194 C193 1.394 . S
H195 C202 0.929 . S
H196 C205 0.930 . S
H197 C207 0.929 . S
H198 C199 0.969 . S
C199 H198 0.969 . S
C199 O200 1.550 . S
C199 H201 0.973 . S
O200 C199 1.550 . S
O200 C206 1.412 . S
H201 C199 0.973 . S
C202 H195 0.929 . S
C202 C203 1.400 . S
C202 C204 1.367 . S
C203 C202 1.400 . S
C203 C207 1.364 1_554 S
C204 C202 1.367 . S
C204 C205 1.371 1_554 S
C205 H196 0.930 . S
C205 C204 1.371 1_556 S
C205 C206 1.383 . S
C206 O200 1.412 . S
C206 C205 1.383 . S
C206 C207 1.408 . S
C207 H197 0.929 . S
C207 C203 1.364 1_556 S
C207 C206 1.408 . S
Mn208 O213 2.095 . S
Mn208 O223 2.162 . S
Mn208 O224 2.297 . S
Mn208 O232 2.385 1_554 S
Mn208 O233 2.209 1_554 S
Mn208 O234 2.094 . S
Mn209 O214 2.121 . S
Mn209 N216 2.257 . S
Mn209 N225 2.282 . S
Mn209 O233 2.215 . S
Mn209 O235 2.117 . S
C210 O232 1.234 . S
C210 O233 1.283 . S
C211 O223 1.281 . S
C211 O224 1.236 . S
C212 O234 1.240 1_556 S
C212 O235 1.264 . S
O213 Mn208 2.095 . S
O213 C222 1.250 1_554 S
O214 Mn209 2.121 . S
O214 C222 1.258 . S
C215 N216 1.326 . S
C215 C219 1.460 . S
C215 H221 0.929 . S
N216 Mn209 2.257 . S
N216 C215 1.326 . S
N216 C220 1.362 . S
C217 C218 1.258 . S
C217 C220 1.431 . S
C217 C237 1.449 . S
C218 C217 1.258 . S
C218 C219 1.477 . S
C218 H238 0.931 . S
C219 C215 1.460 . S
C219 C218 1.477 . S
C219 H239 0.930 . S
C220 N216 1.362 . S
C220 C217 1.431 . S
C220 C230 1.476 . S
H221 C215 0.929 . S
C222 O213 1.250 1_556 S
C222 O214 1.258 . S
O223 Mn208 2.162 . S
O223 C211 1.281 . S
O224 Mn208 2.297 . S
O224 C211 1.236 . S
N225 Mn209 2.282 . S
N225 C226 1.328 . S
N225 C230 1.318 . S
C226 N225 1.328 . S
C226 C227 1.457 . S
C226 H231 0.929 . S
C227 C226 1.457 . S
C227 C228 1.291 . S
C227 H240 0.931 . S
C228 C227 1.291 . S
C228 C229 1.373 . S
C228 H241 0.929 . S
C229 C228 1.373 . S
C229 C230 1.396 . S
C229 C236 1.403 . S
C230 C220 1.476 . S
C230 N225 1.318 . S
C230 C229 1.396 . S
H231 C226 0.929 . S
O232 Mn208 2.385 1_556 S
O232 C210 1.234 . S
O233 Mn208 2.209 1_556 S
O233 Mn209 2.215 . S
O233 C210 1.283 . S
O234 Mn208 2.094 . S
O234 C212 1.240 1_554 S
O235 Mn209 2.117 . S
O235 C212 1.264 . S
C236 C229 1.403 . S
C236 C237 1.399 . S
C236 H242 0.929 . S
C237 C217 1.449 . S
C237 C236 1.399 . S
C237 H243 0.930 . S
H238 C218 0.931 . S
H239 C219 0.930 . S
H240 C227 0.931 . S
H241 C228 0.929 . S
H242 C236 0.929 . S
H243 C237 0.930 . S
Mn244 O249 2.095 . S
Mn244 O259 2.162 . S
Mn244 O260 2.297 . S
Mn244 O268 2.385 . S
Mn244 O269 2.209 . S
Mn244 O270 2.094 . S
Mn245 O250 2.121 . S
Mn245 N252 2.257 . S
Mn245 N261 2.282 . S
Mn245 O269 2.215 . S
Mn245 O271 2.117 . S
C246 O268 1.234 . S
C246 O269 1.283 . S
C247 O259 1.281 . S
C247 O260 1.236 . S
C248 O270 1.240 . S
C248 O271 1.264 . S
O249 Mn244 2.095 . S
O249 C258 1.250 . S
O250 Mn245 2.121 . S
O250 C258 1.258 . S
C251 N252 1.326 . S
C251 C255 1.460 . S
C251 H257 0.929 . S
N252 Mn245 2.257 . S
N252 C251 1.326 . S
N252 C256 1.362 . S
C253 C254 1.258 . S
C253 C256 1.431 . S
C253 C273 1.449 . S
C254 C253 1.258 . S
C254 C255 1.477 . S
C254 H274 0.931 . S
C255 C251 1.460 . S
C255 C254 1.477 . S
C255 H275 0.930 . S
C256 N252 1.362 . S
C256 C253 1.431 . S
C256 C266 1.476 . S
H257 C251 0.929 . S
C258 O249 1.250 . S
C258 O250 1.258 . S
O259 Mn244 2.162 . S
O259 C247 1.281 . S
O260 Mn244 2.297 . S
O260 C247 1.236 . S
N261 Mn245 2.282 . S
N261 C262 1.328 . S
N261 C266 1.318 . S
C262 N261 1.328 . S
C262 C263 1.457 . S
C262 H267 0.929 . S
C263 C262 1.457 . S
C263 C264 1.291 . S
C263 H276 0.931 . S
C264 C263 1.291 . S
C264 C265 1.373 . S
C264 H277 0.929 . S
C265 C264 1.373 . S
C265 C266 1.396 . S
C265 C272 1.403 . S
C266 C256 1.476 . S
C266 N261 1.318 . S
C266 C265 1.396 . S
H267 C262 0.929 . S
O268 Mn244 2.385 . S
O268 C246 1.234 . S
O269 Mn244 2.209 . S
O269 Mn245 2.215 . S
O269 C246 1.283 . S
O270 Mn244 2.094 . S
O270 C248 1.240 . S
O271 Mn245 2.117 . S
O271 C248 1.264 . S
C272 C265 1.403 . S
C272 C273 1.399 . S
C272 H278 0.929 . S
C273 C253 1.449 . S
C273 C272 1.399 . S
C273 H279 0.930 . S
H274 C254 0.931 . S
H275 C255 0.930 . S
H276 C263 0.931 . S
H277 C264 0.929 . S
H278 C272 0.929 . S
H279 C273 0.930 . S
Mn280 O285 2.095 . S
Mn280 O295 2.162 . S
Mn280 O296 2.297 . S
Mn280 O304 2.385 . S
Mn280 O305 2.209 . S
Mn280 O306 2.094 . S
Mn281 O286 2.121 1_554 S
Mn281 N288 2.257 1_554 S
Mn281 N297 2.282 . S
Mn281 O305 2.215 . S
Mn281 O307 2.117 . S
C282 O304 1.234 . S
C282 O305 1.283 . S
C283 O295 1.281 . S
C283 O296 1.236 . S
C284 O306 1.240 . S
C284 O307 1.264 . S
O285 Mn280 2.095 . S
O285 C294 1.250 1_554 S
O286 Mn281 2.121 1_556 S
O286 C294 1.258 . S
C287 N288 1.326 . S
C287 C291 1.460 . S
C287 H293 0.929 . S
N288 Mn281 2.257 1_556 S
N288 C287 1.326 . S
N288 C292 1.362 . S
C289 C290 1.258 . S
C289 C292 1.431 . S
C289 C309 1.449 . S
C290 C289 1.258 . S
C290 C291 1.477 . S
C290 H310 0.931 . S
C291 C287 1.460 . S
C291 C290 1.477 . S
C291 H311 0.930 . S
C292 N288 1.362 . S
C292 C289 1.431 . S
C292 C302 1.476 . S
H293 C287 0.929 . S
C294 O285 1.250 1_556 S
C294 O286 1.258 . S
O295 Mn280 2.162 . S
O295 C283 1.281 . S
O296 Mn280 2.297 . S
O296 C283 1.236 . S
N297 Mn281 2.282 . S
N297 C298 1.328 . S
N297 C302 1.318 1_554 S
C298 N297 1.328 . S
C298 C299 1.457 . S
C298 H303 0.929 . S
C299 C298 1.457 . S
C299 C300 1.291 . S
C299 H312 0.931 . S
C300 C299 1.291 . S
C300 C301 1.373 . S
C300 H313 0.929 . S
C301 C300 1.373 . S
C301 C302 1.396 1_554 S
C301 C308 1.403 1_554 S
C302 C292 1.476 . S
C302 N297 1.318 1_556 S
C302 C301 1.396 1_556 S
H303 C298 0.929 . S
O304 Mn280 2.385 . S
O304 C282 1.234 . S
O305 Mn280 2.209 . S
O305 Mn281 2.215 . S
O305 C282 1.283 . S
O306 Mn280 2.094 . S
O306 C284 1.240 . S
O307 Mn281 2.117 . S
O307 C284 1.264 . S
C308 C301 1.403 1_556 S
C308 C309 1.399 . S
C308 H314 0.929 . S
C309 C289 1.449 . S
C309 C308 1.399 . S
C309 H315 0.930 . S
H310 C290 0.931 . S
H311 C291 0.930 . S
H312 C299 0.931 . S
H313 C300 0.929 . S
H314 C308 0.929 . S
H315 C309 0.930 . S
Mn316 O321 2.095 . S
Mn316 O331 2.162 . S
Mn316 O332 2.297 . S
Mn316 O340 2.385 . S
Mn316 O341 2.209 1_545 S
Mn316 O342 2.094 . S
Mn317 O322 2.121 . S
Mn317 N324 2.257 . S
Mn317 N333 2.282 . S
Mn317 O341 2.215 . S
Mn317 O343 2.117 . S
C318 O340 1.234 1_565 S
C318 O341 1.283 . S
C319 O331 1.281 . S
C319 O332 1.236 . S
C320 O342 1.240 . S
C320 O343 1.264 1_545 S
O321 Mn316 2.095 . S
O321 C330 1.250 . S
O322 Mn317 2.121 . S
O322 C330 1.258 1_565 S
C323 N324 1.326 . S
C323 C327 1.460 . S
C323 H329 0.929 . S
N324 Mn317 2.257 . S
N324 C323 1.326 . S
N324 C328 1.362 . S
C325 C326 1.258 . S
C325 C328 1.431 . S
C325 C345 1.449 . S
C326 C325 1.258 . S
C326 C327 1.477 . S
C326 H346 0.931 . S
C327 C323 1.460 . S
C327 C326 1.477 . S
C327 H347 0.930 . S
C328 N324 1.362 . S
C328 C325 1.431 . S
C328 C338 1.476 . S
H329 C323 0.929 . S
C330 O321 1.250 . S
C330 O322 1.258 1_545 S
O331 Mn316 2.162 . S
O331 C319 1.281 . S
O332 Mn316 2.297 . S
O332 C319 1.236 . S
N333 Mn317 2.282 . S
N333 C334 1.328 . S
N333 C338 1.318 . S
C334 N333 1.328 . S
C334 C335 1.457 . S
C334 H339 0.929 . S
C335 C334 1.457 . S
C335 C336 1.291 . S
C335 H348 0.931 . S
C336 C335 1.291 . S
C336 C337 1.373 . S
C336 H349 0.929 . S
C337 C336 1.373 . S
C337 C338 1.396 . S
C337 C344 1.403 . S
C338 C328 1.476 . S
C338 N333 1.318 . S
C338 C337 1.396 . S
H339 C334 0.929 . S
O340 Mn316 2.385 . S
O340 C318 1.234 1_545 S
O341 Mn316 2.209 1_565 S
O341 Mn317 2.215 . S
O341 C318 1.283 . S
O342 Mn316 2.094 . S
O342 C320 1.240 . S
O343 Mn317 2.117 . S
O343 C320 1.264 1_565 S
C344 C337 1.403 . S
C344 C345 1.399 . S
C344 H350 0.929 . S
C345 C325 1.449 . S
C345 C344 1.399 . S
C345 H351 0.930 . S
H346 C326 0.931 . S
H347 C327 0.930 . S
H348 C335 0.931 . S
H349 C336 0.929 . S
H350 C344 0.929 . S
H351 C345 0.930 . S
Mn352 O357 2.095 . S
Mn352 O367 2.162 . S
Mn352 O368 2.297 . S
Mn352 O376 2.385 . S
Mn352 O377 2.209 . S
Mn352 O378 2.094 . S
Mn353 O358 2.121 . S
Mn353 N360 2.257 . S
Mn353 N369 2.282 . S
Mn353 O377 2.215 . S
Mn353 O379 2.117 . S
C354 O376 1.234 . S
C354 O377 1.283 . S
C355 O367 1.281 . S
C355 O368 1.236 . S
C356 O378 1.240 . S
C356 O379 1.264 . S
O357 Mn352 2.095 . S
O357 C366 1.250 . S
O358 Mn353 2.121 . S
O358 C366 1.258 . S
C359 N360 1.326 . S
C359 C363 1.460 . S
C359 H365 0.929 . S
N360 Mn353 2.257 . S
N360 C359 1.326 . S
N360 C364 1.362 . S
C361 C362 1.258 . S
C361 C364 1.431 . S
C361 C381 1.449 . S
C362 C361 1.258 . S
C362 C363 1.477 . S
C362 H382 0.931 . S
C363 C359 1.460 . S
C363 C362 1.477 . S
C363 H383 0.930 . S
C364 N360 1.362 . S
C364 C361 1.431 . S
C364 C374 1.476 . S
H365 C359 0.929 . S
C366 O357 1.250 . S
C366 O358 1.258 . S
O367 Mn352 2.162 . S
O367 C355 1.281 . S
O368 Mn352 2.297 . S
O368 C355 1.236 . S
N369 Mn353 2.282 . S
N369 C370 1.328 . S
N369 C374 1.318 . S
C370 N369 1.328 . S
C370 C371 1.457 . S
C370 H375 0.929 . S
C371 C370 1.457 . S
C371 C372 1.291 . S
C371 H384 0.931 . S
C372 C371 1.291 . S
C372 C373 1.373 . S
C372 H385 0.929 . S
C373 C372 1.373 . S
C373 C374 1.396 . S
C373 C380 1.403 . S
C374 C364 1.476 . S
C374 N369 1.318 . S
C374 C373 1.396 . S
H375 C370 0.929 . S
O376 Mn352 2.385 . S
O376 C354 1.234 . S
O377 Mn352 2.209 . S
O377 Mn353 2.215 . S
O377 C354 1.283 . S
O378 Mn352 2.094 . S
O378 C356 1.240 . S
O379 Mn353 2.117 . S
O379 C356 1.264 . S
C380 C373 1.403 . S
C380 C381 1.399 . S
C380 H386 0.929 . S
C381 C361 1.449 . S
C381 C380 1.399 . S
C381 H387 0.930 . S
H382 C362 0.931 . S
H383 C363 0.930 . S
H384 C371 0.931 . S
H385 C372 0.929 . S
H386 C380 0.929 . S
H387 C381 0.930 . S
Mn388 O393 2.095 . S
Mn388 O403 2.162 . S
Mn388 O404 2.297 . S
Mn388 O412 2.385 . S
Mn388 O413 2.209 . S
Mn388 O414 2.094 . S
Mn389 O394 2.121 . S
Mn389 N396 2.257 . S
Mn389 N405 2.282 . S
Mn389 O413 2.215 . S
Mn389 O415 2.117 . S
C390 O412 1.234 . S
C390 O413 1.283 . S
C391 O403 1.281 . S
C391 O404 1.236 . S
C392 O414 1.240 . S
C392 O415 1.264 . S
O393 Mn388 2.095 . S
O393 C402 1.250 . S
O394 Mn389 2.121 . S
O394 C402 1.258 . S
C395 N396 1.326 . S
C395 C399 1.460 . S
C395 H401 0.929 . S
N396 Mn389 2.257 . S
N396 C395 1.326 . S
N396 C400 1.362 . S
C397 C398 1.258 . S
C397 C400 1.431 . S
C397 C417 1.449 . S
C398 C397 1.258 . S
C398 C399 1.477 . S
C398 H418 0.931 . S
C399 C395 1.460 . S
C399 C398 1.477 . S
C399 H419 0.930 . S
C400 N396 1.362 . S
C400 C397 1.431 . S
C400 C410 1.476 . S
H401 C395 0.929 . S
C402 O393 1.250 . S
C402 O394 1.258 . S
O403 Mn388 2.162 . S
O403 C391 1.281 . S
O404 Mn388 2.297 . S
O404 C391 1.236 . S
N405 Mn389 2.282 . S
N405 C406 1.328 . S
N405 C410 1.318 . S
C406 N405 1.328 . S
C406 C407 1.457 . S
C406 H411 0.929 . S
C407 C406 1.457 . S
C407 C408 1.291 . S
C407 H420 0.931 . S
C408 C407 1.291 . S
C408 C409 1.373 . S
C408 H421 0.929 . S
C409 C408 1.373 . S
C409 C410 1.396 . S
C409 C416 1.403 . S
C410 C400 1.476 . S
C410 N405 1.318 . S
C410 C409 1.396 . S
H411 C406 0.929 . S
O412 Mn388 2.385 . S
O412 C390 1.234 . S
O413 Mn388 2.209 . S
O413 Mn389 2.215 . S
O413 C390 1.283 . S
O414 Mn388 2.094 . S
O414 C392 1.240 . S
O415 Mn389 2.117 . S
O415 C392 1.264 . S
C416 C409 1.403 . S
C416 C417 1.399 . S
C416 H422 0.929 . S
C417 C397 1.449 . S
C417 C416 1.399 . S
C417 H423 0.930 . S
H418 C398 0.931 . S
H419 C399 0.930 . S
H420 C407 0.931 . S
H421 C408 0.929 . S
H422 C416 0.929 . S
H423 C417 0.930 . S
Mn424 O429 2.095 . S
Mn424 O439 2.162 . S
Mn424 O440 2.297 . S
Mn424 O448 2.385 . S
Mn424 O449 2.209 . S
Mn424 O450 2.094 . S
Mn425 O430 2.121 . S
Mn425 N432 2.257 . S
Mn425 N441 2.282 . S
Mn425 O449 2.215 . S
Mn425 O451 2.117 . S
C426 O448 1.234 . S
C426 O449 1.283 . S
C427 O439 1.281 . S
C427 O440 1.236 . S
C428 O450 1.240 . S
C428 O451 1.264 . S
O429 Mn424 2.095 . S
O429 C438 1.250 . S
O430 Mn425 2.121 . S
O430 C438 1.258 . S
C431 N432 1.326 . S
C431 C435 1.460 . S
C431 H437 0.929 . S
N432 Mn425 2.257 . S
N432 C431 1.326 . S
N432 C436 1.362 . S
C433 C434 1.258 . S
C433 C436 1.431 . S
C433 C453 1.449 . S
C434 C433 1.258 . S
C434 C435 1.477 . S
C434 H454 0.931 . S
C435 C431 1.460 . S
C435 C434 1.477 . S
C435 H455 0.930 . S
C436 N432 1.362 . S
C436 C433 1.431 . S
C436 C446 1.476 . S
H437 C431 0.929 . S
C438 O429 1.250 . S
C438 O430 1.258 . S
O439 Mn424 2.162 . S
O439 C427 1.281 . S
O440 Mn424 2.297 . S
O440 C427 1.236 . S
N441 Mn425 2.282 . S
N441 C442 1.328 . S
N441 C446 1.318 . S
C442 N441 1.328 . S
C442 C443 1.457 . S
C442 H447 0.929 . S
C443 C442 1.457 . S
C443 C444 1.291 . S
C443 H456 0.931 . S
C444 C443 1.291 . S
C444 C445 1.373 . S
C444 H457 0.929 . S
C445 C444 1.373 . S
C445 C446 1.396 . S
C445 C452 1.403 . S
C446 C436 1.476 . S
C446 N441 1.318 . S
C446 C445 1.396 . S
H447 C442 0.929 . S
O448 Mn424 2.385 . S
O448 C426 1.234 . S
O449 Mn424 2.209 . S
O449 Mn425 2.215 . S
O449 C426 1.283 . S
O450 Mn424 2.094 . S
O450 C428 1.240 . S
O451 Mn425 2.117 . S
O451 C428 1.264 . S
C452 C445 1.403 . S
C452 C453 1.399 . S
C452 H458 0.929 . S
C453 C433 1.449 . S
C453 C452 1.399 . S
C453 H459 0.930 . S
H454 C434 0.931 . S
H455 C435 0.930 . S
H456 C443 0.931 . S
H457 C444 0.929 . S
H458 C452 0.929 . S
H459 C453 0.930 . S
Mn460 O465 2.095 . S
Mn460 O475 2.162 . S
Mn460 O476 2.297 . S
Mn460 O484 2.385 1_565 S
Mn460 O485 2.209 1_565 S
Mn460 O486 2.094 . S
Mn461 O466 2.121 . S
Mn461 N468 2.257 . S
Mn461 N477 2.282 . S
Mn461 O485 2.215 . S
Mn461 O487 2.117 . S
C462 O484 1.234 . S
C462 O485 1.283 . S
C463 O475 1.281 . S
C463 O476 1.236 . S
C464 O486 1.240 . S
C464 O487 1.264 1_565 S
O465 Mn460 2.095 . S
O465 C474 1.250 1_565 S
O466 Mn461 2.121 . S
O466 C474 1.258 . S
C467 N468 1.326 . S
C467 C471 1.460 . S
C467 H473 0.929 . S
N468 Mn461 2.257 . S
N468 C467 1.326 . S
N468 C472 1.362 . S
C469 C470 1.258 . S
C469 C472 1.431 . S
C469 C489 1.449 . S
C470 C469 1.258 . S
C470 C471 1.477 . S
C470 H490 0.931 . S
C471 C467 1.460 . S
C471 C470 1.477 . S
C471 H491 0.930 . S
C472 N468 1.362 . S
C472 C469 1.431 . S
C472 C482 1.476 . S
H473 C467 0.929 . S
C474 O465 1.250 1_545 S
C474 O466 1.258 . S
O475 Mn460 2.162 . S
O475 C463 1.281 . S
O476 Mn460 2.297 . S
O476 C463 1.236 . S
N477 Mn461 2.282 . S
N477 C478 1.328 . S
N477 C482 1.318 . S
C478 N477 1.328 . S
C478 C479 1.457 . S
C478 H483 0.929 . S
C479 C478 1.457 . S
C479 C480 1.291 . S
C479 H492 0.931 . S
C480 C479 1.291 . S
C480 C481 1.373 . S
C480 H493 0.929 . S
C481 C480 1.373 . S
C481 C482 1.396 . S
C481 C488 1.403 . S
C482 C472 1.476 . S
C482 N477 1.318 . S
C482 C481 1.396 . S
H483 C478 0.929 . S
O484 Mn460 2.385 1_545 S
O484 C462 1.234 . S
O485 Mn460 2.209 1_545 S
O485 Mn461 2.215 . S
O485 C462 1.283 . S
O486 Mn460 2.094 . S
O486 C464 1.240 . S
O487 Mn461 2.117 . S
O487 C464 1.264 1_545 S
C488 C481 1.403 . S
C488 C489 1.399 . S
C488 H494 0.929 . S
C489 C469 1.449 . S
C489 C488 1.399 . S
C489 H495 0.930 . S
H490 C470 0.931 . S
H491 C471 0.930 . S
H492 C479 0.931 . S
H493 C480 0.929 . S
H494 C488 0.929 . S
H495 C489 0.930 . S
Mn496 O501 2.095 . S
Mn496 O511 2.162 . S
Mn496 O512 2.297 . S
Mn496 O520 2.385 1_455 S
Mn496 O521 2.209 1_455 S
Mn496 O522 2.094 . S
Mn497 O502 2.121 . S
Mn497 N504 2.257 . S
Mn497 N513 2.282 . S
Mn497 O521 2.215 . S
Mn497 O523 2.117 . S
C498 O520 1.234 . S
C498 O521 1.283 . S
C499 O511 1.281 . S
C499 O512 1.236 . S
C500 O522 1.240 1_655 S
C500 O523 1.264 . S
O501 Mn496 2.095 . S
O501 C510 1.250 1_455 S
O502 Mn497 2.121 . S
O502 C510 1.258 . S
C503 N504 1.326 . S
C503 C507 1.460 . S
C503 H509 0.929 . S
N504 Mn497 2.257 . S
N504 C503 1.326 . S
N504 C508 1.362 . S
C505 C506 1.258 . S
C505 C508 1.431 . S
C505 C525 1.449 . S
C506 C505 1.258 . S
C506 C507 1.477 . S
C506 H526 0.931 . S
C507 C503 1.460 . S
C507 C506 1.477 . S
C507 H527 0.930 . S
C508 N504 1.362 . S
C508 C505 1.431 . S
C508 C518 1.476 . S
H509 C503 0.929 . S
C510 O501 1.250 1_655 S
C510 O502 1.258 . S
O511 Mn496 2.162 . S
O511 C499 1.281 . S
O512 Mn496 2.297 . S
O512 C499 1.236 . S
N513 Mn497 2.282 . S
N513 C514 1.328 . S
N513 C518 1.318 . S
C514 N513 1.328 . S
C514 C515 1.457 . S
C514 H519 0.929 . S
C515 C514 1.457 . S
C515 C516 1.291 . S
C515 H528 0.931 . S
C516 C515 1.291 . S
C516 C517 1.373 . S
C516 H529 0.929 . S
C517 C516 1.373 . S
C517 C518 1.396 . S
C517 C524 1.403 . S
C518 C508 1.476 . S
C518 N513 1.318 . S
C518 C517 1.396 . S
H519 C514 0.929 . S
O520 Mn496 2.385 1_655 S
O520 C498 1.234 . S
O521 Mn496 2.209 1_655 S
O521 Mn497 2.215 . S
O521 C498 1.283 . S
O522 Mn496 2.094 . S
O522 C500 1.240 1_455 S
O523 Mn497 2.117 . S
O523 C500 1.264 . S
C524 C517 1.403 . S
C524 C525 1.399 . S
C524 H530 0.929 . S
C525 C505 1.449 . S
C525 C524 1.399 . S
C525 H531 0.930 . S
H526 C506 0.931 . S
H527 C507 0.930 . S
H528 C515 0.931 . S
H529 C516 0.929 . S
H530 C524 0.929 . S
H531 C525 0.930 . S
Mn532 O537 2.095 . S
Mn532 O547 2.162 . S
Mn532 O548 2.297 . S
Mn532 O556 2.385 . S
Mn532 O557 2.209 . S
Mn532 O558 2.094 . S
Mn533 O538 2.121 . S
Mn533 N540 2.257 . S
Mn533 N549 2.282 . S
Mn533 O557 2.215 . S
Mn533 O559 2.117 . S
C534 O556 1.234 . S
C534 O557 1.283 . S
C535 O547 1.281 . S
C535 O548 1.236 . S
C536 O558 1.240 . S
C536 O559 1.264 . S
O537 Mn532 2.095 . S
O537 C546 1.250 . S
O538 Mn533 2.121 . S
O538 C546 1.258 . S
C539 N540 1.326 . S
C539 C543 1.460 . S
C539 H545 0.929 . S
N540 Mn533 2.257 . S
N540 C539 1.326 . S
N540 C544 1.362 . S
C541 C542 1.258 . S
C541 C544 1.431 . S
C541 C561 1.449 . S
C542 C541 1.258 . S
C542 C543 1.477 . S
C542 H562 0.931 . S
C543 C539 1.460 . S
C543 C542 1.477 . S
C543 H563 0.930 . S
C544 N540 1.362 . S
C544 C541 1.431 . S
C544 C554 1.476 . S
H545 C539 0.929 . S
C546 O537 1.250 . S
C546 O538 1.258 . S
O547 Mn532 2.162 . S
O547 C535 1.281 . S
O548 Mn532 2.297 . S
O548 C535 1.236 . S
N549 Mn533 2.282 . S
N549 C550 1.328 . S
N549 C554 1.318 . S
C550 N549 1.328 . S
C550 C551 1.457 . S
C550 H555 0.929 . S
C551 C550 1.457 . S
C551 C552 1.291 . S
C551 H564 0.931 . S
C552 C551 1.291 . S
C552 C553 1.373 . S
C552 H565 0.929 . S
C553 C552 1.373 . S
C553 C554 1.396 . S
C553 C560 1.403 . S
C554 C544 1.476 . S
C554 N549 1.318 . S
C554 C553 1.396 . S
H555 C550 0.929 . S
O556 Mn532 2.385 . S
O556 C534 1.234 . S
O557 Mn532 2.209 . S
O557 Mn533 2.215 . S
O557 C534 1.283 . S
O558 Mn532 2.094 . S
O558 C536 1.240 . S
O559 Mn533 2.117 . S
O559 C536 1.264 . S
C560 C553 1.403 . S
C560 C561 1.399 . S
C560 H566 0.929 . S
C561 C541 1.449 . S
C561 C560 1.399 . S
C561 H567 0.930 . S
H562 C542 0.931 . S
H563 C543 0.930 . S
H564 C551 0.931 . S
H565 C552 0.929 . S
H566 C560 0.929 . S
H567 C561 0.930 . S
Mn568 O573 2.095 . S
Mn568 O583 2.162 . S
Mn568 O584 2.297 . S
Mn568 O592 2.385 . S
Mn568 O593 2.209 . S
Mn568 O594 2.094 . S
Mn569 O574 2.121 . S
Mn569 N576 2.257 . S
Mn569 N585 2.282 1_655 S
Mn569 O593 2.215 1_655 S
Mn569 O595 2.117 1_655 S
C570 O592 1.234 . S
C570 O593 1.283 . S
C571 O583 1.281 . S
C571 O584 1.236 . S
C572 O594 1.240 . S
C572 O595 1.264 . S
O573 Mn568 2.095 . S
O573 C582 1.250 1_455 S
O574 Mn569 2.121 . S
O574 C582 1.258 . S
C575 N576 1.326 . S
C575 C579 1.460 . S
C575 H581 0.929 . S
N576 Mn569 2.257 . S
N576 C575 1.326 . S
N576 C580 1.362 . S
C577 C578 1.258 . S
C577 C580 1.431 . S
C577 C597 1.449 . S
C578 C577 1.258 . S
C578 C579 1.477 . S
C578 H598 0.931 . S
C579 C575 1.460 . S
C579 C578 1.477 . S
C579 H599 0.930 . S
C580 N576 1.362 . S
C580 C577 1.431 . S
C580 C590 1.476 . S
H581 C575 0.929 . S
C582 O573 1.250 1_655 S
C582 O574 1.258 . S
O583 Mn568 2.162 . S
O583 C571 1.281 . S
O584 Mn568 2.297 . S
O584 C571 1.236 . S
N585 Mn569 2.282 1_455 S
N585 C586 1.328 . S
N585 C590 1.318 1_455 S
C586 N585 1.328 . S
C586 C587 1.457 . S
C586 H591 0.929 . S
C587 C586 1.457 . S
C587 C588 1.291 . S
C587 H600 0.931 . S
C588 C587 1.291 . S
C588 C589 1.373 1_455 S
C588 H601 0.929 . S
C589 C588 1.373 1_655 S
C589 C590 1.396 . S
C589 C596 1.403 . S
C590 C580 1.476 . S
C590 N585 1.318 1_655 S
C590 C589 1.396 . S
H591 C586 0.929 . S
O592 Mn568 2.385 . S
O592 C570 1.234 . S
O593 Mn568 2.209 . S
O593 Mn569 2.215 1_455 S
O593 C570 1.283 . S
O594 Mn568 2.094 . S
O594 C572 1.240 . S
O595 Mn569 2.117 1_455 S
O595 C572 1.264 . S
C596 C589 1.403 . S
C596 C597 1.399 . S
C596 H602 0.929 . S
C597 C577 1.449 . S
C597 C596 1.399 . S
C597 H603 0.930 . S
H598 C578 0.931 . S
H599 C579 0.930 . S
H600 C587 0.931 . S
H601 C588 0.929 . S
H602 C596 0.929 . S
H603 C597 0.930 . S
Mn604 O609 2.095 . S
Mn604 O619 2.162 . S
Mn604 O620 2.297 . S
Mn604 O628 2.385 . S
Mn604 O629 2.209 . S
Mn604 O630 2.094 . S
Mn605 O610 2.121 . S
Mn605 N612 2.257 . S
Mn605 N621 2.282 . S
Mn605 O629 2.215 . S
Mn605 O631 2.117 . S
C606 O628 1.234 . S
C606 O629 1.283 . S
C607 O619 1.281 . S
C607 O620 1.236 . S
C608 O630 1.240 . S
C608 O631 1.264 . S
O609 Mn604 2.095 . S
O609 C618 1.250 . S
O610 Mn605 2.121 . S
O610 C618 1.258 . S
C611 N612 1.326 . S
C611 C615 1.460 . S
C611 H617 0.929 . S
N612 Mn605 2.257 . S
N612 C611 1.326 . S
N612 C616 1.362 . S
C613 C614 1.258 . S
C613 C616 1.431 . S
C613 C633 1.449 . S
C614 C613 1.258 . S
C614 C615 1.477 . S
C614 H634 0.931 . S
C615 C611 1.460 . S
C615 C614 1.477 . S
C615 H635 0.930 . S
C616 N612 1.362 . S
C616 C613 1.431 . S
C616 C626 1.476 . S
H617 C611 0.929 . S
C618 O609 1.250 . S
C618 O610 1.258 . S
O619 Mn604 2.162 . S
O619 C607 1.281 . S
O620 Mn604 2.297 . S
O620 C607 1.236 . S
N621 Mn605 2.282 . S
N621 C622 1.328 . S
N621 C626 1.318 . S
C622 N621 1.328 . S
C622 C623 1.457 . S
C622 H627 0.929 . S
C623 C622 1.457 . S
C623 C624 1.291 . S
C623 H636 0.931 . S
C624 C623 1.291 . S
C624 C625 1.373 . S
C624 H637 0.929 . S
C625 C624 1.373 . S
C625 C626 1.396 . S
C625 C632 1.403 . S
C626 C616 1.476 . S
C626 N621 1.318 . S
C626 C625 1.396 . S
H627 C622 0.929 . S
O628 Mn604 2.385 . S
O628 C606 1.234 . S
O629 Mn604 2.209 . S
O629 Mn605 2.215 . S
O629 C606 1.283 . S
O630 Mn604 2.094 . S
O630 C608 1.240 . S
O631 Mn605 2.117 . S
O631 C608 1.264 . S
C632 C625 1.403 . S
C632 C633 1.399 . S
C632 H638 0.929 . S
C633 C613 1.449 . S
C633 C632 1.399 . S
C633 H639 0.930 . S
H634 C614 0.931 . S
H635 C615 0.930 . S
H636 C623 0.931 . S
H637 C624 0.929 . S
H638 C632 0.929 . S
H639 C633 0.930 . S
C640 C641 1.369 . S
C640 C642 1.419 . S
C640 H644 0.930 . S
C641 C640 1.369 . S
C641 C650 1.429 . S
C642 C640 1.419 . S
C642 C643 1.363 . S
C642 H645 0.929 . S
C643 C642 1.363 . S
C643 C649 1.428 . S
H644 C640 0.930 . S
H645 C642 0.929 . S
S646 N647 1.613 . S
S646 N648 1.610 . S
N647 S646 1.613 . S
N647 C650 1.350 . S
N648 S646 1.610 . S
N648 C649 1.351 . S
C649 C643 1.428 . S
C649 N648 1.351 . S
C649 C650 1.434 . S
C650 C641 1.429 . S
C650 N647 1.350 . S
C650 C649 1.434 . S
C651 C652 1.369 . S
C651 C653 1.419 . S
C651 H655 0.930 . S
C652 C651 1.369 . S
C652 C661 1.429 . S
C653 C651 1.419 . S
C653 C654 1.363 . S
C653 H656 0.929 . S
C654 C653 1.363 . S
C654 C660 1.428 . S
H655 C651 0.930 . S
H656 C653 0.929 . S
S657 N658 1.613 . S
S657 N659 1.610 . S
N658 S657 1.613 . S
N658 C661 1.350 . S
N659 S657 1.610 . S
N659 C660 1.351 . S
C660 C654 1.428 . S
C660 N659 1.351 . S
C660 C661 1.434 . S
C661 C652 1.429 . S
C661 N658 1.350 . S
C661 C660 1.434 . S
C662 C663 1.369 . S
C662 C664 1.419 . S
C662 H666 0.930 . S
C663 C662 1.369 . S
C663 C672 1.429 . S
C664 C662 1.419 . S
C664 C665 1.363 . S
C664 H667 0.929 . S
C665 C664 1.363 . S
C665 C671 1.428 . S
H666 C662 0.930 . S
H667 C664 0.929 . S
S668 N669 1.613 . S
S668 N670 1.610 . S
N669 S668 1.613 . S
N669 C672 1.350 . S
N670 S668 1.610 . S
N670 C671 1.351 . S
C671 C665 1.428 . S
C671 N670 1.351 . S
C671 C672 1.434 . S
C672 C663 1.429 . S
C672 N669 1.350 . S
C672 C671 1.434 . S
C673 C674 1.369 . S
C673 C675 1.419 . S
C673 H677 0.930 . S
C674 C673 1.369 . S
C674 C683 1.429 1_565 S
C675 C673 1.419 . S
C675 C676 1.363 1_565 S
C675 H678 0.929 . S
C676 C675 1.363 1_545 S
C676 C682 1.428 . S
H677 C673 0.930 . S
H678 C675 0.929 . S
S679 N680 1.602 1_655 S
S679 N681 1.610 . S
N680 S679 1.602 1_455 S
N680 C683 1.338 1_455 S
N681 S679 1.610 . S
N681 C682 1.351 . S
C682 C676 1.428 . S
C682 N681 1.351 . S
C682 C683 1.434 . S
C683 C674 1.429 1_545 S
C683 N680 1.338 1_655 S
C683 C682 1.434 . S
C684 C685 1.369 . S
C684 C686 1.419 . S
C684 H688 0.930 . S
C685 C684 1.369 . S
C685 C694 1.429 . S
C686 C684 1.419 . S
C686 C687 1.363 . S
C686 H689 0.929 . S
C687 C686 1.363 . S
C687 C693 1.428 . S
H688 C684 0.930 . S
H689 C686 0.929 . S
S690 N691 1.613 . S
S690 N692 1.610 . S
N691 S690 1.613 . S
N691 C694 1.350 . S
N692 S690 1.610 . S
N692 C693 1.351 . S
C693 C687 1.428 . S
C693 N692 1.351 . S
C693 C694 1.434 . S
C694 C685 1.429 . S
C694 N691 1.350 . S
C694 C693 1.434 . S
C695 C696 1.369 . S
C695 C697 1.419 . S
C695 H699 0.930 . S
C696 C695 1.369 . S
C696 C705 1.429 . S
C697 C695 1.419 . S
C697 C698 1.363 . S
C697 H700 0.929 . S
C698 C697 1.363 . S
C698 C704 1.428 . S
H699 C695 0.930 . S
H700 C697 0.929 . S
S701 N702 1.613 . S
S701 N703 1.610 . S
N702 S701 1.613 . S
N702 C705 1.350 . S
N703 S701 1.610 . S
N703 C704 1.351 . S
C704 C698 1.428 . S
C704 N703 1.351 . S
C704 C705 1.434 . S
C705 C696 1.429 . S
C705 N702 1.350 . S
C705 C704 1.434 . S
C706 C707 1.369 . S
C706 C708 1.419 . S
C706 H710 0.930 . S
C707 C706 1.369 . S
C707 C716 1.429 . S
C708 C706 1.419 . S
C708 C709 1.363 . S
C708 H711 0.929 . S
C709 C708 1.363 . S
C709 C715 1.428 . S
H710 C706 0.930 . S
H711 C708 0.929 . S
S712 N713 1.613 . S
S712 N714 1.610 . S
N713 S712 1.613 . S
N713 C716 1.350 . S
N714 S712 1.610 . S
N714 C715 1.351 . S
C715 C709 1.428 . S
C715 N714 1.351 . S
C715 C716 1.434 . S
C716 C707 1.429 . S
C716 N713 1.350 . S
C716 C715 1.434 . S
C717 C718 1.369 . S
C717 C719 1.419 . S
C717 H721 0.930 . S
C718 C717 1.369 . S
C718 C727 1.429 1_565 S
C719 C717 1.419 . S
C719 C720 1.363 . S
C719 H722 0.929 . S
C720 C719 1.363 . S
C720 C726 1.428 1_565 S
H721 C717 0.930 . S
H722 C719 0.929 . S
S723 N724 1.613 . S
S723 N725 1.610 . S
N724 S723 1.613 . S
N724 C727 1.350 . S
N725 S723 1.610 . S
N725 C726 1.351 . S
C726 C720 1.428 1_545 S
C726 N725 1.351 . S
C726 C727 1.434 . S
C727 C718 1.429 1_545 S
C727 N724 1.350 . S
C727 C726 1.434 . S
C728 C729 1.369 . S
C728 C730 1.419 . S
C728 H732 0.930 . S
C729 C728 1.369 . S
C729 C738 1.429 . S
C730 C728 1.419 . S
C730 C731 1.363 . S
C730 H733 0.929 . S
C731 C730 1.363 . S
C731 C737 1.428 . S
H732 C728 0.930 . S
H733 C730 0.929 . S
S734 N735 1.613 . S
S734 N736 1.610 . S
N735 S734 1.613 . S
N735 C738 1.350 . S
N736 S734 1.610 . S
N736 C737 1.351 . S
C737 C731 1.428 . S
C737 N736 1.351 . S
C737 C738 1.434 . S
C738 C729 1.429 . S
C738 N735 1.350 . S
C738 C737 1.434 . S
C739 C740 1.369 . S
C739 C741 1.419 . S
C739 H743 0.930 . S
C740 C739 1.369 . S
C740 C749 1.429 . S
C741 C739 1.419 . S
C741 C742 1.363 . S
C741 H744 0.929 . S
C742 C741 1.363 . S
C742 C748 1.428 . S
H743 C739 0.930 . S
H744 C741 0.929 . S
S745 N746 1.613 . S
S745 N747 1.610 . S
N746 S745 1.613 . S
N746 C749 1.350 . S
N747 S745 1.610 . S
N747 C748 1.351 . S
C748 C742 1.428 . S
C748 N747 1.351 . S
C748 C749 1.434 . S
C749 C740 1.429 . S
C749 N746 1.350 . S
C749 C748 1.434 . S
C750 C751 1.369 . S
C750 C752 1.419 . S
C750 H754 0.930 . S
C751 C750 1.369 . S
C751 C760 1.429 . S
C752 C750 1.419 . S
C752 C753 1.363 . S
C752 H755 0.929 . S
C753 C752 1.363 . S
C753 C759 1.428 . S
H754 C750 0.930 . S
H755 C752 0.929 . S
S756 N757 1.613 . S
S756 N758 1.610 . S
N757 S756 1.613 . S
N757 C760 1.350 . S
N758 S756 1.610 . S
N758 C759 1.351 . S
C759 C753 1.428 . S
C759 N758 1.351 . S
C759 C760 1.434 . S
C760 C751 1.429 . S
C760 N757 1.350 . S
C760 C759 1.434 . S
C761 C762 1.369 . S
C761 C763 1.419 . S
C761 H765 0.930 . S
C762 C761 1.369 . S
C762 C771 1.429 . S
C763 C761 1.419 . S
C763 C764 1.363 . S
C763 H766 0.929 . S
C764 C763 1.363 . S
C764 C770 1.428 . S
H765 C761 0.930 . S
H766 C763 0.929 . S
S767 N768 1.613 . S
S767 N769 1.610 . S
N768 S767 1.613 . S
N768 C771 1.350 . S
N769 S767 1.610 . S
N769 C770 1.351 . S
C770 C764 1.428 . S
C770 N769 1.351 . S
C770 C771 1.434 . S
C771 C762 1.429 . S
C771 N768 1.350 . S
C771 C770 1.434 . S
C772 C773 1.369 . S
C772 C774 1.419 . S
C772 H776 0.930 . S
C773 C772 1.369 . S
C773 C782 1.429 . S
C774 C772 1.419 . S
C774 C775 1.363 . S
C774 H777 0.929 . S
C775 C774 1.363 . S
C775 C781 1.428 . S
H776 C772 0.930 . S
H777 C774 0.929 . S
S778 N779 1.613 . S
S778 N780 1.610 . S
N779 S778 1.613 . S
N779 C782 1.350 . S
N780 S778 1.610 . S
N780 C781 1.351 . S
C781 C775 1.428 . S
C781 N780 1.351 . S
C781 C782 1.434 . S
C782 C773 1.429 . S
C782 N779 1.350 . S
C782 C781 1.434 . S
C783 C784 1.369 . S
C783 C785 1.419 . S
C783 H787 0.930 1_455 S
C784 C783 1.369 . S
C784 C793 1.429 . S
C785 C783 1.419 . S
C785 C786 1.363 . S
C785 H788 0.929 1_455 S
C786 C785 1.363 . S
C786 C792 1.428 . S
H787 C783 0.930 1_655 S
H788 C785 0.929 1_655 S
S789 N790 1.613 . S
S789 N791 1.610 . S
N790 S789 1.613 . S
N790 C793 1.350 . S
N791 S789 1.610 . S
N791 C792 1.351 . S
C792 C786 1.428 . S
C792 N791 1.351 . S
C792 C793 1.434 . S
C793 C784 1.429 . S
C793 N790 1.350 . S
C793 C792 1.434 . S
C794 C795 1.369 . S
C794 C796 1.419 . S
C794 H798 0.930 . S
C795 C794 1.369 . S
C795 C804 1.429 . S
C796 C794 1.419 . S
C796 C797 1.363 . S
C796 H799 0.929 . S
C797 C796 1.363 . S
C797 C803 1.428 . S
H798 C794 0.930 . S
H799 C796 0.929 . S
S800 N801 1.613 . S
S800 N802 1.610 . S
N801 S800 1.613 . S
N801 C804 1.350 . S
N802 S800 1.610 . S
N802 C803 1.351 . S
C803 C797 1.428 . S
C803 N802 1.351 . S
C803 C804 1.434 . S
C804 C795 1.429 . S
C804 N801 1.350 . S
C804 C803 1.434 . S
C805 C806 1.369 . S
C805 C807 1.419 . S
C805 H809 0.930 . S
C806 C805 1.369 . S
C806 C815 1.429 1_655 S
C807 C805 1.419 . S
C807 C808 1.363 1_655 S
C807 H810 0.929 . S
C808 C807 1.363 1_455 S
C808 C814 1.428 . S
H809 C805 0.930 . S
H810 C807 0.929 . S
S811 N812 1.613 . S
S811 N813 1.610 . S
N812 S811 1.613 . S
N812 C815 1.350 . S
N813 S811 1.610 . S
N813 C814 1.351 . S
C814 C808 1.428 . S
C814 N813 1.351 . S
C814 C815 1.434 . S
C815 C806 1.429 1_455 S
C815 N812 1.350 . S
C815 C814 1.434 . S
C816 C817 1.369 . S
C816 C818 1.419 . S
C816 H820 0.930 . S
C817 C816 1.369 . S
C817 C826 1.429 . S
C818 C816 1.419 . S
C818 C819 1.363 . S
C818 H821 0.929 . S
C819 C818 1.363 . S
C819 C825 1.428 . S
H820 C816 0.930 . S
H821 C818 0.929 . S
S822 N823 1.613 . S
S822 N824 1.610 . S
N823 S822 1.613 . S
N823 C826 1.350 . S
N824 S822 1.610 . S
N824 C825 1.351 . S
C825 C819 1.428 . S
C825 N824 1.351 . S
C825 C826 1.434 . S
C826 C817 1.429 . S
C826 N823 1.350 . S
C826 C825 1.434 . S
C827 C828 1.369 . S
C827 C829 1.419 . S
C827 H831 0.930 . S
C828 C827 1.369 . S
C828 C837 1.429 . S
C829 C827 1.419 . S
C829 C830 1.363 . S
C829 H832 0.929 . S
C830 C829 1.363 . S
C830 C836 1.428 . S
H831 C827 0.930 . S
H832 C829 0.929 . S
S833 N834 1.613 . S
S833 N835 1.610 . S
N834 S833 1.613 . S
N834 C837 1.350 . S
N835 S833 1.610 . S
N835 C836 1.351 . S
C836 C830 1.428 . S
C836 N835 1.351 . S
C836 C837 1.434 . S
C837 C828 1.429 . S
C837 N834 1.350 . S
C837 C836 1.434 . S
C838 C839 1.369 1_565 S
C838 C840 1.419 . S
C838 H842 0.930 . S
C839 C838 1.369 1_545 S
C839 C848 1.429 1_554 S
C840 C838 1.419 . S
C840 C841 1.363 1_554 S
C840 H843 0.929 . S
C841 C840 1.363 1_556 S
C841 C847 1.428 1_565 S
H842 C838 0.930 . S
H843 C840 0.929 . S
S844 N845 1.613 . S
S844 N846 1.610 . S
N845 S844 1.613 . S
N845 C848 1.350 . S
N846 S844 1.610 . S
N846 C847 1.351 . S
C847 C841 1.428 1_545 S
C847 N846 1.351 . S
C847 C848 1.434 . S
C848 C839 1.429 1_556 S
C848 N845 1.350 . S
C848 C847 1.434 . S
C849 C850 1.369 . S
C849 C851 1.419 . S
C849 H853 0.930 . S
C850 C849 1.369 . S
C850 C859 1.429 . S
C851 C849 1.419 . S
C851 C852 1.363 . S
C851 H854 0.929 . S
C852 C851 1.363 . S
C852 C858 1.428 . S
H853 C849 0.930 . S
H854 C851 0.929 . S
S855 N856 1.613 . S
S855 N857 1.610 . S
N856 S855 1.613 . S
N856 C859 1.350 . S
N857 S855 1.610 . S
N857 C858 1.351 . S
C858 C852 1.428 . S
C858 N857 1.351 . S
C858 C859 1.434 . S
C859 C850 1.429 . S
C859 N856 1.350 . S
C859 C858 1.434 . S
C860 C861 1.369 . S
C860 C862 1.419 . S
C860 H864 0.930 . S
C861 C860 1.369 . S
C861 C870 1.429 . S
C862 C860 1.419 . S
C862 C863 1.363 . S
C862 H865 0.929 . S
C863 C862 1.363 . S
C863 C869 1.428 . S
H864 C860 0.930 . S
H865 C862 0.929 . S
S866 N867 1.613 . S
S866 N868 1.610 1_565 S
N867 S866 1.613 . S
N867 C870 1.350 1_565 S
N868 S866 1.610 1_545 S
N868 C869 1.351 . S
C869 C863 1.428 . S
C869 N868 1.351 . S
C869 C870 1.434 . S
C870 C861 1.429 . S
C870 N867 1.350 1_545 S
C870 C869 1.434 . S
C871 C872 1.369 . S
C871 C873 1.419 . S
C871 H875 0.930 . S
C872 C871 1.369 . S
C872 C881 1.429 . S
C873 C871 1.419 . S
C873 C874 1.363 . S
C873 H876 0.929 . S
C874 C873 1.363 . S
C874 C880 1.428 . S
H875 C871 0.930 . S
H876 C873 0.929 . S
S877 N878 1.613 . S
S877 N879 1.610 . S
N878 S877 1.613 . S
N878 C881 1.350 . S
N879 S877 1.610 . S
N879 C880 1.351 . S
C880 C874 1.428 . S
C880 N879 1.351 . S
C880 C881 1.434 . S
C881 C872 1.429 . S
C881 N878 1.350 . S
C881 C880 1.434 . S
C882 C883 1.369 . S
C882 C884 1.419 . S
C882 H886 0.930 . S
C883 C882 1.369 . S
C883 C892 1.429 . S
C884 C882 1.419 . S
C884 C885 1.363 . S
C884 H887 0.929 . S
C885 C884 1.363 . S
C885 C891 1.428 . S
H886 C882 0.930 . S
H887 C884 0.929 . S
S888 N889 1.613 . S
S888 N890 1.610 1_565 S
N889 S888 1.613 . S
N889 C892 1.350 1_565 S
N890 S888 1.610 1_545 S
N890 C891 1.351 . S
C891 C885 1.428 . S
C891 N890 1.351 . S
C891 C892 1.434 . S
C892 C883 1.429 . S
C892 N889 1.350 1_545 S
C892 C891 1.434 . S
C893 C894 1.369 . S
C893 C895 1.419 . S
C893 H897 0.930 . S
C894 C893 1.369 . S
C894 C903 1.429 . S
C895 C893 1.419 . S
C895 C896 1.363 . S
C895 H898 0.929 . S
C896 C895 1.363 . S
C896 C902 1.428 . S
H897 C893 0.930 . S
H898 C895 0.929 . S
S899 N900 1.613 . S
S899 N901 1.610 . S
N900 S899 1.613 . S
N900 C903 1.350 . S
N901 S899 1.610 . S
N901 C902 1.351 . S
C902 C896 1.428 . S
C902 N901 1.351 . S
C902 C903 1.434 . S
C903 C894 1.429 . S
C903 N900 1.350 . S
C903 C902 1.434 . S
C904 C905 1.369 . S
C904 C906 1.419 . S
C904 H908 0.930 . S
C905 C904 1.369 . S
C905 C914 1.429 . S
C906 C904 1.419 . S
C906 C907 1.363 . S
C906 H909 0.929 . S
C907 C906 1.363 . S
C907 C913 1.428 . S
H908 C904 0.930 . S
H909 C906 0.929 . S
S910 N911 1.613 . S
S910 N912 1.610 . S
N911 S910 1.613 . S
N911 C914 1.350 . S
N912 S910 1.610 . S
N912 C913 1.351 . S
C913 C907 1.428 . S
C913 N912 1.351 . S
C913 C914 1.434 . S
C914 C905 1.429 . S
C914 N911 1.350 . S
C914 C913 1.434 . S
C915 C916 1.369 . S
C915 C917 1.419 1_545 S
C915 H919 0.930 1_545 S
C916 C915 1.369 . S
C916 C925 1.429 . S
C917 C915 1.419 1_565 S
C917 C918 1.363 1_565 S
C917 H920 0.929 . S
C918 C917 1.363 1_545 S
C918 C924 1.428 . S
H919 C915 0.930 1_565 S
H920 C917 0.929 . S
S921 N922 1.613 . S
S921 N923 1.610 . S
N922 S921 1.613 . S
N922 C925 1.350 . S
N923 S921 1.610 . S
N923 C924 1.351 . S
C924 C918 1.428 . S
C924 N923 1.351 . S
C924 C925 1.434 . S
C925 C916 1.429 . S
C925 N922 1.350 . S
C925 C924 1.434 . S
C926 C927 1.369 . S
C926 C928 1.419 . S
C926 H930 0.930 . S
C927 C926 1.369 . S
C927 C936 1.429 . S
C928 C926 1.419 . S
C928 C929 1.363 . S
C928 H931 0.929 . S
C929 C928 1.363 . S
C929 C935 1.428 . S
H930 C926 0.930 . S
H931 C928 0.929 . S
S932 N933 1.613 . S
S932 N934 1.610 . S
N933 S932 1.613 . S
N933 C936 1.350 . S
N934 S932 1.610 . S
N934 C935 1.351 . S
C935 C929 1.428 . S
C935 N934 1.351 . S
C935 C936 1.434 . S
C936 C927 1.429 . S
C936 N933 1.350 . S
C936 C935 1.434 . S
C937 C938 1.369 . S
C937 C939 1.419 . S
C937 H941 0.930 . S
C938 C937 1.369 . S
C938 C947 1.429 . S
C939 C937 1.419 . S
C939 C940 1.363 . S
C939 H942 0.929 . S
C940 C939 1.363 . S
C940 C946 1.428 . S
H941 C937 0.930 . S
H942 C939 0.929 . S
S943 N944 1.613 . S
S943 N945 1.610 . S
N944 S943 1.613 . S
N944 C947 1.350 . S
N945 S943 1.610 . S
N945 C946 1.351 . S
C946 C940 1.428 . S
C946 N945 1.351 . S
C946 C947 1.434 . S
C947 C938 1.429 . S
C947 N944 1.350 . S
C947 C946 1.434 . S
C948 C949 1.369 . S
C948 C950 1.419 . S
C948 H952 0.930 . S
C949 C948 1.369 . S
C949 C958 1.429 . S
C950 C948 1.419 . S
C950 C951 1.363 . S
C950 H953 0.929 . S
C951 C950 1.363 . S
C951 C957 1.428 . S
H952 C948 0.930 . S
H953 C950 0.929 . S
S954 N955 1.613 . S
S954 N956 1.610 . S
N955 S954 1.613 . S
N955 C958 1.350 . S
N956 S954 1.610 . S
N956 C957 1.351 . S
C957 C951 1.428 . S
C957 N956 1.351 . S
C957 C958 1.434 . S
C958 C949 1.429 . S
C958 N955 1.350 . S
C958 C957 1.434 . S
C959 C960 1.381 . S
C959 C961 1.417 . S
C959 H963 0.915 1_545 S
C960 C959 1.381 . S
C960 C969 1.429 . S
C961 C959 1.417 . S
C961 C962 1.387 . S
C961 H964 0.909 1_545 S
C962 C961 1.387 . S
C962 C968 1.428 . S
H963 C959 0.915 1_565 S
H964 C961 0.909 1_565 S
S965 N966 1.613 . S
S965 N967 1.610 . S
N966 S965 1.613 . S
N966 C969 1.350 . S
N967 S965 1.610 . S
N967 C968 1.351 . S
C968 C962 1.428 . S
C968 N967 1.351 . S
C968 C969 1.434 . S
C969 C960 1.429 . S
C969 N966 1.350 . S
C969 C968 1.434 . S
C970 C971 1.369 . S
C970 C972 1.419 . S
C970 H974 0.930 . S
C971 C970 1.369 . S
C971 C980 1.429 . S
C972 C970 1.419 . S
C972 C973 1.363 . S
C972 H975 0.929 . S
C973 C972 1.363 . S
C973 C979 1.428 . S
H974 C970 0.930 . S
H975 C972 0.929 . S
S976 N977 1.613 . S
S976 N978 1.610 . S
N977 S976 1.613 . S
N977 C980 1.350 . S
N978 S976 1.610 . S
N978 C979 1.351 . S
C979 C973 1.428 . S
C979 N978 1.351 . S
C979 C980 1.434 . S
C980 C971 1.429 . S
C980 N977 1.350 . S
C980 C979 1.434 . S
C981 C982 1.369 . S
C981 C983 1.419 . S
C981 H985 0.930 1_455 S
C982 C981 1.369 . S
C982 C991 1.429 . S
C983 C981 1.419 . S
C983 C984 1.363 . S
C983 H986 0.929 . S
C984 C983 1.363 . S
C984 C990 1.428 . S
H985 C981 0.930 1_655 S
H986 C983 0.929 . S
S987 N988 1.613 . S
S987 N989 1.610 . S
N988 S987 1.613 . S
N988 C991 1.350 . S
N989 S987 1.610 . S
N989 C990 1.351 . S
C990 C984 1.428 . S
C990 N989 1.351 . S
C990 C991 1.434 . S
C991 C982 1.429 . S
C991 N988 1.350 . S
C991 C990 1.434 . S
C992 C993 1.369 . S
C992 C994 1.419 . S
C992 H996 0.930 . S
C993 C992 1.369 . S
C993 C1002 1.429 . S
C994 C992 1.419 . S
C994 C995 1.363 . S
C994 H997 0.929 . S
C995 C994 1.363 . S
C995 C1001 1.428 . S
H996 C992 0.930 . S
H997 C994 0.929 . S
S998 N999 1.613 . S
S998 N1000 1.610 . S
N999 S998 1.613 . S
N999 C1002 1.350 . S
N1000 S998 1.610 . S
N1000 C1001 1.351 . S
C1001 C995 1.428 . S
C1001 N1000 1.351 . S
C1001 C1002 1.434 . S
C1002 C993 1.429 . S
C1002 N999 1.350 . S
C1002 C1001 1.434 . S
C1003 C1004 1.369 . S
C1003 C1005 1.419 . S
C1003 H1007 0.930 . S
C1004 C1003 1.369 . S
C1004 C1013 1.429 1_655 S
C1005 C1003 1.419 . S
C1005 C1006 1.363 . S
C1005 H1008 0.929 . S
C1006 C1005 1.363 . S
C1006 C1012 1.428 1_655 S
H1007 C1003 0.930 . S
H1008 C1005 0.929 . S
S1009 N1010 1.613 . S
S1009 N1011 1.610 1_554 S
N1010 S1009 1.613 . S
N1010 C1013 1.350 1_554 S
N1011 S1009 1.610 1_556 S
N1011 C1012 1.351 . S
C1012 C1006 1.428 1_455 S
C1012 N1011 1.351 . S
C1012 C1013 1.434 . S
C1013 C1004 1.429 1_455 S
C1013 N1010 1.350 1_556 S
C1013 C1012 1.434 . S
C1014 C1015 1.369 . S
C1014 C1016 1.419 . S
C1014 H1018 0.930 . S
C1015 C1014 1.369 . S
C1015 C1024 1.429 . S
C1016 C1014 1.419 . S
C1016 C1017 1.363 . S
C1016 H1019 0.929 . S
C1017 C1016 1.363 . S
C1017 C1023 1.428 . S
H1018 C1014 0.930 . S
H1019 C1016 0.929 . S
S1020 N1021 1.613 . S
S1020 N1022 1.610 . S
N1021 S1020 1.613 . S
N1021 C1024 1.350 . S
N1022 S1020 1.610 . S
N1022 C1023 1.351 . S
C1023 C1017 1.428 . S
C1023 N1022 1.351 . S
C1023 C1024 1.434 . S
C1024 C1015 1.429 . S
C1024 N1021 1.350 . S
C1024 C1023 1.434 . S
C1025 C1026 1.368 1_554 S
C1025 C1027 1.418 1_554 S
C1025 H1029 0.931 . S
C1026 C1025 1.368 1_556 S
C1026 C1035 1.429 . S
C1027 C1025 1.418 1_556 S
C1027 C1028 1.364 . S
C1027 H1030 0.929 . S
C1028 C1027 1.364 . S
C1028 C1034 1.435 . S
H1029 C1025 0.931 . S
H1030 C1027 0.929 . S
S1031 N1032 1.613 . S
S1031 N1033 1.610 . S
N1032 S1031 1.613 . S
N1032 C1035 1.350 . S
N1033 S1031 1.610 . S
N1033 C1034 1.351 . S
C1034 C1028 1.435 . S
C1034 N1033 1.351 . S
C1034 C1035 1.434 . S
C1035 C1026 1.429 . S
C1035 N1032 1.350 . S
C1035 C1034 1.434 . S
C1036 C1037 1.369 . S
C1036 C1038 1.419 . S
C1036 H1040 0.930 . S
C1037 C1036 1.369 . S
C1037 C1046 1.429 . S
C1038 C1036 1.419 . S
C1038 C1039 1.363 . S
C1038 H1041 0.929 . S
C1039 C1038 1.363 . S
C1039 C1045 1.428 . S
H1040 C1036 0.930 . S
H1041 C1038 0.929 . S
S1042 N1043 1.613 . S
S1042 N1044 1.610 . S
N1043 S1042 1.613 . S
N1043 C1046 1.350 . S
N1044 S1042 1.610 . S
N1044 C1045 1.351 . S
C1045 C1039 1.428 . S
C1045 N1044 1.351 . S
C1045 C1046 1.434 . S
C1046 C1037 1.429 . S
C1046 N1043 1.350 . S
C1046 C1045 1.434 . S
C1047 C1048 1.369 . S
C1047 C1049 1.419 . S
C1047 H1051 0.930 . S
C1048 C1047 1.369 . S
C1048 C1057 1.429 . S
C1049 C1047 1.419 . S
C1049 C1050 1.363 . S
C1049 H1052 0.929 . S
C1050 C1049 1.363 . S
C1050 C1056 1.428 . S
H1051 C1047 0.930 . S
H1052 C1049 0.929 . S
S1053 N1054 1.613 . S
S1053 N1055 1.610 . S
N1054 S1053 1.613 . S
N1054 C1057 1.350 . S
N1055 S1053 1.610 . S
N1055 C1056 1.351 . S
C1056 C1050 1.428 . S
C1056 N1055 1.351 . S
C1056 C1057 1.434 . S
C1057 C1048 1.429 . S
C1057 N1054 1.350 . S
C1057 C1056 1.434 . S
C1058 C1059 1.369 . S
C1058 C1060 1.419 . S
C1058 H1062 0.930 . S
C1059 C1058 1.369 . S
C1059 C1068 1.429 . S
C1060 C1058 1.419 . S
C1060 C1061 1.363 . S
C1060 H1063 0.929 . S
C1061 C1060 1.363 . S
C1061 C1067 1.428 . S
H1062 C1058 0.930 . S
H1063 C1060 0.929 . S
S1064 N1065 1.613 . S
S1064 N1066 1.610 . S
N1065 S1064 1.613 . S
N1065 C1068 1.350 . S
N1066 S1064 1.610 . S
N1066 C1067 1.351 . S
C1067 C1061 1.428 . S
C1067 N1066 1.351 . S
C1067 C1068 1.434 . S
C1068 C1059 1.429 . S
C1068 N1065 1.350 . S
C1068 C1067 1.434 . S
C1069 C1070 1.369 . S
C1069 C1071 1.419 . S
C1069 H1073 0.930 . S
C1070 C1069 1.369 . S
C1070 C1079 1.429 . S
C1071 C1069 1.419 . S
C1071 C1072 1.363 . S
C1071 H1074 0.929 . S
C1072 C1071 1.363 . S
C1072 C1078 1.428 . S
H1073 C1069 0.930 . S
H1074 C1071 0.929 . S
S1075 N1076 1.613 . S
S1075 N1077 1.610 1_556 S
N1076 S1075 1.613 . S
N1076 C1079 1.350 1_556 S
N1077 S1075 1.610 1_554 S
N1077 C1078 1.351 . S
C1078 C1072 1.428 . S
C1078 N1077 1.351 . S
C1078 C1079 1.434 . S
C1079 C1070 1.429 . S
C1079 N1076 1.350 1_554 S
C1079 C1078 1.434 . S
C1080 C1081 1.369 . S
C1080 C1082 1.419 . S
C1080 H1084 0.930 . S
C1081 C1080 1.369 . S
C1081 C1090 1.429 . S
C1082 C1080 1.419 . S
C1082 C1083 1.363 . S
C1082 H1085 0.929 . S
C1083 C1082 1.363 . S
C1083 C1089 1.428 . S
H1084 C1080 0.930 . S
H1085 C1082 0.929 . S
S1086 N1087 1.613 . S
S1086 N1088 1.610 . S
N1087 S1086 1.613 . S
N1087 C1090 1.350 . S
N1088 S1086 1.610 . S
N1088 C1089 1.351 . S
C1089 C1083 1.428 . S
C1089 N1088 1.351 . S
C1089 C1090 1.434 . S
C1090 C1081 1.429 . S
C1090 N1087 1.350 . S
C1090 C1089 1.434 . S
C1091 C1092 1.369 . S
C1091 C1093 1.419 . S
C1091 H1095 0.930 . S
C1092 C1091 1.369 . S
C1092 C1101 1.429 . S
C1093 C1091 1.419 . S
C1093 C1094 1.363 . S
C1093 H1096 0.929 . S
C1094 C1093 1.363 . S
C1094 C1100 1.428 . S
H1095 C1091 0.930 . S
H1096 C1093 0.929 . S
S1097 N1098 1.613 . S
S1097 N1099 1.610 . S
N1098 S1097 1.613 . S
N1098 C1101 1.350 . S
N1099 S1097 1.610 . S
N1099 C1100 1.351 . S
C1100 C1094 1.428 . S
C1100 N1099 1.351 . S
C1100 C1101 1.434 . S
C1101 C1092 1.429 . S
C1101 N1098 1.350 . S
C1101 C1100 1.434 . S
C1102 C1103 1.369 . S
C1102 C1104 1.419 . S
C1102 H1106 0.930 . S
C1103 C1102 1.369 . S
C1103 C1112 1.429 . S
C1104 C1102 1.419 . S
C1104 C1105 1.363 . S
C1104 H1107 0.929 . S
C1105 C1104 1.363 . S
C1105 C1111 1.428 . S
H1106 C1102 0.930 . S
H1107 C1104 0.929 . S
S1108 N1109 1.613 . S
S1108 N1110 1.610 . S
N1109 S1108 1.613 . S
N1109 C1112 1.350 . S
N1110 S1108 1.610 . S
N1110 C1111 1.351 . S
C1111 C1105 1.428 . S
C1111 N1110 1.351 . S
C1111 C1112 1.434 . S
C1112 C1103 1.429 . S
C1112 N1109 1.350 . S
C1112 C1111 1.434 . S
C1113 C1114 1.369 . S
C1113 C1115 1.419 . S
C1113 H1117 0.930 . S
C1114 C1113 1.369 . S
C1114 C1123 1.429 . S
C1115 C1113 1.419 . S
C1115 C1116 1.363 . S
C1115 H1118 0.929 . S
C1116 C1115 1.363 . S
C1116 C1122 1.428 . S
H1117 C1113 0.930 . S
H1118 C1115 0.929 . S
S1119 N1120 1.613 . S
S1119 N1121 1.610 . S
N1120 S1119 1.613 . S
N1120 C1123 1.350 . S
N1121 S1119 1.610 . S
N1121 C1122 1.351 . S
C1122 C1116 1.428 . S
C1122 N1121 1.351 . S
C1122 C1123 1.434 . S
C1123 C1114 1.429 . S
C1123 N1120 1.350 . S
C1123 C1122 1.434 . S
C1124 C1125 1.369 1_554 S
C1124 C1126 1.419 . S
C1124 H1128 0.930 . S
C1125 C1124 1.369 1_556 S
C1125 C1134 1.429 . S
C1126 C1124 1.419 . S
C1126 C1127 1.363 . S
C1126 H1129 0.929 . S
C1127 C1126 1.363 . S
C1127 C1133 1.428 1_554 S
H1128 C1124 0.930 . S
H1129 C1126 0.929 . S
S1130 N1131 1.613 . S
S1130 N1132 1.610 . S
N1131 S1130 1.613 . S
N1131 C1134 1.350 . S
N1132 S1130 1.610 . S
N1132 C1133 1.351 . S
C1133 C1127 1.428 1_556 S
C1133 N1132 1.351 . S
C1133 C1134 1.434 . S
C1134 C1125 1.429 . S
C1134 N1131 1.350 . S
C1134 C1133 1.434 . S
C1135 C1136 1.369 . S
C1135 C1137 1.419 . S
C1135 H1139 0.930 . S
C1136 C1135 1.369 . S
C1136 C1145 1.429 . S
C1137 C1135 1.419 . S
C1137 C1138 1.363 . S
C1137 H1140 0.929 . S
C1138 C1137 1.363 . S
C1138 C1144 1.428 . S
H1139 C1135 0.930 . S
H1140 C1137 0.929 . S
S1141 N1142 1.613 . S
S1141 N1143 1.610 . S
N1142 S1141 1.613 . S
N1142 C1145 1.350 . S
N1143 S1141 1.610 . S
N1143 C1144 1.351 . S
C1144 C1138 1.428 . S
C1144 N1143 1.351 . S
C1144 C1145 1.434 . S
C1145 C1136 1.429 . S
C1145 N1142 1.350 . S
C1145 C1144 1.434 . S
C1146 C1147 1.369 . S
C1146 C1148 1.419 . S
C1146 H1150 0.930 . S
C1147 C1146 1.369 . S
C1147 C1156 1.429 . S
C1148 C1146 1.419 . S
C1148 C1149 1.363 . S
C1148 H1151 0.929 . S
C1149 C1148 1.363 . S
C1149 C1155 1.428 . S
H1150 C1146 0.930 . S
H1151 C1148 0.929 . S
S1152 N1153 1.613 . S
S1152 N1154 1.610 . S
N1153 S1152 1.613 . S
N1153 C1156 1.350 . S
N1154 S1152 1.610 . S
N1154 C1155 1.351 . S
C1155 C1149 1.428 . S
C1155 N1154 1.351 . S
C1155 C1156 1.434 . S
C1156 C1147 1.429 . S
C1156 N1153 1.350 . S
C1156 C1155 1.434 . S
C1157 C1158 1.369 . S
C1157 C1159 1.415 1_554 S
C1157 H1161 0.930 . S
C1158 C1157 1.369 . S
C1158 C1167 1.429 . S
C1159 C1157 1.415 1_556 S
C1159 C1160 1.362 1_556 S
C1159 H1162 0.935 . S
C1160 C1159 1.362 1_554 S
C1160 C1166 1.428 . S
H1161 C1157 0.930 . S
H1162 C1159 0.935 . S
S1163 N1164 1.613 . S
S1163 N1165 1.610 . S
N1164 S1163 1.613 . S
N1164 C1167 1.350 1_545 S
N1165 S1163 1.610 . S
N1165 C1166 1.351 1_545 S
C1166 C1160 1.428 . S
C1166 N1165 1.351 1_565 S
C1166 C1167 1.434 . S
C1167 C1158 1.429 . S
C1167 N1164 1.350 1_565 S
C1167 C1166 1.434 . S
C643 C210 1.635 . S
C641 C73 1.641 . S
C654 C258 1.384 . S
C652 C82 1.386 . S
C663 C100 1.757 . S
C665 C294 1.637 . S
C676 C330 1.404 . S
C674 C56 1.437 . S
C687 C356 1.407 . S
C685 C134 1.441 . S
C698 C392 1.667 . S
C696 C165 1.671 . S
C707 C147 1.251 . S
C709 C427 1.324 . S
C720 C464 1.810 . S
C718 C125 1.826 . S
C729 C151 1.378 . S
C731 C498 1.375 . S
C742 C546 1.476 . S
C740 C121 1.514 . S
C751 C139 1.668 . S
C753 C499 1.676 . S
C764 C536 1.470 . S
C762 C164 1.472 . S
C773 C95 1.360 . S
C775 C582 1.385 . S
C784 C61 1.544 . S
C786 C571 1.546 . S
C795 C74 1.431 . S
C797 C572 1.427 . S
C806 C86 1.781 . S
C808 C570 1.772 . S
C817 C47 1.383 . S
C819 C318 1.385 . S
C828 C186 1.247 . S
C830 C319 1.322 . S
C841 C222 1.622 . S
C839 C204 1.640 . S
C852 C247 1.798 . S
C850 C112 1.794 . S
C861 C60 1.516 . S
C863 C354 1.516 . S
C874 C462 1.419 . S
C872 C152 1.410 . S
C885 C355 1.829 . S
C883 C126 1.830 1_545 S
C896 C428 1.445 . S
C894 C160 1.440 . S
C907 C426 1.632 . S
C905 C190 1.643 . S
C916 C199 1.380 . S
C918 C474 1.374 . S
C927 C113 1.757 . S
C929 C366 1.636 . S
C940 C402 1.401 . S
C938 C173 1.440 . S
C949 C43 1.441 . S
C951 C284 1.406 . S
C962 C320 1.668 . S
C960 C9 1.669 1_655 S
C973 C211 1.324 . S
C971 C17 1.251 . S
C984 C248 1.812 . S
C982 C34 1.825 . S
C993 C21 1.383 . S
C995 C534 1.370 . S
C1004 C30 1.513 . S
C1006 C510 1.478 . S
C1015 C48 1.666 . S
C1017 C535 1.677 . S
C1026 C8 1.472 1_556 S
C1028 C500 1.463 1_455 S
C1039 C618 1.386 . S
C1037 C108 1.366 . S
C1050 C607 1.546 . S
C1048 C178 1.544 1_554 S
C1061 C608 1.425 . S
C1059 C191 1.431 . S
C1070 C203 1.779 . S
C1072 C606 1.772 . S
C1081 C138 1.380 . S
C1083 C390 1.386 . S
C1094 C391 1.322 . S
C1092 C69 1.242 . S
C1105 C438 1.623 . S
C1103 C87 1.640 . S
C1116 C463 1.797 . S
C1114 C99 1.798 . S
C1125 C177 1.517 . S
C1127 C282 1.516 . S
C1138 C246 1.417 . S
C1136 C22 1.414 . S
C1147 C35 1.829 . S
C1149 C283 1.829 . S
C1160 C212 1.448 1_554 S
C1158 C4 1.445 . S
