# Generated by pormake.
# Topology ssb, (4,4)-cn, num edge types: 1
# Building blocks:
#     Node 0, Type 0, BuildingBlock: AZAVOO_clean_linker_0, # of connection points: 4
#     Node 1, Type 0, BuildingBlock: AZAVOO_clean_linker_0, # of connection points: 4
#     Node 2, Type 0, BuildingBlock: AZAVOO_clean_linker_0, # of connection points: 4
#     Node 3, Type 0, BuildingBlock: AZAVOO_clean_linker_0, # of connection points: 4
#     Node 4, Type 0, BuildingBlock: AZAVOO_clean_linker_0, # of connection points: 4
#     Node 5, Type 0, BuildingBlock: AZAVOO_clean_linker_0, # of connection points: 4
#     Node 6, Type 0, BuildingBlock: AZAVOO_clean_linker_0, # of connection points: 4
#     Node 7, Type 0, BuildingBlock: AZAVOO_clean_linker_0, # of connection points: 4
#     Node 8, Type 1, BuildingBlock: KOZSID_clean_sbu_0, # of connection points: 4
#     Node 9, Type 1, BuildingBlock: KOZSID_clean_sbu_0, # of connection points: 4
#     Node 10, Type 1, BuildingBlock: KOZSID_clean_sbu_0, # of connection points: 4
#     Node 11, Type 1, BuildingBlock: KOZSID_clean_sbu_0, # of connection points: 4
#     Node 12, Type 1, BuildingBlock: KOZSID_clean_sbu_0, # of connection points: 4
#     Node 13, Type 1, BuildingBlock: KOZSID_clean_sbu_0, # of connection points: 4
#     Node 14, Type 1, BuildingBlock: KOZSID_clean_sbu_0, # of connection points: 4
#     Node 15, Type 1, BuildingBlock: KOZSID_clean_sbu_0, # of connection points: 4
#     Edge 16, Type (0, 1), BuildingBlock: EZIPEK_clean_linker_0, # of connection points: 2
#     Edge 17, Type (0, 1), BuildingBlock: EZIPEK_clean_linker_0, # of connection points: 2
#     Edge 18, Type (0, 1), BuildingBlock: EZIPEK_clean_linker_0, # of connection points: 2
#     Edge 19, Type (0, 1), BuildingBlock: EZIPEK_clean_linker_0, # of connection points: 2
#     Edge 20, Type (0, 1), BuildingBlock: EZIPEK_clean_linker_0, # of connection points: 2
#     Edge 21, Type (0, 1), BuildingBlock: EZIPEK_clean_linker_0, # of connection points: 2
#     Edge 22, Type (0, 1), BuildingBlock: EZIPEK_clean_linker_0, # of connection points: 2
#     Edge 23, Type (0, 1), BuildingBlock: EZIPEK_clean_linker_0, # of connection points: 2
#     Edge 24, Type (0, 1), BuildingBlock: EZIPEK_clean_linker_0, # of connection points: 2
#     Edge 25, Type (0, 1), BuildingBlock: EZIPEK_clean_linker_0, # of connection points: 2
#     Edge 26, Type (0, 1), BuildingBlock: EZIPEK_clean_linker_0, # of connection points: 2
#     Edge 27, Type (0, 1), BuildingBlock: EZIPEK_clean_linker_0, # of connection points: 2
#     Edge 28, Type (0, 1), BuildingBlock: EZIPEK_clean_linker_0, # of connection points: 2
#     Edge 29, Type (0, 1), BuildingBlock: EZIPEK_clean_linker_0, # of connection points: 2
#     Edge 30, Type (0, 1), BuildingBlock: EZIPEK_clean_linker_0, # of connection points: 2
#     Edge 31, Type (0, 1), BuildingBlock: EZIPEK_clean_linker_0, # of connection points: 2
#     Edge 32, Type (0, 1), BuildingBlock: EZIPEK_clean_linker_0, # of connection points: 2
#     Edge 33, Type (0, 1), BuildingBlock: EZIPEK_clean_linker_0, # of connection points: 2
#     Edge 34, Type (0, 1), BuildingBlock: EZIPEK_clean_linker_0, # of connection points: 2
#     Edge 35, Type (0, 1), BuildingBlock: EZIPEK_clean_linker_0, # of connection points: 2
#     Edge 36, Type (0, 1), BuildingBlock: EZIPEK_clean_linker_0, # of connection points: 2
#     Edge 37, Type (0, 1), BuildingBlock: EZIPEK_clean_linker_0, # of connection points: 2
#     Edge 38, Type (0, 1), BuildingBlock: EZIPEK_clean_linker_0, # of connection points: 2
#     Edge 39, Type (0, 1), BuildingBlock: EZIPEK_clean_linker_0, # of connection points: 2
#     Edge 40, Type (0, 1), BuildingBlock: EZIPEK_clean_linker_0, # of connection points: 2
#     Edge 41, Type (0, 1), BuildingBlock: EZIPEK_clean_linker_0, # of connection points: 2
#     Edge 42, Type (0, 1), BuildingBlock: EZIPEK_clean_linker_0, # of connection points: 2
#     Edge 43, Type (0, 1), BuildingBlock: EZIPEK_clean_linker_0, # of connection points: 2
#     Edge 44, Type (0, 1), BuildingBlock: EZIPEK_clean_linker_0, # of connection points: 2
#     Edge 45, Type (0, 1), BuildingBlock: EZIPEK_clean_linker_0, # of connection points: 2
#     Edge 46, Type (0, 1), BuildingBlock: EZIPEK_clean_linker_0, # of connection points: 2
#     Edge 47, Type (0, 1), BuildingBlock: EZIPEK_clean_linker_0, # of connection points: 2
# Relax obj value: 0.053
# Max RMSD: 0.301
# Mean RMSD: 0.113
data_MOF--net-ssb--node1-KOZSID_clean_sbu_0--node2-AZAVOO_clean_linker_0--edge1-EZIPEK_clean_linker_0
_symmetry_space_group_name_H-M    P1
_symmetry_Int_Tables_number       1
_symmetry_cell_setting            triclinic
loop_
_symmetry_equiv_pos_as_xyz
'x, y, z'
_cell_length_a     47.796805
_cell_length_b     48.880981
_cell_length_c     35.139304
_cell_angle_alpha  95.946359
_cell_angle_beta   95.967009
_cell_angle_gamma 90.337707
loop_
_atom_site_label
_atom_site_type_symbol
_atom_site_fract_x
_atom_site_fract_y
_atom_site_fract_z
_atom_type_partial_charge
H0 H 0.12534 0.52112 0.29403 0.0
H1 H 0.37202 0.43369 0.08253 0.0
H2 H 0.22479 0.41635 0.34457 0.0
H3 H 0.18273 0.41255 0.37833 0.0
H4 H 0.15031 0.34714 0.29297 0.0
H5 H 0.19274 0.35074 0.25933 0.0
H6 H 0.23257 0.46396 0.29502 0.0
H7 H 0.19226 0.49421 0.30094 0.0
H8 H 0.1391 0.43344 0.22889 0.0
H9 H 0.17962 0.40348 0.22308 0.0
H10 H 0.28728 0.46584 0.25058 0.0
H11 H 0.2881 0.50592 0.21371 0.0
H12 H 0.22063 0.4695 0.13315 0.0
H13 H 0.21994 0.42927 0.16992 0.0
H14 H 0.32971 0.42189 0.25538 0.0
H15 H 0.36582 0.43562 0.21619 0.0
H16 H 0.31106 0.40896 0.113 0.0
H17 H 0.27499 0.39577 0.15257 0.0
H18 H 0.32457 0.36811 0.30053 0.0
H19 H 0.3687 0.34634 0.28383 0.0
H20 H 0.33028 0.32318 0.16831 0.0
H21 H 0.28621 0.34399 0.18528 0.0
H22 H 0.25874 0.36965 0.35201 0.0
H23 H 0.25976 0.32958 0.38864 0.0
H24 H 0.26514 0.27612 0.28422 0.0
H25 H 0.2614 0.31601 0.24703 0.0
O26 O 0.14107 0.50901 0.29087 0.0
O27 O 0.11459 0.47695 0.25408 0.0
O28 O 0.38585 0.44092 0.15261 0.0
O29 O 0.35811 0.42848 0.0987 0.0
C30 C 0.23484 0.38915 0.2764 0.0
C31 C 0.23325 0.41293 0.25616 0.0
C32 C 0.25475 0.41913 0.23373 0.0
C33 C 0.27742 0.40098 0.23062 0.0
C34 C 0.27878 0.37677 0.24998 0.0
C35 C 0.25777 0.3709 0.27387 0.0
C36 C 0.2118 0.38368 0.29976 0.0
C37 C 0.2089 0.4008 0.33364 0.0
C38 C 0.18495 0.39875 0.35267 0.0
C39 C 0.16354 0.37966 0.33793 0.0
C40 C 0.16674 0.36194 0.30465 0.0
C41 C 0.19089 0.36385 0.28574 0.0
C42 C 0.20895 0.43156 0.25871 0.0
C43 C 0.21222 0.45732 0.28039 0.0
C44 C 0.18915 0.4745 0.28378 0.0
C45 C 0.16243 0.4662 0.26548 0.0
C46 C 0.15937 0.44045 0.24339 0.0
C47 C 0.18244 0.42329 0.24006 0.0
C48 C 0.25357 0.44451 0.21302 0.0
C49 C 0.27251 0.46656 0.22516 0.0
C50 C 0.27297 0.48942 0.20417 0.0
C51 C 0.25443 0.49073 0.17065 0.0
C52 C 0.23505 0.46897 0.15894 0.0
C53 C 0.23462 0.44607 0.17995 0.0
C54 C 0.29991 0.40765 0.20676 0.0
C55 C 0.32567 0.41887 0.22431 0.0
C56 C 0.34617 0.4268 0.20185 0.0
C57 C 0.34137 0.42326 0.16143 0.0
C58 C 0.31551 0.41186 0.14401 0.0
C59 C 0.29491 0.40422 0.16651 0.0
C60 C 0.30237 0.35783 0.24395 0.0
C61 C 0.32539 0.35737 0.27213 0.0
C62 C 0.35048 0.34507 0.2626 0.0
C63 C 0.35275 0.33369 0.22466 0.0
C64 C 0.32893 0.33205 0.19762 0.0
C65 C 0.30385 0.34389 0.20728 0.0
C66 C 0.25978 0.34617 0.29643 0.0
C67 C 0.25959 0.34933 0.33671 0.0
C68 C 0.26046 0.32639 0.35779 0.0
C69 C 0.2626 0.2996 0.33943 0.0
C70 C 0.26347 0.29644 0.29925 0.0
C71 C 0.2616 0.31933 0.27799 0.0
C72 C 0.13787 0.48429 0.26968 0.0
C73 C 0.36318 0.43145 0.13747 0.0
H74 H 0.63088 0.12627 0.25468 0.0
H75 H 0.83219 0.24555 0.59677 0.0
H76 H 0.72591 0.2406 0.25976 0.0
H77 H 0.69053 0.24398 0.20452 0.0
H78 H 0.65182 0.31099 0.26838 0.0
H79 H 0.68662 0.30705 0.32404 0.0
H80 H 0.73169 0.19242 0.31265 0.0
H81 H 0.69502 0.15881 0.2851 0.0
H82 H 0.63135 0.21615 0.31905 0.0
H83 H 0.6682 0.24941 0.34689 0.0
H84 H 0.78069 0.19785 0.38458 0.0
H85 H 0.77961 0.15853 0.42265 0.0
H86 H 0.69811 0.18305 0.4552 0.0
H87 H 0.69965 0.22295 0.41826 0.0
H88 H 0.81916 0.24525 0.40566 0.0
H89 H 0.84838 0.23937 0.46564 0.0
H90 H 0.77651 0.25628 0.52912 0.0
H91 H 0.74766 0.2625 0.46902 0.0
H92 H 0.81589 0.28529 0.34897 0.0
H93 H 0.8592 0.30984 0.37732 0.0
H94 H 0.81505 0.34781 0.46954 0.0
H95 H 0.77187 0.32217 0.44186 0.0
H96 H 0.76517 0.29959 0.27889 0.0
H97 H 0.76772 0.34487 0.25448 0.0
H98 H 0.73723 0.38316 0.35809 0.0
H99 H 0.73447 0.33792 0.38237 0.0
O100 O 0.64505 0.13977 0.266 0.0
O101 O 0.61315 0.17017 0.28359 0.0
O102 O 0.85729 0.23854 0.53858 0.0
O103 O 0.82106 0.24743 0.57258 0.0
C104 C 0.72755 0.26871 0.33099 0.0
C105 C 0.72488 0.2439 0.34789 0.0
C106 C 0.74295 0.23901 0.38081 0.0
C107 C 0.76368 0.25877 0.39687 0.0
C108 C 0.76666 0.28323 0.37962 0.0
C109 C 0.7481 0.2886 0.34746 0.0
C110 C 0.70877 0.27353 0.29595 0.0
C111 C 0.71003 0.25626 0.26164 0.0
C112 C 0.68998 0.25822 0.23019 0.0
C113 C 0.66869 0.27776 0.23248 0.0
C114 C 0.66823 0.29589 0.26613 0.0
C115 C 0.68808 0.29372 0.29773 0.0
C116 C 0.7026 0.22334 0.33171 0.0
C117 C 0.70981 0.1976 0.31428 0.0
C118 C 0.68882 0.17849 0.29848 0.0
C119 C 0.66024 0.18482 0.2998 0.0
C120 C 0.65314 0.21062 0.3175 0.0
C121 C 0.67414 0.22967 0.33336 0.0
C122 C 0.74033 0.21326 0.39898 0.0
C123 C 0.76247 0.19454 0.39958 0.0
C124 C 0.76183 0.17217 0.42107 0.0
C125 C 0.73882 0.16809 0.44163 0.0
C126 C 0.71598 0.18597 0.43936 0.0
C127 C 0.71681 0.20858 0.41831 0.0
C128 C 0.78138 0.25451 0.43308 0.0
C129 C 0.80983 0.24781 0.43258 0.0
C130 C 0.82643 0.24436 0.46685 0.0
C131 C 0.8148 0.24745 0.50222 0.0
C132 C 0.78617 0.25386 0.50245 0.0
C133 C 0.76963 0.25738 0.46818 0.0
C134 C 0.79088 0.30198 0.39344 0.0
C135 C 0.81544 0.29927 0.37491 0.0
C136 C 0.84008 0.31317 0.39111 0.0
C137 C 0.84034 0.33039 0.42569 0.0
C138 C 0.81525 0.33447 0.44297 0.0
C139 C 0.7907 0.32002 0.42718 0.0
C140 C 0.74964 0.3156 0.3323 0.0
C141 C 0.75898 0.31774 0.29621 0.0
C142 C 0.76047 0.34342 0.28242 0.0
C143 C 0.75262 0.36711 0.30462 0.0
C144 C 0.74332 0.36499 0.34072 0.0
C145 C 0.74182 0.33933 0.35448 0.0
C146 C 0.63799 0.16457 0.28271 0.0
C147 C 0.83241 0.24415 0.53878 0.0
H148 H 0.62945 0.94047 0.3361 0.0
H149 H 0.65516 0.64463 0.16709 0.0
H150 H 0.7476 0.86572 0.34309 0.0
H151 H 0.75046 0.9025 0.3959 0.0
H152 H 0.76604 0.84259 0.4773 0.0
H153 H 0.75784 0.80548 0.4247 0.0
H154 H 0.70261 0.853 0.28048 0.0
H155 H 0.6728 0.89264 0.29355 0.0
H156 H 0.65841 0.86454 0.40273 0.0
H157 H 0.68791 0.82472 0.38904 0.0
H158 H 0.70617 0.79058 0.21909 0.0
H159 H 0.66691 0.79946 0.17241 0.0
H160 H 0.61365 0.81456 0.26411 0.0
H161 H 0.65171 0.80053 0.31004 0.0
H162 H 0.74551 0.74897 0.22462 0.0
H163 H 0.72931 0.71024 0.1776 0.0
H164 H 0.66115 0.69483 0.24477 0.0
H165 H 0.67749 0.7337 0.29156 0.0
H166 H 0.80013 0.75944 0.2831 0.0
H167 H 0.82083 0.71611 0.25796 0.0
H168 H 0.75498 0.67043 0.29976 0.0
H169 H 0.73577 0.71334 0.32737 0.0
H170 H 0.80121 0.8236 0.33526 0.0
H171 H 0.84925 0.82498 0.3676 0.0
H172 H 0.83136 0.75177 0.42016 0.0
H173 H 0.78278 0.75099 0.38901 0.0
O174 O 0.64101 0.92453 0.3314 0.0
O175 O 0.63447 0.90932 0.38737 0.0
O176 O 0.6974 0.66893 0.15182 0.0
O177 O 0.66168 0.66037 0.1849 0.0
C178 C 0.74207 0.81026 0.34826 0.0
C179 C 0.71568 0.81191 0.326 0.0
C180 C 0.70687 0.79085 0.29631 0.0
C181 C 0.72321 0.76702 0.29105 0.0
C182 C 0.74943 0.76503 0.31336 0.0
C183 C 0.75936 0.78719 0.34078 0.0
C184 C 0.75113 0.83265 0.37978 0.0
C185 C 0.751 0.86037 0.37232 0.0
C186 C 0.75309 0.88146 0.40254 0.0
C187 C 0.75794 0.87547 0.44094 0.0
C188 C 0.76162 0.84783 0.4481 0.0
C189 C 0.75734 0.82661 0.41797 0.0
C190 C 0.6973 0.8359 0.33372 0.0
C191 C 0.69283 0.85534 0.30707 0.0
C192 C 0.67587 0.87801 0.31467 0.0
C193 C 0.66321 0.88176 0.34918 0.0
C194 C 0.6678 0.86225 0.37585 0.0
C195 C 0.68464 0.8395 0.36813 0.0
C196 C 0.682 0.79482 0.2682 0.0
C197 C 0.68574 0.79449 0.22906 0.0
C198 C 0.66341 0.80001 0.20246 0.0
C199 C 0.63739 0.80806 0.21474 0.0
C200 C 0.6335 0.80833 0.25389 0.0
C201 C 0.65531 0.80068 0.28015 0.0
C202 C 0.71281 0.74402 0.26168 0.0
C203 C 0.72712 0.73717 0.22918 0.0
C204 C 0.71783 0.71504 0.20237 0.0
C205 C 0.69409 0.69927 0.20762 0.0
C206 C 0.67957 0.70646 0.23994 0.0
C207 C 0.68881 0.72868 0.26666 0.0
C208 C 0.76617 0.73961 0.30669 0.0
C209 C 0.79087 0.74006 0.28823 0.0
C210 C 0.80249 0.71538 0.27354 0.0
C211 C 0.78891 0.69008 0.27589 0.0
C212 C 0.76558 0.68967 0.29704 0.0
C213 C 0.75464 0.71416 0.31288 0.0
C214 C 0.7885 0.78723 0.35985 0.0
C215 C 0.80757 0.80793 0.35392 0.0
C216 C 0.8349 0.80868 0.37218 0.0
C217 C 0.84368 0.78847 0.39612 0.0
C218 C 0.82482 0.76749 0.4017 0.0
C219 C 0.79727 0.767 0.38389 0.0
C220 C 0.64535 0.90598 0.35728 0.0
C221 C 0.68456 0.67533 0.17967 0.0
H222 H 0.36212 0.01115 0.3095 0.0
H223 H 0.27177 0.78923 0.00597 0.0
H224 H 0.2616 0.91078 0.3343 0.0
H225 H 0.25406 0.95574 0.36929 0.0
H226 H 0.17949 0.96605 0.29218 0.0
H227 H 0.18761 0.92137 0.25624 0.0
H228 H 0.30899 0.90172 0.28826 0.0
H229 H 0.33759 0.94392 0.30349 0.0
H230 H 0.27487 0.98768 0.23683 0.0
H231 H 0.24632 0.9454 0.2223 0.0
H232 H 0.31424 0.84895 0.23138 0.0
H233 H 0.35538 0.84737 0.19487 0.0
H234 H 0.31686 0.90602 0.12287 0.0
H235 H 0.27537 0.90729 0.15925 0.0
H236 H 0.27872 0.80489 0.1977 0.0
H237 H 0.29159 0.77951 0.1384 0.0
H238 H 0.24551 0.8374 0.07191 0.0
H239 H 0.23189 0.8619 0.13127 0.0
H240 H 0.24189 0.79618 0.24321 0.0
H241 H 0.23012 0.75354 0.20181 0.0
H242 H 0.16066 0.79339 0.14281 0.0
H243 H 0.17561 0.83716 0.1796 0.0
H244 H 0.22752 0.86213 0.33335 0.0
H245 H 0.19341 0.85066 0.37687 0.0
H246 H 0.12888 0.83899 0.28099 0.0
H247 H 0.16199 0.85415 0.2386 0.0
O248 O 0.35057 0.99467 0.30297 0.0
O249 O 0.31737 0.01634 0.26908 0.0
O250 O 0.29531 0.77355 0.06561 0.0
O251 O 0.26658 0.79856 0.02982 0.0
C252 C 0.23448 0.89051 0.2648 0.0
C253 C 0.25833 0.89502 0.24527 0.0
C254 C 0.2656 0.87535 0.21611 0.0
C255 C 0.24819 0.85209 0.20444 0.0
C256 C 0.22531 0.84647 0.22522 0.0
C257 C 0.21877 0.86546 0.25635 0.0
C258 C 0.22542 0.91304 0.29235 0.0
C259 C 0.24324 0.92239 0.32551 0.0
C260 C 0.23896 0.948 0.34539 0.0
C261 C 0.21656 0.96435 0.33275 0.0
C262 C 0.19703 0.95376 0.30205 0.0
C263 C 0.20157 0.92826 0.28177 0.0
C264 C 0.27554 0.92064 0.25447 0.0
C265 C 0.30147 0.92049 0.2771 0.0
C266 C 0.31774 0.9446 0.28572 0.0
C267 C 0.30842 0.96923 0.27158 0.0
C268 C 0.28256 0.96913 0.24842 0.0
C269 C 0.26622 0.94504 0.24006 0.0
C270 C 0.29197 0.87829 0.19795 0.0
C271 C 0.31492 0.86185 0.2082 0.0
C272 C 0.33823 0.86086 0.18736 0.0
C273 C 0.33896 0.87644 0.15614 0.0
C274 C 0.31654 0.89384 0.14688 0.0
C275 C 0.29307 0.89471 0.16767 0.0
C276 C 0.25356 0.83468 0.16871 0.0
C277 C 0.27072 0.81155 0.17025 0.0
C278 C 0.27839 0.79735 0.13637 0.0
C279 C 0.26949 0.8064 0.1004 0.0
C280 C 0.25255 0.82977 0.09908 0.0
C281 C 0.24455 0.84367 0.13291 0.0
C282 C 0.20984 0.81993 0.21431 0.0
C283 C 0.22352 0.79555 0.22227 0.0
C284 C 0.21676 0.77116 0.19862 0.0
C285 C 0.19517 0.77061 0.16818 0.0
C286 C 0.17781 0.79359 0.16557 0.0
C287 C 0.18605 0.81856 0.18706 0.0
C288 C 0.19761 0.85834 0.28229 0.0
C289 C 0.20593 0.85753 0.32172 0.0
C290 C 0.18653 0.85075 0.34652 0.0
C291 C 0.15862 0.84354 0.33219 0.0
C292 C 0.15033 0.8442 0.29272 0.0
C293 C 0.16942 0.85233 0.26828 0.0
C294 C 0.32564 0.99487 0.28102 0.0
C295 C 0.27794 0.79176 0.06434 0.0
H296 H 0.44263 0.00547 0.75822 0.0
H297 H 0.11265 0.94783 0.61145 0.0
H298 H 0.33863 0.86411 0.74917 0.0
H299 H 0.38171 0.85556 0.79046 0.0
H300 H 0.36635 0.92743 0.86709 0.0
H301 H 0.32274 0.93549 0.82648 0.0
H302 H 0.35548 0.91988 0.71811 0.0
H303 H 0.39706 0.95018 0.72963 0.0
H304 H 0.34788 0.01372 0.78474 0.0
H305 H 0.30656 0.98301 0.77365 0.0
H306 H 0.31306 0.94612 0.65795 0.0
H307 H 0.31335 0.98587 0.62046 0.0
H308 H 0.24731 0.02265 0.68212 0.0
H309 H 0.24731 0.98304 0.72014 0.0
H310 H 0.25055 0.92447 0.63076 0.0
H311 H 0.20795 0.9346 0.59025 0.0
H312 H 0.16072 0.9374 0.68904 0.0
H313 H 0.20361 0.92794 0.72948 0.0
H314 H 0.24023 0.87087 0.65291 0.0
H315 H 0.19663 0.84619 0.62977 0.0
H316 H 0.1808 0.83804 0.74695 0.0
H317 H 0.22149 0.86831 0.77007 0.0
H318 H 0.28147 0.83299 0.72491 0.0
H319 H 0.28087 0.79279 0.7618 0.0
H320 H 0.27697 0.84674 0.86611 0.0
H321 H 0.27744 0.88684 0.82934 0.0
O322 O 0.42589 0.99385 0.75386 0.0
O323 O 0.39958 0.026 0.78134 0.0
O324 O 0.15545 0.94425 0.57752 0.0
O325 O 0.12996 0.94448 0.62702 0.0
C326 C 0.30274 0.90651 0.75868 0.0
C327 C 0.303 0.93047 0.73901 0.0
C328 C 0.2795 0.9367 0.71373 0.0
C329 C 0.25594 0.9185 0.70778 0.0
C330 C 0.25651 0.89341 0.72539 0.0
C331 C 0.27953 0.88785 0.75216 0.0
C332 C 0.32763 0.90038 0.78495 0.0
C333 C 0.34433 0.87774 0.77519 0.0
C334 C 0.36887 0.87298 0.79847 0.0
C335 C 0.37709 0.891 0.83148 0.0
C336 C 0.36023 0.91342 0.84158 0.0
C337 C 0.33549 0.91798 0.81855 0.0
C338 C 0.32803 0.94922 0.74513 0.0
C339 C 0.35376 0.94032 0.73275 0.0
C340 C 0.37746 0.9577 0.73931 0.0
C341 C 0.3758 0.98438 0.75813 0.0
C342 C 0.34988 0.9933 0.77018 0.0
C343 C 0.32624 0.97584 0.76378 0.0
C344 C 0.28019 0.96154 0.69198 0.0
C345 C 0.29883 0.96284 0.66373 0.0
C346 C 0.29893 0.98546 0.64223 0.0
C347 C 0.28032 0.00723 0.6484 0.0
C348 C 0.26184 0.0061 0.67686 0.0
C349 C 0.26182 0.98351 0.6985 0.0
C350 C 0.23029 0.92575 0.68321 0.0
C351 C 0.2311 0.92775 0.64376 0.0
C352 C 0.20668 0.93332 0.62061 0.0
C353 C 0.1809 0.93678 0.63641 0.0
C354 C 0.1802 0.93487 0.67595 0.0
C355 C 0.20468 0.92949 0.69913 0.0
C356 C 0.23364 0.87251 0.71314 0.0
C357 C 0.22711 0.86434 0.67376 0.0
C358 C 0.20237 0.84979 0.66054 0.0
C359 C 0.18483 0.84072 0.68656 0.0
C360 C 0.19345 0.84556 0.72625 0.0
C361 C 0.21697 0.86243 0.73948 0.0
C362 C 0.27934 0.86305 0.77422 0.0
C363 C 0.28041 0.83619 0.75569 0.0
C364 C 0.28014 0.81325 0.77675 0.0
C365 C 0.27883 0.81668 0.8168 0.0
C366 C 0.27798 0.84352 0.83533 0.0
C367 C 0.27827 0.86641 0.81431 0.0
C368 C 0.40106 1.00274 0.7652 0.0
C369 C 0.15476 0.94209 0.61177 0.0
H370 H 0.19143 0.55463 0.86011 0.0
H371 H 0.1978 0.28175 0.60923 0.0
H372 H 0.33701 0.45793 0.80706 0.0
H373 H 0.35253 0.49978 0.84467 0.0
H374 H 0.30248 0.47897 0.9343 0.0
H375 H 0.28768 0.43713 0.89567 0.0
H376 H 0.27268 0.47893 0.79472 0.0
H377 H 0.24413 0.51701 0.81913 0.0
H378 H 0.19918 0.46083 0.8793 0.0
H379 H 0.22791 0.42303 0.85482 0.0
H380 H 0.23222 0.44403 0.73437 0.0
H381 H 0.18485 0.44197 0.69942 0.0
H382 H 0.16544 0.36945 0.75252 0.0
H383 H 0.21239 0.37219 0.78863 0.0
H384 H 0.26747 0.39604 0.68768 0.0
H385 H 0.24455 0.36835 0.63077 0.0
H386 H 0.22405 0.30576 0.70228 0.0
H387 H 0.24669 0.33384 0.75893 0.0
H388 H 0.33498 0.38241 0.72103 0.0
H389 H 0.34807 0.3434 0.67715 0.0
H390 H 0.30774 0.2878 0.74291 0.0
H391 H 0.29761 0.32656 0.78924 0.0
H392 H 0.36543 0.38823 0.78301 0.0
H393 H 0.40537 0.36741 0.81812 0.0
H394 H 0.36266 0.37644 0.92087 0.0
H395 H 0.32109 0.39273 0.8843 0.0
O396 O 0.20337 0.53968 0.85199 0.0
O397 O 0.1845 0.51108 0.88784 0.0
O398 O 0.21732 0.32628 0.59593 0.0
O399 O 0.20698 0.29312 0.63124 0.0
C400 C 0.29754 0.42188 0.82163 0.0
C401 C 0.26898 0.42501 0.8074 0.0
C402 C 0.25596 0.40572 0.77835 0.0
C403 C 0.27188 0.38437 0.76177 0.0
C404 C 0.30005 0.38046 0.77681 0.0
C405 C 0.31272 0.39859 0.80811 0.0
C406 C 0.31177 0.44411 0.84893 0.0
C407 C 0.33076 0.46191 0.83587 0.0
C408 C 0.34002 0.48618 0.85837 0.0
C409 C 0.33136 0.49305 0.89552 0.0
C410 C 0.31219 0.47445 0.90804 0.0
C411 C 0.303 0.45028 0.88548 0.0
C412 C 0.25235 0.44829 0.82308 0.0
C413 C 0.25677 0.47497 0.81336 0.0
C414 C 0.24038 0.49663 0.82724 0.0
C415 C 0.21932 0.49193 0.85106 0.0
C416 C 0.21522 0.46516 0.86104 0.0
C417 C 0.23156 0.44354 0.84707 0.0
C418 C 0.2258 0.4081 0.76373 0.0
C419 C 0.21739 0.42835 0.7396 0.0
C420 C 0.19043 0.42717 0.71973 0.0
C421 C 0.17175 0.40548 0.72332 0.0
C422 C 0.17949 0.38639 0.74955 0.0
C423 C 0.20627 0.38787 0.7699 0.0
C424 C 0.25906 0.36675 0.72725 0.0
C425 C 0.25815 0.37627 0.69089 0.0
C426 C 0.24498 0.36046 0.6585 0.0
C427 C 0.23249 0.3348 0.66198 0.0
C428 C 0.23351 0.32536 0.69855 0.0
C429 C 0.24657 0.34127 0.73093 0.0
C430 C 0.31548 0.35729 0.75845 0.0
C431 C 0.33054 0.36168 0.72733 0.0
C432 C 0.33778 0.33947 0.70215 0.0
C433 C 0.32805 0.31285 0.7061 0.0
C434 C 0.31516 0.30822 0.73908 0.0
C435 C 0.30941 0.3303 0.76553 0.0
C436 C 0.33956 0.39116 0.83036 0.0
C437 C 0.36419 0.38493 0.81269 0.0
C438 C 0.38735 0.37364 0.83304 0.0
C439 C 0.38711 0.37018 0.87223 0.0
C440 C 0.3634 0.37867 0.89062 0.0
C441 C 0.3397 0.38832 0.86977 0.0
C442 C 0.20139 0.51475 0.86493 0.0
C443 C 0.21849 0.31791 0.62766 0.0
H444 H 0.8884 0.45268 0.88713 0.0
H445 H 0.81809 0.18394 0.60608 0.0
H446 H 0.79112 0.31746 0.91589 0.0
H447 H 0.78922 0.35579 0.96654 0.0
H448 H 0.75284 0.40709 0.88225 0.0
H449 H 0.7553 0.36881 0.83138 0.0
H450 H 0.83914 0.34236 0.88104 0.0
H451 H 0.86401 0.38677 0.89369 0.0
H452 H 0.82683 0.40942 0.78407 0.0
H453 H 0.80185 0.365 0.77196 0.0
H454 H 0.86603 0.31344 0.81701 0.0
H455 H 0.90369 0.32846 0.78115 0.0
H456 H 0.84723 0.31824 0.67635 0.0
H457 H 0.80879 0.30657 0.71296 0.0
H458 H 0.84174 0.24483 0.78588 0.0
H459 H 0.85623 0.2124 0.73387 0.0
H460 H 0.78285 0.2329 0.66016 0.0
H461 H 0.76832 0.26471 0.71264 0.0
H462 H 0.79428 0.22831 0.83674 0.0
H463 H 0.78149 0.17999 0.81608 0.0
H464 H 0.71215 0.20551 0.74002 0.0
H465 H 0.72508 0.25405 0.76073 0.0
H466 H 0.75218 0.26109 0.88654 0.0
H467 H 0.70962 0.26272 0.92082 0.0
H468 H 0.67529 0.32458 0.85105 0.0
H469 H 0.71718 0.32236 0.81625 0.0
O470 O 0.87857 0.43513 0.88135 0.0
O471 O 0.85972 0.44544 0.82413 0.0
O472 O 0.85131 0.18806 0.6653 0.0
O473 O 0.8129 0.19655 0.62719 0.0
C474 C 0.77997 0.3191 0.83903 0.0
C475 C 0.80308 0.32375 0.81844 0.0
C476 C 0.81087 0.30336 0.79023 0.0
C477 C 0.79605 0.27792 0.78356 0.0
C478 C 0.77333 0.27284 0.80494 0.0
C479 C 0.76446 0.294 0.83145 0.0
C480 C 0.77327 0.34034 0.87004 0.0
C481 C 0.78217 0.33676 0.90847 0.0
C482 C 0.78136 0.35866 0.9372 0.0
C483 C 0.77132 0.38437 0.92796 0.0
C484 C 0.76094 0.38751 0.88981 0.0
C485 C 0.76208 0.36567 0.86097 0.0
C486 C 0.8186 0.35056 0.8257 0.0
C487 C 0.83633 0.35699 0.85988 0.0
C488 C 0.85058 0.38233 0.86695 0.0
C489 C 0.84735 0.40168 0.83994 0.0
C490 C 0.82973 0.39502 0.80552 0.0
C491 C 0.81547 0.36967 0.7985 0.0
C492 C 0.83458 0.30892 0.76767 0.0
C493 C 0.86173 0.31463 0.78635 0.0
C494 C 0.88322 0.32299 0.7659 0.0
C495 C 0.87828 0.3244 0.72607 0.0
C496 C 0.85149 0.3173 0.70707 0.0
C497 C 0.82966 0.3103 0.72785 0.0
C498 C 0.80389 0.25688 0.75307 0.0
C499 C 0.8287 0.24201 0.7586 0.0
C500 C 0.83699 0.22366 0.72879 0.0
C501 C 0.8207 0.22009 0.69281 0.0
C502 C 0.79587 0.23514 0.68745 0.0
C503 C 0.7874 0.25315 0.71746 0.0
C504 C 0.76052 0.24473 0.80041 0.0
C505 C 0.77564 0.22353 0.81678 0.0
C506 C 0.76839 0.19597 0.80497 0.0
C507 C 0.7459 0.18917 0.77654 0.0
C508 C 0.72942 0.21036 0.76225 0.0
C509 C 0.73672 0.23801 0.7741 0.0
C510 C 0.7377 0.29154 0.84884 0.0
C511 C 0.73517 0.27445 0.87806 0.0
C512 C 0.71106 0.27554 0.89771 0.0
C513 C 0.68946 0.29392 0.88855 0.0
C514 C 0.69171 0.31031 0.85853 0.0
C515 C 0.71554 0.30898 0.83869 0.0
C516 C 0.86222 0.42874 0.84782 0.0
C517 C 0.82934 0.20062 0.66103 0.0
H518 H 0.97632 0.67005 0.83745 0.0
H519 H 0.70093 0.68832 0.02573 0.0
H520 H 0.87677 0.7875 0.84383 0.0
H521 H 0.90698 0.79725 0.79412 0.0
H522 H 0.84768 0.75423 0.70702 0.0
H523 H 0.81709 0.74526 0.75669 0.0
H524 H 0.8857 0.73569 0.89787 0.0
H525 H 0.92823 0.71097 0.88275 0.0
H526 H 0.88415 0.67503 0.7753 0.0
H527 H 0.84171 0.69964 0.79103 0.0
H528 H 0.84039 0.72858 0.95784 0.0
H529 H 0.84852 0.6901 0.99445 0.0
H530 H 0.82056 0.63511 0.8925 0.0
H531 H 0.81271 0.6741 0.85693 0.0
H532 H 0.79247 0.77192 0.96211 0.0
H533 H 0.76406 0.76074 0.01263 0.0
H534 H 0.7325 0.68738 0.9413 0.0
H535 H 0.76079 0.69899 0.89082 0.0
H536 H 0.78572 0.81738 0.90996 0.0
H537 H 0.74377 0.84097 0.93134 0.0
H538 H 0.69133 0.77351 0.87497 0.0
H539 H 0.73315 0.74997 0.85368 0.0
H540 H 0.82982 0.82351 0.85171 0.0
H541 H 0.81561 0.86422 0.81925 0.0
H542 H 0.74569 0.81804 0.7554 0.0
H543 H 0.75997 0.77723 0.78781 0.0
O544 O 0.9592 0.67939 0.84305 0.0
O545 O 0.93564 0.66162 0.78805 0.0
O546 O 0.72879 0.7315 0.04138 0.0
O547 O 0.71242 0.69319 0.00626 0.0
C548 C 0.8277 0.75808 0.83397 0.0
C549 C 0.83535 0.73529 0.85418 0.0
C550 C 0.81923 0.72804 0.88319 0.0
C551 C 0.79546 0.74354 0.89196 0.0
C552 C 0.7877 0.76617 0.87149 0.0
C553 C 0.80387 0.77347 0.84262 0.0
C554 C 0.8448 0.76574 0.80372 0.0
C555 C 0.87014 0.78056 0.81395 0.0
C556 C 0.88732 0.78604 0.78571 0.0
C557 C 0.87958 0.77634 0.74699 0.0
C558 C 0.85397 0.76188 0.73674 0.0
C559 C 0.83657 0.75682 0.76493 0.0
C560 C 0.86071 0.71945 0.84552 0.0
C561 C 0.88526 0.72232 0.87122 0.0
C562 C 0.90952 0.70824 0.86244 0.0
C563 C 0.90961 0.69108 0.82776 0.0
C564 C 0.88482 0.68811 0.80222 0.0
C565 C 0.86056 0.70214 0.8111 0.0
C566 C 0.82707 0.70408 0.90437 0.0
C567 C 0.83737 0.70798 0.94322 0.0
C568 C 0.8428 0.68543 0.96397 0.0
C569 C 0.83934 0.65804 0.94618 0.0
C570 C 0.82732 0.65478 0.9073 0.0
C571 C 0.82194 0.6774 0.88658 0.0
C572 C 0.77868 0.73625 0.92287 0.0
C573 C 0.77938 0.75346 0.95747 0.0
C574 C 0.76318 0.747 0.98628 0.0
C575 C 0.74599 0.72315 0.98099 0.0
C576 C 0.74549 0.70589 0.94631 0.0
C577 C 0.76168 0.71241 0.91748 0.0
C578 C 0.76238 0.78199 0.88037 0.0
C579 C 0.76512 0.80798 0.90164 0.0
C580 C 0.74133 0.82135 0.91384 0.0
C581 C 0.71464 0.80886 0.90466 0.0
C582 C 0.71182 0.7834 0.88212 0.0
C583 C 0.73556 0.77003 0.87006 0.0
C584 C 0.79597 0.79752 0.82185 0.0
C585 C 0.81159 0.82214 0.8305 0.0
C586 C 0.80346 0.84527 0.81223 0.0
C587 C 0.77965 0.84393 0.78517 0.0
C588 C 0.7641 0.81927 0.77629 0.0
C589 C 0.77224 0.79613 0.79461 0.0
C590 C 0.93552 0.67643 0.8183 0.0
C591 C 0.7286 0.7163 0.01144 0.0
C592 C 0.05928 0.41135 0.59828 0.0
C593 C 0.06737 0.43808 0.61268 0.0
C594 C 0.05089 0.45522 0.59176 0.0
C595 C 0.03375 0.43811 0.56575 0.0
N596 N 0.0382 0.41127 0.5693 0.0
Co597 Co 0.01889 0.37992 0.53612 0.0
N598 N 0.98806 0.40366 0.51737 0.0
C599 C 0.9886 0.4313 0.51983 0.0
C600 C 0.96346 0.44193 0.50603 0.0
C601 C 0.94612 0.41954 0.49407 0.0
C602 C 0.96181 0.39645 0.50101 0.0
N603 N -0.00021 0.34874 0.50257 0.0
C604 C 0.9729 0.34634 0.48625 0.0
C605 C 0.96816 0.32124 0.46408 0.0
C606 C 0.99315 0.30752 0.46678 0.0
C607 C 0.01165 0.325 0.49029 0.0
N608 N 0.04963 0.356 0.55492 0.0
C609 C 0.05577 0.33098 0.53824 0.0
C610 C 0.07784 0.31901 0.55815 0.0
C611 C 0.08634 0.33779 0.58897 0.0
C612 C 0.0691 0.36041 0.58591 0.0
N613 N 0.99769 0.37162 0.57814 0.0
C614 C 0.96249 0.35899 0.63271 0.0
C615 C 0.97448 0.33807 0.60975 0.0
C616 C 0.99258 0.34481 0.58343 0.0
C617 C 0.96977 0.38637 0.62934 0.0
C618 C 0.98682 0.39227 0.60118 0.0
N619 N 0.04005 0.38783 0.49374 0.0
C620 C 0.04427 0.38431 0.42576 0.0
C621 C 0.07341 0.38809 0.43345 0.0
C622 C 0.08521 0.39389 0.47143 0.0
C623 C 0.06813 0.39377 0.50106 0.0
C624 C 0.02783 0.38465 0.4565 0.0
H625 H 0.07787 0.3972 0.52995 0.0
H626 H 0.00548 0.38096 0.45016 0.0
H627 H 0.00166 0.32824 0.56644 0.0
H628 H 0.99061 0.41353 0.59746 0.0
C629 C 0.01083 0.4463 0.54163 0.0
C630 C 0.07409 0.38682 0.60996 0.0
C631 C 0.95203 0.368 0.48959 0.0
C632 C 0.03806 0.31797 0.50728 0.0
H633 H 0.08382 0.44454 0.63543 0.0
H634 H 0.05097 0.47748 0.59567 0.0
H635 H 0.95793 0.46339 0.50632 0.0
H636 H 0.92449 0.42016 0.4816 0.0
H637 H 0.94872 0.31368 0.44772 0.0
H638 H 0.99696 0.28682 0.4545 0.0
H639 H 0.08632 0.29879 0.55161 0.0
H640 H 0.10372 0.33538 0.61061 0.0
H641 H 0.96958 0.31663 0.61178 0.0
H642 H 0.96119 0.40307 0.64705 0.0
H643 H 0.03455 0.38008 0.39647 0.0
H644 H 0.10769 0.39722 0.4782 0.0
C645 C 0.71718 0.06 0.68991 0.0
C646 C 0.69041 0.06718 0.69882 0.0
C647 C 0.6722 0.04839 0.67779 0.0
C648 C 0.68876 0.03094 0.65713 0.0
N649 N 0.71654 0.03727 0.66404 0.0
Co650 Co 0.74784 0.01855 0.63809 0.0
N651 N 0.72067 0.9946 0.60152 0.0
C652 C 0.69225 0.99483 0.59986 0.0
C653 C 0.67907 0.97756 0.57013 0.0
C654 C 0.7003 0.96541 0.5518 0.0
C655 C 0.72538 0.97571 0.57184 0.0
N656 N 0.77927 0.99947 0.61289 0.0
C657 C 0.77854 0.97798 0.58501 0.0
C658 C 0.80544 0.96913 0.57889 0.0
C659 C 0.82377 0.98592 0.60309 0.0
C660 C 0.80718 0.00376 0.62295 0.0
N661 N 0.77499 0.04314 0.67384 0.0
C662 C 0.8034 0.04315 0.67563 0.0
C663 C 0.81636 0.06291 0.70225 0.0
C664 C 0.79494 0.07684 0.71784 0.0
C665 C 0.77008 0.06471 0.69966 0.0
N666 N 0.74964 0.99033 0.67511 0.0
C667 C 0.75471 0.94386 0.71573 0.0
C668 C 0.77777 0.96117 0.7149 0.0
C669 C 0.77474 0.98427 0.69482 0.0
C670 C 0.72861 0.95103 0.69853 0.0
C671 C 0.7265 0.97445 0.67884 0.0
N672 N 0.746 0.04625 0.60075 0.0
C673 C 0.7689 0.07686 0.56355 0.0
C674 C 0.74287 0.0849 0.54701 0.0
C675 C 0.71848 0.07348 0.55752 0.0
C676 C 0.72051 0.05449 0.58455 0.0
C677 C 0.77 0.05742 0.59011 0.0
H678 H 0.70114 0.04686 0.59199 0.0
H679 H 0.79039 0.05179 0.60181 0.0
H680 H 0.79327 0.9963 0.69476 0.0
H681 H 0.70611 0.97874 0.66595 0.0
C682 C 0.67862 0.01146 0.62679 0.0
C683 C 0.74247 0.07603 0.70544 0.0
C684 C 0.75305 0.96567 0.56297 0.0
C685 C 0.81722 0.02443 0.65163 0.0
H686 H 0.68456 0.08462 0.71771 0.0
H687 H 0.64946 0.04837 0.67615 0.0
H688 H 0.65668 0.97415 0.56271 0.0
H689 H 0.69756 0.95031 0.52687 0.0
H690 H 0.8113 0.95228 0.55899 0.0
H691 H 0.84651 0.98502 0.60614 0.0
H692 H 0.8387 0.06708 0.70892 0.0
H693 H 0.79726 0.09448 0.73932 0.0
H694 H 0.79826 0.95635 0.72859 0.0
H695 H 0.71018 0.93817 0.69927 0.0
H696 H 0.78822 0.08554 0.55597 0.0
H697 H 0.69797 0.07954 0.54536 0.0
C698 C 0.06226 0.8343 0.59486 0.0
C699 C 0.07098 0.86079 0.60999 0.0
C700 C 0.05144 0.8783 0.59586 0.0
C701 C 0.03221 0.86178 0.57247 0.0
N702 N 0.03821 0.83464 0.57082 0.0
Co703 Co 0.01801 0.80386 0.53612 0.0
N704 N 0.99098 0.83006 0.51252 0.0
C705 C 0.99058 0.8577 0.52065 0.0
C706 C 0.9689 0.86999 0.5005 0.0
C707 C 0.95427 0.84889 0.47861 0.0
C708 C 0.96795 0.82491 0.48683 0.0
N709 N 0.99795 0.7731 0.50125 0.0
C710 C 0.97421 0.77347 0.47673 0.0
C711 C 0.96668 0.74742 0.45886 0.0
C712 C 0.98628 0.72985 0.47289 0.0
C713 C 0.00448 0.74612 0.49844 0.0
N714 N 0.04481 0.77759 0.56 0.0
C715 C 0.04501 0.74994 0.55187 0.0
C716 C 0.06488 0.73725 0.57461 0.0
C717 C 0.07846 0.75806 0.59841 0.0
C718 C 0.06624 0.78237 0.58841 0.0
N719 N 0.99206 0.79894 0.57568 0.0
C720 C 0.95494 0.79201 0.63132 0.0
C721 C 0.96494 0.76932 0.60964 0.0
C722 C 0.98361 0.77319 0.58254 0.0
C723 C 0.9637 0.81821 0.62474 0.0
C724 C 0.98181 0.8212 0.59664 0.0
N725 N 0.04401 0.80893 0.49644 0.0
C726 C 0.07236 0.79049 0.44671 0.0
C727 C 0.08103 0.81694 0.44078 0.0
C728 C 0.07092 0.83919 0.46314 0.0
C729 C 0.05213 0.8348 0.48976 0.0
C730 C 0.05452 0.78695 0.47514 0.0
H731 H 0.04447 0.85282 0.50442 0.0
H732 H 0.0496 0.76628 0.47937 0.0
H733 H 0.9909 0.75505 0.56749 0.0
H734 H 0.98714 0.84173 0.59234 0.0
C735 C 0.00993 0.87136 0.54877 0.0
C736 C 0.07745 0.80951 0.60413 0.0
C737 C 0.95732 0.79766 0.47118 0.0
C738 C 0.02631 0.73643 0.52274 0.0
H739 H 0.08977 0.86713 0.62871 0.0
H740 H 0.05182 0.90054 0.60084 0.0
H741 H 0.96389 0.89162 0.50231 0.0
H742 H 0.93528 0.85081 0.45948 0.0
H743 H 0.9485 0.74159 0.43858 0.0
H744 H 0.98661 0.70773 0.46634 0.0
H745 H 0.06916 0.71549 0.57372 0.0
H746 H 0.09598 0.7557 0.61988 0.0
H747 H 0.95861 0.74864 0.61398 0.0
H748 H 0.95634 0.83632 0.64099 0.0
H749 H 0.0797 0.77263 0.42992 0.0
H750 H 0.07705 0.86006 0.45947 0.0
C751 C 0.30192 0.10686 0.53532 0.0
C752 C 0.32749 0.09365 0.5395 0.0
C753 C 0.3442 0.10438 0.51531 0.0
C754 C 0.328 0.12352 0.49786 0.0
N755 N 0.30195 0.12577 0.50954 0.0
Co756 Co 0.27179 0.15139 0.49151 0.0
N757 N 0.29564 0.16577 0.45383 0.0
C758 C 0.32143 0.1569 0.44624 0.0
C759 C 0.33263 0.17025 0.41876 0.0
C760 C 0.31295 0.18897 0.40835 0.0
C761 C 0.29086 0.18613 0.4304 0.0
N762 N 0.24208 0.17785 0.47454 0.0
C763 C 0.24299 0.19829 0.45109 0.0
C764 C 0.21856 0.21353 0.45021 0.0
C765 C 0.2016 0.20238 0.47367 0.0
C766 C 0.21662 0.18119 0.48783 0.0
N767 N 0.2475 0.13634 0.52816 0.0
C768 C 0.22076 0.14351 0.53333 0.0
C769 C 0.20877 0.12873 0.55868 0.0
C770 C 0.2289 0.11075 0.57007 0.0
C771 C 0.25213 0.11566 0.55099 0.0
N772 N 0.28755 0.18016 0.53212 0.0
C773 C 0.30917 0.22176 0.58877 0.0
C774 C 0.28101 0.21358 0.58589 0.0
C775 C 0.2707 0.19289 0.55758 0.0
C776 C 0.32659 0.20871 0.56339 0.0
C777 C 0.31541 0.18796 0.53548 0.0
N778 N 0.25604 0.12218 0.45133 0.0
C779 C 0.21634 0.09385 0.42167 0.0
C780 C 0.23446 0.07419 0.40687 0.0
C781 C 0.26326 0.07989 0.41182 0.0
C782 C 0.27351 0.104 0.43359 0.0
C783 C 0.22754 0.11767 0.44363 0.0
H784 H 0.29571 0.10702 0.43663 0.0
H785 H 0.21278 0.13169 0.45496 0.0
H786 H 0.24895 0.18783 0.55657 0.0
H787 H 0.32962 0.17881 0.51668 0.0
C788 C 0.33565 0.13789 0.46802 0.0
C789 C 0.27791 0.09983 0.55524 0.0
C790 C 0.26649 0.20423 0.42932 0.0
C791 C 0.2077 0.16453 0.5144 0.0
H792 H 0.33322 0.0775 0.55758 0.0
H793 H 0.36537 0.09836 0.51023 0.0
H794 H 0.35307 0.16734 0.4084 0.0
H795 H 0.31496 0.20357 0.38762 0.0
H796 H 0.21356 0.23109 0.43455 0.0
H797 H 0.18098 0.20924 0.4802 0.0
H798 H 0.18782 0.1307 0.56766 0.0
H799 H 0.22669 0.09559 0.58998 0.0
H800 H 0.26687 0.22357 0.60497 0.0
H801 H 0.3485 0.21485 0.56465 0.0
H802 H 0.19378 0.09041 0.41733 0.0
H803 H 0.27788 0.06543 0.3997 0.0
C804 C 0.5489 0.86655 0.08769 0.0
C805 C 0.55698 0.88859 0.11488 0.0
C806 C 0.55116 0.91191 0.09748 0.0
C807 C 0.53962 0.90281 0.06099 0.0
N808 N 0.53754 0.8751 0.05415 0.0
Co809 Co 0.51943 0.85327 0.00657 0.0
N810 N 0.5122 0.88743 0.98033 0.0
C811 C 0.52099 0.91334 0.99355 0.0
C812 C 0.51239 0.93249 0.96909 0.0
C813 C 0.49691 0.91796 0.93869 0.0
C814 C 0.497 0.89073 0.94651 0.0
N815 N 0.49977 0.83158 0.95981 0.0
C816 C 0.48503 0.84049 0.92864 0.0
C817 C 0.47276 0.8189 0.90364 0.0
C818 C 0.47953 0.79539 0.92006 0.0
C819 C 0.49537 0.80405 0.954 0.0
N820 N 0.52816 0.81893 0.03188 0.0
C821 C 0.5225 0.7927 0.01642 0.0
C822 C 0.53382 0.77332 0.03865 0.0
C823 C 0.54782 0.78797 0.07006 0.0
C824 C 0.54383 0.81563 0.06544 0.0
N825 N 0.48291 0.8567 0.0287 0.0
C826 C 0.43368 0.86201 0.06602 0.0
C827 C 0.44395 0.83608 0.05484 0.0
C828 C 0.46823 0.83389 0.03579 0.0
C829 C 0.44769 0.88517 0.05695 0.0
C830 C 0.47219 0.8821 0.03868 0.0
N831 N 0.55616 0.84987 0.98481 0.0
C832 C 0.58918 0.82235 0.95044 0.0
C833 C 0.60961 0.84306 0.95901 0.0
C834 C 0.60289 0.86759 0.97966 0.0
C835 C 0.57613 0.87057 0.9922 0.0
C836 C 0.56273 0.82619 0.96335 0.0
H837 H 0.5723 0.88958 0.00838 0.0
H838 H 0.54819 0.80946 0.95611 0.0
H839 H 0.47498 0.81356 0.02762 0.0
H840 H 0.4823 0.90064 0.03354 0.0
C841 C 0.53266 0.91955 0.03162 0.0
C842 C 0.5553 0.83804 0.09359 0.0
C843 C 0.48017 0.86917 0.92307 0.0
C844 C 0.50664 0.78693 0.98083 0.0
H845 H 0.56703 0.88785 0.14381 0.0
H846 H 0.55559 0.93295 0.10961 0.0
H847 H 0.51548 0.95458 0.97389 0.0
H848 H 0.4858 0.92654 0.91437 0.0
H849 H 0.45968 0.82016 0.87683 0.0
H850 H 0.4732 0.77454 0.90895 0.0
H851 H 0.53243 0.75116 0.03246 0.0
H852 H 0.55976 0.77911 0.09346 0.0
H853 H 0.43344 0.81764 0.06118 0.0
H854 H 0.44018 0.90561 0.06502 0.0
H855 H 0.59377 0.80308 0.9343 0.0
H856 H 0.61837 0.8841 0.98672 0.0
C857 C 0.21163 0.671 0.02066 0.0
C858 C 0.18289 0.67002 0.00947 0.0
C859 C 0.17931 0.65752 0.97247 0.0
C860 C 0.20594 0.65134 0.96328 0.0
N861 N 0.22599 0.65888 0.99239 0.0
Co862 Co 0.26691 0.65256 0.99205 0.0
N863 N 0.26045 0.62475 0.94674 0.0
C864 C 0.23732 0.62205 0.9213 0.0
C865 C 0.23936 0.60112 0.89249 0.0
C866 C 0.26529 0.58987 0.9006 0.0
C867 C 0.27763 0.6048 0.93387 0.0
N868 N 0.30771 0.64576 0.99165 0.0
C869 C 0.32069 0.62359 0.97564 0.0
C870 C 0.34967 0.6264 0.98294 0.0
C871 C 0.35489 0.65141 0.00432 0.0
C872 C 0.32885 0.66235 0.00885 0.0
N873 N 0.27358 0.68073 0.0369 0.0
C874 C 0.29831 0.69365 0.0496 0.0
C875 C 0.29655 0.71228 0.08121 0.0
C876 C 0.26893 0.71145 0.08833 0.0
C877 C 0.25529 0.69214 0.06062 0.0
N878 N 0.26429 0.62372 0.02698 0.0
C879 C 0.26151 0.58212 0.07654 0.0
C880 C 0.28058 0.60428 0.08572 0.0
C881 C 0.2821 0.62439 0.06025 0.0
C882 C 0.24324 0.58172 0.04251 0.0
C883 C 0.24464 0.60287 0.01854 0.0
N884 N 0.26962 0.6817 0.95739 0.0
C885 C 0.28732 0.69904 0.90223 0.0
C886 C 0.27388 0.72419 0.9096 0.0
C887 C 0.25831 0.72758 0.94128 0.0
C888 C 0.25652 0.70624 0.96469 0.0
C889 C 0.28493 0.67809 0.92641 0.0
H890 H 0.24468 0.70973 0.989 0.0
H891 H 0.29558 0.659 0.92011 0.0
H892 H 0.29792 0.64038 0.06747 0.0
H893 H 0.23006 0.60213 0.99287 0.0
C894 C 0.21254 0.6353 0.93007 0.0
C895 C 0.22466 0.68724 0.05554 0.0
C896 C 0.30598 0.60049 0.95183 0.0
C897 C 0.32325 0.68487 0.03478 0.0
H898 H 0.16638 0.67847 0.02581 0.0
H899 H 0.15961 0.653 0.95473 0.0
H900 H 0.22344 0.59409 0.86936 0.0
H901 H 0.27409 0.57272 0.88406 0.0
H902 H 0.3653 0.61191 0.97383 0.0
H903 H 0.37517 0.65992 0.01666 0.0
H904 H 0.31343 0.72454 0.09771 0.0
H905 H 0.25984 0.72396 0.11101 0.0
H906 H 0.29485 0.60556 0.11192 0.0
H907 H 0.22791 0.56516 0.03458 0.0
H908 H 0.29958 0.69564 0.87798 0.0
H909 H 0.24769 0.74671 0.94803 0.0
C910 C 0.48537 0.34616 0.00578 0.0
C911 C 0.47747 0.37357 0.00746 0.0
C912 C 0.49007 0.38639 0.04135 0.0
C913 C 0.50475 0.36623 0.05862 0.0
N914 N 0.50259 0.34148 0.03759 0.0
Co915 Co 0.5179 0.30645 0.05498 0.0
N916 N 0.54343 0.32654 0.09715 0.0
C917 C 0.54134 0.35303 0.11126 0.0
C918 C 0.56157 0.36119 0.14094 0.0
C919 C 0.57732 0.33833 0.1461 0.0
C920 C 0.56571 0.31746 0.11913 0.0
N921 N 0.5329 0.27152 0.07293 0.0
C922 C 0.5563 0.26711 0.09664 0.0
C923 C 0.5592 0.23937 0.10112 0.0
C924 C 0.53659 0.22602 0.0798 0.0
C925 C 0.52126 0.24627 0.06347 0.0
N926 N 0.49245 0.2864 0.01252 0.0
C927 C 0.48622 0.25926 0.00852 0.0
C928 C 0.46979 0.2508 0.97494 0.0
C929 C 0.46495 0.27409 0.95692 0.0
C930 C 0.47832 0.29567 0.98093 0.0
N931 N 0.54753 0.30696 0.02057 0.0
C932 C 0.59296 0.30598 0.97625 0.0
C933 C 0.57761 0.28197 0.97891 0.0
C934 C 0.5548 0.28297 0.00066 0.0
C935 C 0.58461 0.33075 0.99523 0.0
C936 C 0.56203 0.33073 0.01766 0.0
N937 N 0.4885 0.30577 0.08976 0.0
C938 C 0.47496 0.3012 0.15298 0.0
C939 C 0.44763 0.30892 0.14115 0.0
C940 C 0.44079 0.31416 0.10302 0.0
C941 C 0.46151 0.31236 0.07779 0.0
C942 C 0.49509 0.29979 0.12679 0.0
H943 H 0.45588 0.31714 0.04897 0.0
H944 H 0.51616 0.29464 0.13683 0.0
H945 H 0.54343 0.2641 0.00188 0.0
H946 H 0.55662 0.34984 0.03314 0.0
C947 C 0.52245 0.37027 0.09292 0.0
C948 C 0.47355 0.32485 0.97563 0.0
C949 C 0.57477 0.28884 0.11781 0.0
C950 C 0.49931 0.24188 0.03387 0.0
H951 H 0.46334 0.38328 0.98705 0.0
H952 H 0.48868 0.40785 0.05209 0.0
H953 H 0.56486 0.38146 0.15643 0.0
H954 H 0.595 0.33704 0.1677 0.0
H955 H 0.57579 0.22983 0.11823 0.0
H956 H 0.53249 0.20405 0.07546 0.0
H957 H 0.46272 0.23006 0.96436 0.0
H958 H 0.45215 0.27522 0.92987 0.0
H959 H 0.5833 0.26249 0.96432 0.0
H960 H 0.59592 0.34977 0.9935 0.0
H961 H 0.48088 0.29722 0.18247 0.0
H962 H 0.41978 0.32036 0.09314 0.0
C963 C 0.76786 0.57496 0.1774 0.0
C964 C 0.74425 0.58978 0.18621 0.0
C965 C 0.72136 0.57499 0.16811 0.0
C966 C 0.73223 0.55204 0.14946 0.0
N967 N 0.76053 0.55153 0.1545 0.0
Co968 Co 0.78447 0.5216 0.13407 0.0
N969 N 0.75335 0.5066 0.0953 0.0
C970 C 0.72592 0.51268 0.09553 0.0
C971 C 0.70932 0.49975 0.06461 0.0
C972 C 0.72735 0.48427 0.04381 0.0
C973 C 0.75401 0.48843 0.06352 0.0
N974 N 0.80823 0.4912 0.11405 0.0
C975 C 0.80391 0.47345 0.08157 0.0
C976 C 0.82532 0.45442 0.07988 0.0
C977 C 0.84347 0.46037 0.11259 0.0
C978 C 0.83218 0.48257 0.13245 0.0
N979 N 0.81555 0.53682 0.1726 0.0
C980 C 0.83908 0.52365 0.18411 0.0
C981 C 0.85727 0.53989 0.20991 0.0
C982 C 0.84425 0.56474 0.21515 0.0
C983 C 0.81866 0.56216 0.19243 0.0
N984 N 0.77227 0.49827 0.1713 0.0
C985 C 0.76179 0.46227 0.22474 0.0
C986 C 0.76728 0.49014 0.23668 0.0
C987 C 0.77243 0.50791 0.20933 0.0
C988 C 0.76023 0.45303 0.18571 0.0
C989 C 0.76548 0.47136 0.15956 0.0
N990 N 0.79716 0.54484 0.09715 0.0
C991 C 0.83512 0.562 0.06607 0.0
C992 C 0.81659 0.57879 0.04618 0.0
C993 C 0.78804 0.57813 0.05173 0.0
C994 C 0.77869 0.56085 0.0773 0.0
C995 C 0.82504 0.54536 0.09158 0.0
H996 H 0.75663 0.56055 0.08122 0.0
H997 H 0.83995 0.53306 0.10703 0.0
H998 H 0.77741 0.52917 0.2191 0.0
H999 H 0.76518 0.46352 0.13001 0.0
C1000 C 0.71715 0.53319 0.12223 0.0
C1001 C 0.79669 0.58302 0.193 0.0
C1002 C 0.77859 0.47227 0.05381 0.0
C1003 C 0.84526 0.49806 0.16535 0.0
H1004 H 0.74361 0.60919 0.20396 0.0
H1005 H 0.69951 0.58078 0.16751 0.0
H1006 H 0.6869 0.50181 0.05753 0.0
H1007 H 0.7214 0.47092 0.01765 0.0
H1008 H 0.82733 0.43768 0.05769 0.0
H1009 H 0.86289 0.45009 0.1205 0.0
H1010 H 0.87797 0.53466 0.22236 0.0
H1011 H 0.85243 0.58254 0.23399 0.0
H1012 H 0.76842 0.49784 0.26684 0.0
H1013 H 0.75588 0.43156 0.17565 0.0
H1014 H 0.85733 0.56206 0.06224 0.0
H1015 H 0.7732 0.59088 0.03651 0.0
C1016 C 0.11857 0.40158 0.35428 0.0
C1017 C 0.13733 0.37928 0.35695 0.0
C1018 C 0.10819 0.35916 0.40043 0.0
C1019 C 0.09237 0.38364 0.40276 0.0
N1020 N 0.08267 0.42881 0.38354 0.0
N1021 N 0.1515 0.33758 0.3843 0.0
C1022 C 0.09734 0.40493 0.37974 0.0
C1023 C 0.13236 0.35802 0.38009 0.0
N1024 N 0.121 0.41932 0.32713 0.0
N1025 N 0.09996 0.33706 0.41768 0.0
H1026 H 0.16945 0.33593 0.36973 0.0
H1027 H 0.15073 0.32337 0.40429 0.0
H1028 H 0.08228 0.3373 0.43282 0.0
H1029 H 0.10899 0.31776 0.41402 0.0
H1030 H 0.10648 0.43452 0.3213 0.0
H1031 H 0.13629 0.41725 0.30794 0.0
H1032 H 0.08761 0.44637 0.371 0.0
H1033 H 0.06648 0.43166 0.40123 0.0
C1034 C 0.73757 0.11832 0.45352 0.0
C1035 C 0.73971 0.1465 0.46821 0.0
C1036 C 0.73988 0.13406 0.53373 0.0
C1037 C 0.74105 0.10594 0.51956 0.0
N1038 N 0.74404 0.07087 0.46664 0.0
N1039 N 0.74903 0.18105 0.52254 0.0
C1040 C 0.74083 0.09791 0.47958 0.0
C1041 C 0.74263 0.15436 0.50842 0.0
N1042 N 0.73149 0.11115 0.41488 0.0
N1043 N 0.73517 0.14134 0.57106 0.0
H1044 H 0.75183 0.19657 0.50495 0.0
H1045 H 0.7543 0.18724 0.55169 0.0
H1046 H 0.7318 0.12685 0.5899 0.0
H1047 H 0.73154 0.16149 0.58201 0.0
H1048 H 0.72682 0.09108 0.40282 0.0
H1049 H 0.72879 0.12562 0.39501 0.0
H1050 H 0.74712 0.06414 0.43831 0.0
H1051 H 0.74555 0.05527 0.48486 0.0
C1052 C 0.89572 0.78498 0.3933 0.0
C1053 C 0.87274 0.78959 0.41556 0.0
C1054 C 0.90521 0.79584 0.47449 0.0
C1055 C 0.92813 0.79437 0.45185 0.0
N1056 N 0.94561 0.79167 0.38967 0.0
N1057 N 0.85552 0.80419 0.47654 0.0
C1058 C 0.92351 0.79015 0.41118 0.0
C1059 C 0.87741 0.79626 0.45601 0.0
N1060 N 0.891 0.77481 0.35542 0.0
N1061 N 0.90999 0.79632 0.5136 0.0
H1062 H 0.83484 0.80521 0.464 0.0
H1063 H 0.8582 0.81214 0.50538 0.0
H1064 H 0.93013 0.79634 0.52827 0.0
H1065 H 0.89398 0.79425 0.53111 0.0
H1066 H 0.90704 0.76844 0.33877 0.0
H1067 H 0.8709 0.77032 0.34149 0.0
H1068 H 0.94315 0.79172 0.35988 0.0
H1069 H 0.96634 0.79507 0.40189 0.0
C1070 C 0.20891 0.99947 0.38783 0.0
C1071 C 0.21554 0.99349 0.3495 0.0
C1072 C 0.22587 0.04237 0.34632 0.0
C1073 C 0.22388 0.04743 0.38633 0.0
N1074 N 0.21447 0.03093 0.44624 0.0
N1075 N 0.23234 0.00879 0.29255 0.0
C1076 C 0.21525 0.02611 0.40735 0.0
C1077 C 0.22419 0.01488 0.32857 0.0
N1078 N 0.19635 0.97967 0.40532 0.0
N1079 N 0.22918 0.06397 0.3253 0.0
H1080 H 0.23105 0.98906 0.27807 0.0
H1081 H 0.24226 0.02293 0.27799 0.0
H1082 H 0.23035 0.08437 0.3376 0.0
H1083 H 0.22803 0.06195 0.29538 0.0
H1084 H 0.18852 0.98336 0.4319 0.0
H1085 H 0.19146 0.96 0.39157 0.0
H1086 H 0.2117 0.01549 0.46387 0.0
H1087 H 0.21833 0.05026 0.46149 0.0
C1088 C 0.13146 0.83734 0.68478 0.0
C1089 C 0.15706 0.82761 0.67124 0.0
C1090 C 0.13029 0.80388 0.61424 0.0
C1091 C 0.10485 0.8122 0.62908 0.0
N1092 N 0.08179 0.82766 0.68509 0.0
N1093 N 0.17886 0.79264 0.63094 0.0
C1094 C 0.10571 0.82532 0.66702 0.0
C1095 C 0.15578 0.80769 0.63866 0.0
N1096 N 0.13106 0.85977 0.71135 0.0
N1097 N 0.13058 0.79388 0.57652 0.0
H1098 H 0.19752 0.79424 0.64939 0.0
H1099 H 0.17824 0.77663 0.60879 0.0
H1100 H 0.11256 0.79205 0.55693 0.0
H1101 H 0.1492 0.78994 0.56403 0.0
H1102 H 0.11238 0.86856 0.71911 0.0
H1103 H 0.14878 0.87175 0.72193 0.0
H1104 H 0.08192 0.83566 0.71381 0.0
H1105 H 0.06255 0.8191 0.67241 0.0
C1106 C 0.34108 0.26537 0.67928 0.0
C1107 C 0.32756 0.29063 0.67359 0.0
C1108 C 0.31021 0.27215 0.60778 0.0
C1109 C 0.31921 0.24574 0.61612 0.0
N1110 N 0.34218 0.21626 0.66018 0.0
N1111 N 0.2955 0.31663 0.63356 0.0
C1112 C 0.33466 0.24208 0.65186 0.0
C1113 C 0.31141 0.29383 0.63794 0.0
N1114 N 0.36031 0.26384 0.71056 0.0
N1115 N 0.30032 0.27644 0.57097 0.0
H1116 H 0.29446 0.33266 0.65518 0.0
H1117 H 0.28108 0.31848 0.60965 0.0
H1118 H 0.29908 0.26087 0.54815 0.0
H1119 H 0.29613 0.29591 0.5624 0.0
H1120 H 0.37272 0.24672 0.71457 0.0
H1121 H 0.36577 0.28074 0.73071 0.0
H1122 H 0.35061 0.21188 0.68737 0.0
H1123 H 0.33833 0.19887 0.64042 0.0
C1124 C 0.8955 0.35728 0.68287 0.0
C1125 C 0.90069 0.33444 0.70431 0.0
C1126 C 0.94869 0.3327 0.68601 0.0
C1127 C 0.94166 0.35194 0.65905 0.0
N1128 N 0.90521 0.37783 0.62614 0.0
N1129 N 0.93094 0.29674 0.71968 0.0
C1130 C 0.91419 0.36304 0.65589 0.0
C1131 C 0.92698 0.32111 0.70419 0.0
N1132 N 0.87321 0.37396 0.68893 0.0
N1133 N 0.97611 0.32599 0.69503 0.0
H1134 H 0.91513 0.28673 0.73153 0.0
H1135 H 0.94896 0.28509 0.71699 0.0
H1136 H 0.99275 0.33508 0.68367 0.0
H1137 H 0.98241 0.3138 0.71693 0.0
H1138 H 0.8701 0.3922 0.6762 0.0
H1139 H 0.85979 0.37129 0.70989 0.0
H1140 H 0.88441 0.38392 0.62094 0.0
H1141 H 0.91747 0.38144 0.60429 0.0
C1142 C 0.75547 0.88919 0.78548 0.0
C1143 C 0.77111 0.86857 0.76607 0.0
C1144 C 0.77118 0.89537 0.71103 0.0
C1145 C 0.75858 0.91737 0.73234 0.0
N1146 N 0.74082 0.93674 0.79084 0.0
N1147 N 0.79649 0.8526 0.7124 0.0
C1148 C 0.7511 0.91466 0.76979 0.0
C1149 C 0.77958 0.87173 0.72927 0.0
N1150 N 0.74447 0.88418 0.81854 0.0
N1151 N 0.77454 0.89691 0.67311 0.0
H1152 H 0.80262 0.8347 0.72453 0.0
H1153 H 0.80611 0.85535 0.68778 0.0
H1154 H 0.7687 0.91398 0.65879 0.0
H1155 H 0.78084 0.88043 0.65493 0.0
H1156 H 0.73042 0.89717 0.83191 0.0
H1157 H 0.74758 0.86584 0.83106 0.0
H1158 H 0.73796 0.93707 0.81985 0.0
H1159 H 0.73692 0.95559 0.78 0.0
C1160 C 0.89065 0.79733 0.68764 0.0
C1161 C 0.89881 0.78049 0.71732 0.0
C1162 C 0.94493 0.77417 0.69333 0.0
C1163 C 0.9356 0.78828 0.66111 0.0
N1164 N 0.89745 0.80869 0.62378 0.0
N1165 N 0.93146 0.74802 0.74353 0.0
C1166 C 0.90783 0.79861 0.65717 0.0
C1167 C 0.92533 0.7675 0.71879 0.0
N1168 N 0.86699 0.81281 0.68918 0.0
N1169 N 0.97272 0.76804 0.7005 0.0
H1170 H 0.91742 0.74198 0.76204 0.0
H1171 H 0.94931 0.73591 0.74297 0.0
H1172 H 0.98796 0.77331 0.68322 0.0
H1173 H 0.98108 0.76027 0.72569 0.0
H1174 H 0.86163 0.82758 0.67046 0.0
H1175 H 0.85411 0.8128 0.71139 0.0
H1176 H 0.87643 0.81378 0.61782 0.0
H1177 H 0.90915 0.80955 0.60049 0.0
C1178 C 0.2914 0.057 0.64094 0.0
C1179 C 0.27994 0.03099 0.62457 0.0
C1180 C 0.2703 0.04933 0.56191 0.0
C1181 C 0.27932 0.07589 0.57913 0.0
N1182 N 0.29554 0.10605 0.6358 0.0
N1183 N 0.25447 0.00342 0.57105 0.0
C1184 C 0.28904 0.08001 0.61892 0.0
C1185 C 0.26836 0.02742 0.58541 0.0
N1186 N 0.30545 0.05946 0.6771 0.0
N1187 N 0.26415 0.0449 0.52288 0.0
H1188 H 0.25244 0.98699 0.58733 0.0
H1189 H 0.24291 1.00063 0.5441 0.0
H1190 H 0.26473 0.06053 0.50487 0.0
H1191 H 0.26076 0.02541 0.50805 0.0
H1192 H 0.3169 0.07697 0.68919 0.0
H1193 H 0.30762 0.04312 0.69402 0.0
H1194 H 0.29964 0.11099 0.6654 0.0
H1195 H 0.29493 0.12319 0.62035 0.0
C1196 C 0.11893 0.40305 0.7066 0.0
C1197 C 0.14643 0.40009 0.69505 0.0
C1198 C 0.12675 0.39005 0.62793 0.0
C1199 C 0.09915 0.39055 0.63959 0.0
N1200 N 0.06887 0.39361 0.69052 0.0
N1201 N 0.17617 0.38394 0.64624 0.0
C1202 C 0.09521 0.39587 0.67917 0.0
C1203 C 0.15022 0.3916 0.65615 0.0
N1204 N 0.11552 0.41352 0.74338 0.0
N1205 N 0.13076 0.38893 0.5899 0.0
H1206 H 0.19393 0.38434 0.66614 0.0
H1207 H 0.17952 0.37456 0.61912 0.0
H1208 H 0.11436 0.38721 0.56797 0.0
H1209 H 0.15033 0.39199 0.58027 0.0
H1210 H 0.09607 0.41885 0.75258 0.0
H1211 H 0.13246 0.41893 0.76405 0.0
H1212 H 0.06493 0.39453 0.7192 0.0
H1213 H 0.05109 0.38863 0.67112 0.0
C1214 C 0.75304 0.1539 0.72124 0.0
C1215 C 0.74277 0.16038 0.75754 0.0
C1216 C 0.73288 0.11133 0.76076 0.0
C1217 C 0.74063 0.10528 0.72287 0.0
N1218 N 0.75404 0.12125 0.66465 0.0
N1219 N 0.71919 0.14609 0.80963 0.0
C1220 C 0.74936 0.12678 0.70236 0.0
C1221 C 0.73151 0.1393 0.77663 0.0
N1222 N 0.76748 0.1734 0.70558 0.0
N1223 N 0.72805 0.09033 0.78218 0.0
H1224 H 0.71809 0.16634 0.82204 0.0
H1225 H 0.70808 0.13202 0.82287 0.0
H1226 H 0.72895 0.06966 0.77153 0.0
H1227 H 0.7253 0.09331 0.81132 0.0
H1228 H 0.77846 0.16923 0.68163 0.0
H1229 H 0.77075 0.19343 0.71862 0.0
H1230 H 0.75906 0.1363 0.64753 0.0
H1231 H 0.75074 0.10183 0.64944 0.0
C1232 C 0.8824 0.36123 0.42498 0.0
C1233 C 0.86745 0.3428 0.44446 0.0
C1234 C 0.90558 0.34622 0.49714 0.0
C1235 C 0.92204 0.36137 0.47508 0.0
N1236 N 0.92807 0.37887 0.41459 0.0
N1237 N 0.86708 0.31376 0.49616 0.0
C1238 C 0.91098 0.36777 0.43805 0.0
C1239 C 0.87952 0.33433 0.47997 0.0
N1240 N 0.86914 0.37279 0.39435 0.0
N1241 N 0.91489 0.34321 0.53454 0.0
H1242 H 0.84844 0.30377 0.48404 0.0
H1243 H 0.87659 0.30477 0.51973 0.0
H1244 H 0.93393 0.35169 0.54786 0.0
H1245 H 0.90261 0.33465 0.55323 0.0
H1246 H 0.87827 0.38832 0.38133 0.0
H1247 H 0.84801 0.36883 0.38448 0.0
H1248 H 0.92178 0.38121 0.38584 0.0
H1249 H 0.9493 0.38352 0.4228 0.0
C1250 C 0.74084 0.89576 0.50384 0.0
C1251 C 0.75786 0.89807 0.47334 0.0
C1252 C 0.76876 0.94597 0.49906 0.0
C1253 C 0.75522 0.94217 0.53224 0.0
N1254 N 0.73496 0.91036 0.57036 0.0
N1255 N 0.79463 0.92362 0.44943 0.0
C1256 C 0.7435 0.91601 0.53607 0.0
C1257 C 0.77382 0.92269 0.47311 0.0
N1258 N 0.72073 0.87548 0.50116 0.0
N1259 N 0.77636 0.97174 0.49181 0.0
H1260 H 0.80039 0.90644 0.432 0.0
H1261 H 0.80824 0.94051 0.4506 0.0
H1262 H 0.77241 0.98939 0.50967 0.0
H1263 H 0.7841 0.97564 0.4662 0.0
H1264 H 0.70643 0.87459 0.5215 0.0
H1265 H 0.71597 0.86175 0.47657 0.0
H1266 H 0.72845 0.89074 0.57522 0.0
H1267 H 0.73707 0.92453 0.59487 0.0
C1268 C 0.11244 0.84982 0.36106 0.0
C1269 C 0.13811 0.83558 0.35866 0.0
C1270 C 0.12734 0.81001 0.41201 0.0
C1271 C 0.10023 0.82184 0.41109 0.0
N1272 N 0.06445 0.84709 0.37631 0.0
N1273 N 0.1659 0.7965 0.37515 0.0
C1274 C 0.09197 0.8399 0.38294 0.0
C1275 C 0.14434 0.81391 0.38209 0.0
N1276 N 0.10803 0.87362 0.34423 0.0
N1277 N 0.1376 0.79624 0.44225 0.0
H1278 H 0.178 0.79779 0.35233 0.0
H1279 H 0.16962 0.77898 0.38939 0.0
H1280 H 0.12656 0.7941 0.46587 0.0
H1281 H 0.15829 0.78957 0.44576 0.0
H1282 H 0.09062 0.88592 0.34828 0.0
H1283 H 0.12313 0.88268 0.32996 0.0
H1284 H 0.05711 0.85836 0.3538 0.0
H1285 H 0.04853 0.83918 0.39041 0.0
C1286 C 0.24325 0.2534 0.35351 0.0
C1287 C 0.26379 0.27497 0.36224 0.0
C1288 C 0.28403 0.25165 0.41755 0.0
C1289 C 0.26563 0.22868 0.40597 0.0
N1290 N 0.23162 0.20551 0.3577 0.0
N1291 N 0.3078 0.29095 0.39789 0.0
C1292 C 0.24647 0.22889 0.37227 0.0
C1293 C 0.28533 0.27308 0.39303 0.0
N1294 N 0.21984 0.25677 0.32873 0.0
N1295 N 0.29987 0.25336 0.45242 0.0
H1296 H 0.31027 0.3061 0.37963 0.0
H1297 H 0.3254 0.28886 0.41746 0.0
H1298 H 0.29942 0.23822 0.47122 0.0
H1299 H 0.31144 0.27092 0.46414 0.0
H1300 H 0.20292 0.24285 0.32428 0.0
H1301 H 0.21591 0.27481 0.31579 0.0
H1302 H 0.21949 0.20365 0.33113 0.0
H1303 H 0.2335 0.18717 0.37048 0.0
C1304 C 0.67175 0.83804 0.89907 0.0
C1305 C 0.68968 0.82119 0.92101 0.0
C1306 C 0.65791 0.82448 0.9717 0.0
C1307 C 0.6383 0.83823 0.94752 0.0
N1308 N 0.62536 0.85753 0.88793 0.0
N1309 N 0.69988 0.79691 0.97708 0.0
C1310 C 0.645 0.84512 0.91124 0.0
C1311 C 0.68292 0.81423 0.95725 0.0
N1312 N 0.6805 0.84739 0.86684 0.0
N1313 N 0.65262 0.82146 0.00857 0.0
H1314 H 0.71887 0.78971 0.96809 0.0
H1315 H 0.69446 0.78828 0.00122 0.0
H1316 H 0.63425 0.82832 0.01985 0.0
H1317 H 0.66727 0.81421 0.02902 0.0
H1318 H 0.66975 0.8619 0.85151 0.0
H1319 H 0.69984 0.84221 0.85699 0.0
H1320 H 0.62753 0.86027 0.8594 0.0
H1321 H 0.60596 0.86385 0.89652 0.0
C1322 C 0.25324 0.77557 0.83638 0.0
C1323 C 0.27804 0.79224 0.83945 0.0
C1324 C 0.29989 0.76485 0.88946 0.0
C1325 C 0.27586 0.74704 0.88439 0.0
N1326 N 0.23151 0.73275 0.84877 0.0
N1327 N 0.32665 0.80012 0.86433 0.0
C1328 C 0.25309 0.75164 0.85654 0.0
C1329 C 0.30185 0.78611 0.86474 0.0
N1330 N 0.2294 0.78327 0.81543 0.0
N1331 N 0.32046 0.76201 0.91879 0.0
H1332 H 0.32889 0.81574 0.8467 0.0
H1333 H 0.34557 0.79483 0.87898 0.0
H1334 H 0.32002 0.74647 0.93697 0.0
H1335 H 0.33687 0.77619 0.92699 0.0
H1336 H 0.2098 0.77389 0.8155 0.0
H1337 H 0.22861 0.80059 0.80034 0.0
H1338 H 0.21582 0.7332 0.82596 0.0
H1339 H 0.23052 0.71521 0.86319 0.0
C1340 C 0.40363 0.3335 0.91392 0.0
C1341 C 0.41042 0.35599 0.89392 0.0
C1342 C 0.45999 0.35125 0.91843 0.0
C1343 C 0.45198 0.33314 0.94467 0.0
N1344 N 0.41375 0.31192 0.97208 0.0
N1345 N 0.44546 0.38927 0.88246 0.0
C1346 C 0.42313 0.32549 0.94369 0.0
C1347 C 0.43881 0.36557 0.89718 0.0
N1348 N 0.37872 0.31941 0.90413 0.0
N1349 N 0.48778 0.35517 0.9144 0.0
H1350 H 0.43046 0.40134 0.86877 0.0
H1351 H 0.46544 0.3984 0.88742 0.0
H1352 H 0.50373 0.34498 0.92961 0.0
H1353 H 0.49466 0.36641 0.89341 0.0
H1354 H 0.37393 0.30148 0.91601 0.0
H1355 H 0.36446 0.32375 0.88106 0.0
H1356 H 0.39243 0.30854 0.97419 0.0
H1357 H 0.42681 0.30636 0.99544 0.0
C1358 C 0.75476 0.40664 0.98889 0.0
C1359 C 0.77189 0.4079 0.95857 0.0
C1360 C 0.79036 0.45311 0.98794 0.0
C1361 C 0.77577 0.4502 0.02048 0.0
N1362 N 0.74829 0.42132 0.05498 0.0
N1363 N 0.80936 0.43033 0.93184 0.0
C1364 C 0.75915 0.42613 0.02183 0.0
C1365 C 0.79057 0.43067 0.95866 0.0
N1366 N 0.73367 0.38725 0.98574 0.0
N1367 N 0.80369 0.47747 0.98477 0.0
H1368 H 0.81033 0.41423 0.91016 0.0
H1369 H 0.82553 0.44486 0.93297 0.0
H1370 H 0.80422 0.4942 0.00586 0.0
H1371 H 0.8122 0.48186 0.95993 0.0
H1372 H 0.71863 0.38715 0.00517 0.0
H1373 H 0.72944 0.37293 0.96163 0.0
H1374 H 0.73887 0.40268 0.05887 0.0
H1375 H 0.7508 0.435 0.07976 0.0
C1376 C 0.64973 0.2874 0.16556 0.0
C1377 C 0.6453 0.27767 0.20117 0.0
C1378 C 0.59471 0.27336 0.18143 0.0
C1379 C 0.59921 0.28195 0.14511 0.0
N1380 N 0.6312 0.29127 0.09937 0.0
N1381 N 0.61505 0.25448 0.23886 0.0
C1382 C 0.62687 0.28704 0.13614 0.0
C1383 C 0.61821 0.26848 0.20779 0.0
N1384 N 0.6754 0.29811 0.16049 0.0
N1385 N 0.56803 0.27099 0.19152 0.0
H1386 H 0.63188 0.25022 0.25862 0.0
H1387 H 0.5963 0.24477 0.24294 0.0
H1388 H 0.55014 0.27382 0.17294 0.0
H1389 H 0.56369 0.26818 0.21931 0.0
H1390 H 0.67907 0.30824 0.1368 0.0
H1391 H 0.69261 0.29875 0.18143 0.0
H1392 H 0.65111 0.29247 0.09005 0.0
H1393 H 0.61479 0.29099 0.07728 0.0
C1394 C 0.80464 0.64115 0.27535 0.0
C1395 C 0.79745 0.66392 0.25455 0.0
C1396 C 0.79976 0.63424 0.19414 0.0
C1397 C 0.80154 0.61087 0.21489 0.0
N1398 N 0.80142 0.59179 0.27563 0.0
N1399 N 0.78447 0.68119 0.19307 0.0
C1400 C 0.80317 0.61419 0.25569 0.0
C1401 C 0.79445 0.66038 0.21358 0.0
N1402 N 0.81282 0.64533 0.31394 0.0
N1403 N 0.8025 0.63128 0.15562 0.0
H1404 H 0.77949 0.70049 0.20572 0.0
H1405 H 0.77873 0.67856 0.16348 0.0
H1406 H 0.80591 0.61224 0.14057 0.0
H1407 H 0.80404 0.64788 0.13955 0.0
H1408 H 0.82063 0.62974 0.32997 0.0
H1409 H 0.81453 0.66494 0.32898 0.0
H1410 H 0.79937 0.59335 0.305 0.0
H1411 H 0.79958 0.57169 0.26238 0.0
C1412 C 0.38974 0.88424 0.14776 0.0
C1413 C 0.36288 0.87347 0.13234 0.0
C1414 C 0.38187 0.85655 0.07222 0.0
C1415 C 0.40923 0.86518 0.08898 0.0
N1416 N 0.44011 0.88187 0.14554 0.0
N1417 N 0.33407 0.84514 0.08276 0.0
C1418 C 0.41343 0.87756 0.12759 0.0
C1419 C 0.3591 0.85846 0.0953 0.0
N1420 N 0.3925 0.9014 0.18127 0.0
N1421 N 0.37747 0.84724 0.034 0.0
H1422 H 0.31685 0.84607 0.09876 0.0
H1423 H 0.3311 0.83134 0.05799 0.0
H1424 H 0.39364 0.84496 0.01629 0.0
H1425 H 0.35753 0.84375 0.01918 0.0
H1426 H 0.41101 0.9122 0.1918 0.0
H1427 H 0.37555 0.90684 0.19679 0.0
H1428 H 0.44442 0.88817 0.17481 0.0
H1429 H 0.45808 0.87656 0.13214 0.0
C1430 C 0.23579 0.53539 0.14807 0.0
C1431 C 0.25621 0.5144 0.147 0.0
C1432 C 0.2823 0.53994 0.10482 0.0
C1433 C 0.26038 0.55952 0.10245 0.0
N1434 N 0.21558 0.57553 0.12092 0.0
N1435 N 0.29648 0.4943 0.11964 0.0
C1436 C 0.23687 0.55705 0.12377 0.0
C1437 C 0.27882 0.51607 0.12413 0.0
N1438 N 0.21597 0.53516 0.17344 0.0
N1439 N 0.30684 0.54433 0.08943 0.0
H1440 H 0.29474 0.4765 0.1333 0.0
H1441 H 0.31126 0.49277 0.09977 0.0
H1442 H 0.31042 0.5612 0.07472 0.0
H1443 H 0.32469 0.53252 0.09409 0.0
H1444 H 0.20232 0.55126 0.17892 0.0
H1445 H 0.21446 0.5196 0.19138 0.0
H1446 H 0.19629 0.57302 0.13149 0.0
H1447 H 0.21666 0.59298 0.10636 0.0
C1448 C 0.39896 0.34806 0.20428 0.0
C1449 C 0.38048 0.32662 0.21112 0.0
C1450 C 0.40841 0.29258 0.17606 0.0
C1451 C 0.42664 0.31408 0.16911 0.0
N1452 N 0.44382 0.3608 0.18419 0.0
N1453 N 0.37078 0.27834 0.2116 0.0
C1454 C 0.42343 0.34134 0.1859 0.0
C1455 C 0.38633 0.29875 0.19965 0.0
N1456 N 0.39224 0.37496 0.21306 0.0
N1457 N 0.41161 0.26655 0.15891 0.0
H1458 H 0.35462 0.28245 0.22908 0.0
H1459 H 0.37535 0.25753 0.20711 0.0
H1460 H 0.42814 0.26125 0.14253 0.0
H1461 H 0.39717 0.25056 0.15914 0.0
H1462 H 0.40274 0.39142 0.20392 0.0
H1463 H 0.37495 0.38098 0.22738 0.0
H1464 H 0.4442 0.38027 0.19942 0.0
H1465 H 0.4618 0.35673 0.17024 0.0
C1466 C 0.7807 0.40787 0.29218 0.0
C1467 C 0.75425 0.39421 0.28979 0.0
C1468 C 0.73195 0.43072 0.25535 0.0
C1469 C 0.75896 0.4419 0.25247 0.0
N1470 N 0.80948 0.44074 0.26593 0.0
N1471 N 0.70468 0.39127 0.2679 0.0
C1472 C 0.78348 0.43064 0.27077 0.0
C1473 C 0.72974 0.40543 0.27146 0.0
N1474 N 0.80305 0.3991 0.31508 0.0
N1475 N 0.70852 0.44443 0.24268 0.0
H1476 H 0.70216 0.37286 0.27986 0.0
H1477 H 0.6868 0.39673 0.25101 0.0
H1478 H 0.70966 0.46305 0.23078 0.0
H1479 H 0.68816 0.43876 0.24704 0.0
H1480 H 0.82216 0.40981 0.3211 0.0
H1481 H 0.80173 0.38225 0.33083 0.0
H1482 H 0.8282 0.43125 0.27448 0.0
H1483 H 0.81241 0.45779 0.25115 0.0
C1484 C 0.58748 0.80605 0.18181 0.0
C1485 C 0.61512 0.81763 0.1865 0.0
C1486 C 0.60399 0.84118 0.12894 0.0
C1487 C 0.57565 0.83197 0.12669 0.0
N1488 N 0.53885 0.81217 0.15778 0.0
N1489 N 0.64569 0.85395 0.17195 0.0
C1490 C 0.56682 0.81669 0.15558 0.0
C1491 C 0.62217 0.83766 0.16238 0.0
N1492 N 0.58126 0.78384 0.20018 0.0
N1493 N 0.6139 0.85246 0.09887 0.0
H1494 H 0.65857 0.8533 0.1977 0.0
H1495 H 0.65036 0.87022 0.15656 0.0
H1496 H 0.60153 0.85452 0.07311 0.0
H1497 H 0.63515 0.85715 0.09822 0.0
H1498 H 0.56197 0.77336 0.19474 0.0
H1499 H 0.59622 0.77401 0.21748 0.0
H1500 H 0.53138 0.80304 0.18037 0.0
H1501 H 0.52317 0.81987 0.13903 0.0
C1502 C 0.19976 0.75448 0.09834 0.0
C1503 C 0.19463 0.7482 0.13578 0.0
C1504 C 0.2017 0.69924 0.1163 0.0
C1505 C 0.20724 0.70592 0.07953 0.0
N1506 N 0.20085 0.73774 0.03143 0.0
N1507 N 0.18256 0.71405 0.17634 0.0
C1508 C 0.20224 0.73276 0.06909 0.0
C1509 C 0.19279 0.72028 0.14336 0.0
N1510 N 0.20498 0.78089 0.0912 0.0
N1511 N 0.20612 0.6731 0.12576 0.0
H1512 H 0.17545 0.72914 0.19614 0.0
H1513 H 0.17867 0.69401 0.18221 0.0
H1514 H 0.21141 0.65714 0.10579 0.0
H1515 H 0.20569 0.66757 0.15353 0.0
H1516 H 0.21163 0.78589 0.06544 0.0
H1517 H 0.20584 0.79773 0.11184 0.0
H1518 H 0.19452 0.75645 0.0219 0.0
H1519 H 0.20265 0.72235 0.00913 0.0
C1520 C 0.42977 0.89115 0.84082 0.0
C1521 C 0.40366 0.88651 0.8553 0.0
C1522 C 0.42846 0.87477 0.91556 0.0
C1523 C 0.45415 0.87635 0.89954 0.0
N1524 N 0.47995 0.88271 0.8458 0.0
N1525 N 0.37771 0.86965 0.90376 0.0
C1526 C 0.45507 0.88361 0.86178 0.0
C1527 C 0.40279 0.87729 0.89214 0.0
N1528 N 0.43039 0.90356 0.80778 0.0
N1529 N 0.42953 0.87138 0.95366 0.0
H1530 H 0.3585 0.87094 0.88706 0.0
H1531 H 0.37612 0.85972 0.92828 0.0
H1532 H 0.41213 0.87222 0.9693 0.0
H1533 H 0.41213 0.87222 0.9693 0.0
H1534 H 0.4489 0.90993 0.79787 0.0
H1535 H 0.41227 0.9097 0.79191 0.0
H1536 H 0.4815 0.88494 0.81694 0.0
H1537 H 0.4989 0.87776 0.86089 0.0
C1538 C 0.32913 0.52636 0.95575 0.0
C1539 C 0.33807 0.52084 0.91868 0.0
C1540 C 0.33645 0.57 0.91121 0.0
C1541 C 0.32032 0.57393 0.94296 0.0
N1542 N 0.30236 0.55584 0.99707 0.0
N1543 N 0.37141 0.54133 0.88298 0.0
C1544 C 0.31747 0.55227 0.96622 0.0
C1545 C 0.34797 0.54372 0.90193 0.0
N1546 N 0.33415 0.50774 0.98186 0.0
N1547 N 0.34023 0.59097 0.88936 0.0
H1548 H 0.38352 0.52361 0.88317 0.0
H1549 H 0.38097 0.55796 0.87281 0.0
H1550 H 0.33258 0.61068 0.89578 0.0
H1551 H 0.34946 0.58811 0.86367 0.0
H1552 H 0.33029 0.51163 0.01057 0.0
H1553 H 0.34499 0.48966 0.9752 0.0
H1554 H 0.29588 0.53938 0.01083 0.0
H1555 H 0.29497 0.57496 0.00707 0.0
C1556 C 0.66853 0.30926 0.94994 0.0
C1557 C 0.66485 0.29707 0.91126 0.0
C1558 C 0.61378 0.29593 0.91354 0.0
C1559 C 0.61772 0.30469 0.95357 0.0
N1560 N 0.64955 0.31553 0.01136 0.0
N1561 N 0.63442 0.27452 0.85801 0.0
C1562 C 0.6453 0.3103 0.97222 0.0
C1563 C 0.63756 0.2892 0.89352 0.0
N1564 N 0.69394 0.32076 0.96506 0.0
N1565 N 0.58733 0.2949 0.89438 0.0
H1566 H 0.65139 0.26884 0.84268 0.0
H1567 H 0.61531 0.26579 0.8454 0.0
H1568 H 0.56947 0.30047 0.90787 0.0
H1569 H 0.58345 0.29126 0.86455 0.0
H1570 H 0.69696 0.33254 0.99166 0.0
H1571 H 0.71143 0.32075 0.94961 0.0
H1572 H 0.66944 0.31656 0.02674 0.0
H1573 H 0.63322 0.31653 0.02887 0.0
C1574 C 0.83558 0.60655 0.95476 0.0
C1575 C 0.84424 0.63366 0.96963 0.0
C1576 C 0.84356 0.62091 0.03485 0.0
C1577 C 0.82745 0.597 0.01971 0.0
N1578 N 0.81059 0.56515 0.96469 0.0
N1579 N 0.8774 0.65432 0.0207 0.0
C1580 C 0.82429 0.58911 0.97944 0.0
C1581 C 0.85458 0.63753 0.00905 0.0
N1582 N 0.84269 0.59608 0.91965 0.0
N1583 N 0.8476 0.62833 0.07359 0.0
H1584 H 0.888 0.66375 0.00087 0.0
H1585 H 0.88758 0.65601 0.04858 0.0
H1586 H 0.84007 0.61664 0.09363 0.0
H1587 H 0.85675 0.64714 0.08542 0.0
H1588 H 0.83922 0.57557 0.90864 0.0
H1589 H 0.85568 0.60715 0.90439 0.0
H1590 H 0.80532 0.56008 0.93524 0.0
H1591 H 0.80316 0.55115 0.98192 0.0
loop_
_geom_bond_atom_site_label_1
_geom_bond_atom_site_label_2
_geom_bond_distance
_geom_bond_site_symmetry_2
_ccdc_geom_bond_type
H0 O26 0.856 . S
H1 O29 0.854 . S
H2 C37 0.930 . S
H3 C38 0.930 . S
H4 C40 0.930 . S
H5 C41 0.930 . S
H6 C43 0.931 . S
H7 C44 0.930 . S
H8 C46 0.930 . S
H9 C47 0.929 . S
H10 C49 0.930 . S
H11 C50 0.931 . S
H12 C52 0.930 . S
H13 C53 0.929 . S
H14 C55 0.931 . S
H15 C56 0.930 . S
H16 C58 0.930 . S
H17 C59 0.932 . S
H18 C61 0.930 . S
H19 C62 0.929 . S
H20 C64 0.931 . S
H21 C65 0.930 . S
H22 C67 0.929 . S
H23 C68 0.931 . S
H24 C70 0.930 . S
H25 C71 0.929 . S
O26 H0 0.856 . S
O26 C72 1.300 . S
O27 C72 1.209 . S
O28 C73 1.199 . S
O29 H1 0.854 . S
O29 C73 1.297 . S
C30 C31 1.404 . S
C30 C35 1.397 . S
C30 C36 1.492 . S
C31 C30 1.404 . S
C31 C32 1.396 . S
C31 C42 1.492 . S
C32 C31 1.396 . S
C32 C33 1.397 . S
C32 C48 1.509 . S
C33 C32 1.397 . S
C33 C34 1.412 . S
C33 C54 1.485 . S
C34 C33 1.412 . S
C34 C35 1.388 . S
C34 C60 1.490 . S
C35 C30 1.397 . S
C35 C34 1.388 . S
C35 C66 1.519 . S
C36 C30 1.492 . S
C36 C37 1.363 . S
C36 C41 1.390 . S
C37 H2 0.930 . S
C37 C36 1.363 . S
C37 C38 1.372 . S
C38 H3 0.930 . S
C38 C37 1.372 . S
C38 C39 1.383 . S
C39 C38 1.383 . S
C39 C40 1.395 . S
C40 H4 0.930 . S
C40 C39 1.395 . S
C40 C41 1.362 . S
C41 H5 0.930 . S
C41 C36 1.390 . S
C41 C40 1.362 . S
C42 C31 1.492 . S
C42 C43 1.377 . S
C42 C47 1.397 . S
C43 H6 0.931 . S
C43 C42 1.377 . S
C43 C44 1.376 . S
C44 H7 0.930 . S
C44 C43 1.376 . S
C44 C45 1.376 . S
C45 C44 1.376 . S
C45 C46 1.378 . S
C45 C72 1.486 . S
C46 H8 0.930 . S
C46 C45 1.378 . S
C46 C47 1.376 . S
C47 H9 0.929 . S
C47 C42 1.397 . S
C47 C46 1.376 . S
C48 C32 1.509 . S
C48 C49 1.391 . S
C48 C53 1.386 . S
C49 H10 0.930 . S
C49 C48 1.391 . S
C49 C50 1.375 . S
C50 H11 0.931 . S
C50 C49 1.375 . S
C50 C51 1.375 . S
C51 C50 1.375 . S
C51 C52 1.361 . S
C52 H12 0.930 . S
C52 C51 1.361 . S
C52 C53 1.399 . S
C53 H13 0.929 . S
C53 C48 1.386 . S
C53 C52 1.399 . S
C54 C33 1.485 . S
C54 C55 1.394 . S
C54 C59 1.360 . S
C55 H14 0.931 . S
C55 C54 1.394 . S
C55 C56 1.372 . S
C56 H15 0.930 . S
C56 C55 1.372 . S
C56 C57 1.397 . S
C57 C56 1.397 . S
C57 C58 1.390 . S
C57 C73 1.476 . S
C58 H16 0.930 . S
C58 C57 1.390 . S
C58 C59 1.366 . S
C59 H17 0.932 . S
C59 C54 1.360 . S
C59 C58 1.366 . S
C60 C34 1.490 . S
C60 C61 1.380 . S
C60 C65 1.386 . S
C61 H18 0.930 . S
C61 C60 1.380 . S
C61 C62 1.381 . S
C62 H19 0.929 . S
C62 C61 1.381 . S
C62 C63 1.371 . S
C63 C62 1.371 . S
C63 C64 1.380 . S
C64 H20 0.931 . S
C64 C63 1.380 . S
C64 C65 1.387 . S
C65 H21 0.930 . S
C65 C60 1.386 . S
C65 C64 1.387 . S
C66 C35 1.519 . S
C66 C67 1.377 . S
C66 C71 1.361 . S
C67 H22 0.929 . S
C67 C66 1.377 . S
C67 C68 1.386 . S
C68 H23 0.931 . S
C68 C67 1.386 . S
C68 C69 1.363 . S
C69 C68 1.363 . S
C69 C70 1.385 . S
C70 H24 0.930 . S
C70 C69 1.385 . S
C70 C71 1.396 . S
C71 H25 0.929 . S
C71 C66 1.361 . S
C71 C70 1.396 . S
C72 O26 1.300 . S
C72 O27 1.209 . S
C72 C45 1.486 . S
C73 O28 1.199 . S
C73 O29 1.297 . S
C73 C57 1.476 . S
H74 O100 0.856 . S
H75 O103 0.854 . S
H76 C111 0.930 . S
H77 C112 0.930 . S
H78 C114 0.930 . S
H79 C115 0.930 . S
H80 C117 0.931 . S
H81 C118 0.930 . S
H82 C120 0.930 . S
H83 C121 0.929 . S
H84 C123 0.930 . S
H85 C124 0.931 . S
H86 C126 0.930 . S
H87 C127 0.929 . S
H88 C129 0.931 . S
H89 C130 0.930 . S
H90 C132 0.930 . S
H91 C133 0.932 . S
H92 C135 0.930 . S
H93 C136 0.929 . S
H94 C138 0.931 . S
H95 C139 0.930 . S
H96 C141 0.929 . S
H97 C142 0.931 . S
H98 C144 0.930 . S
H99 C145 0.929 . S
O100 H74 0.856 . S
O100 C146 1.300 . S
O101 C146 1.209 . S
O102 C147 1.199 . S
O103 H75 0.854 . S
O103 C147 1.297 . S
C104 C105 1.404 . S
C104 C109 1.397 . S
C104 C110 1.492 . S
C105 C104 1.404 . S
C105 C106 1.396 . S
C105 C116 1.492 . S
C106 C105 1.396 . S
C106 C107 1.397 . S
C106 C122 1.509 . S
C107 C106 1.397 . S
C107 C108 1.412 . S
C107 C128 1.485 . S
C108 C107 1.412 . S
C108 C109 1.388 . S
C108 C134 1.490 . S
C109 C104 1.397 . S
C109 C108 1.388 . S
C109 C140 1.519 . S
C110 C104 1.492 . S
C110 C111 1.363 . S
C110 C115 1.390 . S
C111 H76 0.930 . S
C111 C110 1.363 . S
C111 C112 1.372 . S
C112 H77 0.930 . S
C112 C111 1.372 . S
C112 C113 1.383 . S
C113 C112 1.383 . S
C113 C114 1.395 . S
C114 H78 0.930 . S
C114 C113 1.395 . S
C114 C115 1.362 . S
C115 H79 0.930 . S
C115 C110 1.390 . S
C115 C114 1.362 . S
C116 C105 1.492 . S
C116 C117 1.377 . S
C116 C121 1.397 . S
C117 H80 0.931 . S
C117 C116 1.377 . S
C117 C118 1.376 . S
C118 H81 0.930 . S
C118 C117 1.376 . S
C118 C119 1.376 . S
C119 C118 1.376 . S
C119 C120 1.378 . S
C119 C146 1.486 . S
C120 H82 0.930 . S
C120 C119 1.378 . S
C120 C121 1.376 . S
C121 H83 0.929 . S
C121 C116 1.397 . S
C121 C120 1.376 . S
C122 C106 1.509 . S
C122 C123 1.391 . S
C122 C127 1.386 . S
C123 H84 0.930 . S
C123 C122 1.391 . S
C123 C124 1.375 . S
C124 H85 0.931 . S
C124 C123 1.375 . S
C124 C125 1.375 . S
C125 C124 1.375 . S
C125 C126 1.361 . S
C126 H86 0.930 . S
C126 C125 1.361 . S
C126 C127 1.399 . S
C127 H87 0.929 . S
C127 C122 1.386 . S
C127 C126 1.399 . S
C128 C107 1.485 . S
C128 C129 1.394 . S
C128 C133 1.360 . S
C129 H88 0.931 . S
C129 C128 1.394 . S
C129 C130 1.372 . S
C130 H89 0.930 . S
C130 C129 1.372 . S
C130 C131 1.397 . S
C131 C130 1.397 . S
C131 C132 1.390 . S
C131 C147 1.476 . S
C132 H90 0.930 . S
C132 C131 1.390 . S
C132 C133 1.366 . S
C133 H91 0.932 . S
C133 C128 1.360 . S
C133 C132 1.366 . S
C134 C108 1.490 . S
C134 C135 1.380 . S
C134 C139 1.386 . S
C135 H92 0.930 . S
C135 C134 1.380 . S
C135 C136 1.381 . S
C136 H93 0.929 . S
C136 C135 1.381 . S
C136 C137 1.371 . S
C137 C136 1.371 . S
C137 C138 1.380 . S
C138 H94 0.931 . S
C138 C137 1.380 . S
C138 C139 1.387 . S
C139 H95 0.930 . S
C139 C134 1.386 . S
C139 C138 1.387 . S
C140 C109 1.519 . S
C140 C141 1.377 . S
C140 C145 1.361 . S
C141 H96 0.929 . S
C141 C140 1.377 . S
C141 C142 1.386 . S
C142 H97 0.931 . S
C142 C141 1.386 . S
C142 C143 1.363 . S
C143 C142 1.363 . S
C143 C144 1.385 . S
C144 H98 0.930 . S
C144 C143 1.385 . S
C144 C145 1.396 . S
C145 H99 0.929 . S
C145 C140 1.361 . S
C145 C144 1.396 . S
C146 O100 1.300 . S
C146 O101 1.209 . S
C146 C119 1.486 . S
C147 O102 1.199 . S
C147 O103 1.297 . S
C147 C131 1.476 . S
H148 O174 0.856 . S
H149 O177 0.854 . S
H150 C185 0.930 . S
H151 C186 0.930 . S
H152 C188 0.930 . S
H153 C189 0.930 . S
H154 C191 0.931 . S
H155 C192 0.930 . S
H156 C194 0.930 . S
H157 C195 0.929 . S
H158 C197 0.930 . S
H159 C198 0.931 . S
H160 C200 0.930 . S
H161 C201 0.929 . S
H162 C203 0.931 . S
H163 C204 0.930 . S
H164 C206 0.930 . S
H165 C207 0.932 . S
H166 C209 0.930 . S
H167 C210 0.929 . S
H168 C212 0.931 . S
H169 C213 0.930 . S
H170 C215 0.929 . S
H171 C216 0.931 . S
H172 C218 0.930 . S
H173 C219 0.929 . S
O174 H148 0.856 . S
O174 C220 1.300 . S
O175 C220 1.209 . S
O176 C221 1.199 . S
O177 H149 0.854 . S
O177 C221 1.297 . S
C178 C179 1.404 . S
C178 C183 1.397 . S
C178 C184 1.492 . S
C179 C178 1.404 . S
C179 C180 1.396 . S
C179 C190 1.492 . S
C180 C179 1.396 . S
C180 C181 1.397 . S
C180 C196 1.509 . S
C181 C180 1.397 . S
C181 C182 1.412 . S
C181 C202 1.485 . S
C182 C181 1.412 . S
C182 C183 1.388 . S
C182 C208 1.490 . S
C183 C178 1.397 . S
C183 C182 1.388 . S
C183 C214 1.519 . S
C184 C178 1.492 . S
C184 C185 1.363 . S
C184 C189 1.390 . S
C185 H150 0.930 . S
C185 C184 1.363 . S
C185 C186 1.372 . S
C186 H151 0.930 . S
C186 C185 1.372 . S
C186 C187 1.383 . S
C187 C186 1.383 . S
C187 C188 1.395 . S
C188 H152 0.930 . S
C188 C187 1.395 . S
C188 C189 1.362 . S
C189 H153 0.930 . S
C189 C184 1.390 . S
C189 C188 1.362 . S
C190 C179 1.492 . S
C190 C191 1.377 . S
C190 C195 1.397 . S
C191 H154 0.931 . S
C191 C190 1.377 . S
C191 C192 1.376 . S
C192 H155 0.930 . S
C192 C191 1.376 . S
C192 C193 1.376 . S
C193 C192 1.376 . S
C193 C194 1.378 . S
C193 C220 1.486 . S
C194 H156 0.930 . S
C194 C193 1.378 . S
C194 C195 1.376 . S
C195 H157 0.929 . S
C195 C190 1.397 . S
C195 C194 1.376 . S
C196 C180 1.509 . S
C196 C197 1.391 . S
C196 C201 1.386 . S
C197 H158 0.930 . S
C197 C196 1.391 . S
C197 C198 1.375 . S
C198 H159 0.931 . S
C198 C197 1.375 . S
C198 C199 1.375 . S
C199 C198 1.375 . S
C199 C200 1.361 . S
C200 H160 0.930 . S
C200 C199 1.361 . S
C200 C201 1.399 . S
C201 H161 0.929 . S
C201 C196 1.386 . S
C201 C200 1.399 . S
C202 C181 1.485 . S
C202 C203 1.394 . S
C202 C207 1.360 . S
C203 H162 0.931 . S
C203 C202 1.394 . S
C203 C204 1.372 . S
C204 H163 0.930 . S
C204 C203 1.372 . S
C204 C205 1.397 . S
C205 C204 1.397 . S
C205 C206 1.390 . S
C205 C221 1.476 . S
C206 H164 0.930 . S
C206 C205 1.390 . S
C206 C207 1.366 . S
C207 H165 0.932 . S
C207 C202 1.360 . S
C207 C206 1.366 . S
C208 C182 1.490 . S
C208 C209 1.380 . S
C208 C213 1.386 . S
C209 H166 0.930 . S
C209 C208 1.380 . S
C209 C210 1.381 . S
C210 H167 0.929 . S
C210 C209 1.381 . S
C210 C211 1.371 . S
C211 C210 1.371 . S
C211 C212 1.380 . S
C212 H168 0.931 . S
C212 C211 1.380 . S
C212 C213 1.387 . S
C213 H169 0.930 . S
C213 C208 1.386 . S
C213 C212 1.387 . S
C214 C183 1.519 . S
C214 C215 1.377 . S
C214 C219 1.361 . S
C215 H170 0.929 . S
C215 C214 1.377 . S
C215 C216 1.386 . S
C216 H171 0.931 . S
C216 C215 1.386 . S
C216 C217 1.363 . S
C217 C216 1.363 . S
C217 C218 1.385 . S
C218 H172 0.930 . S
C218 C217 1.385 . S
C218 C219 1.396 . S
C219 H173 0.929 . S
C219 C214 1.361 . S
C219 C218 1.396 . S
C220 O174 1.300 . S
C220 O175 1.209 . S
C220 C193 1.486 . S
C221 O176 1.199 . S
C221 O177 1.297 . S
C221 C205 1.476 . S
H222 O248 0.856 . S
H223 O251 0.854 1_556 S
H224 C259 0.930 . S
H225 C260 0.930 . S
H226 C262 0.930 . S
H227 C263 0.930 . S
H228 C265 0.931 . S
H229 C266 0.930 . S
H230 C268 0.930 1_545 S
H231 C269 0.929 . S
H232 C271 0.930 . S
H233 C272 0.931 . S
H234 C274 0.930 . S
H235 C275 0.929 . S
H236 C277 0.931 . S
H237 C278 0.930 . S
H238 C280 0.930 . S
H239 C281 0.932 . S
H240 C283 0.930 . S
H241 C284 0.929 . S
H242 C286 0.931 . S
H243 C287 0.930 . S
H244 C289 0.929 . S
H245 C290 0.931 . S
H246 C292 0.930 . S
H247 C293 0.929 . S
O248 H222 0.856 . S
O248 C294 1.300 . S
O249 C294 1.209 . S
O250 C295 1.199 . S
O251 H223 0.854 1_554 S
O251 C295 1.297 . S
C252 C253 1.404 . S
C252 C257 1.397 . S
C252 C258 1.492 . S
C253 C252 1.404 . S
C253 C254 1.396 . S
C253 C264 1.492 . S
C254 C253 1.396 . S
C254 C255 1.397 . S
C254 C270 1.509 . S
C255 C254 1.397 . S
C255 C256 1.412 . S
C255 C276 1.485 . S
C256 C255 1.412 . S
C256 C257 1.388 . S
C256 C282 1.490 . S
C257 C252 1.397 . S
C257 C256 1.388 . S
C257 C288 1.519 . S
C258 C252 1.492 . S
C258 C259 1.363 . S
C258 C263 1.390 . S
C259 H224 0.930 . S
C259 C258 1.363 . S
C259 C260 1.372 . S
C260 H225 0.930 . S
C260 C259 1.372 . S
C260 C261 1.383 . S
C261 C260 1.383 . S
C261 C262 1.395 . S
C262 H226 0.930 . S
C262 C261 1.395 . S
C262 C263 1.362 . S
C263 H227 0.930 . S
C263 C258 1.390 . S
C263 C262 1.362 . S
C264 C253 1.492 . S
C264 C265 1.377 . S
C264 C269 1.397 . S
C265 H228 0.931 . S
C265 C264 1.377 . S
C265 C266 1.376 . S
C266 H229 0.930 . S
C266 C265 1.376 . S
C266 C267 1.376 . S
C267 C266 1.376 . S
C267 C268 1.378 . S
C267 C294 1.486 1_565 S
C268 H230 0.930 1_565 S
C268 C267 1.378 . S
C268 C269 1.376 . S
C269 H231 0.929 . S
C269 C264 1.397 . S
C269 C268 1.376 . S
C270 C254 1.509 . S
C270 C271 1.391 . S
C270 C275 1.386 . S
C271 H232 0.930 . S
C271 C270 1.391 . S
C271 C272 1.375 . S
C272 H233 0.931 . S
C272 C271 1.375 . S
C272 C273 1.375 . S
C273 C272 1.375 . S
C273 C274 1.361 . S
C274 H234 0.930 . S
C274 C273 1.361 . S
C274 C275 1.399 . S
C275 H235 0.929 . S
C275 C270 1.386 . S
C275 C274 1.399 . S
C276 C255 1.485 . S
C276 C277 1.394 . S
C276 C281 1.360 . S
C277 H236 0.931 . S
C277 C276 1.394 . S
C277 C278 1.372 . S
C278 H237 0.930 . S
C278 C277 1.372 . S
C278 C279 1.397 . S
C279 C278 1.397 . S
C279 C280 1.390 . S
C279 C295 1.476 . S
C280 H238 0.930 . S
C280 C279 1.390 . S
C280 C281 1.366 . S
C281 H239 0.932 . S
C281 C276 1.360 . S
C281 C280 1.366 . S
C282 C256 1.490 . S
C282 C283 1.380 . S
C282 C287 1.386 . S
C283 H240 0.930 . S
C283 C282 1.380 . S
C283 C284 1.381 . S
C284 H241 0.929 . S
C284 C283 1.381 . S
C284 C285 1.371 . S
C285 C284 1.371 . S
C285 C286 1.380 . S
C286 H242 0.931 . S
C286 C285 1.380 . S
C286 C287 1.387 . S
C287 H243 0.930 . S
C287 C282 1.386 . S
C287 C286 1.387 . S
C288 C257 1.519 . S
C288 C289 1.377 . S
C288 C293 1.361 . S
C289 H244 0.929 . S
C289 C288 1.377 . S
C289 C290 1.386 . S
C290 H245 0.931 . S
C290 C289 1.386 . S
C290 C291 1.363 . S
C291 C290 1.363 . S
C291 C292 1.385 . S
C292 H246 0.930 . S
C292 C291 1.385 . S
C292 C293 1.396 . S
C293 H247 0.929 . S
C293 C288 1.361 . S
C293 C292 1.396 . S
C294 O248 1.300 . S
C294 O249 1.209 . S
C294 C267 1.486 1_545 S
C295 O250 1.199 . S
C295 O251 1.297 . S
C295 C279 1.476 . S
H296 O322 0.856 1_545 S
H297 O325 0.854 . S
H298 C333 0.930 . S
H299 C334 0.930 . S
H300 C336 0.930 . S
H301 C337 0.930 . S
H302 C339 0.931 . S
H303 C340 0.930 . S
H304 C342 0.930 . S
H305 C343 0.929 . S
H306 C345 0.930 . S
H307 C346 0.931 . S
H308 C348 0.930 . S
H309 C349 0.929 . S
H310 C351 0.931 . S
H311 C352 0.930 . S
H312 C354 0.930 . S
H313 C355 0.932 . S
H314 C357 0.930 . S
H315 C358 0.929 . S
H316 C360 0.931 . S
H317 C361 0.930 . S
H318 C363 0.929 . S
H319 C364 0.931 . S
H320 C366 0.930 . S
H321 C367 0.929 . S
O322 H296 0.856 1_565 S
O322 C368 1.300 . S
O323 C368 1.209 1_545 S
O324 C369 1.199 . S
O325 H297 0.854 . S
O325 C369 1.297 . S
C326 C327 1.404 . S
C326 C331 1.397 . S
C326 C332 1.492 . S
C327 C326 1.404 . S
C327 C328 1.396 . S
C327 C338 1.492 . S
C328 C327 1.396 . S
C328 C329 1.397 . S
C328 C344 1.509 . S
C329 C328 1.397 . S
C329 C330 1.412 . S
C329 C350 1.485 . S
C330 C329 1.412 . S
C330 C331 1.388 . S
C330 C356 1.490 . S
C331 C326 1.397 . S
C331 C330 1.388 . S
C331 C362 1.519 . S
C332 C326 1.492 . S
C332 C333 1.363 . S
C332 C337 1.390 . S
C333 H298 0.930 . S
C333 C332 1.363 . S
C333 C334 1.372 . S
C334 H299 0.930 . S
C334 C333 1.372 . S
C334 C335 1.383 . S
C335 C334 1.383 . S
C335 C336 1.395 . S
C336 H300 0.930 . S
C336 C335 1.395 . S
C336 C337 1.362 . S
C337 H301 0.930 . S
C337 C332 1.390 . S
C337 C336 1.362 . S
C338 C327 1.492 . S
C338 C339 1.377 . S
C338 C343 1.397 . S
C339 H302 0.931 . S
C339 C338 1.377 . S
C339 C340 1.376 . S
C340 H303 0.930 . S
C340 C339 1.376 . S
C340 C341 1.376 . S
C341 C340 1.376 . S
C341 C342 1.378 . S
C341 C368 1.486 . S
C342 H304 0.930 . S
C342 C341 1.378 . S
C342 C343 1.376 . S
C343 H305 0.929 . S
C343 C338 1.397 . S
C343 C342 1.376 . S
C344 C328 1.509 . S
C344 C345 1.391 . S
C344 C349 1.386 . S
C345 H306 0.930 . S
C345 C344 1.391 . S
C345 C346 1.375 . S
C346 H307 0.931 . S
C346 C345 1.375 . S
C346 C347 1.375 1_565 S
C347 C346 1.375 1_545 S
C347 C348 1.361 . S
C348 H308 0.930 . S
C348 C347 1.361 . S
C348 C349 1.399 1_545 S
C349 H309 0.929 . S
C349 C344 1.386 . S
C349 C348 1.399 1_565 S
C350 C329 1.485 . S
C350 C351 1.394 . S
C350 C355 1.360 . S
C351 H310 0.931 . S
C351 C350 1.394 . S
C351 C352 1.372 . S
C352 H311 0.930 . S
C352 C351 1.372 . S
C352 C353 1.397 . S
C353 C352 1.397 . S
C353 C354 1.390 . S
C353 C369 1.476 . S
C354 H312 0.930 . S
C354 C353 1.390 . S
C354 C355 1.366 . S
C355 H313 0.932 . S
C355 C350 1.360 . S
C355 C354 1.366 . S
C356 C330 1.490 . S
C356 C357 1.380 . S
C356 C361 1.386 . S
C357 H314 0.930 . S
C357 C356 1.380 . S
C357 C358 1.381 . S
C358 H315 0.929 . S
C358 C357 1.381 . S
C358 C359 1.371 . S
C359 C358 1.371 . S
C359 C360 1.380 . S
C360 H316 0.931 . S
C360 C359 1.380 . S
C360 C361 1.387 . S
C361 H317 0.930 . S
C361 C356 1.386 . S
C361 C360 1.387 . S
C362 C331 1.519 . S
C362 C363 1.377 . S
C362 C367 1.361 . S
C363 H318 0.929 . S
C363 C362 1.377 . S
C363 C364 1.386 . S
C364 H319 0.931 . S
C364 C363 1.386 . S
C364 C365 1.363 . S
C365 C364 1.363 . S
C365 C366 1.385 . S
C366 H320 0.930 . S
C366 C365 1.385 . S
C366 C367 1.396 . S
C367 H321 0.929 . S
C367 C362 1.361 . S
C367 C366 1.396 . S
C368 O322 1.300 . S
C368 O323 1.209 1_565 S
C368 C341 1.486 . S
C369 O324 1.199 . S
C369 O325 1.297 . S
C369 C353 1.476 . S
H370 O396 0.856 . S
H371 O399 0.854 . S
H372 C407 0.930 . S
H373 C408 0.930 . S
H374 C410 0.930 . S
H375 C411 0.930 . S
H376 C413 0.931 . S
H377 C414 0.930 . S
H378 C416 0.930 . S
H379 C417 0.929 . S
H380 C419 0.930 . S
H381 C420 0.931 . S
H382 C422 0.930 . S
H383 C423 0.929 . S
H384 C425 0.931 . S
H385 C426 0.930 . S
H386 C428 0.930 . S
H387 C429 0.932 . S
H388 C431 0.930 . S
H389 C432 0.929 . S
H390 C434 0.931 . S
H391 C435 0.930 . S
H392 C437 0.929 . S
H393 C438 0.931 . S
H394 C440 0.930 . S
H395 C441 0.929 . S
O396 H370 0.856 . S
O396 C442 1.300 . S
O397 C442 1.209 . S
O398 C443 1.199 . S
O399 H371 0.854 . S
O399 C443 1.297 . S
C400 C401 1.404 . S
C400 C405 1.397 . S
C400 C406 1.492 . S
C401 C400 1.404 . S
C401 C402 1.396 . S
C401 C412 1.492 . S
C402 C401 1.396 . S
C402 C403 1.397 . S
C402 C418 1.509 . S
C403 C402 1.397 . S
C403 C404 1.412 . S
C403 C424 1.485 . S
C404 C403 1.412 . S
C404 C405 1.388 . S
C404 C430 1.490 . S
C405 C400 1.397 . S
C405 C404 1.388 . S
C405 C436 1.519 . S
C406 C400 1.492 . S
C406 C407 1.363 . S
C406 C411 1.390 . S
C407 H372 0.930 . S
C407 C406 1.363 . S
C407 C408 1.372 . S
C408 H373 0.930 . S
C408 C407 1.372 . S
C408 C409 1.383 . S
C409 C408 1.383 . S
C409 C410 1.395 . S
C410 H374 0.930 . S
C410 C409 1.395 . S
C410 C411 1.362 . S
C411 H375 0.930 . S
C411 C406 1.390 . S
C411 C410 1.362 . S
C412 C401 1.492 . S
C412 C413 1.377 . S
C412 C417 1.397 . S
C413 H376 0.931 . S
C413 C412 1.377 . S
C413 C414 1.376 . S
C414 H377 0.930 . S
C414 C413 1.376 . S
C414 C415 1.376 . S
C415 C414 1.376 . S
C415 C416 1.378 . S
C415 C442 1.486 . S
C416 H378 0.930 . S
C416 C415 1.378 . S
C416 C417 1.376 . S
C417 H379 0.929 . S
C417 C412 1.397 . S
C417 C416 1.376 . S
C418 C402 1.509 . S
C418 C419 1.391 . S
C418 C423 1.386 . S
C419 H380 0.930 . S
C419 C418 1.391 . S
C419 C420 1.375 . S
C420 H381 0.931 . S
C420 C419 1.375 . S
C420 C421 1.375 . S
C421 C420 1.375 . S
C421 C422 1.361 . S
C422 H382 0.930 . S
C422 C421 1.361 . S
C422 C423 1.399 . S
C423 H383 0.929 . S
C423 C418 1.386 . S
C423 C422 1.399 . S
C424 C403 1.485 . S
C424 C425 1.394 . S
C424 C429 1.360 . S
C425 H384 0.931 . S
C425 C424 1.394 . S
C425 C426 1.372 . S
C426 H385 0.930 . S
C426 C425 1.372 . S
C426 C427 1.397 . S
C427 C426 1.397 . S
C427 C428 1.390 . S
C427 C443 1.476 . S
C428 H386 0.930 . S
C428 C427 1.390 . S
C428 C429 1.366 . S
C429 H387 0.932 . S
C429 C424 1.360 . S
C429 C428 1.366 . S
C430 C404 1.490 . S
C430 C431 1.380 . S
C430 C435 1.386 . S
C431 H388 0.930 . S
C431 C430 1.380 . S
C431 C432 1.381 . S
C432 H389 0.929 . S
C432 C431 1.381 . S
C432 C433 1.371 . S
C433 C432 1.371 . S
C433 C434 1.380 . S
C434 H390 0.931 . S
C434 C433 1.380 . S
C434 C435 1.387 . S
C435 H391 0.930 . S
C435 C430 1.386 . S
C435 C434 1.387 . S
C436 C405 1.519 . S
C436 C437 1.377 . S
C436 C441 1.361 . S
C437 H392 0.929 . S
C437 C436 1.377 . S
C437 C438 1.386 . S
C438 H393 0.931 . S
C438 C437 1.386 . S
C438 C439 1.363 . S
C439 C438 1.363 . S
C439 C440 1.385 . S
C440 H394 0.930 . S
C440 C439 1.385 . S
C440 C441 1.396 . S
C441 H395 0.929 . S
C441 C436 1.361 . S
C441 C440 1.396 . S
C442 O396 1.300 . S
C442 O397 1.209 . S
C442 C415 1.486 . S
C443 O398 1.199 . S
C443 O399 1.297 . S
C443 C427 1.476 . S
H444 O470 0.856 . S
H445 O473 0.854 . S
H446 C481 0.930 . S
H447 C482 0.930 . S
H448 C484 0.930 . S
H449 C485 0.930 . S
H450 C487 0.931 . S
H451 C488 0.930 . S
H452 C490 0.930 . S
H453 C491 0.929 . S
H454 C493 0.930 . S
H455 C494 0.931 . S
H456 C496 0.930 . S
H457 C497 0.929 . S
H458 C499 0.931 . S
H459 C500 0.930 . S
H460 C502 0.930 . S
H461 C503 0.932 . S
H462 C505 0.930 . S
H463 C506 0.929 . S
H464 C508 0.931 . S
H465 C509 0.930 . S
H466 C511 0.929 . S
H467 C512 0.931 . S
H468 C514 0.930 . S
H469 C515 0.929 . S
O470 H444 0.856 . S
O470 C516 1.300 . S
O471 C516 1.209 . S
O472 C517 1.199 . S
O473 H445 0.854 . S
O473 C517 1.297 . S
C474 C475 1.404 . S
C474 C479 1.397 . S
C474 C480 1.492 . S
C475 C474 1.404 . S
C475 C476 1.396 . S
C475 C486 1.492 . S
C476 C475 1.396 . S
C476 C477 1.397 . S
C476 C492 1.509 . S
C477 C476 1.397 . S
C477 C478 1.412 . S
C477 C498 1.485 . S
C478 C477 1.412 . S
C478 C479 1.388 . S
C478 C504 1.490 . S
C479 C474 1.397 . S
C479 C478 1.388 . S
C479 C510 1.519 . S
C480 C474 1.492 . S
C480 C481 1.363 . S
C480 C485 1.390 . S
C481 H446 0.930 . S
C481 C480 1.363 . S
C481 C482 1.372 . S
C482 H447 0.930 . S
C482 C481 1.372 . S
C482 C483 1.383 . S
C483 C482 1.383 . S
C483 C484 1.395 . S
C484 H448 0.930 . S
C484 C483 1.395 . S
C484 C485 1.362 . S
C485 H449 0.930 . S
C485 C480 1.390 . S
C485 C484 1.362 . S
C486 C475 1.492 . S
C486 C487 1.377 . S
C486 C491 1.397 . S
C487 H450 0.931 . S
C487 C486 1.377 . S
C487 C488 1.376 . S
C488 H451 0.930 . S
C488 C487 1.376 . S
C488 C489 1.376 . S
C489 C488 1.376 . S
C489 C490 1.378 . S
C489 C516 1.486 . S
C490 H452 0.930 . S
C490 C489 1.378 . S
C490 C491 1.376 . S
C491 H453 0.929 . S
C491 C486 1.397 . S
C491 C490 1.376 . S
C492 C476 1.509 . S
C492 C493 1.391 . S
C492 C497 1.386 . S
C493 H454 0.930 . S
C493 C492 1.391 . S
C493 C494 1.375 . S
C494 H455 0.931 . S
C494 C493 1.375 . S
C494 C495 1.375 . S
C495 C494 1.375 . S
C495 C496 1.361 . S
C496 H456 0.930 . S
C496 C495 1.361 . S
C496 C497 1.399 . S
C497 H457 0.929 . S
C497 C492 1.386 . S
C497 C496 1.399 . S
C498 C477 1.485 . S
C498 C499 1.394 . S
C498 C503 1.360 . S
C499 H458 0.931 . S
C499 C498 1.394 . S
C499 C500 1.372 . S
C500 H459 0.930 . S
C500 C499 1.372 . S
C500 C501 1.397 . S
C501 C500 1.397 . S
C501 C502 1.390 . S
C501 C517 1.476 . S
C502 H460 0.930 . S
C502 C501 1.390 . S
C502 C503 1.366 . S
C503 H461 0.932 . S
C503 C498 1.360 . S
C503 C502 1.366 . S
C504 C478 1.490 . S
C504 C505 1.380 . S
C504 C509 1.386 . S
C505 H462 0.930 . S
C505 C504 1.380 . S
C505 C506 1.381 . S
C506 H463 0.929 . S
C506 C505 1.381 . S
C506 C507 1.371 . S
C507 C506 1.371 . S
C507 C508 1.380 . S
C508 H464 0.931 . S
C508 C507 1.380 . S
C508 C509 1.387 . S
C509 H465 0.930 . S
C509 C504 1.386 . S
C509 C508 1.387 . S
C510 C479 1.519 . S
C510 C511 1.377 . S
C510 C515 1.361 . S
C511 H466 0.929 . S
C511 C510 1.377 . S
C511 C512 1.386 . S
C512 H467 0.931 . S
C512 C511 1.386 . S
C512 C513 1.363 . S
C513 C512 1.363 . S
C513 C514 1.385 . S
C514 H468 0.930 . S
C514 C513 1.385 . S
C514 C515 1.396 . S
C515 H469 0.929 . S
C515 C510 1.361 . S
C515 C514 1.396 . S
C516 O470 1.300 . S
C516 O471 1.209 . S
C516 C489 1.486 . S
C517 O472 1.199 . S
C517 O473 1.297 . S
C517 C501 1.476 . S
H518 O544 0.856 . S
H519 O547 0.832 1_554 S
H520 C555 0.930 . S
H521 C556 0.930 . S
H522 C558 0.930 . S
H523 C559 0.930 . S
H524 C561 0.931 . S
H525 C562 0.930 . S
H526 C564 0.930 . S
H527 C565 0.929 . S
H528 C567 0.930 . S
H529 C568 0.931 . S
H530 C570 0.930 . S
H531 C571 0.929 . S
H532 C573 0.931 . S
H533 C574 0.931 1_554 S
H534 C576 0.930 . S
H535 C577 0.932 . S
H536 C579 0.930 . S
H537 C580 0.929 . S
H538 C582 0.931 . S
H539 C583 0.930 . S
H540 C585 0.929 . S
H541 C586 0.931 . S
H542 C588 0.930 . S
H543 C589 0.929 . S
O544 H518 0.856 . S
O544 C590 1.300 . S
O545 C590 1.209 . S
O546 C591 1.199 . S
O547 H519 0.832 1_556 S
O547 C591 1.297 1_556 S
C548 C549 1.404 . S
C548 C553 1.397 . S
C548 C554 1.492 . S
C549 C548 1.404 . S
C549 C550 1.396 . S
C549 C560 1.492 . S
C550 C549 1.396 . S
C550 C551 1.397 . S
C550 C566 1.509 . S
C551 C550 1.397 . S
C551 C552 1.412 . S
C551 C572 1.485 . S
C552 C551 1.412 . S
C552 C553 1.388 . S
C552 C578 1.490 . S
C553 C548 1.397 . S
C553 C552 1.388 . S
C553 C584 1.519 . S
C554 C548 1.492 . S
C554 C555 1.363 . S
C554 C559 1.390 . S
C555 H520 0.930 . S
C555 C554 1.363 . S
C555 C556 1.372 . S
C556 H521 0.930 . S
C556 C555 1.372 . S
C556 C557 1.383 . S
C557 C556 1.383 . S
C557 C558 1.395 . S
C558 H522 0.930 . S
C558 C557 1.395 . S
C558 C559 1.362 . S
C559 H523 0.930 . S
C559 C554 1.390 . S
C559 C558 1.362 . S
C560 C549 1.492 . S
C560 C561 1.377 . S
C560 C565 1.397 . S
C561 H524 0.931 . S
C561 C560 1.377 . S
C561 C562 1.376 . S
C562 H525 0.930 . S
C562 C561 1.376 . S
C562 C563 1.376 . S
C563 C562 1.376 . S
C563 C564 1.378 . S
C563 C590 1.486 . S
C564 H526 0.930 . S
C564 C563 1.378 . S
C564 C565 1.376 . S
C565 H527 0.929 . S
C565 C560 1.397 . S
C565 C564 1.376 . S
C566 C550 1.509 . S
C566 C567 1.391 . S
C566 C571 1.386 . S
C567 H528 0.930 . S
C567 C566 1.391 . S
C567 C568 1.375 . S
C568 H529 0.931 . S
C568 C567 1.375 . S
C568 C569 1.375 . S
C569 C568 1.375 . S
C569 C570 1.361 . S
C570 H530 0.930 . S
C570 C569 1.361 . S
C570 C571 1.399 . S
C571 H531 0.929 . S
C571 C566 1.386 . S
C571 C570 1.399 . S
C572 C551 1.485 . S
C572 C573 1.394 . S
C572 C577 1.360 . S
C573 H532 0.931 . S
C573 C572 1.394 . S
C573 C574 1.372 . S
C574 H533 0.931 1_556 S
C574 C573 1.372 . S
C574 C575 1.397 . S
C575 C574 1.397 . S
C575 C576 1.390 . S
C575 C591 1.476 1_556 S
C576 H534 0.930 . S
C576 C575 1.390 . S
C576 C577 1.366 . S
C577 H535 0.932 . S
C577 C572 1.360 . S
C577 C576 1.366 . S
C578 C552 1.490 . S
C578 C579 1.380 . S
C578 C583 1.386 . S
C579 H536 0.930 . S
C579 C578 1.380 . S
C579 C580 1.381 . S
C580 H537 0.929 . S
C580 C579 1.381 . S
C580 C581 1.371 . S
C581 C580 1.371 . S
C581 C582 1.380 . S
C582 H538 0.931 . S
C582 C581 1.380 . S
C582 C583 1.387 . S
C583 H539 0.930 . S
C583 C578 1.386 . S
C583 C582 1.387 . S
C584 C553 1.519 . S
C584 C585 1.377 . S
C584 C589 1.361 . S
C585 H540 0.929 . S
C585 C584 1.377 . S
C585 C586 1.386 . S
C586 H541 0.931 . S
C586 C585 1.386 . S
C586 C587 1.363 . S
C587 C586 1.363 . S
C587 C588 1.385 . S
C588 H542 0.930 . S
C588 C587 1.385 . S
C588 C589 1.396 . S
C589 H543 0.929 . S
C589 C584 1.361 . S
C589 C588 1.396 . S
C590 O544 1.300 . S
C590 O545 1.209 . S
C590 C563 1.486 . S
C591 O546 1.199 . S
C591 O547 1.297 1_554 S
C591 C575 1.476 1_554 S
C592 C593 1.443 . S
C592 N596 1.376 . S
C592 C630 1.389 . S
C593 C592 1.443 . S
C593 C594 1.340 . S
C593 H633 0.951 . S
C594 C593 1.340 . S
C594 C595 1.439 . S
C594 H634 0.950 . S
C595 C594 1.439 . S
C595 N596 1.374 . S
C595 C629 1.395 1_455 S
N596 C592 1.376 . S
N596 C595 1.374 . S
N596 Co597 2.024 . S
Co597 N596 2.024 . S
Co597 N598 1.970 1_455 S
Co597 N603 1.993 1_455 S
Co597 N608 2.020 . S
Co597 N613 2.257 1_455 S
Co597 N619 2.308 . S
N598 Co597 1.970 1_655 S
N598 C599 1.376 . S
N598 C602 1.383 . S
C599 N598 1.376 . S
C599 C600 1.446 . S
C599 C629 1.391 . S
C600 C599 1.446 . S
C600 C601 1.339 . S
C600 H635 0.949 . S
C601 C600 1.339 . S
C601 C602 1.439 . S
C601 H636 0.950 . S
C602 N598 1.383 . S
C602 C601 1.439 . S
C602 C631 1.392 . S
N603 Co597 1.993 1_655 S
N603 C604 1.376 . S
N603 C607 1.374 . S
C604 N603 1.376 . S
C604 C605 1.443 . S
C604 C631 1.389 . S
C605 C604 1.443 . S
C605 C606 1.340 . S
C605 H637 0.951 . S
C606 C605 1.340 . S
C606 C607 1.439 . S
C606 H638 0.950 . S
C607 N603 1.374 . S
C607 C606 1.439 . S
C607 C632 1.395 1_655 S
N608 Co597 2.020 . S
N608 C609 1.376 . S
N608 C612 1.383 . S
C609 N608 1.376 . S
C609 C610 1.446 . S
C609 C632 1.391 . S
C610 C609 1.446 . S
C610 C611 1.339 . S
C610 H639 0.949 . S
C611 C610 1.339 . S
C611 C612 1.439 . S
C611 H640 0.950 . S
C612 N608 1.383 . S
C612 C611 1.439 . S
C612 C630 1.392 . S
N613 Co597 2.257 1_655 S
N613 C616 1.332 . S
N613 C618 1.332 . S
C614 C615 1.386 . S
C614 C617 1.388 . S
C615 C614 1.386 . S
C615 C616 1.382 . S
C615 H641 0.950 . S
C616 N613 1.332 . S
C616 C615 1.382 . S
C616 H627 0.952 . S
C617 C614 1.388 . S
C617 C618 1.382 . S
C617 H642 0.950 . S
C618 N613 1.332 . S
C618 C617 1.382 . S
C618 H628 0.948 . S
N619 Co597 2.308 . S
N619 C623 1.332 . S
N619 C624 1.332 . S
C620 C621 1.388 . S
C620 C624 1.382 . S
C620 H643 0.950 . S
C621 C620 1.388 . S
C621 C622 1.386 . S
C622 C621 1.386 . S
C622 C623 1.382 . S
C622 H644 0.950 . S
C623 N619 1.332 . S
C623 C622 1.382 . S
C623 H625 0.952 . S
C624 N619 1.332 . S
C624 C620 1.382 . S
C624 H626 0.948 . S
H625 C623 0.952 . S
H626 C624 0.948 . S
H627 C616 0.952 . S
H628 C618 0.948 . S
C629 C595 1.395 1_655 S
C629 C599 1.391 . S
C630 C592 1.389 . S
C630 C612 1.392 . S
C631 C602 1.392 . S
C631 C604 1.389 . S
C632 C607 1.395 1_455 S
C632 C609 1.391 . S
H633 C593 0.951 . S
H634 C594 0.950 . S
H635 C600 0.949 . S
H636 C601 0.950 . S
H637 C605 0.951 . S
H638 C606 0.950 . S
H639 C610 0.949 . S
H640 C611 0.950 . S
H641 C615 0.950 . S
H642 C617 0.950 . S
H643 C620 0.950 . S
H644 C622 0.950 . S
C645 C646 1.443 . S
C645 N649 1.376 . S
C645 C683 1.389 . S
C646 C645 1.443 . S
C646 C647 1.340 . S
C646 H686 0.951 . S
C647 C646 1.340 . S
C647 C648 1.439 . S
C647 H687 0.950 . S
C648 C647 1.439 . S
C648 N649 1.374 . S
C648 C682 1.395 . S
N649 C645 1.376 . S
N649 C648 1.374 . S
N649 Co650 2.008 . S
Co650 N649 2.008 . S
Co650 N651 1.995 1_545 S
Co650 N656 2.008 1_545 S
Co650 N661 1.995 . S
Co650 N666 2.282 1_545 S
Co650 N672 2.282 . S
N651 Co650 1.995 1_565 S
N651 C652 1.376 . S
N651 C655 1.383 . S
C652 N651 1.376 . S
C652 C653 1.446 . S
C652 C682 1.391 1_565 S
C653 C652 1.446 . S
C653 C654 1.339 . S
C653 H688 0.949 . S
C654 C653 1.339 . S
C654 C655 1.439 . S
C654 H689 0.950 . S
C655 N651 1.383 . S
C655 C654 1.439 . S
C655 C684 1.392 . S
N656 Co650 2.008 1_565 S
N656 C657 1.376 . S
N656 C660 1.374 . S
C657 N656 1.376 . S
C657 C658 1.443 . S
C657 C684 1.389 . S
C658 C657 1.443 . S
C658 C659 1.340 . S
C658 H690 0.951 . S
C659 C658 1.340 . S
C659 C660 1.439 . S
C659 H691 0.950 . S
C660 N656 1.374 . S
C660 C659 1.439 . S
C660 C685 1.395 1_565 S
N661 Co650 1.995 . S
N661 C662 1.376 . S
N661 C665 1.383 . S
C662 N661 1.376 . S
C662 C663 1.446 . S
C662 C685 1.391 . S
C663 C662 1.446 . S
C663 C664 1.339 . S
C663 H692 0.949 . S
C664 C663 1.339 . S
C664 C665 1.439 . S
C664 H693 0.950 . S
C665 N661 1.383 . S
C665 C664 1.439 . S
C665 C683 1.392 . S
N666 Co650 2.282 1_565 S
N666 C669 1.332 . S
N666 C671 1.332 . S
C667 C668 1.386 . S
C667 C670 1.388 . S
C668 C667 1.386 . S
C668 C669 1.382 . S
C668 H694 0.950 . S
C669 N666 1.332 . S
C669 C668 1.382 . S
C669 H680 0.952 . S
C670 C667 1.388 . S
C670 C671 1.382 . S
C670 H695 0.950 . S
C671 N666 1.332 . S
C671 C670 1.382 . S
C671 H681 0.948 . S
N672 Co650 2.282 . S
N672 C676 1.332 . S
N672 C677 1.332 . S
C673 C674 1.388 . S
C673 C677 1.382 . S
C673 H696 0.950 . S
C674 C673 1.388 . S
C674 C675 1.386 . S
C675 C674 1.386 . S
C675 C676 1.382 . S
C675 H697 0.950 . S
C676 N672 1.332 . S
C676 C675 1.382 . S
C676 H678 0.952 . S
C677 N672 1.332 . S
C677 C673 1.382 . S
C677 H679 0.948 . S
H678 C676 0.952 . S
H679 C677 0.948 . S
H680 C669 0.952 . S
H681 C671 0.948 . S
C682 C648 1.395 . S
C682 C652 1.391 1_545 S
C683 C645 1.389 . S
C683 C665 1.392 . S
C684 C655 1.392 . S
C684 C657 1.389 . S
C685 C660 1.395 1_545 S
C685 C662 1.391 . S
H686 C646 0.951 . S
H687 C647 0.950 . S
H688 C653 0.949 . S
H689 C654 0.950 . S
H690 C658 0.951 . S
H691 C659 0.950 . S
H692 C663 0.949 . S
H693 C664 0.950 . S
H694 C668 0.950 . S
H695 C670 0.950 . S
H696 C673 0.950 . S
H697 C675 0.950 . S
C698 C699 1.443 . S
C698 N702 1.376 . S
C698 C736 1.389 . S
C699 C698 1.443 . S
C699 C700 1.340 . S
C699 H739 0.951 . S
C700 C699 1.340 . S
C700 C701 1.439 . S
C700 H740 0.950 . S
C701 C700 1.439 . S
C701 N702 1.374 . S
C701 C735 1.395 . S
N702 C698 1.376 . S
N702 C701 1.374 . S
N702 Co703 2.008 . S
Co703 N702 2.008 . S
Co703 N704 1.995 . S
Co703 N709 2.008 . S
Co703 N714 1.995 . S
Co703 N719 2.282 . S
Co703 N725 2.282 . S
N704 Co703 1.995 . S
N704 C705 1.376 . S
N704 C708 1.383 1_455 S
C705 N704 1.376 . S
C705 C706 1.446 1_455 S
C705 C735 1.391 . S
C706 C705 1.446 1_655 S
C706 C707 1.339 . S
C706 H741 0.949 . S
C707 C706 1.339 . S
C707 C708 1.439 . S
C707 H742 0.950 . S
C708 N704 1.383 1_655 S
C708 C707 1.439 . S
C708 C737 1.392 . S
N709 Co703 2.008 . S
N709 C710 1.376 1_455 S
N709 C713 1.374 . S
C710 N709 1.376 1_655 S
C710 C711 1.443 . S
C710 C737 1.389 . S
C711 C710 1.443 . S
C711 C712 1.340 . S
C711 H743 0.951 . S
C712 C711 1.340 . S
C712 C713 1.439 1_655 S
C712 H744 0.950 . S
C713 N709 1.374 . S
C713 C712 1.439 1_455 S
C713 C738 1.395 . S
N714 Co703 1.995 . S
N714 C715 1.376 . S
N714 C718 1.383 . S
C715 N714 1.376 . S
C715 C716 1.446 . S
C715 C738 1.391 . S
C716 C715 1.446 . S
C716 C717 1.339 . S
C716 H745 0.949 . S
C717 C716 1.339 . S
C717 C718 1.439 . S
C717 H746 0.950 . S
C718 N714 1.383 . S
C718 C717 1.439 . S
C718 C736 1.392 . S
N719 Co703 2.282 . S
N719 C722 1.332 . S
N719 C724 1.332 1_455 S
C720 C721 1.386 . S
C720 C723 1.388 . S
C721 C720 1.386 . S
C721 C722 1.382 1_655 S
C721 H747 0.950 . S
C722 N719 1.332 . S
C722 C721 1.382 1_455 S
C722 H733 0.952 . S
C723 C720 1.388 . S
C723 C724 1.382 . S
C723 H748 0.950 . S
C724 N719 1.332 1_655 S
C724 C723 1.382 . S
C724 H734 0.948 . S
N725 Co703 2.282 . S
N725 C729 1.332 . S
N725 C730 1.332 . S
C726 C727 1.388 . S
C726 C730 1.382 . S
C726 H749 0.950 . S
C727 C726 1.388 . S
C727 C728 1.386 . S
C728 C727 1.386 . S
C728 C729 1.382 . S
C728 H750 0.950 . S
C729 N725 1.332 . S
C729 C728 1.382 . S
C729 H731 0.952 . S
C730 N725 1.332 . S
C730 C726 1.382 . S
C730 H732 0.948 . S
H731 C729 0.952 . S
H732 C730 0.948 . S
H733 C722 0.952 . S
H734 C724 0.948 . S
C735 C701 1.395 . S
C735 C705 1.391 . S
C736 C698 1.389 . S
C736 C718 1.392 . S
C737 C708 1.392 . S
C737 C710 1.389 . S
C738 C713 1.395 . S
C738 C715 1.391 . S
H739 C699 0.951 . S
H740 C700 0.950 . S
H741 C706 0.949 . S
H742 C707 0.950 . S
H743 C711 0.951 . S
H744 C712 0.950 . S
H745 C716 0.949 . S
H746 C717 0.950 . S
H747 C721 0.950 . S
H748 C723 0.950 . S
H749 C726 0.950 . S
H750 C728 0.950 . S
C751 C752 1.443 . S
C751 N755 1.376 . S
C751 C789 1.389 . S
C752 C751 1.443 . S
C752 C753 1.340 . S
C752 H792 0.951 . S
C753 C752 1.340 . S
C753 C754 1.439 . S
C753 H793 0.950 . S
C754 C753 1.439 . S
C754 N755 1.374 . S
C754 C788 1.395 . S
N755 C751 1.376 . S
N755 C754 1.374 . S
N755 Co756 2.008 . S
Co756 N755 2.008 . S
Co756 N757 1.995 . S
Co756 N762 2.008 . S
Co756 N767 1.995 . S
Co756 N772 2.282 . S
Co756 N778 2.282 . S
N757 Co756 1.995 . S
N757 C758 1.376 . S
N757 C761 1.383 . S
C758 N757 1.376 . S
C758 C759 1.446 . S
C758 C788 1.391 . S
C759 C758 1.446 . S
C759 C760 1.339 . S
C759 H794 0.949 . S
C760 C759 1.339 . S
C760 C761 1.439 . S
C760 H795 0.950 . S
C761 N757 1.383 . S
C761 C760 1.439 . S
C761 C790 1.392 . S
N762 Co756 2.008 . S
N762 C763 1.376 . S
N762 C766 1.374 . S
C763 N762 1.376 . S
C763 C764 1.443 . S
C763 C790 1.389 . S
C764 C763 1.443 . S
C764 C765 1.340 . S
C764 H796 0.951 . S
C765 C764 1.340 . S
C765 C766 1.439 . S
C765 H797 0.950 . S
C766 N762 1.374 . S
C766 C765 1.439 . S
C766 C791 1.395 . S
N767 Co756 1.995 . S
N767 C768 1.376 . S
N767 C771 1.383 . S
C768 N767 1.376 . S
C768 C769 1.446 . S
C768 C791 1.391 . S
C769 C768 1.446 . S
C769 C770 1.339 . S
C769 H798 0.949 . S
C770 C769 1.339 . S
C770 C771 1.439 . S
C770 H799 0.950 . S
C771 N767 1.383 . S
C771 C770 1.439 . S
C771 C789 1.392 . S
N772 Co756 2.282 . S
N772 C775 1.332 . S
N772 C777 1.332 . S
C773 C774 1.386 . S
C773 C776 1.388 . S
C774 C773 1.386 . S
C774 C775 1.382 . S
C774 H800 0.950 . S
C775 N772 1.332 . S
C775 C774 1.382 . S
C775 H786 0.952 . S
C776 C773 1.388 . S
C776 C777 1.382 . S
C776 H801 0.950 . S
C777 N772 1.332 . S
C777 C776 1.382 . S
C777 H787 0.948 . S
N778 Co756 2.282 . S
N778 C782 1.332 . S
N778 C783 1.332 . S
C779 C780 1.388 . S
C779 C783 1.382 . S
C779 H802 0.950 . S
C780 C779 1.388 . S
C780 C781 1.386 . S
C781 C780 1.386 . S
C781 C782 1.382 . S
C781 H803 0.950 . S
C782 N778 1.332 . S
C782 C781 1.382 . S
C782 H784 0.952 . S
C783 N778 1.332 . S
C783 C779 1.382 . S
C783 H785 0.948 . S
H784 C782 0.952 . S
H785 C783 0.948 . S
H786 C775 0.952 . S
H787 C777 0.948 . S
C788 C754 1.395 . S
C788 C758 1.391 . S
C789 C751 1.389 . S
C789 C771 1.392 . S
C790 C761 1.392 . S
C790 C763 1.389 . S
C791 C766 1.395 . S
C791 C768 1.391 . S
H792 C752 0.951 . S
H793 C753 0.950 . S
H794 C759 0.949 . S
H795 C760 0.950 . S
H796 C764 0.951 . S
H797 C765 0.950 . S
H798 C769 0.949 . S
H799 C770 0.950 . S
H800 C774 0.950 . S
H801 C776 0.950 . S
H802 C779 0.950 . S
H803 C781 0.950 . S
C804 C805 1.443 . S
C804 N808 1.376 . S
C804 C842 1.389 . S
C805 C804 1.443 . S
C805 C806 1.340 . S
C805 H845 0.951 . S
C806 C805 1.340 . S
C806 C807 1.439 . S
C806 H846 0.950 . S
C807 C806 1.439 . S
C807 N808 1.374 . S
C807 C841 1.395 . S
N808 C804 1.376 . S
N808 C807 1.374 . S
N808 Co809 2.008 . S
Co809 N808 2.008 . S
Co809 N810 1.995 1_554 S
Co809 N815 2.008 1_554 S
Co809 N820 1.995 . S
Co809 N825 2.282 . S
Co809 N831 2.282 1_554 S
N810 Co809 1.995 1_556 S
N810 C811 1.376 . S
N810 C814 1.383 . S
C811 N810 1.376 . S
C811 C812 1.446 . S
C811 C841 1.391 1_556 S
C812 C811 1.446 . S
C812 C813 1.339 . S
C812 H847 0.949 . S
C813 C812 1.339 . S
C813 C814 1.439 . S
C813 H848 0.950 . S
C814 N810 1.383 . S
C814 C813 1.439 . S
C814 C843 1.392 . S
N815 Co809 2.008 1_556 S
N815 C816 1.376 . S
N815 C819 1.374 . S
C816 N815 1.376 . S
C816 C817 1.443 . S
C816 C843 1.389 . S
C817 C816 1.443 . S
C817 C818 1.340 . S
C817 H849 0.951 . S
C818 C817 1.340 . S
C818 C819 1.439 . S
C818 H850 0.950 . S
C819 N815 1.374 . S
C819 C818 1.439 . S
C819 C844 1.395 . S
N820 Co809 1.995 . S
N820 C821 1.376 . S
N820 C824 1.383 . S
C821 N820 1.376 . S
C821 C822 1.446 . S
C821 C844 1.391 1_554 S
C822 C821 1.446 . S
C822 C823 1.339 . S
C822 H851 0.949 . S
C823 C822 1.339 . S
C823 C824 1.439 . S
C823 H852 0.950 . S
C824 N820 1.383 . S
C824 C823 1.439 . S
C824 C842 1.392 . S
N825 Co809 2.282 . S
N825 C828 1.332 . S
N825 C830 1.332 . S
C826 C827 1.386 . S
C826 C829 1.388 . S
C827 C826 1.386 . S
C827 C828 1.382 . S
C827 H853 0.950 . S
C828 N825 1.332 . S
C828 C827 1.382 . S
C828 H839 0.952 . S
C829 C826 1.388 . S
C829 C830 1.382 . S
C829 H854 0.950 . S
C830 N825 1.332 . S
C830 C829 1.382 . S
C830 H840 0.948 . S
N831 Co809 2.282 1_556 S
N831 C835 1.332 . S
N831 C836 1.332 . S
C832 C833 1.388 . S
C832 C836 1.382 . S
C832 H855 0.950 . S
C833 C832 1.388 . S
C833 C834 1.386 . S
C834 C833 1.386 . S
C834 C835 1.382 . S
C834 H856 0.950 . S
C835 N831 1.332 . S
C835 C834 1.382 . S
C835 H837 0.952 . S
C836 N831 1.332 . S
C836 C832 1.382 . S
C836 H838 0.948 . S
H837 C835 0.952 . S
H838 C836 0.948 . S
H839 C828 0.952 . S
H840 C830 0.948 . S
C841 C807 1.395 . S
C841 C811 1.391 1_554 S
C842 C804 1.389 . S
C842 C824 1.392 . S
C843 C814 1.392 . S
C843 C816 1.389 . S
C844 C819 1.395 . S
C844 C821 1.391 1_556 S
H845 C805 0.951 . S
H846 C806 0.950 . S
H847 C812 0.949 . S
H848 C813 0.950 . S
H849 C817 0.951 . S
H850 C818 0.950 . S
H851 C822 0.949 . S
H852 C823 0.950 . S
H853 C827 0.950 . S
H854 C829 0.950 . S
H855 C832 0.950 . S
H856 C834 0.950 . S
C857 C858 1.443 . S
C857 N861 1.376 . S
C857 C895 1.389 . S
C858 C857 1.443 . S
C858 C859 1.340 . S
C858 H898 0.951 . S
C859 C858 1.340 . S
C859 C860 1.439 . S
C859 H899 0.950 . S
C860 C859 1.439 . S
C860 N861 1.374 . S
C860 C894 1.395 1_554 S
N861 C857 1.376 . S
N861 C860 1.374 . S
N861 Co862 2.008 . S
Co862 N861 2.008 . S
Co862 N863 1.995 1_554 S
Co862 N868 2.001 1_554 S
Co862 N873 1.995 . S
Co862 N878 2.282 . S
Co862 N884 2.282 1_554 S
N863 Co862 1.995 1_556 S
N863 C864 1.376 . S
N863 C867 1.383 . S
C864 N863 1.376 . S
C864 C865 1.446 . S
C864 C894 1.391 . S
C865 C864 1.446 . S
C865 C866 1.339 . S
C865 H900 0.949 . S
C866 C865 1.339 . S
C866 C867 1.439 . S
C866 H901 0.950 . S
C867 N863 1.383 . S
C867 C866 1.439 . S
C867 C896 1.392 . S
N868 Co862 2.001 1_556 S
N868 C869 1.391 . S
N868 C872 1.365 1_556 S
C869 N868 1.391 . S
C869 C870 1.443 . S
C869 C896 1.389 . S
C870 C869 1.443 . S
C870 C871 1.340 1_556 S
C870 H902 0.951 . S
C871 C870 1.340 1_554 S
C871 C872 1.439 . S
C871 H903 0.950 . S
C872 N868 1.365 1_554 S
C872 C871 1.439 . S
C872 C897 1.395 . S
N873 Co862 1.995 . S
N873 C874 1.376 . S
N873 C877 1.383 . S
C874 N873 1.376 . S
C874 C875 1.446 . S
C874 C897 1.391 . S
C875 C874 1.446 . S
C875 C876 1.339 . S
C875 H904 0.949 . S
C876 C875 1.339 . S
C876 C877 1.439 . S
C876 H905 0.950 . S
C877 N873 1.383 . S
C877 C876 1.439 . S
C877 C895 1.392 . S
N878 Co862 2.282 . S
N878 C881 1.332 . S
N878 C883 1.332 . S
C879 C880 1.386 . S
C879 C882 1.388 . S
C880 C879 1.386 . S
C880 C881 1.382 . S
C880 H906 0.950 . S
C881 N878 1.332 . S
C881 C880 1.382 . S
C881 H892 0.952 . S
C882 C879 1.388 . S
C882 C883 1.382 . S
C882 H907 0.950 . S
C883 N878 1.332 . S
C883 C882 1.382 . S
C883 H893 0.948 . S
N884 Co862 2.282 1_556 S
N884 C888 1.332 . S
N884 C889 1.332 . S
C885 C886 1.388 . S
C885 C889 1.382 . S
C885 H908 0.950 . S
C886 C885 1.388 . S
C886 C887 1.386 . S
C887 C886 1.386 . S
C887 C888 1.382 . S
C887 H909 0.950 . S
C888 N884 1.332 . S
C888 C887 1.382 . S
C888 H890 0.952 . S
C889 N884 1.332 . S
C889 C885 1.382 . S
C889 H891 0.948 . S
H890 C888 0.952 . S
H891 C889 0.948 . S
H892 C881 0.952 . S
H893 C883 0.948 . S
C894 C860 1.395 1_556 S
C894 C864 1.391 . S
C895 C857 1.389 . S
C895 C877 1.392 . S
C896 C867 1.392 . S
C896 C869 1.389 . S
C897 C872 1.395 . S
C897 C874 1.391 . S
H898 C858 0.951 . S
H899 C859 0.950 . S
H900 C865 0.949 . S
H901 C866 0.950 . S
H902 C870 0.951 . S
H903 C871 0.950 . S
H904 C875 0.949 . S
H905 C876 0.950 . S
H906 C880 0.950 . S
H907 C882 0.950 . S
H908 C885 0.950 . S
H909 C887 0.950 . S
C910 C911 1.443 . S
C910 N914 1.376 . S
C910 C948 1.389 1_554 S
C911 C910 1.443 . S
C911 C912 1.340 . S
C911 H951 0.951 1_554 S
C912 C911 1.340 . S
C912 C913 1.439 . S
C912 H952 0.950 . S
C913 C912 1.439 . S
C913 N914 1.374 . S
C913 C947 1.395 . S
N914 C910 1.376 . S
N914 C913 1.374 . S
N914 Co915 2.008 . S
Co915 N914 2.008 . S
Co915 N916 1.995 . S
Co915 N921 2.008 . S
Co915 N926 1.995 . S
Co915 N931 2.282 . S
Co915 N937 2.282 . S
N916 Co915 1.995 . S
N916 C917 1.376 . S
N916 C920 1.383 . S
C917 N916 1.376 . S
C917 C918 1.446 . S
C917 C947 1.391 . S
C918 C917 1.446 . S
C918 C919 1.339 . S
C918 H953 0.949 . S
C919 C918 1.339 . S
C919 C920 1.439 . S
C919 H954 0.950 . S
C920 N916 1.383 . S
C920 C919 1.439 . S
C920 C949 1.392 . S
N921 Co915 2.008 . S
N921 C922 1.376 . S
N921 C925 1.374 . S
C922 N921 1.376 . S
C922 C923 1.443 . S
C922 C949 1.389 . S
C923 C922 1.443 . S
C923 C924 1.340 . S
C923 H955 0.951 . S
C924 C923 1.340 . S
C924 C925 1.439 . S
C924 H956 0.950 . S
C925 N921 1.374 . S
C925 C924 1.439 . S
C925 C950 1.395 . S
N926 Co915 1.995 . S
N926 C927 1.376 . S
N926 C930 1.383 1_554 S
C927 N926 1.376 . S
C927 C928 1.446 1_554 S
C927 C950 1.391 . S
C928 C927 1.446 1_556 S
C928 C929 1.339 . S
C928 H957 0.949 . S
C929 C928 1.339 . S
C929 C930 1.439 . S
C929 H958 0.950 . S
C930 N926 1.383 1_556 S
C930 C929 1.439 . S
C930 C948 1.392 . S
N931 Co915 2.282 . S
N931 C934 1.332 1_554 S
N931 C936 1.332 . S
C932 C933 1.386 . S
C932 C935 1.388 1_556 S
C933 C932 1.386 . S
C933 C934 1.382 . S
C933 H959 0.950 . S
C934 N931 1.332 1_556 S
C934 C933 1.382 . S
C934 H945 0.952 . S
C935 C932 1.388 1_554 S
C935 C936 1.382 . S
C935 H960 0.950 . S
C936 N931 1.332 . S
C936 C935 1.382 . S
C936 H946 0.948 . S
N937 Co915 2.282 . S
N937 C941 1.332 . S
N937 C942 1.332 . S
C938 C939 1.388 . S
C938 C942 1.382 . S
C938 H961 0.950 . S
C939 C938 1.388 . S
C939 C940 1.386 . S
C940 C939 1.386 . S
C940 C941 1.382 . S
C940 H962 0.950 . S
C941 N937 1.332 . S
C941 C940 1.382 . S
C941 H943 0.952 . S
C942 N937 1.332 . S
C942 C938 1.382 . S
C942 H944 0.948 . S
H943 C941 0.952 . S
H944 C942 0.948 . S
H945 C934 0.952 . S
H946 C936 0.948 . S
C947 C913 1.395 . S
C947 C917 1.391 . S
C948 C910 1.389 1_556 S
C948 C930 1.392 . S
C949 C920 1.392 . S
C949 C922 1.389 . S
C950 C925 1.395 . S
C950 C927 1.391 . S
H951 C911 0.951 1_556 S
H952 C912 0.950 . S
H953 C918 0.949 . S
H954 C919 0.950 . S
H955 C923 0.951 . S
H956 C924 0.950 . S
H957 C928 0.949 . S
H958 C929 0.950 . S
H959 C933 0.950 . S
H960 C935 0.950 . S
H961 C938 0.950 . S
H962 C940 0.950 . S
C963 C964 1.443 . S
C963 N967 1.376 . S
C963 C1001 1.389 . S
C964 C963 1.443 . S
C964 C965 1.340 . S
C964 H1004 0.951 . S
C965 C964 1.340 . S
C965 C966 1.439 . S
C965 H1005 0.950 . S
C966 C965 1.439 . S
C966 N967 1.374 . S
C966 C1000 1.395 . S
N967 C963 1.376 . S
N967 C966 1.374 . S
N967 Co968 2.008 . S
Co968 N967 2.008 . S
Co968 N969 1.995 . S
Co968 N974 2.008 . S
Co968 N979 1.995 . S
Co968 N984 2.282 . S
Co968 N990 2.282 . S
N969 Co968 1.995 . S
N969 C970 1.376 . S
N969 C973 1.383 . S
C970 N969 1.376 . S
C970 C971 1.446 . S
C970 C1000 1.391 . S
C971 C970 1.446 . S
C971 C972 1.339 . S
C971 H1006 0.949 . S
C972 C971 1.339 . S
C972 C973 1.439 . S
C972 H1007 0.950 . S
C973 N969 1.383 . S
C973 C972 1.439 . S
C973 C1002 1.392 . S
N974 Co968 2.008 . S
N974 C975 1.376 . S
N974 C978 1.374 . S
C975 N974 1.376 . S
C975 C976 1.443 . S
C975 C1002 1.389 . S
C976 C975 1.443 . S
C976 C977 1.340 . S
C976 H1008 0.951 . S
C977 C976 1.340 . S
C977 C978 1.439 . S
C977 H1009 0.950 . S
C978 N974 1.374 . S
C978 C977 1.439 . S
C978 C1003 1.395 . S
N979 Co968 1.995 . S
N979 C980 1.376 . S
N979 C983 1.383 . S
C980 N979 1.376 . S
C980 C981 1.446 . S
C980 C1003 1.391 . S
C981 C980 1.446 . S
C981 C982 1.339 . S
C981 H1010 0.949 . S
C982 C981 1.339 . S
C982 C983 1.439 . S
C982 H1011 0.950 . S
C983 N979 1.383 . S
C983 C982 1.439 . S
C983 C1001 1.392 . S
N984 Co968 2.282 . S
N984 C987 1.332 . S
N984 C989 1.332 . S
C985 C986 1.386 . S
C985 C988 1.388 . S
C986 C985 1.386 . S
C986 C987 1.382 . S
C986 H1012 0.950 . S
C987 N984 1.332 . S
C987 C986 1.382 . S
C987 H998 0.952 . S
C988 C985 1.388 . S
C988 C989 1.382 . S
C988 H1013 0.950 . S
C989 N984 1.332 . S
C989 C988 1.382 . S
C989 H999 0.948 . S
N990 Co968 2.282 . S
N990 C994 1.332 . S
N990 C995 1.332 . S
C991 C992 1.388 . S
C991 C995 1.382 . S
C991 H1014 0.950 . S
C992 C991 1.388 . S
C992 C993 1.386 . S
C993 C992 1.386 . S
C993 C994 1.382 . S
C993 H1015 0.950 . S
C994 N990 1.332 . S
C994 C993 1.382 . S
C994 H996 0.952 . S
C995 N990 1.332 . S
C995 C991 1.382 . S
C995 H997 0.948 . S
H996 C994 0.952 . S
H997 C995 0.948 . S
H998 C987 0.952 . S
H999 C989 0.948 . S
C1000 C966 1.395 . S
C1000 C970 1.391 . S
C1001 C963 1.389 . S
C1001 C983 1.392 . S
C1002 C973 1.392 . S
C1002 C975 1.389 . S
C1003 C978 1.395 . S
C1003 C980 1.391 . S
H1004 C964 0.951 . S
H1005 C965 0.950 . S
H1006 C971 0.949 . S
H1007 C972 0.950 . S
H1008 C976 0.951 . S
H1009 C977 0.950 . S
H1010 C981 0.949 . S
H1011 C982 0.950 . S
H1012 C986 0.950 . S
H1013 C988 0.950 . S
H1014 C991 0.950 . S
H1015 C993 0.950 . S
C1016 C1017 1.363 . S
C1016 C1022 1.379 . S
C1016 N1024 1.356 . S
C1017 C1016 1.363 . S
C1017 C1023 1.363 . S
C1018 C1019 1.363 . S
C1018 C1023 1.379 . S
C1018 N1025 1.356 . S
C1019 C1018 1.363 . S
C1019 C1022 1.363 . S
N1020 C1022 1.356 . S
N1020 H1032 0.984 . S
N1020 H1033 0.985 . S
N1021 C1023 1.356 . S
N1021 H1026 0.984 . S
N1021 H1027 0.985 . S
C1022 C1016 1.379 . S
C1022 C1019 1.363 . S
C1022 N1020 1.356 . S
C1023 C1017 1.363 . S
C1023 C1018 1.379 . S
C1023 N1021 1.356 . S
N1024 C1016 1.356 . S
N1024 H1030 0.984 . S
N1024 H1031 0.984 . S
N1025 C1018 1.356 . S
N1025 H1028 0.984 . S
N1025 H1029 0.985 . S
H1026 N1021 0.984 . S
H1027 N1021 0.985 . S
H1028 N1025 0.984 . S
H1029 N1025 0.985 . S
H1030 N1024 0.984 . S
H1031 N1024 0.984 . S
H1032 N1020 0.984 . S
H1033 N1020 0.985 . S
C1034 C1035 1.363 . S
C1034 C1040 1.379 . S
C1034 N1042 1.356 . S
C1035 C1034 1.363 . S
C1035 C1041 1.363 . S
C1036 C1037 1.363 . S
C1036 C1041 1.379 . S
C1036 N1043 1.356 . S
C1037 C1036 1.363 . S
C1037 C1040 1.363 . S
N1038 C1040 1.356 . S
N1038 H1050 0.984 . S
N1038 H1051 0.985 . S
N1039 C1041 1.356 . S
N1039 H1044 0.984 . S
N1039 H1045 0.985 . S
C1040 C1034 1.379 . S
C1040 C1037 1.363 . S
C1040 N1038 1.356 . S
C1041 C1035 1.363 . S
C1041 C1036 1.379 . S
C1041 N1039 1.356 . S
N1042 C1034 1.356 . S
N1042 H1048 0.984 . S
N1042 H1049 0.984 . S
N1043 C1036 1.356 . S
N1043 H1046 0.984 . S
N1043 H1047 0.985 . S
H1044 N1039 0.984 . S
H1045 N1039 0.985 . S
H1046 N1043 0.984 . S
H1047 N1043 0.985 . S
H1048 N1042 0.984 . S
H1049 N1042 0.984 . S
H1050 N1038 0.984 . S
H1051 N1038 0.985 . S
C1052 C1053 1.363 . S
C1052 C1058 1.379 . S
C1052 N1060 1.356 . S
C1053 C1052 1.363 . S
C1053 C1059 1.363 . S
C1054 C1055 1.363 . S
C1054 C1059 1.379 . S
C1054 N1061 1.356 . S
C1055 C1054 1.363 . S
C1055 C1058 1.363 . S
N1056 C1058 1.356 . S
N1056 H1068 0.984 . S
N1056 H1069 0.985 . S
N1057 C1059 1.356 . S
N1057 H1062 0.984 . S
N1057 H1063 0.985 . S
C1058 C1052 1.379 . S
C1058 C1055 1.363 . S
C1058 N1056 1.356 . S
C1059 C1053 1.363 . S
C1059 C1054 1.379 . S
C1059 N1057 1.356 . S
N1060 C1052 1.356 . S
N1060 H1066 0.984 . S
N1060 H1067 0.984 . S
N1061 C1054 1.356 . S
N1061 H1064 0.984 . S
N1061 H1065 0.985 . S
H1062 N1057 0.984 . S
H1063 N1057 0.985 . S
H1064 N1061 0.984 . S
H1065 N1061 0.985 . S
H1066 N1060 0.984 . S
H1067 N1060 0.984 . S
H1068 N1056 0.984 . S
H1069 N1056 0.985 . S
C1070 C1071 1.363 1_545 S
C1070 C1076 1.379 . S
C1070 N1078 1.356 . S
C1071 C1070 1.363 1_565 S
C1071 C1077 1.363 . S
C1072 C1073 1.363 . S
C1072 C1077 1.379 1_545 S
C1072 N1079 1.356 . S
C1073 C1072 1.363 . S
C1073 C1076 1.363 . S
N1074 C1076 1.356 . S
N1074 H1086 0.984 . S
N1074 H1087 0.985 . S
N1075 C1077 1.356 . S
N1075 H1080 0.984 . S
N1075 H1081 0.985 . S
C1076 C1070 1.379 . S
C1076 C1073 1.363 . S
C1076 N1074 1.356 . S
C1077 C1071 1.363 . S
C1077 C1072 1.379 1_565 S
C1077 N1075 1.356 . S
N1078 C1070 1.356 . S
N1078 H1084 0.984 . S
N1078 H1085 0.984 1_545 S
N1079 C1072 1.356 . S
N1079 H1082 0.984 . S
N1079 H1083 0.985 . S
H1080 N1075 0.984 . S
H1081 N1075 0.985 . S
H1082 N1079 0.984 . S
H1083 N1079 0.985 . S
H1084 N1078 0.984 . S
H1085 N1078 0.984 1_565 S
H1086 N1074 0.984 . S
H1087 N1074 0.985 . S
C1088 C1089 1.363 . S
C1088 C1094 1.379 . S
C1088 N1096 1.356 . S
C1089 C1088 1.363 . S
C1089 C1095 1.363 . S
C1090 C1091 1.363 . S
C1090 C1095 1.379 . S
C1090 N1097 1.356 . S
C1091 C1090 1.363 . S
C1091 C1094 1.363 . S
N1092 C1094 1.356 . S
N1092 H1104 0.984 . S
N1092 H1105 0.985 . S
N1093 C1095 1.356 . S
N1093 H1098 0.984 . S
N1093 H1099 0.985 . S
C1094 C1088 1.379 . S
C1094 C1091 1.363 . S
C1094 N1092 1.356 . S
C1095 C1089 1.363 . S
C1095 C1090 1.379 . S
C1095 N1093 1.356 . S
N1096 C1088 1.356 . S
N1096 H1102 0.984 . S
N1096 H1103 0.984 . S
N1097 C1090 1.356 . S
N1097 H1100 0.984 . S
N1097 H1101 0.985 . S
H1098 N1093 0.984 . S
H1099 N1093 0.985 . S
H1100 N1097 0.984 . S
H1101 N1097 0.985 . S
H1102 N1096 0.984 . S
H1103 N1096 0.984 . S
H1104 N1092 0.984 . S
H1105 N1092 0.985 . S
C1106 C1107 1.363 . S
C1106 C1112 1.379 . S
C1106 N1114 1.356 . S
C1107 C1106 1.363 . S
C1107 C1113 1.363 . S
C1108 C1109 1.363 . S
C1108 C1113 1.379 . S
C1108 N1115 1.356 . S
C1109 C1108 1.363 . S
C1109 C1112 1.363 . S
N1110 C1112 1.356 . S
N1110 H1122 0.984 . S
N1110 H1123 0.985 . S
N1111 C1113 1.356 . S
N1111 H1116 0.984 . S
N1111 H1117 0.985 . S
C1112 C1106 1.379 . S
C1112 C1109 1.363 . S
C1112 N1110 1.356 . S
C1113 C1107 1.363 . S
C1113 C1108 1.379 . S
C1113 N1111 1.356 . S
N1114 C1106 1.356 . S
N1114 H1120 0.984 . S
N1114 H1121 0.984 . S
N1115 C1108 1.356 . S
N1115 H1118 0.984 . S
N1115 H1119 0.985 . S
H1116 N1111 0.984 . S
H1117 N1111 0.985 . S
H1118 N1115 0.984 . S
H1119 N1115 0.985 . S
H1120 N1114 0.984 . S
H1121 N1114 0.984 . S
H1122 N1110 0.984 . S
H1123 N1110 0.985 . S
C1124 C1125 1.363 . S
C1124 C1130 1.379 . S
C1124 N1132 1.356 . S
C1125 C1124 1.363 . S
C1125 C1131 1.363 . S
C1126 C1127 1.363 . S
C1126 C1131 1.379 . S
C1126 N1133 1.356 . S
C1127 C1126 1.363 . S
C1127 C1130 1.363 . S
N1128 C1130 1.356 . S
N1128 H1140 0.984 . S
N1128 H1141 0.985 . S
N1129 C1131 1.356 . S
N1129 H1134 0.984 . S
N1129 H1135 0.985 . S
C1130 C1124 1.379 . S
C1130 C1127 1.363 . S
C1130 N1128 1.356 . S
C1131 C1125 1.363 . S
C1131 C1126 1.379 . S
C1131 N1129 1.356 . S
N1132 C1124 1.356 . S
N1132 H1138 0.984 . S
N1132 H1139 0.984 . S
N1133 C1126 1.356 . S
N1133 H1136 0.984 . S
N1133 H1137 0.985 . S
H1134 N1129 0.984 . S
H1135 N1129 0.985 . S
H1136 N1133 0.984 . S
H1137 N1133 0.985 . S
H1138 N1132 0.984 . S
H1139 N1132 0.984 . S
H1140 N1128 0.984 . S
H1141 N1128 0.985 . S
C1142 C1143 1.363 . S
C1142 C1148 1.379 . S
C1142 N1150 1.356 . S
C1143 C1142 1.363 . S
C1143 C1149 1.363 . S
C1144 C1145 1.363 . S
C1144 C1149 1.379 . S
C1144 N1151 1.356 . S
C1145 C1144 1.363 . S
C1145 C1148 1.363 . S
N1146 C1148 1.356 . S
N1146 H1158 0.984 . S
N1146 H1159 0.985 . S
N1147 C1149 1.356 . S
N1147 H1152 0.984 . S
N1147 H1153 0.985 . S
C1148 C1142 1.379 . S
C1148 C1145 1.363 . S
C1148 N1146 1.356 . S
C1149 C1143 1.363 . S
C1149 C1144 1.379 . S
C1149 N1147 1.356 . S
N1150 C1142 1.356 . S
N1150 H1156 0.984 . S
N1150 H1157 0.984 . S
N1151 C1144 1.356 . S
N1151 H1154 0.984 . S
N1151 H1155 0.985 . S
H1152 N1147 0.984 . S
H1153 N1147 0.985 . S
H1154 N1151 0.984 . S
H1155 N1151 0.985 . S
H1156 N1150 0.984 . S
H1157 N1150 0.984 . S
H1158 N1146 0.984 . S
H1159 N1146 0.985 . S
C1160 C1161 1.363 . S
C1160 C1166 1.379 . S
C1160 N1168 1.356 . S
C1161 C1160 1.363 . S
C1161 C1167 1.363 . S
C1162 C1163 1.363 . S
C1162 C1167 1.379 . S
C1162 N1169 1.356 . S
C1163 C1162 1.363 . S
C1163 C1166 1.363 . S
N1164 C1166 1.356 . S
N1164 H1176 0.984 . S
N1164 H1177 0.985 . S
N1165 C1167 1.356 . S
N1165 H1170 0.984 . S
N1165 H1171 0.985 . S
C1166 C1160 1.379 . S
C1166 C1163 1.363 . S
C1166 N1164 1.356 . S
C1167 C1161 1.363 . S
C1167 C1162 1.379 . S
C1167 N1165 1.356 . S
N1168 C1160 1.356 . S
N1168 H1174 0.984 . S
N1168 H1175 0.984 . S
N1169 C1162 1.356 . S
N1169 H1172 0.984 . S
N1169 H1173 0.985 . S
H1170 N1165 0.984 . S
H1171 N1165 0.985 . S
H1172 N1169 0.984 . S
H1173 N1169 0.985 . S
H1174 N1168 0.984 . S
H1175 N1168 0.984 . S
H1176 N1164 0.984 . S
H1177 N1164 0.985 . S
C1178 C1179 1.363 . S
C1178 C1184 1.379 . S
C1178 N1186 1.356 . S
C1179 C1178 1.363 . S
C1179 C1185 1.363 . S
C1180 C1181 1.363 . S
C1180 C1185 1.379 . S
C1180 N1187 1.356 . S
C1181 C1180 1.363 . S
C1181 C1184 1.363 . S
N1182 C1184 1.356 . S
N1182 H1194 0.984 . S
N1182 H1195 0.985 . S
N1183 C1185 1.356 1_565 S
N1183 H1188 0.984 . S
N1183 H1189 0.985 . S
C1184 C1178 1.379 . S
C1184 C1181 1.363 . S
C1184 N1182 1.356 . S
C1185 C1179 1.363 . S
C1185 C1180 1.379 . S
C1185 N1183 1.356 1_545 S
N1186 C1178 1.356 . S
N1186 H1192 0.984 . S
N1186 H1193 0.984 . S
N1187 C1180 1.356 . S
N1187 H1190 0.984 . S
N1187 H1191 0.985 . S
H1188 N1183 0.984 . S
H1189 N1183 0.985 . S
H1190 N1187 0.984 . S
H1191 N1187 0.985 . S
H1192 N1186 0.984 . S
H1193 N1186 0.984 . S
H1194 N1182 0.984 . S
H1195 N1182 0.985 . S
C1196 C1197 1.363 . S
C1196 C1202 1.379 . S
C1196 N1204 1.356 . S
C1197 C1196 1.363 . S
C1197 C1203 1.363 . S
C1198 C1199 1.363 . S
C1198 C1203 1.379 . S
C1198 N1205 1.356 . S
C1199 C1198 1.363 . S
C1199 C1202 1.363 . S
N1200 C1202 1.356 . S
N1200 H1212 0.984 . S
N1200 H1213 0.985 . S
N1201 C1203 1.356 . S
N1201 H1206 0.984 . S
N1201 H1207 0.985 . S
C1202 C1196 1.379 . S
C1202 C1199 1.363 . S
C1202 N1200 1.356 . S
C1203 C1197 1.363 . S
C1203 C1198 1.379 . S
C1203 N1201 1.356 . S
N1204 C1196 1.356 . S
N1204 H1210 0.984 . S
N1204 H1211 0.984 . S
N1205 C1198 1.356 . S
N1205 H1208 0.984 . S
N1205 H1209 0.985 . S
H1206 N1201 0.984 . S
H1207 N1201 0.985 . S
H1208 N1205 0.984 . S
H1209 N1205 0.985 . S
H1210 N1204 0.984 . S
H1211 N1204 0.984 . S
H1212 N1200 0.984 . S
H1213 N1200 0.985 . S
C1214 C1215 1.363 . S
C1214 C1220 1.379 . S
C1214 N1222 1.356 . S
C1215 C1214 1.363 . S
C1215 C1221 1.363 . S
C1216 C1217 1.363 . S
C1216 C1221 1.379 . S
C1216 N1223 1.356 . S
C1217 C1216 1.363 . S
C1217 C1220 1.363 . S
N1218 C1220 1.356 . S
N1218 H1230 0.984 . S
N1218 H1231 0.985 . S
N1219 C1221 1.356 . S
N1219 H1224 0.984 . S
N1219 H1225 0.985 . S
C1220 C1214 1.379 . S
C1220 C1217 1.363 . S
C1220 N1218 1.356 . S
C1221 C1215 1.363 . S
C1221 C1216 1.379 . S
C1221 N1219 1.356 . S
N1222 C1214 1.356 . S
N1222 H1228 0.984 . S
N1222 H1229 0.984 . S
N1223 C1216 1.356 . S
N1223 H1226 0.984 . S
N1223 H1227 0.985 . S
H1224 N1219 0.984 . S
H1225 N1219 0.985 . S
H1226 N1223 0.984 . S
H1227 N1223 0.985 . S
H1228 N1222 0.984 . S
H1229 N1222 0.984 . S
H1230 N1218 0.984 . S
H1231 N1218 0.985 . S
C1232 C1233 1.363 . S
C1232 C1238 1.379 . S
C1232 N1240 1.356 . S
C1233 C1232 1.363 . S
C1233 C1239 1.363 . S
C1234 C1235 1.363 . S
C1234 C1239 1.379 . S
C1234 N1241 1.356 . S
C1235 C1234 1.363 . S
C1235 C1238 1.363 . S
N1236 C1238 1.356 . S
N1236 H1248 0.984 . S
N1236 H1249 0.985 . S
N1237 C1239 1.356 . S
N1237 H1242 0.984 . S
N1237 H1243 0.985 . S
C1238 C1232 1.379 . S
C1238 C1235 1.363 . S
C1238 N1236 1.356 . S
C1239 C1233 1.363 . S
C1239 C1234 1.379 . S
C1239 N1237 1.356 . S
N1240 C1232 1.356 . S
N1240 H1246 0.984 . S
N1240 H1247 0.984 . S
N1241 C1234 1.356 . S
N1241 H1244 0.984 . S
N1241 H1245 0.985 . S
H1242 N1237 0.984 . S
H1243 N1237 0.985 . S
H1244 N1241 0.984 . S
H1245 N1241 0.985 . S
H1246 N1240 0.984 . S
H1247 N1240 0.984 . S
H1248 N1236 0.984 . S
H1249 N1236 0.985 . S
C1250 C1251 1.363 . S
C1250 C1256 1.379 . S
C1250 N1258 1.356 . S
C1251 C1250 1.363 . S
C1251 C1257 1.363 . S
C1252 C1253 1.363 . S
C1252 C1257 1.379 . S
C1252 N1259 1.356 . S
C1253 C1252 1.363 . S
C1253 C1256 1.363 . S
N1254 C1256 1.356 . S
N1254 H1266 0.984 . S
N1254 H1267 0.985 . S
N1255 C1257 1.356 . S
N1255 H1260 0.984 . S
N1255 H1261 0.985 . S
C1256 C1250 1.379 . S
C1256 C1253 1.363 . S
C1256 N1254 1.356 . S
C1257 C1251 1.363 . S
C1257 C1252 1.379 . S
C1257 N1255 1.356 . S
N1258 C1250 1.356 . S
N1258 H1264 0.984 . S
N1258 H1265 0.984 . S
N1259 C1252 1.356 . S
N1259 H1262 0.984 . S
N1259 H1263 0.985 . S
H1260 N1255 0.984 . S
H1261 N1255 0.985 . S
H1262 N1259 0.984 . S
H1263 N1259 0.985 . S
H1264 N1258 0.984 . S
H1265 N1258 0.984 . S
H1266 N1254 0.984 . S
H1267 N1254 0.985 . S
C1268 C1269 1.363 . S
C1268 C1274 1.379 . S
C1268 N1276 1.356 . S
C1269 C1268 1.363 . S
C1269 C1275 1.363 . S
C1270 C1271 1.363 . S
C1270 C1275 1.379 . S
C1270 N1277 1.356 . S
C1271 C1270 1.363 . S
C1271 C1274 1.363 . S
N1272 C1274 1.356 . S
N1272 H1284 0.984 . S
N1272 H1285 0.985 . S
N1273 C1275 1.356 . S
N1273 H1278 0.984 . S
N1273 H1279 0.985 . S
C1274 C1268 1.379 . S
C1274 C1271 1.363 . S
C1274 N1272 1.356 . S
C1275 C1269 1.363 . S
C1275 C1270 1.379 . S
C1275 N1273 1.356 . S
N1276 C1268 1.356 . S
N1276 H1282 0.984 . S
N1276 H1283 0.984 . S
N1277 C1270 1.356 . S
N1277 H1280 0.984 . S
N1277 H1281 0.985 . S
H1278 N1273 0.984 . S
H1279 N1273 0.985 . S
H1280 N1277 0.984 . S
H1281 N1277 0.985 . S
H1282 N1276 0.984 . S
H1283 N1276 0.984 . S
H1284 N1272 0.984 . S
H1285 N1272 0.985 . S
C1286 C1287 1.363 . S
C1286 C1292 1.379 . S
C1286 N1294 1.356 . S
C1287 C1286 1.363 . S
C1287 C1293 1.363 . S
C1288 C1289 1.363 . S
C1288 C1293 1.379 . S
C1288 N1295 1.356 . S
C1289 C1288 1.363 . S
C1289 C1292 1.363 . S
N1290 C1292 1.356 . S
N1290 H1302 0.984 . S
N1290 H1303 0.985 . S
N1291 C1293 1.356 . S
N1291 H1296 0.984 . S
N1291 H1297 0.985 . S
C1292 C1286 1.379 . S
C1292 C1289 1.363 . S
C1292 N1290 1.356 . S
C1293 C1287 1.363 . S
C1293 C1288 1.379 . S
C1293 N1291 1.356 . S
N1294 C1286 1.356 . S
N1294 H1300 0.984 . S
N1294 H1301 0.984 . S
N1295 C1288 1.356 . S
N1295 H1298 0.984 . S
N1295 H1299 0.985 . S
H1296 N1291 0.984 . S
H1297 N1291 0.985 . S
H1298 N1295 0.984 . S
H1299 N1295 0.985 . S
H1300 N1294 0.984 . S
H1301 N1294 0.984 . S
H1302 N1290 0.984 . S
H1303 N1290 0.985 . S
C1304 C1305 1.363 . S
C1304 C1310 1.379 . S
C1304 N1312 1.356 . S
C1305 C1304 1.363 . S
C1305 C1311 1.363 . S
C1306 C1307 1.363 . S
C1306 C1311 1.379 . S
C1306 N1313 1.356 . S
C1307 C1306 1.363 . S
C1307 C1310 1.363 . S
N1308 C1310 1.356 . S
N1308 H1320 0.984 . S
N1308 H1321 0.985 . S
N1309 C1311 1.356 . S
N1309 H1314 0.984 . S
N1309 H1315 0.985 . S
C1310 C1304 1.379 . S
C1310 C1307 1.363 . S
C1310 N1308 1.356 . S
C1311 C1305 1.363 . S
C1311 C1306 1.379 . S
C1311 N1309 1.356 . S
N1312 C1304 1.356 . S
N1312 H1318 0.984 . S
N1312 H1319 0.984 . S
N1313 C1306 1.356 . S
N1313 H1316 0.984 . S
N1313 H1317 0.985 . S
H1314 N1309 0.984 . S
H1315 N1309 0.985 . S
H1316 N1313 0.984 . S
H1317 N1313 0.985 . S
H1318 N1312 0.984 . S
H1319 N1312 0.984 . S
H1320 N1308 0.984 . S
H1321 N1308 0.985 . S
C1322 C1323 1.363 . S
C1322 C1328 1.379 . S
C1322 N1330 1.356 . S
C1323 C1322 1.363 . S
C1323 C1329 1.363 . S
C1324 C1325 1.363 . S
C1324 C1329 1.379 . S
C1324 N1331 1.356 . S
C1325 C1324 1.363 . S
C1325 C1328 1.363 . S
N1326 C1328 1.356 . S
N1326 H1338 0.984 . S
N1326 H1339 0.985 . S
N1327 C1329 1.356 . S
N1327 H1332 0.984 . S
N1327 H1333 0.985 . S
C1328 C1322 1.379 . S
C1328 C1325 1.363 . S
C1328 N1326 1.356 . S
C1329 C1323 1.363 . S
C1329 C1324 1.379 . S
C1329 N1327 1.356 . S
N1330 C1322 1.356 . S
N1330 H1336 0.984 . S
N1330 H1337 0.984 . S
N1331 C1324 1.356 . S
N1331 H1334 0.984 . S
N1331 H1335 0.985 . S
H1332 N1327 0.984 . S
H1333 N1327 0.985 . S
H1334 N1331 0.984 . S
H1335 N1331 0.985 . S
H1336 N1330 0.984 . S
H1337 N1330 0.984 . S
H1338 N1326 0.984 . S
H1339 N1326 0.985 . S
C1340 C1341 1.363 . S
C1340 C1346 1.379 . S
C1340 N1348 1.356 . S
C1341 C1340 1.363 . S
C1341 C1347 1.363 . S
C1342 C1343 1.363 . S
C1342 C1347 1.379 . S
C1342 N1349 1.356 . S
C1343 C1342 1.363 . S
C1343 C1346 1.363 . S
N1344 C1346 1.356 . S
N1344 H1356 0.984 . S
N1344 H1357 0.985 . S
N1345 C1347 1.356 . S
N1345 H1350 0.984 . S
N1345 H1351 0.985 . S
C1346 C1340 1.379 . S
C1346 C1343 1.363 . S
C1346 N1344 1.356 . S
C1347 C1341 1.363 . S
C1347 C1342 1.379 . S
C1347 N1345 1.356 . S
N1348 C1340 1.356 . S
N1348 H1354 0.984 . S
N1348 H1355 0.984 . S
N1349 C1342 1.356 . S
N1349 H1352 0.984 . S
N1349 H1353 0.985 . S
H1350 N1345 0.984 . S
H1351 N1345 0.985 . S
H1352 N1349 0.984 . S
H1353 N1349 0.985 . S
H1354 N1348 0.984 . S
H1355 N1348 0.984 . S
H1356 N1344 0.984 . S
H1357 N1344 0.985 . S
C1358 C1359 1.363 . S
C1358 C1364 1.379 . S
C1358 N1366 1.356 . S
C1359 C1358 1.363 . S
C1359 C1365 1.363 1_554 S
C1360 C1361 1.363 . S
C1360 C1365 1.379 1_554 S
C1360 N1367 1.356 . S
C1361 C1360 1.363 . S
C1361 C1364 1.363 . S
N1362 C1364 1.356 . S
N1362 H1374 0.984 . S
N1362 H1375 0.985 . S
N1363 C1365 1.356 . S
N1363 H1368 0.984 . S
N1363 H1369 0.985 . S
C1364 C1358 1.379 . S
C1364 C1361 1.363 . S
C1364 N1362 1.356 . S
C1365 C1359 1.363 1_556 S
C1365 C1360 1.379 1_556 S
C1365 N1363 1.356 . S
N1366 C1358 1.356 . S
N1366 H1372 0.984 . S
N1366 H1373 0.984 . S
N1367 C1360 1.356 . S
N1367 H1370 0.984 . S
N1367 H1371 0.985 1_554 S
H1368 N1363 0.984 . S
H1369 N1363 0.985 . S
H1370 N1367 0.984 . S
H1371 N1367 0.985 1_556 S
H1372 N1366 0.984 . S
H1373 N1366 0.984 . S
H1374 N1362 0.984 . S
H1375 N1362 0.985 . S
C1376 C1377 1.363 . S
C1376 C1382 1.379 . S
C1376 N1384 1.356 . S
C1377 C1376 1.363 . S
C1377 C1383 1.363 . S
C1378 C1379 1.363 . S
C1378 C1383 1.379 . S
C1378 N1385 1.356 . S
C1379 C1378 1.363 . S
C1379 C1382 1.363 . S
N1380 C1382 1.356 . S
N1380 H1392 0.984 . S
N1380 H1393 0.985 . S
N1381 C1383 1.356 . S
N1381 H1386 0.984 . S
N1381 H1387 0.985 . S
C1382 C1376 1.379 . S
C1382 C1379 1.363 . S
C1382 N1380 1.356 . S
C1383 C1377 1.363 . S
C1383 C1378 1.379 . S
C1383 N1381 1.356 . S
N1384 C1376 1.356 . S
N1384 H1390 0.984 . S
N1384 H1391 0.984 . S
N1385 C1378 1.356 . S
N1385 H1388 0.984 . S
N1385 H1389 0.985 . S
H1386 N1381 0.984 . S
H1387 N1381 0.985 . S
H1388 N1385 0.984 . S
H1389 N1385 0.985 . S
H1390 N1384 0.984 . S
H1391 N1384 0.984 . S
H1392 N1380 0.984 . S
H1393 N1380 0.985 . S
C1394 C1395 1.363 . S
C1394 C1400 1.379 . S
C1394 N1402 1.356 . S
C1395 C1394 1.363 . S
C1395 C1401 1.363 . S
C1396 C1397 1.363 . S
C1396 C1401 1.379 . S
C1396 N1403 1.356 . S
C1397 C1396 1.363 . S
C1397 C1400 1.363 . S
N1398 C1400 1.356 . S
N1398 H1410 0.984 . S
N1398 H1411 0.985 . S
N1399 C1401 1.356 . S
N1399 H1404 0.984 . S
N1399 H1405 0.985 . S
C1400 C1394 1.379 . S
C1400 C1397 1.363 . S
C1400 N1398 1.356 . S
C1401 C1395 1.363 . S
C1401 C1396 1.379 . S
C1401 N1399 1.356 . S
N1402 C1394 1.356 . S
N1402 H1408 0.984 . S
N1402 H1409 0.984 . S
N1403 C1396 1.356 . S
N1403 H1406 0.984 . S
N1403 H1407 0.985 . S
H1404 N1399 0.984 . S
H1405 N1399 0.985 . S
H1406 N1403 0.984 . S
H1407 N1403 0.985 . S
H1408 N1402 0.984 . S
H1409 N1402 0.984 . S
H1410 N1398 0.984 . S
H1411 N1398 0.985 . S
C1412 C1413 1.363 . S
C1412 C1418 1.379 . S
C1412 N1420 1.356 . S
C1413 C1412 1.363 . S
C1413 C1419 1.363 . S
C1414 C1415 1.363 . S
C1414 C1419 1.379 . S
C1414 N1421 1.356 . S
C1415 C1414 1.363 . S
C1415 C1418 1.363 . S
N1416 C1418 1.356 . S
N1416 H1428 0.984 . S
N1416 H1429 0.985 . S
N1417 C1419 1.356 . S
N1417 H1422 0.984 . S
N1417 H1423 0.985 . S
C1418 C1412 1.379 . S
C1418 C1415 1.363 . S
C1418 N1416 1.356 . S
C1419 C1413 1.363 . S
C1419 C1414 1.379 . S
C1419 N1417 1.356 . S
N1420 C1412 1.356 . S
N1420 H1426 0.984 . S
N1420 H1427 0.984 . S
N1421 C1414 1.356 . S
N1421 H1424 0.984 . S
N1421 H1425 0.985 . S
H1422 N1417 0.984 . S
H1423 N1417 0.985 . S
H1424 N1421 0.984 . S
H1425 N1421 0.985 . S
H1426 N1420 0.984 . S
H1427 N1420 0.984 . S
H1428 N1416 0.984 . S
H1429 N1416 0.985 . S
C1430 C1431 1.363 . S
C1430 C1436 1.379 . S
C1430 N1438 1.356 . S
C1431 C1430 1.363 . S
C1431 C1437 1.363 . S
C1432 C1433 1.363 . S
C1432 C1437 1.379 . S
C1432 N1439 1.356 . S
C1433 C1432 1.363 . S
C1433 C1436 1.363 . S
N1434 C1436 1.356 . S
N1434 H1446 0.984 . S
N1434 H1447 0.985 . S
N1435 C1437 1.356 . S
N1435 H1440 0.984 . S
N1435 H1441 0.985 . S
C1436 C1430 1.379 . S
C1436 C1433 1.363 . S
C1436 N1434 1.356 . S
C1437 C1431 1.363 . S
C1437 C1432 1.379 . S
C1437 N1435 1.356 . S
N1438 C1430 1.356 . S
N1438 H1444 0.984 . S
N1438 H1445 0.984 . S
N1439 C1432 1.356 . S
N1439 H1442 0.984 . S
N1439 H1443 0.985 . S
H1440 N1435 0.984 . S
H1441 N1435 0.985 . S
H1442 N1439 0.984 . S
H1443 N1439 0.985 . S
H1444 N1438 0.984 . S
H1445 N1438 0.984 . S
H1446 N1434 0.984 . S
H1447 N1434 0.985 . S
C1448 C1449 1.363 . S
C1448 C1454 1.379 . S
C1448 N1456 1.356 . S
C1449 C1448 1.363 . S
C1449 C1455 1.363 . S
C1450 C1451 1.363 . S
C1450 C1455 1.379 . S
C1450 N1457 1.356 . S
C1451 C1450 1.363 . S
C1451 C1454 1.363 . S
N1452 C1454 1.356 . S
N1452 H1464 0.984 . S
N1452 H1465 0.985 . S
N1453 C1455 1.356 . S
N1453 H1458 0.984 . S
N1453 H1459 0.985 . S
C1454 C1448 1.379 . S
C1454 C1451 1.363 . S
C1454 N1452 1.356 . S
C1455 C1449 1.363 . S
C1455 C1450 1.379 . S
C1455 N1453 1.356 . S
N1456 C1448 1.356 . S
N1456 H1462 0.984 . S
N1456 H1463 0.984 . S
N1457 C1450 1.356 . S
N1457 H1460 0.984 . S
N1457 H1461 0.985 . S
H1458 N1453 0.984 . S
H1459 N1453 0.985 . S
H1460 N1457 0.984 . S
H1461 N1457 0.985 . S
H1462 N1456 0.984 . S
H1463 N1456 0.984 . S
H1464 N1452 0.984 . S
H1465 N1452 0.985 . S
C1466 C1467 1.363 . S
C1466 C1472 1.379 . S
C1466 N1474 1.356 . S
C1467 C1466 1.363 . S
C1467 C1473 1.363 . S
C1468 C1469 1.363 . S
C1468 C1473 1.379 . S
C1468 N1475 1.356 . S
C1469 C1468 1.363 . S
C1469 C1472 1.363 . S
N1470 C1472 1.356 . S
N1470 H1482 0.984 . S
N1470 H1483 0.985 . S
N1471 C1473 1.356 . S
N1471 H1476 0.984 . S
N1471 H1477 0.985 . S
C1472 C1466 1.379 . S
C1472 C1469 1.363 . S
C1472 N1470 1.356 . S
C1473 C1467 1.363 . S
C1473 C1468 1.379 . S
C1473 N1471 1.356 . S
N1474 C1466 1.356 . S
N1474 H1480 0.984 . S
N1474 H1481 0.984 . S
N1475 C1468 1.356 . S
N1475 H1478 0.984 . S
N1475 H1479 0.985 . S
H1476 N1471 0.984 . S
H1477 N1471 0.985 . S
H1478 N1475 0.984 . S
H1479 N1475 0.985 . S
H1480 N1474 0.984 . S
H1481 N1474 0.984 . S
H1482 N1470 0.984 . S
H1483 N1470 0.985 . S
C1484 C1485 1.363 . S
C1484 C1490 1.379 . S
C1484 N1492 1.356 . S
C1485 C1484 1.363 . S
C1485 C1491 1.363 . S
C1486 C1487 1.363 . S
C1486 C1491 1.379 . S
C1486 N1493 1.356 . S
C1487 C1486 1.363 . S
C1487 C1490 1.363 . S
N1488 C1490 1.356 . S
N1488 H1500 0.984 . S
N1488 H1501 0.985 . S
N1489 C1491 1.356 . S
N1489 H1494 0.984 . S
N1489 H1495 0.985 . S
C1490 C1484 1.379 . S
C1490 C1487 1.363 . S
C1490 N1488 1.356 . S
C1491 C1485 1.363 . S
C1491 C1486 1.379 . S
C1491 N1489 1.356 . S
N1492 C1484 1.356 . S
N1492 H1498 0.984 . S
N1492 H1499 0.984 . S
N1493 C1486 1.356 . S
N1493 H1496 0.984 . S
N1493 H1497 0.985 . S
H1494 N1489 0.984 . S
H1495 N1489 0.985 . S
H1496 N1493 0.984 . S
H1497 N1493 0.985 . S
H1498 N1492 0.984 . S
H1499 N1492 0.984 . S
H1500 N1488 0.984 . S
H1501 N1488 0.985 . S
C1502 C1503 1.363 . S
C1502 C1508 1.379 . S
C1502 N1510 1.356 . S
C1503 C1502 1.363 . S
C1503 C1509 1.363 . S
C1504 C1505 1.363 . S
C1504 C1509 1.379 . S
C1504 N1511 1.356 . S
C1505 C1504 1.363 . S
C1505 C1508 1.363 . S
N1506 C1508 1.356 . S
N1506 H1518 0.984 . S
N1506 H1519 0.985 . S
N1507 C1509 1.356 . S
N1507 H1512 0.984 . S
N1507 H1513 0.985 . S
C1508 C1502 1.379 . S
C1508 C1505 1.363 . S
C1508 N1506 1.356 . S
C1509 C1503 1.363 . S
C1509 C1504 1.379 . S
C1509 N1507 1.356 . S
N1510 C1502 1.356 . S
N1510 H1516 0.984 . S
N1510 H1517 0.984 . S
N1511 C1504 1.356 . S
N1511 H1514 0.984 . S
N1511 H1515 0.985 . S
H1512 N1507 0.984 . S
H1513 N1507 0.985 . S
H1514 N1511 0.984 . S
H1515 N1511 0.985 . S
H1516 N1510 0.984 . S
H1517 N1510 0.984 . S
H1518 N1506 0.984 . S
H1519 N1506 0.985 . S
C1520 C1521 1.363 . S
C1520 C1526 1.379 . S
C1520 N1528 1.356 . S
C1521 C1520 1.363 . S
C1521 C1527 1.363 . S
C1522 C1523 1.363 . S
C1522 C1527 1.379 . S
C1522 N1529 1.356 . S
C1523 C1522 1.363 . S
C1523 C1526 1.363 . S
N1524 C1526 1.356 . S
N1524 H1536 0.984 . S
N1524 H1537 0.985 . S
N1525 C1527 1.356 . S
N1525 H1530 0.984 . S
N1525 H1531 0.985 . S
C1526 C1520 1.379 . S
C1526 C1523 1.363 . S
C1526 N1524 1.356 . S
C1527 C1521 1.363 . S
C1527 C1522 1.379 . S
C1527 N1525 1.356 . S
N1528 C1520 1.356 . S
N1528 H1534 0.984 . S
N1528 H1535 0.984 . S
N1529 C1522 1.356 . S
N1529 H1532 0.984 . S
N1529 H1533 0.985 . S
H1530 N1525 0.984 . S
H1531 N1525 0.985 . S
H1532 N1529 0.984 . S
H1533 N1529 0.985 . S
H1534 N1528 0.984 . S
H1535 N1528 0.984 . S
H1536 N1524 0.984 . S
H1537 N1524 0.985 . S
C1538 C1539 1.363 . S
C1538 C1544 1.379 . S
C1538 N1546 1.356 . S
C1539 C1538 1.363 . S
C1539 C1545 1.363 . S
C1540 C1541 1.363 . S
C1540 C1545 1.379 . S
C1540 N1547 1.356 . S
C1541 C1540 1.363 . S
C1541 C1544 1.363 . S
N1542 C1544 1.356 . S
N1542 H1554 0.984 . S
N1542 H1555 0.985 . S
N1543 C1545 1.356 . S
N1543 H1548 0.984 . S
N1543 H1549 0.985 . S
C1544 C1538 1.379 . S
C1544 C1541 1.363 . S
C1544 N1542 1.356 . S
C1545 C1539 1.363 . S
C1545 C1540 1.379 . S
C1545 N1543 1.356 . S
N1546 C1538 1.356 . S
N1546 H1552 0.984 . S
N1546 H1553 0.984 . S
N1547 C1540 1.356 . S
N1547 H1550 0.984 . S
N1547 H1551 0.985 . S
H1548 N1543 0.984 . S
H1549 N1543 0.985 . S
H1550 N1547 0.984 . S
H1551 N1547 0.985 . S
H1552 N1546 0.984 . S
H1553 N1546 0.984 . S
H1554 N1542 0.984 . S
H1555 N1542 0.985 . S
C1556 C1557 1.363 . S
C1556 C1562 1.379 . S
C1556 N1564 1.356 . S
C1557 C1556 1.363 . S
C1557 C1563 1.363 . S
C1558 C1559 1.363 . S
C1558 C1563 1.379 . S
C1558 N1565 1.356 . S
C1559 C1558 1.363 . S
C1559 C1562 1.363 . S
N1560 C1562 1.356 1_554 S
N1560 H1572 0.984 . S
N1560 H1573 0.985 . S
N1561 C1563 1.356 . S
N1561 H1566 0.984 . S
N1561 H1567 0.985 . S
C1562 C1556 1.379 . S
C1562 C1559 1.363 . S
C1562 N1560 1.356 1_556 S
C1563 C1557 1.363 . S
C1563 C1558 1.379 . S
C1563 N1561 1.356 . S
N1564 C1556 1.356 . S
N1564 H1570 0.984 . S
N1564 H1571 0.984 . S
N1565 C1558 1.356 . S
N1565 H1568 0.984 . S
N1565 H1569 0.985 . S
H1566 N1561 0.984 . S
H1567 N1561 0.985 . S
H1568 N1565 0.984 . S
H1569 N1565 0.985 . S
H1570 N1564 0.984 . S
H1571 N1564 0.984 . S
H1572 N1560 0.984 . S
H1573 N1560 0.985 . S
C1574 C1575 1.363 . S
C1574 C1580 1.379 . S
C1574 N1582 1.356 . S
C1575 C1574 1.363 . S
C1575 C1581 1.342 1_556 S
C1576 C1577 1.363 . S
C1576 C1581 1.399 . S
C1576 N1583 1.356 . S
C1577 C1576 1.363 . S
C1577 C1580 1.363 1_554 S
N1578 C1580 1.356 . S
N1578 H1590 0.984 . S
N1578 H1591 0.985 1_556 S
N1579 C1581 1.350 1_556 S
N1579 H1584 0.984 . S
N1579 H1585 0.985 1_556 S
C1580 C1574 1.379 . S
C1580 C1577 1.363 1_556 S
C1580 N1578 1.356 . S
C1581 C1575 1.342 1_554 S
C1581 C1576 1.399 . S
C1581 N1579 1.350 1_554 S
N1582 C1574 1.356 . S
N1582 H1588 0.984 . S
N1582 H1589 0.984 . S
N1583 C1576 1.356 . S
N1583 H1586 0.984 . S
N1583 H1587 0.985 . S
H1584 N1579 0.984 . S
H1585 N1579 0.985 1_554 S
H1586 N1583 0.984 . S
H1587 N1583 0.985 . S
H1588 N1582 0.984 . S
H1589 N1582 0.984 . S
H1590 N1578 0.984 . S
H1591 N1578 0.985 1_554 S
C1019 C621 1.772 . S
C1017 C39 1.711 . S
C1037 C674 1.439 . S
C1035 C125 1.436 . S
C1055 C737 2.252 . S
C1053 C217 2.126 . S
C1073 C780 1.837 . S
C1071 C261 1.709 . S
C1089 C359 1.490 . S
C1091 C736 1.509 . S
C1109 C773 1.377 . S
C1107 C433 1.257 . S
C1127 C614 1.598 . S
C1125 C495 1.631 . S
C1145 C667 1.504 . S
C1143 C587 1.510 . S
C1163 C720 1.744 . S
C1161 C557 1.726 . S
C1181 C789 1.439 . S
C1179 C347 1.447 . S
C1199 C630 1.213 . S
C1197 C421 1.200 . S
C1217 C683 1.854 . S
C1215 C507 1.795 . S
C1235 C631 1.519 . S
C1233 C137 1.527 . S
C1253 C684 2.042 . S
C1251 C187 1.958 . S
C1271 C727 2.536 . S
C1269 C291 2.456 . S
C1289 C790 2.216 . S
C1287 C69 2.221 . S
C1307 C833 1.415 . S
C1305 C581 1.432 . S
C1323 C365 2.172 . S
C1325 C886 2.142 . S
C1341 C439 2.579 . S
C1343 C948 2.577 . S
C1359 C483 1.693 1_554 S
C1361 C1002 1.762 . S
C1377 C113 1.752 . S
C1379 C949 1.777 . S
C1395 C211 1.875 . S
C1397 C1001 1.928 . S
C1413 C273 1.426 . S
C1415 C826 1.509 . S
C1433 C879 1.307 . S
C1431 C51 1.304 . S
C1451 C939 1.541 . S
C1449 C63 1.463 . S
C1467 C143 1.616 . S
C1469 C985 1.623 . S
C1485 C199 2.036 . S
C1487 C842 2.078 . S
C1503 C285 1.228 . S
C1505 C895 1.351 . S
C1523 C843 1.671 . S
C1521 C335 1.643 . S
C1541 C896 2.174 . S
C1539 C409 1.955 . S
C1557 C513 1.910 . S
C1559 C932 1.917 . S
C1577 C992 1.442 . S
C1575 C569 1.430 . S
