# Generated by pormake.
# Topology zzz, (3,6)-cn, num edge types: 1
# Building blocks:
#     Node 0, Type 0, BuildingBlock: MIDCAF_clean_linker_0, # of connection points: 3
#     Node 1, Type 0, BuildingBlock: MIDCAF_clean_linker_0, # of connection points: 3
#     Node 2, Type 0, BuildingBlock: MIDCAF_clean_linker_0, # of connection points: 3
#     Node 3, Type 0, BuildingBlock: MIDCAF_clean_linker_0, # of connection points: 3
#     Node 4, Type 0, BuildingBlock: MIDCAF_clean_linker_0, # of connection points: 3
#     Node 5, Type 0, BuildingBlock: MIDCAF_clean_linker_0, # of connection points: 3
#     Node 6, Type 0, BuildingBlock: MIDCAF_clean_linker_0, # of connection points: 3
#     Node 7, Type 0, BuildingBlock: MIDCAF_clean_linker_0, # of connection points: 3
#     Node 8, Type 1, BuildingBlock: MIFKUJ_clean_sbu_0, # of connection points: 6
#     Node 9, Type 1, BuildingBlock: MIFKUJ_clean_sbu_0, # of connection points: 6
#     Node 10, Type 1, BuildingBlock: MIFKUJ_clean_sbu_0, # of connection points: 6
#     Node 11, Type 1, BuildingBlock: MIFKUJ_clean_sbu_0, # of connection points: 6
#     Edge 12, Type (0, 1), BuildingBlock: EZIPEK_clean_linker_0, # of connection points: 2
#     Edge 13, Type (0, 1), BuildingBlock: EZIPEK_clean_linker_0, # of connection points: 2
#     Edge 14, Type (0, 1), BuildingBlock: EZIPEK_clean_linker_0, # of connection points: 2
#     Edge 15, Type (0, 1), BuildingBlock: EZIPEK_clean_linker_0, # of connection points: 2
#     Edge 16, Type (0, 1), BuildingBlock: EZIPEK_clean_linker_0, # of connection points: 2
#     Edge 17, Type (0, 1), BuildingBlock: EZIPEK_clean_linker_0, # of connection points: 2
#     Edge 18, Type (0, 1), BuildingBlock: EZIPEK_clean_linker_0, # of connection points: 2
#     Edge 19, Type (0, 1), BuildingBlock: EZIPEK_clean_linker_0, # of connection points: 2
#     Edge 20, Type (0, 1), BuildingBlock: EZIPEK_clean_linker_0, # of connection points: 2
#     Edge 21, Type (0, 1), BuildingBlock: EZIPEK_clean_linker_0, # of connection points: 2
#     Edge 22, Type (0, 1), BuildingBlock: EZIPEK_clean_linker_0, # of connection points: 2
#     Edge 23, Type (0, 1), BuildingBlock: EZIPEK_clean_linker_0, # of connection points: 2
#     Edge 24, Type (0, 1), BuildingBlock: EZIPEK_clean_linker_0, # of connection points: 2
#     Edge 25, Type (0, 1), BuildingBlock: EZIPEK_clean_linker_0, # of connection points: 2
#     Edge 26, Type (0, 1), BuildingBlock: EZIPEK_clean_linker_0, # of connection points: 2
#     Edge 27, Type (0, 1), BuildingBlock: EZIPEK_clean_linker_0, # of connection points: 2
#     Edge 28, Type (0, 1), BuildingBlock: EZIPEK_clean_linker_0, # of connection points: 2
#     Edge 29, Type (0, 1), BuildingBlock: EZIPEK_clean_linker_0, # of connection points: 2
#     Edge 30, Type (0, 1), BuildingBlock: EZIPEK_clean_linker_0, # of connection points: 2
#     Edge 31, Type (0, 1), BuildingBlock: EZIPEK_clean_linker_0, # of connection points: 2
#     Edge 32, Type (0, 1), BuildingBlock: EZIPEK_clean_linker_0, # of connection points: 2
#     Edge 33, Type (0, 1), BuildingBlock: EZIPEK_clean_linker_0, # of connection points: 2
#     Edge 34, Type (0, 1), BuildingBlock: EZIPEK_clean_linker_0, # of connection points: 2
#     Edge 35, Type (0, 1), BuildingBlock: EZIPEK_clean_linker_0, # of connection points: 2
# Relax obj value: 0.326
# Max RMSD: 0.209
# Mean RMSD: 0.192
data_MOF--net-zzz--node1-MIFKUJ_clean_sbu_0--node2-MIDCAF_clean_linker_0--edge1-EZIPEK_clean_linker_0
_symmetry_space_group_name_H-M    P1
_symmetry_Int_Tables_number       1
_symmetry_cell_setting            triclinic
loop_
_symmetry_equiv_pos_as_xyz
'x, y, z'
_cell_length_a     44.094318
_cell_length_b     45.244438
_cell_length_c     16.708562
_cell_angle_alpha  89.364839
_cell_angle_beta   90.009555
_cell_angle_gamma 92.437412
loop_
_atom_site_label
_atom_site_type_symbol
_atom_site_fract_x
_atom_site_fract_y
_atom_site_fract_z
_atom_type_partial_charge
C0 C 0.79965 0.59257 0.27832 0.0
C1 C 0.79525 0.56768 0.32816 0.0
C2 C 0.7665 0.55266 0.32855 0.0
C3 C 0.74426 0.5599 0.27167 0.0
H4 H 0.6449 0.55633 0.10706 0.0
H5 H 0.59896 0.54119 0.03049 0.0
H6 H 0.63426 0.5899 0.82507 0.0
H7 H 0.67723 0.60773 0.90265 0.0
H8 H 0.75568 0.60712 0.85263 0.0
H9 H 0.79666 0.5985 0.75563 0.0
H10 H 0.82788 0.52811 0.90731 0.0
H11 H 0.78865 0.53753 0.0046 0.0
H12 H 0.78259 0.61817 0.1817 0.0
H13 H 0.82139 0.60469 0.27712 0.0
H14 H 0.76247 0.53351 0.36715 0.0
H15 H 0.72403 0.54565 0.26601 0.0
N16 N 0.70612 0.58279 0.11742 0.0
N17 N 0.71831 0.58096 0.9799 0.0
N18 N 0.75675 0.5797 0.0744 0.0
C19 C 0.69716 0.58283 0.03839 0.0
C20 C 0.74783 0.5792 0.99763 0.0
C21 C 0.7366 0.58199 0.13467 0.0
C22 C 0.66515 0.58253 0.01029 0.0
C23 C 0.64185 0.56512 0.04719 0.0
C24 C 0.61584 0.55612 0.00294 0.0
C25 C 0.61387 0.56313 0.92051 0.0
C26 C 0.63539 0.58345 0.88763 0.0
C27 C 0.66015 0.59363 0.93249 0.0
C28 C 0.76974 0.57321 0.93576 0.0
C29 C 0.77136 0.58978 0.8642 0.0
C30 C 0.79443 0.58487 0.80919 0.0
C31 C 0.81491 0.56271 0.82513 0.0
C32 C 0.81211 0.54531 0.89469 0.0
C33 C 0.78992 0.55077 0.95013 0.0
C34 C 0.75019 0.58289 0.21588 0.0
C35 C 0.77719 0.60043 0.2242 0.0
C36 C 0.96381 0.78285 0.28219 0.0
C37 C 0.98709 0.784 0.33914 0.0
C38 C 0.00655 0.76024 0.34584 0.0
C39 C 0.00527 0.73769 0.28867 0.0
H40 H 0.96057 0.64144 0.08807 0.0
H41 H 0.95625 0.59633 0.00641 0.0
H42 H 0.04221 0.62006 0.89519 0.0
H43 H 0.04677 0.6644 0.97635 0.0
H44 H 0.97979 0.74035 0.86548 0.0
H45 H 0.98519 0.78302 0.77254 0.0
H46 H 0.05134 0.82438 0.93053 0.0
H47 H 0.04512 0.78274 0.02417 0.0
H48 H 0.94613 0.76171 0.17756 0.0
H49 H 0.94847 0.80085 0.27658 0.0
H50 H 0.02456 0.76076 0.38996 0.0
H51 H 0.02279 0.72161 0.28854 0.0
N52 N 0.99383 0.69663 0.13401 0.0
N53 N 0.00699 0.70779 -0.00028 0.0
N54 N -0.00243 0.74592 0.08742 0.0
C55 C 0.00167 0.68756 0.05921 0.0
C56 C 0.00507 0.73685 0.01383 0.0
C57 C 0.9917 0.72621 0.14749 0.0
C58 C 0.0039 0.65631 0.03789 0.0
C59 C 0.97915 0.63612 0.04912 0.0
C60 C 0.97652 0.61063 0.00203 0.0
C61 C -0.00133 0.60541 0.94397 0.0
C62 C 0.02485 0.62392 0.93934 0.0
C63 C 0.0275 0.6491 0.9861 0.0
C64 C 0.01198 0.75877 0.95139 0.0
C65 C -0.004 0.7583 0.87873 0.0
C66 C -0.00089 0.7824 0.82592 0.0
C67 C 0.01879 0.80646 0.84524 0.0
C68 C 0.03632 0.80574 0.91495 0.0
C69 C 0.03265 0.78218 0.96828 0.0
C70 C 0.98426 0.73867 0.22559 0.0
C71 C 0.96229 0.76027 0.22619 0.0
C72 C 0.69213 0.8999 0.29785 0.0
C73 C 0.69721 0.92384 0.34916 0.0
C74 C 0.72628 0.93824 0.34995 0.0
C75 C 0.74803 0.93176 0.29146 0.0
H76 H 0.84682 0.93742 0.12149 0.0
H77 H 0.89249 0.95249 0.04247 0.0
H78 H 0.85351 0.90795 0.83718 0.0
H79 H 0.81189 0.88901 0.91753 0.0
H80 H 0.73947 0.88922 0.86896 0.0
H81 H 0.69888 0.89478 0.76875 0.0
H82 H 0.65667 0.95724 0.92246 0.0
H83 H 0.69568 0.95068 0.02295 0.0
H84 H 0.70825 0.87566 0.19914 0.0
H85 H 0.67017 0.8882 0.29648 0.0
H86 H 0.73087 0.95657 0.38994 0.0
H87 H 0.76849 0.94576 0.28605 0.0
N88 N 0.7849 0.91178 0.13422 0.0
N89 N 0.77194 0.91406 0.99726 0.0
N90 N 0.73393 0.91413 0.09277 0.0
C91 C 0.79344 0.91237 0.05491 0.0
C92 C 0.74248 0.91513 0.01571 0.0
C93 C 0.75446 0.91198 0.15244 0.0
C94 C 0.8252 0.91286 0.02508 0.0
C95 C 0.84908 0.92951 0.06095 0.0
C96 C 0.87482 0.93863 0.01518 0.0
C97 C 0.87571 0.93291 0.93218 0.0
C98 C 0.85337 0.91353 0.9001 0.0
C99 C 0.82929 0.90272 0.94661 0.0
C100 C 0.72006 0.91923 0.95338 0.0
C101 C 0.72141 0.9041 0.88053 0.0
C102 C 0.69855 0.90728 0.82365 0.0
C103 C 0.67513 0.92637 0.83904 0.0
C104 C 0.67468 0.94232 0.91035 0.0
C105 C 0.69677 0.9385 0.9676 0.0
C106 C 0.7413 0.90999 0.23407 0.0
C107 C 0.71416 0.89262 0.24248 0.0
C108 C 0.42949 0.68023 0.91737 0.0
C109 C 0.44627 0.68225 0.84634 0.0
C110 C 0.46193 0.7088 0.82494 0.0
C111 C 0.46229 0.73262 0.8775 0.0
H112 H 0.41972 0.82587 0.95794 0.0
H113 H 0.43 0.87118 0.88093 0.0
H114 H 0.50922 0.89099 0.02505 0.0
H115 H 0.49925 0.84493 0.10252 0.0
H116 H 0.43859 0.76304 0.28917 0.0
H117 H 0.4405 0.72393 0.39245 0.0
H118 H 0.51823 0.689 0.27575 0.0
H119 H 0.51654 0.72791 0.17371 0.0
H120 H 0.41897 0.70094 0.02751 0.0
H121 H 0.41755 0.65969 0.93452 0.0
H122 H 0.4753 0.71036 0.77053 0.0
H123 H 0.47588 0.75246 0.86289 0.0
N124 N 0.45235 0.78031 -0.00031 0.0
N125 N 0.46738 0.79072 0.13229 0.0
N126 N 0.46159 0.74162 0.0882 0.0
C127 C 0.45886 0.80026 0.05801 0.0
C128 C 0.46862 0.76107 0.14694 0.0
C129 C 0.45346 0.75109 0.01482 0.0
C130 C 0.45906 0.83174 0.03507 0.0
C131 C 0.43874 0.84038 0.97525 0.0
C132 C 0.4446 0.86618 0.93105 0.0
C133 C 0.47067 0.88388 0.94645 0.0
C134 C 0.48912 0.87727 0.01227 0.0
C135 C 0.48327 0.85118 0.05676 0.0
C136 C 0.47759 0.74851 0.22425 0.0
C137 C 0.45717 0.74813 0.28874 0.0
C138 C 0.45803 0.72564 0.34705 0.0
C139 C 0.47926 0.70348 0.34059 0.0
C140 C 0.50173 0.70595 0.28148 0.0
C141 C 0.50092 0.72834 0.22374 0.0
C142 C 0.4476 0.72951 0.95191 0.0
C143 C 0.43043 0.70362 0.97035 0.0
C144 C 0.19108 0.39276 0.91561 0.0
C145 C 0.19301 0.42166 0.88457 0.0
C146 C 0.21807 0.44032 0.90543 0.0
C147 C 0.2394 0.431 0.96209 0.0
H148 H 0.34517 0.39891 0.11365 0.0
H149 H 0.39368 0.41287 0.18121 0.0
H150 H 0.34393 0.44701 0.37954 0.0
H151 H 0.2964 0.43348 0.31389 0.0
H152 H 0.24456 0.39913 0.37277 0.0
H153 H 0.20516 0.42135 0.45143 0.0
H154 H 0.13814 0.39419 0.27639 0.0
H155 H 0.17724 0.3721 0.1964 0.0
H156 H 0.20874 0.3618 -0.00075 0.0
H157 H 0.17202 0.37799 0.90034 0.0
H158 H 0.21996 0.46275 0.88208 0.0
H159 H 0.25687 0.44669 0.98257 0.0
N160 N 0.27838 0.40589 0.09942 0.0
N161 N 0.26678 0.39361 0.23359 0.0
N162 N 0.22961 0.3873 0.1362 0.0
C163 C 0.28727 0.40336 0.1778 0.0
C164 C 0.23794 0.38572 0.21384 0.0
C165 C 0.24931 0.39705 0.07848 0.0
C166 C 0.31698 0.41506 0.20836 0.0
C167 C 0.34478 0.40987 0.1709 0.0
C168 C 0.37238 0.41754 0.20975 0.0
C169 C 0.3723 0.43079 0.28575 0.0
C170 C 0.34455 0.43668 0.32136 0.0
C171 C 0.31736 0.42898 0.28335 0.0
C172 C 0.21421 0.38512 0.27628 0.0
C173 C 0.22128 0.3966 0.35245 0.0
C174 C 0.19885 0.40942 0.39766 0.0
C175 C 0.16925 0.41009 0.36776 0.0
C176 C 0.16116 0.39413 0.29919 0.0
C177 C 0.18356 0.38149 0.2537 0.0
C178 C 0.23581 0.40294 0.99873 0.0
C179 C 0.21229 0.38347 0.97172 0.0
C180 C 0.97351 0.20403 0.90345 0.0
C181 C -0.00326 0.20484 0.84638 0.0
C182 C 0.01701 0.22965 0.84163 0.0
C183 C 0.01653 0.25139 0.90087 0.0
H184 H 0.97554 0.34298 0.0905 0.0
H185 H 0.96872 0.38798 0.16891 0.0
H186 H 0.04904 0.37014 0.30532 0.0
H187 H 0.05595 0.3256 0.22773 0.0
H188 H 0.9914 0.25757 0.33011 0.0
H189 H 0.97778 0.21747 0.42573 0.0
H190 H 0.01746 0.15458 0.269 0.0
H191 H 0.03042 0.19411 0.17287 0.0
H192 H 0.95656 0.22291 0.01002 0.0
H193 H 0.95744 0.18526 0.90715 0.0
H194 H 0.03481 0.23073 0.79693 0.0
H195 H 0.03445 0.26851 0.90214 0.0
N196 N 0.00707 0.29034 0.05638 0.0
N197 N 0.01631 0.27954 0.19253 0.0
N198 N 0.00587 0.2412 0.10377 0.0
C199 C 0.01405 0.29961 0.132 0.0
C200 C 0.01249 0.25035 0.17845 0.0
C201 C 0.0031 0.26078 0.04271 0.0
C202 C 0.01619 0.33095 0.15359 0.0
C203 C 0.99253 0.3496 0.13436 0.0
C204 C 0.98848 0.37506 0.17944 0.0
C205 C 0.00823 0.3819 0.24322 0.0
C206 C 0.03364 0.36504 0.25633 0.0
C207 C 0.03762 0.33975 0.21176 0.0
C208 C 0.01157 0.22865 0.24407 0.0
C209 C -0.00203 0.2353 0.31743 0.0
C210 C 0.99003 0.21255 0.37162 0.0
C211 C -0.00367 0.18332 0.35313 0.0
C212 C 0.01231 0.17713 0.28336 0.0
C213 C 0.01974 0.19964 0.22884 0.0
C214 C -0.00439 0.24837 0.96405 0.0
C215 C 0.97285 0.22572 0.96163 0.0
C216 C 0.29927 0.0475 0.93673 0.0
C217 C 0.29608 0.06191 0.86285 0.0
C218 C 0.27162 0.08052 0.85124 0.0
C219 C 0.25183 0.08611 0.91502 0.0
H220 H 0.14842 0.07722 0.08409 0.0
H221 H 0.10002 0.06039 0.14905 0.0
H222 H 0.1455 0.0584 0.37749 0.0
H223 H 0.19202 0.07581 0.31621 0.0
H224 H 0.24562 0.09545 0.35562 0.0
H225 H 0.28251 0.07415 0.44589 0.0
H226 H 0.3527 0.08989 0.26924 0.0
H227 H 0.31619 0.111 0.17804 0.0
H228 H 0.28392 0.04291 0.05761 0.0
H229 H 0.31788 0.03302 0.9468 0.0
H230 H 0.26876 0.09173 0.79432 0.0
H231 H 0.23446 0.10208 0.90694 0.0
N232 N 0.21344 0.08022 0.08529 0.0
N233 N 0.22524 0.09855 0.21326 0.0
N234 N 0.26351 0.0955 0.11898 0.0
C235 C 0.20433 0.08754 0.16069 0.0
C236 C 0.25479 0.10236 0.19372 0.0
C237 C 0.24328 0.08496 0.06411 0.0
C238 C 0.17422 0.07802 0.19451 0.0
C239 C 0.14781 0.07333 0.14814 0.0
C240 C 0.12026 0.06372 0.18511 0.0
C241 C 0.1193 0.05774 0.26815 0.0
C242 C 0.1456 0.06271 0.31351 0.0
C243 C 0.1724 0.07284 0.27772 0.0
C244 C 0.27776 0.10367 0.25808 0.0
C245 C 0.26915 0.09566 0.337 0.0
C246 C 0.29012 0.08339 0.38888 0.0
C247 C 0.3198 0.07967 0.36245 0.0
C248 C 0.32957 0.09221 0.28946 0.0
C249 C 0.30867 0.10434 0.23754 0.0
C250 C 0.25636 0.07301 0.99047 0.0
C251 C 0.27965 0.05295 -0.00029 0.0
C252 C 0.51332 0.30854 0.28133 0.0
C253 C 0.53328 0.30946 0.34641 0.0
C254 C 0.55187 0.28568 0.36226 0.0
C255 C 0.55178 0.26185 0.30963 0.0
H256 H 0.47805 0.17292 0.19097 0.0
H257 H 0.47157 0.12742 0.27 0.0
H258 H 0.55831 0.09944 0.18718 0.0
H259 H 0.56489 0.14536 0.1074 0.0
H260 H 0.50658 0.22027 0.90809 0.0
H261 H 0.49446 0.25712 0.80468 0.0
H262 H 0.5668 0.31532 0.89162 0.0
H263 H 0.57939 0.27869 0.99269 0.0
H264 H 0.49928 0.28565 0.17579 0.0
H265 H 0.49885 0.32681 0.26883 0.0
H266 H 0.56738 0.28633 0.41254 0.0
H267 H 0.5672 0.24418 0.31971 0.0
N268 N 0.53103 0.21208 0.18907 0.0
N269 N 0.53546 0.20363 0.05045 0.0
N270 N 0.54249 0.25149 0.10194 0.0
C271 C 0.53038 0.19323 0.12639 0.0
C272 C 0.54208 0.23305 0.03869 0.0
C273 C 0.53715 0.24119 0.17679 0.0
C274 C 0.52188 0.1623 0.14339 0.0
C275 C 0.49494 0.1563 0.18625 0.0
C276 C 0.4913 0.13049 0.23161 0.0
C277 C 0.51459 0.11048 0.23462 0.0
C278 C 0.54011 0.11478 0.18489 0.0
C279 C 0.54375 0.14077 0.13908 0.0
C280 C 0.54357 0.24696 0.95885 0.0
C281 C 0.52089 0.24023 0.90203 0.0
C282 C 0.51369 0.26136 0.84383 0.0
C283 C 0.52911 0.28918 0.84296 0.0
C284 C 0.55435 0.29414 0.89258 0.0
C285 C 0.56166 0.27309 0.9498 0.0
C286 C 0.53358 0.26232 0.24081 0.0
C287 C 0.51367 0.28521 0.22838 0.0
Zn288 Zn 0.98948 0.03944 0.62125 0.0
Zn289 Zn -0.00058 0.95281 0.56495 0.0
C290 C 0.98778 0.08742 0.72594 0.0
O291 O 0.95945 0.07728 0.72963 0.0
C292 C 0.00437 0.90004 0.47891 0.0
O293 O 0.03282 0.90781 0.49373 0.0
O294 O 0.96262 0.06383 0.55334 0.0
O295 O 0.02146 0.02504 0.54452 0.0
O296 O 0.02591 0.98022 0.49826 0.0
C297 C 0.96874 0.06884 0.4802 0.0
O298 O 0.98371 0.04946 0.43994 0.0
O299 O 0.00732 0.072 0.69155 0.0
C300 C 0.01026 0.91418 0.67954 0.0
O301 O 0.98107 0.91336 0.6661 0.0
O302 O 0.02704 0.93324 0.64275 0.0
O303 O 0.96646 0.96764 0.63778 0.0
O304 O 0.96153 0.0122 0.68508 0.0
O305 O 0.98384 0.9178 0.49723 0.0
C306 C 0.03519 0.00707 0.50069 0.0
C307 C 0.95208 0.98542 0.68045 0.0
Zn308 Zn 0.44376 0.00307 0.59105 0.0
Zn309 Zn 0.53896 0.98405 0.58586 0.0
C310 C 0.3979 0.0222 0.69263 0.0
O311 O 0.39637 -0.00665 0.70253 0.0
C312 C 0.59035 0.96926 0.50306 0.0
O313 O 0.59481 -0.00307 0.52451 0.0
O314 O 0.41396 0.98816 0.51128 0.0
O315 O 0.48328 0.01926 0.53495 0.0
O316 O 0.53322 0.01908 0.51825 0.0
C317 C 0.41327 0.00257 0.44615 0.0
O318 O 0.43896 0.01095 0.41175 0.0
O319 O 0.41924 0.03378 0.64961 0.0
C320 C 0.56992 0.96767 0.70456 0.0
O321 O 0.55271 0.94533 0.67917 0.0
O322 O 0.56529 -0.00676 0.67731 0.0
O323 O 0.49788 0.9726 0.6312 0.0
O324 O 0.45079 0.96983 0.66804 0.0
O325 O 0.56462 0.95626 0.51849 0.0
C326 C 0.50764 0.02916 0.50061 0.0
C327 C 0.4775 0.96139 0.6773 0.0
Zn328 Zn 0.50719 0.4508 0.61613 0.0
Zn329 Zn 0.47865 0.53689 0.58266 0.0
C330 C 0.51105 0.40568 0.72932 0.0
O331 O 0.53633 0.42124 0.74274 0.0
C332 C 0.46976 0.58846 0.49445 0.0
O333 O 0.44192 0.57819 0.50797 0.0
O334 O 0.53344 0.43056 0.54039 0.0
O335 O 0.47683 0.47207 0.55293 0.0
O336 O 0.45306 0.5101 0.51108 0.0
C337 C 0.52499 0.42525 0.46943 0.0
O338 O 0.50329 0.44029 0.43719 0.0
O339 O 0.49112 0.41642 0.68368 0.0
C340 C 0.46698 0.57317 0.69912 0.0
O341 O 0.49627 0.57427 0.68701 0.0
O342 O 0.4509 0.5537 0.66322 0.0
O343 O 0.51556 0.52121 0.646 0.0
O344 O 0.53372 0.47834 0.67923 0.0
O345 O 0.49184 0.57297 0.51592 0.0
C346 C 0.45672 0.48259 0.50818 0.0
C347 C 0.53592 0.50635 0.68073 0.0
Zn348 Zn 0.04881 0.49076 0.60464 0.0
Zn349 Zn 0.95271 0.50609 0.57322 0.0
C350 C 0.09285 0.47428 0.71721 0.0
O351 O 0.09736 0.50309 0.71148 0.0
C352 C 0.90187 0.52053 0.4831 0.0
O353 O 0.89766 0.49237 0.5016 0.0
O354 O 0.08252 0.50251 0.53054 0.0
O355 O 0.01083 0.47385 0.54075 0.0
O356 O 0.962 0.47153 0.50813 0.0
C357 C 0.08099 0.49276 0.46001 0.0
O358 O 0.05438 0.48956 0.42604 0.0
O359 O 0.07075 0.4619 0.67879 0.0
C360 C 0.91917 0.52035 0.6882 0.0
O361 O 0.93553 0.5435 0.66319 0.0
O362 O 0.925 0.49512 0.6618 0.0
O363 O 0.99277 0.51952 0.62274 0.0
O364 O 0.0381 0.52535 0.67209 0.0
O365 O 0.92709 0.53361 0.50246 0.0
C366 C 0.98874 0.46266 0.49959 0.0
C367 C 0.0105 0.53199 0.67328 0.0
C368 C 0.0814 0.06318 0.37561 0.0
C369 C 0.09189 0.0459 0.31224 0.0
C370 C 0.06996 0.00115 0.37866 0.0
C371 C 0.05898 0.01886 0.44191 0.0
N372 N 0.07103 0.06311 0.51661 0.0
N373 N 0.09159 -0.00082 0.24504 0.0
C374 C 0.06899 0.04907 0.44485 0.0
C375 C 0.08445 0.01513 0.31084 0.0
N376 N 0.08406 0.0933 0.37024 0.0
N377 N 0.07061 0.97113 0.38817 0.0
H378 H 0.10292 0.00852 0.19566 0.0
H379 H 0.08373 0.97747 0.23579 0.0
H380 H 0.06717 0.96057 0.44325 0.0
H381 H 0.07972 0.9571 0.34645 0.0
H382 H 0.07449 0.10706 0.41217 0.0
H383 H 0.09306 0.10416 0.31951 0.0
H384 H 0.08128 0.08416 0.52286 0.0
H385 H 0.06684 0.05215 0.57099 0.0
C386 C 0.52352 0.09837 0.37807 0.0
C387 C 0.51444 0.08867 0.30084 0.0
C388 C 0.50206 0.03926 0.35444 0.0
C389 C 0.50693 0.05016 0.43305 0.0
N390 N 0.52011 0.09034 0.52152 0.0
N391 N 0.49252 0.05104 0.2151 0.0
C392 C 0.51703 0.07984 0.44539 0.0
C393 C 0.50295 0.05941 0.2888 0.0
N394 N 0.5391 0.12495 0.38658 0.0
N395 N 0.49814 0.00952 0.34207 0.0
H396 H 0.49395 0.065 0.16497 0.0
H397 H 0.48069 0.03101 0.20498 0.0
H398 H 0.49714 -0.00604 0.38866 0.0
H399 H 0.49797 0.00012 0.28543 0.0
H400 H 0.54929 0.13173 0.43991 0.0
H401 H 0.5443 0.13918 0.33852 0.0
H402 H 0.52466 0.11254 0.53451 0.0
H403 H 0.51561 0.07718 0.57219 0.0
C404 C 0.40674 0.42341 0.40291 0.0
C405 C 0.40059 0.43895 0.33085 0.0
C406 C 0.43998 0.47635 0.36575 0.0
C407 C 0.44073 0.46472 0.4451 0.0
N408 N 0.42445 0.42656 0.54003 0.0
N409 N 0.41106 0.48089 0.24343 0.0
C410 C 0.42455 0.43767 0.46364 0.0
C411 C 0.4175 0.46537 0.31148 0.0
N412 N 0.39522 0.39513 0.41312 0.0
N413 N 0.4613 0.4974 0.34169 0.0
H414 H 0.39528 0.47328 0.20115 0.0
H415 H 0.42001 0.50217 0.23149 0.0
H416 H 0.479 0.50489 0.37873 0.0
H417 H 0.46349 0.50485 0.28266 0.0
H418 H 0.40106 0.38151 0.46086 0.0
H419 H 0.38221 0.38437 0.36912 0.0
H420 H 0.41047 0.40868 0.55873 0.0
H421 H 0.43674 0.43642 0.58657 0.0
C422 C 0.00787 0.43382 0.29422 0.0
C423 C 0.00017 0.40339 0.30481 0.0
C424 C 0.98651 0.41156 0.44467 0.0
C425 C 0.99379 0.44211 0.43363 0.0
N426 N 0.00053 0.48333 0.34109 0.0
N427 N 0.97432 0.36453 0.38162 0.0
C428 C 0.00123 0.45362 0.35631 0.0
C429 C 0.98701 0.39261 0.37757 0.0
N430 N 0.02212 0.44373 0.22585 0.0
N431 N 0.97941 0.40067 0.5193 0.0
H432 H 0.97414 0.35014 0.33324 0.0
H433 H 0.9615 0.35646 0.43005 0.0
H434 H 0.97839 0.41411 0.56951 0.0
H435 H 0.97667 0.37818 0.53258 0.0
H436 H 0.03136 0.4652 0.21915 0.0
H437 H 0.02651 0.4299 0.17802 0.0
H438 H 0.00264 0.49246 0.28372 0.0
H439 H -0.00441 0.49865 0.38494 0.0
C440 C 0.89856 0.97933 0.8624 0.0
C441 C 0.89775 0.94795 0.87455 0.0
C442 C 0.92198 0.94252 0.74431 0.0
C443 C 0.92806 0.97338 0.73814 0.0
N444 N 0.90962 0.02096 0.77206 0.0
N445 N 0.91609 0.90082 0.83411 0.0
C446 C 0.91329 0.992 0.79275 0.0
C447 C 0.91208 0.93003 0.81796 0.0
N448 N 0.88471 -0.00296 0.91578 0.0
N449 N 0.92166 0.92549 0.67746 0.0
H450 H 0.91013 0.89102 0.88907 0.0
H451 H 0.92821 0.88751 0.79601 0.0
H452 H 0.92413 0.93463 0.62009 0.0
H453 H 0.91487 0.90312 0.67855 0.0
H454 H 0.88868 0.01983 0.91838 0.0
H455 H 0.86987 0.98917 0.96012 0.0
H456 H 0.89809 0.03592 0.8062 0.0
H457 H 0.91438 0.0292 0.71474 0.0
C458 C 0.49547 0.89742 0.81645 0.0
C459 C 0.48017 0.90658 0.88605 0.0
C460 C 0.47443 0.95533 0.82536 0.0
C461 C 0.48419 0.94423 0.75077 0.0
N462 N 0.50163 0.90368 0.67319 0.0
N463 N 0.45336 0.94354 0.95649 0.0
C464 C 0.49461 0.91514 0.74586 0.0
C465 C 0.46949 0.93551 0.89096 0.0
N466 N 0.51036 0.87155 0.81763 0.0
N467 N 0.46994 0.98486 0.83316 0.0
H468 H 0.45023 0.9298 0.00666 0.0
H469 H 0.44161 0.963 0.95905 0.0
H470 H 0.47415 3e-05 0.78654 0.0
H471 H 0.46506 -0.00536 0.88754 0.0
H472 H 0.52441 0.8652 0.77131 0.0
H473 H 0.51102 0.85784 0.86817 0.0
H474 H 0.50593 0.88147 0.66484 0.0
H475 H 0.5014 0.91607 0.62021 0.0
C476 C 0.5947 0.51681 0.84842 0.0
C477 C 0.59219 0.54756 0.864 0.0
C478 C 0.56195 0.55226 0.74138 0.0
C479 C 0.55993 0.52117 0.73337 0.0
N480 N 0.58895 0.47757 0.75164 0.0
N481 N 0.56864 0.59337 0.83126 0.0
C482 C 0.58008 0.50413 0.77984 0.0
C483 C 0.57429 0.56485 0.81227 0.0
N484 N 0.61158 0.49961 0.89756 0.0
N485 N 0.55633 0.56993 0.6769 0.0
H486 H 0.5765 0.60313 0.88407 0.0
H487 H 0.55361 0.60598 0.79858 0.0
H488 H 0.55146 0.56128 0.62047 0.0
H489 H 0.56033 0.59281 0.67722 0.0
H490 H 0.60985 0.47658 0.89761 0.0
H491 H 0.62624 0.50792 0.94132 0.0
H492 H 0.60511 0.4648 0.77917 0.0
H493 H 0.58422 0.47056 0.6936 0.0
C494 C 0.98216 0.59297 0.80533 0.0
C495 C 0.9935 0.58328 0.88019 0.0
C496 C 0.00529 0.53594 0.82129 0.0
C497 C -0.00047 0.5479 0.74395 0.0
N498 N 0.98424 0.58855 0.66107 0.0
N499 N 0.01673 0.54605 0.96062 0.0
C500 C 0.98799 0.57649 0.73555 0.0
C501 C 0.00495 0.5547 0.88886 0.0
N502 N 0.966 0.61804 0.80114 0.0
N503 N 0.01081 0.50658 0.82985 0.0
H504 H 0.0157 0.55891 0.01196 0.0
H505 H 0.02893 0.52701 0.96814 0.0
H506 H 0.01047 0.49213 0.78154 0.0
H507 H 0.01276 0.496 0.88518 0.0
H508 H 0.95457 0.62461 0.74981 0.0
H509 H 0.96156 0.6307 0.85128 0.0
H510 H 0.97922 0.61058 0.65126 0.0
H511 H 0.98779 0.57687 0.60865 0.0
C512 C 0.00139 0.14749 0.46461 0.0
C513 C 0.98388 0.15821 0.4011 0.0
C514 C 0.95224 0.11232 0.40003 0.0
C515 C 0.97258 0.10012 0.45563 0.0
N516 N 0.01826 0.10466 0.53553 0.0
N517 N 0.93977 0.15469 0.31676 0.0
C518 C -0.00264 0.11747 0.48756 0.0
C519 C 0.95814 0.1418 0.37182 0.0
N520 N 0.02206 0.16603 0.50197 0.0
N521 N 0.92802 0.09534 0.3731 0.0
H522 H 0.94325 0.17664 0.29789 0.0
H523 H 0.92065 0.14445 0.2912 0.0
H524 H 0.92333 0.07374 0.3935 0.0
H525 H 0.91236 0.10221 0.33111 0.0
H526 H 0.03325 0.16056 0.55463 0.0
H527 H 0.02579 0.1881 0.4847 0.0
H528 H 0.03804 0.11546 0.55589 0.0
H529 H 0.01727 0.08223 0.54943 0.0
C530 C 0.33669 0.02806 0.38015 0.0
C531 C 0.33931 0.05832 0.4021 0.0
C532 C 0.38924 0.05144 0.45945 0.0
C533 C 0.38719 0.02135 0.43498 0.0
N534 N 0.35642 0.97901 0.39312 0.0
N535 N 0.36254 0.09636 0.48311 0.0
C536 C 0.35994 0.00894 0.40266 0.0
C537 C 0.36384 0.06918 0.44874 0.0
N538 N 0.31287 0.01804 0.33398 0.0
N539 N 0.41562 0.06335 0.49076 0.0
H540 H 0.34385 0.10955 0.47593 0.0
H541 H 0.37831 0.10447 0.52468 0.0
H542 H 0.4344 0.05102 0.50403 0.0
H543 H 0.41954 0.0859 0.5001 0.0
H544 H 0.31172 -0.0027 0.30756 0.0
H545 H 0.29482 0.03108 0.31829 0.0
H546 H 0.33587 0.96834 0.37784 0.0
H547 H 0.37347 0.96446 0.40661 0.0
C548 C 0.55388 0.36126 0.35171 0.0
C549 C 0.53703 0.33754 0.38935 0.0
C550 C 0.51277 0.37134 0.47849 0.0
C551 C 0.52935 0.39528 0.44076 0.0
N552 N 0.5639 0.41449 0.33981 0.0
N553 N 0.50703 0.31834 0.49975 0.0
C554 C 0.54972 0.39066 0.37728 0.0
C555 C 0.51871 0.34207 0.45682 0.0
N556 N 0.57389 0.35529 0.29205 0.0
N557 N 0.48971 0.37674 0.53041 0.0
H558 H 0.51091 0.29656 0.48414 0.0
H559 H 0.49617 0.32019 0.5547 0.0
H560 H 0.48305 0.39799 0.54311 0.0
H561 H 0.47508 0.36032 0.55458 0.0
H562 H 0.58802 0.37102 0.26338 0.0
H563 H 0.5777 0.3338 0.2736 0.0
H564 H 0.57743 0.41326 0.28917 0.0
H565 H 0.56118 0.43621 0.35792 0.0
C566 C 0.12601 0.42346 0.45385 0.0
C567 C 0.14851 0.43213 0.39742 0.0
C568 C 0.12875 0.48189 0.38855 0.0
C569 C 0.10417 0.47204 0.43754 0.0
N570 N 0.07683 0.43248 0.50943 0.0
N571 N 0.17076 0.46844 0.3051 0.0
C572 C 0.10204 0.44252 0.46817 0.0
C573 C 0.14988 0.46112 0.36335 0.0
N574 N 0.128 0.39733 0.49499 0.0
N575 N 0.13203 0.5111 0.36706 0.0
H576 H 0.18739 0.45426 0.28676 0.0
H577 H 0.17054 0.48788 0.27125 0.0
H578 H 0.11634 0.52668 0.38266 0.0
H579 H 0.15125 0.52036 0.3387 0.0
H580 H 0.11423 0.39136 0.54368 0.0
H581 H 0.14536 0.38281 0.48522 0.0
H582 H 0.07257 0.41035 0.52514 0.0
H583 H 0.05891 0.44577 0.52285 0.0
C584 C 0.00183 0.85781 0.83683 0.0
C585 C 0.01778 0.83471 0.80148 0.0
C586 C 0.03889 0.86873 0.69947 0.0
C587 C 0.02173 0.8913 0.73267 0.0
N588 N 0.99419 0.91051 0.84275 0.0
N589 N 0.04798 0.81621 0.69452 0.0
C590 C 0.00567 0.88675 0.80505 0.0
C591 C 0.0355 0.8396 0.73154 0.0
N592 N 0.98169 0.8516 0.89765 0.0
N593 N 0.05907 0.87551 0.63941 0.0
H594 H 0.04594 0.79464 0.71718 0.0
H595 H 0.05831 0.8176 0.63855 0.0
H596 H 0.06386 0.89721 0.62058 0.0
H597 H 0.07356 0.8605 0.61477 0.0
H598 H 0.96706 0.86686 0.92052 0.0
H599 H 0.97757 0.83032 0.92097 0.0
H600 H 0.98409 0.90945 0.89905 0.0
H601 H -0.00261 0.93203 0.82008 0.0
C602 C 0.65176 0.95235 0.72745 0.0
C603 C 0.64934 0.92954 0.78517 0.0
C604 C 0.59541 0.93645 0.80132 0.0
C605 C 0.59791 0.96053 0.74655 0.0
N606 N 0.63029 -0.00337 0.67506 0.0
N607 N 0.61897 0.89368 0.85898 0.0
C608 C 0.62654 0.96998 0.71379 0.0
C609 C 0.62094 0.91945 0.81566 0.0
N610 N 0.67825 0.95688 0.68594 0.0
N611 N 0.56886 0.93106 0.84229 0.0
H612 H 0.63794 0.88104 0.86873 0.0
H613 H 0.59858 0.8836 0.87846 0.0
H614 H 0.55045 0.94469 0.83616 0.0
H615 H 0.56598 0.91513 0.88737 0.0
H616 H 0.68058 0.97108 0.63661 0.0
H617 H 0.69684 0.94378 0.69558 0.0
H618 H 0.65116 0.00513 0.65414 0.0
H619 H 0.61375 0.01231 0.67356 0.0
C620 C 0.47184 0.63486 0.84037 0.0
C621 C 0.45167 0.6546 0.80446 0.0
C622 C 0.43385 0.61654 0.71091 0.0
C623 C 0.45449 0.59699 0.74644 0.0
N624 N 0.48623 0.58415 0.85721 0.0
N625 N 0.41711 0.66698 0.6993 0.0
C626 C 0.47128 0.60521 0.81528 0.0
C627 C 0.4336 0.64623 0.73786 0.0
N628 N 0.49256 0.64496 0.89573 0.0
N629 N 0.41373 0.60641 0.65434 0.0
H630 H 0.41663 0.68884 0.71832 0.0
H631 H 0.40587 0.66345 0.6453 0.0
H632 H 0.41104 0.58417 0.63985 0.0
H633 H 0.39719 0.61909 0.62825 0.0
H634 H 0.51015 0.63248 0.91734 0.0
H635 H 0.49405 0.6669 0.91444 0.0
H636 H 0.49695 0.58798 0.91186 0.0
H637 H 0.48521 0.56192 0.84083 0.0
C638 C 0.83823 0.53734 0.71297 0.0
C639 C 0.8414 0.55808 0.77497 0.0
C640 C 0.89445 0.54731 0.79302 0.0
C641 C 0.89139 0.52603 0.73206 0.0
N642 N 0.85876 0.49499 0.64883 0.0
N643 N 0.87309 0.58913 0.85848 0.0
C644 C 0.86284 0.51937 0.69567 0.0
C645 C 0.86989 0.56516 0.80975 0.0
N646 N 0.81183 0.53537 0.67027 0.0
N647 N 0.92058 0.54924 0.8369 0.0
H648 H 0.85503 0.60269 0.86989 0.0
H649 H 0.89386 0.59711 0.88089 0.0
H650 H 0.93817 0.5349 0.8278 0.0
H651 H 0.92363 0.56269 0.88666 0.0
H652 H 0.80905 0.52299 0.61841 0.0
H653 H 0.79373 0.54875 0.68221 0.0
H654 H 0.83798 0.48816 0.62422 0.0
H655 H 0.87512 0.47929 0.6429 0.0
C656 C 0.02067 0.15602 0.83132 0.0
C657 C 0.00132 0.17761 0.79998 0.0
C658 C 0.97854 0.14157 0.70741 0.0
C659 C 0.99511 0.11892 0.74565 0.0
N660 N 0.03239 0.1041 0.84202 0.0
N661 N 0.96809 0.19397 0.69677 0.0
C662 C 0.01694 0.12615 0.80563 0.0
C663 C 0.98223 0.17126 0.73405 0.0
N664 N 0.04243 0.16422 0.88606 0.0
N665 N 0.9586 0.13443 0.64724 0.0
H666 H 0.97104 0.21587 0.71524 0.0
H667 H 0.95534 0.19191 0.64468 0.0
H668 H 0.95667 0.1135 0.62227 0.0
H669 H 0.94344 0.14884 0.6221 0.0
H670 H 0.05926 0.15057 0.90628 0.0
H671 H 0.04521 0.1857 0.90747 0.0
H672 H 0.04627 0.10707 0.89183 0.0
H673 H 0.03023 0.08203 0.82499 0.0
C674 C 0.34828 0.07416 0.80908 0.0
C675 C 0.31998 0.0583 0.80097 0.0
C676 C 0.34195 0.02807 0.69708 0.0
C677 C 0.37142 0.03917 0.71857 0.0
N678 N 0.40303 0.07399 0.79265 0.0
N679 N 0.28924 0.02038 0.73628 0.0
C680 C 0.37472 0.0631 0.77254 0.0
C681 C 0.31649 0.03564 0.74358 0.0
N682 N 0.34974 0.09962 0.85239 0.0
N683 N 0.3384 0.01056 0.63131 0.0
H684 H 0.26986 0.02612 0.76729 0.0
H685 H 0.28629 0.00117 0.70289 0.0
H686 H 0.35658 0.00548 0.59468 0.0
H687 H 0.31733 0.00375 0.60834 0.0
H688 H 0.36895 0.11375 0.85508 0.0
H689 H 0.33066 0.108 0.87965 0.0
H690 H 0.40713 0.08912 0.83828 0.0
H691 H 0.42274 0.06669 0.76633 0.0
C692 C 0.49461 0.33175 0.83358 0.0
C693 C 0.51747 0.31482 0.79842 0.0
C694 C 0.53194 0.35574 0.7081 0.0
C695 C 0.51038 0.37346 0.74633 0.0
N696 N 0.4668 0.37708 0.83182 0.0
N697 N 0.55151 0.30686 0.68969 0.0
C698 C 0.49 0.36089 0.80408 0.0
C699 C 0.53394 0.32563 0.73113 0.0
N700 N 0.47867 0.32058 0.89814 0.0
N701 N 0.55127 0.368 0.65175 0.0
H702 H 0.55312 0.28465 0.70603 0.0
H703 H 0.56211 0.31231 0.63554 0.0
H704 H 0.5495 0.3894 0.62948 0.0
H705 H 0.56993 0.35752 0.62911 0.0
H706 H 0.46412 0.33274 0.9325 0.0
H707 H 0.4808 0.29909 0.91983 0.0
H708 H 0.44949 0.36855 0.86876 0.0
H709 H 0.46362 0.39883 0.81337 0.0
C710 C 0.16752 0.43634 0.75462 0.0
C711 C 0.16672 0.43332 0.83903 0.0
C712 C 0.11468 0.45118 0.84094 0.0
C713 C 0.1166 0.4569 0.75738 0.0
N714 N 0.14606 0.45848 0.63562 0.0
N715 N 0.14246 0.43969 0.96374 0.0
C716 C 0.14331 0.45026 0.71433 0.0
C717 C 0.14076 0.44113 0.88236 0.0
N718 N 0.19117 0.42544 0.71299 0.0
N719 N 0.08794 0.4552 0.87994 0.0
H720 H 0.1259 0.44674 0.00283 0.0
H721 H 0.1259 0.44674 0.00283 0.0
H722 H 0.06881 0.46285 0.85084 0.0
H723 H 0.08375 0.44888 0.93908 0.0
H724 H 0.19165 0.42398 0.65086 0.0
H725 H 0.2094 0.41565 0.74116 0.0
H726 H 0.16604 0.45727 0.60288 0.0
H727 H 0.12881 0.4685 0.60411 0.0
C728 C 0.01435 0.83351 0.34736 0.0
C729 C 0.99331 0.81235 0.38155 0.0
C730 C 0.97818 0.84887 0.47997 0.0
C731 C -0.00254 0.87077 0.44137 0.0
N732 N 0.02897 0.88531 0.32861 0.0
N733 N 0.95374 0.7997 0.47636 0.0
C734 C 0.01429 0.86338 0.37259 0.0
C735 C 0.97486 0.81999 0.44688 0.0
N736 N 0.03451 0.82509 0.29064 0.0
N737 N 0.96386 0.85519 0.54974 0.0
H738 H 0.95216 0.77783 0.45705 0.0
H739 H 0.93687 0.80475 0.51693 0.0
H740 H 0.96345 0.87635 0.57261 0.0
H741 H 0.95334 0.83925 0.58695 0.0
H742 H 0.05284 0.83855 0.27111 0.0
H743 H 0.03461 0.80379 0.26761 0.0
H744 H 0.03912 0.88185 0.27344 0.0
H745 H 0.02823 0.90767 0.34284 0.0
C746 C 0.65575 0.91883 0.4545 0.0
C747 C 0.67055 0.93574 0.39239 0.0
C748 C 0.62876 0.97017 0.39298 0.0
C749 C 0.61546 0.95495 0.45984 0.0
N750 N 0.61808 0.91659 0.56073 0.0
N751 N 0.67254 0.97958 0.30784 0.0
C752 C 0.62926 0.92957 0.49198 0.0
C753 C 0.65756 0.96212 0.3637 0.0
N754 N 0.66698 0.89236 0.47757 0.0
N755 N 0.61295 0.9915 0.35451 0.0
H756 H 0.69197 0.9735 0.27792 0.0
H757 H 0.66669 0.00113 0.29441 0.0
H758 H 0.59121 -0.00291 0.37182 0.0
H759 H 0.61979 0.00147 0.30065 0.0
H760 H 0.6552 0.87705 0.51417 0.0
H761 H 0.68758 0.88494 0.45667 0.0
H762 H 0.6292 0.90046 0.59289 0.0
H763 H 0.59857 0.92331 0.58909 0.0
C764 C 0.49164 0.67026 0.45663 0.0
C765 C 0.47521 0.67503 0.38513 0.0
C766 C 0.4593 0.62252 0.38056 0.0
C767 C 0.47443 0.61773 0.45418 0.0
N768 N 0.5035 0.63699 0.56617 0.0
N769 N 0.43885 0.65758 0.28662 0.0
C770 C 0.49038 0.64158 0.49323 0.0
C771 C 0.4576 0.65171 0.34956 0.0
N772 N 0.50839 0.6933 0.48906 0.0
N773 N 0.44791 0.59886 0.33803 0.0
H774 H 0.43749 0.67852 0.2605 0.0
H775 H 0.42268 0.64234 0.26453 0.0
H776 H 0.44983 0.57699 0.35709 0.0
H777 H 0.43934 0.60055 0.28018 0.0
H778 H 0.5231 0.69135 0.53725 0.0
H779 H 0.50824 0.71479 0.4658 0.0
H780 H 0.51319 0.65359 0.60162 0.0
H781 H 0.50384 0.61636 0.59371 0.0
C782 C 0.83605 0.53026 0.33942 0.0
C783 C 0.82223 0.55559 0.37046 0.0
C784 C 0.86238 0.55992 0.47338 0.0
C785 C 0.87695 0.5355 0.43959 0.0
N786 N 0.88119 0.50163 0.33049 0.0
N787 N 0.82427 0.59695 0.46031 0.0
C788 C 0.86464 0.52181 0.37 0.0
C789 C 0.83613 0.5712 0.43527 0.0
N790 N 0.822 0.51416 0.28019 0.0
N791 N 0.87256 0.57142 0.54421 0.0
H792 H 0.80388 0.60469 0.43848 0.0
H793 H 0.83543 0.6115 0.4994 0.0
H794 H 0.89193 0.56442 0.57305 0.0
H795 H 0.86077 0.58652 0.5774 0.0
H796 H 0.82842 0.49317 0.26396 0.0
H797 H 0.80272 0.52076 0.25004 0.0
H798 H 0.87516 0.49291 0.27504 0.0
H799 H 0.90276 0.49582 0.349 0.0
loop_
_geom_bond_atom_site_label_1
_geom_bond_atom_site_label_2
_geom_bond_distance
_geom_bond_site_symmetry_2
_ccdc_geom_bond_type
C0 C1 1.384 . S
C0 H13 0.947 . S
C0 C35 1.382 . S
C1 C0 1.384 . S
C1 C2 1.378 . S
C2 C1 1.378 . S
C2 C3 1.378 . S
C2 H14 0.952 . S
C3 C2 1.378 . S
C3 H15 0.950 . S
C3 C34 1.383 . S
H4 C23 0.947 . S
H5 C24 0.946 . S
H6 C26 0.953 . S
H7 C27 0.945 . S
H8 C29 0.952 . S
H9 C30 0.949 . S
H10 C32 0.950 . S
H11 C33 0.948 . S
H12 C35 0.951 . S
H13 C0 0.947 . S
H14 C2 0.952 . S
H15 C3 0.950 . S
N16 C19 1.382 1_554 S
N16 C21 1.363 . S
N17 C19 1.371 . S
N17 C20 1.372 . S
N18 C20 1.361 1_554 S
N18 C21 1.377 . S
C19 N16 1.382 1_556 S
C19 N17 1.371 . S
C19 C22 1.480 . S
C20 N17 1.372 . S
C20 N18 1.361 1_556 S
C20 C28 1.457 . S
C21 N16 1.363 . S
C21 N18 1.377 . S
C21 C34 1.479 . S
C22 C19 1.480 . S
C22 C23 1.383 1_556 S
C22 C27 1.385 . S
C23 H4 0.947 . S
C23 C22 1.383 1_554 S
C23 C24 1.388 . S
C24 H5 0.946 . S
C24 C23 1.388 . S
C24 C25 1.384 1_554 S
C25 C24 1.384 1_556 S
C25 C26 1.377 . S
C26 H6 0.953 . S
C26 C25 1.377 . S
C26 C27 1.369 . S
C27 H7 0.945 . S
C27 C22 1.385 . S
C27 C26 1.369 . S
C28 C20 1.457 . S
C28 C29 1.372 . S
C28 C33 1.364 . S
C29 H8 0.952 . S
C29 C28 1.372 . S
C29 C30 1.389 . S
C30 H9 0.949 . S
C30 C29 1.389 . S
C30 C31 1.387 . S
C31 C30 1.387 . S
C31 C32 1.372 . S
C32 H10 0.950 . S
C32 C31 1.372 . S
C32 C33 1.379 . S
C33 H11 0.948 . S
C33 C28 1.364 . S
C33 C32 1.379 . S
C34 C3 1.383 . S
C34 C21 1.479 . S
C34 C35 1.398 . S
C35 C0 1.382 . S
C35 H12 0.951 . S
C35 C34 1.398 . S
C36 C37 1.383 1_655 S
C36 H49 0.948 . S
C36 C71 1.382 1_655 S
C37 C36 1.383 1_455 S
C37 C38 1.378 . S
C38 C37 1.378 . S
C38 C39 1.378 . S
C38 H50 0.952 . S
C39 C38 1.378 . S
C39 H51 0.950 . S
C39 C70 1.383 . S
H40 C59 0.947 . S
H41 C60 0.951 . S
H42 C62 0.953 . S
H43 C63 0.945 . S
H44 C65 0.949 1_655 S
H45 C66 0.949 . S
H46 C68 0.950 . S
H47 C69 0.948 . S
H48 C71 0.951 1_655 S
H49 C36 0.948 . S
H50 C38 0.952 . S
H51 C39 0.950 . S
N52 C55 1.382 . S
N52 C57 1.363 . S
N53 C55 1.371 1_556 S
N53 C56 1.372 . S
N54 C56 1.361 1_554 S
N54 C57 1.377 . S
C55 N52 1.382 . S
C55 N53 1.371 1_554 S
C55 C58 1.480 . S
C56 N53 1.372 . S
C56 N54 1.361 1_556 S
C56 C64 1.457 . S
C57 N52 1.363 . S
C57 N54 1.377 . S
C57 C70 1.479 . S
C58 C55 1.480 . S
C58 C59 1.383 . S
C58 C63 1.385 1_554 S
C59 H40 0.947 . S
C59 C58 1.383 . S
C59 C60 1.386 1_455 S
C60 H41 0.951 . S
C60 C59 1.386 1_655 S
C60 C61 1.381 1_654 S
C61 C60 1.381 1_456 S
C61 C62 1.377 . S
C62 H42 0.953 . S
C62 C61 1.377 . S
C62 C63 1.369 . S
C63 H43 0.945 . S
C63 C58 1.385 1_556 S
C63 C62 1.369 . S
C64 C56 1.457 . S
C64 C65 1.377 . S
C64 C69 1.364 . S
C65 H44 0.949 1_455 S
C65 C64 1.377 . S
C65 C66 1.387 1_455 S
C66 H45 0.949 . S
C66 C65 1.387 1_655 S
C66 C67 1.387 1_655 S
C67 C66 1.387 1_455 S
C67 C68 1.372 . S
C68 H46 0.950 . S
C68 C67 1.372 . S
C68 C69 1.379 . S
C69 H47 0.948 . S
C69 C64 1.364 . S
C69 C68 1.379 . S
C70 C39 1.383 . S
C70 C57 1.479 . S
C70 C71 1.398 . S
C71 C36 1.382 1_455 S
C71 H48 0.951 1_455 S
C71 C70 1.398 . S
C72 C73 1.384 . S
C72 H85 0.947 . S
C72 C107 1.382 . S
C73 C72 1.384 . S
C73 C74 1.378 . S
C74 C73 1.378 . S
C74 C75 1.378 . S
C74 H86 0.952 . S
C75 C74 1.378 . S
C75 H87 0.950 . S
C75 C106 1.383 . S
H76 C95 0.947 . S
H77 C96 0.946 . S
H78 C98 0.953 . S
H79 C99 0.945 . S
H80 C101 0.952 . S
H81 C102 0.949 . S
H82 C104 0.950 . S
H83 C105 0.948 . S
H84 C107 0.951 . S
H85 C72 0.947 . S
H86 C74 0.952 . S
H87 C75 0.950 . S
N88 C91 1.382 . S
N88 C93 1.363 . S
N89 C91 1.371 1_556 S
N89 C92 1.372 . S
N90 C92 1.361 1_554 S
N90 C93 1.377 . S
C91 N88 1.382 . S
C91 N89 1.371 1_554 S
C91 C94 1.480 1_554 S
C92 N89 1.372 . S
C92 N90 1.361 1_556 S
C92 C100 1.457 . S
C93 N88 1.363 . S
C93 N90 1.377 . S
C93 C106 1.479 . S
C94 C91 1.480 1_556 S
C94 C95 1.383 1_556 S
C94 C99 1.385 . S
C95 H76 0.947 . S
C95 C94 1.383 1_554 S
C95 C96 1.388 . S
C96 H77 0.946 . S
C96 C95 1.388 . S
C96 C97 1.384 1_554 S
C97 C96 1.384 1_556 S
C97 C98 1.377 . S
C98 H78 0.953 . S
C98 C97 1.377 . S
C98 C99 1.369 . S
C99 H79 0.945 . S
C99 C94 1.385 . S
C99 C98 1.369 . S
C100 C92 1.457 . S
C100 C101 1.372 . S
C100 C105 1.364 . S
C101 H80 0.952 . S
C101 C100 1.372 . S
C101 C102 1.389 . S
C102 H81 0.949 . S
C102 C101 1.389 . S
C102 C103 1.387 . S
C103 C102 1.387 . S
C103 C104 1.372 . S
C104 H82 0.950 . S
C104 C103 1.372 . S
C104 C105 1.379 . S
C105 H83 0.948 . S
C105 C100 1.364 . S
C105 C104 1.379 . S
C106 C75 1.383 . S
C106 C93 1.479 . S
C106 C107 1.398 . S
C107 C72 1.382 . S
C107 H84 0.951 . S
C107 C106 1.398 . S
C108 C109 1.384 . S
C108 H121 0.947 . S
C108 C143 1.382 . S
C109 C108 1.384 . S
C109 C110 1.378 . S
C110 C109 1.378 . S
C110 C111 1.378 . S
C110 H122 0.952 . S
C111 C110 1.378 . S
C111 H123 0.950 . S
C111 C142 1.383 . S
H112 C131 0.947 . S
H113 C132 0.946 . S
H114 C134 0.953 . S
H115 C135 0.945 . S
H116 C137 0.952 . S
H117 C138 0.949 . S
H118 C140 0.950 . S
H119 C141 0.948 . S
H120 C143 0.951 . S
H121 C108 0.947 . S
H122 C110 0.952 . S
H123 C111 0.950 . S
N124 C127 1.382 1_556 S
N124 C129 1.363 . S
N125 C127 1.371 . S
N125 C128 1.372 . S
N126 C128 1.361 . S
N126 C129 1.377 1_554 S
C127 N124 1.382 1_554 S
C127 N125 1.371 . S
C127 C130 1.480 . S
C128 N125 1.372 . S
C128 N126 1.361 . S
C128 C136 1.457 . S
C129 N124 1.363 . S
C129 N126 1.377 1_556 S
C129 C142 1.479 . S
C130 C127 1.480 . S
C130 C131 1.383 1_554 S
C130 C135 1.385 . S
C131 H112 0.947 . S
C131 C130 1.383 1_556 S
C131 C132 1.388 . S
C132 H113 0.946 . S
C132 C131 1.388 . S
C132 C133 1.384 . S
C133 C132 1.384 . S
C133 C134 1.377 1_556 S
C134 H114 0.953 . S
C134 C133 1.377 1_554 S
C134 C135 1.369 . S
C135 H115 0.945 . S
C135 C130 1.385 . S
C135 C134 1.369 . S
C136 C128 1.457 . S
C136 C137 1.372 . S
C136 C141 1.364 . S
C137 H116 0.952 . S
C137 C136 1.372 . S
C137 C138 1.389 . S
C138 H117 0.949 . S
C138 C137 1.389 . S
C138 C139 1.387 . S
C139 C138 1.387 . S
C139 C140 1.372 . S
C140 H118 0.950 . S
C140 C139 1.372 . S
C140 C141 1.379 . S
C141 H119 0.948 . S
C141 C136 1.364 . S
C141 C140 1.379 . S
C142 C111 1.383 . S
C142 C129 1.479 . S
C142 C143 1.398 . S
C143 C108 1.382 . S
C143 H120 0.951 . S
C143 C142 1.398 . S
C144 C145 1.384 . S
C144 H157 0.947 . S
C144 C179 1.382 . S
C145 C144 1.384 . S
C145 C146 1.378 . S
C146 C145 1.378 . S
C146 C147 1.378 . S
C146 H158 0.952 . S
C147 C146 1.378 . S
C147 H159 0.950 . S
C147 C178 1.383 1_556 S
H148 C167 0.947 . S
H149 C168 0.946 . S
H150 C170 0.953 . S
H151 C171 0.945 . S
H152 C173 0.952 . S
H153 C174 0.949 . S
H154 C176 0.950 . S
H155 C177 0.948 . S
H156 C179 0.951 1_554 S
H157 C144 0.947 . S
H158 C146 0.952 . S
H159 C147 0.950 . S
N160 C163 1.382 . S
N160 C165 1.363 . S
N161 C163 1.371 . S
N161 C164 1.372 . S
N162 C164 1.361 . S
N162 C165 1.377 . S
C163 N160 1.382 . S
C163 N161 1.371 . S
C163 C166 1.480 . S
C164 N161 1.372 . S
C164 N162 1.361 . S
C164 C172 1.457 . S
C165 N160 1.363 . S
C165 N162 1.377 . S
C165 C178 1.479 . S
C166 C163 1.480 . S
C166 C167 1.383 . S
C166 C171 1.385 . S
C167 H148 0.947 . S
C167 C166 1.383 . S
C167 C168 1.388 . S
C168 H149 0.946 . S
C168 C167 1.388 . S
C168 C169 1.384 . S
C169 C168 1.384 . S
C169 C170 1.377 . S
C170 H150 0.953 . S
C170 C169 1.377 . S
C170 C171 1.369 . S
C171 H151 0.945 . S
C171 C166 1.385 . S
C171 C170 1.369 . S
C172 C164 1.457 . S
C172 C173 1.372 . S
C172 C177 1.364 . S
C173 H152 0.952 . S
C173 C172 1.372 . S
C173 C174 1.389 . S
C174 H153 0.949 . S
C174 C173 1.389 . S
C174 C175 1.387 . S
C175 C174 1.387 . S
C175 C176 1.372 . S
C176 H154 0.950 . S
C176 C175 1.372 . S
C176 C177 1.379 . S
C177 H155 0.948 . S
C177 C172 1.364 . S
C177 C176 1.379 . S
C178 C147 1.383 1_554 S
C178 C165 1.479 . S
C178 C179 1.398 1_554 S
C179 C144 1.382 . S
C179 H156 0.951 1_556 S
C179 C178 1.398 1_556 S
C180 C181 1.384 1_655 S
C180 H193 0.947 . S
C180 C215 1.382 1_655 S
C181 C180 1.384 1_455 S
C181 C182 1.378 . S
C182 C181 1.378 . S
C182 C183 1.378 . S
C182 H194 0.952 . S
C183 C182 1.378 . S
C183 H195 0.950 . S
C183 C214 1.383 . S
H184 C203 0.947 . S
H185 C204 0.950 . S
H186 C206 0.953 . S
H187 C207 0.945 . S
H188 C209 0.947 1_655 S
H189 C210 0.955 . S
H190 C212 0.950 . S
H191 C213 0.948 . S
H192 C215 0.950 1_654 S
H193 C180 0.947 . S
H194 C182 0.952 . S
H195 C183 0.950 . S
N196 C199 1.382 . S
N196 C201 1.363 . S
N197 C199 1.371 . S
N197 C200 1.372 . S
N198 C200 1.361 . S
N198 C201 1.377 . S
C199 N196 1.382 . S
C199 N197 1.371 . S
C199 C202 1.480 . S
C200 N197 1.372 . S
C200 N198 1.361 . S
C200 C208 1.457 . S
C201 N196 1.363 . S
C201 N198 1.377 . S
C201 C214 1.479 1_554 S
C202 C199 1.480 . S
C202 C203 1.383 . S
C202 C207 1.385 . S
C203 H184 0.947 . S
C203 C202 1.383 . S
C203 C204 1.386 1_455 S
C204 H185 0.950 . S
C204 C203 1.386 1_655 S
C204 C205 1.382 1_655 S
C205 C204 1.382 1_455 S
C205 C206 1.377 . S
C206 H186 0.953 . S
C206 C205 1.377 . S
C206 C207 1.369 . S
C207 H187 0.945 . S
C207 C202 1.385 . S
C207 C206 1.369 . S
C208 C200 1.457 . S
C208 C209 1.379 . S
C208 C213 1.364 . S
C209 H188 0.947 1_455 S
C209 C208 1.379 . S
C209 C210 1.388 1_455 S
C210 H189 0.955 . S
C210 C209 1.388 1_655 S
C210 C211 1.382 1_655 S
C211 C210 1.382 1_455 S
C211 C212 1.372 . S
C212 H190 0.950 . S
C212 C211 1.372 . S
C212 C213 1.379 . S
C213 H191 0.948 . S
C213 C208 1.364 . S
C213 C212 1.379 . S
C214 C183 1.383 . S
C214 C201 1.479 1_556 S
C214 C215 1.399 . S
C215 C180 1.382 1_455 S
C215 H192 0.950 1_456 S
C215 C214 1.399 . S
C216 C217 1.384 . S
C216 H229 0.947 . S
C216 C251 1.382 . S
C217 C216 1.384 . S
C217 C218 1.378 . S
C218 C217 1.378 . S
C218 C219 1.378 . S
C218 H230 0.952 . S
C219 C218 1.378 . S
C219 H231 0.950 . S
C219 C250 1.383 . S
H220 C239 0.947 . S
H221 C240 0.946 . S
H222 C242 0.953 . S
H223 C243 0.945 . S
H224 C245 0.952 . S
H225 C246 0.949 . S
H226 C248 0.950 . S
H227 C249 0.948 . S
H228 C251 0.951 1_554 S
H229 C216 0.947 . S
H230 C218 0.952 . S
H231 C219 0.950 . S
N232 C235 1.382 . S
N232 C237 1.363 . S
N233 C235 1.371 . S
N233 C236 1.372 . S
N234 C236 1.361 . S
N234 C237 1.377 . S
C235 N232 1.382 . S
C235 N233 1.371 . S
C235 C238 1.480 . S
C236 N233 1.372 . S
C236 N234 1.361 . S
C236 C244 1.457 . S
C237 N232 1.363 . S
C237 N234 1.377 . S
C237 C250 1.479 1_554 S
C238 C235 1.480 . S
C238 C239 1.383 . S
C238 C243 1.385 . S
C239 H220 0.947 . S
C239 C238 1.383 . S
C239 C240 1.388 . S
C240 H221 0.946 . S
C240 C239 1.388 . S
C240 C241 1.384 . S
C241 C240 1.384 . S
C241 C242 1.377 . S
C242 H222 0.953 . S
C242 C241 1.377 . S
C242 C243 1.369 . S
C243 H223 0.945 . S
C243 C238 1.385 . S
C243 C242 1.369 . S
C244 C236 1.457 . S
C244 C245 1.372 . S
C244 C249 1.364 . S
C245 H224 0.952 . S
C245 C244 1.372 . S
C245 C246 1.389 . S
C246 H225 0.949 . S
C246 C245 1.389 . S
C246 C247 1.387 . S
C247 C246 1.387 . S
C247 C248 1.372 . S
C248 H226 0.950 . S
C248 C247 1.372 . S
C248 C249 1.379 . S
C249 H227 0.948 . S
C249 C244 1.364 . S
C249 C248 1.379 . S
C250 C219 1.383 . S
C250 C237 1.479 1_556 S
C250 C251 1.398 . S
C251 C216 1.382 . S
C251 H228 0.951 1_556 S
C251 C250 1.398 . S
C252 C253 1.384 . S
C252 H265 0.947 . S
C252 C287 1.382 . S
C253 C252 1.384 . S
C253 C254 1.378 . S
C254 C253 1.378 . S
C254 C255 1.378 . S
C254 H266 0.952 . S
C255 C254 1.378 . S
C255 H267 0.950 . S
C255 C286 1.383 . S
H256 C275 0.947 . S
H257 C276 0.946 . S
H258 C278 0.953 . S
H259 C279 0.945 . S
H260 C281 0.952 . S
H261 C282 0.949 . S
H262 C284 0.950 . S
H263 C285 0.948 1_554 S
H264 C287 0.951 . S
H265 C252 0.947 . S
H266 C254 0.952 . S
H267 C255 0.950 . S
N268 C271 1.382 . S
N268 C273 1.363 . S
N269 C271 1.371 . S
N269 C272 1.372 . S
N270 C272 1.361 . S
N270 C273 1.377 . S
C271 N268 1.382 . S
C271 N269 1.371 . S
C271 C274 1.480 . S
C272 N269 1.372 . S
C272 N270 1.361 . S
C272 C280 1.457 1_554 S
C273 N268 1.363 . S
C273 N270 1.377 . S
C273 C286 1.479 . S
C274 C271 1.480 . S
C274 C275 1.383 . S
C274 C279 1.385 . S
C275 H256 0.947 . S
C275 C274 1.383 . S
C275 C276 1.388 . S
C276 H257 0.946 . S
C276 C275 1.388 . S
C276 C277 1.384 . S
C277 C276 1.384 . S
C277 C278 1.377 . S
C278 H258 0.953 . S
C278 C277 1.377 . S
C278 C279 1.369 . S
C279 H259 0.945 . S
C279 C274 1.385 . S
C279 C278 1.369 . S
C280 C272 1.457 1_556 S
C280 C281 1.372 . S
C280 C285 1.364 . S
C281 H260 0.952 . S
C281 C280 1.372 . S
C281 C282 1.389 . S
C282 H261 0.949 . S
C282 C281 1.389 . S
C282 C283 1.387 . S
C283 C282 1.387 . S
C283 C284 1.372 . S
C284 H262 0.950 . S
C284 C283 1.372 . S
C284 C285 1.379 . S
C285 H263 0.948 1_556 S
C285 C280 1.364 . S
C285 C284 1.379 . S
C286 C255 1.383 . S
C286 C273 1.479 . S
C286 C287 1.398 . S
C287 C252 1.382 . S
C287 H264 0.951 . S
C287 C286 1.398 . S
Zn288 O294 1.969 . S
Zn288 O295 1.965 1_655 S
Zn288 O299 2.024 1_655 S
Zn288 O304 1.969 . S
Zn289 O296 1.969 . S
Zn289 O302 1.969 . S
Zn289 O303 1.965 1_455 S
Zn289 O305 2.024 1_455 S
C290 O291 1.229 1_455 S
C290 O299 1.058 . S
O291 C290 1.229 1_655 S
C292 O293 1.229 1_655 S
C292 O305 1.058 . S
O293 C292 1.229 1_455 S
O294 Zn288 1.969 . S
O294 C297 1.267 . S
O295 Zn288 1.965 1_455 S
O295 C306 1.260 . S
O296 Zn289 1.969 . S
O296 C306 1.258 1_565 S
C297 O294 1.267 . S
C297 O298 1.228 1_655 S
O298 C297 1.228 1_455 S
O299 Zn288 2.024 1_455 S
O299 C290 1.058 . S
C300 O301 1.228 1_455 S
C300 O302 1.267 . S
O301 C300 1.228 1_655 S
O302 Zn289 1.969 . S
O302 C300 1.267 . S
O303 Zn289 1.965 1_655 S
O303 C307 1.260 . S
O304 Zn288 1.969 . S
O304 C307 1.258 1_545 S
O305 Zn289 2.024 1_655 S
O305 C292 1.058 . S
C306 O295 1.260 . S
C306 O296 1.258 1_545 S
C307 O303 1.260 . S
C307 O304 1.258 1_565 S
Zn308 O314 1.969 1_545 S
Zn308 O315 1.965 . S
Zn308 O319 2.024 . S
Zn308 O324 1.969 1_545 S
Zn309 O316 1.969 1_565 S
Zn309 O322 1.969 1_565 S
Zn309 O323 1.965 . S
Zn309 O325 2.024 . S
C310 O311 1.229 . S
C310 O319 1.058 . S
O311 C310 1.229 . S
C312 O313 1.229 . S
C312 O325 1.058 . S
O313 C312 1.229 . S
O314 Zn308 1.969 1_565 S
O314 C317 1.267 1_565 S
O315 Zn308 1.965 . S
O315 C326 1.260 . S
O316 Zn309 1.969 1_545 S
O316 C326 1.258 . S
C317 O314 1.267 1_545 S
C317 O318 1.228 . S
O318 C317 1.228 . S
O319 Zn308 2.024 . S
O319 C310 1.058 . S
C320 O321 1.228 . S
C320 O322 1.267 1_565 S
O321 C320 1.228 . S
O322 Zn309 1.969 1_545 S
O322 C320 1.267 1_545 S
O323 Zn309 1.965 . S
O323 C327 1.260 . S
O324 Zn308 1.969 1_565 S
O324 C327 1.258 . S
O325 Zn309 2.024 . S
O325 C312 1.058 . S
C326 O315 1.260 . S
C326 O316 1.258 . S
C327 O323 1.260 . S
C327 O324 1.258 . S
Zn328 O334 1.969 . S
Zn328 O335 1.965 . S
Zn328 O339 2.024 . S
Zn328 O344 1.969 . S
Zn329 O336 1.969 . S
Zn329 O342 1.969 . S
Zn329 O343 1.965 . S
Zn329 O345 2.024 . S
C330 O331 1.229 . S
C330 O339 1.058 . S
O331 C330 1.229 . S
C332 O333 1.229 . S
C332 O345 1.058 . S
O333 C332 1.229 . S
O334 Zn328 1.969 . S
O334 C337 1.267 . S
O335 Zn328 1.965 . S
O335 C346 1.260 . S
O336 Zn329 1.969 . S
O336 C346 1.258 . S
C337 O334 1.267 . S
C337 O338 1.228 . S
O338 C337 1.228 . S
O339 Zn328 2.024 . S
O339 C330 1.058 . S
C340 O341 1.228 . S
C340 O342 1.267 . S
O341 C340 1.228 . S
O342 Zn329 1.969 . S
O342 C340 1.267 . S
O343 Zn329 1.965 . S
O343 C347 1.260 . S
O344 Zn328 1.969 . S
O344 C347 1.258 . S
O345 Zn329 2.024 . S
O345 C332 1.058 . S
C346 O335 1.260 . S
C346 O336 1.258 . S
C347 O343 1.260 . S
C347 O344 1.258 . S
Zn348 O354 1.969 . S
Zn348 O355 1.965 . S
Zn348 O359 2.024 . S
Zn348 O364 1.969 . S
Zn349 O356 1.969 . S
Zn349 O362 1.969 . S
Zn349 O363 1.965 . S
Zn349 O365 2.024 . S
C350 O351 1.229 . S
C350 O359 1.058 . S
O351 C350 1.229 . S
C352 O353 1.229 . S
C352 O365 1.058 . S
O353 C352 1.229 . S
O354 Zn348 1.969 . S
O354 C357 1.267 . S
O355 Zn348 1.965 . S
O355 C366 1.260 1_455 S
O356 Zn349 1.969 . S
O356 C366 1.258 . S
C357 O354 1.267 . S
C357 O358 1.228 . S
O358 C357 1.228 . S
O359 Zn348 2.024 . S
O359 C350 1.058 . S
C360 O361 1.228 . S
C360 O362 1.267 . S
O361 C360 1.228 . S
O362 Zn349 1.969 . S
O362 C360 1.267 . S
O363 Zn349 1.965 . S
O363 C367 1.260 1_655 S
O364 Zn348 1.969 . S
O364 C367 1.258 . S
O365 Zn349 2.024 . S
O365 C352 1.058 . S
C366 O355 1.260 1_655 S
C366 O356 1.258 . S
C367 O363 1.260 1_455 S
C367 O364 1.258 . S
C368 C369 1.363 . S
C368 C374 1.379 . S
C368 N376 1.356 . S
C369 C368 1.363 . S
C369 C375 1.363 . S
C370 C371 1.363 . S
C370 C375 1.379 . S
C370 N377 1.356 1_545 S
C371 C370 1.363 . S
C371 C374 1.363 . S
N372 C374 1.356 . S
N372 H384 0.984 . S
N372 H385 0.985 . S
N373 C375 1.356 . S
N373 H378 0.984 . S
N373 H379 0.985 . S
C374 C368 1.379 . S
C374 C371 1.363 . S
C374 N372 1.356 . S
C375 C369 1.363 . S
C375 C370 1.379 . S
C375 N373 1.356 . S
N376 C368 1.356 . S
N376 H382 0.984 . S
N376 H383 0.984 . S
N377 C370 1.356 1_565 S
N377 H380 0.984 . S
N377 H381 0.985 . S
H378 N373 0.984 . S
H379 N373 0.985 . S
H380 N377 0.984 . S
H381 N377 0.985 . S
H382 N376 0.984 . S
H383 N376 0.984 . S
H384 N372 0.984 . S
H385 N372 0.985 . S
C386 C387 1.363 . S
C386 C392 1.379 . S
C386 N394 1.356 . S
C387 C386 1.363 . S
C387 C393 1.363 . S
C388 C389 1.363 . S
C388 C393 1.379 . S
C388 N395 1.356 . S
C389 C388 1.363 . S
C389 C392 1.363 . S
N390 C392 1.356 . S
N390 H402 0.984 . S
N390 H403 0.985 . S
N391 C393 1.356 . S
N391 H396 0.984 . S
N391 H397 0.985 . S
C392 C386 1.379 . S
C392 C389 1.363 . S
C392 N390 1.356 . S
C393 C387 1.363 . S
C393 C388 1.379 . S
C393 N391 1.356 . S
N394 C386 1.356 . S
N394 H400 0.984 . S
N394 H401 0.984 . S
N395 C388 1.356 . S
N395 H398 0.984 . S
N395 H399 0.985 . S
H396 N391 0.984 . S
H397 N391 0.985 . S
H398 N395 0.984 . S
H399 N395 0.985 . S
H400 N394 0.984 . S
H401 N394 0.984 . S
H402 N390 0.984 . S
H403 N390 0.985 . S
C404 C405 1.363 . S
C404 C410 1.379 . S
C404 N412 1.356 . S
C405 C404 1.363 . S
C405 C411 1.363 . S
C406 C407 1.363 . S
C406 C411 1.379 . S
C406 N413 1.356 . S
C407 C406 1.363 . S
C407 C410 1.363 . S
N408 C410 1.356 . S
N408 H420 0.984 . S
N408 H421 0.985 . S
N409 C411 1.356 . S
N409 H414 0.984 . S
N409 H415 0.985 . S
C410 C404 1.379 . S
C410 C407 1.363 . S
C410 N408 1.356 . S
C411 C405 1.363 . S
C411 C406 1.379 . S
C411 N409 1.356 . S
N412 C404 1.356 . S
N412 H418 0.984 . S
N412 H419 0.984 . S
N413 C406 1.356 . S
N413 H416 0.984 . S
N413 H417 0.985 . S
H414 N409 0.984 . S
H415 N409 0.985 . S
H416 N413 0.984 . S
H417 N413 0.985 . S
H418 N412 0.984 . S
H419 N412 0.984 . S
H420 N408 0.984 . S
H421 N408 0.985 . S
C422 C423 1.363 1_455 S
C422 C428 1.379 . S
C422 N430 1.356 . S
C423 C422 1.363 1_655 S
C423 C429 1.363 . S
C424 C425 1.363 . S
C424 C429 1.379 . S
C424 N431 1.356 . S
C425 C424 1.363 . S
C425 C428 1.363 1_655 S
N426 C428 1.356 . S
N426 H438 0.984 . S
N426 H439 0.985 . S
N427 C429 1.356 . S
N427 H432 0.984 . S
N427 H433 0.985 . S
C428 C422 1.379 . S
C428 C425 1.363 1_455 S
C428 N426 1.356 . S
C429 C423 1.363 . S
C429 C424 1.379 . S
C429 N427 1.356 . S
N430 C422 1.356 . S
N430 H436 0.984 . S
N430 H437 0.984 . S
N431 C424 1.356 . S
N431 H434 0.984 . S
N431 H435 0.985 . S
H432 N427 0.984 . S
H433 N427 0.985 . S
H434 N431 0.984 . S
H435 N431 0.985 . S
H436 N430 0.984 . S
H437 N430 0.984 . S
H438 N426 0.984 . S
H439 N426 0.985 . S
C440 C441 1.363 . S
C440 C446 1.379 . S
C440 N448 1.356 . S
C441 C440 1.363 . S
C441 C447 1.363 . S
C442 C443 1.363 . S
C442 C447 1.379 . S
C442 N449 1.356 . S
C443 C442 1.363 . S
C443 C446 1.363 . S
N444 C446 1.356 1_545 S
N444 H456 0.984 . S
N444 H457 0.985 . S
N445 C447 1.356 . S
N445 H450 0.984 . S
N445 H451 0.985 . S
C446 C440 1.379 . S
C446 C443 1.363 . S
C446 N444 1.356 1_565 S
C447 C441 1.363 . S
C447 C442 1.379 . S
C447 N445 1.356 . S
N448 C440 1.356 . S
N448 H454 0.984 . S
N448 H455 0.984 . S
N449 C442 1.356 . S
N449 H452 0.984 . S
N449 H453 0.985 . S
H450 N445 0.984 . S
H451 N445 0.985 . S
H452 N449 0.984 . S
H453 N449 0.985 . S
H454 N448 0.984 . S
H455 N448 0.984 . S
H456 N444 0.984 . S
H457 N444 0.985 . S
C458 C459 1.363 . S
C458 C464 1.379 . S
C458 N466 1.356 . S
C459 C458 1.363 . S
C459 C465 1.363 . S
C460 C461 1.363 . S
C460 C465 1.379 . S
C460 N467 1.356 . S
C461 C460 1.363 . S
C461 C464 1.363 . S
N462 C464 1.356 . S
N462 H474 0.984 . S
N462 H475 0.985 . S
N463 C465 1.356 . S
N463 H468 0.984 . S
N463 H469 0.985 . S
C464 C458 1.379 . S
C464 C461 1.363 . S
C464 N462 1.356 . S
C465 C459 1.363 . S
C465 C460 1.379 . S
C465 N463 1.356 . S
N466 C458 1.356 . S
N466 H472 0.984 . S
N466 H473 0.984 . S
N467 C460 1.356 . S
N467 H470 0.984 . S
N467 H471 0.985 . S
H468 N463 0.984 . S
H469 N463 0.985 . S
H470 N467 0.984 . S
H471 N467 0.985 . S
H472 N466 0.984 . S
H473 N466 0.984 . S
H474 N462 0.984 . S
H475 N462 0.985 . S
C476 C477 1.363 . S
C476 C482 1.379 . S
C476 N484 1.356 . S
C477 C476 1.363 . S
C477 C483 1.363 . S
C478 C479 1.363 . S
C478 C483 1.379 . S
C478 N485 1.356 . S
C479 C478 1.363 . S
C479 C482 1.363 . S
N480 C482 1.356 . S
N480 H492 0.984 . S
N480 H493 0.985 . S
N481 C483 1.356 . S
N481 H486 0.984 . S
N481 H487 0.985 . S
C482 C476 1.379 . S
C482 C479 1.363 . S
C482 N480 1.356 . S
C483 C477 1.363 . S
C483 C478 1.379 . S
C483 N481 1.356 . S
N484 C476 1.356 . S
N484 H490 0.984 . S
N484 H491 0.984 . S
N485 C478 1.356 . S
N485 H488 0.984 . S
N485 H489 0.985 . S
H486 N481 0.984 . S
H487 N481 0.985 . S
H488 N485 0.984 . S
H489 N485 0.985 . S
H490 N484 0.984 . S
H491 N484 0.984 . S
H492 N480 0.984 . S
H493 N480 0.985 . S
C494 C495 1.363 1_655 S
C494 C500 1.379 . S
C494 N502 1.356 . S
C495 C494 1.363 1_455 S
C495 C501 1.363 . S
C496 C497 1.363 . S
C496 C501 1.379 . S
C496 N503 1.356 . S
C497 C496 1.363 . S
C497 C500 1.363 1_455 S
N498 C500 1.356 . S
N498 H510 0.984 . S
N498 H511 0.985 . S
N499 C501 1.356 . S
N499 H504 0.984 . S
N499 H505 0.985 . S
C500 C494 1.379 . S
C500 C497 1.363 1_655 S
C500 N498 1.356 . S
C501 C495 1.363 . S
C501 C496 1.379 . S
C501 N499 1.356 . S
N502 C494 1.356 . S
N502 H508 0.984 . S
N502 H509 0.984 . S
N503 C496 1.356 . S
N503 H506 0.984 . S
N503 H507 0.985 . S
H504 N499 0.984 . S
H505 N499 0.985 . S
H506 N503 0.984 . S
H507 N503 0.985 . S
H508 N502 0.984 . S
H509 N502 0.984 . S
H510 N498 0.984 . S
H511 N498 0.985 . S
C512 C513 1.363 1_455 S
C512 C518 1.379 . S
C512 N520 1.356 . S
C513 C512 1.363 1_655 S
C513 C519 1.363 . S
C514 C515 1.363 . S
C514 C519 1.379 . S
C514 N521 1.356 . S
C515 C514 1.363 . S
C515 C518 1.363 1_655 S
N516 C518 1.356 . S
N516 H528 0.984 . S
N516 H529 0.985 1_455 S
N517 C519 1.356 . S
N517 H522 0.984 . S
N517 H523 0.985 . S
C518 C512 1.379 . S
C518 C515 1.363 1_455 S
C518 N516 1.356 . S
C519 C513 1.363 . S
C519 C514 1.379 . S
C519 N517 1.356 . S
N520 C512 1.356 . S
N520 H526 0.984 . S
N520 H527 0.984 . S
N521 C514 1.356 . S
N521 H524 0.984 . S
N521 H525 0.985 . S
H522 N517 0.984 . S
H523 N517 0.985 . S
H524 N521 0.984 . S
H525 N521 0.985 . S
H526 N520 0.984 . S
H527 N520 0.984 . S
H528 N516 0.984 . S
H529 N516 0.985 1_655 S
C530 C531 1.363 . S
C530 C536 1.379 . S
C530 N538 1.356 . S
C531 C530 1.363 . S
C531 C537 1.363 . S
C532 C533 1.363 . S
C532 C537 1.379 . S
C532 N539 1.356 . S
C533 C532 1.363 . S
C533 C536 1.363 . S
N534 C536 1.356 1_565 S
N534 H546 0.984 . S
N534 H547 0.985 . S
N535 C537 1.356 . S
N535 H540 0.984 . S
N535 H541 0.985 . S
C536 C530 1.379 . S
C536 C533 1.363 . S
C536 N534 1.356 1_545 S
C537 C531 1.363 . S
C537 C532 1.379 . S
C537 N535 1.356 . S
N538 C530 1.356 . S
N538 H544 0.984 . S
N538 H545 0.984 . S
N539 C532 1.356 . S
N539 H542 0.984 . S
N539 H543 0.985 . S
H540 N535 0.984 . S
H541 N535 0.985 . S
H542 N539 0.984 . S
H543 N539 0.985 . S
H544 N538 0.984 . S
H545 N538 0.984 . S
H546 N534 0.984 . S
H547 N534 0.985 . S
C548 C549 1.363 . S
C548 C554 1.379 . S
C548 N556 1.356 . S
C549 C548 1.363 . S
C549 C555 1.363 . S
C550 C551 1.363 . S
C550 C555 1.379 . S
C550 N557 1.356 . S
C551 C550 1.363 . S
C551 C554 1.363 . S
N552 C554 1.356 . S
N552 H564 0.984 . S
N552 H565 0.985 . S
N553 C555 1.356 . S
N553 H558 0.984 . S
N553 H559 0.985 . S
C554 C548 1.379 . S
C554 C551 1.363 . S
C554 N552 1.356 . S
C555 C549 1.363 . S
C555 C550 1.379 . S
C555 N553 1.356 . S
N556 C548 1.356 . S
N556 H562 0.984 . S
N556 H563 0.984 . S
N557 C550 1.356 . S
N557 H560 0.984 . S
N557 H561 0.985 . S
H558 N553 0.984 . S
H559 N553 0.985 . S
H560 N557 0.984 . S
H561 N557 0.985 . S
H562 N556 0.984 . S
H563 N556 0.984 . S
H564 N552 0.984 . S
H565 N552 0.985 . S
C566 C567 1.363 . S
C566 C572 1.379 . S
C566 N574 1.356 . S
C567 C566 1.363 . S
C567 C573 1.363 . S
C568 C569 1.363 . S
C568 C573 1.379 . S
C568 N575 1.356 . S
C569 C568 1.363 . S
C569 C572 1.363 . S
N570 C572 1.356 . S
N570 H582 0.984 . S
N570 H583 0.985 . S
N571 C573 1.356 . S
N571 H576 0.984 . S
N571 H577 0.985 . S
C572 C566 1.379 . S
C572 C569 1.363 . S
C572 N570 1.356 . S
C573 C567 1.363 . S
C573 C568 1.379 . S
C573 N571 1.356 . S
N574 C566 1.356 . S
N574 H580 0.984 . S
N574 H581 0.984 . S
N575 C568 1.356 . S
N575 H578 0.984 . S
N575 H579 0.985 . S
H576 N571 0.984 . S
H577 N571 0.985 . S
H578 N575 0.984 . S
H579 N575 0.985 . S
H580 N574 0.984 . S
H581 N574 0.984 . S
H582 N570 0.984 . S
H583 N570 0.985 . S
C584 C585 1.363 1_655 S
C584 C590 1.379 1_655 S
C584 N592 1.356 . S
C585 C584 1.363 1_455 S
C585 C591 1.363 . S
C586 C587 1.363 . S
C586 C591 1.379 . S
C586 N593 1.356 . S
C587 C586 1.363 . S
C587 C590 1.363 . S
N588 C590 1.356 1_655 S
N588 H600 0.984 . S
N588 H601 0.985 1_655 S
N589 C591 1.356 . S
N589 H594 0.984 . S
N589 H595 0.985 . S
C590 C584 1.379 1_455 S
C590 C587 1.363 . S
C590 N588 1.356 1_455 S
C591 C585 1.363 . S
C591 C586 1.379 . S
C591 N589 1.356 . S
N592 C584 1.356 . S
N592 H598 0.984 . S
N592 H599 0.984 . S
N593 C586 1.356 . S
N593 H596 0.984 . S
N593 H597 0.985 . S
H594 N589 0.984 . S
H595 N589 0.985 . S
H596 N593 0.984 . S
H597 N593 0.985 . S
H598 N592 0.984 . S
H599 N592 0.984 . S
H600 N588 0.984 . S
H601 N588 0.985 1_455 S
C602 C603 1.363 . S
C602 C608 1.379 . S
C602 N610 1.356 . S
C603 C602 1.363 . S
C603 C609 1.363 . S
C604 C605 1.363 . S
C604 C609 1.379 . S
C604 N611 1.356 . S
C605 C604 1.363 . S
C605 C608 1.363 . S
N606 C608 1.356 1_545 S
N606 H618 0.984 . S
N606 H619 0.985 . S
N607 C609 1.356 . S
N607 H612 0.984 . S
N607 H613 0.985 . S
C608 C602 1.379 . S
C608 C605 1.363 . S
C608 N606 1.356 1_565 S
C609 C603 1.363 . S
C609 C604 1.379 . S
C609 N607 1.356 . S
N610 C602 1.356 . S
N610 H616 0.984 . S
N610 H617 0.984 . S
N611 C604 1.356 . S
N611 H614 0.984 . S
N611 H615 0.985 . S
H612 N607 0.984 . S
H613 N607 0.985 . S
H614 N611 0.984 . S
H615 N611 0.985 . S
H616 N610 0.984 . S
H617 N610 0.984 . S
H618 N606 0.984 . S
H619 N606 0.985 . S
C620 C621 1.363 . S
C620 C626 1.379 . S
C620 N628 1.356 . S
C621 C620 1.363 . S
C621 C627 1.363 . S
C622 C623 1.363 . S
C622 C627 1.379 . S
C622 N629 1.356 . S
C623 C622 1.363 . S
C623 C626 1.363 . S
N624 C626 1.356 . S
N624 H636 0.984 . S
N624 H637 0.985 . S
N625 C627 1.356 . S
N625 H630 0.984 . S
N625 H631 0.985 . S
C626 C620 1.379 . S
C626 C623 1.363 . S
C626 N624 1.356 . S
C627 C621 1.363 . S
C627 C622 1.379 . S
C627 N625 1.356 . S
N628 C620 1.356 . S
N628 H634 0.984 . S
N628 H635 0.984 . S
N629 C622 1.356 . S
N629 H632 0.984 . S
N629 H633 0.985 . S
H630 N625 0.984 . S
H631 N625 0.985 . S
H632 N629 0.984 . S
H633 N629 0.985 . S
H634 N628 0.984 . S
H635 N628 0.984 . S
H636 N624 0.984 . S
H637 N624 0.985 . S
C638 C639 1.363 . S
C638 C644 1.379 . S
C638 N646 1.356 . S
C639 C638 1.363 . S
C639 C645 1.363 . S
C640 C641 1.363 . S
C640 C645 1.379 . S
C640 N647 1.356 . S
C641 C640 1.363 . S
C641 C644 1.363 . S
N642 C644 1.356 . S
N642 H654 0.984 . S
N642 H655 0.985 . S
N643 C645 1.356 . S
N643 H648 0.984 . S
N643 H649 0.985 . S
C644 C638 1.379 . S
C644 C641 1.363 . S
C644 N642 1.356 . S
C645 C639 1.363 . S
C645 C640 1.379 . S
C645 N643 1.356 . S
N646 C638 1.356 . S
N646 H652 0.984 . S
N646 H653 0.984 . S
N647 C640 1.356 . S
N647 H650 0.984 . S
N647 H651 0.985 . S
H648 N643 0.984 . S
H649 N643 0.985 . S
H650 N647 0.984 . S
H651 N647 0.985 . S
H652 N646 0.984 . S
H653 N646 0.984 . S
H654 N642 0.984 . S
H655 N642 0.985 . S
C656 C657 1.363 . S
C656 C662 1.379 . S
C656 N664 1.356 . S
C657 C656 1.363 . S
C657 C663 1.363 1_455 S
C658 C659 1.363 1_655 S
C658 C663 1.379 . S
C658 N665 1.356 . S
C659 C658 1.363 1_455 S
C659 C662 1.363 . S
N660 C662 1.356 . S
N660 H672 0.984 . S
N660 H673 0.985 . S
N661 C663 1.356 . S
N661 H666 0.984 . S
N661 H667 0.985 . S
C662 C656 1.379 . S
C662 C659 1.363 . S
C662 N660 1.356 . S
C663 C657 1.363 1_655 S
C663 C658 1.379 . S
C663 N661 1.356 . S
N664 C656 1.356 . S
N664 H670 0.984 . S
N664 H671 0.984 . S
N665 C658 1.356 . S
N665 H668 0.984 . S
N665 H669 0.985 . S
H666 N661 0.984 . S
H667 N661 0.985 . S
H668 N665 0.984 . S
H669 N665 0.985 . S
H670 N664 0.984 . S
H671 N664 0.984 . S
H672 N660 0.984 . S
H673 N660 0.985 . S
C674 C675 1.363 . S
C674 C680 1.379 . S
C674 N682 1.356 . S
C675 C674 1.363 . S
C675 C681 1.363 . S
C676 C677 1.363 . S
C676 C681 1.379 . S
C676 N683 1.356 . S
C677 C676 1.363 . S
C677 C680 1.363 . S
N678 C680 1.356 . S
N678 H690 0.984 . S
N678 H691 0.985 . S
N679 C681 1.356 . S
N679 H684 0.984 . S
N679 H685 0.985 . S
C680 C674 1.379 . S
C680 C677 1.363 . S
C680 N678 1.356 . S
C681 C675 1.363 . S
C681 C676 1.379 . S
C681 N679 1.356 . S
N682 C674 1.356 . S
N682 H688 0.984 . S
N682 H689 0.984 . S
N683 C676 1.356 . S
N683 H686 0.984 . S
N683 H687 0.979 1_545 S
H684 N679 0.984 . S
H685 N679 0.985 . S
H686 N683 0.984 . S
H687 N683 0.979 1_565 S
H688 N682 0.984 . S
H689 N682 0.984 . S
H690 N678 0.984 . S
H691 N678 0.985 . S
C692 C693 1.363 . S
C692 C698 1.379 . S
C692 N700 1.356 . S
C693 C692 1.363 . S
C693 C699 1.363 . S
C694 C695 1.363 . S
C694 C699 1.379 . S
C694 N701 1.356 . S
C695 C694 1.363 . S
C695 C698 1.363 . S
N696 C698 1.356 . S
N696 H708 0.984 . S
N696 H709 0.985 . S
N697 C699 1.356 . S
N697 H702 0.984 . S
N697 H703 0.985 . S
C698 C692 1.379 . S
C698 C695 1.363 . S
C698 N696 1.356 . S
C699 C693 1.363 . S
C699 C694 1.379 . S
C699 N697 1.356 . S
N700 C692 1.356 . S
N700 H706 0.984 . S
N700 H707 0.984 . S
N701 C694 1.356 . S
N701 H704 0.984 . S
N701 H705 0.985 . S
H702 N697 0.984 . S
H703 N697 0.985 . S
H704 N701 0.984 . S
H705 N701 0.985 . S
H706 N700 0.984 . S
H707 N700 0.984 . S
H708 N696 0.984 . S
H709 N696 0.985 . S
C710 C711 1.363 . S
C710 C716 1.379 . S
C710 N718 1.356 . S
C711 C710 1.363 . S
C711 C717 1.363 . S
C712 C713 1.363 . S
C712 C717 1.379 . S
C712 N719 1.356 . S
C713 C712 1.363 . S
C713 C716 1.363 . S
N714 C716 1.356 . S
N714 H726 0.984 . S
N714 H727 0.985 . S
N715 C717 1.356 . S
N715 H720 0.984 . S
N715 H721 0.985 . S
C716 C710 1.379 . S
C716 C713 1.363 . S
C716 N714 1.356 . S
C717 C711 1.363 . S
C717 C712 1.379 . S
C717 N715 1.356 . S
N718 C710 1.356 . S
N718 H724 0.984 . S
N718 H725 0.984 . S
N719 C712 1.356 . S
N719 H722 0.984 . S
N719 H723 0.985 . S
H720 N715 0.984 . S
H721 N715 0.985 . S
H722 N719 0.984 . S
H723 N719 0.985 . S
H724 N718 0.984 . S
H725 N718 0.984 . S
H726 N714 0.984 . S
H727 N714 0.985 . S
C728 C729 1.363 1_455 S
C728 C734 1.379 . S
C728 N736 1.356 . S
C729 C728 1.363 1_655 S
C729 C735 1.363 . S
C730 C731 1.363 . S
C730 C735 1.379 . S
C730 N737 1.356 . S
C731 C730 1.363 . S
C731 C734 1.363 1_655 S
N732 C734 1.356 . S
N732 H744 0.984 . S
N732 H745 0.985 . S
N733 C735 1.356 . S
N733 H738 0.984 . S
N733 H739 0.985 . S
C734 C728 1.379 . S
C734 C731 1.363 1_455 S
C734 N732 1.356 . S
C735 C729 1.363 . S
C735 C730 1.379 . S
C735 N733 1.356 . S
N736 C728 1.356 . S
N736 H742 0.984 . S
N736 H743 0.984 . S
N737 C730 1.356 . S
N737 H740 0.984 . S
N737 H741 0.985 . S
H738 N733 0.984 . S
H739 N733 0.985 . S
H740 N737 0.984 . S
H741 N737 0.985 . S
H742 N736 0.984 . S
H743 N736 0.984 . S
H744 N732 0.984 . S
H745 N732 0.985 . S
C746 C747 1.363 . S
C746 C752 1.379 . S
C746 N754 1.356 . S
C747 C746 1.363 . S
C747 C753 1.363 . S
C748 C749 1.363 . S
C748 C753 1.379 . S
C748 N755 1.356 . S
C749 C748 1.363 . S
C749 C752 1.363 . S
N750 C752 1.356 . S
N750 H762 0.984 . S
N750 H763 0.985 . S
N751 C753 1.356 . S
N751 H756 0.984 . S
N751 H757 0.985 . S
C752 C746 1.379 . S
C752 C749 1.363 . S
C752 N750 1.356 . S
C753 C747 1.363 . S
C753 C748 1.379 . S
C753 N751 1.356 . S
N754 C746 1.356 . S
N754 H760 0.984 . S
N754 H761 0.984 . S
N755 C748 1.356 . S
N755 H758 0.984 . S
N755 H759 0.985 1_565 S
H756 N751 0.984 . S
H757 N751 0.985 . S
H758 N755 0.984 . S
H759 N755 0.985 1_545 S
H760 N754 0.984 . S
H761 N754 0.984 . S
H762 N750 0.984 . S
H763 N750 0.985 . S
C764 C765 1.363 . S
C764 C770 1.379 . S
C764 N772 1.356 . S
C765 C764 1.363 . S
C765 C771 1.363 . S
C766 C767 1.363 . S
C766 C771 1.379 . S
C766 N773 1.356 . S
C767 C766 1.363 . S
C767 C770 1.363 . S
N768 C770 1.356 . S
N768 H780 0.984 . S
N768 H781 0.985 . S
N769 C771 1.356 . S
N769 H774 0.984 . S
N769 H775 0.985 . S
C770 C764 1.379 . S
C770 C767 1.363 . S
C770 N768 1.356 . S
C771 C765 1.363 . S
C771 C766 1.379 . S
C771 N769 1.356 . S
N772 C764 1.356 . S
N772 H778 0.984 . S
N772 H779 0.984 . S
N773 C766 1.356 . S
N773 H776 0.984 . S
N773 H777 0.985 . S
H774 N769 0.984 . S
H775 N769 0.985 . S
H776 N773 0.984 . S
H777 N773 0.985 . S
H778 N772 0.984 . S
H779 N772 0.984 . S
H780 N768 0.984 . S
H781 N768 0.985 . S
C782 C783 1.363 . S
C782 C788 1.379 . S
C782 N790 1.356 . S
C783 C782 1.363 . S
C783 C789 1.363 . S
C784 C785 1.363 . S
C784 C789 1.379 . S
C784 N791 1.356 . S
C785 C784 1.363 . S
C785 C788 1.363 . S
N786 C788 1.356 . S
N786 H798 0.984 . S
N786 H799 0.985 . S
N787 C789 1.356 . S
N787 H792 0.984 . S
N787 H793 0.985 . S
C788 C782 1.379 . S
C788 C785 1.363 . S
C788 N786 1.356 . S
C789 C783 1.363 . S
C789 C784 1.379 . S
C789 N787 1.356 . S
N790 C782 1.356 . S
N790 H796 0.984 . S
N790 H797 0.984 . S
N791 C784 1.356 . S
N791 H794 0.984 . S
N791 H795 0.985 . S
H792 N787 0.984 . S
H793 N787 0.985 . S
H794 N791 0.984 . S
H795 N791 0.985 . S
H796 N790 0.984 . S
H797 N790 0.984 . S
H798 N786 0.984 . S
H799 N786 0.985 . S
C369 C241 1.972 . S
C371 C306 2.046 . S
C389 C326 1.746 . S
C387 C277 1.803 . S
C407 C346 2.009 . S
C405 C169 1.928 . S
C425 C366 1.736 . S
C423 C205 1.715 1_655 S
C443 C307 2.048 . S
C441 C97 1.896 . S
C459 C133 1.772 . S
C461 C327 1.746 . S
C477 C25 1.852 . S
C479 C347 2.009 . S
C495 C61 1.707 . S
C497 C367 1.737 . S
C515 C297 0.851 . S
C513 C211 0.891 1_655 S
C533 C317 1.043 . S
C531 C247 1.141 . S
C551 C337 0.864 . S
C549 C253 0.891 . S
C567 C175 1.167 . S
C569 C357 1.041 . S
C585 C67 0.879 . S
C587 C300 0.848 . S
C605 C320 1.043 . S
C603 C103 1.070 . S
C623 C340 0.864 . S
C621 C109 0.889 . S
C639 C31 1.085 . S
C641 C360 1.047 . S
C657 C181 2.180 . S
C659 C290 2.132 . S
C675 C217 2.224 . S
C677 C310 2.168 . S
C695 C330 2.079 . S
C693 C283 2.099 . S
C713 C350 2.227 . S
C711 C145 2.277 . S
C729 C37 2.190 1_655 S
C731 C292 2.132 . S
C749 C312 2.168 . S
C747 C73 2.190 . S
C767 C332 2.079 . S
C765 C139 2.056 . S
C783 C1 2.245 . S
C785 C352 2.230 . S
