# Generated by pormake.
# Topology pyr, (3,6)-cn, num edge types: 1
# Building blocks:
#     Node 0, Type 0, BuildingBlock: PAMTOO_clean_linker_0, # of connection points: 3
#     Node 1, Type 0, BuildingBlock: PAMTOO_clean_linker_0, # of connection points: 3
#     Node 2, Type 0, BuildingBlock: PAMTOO_clean_linker_0, # of connection points: 3
#     Node 3, Type 0, BuildingBlock: PAMTOO_clean_linker_0, # of connection points: 3
#     Node 4, Type 0, BuildingBlock: PAMTOO_clean_linker_0, # of connection points: 3
#     Node 5, Type 0, BuildingBlock: PAMTOO_clean_linker_0, # of connection points: 3
#     Node 6, Type 0, BuildingBlock: PAMTOO_clean_linker_0, # of connection points: 3
#     Node 7, Type 0, BuildingBlock: PAMTOO_clean_linker_0, # of connection points: 3
#     Node 8, Type 1, BuildingBlock: LEVNOQ01_clean_sbu_1, # of connection points: 6
#     Node 9, Type 1, BuildingBlock: LEVNOQ01_clean_sbu_1, # of connection points: 6
#     Node 10, Type 1, BuildingBlock: LEVNOQ01_clean_sbu_1, # of connection points: 6
#     Node 11, Type 1, BuildingBlock: LEVNOQ01_clean_sbu_1, # of connection points: 6
#     Edge 12, Type (0, 1), BuildingBlock: MIFKUJ_clean_linker_0, # of connection points: 2
#     Edge 13, Type (0, 1), BuildingBlock: MIFKUJ_clean_linker_0, # of connection points: 2
#     Edge 14, Type (0, 1), BuildingBlock: MIFKUJ_clean_linker_0, # of connection points: 2
#     Edge 15, Type (0, 1), BuildingBlock: MIFKUJ_clean_linker_0, # of connection points: 2
#     Edge 16, Type (0, 1), BuildingBlock: MIFKUJ_clean_linker_0, # of connection points: 2
#     Edge 17, Type (0, 1), BuildingBlock: MIFKUJ_clean_linker_0, # of connection points: 2
#     Edge 18, Type (0, 1), BuildingBlock: MIFKUJ_clean_linker_0, # of connection points: 2
#     Edge 19, Type (0, 1), BuildingBlock: MIFKUJ_clean_linker_0, # of connection points: 2
#     Edge 20, Type (0, 1), BuildingBlock: MIFKUJ_clean_linker_0, # of connection points: 2
#     Edge 21, Type (0, 1), BuildingBlock: MIFKUJ_clean_linker_0, # of connection points: 2
#     Edge 22, Type (0, 1), BuildingBlock: MIFKUJ_clean_linker_0, # of connection points: 2
#     Edge 23, Type (0, 1), BuildingBlock: MIFKUJ_clean_linker_0, # of connection points: 2
#     Edge 24, Type (0, 1), BuildingBlock: MIFKUJ_clean_linker_0, # of connection points: 2
#     Edge 25, Type (0, 1), BuildingBlock: MIFKUJ_clean_linker_0, # of connection points: 2
#     Edge 26, Type (0, 1), BuildingBlock: MIFKUJ_clean_linker_0, # of connection points: 2
#     Edge 27, Type (0, 1), BuildingBlock: MIFKUJ_clean_linker_0, # of connection points: 2
#     Edge 28, Type (0, 1), BuildingBlock: MIFKUJ_clean_linker_0, # of connection points: 2
#     Edge 29, Type (0, 1), BuildingBlock: MIFKUJ_clean_linker_0, # of connection points: 2
#     Edge 30, Type (0, 1), BuildingBlock: MIFKUJ_clean_linker_0, # of connection points: 2
#     Edge 31, Type (0, 1), BuildingBlock: MIFKUJ_clean_linker_0, # of connection points: 2
#     Edge 32, Type (0, 1), BuildingBlock: MIFKUJ_clean_linker_0, # of connection points: 2
#     Edge 33, Type (0, 1), BuildingBlock: MIFKUJ_clean_linker_0, # of connection points: 2
#     Edge 34, Type (0, 1), BuildingBlock: MIFKUJ_clean_linker_0, # of connection points: 2
#     Edge 35, Type (0, 1), BuildingBlock: MIFKUJ_clean_linker_0, # of connection points: 2
# Relax obj value: 0.090
# Max RMSD: 0.205
# Mean RMSD: 0.144
data_MOF--net-pry--node1-LEVNOQ01_clean_sbu_1--node2-PAMTOO_clean_linker_0--edge1-MIFKUJ_clean_linker_0
_symmetry_space_group_name_H-M    P1
_symmetry_Int_Tables_number       1
_symmetry_cell_setting            triclinic
loop_
_symmetry_equiv_pos_as_xyz
'x, y, z'
_cell_length_a     46.991427
_cell_length_b     46.627177
_cell_length_c     46.191776
_cell_angle_alpha  91.917897
_cell_angle_beta   92.534908
_cell_angle_gamma 98.552922
loop_
_atom_site_label
_atom_site_type_symbol
_atom_site_fract_x
_atom_site_fract_y
_atom_site_fract_z
_atom_type_partial_charge
H0 H 0.13892 0.18089 0.19144 0.0
H1 H 0.20218 0.12295 0.19869 0.0
H2 H 0.20259 0.17923 0.12719 0.0
H3 H 0.21175 0.11969 0.11204 0.0
C4 C 0.22412 0.11492 0.13195 0.0
O5 O 0.22761 0.13873 0.15117 0.0
H6 H 0.21147 0.09611 0.14209 0.0
C7 C 0.15702 0.17195 0.18297 0.0
C8 C 0.16916 0.18284 0.15738 0.0
C9 C 0.16894 0.15059 0.19842 0.0
C10 C 0.19289 0.13964 0.18745 0.0
C11 C 0.20476 0.14973 0.16167 0.0
C12 C 0.19311 0.17148 0.14697 0.0
H13 H 0.35679 0.9328 0.66443 0.0
H14 H 0.35828 0.86842 0.59558 0.0
H15 H 0.42699 0.88293 0.66089 0.0
H16 H 0.44396 0.87343 0.5993 0.0
C17 C 0.42485 0.85743 0.59179 0.0
O18 O 0.40645 0.85233 0.61411 0.0
H19 H 0.41375 0.86676 0.57336 0.0
C20 C 0.3671 0.9161 0.65411 0.0
C21 C 0.39355 0.90987 0.66591 0.0
C22 C 0.35438 0.90158 0.62846 0.0
C23 C 0.36802 0.88023 0.61503 0.0
C24 C 0.3941 0.87363 0.62672 0.0
C25 C 0.40691 0.88851 0.65194 0.0
H26 H 0.6886 0.35056 0.91791 0.0
H27 H 0.63065 0.34466 0.84228 0.0
H28 H 0.68736 0.42373 0.86396 0.0
H29 H 0.63311 0.43217 0.83791 0.0
C30 C 0.62925 0.41337 0.82199 0.0
O31 O 0.65029 0.39608 0.82553 0.0
H32 H 0.60776 0.40068 0.82543 0.0
C33 C 0.67876 0.36075 0.90009 0.0
C34 C 0.68952 0.38958 0.89421 0.0
C35 C 0.65758 0.34413 0.8815 0.0
C36 C 0.64665 0.35704 0.85724 0.0
C37 C 0.65753 0.38557 0.8511 0.0
C38 C 0.67866 0.40189 0.86957 0.0
H39 H 0.89975 0.66107 0.46651 0.0
H40 H 0.87805 0.59071 0.40291 0.0
H41 H 0.95039 0.65659 0.39157 0.0
H42 H 0.90142 0.64034 0.34404 0.0
C43 C 0.90157 0.61648 0.34436 0.0
O44 O 0.91812 0.61016 0.36814 0.0
H45 H 0.87907 0.6054 0.34587 0.0
C46 C 0.90435 0.64977 0.44675 0.0
C47 C 0.92774 0.66133 0.43077 0.0
C48 C 0.88642 0.62419 0.43705 0.0
C49 C 0.8923 0.60992 0.41127 0.0
C50 C 0.91505 0.62186 0.39473 0.0
C51 C 0.93312 0.64723 0.40472 0.0
H52 H 0.86015 0.90348 0.85305 0.0
H53 H 0.86135 0.84628 0.92447 0.0
H54 H 0.9198 0.84172 0.85632 0.0
H55 H 0.89545 0.78522 0.87575 0.0
C56 C 0.89184 0.79058 0.89881 0.0
O57 O 0.90246 0.81954 0.90522 0.0
H58 H 0.86821 0.78693 0.90178 0.0
C59 C 0.86895 0.88628 0.86394 0.0
C60 C 0.89132 0.87395 0.85133 0.0
C61 C 0.85787 0.87672 0.89042 0.0
C62 C 0.86933 0.854 0.90405 0.0
C63 C 0.89156 0.84135 0.89175 0.0
C64 C 0.90267 0.8516 0.86565 0.0
H65 H 0.71916 0.11147 0.36804 0.0
H66 H 0.65158 0.16457 0.35975 0.0
H67 H 0.71353 0.17993 0.43142 0.0
H68 H 0.6514 0.177 0.44389 0.0
C69 C 0.64511 0.19062 0.42602 0.0
O70 O 0.66736 0.1957 0.40739 0.0
H71 H 0.62564 0.17878 0.41396 0.0
C72 C 0.70847 0.12907 0.37583 0.0
C73 C 0.71951 0.14505 0.4013 0.0
C74 C 0.68396 0.13585 0.36034 0.0
C75 C 0.67025 0.15856 0.37126 0.0
C76 C 0.68079 0.17411 0.39695 0.0
C77 C 0.70552 0.16761 0.41166 0.0
H78 H 0.3858 0.69388 0.11317 0.0
H79 H 0.36515 0.62882 0.17649 0.0
H80 H 0.42232 0.70667 0.20056 0.0
H81 H 0.43997 0.65263 0.21977 0.0
C82 C 0.41872 0.64171 0.22656 0.0
O83 O 0.39742 0.65736 0.218 0.0
H84 H 0.41428 0.61952 0.21622 0.0
C85 C 0.38848 0.68586 0.13471 0.0
C86 C 0.40576 0.70349 0.15597 0.0
C87 C 0.37344 0.65872 0.14169 0.0
C88 C 0.37704 0.6491 0.16998 0.0
C89 C 0.39489 0.66629 0.19078 0.0
C90 C 0.40905 0.69338 0.1839 0.0
H91 H 0.10866 0.3585 0.67152 0.0
H92 H 0.15057 0.44716 0.67263 0.0
H93 H 0.14516 0.39457 0.59428 0.0
H94 H 0.19533 0.45856 0.64929 0.0
C95 C 0.18928 0.46158 0.62613 0.0
O96 O 0.16242 0.44634 0.61803 0.0
H97 H 0.18809 0.48512 0.62472 0.0
C98 C 0.12029 0.37654 0.66064 0.0
C99 C 0.12531 0.37336 0.63097 0.0
C100 C 0.12974 0.40288 0.6762 0.0
C101 C 0.14357 0.42641 0.66135 0.0
C102 C 0.14984 0.42317 0.63215 0.0
C103 C 0.14112 0.39654 0.61712 0.0
O104 O 0.03947 0.02304 0.60626 0.0
Mg105 Mg 0.06859 0.0442 0.57795 0.0
O106 O 0.01144 0.99892 0.57088 0.0
Mg107 Mg 0.02815 0.01655 0.52524 0.0
O108 O 0.04847 0.0617 0.54435 0.0
O109 O 0.07671 0.0884 0.57858 0.0
O110 O 0.04442 0.03363 0.47963 0.0
O111 O 0.98524 0.03779 0.52016 0.0
Mg112 Mg 0.98561 0.98872 0.47421 0.0
O113 O 0.00865 0.97144 0.50565 0.0
O114 O 0.013 0.01233 0.44539 0.0
O115 O 0.9533 0.00885 0.49168 0.0
O116 O 0.97964 0.94443 0.47227 0.0
C117 C 0.09499 1.00025 0.5454 0.0
C118 C 0.01814 0.00415 0.59802 0.0
C119 C 0.06009 0.08691 0.55541 0.0
C120 C 0.03585 0.0296 0.45282 0.0
C121 C 0.95968 0.03082 0.50879 0.0
C122 C 0.99755 0.94615 0.49446 0.0
O123 O 0.10027 0.02052 0.56463 0.0
O124 O 0.0709 0.99549 0.53073 0.0
O125 O 0.51019 0.07845 0.02377 0.0
Mg126 Mg 0.55171 0.07146 0.03444 0.0
O127 O 0.50497 0.031 0.02393 0.0
Mg128 Mg 0.55078 0.01668 0.01091 0.0
O129 O 0.57659 0.06226 1.00097 0.0
O130 O 0.58044 0.10558 0.02503 0.0
O131 O 0.59564 1.00054 0.99833 0.0
O132 O 0.5325 0.0163 0.96189 0.0
Mg133 Mg 0.54299 0.95662 0.98302 0.0
O134 O 0.52573 0.97138 0.01947 0.0
O135 O 0.58648 0.9534 0.98785 0.0
O136 O 0.52724 0.97099 0.94414 0.0
O137 O 0.51612 0.92548 1.00132 0.0
C138 C 0.56851 0.03567 0.08113 0.0
C139 C 0.4939 0.05455 0.02502 0.0
C140 C 0.58767 0.08956 0.00411 0.0
C141 C 0.60441 0.9763 0.99232 0.0
C142 C 0.52515 0.99741 0.94111 0.0
C143 C 0.51289 0.94485 0.02105 0.0
O144 O 0.5601 0.05967 0.07679 0.0
O145 O 0.5689 0.01729 0.06004 0.0
O146 O 0.52061 0.57758 0.5715 0.0
Mg147 Mg 0.51924 0.53403 0.58404 0.0
O148 O 0.52141 0.56772 0.52401 0.0
Mg149 Mg 0.53285 0.52113 0.51486 0.0
O150 O 0.54855 0.51761 0.56041 0.0
O151 O 0.55314 0.51976 0.60801 0.0
O152 O 0.54447 0.47449 0.50428 0.0
O153 O 0.57938 0.54145 0.50508 0.0
Mg154 Mg 0.5466 0.51235 0.4437 0.0
O155 O 0.51801 0.5253 0.46995 0.0
O156 O 0.54752 0.46937 0.45626 0.0
O157 O 0.58523 0.54039 0.45737 0.0
O158 O 0.5107 0.52768 0.42316 0.0
C159 C 0.47105 0.49607 0.54684 0.0
C160 C 0.51917 0.58525 0.54541 0.0
C161 C 0.56257 0.51229 0.58355 0.0
C162 C 0.5484 0.45928 0.48151 0.0
C163 C 0.59468 0.54762 0.48327 0.0
C164 C 0.50265 0.53272 0.44886 0.0
O165 O 0.48027 0.50571 0.57217 0.0
O166 O 0.4861 0.50058 0.52459 0.0
O167 O 0.03113 0.42529 0.06062 0.0
Mg168 Mg 0.04816 0.4694 0.06869 0.0
O169 O 0.0579 0.44358 0.02687 0.0
Mg170 Mg 0.03805 0.4898 0.02476 0.0
O171 O 0.01993 0.49822 0.07228 0.0
O172 O 0.03968 0.47732 0.10975 0.0
O173 O 0.01742 0.53535 0.02275 0.0
O174 O 0.99341 0.46445 0.01187 0.0
Mg175 Mg 0.03177 0.51186 0.9815 0.0
O176 O 0.05766 0.48128 0.97763 0.0
O177 O 0.04781 0.55586 0.99325 0.0
O178 O 0.98668 0.49623 0.97915 0.0
O179 O 0.04426 0.50782 0.94109 0.0
C180 C 0.10098 0.50649 0.05259 0.0
C181 C 0.04808 0.42147 0.0411 0.0
C182 C 0.02238 0.49409 0.10001 0.0
C183 C 0.02852 0.55837 0.01072 0.0
C184 C 0.97699 0.47443 0.99338 0.0
C185 C 0.05858 0.48831 0.95057 0.0
O186 O 0.0936 0.48392 0.06659 0.0
O187 O 0.08212 0.51627 0.03684 0.0
H188 H 0.19808 0.14259 0.24955 0.0
H189 H 0.17824 0.12525 0.29492 0.0
H190 H 0.0923 0.1165 0.25537 0.0
H191 H 0.11211 0.1348 0.21023 0.0
H192 H 0.09049 0.13718 0.307 0.0
H193 H 0.13141 0.05658 0.268 0.0
H194 H 0.16951 0.03147 0.24851 0.0
H195 H 0.22094 0.05203 0.32771 0.0
H196 H 0.18327 0.07758 0.34755 0.0
H197 H 0.01564 0.03666 0.39784 0.0
H198 H 0.04107 0.05998 0.35816 0.0
H199 H 0.11797 0.08112 0.41377 0.0
H200 H 0.09233 0.05762 0.45421 0.0
H201 H 0.12742 0.057 0.35764 0.0
H202 H 0.08098 0.13236 0.39799 0.0
H203 H 0.03979 0.15302 0.41652 0.0
H204 H 0.99589 0.13954 0.3326 0.0
H205 H 0.03633 0.11756 0.31379 0.0
C206 C 0.17495 0.13684 0.25048 0.0
C207 C 0.15671 0.13995 0.22615 0.0
C208 C 0.16358 0.1268 0.27648 0.0
C209 C 0.13368 0.11894 0.27869 0.0
C210 C 0.11542 0.12235 0.25444 0.0
C211 C 0.12677 0.13282 0.22856 0.0
C212 C 0.12136 0.10734 0.30616 0.0
C213 C 0.09845 0.11944 0.31782 0.0
C214 C 0.13201 0.08462 0.32099 0.0
C215 C 0.15466 0.06925 0.30913 0.0
C216 C 0.15094 0.05592 0.28117 0.0
C217 C 0.17244 0.04158 0.27008 0.0
C218 C 0.19767 0.04023 0.28683 0.0
C219 C 0.20141 0.05314 0.31474 0.0
C220 C 0.17998 0.06754 0.32593 0.0
C221 C 0.03797 0.04626 0.40186 0.0
C222 C 0.05191 0.04516 0.42937 0.0
C223 C 0.05248 0.05972 0.37904 0.0
C224 C 0.08141 0.07248 0.3829 0.0
C225 C 0.09561 0.07143 0.41027 0.0
C226 C 0.08091 0.05814 0.4334 0.0
C227 C 0.09643 0.0866 0.35804 0.0
C228 C 0.11975 0.07494 0.3469 0.0
C229 C 0.08586 0.1094 0.34342 0.0
C230 C 0.06169 0.12313 0.3545 0.0
C231 C 0.06247 0.13357 0.38351 0.0
C232 C 0.03924 0.14556 0.39407 0.0
C233 C 0.01533 0.14784 0.37571 0.0
C234 C 0.01448 0.13787 0.34678 0.0
C235 C 0.03753 0.12555 0.33617 0.0
H236 H 0.99745 0.15729 0.38392 0.0
H237 H 0.21429 0.02912 0.2782 0.0
H238 H 0.44999 0.93362 0.67641 0.0
H239 H 0.47289 0.95722 0.72137 0.0
H240 H 0.391 0.94443 0.76147 0.0
H241 H 0.36788 0.92136 0.71624 0.0
H242 H 0.41951 0.99592 0.77808 0.0
H243 H 0.44253 0.8989 0.77299 0.0
H244 H 0.46113 0.85708 0.75063 0.0
H245 H 0.54497 0.90786 0.74778 0.0
H246 H 0.52676 0.95012 0.76977 0.0
H247 H 0.46881 0.99651 0.92672 0.0
H248 H 0.44691 0.99059 0.87745 0.0
H249 H 0.53143 0.00583 0.84286 0.0
H250 H 0.55326 0.01097 0.89234 0.0
H251 H 0.50311 0.9565 0.82188 0.0
H252 H 0.47969 0.05284 0.83182 0.0
H253 H 0.46001 0.09297 0.85612 0.0
H254 H 0.37586 0.04195 0.85206 0.0
H255 H 0.3951 1.00136 0.82806 0.0
C256 C 0.43687 0.93585 0.69481 0.0
C257 C 0.40718 0.92539 0.69286 0.0
C258 C 0.44998 0.94936 0.72052 0.0
C259 C 0.43381 0.95219 0.74507 0.0
C260 C 0.40397 0.94251 0.74289 0.0
C261 C 0.39078 0.9293 0.71704 0.0
C262 C 0.44814 0.96422 0.77324 0.0
C263 C 0.43767 0.98717 0.78777 0.0
C264 C 0.47217 0.95321 0.78575 0.0
C265 C 0.48321 0.92775 0.77274 0.0
C266 C 0.46489 0.9012 0.76741 0.0
C267 C 0.47536 0.87741 0.75483 0.0
C268 C 0.50419 0.87984 0.74772 0.0
C269 C 0.52263 0.90603 0.75326 0.0
C270 C 0.51225 0.9299 0.76579 0.0
C271 C 0.48256 1.00003 0.90855 0.0
C272 C 0.51263 0.00494 0.91319 0.0
C273 C 0.47006 0.99648 0.88034 0.0
C274 C 0.48746 0.99786 0.85628 0.0
C275 C 0.51752 0.00473 0.86101 0.0
C276 C 0.53 0.00809 0.88924 0.0
C277 C 0.47464 0.98838 0.82676 0.0
C278 C 0.48526 0.96565 0.81204 0.0
C279 C 0.45062 0.99944 0.81431 0.0
C280 C 0.43889 0.02399 0.8283 0.0
C281 C 0.45702 0.05012 0.83625 0.0
C282 C 0.44594 0.07296 0.84995 0.0
C283 C 0.41672 0.06999 0.85568 0.0
C284 C 0.39849 0.04422 0.84761 0.0
C285 C 0.40946 0.02131 0.83391 0.0
H286 H 0.40819 0.08768 0.86634 0.0
H287 H 0.51226 0.8614 0.73798 0.0
H288 H 0.66876 0.4558 0.80213 0.0
H289 H 0.67532 0.46953 0.75179 0.0
H290 H 0.60101 0.40717 0.72389 0.0
H291 H 0.59497 0.39293 0.7741 0.0
H292 H 0.64473 0.40579 0.6875 0.0
H293 H 0.5963 0.47943 0.73375 0.0
H294 H 0.59178 0.51779 0.77063 0.0
H295 H 0.67143 0.56636 0.74616 0.0
H296 H 0.67657 0.52808 0.70935 0.0
H297 H 0.55936 0.45462 0.58448 0.0
H298 H 0.59334 0.4324 0.61366 0.0
H299 H 0.65478 0.51111 0.61317 0.0
H300 H 0.61942 0.534 0.58555 0.0
H301 H 0.63615 0.5068 0.66269 0.0
H302 H 0.67763 0.43742 0.60761 0.0
H303 H 0.68119 0.39882 0.57072 0.0
H304 H 0.61331 0.3429 0.60894 0.0
H305 H 0.60986 0.38086 0.64656 0.0
C306 C 0.65364 0.44544 0.78519 0.0
C307 C 0.63083 0.42405 0.79186 0.0
C308 C 0.65754 0.45305 0.75653 0.0
C309 C 0.63854 0.43947 0.73419 0.0
C310 C 0.61594 0.41783 0.74084 0.0
C311 C 0.6122 0.41006 0.76947 0.0
C312 C 0.6411 0.44876 0.70403 0.0
C313 C 0.64294 0.42787 0.68186 0.0
C314 C 0.64008 0.47781 0.69692 0.0
C315 C 0.63702 0.50074 0.71912 0.0
C316 C 0.61297 0.49818 0.73642 0.0
C317 C 0.61027 0.51992 0.75727 0.0
C318 C 0.63136 0.54444 0.76081 0.0
C319 C 0.65515 0.54732 0.74345 0.0
C320 C 0.65797 0.52561 0.7226 0.0
C321 C 0.58084 0.46648 0.58896 0.0
C322 C 0.58676 0.49602 0.58342 0.0
C323 C 0.60055 0.45367 0.60565 0.0
C324 C 0.62651 0.47033 0.61649 0.0
C325 C 0.63469 0.49799 0.60554 0.0
C326 C 0.61457 0.51107 0.58954 0.0
C327 C 0.63845 0.46353 0.64537 0.0
C328 C 0.63925 0.48489 0.66778 0.0
C329 C 0.64178 0.43492 0.65255 0.0
C330 C 0.64349 0.41203 0.62988 0.0
C331 C 0.6634 0.41693 0.6081 0.0
C332 C 0.66546 0.39512 0.58712 0.0
C333 C 0.64734 0.36851 0.58735 0.0
C334 C 0.62734 0.36351 0.60879 0.0
C335 C 0.62552 0.38507 0.63012 0.0
H336 H 0.64883 0.35176 0.57092 0.0
H337 H 0.62922 0.56126 0.77695 0.0
H338 H 0.93362 0.57203 0.33503 0.0
H339 H 0.95131 0.55608 0.28913 0.0
H340 H 0.91088 0.62033 0.24446 0.0
H341 H 0.89334 0.63672 0.29057 0.0
H342 H 0.90268 0.56407 0.21557 0.0
H343 H 0.97933 0.63548 0.25693 0.0
H344 H 0.01386 0.65847 0.29567 0.0
H345 H 0.05213 0.58057 0.3004 0.0
H346 H 0.01755 0.55695 0.26198 0.0
H347 H 0.98694 0.53556 0.0907 0.0
H348 H 0.96304 0.56109 0.128 0.0
H349 H 0.99733 0.51049 0.1939 0.0
H350 H 0.02085 0.48524 0.15754 0.0
H351 H 0.00818 0.56881 0.20725 0.0
H352 H 0.92897 0.49496 0.17389 0.0
H353 H 0.89442 0.46859 0.13695 0.0
H354 H 0.86158 0.54748 0.1183 0.0
H355 H 0.89619 0.5744 0.15505 0.0
C356 C 0.92878 0.58303 0.31553 0.0
C357 C 0.91298 0.60636 0.31647 0.0
C358 C 0.93875 0.57378 0.28932 0.0
C359 C 0.9327 0.58736 0.26357 0.0
C360 C 0.91591 0.60978 0.26419 0.0
C361 C 0.90614 0.61922 0.29047 0.0
C362 C 0.94466 0.57841 0.23623 0.0
C363 C 0.92575 0.56563 0.21342 0.0
C364 C 0.97473 0.58018 0.23371 0.0
C365 C 0.99571 0.59439 0.2567 0.0
C366 C 0.99497 0.62318 0.26637 0.0
C367 C 0.01458 0.63633 0.28825 0.0
C368 C 0.03514 0.62097 0.30052 0.0
C369 C 0.03618 0.59244 0.29089 0.0
C370 C 0.01661 0.57917 0.26903 0.0
C371 C 0.98914 0.52983 0.11314 0.0
C372 C 0.00603 0.50861 0.12118 0.0
C373 C 0.97552 0.54437 0.13434 0.0
C374 C 0.97873 0.53778 0.16367 0.0
C375 C 0.99489 0.5161 0.17144 0.0
C376 C 0.0083 0.50165 0.1505 0.0
C377 C 0.96624 0.55364 0.18695 0.0
C378 C 0.98511 0.56784 0.20905 0.0
C379 C 0.93621 0.55279 0.18892 0.0
C380 C 0.91536 0.53673 0.16694 0.0
C381 C 0.91454 0.50672 0.16174 0.0
C382 C 0.89492 0.49167 0.1409 0.0
C383 C 0.87587 0.50636 0.12526 0.0
C384 C 0.87638 0.53615 0.13044 0.0
C385 C 0.89596 0.55131 0.15129 0.0
H386 H 0.86066 0.49459 0.10923 0.0
H387 H 0.0503 0.6312 0.31746 0.0
H388 H 0.2457 0.06364 0.13843 0.0
H389 H 0.28977 0.04973 0.11954 0.0
H390 H 0.31134 0.13511 0.08609 0.0
H391 H 0.26678 0.14883 0.10453 0.0
H392 H 0.31823 0.09487 0.04611 0.0
H393 H 0.34739 0.11186 0.14754 0.0
H394 H 0.34317 0.10519 0.20001 0.0
H395 H 0.34681 0.01418 0.18725 0.0
H396 H 0.35071 0.02026 0.13464 0.0
H397 H 0.46399 0.09949 0.01776 0.0
H398 H 0.41694 0.10496 0.03482 0.0
H399 H 0.40643 0.01737 0.06425 0.0
H400 H 0.45454 0.01194 0.04766 0.0
H401 H 0.3917 0.05345 0.10521 0.0
H402 H 0.36603 0.03644 0.00472 0.0
H403 H 0.37032 0.04239 0.95218 0.0
H404 H 0.35933 0.13187 0.9626 0.0
H405 H 0.35536 0.12658 0.01528 0.0
C406 C 0.26006 0.07957 0.1274 0.0
C407 C 0.25294 0.10745 0.12319 0.0
C408 C 0.28532 0.07161 0.11664 0.0
C409 C 0.30419 0.0914 0.10155 0.0
C410 C 0.29724 0.11941 0.09765 0.0
C411 C 0.27191 0.12734 0.10835 0.0
C412 C 0.33053 0.08262 0.08888 0.0
C413 C 0.33444 0.08614 0.05915 0.0
C414 C 0.35125 0.0701 0.1055 0.0
C415 C 0.34905 0.06647 0.13713 0.0
C416 C 0.34708 0.09039 0.1559 0.0
C417 C 0.34479 0.08672 0.18567 0.0
C418 C 0.34465 0.05927 0.19694 0.0
C419 C 0.34689 0.03543 0.17848 0.0
C420 C 0.34917 0.03898 0.1487 0.0
C421 C 0.45161 0.08112 0.02745 0.0
C422 C 0.46316 0.05522 0.03127 0.0
C423 C 0.42449 0.08427 0.03713 0.0
C424 C 0.40778 0.06153 0.05061 0.0
C425 C 0.41882 0.03525 0.05383 0.0
C426 C 0.44621 0.03205 0.0441 0.0
C427 C 0.37966 0.06622 0.06256 0.0
C428 C 0.37537 0.06193 0.09211 0.0
C429 C 0.35847 0.07789 0.04575 0.0
C430 C 0.36058 0.08114 0.01401 0.0
C431 C 0.3647 0.05743 0.99584 0.0
C432 C 0.36705 0.06069 0.96603 0.0
C433 C 0.36515 0.0875 0.95406 0.0
C434 C 0.3608 0.11111 0.97189 0.0
C435 C 0.35846 0.10798 1.00173 0.0
H436 H 0.367 0.08998 0.93098 0.0
H437 H 0.34286 0.05647 0.21999 0.0
H438 H 0.30461 0.90576 0.65563 0.0
H439 H 0.25897 0.91646 0.63385 0.0
H440 H 0.29671 0.92417 0.55052 0.0
H441 H 0.34231 0.91322 0.57213 0.0
H442 H 0.26618 0.97052 0.56694 0.0
H443 H 0.25225 0.86636 0.55917 0.0
H444 H 0.25142 0.81708 0.57721 0.0
H445 H 0.18758 0.83254 0.63718 0.0
H446 H 0.18834 0.88209 0.6198 0.0
H447 H 0.13254 0.99329 0.50292 0.0
H448 H 0.17574 0.96947 0.50867 0.0
H449 H 0.14866 0.94042 0.59229 0.0
H450 H 0.10559 0.96343 0.58615 0.0
H451 H 0.17518 0.90139 0.56837 0.0
H452 H 0.19391 0.00556 0.58422 0.0
H453 H 0.19489 0.05643 0.57076 0.0
H454 H 0.24959 0.043 0.50106 0.0
H455 H 0.24863 0.9919 0.51392 0.0
C456 C 0.30315 0.90983 0.6327 0.0
C457 C 0.32693 0.90863 0.61554 0.0
C458 C 0.27708 0.91573 0.62026 0.0
C459 C 0.27445 0.92085 0.59054 0.0
C460 C 0.29829 0.92013 0.57346 0.0
C461 C 0.32424 0.9138 0.58579 0.0
C462 C 0.24694 0.92758 0.57751 0.0
C463 C 0.24636 0.95522 0.56666 0.0
C464 C 0.22104 0.90781 0.57782 0.0
C465 C 0.22053 0.87803 0.58833 0.0
C466 C 0.23822 0.85935 0.57638 0.0
C467 C 0.23772 0.83135 0.58645 0.0
C468 C 0.2195 0.82171 0.60837 0.0
C469 C 0.2017 0.84004 0.62022 0.0
C470 C 0.20213 0.86808 0.61024 0.0
C471 C 0.13539 0.98075 0.52187 0.0
C472 C 0.11584 0.97984 0.544 0.0
C473 C 0.16017 0.96748 0.52536 0.0
C474 C 0.16575 0.95363 0.5512 0.0
C475 C 0.14493 0.95092 0.57219 0.0
C476 C 0.12028 0.96401 0.56866 0.0
C477 C 0.19423 0.94457 0.55816 0.0
C478 C 0.19506 0.91652 0.56803 0.0
C479 C 0.2203 0.96419 0.55755 0.0
C480 C 0.22088 0.99485 0.54977 0.0
C481 C 0.20596 0.01341 0.56588 0.0
C482 C 0.20654 0.04228 0.55839 0.0
C483 C 0.2222 0.05291 0.535 0.0
C484 C 0.2374 0.03471 0.51911 0.0
C485 C 0.23684 0.00579 0.52649 0.0
H486 H 0.22264 0.07528 0.52923 0.0
H487 H 0.21914 0.80002 0.61613 0.0
H488 H 0.73787 0.41947 0.87321 0.0
H489 H 0.78388 0.43495 0.8996 0.0
H490 H 0.74612 0.40825 0.9796 0.0
H491 H 0.69948 0.39292 0.95326 0.0
H492 H 0.79296 0.46312 0.98091 0.0
H493 H 0.77328 0.36093 0.95505 0.0
H494 H 0.75508 0.31939 0.92146 0.0
H495 H 0.81831 0.35013 0.86093 0.0
H496 H 0.83647 0.39224 0.89391 0.0
H497 H 0.93951 0.45187 0.0333 0.0
H498 H 0.88728 0.43604 0.02491 0.0
H499 H 0.89473 0.45204 0.93391 0.0
H500 H 0.94633 0.46861 0.94226 0.0
H501 H 0.86014 0.39731 0.94805 0.0
H502 H 0.87697 0.50095 0.97184 0.0
H503 H 0.89387 0.54421 0.00357 0.0
H504 H 0.83484 0.51201 0.06742 0.0
H505 H 0.8185 0.46787 0.03662 0.0
C506 C 0.73895 0.41791 0.89656 0.0
C507 C 0.71515 0.40475 0.91116 0.0
C508 C 0.7653 0.42667 0.91158 0.0
C509 C 0.76828 0.42241 0.94138 0.0
C510 C 0.74407 0.41167 0.95656 0.0
C511 C 0.71761 0.40275 0.94149 0.0
C512 C 0.79746 0.42489 0.95515 0.0
C513 C 0.80756 0.4484 0.97441 0.0
C514 C 0.8163 0.40564 0.94637 0.0
C515 C 0.80611 0.37984 0.92687 0.0
C516 C 0.78318 0.35894 0.93449 0.0
C517 C 0.77287 0.33529 0.91557 0.0
C518 C 0.78551 0.33214 0.88906 0.0
C519 C 0.80854 0.3526 0.88147 0.0
C520 C 0.81887 0.37636 0.90028 0.0
C521 C 0.92992 0.45154 0.0115 0.0
C522 C 0.94669 0.46146 0.98839 0.0
C523 C 0.90024 0.44267 0.00679 0.0
C524 C 0.88737 0.44305 0.97884 0.0
C525 C 0.9044 0.45162 0.9556 0.0
C526 C 0.93377 0.46112 0.9604 0.0
C527 C 0.85596 0.43592 0.97343 0.0
C528 C 0.84541 0.41152 0.95547 0.0
C529 C 0.83682 0.45435 0.98354 0.0
C530 C 0.84696 0.48076 1.00218 0.0
C531 C 0.86802 0.50276 0.99291 0.0
C532 C 0.8775 0.52747 0.01073 0.0
C533 C 0.86568 0.5307 0.03766 0.0
C534 C 0.84427 0.50929 0.04675 0.0
C535 C 0.83496 0.48437 0.02915 0.0
H536 H 0.87295 0.54989 0.05139 0.0
H537 H 0.77749 0.31383 0.87442 0.0
H538 H 0.8461 0.65692 0.45225 0.0
H539 H 0.79979 0.64089 0.47248 0.0
H540 H 0.81986 0.55358 0.47577 0.0
H541 H 0.8661 0.56957 0.45418 0.0
H542 H 0.76959 0.55068 0.45417 0.0
H543 H 0.81396 0.59712 0.53962 0.0
H544 H 0.84376 0.63509 0.57074 0.0
H545 H 0.78497 0.69479 0.55115 0.0
H546 H 0.75502 0.65733 0.51956 0.0
H547 H 0.62868 0.54998 0.5334 0.0
H548 H 0.68143 0.56118 0.53764 0.0
H549 H 0.68248 0.58442 0.44806 0.0
H550 H 0.63016 0.57321 0.44356 0.0
H551 H 0.7247 0.60866 0.52656 0.0
H552 H 0.72945 0.54565 0.41543 0.0
H553 H 0.69966 0.50556 0.38697 0.0
H554 H 0.66154 0.47342 0.46452 0.0
H555 H 0.69212 0.51237 0.49369 0.0
C556 C 0.84088 0.63442 0.45783 0.0
C557 C 0.85968 0.61449 0.45189 0.0
C558 C 0.81445 0.62528 0.46961 0.0
C559 C 0.80649 0.59612 0.47634 0.0
C560 C 0.82557 0.57623 0.47096 0.0
C561 C 0.85191 0.58531 0.45864 0.0
C562 C 0.77704 0.58624 0.48601 0.0
C563 C 0.75997 0.56311 0.47034 0.0
C564 C 0.76457 0.60176 0.50781 0.0
C565 C 0.78224 0.62436 0.52715 0.0
C566 C 0.80743 0.61837 0.54184 0.0
C567 C 0.82436 0.63982 0.55958 0.0
C568 C 0.81626 0.66733 0.56292 0.0
C569 C 0.79119 0.67344 0.54858 0.0
C570 C 0.77418 0.65208 0.5308 0.0
C571 C 0.64013 0.5582 0.51485 0.0
C572 C 0.62533 0.56025 0.48799 0.0
C573 C 0.67023 0.56455 0.51732 0.0
C574 C 0.68573 0.57297 0.49298 0.0
C575 C 0.67083 0.57743 0.46694 0.0
C576 C 0.64093 0.57103 0.46442 0.0
C577 C 0.71737 0.57455 0.49338 0.0
C578 C 0.73469 0.5959 0.51099 0.0
C579 C 0.7303 0.55679 0.47402 0.0
C580 C 0.71298 0.5322 0.45676 0.0
C581 C 0.71505 0.5298 0.42651 0.0
C582 C 0.69806 0.5072 0.41025 0.0
C583 C 0.67879 0.4869 0.42395 0.0
C584 C 0.67663 0.48903 0.45397 0.0
C585 C 0.69385 0.51133 0.47039 0.0
H586 H 0.66551 0.46954 0.41131 0.0
H587 H 0.82942 0.68391 0.57663 0.0
H588 H 0.19899 0.23204 0.13615 0.0
H589 H 0.17972 0.27117 0.11135 0.0
H590 H 0.09334 0.22646 0.11856 0.0
H591 H 0.11253 0.18719 0.14348 0.0
H592 H 0.10277 0.24901 0.06334 0.0
H593 H 0.11567 0.28151 0.16299 0.0
H594 H 0.14216 0.29291 0.21022 0.0
H595 H 0.20305 0.35609 0.1711 0.0
H596 H 0.17716 0.34473 0.12349 0.0
H597 H 0.02149 0.36662 0.04873 0.0
H598 H 0.04431 0.32475 0.06218 0.0
H599 H 0.12796 0.37425 0.05132 0.0
H600 H 0.10505 0.41613 0.03716 0.0
H601 H 0.12219 0.34947 0.10605 0.0
H602 H 0.10672 0.31892 0.00659 0.0
H603 H 0.07947 0.30736 0.95981 0.0
H604 H 0.02253 0.24055 0.99882 0.0
H605 H 0.04916 0.25203 0.04601 0.0
C606 C 0.17589 0.23042 0.13229 0.0
C607 C 0.15731 0.20647 0.14187 0.0
C608 C 0.16489 0.25289 0.11821 0.0
C609 C 0.13504 0.25189 0.11315 0.0
C610 C 0.11643 0.22775 0.12219 0.0
C611 C 0.12742 0.20542 0.13662 0.0
C612 C 0.1233 0.27635 0.09906 0.0
C613 C 0.10676 0.27092 0.07283 0.0
C614 C 0.12902 0.30512 0.11103 0.0
C615 C 0.14467 0.31202 0.1396 0.0
C616 C 0.13488 0.29763 0.16439 0.0
C617 C 0.14975 0.30412 0.19124 0.0
C618 C 0.17433 0.32514 0.19364 0.0
C619 C 0.18404 0.33977 0.16919 0.0
C620 C 0.16927 0.33332 0.14227 0.0
C621 C 0.0447 0.36823 0.04816 0.0
C622 C 0.06143 0.39454 0.04144 0.0
C623 C 0.05775 0.34432 0.05602 0.0
C624 C 0.0879 0.34629 0.05786 0.0
C625 C 0.10467 0.37217 0.05001 0.0
C626 C 0.09155 0.39597 0.04154 0.0
C627 C 0.10162 0.32218 0.07028 0.0
C628 C 0.11843 0.32764 0.09636 0.0
C629 C 0.09602 0.29344 0.05821 0.0
C630 C 0.07978 0.28655 0.02994 0.0
C631 C 0.0882 0.30197 0.00529 0.0
C632 C 0.0729 0.29539 0.97867 0.0
C633 C 0.04924 0.27328 0.97636 0.0
C634 C 0.04085 0.25769 1.00066 0.0
C635 C 0.05605 0.26421 0.02735 0.0
H636 H 0.03744 0.2682 0.95572 0.0
H637 H 0.1858 0.33016 0.21446 0.0
H638 H 0.64828 0.29975 0.83997 0.0
H639 H 0.64093 0.24756 0.84778 0.0
H640 H 0.6438 0.26495 0.94017 0.0
H641 H 0.64959 0.31703 0.93271 0.0
H642 H 0.68537 0.22635 0.91314 0.0
H643 H 0.58442 0.24378 0.91755 0.0
H644 H 0.54042 0.25895 0.8958 0.0
H645 H 0.53993 0.19649 0.82524 0.0
H646 H 0.58422 0.18126 0.84643 0.0
H647 H 0.63005 0.13489 0.01423 0.0
H648 H 0.65035 0.16789 0.97865 0.0
H649 H 0.608 0.11013 0.90958 0.0
H650 H 0.58687 0.07696 0.94577 0.0
H651 H 0.5919 0.16063 0.90579 0.0
H652 H 0.68347 0.1323 0.91226 0.0
H653 H 0.72704 0.11668 0.93438 0.0
H654 H 0.74695 0.198 0.98272 0.0
H655 H 0.7033 0.21397 0.96133 0.0
C656 C 0.64652 0.29252 0.86193 0.0
C657 C 0.64967 0.31262 0.88578 0.0
C658 C 0.64265 0.26272 0.86629 0.0
C659 C 0.64223 0.2527 0.89449 0.0
C660 C 0.64443 0.27252 0.91824 0.0
C661 C 0.6478 0.30221 0.91393 0.0
C662 C 0.64046 0.2216 0.89981 0.0
C663 C 0.66508 0.21171 0.91146 0.0
C664 C 0.61429 0.20243 0.89602 0.0
C665 C 0.58784 0.21173 0.88329 0.0
C666 C 0.57513 0.23355 0.89721 0.0
C667 C 0.55009 0.24209 0.88504 0.0
C668 C 0.53745 0.22878 0.85908 0.0
C669 C 0.54979 0.20685 0.84529 0.0
C670 C 0.57485 0.19826 0.85736 0.0
C671 C 0.62592 0.12867 0.99144 0.0
C672 C 0.60664 0.10368 0.98267 0.0
C673 C 0.6378 0.14745 0.97099 0.0
C674 C 0.63082 0.14152 0.94131 0.0
C675 C 0.61374 0.11508 0.93236 0.0
C676 C 0.60181 0.0961 0.95299 0.0
C677 C 0.63655 0.16556 0.92118 0.0
C678 C 0.61268 0.17443 0.9065 0.0
C679 C 0.66356 0.18373 0.92205 0.0
C680 C 0.69004 0.17436 0.93506 0.0
C681 C 0.69705 0.14682 0.92771 0.0
C682 C 0.72179 0.1379 0.94013 0.0
C683 C 0.73977 0.15635 0.95991 0.0
C684 C 0.73305 0.18376 0.96732 0.0
C685 C 0.70833 0.19279 0.95499 0.0
H686 H 0.75891 0.14939 0.96951 0.0
H687 H 0.51805 0.2354 0.84971 0.0
H688 H 0.90749 0.71211 0.43878 0.0
H689 H 0.93454 0.75901 0.45601 0.0
H690 H 0.01269 0.72095 0.46208 0.0
H691 H 0.98565 0.67383 0.44401 0.0
H692 H 0.99023 0.76032 0.51544 0.0
H693 H 0.02143 0.75717 0.41617 0.0
H694 H 0.01168 0.74749 0.36356 0.0
H695 H 0.95301 0.80984 0.36221 0.0
H696 H 0.96208 0.81955 0.41491 0.0
H697 H 0.04717 0.92548 0.48509 0.0
H698 H 0.05169 0.87371 0.4828 0.0
H699 H 0.96959 0.85387 0.52165 0.0
H700 H 0.96499 0.90537 0.52346 0.0
H701 H 0.00993 0.84015 0.44738 0.0
H702 H 0.96402 0.78899 0.55146 0.0
H703 H 0.96824 0.79927 0.6043 0.0
H704 H 0.05282 0.84712 0.59679 0.0
H705 H 0.04928 0.83687 0.54394 0.0
C706 C 0.93046 0.71382 0.44372 0.0
C707 C 0.94462 0.68957 0.44017 0.0
C708 C 0.94581 0.74048 0.45356 0.0
C709 C 0.97546 0.74322 0.46039 0.0
C710 C 0.98976 0.71906 0.45696 0.0
C711 C 0.97443 0.69237 0.44654 0.0
C712 C 0.99107 0.77176 0.47072 0.0
C713 C 0.99518 0.77778 0.50069 0.0
C714 C 0.99735 0.79428 0.45128 0.0
C715 C 0.99234 0.78896 0.41949 0.0
C716 C 0.00631 0.76867 0.40468 0.0
C717 C 1.00093 0.7632 0.37484 0.0
C718 C 0.98171 0.77802 0.35956 0.0
C719 C 0.9679 0.79839 0.37407 0.0
C720 C 0.97319 0.80392 0.40391 0.0
C721 C 0.03098 0.91014 0.49464 0.0
C722 C 0.00591 0.91916 0.50476 0.0
C723 C 0.03343 0.88061 0.49309 0.0
C724 C 0.01096 0.85997 0.502 0.0
C725 C 0.98738 0.86942 0.51504 0.0
C726 C 0.98478 0.89884 0.5162 0.0
C727 C 0.00884 0.8291 0.49234 0.0
C728 C 0.00648 0.82265 0.46233 0.0
C729 C 0.00385 0.80633 0.51181 0.0
C730 C 0.00638 0.81211 0.54369 0.0
C731 C 0.98364 0.80147 0.56109 0.0
C732 C 0.98589 0.80733 0.59105 0.0
C733 C 0.01083 0.82372 0.6039 0.0
C734 C 0.03354 0.83438 0.58681 0.0
C735 C 0.03139 0.82859 0.55684 0.0
H736 H 0.0125 0.82829 0.6271 0.0
H737 H 0.97755 0.77373 0.33646 0.0
H738 H 0.39534 0.81506 0.55483 0.0
H739 H 0.41015 0.76898 0.53873 0.0
H740 H 0.48923 0.79026 0.59127 0.0
H741 H 0.47455 0.83635 0.60707 0.0
H742 H 0.49914 0.76941 0.53781 0.0
H743 H 0.43264 0.74248 0.61293 0.0
H744 H 0.38601 0.73877 0.63606 0.0
H745 H 0.34411 0.6902 0.56143 0.0
H746 H 0.39045 0.69394 0.5377 0.0
H747 H 0.54377 0.63584 0.57261 0.0
H748 H 0.52702 0.68304 0.57017 0.0
H749 H 0.46075 0.64704 0.50598 0.0
H750 H 0.47774 0.59983 0.50819 0.0
H751 H 0.44078 0.67459 0.55594 0.0
H752 H 0.50778 0.69589 0.48341 0.0
H753 H 0.55429 0.69876 0.46017 0.0
H754 H 0.59479 0.75701 0.52893 0.0
H755 H 0.5486 0.75416 0.55285 0.0
C756 C 0.41593 0.80984 0.56273 0.0
C757 C 0.43406 0.82933 0.58176 0.0
C758 C 0.42432 0.78354 0.55366 0.0
C759 C 0.45081 0.77616 0.56381 0.0
C760 C 0.46881 0.7956 0.58299 0.0
C761 C 0.46043 0.82185 0.59205 0.0
C762 C 0.45986 0.74814 0.55477 0.0
C763 C 0.48645 0.74868 0.54193 0.0
C764 C 0.44281 0.72107 0.55913 0.0
C765 C 0.41494 0.71886 0.57337 0.0
C766 C 0.41344 0.73126 0.60134 0.0
C767 C 0.38706 0.72909 0.61458 0.0
C768 C 0.36209 0.71436 0.60018 0.0
C769 C 0.36345 0.70168 0.57253 0.0
C770 C 0.38977 0.70381 0.55917 0.0
C771 C 0.52614 0.63829 0.55742 0.0
C772 C 0.5123 0.61447 0.54021 0.0
C773 C 0.51659 0.66518 0.55602 0.0
C774 C 0.49271 0.66855 0.5378 0.0
C775 C 0.47933 0.64495 0.51999 0.0
C776 C 0.48924 0.61813 0.52099 0.0
C777 C 0.48038 0.69595 0.53976 0.0
C778 C 0.45322 0.69532 0.55136 0.0
C779 C 0.49684 0.72291 0.53418 0.0
C780 C 0.52476 0.72462 0.52004 0.0
C781 C 0.52666 0.7091 0.49373 0.0
C782 C 0.55296 0.71077 0.4804 0.0
C783 C 0.57749 0.72801 0.49309 0.0
C784 C 0.57577 0.74365 0.51913 0.0
C785 C 0.54952 0.74204 0.53257 0.0
H786 H 0.59782 0.7293 0.48272 0.0
H787 H 0.34169 0.71269 0.61048 0.0
H788 H 0.94778 0.88735 0.83736 0.0
H789 H 0.9665 0.90714 0.79227 0.0
H790 H 0.87974 0.90473 0.75681 0.0
H791 H 0.86087 0.88493 0.80187 0.0
H792 H 0.91813 0.88479 0.71651 0.0
H793 H 0.91377 0.96691 0.782 0.0
H794 H 0.92395 0.99545 0.82818 0.0
H795 H 0.01485 1.00035 0.8176 0.0
H796 H 0.0052 0.97145 0.77155 0.0
H797 H 0.9614 0.97642 0.59741 0.0
H798 H 0.93672 0.95247 0.63813 0.0
H799 H 0.01608 0.9693 0.69072 0.0
H800 H 0.04008 0.99387 0.65111 0.0
H801 H 0.97721 0.98238 0.72177 0.0
H802 H 0.9846 0.90034 0.65889 0.0
H803 H 0.97741 0.87051 0.61338 0.0
H804 H 0.8857 0.86211 0.61974 0.0
H805 H 0.89232 0.89273 0.66486 0.0
C806 C 0.93268 0.89073 0.81986 0.0
C807 C 0.90281 0.88467 0.82333 0.0
C808 C 0.9434 0.90217 0.79412 0.0
C809 C 0.92454 0.90759 0.77114 0.0
C810 C 0.89473 0.90076 0.77419 0.0
C811 C 0.88398 0.88964 0.80006 0.0
C812 C 0.93596 0.9215 0.74448 0.0
C813 C 0.93076 0.90629 0.71751 0.0
C814 C 0.95294 0.94927 0.74584 0.0
C815 C 0.95875 0.9668 0.77345 0.0
C816 C 0.93593 0.97388 0.78963 0.0
C817 C 0.9416 0.99015 0.81577 0.0
C818 C 0.97003 0.99965 0.82585 0.0
C819 C 0.99284 0.99295 0.80978 0.0
C820 C 0.98728 0.97665 0.78365 0.0
C821 C 0.97349 0.9748 0.61764 0.0
C822 C 1.00264 0.98736 0.62102 0.0
C823 C 0.95942 0.96103 0.64094 0.0
C824 C 0.97444 0.95897 0.66779 0.0
C825 C 0.00373 0.97079 0.6706 0.0
C826 C 0.01752 0.98485 0.64774 0.0
C827 C 0.96009 0.9455 0.69351 0.0
C828 C 0.96458 0.96088 0.72047 0.0
C829 C 0.94301 0.91764 0.69214 0.0
C830 C 0.93896 0.89915 0.66507 0.0
C831 C 0.96289 0.89237 0.65045 0.0
C832 C 0.95892 0.87527 0.62475 0.0
C833 C 0.93113 0.86436 0.61369 0.0
C834 C 0.90723 0.8706 0.62831 0.0
C835 C 0.91107 0.88789 0.65392 0.0
H836 H 0.92813 0.85106 0.59382 0.0
H837 H 0.97438 0.01226 0.84609 0.0
H838 H 0.62771 0.11898 0.34046 0.0
H839 H 0.61007 0.09434 0.29429 0.0
H840 H 0.69747 0.09018 0.27161 0.0
H841 H 0.71535 0.11623 0.31707 0.0
H842 H 0.66887 0.10619 0.22711 0.0
H843 H 0.65052 0.02918 0.29267 0.0
H844 H 0.63159 0.00499 0.33599 0.0
H845 H 0.54534 0.01359 0.30682 0.0
H846 H 0.56379 0.03822 0.26351 0.0
H847 H 0.62119 0.02235 0.09873 0.0
H848 H 0.6433 0.03054 0.1482 0.0
H849 H 0.56256 0.04922 0.17936 0.0
H850 H 0.54071 0.0413 0.13023 0.0
H851 H 0.59165 0.02088 0.21969 0.0
H852 H 0.61062 0.10303 0.15827 0.0
H853 H 0.62891 0.12798 0.11508 0.0
H854 H 0.71399 0.10983 0.13715 0.0
H855 H 0.69607 0.08436 0.18027 0.0
C856 C 0.64325 0.11303 0.32561 0.0
C857 C 0.67302 0.11964 0.33265 0.0
C858 C 0.63308 0.09853 0.29931 0.0
C859 C 0.65238 0.08988 0.27955 0.0
C860 C 0.6821 0.09641 0.28651 0.0
C861 C 0.69229 0.11109 0.31272 0.0
C862 C 0.64164 0.07515 0.25113 0.0
C863 C 0.65244 0.08714 0.2256 0.0
C864 C 0.61977 0.0506 0.24893 0.0
C865 C 0.60858 0.03575 0.27494 0.0
C866 C 0.62754 0.02611 0.29559 0.0
C867 C 0.61688 0.01229 0.32013 0.0
C868 C 0.58729 0.0078 0.32418 0.0
C869 C 0.56827 0.01709 0.30366 0.0
C870 C 0.57881 0.03096 0.2791 0.0
C871 C 0.60795 0.02696 0.11641 0.0
C872 C 0.57923 0.03099 0.11082 0.0
C873 C 0.62064 0.03198 0.14458 0.0
C874 C 0.60468 0.04092 0.16742 0.0
C875 C 0.57531 0.04237 0.16216 0.0
C876 C 0.5628 0.03773 0.1341 0.0
C877 C 0.61886 0.05201 0.1959 0.0
C878 C 0.60854 0.03952 0.22137 0.0
C879 C 0.64116 0.07613 0.19811 0.0
C880 C 0.65194 0.09144 0.17224 0.0
C881 C 0.63317 0.10413 0.15376 0.0
C882 C 0.64348 0.1184 0.12932 0.0
C883 C 0.67258 0.1204 0.12331 0.0
C884 C 0.69144 0.10819 0.14179 0.0
C885 C 0.68122 0.09383 0.16622 0.0
H886 H 0.68052 0.13147 0.1044 0.0
H887 H 0.57908 0.99709 0.34319 0.0
H888 H 0.46575 0.64555 0.26424 0.0
H889 H 0.46644 0.63571 0.31602 0.0
H890 H 0.37358 0.6217 0.31296 0.0
H891 H 0.37268 0.63096 0.26103 0.0
H892 H 0.4142 0.6553 0.36965 0.0
H893 H 0.38781 0.56534 0.30479 0.0
H894 H 0.39779 0.53703 0.26126 0.0
H895 H 0.48559 0.53985 0.2927 0.0
H896 H 0.47618 0.56854 0.33619 0.0
H897 H 0.44519 0.51434 0.44853 0.0
H898 H 0.41029 0.54309 0.42829 0.0
H899 H 0.47538 0.61909 0.43433 0.0
H900 H 0.50968 0.59059 0.4554 0.0
H901 H 0.4349 0.55462 0.37826 0.0
H902 H 0.45204 0.6772 0.40956 0.0
H903 H 0.45157 0.70937 0.45295 0.0
H904 H 0.39246 0.64424 0.49163 0.0
H905 H 0.39248 0.61164 0.44844 0.0
C906 C 0.44553 0.64109 0.2748 0.0
C907 C 0.41918 0.63931 0.25884 0.0
C908 C 0.44595 0.63578 0.30432 0.0
C909 C 0.42004 0.62854 0.31817 0.0
C910 C 0.3937 0.62794 0.30263 0.0
C911 C 0.39326 0.63296 0.27303 0.0
C912 C 0.42066 0.61595 0.34686 0.0
C913 C 0.41827 0.63317 0.37186 0.0
C914 C 0.42605 0.5872 0.3493 0.0
C915 C 0.43131 0.56915 0.3236 0.0
C916 C 0.40925 0.56001 0.30232 0.0
C917 C 0.41481 0.5439 0.27767 0.0
C918 C 0.44231 0.53667 0.2742 0.0
C919 C 0.4643 0.54545 0.29541 0.0
C920 C 0.45885 0.5616 0.32006 0.0
C921 C 0.45125 0.53763 0.44754 0.0
C922 C 0.47996 0.55039 0.45286 0.0
C923 C 0.43131 0.55411 0.43607 0.0
C924 C 0.4405 0.58299 0.4289 0.0
C925 C 0.46772 0.59686 0.43949 0.0
C926 C 0.48748 0.58048 0.45135 0.0
C927 C 0.42831 0.5937 0.402 0.0
C928 C 0.42928 0.57629 0.37673 0.0
C929 C 0.42252 0.62249 0.39963 0.0
C930 C 0.42217 0.642 0.42565 0.0
C931 C 0.43874 0.6698 0.4272 0.0
C932 C 0.43863 0.68808 0.4518 0.0
C933 C 0.42184 0.67892 0.47492 0.0
C934 C 0.40535 0.65134 0.47363 0.0
C935 C 0.40551 0.6329 0.44914 0.0
H936 H 0.42173 0.69317 0.49387 0.0
H937 H 0.44658 0.52424 0.25509 0.0
H938 H 0.13339 0.36235 0.71761 0.0
H939 H 0.12823 0.36828 0.76992 0.0
H940 H 0.11288 0.45623 0.759 0.0
H941 H 0.11647 0.4502 0.70676 0.0
H942 H 0.15686 0.44806 0.80373 0.0
H943 H 0.05838 0.40872 0.76793 0.0
H944 H 0.02254 0.37075 0.7432 0.0
H945 H 0.04489 0.30855 0.80342 0.0
H946 H 0.08118 0.34611 0.82826 0.0
H947 H 0.08317 0.51284 0.90425 0.0
H948 H 0.10417 0.48935 0.86474 0.0
H949 H 0.09373 0.40882 0.90934 0.0
H950 H 0.07187 0.43262 0.94946 0.0
H951 H 0.07221 0.401 0.85413 0.0
H952 H 0.16204 0.44225 0.89707 0.0
H953 H 0.1985 0.47903 0.92248 0.0
H954 H 0.19515 0.53518 0.85101 0.0
H955 H 0.1585 0.49882 0.82519 0.0
C956 C 0.1284 0.38281 0.72622 0.0
C957 C 0.1255 0.40586 0.70786 0.0
C958 C 0.12575 0.38619 0.75615 0.0
C959 C 0.12046 0.41275 0.7682 0.0
C960 C 0.11733 0.43567 0.75004 0.0
C961 C 0.11953 0.4322 0.72017 0.0
C962 C 0.11798 0.41708 0.79976 0.0
C963 C 0.13847 0.43774 0.81489 0.0
C964 C 0.09471 0.4025 0.8145 0.0
C965 C 0.07275 0.38009 0.79968 0.0
C966 C 0.05584 0.38688 0.77572 0.0
C967 C 0.03541 0.36545 0.76172 0.0
C968 C 0.03152 0.33723 0.77166 0.0
C969 C 0.04798 0.3304 0.79569 0.0
C970 C 0.06847 0.35174 0.80974 0.0
C971 C 0.08577 0.49025 0.906 0.0
C972 C 0.07573 0.47447 0.9298 0.0
C973 C 0.09806 0.47687 0.88345 0.0
C974 C 0.1009 0.44739 0.88418 0.0
C975 C 0.09193 0.43167 0.90848 0.0
C976 C 0.07963 0.44526 0.93138 0.0
C977 C 0.1104 0.43315 0.85788 0.0
C978 C 0.09126 0.41062 0.84352 0.0
C979 C 0.1352 0.44572 0.84395 0.0
C980 C 0.15747 0.46773 0.85918 0.0
C981 C 0.16898 0.46249 0.8868 0.0
C982 C 0.18969 0.48328 0.90128 0.0
C983 C 0.1991 0.50946 0.8884 0.0
C984 C 0.18787 0.51487 0.86095 0.0
C985 C 0.16719 0.49411 0.84632 0.0
H986 H 0.21511 0.52555 0.89969 0.0
H987 H 0.01569 0.32066 0.76079 0.0
H988 H 0.85154 0.93449 0.89338 0.0
H989 H 0.81185 0.95641 0.91281 0.0
H990 H 0.77135 0.87222 0.93743 0.0
H991 H 0.81049 0.85002 0.91721 0.0
H992 H 0.73297 0.89977 0.91124 0.0
H993 H 0.80604 0.9248 0.98766 0.0
H994 H 0.85382 0.946 0.00912 0.0
H995 H 0.84047 0.03022 0.98154 0.0
H996 H 0.79273 0.00944 0.95954 0.0
H997 H 0.63029 0.93003 0.00493 0.0
H998 H 0.67675 0.91954 0.98991 0.0
H999 H 0.69518 0.00496 0.95601 0.0
H1000 H 0.64802 0.01578 0.97122 0.0
H1001 H 0.7454 0.98176 0.98429 0.0
H1002 H 0.67122 0.95619 0.90922 0.0
H1003 H 0.62292 0.93443 0.88954 0.0
H1004 H 0.63869 0.85047 0.91574 0.0
H1005 H 0.68696 0.87183 0.93599 0.0
C1006 C 0.83414 0.92056 0.90281 0.0
C1007 C 0.83428 0.89038 0.90358 0.0
C1008 C 0.81155 0.93323 0.91423 0.0
C1009 C 0.78858 0.91609 0.92688 0.0
C1010 C 0.78879 0.886 0.92787 0.0
C1011 C 0.81136 0.87332 0.91648 0.0
C1012 C 0.76375 0.92915 0.93802 0.0
C1013 C 0.73581 0.91752 0.9274 0.0
C1014 C 0.76725 0.95298 0.95849 0.0
C1015 C 0.79595 0.9655 0.97166 0.0
C1016 C 0.8134 0.9478 0.98594 0.0
C1017 C 0.84045 0.95974 0.99825 0.0
C1018 C 0.85022 0.98942 0.99662 0.0
C1019 C 0.8329 0.00723 0.98274 0.0
C1020 C 0.80584 0.99538 0.97036 0.0
C1021 C 0.64441 0.94693 0.99485 0.0
C1022 C 0.63529 0.97367 0.98902 0.0
C1023 C 0.67102 0.94084 0.98624 0.0
C1024 C 0.68929 0.96122 0.97138 0.0
C1025 C 0.68138 0.98886 0.9674 0.0
C1026 C 0.65449 0.99507 0.97618 0.0
C1027 C 0.71487 0.95199 0.95776 0.0
C1028 C 0.74278 0.96425 0.96789 0.0
C1029 C 0.71147 0.92868 0.93681 0.0
C1030 C 0.68262 0.91566 0.9243 0.0
C1031 C 0.66431 0.93312 0.91096 0.0
C1032 C 0.63695 0.92086 0.89968 0.0
C1033 C 0.62772 0.89109 0.90144 0.0
C1034 C 0.64587 0.87353 0.91441 0.0
C1035 C 0.67324 0.88569 0.92576 0.0
H1036 H 0.60652 0.88164 0.8927 0.0
H1037 H 0.87116 0.99863 0.00618 0.0
H1038 H 0.73007 0.09227 0.41909 0.0
H1039 H 0.77312 0.08118 0.44581 0.0
H1040 H 0.81105 0.17126 0.44564 0.0
H1041 H 0.76779 0.18256 0.41925 0.0
H1042 H 0.84811 0.12941 0.42805 0.0
H1043 H 0.78957 0.15069 0.50578 0.0
H1044 H 0.74505 0.14718 0.53258 0.0
H1045 H 0.74569 0.05595 0.54183 0.0
H1046 H 0.79 0.05881 0.51468 0.0
H1047 H 0.96587 0.0903 0.51037 0.0
H1048 H 0.92681 0.1191 0.50125 0.0
H1049 H 0.86425 0.04159 0.50416 0.0
H1050 H 0.90287 0.01312 0.51343 0.0
H1051 H 0.84249 0.08709 0.52519 0.0
H1052 H 0.89277 0.06289 0.44027 0.0
H1053 H 0.9359 0.06293 0.4117 0.0
H1054 H 0.94935 0.15613 0.41411 0.0
H1055 H 0.90641 0.1566 0.44301 0.0
C1056 C 0.74763 0.10966 0.42472 0.0
C1057 C 0.74566 0.13825 0.41715 0.0
C1058 C 0.77209 0.10336 0.44008 0.0
C1059 C 0.79515 0.12546 0.44781 0.0
C1060 C 0.79343 0.15396 0.43993 0.0
C1061 C 0.76874 0.16037 0.42499 0.0
C1062 C 0.82114 0.11847 0.46376 0.0
C1063 C 0.84712 0.12082 0.44959 0.0
C1064 C 0.81962 0.1068 0.49161 0.0
C1065 C 0.793 0.10494 0.508 0.0
C1066 C 0.78009 0.12982 0.51331 0.0
C1067 C 0.75492 0.12796 0.52861 0.0
C1068 C 0.74252 0.10135 0.53886 0.0
C1069 C 0.75531 0.07655 0.53387 0.0
C1070 C 0.78047 0.07829 0.51855 0.0
C1071 C 0.9437 0.07974 0.51023 0.0
C1072 C 0.9373 0.04951 0.51239 0.0
C1073 C 0.92143 0.09611 0.50472 0.0
C1074 C 0.89263 0.08237 0.50143 0.0
C1075 C 0.88624 0.05268 0.50649 0.0
C1076 C 0.90835 0.03641 0.51178 0.0
C1077 C 0.86937 0.09748 0.48928 0.0
C1078 C 0.84377 0.09648 0.50402 0.0
C1079 C 0.87109 0.11 0.46175 0.0
C1080 C 0.89664 0.10979 0.44408 0.0
C1081 C 0.90503 0.08338 0.43484 0.0
C1082 C 0.92941 0.08331 0.41858 0.0
C1083 C 0.9454 0.10951 0.41117 0.0
C1084 C 0.93697 0.13585 0.41992 0.0
C1085 C 0.91261 0.13604 0.43623 0.0
H1086 H 0.96427 0.10937 0.3986 0.0
H1087 H 0.72303 0.09995 0.55071 0.0
H1088 H 0.33701 0.68006 0.10264 0.0
H1089 H 0.29496 0.6533 0.07623 0.0
H1090 H 0.31597 0.57311 0.10906 0.0
H1091 H 0.35952 0.59946 0.13384 0.0
H1092 H 0.28835 0.56352 0.05651 0.0
H1093 H 0.27384 0.61257 0.14686 0.0
H1094 H 0.27804 0.65487 0.18113 0.0
H1095 H 0.2299 0.69914 0.12047 0.0
H1096 H 0.22578 0.6572 0.08566 0.0
H1097 H 0.148 0.48682 0.07708 0.0
H1098 H 0.1974 0.51242 0.08239 0.0
H1099 H 0.17127 0.58532 0.03876 0.0
H1100 H 0.12179 0.55985 0.03318 0.0
H1101 H 0.20154 0.59983 0.09199 0.0
H1102 H 0.21101 0.54538 0.00418 0.0
H1103 H 0.20596 0.50092 0.9729 0.0
H1104 H 0.26241 0.46405 0.03186 0.0
H1105 H 0.26739 0.50816 0.06383 0.0
C1106 C 0.33354 0.65663 0.10336 0.0
C1107 C 0.35143 0.64202 0.12099 0.0
C1108 C 0.30922 0.64137 0.08842 0.0
C1109 C 0.30188 0.61137 0.09146 0.0
C1110 C 0.32105 0.59633 0.10671 0.0
C1111 C 0.34574 0.61151 0.12121 0.0
C1112 C 0.2726 0.59656 0.08237 0.0
C1113 C 0.26936 0.57136 0.0643 0.0
C1114 C 0.24781 0.60691 0.09247 0.0
C1115 C 0.24976 0.6319 0.11357 0.0
C1116 C 0.26428 0.63139 0.14079 0.0
C1117 C 0.26665 0.65529 0.1603 0.0
C1118 C 0.25431 0.67971 0.15295 0.0
C1119 C 0.23948 0.68022 0.12611 0.0
C1120 C 0.23711 0.6564 0.10649 0.0
C1121 C 0.15279 0.50823 0.06844 0.0
C1122 C 0.13101 0.5214 0.05484 0.0
C1123 C 0.18104 0.52271 0.07133 0.0
C1124 C 0.18791 0.55062 0.06076 0.0
C1125 C 0.16631 0.56372 0.04692 0.0
C1126 C 0.13811 0.54914 0.04378 0.0
C1127 C 0.21724 0.56689 0.06603 0.0
C1128 C 0.22048 0.59225 0.08371 0.0
C1129 C 0.24188 0.55637 0.05593 0.0
C1130 C 0.2394 0.53001 0.03652 0.0
C1131 C 0.2222 0.52772 0.01059 0.0
C1132 C 0.21938 0.50259 0.99271 0.0
C1133 C 0.23384 0.47965 1.00038 0.0
C1134 C 0.25122 0.48184 0.02594 0.0
C1135 C 0.25407 0.50692 0.04394 0.0
H1136 H 0.2316 0.46019 0.9865 0.0
H1137 H 0.25618 0.69821 0.16807 0.0
H1138 H 0.20984 0.48779 0.5775 0.0
H1139 H 0.2545 0.48171 0.55422 0.0
H1140 H 0.26531 0.41096 0.60957 0.0
H1141 H 0.22064 0.41721 0.63299 0.0
H1142 H 0.3099 0.45559 0.61543 0.0
H1143 H 0.25645 0.39948 0.53653 0.0
H1144 H 0.21869 0.38949 0.4972 0.0
H1145 H 0.25615 0.46523 0.45425 0.0
H1146 H 0.29391 0.47594 0.49353 0.0
H1147 H 0.44787 0.44892 0.57489 0.0
H1148 H 0.39656 0.43093 0.57829 0.0
H1149 H 0.37579 0.49374 0.51723 0.0
H1150 H 0.42737 0.51035 0.51237 0.0
H1151 H 0.33523 0.44806 0.51259 0.0
H1152 H 0.38175 0.50951 0.59138 0.0
H1153 H 0.41846 0.52513 0.63081 0.0
H1154 H 0.39223 0.44626 0.67429 0.0
H1155 H 0.35561 0.43 0.63488 0.0
C1156 C 0.22135 0.4704 0.58402 0.0
C1157 C 0.21231 0.45332 0.60733 0.0
C1158 C 0.24677 0.46684 0.57066 0.0
C1159 C 0.2633 0.44596 0.58026 0.0
C1160 C 0.25289 0.42724 0.60189 0.0
C1161 C 0.22745 0.43078 0.61522 0.0
C1162 C 0.29332 0.44691 0.57129 0.0
C1163 C 0.31541 0.45316 0.59299 0.0
C1164 C 0.30046 0.44517 0.5419 0.0
C1165 C 0.27793 0.43861 0.5181 0.0
C1166 C 0.25654 0.41413 0.51881 0.0
C1167 C 0.23514 0.40831 0.4965 0.0
C1168 C 0.235 0.42673 0.47326 0.0
C1169 C 0.25629 0.45097 0.47225 0.0
C1170 C 0.27772 0.4569 0.49452 0.0
C1171 C 0.4323 0.45808 0.56144 0.0
C1172 C 0.4413 0.48101 0.5435 0.0
C1173 C 0.40303 0.44799 0.56351 0.0
C1174 C 0.38228 0.46164 0.54875 0.0
C1175 C 0.39136 0.48299 0.52897 0.0
C1176 C 0.42078 0.49249 0.5262 0.0
C1177 C 0.35172 0.45634 0.55682 0.0
C1178 C 0.32964 0.44977 0.53505 0.0
C1179 C 0.34437 0.45855 0.58616 0.0
C1180 C 0.36618 0.4684 0.61003 0.0
C1181 C 0.38394 0.49543 0.60927 0.0
C1182 C 0.40472 0.5044 0.63161 0.0
C1183 C 0.40773 0.48666 0.655 0.0
C1184 C 0.38991 0.45995 0.65613 0.0
C1185 C 0.36914 0.45085 0.6338 0.0
H1186 H 0.42383 0.49364 0.67228 0.0
H1187 H 0.21841 0.4222 0.45602 0.0
H1188 H 0.86769 0.73878 0.91937 0.0
H1189 H 0.89119 0.70254 0.94422 0.0
H1190 H 0.97265 0.75912 0.94424 0.0
H1191 H 0.94915 0.79514 0.91838 0.0
H1192 H 0.98001 0.70708 0.92816 0.0
H1193 H 0.93269 0.74405 0.00833 0.0
H1194 H 0.89164 0.75794 0.03412 0.0
H1195 H 0.84788 0.67025 0.0245 0.0
H1196 H 0.88852 0.65591 0.99834 0.0
H1197 H 0.05495 0.61416 0.00769 0.0
H1198 H 0.03247 0.65666 0.99599 0.0
H1199 H 0.94845 0.60483 0.99724 0.0
H1200 H 0.971 0.56269 0.01077 0.0
H1201 H 0.94349 0.65652 0.01492 0.0
H1202 H 0.98779 0.62009 0.93195 0.0
H1203 H 0.02776 0.60516 0.90512 0.0
H1204 H 0.0757 0.69081 0.91848 0.0
H1205 H 0.03612 0.70615 0.94568 0.0
C1206 C 0.89051 0.74378 0.92523 0.0
C1207 C 0.90636 0.77025 0.91763 0.0
C1208 C 0.90398 0.72301 0.93955 0.0
C1209 C 0.93373 0.72812 0.94683 0.0
C1210 C 0.94965 0.75461 0.93922 0.0
C1211 C 0.93617 0.77535 0.92464 0.0
C1212 C 0.94839 0.70513 0.96064 0.0
C1213 C 0.9723 0.69647 0.94748 0.0
C1214 C 0.93797 0.6904 0.98535 0.0
C1215 C 0.91357 0.69897 1.00119 0.0
C1216 C 0.91424 0.72777 0.01155 0.0
C1217 C 0.89105 0.73572 0.02626 0.0
C1218 C 0.86714 0.71501 0.03089 0.0
C1219 C 0.8664 0.68628 0.02088 0.0
C1220 C 0.88953 0.67822 0.00615 0.0
C1221 C 0.03165 0.61208 0.00632 0.0
C1222 C 0.01477 0.5851 0.01028 0.0
C1223 C 0.01876 0.63632 0.99917 0.0
C1224 C 0.98867 0.63395 0.99459 0.0
C1225 C 0.97169 0.60739 1.00034 0.0
C1226 C 0.9846 0.58327 0.00827 0.0
C1227 C 0.97512 0.65851 0.98244 0.0
C1228 C 0.95136 0.66735 0.99578 0.0
C1229 C 0.98548 0.67328 0.9577 0.0
C1230 C 0.00913 0.66418 0.94107 0.0
C1231 C 0.00692 0.63569 0.92927 0.0
C1232 C 0.02949 0.62716 0.914 0.0
C1233 C 0.05428 0.647 0.91016 0.0
C1234 C 0.0565 0.67545 0.9215 0.0
C1235 C 0.034 0.68409 0.93682 0.0
H1236 H 0.07175 0.64035 0.89835 0.0
H1237 H 0.84921 0.72121 0.04227 0.0
H1238 H 0.40224 0.75242 0.1883 0.0
H1239 H 0.42012 0.80257 0.17696 0.0
H1240 H 0.45484 0.77231 0.09862 0.0
H1241 H 0.43701 0.72196 0.1099 0.0
H1242 H 0.49181 0.81796 0.12937 0.0
H1243 H 0.39371 0.79246 0.09183 0.0
H1244 H 0.3421 0.77395 0.09545 0.0
H1245 H 0.33484 0.84221 0.1582 0.0
H1246 H 0.38661 0.86085 0.15527 0.0
H1247 H 0.46096 0.91195 0.01578 0.0
H1248 H 0.4388 0.88207 0.05314 0.0
H1249 H 0.50138 0.92631 0.11708 0.0
H1250 H 0.52391 0.95641 0.07916 0.0
H1251 H 0.41702 0.8795 0.10551 0.0
H1252 H 0.53002 0.87388 0.15077 0.0
H1253 H 0.58069 0.88857 0.13871 0.0
H1254 H 0.55634 0.87677 0.04788 0.0
H1255 H 0.50565 0.86172 0.05948 0.0
C1256 C 0.41413 0.75647 0.16891 0.0
C1257 C 0.41828 0.73345 0.14988 0.0
C1258 C 0.42423 0.78505 0.16249 0.0
C1259 C 0.43872 0.79098 0.13702 0.0
C1260 C 0.4438 0.76801 0.11848 0.0
C1261 C 0.43344 0.7394 0.12475 0.0
C1262 C 0.44654 0.82114 0.12841 0.0
C1263 C 0.47557 0.83168 0.12471 0.0
C1264 C 0.42522 0.83875 0.12205 0.0
C1265 C 0.39408 0.8278 0.12365 0.0
C1266 C 0.38116 0.80336 0.1066 0.0
C1267 C 0.35188 0.79287 0.10849 0.0
C1268 C 0.33522 0.80683 0.12713 0.0
C1269 C 0.3478 0.83138 0.14383 0.0
C1270 C 0.3771 0.84191 0.14208 0.0
C1271 C 0.46918 0.91617 0.03805 0.0
C1272 C 0.49434 0.93588 0.04471 0.0
C1273 C 0.45641 0.89921 0.05946 0.0
C1274 C 0.4689 0.90152 0.08771 0.0
C1275 C 0.49167 0.92406 0.09526 0.0
C1276 C 0.50445 0.94127 0.07369 0.0
C1277 C 0.46233 0.87636 0.10619 0.0
C1278 C 0.43346 0.86646 0.1116 0.0
C1279 C 0.48368 0.85885 0.11316 0.0
C1280 C 0.51414 0.86702 0.106 0.0
C1281 C 0.53557 0.87433 0.12826 0.0
C1282 C 0.56425 0.88272 0.1215 0.0
C1283 C 0.57171 0.88368 0.09254 0.0
C1284 C 0.55054 0.87607 0.07029 0.0
C1285 C 0.52185 0.86759 0.07694 0.0
H1286 H 0.59391 0.89028 0.08736 0.0
H1287 H 0.31254 0.79869 0.12856 0.0
H1288 H 0.07091 0.34389 0.63278 0.0
H1289 H 0.05114 0.29735 0.60866 0.0
H1290 H 0.13144 0.29494 0.56752 0.0
H1291 H 0.15142 0.34177 0.59165 0.0
H1292 H 0.08388 0.27365 0.53076 0.0
H1293 H 0.11954 0.25994 0.62782 0.0
H1294 H 0.12378 0.26866 0.68089 0.0
H1295 H 0.03327 0.23882 0.68616 0.0
H1296 H 0.02842 0.23037 0.63301 0.0
H1297 H 0.0969 0.12368 0.52615 0.0
H1298 H 0.09708 0.17608 0.52588 0.0
H1299 H 0.01271 0.165 0.56089 0.0
H1300 H 0.01246 0.11237 0.56073 0.0
H1301 H 0.05513 0.19471 0.59778 0.0
H1302 H 0.0219 0.20098 0.50014 0.0
H1303 H 0.01905 0.19244 0.44709 0.0
H1304 H 0.10642 0.2344 0.44263 0.0
H1305 H 0.10991 0.243 0.49572 0.0
C1306 C 0.08437 0.33348 0.61856 0.0
C1307 C 0.1129 0.34619 0.61449 0.0
C1308 C 0.07297 0.307 0.60464 0.0
C1309 C 0.08994 0.29254 0.58659 0.0
C1310 C 0.11798 0.3058 0.58135 0.0
C1311 C 0.12939 0.33246 0.59519 0.0
C1312 C 0.07928 0.26255 0.57535 0.0
C1313 C 0.07772 0.25628 0.54533 0.0
C1314 C 0.07063 0.24011 0.59441 0.0
C1315 C 0.07355 0.24486 0.62641 0.0
C1316 C 0.1005 0.25546 0.64027 0.0
C1317 C 0.10302 0.26033 0.67036 0.0
C1318 C 0.07879 0.25439 0.68688 0.0
C1319 C 0.05201 0.24347 0.67333 0.0
C1320 C 0.04936 0.23863 0.64322 0.0
C1321 C 0.07769 0.13233 0.53204 0.0
C1322 C 0.05456 0.11421 0.54319 0.0
C1323 C 0.07782 0.16229 0.53201 0.0
C1324 C 0.05498 0.17446 0.54355 0.0
C1325 C 0.03049 0.15601 0.55179 0.0
C1326 C 0.03023 0.12597 0.55147 0.0
C1327 C 0.05975 0.20555 0.55306 0.0
C1328 C 0.06058 0.21207 0.583 0.0
C1329 C 0.06799 0.22799 0.53389 0.0
C1330 C 0.06621 0.22248 0.50198 0.0
C1331 C 0.04061 0.20816 0.4879 0.0
C1332 C 0.03885 0.20338 0.4578 0.0
C1333 C 0.06255 0.21285 0.4415 0.0
C1334 C 0.08807 0.2271 0.45528 0.0
C1335 C 0.08993 0.23199 0.48538 0.0
H1336 H 0.06114 0.20919 0.41818 0.0
H1337 H 0.08078 0.25818 0.71017 0.0
H1338 H 0.62021 0.19903 0.47719 0.0
H1339 H 0.60493 0.24349 0.49697 0.0
H1340 H 0.63668 0.28935 0.42258 0.0
H1341 H 0.65172 0.24504 0.40264 0.0
H1342 H 0.65131 0.32151 0.47399 0.0
H1343 H 0.56709 0.26503 0.42529 0.0
H1344 H 0.53044 0.22168 0.41582 0.0
H1345 H 0.50483 0.2271 0.50369 0.0
H1346 H 0.54165 0.27029 0.51378 0.0
H1347 H 0.57065 0.42885 0.43935 0.0
H1348 H 0.58825 0.38282 0.4423 0.0
H1349 H 0.56433 0.37658 0.53114 0.0
H1350 H 0.54687 0.4239 0.52873 0.0
H1351 H 0.5472 0.32352 0.48615 0.0
H1352 H 0.62557 0.38905 0.52925 0.0
H1353 H 0.66055 0.43401 0.53458 0.0
H1354 H 0.69682 0.41302 0.45433 0.0
H1355 H 0.66135 0.36842 0.44787 0.0
C1356 C 0.62426 0.21874 0.4653 0.0
C1357 C 0.63777 0.21871 0.43874 0.0
C1358 C 0.61545 0.24405 0.47655 0.0
C1359 C 0.61977 0.26974 0.4613 0.0
C1360 C 0.63343 0.26983 0.43486 0.0
C1361 C 0.64203 0.24449 0.4235 0.0
C1362 C 0.60897 0.29627 0.47204 0.0
C1363 C 0.62858 0.32198 0.47676 0.0
C1364 C 0.57938 0.29663 0.47642 0.0
C1365 C 0.55739 0.2706 0.47041 0.0
C1366 C 0.55385 0.25679 0.44267 0.0
C1367 C 0.53301 0.23229 0.43717 0.0
C1368 C 0.5154 0.22157 0.45917 0.0
C1369 C 0.51855 0.23538 0.48669 0.0
C1370 C 0.53939 0.25986 0.49232 0.0
C1371 C 0.56879 0.41784 0.45961 0.0
C1372 C 0.55714 0.43013 0.48383 0.0
C1373 C 0.57905 0.39149 0.46121 0.0
C1374 C 0.57772 0.37648 0.48692 0.0
C1375 C 0.56552 0.38803 0.51111 0.0
C1376 C 0.55559 0.41496 0.5097 0.0
C1377 C 0.58946 0.34881 0.48751 0.0
C1378 C 0.57006 0.32287 0.48451 0.0
C1379 C 0.61922 0.34832 0.48442 0.0
C1380 C 0.64065 0.37528 0.48806 0.0
C1381 C 0.64076 0.39411 0.51254 0.0
C1382 C 0.66072 0.41955 0.51578 0.0
C1383 C 0.68107 0.42621 0.49496 0.0
C1384 C 0.68119 0.40769 0.47058 0.0
C1385 C 0.66109 0.38234 0.46708 0.0
H1386 H 0.69666 0.44579 0.49766 0.0
H1387 H 0.49925 0.20262 0.45486 0.0
loop_
_geom_bond_atom_site_label_1
_geom_bond_atom_site_label_2
_geom_bond_distance
_geom_bond_site_symmetry_2
_ccdc_geom_bond_type
H0 C7 0.929 . S
H1 C10 0.930 . S
H2 C12 0.929 . S
H3 C4 0.969 . S
C4 H3 0.969 . S
C4 O5 1.550 . S
C4 H6 0.973 . S
O5 C4 1.550 . S
O5 C11 1.412 . S
H6 C4 0.973 . S
C7 H0 0.929 . S
C7 C8 1.400 . S
C7 C9 1.364 . S
C8 C7 1.400 . S
C8 C12 1.377 . S
C9 C7 1.364 . S
C9 C10 1.374 . S
C10 H1 0.930 . S
C10 C9 1.374 . S
C10 C11 1.383 . S
C11 O5 1.412 . S
C11 C10 1.383 . S
C11 C12 1.394 . S
C12 H2 0.929 . S
C12 C8 1.377 . S
C12 C11 1.394 . S
H13 C20 0.929 . S
H14 C23 0.930 . S
H15 C25 0.929 . S
H16 C17 0.969 . S
C17 H16 0.969 . S
C17 O18 1.550 . S
C17 H19 0.973 . S
O18 C17 1.550 . S
O18 C24 1.412 . S
H19 C17 0.973 . S
C20 H13 0.929 . S
C20 C21 1.400 . S
C20 C22 1.364 . S
C21 C20 1.400 . S
C21 C25 1.377 . S
C22 C20 1.364 . S
C22 C23 1.374 . S
C23 H14 0.930 . S
C23 C22 1.374 . S
C23 C24 1.383 . S
C24 O18 1.412 . S
C24 C23 1.383 . S
C24 C25 1.394 . S
C25 H15 0.929 . S
C25 C21 1.377 . S
C25 C24 1.394 . S
H26 C33 0.929 . S
H27 C36 0.930 . S
H28 C38 0.929 . S
H29 C30 0.969 . S
C30 H29 0.969 . S
C30 O31 1.550 . S
C30 H32 0.973 . S
O31 C30 1.550 . S
O31 C37 1.412 . S
H32 C30 0.973 . S
C33 H26 0.929 . S
C33 C34 1.400 . S
C33 C35 1.364 . S
C34 C33 1.400 . S
C34 C38 1.377 . S
C35 C33 1.364 . S
C35 C36 1.374 . S
C36 H27 0.930 . S
C36 C35 1.374 . S
C36 C37 1.383 . S
C37 O31 1.412 . S
C37 C36 1.383 . S
C37 C38 1.394 . S
C38 H28 0.929 . S
C38 C34 1.377 . S
C38 C37 1.394 . S
H39 C46 0.929 . S
H40 C49 0.930 . S
H41 C51 0.929 . S
H42 C43 0.969 . S
C43 H42 0.969 . S
C43 O44 1.550 . S
C43 H45 0.973 . S
O44 C43 1.550 . S
O44 C50 1.412 . S
H45 C43 0.973 . S
C46 H39 0.929 . S
C46 C47 1.400 . S
C46 C48 1.364 . S
C47 C46 1.400 . S
C47 C51 1.377 . S
C48 C46 1.364 . S
C48 C49 1.374 . S
C49 H40 0.930 . S
C49 C48 1.374 . S
C49 C50 1.383 . S
C50 O44 1.412 . S
C50 C49 1.383 . S
C50 C51 1.394 . S
C51 H41 0.929 . S
C51 C47 1.377 . S
C51 C50 1.394 . S
H52 C59 0.929 . S
H53 C62 0.930 . S
H54 C64 0.929 . S
H55 C56 0.969 . S
C56 H55 0.969 . S
C56 O57 1.550 . S
C56 H58 0.973 . S
O57 C56 1.550 . S
O57 C63 1.412 . S
H58 C56 0.973 . S
C59 H52 0.929 . S
C59 C60 1.400 . S
C59 C61 1.364 . S
C60 C59 1.400 . S
C60 C64 1.377 . S
C61 C59 1.364 . S
C61 C62 1.374 . S
C62 H53 0.930 . S
C62 C61 1.374 . S
C62 C63 1.383 . S
C63 O57 1.412 . S
C63 C62 1.383 . S
C63 C64 1.394 . S
C64 H54 0.929 . S
C64 C60 1.377 . S
C64 C63 1.394 . S
H65 C72 0.929 . S
H66 C75 0.930 . S
H67 C77 0.929 . S
H68 C69 0.969 . S
C69 H68 0.969 . S
C69 O70 1.550 . S
C69 H71 0.973 . S
O70 C69 1.550 . S
O70 C76 1.412 . S
H71 C69 0.973 . S
C72 H65 0.929 . S
C72 C73 1.400 . S
C72 C74 1.364 . S
C73 C72 1.400 . S
C73 C77 1.377 . S
C74 C72 1.364 . S
C74 C75 1.374 . S
C75 H66 0.930 . S
C75 C74 1.374 . S
C75 C76 1.383 . S
C76 O70 1.412 . S
C76 C75 1.383 . S
C76 C77 1.394 . S
C77 H67 0.929 . S
C77 C73 1.377 . S
C77 C76 1.394 . S
H78 C85 0.929 . S
H79 C88 0.930 . S
H80 C90 0.929 . S
H81 C82 0.969 . S
C82 H81 0.969 . S
C82 O83 1.550 . S
C82 H84 0.973 . S
O83 C82 1.550 . S
O83 C89 1.412 . S
H84 C82 0.973 . S
C85 H78 0.929 . S
C85 C86 1.400 . S
C85 C87 1.364 . S
C86 C85 1.400 . S
C86 C90 1.377 . S
C87 C85 1.364 . S
C87 C88 1.374 . S
C88 H79 0.930 . S
C88 C87 1.374 . S
C88 C89 1.383 . S
C89 O83 1.412 . S
C89 C88 1.383 . S
C89 C90 1.394 . S
C90 H80 0.929 . S
C90 C86 1.377 . S
C90 C89 1.394 . S
H91 C98 0.929 . S
H92 C101 0.930 . S
H93 C103 0.929 . S
H94 C95 0.969 . S
C95 H94 0.969 . S
C95 O96 1.550 . S
C95 H97 0.973 . S
O96 C95 1.550 . S
O96 C102 1.412 . S
H97 C95 0.973 . S
C98 H91 0.929 . S
C98 C99 1.400 . S
C98 C100 1.364 . S
C99 C98 1.400 . S
C99 C103 1.377 . S
C100 C98 1.364 . S
C100 C101 1.374 . S
C101 H92 0.930 . S
C101 C100 1.374 . S
C101 C102 1.383 . S
C102 O96 1.412 . S
C102 C101 1.383 . S
C102 C103 1.394 . S
C103 H93 0.929 . S
C103 C99 1.377 . S
C103 C102 1.394 . S
O104 Mg105 1.990 . S
O104 C118 1.253 1_545 S
Mg105 O104 1.990 . S
Mg105 O108 2.180 . S
Mg105 O109 2.117 . S
Mg105 O123 2.030 . S
O106 Mg107 2.087 1_565 S
O106 C118 1.261 . S
Mg107 O106 2.087 1_545 S
Mg107 O108 2.099 . S
Mg107 O110 2.079 . S
Mg107 O111 2.072 1_455 S
Mg107 O113 2.109 1_545 S
Mg107 O124 2.077 1_545 S
O108 Mg105 2.180 . S
O108 Mg107 2.099 . S
O108 C119 1.279 . S
O109 Mg105 2.117 . S
O109 C119 1.250 . S
O110 Mg107 2.079 . S
O110 C120 1.264 . S
O111 Mg107 2.072 1_655 S
O111 C121 1.260 . S
Mg112 O113 2.159 1_655 S
Mg112 O114 2.030 1_665 S
Mg112 O115 1.990 1_565 S
Mg112 O116 2.117 . S
O113 Mg107 2.109 1_565 S
O113 Mg112 2.159 1_455 S
O113 C122 1.260 1_455 S
O114 Mg112 2.030 1_445 S
O114 C120 1.248 . S
O115 Mg112 1.990 1_545 S
O115 C121 1.253 . S
O116 Mg112 2.117 . S
O116 C122 1.250 . S
C117 O123 1.248 1_565 S
C117 O124 1.264 . S
C118 O104 1.253 1_565 S
C118 O106 1.261 . S
C119 O108 1.279 . S
C119 O109 1.250 . S
C120 O110 1.264 . S
C120 O114 1.248 . S
C121 O111 1.260 . S
C121 O115 1.253 . S
C122 O113 1.260 1_655 S
C122 O116 1.250 . S
O123 Mg105 2.030 . S
O123 C117 1.248 1_545 S
O124 Mg107 2.077 1_565 S
O124 C117 1.264 . S
O125 Mg126 1.990 . S
O125 C139 1.253 . S
Mg126 O125 1.990 . S
Mg126 O129 2.180 . S
Mg126 O130 2.117 1_554 S
Mg126 O144 2.030 . S
O127 Mg128 2.072 . S
O127 C139 1.260 . S
Mg128 O127 2.072 . S
Mg128 O129 2.099 . S
Mg128 O131 2.079 1_554 S
Mg128 O132 2.072 1_554 S
Mg128 O134 2.099 1_545 S
Mg128 O145 2.079 . S
O129 Mg126 2.180 . S
O129 Mg128 2.099 . S
O129 C140 1.279 1_554 S
O130 Mg126 2.117 1_556 S
O130 C140 1.250 . S
O131 Mg128 2.079 1_556 S
O131 C141 1.264 1_545 S
O132 Mg128 2.072 1_556 S
O132 C142 1.260 1_545 S
Mg133 O134 2.180 1_556 S
Mg133 O135 2.030 . S
Mg133 O136 1.990 . S
Mg133 O137 2.117 1_556 S
O134 Mg128 2.099 1_565 S
O134 Mg133 2.180 1_554 S
O134 C143 1.279 . S
O135 Mg133 2.030 . S
O135 C141 1.248 . S
O136 Mg133 1.990 . S
O136 C142 1.253 . S
O137 Mg133 2.117 1_554 S
O137 C143 1.250 . S
C138 O144 1.248 . S
C138 O145 1.264 . S
C139 O125 1.253 . S
C139 O127 1.260 . S
C140 O129 1.279 1_556 S
C140 O130 1.250 . S
C141 O131 1.264 1_565 S
C141 O135 1.248 . S
C142 O132 1.260 1_565 S
C142 O136 1.253 . S
C143 O134 1.279 . S
C143 O137 1.250 . S
O144 Mg126 2.030 . S
O144 C138 1.248 . S
O145 Mg128 2.079 . S
O145 C138 1.264 . S
O146 Mg147 1.990 . S
O146 C160 1.253 . S
Mg147 O146 1.990 . S
Mg147 O150 2.180 . S
Mg147 O151 2.117 . S
Mg147 O165 2.030 . S
O148 Mg149 2.072 . S
O148 C160 1.260 . S
Mg149 O148 2.072 . S
Mg149 O150 2.099 . S
Mg149 O152 2.079 . S
Mg149 O153 2.072 . S
Mg149 O155 2.099 . S
Mg149 O166 2.079 . S
O150 Mg147 2.180 . S
O150 Mg149 2.099 . S
O150 C161 1.279 . S
O151 Mg147 2.117 . S
O151 C161 1.250 . S
O152 Mg149 2.079 . S
O152 C162 1.264 . S
O153 Mg149 2.072 . S
O153 C163 1.260 . S
Mg154 O155 2.180 . S
Mg154 O156 2.030 . S
Mg154 O157 1.990 . S
Mg154 O158 2.117 . S
O155 Mg149 2.099 . S
O155 Mg154 2.180 . S
O155 C164 1.279 . S
O156 Mg154 2.030 . S
O156 C162 1.248 . S
O157 Mg154 1.990 . S
O157 C163 1.253 . S
O158 Mg154 2.117 . S
O158 C164 1.250 . S
C159 O165 1.248 . S
C159 O166 1.264 . S
C160 O146 1.253 . S
C160 O148 1.260 . S
C161 O150 1.279 . S
C161 O151 1.250 . S
C162 O152 1.264 . S
C162 O156 1.248 . S
C163 O153 1.260 . S
C163 O157 1.253 . S
C164 O155 1.279 . S
C164 O158 1.250 . S
O165 Mg147 2.030 . S
O165 C159 1.248 . S
O166 Mg149 2.079 . S
O166 C159 1.264 . S
O167 Mg168 1.990 . S
O167 C181 1.253 . S
Mg168 O167 1.990 . S
Mg168 O171 2.180 . S
Mg168 O172 2.117 . S
Mg168 O186 2.030 . S
O169 Mg170 2.072 . S
O169 C181 1.260 . S
Mg170 O169 2.072 . S
Mg170 O171 2.099 . S
Mg170 O173 2.079 . S
Mg170 O174 2.072 1_455 S
Mg170 O176 2.099 1_554 S
Mg170 O187 2.079 . S
O171 Mg168 2.180 . S
O171 Mg170 2.099 . S
O171 C182 1.279 . S
O172 Mg168 2.117 . S
O172 C182 1.250 . S
O173 Mg170 2.079 . S
O173 C183 1.264 1_554 S
O174 Mg170 2.072 1_655 S
O174 C184 1.260 1_554 S
Mg175 O176 2.180 . S
Mg175 O177 2.030 1_455 S
Mg175 O178 1.990 1_455 S
Mg175 O179 2.117 . S
O176 Mg170 2.099 1_556 S
O176 Mg175 2.180 . S
O176 C185 1.279 . S
O177 Mg175 2.030 1_655 S
O177 C183 1.248 1_655 S
O178 Mg175 1.990 1_655 S
O178 C184 1.253 . S
O179 Mg175 2.117 . S
O179 C185 1.250 . S
C180 O186 1.248 . S
C180 O187 1.264 . S
C181 O167 1.253 . S
C181 O169 1.260 . S
C182 O171 1.279 . S
C182 O172 1.250 . S
C183 O173 1.264 1_556 S
C183 O177 1.248 1_455 S
C184 O174 1.260 1_556 S
C184 O178 1.253 . S
C185 O176 1.279 . S
C185 O179 1.250 . S
O186 Mg168 2.030 . S
O186 C180 1.248 . S
O187 Mg170 2.079 . S
O187 C180 1.264 . S
H188 C206 0.951 . S
H189 C208 0.951 . S
H190 C210 0.950 . S
H191 C211 0.950 . S
H192 C213 0.950 . S
H193 C216 0.950 . S
H194 C217 0.950 . S
H195 C219 0.950 . S
H196 C220 0.950 . S
H197 C221 0.951 . S
H198 C223 0.951 . S
H199 C225 0.950 . S
H200 C226 0.950 . S
H201 C228 0.950 . S
H202 C231 0.950 . S
H203 C232 0.950 . S
H204 C234 0.950 . S
H205 C235 0.950 . S
C206 H188 0.951 . S
C206 C207 1.366 . S
C206 C208 1.388 . S
C207 C206 1.366 . S
C207 C211 1.385 . S
C208 H189 0.951 . S
C208 C206 1.388 . S
C208 C209 1.366 . S
C209 C208 1.366 . S
C209 C210 1.414 . S
C209 C212 1.499 . S
C210 H190 0.950 . S
C210 C209 1.414 . S
C210 C211 1.374 . S
C211 H191 0.950 . S
C211 C207 1.385 . S
C211 C210 1.374 . S
C212 C209 1.499 . S
C212 C213 1.373 . S
C212 C214 1.389 . S
C213 H192 0.950 . S
C213 C212 1.373 . S
C213 C229 1.377 . S
C214 C212 1.389 . S
C214 C215 1.524 . S
C214 C228 1.377 . S
C215 C214 1.524 . S
C215 C216 1.397 . S
C215 C220 1.363 . S
C216 H193 0.950 . S
C216 C215 1.397 . S
C216 C217 1.334 . S
C217 H194 0.950 . S
C217 C216 1.334 . S
C217 C218 1.287 . S
C218 C217 1.287 . S
C218 C219 1.524 . S
C218 H237 0.913 . S
C219 H195 0.950 . S
C219 C218 1.524 . S
C219 C220 1.415 . S
C220 H196 0.950 . S
C220 C215 1.363 . S
C220 C219 1.415 . S
C221 H197 0.951 . S
C221 C222 1.366 . S
C221 C223 1.388 . S
C222 C221 1.366 . S
C222 C226 1.385 . S
C223 H198 0.951 . S
C223 C221 1.388 . S
C223 C224 1.366 . S
C224 C223 1.366 . S
C224 C225 1.414 . S
C224 C227 1.499 . S
C225 H199 0.950 . S
C225 C224 1.414 . S
C225 C226 1.374 . S
C226 H200 0.950 . S
C226 C222 1.385 . S
C226 C225 1.374 . S
C227 C224 1.499 . S
C227 C228 1.373 . S
C227 C229 1.389 . S
C228 H201 0.950 . S
C228 C214 1.377 . S
C228 C227 1.373 . S
C229 C213 1.377 . S
C229 C227 1.389 . S
C229 C230 1.524 . S
C230 C229 1.524 . S
C230 C231 1.397 . S
C230 C235 1.363 . S
C231 H202 0.950 . S
C231 C230 1.397 . S
C231 C232 1.334 . S
C232 H203 0.950 . S
C232 C231 1.334 . S
C232 C233 1.297 . S
C233 C232 1.297 . S
C233 C234 1.523 1_455 S
C233 H236 0.988 1_455 S
C234 H204 0.950 . S
C234 C233 1.523 1_655 S
C234 C235 1.415 1_655 S
C235 H205 0.950 . S
C235 C230 1.363 . S
C235 C234 1.415 1_455 S
H236 C233 0.988 1_655 S
H237 C218 0.913 . S
H238 C256 0.951 . S
H239 C258 0.951 . S
H240 C260 0.950 . S
H241 C261 0.950 . S
H242 C263 0.950 . S
H243 C266 0.950 . S
H244 C267 0.950 . S
H245 C269 0.950 . S
H246 C270 0.950 . S
H247 C271 0.951 . S
H248 C273 0.951 . S
H249 C275 0.950 . S
H250 C276 0.950 1_545 S
H251 C278 0.950 . S
H252 C281 0.950 . S
H253 C282 0.950 . S
H254 C284 0.950 . S
H255 C285 0.950 . S
C256 H238 0.951 . S
C256 C257 1.366 . S
C256 C258 1.388 . S
C257 C256 1.366 . S
C257 C261 1.385 . S
C258 H239 0.951 . S
C258 C256 1.388 . S
C258 C259 1.366 . S
C259 C258 1.366 . S
C259 C260 1.414 . S
C259 C262 1.499 . S
C260 H240 0.950 . S
C260 C259 1.414 . S
C260 C261 1.374 . S
C261 H241 0.950 . S
C261 C257 1.385 . S
C261 C260 1.374 . S
C262 C259 1.499 . S
C262 C263 1.373 . S
C262 C264 1.389 . S
C263 H242 0.950 . S
C263 C262 1.373 . S
C263 C279 1.377 . S
C264 C262 1.389 . S
C264 C265 1.524 . S
C264 C278 1.377 . S
C265 C264 1.524 . S
C265 C266 1.397 . S
C265 C270 1.363 . S
C266 H243 0.950 . S
C266 C265 1.397 . S
C266 C267 1.334 . S
C267 H244 0.950 . S
C267 C266 1.334 . S
C267 C268 1.287 . S
C268 C267 1.287 . S
C268 C269 1.524 . S
C268 H287 0.913 . S
C269 H245 0.950 . S
C269 C268 1.524 . S
C269 C270 1.415 . S
C270 H246 0.950 . S
C270 C265 1.363 . S
C270 C269 1.415 . S
C271 H247 0.951 . S
C271 C272 1.366 . S
C271 C273 1.388 . S
C272 C271 1.366 . S
C272 C276 1.385 . S
C273 H248 0.951 . S
C273 C271 1.388 . S
C273 C274 1.366 . S
C274 C273 1.366 . S
C274 C275 1.414 . S
C274 C277 1.499 . S
C275 H249 0.950 . S
C275 C274 1.414 . S
C275 C276 1.374 . S
C276 H250 0.950 1_565 S
C276 C272 1.385 . S
C276 C275 1.374 . S
C277 C274 1.499 . S
C277 C278 1.373 . S
C277 C279 1.389 . S
C278 H251 0.950 . S
C278 C264 1.377 . S
C278 C277 1.373 . S
C279 C263 1.377 . S
C279 C277 1.389 . S
C279 C280 1.524 . S
C280 C279 1.524 . S
C280 C281 1.397 1_565 S
C280 C285 1.363 . S
C281 H252 0.950 . S
C281 C280 1.397 1_545 S
C281 C282 1.334 . S
C282 H253 0.950 . S
C282 C281 1.334 . S
C282 C283 1.287 . S
C283 C282 1.287 . S
C283 C284 1.524 1_545 S
C283 H286 0.999 . S
C284 H254 0.950 . S
C284 C283 1.524 1_565 S
C284 C285 1.415 . S
C285 H255 0.950 . S
C285 C280 1.363 . S
C285 C284 1.415 . S
H286 C283 0.999 . S
H287 C268 0.913 . S
H288 C306 0.951 . S
H289 C308 0.951 . S
H290 C310 0.950 . S
H291 C311 0.950 . S
H292 C313 0.950 . S
H293 C316 0.950 . S
H294 C317 0.950 . S
H295 C319 0.950 . S
H296 C320 0.950 . S
H297 C321 0.951 . S
H298 C323 0.951 . S
H299 C325 0.950 . S
H300 C326 0.950 . S
H301 C328 0.950 . S
H302 C331 0.950 . S
H303 C332 0.950 . S
H304 C334 0.950 . S
H305 C335 0.950 . S
C306 H288 0.951 . S
C306 C307 1.366 . S
C306 C308 1.388 . S
C307 C306 1.366 . S
C307 C311 1.385 . S
C308 H289 0.951 . S
C308 C306 1.388 . S
C308 C309 1.366 . S
C309 C308 1.366 . S
C309 C310 1.414 . S
C309 C312 1.499 . S
C310 H290 0.950 . S
C310 C309 1.414 . S
C310 C311 1.374 . S
C311 H291 0.950 . S
C311 C307 1.385 . S
C311 C310 1.374 . S
C312 C309 1.499 . S
C312 C313 1.373 . S
C312 C314 1.389 . S
C313 H292 0.950 . S
C313 C312 1.373 . S
C313 C329 1.377 . S
C314 C312 1.389 . S
C314 C315 1.524 . S
C314 C328 1.377 . S
C315 C314 1.524 . S
C315 C316 1.397 . S
C315 C320 1.363 . S
C316 H293 0.950 . S
C316 C315 1.397 . S
C316 C317 1.334 . S
C317 H294 0.950 . S
C317 C316 1.334 . S
C317 C318 1.287 . S
C318 C317 1.287 . S
C318 C319 1.524 . S
C318 H337 0.913 . S
C319 H295 0.950 . S
C319 C318 1.524 . S
C319 C320 1.415 . S
C320 H296 0.950 . S
C320 C315 1.363 . S
C320 C319 1.415 . S
C321 H297 0.951 . S
C321 C322 1.366 . S
C321 C323 1.388 . S
C322 C321 1.366 . S
C322 C326 1.385 . S
C323 H298 0.951 . S
C323 C321 1.388 . S
C323 C324 1.366 . S
C324 C323 1.366 . S
C324 C325 1.414 . S
C324 C327 1.499 . S
C325 H299 0.950 . S
C325 C324 1.414 . S
C325 C326 1.374 . S
C326 H300 0.950 . S
C326 C322 1.385 . S
C326 C325 1.374 . S
C327 C324 1.499 . S
C327 C328 1.373 . S
C327 C329 1.389 . S
C328 H301 0.950 . S
C328 C314 1.377 . S
C328 C327 1.373 . S
C329 C313 1.377 . S
C329 C327 1.389 . S
C329 C330 1.524 . S
C330 C329 1.524 . S
C330 C331 1.397 . S
C330 C335 1.363 . S
C331 H302 0.950 . S
C331 C330 1.397 . S
C331 C332 1.334 . S
C332 H303 0.950 . S
C332 C331 1.334 . S
C332 C333 1.287 . S
C333 C332 1.287 . S
C333 C334 1.524 . S
C333 H336 0.999 . S
C334 H304 0.950 . S
C334 C333 1.524 . S
C334 C335 1.415 . S
C335 H305 0.950 . S
C335 C330 1.363 . S
C335 C334 1.415 . S
H336 C333 0.999 . S
H337 C318 0.913 . S
H338 C356 0.951 . S
H339 C358 0.951 . S
H340 C360 0.950 . S
H341 C361 0.950 . S
H342 C363 0.950 . S
H343 C366 0.950 1_655 S
H344 C367 0.950 . S
H345 C369 0.950 . S
H346 C370 0.950 . S
H347 C371 0.951 . S
H348 C373 0.951 . S
H349 C375 0.936 1_455 S
H350 C376 0.950 . S
H351 C378 0.950 1_455 S
H352 C381 0.950 . S
H353 C382 0.950 . S
H354 C384 0.950 . S
H355 C385 0.950 . S
C356 H338 0.951 . S
C356 C357 1.366 . S
C356 C358 1.388 . S
C357 C356 1.366 . S
C357 C361 1.385 . S
C358 H339 0.951 . S
C358 C356 1.388 . S
C358 C359 1.366 . S
C359 C358 1.366 . S
C359 C360 1.414 . S
C359 C362 1.499 . S
C360 H340 0.950 . S
C360 C359 1.414 . S
C360 C361 1.374 . S
C361 H341 0.950 . S
C361 C357 1.385 . S
C361 C360 1.374 . S
C362 C359 1.499 . S
C362 C363 1.373 . S
C362 C364 1.389 . S
C363 H342 0.950 . S
C363 C362 1.373 . S
C363 C379 1.377 . S
C364 C362 1.389 . S
C364 C365 1.524 1_655 S
C364 C378 1.377 . S
C365 C364 1.524 1_455 S
C365 C366 1.397 . S
C365 C370 1.363 . S
C366 H343 0.950 1_455 S
C366 C365 1.397 . S
C366 C367 1.334 . S
C367 H344 0.950 . S
C367 C366 1.334 . S
C367 C368 1.287 . S
C368 C367 1.287 . S
C368 C369 1.524 . S
C368 H387 0.913 . S
C369 H345 0.950 . S
C369 C368 1.524 . S
C369 C370 1.415 . S
C370 H346 0.950 . S
C370 C365 1.363 . S
C370 C369 1.415 . S
C371 H347 0.951 . S
C371 C372 1.366 . S
C371 C373 1.388 . S
C372 C371 1.366 . S
C372 C376 1.385 1_655 S
C373 H348 0.951 . S
C373 C371 1.388 . S
C373 C374 1.366 . S
C374 C373 1.366 . S
C374 C375 1.439 . S
C374 C377 1.499 . S
C375 H349 0.936 1_655 S
C375 C374 1.439 . S
C375 C376 1.364 1_655 S
C376 H350 0.950 . S
C376 C372 1.385 1_455 S
C376 C375 1.364 1_455 S
C377 C374 1.499 . S
C377 C378 1.373 . S
C377 C379 1.389 . S
C378 H351 0.950 1_655 S
C378 C364 1.377 . S
C378 C377 1.373 . S
C379 C363 1.377 . S
C379 C377 1.389 . S
C379 C380 1.524 . S
C380 C379 1.524 . S
C380 C381 1.397 . S
C380 C385 1.363 . S
C381 H352 0.950 . S
C381 C380 1.397 . S
C381 C382 1.334 . S
C382 H353 0.950 . S
C382 C381 1.334 . S
C382 C383 1.287 . S
C383 C382 1.287 . S
C383 C384 1.524 . S
C383 H386 0.999 . S
C384 H354 0.950 . S
C384 C383 1.524 . S
C384 C385 1.415 . S
C385 H355 0.950 . S
C385 C380 1.363 . S
C385 C384 1.415 . S
H386 C383 0.999 . S
H387 C368 0.913 . S
H388 C406 0.951 . S
H389 C408 0.951 . S
H390 C410 0.950 . S
H391 C411 0.950 . S
H392 C413 0.950 . S
H393 C416 0.950 . S
H394 C417 0.950 . S
H395 C419 0.950 1_565 S
H396 C420 0.950 . S
H397 C421 0.951 . S
H398 C423 0.951 . S
H399 C425 0.950 . S
H400 C426 0.949 . S
H401 C428 0.950 . S
H402 C431 0.950 1_554 S
H403 C432 0.950 . S
H404 C434 0.950 . S
H405 C435 0.950 . S
C406 H388 0.951 . S
C406 C407 1.366 . S
C406 C408 1.388 . S
C407 C406 1.366 . S
C407 C411 1.385 . S
C408 H389 0.951 . S
C408 C406 1.388 . S
C408 C409 1.366 . S
C409 C408 1.366 . S
C409 C410 1.414 . S
C409 C412 1.499 . S
C410 H390 0.950 . S
C410 C409 1.414 . S
C410 C411 1.374 . S
C411 H391 0.950 . S
C411 C407 1.385 . S
C411 C410 1.374 . S
C412 C409 1.499 . S
C412 C413 1.373 . S
C412 C414 1.389 . S
C413 H392 0.950 . S
C413 C412 1.373 . S
C413 C429 1.377 . S
C414 C412 1.389 . S
C414 C415 1.524 . S
C414 C428 1.377 . S
C415 C414 1.524 . S
C415 C416 1.397 . S
C415 C420 1.363 . S
C416 H393 0.950 . S
C416 C415 1.397 . S
C416 C417 1.334 . S
C417 H394 0.950 . S
C417 C416 1.334 . S
C417 C418 1.287 . S
C418 C417 1.287 . S
C418 C419 1.524 . S
C418 H437 0.913 . S
C419 H395 0.950 1_545 S
C419 C418 1.524 . S
C419 C420 1.415 . S
C420 H396 0.950 . S
C420 C415 1.363 . S
C420 C419 1.415 . S
C421 H397 0.951 . S
C421 C422 1.366 . S
C421 C423 1.388 . S
C422 C421 1.366 . S
C422 C426 1.385 . S
C423 H398 0.951 . S
C423 C421 1.388 . S
C423 C424 1.366 . S
C424 C423 1.366 . S
C424 C425 1.414 . S
C424 C427 1.499 . S
C425 H399 0.950 . S
C425 C424 1.414 . S
C425 C426 1.374 . S
C426 H400 0.949 . S
C426 C422 1.385 . S
C426 C425 1.374 . S
C427 C424 1.499 . S
C427 C428 1.373 . S
C427 C429 1.389 . S
C428 H401 0.950 . S
C428 C414 1.377 . S
C428 C427 1.373 . S
C429 C413 1.377 . S
C429 C427 1.389 . S
C429 C430 1.524 . S
C430 C429 1.524 . S
C430 C431 1.397 1_554 S
C430 C435 1.363 . S
C431 H402 0.950 1_556 S
C431 C430 1.397 1_556 S
C431 C432 1.334 . S
C432 H403 0.950 . S
C432 C431 1.334 . S
C432 C433 1.287 . S
C433 C432 1.287 . S
C433 C434 1.524 . S
C433 H436 0.999 . S
C434 H404 0.950 . S
C434 C433 1.524 . S
C434 C435 1.415 1_556 S
C435 H405 0.950 . S
C435 C430 1.363 . S
C435 C434 1.415 1_554 S
H436 C433 0.999 . S
H437 C418 0.913 . S
H438 C456 0.951 . S
H439 C458 0.951 . S
H440 C460 0.950 . S
H441 C461 0.950 . S
H442 C463 0.950 . S
H443 C466 0.950 . S
H444 C467 0.950 . S
H445 C469 0.950 . S
H446 C470 0.950 . S
H447 C471 0.951 . S
H448 C473 0.951 . S
H449 C475 0.950 . S
H450 C476 0.950 . S
H451 C478 0.950 . S
H452 C481 0.950 . S
H453 C482 0.950 . S
H454 C484 0.950 . S
H455 C485 0.950 . S
C456 H438 0.951 . S
C456 C457 1.366 . S
C456 C458 1.388 . S
C457 C456 1.366 . S
C457 C461 1.385 . S
C458 H439 0.951 . S
C458 C456 1.388 . S
C458 C459 1.366 . S
C459 C458 1.366 . S
C459 C460 1.414 . S
C459 C462 1.499 . S
C460 H440 0.950 . S
C460 C459 1.414 . S
C460 C461 1.374 . S
C461 H441 0.950 . S
C461 C457 1.385 . S
C461 C460 1.374 . S
C462 C459 1.499 . S
C462 C463 1.373 . S
C462 C464 1.389 . S
C463 H442 0.950 . S
C463 C462 1.373 . S
C463 C479 1.377 . S
C464 C462 1.389 . S
C464 C465 1.524 . S
C464 C478 1.377 . S
C465 C464 1.524 . S
C465 C466 1.397 . S
C465 C470 1.363 . S
C466 H443 0.950 . S
C466 C465 1.397 . S
C466 C467 1.334 . S
C467 H444 0.950 . S
C467 C466 1.334 . S
C467 C468 1.287 . S
C468 C467 1.287 . S
C468 C469 1.524 . S
C468 H487 0.913 . S
C469 H445 0.950 . S
C469 C468 1.524 . S
C469 C470 1.415 . S
C470 H446 0.950 . S
C470 C465 1.363 . S
C470 C469 1.415 . S
C471 H447 0.951 . S
C471 C472 1.366 . S
C471 C473 1.388 . S
C472 C471 1.366 . S
C472 C476 1.385 . S
C473 H448 0.951 . S
C473 C471 1.388 . S
C473 C474 1.366 . S
C474 C473 1.366 . S
C474 C475 1.414 . S
C474 C477 1.499 . S
C475 H449 0.950 . S
C475 C474 1.414 . S
C475 C476 1.374 . S
C476 H450 0.950 . S
C476 C472 1.385 . S
C476 C475 1.374 . S
C477 C474 1.499 . S
C477 C478 1.373 . S
C477 C479 1.389 . S
C478 H451 0.950 . S
C478 C464 1.377 . S
C478 C477 1.373 . S
C479 C463 1.377 . S
C479 C477 1.389 . S
C479 C480 1.524 1_565 S
C480 C479 1.524 1_545 S
C480 C481 1.397 . S
C480 C485 1.363 . S
C481 H452 0.950 . S
C481 C480 1.397 . S
C481 C482 1.334 . S
C482 H453 0.950 . S
C482 C481 1.334 . S
C482 C483 1.287 . S
C483 C482 1.287 . S
C483 C484 1.524 . S
C483 H486 0.999 . S
C484 H454 0.950 . S
C484 C483 1.524 . S
C484 C485 1.415 . S
C485 H455 0.950 . S
C485 C480 1.363 . S
C485 C484 1.415 . S
H486 C483 0.999 . S
H487 C468 0.913 . S
H488 C506 0.951 . S
H489 C508 0.951 . S
H490 C510 0.950 . S
H491 C511 0.950 . S
H492 C513 0.950 . S
H493 C516 0.950 . S
H494 C517 0.950 . S
H495 C519 0.950 . S
H496 C520 0.950 . S
H497 C521 0.951 . S
H498 C523 0.951 . S
H499 C525 0.950 . S
H500 C526 0.950 . S
H501 C528 0.950 . S
H502 C531 0.950 . S
H503 C532 0.950 . S
H504 C534 0.950 . S
H505 C535 0.950 . S
C506 H488 0.951 . S
C506 C507 1.366 . S
C506 C508 1.388 . S
C507 C506 1.366 . S
C507 C511 1.385 . S
C508 H489 0.951 . S
C508 C506 1.388 . S
C508 C509 1.366 . S
C509 C508 1.366 . S
C509 C510 1.414 . S
C509 C512 1.499 . S
C510 H490 0.950 . S
C510 C509 1.414 . S
C510 C511 1.374 . S
C511 H491 0.950 . S
C511 C507 1.385 . S
C511 C510 1.374 . S
C512 C509 1.499 . S
C512 C513 1.373 . S
C512 C514 1.389 . S
C513 H492 0.950 . S
C513 C512 1.373 . S
C513 C529 1.377 . S
C514 C512 1.389 . S
C514 C515 1.524 . S
C514 C528 1.377 . S
C515 C514 1.524 . S
C515 C516 1.397 . S
C515 C520 1.363 . S
C516 H493 0.950 . S
C516 C515 1.397 . S
C516 C517 1.334 . S
C517 H494 0.950 . S
C517 C516 1.334 . S
C517 C518 1.287 . S
C518 C517 1.287 . S
C518 C519 1.524 . S
C518 H537 0.913 . S
C519 H495 0.950 . S
C519 C518 1.524 . S
C519 C520 1.415 . S
C520 H496 0.950 . S
C520 C515 1.363 . S
C520 C519 1.415 . S
C521 H497 0.951 . S
C521 C522 1.376 . S
C521 C523 1.388 . S
C522 C521 1.376 . S
C522 C526 1.367 1_554 S
C523 H498 0.951 . S
C523 C521 1.388 . S
C523 C524 1.366 1_554 S
C524 C523 1.366 1_556 S
C524 C525 1.414 . S
C524 C527 1.499 . S
C525 H499 0.950 . S
C525 C524 1.414 . S
C525 C526 1.374 . S
C526 H500 0.950 . S
C526 C522 1.367 1_556 S
C526 C525 1.374 . S
C527 C524 1.499 . S
C527 C528 1.373 . S
C527 C529 1.389 . S
C528 H501 0.950 . S
C528 C514 1.377 . S
C528 C527 1.373 . S
C529 C513 1.377 . S
C529 C527 1.389 . S
C529 C530 1.524 . S
C530 C529 1.524 . S
C530 C531 1.397 . S
C530 C535 1.363 1_556 S
C531 H502 0.950 . S
C531 C530 1.397 . S
C531 C532 1.334 . S
C532 H503 0.950 . S
C532 C531 1.334 . S
C532 C533 1.287 1_556 S
C533 C532 1.287 1_554 S
C533 C534 1.524 . S
C533 H536 0.999 . S
C534 H504 0.950 . S
C534 C533 1.524 . S
C534 C535 1.415 . S
C535 H505 0.950 . S
C535 C530 1.363 1_554 S
C535 C534 1.415 . S
H536 C533 0.999 . S
H537 C518 0.913 . S
H538 C556 0.951 . S
H539 C558 0.951 . S
H540 C560 0.950 . S
H541 C561 0.950 . S
H542 C563 0.950 . S
H543 C566 0.950 . S
H544 C567 0.950 . S
H545 C569 0.950 . S
H546 C570 0.950 . S
H547 C571 0.951 . S
H548 C573 0.951 . S
H549 C575 0.950 . S
H550 C576 0.950 . S
H551 C578 0.950 . S
H552 C581 0.950 . S
H553 C582 0.950 . S
H554 C584 0.950 . S
H555 C585 0.950 . S
C556 H538 0.951 . S
C556 C557 1.366 . S
C556 C558 1.388 . S
C557 C556 1.366 . S
C557 C561 1.385 . S
C558 H539 0.951 . S
C558 C556 1.388 . S
C558 C559 1.366 . S
C559 C558 1.366 . S
C559 C560 1.414 . S
C559 C562 1.499 . S
C560 H540 0.950 . S
C560 C559 1.414 . S
C560 C561 1.374 . S
C561 H541 0.950 . S
C561 C557 1.385 . S
C561 C560 1.374 . S
C562 C559 1.499 . S
C562 C563 1.373 . S
C562 C564 1.389 . S
C563 H542 0.950 . S
C563 C562 1.373 . S
C563 C579 1.377 . S
C564 C562 1.389 . S
C564 C565 1.524 . S
C564 C578 1.377 . S
C565 C564 1.524 . S
C565 C566 1.397 . S
C565 C570 1.363 . S
C566 H543 0.950 . S
C566 C565 1.397 . S
C566 C567 1.334 . S
C567 H544 0.950 . S
C567 C566 1.334 . S
C567 C568 1.287 . S
C568 C567 1.287 . S
C568 C569 1.524 . S
C568 H587 0.913 . S
C569 H545 0.950 . S
C569 C568 1.524 . S
C569 C570 1.415 . S
C570 H546 0.950 . S
C570 C565 1.363 . S
C570 C569 1.415 . S
C571 H547 0.951 . S
C571 C572 1.366 . S
C571 C573 1.388 . S
C572 C571 1.366 . S
C572 C576 1.385 . S
C573 H548 0.951 . S
C573 C571 1.388 . S
C573 C574 1.366 . S
C574 C573 1.366 . S
C574 C575 1.414 . S
C574 C577 1.499 . S
C575 H549 0.950 . S
C575 C574 1.414 . S
C575 C576 1.374 . S
C576 H550 0.950 . S
C576 C572 1.385 . S
C576 C575 1.374 . S
C577 C574 1.499 . S
C577 C578 1.373 . S
C577 C579 1.389 . S
C578 H551 0.950 . S
C578 C564 1.377 . S
C578 C577 1.373 . S
C579 C563 1.377 . S
C579 C577 1.389 . S
C579 C580 1.524 . S
C580 C579 1.524 . S
C580 C581 1.397 . S
C580 C585 1.363 . S
C581 H552 0.950 . S
C581 C580 1.397 . S
C581 C582 1.334 . S
C582 H553 0.950 . S
C582 C581 1.334 . S
C582 C583 1.287 . S
C583 C582 1.287 . S
C583 C584 1.524 . S
C583 H586 0.999 . S
C584 H554 0.950 . S
C584 C583 1.524 . S
C584 C585 1.415 . S
C585 H555 0.950 . S
C585 C580 1.363 . S
C585 C584 1.415 . S
H586 C583 0.999 . S
H587 C568 0.913 . S
H588 C606 0.951 . S
H589 C608 0.951 . S
H590 C610 0.950 . S
H591 C611 0.950 . S
H592 C613 0.950 . S
H593 C616 0.950 . S
H594 C617 0.950 . S
H595 C619 0.950 . S
H596 C620 0.950 . S
H597 C621 0.951 . S
H598 C623 0.951 . S
H599 C625 0.950 . S
H600 C626 0.950 . S
H601 C628 0.950 . S
H602 C631 0.950 . S
H603 C632 0.950 . S
H604 C634 0.950 . S
H605 C635 0.950 . S
C606 H588 0.951 . S
C606 C607 1.366 . S
C606 C608 1.388 . S
C607 C606 1.366 . S
C607 C611 1.385 . S
C608 H589 0.951 . S
C608 C606 1.388 . S
C608 C609 1.366 . S
C609 C608 1.366 . S
C609 C610 1.414 . S
C609 C612 1.499 . S
C610 H590 0.950 . S
C610 C609 1.414 . S
C610 C611 1.374 . S
C611 H591 0.950 . S
C611 C607 1.385 . S
C611 C610 1.374 . S
C612 C609 1.499 . S
C612 C613 1.373 . S
C612 C614 1.389 . S
C613 H592 0.950 . S
C613 C612 1.373 . S
C613 C629 1.377 . S
C614 C612 1.389 . S
C614 C615 1.524 . S
C614 C628 1.377 . S
C615 C614 1.524 . S
C615 C616 1.397 . S
C615 C620 1.363 . S
C616 H593 0.950 . S
C616 C615 1.397 . S
C616 C617 1.334 . S
C617 H594 0.950 . S
C617 C616 1.334 . S
C617 C618 1.287 . S
C618 C617 1.287 . S
C618 C619 1.524 . S
C618 H637 0.913 . S
C619 H595 0.950 . S
C619 C618 1.524 . S
C619 C620 1.415 . S
C620 H596 0.950 . S
C620 C615 1.363 . S
C620 C619 1.415 . S
C621 H597 0.951 . S
C621 C622 1.366 . S
C621 C623 1.388 . S
C622 C621 1.366 . S
C622 C626 1.385 . S
C623 H598 0.951 . S
C623 C621 1.388 . S
C623 C624 1.366 . S
C624 C623 1.366 . S
C624 C625 1.414 . S
C624 C627 1.499 . S
C625 H599 0.950 . S
C625 C624 1.414 . S
C625 C626 1.374 . S
C626 H600 0.950 . S
C626 C622 1.385 . S
C626 C625 1.374 . S
C627 C624 1.499 . S
C627 C628 1.373 . S
C627 C629 1.389 . S
C628 H601 0.950 . S
C628 C614 1.377 . S
C628 C627 1.373 . S
C629 C613 1.377 . S
C629 C627 1.389 . S
C629 C630 1.524 . S
C630 C629 1.524 . S
C630 C631 1.397 . S
C630 C635 1.363 . S
C631 H602 0.950 . S
C631 C630 1.397 . S
C631 C632 1.334 1_554 S
C632 H603 0.950 . S
C632 C631 1.334 1_556 S
C632 C633 1.287 . S
C633 C632 1.287 . S
C633 C634 1.524 . S
C633 H636 0.999 . S
C634 H604 0.950 . S
C634 C633 1.524 . S
C634 C635 1.415 1_556 S
C635 H605 0.950 . S
C635 C630 1.363 . S
C635 C634 1.415 1_554 S
H636 C633 0.999 . S
H637 C618 0.913 . S
H638 C656 0.951 . S
H639 C658 0.951 . S
H640 C660 0.950 . S
H641 C661 0.950 . S
H642 C663 0.950 . S
H643 C666 0.950 . S
H644 C667 0.950 . S
H645 C669 0.950 . S
H646 C670 0.950 . S
H647 C671 0.951 1_554 S
H648 C673 0.951 . S
H649 C675 0.950 . S
H650 C676 0.950 . S
H651 C678 0.950 . S
H652 C681 0.950 . S
H653 C682 0.950 . S
H654 C684 0.950 . S
H655 C685 0.950 . S
C656 H638 0.951 . S
C656 C657 1.366 . S
C656 C658 1.388 . S
C657 C656 1.366 . S
C657 C661 1.385 . S
C658 H639 0.951 . S
C658 C656 1.388 . S
C658 C659 1.366 . S
C659 C658 1.366 . S
C659 C660 1.414 . S
C659 C662 1.499 . S
C660 H640 0.950 . S
C660 C659 1.414 . S
C660 C661 1.374 . S
C661 H641 0.950 . S
C661 C657 1.385 . S
C661 C660 1.374 . S
C662 C659 1.499 . S
C662 C663 1.373 . S
C662 C664 1.389 . S
C663 H642 0.950 . S
C663 C662 1.373 . S
C663 C679 1.377 . S
C664 C662 1.389 . S
C664 C665 1.524 . S
C664 C678 1.377 . S
C665 C664 1.524 . S
C665 C666 1.397 . S
C665 C670 1.363 . S
C666 H643 0.950 . S
C666 C665 1.397 . S
C666 C667 1.334 . S
C667 H644 0.950 . S
C667 C666 1.334 . S
C667 C668 1.287 . S
C668 C667 1.287 . S
C668 C669 1.524 . S
C668 H687 0.913 . S
C669 H645 0.950 . S
C669 C668 1.524 . S
C669 C670 1.415 . S
C670 H646 0.950 . S
C670 C665 1.363 . S
C670 C669 1.415 . S
C671 H647 0.951 1_556 S
C671 C672 1.366 . S
C671 C673 1.388 . S
C672 C671 1.366 . S
C672 C676 1.385 . S
C673 H648 0.951 . S
C673 C671 1.388 . S
C673 C674 1.366 . S
C674 C673 1.366 . S
C674 C675 1.414 . S
C674 C677 1.499 . S
C675 H649 0.950 . S
C675 C674 1.414 . S
C675 C676 1.374 . S
C676 H650 0.950 . S
C676 C672 1.385 . S
C676 C675 1.374 . S
C677 C674 1.499 . S
C677 C678 1.373 . S
C677 C679 1.389 . S
C678 H651 0.950 . S
C678 C664 1.377 . S
C678 C677 1.373 . S
C679 C663 1.377 . S
C679 C677 1.389 . S
C679 C680 1.524 . S
C680 C679 1.524 . S
C680 C681 1.397 . S
C680 C685 1.363 . S
C681 H652 0.950 . S
C681 C680 1.397 . S
C681 C682 1.334 . S
C682 H653 0.950 . S
C682 C681 1.334 . S
C682 C683 1.287 . S
C683 C682 1.287 . S
C683 C684 1.524 1_556 S
C683 H686 0.999 1_556 S
C684 H654 0.950 . S
C684 C683 1.524 1_554 S
C684 C685 1.415 1_554 S
C685 H655 0.950 . S
C685 C680 1.363 . S
C685 C684 1.415 1_556 S
H686 C683 0.999 1_554 S
H687 C668 0.913 . S
H688 C706 0.951 . S
H689 C708 0.951 . S
H690 C710 0.950 . S
H691 C711 0.950 . S
H692 C713 0.950 . S
H693 C716 0.950 . S
H694 C717 0.950 . S
H695 C719 0.950 . S
H696 C720 0.950 . S
H697 C721 0.951 1_455 S
H698 C723 0.951 1_455 S
H699 C725 0.950 . S
H700 C726 0.950 . S
H701 C728 0.950 . S
H702 C731 0.950 . S
H703 C732 0.950 . S
H704 C734 0.950 . S
H705 C735 0.950 . S
C706 H688 0.951 . S
C706 C707 1.366 . S
C706 C708 1.388 . S
C707 C706 1.366 . S
C707 C711 1.385 . S
C708 H689 0.951 . S
C708 C706 1.388 . S
C708 C709 1.366 . S
C709 C708 1.366 . S
C709 C710 1.414 . S
C709 C712 1.499 . S
C710 H690 0.950 . S
C710 C709 1.414 . S
C710 C711 1.374 . S
C711 H691 0.950 . S
C711 C707 1.385 . S
C711 C710 1.374 . S
C712 C709 1.499 . S
C712 C713 1.373 . S
C712 C714 1.389 . S
C713 H692 0.950 . S
C713 C712 1.373 . S
C713 C729 1.377 . S
C714 C712 1.389 . S
C714 C715 1.524 . S
C714 C728 1.377 . S
C715 C714 1.524 . S
C715 C716 1.397 . S
C715 C720 1.363 . S
C716 H693 0.950 . S
C716 C715 1.397 . S
C716 C717 1.334 . S
C717 H694 0.950 . S
C717 C716 1.334 . S
C717 C718 1.287 . S
C718 C717 1.287 . S
C718 C719 1.524 . S
C718 H737 0.913 . S
C719 H695 0.950 . S
C719 C718 1.524 . S
C719 C720 1.415 . S
C720 H696 0.950 . S
C720 C715 1.363 . S
C720 C719 1.415 . S
C721 H697 0.951 1_655 S
C721 C722 1.366 . S
C721 C723 1.388 . S
C722 C721 1.366 . S
C722 C726 1.385 . S
C723 H698 0.951 1_655 S
C723 C721 1.388 . S
C723 C724 1.366 . S
C724 C723 1.366 . S
C724 C725 1.414 . S
C724 C727 1.499 . S
C725 H699 0.950 . S
C725 C724 1.414 . S
C725 C726 1.374 . S
C726 H700 0.950 . S
C726 C722 1.385 . S
C726 C725 1.374 . S
C727 C724 1.499 . S
C727 C728 1.373 . S
C727 C729 1.389 . S
C728 H701 0.950 . S
C728 C714 1.377 . S
C728 C727 1.373 . S
C729 C713 1.377 . S
C729 C727 1.389 . S
C729 C730 1.524 . S
C730 C729 1.524 . S
C730 C731 1.397 . S
C730 C735 1.363 . S
C731 H702 0.950 . S
C731 C730 1.397 . S
C731 C732 1.334 . S
C732 H703 0.950 . S
C732 C731 1.334 . S
C732 C733 1.287 . S
C733 C732 1.287 . S
C733 C734 1.524 . S
C733 H736 0.999 . S
C734 H704 0.950 . S
C734 C733 1.524 . S
C734 C735 1.415 . S
C735 H705 0.950 . S
C735 C730 1.363 . S
C735 C734 1.415 . S
H736 C733 0.999 . S
H737 C718 0.913 . S
H738 C756 0.951 . S
H739 C758 0.951 . S
H740 C760 0.950 . S
H741 C761 0.950 . S
H742 C763 0.950 . S
H743 C766 0.950 . S
H744 C767 0.950 . S
H745 C769 0.950 . S
H746 C770 0.950 . S
H747 C771 0.951 . S
H748 C773 0.951 . S
H749 C775 0.950 . S
H750 C776 0.950 . S
H751 C778 0.950 . S
H752 C781 0.950 . S
H753 C782 0.950 . S
H754 C784 0.950 . S
H755 C785 0.950 . S
C756 H738 0.951 . S
C756 C757 1.366 . S
C756 C758 1.388 . S
C757 C756 1.366 . S
C757 C761 1.385 . S
C758 H739 0.951 . S
C758 C756 1.388 . S
C758 C759 1.366 . S
C759 C758 1.366 . S
C759 C760 1.414 . S
C759 C762 1.499 . S
C760 H740 0.950 . S
C760 C759 1.414 . S
C760 C761 1.374 . S
C761 H741 0.950 . S
C761 C757 1.385 . S
C761 C760 1.374 . S
C762 C759 1.499 . S
C762 C763 1.373 . S
C762 C764 1.389 . S
C763 H742 0.950 . S
C763 C762 1.373 . S
C763 C779 1.377 . S
C764 C762 1.389 . S
C764 C765 1.524 . S
C764 C778 1.377 . S
C765 C764 1.524 . S
C765 C766 1.397 . S
C765 C770 1.363 . S
C766 H743 0.950 . S
C766 C765 1.397 . S
C766 C767 1.334 . S
C767 H744 0.950 . S
C767 C766 1.334 . S
C767 C768 1.287 . S
C768 C767 1.287 . S
C768 C769 1.524 . S
C768 H787 0.913 . S
C769 H745 0.950 . S
C769 C768 1.524 . S
C769 C770 1.415 . S
C770 H746 0.950 . S
C770 C765 1.363 . S
C770 C769 1.415 . S
C771 H747 0.951 . S
C771 C772 1.366 . S
C771 C773 1.388 . S
C772 C771 1.366 . S
C772 C776 1.385 . S
C773 H748 0.951 . S
C773 C771 1.388 . S
C773 C774 1.366 . S
C774 C773 1.366 . S
C774 C775 1.414 . S
C774 C777 1.499 . S
C775 H749 0.950 . S
C775 C774 1.414 . S
C775 C776 1.374 . S
C776 H750 0.950 . S
C776 C772 1.385 . S
C776 C775 1.374 . S
C777 C774 1.499 . S
C777 C778 1.373 . S
C777 C779 1.389 . S
C778 H751 0.950 . S
C778 C764 1.377 . S
C778 C777 1.373 . S
C779 C763 1.377 . S
C779 C777 1.389 . S
C779 C780 1.524 . S
C780 C779 1.524 . S
C780 C781 1.397 . S
C780 C785 1.363 . S
C781 H752 0.950 . S
C781 C780 1.397 . S
C781 C782 1.334 . S
C782 H753 0.950 . S
C782 C781 1.334 . S
C782 C783 1.287 . S
C783 C782 1.287 . S
C783 C784 1.524 . S
C783 H786 0.999 . S
C784 H754 0.950 . S
C784 C783 1.524 . S
C784 C785 1.415 . S
C785 H755 0.950 . S
C785 C780 1.363 . S
C785 C784 1.415 . S
H786 C783 0.999 . S
H787 C768 0.913 . S
H788 C806 0.951 . S
H789 C808 0.951 . S
H790 C810 0.950 . S
H791 C811 0.950 . S
H792 C813 0.950 . S
H793 C816 0.950 . S
H794 C817 0.950 . S
H795 C819 0.950 . S
H796 C820 0.956 . S
H797 C821 0.951 . S
H798 C823 0.951 . S
H799 C825 0.950 . S
H800 C826 0.950 . S
H801 C828 0.950 . S
H802 C831 0.950 . S
H803 C832 0.950 . S
H804 C834 0.950 . S
H805 C835 0.950 . S
C806 H788 0.951 . S
C806 C807 1.366 . S
C806 C808 1.388 . S
C807 C806 1.366 . S
C807 C811 1.385 . S
C808 H789 0.951 . S
C808 C806 1.388 . S
C808 C809 1.366 . S
C809 C808 1.366 . S
C809 C810 1.414 . S
C809 C812 1.499 . S
C810 H790 0.950 . S
C810 C809 1.414 . S
C810 C811 1.374 . S
C811 H791 0.950 . S
C811 C807 1.385 . S
C811 C810 1.374 . S
C812 C809 1.499 . S
C812 C813 1.373 . S
C812 C814 1.389 . S
C813 H792 0.950 . S
C813 C812 1.373 . S
C813 C829 1.377 . S
C814 C812 1.389 . S
C814 C815 1.524 . S
C814 C828 1.377 . S
C815 C814 1.524 . S
C815 C816 1.397 . S
C815 C820 1.357 1_655 S
C816 H793 0.950 . S
C816 C815 1.397 . S
C816 C817 1.334 1_565 S
C817 H794 0.950 . S
C817 C816 1.334 1_545 S
C817 C818 1.287 . S
C818 C817 1.287 . S
C818 C819 1.524 1_655 S
C818 H837 0.913 . S
C819 H795 0.950 . S
C819 C818 1.524 1_455 S
C819 C820 1.415 1_545 S
C820 H796 0.956 . S
C820 C815 1.357 1_455 S
C820 C819 1.415 1_565 S
C821 H797 0.951 . S
C821 C822 1.366 . S
C821 C823 1.388 . S
C822 C821 1.366 . S
C822 C826 1.385 1_655 S
C823 H798 0.951 . S
C823 C821 1.388 . S
C823 C824 1.366 . S
C824 C823 1.366 . S
C824 C825 1.414 1_655 S
C824 C827 1.499 . S
C825 H799 0.950 . S
C825 C824 1.414 1_455 S
C825 C826 1.374 . S
C826 H800 0.950 . S
C826 C822 1.385 1_455 S
C826 C825 1.374 . S
C827 C824 1.499 . S
C827 C828 1.373 . S
C827 C829 1.389 . S
C828 H801 0.950 . S
C828 C814 1.377 . S
C828 C827 1.373 . S
C829 C813 1.377 . S
C829 C827 1.389 . S
C829 C830 1.524 . S
C830 C829 1.524 . S
C830 C831 1.397 . S
C830 C835 1.363 . S
C831 H802 0.950 . S
C831 C830 1.397 . S
C831 C832 1.334 . S
C832 H803 0.950 . S
C832 C831 1.334 . S
C832 C833 1.287 . S
C833 C832 1.287 . S
C833 C834 1.524 . S
C833 H836 0.999 . S
C834 H804 0.950 . S
C834 C833 1.524 . S
C834 C835 1.415 . S
C835 H805 0.950 . S
C835 C830 1.363 . S
C835 C834 1.415 . S
H836 C833 0.999 . S
H837 C818 0.913 . S
H838 C856 0.951 . S
H839 C858 0.951 . S
H840 C860 0.950 . S
H841 C861 0.950 . S
H842 C863 0.950 . S
H843 C866 0.950 . S
H844 C867 0.950 . S
H845 C869 0.950 . S
H846 C870 0.950 . S
H847 C871 0.951 . S
H848 C873 0.951 . S
H849 C875 0.950 . S
H850 C876 0.950 . S
H851 C878 0.950 . S
H852 C881 0.950 . S
H853 C882 0.950 . S
H854 C884 0.950 . S
H855 C885 0.950 . S
C856 H838 0.951 . S
C856 C857 1.366 . S
C856 C858 1.388 . S
C857 C856 1.366 . S
C857 C861 1.385 . S
C858 H839 0.951 . S
C858 C856 1.388 . S
C858 C859 1.366 . S
C859 C858 1.366 . S
C859 C860 1.414 . S
C859 C862 1.499 . S
C860 H840 0.950 . S
C860 C859 1.414 . S
C860 C861 1.374 . S
C861 H841 0.950 . S
C861 C857 1.385 . S
C861 C860 1.374 . S
C862 C859 1.499 . S
C862 C863 1.373 . S
C862 C864 1.389 . S
C863 H842 0.950 . S
C863 C862 1.373 . S
C863 C879 1.377 . S
C864 C862 1.389 . S
C864 C865 1.524 . S
C864 C878 1.377 . S
C865 C864 1.524 . S
C865 C866 1.397 . S
C865 C870 1.363 . S
C866 H843 0.950 . S
C866 C865 1.397 . S
C866 C867 1.334 . S
C867 H844 0.950 . S
C867 C866 1.334 . S
C867 C868 1.287 . S
C868 C867 1.287 . S
C868 C869 1.524 . S
C868 H887 0.913 . S
C869 H845 0.950 . S
C869 C868 1.524 . S
C869 C870 1.415 . S
C870 H846 0.950 . S
C870 C865 1.363 . S
C870 C869 1.415 . S
C871 H847 0.951 . S
C871 C872 1.366 . S
C871 C873 1.388 . S
C872 C871 1.366 . S
C872 C876 1.385 . S
C873 H848 0.951 . S
C873 C871 1.388 . S
C873 C874 1.366 . S
C874 C873 1.366 . S
C874 C875 1.414 . S
C874 C877 1.499 . S
C875 H849 0.950 . S
C875 C874 1.414 . S
C875 C876 1.374 . S
C876 H850 0.950 . S
C876 C872 1.385 . S
C876 C875 1.374 . S
C877 C874 1.499 . S
C877 C878 1.373 . S
C877 C879 1.389 . S
C878 H851 0.950 . S
C878 C864 1.377 . S
C878 C877 1.373 . S
C879 C863 1.377 . S
C879 C877 1.389 . S
C879 C880 1.524 . S
C880 C879 1.524 . S
C880 C881 1.397 . S
C880 C885 1.363 . S
C881 H852 0.950 . S
C881 C880 1.397 . S
C881 C882 1.334 . S
C882 H853 0.950 . S
C882 C881 1.334 . S
C882 C883 1.287 . S
C883 C882 1.287 . S
C883 C884 1.524 . S
C883 H886 0.999 . S
C884 H854 0.950 . S
C884 C883 1.524 . S
C884 C885 1.415 . S
C885 H855 0.950 . S
C885 C880 1.363 . S
C885 C884 1.415 . S
H886 C883 0.999 . S
H887 C868 0.913 . S
H888 C906 0.951 . S
H889 C908 0.951 . S
H890 C910 0.950 . S
H891 C911 0.950 . S
H892 C913 0.950 . S
H893 C916 0.950 . S
H894 C917 0.950 . S
H895 C919 0.950 . S
H896 C920 0.950 . S
H897 C921 0.951 . S
H898 C923 0.951 . S
H899 C925 0.950 . S
H900 C926 0.950 . S
H901 C928 0.950 . S
H902 C931 0.950 . S
H903 C932 0.950 . S
H904 C934 0.950 . S
H905 C935 0.950 . S
C906 H888 0.951 . S
C906 C907 1.366 . S
C906 C908 1.388 . S
C907 C906 1.366 . S
C907 C911 1.385 . S
C908 H889 0.951 . S
C908 C906 1.388 . S
C908 C909 1.366 . S
C909 C908 1.366 . S
C909 C910 1.414 . S
C909 C912 1.499 . S
C910 H890 0.950 . S
C910 C909 1.414 . S
C910 C911 1.374 . S
C911 H891 0.950 . S
C911 C907 1.385 . S
C911 C910 1.374 . S
C912 C909 1.499 . S
C912 C913 1.373 . S
C912 C914 1.389 . S
C913 H892 0.950 . S
C913 C912 1.373 . S
C913 C929 1.377 . S
C914 C912 1.389 . S
C914 C915 1.524 . S
C914 C928 1.377 . S
C915 C914 1.524 . S
C915 C916 1.397 . S
C915 C920 1.363 . S
C916 H893 0.950 . S
C916 C915 1.397 . S
C916 C917 1.334 . S
C917 H894 0.950 . S
C917 C916 1.334 . S
C917 C918 1.287 . S
C918 C917 1.287 . S
C918 C919 1.524 . S
C918 H937 0.913 . S
C919 H895 0.950 . S
C919 C918 1.524 . S
C919 C920 1.415 . S
C920 H896 0.950 . S
C920 C915 1.363 . S
C920 C919 1.415 . S
C921 H897 0.951 . S
C921 C922 1.366 . S
C921 C923 1.388 . S
C922 C921 1.366 . S
C922 C926 1.385 . S
C923 H898 0.951 . S
C923 C921 1.388 . S
C923 C924 1.366 . S
C924 C923 1.366 . S
C924 C925 1.414 . S
C924 C927 1.499 . S
C925 H899 0.950 . S
C925 C924 1.414 . S
C925 C926 1.374 . S
C926 H900 0.950 . S
C926 C922 1.385 . S
C926 C925 1.374 . S
C927 C924 1.499 . S
C927 C928 1.373 . S
C927 C929 1.389 . S
C928 H901 0.950 . S
C928 C914 1.377 . S
C928 C927 1.373 . S
C929 C913 1.377 . S
C929 C927 1.389 . S
C929 C930 1.524 . S
C930 C929 1.524 . S
C930 C931 1.397 . S
C930 C935 1.363 . S
C931 H902 0.950 . S
C931 C930 1.397 . S
C931 C932 1.334 . S
C932 H903 0.950 . S
C932 C931 1.334 . S
C932 C933 1.287 . S
C933 C932 1.287 . S
C933 C934 1.524 . S
C933 H936 0.999 . S
C934 H904 0.950 . S
C934 C933 1.524 . S
C934 C935 1.415 . S
C935 H905 0.950 . S
C935 C930 1.363 . S
C935 C934 1.415 . S
H936 C933 0.999 . S
H937 C918 0.913 . S
H938 C956 0.951 . S
H939 C958 0.951 . S
H940 C960 0.950 . S
H941 C961 0.950 . S
H942 C963 0.950 . S
H943 C966 0.950 . S
H944 C967 0.950 . S
H945 C969 0.950 . S
H946 C970 0.950 . S
H947 C971 0.951 . S
H948 C973 0.951 . S
H949 C975 0.950 . S
H950 C976 0.950 . S
H951 C978 0.950 . S
H952 C981 0.950 . S
H953 C982 0.950 . S
H954 C984 0.950 . S
H955 C985 0.950 . S
C956 H938 0.951 . S
C956 C957 1.366 . S
C956 C958 1.388 . S
C957 C956 1.366 . S
C957 C961 1.385 . S
C958 H939 0.951 . S
C958 C956 1.388 . S
C958 C959 1.366 . S
C959 C958 1.366 . S
C959 C960 1.414 . S
C959 C962 1.499 . S
C960 H940 0.950 . S
C960 C959 1.414 . S
C960 C961 1.374 . S
C961 H941 0.950 . S
C961 C957 1.385 . S
C961 C960 1.374 . S
C962 C959 1.499 . S
C962 C963 1.373 . S
C962 C964 1.389 . S
C963 H942 0.950 . S
C963 C962 1.373 . S
C963 C979 1.377 . S
C964 C962 1.389 . S
C964 C965 1.524 . S
C964 C978 1.377 . S
C965 C964 1.524 . S
C965 C966 1.397 . S
C965 C970 1.363 . S
C966 H943 0.950 . S
C966 C965 1.397 . S
C966 C967 1.334 . S
C967 H944 0.950 . S
C967 C966 1.334 . S
C967 C968 1.287 . S
C968 C967 1.287 . S
C968 C969 1.524 . S
C968 H987 0.913 . S
C969 H945 0.950 . S
C969 C968 1.524 . S
C969 C970 1.415 . S
C970 H946 0.950 . S
C970 C965 1.363 . S
C970 C969 1.415 . S
C971 H947 0.951 . S
C971 C972 1.366 . S
C971 C973 1.388 . S
C972 C971 1.366 . S
C972 C976 1.385 . S
C973 H948 0.951 . S
C973 C971 1.388 . S
C973 C974 1.366 . S
C974 C973 1.366 . S
C974 C975 1.414 . S
C974 C977 1.499 . S
C975 H949 0.950 . S
C975 C974 1.414 . S
C975 C976 1.374 . S
C976 H950 0.950 . S
C976 C972 1.385 . S
C976 C975 1.374 . S
C977 C974 1.499 . S
C977 C978 1.373 . S
C977 C979 1.389 . S
C978 H951 0.950 . S
C978 C964 1.377 . S
C978 C977 1.373 . S
C979 C963 1.377 . S
C979 C977 1.389 . S
C979 C980 1.524 . S
C980 C979 1.524 . S
C980 C981 1.397 . S
C980 C985 1.363 . S
C981 H952 0.950 . S
C981 C980 1.397 . S
C981 C982 1.334 . S
C982 H953 0.950 . S
C982 C981 1.334 . S
C982 C983 1.287 . S
C983 C982 1.287 . S
C983 C984 1.524 . S
C983 H986 0.999 . S
C984 H954 0.950 . S
C984 C983 1.524 . S
C984 C985 1.415 . S
C985 H955 0.950 . S
C985 C980 1.363 . S
C985 C984 1.415 . S
H986 C983 0.999 . S
H987 C968 0.913 . S
H988 C1006 0.951 . S
H989 C1008 0.951 . S
H990 C1010 0.950 . S
H991 C1011 0.950 . S
H992 C1013 0.950 . S
H993 C1016 0.950 . S
H994 C1017 0.950 . S
H995 C1019 0.949 1_554 S
H996 C1020 0.950 1_545 S
H997 C1021 0.951 . S
H998 C1023 0.951 . S
H999 C1025 0.950 1_545 S
H1000 C1026 0.950 . S
H1001 C1028 0.950 . S
H1002 C1031 0.950 . S
H1003 C1032 0.950 . S
H1004 C1034 0.950 . S
H1005 C1035 0.950 . S
C1006 H988 0.951 . S
C1006 C1007 1.366 . S
C1006 C1008 1.388 . S
C1007 C1006 1.366 . S
C1007 C1011 1.385 . S
C1008 H989 0.951 . S
C1008 C1006 1.388 . S
C1008 C1009 1.366 . S
C1009 C1008 1.366 . S
C1009 C1010 1.414 . S
C1009 C1012 1.499 . S
C1010 H990 0.950 . S
C1010 C1009 1.414 . S
C1010 C1011 1.374 . S
C1011 H991 0.950 . S
C1011 C1007 1.385 . S
C1011 C1010 1.374 . S
C1012 C1009 1.499 . S
C1012 C1013 1.373 . S
C1012 C1014 1.389 . S
C1013 H992 0.950 . S
C1013 C1012 1.373 . S
C1013 C1029 1.377 . S
C1014 C1012 1.389 . S
C1014 C1015 1.524 . S
C1014 C1028 1.377 . S
C1015 C1014 1.524 . S
C1015 C1016 1.397 . S
C1015 C1020 1.363 . S
C1016 H993 0.950 . S
C1016 C1015 1.397 . S
C1016 C1017 1.334 1_556 S
C1017 H994 0.950 . S
C1017 C1016 1.334 1_554 S
C1017 C1018 1.287 . S
C1018 C1017 1.287 . S
C1018 C1019 1.524 1_564 S
C1018 H1037 0.913 . S
C1019 H995 0.949 1_556 S
C1019 C1018 1.524 1_546 S
C1019 C1020 1.415 1_545 S
C1020 H996 0.950 1_565 S
C1020 C1015 1.363 . S
C1020 C1019 1.415 1_565 S
C1021 H997 0.951 . S
C1021 C1022 1.366 . S
C1021 C1023 1.388 . S
C1022 C1021 1.366 . S
C1022 C1026 1.385 1_565 S
C1023 H998 0.951 . S
C1023 C1021 1.388 . S
C1023 C1024 1.366 . S
C1024 C1023 1.366 . S
C1024 C1025 1.414 . S
C1024 C1027 1.499 . S
C1025 H999 0.950 1_565 S
C1025 C1024 1.414 . S
C1025 C1026 1.374 1_565 S
C1026 H1000 0.950 . S
C1026 C1022 1.385 1_545 S
C1026 C1025 1.374 1_545 S
C1027 C1024 1.499 . S
C1027 C1028 1.373 . S
C1027 C1029 1.389 . S
C1028 H1001 0.950 . S
C1028 C1014 1.377 . S
C1028 C1027 1.373 . S
C1029 C1013 1.377 . S
C1029 C1027 1.389 . S
C1029 C1030 1.524 . S
C1030 C1029 1.524 . S
C1030 C1031 1.397 . S
C1030 C1035 1.363 . S
C1031 H1002 0.950 . S
C1031 C1030 1.397 . S
C1031 C1032 1.334 . S
C1032 H1003 0.950 . S
C1032 C1031 1.334 . S
C1032 C1033 1.287 . S
C1033 C1032 1.287 . S
C1033 C1034 1.524 . S
C1033 H1036 0.999 . S
C1034 H1004 0.950 . S
C1034 C1033 1.524 . S
C1034 C1035 1.415 . S
C1035 H1005 0.950 . S
C1035 C1030 1.363 . S
C1035 C1034 1.415 . S
H1036 C1033 0.999 . S
H1037 C1018 0.913 . S
H1038 C1056 0.951 . S
H1039 C1058 0.951 . S
H1040 C1060 0.950 . S
H1041 C1061 0.950 . S
H1042 C1063 0.950 . S
H1043 C1066 0.950 . S
H1044 C1067 0.950 . S
H1045 C1069 0.950 . S
H1046 C1070 0.950 . S
H1047 C1071 0.951 . S
H1048 C1073 0.951 . S
H1049 C1075 0.950 . S
H1050 C1076 0.950 . S
H1051 C1078 0.950 . S
H1052 C1081 0.950 . S
H1053 C1082 0.950 . S
H1054 C1084 0.950 . S
H1055 C1085 0.950 . S
C1056 H1038 0.951 . S
C1056 C1057 1.366 . S
C1056 C1058 1.388 . S
C1057 C1056 1.366 . S
C1057 C1061 1.385 . S
C1058 H1039 0.951 . S
C1058 C1056 1.388 . S
C1058 C1059 1.366 . S
C1059 C1058 1.366 . S
C1059 C1060 1.414 . S
C1059 C1062 1.499 . S
C1060 H1040 0.950 . S
C1060 C1059 1.414 . S
C1060 C1061 1.374 . S
C1061 H1041 0.950 . S
C1061 C1057 1.385 . S
C1061 C1060 1.374 . S
C1062 C1059 1.499 . S
C1062 C1063 1.373 . S
C1062 C1064 1.389 . S
C1063 H1042 0.950 . S
C1063 C1062 1.373 . S
C1063 C1079 1.377 . S
C1064 C1062 1.389 . S
C1064 C1065 1.524 . S
C1064 C1078 1.377 . S
C1065 C1064 1.524 . S
C1065 C1066 1.397 . S
C1065 C1070 1.363 . S
C1066 H1043 0.950 . S
C1066 C1065 1.397 . S
C1066 C1067 1.334 . S
C1067 H1044 0.950 . S
C1067 C1066 1.334 . S
C1067 C1068 1.287 . S
C1068 C1067 1.287 . S
C1068 C1069 1.524 . S
C1068 H1087 0.913 . S
C1069 H1045 0.950 . S
C1069 C1068 1.524 . S
C1069 C1070 1.415 . S
C1070 H1046 0.950 . S
C1070 C1065 1.363 . S
C1070 C1069 1.415 . S
C1071 H1047 0.951 . S
C1071 C1072 1.366 . S
C1071 C1073 1.388 . S
C1072 C1071 1.366 . S
C1072 C1076 1.385 . S
C1073 H1048 0.951 . S
C1073 C1071 1.388 . S
C1073 C1074 1.366 . S
C1074 C1073 1.366 . S
C1074 C1075 1.414 . S
C1074 C1077 1.499 . S
C1075 H1049 0.950 . S
C1075 C1074 1.414 . S
C1075 C1076 1.374 . S
C1076 H1050 0.950 . S
C1076 C1072 1.385 . S
C1076 C1075 1.374 . S
C1077 C1074 1.499 . S
C1077 C1078 1.373 . S
C1077 C1079 1.389 . S
C1078 H1051 0.950 . S
C1078 C1064 1.377 . S
C1078 C1077 1.373 . S
C1079 C1063 1.377 . S
C1079 C1077 1.389 . S
C1079 C1080 1.524 . S
C1080 C1079 1.524 . S
C1080 C1081 1.397 . S
C1080 C1085 1.363 . S
C1081 H1052 0.950 . S
C1081 C1080 1.397 . S
C1081 C1082 1.334 . S
C1082 H1053 0.950 . S
C1082 C1081 1.334 . S
C1082 C1083 1.287 . S
C1083 C1082 1.287 . S
C1083 C1084 1.524 . S
C1083 H1086 0.999 . S
C1084 H1054 0.950 . S
C1084 C1083 1.524 . S
C1084 C1085 1.415 . S
C1085 H1055 0.950 . S
C1085 C1080 1.363 . S
C1085 C1084 1.415 . S
H1086 C1083 0.999 . S
H1087 C1068 0.913 . S
H1088 C1106 0.951 . S
H1089 C1108 0.951 . S
H1090 C1110 0.950 . S
H1091 C1111 0.950 . S
H1092 C1113 0.950 . S
H1093 C1116 0.950 . S
H1094 C1117 0.950 . S
H1095 C1119 0.950 . S
H1096 C1120 0.950 . S
H1097 C1121 0.951 . S
H1098 C1123 0.951 . S
H1099 C1125 0.950 . S
H1100 C1126 0.950 . S
H1101 C1128 0.950 . S
H1102 C1131 0.950 . S
H1103 C1132 0.950 . S
H1104 C1134 0.950 . S
H1105 C1135 0.950 . S
C1106 H1088 0.951 . S
C1106 C1107 1.366 . S
C1106 C1108 1.388 . S
C1107 C1106 1.366 . S
C1107 C1111 1.385 . S
C1108 H1089 0.951 . S
C1108 C1106 1.388 . S
C1108 C1109 1.366 . S
C1109 C1108 1.366 . S
C1109 C1110 1.414 . S
C1109 C1112 1.499 . S
C1110 H1090 0.950 . S
C1110 C1109 1.414 . S
C1110 C1111 1.374 . S
C1111 H1091 0.950 . S
C1111 C1107 1.385 . S
C1111 C1110 1.374 . S
C1112 C1109 1.499 . S
C1112 C1113 1.373 . S
C1112 C1114 1.389 . S
C1113 H1092 0.950 . S
C1113 C1112 1.373 . S
C1113 C1129 1.377 . S
C1114 C1112 1.389 . S
C1114 C1115 1.524 . S
C1114 C1128 1.377 . S
C1115 C1114 1.524 . S
C1115 C1116 1.397 . S
C1115 C1120 1.363 . S
C1116 H1093 0.950 . S
C1116 C1115 1.397 . S
C1116 C1117 1.334 . S
C1117 H1094 0.950 . S
C1117 C1116 1.334 . S
C1117 C1118 1.287 . S
C1118 C1117 1.287 . S
C1118 C1119 1.524 . S
C1118 H1137 0.913 . S
C1119 H1095 0.950 . S
C1119 C1118 1.524 . S
C1119 C1120 1.415 . S
C1120 H1096 0.950 . S
C1120 C1115 1.363 . S
C1120 C1119 1.415 . S
C1121 H1097 0.951 . S
C1121 C1122 1.366 . S
C1121 C1123 1.388 . S
C1122 C1121 1.366 . S
C1122 C1126 1.385 . S
C1123 H1098 0.951 . S
C1123 C1121 1.388 . S
C1123 C1124 1.366 . S
C1124 C1123 1.366 . S
C1124 C1125 1.414 . S
C1124 C1127 1.499 . S
C1125 H1099 0.950 . S
C1125 C1124 1.414 . S
C1125 C1126 1.374 . S
C1126 H1100 0.950 . S
C1126 C1122 1.385 . S
C1126 C1125 1.374 . S
C1127 C1124 1.499 . S
C1127 C1128 1.373 . S
C1127 C1129 1.389 . S
C1128 H1101 0.950 . S
C1128 C1114 1.377 . S
C1128 C1127 1.373 . S
C1129 C1113 1.377 . S
C1129 C1127 1.389 . S
C1129 C1130 1.524 . S
C1130 C1129 1.524 . S
C1130 C1131 1.397 . S
C1130 C1135 1.363 . S
C1131 H1102 0.950 . S
C1131 C1130 1.397 . S
C1131 C1132 1.334 . S
C1132 H1103 0.950 . S
C1132 C1131 1.334 . S
C1132 C1133 1.287 . S
C1133 C1132 1.287 . S
C1133 C1134 1.524 . S
C1133 H1136 0.999 . S
C1134 H1104 0.950 . S
C1134 C1133 1.524 . S
C1134 C1135 1.415 . S
C1135 H1105 0.950 . S
C1135 C1130 1.363 . S
C1135 C1134 1.415 . S
H1136 C1133 0.999 . S
H1137 C1118 0.913 . S
H1138 C1156 0.951 . S
H1139 C1158 0.951 . S
H1140 C1160 0.950 . S
H1141 C1161 0.950 . S
H1142 C1163 0.950 . S
H1143 C1166 0.950 . S
H1144 C1167 0.950 . S
H1145 C1169 0.950 . S
H1146 C1170 0.950 . S
H1147 C1171 0.951 . S
H1148 C1173 0.951 . S
H1149 C1175 0.950 . S
H1150 C1176 0.950 . S
H1151 C1178 0.950 . S
H1152 C1181 0.950 . S
H1153 C1182 0.950 . S
H1154 C1184 0.950 . S
H1155 C1185 0.950 . S
C1156 H1138 0.951 . S
C1156 C1157 1.366 . S
C1156 C1158 1.388 . S
C1157 C1156 1.366 . S
C1157 C1161 1.385 . S
C1158 H1139 0.951 . S
C1158 C1156 1.388 . S
C1158 C1159 1.366 . S
C1159 C1158 1.366 . S
C1159 C1160 1.414 . S
C1159 C1162 1.499 . S
C1160 H1140 0.950 . S
C1160 C1159 1.414 . S
C1160 C1161 1.374 . S
C1161 H1141 0.950 . S
C1161 C1157 1.385 . S
C1161 C1160 1.374 . S
C1162 C1159 1.499 . S
C1162 C1163 1.373 . S
C1162 C1164 1.389 . S
C1163 H1142 0.950 . S
C1163 C1162 1.373 . S
C1163 C1179 1.377 . S
C1164 C1162 1.389 . S
C1164 C1165 1.524 . S
C1164 C1178 1.377 . S
C1165 C1164 1.524 . S
C1165 C1166 1.397 . S
C1165 C1170 1.363 . S
C1166 H1143 0.950 . S
C1166 C1165 1.397 . S
C1166 C1167 1.334 . S
C1167 H1144 0.950 . S
C1167 C1166 1.334 . S
C1167 C1168 1.287 . S
C1168 C1167 1.287 . S
C1168 C1169 1.524 . S
C1168 H1187 0.913 . S
C1169 H1145 0.950 . S
C1169 C1168 1.524 . S
C1169 C1170 1.415 . S
C1170 H1146 0.950 . S
C1170 C1165 1.363 . S
C1170 C1169 1.415 . S
C1171 H1147 0.951 . S
C1171 C1172 1.366 . S
C1171 C1173 1.388 . S
C1172 C1171 1.366 . S
C1172 C1176 1.385 . S
C1173 H1148 0.951 . S
C1173 C1171 1.388 . S
C1173 C1174 1.366 . S
C1174 C1173 1.366 . S
C1174 C1175 1.414 . S
C1174 C1177 1.499 . S
C1175 H1149 0.950 . S
C1175 C1174 1.414 . S
C1175 C1176 1.374 . S
C1176 H1150 0.950 . S
C1176 C1172 1.385 . S
C1176 C1175 1.374 . S
C1177 C1174 1.499 . S
C1177 C1178 1.373 . S
C1177 C1179 1.389 . S
C1178 H1151 0.950 . S
C1178 C1164 1.377 . S
C1178 C1177 1.373 . S
C1179 C1163 1.377 . S
C1179 C1177 1.389 . S
C1179 C1180 1.524 . S
C1180 C1179 1.524 . S
C1180 C1181 1.397 . S
C1180 C1185 1.363 . S
C1181 H1152 0.950 . S
C1181 C1180 1.397 . S
C1181 C1182 1.334 . S
C1182 H1153 0.950 . S
C1182 C1181 1.334 . S
C1182 C1183 1.287 . S
C1183 C1182 1.287 . S
C1183 C1184 1.524 . S
C1183 H1186 0.999 . S
C1184 H1154 0.950 . S
C1184 C1183 1.524 . S
C1184 C1185 1.415 . S
C1185 H1155 0.950 . S
C1185 C1180 1.363 . S
C1185 C1184 1.415 . S
H1186 C1183 0.999 . S
H1187 C1168 0.913 . S
H1188 C1206 0.951 . S
H1189 C1208 0.951 . S
H1190 C1210 0.950 . S
H1191 C1211 0.950 . S
H1192 C1213 0.934 1_455 S
H1193 C1216 0.950 . S
H1194 C1217 0.950 . S
H1195 C1219 0.950 . S
H1196 C1220 0.950 . S
H1197 C1221 0.951 . S
H1198 C1223 0.948 1_554 S
H1199 C1225 0.950 . S
H1200 C1226 0.950 . S
H1201 C1228 0.950 . S
H1202 C1231 0.950 . S
H1203 C1232 0.950 . S
H1204 C1234 0.950 . S
H1205 C1235 0.950 . S
C1206 H1188 0.951 . S
C1206 C1207 1.366 . S
C1206 C1208 1.388 . S
C1207 C1206 1.366 . S
C1207 C1211 1.385 . S
C1208 H1189 0.951 . S
C1208 C1206 1.388 . S
C1208 C1209 1.366 . S
C1209 C1208 1.366 . S
C1209 C1210 1.414 . S
C1209 C1212 1.499 . S
C1210 H1190 0.950 . S
C1210 C1209 1.414 . S
C1210 C1211 1.374 . S
C1211 H1191 0.950 . S
C1211 C1207 1.385 . S
C1211 C1210 1.374 . S
C1212 C1209 1.499 . S
C1212 C1213 1.373 . S
C1212 C1214 1.389 . S
C1213 H1192 0.934 1_655 S
C1213 C1212 1.373 . S
C1213 C1229 1.377 . S
C1214 C1212 1.389 . S
C1214 C1215 1.524 . S
C1214 C1228 1.377 . S
C1215 C1214 1.524 . S
C1215 C1216 1.397 1_556 S
C1215 C1220 1.363 . S
C1216 H1193 0.950 . S
C1216 C1215 1.397 1_554 S
C1216 C1217 1.334 . S
C1217 H1194 0.950 . S
C1217 C1216 1.334 . S
C1217 C1218 1.287 . S
C1218 C1217 1.287 . S
C1218 C1219 1.524 1_554 S
C1218 H1237 0.913 . S
C1219 H1195 0.950 . S
C1219 C1218 1.524 1_556 S
C1219 C1220 1.415 . S
C1220 H1196 0.950 . S
C1220 C1215 1.363 . S
C1220 C1219 1.415 . S
C1221 H1197 0.951 . S
C1221 C1222 1.366 1_554 S
C1221 C1223 1.388 1_554 S
C1222 C1221 1.366 1_556 S
C1222 C1226 1.385 1_455 S
C1223 H1198 0.948 1_556 S
C1223 C1221 1.388 1_556 S
C1223 C1224 1.366 1_455 S
C1224 C1223 1.366 1_655 S
C1224 C1225 1.414 . S
C1224 C1227 1.499 . S
C1225 H1199 0.950 . S
C1225 C1224 1.414 . S
C1225 C1226 1.374 . S
C1226 H1200 0.950 . S
C1226 C1222 1.385 1_655 S
C1226 C1225 1.374 . S
C1227 C1224 1.499 . S
C1227 C1228 1.373 . S
C1227 C1229 1.389 . S
C1228 H1201 0.950 . S
C1228 C1214 1.377 . S
C1228 C1227 1.373 . S
C1229 C1213 1.377 . S
C1229 C1227 1.389 . S
C1229 C1230 1.524 1_655 S
C1230 C1229 1.524 1_455 S
C1230 C1231 1.397 . S
C1230 C1235 1.363 . S
C1231 H1202 0.950 . S
C1231 C1230 1.397 . S
C1231 C1232 1.334 . S
C1232 H1203 0.950 . S
C1232 C1231 1.334 . S
C1232 C1233 1.287 . S
C1233 C1232 1.287 . S
C1233 C1234 1.524 . S
C1233 H1236 0.999 . S
C1234 H1204 0.950 . S
C1234 C1233 1.524 . S
C1234 C1235 1.415 . S
C1235 H1205 0.950 . S
C1235 C1230 1.363 . S
C1235 C1234 1.415 . S
H1236 C1233 0.999 . S
H1237 C1218 0.913 . S
H1238 C1256 0.951 . S
H1239 C1258 0.951 . S
H1240 C1260 0.950 . S
H1241 C1261 0.950 . S
H1242 C1263 0.950 . S
H1243 C1266 0.950 . S
H1244 C1267 0.950 . S
H1245 C1269 0.950 . S
H1246 C1270 0.950 . S
H1247 C1271 0.951 . S
H1248 C1273 0.951 . S
H1249 C1275 0.950 . S
H1250 C1276 0.950 . S
H1251 C1278 0.950 . S
H1252 C1281 0.950 . S
H1253 C1282 0.950 . S
H1254 C1284 0.950 . S
H1255 C1285 0.950 . S
C1256 H1238 0.951 . S
C1256 C1257 1.366 . S
C1256 C1258 1.388 . S
C1257 C1256 1.366 . S
C1257 C1261 1.385 . S
C1258 H1239 0.951 . S
C1258 C1256 1.388 . S
C1258 C1259 1.366 . S
C1259 C1258 1.366 . S
C1259 C1260 1.414 . S
C1259 C1262 1.499 . S
C1260 H1240 0.950 . S
C1260 C1259 1.414 . S
C1260 C1261 1.374 . S
C1261 H1241 0.950 . S
C1261 C1257 1.385 . S
C1261 C1260 1.374 . S
C1262 C1259 1.499 . S
C1262 C1263 1.373 . S
C1262 C1264 1.389 . S
C1263 H1242 0.950 . S
C1263 C1262 1.373 . S
C1263 C1279 1.377 . S
C1264 C1262 1.389 . S
C1264 C1265 1.524 . S
C1264 C1278 1.377 . S
C1265 C1264 1.524 . S
C1265 C1266 1.397 . S
C1265 C1270 1.363 . S
C1266 H1243 0.950 . S
C1266 C1265 1.397 . S
C1266 C1267 1.334 . S
C1267 H1244 0.950 . S
C1267 C1266 1.334 . S
C1267 C1268 1.287 . S
C1268 C1267 1.287 . S
C1268 C1269 1.524 . S
C1268 H1287 0.913 . S
C1269 H1245 0.950 . S
C1269 C1268 1.524 . S
C1269 C1270 1.415 . S
C1270 H1246 0.950 . S
C1270 C1265 1.363 . S
C1270 C1269 1.415 . S
C1271 H1247 0.951 . S
C1271 C1272 1.366 . S
C1271 C1273 1.388 . S
C1272 C1271 1.366 . S
C1272 C1276 1.385 . S
C1273 H1248 0.951 . S
C1273 C1271 1.388 . S
C1273 C1274 1.366 . S
C1274 C1273 1.366 . S
C1274 C1275 1.414 . S
C1274 C1277 1.499 . S
C1275 H1249 0.950 . S
C1275 C1274 1.414 . S
C1275 C1276 1.374 . S
C1276 H1250 0.950 . S
C1276 C1272 1.385 . S
C1276 C1275 1.374 . S
C1277 C1274 1.499 . S
C1277 C1278 1.373 . S
C1277 C1279 1.389 . S
C1278 H1251 0.950 . S
C1278 C1264 1.377 . S
C1278 C1277 1.373 . S
C1279 C1263 1.377 . S
C1279 C1277 1.389 . S
C1279 C1280 1.524 . S
C1280 C1279 1.524 . S
C1280 C1281 1.397 . S
C1280 C1285 1.363 . S
C1281 H1252 0.950 . S
C1281 C1280 1.397 . S
C1281 C1282 1.334 . S
C1282 H1253 0.950 . S
C1282 C1281 1.334 . S
C1282 C1283 1.287 . S
C1283 C1282 1.287 . S
C1283 C1284 1.524 . S
C1283 H1286 0.999 . S
C1284 H1254 0.950 . S
C1284 C1283 1.524 . S
C1284 C1285 1.415 . S
C1285 H1255 0.950 . S
C1285 C1280 1.363 . S
C1285 C1284 1.415 . S
H1286 C1283 0.999 . S
H1287 C1268 0.913 . S
H1288 C1306 0.951 . S
H1289 C1308 0.951 . S
H1290 C1310 0.950 . S
H1291 C1311 0.950 . S
H1292 C1313 0.950 . S
H1293 C1316 0.950 . S
H1294 C1317 0.950 . S
H1295 C1319 0.950 . S
H1296 C1320 0.950 . S
H1297 C1321 0.951 . S
H1298 C1323 0.951 . S
H1299 C1325 0.950 . S
H1300 C1326 0.950 . S
H1301 C1328 0.950 . S
H1302 C1331 0.950 . S
H1303 C1332 0.950 1_655 S
H1304 C1334 0.950 . S
H1305 C1335 0.950 . S
C1306 H1288 0.951 . S
C1306 C1307 1.366 . S
C1306 C1308 1.388 . S
C1307 C1306 1.366 . S
C1307 C1311 1.385 . S
C1308 H1289 0.951 . S
C1308 C1306 1.388 . S
C1308 C1309 1.366 . S
C1309 C1308 1.366 . S
C1309 C1310 1.414 . S
C1309 C1312 1.499 . S
C1310 H1290 0.950 . S
C1310 C1309 1.414 . S
C1310 C1311 1.374 . S
C1311 H1291 0.950 . S
C1311 C1307 1.385 . S
C1311 C1310 1.374 . S
C1312 C1309 1.499 . S
C1312 C1313 1.373 . S
C1312 C1314 1.389 . S
C1313 H1292 0.950 . S
C1313 C1312 1.373 . S
C1313 C1329 1.377 . S
C1314 C1312 1.389 . S
C1314 C1315 1.524 . S
C1314 C1328 1.377 . S
C1315 C1314 1.524 . S
C1315 C1316 1.397 . S
C1315 C1320 1.363 . S
C1316 H1293 0.950 . S
C1316 C1315 1.397 . S
C1316 C1317 1.334 . S
C1317 H1294 0.950 . S
C1317 C1316 1.334 . S
C1317 C1318 1.287 . S
C1318 C1317 1.287 . S
C1318 C1319 1.524 . S
C1318 H1337 0.913 . S
C1319 H1295 0.950 . S
C1319 C1318 1.524 . S
C1319 C1320 1.415 . S
C1320 H1296 0.950 . S
C1320 C1315 1.363 . S
C1320 C1319 1.415 . S
C1321 H1297 0.951 . S
C1321 C1322 1.366 . S
C1321 C1323 1.388 . S
C1322 C1321 1.366 . S
C1322 C1326 1.385 . S
C1323 H1298 0.951 . S
C1323 C1321 1.388 . S
C1323 C1324 1.366 . S
C1324 C1323 1.366 . S
C1324 C1325 1.414 . S
C1324 C1327 1.499 . S
C1325 H1299 0.950 . S
C1325 C1324 1.414 . S
C1325 C1326 1.374 . S
C1326 H1300 0.950 . S
C1326 C1322 1.385 . S
C1326 C1325 1.374 . S
C1327 C1324 1.499 . S
C1327 C1328 1.373 . S
C1327 C1329 1.389 . S
C1328 H1301 0.950 . S
C1328 C1314 1.377 . S
C1328 C1327 1.373 . S
C1329 C1313 1.377 . S
C1329 C1327 1.389 . S
C1329 C1330 1.524 . S
C1330 C1329 1.524 . S
C1330 C1331 1.397 . S
C1330 C1335 1.363 . S
C1331 H1302 0.950 . S
C1331 C1330 1.397 . S
C1331 C1332 1.334 . S
C1332 H1303 0.950 1_455 S
C1332 C1331 1.334 . S
C1332 C1333 1.287 . S
C1333 C1332 1.287 . S
C1333 C1334 1.524 . S
C1333 H1336 0.999 . S
C1334 H1304 0.950 . S
C1334 C1333 1.524 . S
C1334 C1335 1.415 . S
C1335 H1305 0.950 . S
C1335 C1330 1.363 . S
C1335 C1334 1.415 . S
H1336 C1333 0.999 . S
H1337 C1318 0.913 . S
H1338 C1356 0.951 . S
H1339 C1358 0.951 . S
H1340 C1360 0.950 . S
H1341 C1361 0.950 . S
H1342 C1363 0.950 . S
H1343 C1366 0.950 . S
H1344 C1367 0.950 . S
H1345 C1369 0.950 . S
H1346 C1370 0.950 . S
H1347 C1371 0.951 . S
H1348 C1373 0.951 . S
H1349 C1375 0.950 . S
H1350 C1376 0.950 . S
H1351 C1378 0.950 . S
H1352 C1381 0.950 . S
H1353 C1382 0.950 . S
H1354 C1384 0.950 . S
H1355 C1385 0.950 . S
C1356 H1338 0.951 . S
C1356 C1357 1.366 . S
C1356 C1358 1.388 . S
C1357 C1356 1.366 . S
C1357 C1361 1.385 . S
C1358 H1339 0.951 . S
C1358 C1356 1.388 . S
C1358 C1359 1.366 . S
C1359 C1358 1.366 . S
C1359 C1360 1.414 . S
C1359 C1362 1.499 . S
C1360 H1340 0.950 . S
C1360 C1359 1.414 . S
C1360 C1361 1.374 . S
C1361 H1341 0.950 . S
C1361 C1357 1.385 . S
C1361 C1360 1.374 . S
C1362 C1359 1.499 . S
C1362 C1363 1.373 . S
C1362 C1364 1.389 . S
C1363 H1342 0.950 . S
C1363 C1362 1.373 . S
C1363 C1379 1.377 . S
C1364 C1362 1.389 . S
C1364 C1365 1.524 . S
C1364 C1378 1.377 . S
C1365 C1364 1.524 . S
C1365 C1366 1.397 . S
C1365 C1370 1.363 . S
C1366 H1343 0.950 . S
C1366 C1365 1.397 . S
C1366 C1367 1.334 . S
C1367 H1344 0.950 . S
C1367 C1366 1.334 . S
C1367 C1368 1.287 . S
C1368 C1367 1.287 . S
C1368 C1369 1.524 . S
C1368 H1387 0.913 . S
C1369 H1345 0.950 . S
C1369 C1368 1.524 . S
C1369 C1370 1.415 . S
C1370 H1346 0.950 . S
C1370 C1365 1.363 . S
C1370 C1369 1.415 . S
C1371 H1347 0.951 . S
C1371 C1372 1.366 . S
C1371 C1373 1.388 . S
C1372 C1371 1.366 . S
C1372 C1376 1.385 . S
C1373 H1348 0.951 . S
C1373 C1371 1.388 . S
C1373 C1374 1.366 . S
C1374 C1373 1.366 . S
C1374 C1375 1.414 . S
C1374 C1377 1.499 . S
C1375 H1349 0.950 . S
C1375 C1374 1.414 . S
C1375 C1376 1.374 . S
C1376 H1350 0.950 . S
C1376 C1372 1.385 . S
C1376 C1375 1.374 . S
C1377 C1374 1.499 . S
C1377 C1378 1.373 . S
C1377 C1379 1.389 . S
C1378 H1351 0.950 . S
C1378 C1364 1.377 . S
C1378 C1377 1.373 . S
C1379 C1363 1.377 . S
C1379 C1377 1.389 . S
C1379 C1380 1.524 . S
C1380 C1379 1.524 . S
C1380 C1381 1.397 . S
C1380 C1385 1.363 . S
C1381 H1352 0.950 . S
C1381 C1380 1.397 . S
C1381 C1382 1.334 . S
C1382 H1353 0.950 . S
C1382 C1381 1.334 . S
C1382 C1383 1.287 . S
C1383 C1382 1.287 . S
C1383 C1384 1.524 . S
C1383 H1386 0.999 . S
C1384 H1354 0.950 . S
C1384 C1383 1.524 . S
C1384 C1385 1.415 . S
C1385 H1355 0.950 . S
C1385 C1380 1.363 . S
C1385 C1384 1.415 . S
H1386 C1383 0.999 . S
H1387 C1368 0.913 . S
C207 C9 2.078 . S
C222 C120 2.030 . S
C257 C21 1.473 . S
C272 C142 1.427 . S
C322 C161 0.947 . S
C307 C30 1.077 . S
C357 C43 1.436 . S
C372 C182 1.270 1_655 S
C422 C139 1.683 . S
C407 C4 1.700 . S
C472 C117 2.232 . S
C457 C22 2.275 . S
C522 C184 0.922 1_554 S
C507 C34 0.963 . S
C572 C163 1.146 . S
C557 C48 1.182 . S
C607 C8 1.838 . S
C622 C181 1.766 . S
C672 C140 1.343 . S
C657 C35 1.618 . S
C707 C47 1.727 . S
C722 C122 1.532 . S
C757 C17 1.298 . S
C772 C160 1.278 . S
C822 C118 1.610 1_655 S
C807 C60 1.668 . S
C857 C74 1.612 . S
C872 C138 1.559 . S
C907 C82 0.899 . S
C922 C164 0.832 . S
C957 C100 1.953 . S
C972 C185 1.630 . S
C1007 C61 2.149 . S
C1022 C141 2.086 . S
C1072 C121 1.761 . S
C1057 C73 1.833 . S
C1122 C180 1.273 . S
C1107 C87 1.318 . S
C1172 C159 1.034 . S
C1157 C95 1.037 . S
C1207 C56 1.584 . S
C1222 C183 1.603 . S
C1272 C143 1.317 . S
C1257 C86 1.560 . S
C1322 C119 1.223 . S
C1307 C99 1.397 . S
C1357 C69 1.275 . S
C1372 C162 1.285 . S
