# Generated by pormake.
# Topology zzz, (3,6)-cn, num edge types: 1
# Building blocks:
#     Node 0, Type 0, BuildingBlock: VETTIZ_charged_linker_0, # of connection points: 3
#     Node 1, Type 0, BuildingBlock: VETTIZ_charged_linker_0, # of connection points: 3
#     Node 2, Type 0, BuildingBlock: VETTIZ_charged_linker_0, # of connection points: 3
#     Node 3, Type 0, BuildingBlock: VETTIZ_charged_linker_0, # of connection points: 3
#     Node 4, Type 0, BuildingBlock: VETTIZ_charged_linker_0, # of connection points: 3
#     Node 5, Type 0, BuildingBlock: VETTIZ_charged_linker_0, # of connection points: 3
#     Node 6, Type 0, BuildingBlock: VETTIZ_charged_linker_0, # of connection points: 3
#     Node 7, Type 0, BuildingBlock: VETTIZ_charged_linker_0, # of connection points: 3
#     Node 8, Type 1, BuildingBlock: PAMTOO_clean_sbu_0, # of connection points: 6
#     Node 9, Type 1, BuildingBlock: PAMTOO_clean_sbu_0, # of connection points: 6
#     Node 10, Type 1, BuildingBlock: PAMTOO_clean_sbu_0, # of connection points: 6
#     Node 11, Type 1, BuildingBlock: PAMTOO_clean_sbu_0, # of connection points: 6
#     Edge 12, Type (0, 1), BuildingBlock: OJICUG_clean_linker_0, # of connection points: 2
#     Edge 13, Type (0, 1), BuildingBlock: OJICUG_clean_linker_0, # of connection points: 2
#     Edge 14, Type (0, 1), BuildingBlock: OJICUG_clean_linker_0, # of connection points: 2
#     Edge 15, Type (0, 1), BuildingBlock: OJICUG_clean_linker_0, # of connection points: 2
#     Edge 16, Type (0, 1), BuildingBlock: OJICUG_clean_linker_0, # of connection points: 2
#     Edge 17, Type (0, 1), BuildingBlock: OJICUG_clean_linker_0, # of connection points: 2
#     Edge 18, Type (0, 1), BuildingBlock: OJICUG_clean_linker_0, # of connection points: 2
#     Edge 19, Type (0, 1), BuildingBlock: OJICUG_clean_linker_0, # of connection points: 2
#     Edge 20, Type (0, 1), BuildingBlock: OJICUG_clean_linker_0, # of connection points: 2
#     Edge 21, Type (0, 1), BuildingBlock: OJICUG_clean_linker_0, # of connection points: 2
#     Edge 22, Type (0, 1), BuildingBlock: OJICUG_clean_linker_0, # of connection points: 2
#     Edge 23, Type (0, 1), BuildingBlock: OJICUG_clean_linker_0, # of connection points: 2
#     Edge 24, Type (0, 1), BuildingBlock: OJICUG_clean_linker_0, # of connection points: 2
#     Edge 25, Type (0, 1), BuildingBlock: OJICUG_clean_linker_0, # of connection points: 2
#     Edge 26, Type (0, 1), BuildingBlock: OJICUG_clean_linker_0, # of connection points: 2
#     Edge 27, Type (0, 1), BuildingBlock: OJICUG_clean_linker_0, # of connection points: 2
#     Edge 28, Type (0, 1), BuildingBlock: OJICUG_clean_linker_0, # of connection points: 2
#     Edge 29, Type (0, 1), BuildingBlock: OJICUG_clean_linker_0, # of connection points: 2
#     Edge 30, Type (0, 1), BuildingBlock: OJICUG_clean_linker_0, # of connection points: 2
#     Edge 31, Type (0, 1), BuildingBlock: OJICUG_clean_linker_0, # of connection points: 2
#     Edge 32, Type (0, 1), BuildingBlock: OJICUG_clean_linker_0, # of connection points: 2
#     Edge 33, Type (0, 1), BuildingBlock: OJICUG_clean_linker_0, # of connection points: 2
#     Edge 34, Type (0, 1), BuildingBlock: OJICUG_clean_linker_0, # of connection points: 2
#     Edge 35, Type (0, 1), BuildingBlock: OJICUG_clean_linker_0, # of connection points: 2
# Relax obj value: 0.395
# Max RMSD: 0.291
# Mean RMSD: 0.226
data_MOF--net-zzz--node1-PAMTOO_clean_sbu_0--node2-VETTIZ_charged_linker_0--edge1-OJICUG_clean_linker_0
_symmetry_space_group_name_H-M    P1
_symmetry_Int_Tables_number       1
_symmetry_cell_setting            triclinic
loop_
_symmetry_equiv_pos_as_xyz
'x, y, z'
_cell_length_a     50.405789
_cell_length_b     42.577032
_cell_length_c     16.246219
_cell_angle_alpha  91.466049
_cell_angle_beta   79.501246
_cell_angle_gamma 84.170574
loop_
_atom_site_label
_atom_site_type_symbol
_atom_site_fract_x
_atom_site_fract_y
_atom_site_fract_z
_atom_type_partial_charge
C0 C 0.85809 0.54895 0.56907 0.0
C1 C 0.88178 0.56372 0.57741 0.0
C2 C 0.8878 0.58986 0.52814 0.0
C3 C 0.85102 0.58299 0.45602 0.0
C4 C 0.84237 0.55988 0.50879 0.0
C5 C 0.8149 0.55113 0.49251 0.0
H6 H 0.71521 0.58349 0.25129 0.0
C7 C 0.83253 0.58917 0.39791 0.0
C8 C 0.80973 0.57279 0.42096 0.0
H9 H 0.71381 0.51293 0.43652 0.0
H10 H 0.75697 0.52788 0.46888 0.0
H11 H 0.74203 0.6399 0.33435 0.0
H12 H 0.76079 0.56414 0.16252 0.0
H13 H 0.79447 0.57271 0.15496 0.0
H14 H 0.76885 0.60082 0.12419 0.0
H15 H 0.73622 0.63504 0.22896 0.0
H16 H 0.7663 0.65085 0.24999 0.0
C17 C 0.79329 0.55885 0.5723 0.0
C18 C 0.81801 0.51598 0.46412 0.0
C19 C 0.86858 0.60015 0.09728 0.0
C20 C 0.85373 0.60057 0.03165 0.0
C21 C 0.82786 0.61774 0.0444 0.0
C22 C 0.81488 0.62799 0.12571 0.0
C23 C 0.82738 0.61877 0.19285 0.0
C24 C 0.85477 0.60898 0.17873 0.0
C25 C 0.8646 0.6024 0.25947 0.0
C26 C 0.83735 0.60392 0.32063 0.0
C27 C 0.81575 0.61076 0.27852 0.0
C28 C 0.8823 0.6286 0.27605 0.0
C29 C 0.88073 0.56925 0.25428 0.0
C30 C 0.72375 0.57168 0.3004 0.0
C31 C 0.71089 0.54762 0.34221 0.0
C32 C 0.72329 0.53187 0.40356 0.0
C33 C 0.74824 0.5405 0.42213 0.0
C34 C 0.76125 0.56434 0.37695 0.0
C35 C 0.74891 0.57874 0.316 0.0
C36 C 0.76664 0.59909 0.26236 0.0
C37 C 0.79104 0.59736 0.30534 0.0
C38 C 0.78815 0.57709 0.37363 0.0
C39 C 0.75205 0.63307 0.2686 0.0
C40 C 0.77315 0.58369 0.17156 0.0
H41 H 0.8757 0.62159 0.43897 0.0
H42 H 0.85191 0.52997 0.60881 0.0
H43 H 0.83523 0.51085 0.41045 0.0
H44 H 0.79967 0.50914 0.44328 0.0
H45 H 0.82209 0.50078 0.51598 0.0
H46 H 0.79305 0.58385 0.59424 0.0
H47 H 0.79767 0.5434 0.62338 0.0
H48 H 0.77272 0.55567 0.56139 0.0
H49 H 0.88896 0.58818 0.08779 0.0
H50 H 0.81647 0.61956 0.99393 0.0
H51 H 0.79459 0.63961 0.13478 0.0
H52 H 0.89396 0.63631 0.21647 0.0
H53 H 0.89796 0.62004 0.31248 0.0
H54 H 0.86967 0.64972 0.30898 0.0
H55 H 0.8684 0.55078 0.23685 0.0
H56 H 0.88666 0.56341 0.31494 0.0
H57 H 0.89985 0.56808 0.20741 0.0
H58 H 0.90496 0.60256 0.53415 0.0
C59 C 0.87207 0.6 0.46972 0.0
C60 C 0.1501 0.75402 0.08787 0.0
C61 C 0.16068 0.78283 0.10109 0.0
C62 C 0.16354 0.79118 0.18369 0.0
C63 C 0.13389 0.75257 0.23679 0.0
C64 C 0.13612 0.73959 0.15704 0.0
C65 C 0.11824 0.71335 0.15562 0.0
H66 H 0.99828 0.66848 0.25283 0.0
C67 C 0.11024 0.7415 0.2904 0.0
C68 C 0.10207 0.71681 0.2458 0.0
H69 H 0.07138 0.6095 0.13706 0.0
H70 H 0.09858 0.64566 0.19537 0.0
H71 H 0.02884 0.67924 0.43066 0.0
H72 H 1.00628 0.76023 0.33356 0.0
H73 H 0.98974 0.72881 0.29615 0.0
H74 H 0.01856 0.74297 0.23111 0.0
H75 H 0.99556 0.69354 0.41331 0.0
H76 H 1.01453 0.71789 0.46769 0.0
C77 C 0.13668 0.6818 0.13527 0.0
C78 C 0.09967 0.71954 0.09039 0.0
C79 C 0.06023 0.82063 0.51764 0.0
C80 C 0.03307 0.82779 0.55694 0.0
C81 C 1.01378 0.80838 0.53668 0.0
C82 C 0.02178 0.78204 0.47917 0.0
C83 C 0.04925 0.77544 0.44016 0.0
C84 C 0.0677 0.79517 0.4591 0.0
C85 C 0.0954 0.78764 0.40666 0.0
C86 C 0.09132 0.75857 0.35617 0.0
C87 C 0.06422 0.75115 0.37577 0.0
C88 C 0.1158 0.77938 0.46538 0.0
C89 C 0.10193 0.81644 0.35182 0.0
C90 C 0.02018 0.66402 0.23699 0.0
C91 C 0.0328 0.63707 0.18611 0.0
C92 C 0.0613 0.63072 0.17219 0.0
C93 C 0.07713 0.65199 0.20149 0.0
C94 C 0.06448 0.68028 0.24188 0.0
C95 C 0.03676 0.68491 0.26705 0.0
C96 C 0.0289 0.71284 0.3305 0.0
C97 C 0.05662 0.72457 0.33302 0.0
C98 C 0.0766 0.7061 0.27543 0.0
C99 C 1.01613 0.70042 0.41532 0.0
C100 C 1.00972 0.73765 0.29646 0.0
H101 H 0.15209 0.78344 0.31368 0.0
H102 H 0.14974 0.74522 0.0251 0.0
H103 H 0.11177 0.71894 0.02591 0.0
H104 H 0.08746 0.74298 0.10362 0.0
H105 H 0.08553 0.70124 0.09076 0.0
H106 H 0.15617 0.68516 0.09342 0.0
H107 H 0.12733 0.66462 0.10021 0.0
H108 H 0.14162 0.6712 0.1932 0.0
H109 H 0.07544 0.8356 0.52917 0.0
H110 H 0.99259 0.81352 0.56548 0.0
H111 H 1.00632 0.76817 0.46588 0.0
H112 H 0.10718 0.76405 0.51568 0.0
H113 H 0.12086 0.80111 0.49571 0.0
H114 H 0.1348 0.76593 0.432 0.0
H115 H 0.08689 0.83757 0.36968 0.0
H116 H 0.10172 0.8111 0.2847 0.0
H117 H 0.12171 0.82458 0.35798 0.0
H118 H 0.17286 0.81197 0.19761 0.0
C119 C 0.15055 0.77555 0.2517 0.0
C120 C 0.84261 0.00914 0.19746 0.0
C121 C 0.85759 0.03009 0.14423 0.0
C122 C 0.84482 0.0608 0.13724 0.0
C123 C 0.80201 0.04601 0.20815 0.0
C124 C 0.81459 0.01838 0.23162 0.0
C125 C 0.79337 1.00087 0.28689 0.0
H126 H 0.65455 0.99173 0.39741 0.0
C127 C 0.77252 0.04549 0.22737 0.0
C128 C 0.7666 0.02184 0.28501 0.0
H129 H 0.70129 0.00722 0.5892 0.0
H130 H 0.74172 0.01283 0.47906 0.0
H131 H 0.65311 0.02548 0.29479 0.0
H132 H 0.7085 0.95359 0.24345 0.0
H133 H 0.69939 0.97153 0.15411 0.0
H134 H 0.67328 0.96511 0.24127 0.0
H135 H 0.66769 0.02889 0.19029 0.0
H136 H 0.67696 0.05383 0.26951 0.0
C137 C 0.79924 0.99932 0.37623 0.0
C138 C 0.79303 0.96745 0.24876 0.0
C139 C 0.71965 0.08998 1.00857 0.0
C140 C 0.69854 0.07824 0.97513 0.0
C141 C 0.69103 0.04804 0.99685 0.0
C142 C 0.70213 0.03151 0.05774 0.0
C143 C 0.72004 0.04573 0.09905 0.0
C144 C 0.73087 0.07249 0.06848 0.0
C145 C 0.75533 0.07853 0.10546 0.0
C146 C 0.75479 0.05291 0.17023 0.0
C147 C 0.73298 0.03514 0.16835 0.0
C148 C 0.75073 0.11193 0.14795 0.0
C149 C 0.7807 0.07397 0.03422 0.0
C150 C 0.67347 0.99567 0.41649 0.0
C151 C 0.67457 0.99833 0.50224 0.0
C152 C 0.69974 1.00442 0.52389 0.0
C153 C 0.7231 0.00716 0.46101 0.0
C154 C 0.7212 1.0043 0.37581 0.0
C155 C 0.69621 1.0003 0.35531 0.0
C156 C 0.69618 0.00468 0.26366 0.0
C157 C 0.72416 0.01591 0.23577 0.0
C158 C 0.73999 0.01159 0.29802 0.0
C159 C 0.67242 0.02962 0.25376 0.0
C160 C 0.69414 0.97207 0.22301 0.0
H161 H 0.80818 0.09233 0.16236 0.0
H162 H 0.85193 0.98595 0.20816 0.0
H163 H 0.78903 0.96867 0.18377 0.0
H164 H 0.77692 0.95512 0.28666 0.0
H165 H 0.81282 0.95307 0.24695 0.0
H166 H 0.79813 0.02347 0.40521 0.0
H167 H 0.81986 0.98713 0.37552 0.0
H168 H 0.78434 0.98596 0.41592 0.0
H169 H 0.72673 0.11236 0.98982 0.0
H170 H 0.67528 0.03803 0.97073 0.0
H171 H 0.69598 0.00867 0.07262 0.0
H172 H 0.73059 0.1157 0.19037 0.0
H173 H 0.75149 0.13026 0.10036 0.0
H174 H 0.76623 0.11556 0.1865 0.0
H175 H 0.77543 0.07831 0.97165 0.0
H176 H 0.79101 0.04951 0.03103 0.0
H177 H 0.79541 0.09102 0.04097 0.0
H178 H 0.85596 0.07833 0.10304 0.0
C179 C 0.81724 0.06882 0.16936 0.0
C180 C 0.52327 0.70177 0.50914 0.0
C181 C 0.53341 0.66919 0.50894 0.0
C182 C 0.5441 0.65292 0.43146 0.0
C183 C 0.52675 0.69671 0.35947 0.0
C184 C 0.52168 0.71568 0.43127 0.0
C185 C 0.51246 0.74951 0.41046 0.0
H186 H 0.47142 0.84058 0.10064 0.0
C187 C 0.51538 0.71325 0.29452 0.0
C188 C 0.51186 0.74569 0.31597 0.0
H189 H 0.5388 0.86189 0.21494 0.0
H190 H 0.53565 0.81279 0.29219 0.0
H191 H 0.49872 0.7774 0.04471 0.0
H192 H 0.43523 0.8 0.26162 0.0
H193 H 0.42843 0.76602 0.20832 0.0
H194 H 0.42918 0.803 0.15639 0.0
H195 H 0.46423 0.78952 0.0355 0.0
H196 H 0.47577 0.74899 0.04836 0.0
C197 C 0.53296 0.77186 0.42861 0.0
C198 C 0.48395 0.76035 0.46115 0.0
C199 C 0.45989 0.64587 0.14693 0.0
C200 C 0.44079 0.65247 0.095 0.0
C201 C 0.43255 0.68426 0.08137 0.0
C202 C 0.44394 0.7089 0.11705 0.0
C203 C 0.46439 0.70155 0.16434 0.0
C204 C 0.47159 0.67043 0.17979 0.0
C205 C 0.49306 0.66651 0.23284 0.0
C206 C 0.49854 0.70074 0.24379 0.0
C207 C 0.48134 0.72108 0.20526 0.0
C208 C 0.51831 0.64517 0.18499 0.0
C209 C 0.4802 0.65275 0.3163 0.0
C210 C 0.4849 0.83573 0.14469 0.0
C211 C 0.50515 0.85556 0.15177 0.0
C212 C 0.52253 0.84766 0.20946 0.0
C213 C 0.52048 0.81974 0.25529 0.0
C214 C 0.5005 0.79996 0.24492 0.0
C215 C 0.48373 0.8077 0.18801 0.0
C216 C 0.46972 0.78005 0.16488 0.0
C217 C 0.48236 0.75415 0.2123 0.0
C218 C 0.49823 0.76643 0.2655 0.0
C219 C 0.47721 0.77355 0.06846 0.0
C220 C 0.43895 0.78753 0.19887 0.0
H221 H 0.5485 0.65349 0.29811 0.0
H222 H 0.51609 0.71537 0.56755 0.0
H223 H 0.46929 0.74367 0.4495 0.0
H224 H 0.47654 0.7842 0.44297 0.0
H225 H 0.48424 0.76155 0.52938 0.0
H226 H 0.55263 0.76654 0.38442 0.0
H227 H 0.53675 0.7693 0.49353 0.0
H228 H 0.52498 0.79684 0.42357 0.0
H229 H 0.46719 0.62175 0.15736 0.0
H230 H 0.418 0.68994 0.04104 0.0
H231 H 0.43719 0.73264 0.10381 0.0
H232 H 0.51496 0.6347 0.12485 0.0
H233 H 0.52402 0.62499 0.22252 0.0
H234 H 0.53611 0.65873 0.16842 0.0
H235 H 0.4631 0.66942 0.35065 0.0
H236 H 0.49479 0.6476 0.35831 0.0
H237 H 0.47221 0.63001 0.3045 0.0
H238 H 0.55298 0.62857 0.42925 0.0
C239 C 0.54096 0.66672 0.35635 0.0
C240 C 0.31606 0.47027 0.22494 0.0
C241 C 0.33588 0.45344 0.26493 0.0
C242 C 0.33355 0.42129 0.28104 0.0
C243 C 0.2892 0.4266 0.24629 0.0
C244 C 0.29308 0.45518 0.21231 0.0
C245 C 0.26972 0.46485 0.16612 0.0
H246 H 0.13683 0.43822 0.14357 0.0
C247 C 0.26116 0.42087 0.25138 0.0
C248 C 0.24938 0.44095 0.1976 0.0
H249 H 0.1874 0.49172 0.96897 0.0
H250 H 0.22426 0.48209 0.04835 0.0
H251 H 0.17916 0.37976 0.17691 0.0
H252 H 0.14757 0.46934 0.28897 0.0
H253 H 0.16587 0.45491 0.36514 0.0
H254 H 0.13786 0.43514 0.34134 0.0
H255 H 0.14533 0.39321 0.23105 0.0
H256 H 0.17071 0.37696 0.28738 0.0
C257 C 0.2811 0.45984 0.07155 0.0
C258 C 0.25768 0.49916 0.19047 0.0
C259 C 0.21585 0.41009 0.54635 0.0
C260 C 0.18854 0.41995 0.57951 0.0
C261 C 0.16883 0.41289 0.53229 0.0
C262 C 0.17668 0.40382 0.44708 0.0
C263 C 0.20406 0.40335 0.40952 0.0
C264 C 0.22347 0.40377 0.45962 0.0
C265 C 0.25136 0.4056 0.40926 0.0
C266 C 0.24472 0.4091 0.32113 0.0
C267 C 0.21682 0.40935 0.3229 0.0
C268 C 0.2693 0.37472 0.41881 0.0
C269 C 0.26305 0.43519 0.44049 0.0
C270 C 0.15608 0.44704 0.12016 0.0
C271 C 0.15928 0.46473 0.04785 0.0
C272 C 0.18436 0.47741 0.02336 0.0
C273 C 0.20593 0.47142 0.06829 0.0
C274 C 0.20248 0.45267 0.1388 0.0
C275 C 0.17749 0.44159 0.16442 0.0
C276 C 0.17577 0.42552 0.24602 0.0
C277 C 0.20507 0.424 0.2582 0.0
C278 C 0.2209 0.44061 0.1965 0.0
C279 C 0.16716 0.39205 0.23518 0.0
C280 C 0.15582 0.44708 0.31404 0.0
H281 H 0.30849 0.3832 0.28398 0.0
H282 H 0.31819 0.49422 0.2062 0.0
H283 H 0.2508 0.50225 0.25949 0.0
H284 H 0.24001 0.50567 0.16024 0.0
H285 H 0.27304 0.51576 0.17069 0.0
H286 H 0.29079 0.43521 0.05655 0.0
H287 H 0.2967 0.47617 0.05161 0.0
H288 H 0.26533 0.46386 0.03316 0.0
H289 H 0.23104 0.41353 0.58396 0.0
H290 H 0.1474 0.41864 0.55727 0.0
H291 H 0.16109 0.4004 0.41191 0.0
H292 H 0.26316 0.3648 0.48124 0.0
H293 H 0.29081 0.37879 0.41554 0.0
H294 H 0.26789 0.35637 0.37034 0.0
H295 H 0.24955 0.45704 0.43464 0.0
H296 H 0.28352 0.43813 0.40611 0.0
H297 H 0.26547 0.43355 0.50676 0.0
H298 H 0.34889 0.40729 0.30726 0.0
C299 C 0.31028 0.40765 0.27071 0.0
C300 C 0.88163 0.26457 0.52673 0.0
C301 C 0.87183 0.23542 0.51205 0.0
C302 C 0.86923 0.22735 0.42905 0.0
C303 C 0.89838 0.26676 0.37832 0.0
C304 C 0.8957 0.27946 0.4586 0.0
C305 C 0.91362 0.30553 0.46208 0.0
H306 H 0.0347 0.34752 0.37911 0.0
C307 C 0.92246 0.27775 0.32657 0.0
C308 C 0.93053 0.30205 0.37291 0.0
H309 H 0.96174 0.40764 0.4904 0.0
H310 H 0.93465 0.37272 0.4271 0.0
H311 H 1.01282 0.27395 0.39633 0.0
H312 H 1.00618 0.33834 0.19575 0.0
H313 H 0.02041 0.29956 0.15948 0.0
H314 H 0.03879 0.3234 0.21729 0.0
H315 H 0.04256 0.2872 0.33394 0.0
H316 H 0.02566 0.25653 0.29445 0.0
C317 C 0.9314 0.29914 0.52939 0.0
C318 C 0.89526 0.3372 0.48106 0.0
C319 C 0.97313 0.19958 0.09742 0.0
C320 C 1.00056 0.19133 0.06308 0.0
C321 C 0.01992 0.20969 0.08748 0.0
C322 C 1.01176 0.23608 0.14465 0.0
C323 C 0.98404 0.24358 0.17971 0.0
C324 C 0.96547 0.22482 0.15673 0.0
C325 C 0.93759 0.23235 0.20807 0.0
C326 C 0.94164 0.26075 0.26124 0.0
C327 C 0.96893 0.26762 0.24457 0.0
C328 C 0.93051 0.20307 0.26041 0.0
C329 C 0.91763 0.24162 0.14871 0.0
C330 C 1.01282 0.3525 0.39282 0.0
C331 C 1.00019 0.37941 0.44397 0.0
C332 C 0.97178 0.38644 0.45512 0.0
C333 C 0.95597 0.36589 0.42275 0.0
C334 C 0.9685 0.33761 0.38197 0.0
C335 C 0.99628 0.33236 0.35959 0.0
C336 C 1.0043 0.30455 0.29576 0.0
C337 C 0.97652 0.29366 0.28955 0.0
C338 C 0.95634 0.31233 0.34597 0.0
C339 C 0.02243 0.27909 0.33157 0.0
C340 C 0.01831 0.31692 0.21236 0.0
H341 H 0.88079 0.23599 0.29952 0.0
H342 H 0.88163 0.27313 0.58998 0.0
H343 H 0.89114 0.34798 0.42244 0.0
H344 H 0.90422 0.35421 0.51782 0.0
H345 H 0.87537 0.33393 0.52074 0.0
H346 H 0.94351 0.27562 0.51706 0.0
H347 H 0.91874 0.29984 0.59307 0.0
H348 H 0.94559 0.31728 0.53073 0.0
H349 H 0.95791 0.18522 0.08256 0.0
H350 H 0.04131 0.20349 0.0627 0.0
H351 H 0.02728 0.24908 0.16141 0.0
H352 H 0.94559 0.18198 0.24257 0.0
H353 H 0.91088 0.19514 0.25164 0.0
H354 H 0.93012 0.20776 0.32818 0.0
H355 H 0.92648 0.25775 0.10087 0.0
H356 H 0.89841 0.25452 0.18238 0.0
H357 H 0.91291 0.22037 0.11534 0.0
H358 H 0.86038 0.20633 0.41414 0.0
C359 C 0.88205 0.2436 0.36196 0.0
C360 C 0.32871 0.99801 0.12255 0.0
C361 C 0.35464 0.98258 0.08292 0.0
C362 C 0.36167 0.95128 0.10236 0.0
C363 C 0.32055 0.95222 0.20651 0.0
C364 C 0.31151 0.98177 0.18348 0.0
C365 C 0.28237 0.99147 0.23098 0.0
H366 H 0.18522 0.95906 0.57439 0.0
C367 C 0.30114 0.94283 0.27873 0.0
C368 C 0.2779 0.96512 0.29415 0.0
H369 H 0.17102 0.0275 0.39192 0.0
H370 H 0.21778 0.01358 0.31453 0.0
H371 H 0.21473 0.90348 0.44886 0.0
H372 H 0.24179 0.97654 0.58933 0.0
H373 H 0.26771 0.94527 0.58065 0.0
H374 H 0.23392 0.93998 0.63484 0.0
H375 H 0.21103 0.90561 0.56102 0.0
H376 H 0.24109 0.88592 0.49585 0.0
C377 C 0.26315 0.9909 0.16752 0.0
C378 C 0.28041 0.02412 0.27557 0.0
C379 C 0.3411 0.86419 0.46169 0.0
C380 C 0.33391 0.85921 0.54762 0.0
C381 C 0.30702 0.86863 0.58854 0.0
C382 C 0.28864 0.88573 0.54656 0.0
C383 C 0.29745 0.89422 0.46353 0.0
C384 C 0.32309 0.88266 0.42208 0.0
C385 C 0.3302 0.89602 0.33731 0.0
C386 C 0.30529 0.91941 0.33701 0.0
C387 C 0.28593 0.91758 0.40959 0.0
C388 C 0.33208 0.8685 0.27128 0.0
C389 C 0.35681 0.91235 0.33307 0.0
C390 C 0.19185 0.9713 0.5179 0.0
C391 C 0.17411 0.99453 0.49034 0.0
C392 C 0.18401 0.00931 0.41506 0.0
C393 C 0.21107 1.00117 0.36996 0.0
C394 C 0.22838 0.97751 0.3991 0.0
C395 C 0.21817 0.96315 0.47217 0.0
C396 C 0.2382 0.93855 0.49655 0.0
C397 C 0.26153 0.93825 0.42338 0.0
C398 C 0.25673 0.96173 0.36597 0.0
C399 C 0.22573 0.90665 0.50149 0.0
C400 C 0.24579 0.95038 0.57976 0.0
H401 H 0.35204 0.91256 0.17485 0.0
H402 H 0.32219 0.02171 0.10663 0.0
H403 H 0.29533 0.02409 0.31823 0.0
H404 H 0.25991 0.0307 0.31344 0.0
H405 H 0.28469 0.04258 0.22931 0.0
H406 H 0.26654 0.96779 0.13167 0.0
H407 H 0.26678 0.0098 0.12214 0.0
H408 H 0.24164 0.99421 0.1983 0.0
H409 H 0.36165 0.85764 0.42827 0.0
H410 H 0.30084 0.86472 0.65457 0.0
H411 H 0.26877 0.89311 0.58196 0.0
H412 H 0.3526 0.8551 0.25912 0.0
H413 H 0.32688 0.87658 0.21142 0.0
H414 H 0.31719 0.85148 0.29296 0.0
H415 H 0.36324 0.91418 0.39477 0.0
H416 H 0.35445 0.9372 0.31484 0.0
H417 H 0.37409 0.89928 0.28912 0.0
H418 H 0.3809 0.93865 0.07226 0.0
C419 C 0.34489 0.93615 0.1628 0.0
C420 C 0.50483 0.31735 0.11468 0.0
C421 C 0.49469 0.34999 0.11622 0.0
C422 C 0.48057 0.36468 0.19265 0.0
C423 C 0.49491 0.31959 0.26544 0.0
C424 C 0.50319 0.30193 0.19188 0.0
C425 C 0.51232 0.26792 0.21169 0.0
H426 H 0.54349 0.17406 0.53092 0.0
C427 C 0.50419 0.30247 0.33288 0.0
C428 C 0.50925 0.27029 0.30823 0.0
H429 H 0.48567 0.14958 0.38085 0.0
H430 H 0.48883 0.20061 0.31192 0.0
H431 H 0.58336 0.21567 0.38576 0.0
H432 H 0.51354 0.23635 0.58372 0.0
H433 H 0.53553 0.26529 0.59088 0.0
H434 H 0.54695 0.22472 0.60394 0.0
H435 H 0.58588 0.21493 0.49447 0.0
H436 H 0.58716 0.25104 0.43847 0.0
C437 C 0.54212 0.25862 0.1697 0.0
C438 C 0.49379 0.24522 0.1823 0.0
C439 C 0.5557 0.36904 0.49742 0.0
C440 C 0.57393 0.36194 0.5518 0.0
C441 C 0.58065 0.33015 0.56885 0.0
C442 C 0.5691 0.3059 0.53233 0.0
C443 C 0.5502 0.31367 0.48002 0.0
C444 C 0.544 0.34484 0.46292 0.0
C445 C 0.52456 0.34903 0.40314 0.0
C446 C 0.51896 0.31489 0.39025 0.0
C447 C 0.53467 0.29442 0.43318 0.0
C448 C 0.53987 0.36231 0.32221 0.0
C449 C 0.49883 0.37102 0.44438 0.0
C450 C 0.53238 0.17875 0.4806 0.0
C451 C 0.51471 0.15749 0.46072 0.0
C452 C 0.50001 0.16509 0.39598 0.0
C453 C 0.50213 0.19411 0.35508 0.0
C454 C 0.5197 0.21516 0.37734 0.0
C455 C 0.53392 0.2075 0.44086 0.0
C456 C 0.54598 0.23538 0.47192 0.0
C457 C 0.53462 0.26137 0.42225 0.0
C458 C 0.5214 0.2492 0.36139 0.0
C459 C 0.57725 0.22906 0.44717 0.0
C460 C 0.53521 0.24083 0.56762 0.0
H461 H 0.47032 0.36126 0.32589 0.0
H462 H 0.5148 0.305 0.05648 0.0
H463 H 0.47299 0.24925 0.22056 0.0
H464 H 0.50209 0.2203 0.18647 0.0
H465 H 0.49239 0.24878 0.11562 0.0
H466 H 0.55537 0.27563 0.18937 0.0
H467 H 0.54441 0.25839 0.10035 0.0
H468 H 0.5493 0.23467 0.18766 0.0
H469 H 0.54963 0.39329 0.48448 0.0
H470 H 0.59448 0.32416 0.61124 0.0
H471 H 0.57483 0.28212 0.54782 0.0
H472 H 0.55757 0.34546 0.2927 0.0
H473 H 0.54743 0.38511 0.33623 0.0
H474 H 0.52695 0.3672 0.27517 0.0
H475 H 0.50153 0.38388 0.50215 0.0
H476 H 0.48115 0.35745 0.46293 0.0
H477 H 0.49341 0.38957 0.40167 0.0
H478 H 0.4716 0.38901 0.19507 0.0
C479 C 0.48044 0.34938 0.26769 0.0
Dy480 Dy 0.99979 0.02287 0.74222 0.0
Dy481 Dy 0.03138 0.9942 0.8871 0.0
C482 C 0.06527 0.0092 0.70374 0.0
O483 O 0.99836 0.97049 0.73097 0.0
O484 O 0.03434 0.95416 0.7925 0.0
O485 O 0.9953 0.05457 0.64279 0.0
O486 O 0.9659 0.02135 0.67854 0.0
O487 O 0.98684 0.99317 0.94458 0.0
O488 O 0.96804 0.02772 0.85972 0.0
O489 O 0.01983 0.04477 0.93011 0.0
O490 O 1.01005 0.06585 0.80873 0.0
O491 O 0.03736 0.95863 0.9759 0.0
O492 O 0.06325 0.99648 0.95919 0.0
C493 C 1.01667 0.94823 0.74558 0.0
O494 O 0.04288 0.01009 0.67227 0.0
O495 O 0.06423 0.00842 0.78533 0.0
C496 C 0.94955 0.07112 0.63962 0.0
C497 C 0.90923 0.12224 0.64323 0.0
C498 C 0.9219 0.117 0.71275 0.0
C499 C 0.94188 0.09157 0.711 0.0
C500 C 0.93605 0.07524 0.57205 0.0
C501 C 0.91601 0.10057 0.57381 0.0
C502 C 0.9718 0.04575 0.63489 0.0
C503 C 0.96572 0.01092 0.92709 0.0
C504 C 1.01496 0.06919 0.88525 0.0
C505 C 0.08333 0.94603 0.98226 0.0
C506 C 0.12519 0.89624 0.97171 0.0
C507 C 0.11256 0.90255 0.90265 0.0
C508 C 0.09184 0.92736 0.90779 0.0
C509 C 0.09701 0.94116 0.04917 0.0
C510 C 0.11786 0.91652 0.0439 0.0
C511 C 0.05932 0.96934 0.99195 0.0
H512 H 0.91704 0.13321 0.76716 0.0
H513 H 0.95191 0.08839 0.76429 0.0
H514 H 0.9416 0.05945 0.51683 0.0
H515 H 0.90699 0.10421 0.5187 0.0
H516 H 0.11782 0.88737 0.84626 0.0
H517 H 0.08168 0.93112 0.85501 0.0
H518 H 0.09078 0.95551 0.10683 0.0
H519 H 0.12689 0.91199 0.09864 0.0
Dy520 Dy 0.50581 0.97836 0.7267 0.0
Dy521 Dy 0.51698 0.03024 0.86448 0.0
C522 C 0.50636 0.05138 0.68306 0.0
O523 O 0.5514 0.977 0.70082 0.0
O524 O 0.55672 0.02268 0.77095 0.0
O525 O 0.48474 0.96573 0.62846 0.0
O526 O 0.51428 0.93152 0.66776 0.0
O527 O 0.52208 0.98442 0.92994 0.0
O528 O 0.50526 0.95122 0.84317 0.0
O529 O 0.47438 0.01999 0.91742 0.0
O530 O 0.46399 0.99519 0.80179 0.0
O531 O 0.53832 0.04484 0.9599 0.0
O532 O 0.50845 0.07794 0.91894 0.0
C533 C 0.56668 0.99887 0.71697 0.0
O534 O 0.51261 0.02203 0.65364 0.0
O535 O 0.50125 0.05792 0.76424 0.0
C536 C 0.4756 0.91289 0.63067 0.0
C537 C 0.43266 0.87492 0.63979 0.0
C538 C 0.45021 0.87805 0.56299 0.0
C539 C 0.47148 0.89693 0.55857 0.0
C540 C 0.45939 0.90826 0.70836 0.0
C541 C 0.43814 0.8893 0.71297 0.0
C542 C 0.49523 0.93627 0.62351 0.0
C543 C 0.51406 0.95687 0.9129 0.0
C544 C 0.45668 0.00789 0.87876 0.0
C545 C 0.54887 0.09644 0.94411 0.0
C546 C 0.59943 0.12054 0.9127 0.0
C547 C 0.58477 0.11998 0.99529 0.0
C548 C 0.55973 0.10786 1.01077 0.0
C549 C 0.56165 0.10066 0.86142 0.0
C550 C 0.58669 0.11289 0.84579 0.0
C551 C 0.52828 0.0743 0.96046 0.0
H552 H 0.44643 0.86782 0.50508 0.0
H553 H 0.48385 0.90028 0.49817 0.0
H554 H 0.46243 0.92039 0.76482 0.0
H555 H 0.42521 0.88715 0.77312 0.0
H556 H 0.59387 0.12543 0.04867 0.0
H557 H 0.55015 0.10467 0.07491 0.0
H558 H 0.5535 0.09195 0.80899 0.0
H559 H 0.59721 0.11348 0.78155 0.0
Dy560 Dy 0.53786 0.52283 0.88477 0.0
Dy561 Dy 0.4984 0.49949 0.74481 0.0
C562 C 0.51104 0.45575 0.90213 0.0
O563 O 0.55969 0.4799 0.81332 0.0
O564 O 0.54314 0.4915 0.69521 0.0
O565 O 0.57644 0.53751 0.90444 0.0
O566 O 0.54293 0.53737 1.00958 0.0
O567 O 0.50109 0.55129 0.72824 0.0
O568 O 0.54086 0.55606 0.77687 0.0
O569 O 0.46832 0.52911 0.8401 0.0
O570 O 0.49642 0.54845 0.92432 0.0
O571 O 0.46503 0.47737 0.70864 0.0
O572 O 0.49647 0.49225 0.61293 0.0
C573 C 0.56042 0.47513 0.73319 0.0
O574 O 0.52263 0.47812 0.9358 0.0
O575 O 0.50242 0.45854 0.83006 0.0
C576 C 0.58742 0.53973 0.04331 0.0
C577 C 0.62415 0.53594 0.15849 0.0
C578 C 0.61515 0.50838 0.12726 0.0
C579 C 0.59687 0.51026 0.07055 0.0
C580 C 0.59652 0.56702 0.07381 0.0
C581 C 0.61454 0.56521 0.13022 0.0
C582 C 0.56787 0.54365 0.98466 0.0
C583 C 0.52187 0.56699 0.73513 0.0
C584 C 0.47259 0.54678 0.90287 0.0
C585 C 0.45347 0.48565 0.57159 0.0
C586 C 0.41597 0.48594 0.45843 0.0
C587 C 0.44417 0.48456 0.42862 0.0
C588 C 0.46256 0.48435 0.48421 0.0
C589 C 0.42526 0.48817 0.60174 0.0
C590 C 0.40682 0.48846 0.54607 0.0
C591 C 0.47364 0.47963 0.62841 0.0
H592 H 0.62195 0.48539 0.14743 0.0
H593 H 0.59011 0.48881 0.04824 0.0
H594 H 0.58964 0.59004 0.05377 0.0
H595 H 0.62131 0.58696 0.15056 0.0
H596 H 0.45218 0.483 0.36194 0.0
H597 H 0.4841 0.48196 0.45853 0.0
H598 H 0.41741 0.48875 0.66846 0.0
H599 H 0.3854 0.48913 0.57206 0.0
Dy600 Dy 0.03211 0.53449 0.76331 0.0
Dy601 Dy 1.00327 0.47985 0.8707 0.0
C602 C 0.02947 0.46488 0.68183 0.0
O603 O 0.99015 0.54625 0.7401 0.0
O604 O 0.97282 0.50163 0.79472 0.0
O605 O 0.05741 0.54658 0.64902 0.0
O606 O 0.04646 0.58079 0.75308 0.0
O607 O 1.00689 0.51919 0.96256 0.0
O608 O 1.00743 0.56062 0.87653 0.0
O609 O 0.04471 0.46983 0.90137 0.0
O610 O 0.06289 0.51249 0.83725 0.0
O611 O 0.97642 0.46852 0.9827 0.0
O612 O 0.9894 0.43324 0.88182 0.0
C613 C 0.97067 0.52769 0.75293 0.0
O614 O 0.02739 0.49553 0.67175 0.0
O615 O 0.02796 0.45395 0.75691 0.0
C616 C 0.09243 0.57254 0.68513 0.0
C617 C 0.14261 0.53936 0.69217 0.0
C618 C 0.13615 0.54747 0.61432 0.0
C619 C 0.11112 0.56418 0.61081 0.0
C620 C 0.10136 0.57002 0.76225 0.0
C621 C 0.12652 0.55353 0.7655 0.0
C622 C 0.06331 0.57237 0.68337 0.0
C623 C 1.005 0.54979 0.95184 0.0
C624 C 0.06456 0.48785 0.88464 0.0
C625 C 0.94251 0.44253 0.94004 0.0
C626 C 0.89481 0.47936 0.92356 0.0
C627 C 0.89869 0.46976 1.00301 0.0
C628 C 0.92251 0.45125 1.01125 0.0
C629 C 0.93569 0.44636 0.86027 0.0
C630 C 0.91189 0.46488 0.85221 0.0
C631 C 0.9712 0.44241 0.9482 0.0
H632 H 0.14849 0.53699 0.55661 0.0
H633 H 0.10485 0.56618 0.55062 0.0
H634 H 0.08766 0.57689 0.82083 0.0
H635 H 0.13193 0.54852 0.82558 0.0
H636 H 0.88561 0.48056 0.05911 0.0
H637 H 0.92713 0.44832 0.07337 0.0
H638 H 0.95043 0.43936 0.80384 0.0
H639 H 0.90874 0.47138 0.79053 0.0
C640 C 0.12222 1.00434 0.50704 0.0
C641 C 0.14588 1.00243 0.5424 0.0
H642 H 0.07844 0.00765 0.5289 0.0
C643 C 0.14238 0.00483 0.6306 0.0
H644 H 0.12392 1.00235 0.43965 0.0
C645 C 0.11647 0.00767 0.68162 0.0
C646 C 0.09276 0.00831 0.64693 0.0
H647 H 0.1599 1.00389 0.66075 0.0
H648 H 0.11514 0.00878 0.74894 0.0
C649 C 0.09606 0.00714 0.55851 0.0
C650 C 0.50473 0.13494 0.60327 0.0
C651 C 0.5098 0.12992 0.51551 0.0
H652 H 0.49952 0.11479 0.72362 0.0
C653 C 0.51204 0.09863 0.48273 0.0
H654 H 0.50261 0.1587 0.63096 0.0
C655 C 0.51042 0.07303 0.53655 0.0
C656 C 0.50615 0.07816 0.62448 0.0
H657 H 0.51604 0.09387 0.41556 0.0
H658 H 0.51301 0.04921 0.50917 0.0
C659 C 0.50287 0.10961 0.65668 0.0
C660 C 0.38467 0.45397 0.27962 0.0
C661 C 0.35771 0.46829 0.29843 0.0
H662 H 0.42377 0.44789 0.31447 0.0
C663 C 0.35083 0.49117 0.36503 0.0
H664 H 0.39055 0.4358 0.22986 0.0
C665 C 0.36992 0.49797 0.41477 0.0
C666 C 0.3965 0.4822 0.39905 0.0
H667 H 0.33013 0.50214 0.38249 0.0
H668 H 0.36353 0.51486 0.46737 0.0
C669 C 0.40376 0.46088 0.32875 0.0
C670 C 0.02611 0.38858 0.55848 0.0
C671 C 1.01523 0.40008 0.49002 0.0
H672 H 0.03925 0.40001 0.67302 0.0
C673 C 1.01305 0.43283 0.47885 0.0
H674 H 0.02755 0.36352 0.56947 0.0
C675 C 0.01984 0.45379 0.53779 0.0
C676 C 0.0285 0.44253 0.61028 0.0
H677 H 1.00437 0.44237 0.42725 0.0
H678 H 1.01639 0.47893 0.52942 0.0
C679 C 0.03254 0.40957 0.61821 0.0
C680 C 0.90774 0.00587 0.11817 0.0
C681 C 0.88518 0.02102 0.08916 0.0
H682 H 0.95088 0.99079 0.09096 0.0
C683 C 0.88944 0.03045 1.00557 0.0
H684 H 0.90542 0.99825 0.18191 0.0
C685 C 0.91522 0.02662 0.95434 0.0
C686 C 0.93812 0.01277 0.98357 0.0
H687 H 0.87268 0.04156 0.97962 0.0
H688 H 0.91714 0.03496 0.8913 0.0
C689 C 0.93389 1.00178 0.06598 0.0
C690 C 0.50704 0.87636 1.00703 0.0
C691 C 0.50959 0.88164 0.09112 0.0
H692 H 0.50642 0.89517 0.88674 0.0
C693 C 0.51551 0.91184 0.11524 0.0
H694 H 0.50336 0.8533 0.98468 0.0
C695 C 0.51761 0.93626 0.05762 0.0
C696 C 0.51393 0.93104 0.97441 0.0
H697 H 0.51772 0.91687 0.17916 0.0
H698 H 0.52149 0.95938 0.07884 0.0
C699 C 0.509 0.90053 0.95015 0.0
C700 C 0.687 0.51357 0.25646 0.0
C701 C 0.68571 0.53903 0.3146 0.0
H702 H 0.66886 0.4925 0.16154 0.0
C703 C 0.66251 0.56116 0.32772 0.0
H704 H 0.70496 0.49665 0.2431 0.0
C705 C 0.64189 0.55896 0.28089 0.0
C706 C 0.64394 0.5348 0.21823 0.0
H707 H 0.66113 0.58139 0.37071 0.0
H708 H 0.62479 0.5771 0.29154 0.0
C709 C 0.66634 0.51139 0.20912 0.0
C710 C 1.00627 0.6267 0.07433 0.0
C711 C 0.01765 0.6158 0.14243 0.0
H712 H 0.9932 0.61434 0.9604 0.0
C713 C 0.02051 0.58311 0.15437 0.0
H714 H 1.00429 0.6517 0.06283 0.0
C715 C 1.01406 0.56164 0.09605 0.0
C716 C 1.00512 0.57236 0.02352 0.0
H717 H 0.02958 0.57406 0.20574 0.0
H718 H 0.01816 0.53658 0.10459 0.0
C719 C 1.0002 0.60521 0.01523 0.0
C720 C 0.89308 0.20927 0.62429 0.0
C721 C 0.87311 0.20993 0.57348 0.0
H722 H 0.92005 0.18095 0.68611 0.0
C723 C 0.86015 0.18242 0.56644 0.0
H724 H 0.90376 0.22956 0.63254 0.0
C725 C 0.87017 0.15391 0.59641 0.0
C726 C 0.89277 0.15265 0.63616 0.0
H727 H 0.84387 0.18211 0.53134 0.0
H728 H 0.86155 0.13248 0.58307 0.0
C729 C 0.90272 0.181 0.65526 0.0
C730 C 0.3795 0.83258 0.56131 0.0
C731 C 0.35613 0.85292 0.5957 0.0
H732 H 0.42259 0.82308 0.54992 0.0
C733 C 0.35736 0.87415 0.66224 0.0
H734 H 0.37903 0.81552 0.51108 0.0
C735 C 0.38227 0.87869 0.68392 0.0
C736 C 0.40636 0.86193 0.63979 0.0
H737 H 0.33979 0.8902 0.6903 0.0
H738 H 0.38283 0.89793 0.72826 0.0
C739 C 0.40447 0.83709 0.58309 0.0
C740 C 0.5876 0.41644 0.55724 0.0
C741 C 0.58229 0.38842 0.59822 0.0
H742 H 0.58444 0.4669 0.56944 0.0
C743 C 0.57791 0.38888 0.68615 0.0
H744 H 0.59173 0.41655 0.48942 0.0
C745 C 0.57449 0.41767 0.73197 0.0
C746 C 0.57507 0.44609 0.68999 0.0
H747 H 0.57384 0.36765 0.71945 0.0
H748 H 0.56805 0.4178 0.79938 0.0
C749 C 0.58353 0.44522 0.60285 0.0
C750 C 0.19723 0.47378 0.62282 0.0
C751 C 0.18207 0.44775 0.63948 0.0
H752 H 0.19628 0.52423 0.62709 0.0
C753 C 0.15717 0.45231 0.69549 0.0
H754 H 0.21649 0.47131 0.57968 0.0
C755 C 0.14592 0.48287 0.72388 0.0
C756 C 0.1593 0.50915 0.69577 0.0
H757 H 0.14511 0.43281 0.70973 0.0
H758 H 0.12527 0.48613 0.75853 0.0
C759 C 0.18574 0.50431 0.6498 0.0
C760 C 0.14049 0.80911 0.98701 0.0
C761 C 0.16033 0.80794 0.03827 0.0
H762 H 0.11397 0.8382 0.92528 0.0
C763 C 0.17395 0.83499 0.04481 0.0
H764 H 0.12942 0.78914 0.97876 0.0
C765 C 0.16437 0.86375 0.01521 0.0
C766 C 0.14169 0.86564 0.97585 0.0
H767 H 0.19028 0.83483 0.07983 0.0
H768 H 0.17325 0.88494 0.02907 0.0
C769 C 0.13135 0.83762 0.95606 0.0
C770 C 0.67138 0.08545 0.8624 0.0
C771 C 0.68088 0.09852 0.93025 0.0
H772 H 0.63754 0.08272 0.80227 0.0
C773 C 0.667 0.12651 0.97118 0.0
H774 H 0.68203 0.06418 0.82889 0.0
C775 C 0.64138 0.1375 0.9556 0.0
C776 C 0.62943 0.1204 0.89947 0.0
H777 H 0.67407 0.13731 0.02314 0.0
H778 H 0.62963 0.15682 0.99499 0.0
C779 C 0.64577 0.0963 0.84707 0.0
C780 C 0.43206 0.59625 0.07936 0.0
C781 C 0.43443 0.6259 0.04389 0.0
H782 H 0.44313 0.54632 0.05986 0.0
C783 C 0.43985 0.62733 0.95619 0.0
H784 H 0.42729 0.59453 0.14677 0.0
C785 C 0.44807 0.5996 0.90636 0.0
C786 C 0.45097 0.57051 0.94405 0.0
H787 H 0.44169 0.64976 0.92685 0.0
H788 H 0.4559 0.60145 0.84016 0.0
C789 C 0.44096 0.56862 0.02976 0.0
C790 C 0.84315 0.54982 0.9756 0.0
C791 C 0.86058 0.5739 0.96893 0.0
H792 H 0.84059 0.49984 0.96686 0.0
C793 C 0.88736 0.56711 0.92591 0.0
H794 H 0.82245 0.55434 1.00956 0.0
C795 C 0.89753 0.53596 0.90108 0.0
C796 C 0.88109 0.51129 0.91848 0.0
H797 H 0.90126 0.58507 0.92118 0.0
H798 H 0.91911 0.53071 0.87853 0.0
C799 C 0.85347 0.51855 0.95177 0.0
C800 C 0.02452 0.13638 0.03328 0.0
C801 C 1.00822 0.16184 1.00864 0.0
H802 H 0.03917 0.08713 0.01446 0.0
C803 C 0.99577 0.15717 0.93906 0.0
H804 H 0.034 0.13911 0.0874 0.0
C805 C 0.9989 0.12749 0.89663 0.0
C806 C 1.01403 0.10154 0.92404 0.0
H807 H 0.98285 0.17629 0.91918 0.0
H808 H 0.98844 0.12456 0.84477 0.0
C809 C 0.0272 0.10652 0.99197 0.0
C810 C 0.38423 0.98453 0.94061 0.0
C811 C 0.37599 0.99725 0.02346 0.0
H812 H 0.41547 0.97792 0.8304 0.0
C813 C 0.39353 0.0162 0.05496 0.0
H814 H 0.37174 0.96896 0.91507 0.0
C815 C 0.41904 0.0209 1.00685 0.0
C816 C 0.42793 0.00675 0.92551 0.0
H817 H 0.3884 0.02547 0.11926 0.0
H818 H 0.43234 0.03447 0.03517 0.0
C819 C 0.40962 0.98936 0.8923 0.0
C820 C 0.5238 0.38937 0.04816 0.0
C821 C 0.50207 0.37131 0.04591 0.0
H822 H 0.54349 0.4299 1.00583 0.0
C823 C 0.48419 0.37992 0.99108 0.0
H824 H 0.53746 0.38392 0.09144 0.0
C825 C 0.48769 0.40642 0.94118 0.0
C826 C 0.50862 0.42552 0.9472 0.0
H827 H 0.46675 0.36711 0.98991 0.0
H828 H 0.47317 0.41292 0.90133 0.0
C829 C 0.52696 0.4161 1.0 0.0
C830 C 0.12805 0.50056 0.97509 0.0
C831 C 0.13601 0.47034 1.00117 0.0
H832 H 0.0986 0.52991 0.9229 0.0
C833 C 0.12031 0.44573 0.98731 0.0
H834 H 0.13912 0.52028 0.98615 0.0
C835 C 0.09739 0.45118 0.94912 0.0
C836 C 0.08934 0.48145 0.92364 0.0
H837 H 0.12573 0.42209 1.00623 0.0
H838 H 0.08596 0.43162 0.93962 0.0
C839 C 0.10489 0.50606 0.93805 0.0
C840 C 0.04214 0.863 0.67306 0.0
C841 C 0.02566 0.85655 0.61471 0.0
H842 H 0.05226 0.89646 0.75971 0.0
C843 C 1.00456 0.87963 0.60508 0.0
H844 H 0.05845 0.84566 0.68261 0.0
C845 C 1.00103 0.90907 0.64932 0.0
C846 C 0.01846 0.91605 0.70452 0.0
H847 H 0.99167 0.87557 0.56019 0.0
H848 H 0.98519 0.9267 0.63812 0.0
C849 C 0.0386 0.89224 0.71728 0.0
C850 C 0.63142 0.9732 0.55496 0.0
C851 C 0.64873 0.9964 0.56589 0.0
H852 H 0.59291 0.95553 0.59275 0.0
C853 C 0.63942 0.01941 0.63172 0.0
H854 H 0.63772 0.95494 0.50563 0.0
C855 C 0.61323 0.01995 0.68207 0.0
C856 C 0.59558 0.99728 0.66883 0.0
H857 H 0.65188 0.03789 0.64197 0.0
H858 H 0.60658 0.03863 0.73012 0.0
C859 C 0.6055 0.97356 0.60537 0.0
C860 C 0.55286 0.63344 0.60951 0.0
C861 C 0.53005 0.64971 0.58469 0.0
H862 H 0.56824 0.59513 0.67745 0.0
C863 C 0.50435 0.64039 0.6167 0.0
H864 H 0.57302 0.63945 0.58404 0.0
C865 C 0.50166 0.61431 0.66784 0.0
C866 C 0.52458 0.59706 0.68958 0.0
H867 H 0.48648 0.65176 0.5969 0.0
H868 H 0.48163 0.60695 0.68788 0.0
C869 C 0.55013 0.60777 0.66232 0.0
C870 C 0.91227 0.57592 0.67899 0.0
C871 C 0.90094 0.55317 0.6352 0.0
H872 H 0.9431 0.5859 0.74838 0.0
C873 C 0.91144 0.52128 0.63698 0.0
H874 H 0.90454 0.60066 0.68065 0.0
C875 C 0.93358 0.5128 0.67715 0.0
C876 C 0.94579 0.53596 0.71633 0.0
H877 H 0.90356 0.50312 0.60343 0.0
H878 H 0.94196 0.48826 0.67426 0.0
C879 C 0.93452 0.56753 0.71775 0.0
loop_
_geom_bond_atom_site_label_1
_geom_bond_atom_site_label_2
_geom_bond_distance
_geom_bond_site_symmetry_2
_ccdc_geom_bond_type
C0 C1 1.391 . S
C0 C4 1.391 . S
C0 H42 0.948 . S
C1 C0 1.391 . S
C1 C2 1.391 . S
C2 C1 1.391 . S
C2 H58 0.947 . S
C2 C59 1.392 . S
C3 C4 1.391 . S
C3 C7 1.397 . S
C3 C59 1.419 . S
C4 C0 1.391 . S
C4 C3 1.391 . S
C4 C5 1.399 . S
C5 C4 1.399 . S
C5 C8 1.396 . S
C5 C17 1.453 . S
C5 C18 1.684 . S
H6 C30 0.948 . S
C7 C3 1.397 . S
C7 C8 1.394 . S
C7 C26 1.723 . S
C8 C5 1.396 . S
C8 C7 1.394 . S
C8 C38 1.723 . S
H9 C32 0.947 . S
H10 C33 0.948 . S
H11 C39 0.982 . S
H12 C40 0.979 . S
H13 C40 0.980 . S
H14 C40 0.983 . S
H15 C39 0.979 . S
H16 C39 0.977 . S
C17 C5 1.453 . S
C17 H46 0.982 . S
C17 H47 0.979 . S
C17 H48 0.977 . S
C18 C5 1.684 . S
C18 H43 0.979 . S
C18 H44 0.980 . S
C18 H45 0.983 . S
C19 C20 1.391 . S
C19 C24 1.391 . S
C19 H49 0.948 . S
C20 C19 1.391 . S
C20 C21 1.391 . S
C21 C20 1.391 . S
C21 C22 1.392 . S
C21 H50 0.947 . S
C22 C21 1.392 . S
C22 C23 1.419 . S
C22 H51 0.948 . S
C23 C22 1.419 . S
C23 C24 1.391 . S
C23 C27 1.397 . S
C24 C19 1.391 . S
C24 C23 1.391 . S
C24 C25 1.399 . S
C25 C24 1.399 . S
C25 C26 1.396 . S
C25 C28 1.453 . S
C25 C29 1.684 . S
C26 C7 1.723 . S
C26 C25 1.396 . S
C26 C27 1.394 . S
C27 C23 1.397 . S
C27 C26 1.394 . S
C27 C37 1.723 . S
C28 C25 1.453 . S
C28 H52 0.982 . S
C28 H53 0.979 . S
C28 H54 0.977 . S
C29 C25 1.684 . S
C29 H55 0.979 . S
C29 H56 0.980 . S
C29 H57 0.983 . S
C30 H6 0.948 . S
C30 C31 1.391 . S
C30 C35 1.391 . S
C31 C30 1.391 . S
C31 C32 1.391 . S
C32 H9 0.947 . S
C32 C31 1.391 . S
C32 C33 1.392 . S
C33 H10 0.948 . S
C33 C32 1.392 . S
C33 C34 1.419 . S
C34 C33 1.419 . S
C34 C35 1.391 . S
C34 C38 1.397 . S
C35 C30 1.391 . S
C35 C34 1.391 . S
C35 C36 1.399 . S
C36 C35 1.399 . S
C36 C37 1.396 . S
C36 C39 1.453 . S
C36 C40 1.684 . S
C37 C27 1.723 . S
C37 C36 1.396 . S
C37 C38 1.394 . S
C38 C8 1.723 . S
C38 C34 1.397 . S
C38 C37 1.394 . S
C39 H11 0.982 . S
C39 H15 0.979 . S
C39 H16 0.977 . S
C39 C36 1.453 . S
C40 H12 0.979 . S
C40 H13 0.980 . S
C40 H14 0.983 . S
C40 C36 1.684 . S
H41 C59 0.948 . S
H42 C0 0.948 . S
H43 C18 0.979 . S
H44 C18 0.980 . S
H45 C18 0.983 . S
H46 C17 0.982 . S
H47 C17 0.979 . S
H48 C17 0.977 . S
H49 C19 0.948 . S
H50 C21 0.947 . S
H51 C22 0.948 . S
H52 C28 0.982 . S
H53 C28 0.979 . S
H54 C28 0.977 . S
H55 C29 0.979 . S
H56 C29 0.980 . S
H57 C29 0.983 . S
H58 C2 0.947 . S
C59 C2 1.392 . S
C59 C3 1.419 . S
C59 H41 0.948 . S
C60 C61 1.391 . S
C60 C64 1.391 . S
C60 H102 0.948 . S
C61 C60 1.391 . S
C61 C62 1.391 . S
C62 C61 1.391 . S
C62 H118 0.947 . S
C62 C119 1.392 . S
C63 C64 1.391 . S
C63 C67 1.397 1_655 S
C63 C119 1.419 . S
C64 C60 1.391 . S
C64 C63 1.391 . S
C64 C65 1.399 . S
C65 C64 1.399 . S
C65 C68 1.396 1_655 S
C65 C77 1.453 1_655 S
C65 C78 1.684 . S
H66 C90 0.948 . S
C67 C63 1.397 1_455 S
C67 C68 1.395 . S
C67 C86 1.722 . S
C68 C65 1.396 1_455 S
C68 C67 1.395 . S
C68 C98 1.723 . S
H69 C92 0.947 . S
H70 C93 0.948 . S
H71 C99 0.982 . S
H72 C100 0.979 . S
H73 C100 0.980 . S
H74 C100 0.983 . S
H75 C99 0.979 . S
H76 C99 0.977 . S
C77 C65 1.453 1_455 S
C77 H106 0.982 . S
C77 H107 0.979 . S
C77 H108 0.977 . S
C78 C65 1.684 . S
C78 H103 0.979 . S
C78 H104 0.980 . S
C78 H105 0.983 . S
C79 C80 1.391 . S
C79 C84 1.391 . S
C79 H109 0.948 . S
C80 C79 1.391 . S
C80 C81 1.391 . S
C81 C80 1.391 . S
C81 C82 1.392 . S
C81 H110 0.947 . S
C82 C81 1.392 . S
C82 C83 1.419 . S
C82 H111 0.948 . S
C83 C82 1.419 . S
C83 C84 1.391 . S
C83 C87 1.397 1_655 S
C84 C79 1.391 . S
C84 C83 1.391 . S
C84 C85 1.399 . S
C85 C84 1.399 . S
C85 C86 1.396 1_655 S
C85 C88 1.453 1_655 S
C85 C89 1.684 . S
C86 C67 1.722 . S
C86 C85 1.396 1_455 S
C86 C87 1.394 . S
C87 C83 1.397 1_455 S
C87 C86 1.394 . S
C87 C97 1.723 . S
C88 C85 1.453 1_455 S
C88 H112 0.982 . S
C88 H113 0.979 . S
C88 H114 0.977 . S
C89 C85 1.684 . S
C89 H115 0.979 . S
C89 H116 0.980 . S
C89 H117 0.983 . S
C90 H66 0.948 . S
C90 C91 1.391 . S
C90 C95 1.391 . S
C91 C90 1.391 . S
C91 C92 1.391 . S
C92 H69 0.947 . S
C92 C91 1.391 . S
C92 C93 1.392 . S
C93 H70 0.948 . S
C93 C92 1.392 . S
C93 C94 1.419 . S
C94 C93 1.419 . S
C94 C95 1.391 . S
C94 C98 1.397 1_655 S
C95 C90 1.391 . S
C95 C94 1.391 . S
C95 C96 1.399 . S
C96 C95 1.399 . S
C96 C97 1.396 1_655 S
C96 C99 1.453 1_655 S
C96 C100 1.684 . S
C97 C87 1.723 . S
C97 C96 1.396 1_455 S
C97 C98 1.394 . S
C98 C68 1.723 . S
C98 C94 1.397 1_455 S
C98 C97 1.394 . S
C99 H71 0.982 . S
C99 H75 0.979 . S
C99 H76 0.977 . S
C99 C96 1.453 1_455 S
C100 H72 0.979 . S
C100 H73 0.980 . S
C100 H74 0.983 . S
C100 C96 1.684 . S
H101 C119 0.948 . S
H102 C60 0.948 . S
H103 C78 0.979 . S
H104 C78 0.980 . S
H105 C78 0.983 . S
H106 C77 0.982 . S
H107 C77 0.979 . S
H108 C77 0.977 . S
H109 C79 0.948 . S
H110 C81 0.947 . S
H111 C82 0.948 . S
H112 C88 0.982 . S
H113 C88 0.979 . S
H114 C88 0.977 . S
H115 C89 0.979 . S
H116 C89 0.980 . S
H117 C89 0.983 . S
H118 C62 0.947 . S
C119 C62 1.392 . S
C119 C63 1.419 . S
C119 H101 0.948 . S
C120 C121 1.391 . S
C120 C124 1.391 . S
C120 H162 0.948 . S
C121 C120 1.391 . S
C121 C122 1.391 . S
C122 C121 1.391 . S
C122 H178 0.947 . S
C122 C179 1.392 . S
C123 C124 1.391 . S
C123 C127 1.397 1_565 S
C123 C179 1.419 . S
C124 C120 1.391 . S
C124 C123 1.391 . S
C124 C125 1.399 . S
C125 C124 1.399 . S
C125 C128 1.396 1_565 S
C125 C137 1.453 1_565 S
C125 C138 1.684 . S
H126 C150 0.948 . S
C127 C123 1.397 1_545 S
C127 C128 1.394 . S
C127 C146 1.723 . S
C128 C125 1.396 1_545 S
C128 C127 1.394 . S
C128 C158 1.723 . S
H129 C152 0.947 . S
H130 C153 0.948 . S
H131 C159 0.982 . S
H132 C160 0.979 . S
H133 C160 0.980 . S
H134 C160 0.983 . S
H135 C159 0.979 . S
H136 C159 0.977 . S
C137 C125 1.453 1_545 S
C137 H166 0.982 . S
C137 H167 0.979 . S
C137 H168 0.977 . S
C138 C125 1.684 . S
C138 H163 0.979 . S
C138 H164 0.980 . S
C138 H165 0.983 . S
C139 C140 1.391 . S
C139 C144 1.391 . S
C139 H169 0.948 . S
C140 C139 1.391 . S
C140 C141 1.391 . S
C141 C140 1.391 . S
C141 C142 1.392 . S
C141 H170 0.947 . S
C142 C141 1.392 . S
C142 C143 1.419 . S
C142 H171 0.948 . S
C143 C142 1.419 . S
C143 C144 1.391 . S
C143 C147 1.397 1_565 S
C144 C139 1.391 . S
C144 C143 1.391 . S
C144 C145 1.399 . S
C145 C144 1.399 . S
C145 C146 1.396 1_565 S
C145 C148 1.453 1_565 S
C145 C149 1.684 . S
C146 C127 1.723 . S
C146 C145 1.396 1_545 S
C146 C147 1.394 . S
C147 C143 1.397 1_545 S
C147 C146 1.394 . S
C147 C157 1.723 . S
C148 C145 1.453 1_545 S
C148 H172 0.982 . S
C148 H173 0.979 . S
C148 H174 0.977 . S
C149 C145 1.684 . S
C149 H175 0.979 . S
C149 H176 0.980 . S
C149 H177 0.983 . S
C150 H126 0.948 . S
C150 C151 1.391 . S
C150 C155 1.391 . S
C151 C150 1.391 . S
C151 C152 1.391 . S
C152 H129 0.947 . S
C152 C151 1.391 . S
C152 C153 1.392 . S
C153 H130 0.948 . S
C153 C152 1.392 . S
C153 C154 1.419 . S
C154 C153 1.419 . S
C154 C155 1.391 . S
C154 C158 1.397 1_565 S
C155 C150 1.391 . S
C155 C154 1.391 . S
C155 C156 1.399 . S
C156 C155 1.399 . S
C156 C157 1.396 1_565 S
C156 C159 1.453 1_565 S
C156 C160 1.684 . S
C157 C147 1.723 . S
C157 C156 1.396 1_545 S
C157 C158 1.394 . S
C158 C128 1.723 . S
C158 C154 1.397 1_545 S
C158 C157 1.394 . S
C159 H131 0.982 . S
C159 H135 0.979 . S
C159 H136 0.977 . S
C159 C156 1.453 1_545 S
C160 H132 0.979 . S
C160 H133 0.980 . S
C160 H134 0.983 . S
C160 C156 1.684 . S
H161 C179 0.948 . S
H162 C120 0.948 . S
H163 C138 0.979 . S
H164 C138 0.980 . S
H165 C138 0.983 . S
H166 C137 0.982 . S
H167 C137 0.979 . S
H168 C137 0.977 . S
H169 C139 0.948 . S
H170 C141 0.947 . S
H171 C142 0.948 . S
H172 C148 0.982 . S
H173 C148 0.979 . S
H174 C148 0.977 . S
H175 C149 0.979 . S
H176 C149 0.980 . S
H177 C149 0.983 . S
H178 C122 0.947 . S
C179 C122 1.392 . S
C179 C123 1.419 . S
C179 H161 0.948 . S
C180 C181 1.391 . S
C180 C184 1.391 . S
C180 H222 0.948 . S
C181 C180 1.391 . S
C181 C182 1.391 . S
C182 C181 1.391 . S
C182 H238 0.947 . S
C182 C239 1.392 . S
C183 C184 1.391 . S
C183 C187 1.397 . S
C183 C239 1.419 . S
C184 C180 1.391 . S
C184 C183 1.391 . S
C184 C185 1.399 . S
C185 C184 1.399 . S
C185 C188 1.396 . S
C185 C197 1.453 . S
C185 C198 1.684 . S
H186 C210 0.948 . S
C187 C183 1.397 . S
C187 C188 1.394 . S
C187 C206 1.723 . S
C188 C185 1.396 . S
C188 C187 1.394 . S
C188 C218 1.723 . S
H189 C212 0.947 . S
H190 C213 0.948 . S
H191 C219 0.982 1_554 S
H192 C220 0.979 1_554 S
H193 C220 0.980 . S
H194 C220 0.983 . S
H195 C219 0.979 . S
H196 C219 0.977 . S
C197 C185 1.453 . S
C197 H226 0.982 . S
C197 H227 0.979 . S
C197 H228 0.977 . S
C198 C185 1.684 . S
C198 H223 0.979 . S
C198 H224 0.980 . S
C198 H225 0.983 . S
C199 C200 1.391 1_554 S
C199 C204 1.391 . S
C199 H229 0.948 . S
C200 C199 1.391 1_556 S
C200 C201 1.391 . S
C201 C200 1.391 . S
C201 C202 1.392 . S
C201 H230 0.947 . S
C202 C201 1.392 . S
C202 C203 1.419 1_556 S
C202 H231 0.948 . S
C203 C202 1.419 1_554 S
C203 C204 1.391 . S
C203 C207 1.397 . S
C204 C199 1.391 . S
C204 C203 1.391 . S
C204 C205 1.399 . S
C205 C204 1.399 . S
C205 C206 1.396 . S
C205 C208 1.453 . S
C205 C209 1.684 . S
C206 C187 1.723 . S
C206 C205 1.396 . S
C206 C207 1.394 . S
C207 C203 1.397 . S
C207 C206 1.394 . S
C207 C217 1.723 . S
C208 C205 1.453 . S
C208 H232 0.982 . S
C208 H233 0.979 . S
C208 H234 0.977 . S
C209 C205 1.684 . S
C209 H235 0.979 . S
C209 H236 0.980 . S
C209 H237 0.983 . S
C210 H186 0.948 . S
C210 C211 1.391 . S
C210 C215 1.391 . S
C211 C210 1.391 . S
C211 C212 1.391 . S
C212 H189 0.947 . S
C212 C211 1.391 . S
C212 C213 1.392 . S
C213 H190 0.948 . S
C213 C212 1.392 . S
C213 C214 1.419 . S
C214 C213 1.419 . S
C214 C215 1.391 . S
C214 C218 1.397 . S
C215 C210 1.391 . S
C215 C214 1.391 . S
C215 C216 1.399 . S
C216 C215 1.399 . S
C216 C217 1.396 . S
C216 C219 1.453 1_554 S
C216 C220 1.684 1_554 S
C217 C207 1.723 . S
C217 C216 1.396 . S
C217 C218 1.394 . S
C218 C188 1.723 . S
C218 C214 1.397 . S
C218 C217 1.394 . S
C219 H191 0.982 1_556 S
C219 H195 0.979 . S
C219 H196 0.977 . S
C219 C216 1.453 1_556 S
C220 H192 0.979 1_556 S
C220 H193 0.980 . S
C220 H194 0.983 . S
C220 C216 1.684 1_556 S
H221 C239 0.948 . S
H222 C180 0.948 . S
H223 C198 0.979 . S
H224 C198 0.980 . S
H225 C198 0.983 . S
H226 C197 0.982 . S
H227 C197 0.979 . S
H228 C197 0.977 . S
H229 C199 0.948 . S
H230 C201 0.947 . S
H231 C202 0.948 . S
H232 C208 0.982 . S
H233 C208 0.979 . S
H234 C208 0.977 . S
H235 C209 0.979 . S
H236 C209 0.980 . S
H237 C209 0.983 . S
H238 C182 0.947 . S
C239 C182 1.392 . S
C239 C183 1.419 . S
C239 H221 0.948 . S
C240 C241 1.391 1_556 S
C240 C244 1.391 . S
C240 H282 0.948 . S
C241 C240 1.391 1_554 S
C241 C242 1.391 . S
C242 C241 1.391 . S
C242 H298 0.947 . S
C242 C299 1.392 . S
C243 C244 1.391 1_554 S
C243 C247 1.397 . S
C243 C299 1.419 . S
C244 C240 1.391 . S
C244 C243 1.391 1_556 S
C244 C245 1.399 . S
C245 C244 1.399 . S
C245 C248 1.396 . S
C245 C257 1.453 . S
C245 C258 1.684 . S
H246 C270 0.948 . S
C247 C243 1.397 . S
C247 C248 1.394 1_554 S
C247 C266 1.723 . S
C248 C245 1.396 . S
C248 C247 1.394 1_556 S
C248 C278 1.723 . S
H249 C272 0.947 . S
H250 C273 0.948 . S
H251 C279 0.982 . S
H252 C280 0.979 . S
H253 C280 0.980 . S
H254 C280 0.983 . S
H255 C279 0.979 . S
H256 C279 0.977 . S
C257 C245 1.453 . S
C257 H286 0.982 . S
C257 H287 0.979 . S
C257 H288 0.977 . S
C258 C245 1.684 . S
C258 H283 0.979 . S
C258 H284 0.980 . S
C258 H285 0.983 . S
C259 C260 1.391 . S
C259 C264 1.391 . S
C259 H289 0.948 . S
C260 C259 1.391 . S
C260 C261 1.391 . S
C261 C260 1.391 . S
C261 C262 1.392 . S
C261 H290 0.947 . S
C262 C261 1.392 . S
C262 C263 1.419 . S
C262 H291 0.948 . S
C263 C262 1.419 . S
C263 C264 1.391 . S
C263 C267 1.397 . S
C264 C259 1.391 . S
C264 C263 1.391 . S
C264 C265 1.399 . S
C265 C264 1.399 . S
C265 C266 1.396 . S
C265 C268 1.453 . S
C265 C269 1.684 . S
C266 C247 1.723 . S
C266 C265 1.396 . S
C266 C267 1.394 . S
C267 C263 1.397 . S
C267 C266 1.394 . S
C267 C277 1.723 1_554 S
C268 C265 1.453 . S
C268 H292 0.982 . S
C268 H293 0.979 . S
C268 H294 0.977 . S
C269 C265 1.684 . S
C269 H295 0.979 . S
C269 H296 0.980 . S
C269 H297 0.983 . S
C270 H246 0.948 . S
C270 C271 1.391 . S
C270 C275 1.391 . S
C271 C270 1.391 . S
C271 C272 1.391 . S
C272 H249 0.947 . S
C272 C271 1.391 . S
C272 C273 1.392 . S
C273 H250 0.948 . S
C273 C272 1.392 . S
C273 C274 1.419 . S
C274 C273 1.419 . S
C274 C275 1.391 . S
C274 C278 1.397 . S
C275 C270 1.391 . S
C275 C274 1.391 . S
C275 C276 1.399 . S
C276 C275 1.399 . S
C276 C277 1.396 . S
C276 C279 1.453 . S
C276 C280 1.684 . S
C277 C267 1.723 1_556 S
C277 C276 1.396 . S
C277 C278 1.394 . S
C278 C248 1.723 . S
C278 C274 1.397 . S
C278 C277 1.394 . S
C279 H251 0.982 . S
C279 H255 0.979 . S
C279 H256 0.977 . S
C279 C276 1.453 . S
C280 H252 0.979 . S
C280 H253 0.980 . S
C280 H254 0.983 . S
C280 C276 1.684 . S
H281 C299 0.948 . S
H282 C240 0.948 . S
H283 C258 0.979 . S
H284 C258 0.980 . S
H285 C258 0.983 . S
H286 C257 0.982 . S
H287 C257 0.979 . S
H288 C257 0.977 . S
H289 C259 0.948 . S
H290 C261 0.947 . S
H291 C262 0.948 . S
H292 C268 0.982 . S
H293 C268 0.979 . S
H294 C268 0.977 . S
H295 C269 0.979 . S
H296 C269 0.980 . S
H297 C269 0.983 . S
H298 C242 0.947 . S
C299 C242 1.392 . S
C299 C243 1.419 . S
C299 H281 0.948 . S
C300 C301 1.391 . S
C300 C304 1.391 . S
C300 H342 0.948 . S
C301 C300 1.391 . S
C301 C302 1.391 . S
C302 C301 1.391 . S
C302 H358 0.947 . S
C302 C359 1.392 . S
C303 C304 1.391 . S
C303 C307 1.397 1_655 S
C303 C359 1.419 . S
C304 C300 1.391 . S
C304 C303 1.391 . S
C304 C305 1.399 . S
C305 C304 1.399 . S
C305 C308 1.396 1_655 S
C305 C317 1.453 1_655 S
C305 C318 1.684 . S
H306 C330 0.948 . S
C307 C303 1.397 1_455 S
C307 C308 1.396 . S
C307 C326 1.722 . S
C308 C305 1.396 1_455 S
C308 C307 1.396 . S
C308 C338 1.723 . S
H309 C332 0.947 . S
H310 C333 0.948 . S
H311 C339 0.982 . S
H312 C340 0.979 . S
H313 C340 0.980 1_556 S
H314 C340 0.983 . S
H315 C339 0.979 . S
H316 C339 0.977 1_556 S
C317 C305 1.453 1_455 S
C317 H346 0.982 . S
C317 H347 0.979 . S
C317 H348 0.977 . S
C318 C305 1.684 . S
C318 H343 0.979 . S
C318 H344 0.980 . S
C318 H345 0.983 . S
C319 C320 1.391 . S
C319 C324 1.391 . S
C319 H349 0.948 . S
C320 C319 1.391 . S
C320 C321 1.391 . S
C321 C320 1.391 . S
C321 C322 1.392 . S
C321 H350 0.947 . S
C322 C321 1.392 . S
C322 C323 1.419 . S
C322 H351 0.948 . S
C323 C322 1.419 . S
C323 C324 1.391 . S
C323 C327 1.395 1_656 S
C324 C319 1.391 . S
C324 C323 1.391 . S
C324 C325 1.399 1_556 S
C325 C324 1.399 1_554 S
C325 C326 1.396 1_655 S
C325 C328 1.453 1_655 S
C325 C329 1.684 . S
C326 C307 1.722 . S
C326 C325 1.396 1_455 S
C326 C327 1.394 . S
C327 C323 1.395 1_454 S
C327 C326 1.394 . S
C327 C337 1.725 . S
C328 C325 1.453 1_455 S
C328 H352 0.982 . S
C328 H353 0.979 . S
C328 H354 0.977 . S
C329 C325 1.684 . S
C329 H355 0.979 . S
C329 H356 0.980 . S
C329 H357 0.983 . S
C330 H306 0.948 . S
C330 C331 1.391 . S
C330 C335 1.391 . S
C331 C330 1.391 . S
C331 C332 1.391 . S
C332 H309 0.947 . S
C332 C331 1.391 . S
C332 C333 1.392 . S
C333 H310 0.948 . S
C333 C332 1.392 . S
C333 C334 1.419 . S
C334 C333 1.419 . S
C334 C335 1.391 . S
C334 C338 1.398 1_655 S
C335 C330 1.391 . S
C335 C334 1.391 . S
C335 C336 1.399 . S
C336 C335 1.399 . S
C336 C337 1.396 1_655 S
C336 C339 1.453 1_655 S
C336 C340 1.684 . S
C337 C327 1.725 . S
C337 C336 1.396 1_455 S
C337 C338 1.393 . S
C338 C308 1.723 . S
C338 C334 1.398 1_455 S
C338 C337 1.393 . S
C339 H311 0.982 . S
C339 H315 0.979 . S
C339 H316 0.977 1_554 S
C339 C336 1.453 1_455 S
C340 H312 0.979 . S
C340 H313 0.980 1_554 S
C340 H314 0.983 . S
C340 C336 1.684 . S
H341 C359 0.948 . S
H342 C300 0.948 . S
H343 C318 0.979 . S
H344 C318 0.980 . S
H345 C318 0.983 . S
H346 C317 0.982 . S
H347 C317 0.979 . S
H348 C317 0.977 . S
H349 C319 0.948 . S
H350 C321 0.947 . S
H351 C322 0.948 . S
H352 C328 0.982 . S
H353 C328 0.979 . S
H354 C328 0.977 . S
H355 C329 0.979 . S
H356 C329 0.980 . S
H357 C329 0.983 . S
H358 C302 0.947 . S
C359 C302 1.392 . S
C359 C303 1.419 . S
C359 H341 0.948 . S
C360 C361 1.391 . S
C360 C364 1.391 1_556 S
C360 H402 0.948 . S
C361 C360 1.391 . S
C361 C362 1.391 . S
C362 C361 1.391 . S
C362 H418 0.947 . S
C362 C419 1.392 1_556 S
C363 C364 1.391 . S
C363 C367 1.397 1_545 S
C363 C419 1.419 . S
C364 C360 1.391 1_554 S
C364 C363 1.391 . S
C364 C365 1.399 . S
C365 C364 1.399 . S
C365 C368 1.396 1_545 S
C365 C377 1.453 1_545 S
C365 C378 1.684 . S
H366 C390 0.948 . S
C367 C363 1.397 1_565 S
C367 C368 1.394 . S
C367 C386 1.723 . S
C368 C365 1.396 1_565 S
C368 C367 1.394 . S
C368 C398 1.723 . S
H369 C392 0.947 . S
H370 C393 0.948 . S
H371 C399 0.982 . S
H372 C400 0.979 . S
H373 C400 0.980 . S
H374 C400 0.983 . S
H375 C399 0.979 . S
H376 C399 0.977 . S
C377 C365 1.453 1_565 S
C377 H406 0.982 . S
C377 H407 0.979 1_554 S
C377 H408 0.977 . S
C378 C365 1.684 . S
C378 H403 0.979 . S
C378 H404 0.980 . S
C378 H405 0.983 1_554 S
C379 C380 1.391 . S
C379 C384 1.391 . S
C379 H409 0.948 . S
C380 C379 1.391 . S
C380 C381 1.391 . S
C381 C380 1.391 . S
C381 C382 1.392 . S
C381 H410 0.947 . S
C382 C381 1.392 . S
C382 C383 1.419 . S
C382 H411 0.948 . S
C383 C382 1.419 . S
C383 C384 1.391 . S
C383 C387 1.397 1_545 S
C384 C379 1.391 . S
C384 C383 1.391 . S
C384 C385 1.399 . S
C385 C384 1.399 . S
C385 C386 1.396 1_545 S
C385 C388 1.453 1_545 S
C385 C389 1.684 . S
C386 C367 1.723 . S
C386 C385 1.396 1_565 S
C386 C387 1.394 . S
C387 C383 1.397 1_565 S
C387 C386 1.394 . S
C387 C397 1.723 . S
C388 C385 1.453 1_565 S
C388 H412 0.982 . S
C388 H413 0.979 . S
C388 H414 0.977 . S
C389 C385 1.684 . S
C389 H415 0.979 . S
C389 H416 0.980 . S
C389 H417 0.983 . S
C390 H366 0.948 . S
C390 C391 1.391 . S
C390 C395 1.391 . S
C391 C390 1.391 . S
C391 C392 1.391 . S
C392 H369 0.947 . S
C392 C391 1.391 . S
C392 C393 1.392 . S
C393 H370 0.948 . S
C393 C392 1.392 . S
C393 C394 1.419 . S
C394 C393 1.419 . S
C394 C395 1.391 . S
C394 C398 1.397 1_545 S
C395 C390 1.391 . S
C395 C394 1.391 . S
C395 C396 1.399 . S
C396 C395 1.399 . S
C396 C397 1.396 1_545 S
C396 C399 1.453 1_545 S
C396 C400 1.684 . S
C397 C387 1.723 . S
C397 C396 1.396 1_565 S
C397 C398 1.394 . S
C398 C368 1.723 . S
C398 C394 1.397 1_565 S
C398 C397 1.394 . S
C399 H371 0.982 . S
C399 H375 0.979 . S
C399 H376 0.977 . S
C399 C396 1.453 1_565 S
C400 H372 0.979 . S
C400 H373 0.980 . S
C400 H374 0.983 . S
C400 C396 1.684 . S
H401 C419 0.948 . S
H402 C360 0.948 . S
H403 C378 0.979 . S
H404 C378 0.980 . S
H405 C378 0.983 1_556 S
H406 C377 0.982 . S
H407 C377 0.979 1_556 S
H408 C377 0.977 . S
H409 C379 0.948 . S
H410 C381 0.947 . S
H411 C382 0.948 . S
H412 C388 0.982 . S
H413 C388 0.979 . S
H414 C388 0.977 . S
H415 C389 0.979 . S
H416 C389 0.980 . S
H417 C389 0.983 . S
H418 C362 0.947 . S
C419 C362 1.392 1_554 S
C419 C363 1.419 . S
C419 H401 0.948 . S
C420 C421 1.391 . S
C420 C424 1.391 . S
C420 H462 0.948 . S
C421 C420 1.391 . S
C421 C422 1.391 . S
C422 C421 1.391 . S
C422 H478 0.947 . S
C422 C479 1.392 . S
C423 C424 1.391 . S
C423 C427 1.397 . S
C423 C479 1.419 . S
C424 C420 1.391 . S
C424 C423 1.391 . S
C424 C425 1.399 . S
C425 C424 1.399 . S
C425 C428 1.396 . S
C425 C437 1.453 . S
C425 C438 1.684 . S
H426 C450 0.948 . S
C427 C423 1.397 . S
C427 C428 1.394 . S
C427 C446 1.723 . S
C428 C425 1.396 . S
C428 C427 1.394 . S
C428 C458 1.723 . S
H429 C452 0.947 . S
H430 C453 0.948 . S
H431 C459 0.982 . S
H432 C460 0.979 . S
H433 C460 0.980 . S
H434 C460 0.983 . S
H435 C459 0.979 . S
H436 C459 0.977 . S
C437 C425 1.453 . S
C437 H466 0.982 . S
C437 H467 0.979 . S
C437 H468 0.977 . S
C438 C425 1.684 . S
C438 H463 0.979 . S
C438 H464 0.980 . S
C438 H465 0.983 . S
C439 C440 1.391 . S
C439 C444 1.391 . S
C439 H469 0.948 . S
C440 C439 1.391 . S
C440 C441 1.391 . S
C441 C440 1.391 . S
C441 C442 1.392 . S
C441 H470 0.947 . S
C442 C441 1.392 . S
C442 C443 1.419 . S
C442 H471 0.948 . S
C443 C442 1.419 . S
C443 C444 1.391 . S
C443 C447 1.397 . S
C444 C439 1.391 . S
C444 C443 1.391 . S
C444 C445 1.399 . S
C445 C444 1.399 . S
C445 C446 1.396 . S
C445 C448 1.453 . S
C445 C449 1.684 . S
C446 C427 1.723 . S
C446 C445 1.396 . S
C446 C447 1.394 . S
C447 C443 1.397 . S
C447 C446 1.394 . S
C447 C457 1.723 . S
C448 C445 1.453 . S
C448 H472 0.982 . S
C448 H473 0.979 . S
C448 H474 0.977 . S
C449 C445 1.684 . S
C449 H475 0.979 . S
C449 H476 0.980 . S
C449 H477 0.983 . S
C450 H426 0.948 . S
C450 C451 1.391 . S
C450 C455 1.391 . S
C451 C450 1.391 . S
C451 C452 1.391 . S
C452 H429 0.947 . S
C452 C451 1.391 . S
C452 C453 1.392 . S
C453 H430 0.948 . S
C453 C452 1.392 . S
C453 C454 1.419 . S
C454 C453 1.419 . S
C454 C455 1.391 . S
C454 C458 1.397 . S
C455 C450 1.391 . S
C455 C454 1.391 . S
C455 C456 1.399 . S
C456 C455 1.399 . S
C456 C457 1.396 . S
C456 C459 1.453 . S
C456 C460 1.684 . S
C457 C447 1.723 . S
C457 C456 1.396 . S
C457 C458 1.394 . S
C458 C428 1.723 . S
C458 C454 1.397 . S
C458 C457 1.394 . S
C459 H431 0.982 . S
C459 H435 0.979 . S
C459 H436 0.977 . S
C459 C456 1.453 . S
C460 H432 0.979 . S
C460 H433 0.980 . S
C460 H434 0.983 . S
C460 C456 1.684 . S
H461 C479 0.948 . S
H462 C420 0.948 . S
H463 C438 0.979 . S
H464 C438 0.980 . S
H465 C438 0.983 . S
H466 C437 0.982 . S
H467 C437 0.979 . S
H468 C437 0.977 . S
H469 C439 0.948 . S
H470 C441 0.947 . S
H471 C442 0.948 . S
H472 C448 0.982 . S
H473 C448 0.979 . S
H474 C448 0.977 . S
H475 C449 0.979 . S
H476 C449 0.980 . S
H477 C449 0.983 . S
H478 C422 0.947 . S
C479 C422 1.392 . S
C479 C423 1.419 . S
C479 H461 0.948 . S
Dy480 O483 2.307 1_545 S
Dy480 O485 2.383 1_655 S
Dy480 O486 2.379 . S
Dy480 O488 2.339 . S
Dy480 O490 2.298 . S
Dy480 O494 2.275 1_655 S
Dy480 C502 2.738 . S
Dy481 O484 2.298 . S
Dy481 O487 2.275 1_455 S
Dy481 O489 2.307 1_565 S
Dy481 O491 2.387 1_455 S
Dy481 O492 2.379 . S
Dy481 O495 2.339 . S
Dy481 C511 2.738 . S
C482 O494 1.254 1_565 S
C482 O495 1.257 . S
O483 Dy480 2.307 1_565 S
O483 C493 1.266 . S
O484 Dy481 2.298 . S
O484 C493 1.236 1_455 S
O485 Dy480 2.383 1_455 S
O485 C502 1.229 1_455 S
O486 Dy480 2.379 . S
O486 C502 1.249 . S
O487 Dy481 2.275 1_655 S
O487 C503 1.254 1_565 S
O488 Dy480 2.339 . S
O488 C503 1.257 . S
O489 Dy481 2.307 1_545 S
O489 C504 1.266 . S
O490 Dy480 2.298 . S
O490 C504 1.236 1_655 S
O491 Dy481 2.387 1_655 S
O491 C511 1.238 1_655 S
O492 Dy481 2.379 . S
O492 C511 1.249 . S
C493 O483 1.266 . S
C493 O484 1.236 1_655 S
O494 Dy480 2.275 1_455 S
O494 C482 1.254 1_545 S
O495 Dy481 2.339 . S
O495 C482 1.257 . S
C496 C499 1.344 . S
C496 C500 1.328 . S
C496 C502 1.516 . S
C497 C498 1.304 . S
C497 C501 1.323 . S
C498 C497 1.304 . S
C498 C499 1.371 . S
C498 H512 0.930 1_655 S
C499 C496 1.344 . S
C499 C498 1.371 . S
C499 H513 0.931 1_655 S
C500 C496 1.328 . S
C500 C501 1.433 . S
C500 H514 0.931 . S
C501 C497 1.323 . S
C501 C500 1.433 . S
C501 H515 0.933 . S
C502 Dy480 2.738 . S
C502 O485 1.229 1_655 S
C502 O486 1.249 . S
C502 C496 1.516 . S
C503 O487 1.254 1_545 S
C503 O488 1.257 . S
C504 O489 1.266 . S
C504 O490 1.236 1_455 S
C505 C508 1.344 1_556 S
C505 C509 1.328 1_556 S
C505 C511 1.516 . S
C506 C507 1.304 . S
C506 C510 1.323 . S
C507 C506 1.304 . S
C507 C508 1.371 . S
C507 H516 0.930 1_455 S
C508 C505 1.344 1_554 S
C508 C507 1.371 . S
C508 H517 0.931 1_455 S
C509 C505 1.328 1_554 S
C509 C510 1.433 . S
C509 H518 0.931 1_554 S
C510 C506 1.323 . S
C510 C509 1.433 . S
C510 H519 0.933 . S
C511 Dy481 2.738 . S
C511 O491 1.238 1_455 S
C511 O492 1.249 . S
C511 C505 1.516 . S
H512 C498 0.930 1_455 S
H513 C499 0.931 1_455 S
H514 C500 0.931 . S
H515 C501 0.933 . S
H516 C507 0.930 1_655 S
H517 C508 0.931 1_655 S
H518 C509 0.931 1_556 S
H519 C510 0.933 . S
Dy520 O523 2.307 . S
Dy520 O525 2.395 1_565 S
Dy520 O526 2.379 . S
Dy520 O528 2.339 . S
Dy520 O530 2.298 . S
Dy520 O534 2.275 1_565 S
Dy520 C542 2.738 . S
Dy521 O524 2.298 . S
Dy521 O527 2.275 1_545 S
Dy521 O529 2.307 . S
Dy521 O531 2.395 1_545 S
Dy521 O532 2.379 . S
Dy521 O535 2.339 . S
Dy521 C551 2.738 . S
C522 O534 1.254 . S
C522 O535 1.257 . S
O523 Dy520 2.307 . S
O523 C533 1.266 . S
O524 Dy521 2.298 . S
O524 C533 1.236 1_545 S
O525 Dy520 2.395 1_545 S
O525 C542 1.255 1_545 S
O526 Dy520 2.379 . S
O526 C542 1.249 . S
O527 Dy521 2.275 1_565 S
O527 C543 1.254 . S
O528 Dy520 2.339 . S
O528 C543 1.257 . S
O529 Dy521 2.307 . S
O529 C544 1.266 . S
O530 Dy520 2.298 . S
O530 C544 1.236 1_565 S
O531 Dy521 2.395 1_565 S
O531 C551 1.255 1_565 S
O532 Dy521 2.379 . S
O532 C551 1.249 . S
C533 O523 1.266 . S
C533 O524 1.236 1_565 S
O534 Dy520 2.275 1_545 S
O534 C522 1.254 . S
O535 Dy521 2.339 . S
O535 C522 1.257 . S
C536 C539 1.344 . S
C536 C540 1.328 . S
C536 C542 1.516 . S
C537 C538 1.304 . S
C537 C541 1.323 . S
C538 C537 1.304 . S
C538 C539 1.371 . S
C538 H552 0.930 1_565 S
C539 C536 1.344 . S
C539 C538 1.371 . S
C539 H553 0.931 1_565 S
C540 C536 1.328 . S
C540 C541 1.433 . S
C540 H554 0.931 . S
C541 C537 1.323 . S
C541 C540 1.433 . S
C541 H555 0.933 . S
C542 Dy520 2.738 . S
C542 O525 1.255 1_565 S
C542 O526 1.249 . S
C542 C536 1.516 . S
C543 O527 1.254 . S
C543 O528 1.257 . S
C544 O529 1.266 . S
C544 O530 1.236 1_545 S
C545 C548 1.343 1_556 S
C545 C549 1.328 1_556 S
C545 C551 1.516 . S
C546 C547 1.304 . S
C546 C550 1.323 . S
C547 C546 1.304 . S
C547 C548 1.373 . S
C547 H556 0.930 1_545 S
C548 C545 1.343 1_554 S
C548 C547 1.373 . S
C548 H557 0.930 1_544 S
C549 C545 1.328 1_554 S
C549 C550 1.433 . S
C549 H558 0.931 . S
C550 C546 1.323 . S
C550 C549 1.433 . S
C550 H559 0.933 . S
C551 Dy521 2.738 . S
C551 O531 1.255 1_545 S
C551 O532 1.249 . S
C551 C545 1.516 . S
H552 C538 0.930 1_545 S
H553 C539 0.931 1_545 S
H554 C540 0.931 . S
H555 C541 0.933 . S
H556 C547 0.930 1_565 S
H557 C548 0.930 1_566 S
H558 C549 0.931 . S
H559 C550 0.933 . S
Dy560 O563 2.307 . S
Dy560 O565 2.395 . S
Dy560 O566 2.379 . S
Dy560 O568 2.339 . S
Dy560 O570 2.298 . S
Dy560 O574 2.275 . S
Dy560 C582 2.738 . S
Dy561 O564 2.298 . S
Dy561 O567 2.275 . S
Dy561 O569 2.307 . S
Dy561 O571 2.395 . S
Dy561 O572 2.379 . S
Dy561 O575 2.339 . S
Dy561 C591 2.738 . S
C562 O574 1.254 . S
C562 O575 1.257 . S
O563 Dy560 2.307 . S
O563 C573 1.266 . S
O564 Dy561 2.298 . S
O564 C573 1.236 . S
O565 Dy560 2.395 . S
O565 C582 1.255 . S
O566 Dy560 2.379 . S
O566 C582 1.249 . S
O567 Dy561 2.275 . S
O567 C583 1.254 . S
O568 Dy560 2.339 . S
O568 C583 1.257 . S
O569 Dy561 2.307 . S
O569 C584 1.266 . S
O570 Dy560 2.298 . S
O570 C584 1.236 . S
O571 Dy561 2.395 . S
O571 C591 1.255 . S
O572 Dy561 2.379 . S
O572 C591 1.249 . S
C573 O563 1.266 . S
C573 O564 1.236 . S
O574 Dy560 2.275 . S
O574 C562 1.254 . S
O575 Dy561 2.339 . S
O575 C562 1.257 . S
C576 C579 1.344 1_556 S
C576 C580 1.328 . S
C576 C582 1.516 . S
C577 C578 1.304 . S
C577 C581 1.323 1_554 S
C578 C577 1.304 . S
C578 C579 1.371 . S
C578 H592 0.930 . S
C579 C576 1.344 1_554 S
C579 C578 1.371 . S
C579 H593 0.931 . S
C580 C576 1.328 . S
C580 C581 1.433 . S
C580 H594 0.931 . S
C581 C577 1.323 1_556 S
C581 C580 1.433 . S
C581 H595 0.933 . S
C582 Dy560 2.738 . S
C582 O565 1.255 . S
C582 O566 1.249 . S
C582 C576 1.516 . S
C583 O567 1.254 . S
C583 O568 1.257 . S
C584 O569 1.266 . S
C584 O570 1.236 . S
C585 C588 1.344 . S
C585 C589 1.328 . S
C585 C591 1.516 . S
C586 C587 1.304 . S
C586 C590 1.323 . S
C587 C586 1.304 . S
C587 C588 1.371 . S
C587 H596 0.930 . S
C588 C585 1.344 . S
C588 C587 1.371 . S
C588 H597 0.931 . S
C589 C585 1.328 . S
C589 C590 1.433 . S
C589 H598 0.931 . S
C590 C586 1.323 . S
C590 C589 1.433 . S
C590 H599 0.933 . S
C591 Dy561 2.738 . S
C591 O571 1.255 . S
C591 O572 1.249 . S
C591 C585 1.516 . S
H592 C578 0.930 . S
H593 C579 0.931 . S
H594 C580 0.931 . S
H595 C581 0.933 . S
H596 C587 0.930 . S
H597 C588 0.931 . S
H598 C589 0.931 . S
H599 C590 0.933 . S
Dy600 O603 2.307 1_455 S
Dy600 O605 2.395 . S
Dy600 O606 2.379 . S
Dy600 O608 2.339 . S
Dy600 O610 2.298 . S
Dy600 O614 2.275 . S
Dy600 C622 2.738 . S
Dy601 O604 2.298 . S
Dy601 O607 2.275 . S
Dy601 O609 2.307 1_655 S
Dy601 O611 2.395 . S
Dy601 O612 2.379 . S
Dy601 O615 2.339 . S
Dy601 C631 2.738 . S
C602 O614 1.254 1_655 S
C602 O615 1.257 . S
O603 Dy600 2.307 1_655 S
O603 C613 1.266 . S
O604 Dy601 2.298 . S
O604 C613 1.236 . S
O605 Dy600 2.395 . S
O605 C622 1.255 . S
O606 Dy600 2.379 . S
O606 C622 1.249 . S
O607 Dy601 2.275 . S
O607 C623 1.254 1_655 S
O608 Dy600 2.339 . S
O608 C623 1.257 . S
O609 Dy601 2.307 1_455 S
O609 C624 1.266 . S
O610 Dy600 2.298 . S
O610 C624 1.236 . S
O611 Dy601 2.395 . S
O611 C631 1.255 . S
O612 Dy601 2.379 . S
O612 C631 1.249 . S
C613 O603 1.266 . S
C613 O604 1.236 . S
O614 Dy600 2.275 . S
O614 C602 1.254 1_455 S
O615 Dy601 2.339 . S
O615 C602 1.257 . S
C616 C619 1.344 . S
C616 C620 1.328 . S
C616 C622 1.516 . S
C617 C618 1.304 . S
C617 C621 1.323 . S
C618 C617 1.304 . S
C618 C619 1.371 . S
C618 H632 0.930 . S
C619 C616 1.344 . S
C619 C618 1.371 . S
C619 H633 0.931 . S
C620 C616 1.328 . S
C620 C621 1.433 . S
C620 H634 0.931 . S
C621 C617 1.323 . S
C621 C620 1.433 . S
C621 H635 0.933 . S
C622 Dy600 2.738 . S
C622 O605 1.255 . S
C622 O606 1.249 . S
C622 C616 1.516 . S
C623 O607 1.254 1_455 S
C623 O608 1.257 . S
C624 O609 1.266 . S
C624 O610 1.236 . S
C625 C628 1.344 . S
C625 C629 1.328 . S
C625 C631 1.516 1_554 S
C626 C627 1.304 . S
C626 C630 1.323 . S
C627 C626 1.304 . S
C627 C628 1.371 . S
C627 H636 0.930 . S
C628 C625 1.344 . S
C628 C627 1.371 . S
C628 H637 0.931 . S
C629 C625 1.328 . S
C629 C630 1.433 . S
C629 H638 0.931 . S
C630 C626 1.323 . S
C630 C629 1.433 . S
C630 H639 0.933 . S
C631 Dy601 2.738 . S
C631 O611 1.255 . S
C631 O612 1.249 . S
C631 C625 1.516 1_556 S
H632 C618 0.930 . S
H633 C619 0.931 . S
H634 C620 0.931 . S
H635 C621 0.933 . S
H636 C627 0.930 . S
H637 C628 0.931 . S
H638 C629 0.931 . S
H639 C630 0.933 . S
C640 C641 1.378 1_565 S
C640 H644 0.950 . S
C640 C649 1.390 . S
C641 C640 1.378 1_545 S
C641 C643 1.396 . S
H642 C649 0.950 . S
C643 C641 1.396 . S
C643 C645 1.390 . S
C643 H647 0.950 . S
H644 C640 0.950 . S
C645 C643 1.390 . S
C645 C646 1.411 . S
C645 H648 0.950 . S
C646 C645 1.411 . S
C646 C649 1.367 1_545 S
H647 C643 0.950 . S
H648 C645 0.950 . S
C649 C640 1.390 . S
C649 H642 0.950 . S
C649 C646 1.367 1_565 S
C650 C651 1.387 . S
C650 H654 0.950 . S
C650 C659 1.390 . S
C651 C650 1.387 . S
C651 C653 1.387 . S
H652 C659 0.950 . S
C653 C651 1.387 . S
C653 C655 1.390 . S
C653 H657 0.950 . S
H654 C650 0.950 . S
C655 C653 1.390 . S
C655 C656 1.387 . S
C655 H658 0.950 . S
C656 C655 1.387 . S
C656 C659 1.387 . S
H657 C653 0.950 . S
H658 C655 0.950 . S
C659 C650 1.390 . S
C659 H652 0.950 . S
C659 C656 1.387 . S
C660 C661 1.387 . S
C660 H664 0.950 . S
C660 C669 1.390 . S
C661 C660 1.387 . S
C661 C663 1.387 . S
H662 C669 0.950 . S
C663 C661 1.387 . S
C663 C665 1.390 . S
C663 H667 0.950 . S
H664 C660 0.950 . S
C665 C663 1.390 . S
C665 C666 1.387 . S
C665 H668 0.950 . S
C666 C665 1.387 . S
C666 C669 1.387 . S
H667 C663 0.950 . S
H668 C665 0.950 . S
C669 C660 1.390 . S
C669 H662 0.950 . S
C669 C666 1.387 . S
C670 C671 1.388 . S
C670 H674 0.950 . S
C670 C679 1.390 . S
C671 C670 1.388 . S
C671 C673 1.391 . S
H672 C679 0.950 . S
C673 C671 1.391 . S
C673 C675 1.385 . S
C673 H677 0.950 1_455 S
H674 C670 0.950 . S
C675 C673 1.385 . S
C675 C676 1.388 . S
C675 H678 0.951 . S
C676 C675 1.388 . S
C676 C679 1.387 . S
H677 C673 0.950 1_655 S
H678 C675 0.951 . S
C679 C670 1.390 . S
C679 H672 0.950 . S
C679 C676 1.387 . S
C680 C681 1.387 1_545 S
C680 H684 0.950 . S
C680 C689 1.390 . S
C681 C680 1.387 1_565 S
C681 C683 1.388 . S
H682 C689 0.950 . S
C683 C681 1.388 . S
C683 C685 1.390 . S
C683 H687 0.950 . S
H684 C680 0.950 . S
C685 C683 1.390 . S
C685 C686 1.404 . S
C685 H688 0.950 1_554 S
C686 C685 1.404 . S
C686 C689 1.373 1_565 S
H687 C683 0.950 . S
H688 C685 0.950 1_556 S
C689 C680 1.390 . S
C689 H682 0.950 . S
C689 C686 1.373 1_545 S
C690 C691 1.387 1_556 S
C690 H694 0.950 . S
C690 C699 1.390 . S
C691 C690 1.387 1_554 S
C691 C693 1.387 . S
H692 C699 0.950 . S
C693 C691 1.387 . S
C693 C695 1.390 1_554 S
C693 H697 0.950 . S
H694 C690 0.950 . S
C695 C693 1.390 1_556 S
C695 C696 1.387 . S
C695 H698 0.950 1_556 S
C696 C695 1.387 . S
C696 C699 1.387 . S
H697 C693 0.950 . S
H698 C695 0.950 1_554 S
C699 C690 1.390 . S
C699 H692 0.950 . S
C699 C696 1.387 . S
C700 C701 1.387 . S
C700 H704 0.950 . S
C700 C709 1.390 . S
C701 C700 1.387 . S
C701 C703 1.387 . S
H702 C709 0.950 . S
C703 C701 1.387 . S
C703 C705 1.390 . S
C703 H707 0.950 . S
H704 C700 0.950 . S
C705 C703 1.390 . S
C705 C706 1.387 . S
C705 H708 0.950 . S
C706 C705 1.387 . S
C706 C709 1.387 . S
H707 C703 0.950 . S
H708 C705 0.950 . S
C709 C700 1.390 . S
C709 H702 0.950 . S
C709 C706 1.387 . S
C710 C711 1.409 . S
C710 H714 0.950 . S
C710 C719 1.390 . S
C711 C710 1.409 . S
C711 C713 1.372 1_655 S
H712 C719 0.950 . S
C713 C711 1.372 1_455 S
C713 C715 1.390 . S
C713 H717 0.950 . S
H714 C710 0.950 . S
C715 C713 1.390 . S
C715 C716 1.387 1_455 S
C715 H718 0.950 . S
C716 C715 1.387 1_655 S
C716 C719 1.387 . S
H717 C713 0.950 . S
H718 C715 0.950 . S
C719 C710 1.390 . S
C719 H712 0.950 . S
C719 C716 1.387 . S
C720 C721 1.387 . S
C720 H724 0.950 . S
C720 C729 1.390 1_455 S
C721 C720 1.387 . S
C721 C723 1.387 1_455 S
H722 C729 0.950 . S
C723 C721 1.387 1_655 S
C723 C725 1.390 . S
C723 H727 0.950 . S
H724 C720 0.950 . S
C725 C723 1.390 . S
C725 C726 1.387 . S
C725 H728 0.950 . S
C726 C725 1.387 . S
C726 C729 1.387 . S
H727 C723 0.950 . S
H728 C725 0.950 . S
C729 C720 1.390 1_655 S
C729 H722 0.950 . S
C729 C726 1.387 . S
C730 C731 1.387 . S
C730 H734 0.950 . S
C730 C739 1.390 . S
C731 C730 1.387 . S
C731 C733 1.387 . S
H732 C739 0.950 . S
C733 C731 1.387 . S
C733 C735 1.390 . S
C733 H737 0.950 1_565 S
H734 C730 0.950 . S
C735 C733 1.390 . S
C735 C736 1.387 . S
C735 H738 0.950 . S
C736 C735 1.387 . S
C736 C739 1.387 . S
H737 C733 0.950 1_545 S
H738 C735 0.950 . S
C739 C730 1.390 . S
C739 H732 0.950 . S
C739 C736 1.387 . S
C740 C741 1.387 . S
C740 H744 0.950 . S
C740 C749 1.390 . S
C741 C740 1.387 . S
C741 C743 1.387 . S
H742 C749 0.950 . S
C743 C741 1.387 . S
C743 C745 1.390 . S
C743 H747 0.950 . S
H744 C740 0.950 . S
C745 C743 1.390 . S
C745 C746 1.387 . S
C745 H748 0.950 . S
C746 C745 1.387 . S
C746 C749 1.387 . S
H747 C743 0.950 . S
H748 C745 0.950 . S
C749 C740 1.390 . S
C749 H742 0.950 . S
C749 C746 1.387 . S
C750 C751 1.387 . S
C750 H754 0.950 . S
C750 C759 1.390 . S
C751 C750 1.387 . S
C751 C753 1.387 . S
H752 C759 0.950 . S
C753 C751 1.387 . S
C753 C755 1.390 . S
C753 H757 0.950 . S
H754 C750 0.950 . S
C755 C753 1.390 . S
C755 C756 1.387 . S
C755 H758 0.950 . S
C756 C755 1.387 . S
C756 C759 1.387 . S
H757 C753 0.950 . S
H758 C755 0.950 . S
C759 C750 1.390 . S
C759 H752 0.950 . S
C759 C756 1.387 . S
C760 C761 1.387 . S
C760 H764 0.950 . S
C760 C769 1.390 1_655 S
C761 C760 1.387 . S
C761 C763 1.387 1_655 S
H762 C769 0.950 . S
C763 C761 1.387 1_455 S
C763 C765 1.390 . S
C763 H767 0.950 . S
H764 C760 0.950 . S
C765 C763 1.390 . S
C765 C766 1.387 . S
C765 H768 0.950 . S
C766 C765 1.387 . S
C766 C769 1.387 . S
H767 C763 0.950 . S
H768 C765 0.950 . S
C769 C760 1.390 1_455 S
C769 H762 0.950 . S
C769 C766 1.387 . S
C770 C771 1.387 . S
C770 H774 0.950 1_554 S
C770 C779 1.390 . S
C771 C770 1.387 . S
C771 C773 1.387 . S
H772 C779 0.950 1_556 S
C773 C771 1.387 . S
C773 C775 1.390 . S
C773 H777 0.950 . S
H774 C770 0.950 1_556 S
C775 C773 1.390 . S
C775 C776 1.387 . S
C775 H778 0.950 . S
C776 C775 1.387 . S
C776 C779 1.387 . S
H777 C773 0.950 . S
H778 C775 0.950 . S
C779 C770 1.390 . S
C779 H772 0.950 1_554 S
C779 C776 1.387 . S
C780 C781 1.387 . S
C780 H784 0.950 1_556 S
C780 C789 1.390 1_556 S
C781 C780 1.387 . S
C781 C783 1.387 . S
H782 C789 0.950 . S
C783 C781 1.387 . S
C783 C785 1.390 . S
C783 H787 0.950 . S
H784 C780 0.950 1_554 S
C785 C783 1.390 . S
C785 C786 1.387 . S
C785 H788 0.950 . S
C786 C785 1.387 . S
C786 C789 1.387 1_556 S
H787 C783 0.950 . S
H788 C785 0.950 . S
C789 C780 1.390 1_554 S
C789 H782 0.950 . S
C789 C786 1.387 1_554 S
C790 C791 1.387 . S
C790 H794 0.950 . S
C790 C799 1.390 . S
C791 C790 1.387 . S
C791 C793 1.387 . S
H792 C799 0.950 . S
C793 C791 1.387 . S
C793 C795 1.390 . S
C793 H797 0.950 . S
H794 C790 0.950 . S
C795 C793 1.390 . S
C795 C796 1.387 . S
C795 H798 0.950 . S
C796 C795 1.387 . S
C796 C799 1.387 . S
H797 C793 0.950 . S
H798 C795 0.950 . S
C799 C790 1.390 . S
C799 H792 0.950 . S
C799 C796 1.387 . S
C800 C801 1.387 . S
C800 H804 0.950 . S
C800 C809 1.390 . S
C801 C800 1.387 . S
C801 C803 1.387 1_455 S
H802 C809 0.950 . S
C803 C801 1.387 1_655 S
C803 C805 1.390 . S
C803 H807 0.950 . S
H804 C800 0.950 . S
C805 C803 1.390 . S
C805 C806 1.387 1_655 S
C805 H808 0.950 . S
C806 C805 1.387 1_455 S
C806 C809 1.387 . S
H807 C803 0.950 . S
H808 C805 0.950 . S
C809 C800 1.390 . S
C809 H802 0.950 . S
C809 C806 1.387 . S
C810 C811 1.387 1_565 S
C810 H814 0.950 . S
C810 C819 1.390 . S
C811 C810 1.387 1_545 S
C811 C813 1.387 . S
H812 C819 0.950 . S
C813 C811 1.387 . S
C813 C815 1.390 . S
C813 H817 0.950 . S
H814 C810 0.950 . S
C815 C813 1.390 . S
C815 C816 1.387 . S
C815 H818 0.950 . S
C816 C815 1.387 . S
C816 C819 1.387 1_545 S
H817 C813 0.950 . S
H818 C815 0.950 . S
C819 C810 1.390 . S
C819 H812 0.950 . S
C819 C816 1.387 1_565 S
C820 C821 1.387 . S
C820 H824 0.950 . S
C820 C829 1.390 . S
C821 C820 1.387 . S
C821 C823 1.387 1_554 S
H822 C829 0.950 . S
C823 C821 1.387 1_556 S
C823 C825 1.390 . S
C823 H827 0.950 . S
H824 C820 0.950 . S
C825 C823 1.390 . S
C825 C826 1.387 . S
C825 H828 0.950 . S
C826 C825 1.387 . S
C826 C829 1.387 1_556 S
H827 C823 0.950 . S
H828 C825 0.950 . S
C829 C820 1.390 . S
C829 H822 0.950 . S
C829 C826 1.387 1_554 S
C830 C831 1.387 . S
C830 H834 0.950 . S
C830 C839 1.390 . S
C831 C830 1.387 . S
C831 C833 1.387 . S
H832 C839 0.950 . S
C833 C831 1.387 . S
C833 C835 1.390 . S
C833 H837 0.950 . S
H834 C830 0.950 . S
C835 C833 1.390 . S
C835 C836 1.387 . S
C835 H838 0.950 . S
C836 C835 1.387 . S
C836 C839 1.387 . S
H837 C833 0.950 . S
H838 C835 0.950 . S
C839 C830 1.390 . S
C839 H832 0.950 . S
C839 C836 1.387 . S
C840 C841 1.387 1_455 S
C840 H844 0.950 . S
C840 C849 1.390 . S
C841 C840 1.387 1_655 S
C841 C843 1.387 . S
H842 C849 0.950 . S
C843 C841 1.387 . S
C843 C845 1.390 . S
C843 H847 0.950 . S
H844 C840 0.950 . S
C845 C843 1.390 . S
C845 C846 1.387 . S
C845 H848 0.950 . S
C846 C845 1.387 . S
C846 C849 1.387 1_655 S
H847 C843 0.950 . S
H848 C845 0.950 . S
C849 C840 1.390 . S
C849 H842 0.950 . S
C849 C846 1.387 1_455 S
C850 C851 1.387 . S
C850 H854 0.950 . S
C850 C859 1.390 . S
C851 C850 1.387 . S
C851 C853 1.387 1_565 S
H852 C859 0.950 . S
C853 C851 1.387 1_545 S
C853 C855 1.390 . S
C853 H857 0.950 . S
H854 C850 0.950 . S
C855 C853 1.390 . S
C855 C856 1.387 1_545 S
C855 H858 0.950 . S
C856 C855 1.387 1_565 S
C856 C859 1.387 . S
H857 C853 0.950 . S
H858 C855 0.950 . S
C859 C850 1.390 . S
C859 H852 0.950 . S
C859 C856 1.387 . S
C860 C861 1.387 . S
C860 H864 0.950 . S
C860 C869 1.390 . S
C861 C860 1.387 . S
C861 C863 1.387 . S
H862 C869 0.950 . S
C863 C861 1.387 . S
C863 C865 1.390 . S
C863 H867 0.950 . S
H864 C860 0.950 . S
C865 C863 1.390 . S
C865 C866 1.387 . S
C865 H868 0.950 . S
C866 C865 1.387 . S
C866 C869 1.387 . S
H867 C863 0.950 . S
H868 C865 0.950 . S
C869 C860 1.390 . S
C869 H862 0.950 . S
C869 C866 1.387 . S
C870 C871 1.387 . S
C870 H874 0.950 . S
C870 C879 1.390 . S
C871 C870 1.387 . S
C871 C873 1.387 . S
H872 C879 0.950 . S
C873 C871 1.387 . S
C873 C875 1.390 . S
C873 H877 0.950 . S
H874 C870 0.950 . S
C875 C873 1.390 . S
C875 C876 1.387 . S
C875 H878 0.950 . S
C876 C875 1.387 . S
C876 C879 1.387 . S
H877 C873 0.950 . S
H878 C875 0.950 . S
C879 C870 1.390 . S
C879 H872 0.950 . S
C879 C876 1.387 . S
C641 C391 2.445 . S
C646 C482 2.502 1_545 S
C656 C522 2.293 . S
C651 C451 2.264 . S
C666 C586 2.887 . S
C661 C241 2.501 . S
C676 C602 2.776 1_455 S
C671 C331 2.184 1_455 S
C686 C503 2.503 1_564 S
C681 C121 2.152 . S
C691 C211 2.218 . S
C696 C543 2.297 . S
C701 C31 2.895 . S
C706 C577 2.887 . S
C711 C91 2.184 . S
C716 C623 2.774 1_654 S
C726 C497 0.672 . S
C721 C301 0.688 1_455 S
C736 C537 0.852 . S
C731 C380 0.890 1_565 S
C746 C573 0.868 . S
C741 C440 0.936 . S
C751 C260 1.055 . S
C756 C617 1.007 . S
C761 C61 0.654 . S
C766 C506 0.680 . S
C776 C546 0.851 . S
C771 C140 0.846 1_545 S
C786 C584 0.871 . S
C781 C200 0.888 . S
C791 C20 1.014 . S
C796 C626 1.016 . S
C801 C320 3.083 1_455 S
C806 C504 3.354 . S
C811 C361 2.544 . S
C816 C544 3.197 . S
C826 C562 2.231 . S
C821 C421 1.982 . S
C836 C624 3.816 . S
C831 C271 3.463 . S
C841 C80 3.067 . S
C846 C493 3.360 . S
C856 C533 3.197 . S
C851 C151 2.953 . S
C866 C583 2.233 . S
C861 C181 1.935 . S
C871 C1 3.035 . S
C876 C613 3.822 . S
