# Generated by pormake.
# Topology ctn, (3,4)-cn, num edge types: 1
# Building blocks:
#     Node 0, Type 0, BuildingBlock: ESEHIV_clean_linker_0, # of connection points: 3
#     Node 1, Type 0, BuildingBlock: ESEHIV_clean_linker_0, # of connection points: 3
#     Node 2, Type 0, BuildingBlock: ESEHIV_clean_linker_0, # of connection points: 3
#     Node 3, Type 0, BuildingBlock: ESEHIV_clean_linker_0, # of connection points: 3
#     Node 4, Type 0, BuildingBlock: ESEHIV_clean_linker_0, # of connection points: 3
#     Node 5, Type 0, BuildingBlock: ESEHIV_clean_linker_0, # of connection points: 3
#     Node 6, Type 0, BuildingBlock: ESEHIV_clean_linker_0, # of connection points: 3
#     Node 7, Type 0, BuildingBlock: ESEHIV_clean_linker_0, # of connection points: 3
#     Node 8, Type 0, BuildingBlock: ESEHIV_clean_linker_0, # of connection points: 3
#     Node 9, Type 0, BuildingBlock: ESEHIV_clean_linker_0, # of connection points: 3
#     Node 10, Type 0, BuildingBlock: ESEHIV_clean_linker_0, # of connection points: 3
#     Node 11, Type 0, BuildingBlock: ESEHIV_clean_linker_0, # of connection points: 3
#     Node 12, Type 0, BuildingBlock: ESEHIV_clean_linker_0, # of connection points: 3
#     Node 13, Type 0, BuildingBlock: ESEHIV_clean_linker_0, # of connection points: 3
#     Node 14, Type 0, BuildingBlock: ESEHIV_clean_linker_0, # of connection points: 3
#     Node 15, Type 0, BuildingBlock: ESEHIV_clean_linker_0, # of connection points: 3
#     Node 16, Type 1, BuildingBlock: NAHDIM_clean_sbu_0, # of connection points: 4
#     Node 17, Type 1, BuildingBlock: NAHDIM_clean_sbu_0, # of connection points: 4
#     Node 18, Type 1, BuildingBlock: NAHDIM_clean_sbu_0, # of connection points: 4
#     Node 19, Type 1, BuildingBlock: NAHDIM_clean_sbu_0, # of connection points: 4
#     Node 20, Type 1, BuildingBlock: NAHDIM_clean_sbu_0, # of connection points: 4
#     Node 21, Type 1, BuildingBlock: NAHDIM_clean_sbu_0, # of connection points: 4
#     Node 22, Type 1, BuildingBlock: NAHDIM_clean_sbu_0, # of connection points: 4
#     Node 23, Type 1, BuildingBlock: NAHDIM_clean_sbu_0, # of connection points: 4
#     Node 24, Type 1, BuildingBlock: NAHDIM_clean_sbu_0, # of connection points: 4
#     Node 25, Type 1, BuildingBlock: NAHDIM_clean_sbu_0, # of connection points: 4
#     Node 26, Type 1, BuildingBlock: NAHDIM_clean_sbu_0, # of connection points: 4
#     Node 27, Type 1, BuildingBlock: NAHDIM_clean_sbu_0, # of connection points: 4
#     Edge 28, Type (0, 1), BuildingBlock: MIFKUJ_clean_linker_0, # of connection points: 2
#     Edge 29, Type (0, 1), BuildingBlock: MIFKUJ_clean_linker_0, # of connection points: 2
#     Edge 30, Type (0, 1), BuildingBlock: MIFKUJ_clean_linker_0, # of connection points: 2
#     Edge 31, Type (0, 1), BuildingBlock: MIFKUJ_clean_linker_0, # of connection points: 2
#     Edge 32, Type (0, 1), BuildingBlock: MIFKUJ_clean_linker_0, # of connection points: 2
#     Edge 33, Type (0, 1), BuildingBlock: MIFKUJ_clean_linker_0, # of connection points: 2
#     Edge 34, Type (0, 1), BuildingBlock: MIFKUJ_clean_linker_0, # of connection points: 2
#     Edge 35, Type (0, 1), BuildingBlock: MIFKUJ_clean_linker_0, # of connection points: 2
#     Edge 36, Type (0, 1), BuildingBlock: MIFKUJ_clean_linker_0, # of connection points: 2
#     Edge 37, Type (0, 1), BuildingBlock: MIFKUJ_clean_linker_0, # of connection points: 2
#     Edge 38, Type (0, 1), BuildingBlock: MIFKUJ_clean_linker_0, # of connection points: 2
#     Edge 39, Type (0, 1), BuildingBlock: MIFKUJ_clean_linker_0, # of connection points: 2
#     Edge 40, Type (0, 1), BuildingBlock: MIFKUJ_clean_linker_0, # of connection points: 2
#     Edge 41, Type (0, 1), BuildingBlock: MIFKUJ_clean_linker_0, # of connection points: 2
#     Edge 42, Type (0, 1), BuildingBlock: MIFKUJ_clean_linker_0, # of connection points: 2
#     Edge 43, Type (0, 1), BuildingBlock: MIFKUJ_clean_linker_0, # of connection points: 2
#     Edge 44, Type (0, 1), BuildingBlock: MIFKUJ_clean_linker_0, # of connection points: 2
#     Edge 45, Type (0, 1), BuildingBlock: MIFKUJ_clean_linker_0, # of connection points: 2
#     Edge 46, Type (0, 1), BuildingBlock: MIFKUJ_clean_linker_0, # of connection points: 2
#     Edge 47, Type (0, 1), BuildingBlock: MIFKUJ_clean_linker_0, # of connection points: 2
#     Edge 48, Type (0, 1), BuildingBlock: MIFKUJ_clean_linker_0, # of connection points: 2
#     Edge 49, Type (0, 1), BuildingBlock: MIFKUJ_clean_linker_0, # of connection points: 2
#     Edge 50, Type (0, 1), BuildingBlock: MIFKUJ_clean_linker_0, # of connection points: 2
#     Edge 51, Type (0, 1), BuildingBlock: MIFKUJ_clean_linker_0, # of connection points: 2
#     Edge 52, Type (0, 1), BuildingBlock: MIFKUJ_clean_linker_0, # of connection points: 2
#     Edge 53, Type (0, 1), BuildingBlock: MIFKUJ_clean_linker_0, # of connection points: 2
#     Edge 54, Type (0, 1), BuildingBlock: MIFKUJ_clean_linker_0, # of connection points: 2
#     Edge 55, Type (0, 1), BuildingBlock: MIFKUJ_clean_linker_0, # of connection points: 2
#     Edge 56, Type (0, 1), BuildingBlock: MIFKUJ_clean_linker_0, # of connection points: 2
#     Edge 57, Type (0, 1), BuildingBlock: MIFKUJ_clean_linker_0, # of connection points: 2
#     Edge 58, Type (0, 1), BuildingBlock: MIFKUJ_clean_linker_0, # of connection points: 2
#     Edge 59, Type (0, 1), BuildingBlock: MIFKUJ_clean_linker_0, # of connection points: 2
#     Edge 60, Type (0, 1), BuildingBlock: MIFKUJ_clean_linker_0, # of connection points: 2
#     Edge 61, Type (0, 1), BuildingBlock: MIFKUJ_clean_linker_0, # of connection points: 2
#     Edge 62, Type (0, 1), BuildingBlock: MIFKUJ_clean_linker_0, # of connection points: 2
#     Edge 63, Type (0, 1), BuildingBlock: MIFKUJ_clean_linker_0, # of connection points: 2
#     Edge 64, Type (0, 1), BuildingBlock: MIFKUJ_clean_linker_0, # of connection points: 2
#     Edge 65, Type (0, 1), BuildingBlock: MIFKUJ_clean_linker_0, # of connection points: 2
#     Edge 66, Type (0, 1), BuildingBlock: MIFKUJ_clean_linker_0, # of connection points: 2
#     Edge 67, Type (0, 1), BuildingBlock: MIFKUJ_clean_linker_0, # of connection points: 2
#     Edge 68, Type (0, 1), BuildingBlock: MIFKUJ_clean_linker_0, # of connection points: 2
#     Edge 69, Type (0, 1), BuildingBlock: MIFKUJ_clean_linker_0, # of connection points: 2
#     Edge 70, Type (0, 1), BuildingBlock: MIFKUJ_clean_linker_0, # of connection points: 2
#     Edge 71, Type (0, 1), BuildingBlock: MIFKUJ_clean_linker_0, # of connection points: 2
#     Edge 72, Type (0, 1), BuildingBlock: MIFKUJ_clean_linker_0, # of connection points: 2
#     Edge 73, Type (0, 1), BuildingBlock: MIFKUJ_clean_linker_0, # of connection points: 2
#     Edge 74, Type (0, 1), BuildingBlock: MIFKUJ_clean_linker_0, # of connection points: 2
#     Edge 75, Type (0, 1), BuildingBlock: MIFKUJ_clean_linker_0, # of connection points: 2
# Relax obj value: 0.002
# Max RMSD: 0.033
# Mean RMSD: 0.017
data_MOF--net-ctn--node1-NAHDIM_clean_sbu_0--node2-ESEHIV_clean_linker_0--edge1-MIFKUJ_clean_linker_0
_symmetry_space_group_name_H-M    P1
_symmetry_Int_Tables_number       1
_symmetry_cell_setting            triclinic
loop_
_symmetry_equiv_pos_as_xyz
'x, y, z'
_cell_length_a     68.397864
_cell_length_b     68.734218
_cell_length_c     67.946039
_cell_angle_alpha  91.069432
_cell_angle_beta   90.141173
_cell_angle_gamma 92.151641
loop_
_atom_site_label
_atom_site_type_symbol
_atom_site_fract_x
_atom_site_fract_y
_atom_site_fract_z
_atom_type_partial_charge
H0 H 0.01429 0.07001 0.0474 0.0
H1 H 0.04138 0.01797 0.06586 0.0
H2 H 0.05953 0.04523 0.01203 0.0
C3 C 0.02499 0.05898 0.04497 0.0
C4 C 0.0366 0.05936 0.02795 0.0
C5 C 0.02658 0.04403 0.05858 0.0
C6 C 0.04011 0.02949 0.05529 0.0
C7 C 0.05208 0.02984 0.03853 0.0
C8 C 0.05011 0.04472 0.02484 0.0
H9 H 0.28986 0.69244 0.24432 0.0
H10 H 0.31043 0.74279 0.21268 0.0
H11 H 0.25767 0.7117 0.19425 0.0
C12 C 0.28813 0.70259 0.23248 0.0
C13 C 0.27203 0.70022 0.21965 0.0
C14 C 0.3021 0.71786 0.23006 0.0
C15 C 0.29987 0.73081 0.21455 0.0
C16 C 0.28375 0.72879 0.20176 0.0
C17 C 0.26984 0.71355 0.20445 0.0
H18 H 0.96442 0.49866 0.0589 0.0
H19 H 0.9945 0.44663 0.04391 0.0
H20 H 0.94936 0.46648 0.00581 0.0
C21 C 0.96666 0.48642 0.04898 0.0
C22 C 0.95509 0.48406 0.03195 0.0
C23 C 0.98097 0.47303 0.05339 0.0
C24 C 0.9838 0.45728 0.04038 0.0
C25 C 0.97244 0.45475 0.02321 0.0
C26 C 0.95802 0.46815 0.01916 0.0
H27 H 0.69142 0.77165 0.19577 0.0
H28 H 0.74601 0.80248 0.18412 0.0
H29 H 0.71003 0.82079 0.23219 0.0
C30 C 0.7022 0.78309 0.1995 0.0
C31 C 0.69874 0.79584 0.21542 0.0
C32 C 0.71917 0.78542 0.18801 0.0
C33 C 0.7328 0.80062 0.19275 0.0
C34 C 0.72946 0.81356 0.20849 0.0
C35 C 0.7124 0.81109 0.21973 0.0
H36 H 0.01104 0.94936 0.4544 0.0
H37 H 0.04683 -0.00035 0.43941 0.0
H38 H 0.06208 0.96553 0.48913 0.0
C39 C 0.02354 0.95914 0.45747 0.0
C40 C 0.03608 0.95548 0.47329 0.0
C41 C 0.02744 0.97493 0.44509 0.0
C42 C 0.04383 0.98735 0.44884 0.0
C43 C 0.05639 0.98398 0.46466 0.0
C44 C 0.05253 0.96795 0.47672 0.0
H45 H 0.1851 0.74756 0.80261 0.0
H46 H 0.23481 0.7153 0.82005 0.0
H47 H 0.19961 0.69567 0.77045 0.0
C48 C 0.1945 0.73536 0.80047 0.0
C49 C 0.19054 0.7219 0.78507 0.0
C50 C 0.21051 0.73314 0.8131 0.0
C51 C 0.22248 0.71716 0.8103 0.0
C52 C 0.21859 0.70352 0.795 0.0
C53 C 0.20265 0.70606 0.78237 0.0
H54 H 0.94346 0.54672 0.49239 0.0
H55 H 0.99728 0.56163 0.46296 0.0
H56 H 0.96123 0.51261 0.44235 0.0
C57 C 0.95378 0.54405 0.48064 0.0
C58 C 0.95055 0.52808 0.46772 0.0
C59 C 0.97064 0.55614 0.479 0.0
C60 C 0.98421 0.55231 0.4641 0.0
C61 C 0.98096 0.53673 0.45063 0.0
C62 C 0.96412 0.52456 0.4527 0.0
H63 H 0.76696 0.79672 0.81223 0.0
H64 H 0.79777 0.81447 0.76009 0.0
H65 H 0.81588 0.76452 0.79166 0.0
C66 C 0.77858 0.79461 0.80166 0.0
C67 C 0.79108 0.77904 0.80381 0.0
C68 C 0.78088 0.80743 0.78594 0.0
C69 C 0.79579 0.80451 0.77217 0.0
C70 C 0.80863 0.78922 0.77432 0.0
C71 C 0.80627 0.7766 0.79023 0.0
H72 H 0.26728 0.29352 0.31574 0.0
H73 H 0.29766 0.31348 0.26415 0.0
H74 H 0.31856 0.26474 0.29556 0.0
C75 C 0.27934 0.29239 0.30553 0.0
C76 C 0.29276 0.27757 0.3077 0.0
C77 C 0.281 0.30545 0.28991 0.0
C78 C 0.29608 0.30335 0.27613 0.0
C79 C 0.30961 0.28867 0.2781 0.0
C80 C 0.30799 0.27597 0.29399 0.0
H81 H 0.46054 0.99167 0.55801 0.0
H82 H 0.49405 0.94299 0.53958 0.0
H83 H 0.44449 0.95934 0.5053 0.0
C84 C 0.4629 0.97972 0.54776 0.0
C85 C 0.45074 0.97711 0.53117 0.0
C86 C 0.47843 0.96738 0.55097 0.0
C87 C 0.48196 0.95242 0.53722 0.0
C88 C 0.4699 0.94949 0.52055 0.0
C89 C 0.45427 0.96187 0.51774 0.0
H90 H 0.18429 0.27215 0.70262 0.0
H91 H 0.23507 0.30684 0.68677 0.0
H92 H 0.19924 0.32507 0.73517 0.0
C93 C 0.19367 0.28504 0.70503 0.0
C94 C 0.18979 0.29813 0.72056 0.0
C95 C 0.21 0.28811 0.69291 0.0
C96 C 0.22245 0.30449 0.69619 0.0
C97 C 0.21865 0.31792 0.71138 0.0
C98 C 0.20239 0.31457 0.72362 0.0
H99 H 0.7922 0.19147 0.74168 0.0
H100 H 0.8118 0.23868 0.70498 0.0
H101 H 0.75789 0.20715 0.69163 0.0
C102 C 0.79023 0.20044 0.72893 0.0
C103 C 0.77354 0.19728 0.71703 0.0
C104 C 0.80407 0.21546 0.72485 0.0
C105 C 0.80112 0.22723 0.7085 0.0
C106 C 0.78438 0.22444 0.69668 0.0
C107 C 0.7706 0.20955 0.70106 0.0
H108 H 0.50961 0.56723 0.54545 0.0
H109 H 0.54139 0.51636 0.55901 0.0
H110 H 0.561 0.55367 0.51241 0.0
C111 C 0.52165 0.5578 0.54258 0.0
C112 C 0.53468 0.56212 0.52716 0.0
C113 C 0.52412 0.54149 0.55438 0.0
C114 C 0.53976 0.52934 0.55044 0.0
C115 C 0.55313 0.53356 0.53531 0.0
C116 C 0.55046 0.55 0.52375 0.0
H117 H 0.50477 0.45089 0.95731 0.0
H118 H 0.53859 0.50231 0.94177 0.0
H119 H 0.55749 0.46705 0.98924 0.0
C120 C 0.51721 0.46085 0.95989 0.0
C121 C 0.53072 0.457 0.9748 0.0
C122 C 0.51992 0.47715 0.94788 0.0
C123 C 0.5364 0.48966 0.9509 0.0
C124 C 0.55012 0.48596 0.96563 0.0
C125 C 0.54719 0.46961 0.9775 0.0
H126 H 0.68226 0.24413 0.30273 0.0
H127 H 0.7343 0.21623 0.32112 0.0
H128 H 0.70272 0.19507 0.26973 0.0
C129 C 0.69297 0.23307 0.30053 0.0
C130 C 0.69065 0.21971 0.28475 0.0
C131 C 0.70868 0.23194 0.31375 0.0
C132 C 0.72212 0.21717 0.31101 0.0
C133 C 0.72008 0.20369 0.29526 0.0
C134 C 0.70422 0.20505 0.28223 0.0
H135 H 0.44462 0.04822 0.99377 0.0
H136 H 0.49549 0.06479 0.96016 0.0
H137 H 0.46144 0.01308 0.94402 0.0
C138 C 0.4543 0.04566 0.98146 0.0
C139 C 0.45087 0.02929 0.96906 0.0
C140 C 0.47052 0.0584 0.9785 0.0
C141 C 0.48332 0.05466 0.96288 0.0
C142 C 0.48025 0.0383 0.95041 0.0
C143 C 0.46395 0.02571 0.95359 0.0
C144 C 0.20827 0.89898 0.00561 0.0
O145 O 0.20781 0.88673 0.99054 0.0
O146 O 0.24395 0.86571 0.98958 0.0
Zn147 Zn 0.2473 0.88423 0.01278 0.0
O148 O 0.27067 0.90252 0.00852 0.0
C149 C 0.26391 0.85552 0.03763 0.0
O150 O 0.27473 0.85245 0.02203 0.0
O151 O 0.22329 0.90013 0.0167 0.0
C152 C 0.28597 0.89708 -0.00028 0.0
O153 O 0.28674 0.87903 0.99318 0.0
C154 C 0.24482 0.87146 0.97192 0.0
O155 O 0.24778 0.8901 0.96858 0.0
O156 O 0.25122 0.86854 0.03716 0.0
C157 C 0.15518 0.46735 0.27337 0.0
O158 O 0.1521 0.4786 0.28881 0.0
O159 O 0.11434 0.49741 0.2791 0.0
Zn160 Zn 0.13065 0.49452 0.25452 0.0
O161 O 0.14804 0.51833 0.25024 0.0
C162 C 0.09518 0.49452 0.23103 0.0
O163 O 0.08755 0.50158 0.24726 0.0
O164 O 0.14742 0.47134 0.257 0.0
C165 C 0.14109 0.53392 0.24386 0.0
O166 O 0.12223 0.53448 0.24032 0.0
C167 C 0.11549 0.51235 0.29042 0.0
O168 O 0.12802 0.52665 0.2864 0.0
O169 O 0.11314 0.49038 0.23085 0.0
C170 C 0.79948 0.6158 0.00424 0.0
O171 O 0.80249 0.6348 0.00421 0.0
O172 O 0.76508 0.64238 0.97388 0.0
Zn173 Zn 0.75953 0.62581 0.99759 0.0
O174 O 0.73538 0.60861 0.9932 0.0
C175 C 0.76109 0.66075 0.02215 0.0
O176 O 0.76987 0.66834 0.00678 0.0
O177 O 0.78221 0.60869 0.00185 0.0
C178 C 0.71847 0.61421 0.99785 0.0
O179 O 0.71664 0.63174 0.0055 0.0
C180 C 0.75156 0.64887 0.96326 0.0
O181 O 0.73324 0.64441 0.96749 0.0
O182 O 0.75568 0.64285 0.02162 0.0
C183 C 0.86026 0.05464 0.26817 0.0
O184 O 0.87776 0.05618 0.27617 0.0
O185 O 0.89015 0.01367 0.27734 0.0
Zn186 Zn 0.87309 0.01718 0.2535 0.0
O187 O 0.85598 0.99313 0.2491 0.0
C188 C 0.90175 0.03592 0.22797 0.0
O189 O 0.9039 0.0483 0.24285 0.0
O190 O 0.85541 0.03951 0.25801 0.0
C191 C 0.86286 0.97626 0.24762 0.0
O192 O 0.88184 0.97432 0.24907 0.0
C193 C 0.90774 0.0085 0.27582 0.0
O194 O 0.91511 0.00537 0.25826 0.0
O195 O 0.88942 0.0217 0.22926 0.0
C196 C 0.29281 0.10478 0.49659 0.0
O197 O 0.28698 0.10776 0.47849 0.0
O198 O 0.26709 0.14499 0.48096 0.0
Zn199 Zn 0.26112 0.12949 0.5053 0.0
O200 O 0.23727 0.11162 0.50101 0.0
C201 C 0.2489 0.16376 0.52662 0.0
O202 O 0.24234 0.16855 0.50926 0.0
O203 O 0.28391 0.11278 0.51081 0.0
C204 C 0.21988 0.11647 0.50467 0.0
O205 O 0.21681 0.13402 0.51168 0.0
C206 C 0.25406 0.14932 0.46858 0.0
O207 O 0.23579 0.14359 0.47153 0.0
O208 O 0.2574 0.14776 0.52847 0.0
C209 C 0.33687 0.53764 0.76143 0.0
O210 O 0.32892 0.52002 0.76279 0.0
O211 O 0.38995 0.51408 0.77479 0.0
Zn212 Zn 0.37171 0.51672 0.75189 0.0
O213 O 0.35508 0.49209 0.74882 0.0
C214 C 0.4035 0.51242 0.72499 0.0
O215 O 0.40977 0.50137 0.73907 0.0
O216 O 0.35484 0.5397 0.75691 0.0
C217 C 0.34753 0.4872 0.73227 0.0
O218 O 0.35081 0.49838 0.71707 0.0
C219 C 0.3834 0.50958 0.79164 0.0
O220 O 0.36444 0.50687 0.794 0.0
O221 O 0.38738 0.5208 0.7272 0.0
C222 C 0.71655 0.41091 0.5037 0.0
O223 O 0.72409 0.40886 0.48604 0.0
O224 O 0.74007 0.36866 0.48808 0.0
Zn225 Zn 0.74654 0.38485 0.51245 0.0
O226 O 0.77037 0.40246 0.50793 0.0
C227 C 0.75877 0.35114 0.53349 0.0
O228 O 0.76549 0.34602 0.51613 0.0
O229 O 0.72384 0.40183 0.51791 0.0
C230 C 0.78788 0.39774 0.51109 0.0
O231 O 0.7912 0.38043 0.51793 0.0
C232 C 0.75279 0.36374 0.47551 0.0
O233 O 0.77119 0.36927 0.47827 0.0
O234 O 0.75027 0.36719 0.53549 0.0
C235 C 0.65312 0.96797 0.77153 0.0
O236 O 0.65234 0.98067 0.78616 0.0
O237 O 0.61001 0.99808 0.77635 0.0
Zn238 Zn 0.62758 0.99461 0.75285 0.0
O239 O 0.64575 0.01803 0.7502 0.0
C240 C 0.59295 0.99323 0.72803 0.0
O241 O 0.58403 0.99733 0.74461 0.0
O242 O 0.64356 0.97084 0.75586 0.0
C243 C 0.63904 0.03469 0.74711 0.0
O244 O 0.62002 0.03643 0.74579 0.0
C245 C 0.61503 0.00841 0.79136 0.0
O246 O 0.63248 0.01706 0.79197 0.0
O247 O 0.61138 0.99141 0.72808 0.0
C248 C 0.00804 0.21258 0.89058 0.0
O249 O 0.00683 0.20911 0.87153 0.0
O250 O 0.97702 0.24451 0.8621 0.0
Zn251 Zn 0.00052 0.25164 0.87893 0.0
O252 O 0.995 0.27559 0.89507 0.0
C253 C 0.02465 0.25157 0.8439 0.0
O254 O 0.00961 0.24166 0.83622 0.0
O255 O 0.00587 0.22979 0.89713 0.0
C256 C 0.00894 0.28618 0.90233 0.0
O257 O 0.02706 0.2812 0.89924 0.0
C258 C 0.96861 0.25777 0.85287 0.0
O259 O 0.97537 0.27586 0.85475 0.0
O260 O 0.02405 0.25712 0.86183 0.0
C261 C 0.50549 0.72825 0.40615 0.0
O262 O 0.49758 0.74378 0.41379 0.0
O263 O 0.48362 0.74723 0.35409 0.0
Zn264 Zn 0.50727 0.75179 0.37137 0.0
O265 O 0.50396 0.7755 0.38882 0.0
C266 C 0.53477 0.77179 0.34592 0.0
O267 O 0.52332 0.78639 0.34925 0.0
O268 O 0.51073 0.7283 0.38821 0.0
C269 C 0.49338 0.78953 0.38416 0.0
O270 O 0.48431 0.78899 0.36708 0.0
C271 C 0.46677 0.7436 0.36127 0.0
O272 O 0.46477 0.74278 0.38046 0.0
O273 O 0.53091 0.75557 0.35401 0.0
C274 C 0.99654 0.79329 0.59978 0.0
O275 O 0.97837 0.78849 0.60432 0.0
O276 O 0.98165 0.76521 0.64134 0.0
Zn277 Zn 0.00476 0.76033 0.62385 0.0
O278 O 0.999 0.73639 0.60697 0.0
C279 C 0.02605 0.74882 0.65792 0.0
O280 O 0.00835 0.74387 0.66395 0.0
O281 O 0.01028 0.78334 0.60648 0.0
C282 C 0.01138 0.72324 0.60448 0.0
O283 O 0.02861 0.72531 0.613 0.0
C284 C 0.96426 0.75984 0.63661 0.0
O285 O 0.96093 0.75117 0.61947 0.0
O286 O 0.02824 0.75628 0.64105 0.0
C287 C 0.49608 0.29387 0.10133 0.0
O288 O 0.47794 0.28814 0.10495 0.0
O289 O 0.48199 0.2657 0.14376 0.0
Zn290 Zn 0.50464 0.26123 0.12559 0.0
O291 O 0.49857 0.23779 0.10822 0.0
C292 C 0.52962 0.24078 0.15138 0.0
O293 O 0.5156 0.22728 0.14941 0.0
O294 O 0.50999 0.28462 0.10871 0.0
C295 C 0.51212 0.22856 0.09991 0.0
O296 O 0.5304 0.23456 0.10268 0.0
C297 C 0.46451 0.26051 0.13919 0.0
O298 O 0.46091 0.25216 0.12194 0.0
O299 O 0.52824 0.25667 0.14231 0.0
H300 H 0.21878 0.72585 0.85154 0.0
H301 H 0.22514 0.74964 0.8783 0.0
H302 H 0.21785 0.79651 0.83791 0.0
H303 H 0.21162 0.77278 0.81104 0.0
H304 H 0.25056 0.80208 0.86252 0.0
H305 H 0.18188 0.78546 0.86775 0.0
H306 H 0.15297 0.76316 0.87046 0.0
H307 H 0.17502 0.74179 0.92487 0.0
H308 H 0.20422 0.76378 0.92233 0.0
H309 H 0.2417 0.87909 0.9327 0.0
H310 H 0.23646 0.85564 0.90555 0.0
H311 H 0.23677 0.80844 0.94653 0.0
H312 H 0.24156 0.8318 0.97379 0.0
H313 H 0.20767 0.80301 0.92129 0.0
H314 H 0.27623 0.81904 0.91654 0.0
H315 H 0.30565 0.84069 0.91407 0.0
H316 H 0.28477 0.86232 0.8593 0.0
H317 H 0.25507 0.84099 0.86158 0.0
C318 C 0.21868 0.74123 0.84836 0.0
C319 C 0.21466 0.74749 0.82925 0.0
C320 C 0.22219 0.75477 0.86365 0.0
C321 C 0.22182 0.7748 0.86007 0.0
C322 C 0.21816 0.78111 0.84095 0.0
C323 C 0.21448 0.76757 0.82568 0.0
C324 C 0.22507 0.78918 0.87635 0.0
C325 C 0.24107 0.80248 0.87528 0.0
C326 C 0.21292 0.78932 0.89316 0.0
C327 C 0.19534 0.77613 0.89474 0.0
C328 C 0.18065 0.77589 0.88021 0.0
C329 C 0.16419 0.76333 0.88172 0.0
C330 C 0.16218 0.75103 0.8978 0.0
C331 C 0.17661 0.75131 0.91241 0.0
C332 C 0.19311 0.76383 0.91095 0.0
C333 C 0.24071 0.86372 0.93593 0.0
C334 C 0.24207 0.85731 0.95539 0.0
C335 C 0.2378 0.85032 0.92038 0.0
C336 C 0.23645 0.83026 0.92398 0.0
C337 C 0.23777 0.82384 0.94341 0.0
C338 C 0.24056 0.83723 0.95897 0.0
C339 C 0.23325 0.81595 0.90756 0.0
C340 C 0.21722 0.80264 0.90858 0.0
C341 C 0.24547 0.81573 0.89077 0.0
C342 C 0.26333 0.82855 0.88933 0.0
C343 C 0.27783 0.82853 0.90405 0.0
C344 C 0.29457 0.84072 0.90267 0.0
C345 C 0.29705 0.85291 0.88656 0.0
C346 C 0.28281 0.85289 0.87178 0.0
C347 C 0.26603 0.84074 0.8731 0.0
H348 H 0.31003 0.86234 0.88552 0.0
H349 H 0.14943 0.74132 0.89895 0.0
H350 H 0.99283 0.50186 0.43516 0.0
H351 H 0.01536 0.49674 0.40791 0.0
H352 H 0.02424 0.55891 0.40256 0.0
H353 H 0.00073 0.56416 0.42879 0.0
H354 H 0.02076 0.54359 0.36795 0.0
H355 H 0.05846 0.52899 0.42506 0.0
H356 H 0.06579 0.51254 0.45602 0.0
H357 H 0.06361 0.45717 0.4256 0.0
H358 H 0.05601 0.47328 0.39449 0.0
H359 H 0.10873 0.54475 0.31285 0.0
H360 H 0.08588 0.54767 0.34028 0.0
H361 H 0.06972 0.4866 0.33425 0.0
H362 H 0.09244 0.48354 0.30664 0.0
H363 H 0.07673 0.50018 0.37403 0.0
H364 H 0.03987 0.51638 0.31643 0.0
H365 H 0.03406 0.53412 0.28588 0.0
H366 H 0.03649 0.58838 0.31832 0.0
H367 H 0.04262 0.57097 0.34903 0.0
C368 C 0.99938 0.51446 0.42804 0.0
C369 C 0.99499 0.53344 0.4343 0.0
C370 C 0.01249 0.5115 0.41262 0.0
C371 C 0.02178 0.52744 0.40338 0.0
C372 C 0.01734 0.54637 0.40951 0.0
C373 C 0.00405 0.54934 0.42471 0.0
C374 C 0.03591 0.52449 0.38712 0.0
C375 C 0.03312 0.53428 0.36942 0.0
C376 C 0.05186 0.51204 0.38882 0.0
C377 C 0.05647 0.50232 0.40749 0.0
C378 C 0.0594 0.51329 0.42501 0.0
C379 C 0.06363 0.50403 0.44257 0.0
C380 C 0.06511 0.48382 0.44279 0.0
C381 C 0.06243 0.47282 0.42542 0.0
C382 C 0.05817 0.48201 0.40781 0.0
C383 C 0.1004 0.5319 0.3174 0.0
C384 C 0.10231 0.51392 0.30753 0.0
C385 C 0.08733 0.53362 0.33304 0.0
C386 C 0.07606 0.51737 0.33915 0.0
C387 C 0.0783 0.49929 0.3297 0.0
C388 C 0.09121 0.4976 0.3139 0.0
C389 C 0.0616 0.51942 0.35513 0.0
C390 C 0.06432 0.50945 0.37267 0.0
C391 C 0.04575 0.5319 0.35342 0.0
C392 C 0.04189 0.54238 0.33499 0.0
C393 C 0.03932 0.53211 0.31702 0.0
C394 C 0.03594 0.5421 0.29968 0.0
C395 C 0.03495 0.56237 0.30015 0.0
C396 C 0.03728 0.57268 0.31797 0.0
C397 C 0.04069 0.56276 0.33535 0.0
H398 H 0.03234 0.57009 0.28671 0.0
H399 H 0.06839 0.47667 0.45641 0.0
H400 H 0.75657 0.76203 0.81566 0.0
H401 H 0.75111 0.73981 0.8429 0.0
H402 H 0.81295 0.74243 0.85588 0.0
H403 H 0.81853 0.76461 0.82844 0.0
H404 H 0.79808 0.70573 0.85779 0.0
H405 H 0.78121 0.76814 0.88382 0.0
H406 H 0.76436 0.79923 0.88402 0.0
H407 H 0.70868 0.76829 0.88527 0.0
H408 H 0.72519 0.73698 0.88479 0.0
H409 H 0.78766 0.66337 0.95233 0.0
H410 H 0.79538 0.68535 0.92534 0.0
H411 H 0.73424 0.68541 0.90954 0.0
H412 H 0.72635 0.66372 0.9367 0.0
H413 H 0.75013 0.72148 0.90985 0.0
H414 H 0.76699 0.65912 0.88274 0.0
H415 H 0.78382 0.628 0.88195 0.0
H416 H 0.83955 0.65893 0.8827 0.0
H417 H 0.82304 0.69025 0.88375 0.0
C418 C 0.76899 0.75797 0.8244 0.0
C419 C 0.78795 0.76519 0.82007 0.0
C420 C 0.76586 0.74527 0.83994 0.0
C421 C 0.78158 0.73973 0.85162 0.0
C422 C 0.80061 0.74657 0.84707 0.0
C423 C 0.80378 0.7592 0.83141 0.0
C424 C 0.77807 0.72686 0.86861 0.0
C425 C 0.78782 0.7093 0.86935 0.0
C426 C 0.76442 0.73139 0.88348 0.0
C427 C 0.75444 0.75021 0.88411 0.0
C428 C 0.76537 0.76796 0.88402 0.0
C429 C 0.75588 0.78562 0.8842 0.0
C430 C 0.73546 0.78574 0.88461 0.0
C431 C 0.72449 0.76818 0.88493 0.0
C432 C 0.73391 0.75047 0.88473 0.0
C433 C 0.77586 0.66799 0.94307 0.0
C434 C 0.75639 0.66176 0.94663 0.0
C435 C 0.78031 0.68051 0.92761 0.0
C436 C 0.76541 0.68687 0.91531 0.0
C437 C 0.74597 0.68069 0.91886 0.0
C438 C 0.74149 0.66824 0.93435 0.0
C439 C 0.76997 0.70022 0.89893 0.0
C440 C 0.76044 0.71793 0.89834 0.0
C441 C 0.78384 0.69583 0.88422 0.0
C442 C 0.79378 0.67702 0.88352 0.0
C443 C 0.78284 0.65928 0.88289 0.0
C444 C 0.79232 0.64161 0.88237 0.0
C445 C 0.81274 0.64149 0.88233 0.0
C446 C 0.82373 0.65905 0.88276 0.0
C447 C 0.81432 0.67676 0.8833 0.0
H448 H 0.82005 0.62779 0.88193 0.0
H449 H 0.72814 0.79943 0.88471 0.0
H450 H 0.0384 0.981 0.40717 0.0
H451 H 0.01735 0.98702 0.37897 0.0
H452 H 0.96655 0.98302 0.41647 0.0
H453 H 0.9876 0.97636 0.44462 0.0
H454 H 0.95888 0.96485 0.38322 0.0
H455 H 0.98668 0.02763 0.40078 0.0
H456 H 0.01321 0.05178 0.40882 0.0
H457 H 0.03792 0.0434 0.35139 0.0
H458 H 0.01168 0.01898 0.3431 0.0
H459 H 0.89563 0.00822 0.31417 0.0
H460 H 0.91547 0.00296 0.34348 0.0
H461 H 0.96663 0.99736 0.30713 0.0
H462 H 0.94693 0.00255 0.27774 0.0
H463 H 0.97303 0.0214 0.34049 0.0
H464 H 0.94488 0.9577 0.32389 0.0
H465 H 0.91775 0.93405 0.31646 0.0
H466 H 0.89262 0.9455 0.37317 0.0
H467 H 0.91948 0.96945 0.38083 0.0
C468 C 0.02274 0.98148 0.40937 0.0
C469 C 0.0146 0.97836 0.42805 0.0
C470 C 0.01073 0.98498 0.39329 0.0
C471 C 0.99038 0.98587 0.39567 0.0
C472 C 0.9822 0.98246 0.41429 0.0
C473 C 0.99421 0.97866 0.43034 0.0
C474 C 0.97768 0.99024 0.37868 0.0
C475 C 0.96181 0.97739 0.37408 0.0
C476 C 0.98164 0.00646 0.36655 0.0
C477 C 0.99729 0.02135 0.37138 0.0
C478 C 0.99783 0.03085 0.3899 0.0
C479 C 0.01281 0.04459 0.3945 0.0
C480 C 0.02727 0.04908 0.38064 0.0
C481 C 0.02672 0.03989 0.36212 0.0
C482 C 0.01179 0.02611 0.35745 0.0
C483 C 0.91111 0.00591 0.31241 0.0
C484 C 0.91971 0.00573 0.29362 0.0
C485 C 0.9224 0.00286 0.32916 0.0
C486 C 0.94246 -0.00035 0.32742 0.0
C487 C 0.95115 -0.00019 0.30875 0.0
C488 C 0.93986 0.0027 0.29198 0.0
C489 C 0.95441 0.99596 0.34505 0.0
C490 C 0.9701 0.00894 0.34975 0.0
C491 C 0.95016 0.98001 0.35738 0.0
C492 C 0.93408 0.96552 0.35285 0.0
C493 C 0.93349 0.9553 0.33471 0.0
C494 C 0.91817 0.94182 0.33047 0.0
C495 C 0.90344 0.93832 0.34431 0.0
C496 C 0.90403 0.94825 0.36245 0.0
C497 C 0.9193 0.96177 0.36675 0.0
H498 H 0.89159 0.92788 0.341 0.0
H499 H 0.03887 0.05971 0.38424 0.0
H500 H 0.24327 0.26854 0.6865 0.0
H501 H 0.25026 0.24643 0.65895 0.0
H502 H 0.19298 0.25553 0.63466 0.0
H503 H 0.18567 0.27683 0.66279 0.0
H504 H 0.20025 0.21966 0.63004 0.0
H505 H 0.23665 0.2788 0.61711 0.0
H506 H 0.25985 0.30632 0.62448 0.0
H507 H 0.30642 0.26667 0.63071 0.0
H508 H 0.28342 0.23888 0.62367 0.0
H509 H 0.22188 0.19167 0.53072 0.0
H510 H 0.21586 0.21212 0.55981 0.0
H511 H 0.26277 0.1854 0.59057 0.0
H512 H 0.26862 0.16452 0.56167 0.0
H513 H 0.26143 0.2295 0.59177 0.0
H514 H 0.22277 0.17033 0.60359 0.0
H515 H 0.19841 0.14436 0.59444 0.0
H516 H 0.15462 0.18689 0.58758 0.0
H517 H 0.17882 0.21317 0.5964 0.0
C518 C 0.2322 0.26569 0.67528 0.0
C519 C 0.21399 0.27436 0.67661 0.0
C520 C 0.23622 0.25319 0.6595 0.0
C521 C 0.22231 0.24962 0.64447 0.0
C522 C 0.20396 0.25806 0.64603 0.0
C523 C 0.19979 0.27023 0.66204 0.0
C524 C 0.22688 0.23719 0.62708 0.0
C525 C 0.21353 0.22201 0.62158 0.0
C526 C 0.24433 0.24004 0.6161 0.0
C527 C 0.25826 0.25674 0.62005 0.0
C528 C 0.25181 0.27594 0.62017 0.0
C529 C 0.26493 0.29159 0.62428 0.0
C530 C 0.28459 0.28824 0.62812 0.0
C531 C 0.29118 0.26924 0.62777 0.0
C532 C 0.27811 0.25353 0.6237 0.0
C533 C 0.23096 0.19019 0.54365 0.0
C534 C 0.24569 0.17648 0.54396 0.0
C535 C 0.22748 0.20184 0.56023 0.0
C536 C 0.23887 0.20018 0.57725 0.0
C537 C 0.25386 0.18684 0.57751 0.0
C538 C 0.25712 0.1749 0.56105 0.0
C539 C 0.23481 0.21219 0.59491 0.0
C540 C 0.24821 0.22725 0.60037 0.0
C541 C 0.21726 0.20952 0.6056 0.0
C542 C 0.20266 0.19372 0.60045 0.0
C543 C 0.208 0.17416 0.59995 0.0
C544 C 0.19421 0.15938 0.59486 0.0
C545 C 0.17499 0.16398 0.59037 0.0
C546 C 0.16952 0.18336 0.59103 0.0
C547 C 0.18326 0.1982 0.59608 0.0
H548 H 0.16434 0.15251 0.58644 0.0
H549 H 0.29471 0.30038 0.63132 0.0
H550 H 0.48431 0.54552 0.55585 0.0
H551 H 0.46262 0.54004 0.58394 0.0
H552 H 0.51144 0.52205 0.61852 0.0
H553 H 0.53339 0.52816 0.59086 0.0
H554 H 0.47724 0.49722 0.62114 0.0
H555 H 0.49671 0.56556 0.62596 0.0
H556 H 0.50064 0.59889 0.61339 0.0
H557 H 0.43858 0.6007 0.60432 0.0
H558 H 0.43432 0.56723 0.61657 0.0
H559 H 0.44075 0.50129 0.71791 0.0
H560 H 0.45975 0.50548 0.68784 0.0
H561 H 0.41113 0.5329 0.66053 0.0
H562 H 0.39221 0.52927 0.69082 0.0
H563 H 0.44354 0.55238 0.65257 0.0
H564 H 0.42298 0.48542 0.64871 0.0
H565 H 0.418 0.45175 0.66007 0.0
H566 H 0.48012 0.44654 0.66572 0.0
H567 H 0.48547 0.48029 0.65464 0.0
C568 C 0.4905 0.54058 0.56947 0.0
C569 C 0.51064 0.53736 0.57108 0.0
C570 C 0.47805 0.53734 0.58545 0.0
C571 C 0.48548 0.53072 0.60327 0.0
C572 C 0.50544 0.52707 0.60483 0.0
C573 C 0.51793 0.5305 0.58895 0.0
C574 C 0.47257 0.52798 0.6205 0.0
C575 C 0.47 0.50927 0.62817 0.0
C576 C 0.46269 0.54365 0.6292 0.0
C577 C 0.46523 0.56382 0.62197 0.0
C578 C 0.48392 0.573 0.62113 0.0
C579 C 0.48621 0.59193 0.61409 0.0
C580 C 0.46988 0.60189 0.608 0.0
C581 C 0.45122 0.59295 0.609 0.0
C582 C 0.44886 0.57401 0.616 0.0
C583 C 0.43408 0.50818 0.7055 0.0
C584 C 0.41496 0.51491 0.70673 0.0
C585 C 0.44492 0.51047 0.68827 0.0
C586 C 0.43676 0.51922 0.67179 0.0
C587 C 0.41772 0.52607 0.67303 0.0
C588 C 0.40691 0.52396 0.69035 0.0
C589 C 0.44829 0.52157 0.65345 0.0
C590 C 0.45062 0.54024 0.64553 0.0
C591 C 0.45775 0.50579 0.64436 0.0
C592 C 0.45461 0.48546 0.65101 0.0
C593 C 0.43558 0.47715 0.65252 0.0
C594 C 0.43269 0.45804 0.65888 0.0
C595 C 0.44873 0.44703 0.66366 0.0
C596 C 0.4677 0.45509 0.66203 0.0
C597 C 0.47067 0.47421 0.65569 0.0
H598 H 0.44646 0.43223 0.66858 0.0
H599 H 0.47167 0.61654 0.60256 0.0
H600 H 0.75262 0.24575 0.68895 0.0
H601 H 0.74799 0.26754 0.66138 0.0
H602 H 0.80446 0.25284 0.63833 0.0
H603 H 0.80944 0.23179 0.66645 0.0
H604 H 0.80107 0.28932 0.63511 0.0
H605 H 0.75914 0.23434 0.61827 0.0
H606 H 0.73303 0.20918 0.62314 0.0
H607 H 0.69088 0.25351 0.63019 0.0
H608 H 0.71679 0.27896 0.62563 0.0
H609 H 0.78447 0.32205 0.53722 0.0
H610 H 0.78852 0.30086 0.56539 0.0
H611 H 0.74245 0.3298 0.5961 0.0
H612 H 0.73854 0.35136 0.56812 0.0
H613 H 0.74023 0.28657 0.59507 0.0
H614 H 0.78431 0.34136 0.6109 0.0
H615 H 0.81132 0.36499 0.60396 0.0
H616 H 0.85063 0.31824 0.59603 0.0
H617 H 0.82377 0.2943 0.60263 0.0
C618 C 0.76396 0.24716 0.67791 0.0
C619 C 0.78134 0.23712 0.6797 0.0
C620 C 0.76129 0.25952 0.66212 0.0
C621 C 0.77573 0.26161 0.64753 0.0
C622 C 0.79311 0.25151 0.64936 0.0
C623 C 0.79594 0.23946 0.66537 0.0
C624 C 0.77293 0.27463 0.63061 0.0
C625 C 0.78785 0.28848 0.62623 0.0
C626 C 0.75558 0.27383 0.61911 0.0
C627 C 0.73994 0.25856 0.6218 0.0
C628 C 0.74432 0.23873 0.621 0.0
C629 C 0.72956 0.22441 0.62368 0.0
C630 C 0.71032 0.22974 0.62702 0.0
C631 C 0.70579 0.2494 0.62763 0.0
C632 C 0.72051 0.26378 0.62498 0.0
C633 C 0.7752 0.32392 0.54997 0.0
C634 C 0.7612 0.33838 0.5505 0.0
C635 C 0.77757 0.31184 0.56603 0.0
C636 C 0.7658 0.31384 0.58276 0.0
C637 C 0.75165 0.32808 0.58327 0.0
C638 C 0.7495 0.34041 0.56734 0.0
C639 C 0.76833 0.30104 0.59974 0.0
C640 C 0.75339 0.28729 0.60405 0.0
C641 C 0.78579 0.30165 0.61091 0.0
C642 C 0.80198 0.31603 0.60706 0.0
C643 C 0.79867 0.33611 0.60749 0.0
C644 C 0.81396 0.34956 0.60366 0.0
C645 C 0.83267 0.34312 0.5995 0.0
C646 C 0.83613 0.32321 0.59922 0.0
C647 C 0.82088 0.30969 0.60303 0.0
H648 H 0.84449 0.35355 0.59654 0.0
H649 H 0.69891 0.21864 0.6291 0.0
H650 H 0.46642 0.9738 0.58871 0.0
H651 H 0.48671 0.97849 0.61818 0.0
H652 H 0.53865 0.9716 0.5832 0.0
H653 H 0.51837 0.96681 0.55361 0.0
H654 H 0.54052 0.95158 0.61664 0.0
H655 H 0.52546 0.01659 0.59924 0.0
H656 H 0.50397 0.04316 0.59054 0.0
H657 H 0.47475 0.03804 0.64616 0.0
H658 H 0.49589 0.01124 0.65509 0.0
H659 H 0.60701 0.98684 0.69088 0.0
H660 H 0.58822 0.98265 0.66036 0.0
H661 H 0.53463 0.98939 0.69273 0.0
H662 H 0.55332 0.99394 0.72325 0.0
H663 H 0.53458 0.01004 0.65985 0.0
H664 H 0.54897 0.94443 0.67681 0.0
H665 H 0.57027 0.91768 0.68544 0.0
H666 H 0.60072 0.92395 0.6306 0.0
H667 H 0.57976 0.95092 0.62176 0.0
C668 C 0.48218 0.97344 0.58727 0.0
C669 C 0.49083 0.97006 0.56884 0.0
C670 C 0.49375 0.97611 0.60412 0.0
C671 C 0.51421 0.97567 0.60284 0.0
C672 C 0.52289 0.97202 0.5845 0.0
C673 C 0.5113 0.96925 0.56764 0.0
C674 C 0.52649 0.9789 0.62069 0.0
C675 C 0.53945 0.9645 0.62593 0.0
C676 C 0.52479 0.99558 0.63302 0.0
C677 C 0.51215 0.01179 0.62776 0.0
C678 C 0.51436 0.02104 0.60956 0.0
C679 C 0.50226 0.03615 0.60459 0.0
C680 C 0.48798 0.04225 0.61777 0.0
C681 C 0.48581 0.03329 0.63596 0.0
C682 C 0.49786 0.01815 0.64099 0.0
C683 C 0.59122 0.98741 0.69152 0.0
C684 C 0.58165 0.99067 0.70951 0.0
C685 C 0.5805 0.98494 0.67406 0.0
C686 C 0.56 0.98548 0.6743 0.0
C687 C 0.55043 0.9889 0.69221 0.0
C688 C 0.56114 0.99145 0.70965 0.0
C689 C 0.5485 0.98266 0.65588 0.0
C690 C 0.5357 0.99715 0.65052 0.0
C691 C 0.55036 0.96607 0.64345 0.0
C692 C 0.56293 0.94982 0.64872 0.0
C693 C 0.56031 0.9402 0.66666 0.0
C694 C 0.5723 0.92499 0.67158 0.0
C695 C 0.58687 0.91916 0.6586 0.0
C696 C 0.58945 0.9285 0.64065 0.0
C697 C 0.57751 0.94374 0.63567 0.0
H698 H 0.59614 0.90737 0.66244 0.0
H699 H 0.47862 0.05396 0.6139 0.0
H700 H 0.82009 0.25057 0.73751 0.0
H701 H 0.84866 0.25657 0.75867 0.0
H702 H 0.85561 0.19471 0.76322 0.0
H703 H 0.82721 0.18854 0.74169 0.0
H704 H 0.85859 0.21399 0.79915 0.0
H705 H 0.88578 0.22017 0.73457 0.0
H706 H 0.88811 0.23255 0.7008 0.0
H707 H 0.89673 0.29092 0.72362 0.0
H708 H 0.89417 0.27892 0.75755 0.0
H709 H 0.95305 0.22159 0.84321 0.0
H710 H 0.92546 0.21357 0.82124 0.0
H711 H 0.9183 0.2747 0.8112 0.0
H712 H 0.94611 0.28283 0.83284 0.0
H713 H 0.91588 0.25447 0.77749 0.0
H714 H 0.88751 0.24877 0.84184 0.0
H715 H 0.88468 0.2368 0.87574 0.0
H716 H 0.87785 0.17802 0.85357 0.0
H717 H 0.8809 0.18963 0.81953 0.0
C718 C 0.82783 0.23822 0.74278 0.0
C719 C 0.82142 0.21906 0.7378 0.0
C720 C 0.84411 0.24168 0.75494 0.0
C721 C 0.85433 0.22608 0.76235 0.0
C722 C 0.84788 0.20694 0.75764 0.0
C723 C 0.83163 0.20345 0.7454 0.0
C724 C 0.87165 0.22983 0.77518 0.0
C725 C 0.87127 0.22258 0.79434 0.0
C726 C 0.88795 0.2414 0.76899 0.0
C727 C 0.8896 0.24866 0.7486 0.0
C728 C 0.88802 0.23567 0.73239 0.0
C729 C 0.88941 0.24261 0.71322 0.0
C730 C 0.89252 0.26252 0.71006 0.0
C731 C 0.8943 0.27551 0.72609 0.0
C732 C 0.8929 0.26864 0.74529 0.0
C733 C 0.94558 0.23334 0.83637 0.0
C734 C 0.95173 0.25286 0.83982 0.0
C735 C 0.92976 0.22873 0.82386 0.0
C736 C 0.91968 0.24355 0.81475 0.0
C737 C 0.92587 0.26303 0.81809 0.0
C738 C 0.94173 0.26765 0.83051 0.0
C739 C 0.90279 0.23878 0.80157 0.0
C740 C 0.90325 0.24582 0.78231 0.0
C741 C 0.88653 0.22707 0.8077 0.0
C742 C 0.88464 0.22006 0.82815 0.0
C743 C 0.88557 0.23328 0.8442 0.0
C744 C 0.88389 0.22656 0.86344 0.0
C745 C 0.88115 0.20666 0.86681 0.0
C746 C 0.88001 0.19343 0.85094 0.0
C747 C 0.8817 0.20007 0.83167 0.0
H748 H 0.87985 0.20148 0.88171 0.0
H749 H 0.89359 0.26786 0.69521 0.0
H750 H 0.46686 0.95004 0.48033 0.0
H751 H 0.47125 0.92313 0.45694 0.0
H752 H 0.48582 0.88577 0.50466 0.0
H753 H 0.48083 0.91238 0.52827 0.0
H754 H 0.51134 0.88355 0.47184 0.0
H755 H 0.44222 0.88085 0.48612 0.0
H756 H 0.40949 0.89448 0.489 0.0
H757 H 0.41012 0.90768 0.42748 0.0
H758 H 0.44301 0.89439 0.42429 0.0
H759 H 0.50374 0.79202 0.42297 0.0
H760 H 0.5003 0.81964 0.44563 0.0
H761 H 0.47567 0.85276 0.3989 0.0
H762 H 0.47847 0.8249 0.3763 0.0
H763 H 0.45563 0.85797 0.43086 0.0
H764 H 0.5238 0.86084 0.41557 0.0
H765 H 0.55698 0.84845 0.41181 0.0
H766 H 0.55904 0.83655 0.47358 0.0
H767 H 0.52575 0.84863 0.47767 0.0
C768 C 0.47081 0.93606 0.48591 0.0
C769 C 0.47338 0.93337 0.50622 0.0
C770 C 0.47342 0.92074 0.4725 0.0
C771 C 0.47874 0.90247 0.47912 0.0
C772 C 0.48177 0.89981 0.49929 0.0
C773 C 0.47899 0.91507 0.51274 0.0
C774 C 0.48081 0.88603 0.46501 0.0
C775 C 0.49914 0.87776 0.46302 0.0
C776 C 0.46499 0.87895 0.45315 0.0
C777 C 0.44515 0.88681 0.45502 0.0
C778 C 0.43545 0.88681 0.47324 0.0
C779 C 0.41685 0.89445 0.47492 0.0
C780 C 0.40775 0.90199 0.45845 0.0
C781 C 0.4172 0.90186 0.44024 0.0
C782 C 0.43581 0.89426 0.43848 0.0
C783 C 0.49764 0.8052 0.4175 0.0
C784 C 0.49145 0.80632 0.39782 0.0
C785 C 0.49576 0.82102 0.43045 0.0
C786 C 0.48804 0.83842 0.4239 0.0
C787 C 0.48172 0.83951 0.40429 0.0
C788 C 0.48336 0.82359 0.39138 0.0
C789 C 0.48622 0.85533 0.43762 0.0
C790 C 0.46791 0.86373 0.43957 0.0
C791 C 0.50214 0.86268 0.44927 0.0
C792 C 0.5222 0.85547 0.44689 0.0
C793 C 0.53127 0.85545 0.42833 0.0
C794 C 0.55011 0.84851 0.42614 0.0
C795 C 0.56009 0.84168 0.44243 0.0
C796 C 0.55128 0.84183 0.46096 0.0
C797 C 0.53243 0.84874 0.46323 0.0
H798 H 0.57467 0.83631 0.44071 0.0
H799 H 0.39336 0.9079 0.45978 0.0
H800 H 0.18792 0.30306 0.7606 0.0
H801 H 0.1599 0.29635 0.78201 0.0
H802 H 0.12518 0.2777 0.73153 0.0
H803 H 0.15287 0.28514 0.70995 0.0
H804 H 0.10446 0.29956 0.75578 0.0
H805 H 0.14531 0.24473 0.76218 0.0
H806 H 0.17593 0.22814 0.76875 0.0
H807 H 0.17734 0.25184 0.82767 0.0
H808 H 0.14685 0.26881 0.82137 0.0
H809 H 0.02874 0.24602 0.80423 0.0
H810 H 0.057 0.25502 0.78395 0.0
H811 H 0.08778 0.27756 0.83547 0.0
H812 H 0.05956 0.2686 0.85592 0.0
H813 H 0.11065 0.25457 0.81154 0.0
H814 H 0.0688 0.30857 0.80497 0.0
H815 H 0.03786 0.32445 0.79805 0.0
H816 H 0.03801 0.30137 0.7389 0.0
H817 H 0.06883 0.2851 0.74555 0.0
C818 C 0.17425 0.29777 0.75402 0.0
C819 C 0.17266 0.29453 0.73357 0.0
C820 C 0.15831 0.29376 0.7663 0.0
C821 C 0.14054 0.28624 0.75839 0.0
C822 C 0.13878 0.28339 0.73796 0.0
C823 C 0.15468 0.28748 0.72566 0.0
C824 C 0.1238 0.28119 0.77141 0.0
C825 C 0.10576 0.28955 0.76783 0.0
C826 C 0.12561 0.26843 0.78739 0.0
C827 C 0.14391 0.2582 0.79124 0.0
C828 C 0.15223 0.24653 0.77649 0.0
C829 C 0.16955 0.23704 0.78017 0.0
C830 C 0.17861 0.23898 0.7986 0.0
C831 C 0.17033 0.25038 0.8134 0.0
C832 C 0.15302 0.25992 0.80979 0.0
C833 C 0.04152 0.25286 0.81127 0.0
C834 C 0.04189 0.25664 0.83168 0.0
C835 C 0.05762 0.25806 0.79964 0.0
C836 C 0.07438 0.26711 0.8082 0.0
C837 C 0.07495 0.27062 0.8286 0.0
C838 C 0.0588 0.26554 0.84023 0.0
C839 C 0.09134 0.27287 0.79582 0.0
C840 C 0.1094 0.26463 0.79953 0.0
C841 C 0.08952 0.28564 0.77989 0.0
C842 C 0.07103 0.29547 0.77582 0.0
C843 C 0.06215 0.30675 0.79054 0.0
C844 C 0.04465 0.31584 0.78665 0.0
C845 C 0.03595 0.31388 0.76806 0.0
C846 C 0.04476 0.30285 0.7533 0.0
C847 C 0.06225 0.29371 0.75711 0.0
H848 H 0.0224 0.32094 0.76509 0.0
H849 H 0.19201 0.23161 0.80142 0.0
H850 H 0.53921 0.56467 0.48726 0.0
H851 H 0.53461 0.59299 0.46675 0.0
H852 H 0.51873 0.62666 0.51807 0.0
H853 H 0.52374 0.59856 0.53879 0.0
H854 H 0.49333 0.6307 0.48673 0.0
H855 H 0.56266 0.63395 0.49874 0.0
H856 H 0.59588 0.62124 0.49943 0.0
H857 H 0.59369 0.61145 0.43685 0.0
H858 H 0.56031 0.62384 0.43583 0.0
H859 H 0.49831 0.72449 0.44545 0.0
H860 H 0.50327 0.6961 0.46568 0.0
H861 H 0.52382 0.66448 0.41482 0.0
H862 H 0.51927 0.69298 0.39452 0.0
H863 H 0.54676 0.65905 0.44574 0.0
H864 H 0.4778 0.65558 0.43328 0.0
H865 H 0.44432 0.66763 0.43215 0.0
H866 H 0.44537 0.67702 0.4948 0.0
H867 H 0.47898 0.66528 0.49628 0.0
C868 C 0.53498 0.57816 0.49424 0.0
C869 C 0.53188 0.57935 0.51469 0.0
C870 C 0.53228 0.5943 0.48248 0.0
C871 C 0.52644 0.61193 0.49093 0.0
C872 C 0.52318 0.61315 0.51128 0.0
C873 C 0.52597 0.59705 0.52307 0.0
C874 C 0.5236 0.62907 0.4785 0.0
C875 C 0.50506 0.63709 0.47796 0.0
C876 C 0.5388 0.63701 0.46668 0.0
C877 C 0.55891 0.62964 0.46724 0.0
C878 C 0.5692 0.62893 0.48515 0.0
C879 C 0.58807 0.62181 0.4856 0.0
C880 C 0.59687 0.61549 0.4682 0.0
C881 C 0.58684 0.61633 0.45032 0.0
C882 C 0.56795 0.62341 0.44979 0.0
C883 C 0.50385 0.71149 0.43853 0.0
C884 C 0.50834 0.71098 0.41835 0.0
C885 C 0.5066 0.69524 0.45012 0.0
C886 C 0.51368 0.67808 0.44171 0.0
C887 C 0.51832 0.67756 0.4216 0.0
C888 C 0.51566 0.69385 0.41002 0.0
C889 C 0.51645 0.66075 0.45397 0.0
C890 C 0.53499 0.65268 0.45448 0.0
C891 C 0.50121 0.65269 0.46569 0.0
C892 C 0.48098 0.65973 0.46486 0.0
C893 C 0.47095 0.66036 0.4468 0.0
C894 C 0.45194 0.66711 0.4461 0.0
C895 C 0.44274 0.67313 0.46339 0.0
C896 C 0.45252 0.67238 0.48142 0.0
C897 C 0.47155 0.66566 0.4822 0.0
H898 H 0.42802 0.67835 0.46281 0.0
H899 H 0.61149 0.60999 0.46858 0.0
H900 H 0.80567 0.78762 0.73431 0.0
H901 H 0.83202 0.78286 0.71046 0.0
H902 H 0.87362 0.78004 0.75804 0.0
H903 H 0.84729 0.7846 0.78196 0.0
H904 H 0.88515 0.8053 0.72598 0.0
H905 H 0.86043 0.7398 0.73783 0.0
H906 H 0.83465 0.71386 0.7398 0.0
H907 H 0.821 0.72079 0.67867 0.0
H908 H 0.84652 0.747 0.67641 0.0
H909 H 0.96675 0.7696 0.67565 0.0
H910 H 0.93991 0.77496 0.69847 0.0
H911 H 0.89823 0.76385 0.65142 0.0
H912 H 0.92505 0.75777 0.62863 0.0
H913 H 0.8859 0.74634 0.68273 0.0
H914 H 0.90993 0.81085 0.66963 0.0
H915 H 0.93456 0.83775 0.6666 0.0
H916 H 0.94802 0.83442 0.72818 0.0
H917 H 0.92366 0.80731 0.73152 0.0
C918 C 0.82046 0.78603 0.73963 0.0
C919 C 0.8245 0.78643 0.75992 0.0
C920 C 0.83543 0.78326 0.72605 0.0
C921 C 0.85469 0.78105 0.73255 0.0
C922 C 0.85882 0.78171 0.75279 0.0
C923 C 0.8438 0.7842 0.76639 0.0
C924 C 0.87053 0.77796 0.71822 0.0
C925 C 0.8855 0.79233 0.71665 0.0
C926 C 0.87053 0.76131 0.7057 0.0
C927 C 0.85524 0.7455 0.70701 0.0
C928 C 0.85181 0.73592 0.72485 0.0
C929 C 0.83727 0.72114 0.72601 0.0
C930 C 0.82616 0.71572 0.70938 0.0
C931 C 0.8296 0.72503 0.69154 0.0
C932 C 0.84411 0.73983 0.69031 0.0
C933 C 0.95187 0.76836 0.67014 0.0
C934 C 0.948 0.76335 0.65033 0.0
C935 C 0.93653 0.77152 0.68319 0.0
C936 C 0.91704 0.77015 0.6766 0.0
C937 C 0.91315 0.76503 0.65683 0.0
C938 C 0.92848 0.7616 0.64382 0.0
C939 C 0.90074 0.77368 0.69045 0.0
C940 C 0.88562 0.75939 0.69195 0.0
C941 C 0.90046 0.79057 0.70272 0.0
C942 C 0.91509 0.80692 0.70078 0.0
C943 C 0.91824 0.81576 0.6825 0.0
C944 C 0.93214 0.83106 0.68073 0.0
C945 C 0.94288 0.83776 0.69718 0.0
C946 C 0.93971 0.8292 0.71544 0.0
C947 C 0.92584 0.81388 0.71729 0.0
H948 H 0.95363 0.84961 0.69578 0.0
H949 H 0.81491 0.70428 0.7103 0.0
H950 H 0.06215 0.92993 0.48745 0.0
H951 H 0.0555 0.90246 0.50909 0.0
H952 H 0.99422 0.91522 0.50966 0.0
H953 H 0.00085 0.94307 0.48844 0.0
H954 H 0.00755 0.90786 0.5462 0.0
H955 H 0.01025 0.87775 0.48209 0.0
H956 H 0.02469 0.87028 0.44973 0.0
H957 H 0.0739 0.84558 0.47806 0.0
H958 H 0.05988 0.85315 0.51061 0.0
H959 H 0.97076 0.81869 0.58494 0.0
H960 H 0.97791 0.84631 0.56369 0.0
H961 H 0.03919 0.83362 0.5644 0.0
H962 H 0.03217 0.80582 0.58557 0.0
H963 H 0.02613 0.84096 0.52737 0.0
H964 H 0.02319 0.87092 0.59153 0.0
H965 H 0.00859 0.87833 0.62383 0.0
H966 H 0.95962 0.90326 0.5953 0.0
H967 H 0.9738 0.89575 0.56281 0.0
C968 C 0.04728 0.92697 0.4923 0.0
C969 C 0.03202 0.93865 0.48622 0.0
C970 C 0.04348 0.91118 0.50452 0.0
C971 C 0.02433 0.90669 0.51081 0.0
C972 C 0.00909 0.9184 0.50491 0.0
C973 C 0.01287 0.9342 0.49267 0.0
C974 C 0.02024 0.88987 0.52369 0.0
C975 C 0.01136 0.89319 0.54198 0.0
C976 C 0.02565 0.87081 0.51835 0.0
C977 C 0.0341 0.8662 0.49879 0.0
C978 C 0.02423 0.87087 0.48142 0.0
C979 C 0.03232 0.86659 0.46305 0.0
C980 C 0.05023 0.85751 0.46184 0.0
C981 C 0.06005 0.85264 0.47902 0.0
C982 C 0.05202 0.85691 0.49743 0.0
C983 C 0.98577 0.82176 0.58061 0.0
C984 C 0.00091 0.81008 0.58699 0.0
C985 C 0.98983 0.8376 0.56852 0.0
C986 C 0.0091 0.84211 0.56264 0.0
C987 C 0.02422 0.83039 0.56881 0.0
C988 C 0.02019 0.81455 0.58096 0.0
C989 C 0.01341 0.85895 0.54986 0.0
C990 C 0.02233 0.85564 0.53159 0.0
C991 C 0.00801 0.87801 0.55521 0.0
C992 C 0.99947 0.88259 0.57473 0.0
C993 C 0.00923 0.87783 0.59214 0.0
C994 C 0.00104 0.88208 0.61049 0.0
C995 C 0.98316 0.89121 0.61162 0.0
C996 C 0.97345 0.89616 0.5944 0.0
C997 C 0.98157 0.89193 0.57602 0.0
H998 H 0.97685 0.89449 0.62583 0.0
H999 H 0.05647 0.8542 0.4476 0.0
H1000 H 0.19072 0.72277 0.74502 0.0
H1001 H 0.16275 0.7272 0.72304 0.0
H1002 H 0.12454 0.73061 0.77328 0.0
H1003 H 0.15253 0.72654 0.79534 0.0
H1004 H 0.11145 0.70433 0.74032 0.0
H1005 H 0.13511 0.77027 0.75464 0.0
H1006 H 0.1604 0.79676 0.75674 0.0
H1007 H 0.1708 0.79103 0.69464 0.0
H1008 H 0.14577 0.76428 0.69224 0.0
H1009 H 0.02609 0.73887 0.69661 0.0
H1010 H 0.05435 0.73389 0.71766 0.0
H1011 H 0.093 0.74622 0.66898 0.0
H1012 H 0.06476 0.7518 0.64796 0.0
H1013 H 0.10666 0.7639 0.70069 0.0
H1014 H 0.08364 0.69914 0.68505 0.0
H1015 H 0.05967 0.67158 0.68166 0.0
H1016 H 0.04961 0.67329 0.74401 0.0
H1017 H 0.07333 0.70106 0.74774 0.0
C1018 C 0.17633 0.72443 0.75132 0.0
C1019 C 0.1737 0.72437 0.77181 0.0
C1020 C 0.16044 0.72699 0.7388 0.0
C1021 C 0.14167 0.72925 0.74661 0.0
C1022 C 0.13895 0.72888 0.76705 0.0
C1023 C 0.1549 0.72666 0.77959 0.0
C1024 C 0.12489 0.73216 0.73341 0.0
C1025 C 0.11021 0.71744 0.73181 0.0
C1026 C 0.12374 0.74899 0.7219 0.0
C1027 C 0.13873 0.76513 0.72331 0.0
C1028 C 0.14293 0.77453 0.74147 0.0
C1029 C 0.15718 0.78962 0.7427 0.0
C1030 C 0.16724 0.79554 0.72584 0.0
C1031 C 0.16302 0.78641 0.70769 0.0
C1032 C 0.14879 0.77129 0.70639 0.0
C1033 C 0.0406 0.74049 0.69036 0.0
C1034 C 0.04319 0.74568 0.6706 0.0
C1035 C 0.05675 0.73754 0.7024 0.0
C1036 C 0.07581 0.73938 0.69483 0.0
C1037 C 0.07844 0.74469 0.67513 0.0
C1038 C 0.06228 0.74784 0.66313 0.0
C1039 C 0.09298 0.73609 0.70759 0.0
C1040 C 0.10781 0.75074 0.70911 0.0
C1041 C 0.09441 0.71902 0.71881 0.0
C1042 C 0.08013 0.70231 0.71664 0.0
C1043 C 0.0762 0.69375 0.69802 0.0
C1044 C 0.06268 0.67807 0.69604 0.0
C1045 C 0.05308 0.67072 0.7126 0.0
C1046 C 0.05703 0.67902 0.73119 0.0
C1047 C 0.07053 0.69472 0.73325 0.0
H1048 H 0.04262 0.65858 0.71104 0.0
H1049 H 0.17827 0.80723 0.72682 0.0
H1050 H 0.94513 0.58406 0.4894 0.0
H1051 H 0.95125 0.61224 0.51153 0.0
H1052 H 0.00997 0.59392 0.52182 0.0
H1053 H 0.00395 0.56574 0.49968 0.0
H1054 H 0.98989 0.60527 0.55644 0.0
H1055 H 0.00457 0.6289 0.49167 0.0
H1056 H 0.99771 0.63479 0.45669 0.0
H1057 H 0.94871 0.6688 0.473 0.0
H1058 H 0.9551 0.66285 0.5081 0.0
H1059 H 0.03382 0.6918 0.59744 0.0
H1060 H 0.02564 0.66305 0.57696 0.0
H1061 H 0.96957 0.68626 0.56328 0.0
H1062 H 0.9777 0.71519 0.5836 0.0
H1063 H 0.98707 0.67223 0.53073 0.0
H1064 H 0.97248 0.64975 0.59528 0.0
H1065 H 0.97858 0.64375 0.63038 0.0
H1066 H 0.02621 0.60754 0.61493 0.0
H1067 H 0.02058 0.61355 0.57972 0.0
C1068 C 0.95929 0.586 0.49651 0.0
C1069 C 0.97411 0.57281 0.49282 0.0
C1070 C 0.96278 0.6021 0.50904 0.0
C1071 C 0.98109 0.60517 0.51818 0.0
C1072 C 0.99576 0.59178 0.51487 0.0
C1073 C 0.99235 0.5758 0.50216 0.0
C1074 C 0.98507 0.62255 0.53091 0.0
C1075 C 0.98951 0.61992 0.55081 0.0
C1076 C 0.98403 0.64161 0.52359 0.0
C1077 C 0.98018 0.64524 0.5025 0.0
C1078 C 0.99222 0.63748 0.4878 0.0
C1079 C 0.98844 0.64085 0.46795 0.0
C1080 C 0.97275 0.65211 0.46262 0.0
C1081 C 0.96083 0.66005 0.47715 0.0
C1082 C 0.96454 0.65669 0.49702 0.0
C1083 C 0.01974 0.6908 0.5901 0.0
C1084 C 0.00641 0.70578 0.59216 0.0
C1085 C 0.01505 0.67431 0.57848 0.0
C1086 C 0.99692 0.67244 0.56877 0.0
C1087 C 0.98363 0.68741 0.57068 0.0
C1088 C 0.98829 0.70391 0.58233 0.0
C1089 C 0.992 0.655 0.55632 0.0
C1090 C 0.98739 0.6576 0.53643 0.0
C1091 C 0.99277 0.63591 0.5637 0.0
C1092 C 0.99623 0.63227 0.58486 0.0
C1093 C 0.98437 0.64065 0.59937 0.0
C1094 C 0.98772 0.63722 0.61929 0.0
C1095 C 0.00281 0.62531 0.62489 0.0
C1096 C 0.01455 0.61678 0.61057 0.0
C1097 C 0.01127 0.62018 0.59063 0.0
H1098 H 0.00537 0.62267 0.64031 0.0
H1099 H 0.96985 0.65472 0.44725 0.0
H1100 H 0.72178 0.85166 0.2157 0.0
H1101 H 0.74532 0.87865 0.2226 0.0
H1102 H 0.79274 0.83915 0.2184 0.0
H1103 H 0.76922 0.81203 0.21163 0.0
H1104 H 0.79597 0.86498 0.25083 0.0
H1105 H 0.78505 0.86701 0.18117 0.0
H1106 H 0.76521 0.8678 0.15087 0.0
H1107 H 0.74138 0.92183 0.1701 0.0
H1108 H 0.76087 0.92121 0.20067 0.0
H1109 H 0.87244 0.93802 0.24419 0.0
H1110 H 0.85032 0.90978 0.23791 0.0
H1111 H 0.80119 0.94732 0.23693 0.0
H1112 H 0.82316 0.97561 0.24297 0.0
H1113 H 0.79966 0.92167 0.20663 0.0
H1114 H 0.80965 0.91955 0.27646 0.0
H1115 H 0.82897 0.91891 0.30711 0.0
H1116 H 0.85399 0.86539 0.28811 0.0
H1117 H 0.83502 0.86585 0.25719 0.0
C1118 C 0.73721 0.84872 0.2164 0.0
C1119 C 0.7437 0.82979 0.21308 0.0
C1120 C 0.75063 0.86414 0.22022 0.0
C1121 C 0.77075 0.86088 0.22084 0.0
C1122 C 0.77726 0.84194 0.21792 0.0
C1123 C 0.76385 0.82652 0.21394 0.0
C1124 C 0.78497 0.87735 0.2243 0.0
C1125 C 0.79702 0.87726 0.24104 0.0
C1126 C 0.78597 0.8935 0.21171 0.0
C1127 C 0.77428 0.89396 0.1933 0.0
C1128 C 0.77545 0.87897 0.17902 0.0
C1129 C 0.76429 0.8794 0.16178 0.0
C1130 C 0.752 0.89483 0.15858 0.0
C1131 C 0.75088 0.90987 0.17261 0.0
C1132 C 0.762 0.9095 0.18989 0.0
C1133 C 0.85693 0.94027 0.24267 0.0
C1134 C 0.84956 0.95907 0.2441 0.0
C1135 C 0.8443 0.9241 0.23916 0.0
C1136 C 0.8241 0.92645 0.23711 0.0
C1137 C 0.81673 0.94519 0.23846 0.0
C1138 C 0.82932 0.96134 0.24197 0.0
C1139 C 0.8106 0.90942 0.23327 0.0
C1140 C 0.79869 0.90938 0.21643 0.0
C1141 C 0.80968 0.8932 0.24582 0.0
C1142 C 0.82108 0.89285 0.26441 0.0
C1143 C 0.8194 0.90773 0.27873 0.0
C1144 C 0.83026 0.90739 0.29617 0.0
C1145 C 0.84274 0.89215 0.29953 0.0
C1146 C 0.84434 0.8772 0.28547 0.0
C1147 C 0.83353 0.87749 0.26799 0.0
H1148 H 0.85114 0.89191 0.31304 0.0
H1149 H 0.74338 0.89514 0.14523 0.0
H1150 H 0.75988 0.20717 0.29997 0.0
H1151 H 0.78368 0.18192 0.29579 0.0
H1152 H 0.73742 0.1406 0.27862 0.0
H1153 H 0.71334 0.16553 0.28388 0.0
H1154 H 0.76148 0.12425 0.30272 0.0
H1155 H 0.76905 0.16196 0.24455 0.0
H1156 H 0.77432 0.19177 0.22533 0.0
H1157 H 0.83062 0.20191 0.2525 0.0
H1158 H 0.82558 0.17228 0.27208 0.0
H1159 H 0.82141 0.0534 0.25871 0.0
H1160 H 0.79799 0.07898 0.26376 0.0
H1161 H 0.84356 0.11667 0.28911 0.0
H1162 H 0.86717 0.09109 0.2842 0.0
H1163 H 0.82028 0.13481 0.26105 0.0
H1164 H 0.81204 0.09601 0.31886 0.0
H1165 H 0.80627 0.06556 0.33693 0.0
H1166 H 0.75034 0.05676 0.30865 0.0
H1167 H 0.75591 0.08704 0.29019 0.0
C1168 C 0.7547 0.19266 0.29555 0.0
C1169 C 0.73466 0.18839 0.29229 0.0
C1170 C 0.76838 0.17829 0.29291 0.0
C1171 C 0.76239 0.15943 0.2866 0.0
C1172 C 0.7424 0.15508 0.28341 0.0
C1173 C 0.72867 0.16941 0.28624 0.0
C1174 C 0.77694 0.14417 0.28359 0.0
C1175 C 0.77418 0.12648 0.29338 0.0
C1176 C 0.79374 0.14721 0.27173 0.0
C1177 C 0.79685 0.165 0.25992 0.0
C1178 C 0.78249 0.17062 0.24653 0.0
C1179 C 0.78545 0.18748 0.23556 0.0
C1180 C 0.80277 0.19875 0.23773 0.0
C1181 C 0.8172 0.19317 0.25085 0.0
C1182 C 0.81431 0.17634 0.26188 0.0
C1183 C 0.82649 0.06712 0.26536 0.0
C1184 C 0.84615 0.07021 0.2711 0.0
C1185 C 0.81306 0.08169 0.26828 0.0
C1186 C 0.81904 0.09962 0.27693 0.0
C1187 C 0.83869 0.10288 0.28244 0.0
C1188 C 0.85212 0.08824 0.27968 0.0
C1189 C 0.80474 0.11498 0.28013 0.0
C1190 C 0.80755 0.13266 0.27038 0.0
C1191 C 0.78789 0.11186 0.29185 0.0
C1192 C 0.78448 0.09369 0.303 0.0
C1193 C 0.79858 0.0875 0.31637 0.0
C1194 C 0.79533 0.07029 0.32671 0.0
C1195 C 0.77797 0.05921 0.3239 0.0
C1196 C 0.76379 0.06535 0.31079 0.0
C1197 C 0.76698 0.08254 0.3004 0.0
H1198 H 0.77548 0.04589 0.33192 0.0
H1199 H 0.80503 0.2118 0.22922 0.0
H1200 H 0.44939 0.98942 0.96724 0.0
H1201 H 0.42096 0.96747 0.97223 0.0
H1202 H 0.38515 0.01674 0.98359 0.0
H1203 H 0.41346 0.03884 0.97837 0.0
H1204 H 0.37896 0.98794 0.0104 0.0
H1205 H 0.38201 0.99313 0.94002 0.0
H1206 H 0.39795 0.99181 0.90754 0.0
H1207 H 0.40881 0.93128 0.91513 0.0
H1208 H 0.39317 0.93231 0.9478 0.0
H1209 H 0.28706 0.93665 0.00517 0.0
H1210 H 0.31474 0.95944 -0.00015 0.0
H1211 H 0.35052 0.91163 0.98269 0.0
H1212 H 0.32274 0.88884 0.98738 0.0
H1213 H 0.3565 0.94034 0.95861 0.0
H1214 H 0.35446 0.93483 0.02894 0.0
H1215 H 0.33935 0.93578 0.06185 0.0
H1216 H 0.32748 0.99618 0.05495 0.0
H1217 H 0.3423 0.99552 0.02188 0.0
C1218 C 0.43542 0.99561 0.9706 0.0
C1219 C 0.43367 0.01589 0.97231 0.0
C1220 C 0.41921 0.98304 0.9735 0.0
C1221 C 0.40092 0.9905 0.97809 0.0
C1222 C 0.39915 0.0107 0.98008 0.0
C1223 C 0.41535 0.02329 0.97715 0.0
C1224 C 0.38364 0.97719 0.98089 0.0
C1225 C 0.37386 0.9777 0.999 0.0
C1226 C 0.37732 0.96354 0.96616 0.0
C1227 C 0.38658 0.96285 0.94644 0.0
C1228 C 0.38792 0.97958 0.93483 0.0
C1229 C 0.39689 0.97887 0.91637 0.0
C1230 C 0.40443 0.96148 0.90929 0.0
C1231 C 0.40298 0.94474 0.92064 0.0
C1232 C 0.39405 0.94538 0.93912 0.0
C1233 C 0.30084 0.93098 0.0003 0.0
C1234 C 0.30273 0.91093 0.99676 0.0
C1235 C 0.31668 0.94403 0.99734 0.0
C1236 C 0.33482 0.93723 0.99114 0.0
C1237 C 0.33669 0.91722 0.98749 0.0
C1238 C 0.3208 0.9042 0.99022 0.0
C1239 C 0.35181 0.95096 0.98821 0.0
C1240 C 0.36155 0.95056 0.97004 0.0
C1241 C 0.35817 0.96462 0.00295 0.0
C1242 C 0.34931 0.96507 0.02286 0.0
C1243 C 0.3485 0.94828 0.03438 0.0
C1244 C 0.34001 0.94877 0.05307 0.0
C1245 C 0.33242 0.96602 0.06046 0.0
C1246 C 0.33335 0.98283 0.04919 0.0
C1247 C 0.3418 0.98241 0.03048 0.0
H1248 H 0.32585 0.96637 0.07494 0.0
H1249 H 0.41137 0.96097 0.895 0.0
H1250 H 0.26314 0.31795 0.25659 0.0
H1251 H 0.24117 0.34503 0.25368 0.0
H1252 H 0.24557 0.35611 0.31628 0.0
H1253 H 0.2676 0.32911 0.31928 0.0
H1254 H 0.20827 0.35788 0.30363 0.0
H1255 H 0.27116 0.38434 0.28443 0.0
H1256 H 0.30183 0.3856 0.26541 0.0
H1257 H 0.26913 0.38996 0.21175 0.0
H1258 H 0.23823 0.38844 0.23043 0.0
H1259 H 0.1722 0.45351 0.3065 0.0
H1260 H 0.1928 0.42536 0.30903 0.0
H1261 H 0.18676 0.41436 0.24656 0.0
H1262 H 0.16625 0.44256 0.24385 0.0
H1263 H 0.22453 0.41229 0.25881 0.0
H1264 H 0.16158 0.38634 0.27828 0.0
H1265 H 0.13103 0.3851 0.29748 0.0
H1266 H 0.164 0.37998 0.35087 0.0
H1267 H 0.19478 0.38147 0.33201 0.0
C1268 C 0.25951 0.32623 0.26971 0.0
C1269 C 0.26716 0.32146 0.28815 0.0
C1270 C 0.24694 0.34166 0.26804 0.0
C1271 C 0.24192 0.35271 0.28474 0.0
C1272 C 0.24924 0.34775 0.30321 0.0
C1273 C 0.26178 0.3323 0.30491 0.0
C1274 C 0.22921 0.36958 0.28294 0.0
C1275 C 0.21194 0.3699 0.29401 0.0
C1276 C 0.23382 0.38504 0.27007 0.0
C1277 C 0.25238 0.38608 0.25882 0.0
C1278 C 0.2705 0.38542 0.26856 0.0
C1279 C 0.28793 0.3862 0.25784 0.0
C1280 C 0.28742 0.3878 0.23738 0.0
C1281 C 0.26949 0.38868 0.2276 0.0
C1282 C 0.25202 0.38788 0.23824 0.0
C1283 C 0.17523 0.4451 0.2933 0.0
C1284 C 0.16756 0.45026 0.27498 0.0
C1285 C 0.18694 0.42897 0.29478 0.0
C1286 C 0.19115 0.41768 0.278 0.0
C1287 C 0.18365 0.42287 0.25968 0.0
C1288 C 0.1719 0.43896 0.25819 0.0
C1289 C 0.20361 0.4006 0.27952 0.0
C1290 C 0.22085 0.40025 0.26839 0.0
C1291 C 0.19899 0.38514 0.29237 0.0
C1292 C 0.1805 0.38421 0.30375 0.0
C1293 C 0.16233 0.38512 0.29413 0.0
C1294 C 0.14497 0.38434 0.30495 0.0
C1295 C 0.14557 0.38251 0.32539 0.0
C1296 C 0.16355 0.38142 0.33504 0.0
C1297 C 0.18096 0.38221 0.3243 0.0
H1298 H 0.13212 0.38191 0.33373 0.0
H1299 H 0.30093 0.3884 0.22911 0.0
H1300 H 0.05673 0.02351 0.46798 0.0
H1301 H 0.08481 0.04572 0.47469 0.0
H1302 H 0.12257 0.99683 0.4766 0.0
H1303 H 0.09429 0.97454 0.47058 0.0
H1304 H 0.13202 0.02101 0.50496 0.0
H1305 H 0.12058 0.02772 0.43603 0.0
H1306 H 0.10108 0.03334 0.40623 0.0
H1307 H 0.08908 0.09089 0.42743 0.0
H1308 H 0.10828 0.08552 0.45751 0.0
H1309 H 0.22109 0.07762 0.49558 0.0
H1310 H 0.19343 0.05489 0.48866 0.0
H1311 H 0.15344 0.10131 0.49724 0.0
H1312 H 0.18099 0.12414 0.5043 0.0
H1313 H 0.14589 0.07818 0.46299 0.0
H1314 H 0.15768 0.07023 0.53242 0.0
H1315 H 0.17794 0.06385 0.5615 0.0
H1316 H 0.19067 0.00744 0.53767 0.0
H1317 H 0.17069 0.0136 0.5083 0.0
C1318 C 0.07105 0.01756 0.46977 0.0
C1319 C 0.07342 0.99737 0.46867 0.0
C1320 C 0.0871 0.03024 0.47353 0.0
C1321 C 0.10589 0.02299 0.47579 0.0
C1322 C 0.10823 0.00277 0.47488 0.0
C1323 C 0.09211 0.99006 0.47143 0.0
C1324 C 0.12306 0.03648 0.47934 0.0
C1325 C 0.13519 0.03333 0.49559 0.0
C1326 C 0.12708 0.05276 0.46731 0.0
C1327 C 0.11573 0.05614 0.44911 0.0
C1328 C 0.11368 0.04153 0.4344 0.0
C1329 C 0.10269 0.04468 0.41745 0.0
C1330 C 0.0938 0.06244 0.41497 0.0
C1331 C 0.09595 0.07713 0.42939 0.0
C1332 C 0.10691 0.07405 0.44638 0.0
C1333 C 0.20642 0.083 0.49601 0.0
C1334 C 0.20322 0.10267 0.50055 0.0
C1335 C 0.19065 0.06998 0.4921 0.0
C1336 C 0.17143 0.07644 0.49254 0.0
C1337 C 0.16819 0.09609 0.49683 0.0
C1338 C 0.18393 0.10907 0.50094 0.0
C1339 C 0.15468 0.06266 0.48858 0.0
C1340 C 0.14268 0.06579 0.47227 0.0
C1341 C 0.15093 0.04623 0.50038 0.0
C1342 C 0.16286 0.04246 0.51807 0.0
C1343 C 0.16493 0.05654 0.5333 0.0
C1344 C 0.17634 0.05295 0.54985 0.0
C1345 C 0.18563 0.03528 0.5514 0.0
C1346 C 0.18349 0.02114 0.53643 0.0
C1347 C 0.17211 0.02466 0.51984 0.0
H1348 H 0.19446 0.03252 0.56423 0.0
H1349 H 0.08528 0.06484 0.40185 0.0
H1350 H 0.7335 0.1976 0.7164 0.0
H1351 H 0.71032 0.17029 0.72207 0.0
H1352 H 0.75836 0.1329 0.73267 0.0
H1353 H 0.78161 0.15999 0.72653 0.0
H1354 H 0.73139 0.11573 0.7082 0.0
H1355 H 0.73155 0.14977 0.77055 0.0
H1356 H 0.72851 0.17821 0.79284 0.0
H1357 H 0.66905 0.18408 0.77411 0.0
H1358 H 0.67182 0.15582 0.75149 0.0
H1359 H 0.67897 0.03596 0.74934 0.0
H1360 H 0.70126 0.06407 0.74474 0.0
H1361 H 0.65213 0.10023 0.73478 0.0
H1362 H 0.62966 0.0722 0.73963 0.0
H1363 H 0.67916 0.11835 0.75864 0.0
H1364 H 0.67891 0.08429 0.69642 0.0
H1365 H 0.68189 0.05588 0.67407 0.0
H1366 H 0.74149 0.05016 0.69242 0.0
H1367 H 0.73878 0.0784 0.71509 0.0
C1368 C 0.73911 0.18354 0.71986 0.0
C1369 C 0.75938 0.18095 0.72105 0.0
C1370 C 0.72586 0.168 0.72326 0.0
C1371 C 0.73263 0.14962 0.72796 0.0
C1372 C 0.75284 0.14698 0.72912 0.0
C1373 C 0.76609 0.16251 0.72576 0.0
C1374 C 0.71867 0.13299 0.73128 0.0
C1375 C 0.72013 0.1162 0.71941 0.0
C1376 C 0.70368 0.13383 0.74555 0.0
C1377 C 0.70196 0.1508 0.75917 0.0
C1378 C 0.71788 0.15723 0.77106 0.0
C1379 C 0.71619 0.17329 0.78378 0.0
C1380 C 0.69862 0.18298 0.78485 0.0
C1381 C 0.68267 0.17658 0.77324 0.0
C1382 C 0.68428 0.16053 0.76048 0.0
C1383 C 0.67287 0.04988 0.74619 0.0
C1384 C 0.65253 0.05182 0.74473 0.0
C1385 C 0.68565 0.06593 0.74351 0.0
C1386 C 0.67836 0.08418 0.73916 0.0
C1387 C 0.65806 0.08626 0.73807 0.0
C1388 C 0.64524 0.07021 0.74079 0.0
C1389 C 0.69196 0.10105 0.73563 0.0
C1390 C 0.69041 0.11789 0.74743 0.0
C1391 C 0.70688 0.10028 0.72127 0.0
C1392 C 0.70858 0.08335 0.70759 0.0
C1393 C 0.69261 0.07688 0.6958 0.0
C1394 C 0.69425 0.06083 0.68306 0.0
C1395 C 0.71185 0.05119 0.68187 0.0
C1396 C 0.72786 0.05763 0.69338 0.0
C1397 C 0.72628 0.07367 0.70616 0.0
H1398 H 0.7131 0.03876 0.67199 0.0
H1399 H 0.69734 0.19541 0.79471 0.0
H1400 H 0.43912 0.99254 0.49637 0.0
H1401 H 0.41227 0.01426 0.49093 0.0
H1402 H 0.39903 0.01397 0.55298 0.0
H1403 H 0.42533 0.99154 0.55842 0.0
H1404 H 0.36638 0.01042 0.53186 0.0
H1405 H 0.42346 0.05286 0.53209 0.0
H1406 H 0.45648 0.06437 0.52212 0.0
H1407 H 0.4365 0.07013 0.46263 0.0
H1408 H 0.4034 0.0584 0.47219 0.0
H1409 H 0.30602 0.09252 0.53214 0.0
H1410 H 0.33297 0.07098 0.53819 0.0
H1411 H 0.34382 0.06668 0.47579 0.0
H1412 H 0.31693 0.08824 0.46957 0.0
H1413 H 0.3777 0.07296 0.49759 0.0
H1414 H 0.32043 0.03006 0.49797 0.0
H1415 H 0.28748 0.019 0.50861 0.0
H1416 H 0.30813 0.01481 0.56806 0.0
H1417 H 0.34116 0.02611 0.55781 0.0
C1418 C 0.43036 0.99692 0.50884 0.0
C1419 C 0.43441 0.99034 0.52784 0.0
C1420 C 0.41516 0.00951 0.50573 0.0
C1421 C 0.40383 0.01597 0.5216 0.0
C1422 C 0.40765 0.00925 0.54054 0.0
C1423 C 0.4228 0.99657 0.54365 0.0
C1424 C 0.38788 0.0296 0.51838 0.0
C1425 C 0.36892 0.02422 0.52462 0.0
C1426 C 0.39112 0.04745 0.50861 0.0
C1427 C 0.411 0.05457 0.50282 0.0
C1428 C 0.42614 0.05644 0.51685 0.0
C1429 C 0.44487 0.06303 0.51127 0.0
C1430 C 0.4486 0.06793 0.49174 0.0
C1431 C 0.4336 0.0663 0.47775 0.0
C1432 C 0.41484 0.0597 0.48324 0.0
C1433 C 0.31415 0.08702 0.51969 0.0
C1434 C 0.3093 0.09203 0.50036 0.0
C1435 C 0.32949 0.07467 0.52318 0.0
C1436 C 0.34025 0.06712 0.50742 0.0
C1437 C 0.33566 0.07235 0.48814 0.0
C1438 C 0.32026 0.08461 0.48462 0.0
C1439 C 0.35627 0.05372 0.51102 0.0
C1440 C 0.37522 0.05916 0.50486 0.0
C1441 C 0.35305 0.036 0.52098 0.0
C1442 C 0.33322 0.02912 0.52715 0.0
C1443 C 0.31791 0.02694 0.51334 0.0
C1444 C 0.29923 0.0206 0.51929 0.0
C1445 C 0.2957 0.01626 0.53901 0.0
C1446 C 0.31087 0.0182 0.5528 0.0
C1447 C 0.32958 0.02456 0.54692 0.0
H1448 H 0.28122 0.01135 0.54359 0.0
H1449 H 0.46311 0.07303 0.48746 0.0
H1450 H 0.57613 0.51673 0.56277 0.0
H1451 H 0.60369 0.49587 0.55705 0.0
H1452 H 0.59666 0.50173 0.49434 0.0
H1453 H 0.5684 0.52185 0.49993 0.0
H1454 H 0.60307 0.46519 0.5028 0.0
H1455 H 0.6333 0.52709 0.52021 0.0
H1456 H 0.63939 0.5568 0.54054 0.0
H1457 H 0.65764 0.52219 0.58874 0.0
H1458 H 0.65139 0.49224 0.56879 0.0
H1459 H 0.69596 0.43002 0.47602 0.0
H1460 H 0.66821 0.45086 0.48132 0.0
H1461 H 0.67142 0.44134 0.54379 0.0
H1462 H 0.69927 0.42052 0.53866 0.0
H1463 H 0.66723 0.4799 0.53507 0.0
H1464 H 0.63664 0.41792 0.51704 0.0
H1465 H 0.63088 0.38857 0.49609 0.0
H1466 H 0.61381 0.4241 0.44813 0.0
H1467 H 0.61974 0.45369 0.46872 0.0
C1468 C 0.58028 0.51341 0.54775 0.0
C1469 C 0.57004 0.52098 0.5318 0.0
C1470 C 0.59621 0.50166 0.5445 0.0
C1471 C 0.60244 0.49747 0.52527 0.0
C1472 C 0.59217 0.50485 0.50931 0.0
C1473 C 0.57613 0.5165 0.51254 0.0
C1474 C 0.61954 0.48522 0.52182 0.0
C1475 C 0.61717 0.46857 0.50963 0.0
C1476 C 0.63785 0.48941 0.53104 0.0
C1477 C 0.6417 0.50741 0.54306 0.0
C1478 C 0.63847 0.5258 0.53519 0.0
C1479 C 0.64197 0.54269 0.54664 0.0
C1480 C 0.64885 0.54138 0.56593 0.0
C1481 C 0.65229 0.52318 0.5738 0.0
C1482 C 0.64879 0.50625 0.56242 0.0
C1483 C 0.69078 0.43234 0.4909 0.0
C1484 C 0.69979 0.42356 0.50692 0.0
C1485 C 0.67488 0.4442 0.49388 0.0
C1486 C 0.66767 0.44749 0.51293 0.0
C1487 C 0.67676 0.43895 0.52898 0.0
C1488 C 0.69262 0.42701 0.526 0.0
C1489 C 0.6507 0.45991 0.51612 0.0
C1490 C 0.65311 0.47657 0.52824 0.0
C1491 C 0.63248 0.45581 0.50674 0.0
C1492 C 0.62882 0.43803 0.49436 0.0
C1493 C 0.63181 0.41948 0.50197 0.0
C1494 C 0.62849 0.4028 0.49017 0.0
C1495 C 0.62204 0.40447 0.47077 0.0
C1496 C 0.61884 0.42283 0.46315 0.0
C1497 C 0.62216 0.43956 0.47488 0.0
H1498 H 0.61947 0.39154 0.46166 0.0
H1499 H 0.65156 0.55448 0.57477 0.0
H1500 H 0.71999 0.2252 0.35167 0.0
H1501 H 0.72548 0.24903 0.37836 0.0
H1502 H 0.70775 0.29481 0.34034 0.0
H1503 H 0.70324 0.27121 0.31324 0.0
H1504 H 0.73889 0.30649 0.35979 0.0
H1505 H 0.67747 0.27686 0.37708 0.0
H1506 H 0.65368 0.24999 0.38384 0.0
H1507 H 0.68916 0.23205 0.43197 0.0
H1508 H 0.71331 0.25867 0.42533 0.0
H1509 H 0.71573 0.35395 0.46274 0.0
H1510 H 0.70614 0.3334 0.43434 0.0
H1511 H 0.76695 0.32466 0.42131 0.0
H1512 H 0.77664 0.34562 0.44934 0.0
H1513 H 0.71089 0.29679 0.42633 0.0
H1514 H 0.7737 0.31873 0.37266 0.0
H1515 H 0.7945 0.34768 0.36498 0.0
H1516 H 0.75058 0.38493 0.3878 0.0
H1517 H 0.72941 0.35623 0.39536 0.0
C1518 C 0.71742 0.24036 0.34892 0.0
C1519 C 0.7112 0.24629 0.33029 0.0
C1520 C 0.72032 0.25394 0.36428 0.0
C1521 C 0.71678 0.27368 0.36144 0.0
C1522 C 0.71051 0.27965 0.34289 0.0
C1523 C 0.70775 0.2661 0.32747 0.0
C1524 C 0.72019 0.28817 0.37767 0.0
C1525 C 0.73272 0.3044 0.37432 0.0
C1526 C 0.71179 0.28568 0.39652 0.0
C1527 C 0.69728 0.26967 0.4006 0.0
C1528 C 0.68028 0.2671 0.38902 0.0
C1529 C 0.66671 0.25193 0.39284 0.0
C1530 C 0.66993 0.2393 0.4083 0.0
C1531 C 0.6867 0.24184 0.41999 0.0
C1532 C 0.70032 0.25698 0.41622 0.0
C1533 C 0.72706 0.34773 0.45377 0.0
C1534 C 0.74695 0.35147 0.45824 0.0
C1535 C 0.72156 0.33595 0.43756 0.0
C1536 C 0.73581 0.32766 0.42556 0.0
C1537 C 0.75568 0.33123 0.43011 0.0
C1538 C 0.7612 0.34315 0.4462 0.0
C1539 C 0.72993 0.31488 0.40855 0.0
C1540 C 0.71697 0.29895 0.41176 0.0
C1541 C 0.7375 0.31794 0.38944 0.0
C1542 C 0.75005 0.33531 0.38474 0.0
C1543 C 0.76845 0.3331 0.37596 0.0
C1544 C 0.78031 0.34947 0.37164 0.0
C1545 C 0.7739 0.36813 0.37595 0.0
C1546 C 0.75557 0.37047 0.38453 0.0
C1547 C 0.74364 0.35415 0.38886 0.0
H1548 H 0.78311 0.38078 0.37261 0.0
H1549 H 0.65941 0.22756 0.41123 0.0
H1550 H 0.47171 0.02543 0.91278 0.0
H1551 H 0.49466 0.01949 0.88597 0.0
H1552 H 0.54295 0.03701 0.92405 0.0
H1553 H 0.52019 0.04254 0.95107 0.0
H1554 H 0.54484 0.05437 0.88755 0.0
H1555 H 0.53464 0.99018 0.91384 0.0
H1556 H 0.51474 0.96163 0.92446 0.0
H1557 H 0.49119 0.95407 0.86606 0.0
H1558 H 0.51076 0.98276 0.85515 0.0
H1559 H 0.62284 0.02384 0.828 0.0
H1560 H 0.59989 0.02823 0.85507 0.0
H1561 H 0.55296 0.00351 0.81888 0.0
H1562 H 0.57597 0.99851 0.79197 0.0
H1563 H 0.54994 0.98984 0.85439 0.0
H1564 H 0.55912 0.05348 0.82765 0.0
H1565 H 0.57782 0.08253 0.81637 0.0
H1566 H 0.60173 0.09191 0.87441 0.0
H1567 H 0.58337 0.06275 0.88598 0.0
C1568 C 0.48722 0.02777 0.91554 0.0
C1569 C 0.49411 0.03446 0.93409 0.0
C1570 C 0.5003 0.02444 0.90019 0.0
C1571 C 0.52048 0.02774 0.90308 0.0
C1572 C 0.52741 0.03446 0.92151 0.0
C1573 C 0.51437 0.03768 0.9369 0.0
C1574 C 0.53441 0.02443 0.88682 0.0
C1575 C 0.54617 0.04022 0.88044 0.0
C1576 C 0.53567 0.00608 0.87724 0.0
C1577 C 0.52402 0.98874 0.88373 0.0
C1578 C 0.5251 0.98253 0.9033 0.0
C1579 C 0.51391 0.9663 0.90936 0.0
C1580 C 0.50167 0.95608 0.89595 0.0
C1581 C 0.50066 0.96202 0.87643 0.0
C1582 C 0.51181 0.97825 0.8703 0.0
C1583 C 0.60764 0.01933 0.82581 0.0
C1584 C 0.60121 0.01091 0.80782 0.0
C1585 C 0.59451 0.02192 0.84127 0.0
C1586 C 0.57462 0.01649 0.83891 0.0
C1587 C 0.56822 0.00784 0.82104 0.0
C1588 C 0.58139 0.00503 0.80565 0.0
C1589 C 0.56049 0.01981 0.85507 0.0
C1590 C 0.54865 0.00403 0.86144 0.0
C1591 C 0.559 0.03823 0.86453 0.0
C1592 C 0.57001 0.05582 0.85763 0.0
C1593 C 0.56848 0.06166 0.83797 0.0
C1594 C 0.579 0.07816 0.83153 0.0
C1595 C 0.59099 0.08903 0.84465 0.0
C1596 C 0.59245 0.08346 0.86426 0.0
C1597 C 0.58198 0.06695 0.87077 0.0
H1598 H 0.59913 0.1018 0.83964 0.0
H1599 H 0.49301 0.94352 0.90068 0.0
H1600 H 0.28218 0.28518 0.3459 0.0
H1601 H 0.2775 0.26202 0.37239 0.0
H1602 H 0.29482 0.21541 0.33354 0.0
H1603 H 0.2984 0.23828 0.30663 0.0
H1604 H 0.26462 0.20371 0.35334 0.0
H1605 H 0.32577 0.23506 0.37018 0.0
H1606 H 0.34912 0.26259 0.37692 0.0
H1607 H 0.31414 0.28109 0.4257 0.0
H1608 H 0.29042 0.25381 0.41908 0.0
H1609 H 0.29072 0.15955 0.4555 0.0
H1610 H 0.29938 0.17953 0.42721 0.0
H1611 H 0.23814 0.18655 0.41494 0.0
H1612 H 0.22937 0.16616 0.44284 0.0
H1613 H 0.29369 0.21578 0.41962 0.0
H1614 H 0.23038 0.19091 0.36645 0.0
H1615 H 0.2102 0.16126 0.35864 0.0
H1616 H 0.25549 0.12578 0.38053 0.0
H1617 H 0.27605 0.15519 0.38821 0.0
C1618 C 0.28482 0.26998 0.34291 0.0
C1619 C 0.29067 0.26362 0.3241 0.0
C1620 C 0.28239 0.25678 0.35817 0.0
C1621 C 0.28608 0.237 0.35505 0.0
C1622 C 0.29196 0.23061 0.33632 0.0
C1623 C 0.2942 0.24376 0.321 0.0
C1624 C 0.28326 0.22292 0.37118 0.0
C1625 C 0.27103 0.20632 0.36782 0.0
C1626 C 0.29197 0.22607 0.38995 0.0
C1627 C 0.30623 0.24247 0.39403 0.0
C1628 C 0.32298 0.24508 0.38226 0.0
C1629 C 0.3363 0.26063 0.38607 0.0
C1630 C 0.33309 0.27361 0.4017 0.0
C1631 C 0.31659 0.27103 0.41358 0.0
C1632 C 0.30322 0.25552 0.40982 0.0
C1633 C 0.2791 0.16527 0.44671 0.0
C1634 C 0.25936 0.16122 0.45136 0.0
C1635 C 0.28407 0.17672 0.43058 0.0
C1636 C 0.26942 0.18437 0.41882 0.0
C1637 C 0.2497 0.18048 0.42355 0.0
C1638 C 0.24471 0.16888 0.43957 0.0
C1639 C 0.27472 0.1968 0.40188 0.0
C1640 C 0.28738 0.21311 0.40511 0.0
C1641 C 0.26687 0.19308 0.38283 0.0
C1642 C 0.25468 0.17528 0.37807 0.0
C1643 C 0.23607 0.17678 0.36952 0.0
C1644 C 0.22455 0.16002 0.36513 0.0
C1645 C 0.23153 0.14165 0.36914 0.0
C1646 C 0.25007 0.14002 0.3775 0.0
C1647 C 0.26165 0.15673 0.38189 0.0
H1648 H 0.22259 0.12869 0.36575 0.0
H1649 H 0.34342 0.28564 0.40463 0.0
H1650 H 0.47999 0.47477 0.95007 0.0
H1651 H 0.4564 0.48079 0.92398 0.0
H1652 H 0.50377 0.4944 0.88414 0.0
H1653 H 0.52746 0.48836 0.91015 0.0
H1654 H 0.47539 0.52033 0.88154 0.0
H1655 H 0.47902 0.45067 0.88126 0.0
H1656 H 0.47774 0.41807 0.89584 0.0
H1657 H 0.41787 0.42537 0.91239 0.0
H1658 H 0.41889 0.45815 0.89815 0.0
H1659 H 0.42331 0.51334 0.7913 0.0
H1660 H 0.44585 0.50858 0.81856 0.0
H1661 H 0.39706 0.49545 0.85681 0.0
H1662 H 0.37436 0.49994 0.82953 0.0
H1663 H 0.42551 0.4697 0.86088 0.0
H1664 H 0.42174 0.53918 0.86032 0.0
H1665 H 0.42319 0.57172 0.8456 0.0
H1666 H 0.48345 0.56468 0.83043 0.0
H1667 H 0.48229 0.53197 0.84482 0.0
C1668 C 0.48538 0.4789 0.93571 0.0
C1669 C 0.50558 0.48102 0.93214 0.0
C1670 C 0.47189 0.48236 0.92083 0.0
C1671 C 0.47834 0.48784 0.90207 0.0
C1672 C 0.49849 0.49021 0.89853 0.0
C1673 C 0.51199 0.4868 0.91341 0.0
C1674 C 0.4641 0.49109 0.8861 0.0
C1675 C 0.46463 0.50919 0.87685 0.0
C1676 C 0.44977 0.4767 0.88033 0.0
C1677 C 0.4491 0.45695 0.88881 0.0
C1678 C 0.46563 0.44539 0.88814 0.0
C1679 C 0.46494 0.42687 0.89632 0.0
C1680 C 0.44775 0.41967 0.90508 0.0
C1681 C 0.43119 0.43097 0.90563 0.0
C1682 C 0.43181 0.44952 0.89749 0.0
C1683 C 0.41734 0.50951 0.80552 0.0
C1684 C 0.39703 0.50706 0.80826 0.0
C1685 C 0.43025 0.50686 0.82111 0.0
C1686 C 0.42312 0.50187 0.83977 0.0
C1687 C 0.40286 0.49934 0.84253 0.0
C1688 C 0.38992 0.50196 0.82694 0.0
C1689 C 0.43684 0.49892 0.85626 0.0
C1690 C 0.43622 0.48087 0.86561 0.0
C1691 C 0.4511 0.51335 0.8621 0.0
C1692 C 0.45187 0.53305 0.85349 0.0
C1693 C 0.43525 0.54451 0.8537 0.0
C1694 C 0.43603 0.56299 0.84544 0.0
C1695 C 0.45338 0.57024 0.83704 0.0
C1696 C 0.47001 0.55904 0.83693 0.0
C1697 C 0.46931 0.54053 0.84515 0.0
H1698 H 0.45396 0.58456 0.83065 0.0
H1699 H 0.44724 0.40533 0.91141 0.0
H1700 H 0.71238 0.74587 0.1855 0.0
H1701 H 0.71846 0.72417 0.15744 0.0
H1702 H 0.74053 0.77311 0.12419 0.0
H1703 H 0.73364 0.79499 0.1518 0.0
H1704 H 0.71775 0.75003 0.10177 0.0
H1705 H 0.77141 0.74124 0.14618 0.0
H1706 H 0.7868 0.73397 0.17793 0.0
H1707 H 0.75916 0.67682 0.17653 0.0
H1708 H 0.74338 0.68386 0.14488 0.0
H1709 H 0.76876 0.69983 0.02719 0.0
H1710 H 0.76091 0.72029 0.05566 0.0
H1711 H 0.73594 0.67014 0.08501 0.0
H1712 H 0.74387 0.6495 0.05665 0.0
H1713 H 0.75924 0.69296 0.10956 0.0
H1714 H 0.70644 0.70176 0.06432 0.0
H1715 H 0.6916 0.70926 0.03237 0.0
H1716 H 0.71835 0.76678 0.03516 0.0
H1717 H 0.73358 0.75952 0.06701 0.0
C1718 C 0.71831 0.75205 0.17213 0.0
C1719 C 0.72265 0.77216 0.17095 0.0
C1720 C 0.72197 0.7396 0.15618 0.0
C1721 C 0.73024 0.74698 0.13882 0.0
C1722 C 0.73424 0.76708 0.13747 0.0
C1723 C 0.73048 0.77954 0.15335 0.0
C1724 C 0.73479 0.73381 0.12203 0.0
C1725 C 0.72701 0.73769 0.10344 0.0
C1726 C 0.74651 0.71744 0.12429 0.0
C1727 C 0.75606 0.71315 0.14326 0.0
C1728 C 0.7685 0.72718 0.15272 0.0
C1729 C 0.77731 0.72309 0.17068 0.0
C1730 C 0.77392 0.70497 0.17927 0.0
C1731 C 0.76175 0.69087 0.16988 0.0
C1732 C 0.75288 0.69489 0.15192 0.0
C1733 C 0.76165 0.69312 0.03971 0.0
C1734 C 0.75688 0.67304 0.03962 0.0
C1735 C 0.7571 0.70486 0.05594 0.0
C1736 C 0.74763 0.69676 0.07234 0.0
C1737 C 0.7432 0.67667 0.07247 0.0
C1738 C 0.74771 0.66492 0.05623 0.0
C1739 C 0.74232 0.70929 0.08933 0.0
C1740 C 0.74994 0.70528 0.10794 0.0
C1741 C 0.73053 0.72559 0.08708 0.0
C1742 C 0.72129 0.73003 0.06797 0.0
C1743 C 0.70928 0.71596 0.05805 0.0
C1744 C 0.70078 0.72017 0.03997 0.0
C1745 C 0.70407 0.73847 0.03171 0.0
C1746 C 0.71583 0.7526 0.04156 0.0
C1747 C 0.72438 0.74845 0.05964 0.0
H1748 H 0.69748 0.7417 0.01771 0.0
H1749 H 0.78075 0.70183 0.19318 0.0
H1750 H 0.02261 0.07264 0.08634 0.0
H1751 H 0.00138 0.07187 0.11546 0.0
H1752 H 0.98048 0.01384 0.09904 0.0
H1753 H 0.00206 0.01436 0.07017 0.0
H1754 H 0.95054 0.04333 0.10906 0.0
H1755 H 0.00914 0.01456 0.13316 0.0
H1756 H 0.04462 0.01351 0.13928 0.0
H1757 H 0.04283 0.06627 0.17398 0.0
H1758 H 0.00735 0.06779 0.16778 0.0
H1759 H 0.90109 0.01269 0.19488 0.0
H1760 H 0.92217 0.01545 0.16608 0.0
H1761 H 0.95151 0.06639 0.192 0.0
H1762 H 0.9306 0.0636 0.22105 0.0
H1763 H 0.97739 0.04197 0.17694 0.0
H1764 H 0.91949 0.07093 0.15457 0.0
H1765 H 0.8842 0.07365 0.14824 0.0
H1766 H 0.88456 0.02312 0.11014 0.0
H1767 H 0.91982 0.01992 0.11647 0.0
C1768 C 0.01349 0.05974 0.08903 0.0
C1769 C 0.01392 0.04354 0.07616 0.0
C1770 C 0.00144 0.05931 0.1056 0.0
C1771 C 0.98944 0.0428 0.10931 0.0
C1772 C 0.98968 0.02669 0.09635 0.0
C1773 C 0.00202 0.02696 0.07999 0.0
C1774 C 0.9766 0.04236 0.12675 0.0
C1775 C 0.95633 0.04278 0.12392 0.0
C1776 C 0.98433 0.04231 0.14605 0.0
C1777 C 0.00564 0.04142 0.1498 0.0
C1778 C 0.01635 0.02605 0.14191 0.0
C1779 C 0.03645 0.02535 0.14543 0.0
C1780 C 0.04599 0.03985 0.15696 0.0
C1781 C 0.03543 0.05507 0.16502 0.0
C1782 C 0.01532 0.05586 0.16152 0.0
C1783 C 0.91196 0.02454 0.19445 0.0
C1784 C 0.91414 0.03796 0.21026 0.0
C1785 C 0.92396 0.02614 0.17793 0.0
C1786 C 0.93828 0.04125 0.1768 0.0
C1787 C 0.94052 0.05464 0.19256 0.0
C1788 C 0.92852 0.05306 0.20912 0.0
C1789 C 0.95117 0.04274 0.15934 0.0
C1790 C 0.97151 0.04256 0.16213 0.0
C1791 C 0.94349 0.04325 0.13998 0.0
C1792 C 0.92227 0.04507 0.13616 0.0
C1793 C 0.91201 0.06029 0.14498 0.0
C1794 C 0.89202 0.06194 0.14136 0.0
C1795 C 0.88214 0.04854 0.12884 0.0
C1796 C 0.89224 0.03348 0.11986 0.0
C1797 C 0.91223 0.03175 0.12344 0.0
H1798 H 0.86666 0.04985 0.12605 0.0
H1799 H 0.06155 0.03927 0.15968 0.0
H1800 H 0.31094 0.73916 0.17433 0.0
H1801 H 0.30733 0.76154 0.14711 0.0
H1802 H 0.24824 0.77209 0.1656 0.0
H1803 H 0.25163 0.74907 0.19239 0.0
H1804 H 0.24866 0.76835 0.12795 0.0
H1805 H 0.28796 0.80571 0.17416 0.0
H1806 H 0.31569 0.81274 0.19677 0.0
H1807 H 0.35593 0.80781 0.14869 0.0
H1808 H 0.32845 0.80048 0.12582 0.0
H1809 H 0.23946 0.85275 0.06935 0.0
H1810 H 0.24274 0.83203 0.098 0.0
H1811 H 0.29662 0.81072 0.07463 0.0
H1812 H 0.29341 0.83126 0.04586 0.0
H1813 H 0.29824 0.82117 0.11533 0.0
H1814 H 0.25756 0.78297 0.06962 0.0
H1815 H 0.22905 0.77703 0.04774 0.0
H1816 H 0.1903 0.78544 0.09654 0.0
H1817 H 0.2186 0.79172 0.11866 0.0
C1818 C 0.29724 0.74635 0.17259 0.0
C1819 C 0.28159 0.7425 0.18545 0.0
C1820 C 0.29519 0.7592 0.15711 0.0
C1821 C 0.27763 0.76883 0.1545 0.0
C1822 C 0.26194 0.76488 0.16732 0.0
C1823 C 0.26387 0.75176 0.1826 0.0
C1824 C 0.27549 0.78268 0.13817 0.0
C1825 C 0.25936 0.78008 0.12543 0.0
C1826 C 0.28958 0.79785 0.13462 0.0
C1827 C 0.30615 0.80238 0.14831 0.0
C1828 C 0.30273 0.80599 0.16843 0.0
C1829 C 0.31841 0.81005 0.18129 0.0
C1830 C 0.33756 0.81068 0.17418 0.0
C1831 C 0.34109 0.8073 0.15418 0.0
C1832 C 0.32546 0.80321 0.14126 0.0
C1833 C 0.25205 0.84372 0.07034 0.0
C1834 C 0.26615 0.84358 0.05531 0.0
C1835 C 0.25386 0.83186 0.08668 0.0
C1836 C 0.26986 0.8198 0.08833 0.0
C1837 C 0.28417 0.81995 0.07359 0.0
C1838 C 0.28227 0.83163 0.05715 0.0
C1839 C 0.27151 0.80672 0.10525 0.0
C1840 C 0.28754 0.80948 0.11803 0.0
C1841 C 0.25721 0.79189 0.10901 0.0
C1842 C 0.24019 0.78802 0.09574 0.0
C1843 C 0.24296 0.78372 0.07565 0.0
C1844 C 0.22684 0.78026 0.06321 0.0
C1845 C 0.20788 0.78091 0.07073 0.0
C1846 C 0.205 0.78497 0.09072 0.0
C1847 C 0.22107 0.78847 0.10322 0.0
H1848 H 0.19541 0.77823 0.06109 0.0
H1849 H 0.34968 0.81382 0.18416 0.0
H1850 H 0.96827 0.48289 0.09026 0.0
H1851 H 0.98764 0.48659 0.12045 0.0
H1852 H 0.03949 0.47167 0.08837 0.0
H1853 H 0.02023 0.46813 0.05803 0.0
H1854 H 0.03634 0.45244 0.12293 0.0
H1855 H 0.03219 0.51831 0.10135 0.0
H1856 H 0.01531 0.54732 0.09045 0.0
H1857 H 0.98406 0.54954 0.14513 0.0
H1858 H 0.00056 0.52036 0.15626 0.0
H1859 H 0.10709 0.48272 0.19449 0.0
H1860 H 0.08734 0.47885 0.16461 0.0
H1861 H 0.03634 0.49614 0.1968 0.0
H1862 H 0.05609 0.50041 0.22672 0.0
H1863 H 0.03872 0.51402 0.16231 0.0
H1864 H 0.04278 0.44837 0.18408 0.0
H1865 H 0.05929 0.41918 0.19506 0.0
H1866 H 0.09028 0.41626 0.14026 0.0
H1867 H 0.07414 0.44561 0.12905 0.0
C1868 C 0.98383 0.48062 0.08958 0.0
C1869 C 0.99274 0.47531 0.07173 0.0
C1870 C 0.99487 0.48268 0.10685 0.0
C1871 C 0.01503 0.47958 0.1066 0.0
C1872 C 0.02394 0.4741 0.08887 0.0
C1873 C 0.01292 0.47204 0.07157 0.0
C1874 C 0.0268 0.48191 0.12487 0.0
C1875 C 0.03709 0.46597 0.13142 0.0
C1876 C 0.02733 0.49942 0.13617 0.0
C1877 C 0.01747 0.51704 0.12956 0.0
C1878 C 0.0216 0.52489 0.11099 0.0
C1879 C 0.01212 0.54138 0.10478 0.0
C1880 C 0.99858 0.55023 0.11707 0.0
C1881 C 0.99454 0.54265 0.13562 0.0
C1882 C 0.00396 0.52615 0.14189 0.0
C1883 C 0.09166 0.48565 0.19525 0.0
C1884 C 0.08314 0.49182 0.213 0.0
C1885 C 0.08037 0.48335 0.17816 0.0
C1886 C 0.06031 0.48697 0.17853 0.0
C1887 C 0.05179 0.49323 0.1962 0.0
C1888 C 0.06309 0.49562 0.21329 0.0
C1889 C 0.04831 0.48454 0.16039 0.0
C1890 C 0.03797 0.50046 0.15385 0.0
C1891 C 0.0477 0.46699 0.14913 0.0
C1892 C 0.05739 0.4493 0.1558 0.0
C1893 C 0.05323 0.44159 0.17443 0.0
C1894 C 0.0625 0.425 0.18068 0.0
C1895 C 0.07586 0.4159 0.16838 0.0
C1896 C 0.07994 0.42334 0.14978 0.0
C1897 C 0.07072 0.43994 0.14346 0.0
H1898 H 0.08303 0.40305 0.17325 0.0
H1899 H 0.99126 0.563 0.11223 0.0
H1900 H 0.30192 0.71518 0.27016 0.0
H1901 H 0.3298 0.71902 0.29269 0.0
H1902 H 0.36818 0.73023 0.24357 0.0
H1903 H 0.34043 0.7259 0.22089 0.0
H1904 H 0.38367 0.70507 0.26924 0.0
H1905 H 0.35393 0.76724 0.27259 0.0
H1906 H 0.32688 0.78956 0.27731 0.0
H1907 H 0.31901 0.76986 0.33646 0.0
H1908 H 0.34586 0.7472 0.332 0.0
H1909 H 0.466 0.74498 0.32111 0.0
H1910 H 0.43773 0.74001 0.29937 0.0
H1911 H 0.40054 0.7301 0.34966 0.0
H1912 H 0.42875 0.73532 0.3716 0.0
H1913 H 0.38411 0.75402 0.32387 0.0
H1914 H 0.41419 0.69223 0.32078 0.0
H1915 H 0.44119 0.66984 0.31608 0.0
H1916 H 0.44835 0.68865 0.25653 0.0
H1917 H 0.42155 0.71137 0.26097 0.0
C1918 C 0.31633 0.7183 0.26414 0.0
C1919 C 0.31899 0.72027 0.24375 0.0
C1920 C 0.3322 0.72066 0.27704 0.0
C1921 C 0.35101 0.7251 0.2698 0.0
C1922 C 0.35376 0.72686 0.24945 0.0
C1923 C 0.33789 0.72454 0.23654 0.0
C1924 C 0.36785 0.72787 0.28347 0.0
C1925 C 0.38389 0.71594 0.28104 0.0
C1926 C 0.36787 0.74172 0.29914 0.0
C1927 C 0.35178 0.75538 0.30189 0.0
C1928 C 0.34633 0.76755 0.28655 0.0
C1929 C 0.33105 0.78028 0.28919 0.0
C1930 C 0.3212 0.78109 0.30716 0.0
C1931 C 0.32664 0.7692 0.32254 0.0
C1932 C 0.3419 0.75642 0.31997 0.0
C1933 C 0.45183 0.74171 0.32758 0.0
C1934 C 0.44964 0.74048 0.3481 0.0
C1935 C 0.43569 0.73879 0.31511 0.0
C1936 C 0.41708 0.73445 0.32289 0.0
C1937 C 0.4148 0.7334 0.34336 0.0
C1938 C 0.43094 0.73634 0.35587 0.0
C1939 C 0.39998 0.73126 0.30961 0.0
C1940 C 0.38388 0.74312 0.31211 0.0
C1941 C 0.39989 0.71733 0.29401 0.0
C1942 C 0.41598 0.70363 0.29127 0.0
C1943 C 0.42162 0.69171 0.30673 0.0
C1944 C 0.43687 0.67894 0.3041 0.0
C1945 C 0.44651 0.67786 0.28603 0.0
C1946 C 0.44088 0.68952 0.27053 0.0
C1947 C 0.42565 0.70233 0.27309 0.0
H1948 H 0.45831 0.66796 0.28403 0.0
H1949 H 0.30937 0.79096 0.30917 0.0
H1950 H 0.00728 0.44093 0.01063 0.0
H1951 H 0.01255 0.41275 0.98909 0.0
H1952 H 0.95015 0.40275 0.98325 0.0
H1953 H 0.94475 0.43068 0.00522 0.0
H1954 H 0.96856 0.36938 0.99054 0.0
H1955 H 0.97611 0.42212 0.94589 0.0
H1956 H 0.98929 0.45365 0.93406 0.0
H1957 H 0.0473 0.43184 0.93383 0.0
H1958 H 0.0345 0.40025 0.94594 0.0
H1959 H 0.9732 0.30012 0.91194 0.0
H1960 H 0.96644 0.3292 0.93162 0.0
H1961 H 0.02838 0.34126 0.93915 0.0
H1962 H 0.03531 0.31229 0.91931 0.0
H1963 H 0.00919 0.37386 0.93027 0.0
H1964 H 0.00177 0.32158 0.97597 0.0
H1965 H 0.98865 0.29009 0.98796 0.0
H1966 H 0.93036 0.31114 0.98623 0.0
H1967 H 0.94312 0.3427 0.97397 0.0
C1968 C 0.99468 0.43268 0.00482 0.0
C1969 C 0.9756 0.43801 0.00962 0.0
C1970 C 0.99771 0.4167 0.99238 0.0
C1971 C 0.98174 0.40578 0.98442 0.0
C1972 C 0.96267 0.41103 0.98919 0.0
C1973 C 0.95962 0.42706 0.00161 0.0
C1974 C 0.98499 0.3886 0.9715 0.0
C1975 C 0.97718 0.3704 0.97718 0.0
C1976 C 0.99661 0.3899 0.95434 0.0
C1977 C 0.00436 0.40887 0.947 0.0
C1978 C 0.9917 0.42409 0.94347 0.0
C1979 C 0.9991 0.44197 0.93669 0.0
C1980 C 0.01913 0.44476 0.93324 0.0
C1981 C 0.03179 0.42966 0.93653 0.0
C1982 C 0.02447 0.41176 0.94333 0.0
C1983 C 0.9854 0.30895 0.91778 0.0
C1984 C 0.0048 0.30384 0.91413 0.0
C1985 C 0.9815 0.32553 0.92907 0.0
C1986 C 0.99691 0.33727 0.93701 0.0
C1987 C 0.01629 0.33238 0.93317 0.0
C1988 C 0.02021 0.31578 0.92189 0.0
C1989 C 0.99284 0.35464 0.94936 0.0
C1990 C 0.0005 0.37287 0.94358 0.0
C1991 C 0.98109 0.35337 0.96644 0.0
C1992 C 0.97339 0.33443 0.97386 0.0
C1993 C 0.98614 0.31944 0.97799 0.0
C1994 C 0.97877 0.30159 0.98487 0.0
C1995 C 0.95868 0.2986 0.9878 0.0
C1996 C 0.94592 0.31347 0.98392 0.0
C1997 C 0.95321 0.33135 0.97702 0.0
H1998 H 0.953 0.28476 0.99313 0.0
H1999 H 0.02483 0.45861 0.92798 0.0
H2000 H 0.6829 0.76184 0.2297 0.0
H2001 H 0.65444 0.75766 0.25114 0.0
H2002 H 0.6461 0.81957 0.2505 0.0
H2003 H 0.67457 0.82384 0.22908 0.0
H2004 H 0.64376 0.8064 0.287 0.0
H2005 H 0.61586 0.7877 0.2245 0.0
H2006 H 0.61323 0.76952 0.19292 0.0
H2007 H 0.60738 0.71566 0.22376 0.0
H2008 H 0.61026 0.7335 0.25555 0.0
H2009 H 0.54861 0.80512 0.32869 0.0
H2010 H 0.57626 0.80888 0.30621 0.0
H2011 H 0.58686 0.74763 0.3103 0.0
H2012 H 0.55914 0.74368 0.33277 0.0
H2013 H 0.58785 0.76038 0.27202 0.0
H2014 H 0.61588 0.77969 0.33464 0.0
H2015 H 0.61804 0.79836 0.36596 0.0
H2016 H 0.62307 0.8518 0.33432 0.0
H2017 H 0.62066 0.83345 0.30279 0.0
C2018 C 0.67484 0.77452 0.23392 0.0
C2019 C 0.68097 0.79317 0.22772 0.0
C2020 C 0.65859 0.77212 0.24618 0.0
C2021 C 0.64806 0.78829 0.2523 0.0
C2022 C 0.65406 0.8069 0.246 0.0
C2023 C 0.67034 0.80932 0.23381 0.0
C2024 C 0.63113 0.78589 0.26575 0.0
C2025 C 0.63141 0.79654 0.28359 0.0
C2026 C 0.61522 0.7727 0.2615 0.0
C2027 C 0.61347 0.76193 0.24241 0.0
C2028 C 0.61418 0.77196 0.22455 0.0
C2029 C 0.61261 0.76172 0.20661 0.0
C2030 C 0.61019 0.74145 0.20633 0.0
C2031 C 0.60929 0.73137 0.224 0.0
C2032 C 0.61087 0.74154 0.24198 0.0
C2033 C 0.55683 0.79244 0.32485 0.0
C2034 C 0.55171 0.77411 0.33256 0.0
C2035 C 0.57266 0.79464 0.31204 0.0
C2036 C 0.58368 0.77856 0.30672 0.0
C2037 C 0.57853 0.76021 0.31425 0.0
C2038 C 0.56275 0.75801 0.32714 0.0
C2039 C 0.60052 0.7809 0.2932 0.0
C2040 C 0.60022 0.77023 0.27539 0.0
C2041 C 0.61636 0.79415 0.29741 0.0
C2042 C 0.61789 0.8052 0.31636 0.0
C2043 C 0.61728 0.79543 0.33436 0.0
C2044 C 0.61859 0.80595 0.35215 0.0
C2045 C 0.62064 0.82625 0.35213 0.0
C2046 C 0.62145 0.83607 0.33431 0.0
C2047 C 0.62014 0.82562 0.31648 0.0
H2048 H 0.62165 0.83437 0.36592 0.0
H2049 H 0.60898 0.73355 0.19243 0.0
H2050 H 0.03346 0.09835 0.03528 0.0
H2051 H 0.02904 0.12398 0.01139 0.0
H2052 H 0.03068 0.08145 0.96397 0.0
H2053 H 0.03517 0.05572 0.98782 0.0
H2054 H 0.0519 0.1138 0.95522 0.0
H2055 H 0.98742 0.09904 0.97954 0.0
H2056 H 0.96213 0.094 0.00493 0.0
H2057 H 0.97129 0.15315 0.02535 0.0
H2058 H 0.99685 0.15846 0.00025 0.0
H2059 H 0.01263 0.17401 0.88169 0.0
H2060 H 0.01805 0.14772 0.9046 0.0
H2061 H 0.01715 0.18877 0.95337 0.0
H2062 H 0.01147 0.21508 0.93063 0.0
H2063 H 0.99524 0.15655 0.96085 0.0
H2064 H 0.06008 0.17108 0.93662 0.0
H2065 H 0.08535 0.17594 0.91118 0.0
H2066 H 0.07528 0.11705 0.89035 0.0
H2067 H 0.04974 0.11191 0.91551 0.0
C2068 C 0.03277 0.09445 0.01977 0.0
C2069 C 0.03453 0.07501 0.01343 0.0
C2070 C 0.03026 0.1091 0.00614 0.0
C2071 C 0.02925 0.10458 0.98592 0.0
C2072 C 0.03141 0.08525 0.9795 0.0
C2073 C 0.03401 0.07059 0.99314 0.0
C2074 C 0.0258 0.12001 0.97149 0.0
C2075 C 0.03937 0.12298 0.95627 0.0
C2076 C 0.00964 0.13221 0.9731 0.0
C2077 C 0.99418 0.12909 0.98813 0.0
C2078 C 0.98415 0.11093 0.98954 0.0
C2079 C 0.96975 0.10803 0.00386 0.0
C2080 C 0.96514 0.12323 0.01678 0.0
C2081 C 0.97489 0.14138 0.01535 0.0
C2082 C 0.98932 0.14435 0.00107 0.0
C2083 C 0.01363 0.17746 0.89728 0.0
C2084 C 0.01164 0.19665 0.90433 0.0
C2085 C 0.01681 0.16242 0.91035 0.0
C2086 C 0.01819 0.16632 0.93068 0.0
C2087 C 0.01614 0.18544 0.93774 0.0
C2088 C 0.01295 0.20047 0.92471 0.0
C2089 C 0.02142 0.15045 0.94466 0.0
C2090 C 0.00777 0.14736 0.95978 0.0
C2091 C 0.03748 0.13814 0.94292 0.0
C2092 C 0.05286 0.14118 0.92782 0.0
C2093 C 0.06314 0.15922 0.92651 0.0
C2094 C 0.07754 0.16201 0.91216 0.0
C2095 C 0.08188 0.14683 0.89912 0.0
C2096 C 0.07188 0.1288 0.90044 0.0
C2097 C 0.05746 0.12594 0.91475 0.0
H2098 H 0.09304 0.14902 0.88803 0.0
H2099 H 0.95399 0.12096 0.02786 0.0
H2100 H 0.34862 0.28558 0.28517 0.0
H2101 H 0.37472 0.28166 0.26087 0.0
H2102 H 0.33225 0.28282 0.21392 0.0
H2103 H 0.30611 0.28689 0.23816 0.0
H2104 H 0.35897 0.25159 0.21133 0.0
H2105 H 0.35919 0.32122 0.22059 0.0
H2106 H 0.36047 0.35183 0.24012 0.0
H2107 H 0.41708 0.33836 0.26245 0.0
H2108 H 0.41599 0.30751 0.24326 0.0
H2109 H 0.42522 0.25832 0.13174 0.0
H2110 H 0.39866 0.26387 0.15492 0.0
H2111 H 0.44082 0.27527 0.20148 0.0
H2112 H 0.46744 0.27042 0.17822 0.0
H2113 H 0.4136 0.30048 0.20411 0.0
H2114 H 0.41395 0.23109 0.19666 0.0
H2115 H 0.41325 0.19955 0.17872 0.0
H2116 H 0.35668 0.21109 0.15503 0.0
H2117 H 0.35716 0.24283 0.17263 0.0
C2118 C 0.3449 0.28498 0.26966 0.0
C2119 C 0.32541 0.28655 0.26348 0.0
C2120 C 0.35977 0.28283 0.25584 0.0
C2121 C 0.35535 0.28203 0.23565 0.0
C2122 C 0.3359 0.28344 0.22945 0.0
C2123 C 0.32105 0.28586 0.24326 0.0
C2124 C 0.37105 0.2795 0.22103 0.0
C2125 C 0.37079 0.26237 0.2095 0.0
C2126 C 0.3867 0.29336 0.21916 0.0
C2127 C 0.38742 0.31195 0.23064 0.0
C2128 C 0.37183 0.3247 0.2298 0.0
C2129 C 0.37254 0.34211 0.24078 0.0
C2130 C 0.38882 0.34702 0.25256 0.0
C2131 C 0.40446 0.33453 0.25334 0.0
C2132 C 0.40381 0.31709 0.2424 0.0
C2133 C 0.42883 0.262 0.14692 0.0
C2134 C 0.44841 0.26386 0.15317 0.0
C2135 C 0.41363 0.26509 0.16018 0.0
C2136 C 0.41772 0.26969 0.18003 0.0
C2137 C 0.43729 0.27173 0.18625 0.0
C2138 C 0.4525 0.2689 0.17294 0.0
C2139 C 0.40164 0.27247 0.19433 0.0
C2140 C 0.4018 0.28966 0.20584 0.0
C2141 C 0.38603 0.25851 0.19638 0.0
C2142 C 0.38568 0.23942 0.1858 0.0
C2143 C 0.40143 0.22697 0.1875 0.0
C2144 C 0.40106 0.20904 0.17742 0.0
C2145 C 0.38496 0.20334 0.1657 0.0
C2146 C 0.36916 0.21554 0.16408 0.0
C2147 C 0.36946 0.23349 0.17412 0.0
H2148 H 0.3847 0.18946 0.1579 0.0
H2149 H 0.38935 0.36051 0.26105 0.0
H2150 H 0.55793 0.43199 0.98802 0.0
H2151 H 0.55265 0.40444 0.00984 0.0
H2152 H 0.491 0.41546 0.01202 0.0
H2153 H 0.49629 0.44353 0.9909 0.0
H2154 H 0.50451 0.40848 0.04772 0.0
H2155 H 0.50876 0.37801 0.98382 0.0
H2156 H 0.5237 0.37083 0.95163 0.0
H2157 H 0.57376 0.3484 0.98054 0.0
H2158 H 0.55923 0.3557 0.01293 0.0
H2159 H 0.46983 0.31827 0.08565 0.0
H2160 H 0.47661 0.34606 0.06451 0.0
H2161 H 0.53835 0.33561 0.06712 0.0
H2162 H 0.5317 0.30768 0.08823 0.0
H2163 H 0.5257 0.3423 0.02947 0.0
H2164 H 0.52069 0.37227 0.0935 0.0
H2165 H 0.50522 0.37921 0.12548 0.0
H2166 H 0.45587 0.40233 0.09593 0.0
H2167 H 0.47093 0.39527 0.06375 0.0
C2168 C 0.54327 0.42865 0.99327 0.0
C2169 C 0.52752 0.43995 0.98769 0.0
C2170 C 0.54025 0.41277 0.00558 0.0
C2171 C 0.52139 0.40775 0.01237 0.0
C2172 C 0.50566 0.41904 0.0069 0.0
C2173 C 0.50868 0.43497 0.99467 0.0
C2174 C 0.51806 0.39089 0.02541 0.0
C2175 C 0.50891 0.39396 0.04361 0.0
C2176 C 0.52424 0.37204 0.02025 0.0
C2177 C 0.53299 0.36759 0.0008 0.0
C2178 C 0.52302 0.37169 0.98331 0.0
C2179 C 0.53141 0.36757 0.96503 0.0
C2180 C 0.54969 0.35921 0.96404 0.0
C2181 C 0.55961 0.3549 0.98133 0.0
C2182 C 0.5513 0.35901 -0.00034 0.0
C2183 C 0.48486 0.32188 0.08177 0.0
C2184 C 0.50023 0.31079 0.08867 0.0
C2185 C 0.48871 0.33781 0.06974 0.0
C2186 C 0.50799 0.34298 0.06441 0.0
C2187 C 0.52337 0.33186 0.0711 0.0
C2188 C 0.51954 0.31595 0.08321 0.0
C2189 C 0.51205 0.35991 0.05168 0.0
C2190 C 0.52134 0.35684 0.03356 0.0
C2191 C 0.50592 0.37875 0.05687 0.0
C2192 C 0.49686 0.38306 0.07621 0.0
C2193 C 0.50647 0.37868 0.09382 0.0
C2194 C 0.49779 0.38267 0.11198 0.0
C2195 C 0.47955 0.39116 0.11274 0.0
C2196 C 0.46999 0.39573 0.09532 0.0
C2197 C 0.47859 0.39176 0.07712 0.0
H2198 H 0.47286 0.39423 0.12682 0.0
H2199 H 0.55616 0.35603 0.94987 0.0
H2200 H 0.66571 0.19055 0.27102 0.0
H2201 H 0.63828 0.19327 0.24814 0.0
H2202 H 0.65124 0.25499 0.24384 0.0
H2203 H 0.6784 0.25237 0.26701 0.0
H2204 H 0.61355 0.24867 0.24767 0.0
H2205 H 0.66334 0.22166 0.20687 0.0
H2206 H 0.68812 0.19811 0.1974 0.0
H2207 H 0.64391 0.15207 0.19541 0.0
H2208 H 0.6189 0.17532 0.20514 0.0
H2209 H 0.55864 0.26729 0.16214 0.0
H2210 H 0.58589 0.26264 0.18467 0.0
H2211 H 0.5662 0.20299 0.19275 0.0
H2212 H 0.53884 0.20748 0.17019 0.0
H2213 H 0.60656 0.20734 0.18721 0.0
H2214 H 0.55674 0.23518 0.22744 0.0
H2215 H 0.5323 0.25927 0.23635 0.0
H2216 H 0.57733 0.30451 0.23865 0.0
H2217 H 0.60201 0.28072 0.22946 0.0
C2218 C 0.66274 0.20466 0.26508 0.0
C2219 C 0.67416 0.22125 0.27075 0.0
C2220 C 0.64711 0.2062 0.25199 0.0
C2221 C 0.64285 0.2243 0.24407 0.0
C2222 C 0.65423 0.24088 0.24978 0.0
C2223 C 0.66972 0.23938 0.26302 0.0
C2224 C 0.62635 0.22608 0.23007 0.0
C2225 C 0.61219 0.2398 0.23432 0.0
C2226 C 0.62429 0.21418 0.21288 0.0
C2227 C 0.63928 0.2002 0.20693 0.0
C2228 C 0.65893 0.20649 0.20456 0.0
C2229 C 0.67301 0.1932 0.19912 0.0
C2230 C 0.66761 0.17359 0.19586 0.0
C2231 C 0.64809 0.16725 0.19797 0.0
C2232 C 0.63395 0.18048 0.20343 0.0
C2233 C 0.56012 0.25315 0.16864 0.0
C2234 C 0.54651 0.23777 0.16446 0.0
C2235 C 0.57567 0.25054 0.18156 0.0
C2236 C 0.57792 0.23253 0.19051 0.0
C2237 C 0.56466 0.21701 0.18601 0.0
C2238 C 0.54902 0.21963 0.17318 0.0
C2239 C 0.59398 0.23003 0.20477 0.0
C2240 C 0.60799 0.21617 0.20058 0.0
C2241 C 0.596 0.24188 0.22195 0.0
C2242 C 0.5812 0.2562 0.22758 0.0
C2243 C 0.56141 0.25029 0.22969 0.0
C2244 C 0.54752 0.26389 0.23482 0.0
C2245 C 0.55325 0.28342 0.23802 0.0
C2246 C 0.57291 0.28938 0.23614 0.0
C2247 C 0.58686 0.27584 0.23099 0.0
H2248 H 0.54247 0.29393 0.24199 0.0
H2249 H 0.67853 0.16333 0.19165 0.0
H2250 H 0.4439 0.0838 0.9929 0.0
H2251 H 0.45023 0.11242 0.01424 0.0
H2252 H 0.51177 0.10078 0.01485 0.0
H2253 H 0.50547 0.07181 0.99407 0.0
H2254 H 0.49933 0.11047 0.05095 0.0
H2255 H 0.49409 0.13595 0.9859 0.0
H2256 H 0.47843 0.14093 0.95375 0.0
H2257 H 0.42977 0.16686 0.98259 0.0
H2258 H 0.44502 0.16177 0.01495 0.0
H2259 H 0.53748 0.20286 0.08398 0.0
H2260 H 0.52946 0.17369 0.06398 0.0
H2261 H 0.46809 0.18547 0.06796 0.0
H2262 H 0.47595 0.21469 0.08797 0.0
H2263 H 0.47948 0.1757 0.03013 0.0
H2264 H 0.48555 0.15092 0.09527 0.0
H2265 H 0.50174 0.14623 0.1272 0.0
H2266 H 0.54949 0.11923 0.09784 0.0
H2267 H 0.53371 0.12402 0.06569 0.0
C2268 C 0.45874 0.08722 0.99775 0.0
C2269 C 0.4742 0.0756 0.99172 0.0
C2270 C 0.46236 0.10367 0.00979 0.0
C2271 C 0.48151 0.10886 0.01592 0.0
C2272 C 0.4969 0.09708 0.01022 0.0
C2273 C 0.4933 0.08064 0.99821 0.0
C2274 C 0.48557 0.12661 0.02819 0.0
C2275 C 0.49519 0.12476 0.04629 0.0
C2276 C 0.47979 0.14519 0.0223 0.0
C2277 C 0.4706 0.14829 0.00286 0.0
C2278 C 0.47997 0.14256 0.9854 0.0
C2279 C 0.47119 0.14543 0.96713 0.0
C2280 C 0.45309 0.15415 0.96613 0.0
C2281 C 0.44377 0.16007 0.98339 0.0
C2282 C 0.45248 0.15721 0.0017 0.0
C2283 C 0.52228 0.19927 0.08059 0.0
C2284 C 0.50735 0.21106 0.0876 0.0
C2285 C 0.51772 0.18256 0.06923 0.0
C2286 C 0.49817 0.17736 0.06466 0.0
C2287 C 0.48326 0.18924 0.07137 0.0
C2288 C 0.48778 0.20589 0.08284 0.0
C2289 C 0.49332 0.15954 0.0528 0.0
C2290 C 0.48355 0.16139 0.03479 0.0
C2291 C 0.49903 0.14097 0.05874 0.0
C2292 C 0.50853 0.13801 0.07806 0.0
C2293 C 0.49958 0.14413 0.09561 0.0
C2294 C 0.50867 0.14143 0.11375 0.0
C2295 C 0.52666 0.13248 0.11455 0.0
C2296 C 0.53557 0.12618 0.0972 0.0
C2297 C 0.52655 0.12887 0.07901 0.0
H2298 H 0.53367 0.1304 0.12861 0.0
H2299 H 0.44632 0.15637 0.95198 0.0
H2300 H 0.23216 0.3426 0.68315 0.0
H2301 H 0.2542 0.37118 0.68737 0.0
H2302 H 0.25633 0.36171 0.74994 0.0
H2303 H 0.23401 0.33317 0.7458 0.0
H2304 H 0.25292 0.39947 0.74249 0.0
H2305 H 0.29402 0.34876 0.71978 0.0
H2306 H 0.30368 0.32205 0.69755 0.0
H2307 H 0.30781 0.36159 0.64943 0.0
H2308 H 0.29789 0.3885 0.67131 0.0
H2309 H 0.33588 0.46232 0.76129 0.0
H2310 H 0.31422 0.43334 0.7581 0.0
H2311 H 0.30853 0.44287 0.69581 0.0
H2312 H 0.33033 0.47181 0.69882 0.0
H2313 H 0.31429 0.40469 0.70381 0.0
H2314 H 0.27253 0.45514 0.72644 0.0
H2315 H 0.26251 0.48176 0.7486 0.0
H2316 H 0.2597 0.44247 0.797 0.0
H2317 H 0.26999 0.41566 0.77517 0.0
C2318 C 0.2374 0.34657 0.69779 0.0
C2319 C 0.23153 0.33558 0.71413 0.0
C2320 C 0.24999 0.36289 0.70019 0.0
C2321 C 0.25718 0.36837 0.71892 0.0
C2322 C 0.25099 0.35769 0.73534 0.0
C2323 C 0.23825 0.34143 0.73297 0.0
C2324 C 0.27121 0.38523 0.72132 0.0
C2325 C 0.26648 0.40048 0.73426 0.0
C2326 C 0.28872 0.3867 0.71027 0.0
C2327 C 0.29505 0.37062 0.69715 0.0
C2328 C 0.29688 0.35174 0.70443 0.0
C2329 C 0.30241 0.33656 0.6919 0.0
C2330 C 0.30631 0.34011 0.67208 0.0
C2331 C 0.30476 0.35886 0.66478 0.0
C2332 C 0.29921 0.37409 0.67724 0.0
C2333 C 0.33007 0.45824 0.74689 0.0
C2334 C 0.33476 0.46942 0.73031 0.0
C2335 C 0.31764 0.44171 0.74512 0.0
C2336 C 0.30962 0.43609 0.72676 0.0
C2337 C 0.31455 0.447 0.71012 0.0
C2338 C 0.32696 0.46356 0.71188 0.0
C2339 C 0.29595 0.41892 0.72492 0.0
C2340 C 0.30076 0.40362 0.71209 0.0
C2341 C 0.27854 0.41738 0.7361 0.0
C2342 C 0.27223 0.43344 0.74922 0.0
C2343 C 0.26993 0.45221 0.74184 0.0
C2344 C 0.26418 0.46733 0.75434 0.0
C2345 C 0.26053 0.46382 0.77421 0.0
C2346 C 0.26257 0.44517 0.78161 0.0
C2347 C 0.26835 0.43001 0.76918 0.0
H2348 H 0.25607 0.47555 0.78385 0.0
H2349 H 0.31055 0.32833 0.66239 0.0
H2350 H 0.25852 0.7033 0.79451 0.0
H2351 H 0.27908 0.67519 0.78946 0.0
H2352 H 0.22743 0.63746 0.7842 0.0
H2353 H 0.20681 0.66548 0.78935 0.0
H2354 H 0.25642 0.62283 0.80853 0.0
H2355 H 0.25041 0.64995 0.744 0.0
H2356 H 0.25255 0.67613 0.71969 0.0
H2357 H 0.3142 0.68393 0.7308 0.0
H2358 H 0.31237 0.65798 0.75541 0.0
H2359 H 0.29742 0.53848 0.76739 0.0
H2360 H 0.27793 0.56694 0.77375 0.0
H2361 H 0.33002 0.60419 0.77101 0.0
H2362 H 0.34958 0.57581 0.76414 0.0
H2363 H 0.3014 0.61966 0.75146 0.0
H2364 H 0.30823 0.59264 0.81532 0.0
H2365 H 0.3067 0.56707 0.8403 0.0
H2366 H 0.24464 0.55974 0.83158 0.0
H2367 H 0.24584 0.58511 0.80634 0.0
C2368 C 0.25158 0.68899 0.7924 0.0
C2369 C 0.23109 0.68655 0.79224 0.0
C2370 C 0.26332 0.67299 0.78942 0.0
C2371 C 0.25474 0.65431 0.78633 0.0
C2372 C 0.2343 0.65178 0.78653 0.0
C2373 C 0.22256 0.66779 0.78933 0.0
C2374 C 0.26708 0.63739 0.78269 0.0
C2375 C 0.2661 0.62199 0.79594 0.0
C2376 C 0.28006 0.63662 0.76655 0.0
C2377 C 0.28121 0.65216 0.75169 0.0
C2378 C 0.26439 0.65736 0.74138 0.0
C2379 C 0.26555 0.67214 0.72752 0.0
C2380 C 0.28349 0.68172 0.72374 0.0
C2381 C 0.30031 0.67652 0.73377 0.0
C2382 C 0.29922 0.66176 0.74766 0.0
C2383 C 0.30475 0.55272 0.76816 0.0
C2384 C 0.32506 0.55488 0.76531 0.0
C2385 C 0.29359 0.56897 0.77189 0.0
C2386 C 0.30255 0.58768 0.77315 0.0
C2387 C 0.3228 0.58989 0.77015 0.0
C2388 C 0.33396 0.57365 0.76626 0.0
C2389 C 0.29075 0.60496 0.77728 0.0
C2390 C 0.2918 0.62046 0.76411 0.0
C2391 C 0.27794 0.60588 0.7936 0.0
C2392 C 0.27716 0.59065 0.80881 0.0
C2393 C 0.29428 0.58547 0.81862 0.0
C2394 C 0.29346 0.57103 0.83284 0.0
C2395 C 0.27559 0.56175 0.83749 0.0
C2396 C 0.25848 0.56693 0.82795 0.0
C2397 C 0.25921 0.58135 0.8137 0.0
H2398 H 0.27499 0.55058 0.84851 0.0
H2399 H 0.28436 0.69316 0.713 0.0
H2400 H 0.94963 0.48848 0.46894 0.0
H2401 H 0.92137 0.46662 0.47507 0.0
H2402 H 0.88411 0.51592 0.47814 0.0
H2403 H 0.91253 0.53786 0.47259 0.0
H2404 H 0.87574 0.49311 0.50689 0.0
H2405 H 0.88397 0.48314 0.43775 0.0
H2406 H 0.90164 0.47591 0.40704 0.0
H2407 H 0.91417 0.41915 0.42801 0.0
H2408 H 0.8968 0.42614 0.45898 0.0
H2409 H 0.78628 0.4362 0.50192 0.0
H2410 H 0.81358 0.45855 0.49365 0.0
H2411 H 0.85393 0.41249 0.50097 0.0
H2412 H 0.82674 0.39003 0.50937 0.0
H2413 H 0.85978 0.43394 0.46617 0.0
H2414 H 0.85145 0.44534 0.53594 0.0
H2415 H 0.8327 0.45322 0.56581 0.0
H2416 H 0.81881 0.50844 0.54192 0.0
H2417 H 0.83726 0.50077 0.51178 0.0
C2418 C 0.93536 0.49459 0.4707 0.0
C2419 C 0.93321 0.51482 0.47026 0.0
C2420 C 0.9192 0.48211 0.47415 0.0
C2421 C 0.90053 0.48958 0.47681 0.0
C2422 C 0.89836 0.5098 0.47615 0.0
C2423 C 0.91457 0.52232 0.47297 0.0
C2424 C 0.88342 0.47639 0.48106 0.0
C2425 C 0.87209 0.48036 0.49777 0.0
C2426 C 0.87881 0.45953 0.4694 0.0
C2427 C 0.88923 0.45524 0.45077 0.0
C2428 C 0.89062 0.46917 0.43588 0.0
C2429 C 0.90056 0.46511 0.41841 0.0
C2430 C 0.90906 0.4471 0.4156 0.0
C2431 C 0.90759 0.4331 0.43022 0.0
C2432 C 0.89769 0.4371 0.44773 0.0
C2433 C 0.80096 0.43082 0.5018 0.0
C2434 C 0.80437 0.41135 0.50635 0.0
C2435 C 0.81653 0.44362 0.49711 0.0
C2436 C 0.83574 0.43716 0.49679 0.0
C2437 C 0.83919 0.41772 0.50114 0.0
C2438 C 0.82365 0.40495 0.50602 0.0
C2439 C 0.85228 0.45071 0.49194 0.0
C2440 C 0.86346 0.44678 0.47517 0.0
C2441 C 0.8566 0.46773 0.50337 0.0
C2442 C 0.84557 0.47239 0.52152 0.0
C2443 C 0.84426 0.45909 0.53699 0.0
C2444 C 0.83371 0.46353 0.55398 0.0
C2445 C 0.82452 0.4813 0.55574 0.0
C2446 C 0.82591 0.49468 0.54053 0.0
C2447 C 0.83642 0.4903 0.52349 0.0
H2448 H 0.81636 0.48471 0.56891 0.0
H2449 H 0.91675 0.44398 0.40207 0.0
H2450 H 0.7707 0.83337 0.81458 0.0
H2451 H 0.74859 0.86031 0.81173 0.0
H2452 H 0.73915 0.84552 0.75033 0.0
H2453 H 0.76164 0.81876 0.75305 0.0
H2454 H 0.7437 0.88357 0.7551 0.0
H2455 H 0.70491 0.83339 0.7861 0.0
H2456 H 0.69754 0.80855 0.81102 0.0
H2457 H 0.70019 0.85266 0.85663 0.0
H2458 H 0.70786 0.87774 0.83202 0.0
H2459 H 0.66004 0.94037 0.74311 0.0
H2460 H 0.68127 0.91268 0.74542 0.0
H2461 H 0.69543 0.92913 0.8055 0.0
H2462 H 0.67412 0.9568 0.80339 0.0
H2463 H 0.68781 0.88982 0.80093 0.0
H2464 H 0.72727 0.93976 0.76968 0.0
H2465 H 0.73485 0.96439 0.74463 0.0
H2466 H 0.73057 0.92023 0.69911 0.0
H2467 H 0.72268 0.89536 0.72389 0.0
C2468 C 0.76383 0.83584 0.8005 0.0
C2469 C 0.76775 0.82393 0.78406 0.0
C2470 C 0.75118 0.85119 0.7989 0.0
C2471 C 0.74193 0.85471 0.7809 0.0
C2472 C 0.74609 0.84303 0.76437 0.0
C2473 C 0.75892 0.82779 0.76592 0.0
C2474 C 0.72801 0.87065 0.77933 0.0
C2475 C 0.73131 0.88475 0.76492 0.0
C2476 C 0.71206 0.87243 0.79242 0.0
C2477 C 0.70712 0.85742 0.80722 0.0
C2478 C 0.70403 0.83778 0.80146 0.0
C2479 C 0.69979 0.82366 0.81553 0.0
C2480 C 0.69845 0.82902 0.8354 0.0
C2481 C 0.70126 0.84853 0.84124 0.0
C2482 C 0.70553 0.8627 0.82723 0.0
C2483 C 0.66762 0.93808 0.75685 0.0
C2484 C 0.66547 0.95085 0.77305 0.0
C2485 C 0.67979 0.92228 0.75811 0.0
C2486 C 0.69007 0.91899 0.77556 0.0
C2487 C 0.68763 0.93145 0.79189 0.0
C2488 C 0.67551 0.94729 0.79063 0.0
C2489 C 0.70355 0.90269 0.77673 0.0
C2490 C 0.70016 0.88854 0.79107 0.0
C2491 C 0.71936 0.90082 0.76353 0.0
C2492 C 0.72419 0.91574 0.74862 0.0
C2493 C 0.72779 0.93532 0.75431 0.0
C2494 C 0.73217 0.94933 0.74017 0.0
C2495 C 0.73314 0.94389 0.72028 0.0
C2496 C 0.72978 0.92443 0.71452 0.0
C2497 C 0.72537 0.91037 0.72861 0.0
H2498 H 0.73654 0.95475 0.70935 0.0
H2499 H 0.69519 0.81806 0.84628 0.0
H2500 H 0.55111 0.52565 0.96831 0.0
H2501 H 0.57972 0.54756 0.97361 0.0
H2502 H 0.61681 0.49815 0.97502 0.0
H2503 H 0.58814 0.47618 0.97012 0.0
H2504 H 0.62689 0.52278 0.00331 0.0
H2505 H 0.61449 0.52792 0.93436 0.0
H2506 H 0.59489 0.53332 0.90458 0.0
H2507 H 0.58463 0.59171 0.92445 0.0
H2508 H 0.60395 0.58657 0.9545 0.0
H2509 H 0.7175 0.57521 0.98925 0.0
H2510 H 0.68861 0.55367 0.98388 0.0
H2511 H 0.65127 0.60216 0.99314 0.0
H2512 H 0.68008 0.62382 0.99871 0.0
H2513 H 0.64155 0.5783 0.9594 0.0
H2514 H 0.65478 0.57218 0.02864 0.0
H2515 H 0.67539 0.56607 0.05754 0.0
H2516 H 0.68542 0.50834 0.03553 0.0
H2517 H 0.66508 0.51422 0.00634 0.0
C2518 C 0.5654 0.5195 0.96962 0.0
C2519 C 0.56745 0.49924 0.96873 0.0
C2520 C 0.58173 0.53201 0.97262 0.0
C2521 C 0.60047 0.52452 0.97443 0.0
C2522 C 0.60251 0.50426 0.97367 0.0
C2523 C 0.58614 0.49174 0.97088 0.0
C2524 C 0.6179 0.53777 0.9774 0.0
C2525 C 0.63022 0.53475 0.99353 0.0
C2526 C 0.62208 0.55361 0.96486 0.0
C2527 C 0.61051 0.55679 0.94678 0.0
C2528 C 0.60793 0.54186 0.93245 0.0
C2529 C 0.59689 0.54489 0.91551 0.0
C2530 C 0.58848 0.56283 0.91265 0.0
C2531 C 0.59113 0.57781 0.9267 0.0
C2532 C 0.60214 0.57485 0.94368 0.0
C2533 C 0.70314 0.5813 0.99013 0.0
C2534 C 0.70105 0.6012 0.99446 0.0
C2535 C 0.68668 0.56897 0.98712 0.0
C2536 C 0.66786 0.57634 0.98822 0.0
C2537 C 0.6657 0.59623 0.99224 0.0
C2538 C 0.68216 0.60854 0.9955 0.0
C2539 C 0.65042 0.56324 0.98523 0.0
C2540 C 0.63815 0.56631 0.96912 0.0
C2541 C 0.64641 0.5473 0.99763 0.0
C2542 C 0.65858 0.54372 0.01521 0.0
C2543 C 0.66152 0.55825 0.02987 0.0
C2544 C 0.67312 0.55481 0.04633 0.0
C2545 C 0.68175 0.53685 0.04834 0.0
C2546 C 0.67875 0.52226 0.03394 0.0
C2547 C 0.66717 0.52563 0.01744 0.0
H2548 H 0.69072 0.53422 0.06109 0.0
H2549 H 0.57994 0.56515 0.89952 0.0
H2550 H 0.27997 0.66242 0.22718 0.0
H2551 H 0.25674 0.63487 0.23065 0.0
H2552 H 0.20887 0.67241 0.21981 0.0
H2553 H 0.23205 0.70024 0.21695 0.0
H2554 H 0.20095 0.64849 0.25006 0.0
H2555 H 0.22399 0.64169 0.18406 0.0
H2556 H 0.24857 0.6396 0.15769 0.0
H2557 H 0.27095 0.58837 0.18348 0.0
H2558 H 0.24668 0.59031 0.21018 0.0
H2559 H 0.13055 0.57048 0.234 0.0
H2560 H 0.15205 0.59925 0.2293 0.0
H2561 H 0.2023 0.56557 0.24228 0.0
H2562 H 0.18094 0.53672 0.24695 0.0
H2563 H 0.20781 0.58821 0.20972 0.0
H2564 H 0.18526 0.59595 0.27637 0.0
H2565 H 0.16044 0.59812 0.3025 0.0
H2566 H 0.1367 0.64777 0.2749 0.0
H2567 H 0.16122 0.64572 0.24843 0.0
C2568 C 0.26449 0.66487 0.22574 0.0
C2569 C 0.25785 0.68352 0.2218 0.0
C2570 C 0.25124 0.64907 0.22752 0.0
C2571 C 0.23109 0.65155 0.22523 0.0
C2572 C 0.22437 0.67017 0.22154 0.0
C2573 C 0.23763 0.68602 0.21976 0.0
C2574 C 0.2171 0.63466 0.22685 0.0
C2575 C 0.20224 0.63542 0.24102 0.0
C2576 C 0.21903 0.6175 0.21529 0.0
C2577 C 0.23362 0.61625 0.19922 0.0
C2578 C 0.23425 0.63006 0.1842 0.0
C2579 C 0.24811 0.62889 0.16918 0.0
C2580 C 0.26134 0.61389 0.16894 0.0
C2581 C 0.26071 0.59999 0.1837 0.0
C2582 C 0.24689 0.60111 0.19877 0.0
C2583 C 0.14617 0.56918 0.23584 0.0
C2584 C 0.15404 0.55132 0.24089 0.0
C2585 C 0.15842 0.58565 0.23321 0.0
C2586 C 0.17874 0.58455 0.23559 0.0
C2587 C 0.18665 0.5667 0.24039 0.0
C2588 C 0.17441 0.55026 0.24312 0.0
C2589 C 0.1918 0.60198 0.23304 0.0
C2590 C 0.20647 0.60132 0.21868 0.0
C2591 C 0.18965 0.61925 0.24437 0.0
C2592 C 0.17494 0.62055 0.26031 0.0
C2593 C 0.17464 0.60723 0.27578 0.0
C2594 C 0.16065 0.60846 0.29067 0.0
C2595 C 0.14697 0.62304 0.29033 0.0
C2596 C 0.14729 0.63646 0.27513 0.0
C2597 C 0.16124 0.63528 0.26019 0.0
H2598 H 0.13615 0.62397 0.30188 0.0
H2599 H 0.27206 0.613 0.15729 0.0
H2600 H 0.91726 0.47604 0.02079 0.0
H2601 H 0.89169 0.49922 0.01502 0.0
H2602 H 0.93288 0.54695 0.02766 0.0
H2603 H 0.95842 0.52378 0.03377 0.0
H2604 H 0.89976 0.55271 0.04592 0.0
H2605 H 0.91752 0.53526 0.98005 0.0
H2606 H 0.9241 0.513 0.95217 0.0
H2607 H 0.86478 0.49033 0.95392 0.0
H2608 H 0.85792 0.51227 0.982 0.0
H2609 H 0.83803 0.62604 0.01091 0.0
H2610 H 0.86525 0.60431 0.01475 0.0
H2611 H 0.82557 0.55446 0.00705 0.0
H2612 H 0.79832 0.57602 0.00304 0.0
H2613 H 0.85885 0.55088 0.98547 0.0
H2614 H 0.84181 0.56785 0.05227 0.0
H2615 H 0.83554 0.59037 0.08002 0.0
H2616 H 0.89418 0.61452 0.07597 0.0
H2617 H 0.90071 0.5923 0.048 0.0
C2618 C 0.92089 0.49149 0.02212 0.0
C2619 C 0.93981 0.49813 0.02769 0.0
C2620 C 0.90629 0.50472 0.0188 0.0
C2621 C 0.91042 0.52485 0.02067 0.0
C2622 C 0.92935 0.5315 0.02615 0.0
C2623 C 0.94391 0.51826 0.02965 0.0
C2624 C 0.89485 0.53893 0.01749 0.0
C2625 C 0.89103 0.55251 0.03256 0.0
C2626 C 0.88321 0.53844 0.00022 0.0
C2627 C 0.88726 0.5253 0.98325 0.0
C2628 C 0.90592 0.52543 0.97459 0.0
C2629 C 0.90969 0.51288 0.95873 0.0
C2630 C 0.89488 0.50023 0.95131 0.0
C2631 C 0.87625 0.50013 0.95969 0.0
C2632 C 0.8724 0.51263 0.97557 0.0
C2633 C 0.83509 0.61046 0.01005 0.0
C2634 C 0.816 0.60276 0.00673 0.0
C2635 C 0.85065 0.59807 0.01229 0.0
C2636 C 0.84739 0.57778 0.01132 0.0
C2637 C 0.82839 0.57008 0.00783 0.0
C2638 C 0.81283 0.58243 0.00563 0.0
C2639 C 0.86374 0.56452 0.01393 0.0
C2640 C 0.86768 0.55112 0.99876 0.0
C2641 C 0.87557 0.56524 0.03106 0.0
C2642 C 0.87168 0.57856 0.04791 0.0
C2643 C 0.85331 0.57807 0.05719 0.0
C2644 C 0.84972 0.59076 0.07298 0.0
C2645 C 0.86444 0.60391 0.07972 0.0
C2646 C 0.88279 0.60435 0.07071 0.0
C2647 C 0.88645 0.5917 0.0549 0.0
H2648 H 0.86163 0.61372 0.09195 0.0
H2649 H 0.89783 0.49052 0.93903 0.0
H2650 H 0.07809 0.01722 0.06554 0.0
H2651 H 0.10383 0.99388 0.06033 0.0
H2652 H 0.08585 0.98593 -0.00027 0.0
H2653 H 0.05994 0.00919 0.00489 0.0
H2654 H 0.09349 0.95081 0.0188 0.0
H2655 H 0.12406 0.01424 0.00913 0.0
H2656 H 0.13303 0.04826 0.01846 0.0
H2657 H 0.16344 0.02884 0.06941 0.0
H2658 H 0.1544 0.9947 0.06053 0.0
H2659 H 0.17729 0.90533 0.98141 0.0
H2660 H 0.1501 0.92662 0.98757 0.0
H2661 H 0.17393 0.94188 0.04492 0.0
H2662 H 0.20152 0.92109 0.03858 0.0
H2663 H 0.16281 0.97312 0.02795 0.0
H2664 H 0.13309 0.91004 0.03831 0.0
H2665 H 0.12375 0.87581 0.03023 0.0
H2666 H 0.09147 0.89386 0.9799 0.0
H2667 H 0.10083 0.92819 0.98752 0.0
C2668 C 0.07948 0.01032 0.05117 0.0
C2669 C 0.06707 0.01504 0.03559 0.0
C2670 C 0.09425 0.9971 0.04819 0.0
C2671 C 0.0968 0.98833 0.02961 0.0
C2672 C 0.08411 0.99259 0.01416 0.0
C2673 C 0.06943 0.00595 0.01709 0.0
C2674 C 0.11308 0.9751 0.02616 0.0
C2675 C 0.10867 0.95569 0.02056 0.0
C2676 C 0.13282 0.98142 0.02899 0.0
C2677 C 0.13838 0.00193 0.03427 0.0
C2678 C 0.13252 0.01724 0.02241 0.0
C2679 C 0.13764 0.03654 0.0276 0.0
C2680 C 0.14876 0.04071 0.04455 0.0
C2681 C 0.15481 0.02559 0.05631 0.0
C2682 C 0.1497 0.00626 0.0512 0.0
C2683 C 0.17671 0.91316 0.99537 0.0
C2684 C 0.19154 0.9115 0.00952 0.0
C2685 C 0.16109 0.92525 0.99891 0.0
C2686 C 0.15979 0.93565 0.01683 0.0
C2687 C 0.1746 0.93399 0.03099 0.0
C2688 C 0.19034 0.92208 0.02736 0.0
C2689 C 0.14331 0.94868 0.0206 0.0
C2690 C 0.14766 0.96812 0.02624 0.0
C2691 C 0.12351 0.94231 0.01799 0.0
C2692 C 0.11782 0.92168 0.01338 0.0
C2693 C 0.12412 0.9067 0.02543 0.0
C2694 C 0.1188 0.88728 0.02095 0.0
C2695 C 0.10707 0.88266 0.00453 0.0
C2696 C 0.10058 0.89746 0.99259 0.0
C2697 C 0.10587 0.9169 0.997 0.0
H2698 H 0.10296 0.86762 0.00109 0.0
H2699 H 0.15271 0.05567 0.04854 0.0
loop_
_geom_bond_atom_site_label_1
_geom_bond_atom_site_label_2
_geom_bond_distance
_geom_bond_site_symmetry_2
_ccdc_geom_bond_type
H0 C3 0.931 . S
H1 C6 0.928 . S
H2 C8 0.930 . S
C3 H0 0.931 . S
C3 C4 1.413 . S
C3 C5 1.360 . S
C4 C3 1.413 . S
C4 C8 1.429 . S
C5 C3 1.360 . S
C5 C6 1.372 . S
C6 H1 0.928 . S
C6 C5 1.372 . S
C6 C7 1.404 . S
C7 C6 1.404 . S
C7 C8 1.391 . S
C8 H2 0.930 . S
C8 C4 1.429 . S
C8 C7 1.391 . S
H9 C12 0.931 . S
H10 C15 0.928 . S
H11 C17 0.930 . S
C12 H9 0.931 . S
C12 C13 1.413 . S
C12 C14 1.360 . S
C13 C12 1.413 . S
C13 C17 1.429 . S
C14 C12 1.360 . S
C14 C15 1.372 . S
C15 H10 0.928 . S
C15 C14 1.372 . S
C15 C16 1.404 . S
C16 C15 1.404 . S
C16 C17 1.391 . S
C17 H11 0.930 . S
C17 C13 1.429 . S
C17 C16 1.391 . S
H18 C21 0.931 . S
H19 C24 0.928 . S
H20 C26 0.930 . S
C21 H18 0.931 . S
C21 C22 1.413 . S
C21 C23 1.360 . S
C22 C21 1.413 . S
C22 C26 1.429 . S
C23 C21 1.360 . S
C23 C24 1.372 . S
C24 H19 0.928 . S
C24 C23 1.372 . S
C24 C25 1.404 . S
C25 C24 1.404 . S
C25 C26 1.391 . S
C26 H20 0.930 . S
C26 C22 1.429 . S
C26 C25 1.391 . S
H27 C30 0.931 . S
H28 C33 0.928 . S
H29 C35 0.930 . S
C30 H27 0.931 . S
C30 C31 1.413 . S
C30 C32 1.360 . S
C31 C30 1.413 . S
C31 C35 1.429 . S
C32 C30 1.360 . S
C32 C33 1.372 . S
C33 H28 0.928 . S
C33 C32 1.372 . S
C33 C34 1.404 . S
C34 C33 1.404 . S
C34 C35 1.391 . S
C35 H29 0.930 . S
C35 C31 1.429 . S
C35 C34 1.391 . S
H36 C39 0.931 . S
H37 C42 0.928 . S
H38 C44 0.930 . S
C39 H36 0.931 . S
C39 C40 1.413 . S
C39 C41 1.360 . S
C40 C39 1.413 . S
C40 C44 1.429 . S
C41 C39 1.360 . S
C41 C42 1.372 . S
C42 H37 0.928 . S
C42 C41 1.372 . S
C42 C43 1.404 . S
C43 C42 1.404 . S
C43 C44 1.391 . S
C44 H38 0.930 . S
C44 C40 1.429 . S
C44 C43 1.391 . S
H45 C48 0.931 . S
H46 C51 0.928 . S
H47 C53 0.930 . S
C48 H45 0.931 . S
C48 C49 1.413 . S
C48 C50 1.360 . S
C49 C48 1.413 . S
C49 C53 1.429 . S
C50 C48 1.360 . S
C50 C51 1.372 . S
C51 H46 0.928 . S
C51 C50 1.372 . S
C51 C52 1.404 . S
C52 C51 1.404 . S
C52 C53 1.391 . S
C53 H47 0.930 . S
C53 C49 1.429 . S
C53 C52 1.391 . S
H54 C57 0.931 . S
H55 C60 0.928 . S
H56 C62 0.930 . S
C57 H54 0.931 . S
C57 C58 1.413 . S
C57 C59 1.360 . S
C58 C57 1.413 . S
C58 C62 1.429 . S
C59 C57 1.360 . S
C59 C60 1.372 . S
C60 H55 0.928 . S
C60 C59 1.372 . S
C60 C61 1.404 . S
C61 C60 1.404 . S
C61 C62 1.391 . S
C62 H56 0.930 . S
C62 C58 1.429 . S
C62 C61 1.391 . S
H63 C66 0.931 . S
H64 C69 0.928 . S
H65 C71 0.930 . S
C66 H63 0.931 . S
C66 C67 1.413 . S
C66 C68 1.360 . S
C67 C66 1.413 . S
C67 C71 1.429 . S
C68 C66 1.360 . S
C68 C69 1.372 . S
C69 H64 0.928 . S
C69 C68 1.372 . S
C69 C70 1.404 . S
C70 C69 1.404 . S
C70 C71 1.391 . S
C71 H65 0.930 . S
C71 C67 1.429 . S
C71 C70 1.391 . S
H72 C75 0.931 . S
H73 C78 0.928 . S
H74 C80 0.930 . S
C75 H72 0.931 . S
C75 C76 1.413 . S
C75 C77 1.360 . S
C76 C75 1.413 . S
C76 C80 1.429 . S
C77 C75 1.360 . S
C77 C78 1.372 . S
C78 H73 0.928 . S
C78 C77 1.372 . S
C78 C79 1.404 . S
C79 C78 1.404 . S
C79 C80 1.391 . S
C80 H74 0.930 . S
C80 C76 1.429 . S
C80 C79 1.391 . S
H81 C84 0.931 . S
H82 C87 0.928 . S
H83 C89 0.930 . S
C84 H81 0.931 . S
C84 C85 1.413 . S
C84 C86 1.360 . S
C85 C84 1.413 . S
C85 C89 1.429 . S
C86 C84 1.360 . S
C86 C87 1.372 . S
C87 H82 0.928 . S
C87 C86 1.372 . S
C87 C88 1.404 . S
C88 C87 1.404 . S
C88 C89 1.391 . S
C89 H83 0.930 . S
C89 C85 1.429 . S
C89 C88 1.391 . S
H90 C93 0.931 . S
H91 C96 0.928 . S
H92 C98 0.930 . S
C93 H90 0.931 . S
C93 C94 1.413 . S
C93 C95 1.360 . S
C94 C93 1.413 . S
C94 C98 1.429 . S
C95 C93 1.360 . S
C95 C96 1.372 . S
C96 H91 0.928 . S
C96 C95 1.372 . S
C96 C97 1.404 . S
C97 C96 1.404 . S
C97 C98 1.391 . S
C98 H92 0.930 . S
C98 C94 1.429 . S
C98 C97 1.391 . S
H99 C102 0.931 . S
H100 C105 0.928 . S
H101 C107 0.930 . S
C102 H99 0.931 . S
C102 C103 1.413 . S
C102 C104 1.360 . S
C103 C102 1.413 . S
C103 C107 1.429 . S
C104 C102 1.360 . S
C104 C105 1.372 . S
C105 H100 0.928 . S
C105 C104 1.372 . S
C105 C106 1.404 . S
C106 C105 1.404 . S
C106 C107 1.391 . S
C107 H101 0.930 . S
C107 C103 1.429 . S
C107 C106 1.391 . S
H108 C111 0.931 . S
H109 C114 0.928 . S
H110 C116 0.930 . S
C111 H108 0.931 . S
C111 C112 1.413 . S
C111 C113 1.360 . S
C112 C111 1.413 . S
C112 C116 1.429 . S
C113 C111 1.360 . S
C113 C114 1.372 . S
C114 H109 0.928 . S
C114 C113 1.372 . S
C114 C115 1.404 . S
C115 C114 1.404 . S
C115 C116 1.391 . S
C116 H110 0.930 . S
C116 C112 1.429 . S
C116 C115 1.391 . S
H117 C120 0.931 . S
H118 C123 0.928 . S
H119 C125 0.930 . S
C120 H117 0.931 . S
C120 C121 1.413 . S
C120 C122 1.360 . S
C121 C120 1.413 . S
C121 C125 1.429 . S
C122 C120 1.360 . S
C122 C123 1.372 . S
C123 H118 0.928 . S
C123 C122 1.372 . S
C123 C124 1.404 . S
C124 C123 1.404 . S
C124 C125 1.391 . S
C125 H119 0.930 . S
C125 C121 1.429 . S
C125 C124 1.391 . S
H126 C129 0.931 . S
H127 C132 0.928 . S
H128 C134 0.930 . S
C129 H126 0.931 . S
C129 C130 1.413 . S
C129 C131 1.360 . S
C130 C129 1.413 . S
C130 C134 1.429 . S
C131 C129 1.360 . S
C131 C132 1.372 . S
C132 H127 0.928 . S
C132 C131 1.372 . S
C132 C133 1.404 . S
C133 C132 1.404 . S
C133 C134 1.391 . S
C134 H128 0.930 . S
C134 C130 1.429 . S
C134 C133 1.391 . S
H135 C138 0.931 . S
H136 C141 0.928 . S
H137 C143 0.930 . S
C138 H135 0.931 . S
C138 C139 1.413 . S
C138 C140 1.360 . S
C139 C138 1.413 . S
C139 C143 1.429 . S
C140 C138 1.360 . S
C140 C141 1.372 . S
C141 H136 0.928 . S
C141 C140 1.372 . S
C141 C142 1.404 . S
C142 C141 1.404 . S
C142 C143 1.391 . S
C143 H137 0.930 . S
C143 C139 1.429 . S
C143 C142 1.391 . S
C144 O145 1.160 1_554 S
C144 O151 1.185 . S
O145 C144 1.160 1_556 S
O146 Zn147 1.899 1_556 S
O146 C154 1.284 . S
Zn147 O146 1.899 1_554 S
Zn147 O148 2.032 . S
Zn147 O151 2.086 . S
Zn147 O156 1.977 . S
O148 Zn147 2.032 . S
O148 C152 1.278 . S
C149 O150 1.203 . S
C149 O156 1.267 . S
O150 C149 1.203 . S
O151 C144 1.185 . S
O151 Zn147 2.086 . S
C152 O148 1.278 . S
C152 O153 1.211 . S
O153 C152 1.211 . S
C154 O146 1.284 . S
C154 O155 1.273 . S
O155 C154 1.273 . S
O156 Zn147 1.977 . S
O156 C149 1.267 . S
C157 O158 1.160 . S
C157 O164 1.185 . S
O158 C157 1.160 . S
O159 Zn160 1.899 . S
O159 C167 1.284 . S
Zn160 O159 1.899 . S
Zn160 O161 2.032 . S
Zn160 O164 2.086 . S
Zn160 O169 1.977 . S
O161 Zn160 2.032 . S
O161 C165 1.278 . S
C162 O163 1.203 . S
C162 O169 1.267 . S
O163 C162 1.203 . S
O164 C157 1.185 . S
O164 Zn160 2.086 . S
C165 O161 1.278 . S
C165 O166 1.211 . S
O166 C165 1.211 . S
C167 O159 1.284 . S
C167 O168 1.273 . S
O168 C167 1.273 . S
O169 Zn160 1.977 . S
O169 C162 1.267 . S
C170 O171 1.160 1_554 S
C170 O177 1.185 . S
O171 C170 1.160 1_556 S
O172 Zn173 1.899 1_556 S
O172 C180 1.284 . S
Zn173 O172 1.899 1_554 S
Zn173 O174 2.032 1_554 S
Zn173 O177 2.086 . S
Zn173 O182 1.977 . S
O174 Zn173 2.032 1_556 S
O174 C178 1.278 . S
C175 O176 1.203 . S
C175 O182 1.267 . S
O176 C175 1.203 . S
O177 C170 1.185 . S
O177 Zn173 2.086 . S
C178 O174 1.278 . S
C178 O179 1.211 1_556 S
O179 C178 1.211 1_554 S
C180 O172 1.284 . S
C180 O181 1.273 . S
O181 C180 1.273 . S
O182 Zn173 1.977 . S
O182 C175 1.267 . S
C183 O184 1.160 . S
C183 O190 1.185 . S
O184 C183 1.160 . S
O185 Zn186 1.899 . S
O185 C193 1.284 . S
Zn186 O185 1.899 . S
Zn186 O187 2.032 1_545 S
Zn186 O190 2.086 . S
Zn186 O195 1.977 . S
O187 Zn186 2.032 1_565 S
O187 C191 1.276 . S
C188 O189 1.203 . S
C188 O195 1.267 . S
O189 C188 1.203 . S
O190 C183 1.185 . S
O190 Zn186 2.086 . S
C191 O187 1.276 . S
C191 O192 1.211 . S
O192 C191 1.211 . S
C193 O185 1.284 . S
C193 O194 1.273 1_545 S
O194 C193 1.273 1_565 S
O195 Zn186 1.977 . S
O195 C188 1.267 . S
C196 O197 1.160 . S
C196 O203 1.185 . S
O197 C196 1.160 . S
O198 Zn199 1.899 . S
O198 C206 1.284 . S
Zn199 O198 1.899 . S
Zn199 O200 2.032 . S
Zn199 O203 2.086 . S
Zn199 O208 1.977 . S
O200 Zn199 2.032 . S
O200 C204 1.278 . S
C201 O202 1.203 . S
C201 O208 1.267 . S
O202 C201 1.203 . S
O203 C196 1.185 . S
O203 Zn199 2.086 . S
C204 O200 1.278 . S
C204 O205 1.211 . S
O205 C204 1.211 . S
C206 O198 1.284 . S
C206 O207 1.273 . S
O207 C206 1.273 . S
O208 Zn199 1.977 . S
O208 C201 1.267 . S
C209 O210 1.160 . S
C209 O216 1.185 . S
O210 C209 1.160 . S
O211 Zn212 1.899 . S
O211 C219 1.284 . S
Zn212 O211 1.899 . S
Zn212 O213 2.032 . S
Zn212 O216 2.086 . S
Zn212 O221 1.977 . S
O213 Zn212 2.032 . S
O213 C217 1.278 . S
C214 O215 1.203 . S
C214 O221 1.267 . S
O215 C214 1.203 . S
O216 C209 1.185 . S
O216 Zn212 2.086 . S
C217 O213 1.278 . S
C217 O218 1.211 . S
O218 C217 1.211 . S
C219 O211 1.284 . S
C219 O220 1.273 . S
O220 C219 1.273 . S
O221 Zn212 1.977 . S
O221 C214 1.267 . S
C222 O223 1.160 . S
C222 O229 1.185 . S
O223 C222 1.160 . S
O224 Zn225 1.899 . S
O224 C232 1.284 . S
Zn225 O224 1.899 . S
Zn225 O226 2.032 . S
Zn225 O229 2.086 . S
Zn225 O234 1.977 . S
O226 Zn225 2.032 . S
O226 C230 1.278 . S
C227 O228 1.203 . S
C227 O234 1.267 . S
O228 C227 1.203 . S
O229 C222 1.185 . S
O229 Zn225 2.086 . S
C230 O226 1.278 . S
C230 O231 1.211 . S
O231 C230 1.211 . S
C232 O224 1.284 . S
C232 O233 1.273 . S
O233 C232 1.273 . S
O234 Zn225 1.977 . S
O234 C227 1.267 . S
C235 O236 1.160 . S
C235 O242 1.185 . S
O236 C235 1.160 . S
O237 Zn238 1.899 . S
O237 C245 1.284 1_565 S
Zn238 O237 1.899 . S
Zn238 O239 2.032 1_565 S
Zn238 O242 2.086 . S
Zn238 O247 1.977 . S
O239 Zn238 2.032 1_545 S
O239 C243 1.278 . S
C240 O241 1.203 1_565 S
C240 O247 1.267 . S
O241 C240 1.203 1_545 S
O242 C235 1.185 . S
O242 Zn238 2.086 . S
C243 O239 1.278 . S
C243 O244 1.211 . S
O244 C243 1.211 . S
C245 O237 1.284 1_545 S
C245 O246 1.273 . S
O246 C245 1.273 . S
O247 Zn238 1.977 . S
O247 C240 1.267 . S
C248 O249 1.160 1_455 S
C248 O255 1.185 . S
O249 C248 1.160 1_655 S
O250 Zn251 1.899 1_655 S
O250 C258 1.284 . S
Zn251 O250 1.899 1_455 S
Zn251 O252 2.032 1_455 S
Zn251 O255 2.086 . S
Zn251 O260 1.977 . S
O252 Zn251 2.032 1_655 S
O252 C256 1.276 1_655 S
C253 O254 1.203 . S
C253 O260 1.267 . S
O254 C253 1.203 . S
O255 C248 1.185 . S
O255 Zn251 2.086 . S
C256 O252 1.276 1_455 S
C256 O257 1.221 . S
O257 C256 1.221 . S
C258 O250 1.284 . S
C258 O259 1.273 . S
O259 C258 1.273 . S
O260 Zn251 1.977 . S
O260 C253 1.267 . S
C261 O262 1.160 . S
C261 O268 1.185 . S
O262 C261 1.160 . S
O263 Zn264 1.899 . S
O263 C271 1.284 . S
Zn264 O263 1.899 . S
Zn264 O265 2.032 . S
Zn264 O268 2.086 . S
Zn264 O273 1.977 . S
O265 Zn264 2.032 . S
O265 C269 1.278 . S
C266 O267 1.203 . S
C266 O273 1.267 . S
O267 C266 1.203 . S
O268 C261 1.185 . S
O268 Zn264 2.086 . S
C269 O265 1.278 . S
C269 O270 1.211 . S
O270 C269 1.211 . S
C271 O263 1.284 . S
C271 O272 1.273 . S
O272 C271 1.273 . S
O273 Zn264 1.977 . S
O273 C266 1.267 . S
C274 O275 1.160 1_455 S
C274 O281 1.185 . S
O275 C274 1.160 1_655 S
O276 Zn277 1.899 1_655 S
O276 C284 1.284 . S
Zn277 O276 1.899 1_455 S
Zn277 O278 2.032 1_455 S
Zn277 O281 2.086 . S
Zn277 O286 1.977 . S
O278 Zn277 2.032 1_655 S
O278 C282 1.278 . S
C279 O280 1.203 . S
C279 O286 1.267 . S
O280 C279 1.203 . S
O281 C274 1.185 . S
O281 Zn277 2.086 . S
C282 O278 1.278 . S
C282 O283 1.210 1_655 S
O283 C282 1.210 1_455 S
C284 O276 1.284 . S
C284 O285 1.273 . S
O285 C284 1.273 . S
O286 Zn277 1.977 . S
O286 C279 1.267 . S
C287 O288 1.160 . S
C287 O294 1.185 . S
O288 C287 1.160 . S
O289 Zn290 1.899 . S
O289 C297 1.284 . S
Zn290 O289 1.899 . S
Zn290 O291 2.032 . S
Zn290 O294 2.086 . S
Zn290 O299 1.977 . S
O291 Zn290 2.032 . S
O291 C295 1.278 . S
C292 O293 1.203 . S
C292 O299 1.267 . S
O293 C292 1.203 . S
O294 C287 1.185 . S
O294 Zn290 2.086 . S
C295 O291 1.278 . S
C295 O296 1.211 . S
O296 C295 1.211 . S
C297 O289 1.284 . S
C297 O298 1.273 . S
O298 C297 1.273 . S
O299 Zn290 1.977 . S
O299 C292 1.267 . S
H300 C318 0.951 . S
H301 C320 0.951 . S
H302 C322 0.950 . S
H303 C323 0.950 . S
H304 C325 0.950 . S
H305 C328 0.950 . S
H306 C329 0.950 . S
H307 C331 0.950 . S
H308 C332 0.950 . S
H309 C333 0.951 . S
H310 C335 0.951 . S
H311 C337 0.950 . S
H312 C338 0.950 . S
H313 C340 0.950 . S
H314 C343 0.950 . S
H315 C344 0.950 . S
H316 C346 0.950 . S
H317 C347 0.950 . S
C318 H300 0.951 . S
C318 C319 1.366 . S
C318 C320 1.388 . S
C319 C318 1.366 . S
C319 C323 1.385 . S
C320 H301 0.951 . S
C320 C318 1.388 . S
C320 C321 1.366 . S
C321 C320 1.366 . S
C321 C322 1.414 . S
C321 C324 1.499 . S
C322 H302 0.950 . S
C322 C321 1.414 . S
C322 C323 1.374 . S
C323 H303 0.950 . S
C323 C319 1.385 . S
C323 C322 1.374 . S
C324 C321 1.499 . S
C324 C325 1.373 . S
C324 C326 1.389 . S
C325 H304 0.950 . S
C325 C324 1.373 . S
C325 C341 1.377 . S
C326 C324 1.389 . S
C326 C327 1.524 . S
C326 C340 1.377 . S
C327 C326 1.524 . S
C327 C328 1.397 . S
C327 C332 1.363 . S
C328 H305 0.950 . S
C328 C327 1.397 . S
C328 C329 1.334 . S
C329 H306 0.950 . S
C329 C328 1.334 . S
C329 C330 1.287 . S
C330 C329 1.287 . S
C330 C331 1.524 . S
C330 H349 0.913 . S
C331 H307 0.950 . S
C331 C330 1.524 . S
C331 C332 1.415 . S
C332 H308 0.950 . S
C332 C327 1.363 . S
C332 C331 1.415 . S
C333 H309 0.951 . S
C333 C334 1.366 . S
C333 C335 1.388 . S
C334 C333 1.366 . S
C334 C338 1.385 . S
C335 H310 0.951 . S
C335 C333 1.388 . S
C335 C336 1.366 . S
C336 C335 1.366 . S
C336 C337 1.414 . S
C336 C339 1.499 . S
C337 H311 0.950 . S
C337 C336 1.414 . S
C337 C338 1.374 . S
C338 H312 0.950 . S
C338 C334 1.385 . S
C338 C337 1.374 . S
C339 C336 1.499 . S
C339 C340 1.373 . S
C339 C341 1.389 . S
C340 H313 0.950 . S
C340 C326 1.377 . S
C340 C339 1.373 . S
C341 C325 1.377 . S
C341 C339 1.389 . S
C341 C342 1.524 . S
C342 C341 1.524 . S
C342 C343 1.397 . S
C342 C347 1.363 . S
C343 H314 0.950 . S
C343 C342 1.397 . S
C343 C344 1.334 . S
C344 H315 0.950 . S
C344 C343 1.334 . S
C344 C345 1.287 . S
C345 C344 1.287 . S
C345 C346 1.524 . S
C345 H348 0.999 . S
C346 H316 0.950 . S
C346 C345 1.524 . S
C346 C347 1.415 . S
C347 H317 0.950 . S
C347 C342 1.363 . S
C347 C346 1.415 . S
H348 C345 0.999 . S
H349 C330 0.913 . S
H350 C368 0.951 . S
H351 C370 0.950 1_655 S
H352 C372 0.950 . S
H353 C373 0.950 . S
H354 C375 0.950 . S
H355 C378 0.950 . S
H356 C379 0.950 . S
H357 C381 0.950 . S
H358 C382 0.950 . S
H359 C383 0.951 . S
H360 C385 0.951 . S
H361 C387 0.950 . S
H362 C388 0.950 . S
H363 C390 0.950 . S
H364 C393 0.950 . S
H365 C394 0.950 . S
H366 C396 0.950 . S
H367 C397 0.950 . S
C368 H350 0.951 . S
C368 C369 1.366 . S
C368 C370 1.388 1_655 S
C369 C368 1.366 . S
C369 C373 1.385 1_655 S
C370 H351 0.950 1_455 S
C370 C368 1.388 1_455 S
C370 C371 1.366 . S
C371 C370 1.366 . S
C371 C372 1.414 . S
C371 C374 1.499 . S
C372 H352 0.950 . S
C372 C371 1.414 . S
C372 C373 1.374 . S
C373 H353 0.950 . S
C373 C369 1.385 1_455 S
C373 C372 1.374 . S
C374 C371 1.499 . S
C374 C375 1.373 . S
C374 C376 1.389 . S
C375 H354 0.950 . S
C375 C374 1.373 . S
C375 C391 1.377 . S
C376 C374 1.389 . S
C376 C377 1.524 . S
C376 C390 1.377 . S
C377 C376 1.524 . S
C377 C378 1.397 . S
C377 C382 1.363 . S
C378 H355 0.950 . S
C378 C377 1.397 . S
C378 C379 1.334 . S
C379 H356 0.950 . S
C379 C378 1.334 . S
C379 C380 1.287 . S
C380 C379 1.287 . S
C380 C381 1.524 . S
C380 H399 0.913 . S
C381 H357 0.950 . S
C381 C380 1.524 . S
C381 C382 1.415 . S
C382 H358 0.950 . S
C382 C377 1.363 . S
C382 C381 1.415 . S
C383 H359 0.951 . S
C383 C384 1.366 . S
C383 C385 1.388 . S
C384 C383 1.366 . S
C384 C388 1.385 . S
C385 H360 0.951 . S
C385 C383 1.388 . S
C385 C386 1.366 . S
C386 C385 1.366 . S
C386 C387 1.414 . S
C386 C389 1.499 . S
C387 H361 0.950 . S
C387 C386 1.414 . S
C387 C388 1.374 . S
C388 H362 0.950 . S
C388 C384 1.385 . S
C388 C387 1.374 . S
C389 C386 1.499 . S
C389 C390 1.373 . S
C389 C391 1.389 . S
C390 H363 0.950 . S
C390 C376 1.377 . S
C390 C389 1.373 . S
C391 C375 1.377 . S
C391 C389 1.389 . S
C391 C392 1.524 . S
C392 C391 1.524 . S
C392 C393 1.397 . S
C392 C397 1.363 . S
C393 H364 0.950 . S
C393 C392 1.397 . S
C393 C394 1.334 . S
C394 H365 0.950 . S
C394 C393 1.334 . S
C394 C395 1.287 . S
C395 C394 1.287 . S
C395 C396 1.524 . S
C395 H398 0.999 . S
C396 H366 0.950 . S
C396 C395 1.524 . S
C396 C397 1.415 . S
C397 H367 0.950 . S
C397 C392 1.363 . S
C397 C396 1.415 . S
H398 C395 0.999 . S
H399 C380 0.913 . S
H400 C418 0.951 . S
H401 C420 0.951 . S
H402 C422 0.950 . S
H403 C423 0.950 . S
H404 C425 0.950 . S
H405 C428 0.950 . S
H406 C429 0.950 . S
H407 C431 0.950 . S
H408 C432 0.950 . S
H409 C433 0.951 . S
H410 C435 0.951 . S
H411 C437 0.950 . S
H412 C438 0.950 . S
H413 C440 0.950 . S
H414 C443 0.950 . S
H415 C444 0.950 . S
H416 C446 0.950 . S
H417 C447 0.950 . S
C418 H400 0.951 . S
C418 C419 1.366 . S
C418 C420 1.388 . S
C419 C418 1.366 . S
C419 C423 1.385 . S
C420 H401 0.951 . S
C420 C418 1.388 . S
C420 C421 1.366 . S
C421 C420 1.366 . S
C421 C422 1.414 . S
C421 C424 1.499 . S
C422 H402 0.950 . S
C422 C421 1.414 . S
C422 C423 1.374 . S
C423 H403 0.950 . S
C423 C419 1.385 . S
C423 C422 1.374 . S
C424 C421 1.499 . S
C424 C425 1.373 . S
C424 C426 1.389 . S
C425 H404 0.950 . S
C425 C424 1.373 . S
C425 C441 1.377 . S
C426 C424 1.389 . S
C426 C427 1.524 . S
C426 C440 1.377 . S
C427 C426 1.524 . S
C427 C428 1.397 . S
C427 C432 1.363 . S
C428 H405 0.950 . S
C428 C427 1.397 . S
C428 C429 1.334 . S
C429 H406 0.950 . S
C429 C428 1.334 . S
C429 C430 1.287 . S
C430 C429 1.287 . S
C430 C431 1.524 . S
C430 H449 0.913 . S
C431 H407 0.950 . S
C431 C430 1.524 . S
C431 C432 1.415 . S
C432 H408 0.950 . S
C432 C427 1.363 . S
C432 C431 1.415 . S
C433 H409 0.951 . S
C433 C434 1.366 . S
C433 C435 1.388 . S
C434 C433 1.366 . S
C434 C438 1.385 . S
C435 H410 0.951 . S
C435 C433 1.388 . S
C435 C436 1.366 . S
C436 C435 1.366 . S
C436 C437 1.414 . S
C436 C439 1.499 . S
C437 H411 0.950 . S
C437 C436 1.414 . S
C437 C438 1.374 . S
C438 H412 0.950 . S
C438 C434 1.385 . S
C438 C437 1.374 . S
C439 C436 1.499 . S
C439 C440 1.373 . S
C439 C441 1.389 . S
C440 H413 0.950 . S
C440 C426 1.377 . S
C440 C439 1.373 . S
C441 C425 1.377 . S
C441 C439 1.389 . S
C441 C442 1.524 . S
C442 C441 1.524 . S
C442 C443 1.397 . S
C442 C447 1.363 . S
C443 H414 0.950 . S
C443 C442 1.397 . S
C443 C444 1.334 . S
C444 H415 0.950 . S
C444 C443 1.334 . S
C444 C445 1.287 . S
C445 C444 1.287 . S
C445 C446 1.524 . S
C445 H448 0.999 . S
C446 H416 0.950 . S
C446 C445 1.524 . S
C446 C447 1.415 . S
C447 H417 0.950 . S
C447 C442 1.363 . S
C447 C446 1.415 . S
H448 C445 0.999 . S
H449 C430 0.913 . S
H450 C468 0.951 . S
H451 C470 0.951 . S
H452 C472 0.950 . S
H453 C473 0.950 . S
H454 C475 0.950 . S
H455 C478 0.935 1_655 S
H456 C479 0.950 . S
H457 C481 0.950 . S
H458 C482 0.950 . S
H459 C483 0.951 . S
H460 C485 0.951 . S
H461 C487 0.950 . S
H462 C488 0.949 . S
H463 C490 0.950 . S
H464 C493 0.950 . S
H465 C494 0.950 . S
H466 C496 0.950 . S
H467 C497 0.950 . S
C468 H450 0.951 . S
C468 C469 1.366 . S
C468 C470 1.388 . S
C469 C468 1.366 . S
C469 C473 1.385 1_455 S
C470 H451 0.951 . S
C470 C468 1.388 . S
C470 C471 1.366 1_455 S
C471 C470 1.366 1_655 S
C471 C472 1.414 . S
C471 C474 1.499 . S
C472 H452 0.950 . S
C472 C471 1.414 . S
C472 C473 1.374 . S
C473 H453 0.950 . S
C473 C469 1.385 1_655 S
C473 C472 1.374 . S
C474 C471 1.499 . S
C474 C475 1.373 . S
C474 C476 1.389 1_565 S
C475 H454 0.950 . S
C475 C474 1.373 . S
C475 C491 1.377 . S
C476 C474 1.389 1_545 S
C476 C477 1.524 . S
C476 C490 1.377 . S
C477 C476 1.524 . S
C477 C478 1.394 1_655 S
C477 C482 1.363 1_655 S
C478 H455 0.935 1_455 S
C478 C477 1.394 1_455 S
C478 C479 1.351 . S
C479 H456 0.950 . S
C479 C478 1.351 . S
C479 C480 1.287 . S
C480 C479 1.287 . S
C480 C481 1.524 . S
C480 H499 0.913 . S
C481 H457 0.950 . S
C481 C480 1.524 . S
C481 C482 1.415 . S
C482 H458 0.950 . S
C482 C477 1.363 1_455 S
C482 C481 1.415 . S
C483 H459 0.951 . S
C483 C484 1.366 . S
C483 C485 1.388 . S
C484 C483 1.366 . S
C484 C488 1.398 . S
C485 H460 0.951 . S
C485 C483 1.388 . S
C485 C486 1.366 1_545 S
C486 C485 1.366 1_565 S
C486 C487 1.414 . S
C486 C489 1.499 . S
C487 H461 0.950 . S
C487 C486 1.414 . S
C487 C488 1.365 1_565 S
C488 H462 0.949 . S
C488 C484 1.398 . S
C488 C487 1.365 1_545 S
C489 C486 1.499 . S
C489 C490 1.373 1_565 S
C489 C491 1.389 . S
C490 H463 0.950 . S
C490 C476 1.377 . S
C490 C489 1.373 1_545 S
C491 C475 1.377 . S
C491 C489 1.389 . S
C491 C492 1.524 . S
C492 C491 1.524 . S
C492 C493 1.397 . S
C492 C497 1.363 . S
C493 H464 0.950 . S
C493 C492 1.397 . S
C493 C494 1.334 . S
C494 H465 0.950 . S
C494 C493 1.334 . S
C494 C495 1.287 . S
C495 C494 1.287 . S
C495 C496 1.524 . S
C495 H498 0.999 . S
C496 H466 0.950 . S
C496 C495 1.524 . S
C496 C497 1.415 . S
C497 H467 0.950 . S
C497 C492 1.363 . S
C497 C496 1.415 . S
H498 C495 0.999 . S
H499 C480 0.913 . S
H500 C518 0.951 . S
H501 C520 0.951 . S
H502 C522 0.950 . S
H503 C523 0.950 . S
H504 C525 0.950 . S
H505 C528 0.950 . S
H506 C529 0.950 . S
H507 C531 0.950 . S
H508 C532 0.950 . S
H509 C533 0.951 . S
H510 C535 0.951 . S
H511 C537 0.950 . S
H512 C538 0.950 . S
H513 C540 0.950 . S
H514 C543 0.950 . S
H515 C544 0.950 . S
H516 C546 0.950 . S
H517 C547 0.950 . S
C518 H500 0.951 . S
C518 C519 1.366 . S
C518 C520 1.388 . S
C519 C518 1.366 . S
C519 C523 1.385 . S
C520 H501 0.951 . S
C520 C518 1.388 . S
C520 C521 1.366 . S
C521 C520 1.366 . S
C521 C522 1.414 . S
C521 C524 1.499 . S
C522 H502 0.950 . S
C522 C521 1.414 . S
C522 C523 1.374 . S
C523 H503 0.950 . S
C523 C519 1.385 . S
C523 C522 1.374 . S
C524 C521 1.499 . S
C524 C525 1.373 . S
C524 C526 1.389 . S
C525 H504 0.950 . S
C525 C524 1.373 . S
C525 C541 1.377 . S
C526 C524 1.389 . S
C526 C527 1.524 . S
C526 C540 1.377 . S
C527 C526 1.524 . S
C527 C528 1.397 . S
C527 C532 1.363 . S
C528 H505 0.950 . S
C528 C527 1.397 . S
C528 C529 1.334 . S
C529 H506 0.950 . S
C529 C528 1.334 . S
C529 C530 1.287 . S
C530 C529 1.287 . S
C530 C531 1.524 . S
C530 H549 0.913 . S
C531 H507 0.950 . S
C531 C530 1.524 . S
C531 C532 1.415 . S
C532 H508 0.950 . S
C532 C527 1.363 . S
C532 C531 1.415 . S
C533 H509 0.951 . S
C533 C534 1.366 . S
C533 C535 1.388 . S
C534 C533 1.366 . S
C534 C538 1.385 . S
C535 H510 0.951 . S
C535 C533 1.388 . S
C535 C536 1.366 . S
C536 C535 1.366 . S
C536 C537 1.414 . S
C536 C539 1.499 . S
C537 H511 0.950 . S
C537 C536 1.414 . S
C537 C538 1.374 . S
C538 H512 0.950 . S
C538 C534 1.385 . S
C538 C537 1.374 . S
C539 C536 1.499 . S
C539 C540 1.373 . S
C539 C541 1.389 . S
C540 H513 0.950 . S
C540 C526 1.377 . S
C540 C539 1.373 . S
C541 C525 1.377 . S
C541 C539 1.389 . S
C541 C542 1.524 . S
C542 C541 1.524 . S
C542 C543 1.397 . S
C542 C547 1.363 . S
C543 H514 0.950 . S
C543 C542 1.397 . S
C543 C544 1.334 . S
C544 H515 0.950 . S
C544 C543 1.334 . S
C544 C545 1.287 . S
C545 C544 1.287 . S
C545 C546 1.524 . S
C545 H548 0.999 . S
C546 H516 0.950 . S
C546 C545 1.524 . S
C546 C547 1.415 . S
C547 H517 0.950 . S
C547 C542 1.363 . S
C547 C546 1.415 . S
H548 C545 0.999 . S
H549 C530 0.913 . S
H550 C568 0.951 . S
H551 C570 0.951 . S
H552 C572 0.950 . S
H553 C573 0.950 . S
H554 C575 0.950 . S
H555 C578 0.950 . S
H556 C579 0.950 . S
H557 C581 0.950 . S
H558 C582 0.950 . S
H559 C583 0.951 . S
H560 C585 0.951 . S
H561 C587 0.950 . S
H562 C588 0.950 . S
H563 C590 0.950 . S
H564 C593 0.950 . S
H565 C594 0.950 . S
H566 C596 0.950 . S
H567 C597 0.950 . S
C568 H550 0.951 . S
C568 C569 1.366 . S
C568 C570 1.388 . S
C569 C568 1.366 . S
C569 C573 1.385 . S
C570 H551 0.951 . S
C570 C568 1.388 . S
C570 C571 1.366 . S
C571 C570 1.366 . S
C571 C572 1.414 . S
C571 C574 1.499 . S
C572 H552 0.950 . S
C572 C571 1.414 . S
C572 C573 1.374 . S
C573 H553 0.950 . S
C573 C569 1.385 . S
C573 C572 1.374 . S
C574 C571 1.499 . S
C574 C575 1.373 . S
C574 C576 1.389 . S
C575 H554 0.950 . S
C575 C574 1.373 . S
C575 C591 1.377 . S
C576 C574 1.389 . S
C576 C577 1.524 . S
C576 C590 1.377 . S
C577 C576 1.524 . S
C577 C578 1.397 . S
C577 C582 1.363 . S
C578 H555 0.950 . S
C578 C577 1.397 . S
C578 C579 1.334 . S
C579 H556 0.950 . S
C579 C578 1.334 . S
C579 C580 1.287 . S
C580 C579 1.287 . S
C580 C581 1.524 . S
C580 H599 0.913 . S
C581 H557 0.950 . S
C581 C580 1.524 . S
C581 C582 1.415 . S
C582 H558 0.950 . S
C582 C577 1.363 . S
C582 C581 1.415 . S
C583 H559 0.951 . S
C583 C584 1.366 . S
C583 C585 1.388 . S
C584 C583 1.366 . S
C584 C588 1.385 . S
C585 H560 0.951 . S
C585 C583 1.388 . S
C585 C586 1.366 . S
C586 C585 1.366 . S
C586 C587 1.414 . S
C586 C589 1.499 . S
C587 H561 0.950 . S
C587 C586 1.414 . S
C587 C588 1.374 . S
C588 H562 0.950 . S
C588 C584 1.385 . S
C588 C587 1.374 . S
C589 C586 1.499 . S
C589 C590 1.373 . S
C589 C591 1.389 . S
C590 H563 0.950 . S
C590 C576 1.377 . S
C590 C589 1.373 . S
C591 C575 1.377 . S
C591 C589 1.389 . S
C591 C592 1.524 . S
C592 C591 1.524 . S
C592 C593 1.397 . S
C592 C597 1.363 . S
C593 H564 0.950 . S
C593 C592 1.397 . S
C593 C594 1.334 . S
C594 H565 0.950 . S
C594 C593 1.334 . S
C594 C595 1.287 . S
C595 C594 1.287 . S
C595 C596 1.524 . S
C595 H598 0.999 . S
C596 H566 0.950 . S
C596 C595 1.524 . S
C596 C597 1.415 . S
C597 H567 0.950 . S
C597 C592 1.363 . S
C597 C596 1.415 . S
H598 C595 0.999 . S
H599 C580 0.913 . S
H600 C618 0.951 . S
H601 C620 0.951 . S
H602 C622 0.950 . S
H603 C623 0.950 . S
H604 C625 0.950 . S
H605 C628 0.950 . S
H606 C629 0.950 . S
H607 C631 0.950 . S
H608 C632 0.950 . S
H609 C633 0.951 . S
H610 C635 0.951 . S
H611 C637 0.950 . S
H612 C638 0.950 . S
H613 C640 0.950 . S
H614 C643 0.950 . S
H615 C644 0.950 . S
H616 C646 0.950 . S
H617 C647 0.950 . S
C618 H600 0.951 . S
C618 C619 1.366 . S
C618 C620 1.388 . S
C619 C618 1.366 . S
C619 C623 1.385 . S
C620 H601 0.951 . S
C620 C618 1.388 . S
C620 C621 1.366 . S
C621 C620 1.366 . S
C621 C622 1.414 . S
C621 C624 1.499 . S
C622 H602 0.950 . S
C622 C621 1.414 . S
C622 C623 1.374 . S
C623 H603 0.950 . S
C623 C619 1.385 . S
C623 C622 1.374 . S
C624 C621 1.499 . S
C624 C625 1.373 . S
C624 C626 1.389 . S
C625 H604 0.950 . S
C625 C624 1.373 . S
C625 C641 1.377 . S
C626 C624 1.389 . S
C626 C627 1.524 . S
C626 C640 1.377 . S
C627 C626 1.524 . S
C627 C628 1.397 . S
C627 C632 1.363 . S
C628 H605 0.950 . S
C628 C627 1.397 . S
C628 C629 1.334 . S
C629 H606 0.950 . S
C629 C628 1.334 . S
C629 C630 1.287 . S
C630 C629 1.287 . S
C630 C631 1.524 . S
C630 H649 0.913 . S
C631 H607 0.950 . S
C631 C630 1.524 . S
C631 C632 1.415 . S
C632 H608 0.950 . S
C632 C627 1.363 . S
C632 C631 1.415 . S
C633 H609 0.951 . S
C633 C634 1.366 . S
C633 C635 1.388 . S
C634 C633 1.366 . S
C634 C638 1.385 . S
C635 H610 0.951 . S
C635 C633 1.388 . S
C635 C636 1.366 . S
C636 C635 1.366 . S
C636 C637 1.414 . S
C636 C639 1.499 . S
C637 H611 0.950 . S
C637 C636 1.414 . S
C637 C638 1.374 . S
C638 H612 0.950 . S
C638 C634 1.385 . S
C638 C637 1.374 . S
C639 C636 1.499 . S
C639 C640 1.373 . S
C639 C641 1.389 . S
C640 H613 0.950 . S
C640 C626 1.377 . S
C640 C639 1.373 . S
C641 C625 1.377 . S
C641 C639 1.389 . S
C641 C642 1.524 . S
C642 C641 1.524 . S
C642 C643 1.397 . S
C642 C647 1.363 . S
C643 H614 0.950 . S
C643 C642 1.397 . S
C643 C644 1.334 . S
C644 H615 0.950 . S
C644 C643 1.334 . S
C644 C645 1.287 . S
C645 C644 1.287 . S
C645 C646 1.524 . S
C645 H648 0.999 . S
C646 H616 0.950 . S
C646 C645 1.524 . S
C646 C647 1.415 . S
C647 H617 0.950 . S
C647 C642 1.363 . S
C647 C646 1.415 . S
H648 C645 0.999 . S
H649 C630 0.913 . S
H650 C668 0.951 . S
H651 C670 0.951 . S
H652 C672 0.950 . S
H653 C673 0.950 . S
H654 C675 0.950 . S
H655 C678 0.950 . S
H656 C679 0.950 . S
H657 C681 0.950 . S
H658 C682 0.950 1_565 S
H659 C683 0.951 . S
H660 C685 0.951 . S
H661 C687 0.950 . S
H662 C688 0.950 . S
H663 C690 0.950 1_545 S
H664 C693 0.950 . S
H665 C694 0.950 . S
H666 C696 0.950 . S
H667 C697 0.950 . S
C668 H650 0.951 . S
C668 C669 1.366 . S
C668 C670 1.388 . S
C669 C668 1.366 . S
C669 C673 1.385 . S
C670 H651 0.951 . S
C670 C668 1.388 . S
C670 C671 1.366 . S
C671 C670 1.366 . S
C671 C672 1.414 . S
C671 C674 1.499 . S
C672 H652 0.950 . S
C672 C671 1.414 . S
C672 C673 1.374 . S
C673 H653 0.950 . S
C673 C669 1.385 . S
C673 C672 1.374 . S
C674 C671 1.499 . S
C674 C675 1.373 . S
C674 C676 1.389 . S
C675 H654 0.950 . S
C675 C674 1.373 . S
C675 C691 1.377 . S
C676 C674 1.389 . S
C676 C677 1.524 1_565 S
C676 C690 1.377 . S
C677 C676 1.524 1_545 S
C677 C678 1.397 . S
C677 C682 1.363 . S
C678 H655 0.950 . S
C678 C677 1.397 . S
C678 C679 1.334 . S
C679 H656 0.950 . S
C679 C678 1.334 . S
C679 C680 1.287 . S
C680 C679 1.287 . S
C680 C681 1.524 . S
C680 H699 0.913 . S
C681 H657 0.950 . S
C681 C680 1.524 . S
C681 C682 1.415 . S
C682 H658 0.950 1_545 S
C682 C677 1.363 . S
C682 C681 1.415 . S
C683 H659 0.951 . S
C683 C684 1.366 . S
C683 C685 1.388 . S
C684 C683 1.366 . S
C684 C688 1.385 . S
C685 H660 0.951 . S
C685 C683 1.388 . S
C685 C686 1.366 . S
C686 C685 1.366 . S
C686 C687 1.414 . S
C686 C689 1.499 . S
C687 H661 0.950 . S
C687 C686 1.414 . S
C687 C688 1.374 . S
C688 H662 0.950 . S
C688 C684 1.385 . S
C688 C687 1.374 . S
C689 C686 1.499 . S
C689 C690 1.373 . S
C689 C691 1.389 . S
C690 H663 0.950 1_565 S
C690 C676 1.377 . S
C690 C689 1.373 . S
C691 C675 1.377 . S
C691 C689 1.389 . S
C691 C692 1.524 . S
C692 C691 1.524 . S
C692 C693 1.397 . S
C692 C697 1.363 . S
C693 H664 0.950 . S
C693 C692 1.397 . S
C693 C694 1.334 . S
C694 H665 0.950 . S
C694 C693 1.334 . S
C694 C695 1.287 . S
C695 C694 1.287 . S
C695 C696 1.524 . S
C695 H698 0.999 . S
C696 H666 0.950 . S
C696 C695 1.524 . S
C696 C697 1.415 . S
C697 H667 0.950 . S
C697 C692 1.363 . S
C697 C696 1.415 . S
H698 C695 0.999 . S
H699 C680 0.913 . S
H700 C718 0.951 . S
H701 C720 0.951 . S
H702 C722 0.950 . S
H703 C723 0.950 . S
H704 C725 0.950 . S
H705 C728 0.950 . S
H706 C729 0.950 . S
H707 C731 0.950 . S
H708 C732 0.950 . S
H709 C733 0.951 . S
H710 C735 0.951 . S
H711 C737 0.950 . S
H712 C738 0.950 . S
H713 C740 0.950 . S
H714 C743 0.950 . S
H715 C744 0.950 . S
H716 C746 0.950 . S
H717 C747 0.950 . S
C718 H700 0.951 . S
C718 C719 1.366 . S
C718 C720 1.388 . S
C719 C718 1.366 . S
C719 C723 1.385 . S
C720 H701 0.951 . S
C720 C718 1.388 . S
C720 C721 1.366 . S
C721 C720 1.366 . S
C721 C722 1.414 . S
C721 C724 1.499 . S
C722 H702 0.950 . S
C722 C721 1.414 . S
C722 C723 1.374 . S
C723 H703 0.950 . S
C723 C719 1.385 . S
C723 C722 1.374 . S
C724 C721 1.499 . S
C724 C725 1.373 . S
C724 C726 1.389 . S
C725 H704 0.950 . S
C725 C724 1.373 . S
C725 C741 1.377 . S
C726 C724 1.389 . S
C726 C727 1.524 . S
C726 C740 1.377 . S
C727 C726 1.524 . S
C727 C728 1.397 . S
C727 C732 1.363 . S
C728 H705 0.950 . S
C728 C727 1.397 . S
C728 C729 1.334 . S
C729 H706 0.950 . S
C729 C728 1.334 . S
C729 C730 1.287 . S
C730 C729 1.287 . S
C730 C731 1.524 . S
C730 H749 0.913 . S
C731 H707 0.950 . S
C731 C730 1.524 . S
C731 C732 1.415 . S
C732 H708 0.950 . S
C732 C727 1.363 . S
C732 C731 1.415 . S
C733 H709 0.951 . S
C733 C734 1.366 . S
C733 C735 1.388 . S
C734 C733 1.366 . S
C734 C738 1.385 . S
C735 H710 0.951 . S
C735 C733 1.388 . S
C735 C736 1.366 . S
C736 C735 1.366 . S
C736 C737 1.414 . S
C736 C739 1.499 . S
C737 H711 0.950 . S
C737 C736 1.414 . S
C737 C738 1.374 . S
C738 H712 0.950 . S
C738 C734 1.385 . S
C738 C737 1.374 . S
C739 C736 1.499 . S
C739 C740 1.373 . S
C739 C741 1.389 . S
C740 H713 0.950 . S
C740 C726 1.377 . S
C740 C739 1.373 . S
C741 C725 1.377 . S
C741 C739 1.389 . S
C741 C742 1.524 . S
C742 C741 1.524 . S
C742 C743 1.397 . S
C742 C747 1.363 . S
C743 H714 0.950 . S
C743 C742 1.397 . S
C743 C744 1.334 . S
C744 H715 0.950 . S
C744 C743 1.334 . S
C744 C745 1.287 . S
C745 C744 1.287 . S
C745 C746 1.524 . S
C745 H748 0.999 . S
C746 H716 0.950 . S
C746 C745 1.524 . S
C746 C747 1.415 . S
C747 H717 0.950 . S
C747 C742 1.363 . S
C747 C746 1.415 . S
H748 C745 0.999 . S
H749 C730 0.913 . S
H750 C768 0.951 . S
H751 C770 0.951 . S
H752 C772 0.950 . S
H753 C773 0.950 . S
H754 C775 0.950 . S
H755 C778 0.950 . S
H756 C779 0.950 . S
H757 C781 0.950 . S
H758 C782 0.950 . S
H759 C783 0.951 . S
H760 C785 0.951 . S
H761 C787 0.950 . S
H762 C788 0.950 . S
H763 C790 0.950 . S
H764 C793 0.950 . S
H765 C794 0.950 . S
H766 C796 0.950 . S
H767 C797 0.950 . S
C768 H750 0.951 . S
C768 C769 1.366 . S
C768 C770 1.388 . S
C769 C768 1.366 . S
C769 C773 1.385 . S
C770 H751 0.951 . S
C770 C768 1.388 . S
C770 C771 1.366 . S
C771 C770 1.366 . S
C771 C772 1.414 . S
C771 C774 1.499 . S
C772 H752 0.950 . S
C772 C771 1.414 . S
C772 C773 1.374 . S
C773 H753 0.950 . S
C773 C769 1.385 . S
C773 C772 1.374 . S
C774 C771 1.499 . S
C774 C775 1.373 . S
C774 C776 1.389 . S
C775 H754 0.950 . S
C775 C774 1.373 . S
C775 C791 1.377 . S
C776 C774 1.389 . S
C776 C777 1.524 . S
C776 C790 1.377 . S
C777 C776 1.524 . S
C777 C778 1.397 . S
C777 C782 1.363 . S
C778 H755 0.950 . S
C778 C777 1.397 . S
C778 C779 1.334 . S
C779 H756 0.950 . S
C779 C778 1.334 . S
C779 C780 1.287 . S
C780 C779 1.287 . S
C780 C781 1.524 . S
C780 H799 0.913 . S
C781 H757 0.950 . S
C781 C780 1.524 . S
C781 C782 1.415 . S
C782 H758 0.950 . S
C782 C777 1.363 . S
C782 C781 1.415 . S
C783 H759 0.951 . S
C783 C784 1.366 . S
C783 C785 1.388 . S
C784 C783 1.366 . S
C784 C788 1.385 . S
C785 H760 0.951 . S
C785 C783 1.388 . S
C785 C786 1.366 . S
C786 C785 1.366 . S
C786 C787 1.414 . S
C786 C789 1.499 . S
C787 H761 0.950 . S
C787 C786 1.414 . S
C787 C788 1.374 . S
C788 H762 0.950 . S
C788 C784 1.385 . S
C788 C787 1.374 . S
C789 C786 1.499 . S
C789 C790 1.373 . S
C789 C791 1.389 . S
C790 H763 0.950 . S
C790 C776 1.377 . S
C790 C789 1.373 . S
C791 C775 1.377 . S
C791 C789 1.389 . S
C791 C792 1.524 . S
C792 C791 1.524 . S
C792 C793 1.397 . S
C792 C797 1.363 . S
C793 H764 0.950 . S
C793 C792 1.397 . S
C793 C794 1.334 . S
C794 H765 0.950 . S
C794 C793 1.334 . S
C794 C795 1.287 . S
C795 C794 1.287 . S
C795 C796 1.524 . S
C795 H798 0.999 . S
C796 H766 0.950 . S
C796 C795 1.524 . S
C796 C797 1.415 . S
C797 H767 0.950 . S
C797 C792 1.363 . S
C797 C796 1.415 . S
H798 C795 0.999 . S
H799 C780 0.913 . S
H800 C818 0.951 . S
H801 C820 0.951 . S
H802 C822 0.950 . S
H803 C823 0.950 . S
H804 C825 0.950 . S
H805 C828 0.950 . S
H806 C829 0.950 . S
H807 C831 0.950 . S
H808 C832 0.950 . S
H809 C833 0.951 . S
H810 C835 0.951 . S
H811 C837 0.950 . S
H812 C838 0.950 . S
H813 C840 0.950 . S
H814 C843 0.950 . S
H815 C844 0.950 . S
H816 C846 0.950 . S
H817 C847 0.950 . S
C818 H800 0.951 . S
C818 C819 1.366 . S
C818 C820 1.388 . S
C819 C818 1.366 . S
C819 C823 1.385 . S
C820 H801 0.951 . S
C820 C818 1.388 . S
C820 C821 1.366 . S
C821 C820 1.366 . S
C821 C822 1.414 . S
C821 C824 1.499 . S
C822 H802 0.950 . S
C822 C821 1.414 . S
C822 C823 1.374 . S
C823 H803 0.950 . S
C823 C819 1.385 . S
C823 C822 1.374 . S
C824 C821 1.499 . S
C824 C825 1.373 . S
C824 C826 1.389 . S
C825 H804 0.950 . S
C825 C824 1.373 . S
C825 C841 1.377 . S
C826 C824 1.389 . S
C826 C827 1.524 . S
C826 C840 1.377 . S
C827 C826 1.524 . S
C827 C828 1.397 . S
C827 C832 1.363 . S
C828 H805 0.950 . S
C828 C827 1.397 . S
C828 C829 1.334 . S
C829 H806 0.950 . S
C829 C828 1.334 . S
C829 C830 1.287 . S
C830 C829 1.287 . S
C830 C831 1.524 . S
C830 H849 0.913 . S
C831 H807 0.950 . S
C831 C830 1.524 . S
C831 C832 1.415 . S
C832 H808 0.950 . S
C832 C827 1.363 . S
C832 C831 1.415 . S
C833 H809 0.951 . S
C833 C834 1.366 . S
C833 C835 1.388 . S
C834 C833 1.366 . S
C834 C838 1.385 . S
C835 H810 0.951 . S
C835 C833 1.388 . S
C835 C836 1.366 . S
C836 C835 1.366 . S
C836 C837 1.414 . S
C836 C839 1.499 . S
C837 H811 0.950 . S
C837 C836 1.414 . S
C837 C838 1.374 . S
C838 H812 0.950 . S
C838 C834 1.385 . S
C838 C837 1.374 . S
C839 C836 1.499 . S
C839 C840 1.373 . S
C839 C841 1.389 . S
C840 H813 0.950 . S
C840 C826 1.377 . S
C840 C839 1.373 . S
C841 C825 1.377 . S
C841 C839 1.389 . S
C841 C842 1.524 . S
C842 C841 1.524 . S
C842 C843 1.397 . S
C842 C847 1.363 . S
C843 H814 0.950 . S
C843 C842 1.397 . S
C843 C844 1.334 . S
C844 H815 0.950 . S
C844 C843 1.334 . S
C844 C845 1.287 . S
C845 C844 1.287 . S
C845 C846 1.524 . S
C845 H848 0.999 . S
C846 H816 0.950 . S
C846 C845 1.524 . S
C846 C847 1.415 . S
C847 H817 0.950 . S
C847 C842 1.363 . S
C847 C846 1.415 . S
H848 C845 0.999 . S
H849 C830 0.913 . S
H850 C868 0.951 . S
H851 C870 0.951 . S
H852 C872 0.950 . S
H853 C873 0.950 . S
H854 C875 0.950 . S
H855 C878 0.950 . S
H856 C879 0.950 . S
H857 C881 0.950 . S
H858 C882 0.950 . S
H859 C883 0.951 . S
H860 C885 0.951 . S
H861 C887 0.950 . S
H862 C888 0.950 . S
H863 C890 0.950 . S
H864 C893 0.950 . S
H865 C894 0.950 . S
H866 C896 0.950 . S
H867 C897 0.950 . S
C868 H850 0.951 . S
C868 C869 1.366 . S
C868 C870 1.388 . S
C869 C868 1.366 . S
C869 C873 1.385 . S
C870 H851 0.951 . S
C870 C868 1.388 . S
C870 C871 1.366 . S
C871 C870 1.366 . S
C871 C872 1.414 . S
C871 C874 1.499 . S
C872 H852 0.950 . S
C872 C871 1.414 . S
C872 C873 1.374 . S
C873 H853 0.950 . S
C873 C869 1.385 . S
C873 C872 1.374 . S
C874 C871 1.499 . S
C874 C875 1.373 . S
C874 C876 1.389 . S
C875 H854 0.950 . S
C875 C874 1.373 . S
C875 C891 1.377 . S
C876 C874 1.389 . S
C876 C877 1.524 . S
C876 C890 1.377 . S
C877 C876 1.524 . S
C877 C878 1.397 . S
C877 C882 1.363 . S
C878 H855 0.950 . S
C878 C877 1.397 . S
C878 C879 1.334 . S
C879 H856 0.950 . S
C879 C878 1.334 . S
C879 C880 1.287 . S
C880 C879 1.287 . S
C880 C881 1.524 . S
C880 H899 0.913 . S
C881 H857 0.950 . S
C881 C880 1.524 . S
C881 C882 1.415 . S
C882 H858 0.950 . S
C882 C877 1.363 . S
C882 C881 1.415 . S
C883 H859 0.951 . S
C883 C884 1.366 . S
C883 C885 1.388 . S
C884 C883 1.366 . S
C884 C888 1.385 . S
C885 H860 0.951 . S
C885 C883 1.388 . S
C885 C886 1.366 . S
C886 C885 1.366 . S
C886 C887 1.414 . S
C886 C889 1.499 . S
C887 H861 0.950 . S
C887 C886 1.414 . S
C887 C888 1.374 . S
C888 H862 0.950 . S
C888 C884 1.385 . S
C888 C887 1.374 . S
C889 C886 1.499 . S
C889 C890 1.373 . S
C889 C891 1.389 . S
C890 H863 0.950 . S
C890 C876 1.377 . S
C890 C889 1.373 . S
C891 C875 1.377 . S
C891 C889 1.389 . S
C891 C892 1.524 . S
C892 C891 1.524 . S
C892 C893 1.397 . S
C892 C897 1.363 . S
C893 H864 0.950 . S
C893 C892 1.397 . S
C893 C894 1.334 . S
C894 H865 0.950 . S
C894 C893 1.334 . S
C894 C895 1.287 . S
C895 C894 1.287 . S
C895 C896 1.524 . S
C895 H898 0.999 . S
C896 H866 0.950 . S
C896 C895 1.524 . S
C896 C897 1.415 . S
C897 H867 0.950 . S
C897 C892 1.363 . S
C897 C896 1.415 . S
H898 C895 0.999 . S
H899 C880 0.913 . S
H900 C918 0.951 . S
H901 C920 0.951 . S
H902 C922 0.950 . S
H903 C923 0.950 . S
H904 C925 0.950 . S
H905 C928 0.950 . S
H906 C929 0.950 . S
H907 C931 0.950 . S
H908 C932 0.950 . S
H909 C933 0.951 . S
H910 C935 0.951 . S
H911 C937 0.950 . S
H912 C938 0.950 . S
H913 C940 0.950 . S
H914 C943 0.950 . S
H915 C944 0.950 . S
H916 C946 0.950 . S
H917 C947 0.950 . S
C918 H900 0.951 . S
C918 C919 1.366 . S
C918 C920 1.388 . S
C919 C918 1.366 . S
C919 C923 1.385 . S
C920 H901 0.951 . S
C920 C918 1.388 . S
C920 C921 1.366 . S
C921 C920 1.366 . S
C921 C922 1.414 . S
C921 C924 1.499 . S
C922 H902 0.950 . S
C922 C921 1.414 . S
C922 C923 1.374 . S
C923 H903 0.950 . S
C923 C919 1.385 . S
C923 C922 1.374 . S
C924 C921 1.499 . S
C924 C925 1.373 . S
C924 C926 1.389 . S
C925 H904 0.950 . S
C925 C924 1.373 . S
C925 C941 1.377 . S
C926 C924 1.389 . S
C926 C927 1.524 . S
C926 C940 1.377 . S
C927 C926 1.524 . S
C927 C928 1.397 . S
C927 C932 1.363 . S
C928 H905 0.950 . S
C928 C927 1.397 . S
C928 C929 1.334 . S
C929 H906 0.950 . S
C929 C928 1.334 . S
C929 C930 1.287 . S
C930 C929 1.287 . S
C930 C931 1.524 . S
C930 H949 0.913 . S
C931 H907 0.950 . S
C931 C930 1.524 . S
C931 C932 1.415 . S
C932 H908 0.950 . S
C932 C927 1.363 . S
C932 C931 1.415 . S
C933 H909 0.951 . S
C933 C934 1.366 . S
C933 C935 1.388 . S
C934 C933 1.366 . S
C934 C938 1.385 . S
C935 H910 0.951 . S
C935 C933 1.388 . S
C935 C936 1.366 . S
C936 C935 1.366 . S
C936 C937 1.414 . S
C936 C939 1.499 . S
C937 H911 0.950 . S
C937 C936 1.414 . S
C937 C938 1.374 . S
C938 H912 0.950 . S
C938 C934 1.385 . S
C938 C937 1.374 . S
C939 C936 1.499 . S
C939 C940 1.373 . S
C939 C941 1.389 . S
C940 H913 0.950 . S
C940 C926 1.377 . S
C940 C939 1.373 . S
C941 C925 1.377 . S
C941 C939 1.389 . S
C941 C942 1.524 . S
C942 C941 1.524 . S
C942 C943 1.397 . S
C942 C947 1.363 . S
C943 H914 0.950 . S
C943 C942 1.397 . S
C943 C944 1.334 . S
C944 H915 0.950 . S
C944 C943 1.334 . S
C944 C945 1.287 . S
C945 C944 1.287 . S
C945 C946 1.524 . S
C945 H948 0.999 . S
C946 H916 0.950 . S
C946 C945 1.524 . S
C946 C947 1.415 . S
C947 H917 0.950 . S
C947 C942 1.363 . S
C947 C946 1.415 . S
H948 C945 0.999 . S
H949 C930 0.913 . S
H950 C968 0.951 . S
H951 C970 0.951 . S
H952 C972 0.950 . S
H953 C973 0.950 . S
H954 C975 0.950 . S
H955 C978 0.950 . S
H956 C979 0.950 . S
H957 C981 0.950 . S
H958 C982 0.950 . S
H959 C983 0.951 . S
H960 C985 0.926 1_655 S
H961 C987 0.950 . S
H962 C988 0.950 . S
H963 C990 0.950 . S
H964 C993 0.950 . S
H965 C994 0.950 . S
H966 C996 0.977 . S
H967 C997 0.950 1_655 S
C968 H950 0.951 . S
C968 C969 1.366 . S
C968 C970 1.388 . S
C969 C968 1.366 . S
C969 C973 1.385 . S
C970 H951 0.951 . S
C970 C968 1.388 . S
C970 C971 1.366 . S
C971 C970 1.366 . S
C971 C972 1.414 . S
C971 C974 1.499 . S
C972 H952 0.950 . S
C972 C971 1.414 . S
C972 C973 1.374 . S
C973 H953 0.950 . S
C973 C969 1.385 . S
C973 C972 1.374 . S
C974 C971 1.499 . S
C974 C975 1.373 . S
C974 C976 1.389 . S
C975 H954 0.950 . S
C975 C974 1.373 . S
C975 C991 1.377 . S
C976 C974 1.389 . S
C976 C977 1.524 . S
C976 C990 1.377 . S
C977 C976 1.524 . S
C977 C978 1.397 . S
C977 C982 1.363 . S
C978 H955 0.950 . S
C978 C977 1.397 . S
C978 C979 1.334 . S
C979 H956 0.950 . S
C979 C978 1.334 . S
C979 C980 1.287 . S
C980 C979 1.287 . S
C980 C981 1.524 . S
C980 H999 0.913 . S
C981 H957 0.950 . S
C981 C980 1.524 . S
C981 C982 1.415 . S
C982 H958 0.950 . S
C982 C977 1.363 . S
C982 C981 1.415 . S
C983 H959 0.951 . S
C983 C984 1.366 1_655 S
C983 C985 1.384 1_655 S
C984 C983 1.366 1_455 S
C984 C988 1.385 . S
C985 H960 0.926 1_455 S
C985 C983 1.384 1_455 S
C985 C986 1.395 . S
C986 C985 1.395 . S
C986 C987 1.414 . S
C986 C989 1.499 . S
C987 H961 0.950 . S
C987 C986 1.414 . S
C987 C988 1.374 . S
C988 H962 0.950 . S
C988 C984 1.385 . S
C988 C987 1.374 . S
C989 C986 1.499 . S
C989 C990 1.373 . S
C989 C991 1.389 . S
C990 H963 0.950 . S
C990 C976 1.377 . S
C990 C989 1.373 . S
C991 C975 1.377 . S
C991 C989 1.389 . S
C991 C992 1.524 . S
C992 C991 1.524 . S
C992 C993 1.397 . S
C992 C997 1.363 . S
C993 H964 0.950 . S
C993 C992 1.397 . S
C993 C994 1.334 . S
C994 H965 0.950 . S
C994 C993 1.334 . S
C994 C995 1.287 . S
C995 C994 1.287 . S
C995 C996 1.497 1_455 S
C995 H998 0.999 . S
C996 H966 0.977 . S
C996 C995 1.497 1_655 S
C996 C997 1.411 1_655 S
C997 H967 0.950 1_455 S
C997 C992 1.363 . S
C997 C996 1.411 1_455 S
H998 C995 0.999 . S
H999 C980 0.913 . S
H1000 C1018 0.951 . S
H1001 C1020 0.951 . S
H1002 C1022 0.950 . S
H1003 C1023 0.950 . S
H1004 C1025 0.950 . S
H1005 C1028 0.950 . S
H1006 C1029 0.950 . S
H1007 C1031 0.950 . S
H1008 C1032 0.950 . S
H1009 C1033 0.951 . S
H1010 C1035 0.951 . S
H1011 C1037 0.950 . S
H1012 C1038 0.950 . S
H1013 C1040 0.950 . S
H1014 C1043 0.950 . S
H1015 C1044 0.950 . S
H1016 C1046 0.950 . S
H1017 C1047 0.950 . S
C1018 H1000 0.951 . S
C1018 C1019 1.366 . S
C1018 C1020 1.388 . S
C1019 C1018 1.366 . S
C1019 C1023 1.385 . S
C1020 H1001 0.951 . S
C1020 C1018 1.388 . S
C1020 C1021 1.366 . S
C1021 C1020 1.366 . S
C1021 C1022 1.414 . S
C1021 C1024 1.499 . S
C1022 H1002 0.950 . S
C1022 C1021 1.414 . S
C1022 C1023 1.374 . S
C1023 H1003 0.950 . S
C1023 C1019 1.385 . S
C1023 C1022 1.374 . S
C1024 C1021 1.499 . S
C1024 C1025 1.373 . S
C1024 C1026 1.389 . S
C1025 H1004 0.950 . S
C1025 C1024 1.373 . S
C1025 C1041 1.377 . S
C1026 C1024 1.389 . S
C1026 C1027 1.524 . S
C1026 C1040 1.377 . S
C1027 C1026 1.524 . S
C1027 C1028 1.397 . S
C1027 C1032 1.363 . S
C1028 H1005 0.950 . S
C1028 C1027 1.397 . S
C1028 C1029 1.334 . S
C1029 H1006 0.950 . S
C1029 C1028 1.334 . S
C1029 C1030 1.287 . S
C1030 C1029 1.287 . S
C1030 C1031 1.524 . S
C1030 H1049 0.913 . S
C1031 H1007 0.950 . S
C1031 C1030 1.524 . S
C1031 C1032 1.415 . S
C1032 H1008 0.950 . S
C1032 C1027 1.363 . S
C1032 C1031 1.415 . S
C1033 H1009 0.951 . S
C1033 C1034 1.366 . S
C1033 C1035 1.388 . S
C1034 C1033 1.366 . S
C1034 C1038 1.385 . S
C1035 H1010 0.951 . S
C1035 C1033 1.388 . S
C1035 C1036 1.366 . S
C1036 C1035 1.366 . S
C1036 C1037 1.414 . S
C1036 C1039 1.499 . S
C1037 H1011 0.950 . S
C1037 C1036 1.414 . S
C1037 C1038 1.374 . S
C1038 H1012 0.950 . S
C1038 C1034 1.385 . S
C1038 C1037 1.374 . S
C1039 C1036 1.499 . S
C1039 C1040 1.373 . S
C1039 C1041 1.389 . S
C1040 H1013 0.950 . S
C1040 C1026 1.377 . S
C1040 C1039 1.373 . S
C1041 C1025 1.377 . S
C1041 C1039 1.389 . S
C1041 C1042 1.524 . S
C1042 C1041 1.524 . S
C1042 C1043 1.397 . S
C1042 C1047 1.363 . S
C1043 H1014 0.950 . S
C1043 C1042 1.397 . S
C1043 C1044 1.334 . S
C1044 H1015 0.950 . S
C1044 C1043 1.334 . S
C1044 C1045 1.287 . S
C1045 C1044 1.287 . S
C1045 C1046 1.524 . S
C1045 H1048 0.999 . S
C1046 H1016 0.950 . S
C1046 C1045 1.524 . S
C1046 C1047 1.415 . S
C1047 H1017 0.950 . S
C1047 C1042 1.363 . S
C1047 C1046 1.415 . S
H1048 C1045 0.999 . S
H1049 C1030 0.913 . S
H1050 C1068 0.951 . S
H1051 C1070 0.951 . S
H1052 C1072 0.950 . S
H1053 C1073 0.950 . S
H1054 C1075 0.950 . S
H1055 C1078 0.950 . S
H1056 C1079 0.950 . S
H1057 C1081 0.950 . S
H1058 C1082 0.950 . S
H1059 C1083 0.951 . S
H1060 C1085 0.951 1_455 S
H1061 C1087 0.950 . S
H1062 C1088 0.950 . S
H1063 C1090 0.950 . S
H1064 C1093 0.950 . S
H1065 C1094 0.950 . S
H1066 C1096 0.950 . S
H1067 C1097 0.950 . S
C1068 H1050 0.951 . S
C1068 C1069 1.366 . S
C1068 C1070 1.388 . S
C1069 C1068 1.366 . S
C1069 C1073 1.385 . S
C1070 H1051 0.951 . S
C1070 C1068 1.388 . S
C1070 C1071 1.366 . S
C1071 C1070 1.366 . S
C1071 C1072 1.414 . S
C1071 C1074 1.499 . S
C1072 H1052 0.950 . S
C1072 C1071 1.414 . S
C1072 C1073 1.374 . S
C1073 H1053 0.950 . S
C1073 C1069 1.385 . S
C1073 C1072 1.374 . S
C1074 C1071 1.499 . S
C1074 C1075 1.373 . S
C1074 C1076 1.389 . S
C1075 H1054 0.950 . S
C1075 C1074 1.373 . S
C1075 C1091 1.377 . S
C1076 C1074 1.389 . S
C1076 C1077 1.524 . S
C1076 C1090 1.377 . S
C1077 C1076 1.524 . S
C1077 C1078 1.397 1_655 S
C1077 C1082 1.363 . S
C1078 H1055 0.950 . S
C1078 C1077 1.397 1_455 S
C1078 C1079 1.334 . S
C1079 H1056 0.950 . S
C1079 C1078 1.334 . S
C1079 C1080 1.287 . S
C1080 C1079 1.287 . S
C1080 C1081 1.524 1_455 S
C1080 H1099 0.913 . S
C1081 H1057 0.950 . S
C1081 C1080 1.524 1_655 S
C1081 C1082 1.415 . S
C1082 H1058 0.950 . S
C1082 C1077 1.363 . S
C1082 C1081 1.415 . S
C1083 H1059 0.951 . S
C1083 C1084 1.366 1_455 S
C1083 C1085 1.388 1_455 S
C1084 C1083 1.366 1_655 S
C1084 C1088 1.385 . S
C1085 H1060 0.951 1_655 S
C1085 C1083 1.388 1_655 S
C1085 C1086 1.366 . S
C1086 C1085 1.366 . S
C1086 C1087 1.414 . S
C1086 C1089 1.499 . S
C1087 H1061 0.950 . S
C1087 C1086 1.414 . S
C1087 C1088 1.374 . S
C1088 H1062 0.950 . S
C1088 C1084 1.385 . S
C1088 C1087 1.374 . S
C1089 C1086 1.499 . S
C1089 C1090 1.373 . S
C1089 C1091 1.389 . S
C1090 H1063 0.950 . S
C1090 C1076 1.377 . S
C1090 C1089 1.373 . S
C1091 C1075 1.377 . S
C1091 C1089 1.389 . S
C1091 C1092 1.524 . S
C1092 C1091 1.524 . S
C1092 C1093 1.397 . S
C1092 C1097 1.363 . S
C1093 H1064 0.950 . S
C1093 C1092 1.397 . S
C1093 C1094 1.334 . S
C1094 H1065 0.950 . S
C1094 C1093 1.334 . S
C1094 C1095 1.287 . S
C1095 C1094 1.287 . S
C1095 C1096 1.524 . S
C1095 H1098 0.999 . S
C1096 H1066 0.950 . S
C1096 C1095 1.524 . S
C1096 C1097 1.415 . S
C1097 H1067 0.950 . S
C1097 C1092 1.363 . S
C1097 C1096 1.415 . S
H1098 C1095 0.999 . S
H1099 C1080 0.913 . S
H1100 C1118 0.951 . S
H1101 C1120 0.951 . S
H1102 C1122 0.950 . S
H1103 C1123 0.950 . S
H1104 C1125 0.950 . S
H1105 C1128 0.950 . S
H1106 C1129 0.950 . S
H1107 C1131 0.950 . S
H1108 C1132 0.950 . S
H1109 C1133 0.951 . S
H1110 C1135 0.951 . S
H1111 C1137 0.950 . S
H1112 C1138 0.950 . S
H1113 C1140 0.950 . S
H1114 C1143 0.950 . S
H1115 C1144 0.950 . S
H1116 C1146 0.950 . S
H1117 C1147 0.950 . S
C1118 H1100 0.951 . S
C1118 C1119 1.366 . S
C1118 C1120 1.388 . S
C1119 C1118 1.366 . S
C1119 C1123 1.385 . S
C1120 H1101 0.951 . S
C1120 C1118 1.388 . S
C1120 C1121 1.366 . S
C1121 C1120 1.366 . S
C1121 C1122 1.414 . S
C1121 C1124 1.499 . S
C1122 H1102 0.950 . S
C1122 C1121 1.414 . S
C1122 C1123 1.374 . S
C1123 H1103 0.950 . S
C1123 C1119 1.385 . S
C1123 C1122 1.374 . S
C1124 C1121 1.499 . S
C1124 C1125 1.373 . S
C1124 C1126 1.389 . S
C1125 H1104 0.950 . S
C1125 C1124 1.373 . S
C1125 C1141 1.377 . S
C1126 C1124 1.389 . S
C1126 C1127 1.524 . S
C1126 C1140 1.377 . S
C1127 C1126 1.524 . S
C1127 C1128 1.397 . S
C1127 C1132 1.363 . S
C1128 H1105 0.950 . S
C1128 C1127 1.397 . S
C1128 C1129 1.334 . S
C1129 H1106 0.950 . S
C1129 C1128 1.334 . S
C1129 C1130 1.287 . S
C1130 C1129 1.287 . S
C1130 C1131 1.524 . S
C1130 H1149 0.913 . S
C1131 H1107 0.950 . S
C1131 C1130 1.524 . S
C1131 C1132 1.415 . S
C1132 H1108 0.950 . S
C1132 C1127 1.363 . S
C1132 C1131 1.415 . S
C1133 H1109 0.951 . S
C1133 C1134 1.366 . S
C1133 C1135 1.388 . S
C1134 C1133 1.366 . S
C1134 C1138 1.385 . S
C1135 H1110 0.951 . S
C1135 C1133 1.388 . S
C1135 C1136 1.366 . S
C1136 C1135 1.366 . S
C1136 C1137 1.414 . S
C1136 C1139 1.499 . S
C1137 H1111 0.950 . S
C1137 C1136 1.414 . S
C1137 C1138 1.374 . S
C1138 H1112 0.950 . S
C1138 C1134 1.385 . S
C1138 C1137 1.374 . S
C1139 C1136 1.499 . S
C1139 C1140 1.373 . S
C1139 C1141 1.389 . S
C1140 H1113 0.950 . S
C1140 C1126 1.377 . S
C1140 C1139 1.373 . S
C1141 C1125 1.377 . S
C1141 C1139 1.389 . S
C1141 C1142 1.524 . S
C1142 C1141 1.524 . S
C1142 C1143 1.397 . S
C1142 C1147 1.363 . S
C1143 H1114 0.950 . S
C1143 C1142 1.397 . S
C1143 C1144 1.334 . S
C1144 H1115 0.950 . S
C1144 C1143 1.334 . S
C1144 C1145 1.287 . S
C1145 C1144 1.287 . S
C1145 C1146 1.524 . S
C1145 H1148 0.999 . S
C1146 H1116 0.950 . S
C1146 C1145 1.524 . S
C1146 C1147 1.415 . S
C1147 H1117 0.950 . S
C1147 C1142 1.363 . S
C1147 C1146 1.415 . S
H1148 C1145 0.999 . S
H1149 C1130 0.913 . S
H1150 C1168 0.951 . S
H1151 C1170 0.951 . S
H1152 C1172 0.950 . S
H1153 C1173 0.950 . S
H1154 C1175 0.950 . S
H1155 C1178 0.950 . S
H1156 C1179 0.950 . S
H1157 C1181 0.950 . S
H1158 C1182 0.950 . S
H1159 C1183 0.951 . S
H1160 C1185 0.951 . S
H1161 C1187 0.950 . S
H1162 C1188 0.950 . S
H1163 C1190 0.950 . S
H1164 C1193 0.950 . S
H1165 C1194 0.950 . S
H1166 C1196 0.950 . S
H1167 C1197 0.950 . S
C1168 H1150 0.951 . S
C1168 C1169 1.366 . S
C1168 C1170 1.388 . S
C1169 C1168 1.366 . S
C1169 C1173 1.385 . S
C1170 H1151 0.951 . S
C1170 C1168 1.388 . S
C1170 C1171 1.366 . S
C1171 C1170 1.366 . S
C1171 C1172 1.414 . S
C1171 C1174 1.499 . S
C1172 H1152 0.950 . S
C1172 C1171 1.414 . S
C1172 C1173 1.374 . S
C1173 H1153 0.950 . S
C1173 C1169 1.385 . S
C1173 C1172 1.374 . S
C1174 C1171 1.499 . S
C1174 C1175 1.373 . S
C1174 C1176 1.389 . S
C1175 H1154 0.950 . S
C1175 C1174 1.373 . S
C1175 C1191 1.377 . S
C1176 C1174 1.389 . S
C1176 C1177 1.524 . S
C1176 C1190 1.377 . S
C1177 C1176 1.524 . S
C1177 C1178 1.397 . S
C1177 C1182 1.363 . S
C1178 H1155 0.950 . S
C1178 C1177 1.397 . S
C1178 C1179 1.334 . S
C1179 H1156 0.950 . S
C1179 C1178 1.334 . S
C1179 C1180 1.287 . S
C1180 C1179 1.287 . S
C1180 C1181 1.524 . S
C1180 H1199 0.913 . S
C1181 H1157 0.950 . S
C1181 C1180 1.524 . S
C1181 C1182 1.415 . S
C1182 H1158 0.950 . S
C1182 C1177 1.363 . S
C1182 C1181 1.415 . S
C1183 H1159 0.951 . S
C1183 C1184 1.366 . S
C1183 C1185 1.388 . S
C1184 C1183 1.366 . S
C1184 C1188 1.385 . S
C1185 H1160 0.951 . S
C1185 C1183 1.388 . S
C1185 C1186 1.366 . S
C1186 C1185 1.366 . S
C1186 C1187 1.414 . S
C1186 C1189 1.499 . S
C1187 H1161 0.950 . S
C1187 C1186 1.414 . S
C1187 C1188 1.374 . S
C1188 H1162 0.950 . S
C1188 C1184 1.385 . S
C1188 C1187 1.374 . S
C1189 C1186 1.499 . S
C1189 C1190 1.373 . S
C1189 C1191 1.389 . S
C1190 H1163 0.950 . S
C1190 C1176 1.377 . S
C1190 C1189 1.373 . S
C1191 C1175 1.377 . S
C1191 C1189 1.389 . S
C1191 C1192 1.524 . S
C1192 C1191 1.524 . S
C1192 C1193 1.397 . S
C1192 C1197 1.363 . S
C1193 H1164 0.950 . S
C1193 C1192 1.397 . S
C1193 C1194 1.334 . S
C1194 H1165 0.950 . S
C1194 C1193 1.334 . S
C1194 C1195 1.287 . S
C1195 C1194 1.287 . S
C1195 C1196 1.524 . S
C1195 H1198 0.999 . S
C1196 H1166 0.950 . S
C1196 C1195 1.524 . S
C1196 C1197 1.415 . S
C1197 H1167 0.950 . S
C1197 C1192 1.363 . S
C1197 C1196 1.415 . S
H1198 C1195 0.999 . S
H1199 C1180 0.913 . S
H1200 C1218 0.951 . S
H1201 C1220 0.951 . S
H1202 C1222 0.950 . S
H1203 C1223 0.950 . S
H1204 C1225 0.950 . S
H1205 C1228 0.950 . S
H1206 C1229 0.950 . S
H1207 C1231 0.950 . S
H1208 C1232 0.950 . S
H1209 C1233 0.951 . S
H1210 C1235 0.951 . S
H1211 C1237 0.959 . S
H1212 C1238 0.950 . S
H1213 C1240 0.950 . S
H1214 C1243 0.950 . S
H1215 C1244 0.950 . S
H1216 C1246 0.950 . S
H1217 C1247 0.948 1_556 S
C1218 H1200 0.951 . S
C1218 C1219 1.366 1_565 S
C1218 C1220 1.388 . S
C1219 C1218 1.366 1_545 S
C1219 C1223 1.385 . S
C1220 H1201 0.951 . S
C1220 C1218 1.388 . S
C1220 C1221 1.366 . S
C1221 C1220 1.366 . S
C1221 C1222 1.414 1_565 S
C1221 C1224 1.499 . S
C1222 H1202 0.950 . S
C1222 C1221 1.414 1_545 S
C1222 C1223 1.374 . S
C1223 H1203 0.950 . S
C1223 C1219 1.385 . S
C1223 C1222 1.374 . S
C1224 C1221 1.499 . S
C1224 C1225 1.373 . S
C1224 C1226 1.389 . S
C1225 H1204 0.950 . S
C1225 C1224 1.373 . S
C1225 C1241 1.377 . S
C1226 C1224 1.389 . S
C1226 C1227 1.524 . S
C1226 C1240 1.377 . S
C1227 C1226 1.524 . S
C1227 C1228 1.397 . S
C1227 C1232 1.363 . S
C1228 H1205 0.950 . S
C1228 C1227 1.397 . S
C1228 C1229 1.334 . S
C1229 H1206 0.950 . S
C1229 C1228 1.334 . S
C1229 C1230 1.287 . S
C1230 C1229 1.287 . S
C1230 C1231 1.524 . S
C1230 H1249 0.913 . S
C1231 H1207 0.950 . S
C1231 C1230 1.524 . S
C1231 C1232 1.415 . S
C1232 H1208 0.950 . S
C1232 C1227 1.363 . S
C1232 C1231 1.415 . S
C1233 H1209 0.951 . S
C1233 C1234 1.369 . S
C1233 C1235 1.388 . S
C1234 C1233 1.369 . S
C1234 C1238 1.383 1_556 S
C1235 H1210 0.951 . S
C1235 C1233 1.388 . S
C1235 C1236 1.366 . S
C1236 C1235 1.366 . S
C1236 C1237 1.400 1_556 S
C1236 C1239 1.499 . S
C1237 H1211 0.959 . S
C1237 C1236 1.400 1_554 S
C1237 C1238 1.381 . S
C1238 H1212 0.950 . S
C1238 C1234 1.383 1_554 S
C1238 C1237 1.381 . S
C1239 C1236 1.499 . S
C1239 C1240 1.373 . S
C1239 C1241 1.389 . S
C1240 H1213 0.950 . S
C1240 C1226 1.377 . S
C1240 C1239 1.373 . S
C1241 C1225 1.377 . S
C1241 C1239 1.389 . S
C1241 C1242 1.524 1_556 S
C1242 C1241 1.524 1_554 S
C1242 C1243 1.397 . S
C1242 C1247 1.368 1_565 S
C1243 H1214 0.950 . S
C1243 C1242 1.397 . S
C1243 C1244 1.334 . S
C1244 H1215 0.950 . S
C1244 C1243 1.334 . S
C1244 C1245 1.287 . S
C1245 C1244 1.287 . S
C1245 C1246 1.524 1_565 S
C1245 H1248 0.999 1_565 S
C1246 H1216 0.950 . S
C1246 C1245 1.524 1_545 S
C1246 C1247 1.413 . S
C1247 H1217 0.948 1_554 S
C1247 C1242 1.368 1_545 S
C1247 C1246 1.413 . S
H1248 C1245 0.999 1_545 S
H1249 C1230 0.913 . S
H1250 C1268 0.951 . S
H1251 C1270 0.951 . S
H1252 C1272 0.950 . S
H1253 C1273 0.950 . S
H1254 C1275 0.950 . S
H1255 C1278 0.950 . S
H1256 C1279 0.950 . S
H1257 C1281 0.950 . S
H1258 C1282 0.950 . S
H1259 C1283 0.951 . S
H1260 C1285 0.951 . S
H1261 C1287 0.950 . S
H1262 C1288 0.950 . S
H1263 C1290 0.950 . S
H1264 C1293 0.950 . S
H1265 C1294 0.950 . S
H1266 C1296 0.950 . S
H1267 C1297 0.950 . S
C1268 H1250 0.951 . S
C1268 C1269 1.366 . S
C1268 C1270 1.388 . S
C1269 C1268 1.366 . S
C1269 C1273 1.385 . S
C1270 H1251 0.951 . S
C1270 C1268 1.388 . S
C1270 C1271 1.366 . S
C1271 C1270 1.366 . S
C1271 C1272 1.414 . S
C1271 C1274 1.499 . S
C1272 H1252 0.950 . S
C1272 C1271 1.414 . S
C1272 C1273 1.374 . S
C1273 H1253 0.950 . S
C1273 C1269 1.385 . S
C1273 C1272 1.374 . S
C1274 C1271 1.499 . S
C1274 C1275 1.373 . S
C1274 C1276 1.389 . S
C1275 H1254 0.950 . S
C1275 C1274 1.373 . S
C1275 C1291 1.377 . S
C1276 C1274 1.389 . S
C1276 C1277 1.524 . S
C1276 C1290 1.377 . S
C1277 C1276 1.524 . S
C1277 C1278 1.397 . S
C1277 C1282 1.363 . S
C1278 H1255 0.950 . S
C1278 C1277 1.397 . S
C1278 C1279 1.334 . S
C1279 H1256 0.950 . S
C1279 C1278 1.334 . S
C1279 C1280 1.287 . S
C1280 C1279 1.287 . S
C1280 C1281 1.524 . S
C1280 H1299 0.913 . S
C1281 H1257 0.950 . S
C1281 C1280 1.524 . S
C1281 C1282 1.415 . S
C1282 H1258 0.950 . S
C1282 C1277 1.363 . S
C1282 C1281 1.415 . S
C1283 H1259 0.951 . S
C1283 C1284 1.366 . S
C1283 C1285 1.388 . S
C1284 C1283 1.366 . S
C1284 C1288 1.385 . S
C1285 H1260 0.951 . S
C1285 C1283 1.388 . S
C1285 C1286 1.366 . S
C1286 C1285 1.366 . S
C1286 C1287 1.414 . S
C1286 C1289 1.499 . S
C1287 H1261 0.950 . S
C1287 C1286 1.414 . S
C1287 C1288 1.374 . S
C1288 H1262 0.950 . S
C1288 C1284 1.385 . S
C1288 C1287 1.374 . S
C1289 C1286 1.499 . S
C1289 C1290 1.373 . S
C1289 C1291 1.389 . S
C1290 H1263 0.950 . S
C1290 C1276 1.377 . S
C1290 C1289 1.373 . S
C1291 C1275 1.377 . S
C1291 C1289 1.389 . S
C1291 C1292 1.524 . S
C1292 C1291 1.524 . S
C1292 C1293 1.397 . S
C1292 C1297 1.363 . S
C1293 H1264 0.950 . S
C1293 C1292 1.397 . S
C1293 C1294 1.334 . S
C1294 H1265 0.950 . S
C1294 C1293 1.334 . S
C1294 C1295 1.287 . S
C1295 C1294 1.287 . S
C1295 C1296 1.524 . S
C1295 H1298 0.999 . S
C1296 H1266 0.950 . S
C1296 C1295 1.524 . S
C1296 C1297 1.415 . S
C1297 H1267 0.950 . S
C1297 C1292 1.363 . S
C1297 C1296 1.415 . S
H1298 C1295 0.999 . S
H1299 C1280 0.913 . S
H1300 C1318 0.951 . S
H1301 C1320 0.951 . S
H1302 C1322 0.929 1_565 S
H1303 C1323 0.950 . S
H1304 C1325 0.950 . S
H1305 C1328 0.950 . S
H1306 C1329 0.950 . S
H1307 C1331 0.950 . S
H1308 C1332 0.950 . S
H1309 C1333 0.951 . S
H1310 C1335 0.951 . S
H1311 C1337 0.950 . S
H1312 C1338 0.950 . S
H1313 C1340 0.950 . S
H1314 C1343 0.950 . S
H1315 C1344 0.950 . S
H1316 C1346 0.950 1_565 S
H1317 C1347 0.950 . S
C1318 H1300 0.951 . S
C1318 C1319 1.349 1_545 S
C1318 C1320 1.388 . S
C1319 C1318 1.349 1_565 S
C1319 C1323 1.391 . S
C1320 H1301 0.951 . S
C1320 C1318 1.388 . S
C1320 C1321 1.366 . S
C1321 C1320 1.366 . S
C1321 C1322 1.414 . S
C1321 C1324 1.499 . S
C1322 H1302 0.929 1_545 S
C1322 C1321 1.414 . S
C1322 C1323 1.374 1_545 S
C1323 H1303 0.950 . S
C1323 C1319 1.391 . S
C1323 C1322 1.374 1_565 S
C1324 C1321 1.499 . S
C1324 C1325 1.373 . S
C1324 C1326 1.389 . S
C1325 H1304 0.950 . S
C1325 C1324 1.373 . S
C1325 C1341 1.377 . S
C1326 C1324 1.389 . S
C1326 C1327 1.524 . S
C1326 C1340 1.377 . S
C1327 C1326 1.524 . S
C1327 C1328 1.397 . S
C1327 C1332 1.363 . S
C1328 H1305 0.950 . S
C1328 C1327 1.397 . S
C1328 C1329 1.334 . S
C1329 H1306 0.950 . S
C1329 C1328 1.334 . S
C1329 C1330 1.287 . S
C1330 C1329 1.287 . S
C1330 C1331 1.524 . S
C1330 H1349 0.913 . S
C1331 H1307 0.950 . S
C1331 C1330 1.524 . S
C1331 C1332 1.415 . S
C1332 H1308 0.950 . S
C1332 C1327 1.363 . S
C1332 C1331 1.415 . S
C1333 H1309 0.951 . S
C1333 C1334 1.366 . S
C1333 C1335 1.388 . S
C1334 C1333 1.366 . S
C1334 C1338 1.385 . S
C1335 H1310 0.951 . S
C1335 C1333 1.388 . S
C1335 C1336 1.366 . S
C1336 C1335 1.366 . S
C1336 C1337 1.414 . S
C1336 C1339 1.499 . S
C1337 H1311 0.950 . S
C1337 C1336 1.414 . S
C1337 C1338 1.374 . S
C1338 H1312 0.950 . S
C1338 C1334 1.385 . S
C1338 C1337 1.374 . S
C1339 C1336 1.499 . S
C1339 C1340 1.373 . S
C1339 C1341 1.389 . S
C1340 H1313 0.950 . S
C1340 C1326 1.377 . S
C1340 C1339 1.373 . S
C1341 C1325 1.377 . S
C1341 C1339 1.389 . S
C1341 C1342 1.524 . S
C1342 C1341 1.524 . S
C1342 C1343 1.397 . S
C1342 C1347 1.363 . S
C1343 H1314 0.950 . S
C1343 C1342 1.397 . S
C1343 C1344 1.334 . S
C1344 H1315 0.950 . S
C1344 C1343 1.334 . S
C1344 C1345 1.287 . S
C1345 C1344 1.287 . S
C1345 C1346 1.524 . S
C1345 H1348 0.999 . S
C1346 H1316 0.950 1_545 S
C1346 C1345 1.524 . S
C1346 C1347 1.415 . S
C1347 H1317 0.950 . S
C1347 C1342 1.363 . S
C1347 C1346 1.415 . S
H1348 C1345 0.999 . S
H1349 C1330 0.913 . S
H1350 C1368 0.951 . S
H1351 C1370 0.951 . S
H1352 C1372 0.950 . S
H1353 C1373 0.950 . S
H1354 C1375 0.950 . S
H1355 C1378 0.950 . S
H1356 C1379 0.950 . S
H1357 C1381 0.950 . S
H1358 C1382 0.950 . S
H1359 C1383 0.951 . S
H1360 C1385 0.951 . S
H1361 C1387 0.950 . S
H1362 C1388 0.950 . S
H1363 C1390 0.950 . S
H1364 C1393 0.950 . S
H1365 C1394 0.950 . S
H1366 C1396 0.950 . S
H1367 C1397 0.950 . S
C1368 H1350 0.951 . S
C1368 C1369 1.366 . S
C1368 C1370 1.388 . S
C1369 C1368 1.366 . S
C1369 C1373 1.385 . S
C1370 H1351 0.951 . S
C1370 C1368 1.388 . S
C1370 C1371 1.366 . S
C1371 C1370 1.366 . S
C1371 C1372 1.414 . S
C1371 C1374 1.499 . S
C1372 H1352 0.950 . S
C1372 C1371 1.414 . S
C1372 C1373 1.374 . S
C1373 H1353 0.950 . S
C1373 C1369 1.385 . S
C1373 C1372 1.374 . S
C1374 C1371 1.499 . S
C1374 C1375 1.373 . S
C1374 C1376 1.389 . S
C1375 H1354 0.950 . S
C1375 C1374 1.373 . S
C1375 C1391 1.377 . S
C1376 C1374 1.389 . S
C1376 C1377 1.524 . S
C1376 C1390 1.377 . S
C1377 C1376 1.524 . S
C1377 C1378 1.397 . S
C1377 C1382 1.363 . S
C1378 H1355 0.950 . S
C1378 C1377 1.397 . S
C1378 C1379 1.334 . S
C1379 H1356 0.950 . S
C1379 C1378 1.334 . S
C1379 C1380 1.287 . S
C1380 C1379 1.287 . S
C1380 C1381 1.524 . S
C1380 H1399 0.913 . S
C1381 H1357 0.950 . S
C1381 C1380 1.524 . S
C1381 C1382 1.415 . S
C1382 H1358 0.950 . S
C1382 C1377 1.363 . S
C1382 C1381 1.415 . S
C1383 H1359 0.951 . S
C1383 C1384 1.366 . S
C1383 C1385 1.388 . S
C1384 C1383 1.366 . S
C1384 C1388 1.385 . S
C1385 H1360 0.951 . S
C1385 C1383 1.388 . S
C1385 C1386 1.366 . S
C1386 C1385 1.366 . S
C1386 C1387 1.414 . S
C1386 C1389 1.499 . S
C1387 H1361 0.950 . S
C1387 C1386 1.414 . S
C1387 C1388 1.374 . S
C1388 H1362 0.950 . S
C1388 C1384 1.385 . S
C1388 C1387 1.374 . S
C1389 C1386 1.499 . S
C1389 C1390 1.373 . S
C1389 C1391 1.389 . S
C1390 H1363 0.950 . S
C1390 C1376 1.377 . S
C1390 C1389 1.373 . S
C1391 C1375 1.377 . S
C1391 C1389 1.389 . S
C1391 C1392 1.524 . S
C1392 C1391 1.524 . S
C1392 C1393 1.397 . S
C1392 C1397 1.363 . S
C1393 H1364 0.950 . S
C1393 C1392 1.397 . S
C1393 C1394 1.334 . S
C1394 H1365 0.950 . S
C1394 C1393 1.334 . S
C1394 C1395 1.287 . S
C1395 C1394 1.287 . S
C1395 C1396 1.524 . S
C1395 H1398 0.999 . S
C1396 H1366 0.950 . S
C1396 C1395 1.524 . S
C1396 C1397 1.415 . S
C1397 H1367 0.950 . S
C1397 C1392 1.363 . S
C1397 C1396 1.415 . S
H1398 C1395 0.999 . S
H1399 C1380 0.913 . S
H1400 C1418 0.950 . S
H1401 C1420 0.951 . S
H1402 C1422 0.950 . S
H1403 C1423 0.950 . S
H1404 C1425 0.950 . S
H1405 C1428 0.950 . S
H1406 C1429 0.950 . S
H1407 C1431 0.950 . S
H1408 C1432 0.950 . S
H1409 C1433 0.951 . S
H1410 C1435 0.951 . S
H1411 C1437 0.950 . S
H1412 C1438 0.950 . S
H1413 C1440 0.950 . S
H1414 C1443 0.950 . S
H1415 C1444 0.950 . S
H1416 C1446 0.950 . S
H1417 C1447 0.950 . S
C1418 H1400 0.950 . S
C1418 C1419 1.365 . S
C1418 C1420 1.389 1_565 S
C1419 C1418 1.365 . S
C1419 C1423 1.385 . S
C1420 H1401 0.951 . S
C1420 C1418 1.389 1_545 S
C1420 C1421 1.366 . S
C1421 C1420 1.366 . S
C1421 C1422 1.414 . S
C1421 C1424 1.499 . S
C1422 H1402 0.950 . S
C1422 C1421 1.414 . S
C1422 C1423 1.374 1_545 S
C1423 H1403 0.950 . S
C1423 C1419 1.385 . S
C1423 C1422 1.374 1_565 S
C1424 C1421 1.499 . S
C1424 C1425 1.373 . S
C1424 C1426 1.389 . S
C1425 H1404 0.950 . S
C1425 C1424 1.373 . S
C1425 C1441 1.377 . S
C1426 C1424 1.389 . S
C1426 C1427 1.524 . S
C1426 C1440 1.377 . S
C1427 C1426 1.524 . S
C1427 C1428 1.397 . S
C1427 C1432 1.363 . S
C1428 H1405 0.950 . S
C1428 C1427 1.397 . S
C1428 C1429 1.334 . S
C1429 H1406 0.950 . S
C1429 C1428 1.334 . S
C1429 C1430 1.287 . S
C1430 C1429 1.287 . S
C1430 C1431 1.524 . S
C1430 H1449 0.913 . S
C1431 H1407 0.950 . S
C1431 C1430 1.524 . S
C1431 C1432 1.415 . S
C1432 H1408 0.950 . S
C1432 C1427 1.363 . S
C1432 C1431 1.415 . S
C1433 H1409 0.951 . S
C1433 C1434 1.366 . S
C1433 C1435 1.388 . S
C1434 C1433 1.366 . S
C1434 C1438 1.385 . S
C1435 H1410 0.951 . S
C1435 C1433 1.388 . S
C1435 C1436 1.366 . S
C1436 C1435 1.366 . S
C1436 C1437 1.414 . S
C1436 C1439 1.499 . S
C1437 H1411 0.950 . S
C1437 C1436 1.414 . S
C1437 C1438 1.374 . S
C1438 H1412 0.950 . S
C1438 C1434 1.385 . S
C1438 C1437 1.374 . S
C1439 C1436 1.499 . S
C1439 C1440 1.373 . S
C1439 C1441 1.389 . S
C1440 H1413 0.950 . S
C1440 C1426 1.377 . S
C1440 C1439 1.373 . S
C1441 C1425 1.377 . S
C1441 C1439 1.389 . S
C1441 C1442 1.524 . S
C1442 C1441 1.524 . S
C1442 C1443 1.397 . S
C1442 C1447 1.363 . S
C1443 H1414 0.950 . S
C1443 C1442 1.397 . S
C1443 C1444 1.334 . S
C1444 H1415 0.950 . S
C1444 C1443 1.334 . S
C1444 C1445 1.287 . S
C1445 C1444 1.287 . S
C1445 C1446 1.524 . S
C1445 H1448 0.999 . S
C1446 H1416 0.950 . S
C1446 C1445 1.524 . S
C1446 C1447 1.415 . S
C1447 H1417 0.950 . S
C1447 C1442 1.363 . S
C1447 C1446 1.415 . S
H1448 C1445 0.999 . S
H1449 C1430 0.913 . S
H1450 C1468 0.951 . S
H1451 C1470 0.951 . S
H1452 C1472 0.950 . S
H1453 C1473 0.950 . S
H1454 C1475 0.950 . S
H1455 C1478 0.950 . S
H1456 C1479 0.950 . S
H1457 C1481 0.950 . S
H1458 C1482 0.950 . S
H1459 C1483 0.951 . S
H1460 C1485 0.951 . S
H1461 C1487 0.950 . S
H1462 C1488 0.950 . S
H1463 C1490 0.950 . S
H1464 C1493 0.950 . S
H1465 C1494 0.950 . S
H1466 C1496 0.950 . S
H1467 C1497 0.950 . S
C1468 H1450 0.951 . S
C1468 C1469 1.366 . S
C1468 C1470 1.388 . S
C1469 C1468 1.366 . S
C1469 C1473 1.385 . S
C1470 H1451 0.951 . S
C1470 C1468 1.388 . S
C1470 C1471 1.366 . S
C1471 C1470 1.366 . S
C1471 C1472 1.414 . S
C1471 C1474 1.499 . S
C1472 H1452 0.950 . S
C1472 C1471 1.414 . S
C1472 C1473 1.374 . S
C1473 H1453 0.950 . S
C1473 C1469 1.385 . S
C1473 C1472 1.374 . S
C1474 C1471 1.499 . S
C1474 C1475 1.373 . S
C1474 C1476 1.389 . S
C1475 H1454 0.950 . S
C1475 C1474 1.373 . S
C1475 C1491 1.377 . S
C1476 C1474 1.389 . S
C1476 C1477 1.524 . S
C1476 C1490 1.377 . S
C1477 C1476 1.524 . S
C1477 C1478 1.397 . S
C1477 C1482 1.363 . S
C1478 H1455 0.950 . S
C1478 C1477 1.397 . S
C1478 C1479 1.334 . S
C1479 H1456 0.950 . S
C1479 C1478 1.334 . S
C1479 C1480 1.287 . S
C1480 C1479 1.287 . S
C1480 C1481 1.524 . S
C1480 H1499 0.913 . S
C1481 H1457 0.950 . S
C1481 C1480 1.524 . S
C1481 C1482 1.415 . S
C1482 H1458 0.950 . S
C1482 C1477 1.363 . S
C1482 C1481 1.415 . S
C1483 H1459 0.951 . S
C1483 C1484 1.366 . S
C1483 C1485 1.388 . S
C1484 C1483 1.366 . S
C1484 C1488 1.385 . S
C1485 H1460 0.951 . S
C1485 C1483 1.388 . S
C1485 C1486 1.366 . S
C1486 C1485 1.366 . S
C1486 C1487 1.414 . S
C1486 C1489 1.499 . S
C1487 H1461 0.950 . S
C1487 C1486 1.414 . S
C1487 C1488 1.374 . S
C1488 H1462 0.950 . S
C1488 C1484 1.385 . S
C1488 C1487 1.374 . S
C1489 C1486 1.499 . S
C1489 C1490 1.373 . S
C1489 C1491 1.389 . S
C1490 H1463 0.950 . S
C1490 C1476 1.377 . S
C1490 C1489 1.373 . S
C1491 C1475 1.377 . S
C1491 C1489 1.389 . S
C1491 C1492 1.524 . S
C1492 C1491 1.524 . S
C1492 C1493 1.397 . S
C1492 C1497 1.363 . S
C1493 H1464 0.950 . S
C1493 C1492 1.397 . S
C1493 C1494 1.334 . S
C1494 H1465 0.950 . S
C1494 C1493 1.334 . S
C1494 C1495 1.287 . S
C1495 C1494 1.287 . S
C1495 C1496 1.524 . S
C1495 H1498 0.999 . S
C1496 H1466 0.950 . S
C1496 C1495 1.524 . S
C1496 C1497 1.415 . S
C1497 H1467 0.950 . S
C1497 C1492 1.363 . S
C1497 C1496 1.415 . S
H1498 C1495 0.999 . S
H1499 C1480 0.913 . S
H1500 C1518 0.951 . S
H1501 C1520 0.951 . S
H1502 C1522 0.950 . S
H1503 C1523 0.950 . S
H1504 C1525 0.950 . S
H1505 C1528 0.950 . S
H1506 C1529 0.950 . S
H1507 C1531 0.950 . S
H1508 C1532 0.950 . S
H1509 C1533 0.951 . S
H1510 C1535 0.951 . S
H1511 C1537 0.950 . S
H1512 C1538 0.950 . S
H1513 C1540 0.950 . S
H1514 C1543 0.950 . S
H1515 C1544 0.950 . S
H1516 C1546 0.950 . S
H1517 C1547 0.950 . S
C1518 H1500 0.951 . S
C1518 C1519 1.366 . S
C1518 C1520 1.388 . S
C1519 C1518 1.366 . S
C1519 C1523 1.385 . S
C1520 H1501 0.951 . S
C1520 C1518 1.388 . S
C1520 C1521 1.366 . S
C1521 C1520 1.366 . S
C1521 C1522 1.414 . S
C1521 C1524 1.499 . S
C1522 H1502 0.950 . S
C1522 C1521 1.414 . S
C1522 C1523 1.374 . S
C1523 H1503 0.950 . S
C1523 C1519 1.385 . S
C1523 C1522 1.374 . S
C1524 C1521 1.499 . S
C1524 C1525 1.373 . S
C1524 C1526 1.389 . S
C1525 H1504 0.950 . S
C1525 C1524 1.373 . S
C1525 C1541 1.377 . S
C1526 C1524 1.389 . S
C1526 C1527 1.524 . S
C1526 C1540 1.377 . S
C1527 C1526 1.524 . S
C1527 C1528 1.397 . S
C1527 C1532 1.363 . S
C1528 H1505 0.950 . S
C1528 C1527 1.397 . S
C1528 C1529 1.334 . S
C1529 H1506 0.950 . S
C1529 C1528 1.334 . S
C1529 C1530 1.287 . S
C1530 C1529 1.287 . S
C1530 C1531 1.524 . S
C1530 H1549 0.913 . S
C1531 H1507 0.950 . S
C1531 C1530 1.524 . S
C1531 C1532 1.415 . S
C1532 H1508 0.950 . S
C1532 C1527 1.363 . S
C1532 C1531 1.415 . S
C1533 H1509 0.951 . S
C1533 C1534 1.366 . S
C1533 C1535 1.388 . S
C1534 C1533 1.366 . S
C1534 C1538 1.385 . S
C1535 H1510 0.951 . S
C1535 C1533 1.388 . S
C1535 C1536 1.366 . S
C1536 C1535 1.366 . S
C1536 C1537 1.414 . S
C1536 C1539 1.499 . S
C1537 H1511 0.950 . S
C1537 C1536 1.414 . S
C1537 C1538 1.374 . S
C1538 H1512 0.950 . S
C1538 C1534 1.385 . S
C1538 C1537 1.374 . S
C1539 C1536 1.499 . S
C1539 C1540 1.373 . S
C1539 C1541 1.389 . S
C1540 H1513 0.950 . S
C1540 C1526 1.377 . S
C1540 C1539 1.373 . S
C1541 C1525 1.377 . S
C1541 C1539 1.389 . S
C1541 C1542 1.524 . S
C1542 C1541 1.524 . S
C1542 C1543 1.397 . S
C1542 C1547 1.363 . S
C1543 H1514 0.950 . S
C1543 C1542 1.397 . S
C1543 C1544 1.334 . S
C1544 H1515 0.950 . S
C1544 C1543 1.334 . S
C1544 C1545 1.287 . S
C1545 C1544 1.287 . S
C1545 C1546 1.524 . S
C1545 H1548 0.999 . S
C1546 H1516 0.950 . S
C1546 C1545 1.524 . S
C1546 C1547 1.415 . S
C1547 H1517 0.950 . S
C1547 C1542 1.363 . S
C1547 C1546 1.415 . S
H1548 C1545 0.999 . S
H1549 C1530 0.913 . S
H1550 C1568 0.951 . S
H1551 C1570 0.951 . S
H1552 C1572 0.950 . S
H1553 C1573 0.950 . S
H1554 C1575 0.950 . S
H1555 C1578 0.950 . S
H1556 C1579 0.950 . S
H1557 C1581 0.950 . S
H1558 C1582 0.950 . S
H1559 C1583 0.951 . S
H1560 C1585 0.951 . S
H1561 C1587 0.950 . S
H1562 C1588 0.950 . S
H1563 C1590 0.950 1_565 S
H1564 C1593 0.950 . S
H1565 C1594 0.950 . S
H1566 C1596 0.950 . S
H1567 C1597 0.950 . S
C1568 H1550 0.951 . S
C1568 C1569 1.366 . S
C1568 C1570 1.388 . S
C1569 C1568 1.366 . S
C1569 C1573 1.385 . S
C1570 H1551 0.951 . S
C1570 C1568 1.388 . S
C1570 C1571 1.366 . S
C1571 C1570 1.366 . S
C1571 C1572 1.414 . S
C1571 C1574 1.499 . S
C1572 H1552 0.950 . S
C1572 C1571 1.414 . S
C1572 C1573 1.374 . S
C1573 H1553 0.950 . S
C1573 C1569 1.385 . S
C1573 C1572 1.374 . S
C1574 C1571 1.499 . S
C1574 C1575 1.373 . S
C1574 C1576 1.389 . S
C1575 H1554 0.950 . S
C1575 C1574 1.373 . S
C1575 C1591 1.377 . S
C1576 C1574 1.389 . S
C1576 C1577 1.524 1_545 S
C1576 C1590 1.377 . S
C1577 C1576 1.524 1_565 S
C1577 C1578 1.397 . S
C1577 C1582 1.363 . S
C1578 H1555 0.950 . S
C1578 C1577 1.397 . S
C1578 C1579 1.334 . S
C1579 H1556 0.950 . S
C1579 C1578 1.334 . S
C1579 C1580 1.287 . S
C1580 C1579 1.287 . S
C1580 C1581 1.524 . S
C1580 H1599 0.913 . S
C1581 H1557 0.950 . S
C1581 C1580 1.524 . S
C1581 C1582 1.415 . S
C1582 H1558 0.950 . S
C1582 C1577 1.363 . S
C1582 C1581 1.415 . S
C1583 H1559 0.951 . S
C1583 C1584 1.366 . S
C1583 C1585 1.388 . S
C1584 C1583 1.366 . S
C1584 C1588 1.385 . S
C1585 H1560 0.951 . S
C1585 C1583 1.388 . S
C1585 C1586 1.366 . S
C1586 C1585 1.366 . S
C1586 C1587 1.414 . S
C1586 C1589 1.499 . S
C1587 H1561 0.950 . S
C1587 C1586 1.414 . S
C1587 C1588 1.374 . S
C1588 H1562 0.950 . S
C1588 C1584 1.385 . S
C1588 C1587 1.374 . S
C1589 C1586 1.499 . S
C1589 C1590 1.373 . S
C1589 C1591 1.389 . S
C1590 H1563 0.950 1_545 S
C1590 C1576 1.377 . S
C1590 C1589 1.373 . S
C1591 C1575 1.377 . S
C1591 C1589 1.389 . S
C1591 C1592 1.524 . S
C1592 C1591 1.524 . S
C1592 C1593 1.397 . S
C1592 C1597 1.363 . S
C1593 H1564 0.950 . S
C1593 C1592 1.397 . S
C1593 C1594 1.334 . S
C1594 H1565 0.950 . S
C1594 C1593 1.334 . S
C1594 C1595 1.287 . S
C1595 C1594 1.287 . S
C1595 C1596 1.524 . S
C1595 H1598 0.999 . S
C1596 H1566 0.950 . S
C1596 C1595 1.524 . S
C1596 C1597 1.415 . S
C1597 H1567 0.950 . S
C1597 C1592 1.363 . S
C1597 C1596 1.415 . S
H1598 C1595 0.999 . S
H1599 C1580 0.913 . S
H1600 C1618 0.951 . S
H1601 C1620 0.951 . S
H1602 C1622 0.950 . S
H1603 C1623 0.950 . S
H1604 C1625 0.950 . S
H1605 C1628 0.950 . S
H1606 C1629 0.950 . S
H1607 C1631 0.950 . S
H1608 C1632 0.950 . S
H1609 C1633 0.951 . S
H1610 C1635 0.951 . S
H1611 C1637 0.950 . S
H1612 C1638 0.950 . S
H1613 C1640 0.950 . S
H1614 C1643 0.950 . S
H1615 C1644 0.950 . S
H1616 C1646 0.950 . S
H1617 C1647 0.950 . S
C1618 H1600 0.951 . S
C1618 C1619 1.366 . S
C1618 C1620 1.388 . S
C1619 C1618 1.366 . S
C1619 C1623 1.385 . S
C1620 H1601 0.951 . S
C1620 C1618 1.388 . S
C1620 C1621 1.366 . S
C1621 C1620 1.366 . S
C1621 C1622 1.414 . S
C1621 C1624 1.499 . S
C1622 H1602 0.950 . S
C1622 C1621 1.414 . S
C1622 C1623 1.374 . S
C1623 H1603 0.950 . S
C1623 C1619 1.385 . S
C1623 C1622 1.374 . S
C1624 C1621 1.499 . S
C1624 C1625 1.373 . S
C1624 C1626 1.389 . S
C1625 H1604 0.950 . S
C1625 C1624 1.373 . S
C1625 C1641 1.377 . S
C1626 C1624 1.389 . S
C1626 C1627 1.524 . S
C1626 C1640 1.377 . S
C1627 C1626 1.524 . S
C1627 C1628 1.397 . S
C1627 C1632 1.363 . S
C1628 H1605 0.950 . S
C1628 C1627 1.397 . S
C1628 C1629 1.334 . S
C1629 H1606 0.950 . S
C1629 C1628 1.334 . S
C1629 C1630 1.287 . S
C1630 C1629 1.287 . S
C1630 C1631 1.524 . S
C1630 H1649 0.913 . S
C1631 H1607 0.950 . S
C1631 C1630 1.524 . S
C1631 C1632 1.415 . S
C1632 H1608 0.950 . S
C1632 C1627 1.363 . S
C1632 C1631 1.415 . S
C1633 H1609 0.951 . S
C1633 C1634 1.366 . S
C1633 C1635 1.388 . S
C1634 C1633 1.366 . S
C1634 C1638 1.385 . S
C1635 H1610 0.951 . S
C1635 C1633 1.388 . S
C1635 C1636 1.366 . S
C1636 C1635 1.366 . S
C1636 C1637 1.414 . S
C1636 C1639 1.499 . S
C1637 H1611 0.950 . S
C1637 C1636 1.414 . S
C1637 C1638 1.374 . S
C1638 H1612 0.950 . S
C1638 C1634 1.385 . S
C1638 C1637 1.374 . S
C1639 C1636 1.499 . S
C1639 C1640 1.373 . S
C1639 C1641 1.389 . S
C1640 H1613 0.950 . S
C1640 C1626 1.377 . S
C1640 C1639 1.373 . S
C1641 C1625 1.377 . S
C1641 C1639 1.389 . S
C1641 C1642 1.524 . S
C1642 C1641 1.524 . S
C1642 C1643 1.397 . S
C1642 C1647 1.363 . S
C1643 H1614 0.950 . S
C1643 C1642 1.397 . S
C1643 C1644 1.334 . S
C1644 H1615 0.950 . S
C1644 C1643 1.334 . S
C1644 C1645 1.287 . S
C1645 C1644 1.287 . S
C1645 C1646 1.524 . S
C1645 H1648 0.999 . S
C1646 H1616 0.950 . S
C1646 C1645 1.524 . S
C1646 C1647 1.415 . S
C1647 H1617 0.950 . S
C1647 C1642 1.363 . S
C1647 C1646 1.415 . S
H1648 C1645 0.999 . S
H1649 C1630 0.913 . S
H1650 C1668 0.951 . S
H1651 C1670 0.951 . S
H1652 C1672 0.950 . S
H1653 C1673 0.950 . S
H1654 C1675 0.950 . S
H1655 C1678 0.950 . S
H1656 C1679 0.950 . S
H1657 C1681 0.950 . S
H1658 C1682 0.950 . S
H1659 C1683 0.951 . S
H1660 C1685 0.951 . S
H1661 C1687 0.950 . S
H1662 C1688 0.950 . S
H1663 C1690 0.950 . S
H1664 C1693 0.950 . S
H1665 C1694 0.950 . S
H1666 C1696 0.950 . S
H1667 C1697 0.950 . S
C1668 H1650 0.951 . S
C1668 C1669 1.366 . S
C1668 C1670 1.388 . S
C1669 C1668 1.366 . S
C1669 C1673 1.385 . S
C1670 H1651 0.951 . S
C1670 C1668 1.388 . S
C1670 C1671 1.366 . S
C1671 C1670 1.366 . S
C1671 C1672 1.414 . S
C1671 C1674 1.499 . S
C1672 H1652 0.950 . S
C1672 C1671 1.414 . S
C1672 C1673 1.374 . S
C1673 H1653 0.950 . S
C1673 C1669 1.385 . S
C1673 C1672 1.374 . S
C1674 C1671 1.499 . S
C1674 C1675 1.373 . S
C1674 C1676 1.389 . S
C1675 H1654 0.950 . S
C1675 C1674 1.373 . S
C1675 C1691 1.377 . S
C1676 C1674 1.389 . S
C1676 C1677 1.524 . S
C1676 C1690 1.377 . S
C1677 C1676 1.524 . S
C1677 C1678 1.397 . S
C1677 C1682 1.363 . S
C1678 H1655 0.950 . S
C1678 C1677 1.397 . S
C1678 C1679 1.334 . S
C1679 H1656 0.950 . S
C1679 C1678 1.334 . S
C1679 C1680 1.287 . S
C1680 C1679 1.287 . S
C1680 C1681 1.524 . S
C1680 H1699 0.913 . S
C1681 H1657 0.950 . S
C1681 C1680 1.524 . S
C1681 C1682 1.415 . S
C1682 H1658 0.950 . S
C1682 C1677 1.363 . S
C1682 C1681 1.415 . S
C1683 H1659 0.951 . S
C1683 C1684 1.366 . S
C1683 C1685 1.388 . S
C1684 C1683 1.366 . S
C1684 C1688 1.385 . S
C1685 H1660 0.951 . S
C1685 C1683 1.388 . S
C1685 C1686 1.366 . S
C1686 C1685 1.366 . S
C1686 C1687 1.414 . S
C1686 C1689 1.499 . S
C1687 H1661 0.950 . S
C1687 C1686 1.414 . S
C1687 C1688 1.374 . S
C1688 H1662 0.950 . S
C1688 C1684 1.385 . S
C1688 C1687 1.374 . S
C1689 C1686 1.499 . S
C1689 C1690 1.373 . S
C1689 C1691 1.389 . S
C1690 H1663 0.950 . S
C1690 C1676 1.377 . S
C1690 C1689 1.373 . S
C1691 C1675 1.377 . S
C1691 C1689 1.389 . S
C1691 C1692 1.524 . S
C1692 C1691 1.524 . S
C1692 C1693 1.397 . S
C1692 C1697 1.363 . S
C1693 H1664 0.950 . S
C1693 C1692 1.397 . S
C1693 C1694 1.334 . S
C1694 H1665 0.950 . S
C1694 C1693 1.334 . S
C1694 C1695 1.287 . S
C1695 C1694 1.287 . S
C1695 C1696 1.524 . S
C1695 H1698 0.999 . S
C1696 H1666 0.950 . S
C1696 C1695 1.524 . S
C1696 C1697 1.415 . S
C1697 H1667 0.950 . S
C1697 C1692 1.363 . S
C1697 C1696 1.415 . S
H1698 C1695 0.999 . S
H1699 C1680 0.913 . S
H1700 C1718 0.951 . S
H1701 C1720 0.951 . S
H1702 C1722 0.950 . S
H1703 C1723 0.950 . S
H1704 C1725 0.950 . S
H1705 C1728 0.950 . S
H1706 C1729 0.950 . S
H1707 C1731 0.950 . S
H1708 C1732 0.950 . S
H1709 C1733 0.951 . S
H1710 C1735 0.951 . S
H1711 C1737 0.950 . S
H1712 C1738 0.950 . S
H1713 C1740 0.950 . S
H1714 C1743 0.950 . S
H1715 C1744 0.950 . S
H1716 C1746 0.950 . S
H1717 C1747 0.950 . S
C1718 H1700 0.951 . S
C1718 C1719 1.366 . S
C1718 C1720 1.388 . S
C1719 C1718 1.366 . S
C1719 C1723 1.385 . S
C1720 H1701 0.951 . S
C1720 C1718 1.388 . S
C1720 C1721 1.366 . S
C1721 C1720 1.366 . S
C1721 C1722 1.414 . S
C1721 C1724 1.499 . S
C1722 H1702 0.950 . S
C1722 C1721 1.414 . S
C1722 C1723 1.374 . S
C1723 H1703 0.950 . S
C1723 C1719 1.385 . S
C1723 C1722 1.374 . S
C1724 C1721 1.499 . S
C1724 C1725 1.373 . S
C1724 C1726 1.389 . S
C1725 H1704 0.950 . S
C1725 C1724 1.373 . S
C1725 C1741 1.377 . S
C1726 C1724 1.389 . S
C1726 C1727 1.524 . S
C1726 C1740 1.377 . S
C1727 C1726 1.524 . S
C1727 C1728 1.397 . S
C1727 C1732 1.363 . S
C1728 H1705 0.950 . S
C1728 C1727 1.397 . S
C1728 C1729 1.334 . S
C1729 H1706 0.950 . S
C1729 C1728 1.334 . S
C1729 C1730 1.287 . S
C1730 C1729 1.287 . S
C1730 C1731 1.524 . S
C1730 H1749 0.913 . S
C1731 H1707 0.950 . S
C1731 C1730 1.524 . S
C1731 C1732 1.415 . S
C1732 H1708 0.950 . S
C1732 C1727 1.363 . S
C1732 C1731 1.415 . S
C1733 H1709 0.951 . S
C1733 C1734 1.366 . S
C1733 C1735 1.388 . S
C1734 C1733 1.366 . S
C1734 C1738 1.385 . S
C1735 H1710 0.951 . S
C1735 C1733 1.388 . S
C1735 C1736 1.366 . S
C1736 C1735 1.366 . S
C1736 C1737 1.414 . S
C1736 C1739 1.499 . S
C1737 H1711 0.950 . S
C1737 C1736 1.414 . S
C1737 C1738 1.374 . S
C1738 H1712 0.950 . S
C1738 C1734 1.385 . S
C1738 C1737 1.374 . S
C1739 C1736 1.499 . S
C1739 C1740 1.373 . S
C1739 C1741 1.389 . S
C1740 H1713 0.950 . S
C1740 C1726 1.377 . S
C1740 C1739 1.373 . S
C1741 C1725 1.377 . S
C1741 C1739 1.389 . S
C1741 C1742 1.524 . S
C1742 C1741 1.524 . S
C1742 C1743 1.397 . S
C1742 C1747 1.363 . S
C1743 H1714 0.950 . S
C1743 C1742 1.397 . S
C1743 C1744 1.334 . S
C1744 H1715 0.950 . S
C1744 C1743 1.334 . S
C1744 C1745 1.287 . S
C1745 C1744 1.287 . S
C1745 C1746 1.524 . S
C1745 H1748 0.999 . S
C1746 H1716 0.950 . S
C1746 C1745 1.524 . S
C1746 C1747 1.415 . S
C1747 H1717 0.950 . S
C1747 C1742 1.363 . S
C1747 C1746 1.415 . S
H1748 C1745 0.999 . S
H1749 C1730 0.913 . S
H1750 C1768 0.951 . S
H1751 C1770 0.951 . S
H1752 C1772 0.950 . S
H1753 C1773 0.950 . S
H1754 C1775 0.950 . S
H1755 C1778 0.952 1_565 S
H1756 C1779 0.950 . S
H1757 C1781 0.950 . S
H1758 C1782 0.950 . S
H1759 C1783 0.951 . S
H1760 C1785 0.951 . S
H1761 C1787 0.950 . S
H1762 C1788 0.950 . S
H1763 C1790 0.950 . S
H1764 C1793 0.950 . S
H1765 C1794 0.950 . S
H1766 C1796 0.950 . S
H1767 C1797 0.950 . S
C1768 H1750 0.951 . S
C1768 C1769 1.366 . S
C1768 C1770 1.388 . S
C1769 C1768 1.366 . S
C1769 C1773 1.385 1_455 S
C1770 H1751 0.951 . S
C1770 C1768 1.388 . S
C1770 C1771 1.366 1_455 S
C1771 C1770 1.366 1_655 S
C1771 C1772 1.414 . S
C1771 C1774 1.499 . S
C1772 H1752 0.950 . S
C1772 C1771 1.414 . S
C1772 C1773 1.374 . S
C1773 H1753 0.950 . S
C1773 C1769 1.385 1_655 S
C1773 C1772 1.374 . S
C1774 C1771 1.499 . S
C1774 C1775 1.373 . S
C1774 C1776 1.389 . S
C1775 H1754 0.950 . S
C1775 C1774 1.373 . S
C1775 C1791 1.377 . S
C1776 C1774 1.389 . S
C1776 C1777 1.524 1_655 S
C1776 C1790 1.377 . S
C1777 C1776 1.524 1_455 S
C1777 C1778 1.397 . S
C1777 C1782 1.363 . S
C1778 H1755 0.952 1_545 S
C1778 C1777 1.397 . S
C1778 C1779 1.334 1_545 S
C1779 H1756 0.950 . S
C1779 C1778 1.334 1_565 S
C1779 C1780 1.287 1_565 S
C1780 C1779 1.287 1_545 S
C1780 C1781 1.524 . S
C1780 H1799 0.912 . S
C1781 H1757 0.950 . S
C1781 C1780 1.524 . S
C1781 C1782 1.415 . S
C1782 H1758 0.950 . S
C1782 C1777 1.363 . S
C1782 C1781 1.415 . S
C1783 H1759 0.951 . S
C1783 C1784 1.366 . S
C1783 C1785 1.388 . S
C1784 C1783 1.366 . S
C1784 C1788 1.385 . S
C1785 H1760 0.951 . S
C1785 C1783 1.388 . S
C1785 C1786 1.366 . S
C1786 C1785 1.366 . S
C1786 C1787 1.414 . S
C1786 C1789 1.499 . S
C1787 H1761 0.950 . S
C1787 C1786 1.414 . S
C1787 C1788 1.374 . S
C1788 H1762 0.950 . S
C1788 C1784 1.385 . S
C1788 C1787 1.374 . S
C1789 C1786 1.499 . S
C1789 C1790 1.373 . S
C1789 C1791 1.389 . S
C1790 H1763 0.950 . S
C1790 C1776 1.377 . S
C1790 C1789 1.373 . S
C1791 C1775 1.377 . S
C1791 C1789 1.389 . S
C1791 C1792 1.524 . S
C1792 C1791 1.524 . S
C1792 C1793 1.397 . S
C1792 C1797 1.363 . S
C1793 H1764 0.950 . S
C1793 C1792 1.397 . S
C1793 C1794 1.334 . S
C1794 H1765 0.950 . S
C1794 C1793 1.334 . S
C1794 C1795 1.287 . S
C1795 C1794 1.287 . S
C1795 C1796 1.524 . S
C1795 H1798 0.999 . S
C1796 H1766 0.950 . S
C1796 C1795 1.524 . S
C1796 C1797 1.415 . S
C1797 H1767 0.950 . S
C1797 C1792 1.363 . S
C1797 C1796 1.415 . S
H1798 C1795 0.999 . S
H1799 C1780 0.912 . S
H1800 C1818 0.951 . S
H1801 C1820 0.951 . S
H1802 C1822 0.950 . S
H1803 C1823 0.950 . S
H1804 C1825 0.950 . S
H1805 C1828 0.950 . S
H1806 C1829 0.950 . S
H1807 C1831 0.950 . S
H1808 C1832 0.950 . S
H1809 C1833 0.951 . S
H1810 C1835 0.951 . S
H1811 C1837 0.950 . S
H1812 C1838 0.950 . S
H1813 C1840 0.950 . S
H1814 C1843 0.950 . S
H1815 C1844 0.950 . S
H1816 C1846 0.950 . S
H1817 C1847 0.950 . S
C1818 H1800 0.951 . S
C1818 C1819 1.366 . S
C1818 C1820 1.388 . S
C1819 C1818 1.366 . S
C1819 C1823 1.385 . S
C1820 H1801 0.951 . S
C1820 C1818 1.388 . S
C1820 C1821 1.366 . S
C1821 C1820 1.366 . S
C1821 C1822 1.414 . S
C1821 C1824 1.499 . S
C1822 H1802 0.950 . S
C1822 C1821 1.414 . S
C1822 C1823 1.374 . S
C1823 H1803 0.950 . S
C1823 C1819 1.385 . S
C1823 C1822 1.374 . S
C1824 C1821 1.499 . S
C1824 C1825 1.373 . S
C1824 C1826 1.389 . S
C1825 H1804 0.950 . S
C1825 C1824 1.373 . S
C1825 C1841 1.377 . S
C1826 C1824 1.389 . S
C1826 C1827 1.524 . S
C1826 C1840 1.377 . S
C1827 C1826 1.524 . S
C1827 C1828 1.397 . S
C1827 C1832 1.363 . S
C1828 H1805 0.950 . S
C1828 C1827 1.397 . S
C1828 C1829 1.334 . S
C1829 H1806 0.950 . S
C1829 C1828 1.334 . S
C1829 C1830 1.287 . S
C1830 C1829 1.287 . S
C1830 C1831 1.524 . S
C1830 H1849 0.913 . S
C1831 H1807 0.950 . S
C1831 C1830 1.524 . S
C1831 C1832 1.415 . S
C1832 H1808 0.950 . S
C1832 C1827 1.363 . S
C1832 C1831 1.415 . S
C1833 H1809 0.951 . S
C1833 C1834 1.366 . S
C1833 C1835 1.388 . S
C1834 C1833 1.366 . S
C1834 C1838 1.385 . S
C1835 H1810 0.951 . S
C1835 C1833 1.388 . S
C1835 C1836 1.366 . S
C1836 C1835 1.366 . S
C1836 C1837 1.414 . S
C1836 C1839 1.499 . S
C1837 H1811 0.950 . S
C1837 C1836 1.414 . S
C1837 C1838 1.374 . S
C1838 H1812 0.950 . S
C1838 C1834 1.385 . S
C1838 C1837 1.374 . S
C1839 C1836 1.499 . S
C1839 C1840 1.373 . S
C1839 C1841 1.389 . S
C1840 H1813 0.950 . S
C1840 C1826 1.377 . S
C1840 C1839 1.373 . S
C1841 C1825 1.377 . S
C1841 C1839 1.389 . S
C1841 C1842 1.524 . S
C1842 C1841 1.524 . S
C1842 C1843 1.397 . S
C1842 C1847 1.363 . S
C1843 H1814 0.950 . S
C1843 C1842 1.397 . S
C1843 C1844 1.334 . S
C1844 H1815 0.950 . S
C1844 C1843 1.334 . S
C1844 C1845 1.287 . S
C1845 C1844 1.287 . S
C1845 C1846 1.524 . S
C1845 H1848 0.999 . S
C1846 H1816 0.950 . S
C1846 C1845 1.524 . S
C1846 C1847 1.415 . S
C1847 H1817 0.950 . S
C1847 C1842 1.363 . S
C1847 C1846 1.415 . S
H1848 C1845 0.999 . S
H1849 C1830 0.913 . S
H1850 C1868 0.951 . S
H1851 C1870 0.951 . S
H1852 C1872 0.950 . S
H1853 C1873 0.950 . S
H1854 C1875 0.950 . S
H1855 C1878 0.950 . S
H1856 C1879 0.950 . S
H1857 C1881 0.950 . S
H1858 C1882 0.951 . S
H1859 C1883 0.951 . S
H1860 C1885 0.951 . S
H1861 C1887 0.950 . S
H1862 C1888 0.950 . S
H1863 C1890 0.950 . S
H1864 C1893 0.950 . S
H1865 C1894 0.950 . S
H1866 C1896 0.950 . S
H1867 C1897 0.950 . S
C1868 H1850 0.951 . S
C1868 C1869 1.366 . S
C1868 C1870 1.388 . S
C1869 C1868 1.366 . S
C1869 C1873 1.385 1_655 S
C1870 H1851 0.951 . S
C1870 C1868 1.388 . S
C1870 C1871 1.366 1_655 S
C1871 C1870 1.366 1_455 S
C1871 C1872 1.414 . S
C1871 C1874 1.499 . S
C1872 H1852 0.950 . S
C1872 C1871 1.414 . S
C1872 C1873 1.374 . S
C1873 H1853 0.950 . S
C1873 C1869 1.385 1_455 S
C1873 C1872 1.374 . S
C1874 C1871 1.499 . S
C1874 C1875 1.373 . S
C1874 C1876 1.389 . S
C1875 H1854 0.950 . S
C1875 C1874 1.373 . S
C1875 C1891 1.377 . S
C1876 C1874 1.389 . S
C1876 C1877 1.524 . S
C1876 C1890 1.377 . S
C1877 C1876 1.524 . S
C1877 C1878 1.397 . S
C1877 C1882 1.379 . S
C1878 H1855 0.950 . S
C1878 C1877 1.397 . S
C1878 C1879 1.334 . S
C1879 H1856 0.950 . S
C1879 C1878 1.334 . S
C1879 C1880 1.287 1_455 S
C1880 C1879 1.287 1_655 S
C1880 C1881 1.524 . S
C1880 H1899 0.913 . S
C1881 H1857 0.950 . S
C1881 C1880 1.524 . S
C1881 C1882 1.399 1_655 S
C1882 H1858 0.951 . S
C1882 C1877 1.379 . S
C1882 C1881 1.399 1_455 S
C1883 H1859 0.951 . S
C1883 C1884 1.366 . S
C1883 C1885 1.388 . S
C1884 C1883 1.366 . S
C1884 C1888 1.385 . S
C1885 H1860 0.951 . S
C1885 C1883 1.388 . S
C1885 C1886 1.366 . S
C1886 C1885 1.366 . S
C1886 C1887 1.414 . S
C1886 C1889 1.499 . S
C1887 H1861 0.950 . S
C1887 C1886 1.414 . S
C1887 C1888 1.374 . S
C1888 H1862 0.950 . S
C1888 C1884 1.385 . S
C1888 C1887 1.374 . S
C1889 C1886 1.499 . S
C1889 C1890 1.373 . S
C1889 C1891 1.389 . S
C1890 H1863 0.950 . S
C1890 C1876 1.377 . S
C1890 C1889 1.373 . S
C1891 C1875 1.377 . S
C1891 C1889 1.389 . S
C1891 C1892 1.524 . S
C1892 C1891 1.524 . S
C1892 C1893 1.397 . S
C1892 C1897 1.363 . S
C1893 H1864 0.950 . S
C1893 C1892 1.397 . S
C1893 C1894 1.334 . S
C1894 H1865 0.950 . S
C1894 C1893 1.334 . S
C1894 C1895 1.287 . S
C1895 C1894 1.287 . S
C1895 C1896 1.524 . S
C1895 H1898 0.999 . S
C1896 H1866 0.950 . S
C1896 C1895 1.524 . S
C1896 C1897 1.415 . S
C1897 H1867 0.950 . S
C1897 C1892 1.363 . S
C1897 C1896 1.415 . S
H1898 C1895 0.999 . S
H1899 C1880 0.913 . S
H1900 C1918 0.951 . S
H1901 C1920 0.951 . S
H1902 C1922 0.950 . S
H1903 C1923 0.950 . S
H1904 C1925 0.950 . S
H1905 C1928 0.950 . S
H1906 C1929 0.950 . S
H1907 C1931 0.950 . S
H1908 C1932 0.950 . S
H1909 C1933 0.951 . S
H1910 C1935 0.951 . S
H1911 C1937 0.950 . S
H1912 C1938 0.950 . S
H1913 C1940 0.950 . S
H1914 C1943 0.950 . S
H1915 C1944 0.950 . S
H1916 C1946 0.950 . S
H1917 C1947 0.950 . S
C1918 H1900 0.951 . S
C1918 C1919 1.366 . S
C1918 C1920 1.388 . S
C1919 C1918 1.366 . S
C1919 C1923 1.385 . S
C1920 H1901 0.951 . S
C1920 C1918 1.388 . S
C1920 C1921 1.366 . S
C1921 C1920 1.366 . S
C1921 C1922 1.414 . S
C1921 C1924 1.499 . S
C1922 H1902 0.950 . S
C1922 C1921 1.414 . S
C1922 C1923 1.374 . S
C1923 H1903 0.950 . S
C1923 C1919 1.385 . S
C1923 C1922 1.374 . S
C1924 C1921 1.499 . S
C1924 C1925 1.373 . S
C1924 C1926 1.389 . S
C1925 H1904 0.950 . S
C1925 C1924 1.373 . S
C1925 C1941 1.377 . S
C1926 C1924 1.389 . S
C1926 C1927 1.524 . S
C1926 C1940 1.377 . S
C1927 C1926 1.524 . S
C1927 C1928 1.397 . S
C1927 C1932 1.363 . S
C1928 H1905 0.950 . S
C1928 C1927 1.397 . S
C1928 C1929 1.334 . S
C1929 H1906 0.950 . S
C1929 C1928 1.334 . S
C1929 C1930 1.287 . S
C1930 C1929 1.287 . S
C1930 C1931 1.524 . S
C1930 H1949 0.913 . S
C1931 H1907 0.950 . S
C1931 C1930 1.524 . S
C1931 C1932 1.415 . S
C1932 H1908 0.950 . S
C1932 C1927 1.363 . S
C1932 C1931 1.415 . S
C1933 H1909 0.951 . S
C1933 C1934 1.366 . S
C1933 C1935 1.388 . S
C1934 C1933 1.366 . S
C1934 C1938 1.385 . S
C1935 H1910 0.951 . S
C1935 C1933 1.388 . S
C1935 C1936 1.366 . S
C1936 C1935 1.366 . S
C1936 C1937 1.414 . S
C1936 C1939 1.499 . S
C1937 H1911 0.950 . S
C1937 C1936 1.414 . S
C1937 C1938 1.374 . S
C1938 H1912 0.950 . S
C1938 C1934 1.385 . S
C1938 C1937 1.374 . S
C1939 C1936 1.499 . S
C1939 C1940 1.373 . S
C1939 C1941 1.389 . S
C1940 H1913 0.950 . S
C1940 C1926 1.377 . S
C1940 C1939 1.373 . S
C1941 C1925 1.377 . S
C1941 C1939 1.389 . S
C1941 C1942 1.524 . S
C1942 C1941 1.524 . S
C1942 C1943 1.397 . S
C1942 C1947 1.363 . S
C1943 H1914 0.950 . S
C1943 C1942 1.397 . S
C1943 C1944 1.334 . S
C1944 H1915 0.950 . S
C1944 C1943 1.334 . S
C1944 C1945 1.287 . S
C1945 C1944 1.287 . S
C1945 C1946 1.524 . S
C1945 H1948 0.999 . S
C1946 H1916 0.950 . S
C1946 C1945 1.524 . S
C1946 C1947 1.415 . S
C1947 H1917 0.950 . S
C1947 C1942 1.363 . S
C1947 C1946 1.415 . S
H1948 C1945 0.999 . S
H1949 C1930 0.913 . S
H1950 C1968 0.926 1_455 S
H1951 C1970 0.951 1_455 S
H1952 C1972 0.950 . S
H1953 C1973 0.950 . S
H1954 C1975 0.950 . S
H1955 C1978 0.950 . S
H1956 C1979 0.950 . S
H1957 C1981 0.950 . S
H1958 C1982 0.950 . S
H1959 C1983 0.951 . S
H1960 C1985 0.951 . S
H1961 C1987 0.950 . S
H1962 C1988 0.950 . S
H1963 C1990 0.948 . S
H1964 C1993 0.970 . S
H1965 C1994 0.950 . S
H1966 C1996 0.950 . S
H1967 C1997 0.950 . S
C1968 H1950 0.926 1_655 S
C1968 C1969 1.374 . S
C1968 C1970 1.376 1_554 S
C1969 C1968 1.374 . S
C1969 C1973 1.385 . S
C1970 H1951 0.951 1_655 S
C1970 C1968 1.376 1_556 S
C1970 C1971 1.366 . S
C1971 C1970 1.366 . S
C1971 C1972 1.414 . S
C1971 C1974 1.499 . S
C1972 H1952 0.950 . S
C1972 C1971 1.414 . S
C1972 C1973 1.374 1_556 S
C1973 H1953 0.950 . S
C1973 C1969 1.385 . S
C1973 C1972 1.374 1_554 S
C1974 C1971 1.499 . S
C1974 C1975 1.373 . S
C1974 C1976 1.389 . S
C1975 H1954 0.950 . S
C1975 C1974 1.373 . S
C1975 C1991 1.377 . S
C1976 C1974 1.389 . S
C1976 C1977 1.524 . S
C1976 C1990 1.377 . S
C1977 C1976 1.524 . S
C1977 C1978 1.397 . S
C1977 C1982 1.363 1_655 S
C1978 H1955 0.950 . S
C1978 C1977 1.397 . S
C1978 C1979 1.334 . S
C1979 H1956 0.950 . S
C1979 C1978 1.334 . S
C1979 C1980 1.243 1_655 S
C1980 C1979 1.243 1_455 S
C1980 C1981 1.564 . S
C1980 H1999 0.922 . S
C1981 H1957 0.950 . S
C1981 C1980 1.564 . S
C1981 C1982 1.415 . S
C1982 H1958 0.950 . S
C1982 C1977 1.363 1_455 S
C1982 C1981 1.415 . S
C1983 H1959 0.951 . S
C1983 C1984 1.366 . S
C1983 C1985 1.388 . S
C1984 C1983 1.366 . S
C1984 C1988 1.385 1_655 S
C1985 H1960 0.951 . S
C1985 C1983 1.388 . S
C1985 C1986 1.366 . S
C1986 C1985 1.366 . S
C1986 C1987 1.414 1_655 S
C1986 C1989 1.499 . S
C1987 H1961 0.950 . S
C1987 C1986 1.414 1_455 S
C1987 C1988 1.374 . S
C1988 H1962 0.950 . S
C1988 C1984 1.385 1_455 S
C1988 C1987 1.374 . S
C1989 C1986 1.499 . S
C1989 C1990 1.373 . S
C1989 C1991 1.389 . S
C1990 H1963 0.948 . S
C1990 C1976 1.377 . S
C1990 C1989 1.373 . S
C1991 C1975 1.377 . S
C1991 C1989 1.389 . S
C1991 C1992 1.524 . S
C1992 C1991 1.524 . S
C1992 C1993 1.397 . S
C1992 C1997 1.363 . S
C1993 H1964 0.970 . S
C1993 C1992 1.397 . S
C1993 C1994 1.334 . S
C1994 H1965 0.950 . S
C1994 C1993 1.334 . S
C1994 C1995 1.287 . S
C1995 C1994 1.287 . S
C1995 C1996 1.524 . S
C1995 H1998 1.011 . S
C1996 H1966 0.950 . S
C1996 C1995 1.524 . S
C1996 C1997 1.415 . S
C1997 H1967 0.950 . S
C1997 C1992 1.363 . S
C1997 C1996 1.415 . S
H1998 C1995 1.011 . S
H1999 C1980 0.922 . S
H2000 C2018 0.951 . S
H2001 C2020 0.951 . S
H2002 C2022 0.950 . S
H2003 C2023 0.950 . S
H2004 C2025 0.950 . S
H2005 C2028 0.950 . S
H2006 C2029 0.950 . S
H2007 C2031 0.950 . S
H2008 C2032 0.950 . S
H2009 C2033 0.951 . S
H2010 C2035 0.951 . S
H2011 C2037 0.950 . S
H2012 C2038 0.950 . S
H2013 C2040 0.950 . S
H2014 C2043 0.950 . S
H2015 C2044 0.950 . S
H2016 C2046 0.950 . S
H2017 C2047 0.950 . S
C2018 H2000 0.951 . S
C2018 C2019 1.366 . S
C2018 C2020 1.388 . S
C2019 C2018 1.366 . S
C2019 C2023 1.385 . S
C2020 H2001 0.951 . S
C2020 C2018 1.388 . S
C2020 C2021 1.366 . S
C2021 C2020 1.366 . S
C2021 C2022 1.414 . S
C2021 C2024 1.499 . S
C2022 H2002 0.950 . S
C2022 C2021 1.414 . S
C2022 C2023 1.374 . S
C2023 H2003 0.950 . S
C2023 C2019 1.385 . S
C2023 C2022 1.374 . S
C2024 C2021 1.499 . S
C2024 C2025 1.373 . S
C2024 C2026 1.389 . S
C2025 H2004 0.950 . S
C2025 C2024 1.373 . S
C2025 C2041 1.377 . S
C2026 C2024 1.389 . S
C2026 C2027 1.524 . S
C2026 C2040 1.377 . S
C2027 C2026 1.524 . S
C2027 C2028 1.397 . S
C2027 C2032 1.363 . S
C2028 H2005 0.950 . S
C2028 C2027 1.397 . S
C2028 C2029 1.334 . S
C2029 H2006 0.950 . S
C2029 C2028 1.334 . S
C2029 C2030 1.287 . S
C2030 C2029 1.287 . S
C2030 C2031 1.524 . S
C2030 H2049 0.913 . S
C2031 H2007 0.950 . S
C2031 C2030 1.524 . S
C2031 C2032 1.415 . S
C2032 H2008 0.950 . S
C2032 C2027 1.363 . S
C2032 C2031 1.415 . S
C2033 H2009 0.951 . S
C2033 C2034 1.366 . S
C2033 C2035 1.388 . S
C2034 C2033 1.366 . S
C2034 C2038 1.385 . S
C2035 H2010 0.951 . S
C2035 C2033 1.388 . S
C2035 C2036 1.366 . S
C2036 C2035 1.366 . S
C2036 C2037 1.414 . S
C2036 C2039 1.499 . S
C2037 H2011 0.950 . S
C2037 C2036 1.414 . S
C2037 C2038 1.374 . S
C2038 H2012 0.950 . S
C2038 C2034 1.385 . S
C2038 C2037 1.374 . S
C2039 C2036 1.499 . S
C2039 C2040 1.373 . S
C2039 C2041 1.389 . S
C2040 H2013 0.950 . S
C2040 C2026 1.377 . S
C2040 C2039 1.373 . S
C2041 C2025 1.377 . S
C2041 C2039 1.389 . S
C2041 C2042 1.524 . S
C2042 C2041 1.524 . S
C2042 C2043 1.397 . S
C2042 C2047 1.363 . S
C2043 H2014 0.950 . S
C2043 C2042 1.397 . S
C2043 C2044 1.334 . S
C2044 H2015 0.950 . S
C2044 C2043 1.334 . S
C2044 C2045 1.287 . S
C2045 C2044 1.287 . S
C2045 C2046 1.524 . S
C2045 H2048 0.999 . S
C2046 H2016 0.950 . S
C2046 C2045 1.524 . S
C2046 C2047 1.415 . S
C2047 H2017 0.950 . S
C2047 C2042 1.363 . S
C2047 C2046 1.415 . S
H2048 C2045 0.999 . S
H2049 C2030 0.913 . S
H2050 C2068 0.951 . S
H2051 C2070 0.951 . S
H2052 C2072 0.950 . S
H2053 C2073 0.950 . S
H2054 C2075 0.950 . S
H2055 C2078 0.930 1_556 S
H2056 C2079 0.950 . S
H2057 C2081 0.949 . S
H2058 C2082 0.950 . S
H2059 C2083 0.940 1_655 S
H2060 C2085 0.951 . S
H2061 C2087 0.950 . S
H2062 C2088 0.950 . S
H2063 C2090 0.950 . S
H2064 C2093 0.950 . S
H2065 C2094 0.950 . S
H2066 C2096 0.950 . S
H2067 C2097 0.950 . S
C2068 H2050 0.951 . S
C2068 C2069 1.366 . S
C2068 C2070 1.388 . S
C2069 C2068 1.366 . S
C2069 C2073 1.385 1_554 S
C2070 H2051 0.951 . S
C2070 C2068 1.388 . S
C2070 C2071 1.366 1_554 S
C2071 C2070 1.366 1_556 S
C2071 C2072 1.414 . S
C2071 C2074 1.499 . S
C2072 H2052 0.950 . S
C2072 C2071 1.414 . S
C2072 C2073 1.374 . S
C2073 H2053 0.950 . S
C2073 C2069 1.385 1_556 S
C2073 C2072 1.374 . S
C2074 C2071 1.499 . S
C2074 C2075 1.373 . S
C2074 C2076 1.389 . S
C2075 H2054 0.950 . S
C2075 C2074 1.373 . S
C2075 C2091 1.377 . S
C2076 C2074 1.389 . S
C2076 C2077 1.524 1_556 S
C2076 C2090 1.377 . S
C2077 C2076 1.524 1_554 S
C2077 C2078 1.397 1_455 S
C2077 C2082 1.363 . S
C2078 H2055 0.930 1_554 S
C2078 C2077 1.397 1_655 S
C2078 C2079 1.334 . S
C2079 H2056 0.950 . S
C2079 C2078 1.334 . S
C2079 C2080 1.287 . S
C2080 C2079 1.287 . S
C2080 C2081 1.524 . S
C2080 H2099 0.913 . S
C2081 H2057 0.949 . S
C2081 C2080 1.524 . S
C2081 C2082 1.415 1_655 S
C2082 H2058 0.950 . S
C2082 C2077 1.363 . S
C2082 C2081 1.415 1_455 S
C2083 H2059 0.940 1_455 S
C2083 C2084 1.366 . S
C2083 C2085 1.388 . S
C2084 C2083 1.366 . S
C2084 C2088 1.385 . S
C2085 H2060 0.951 . S
C2085 C2083 1.388 . S
C2085 C2086 1.366 . S
C2086 C2085 1.366 . S
C2086 C2087 1.414 . S
C2086 C2089 1.499 . S
C2087 H2061 0.950 . S
C2087 C2086 1.414 . S
C2087 C2088 1.374 . S
C2088 H2062 0.950 . S
C2088 C2084 1.385 . S
C2088 C2087 1.374 . S
C2089 C2086 1.499 . S
C2089 C2090 1.373 . S
C2089 C2091 1.389 . S
C2090 H2063 0.950 . S
C2090 C2076 1.377 . S
C2090 C2089 1.373 . S
C2091 C2075 1.377 . S
C2091 C2089 1.389 . S
C2091 C2092 1.524 . S
C2092 C2091 1.524 . S
C2092 C2093 1.397 . S
C2092 C2097 1.363 . S
C2093 H2064 0.950 . S
C2093 C2092 1.397 . S
C2093 C2094 1.334 . S
C2094 H2065 0.950 . S
C2094 C2093 1.334 . S
C2094 C2095 1.287 . S
C2095 C2094 1.287 . S
C2095 C2096 1.524 . S
C2095 H2098 0.999 . S
C2096 H2066 0.950 . S
C2096 C2095 1.524 . S
C2096 C2097 1.415 . S
C2097 H2067 0.950 . S
C2097 C2092 1.363 . S
C2097 C2096 1.415 . S
H2098 C2095 0.999 . S
H2099 C2080 0.913 . S
H2100 C2118 0.951 . S
H2101 C2120 0.951 . S
H2102 C2122 0.950 . S
H2103 C2123 0.950 . S
H2104 C2125 0.950 . S
H2105 C2128 0.950 . S
H2106 C2129 0.950 . S
H2107 C2131 0.950 . S
H2108 C2132 0.950 . S
H2109 C2133 0.951 . S
H2110 C2135 0.951 . S
H2111 C2137 0.950 . S
H2112 C2138 0.950 . S
H2113 C2140 0.950 . S
H2114 C2143 0.950 . S
H2115 C2144 0.950 . S
H2116 C2146 0.950 . S
H2117 C2147 0.950 . S
C2118 H2100 0.951 . S
C2118 C2119 1.366 . S
C2118 C2120 1.388 . S
C2119 C2118 1.366 . S
C2119 C2123 1.385 . S
C2120 H2101 0.951 . S
C2120 C2118 1.388 . S
C2120 C2121 1.366 . S
C2121 C2120 1.366 . S
C2121 C2122 1.414 . S
C2121 C2124 1.499 . S
C2122 H2102 0.950 . S
C2122 C2121 1.414 . S
C2122 C2123 1.374 . S
C2123 H2103 0.950 . S
C2123 C2119 1.385 . S
C2123 C2122 1.374 . S
C2124 C2121 1.499 . S
C2124 C2125 1.373 . S
C2124 C2126 1.389 . S
C2125 H2104 0.950 . S
C2125 C2124 1.373 . S
C2125 C2141 1.377 . S
C2126 C2124 1.389 . S
C2126 C2127 1.524 . S
C2126 C2140 1.377 . S
C2127 C2126 1.524 . S
C2127 C2128 1.397 . S
C2127 C2132 1.363 . S
C2128 H2105 0.950 . S
C2128 C2127 1.397 . S
C2128 C2129 1.334 . S
C2129 H2106 0.950 . S
C2129 C2128 1.334 . S
C2129 C2130 1.287 . S
C2130 C2129 1.287 . S
C2130 C2131 1.524 . S
C2130 H2149 0.913 . S
C2131 H2107 0.950 . S
C2131 C2130 1.524 . S
C2131 C2132 1.415 . S
C2132 H2108 0.950 . S
C2132 C2127 1.363 . S
C2132 C2131 1.415 . S
C2133 H2109 0.951 . S
C2133 C2134 1.366 . S
C2133 C2135 1.388 . S
C2134 C2133 1.366 . S
C2134 C2138 1.385 . S
C2135 H2110 0.951 . S
C2135 C2133 1.388 . S
C2135 C2136 1.366 . S
C2136 C2135 1.366 . S
C2136 C2137 1.414 . S
C2136 C2139 1.499 . S
C2137 H2111 0.950 . S
C2137 C2136 1.414 . S
C2137 C2138 1.374 . S
C2138 H2112 0.950 . S
C2138 C2134 1.385 . S
C2138 C2137 1.374 . S
C2139 C2136 1.499 . S
C2139 C2140 1.373 . S
C2139 C2141 1.389 . S
C2140 H2113 0.950 . S
C2140 C2126 1.377 . S
C2140 C2139 1.373 . S
C2141 C2125 1.377 . S
C2141 C2139 1.389 . S
C2141 C2142 1.524 . S
C2142 C2141 1.524 . S
C2142 C2143 1.397 . S
C2142 C2147 1.363 . S
C2143 H2114 0.950 . S
C2143 C2142 1.397 . S
C2143 C2144 1.334 . S
C2144 H2115 0.950 . S
C2144 C2143 1.334 . S
C2144 C2145 1.287 . S
C2145 C2144 1.287 . S
C2145 C2146 1.524 . S
C2145 H2148 0.999 . S
C2146 H2116 0.950 . S
C2146 C2145 1.524 . S
C2146 C2147 1.415 . S
C2147 H2117 0.950 . S
C2147 C2142 1.363 . S
C2147 C2146 1.415 . S
H2148 C2145 0.999 . S
H2149 C2130 0.913 . S
H2150 C2168 0.951 . S
H2151 C2170 0.951 . S
H2152 C2172 0.950 . S
H2153 C2173 0.950 . S
H2154 C2175 0.950 . S
H2155 C2178 0.950 . S
H2156 C2179 0.950 . S
H2157 C2181 0.950 . S
H2158 C2182 0.950 1_554 S
H2159 C2183 0.951 . S
H2160 C2185 0.951 . S
H2161 C2187 0.950 . S
H2162 C2188 0.950 . S
H2163 C2190 0.950 . S
H2164 C2193 0.950 . S
H2165 C2194 0.950 . S
H2166 C2196 0.950 . S
H2167 C2197 0.950 . S
C2168 H2150 0.951 . S
C2168 C2169 1.366 . S
C2168 C2170 1.388 1_556 S
C2169 C2168 1.366 . S
C2169 C2173 1.385 . S
C2170 H2151 0.951 . S
C2170 C2168 1.388 1_554 S
C2170 C2171 1.366 . S
C2171 C2170 1.366 . S
C2171 C2172 1.414 . S
C2171 C2174 1.499 . S
C2172 H2152 0.950 . S
C2172 C2171 1.414 . S
C2172 C2173 1.374 1_554 S
C2173 H2153 0.950 . S
C2173 C2169 1.385 . S
C2173 C2172 1.374 1_556 S
C2174 C2171 1.499 . S
C2174 C2175 1.373 . S
C2174 C2176 1.389 . S
C2175 H2154 0.950 . S
C2175 C2174 1.373 . S
C2175 C2191 1.377 . S
C2176 C2174 1.389 . S
C2176 C2177 1.524 1_554 S
C2176 C2190 1.377 . S
C2177 C2176 1.524 1_556 S
C2177 C2178 1.397 . S
C2177 C2182 1.363 . S
C2178 H2155 0.950 . S
C2178 C2177 1.397 . S
C2178 C2179 1.334 . S
C2179 H2156 0.950 . S
C2179 C2178 1.334 . S
C2179 C2180 1.287 . S
C2180 C2179 1.287 . S
C2180 C2181 1.524 . S
C2180 H2199 0.913 . S
C2181 H2157 0.950 . S
C2181 C2180 1.524 . S
C2181 C2182 1.415 . S
C2182 H2158 0.950 1_556 S
C2182 C2177 1.363 . S
C2182 C2181 1.415 . S
C2183 H2159 0.951 . S
C2183 C2184 1.366 . S
C2183 C2185 1.388 . S
C2184 C2183 1.366 . S
C2184 C2188 1.385 . S
C2185 H2160 0.951 . S
C2185 C2183 1.388 . S
C2185 C2186 1.366 . S
C2186 C2185 1.366 . S
C2186 C2187 1.414 . S
C2186 C2189 1.499 . S
C2187 H2161 0.950 . S
C2187 C2186 1.414 . S
C2187 C2188 1.374 . S
C2188 H2162 0.950 . S
C2188 C2184 1.385 . S
C2188 C2187 1.374 . S
C2189 C2186 1.499 . S
C2189 C2190 1.373 . S
C2189 C2191 1.389 . S
C2190 H2163 0.950 . S
C2190 C2176 1.377 . S
C2190 C2189 1.373 . S
C2191 C2175 1.377 . S
C2191 C2189 1.389 . S
C2191 C2192 1.524 . S
C2192 C2191 1.524 . S
C2192 C2193 1.397 . S
C2192 C2197 1.363 . S
C2193 H2164 0.950 . S
C2193 C2192 1.397 . S
C2193 C2194 1.334 . S
C2194 H2165 0.950 . S
C2194 C2193 1.334 . S
C2194 C2195 1.287 . S
C2195 C2194 1.287 . S
C2195 C2196 1.524 . S
C2195 H2198 0.999 . S
C2196 H2166 0.950 . S
C2196 C2195 1.524 . S
C2196 C2197 1.415 . S
C2197 H2167 0.950 . S
C2197 C2192 1.363 . S
C2197 C2196 1.415 . S
H2198 C2195 0.999 . S
H2199 C2180 0.913 . S
H2200 C2218 0.951 . S
H2201 C2220 0.951 . S
H2202 C2222 0.950 . S
H2203 C2223 0.950 . S
H2204 C2225 0.950 . S
H2205 C2228 0.950 . S
H2206 C2229 0.950 . S
H2207 C2231 0.950 . S
H2208 C2232 0.950 . S
H2209 C2233 0.951 . S
H2210 C2235 0.951 . S
H2211 C2237 0.950 . S
H2212 C2238 0.950 . S
H2213 C2240 0.950 . S
H2214 C2243 0.950 . S
H2215 C2244 0.950 . S
H2216 C2246 0.950 . S
H2217 C2247 0.950 . S
C2218 H2200 0.951 . S
C2218 C2219 1.366 . S
C2218 C2220 1.388 . S
C2219 C2218 1.366 . S
C2219 C2223 1.385 . S
C2220 H2201 0.951 . S
C2220 C2218 1.388 . S
C2220 C2221 1.366 . S
C2221 C2220 1.366 . S
C2221 C2222 1.414 . S
C2221 C2224 1.499 . S
C2222 H2202 0.950 . S
C2222 C2221 1.414 . S
C2222 C2223 1.374 . S
C2223 H2203 0.950 . S
C2223 C2219 1.385 . S
C2223 C2222 1.374 . S
C2224 C2221 1.499 . S
C2224 C2225 1.373 . S
C2224 C2226 1.389 . S
C2225 H2204 0.950 . S
C2225 C2224 1.373 . S
C2225 C2241 1.377 . S
C2226 C2224 1.389 . S
C2226 C2227 1.524 . S
C2226 C2240 1.377 . S
C2227 C2226 1.524 . S
C2227 C2228 1.397 . S
C2227 C2232 1.363 . S
C2228 H2205 0.950 . S
C2228 C2227 1.397 . S
C2228 C2229 1.334 . S
C2229 H2206 0.950 . S
C2229 C2228 1.334 . S
C2229 C2230 1.287 . S
C2230 C2229 1.287 . S
C2230 C2231 1.524 . S
C2230 H2249 0.913 . S
C2231 H2207 0.950 . S
C2231 C2230 1.524 . S
C2231 C2232 1.415 . S
C2232 H2208 0.950 . S
C2232 C2227 1.363 . S
C2232 C2231 1.415 . S
C2233 H2209 0.951 . S
C2233 C2234 1.366 . S
C2233 C2235 1.388 . S
C2234 C2233 1.366 . S
C2234 C2238 1.385 . S
C2235 H2210 0.951 . S
C2235 C2233 1.388 . S
C2235 C2236 1.366 . S
C2236 C2235 1.366 . S
C2236 C2237 1.414 . S
C2236 C2239 1.499 . S
C2237 H2211 0.950 . S
C2237 C2236 1.414 . S
C2237 C2238 1.374 . S
C2238 H2212 0.950 . S
C2238 C2234 1.385 . S
C2238 C2237 1.374 . S
C2239 C2236 1.499 . S
C2239 C2240 1.373 . S
C2239 C2241 1.389 . S
C2240 H2213 0.950 . S
C2240 C2226 1.377 . S
C2240 C2239 1.373 . S
C2241 C2225 1.377 . S
C2241 C2239 1.389 . S
C2241 C2242 1.524 . S
C2242 C2241 1.524 . S
C2242 C2243 1.397 . S
C2242 C2247 1.363 . S
C2243 H2214 0.950 . S
C2243 C2242 1.397 . S
C2243 C2244 1.334 . S
C2244 H2215 0.950 . S
C2244 C2243 1.334 . S
C2244 C2245 1.287 . S
C2245 C2244 1.287 . S
C2245 C2246 1.524 . S
C2245 H2248 0.999 . S
C2246 H2216 0.950 . S
C2246 C2245 1.524 . S
C2246 C2247 1.415 . S
C2247 H2217 0.950 . S
C2247 C2242 1.363 . S
C2247 C2246 1.415 . S
H2248 C2245 0.999 . S
H2249 C2230 0.913 . S
H2250 C2268 0.951 . S
H2251 C2270 0.944 1_556 S
H2252 C2272 0.950 . S
H2253 C2273 0.950 . S
H2254 C2275 0.950 . S
H2255 C2278 0.950 . S
H2256 C2279 0.950 . S
H2257 C2281 0.950 . S
H2258 C2282 0.950 . S
H2259 C2283 0.951 . S
H2260 C2285 0.951 . S
H2261 C2287 0.950 . S
H2262 C2288 0.950 . S
H2263 C2290 0.950 . S
H2264 C2293 0.950 . S
H2265 C2294 0.950 . S
H2266 C2296 0.950 . S
H2267 C2297 0.950 . S
C2268 H2250 0.951 . S
C2268 C2269 1.366 . S
C2268 C2270 1.361 1_556 S
C2269 C2268 1.366 . S
C2269 C2273 1.385 1_556 S
C2270 H2251 0.944 1_554 S
C2270 C2268 1.361 1_554 S
C2270 C2271 1.402 . S
C2271 C2270 1.402 . S
C2271 C2272 1.414 . S
C2271 C2274 1.499 . S
C2272 H2252 0.950 . S
C2272 C2271 1.414 . S
C2272 C2273 1.374 . S
C2273 H2253 0.950 . S
C2273 C2269 1.385 1_554 S
C2273 C2272 1.374 . S
C2274 C2271 1.499 . S
C2274 C2275 1.373 . S
C2274 C2276 1.389 . S
C2275 H2254 0.950 . S
C2275 C2274 1.373 . S
C2275 C2291 1.377 . S
C2276 C2274 1.389 . S
C2276 C2277 1.524 1_554 S
C2276 C2290 1.377 . S
C2277 C2276 1.524 1_556 S
C2277 C2278 1.397 . S
C2277 C2282 1.363 . S
C2278 H2255 0.950 . S
C2278 C2277 1.397 . S
C2278 C2279 1.334 . S
C2279 H2256 0.950 . S
C2279 C2278 1.334 . S
C2279 C2280 1.287 . S
C2280 C2279 1.287 . S
C2280 C2281 1.524 . S
C2280 H2299 0.913 . S
C2281 H2257 0.950 . S
C2281 C2280 1.524 . S
C2281 C2282 1.415 . S
C2282 H2258 0.950 . S
C2282 C2277 1.363 . S
C2282 C2281 1.415 . S
C2283 H2259 0.951 . S
C2283 C2284 1.366 . S
C2283 C2285 1.388 . S
C2284 C2283 1.366 . S
C2284 C2288 1.385 . S
C2285 H2260 0.951 . S
C2285 C2283 1.388 . S
C2285 C2286 1.366 . S
C2286 C2285 1.366 . S
C2286 C2287 1.414 . S
C2286 C2289 1.499 . S
C2287 H2261 0.950 . S
C2287 C2286 1.414 . S
C2287 C2288 1.374 . S
C2288 H2262 0.950 . S
C2288 C2284 1.385 . S
C2288 C2287 1.374 . S
C2289 C2286 1.499 . S
C2289 C2290 1.373 . S
C2289 C2291 1.389 . S
C2290 H2263 0.950 . S
C2290 C2276 1.377 . S
C2290 C2289 1.373 . S
C2291 C2275 1.377 . S
C2291 C2289 1.389 . S
C2291 C2292 1.524 . S
C2292 C2291 1.524 . S
C2292 C2293 1.397 . S
C2292 C2297 1.363 . S
C2293 H2264 0.950 . S
C2293 C2292 1.397 . S
C2293 C2294 1.334 . S
C2294 H2265 0.950 . S
C2294 C2293 1.334 . S
C2294 C2295 1.287 . S
C2295 C2294 1.287 . S
C2295 C2296 1.524 . S
C2295 H2298 0.999 . S
C2296 H2266 0.950 . S
C2296 C2295 1.524 . S
C2296 C2297 1.415 . S
C2297 H2267 0.950 . S
C2297 C2292 1.363 . S
C2297 C2296 1.415 . S
H2298 C2295 0.999 . S
H2299 C2280 0.913 . S
H2300 C2318 0.951 . S
H2301 C2320 0.951 . S
H2302 C2322 0.950 . S
H2303 C2323 0.950 . S
H2304 C2325 0.950 . S
H2305 C2328 0.950 . S
H2306 C2329 0.950 . S
H2307 C2331 0.950 . S
H2308 C2332 0.950 . S
H2309 C2333 0.951 . S
H2310 C2335 0.951 . S
H2311 C2337 0.950 . S
H2312 C2338 0.950 . S
H2313 C2340 0.950 . S
H2314 C2343 0.950 . S
H2315 C2344 0.950 . S
H2316 C2346 0.950 . S
H2317 C2347 0.950 . S
C2318 H2300 0.951 . S
C2318 C2319 1.366 . S
C2318 C2320 1.388 . S
C2319 C2318 1.366 . S
C2319 C2323 1.385 . S
C2320 H2301 0.951 . S
C2320 C2318 1.388 . S
C2320 C2321 1.366 . S
C2321 C2320 1.366 . S
C2321 C2322 1.414 . S
C2321 C2324 1.499 . S
C2322 H2302 0.950 . S
C2322 C2321 1.414 . S
C2322 C2323 1.374 . S
C2323 H2303 0.950 . S
C2323 C2319 1.385 . S
C2323 C2322 1.374 . S
C2324 C2321 1.499 . S
C2324 C2325 1.373 . S
C2324 C2326 1.389 . S
C2325 H2304 0.950 . S
C2325 C2324 1.373 . S
C2325 C2341 1.377 . S
C2326 C2324 1.389 . S
C2326 C2327 1.524 . S
C2326 C2340 1.377 . S
C2327 C2326 1.524 . S
C2327 C2328 1.397 . S
C2327 C2332 1.363 . S
C2328 H2305 0.950 . S
C2328 C2327 1.397 . S
C2328 C2329 1.334 . S
C2329 H2306 0.950 . S
C2329 C2328 1.334 . S
C2329 C2330 1.287 . S
C2330 C2329 1.287 . S
C2330 C2331 1.524 . S
C2330 H2349 0.913 . S
C2331 H2307 0.950 . S
C2331 C2330 1.524 . S
C2331 C2332 1.415 . S
C2332 H2308 0.950 . S
C2332 C2327 1.363 . S
C2332 C2331 1.415 . S
C2333 H2309 0.951 . S
C2333 C2334 1.366 . S
C2333 C2335 1.388 . S
C2334 C2333 1.366 . S
C2334 C2338 1.385 . S
C2335 H2310 0.951 . S
C2335 C2333 1.388 . S
C2335 C2336 1.366 . S
C2336 C2335 1.366 . S
C2336 C2337 1.414 . S
C2336 C2339 1.499 . S
C2337 H2311 0.950 . S
C2337 C2336 1.414 . S
C2337 C2338 1.374 . S
C2338 H2312 0.950 . S
C2338 C2334 1.385 . S
C2338 C2337 1.374 . S
C2339 C2336 1.499 . S
C2339 C2340 1.373 . S
C2339 C2341 1.389 . S
C2340 H2313 0.950 . S
C2340 C2326 1.377 . S
C2340 C2339 1.373 . S
C2341 C2325 1.377 . S
C2341 C2339 1.389 . S
C2341 C2342 1.524 . S
C2342 C2341 1.524 . S
C2342 C2343 1.397 . S
C2342 C2347 1.363 . S
C2343 H2314 0.950 . S
C2343 C2342 1.397 . S
C2343 C2344 1.334 . S
C2344 H2315 0.950 . S
C2344 C2343 1.334 . S
C2344 C2345 1.287 . S
C2345 C2344 1.287 . S
C2345 C2346 1.524 . S
C2345 H2348 0.999 . S
C2346 H2316 0.950 . S
C2346 C2345 1.524 . S
C2346 C2347 1.415 . S
C2347 H2317 0.950 . S
C2347 C2342 1.363 . S
C2347 C2346 1.415 . S
H2348 C2345 0.999 . S
H2349 C2330 0.913 . S
H2350 C2368 0.951 . S
H2351 C2370 0.951 . S
H2352 C2372 0.950 . S
H2353 C2373 0.950 . S
H2354 C2375 0.950 . S
H2355 C2378 0.950 . S
H2356 C2379 0.950 . S
H2357 C2381 0.950 . S
H2358 C2382 0.950 . S
H2359 C2383 0.951 . S
H2360 C2385 0.951 . S
H2361 C2387 0.950 . S
H2362 C2388 0.950 . S
H2363 C2390 0.950 . S
H2364 C2393 0.950 . S
H2365 C2394 0.950 . S
H2366 C2396 0.950 . S
H2367 C2397 0.950 . S
C2368 H2350 0.951 . S
C2368 C2369 1.366 . S
C2368 C2370 1.388 . S
C2369 C2368 1.366 . S
C2369 C2373 1.385 . S
C2370 H2351 0.951 . S
C2370 C2368 1.388 . S
C2370 C2371 1.366 . S
C2371 C2370 1.366 . S
C2371 C2372 1.414 . S
C2371 C2374 1.499 . S
C2372 H2352 0.950 . S
C2372 C2371 1.414 . S
C2372 C2373 1.374 . S
C2373 H2353 0.950 . S
C2373 C2369 1.385 . S
C2373 C2372 1.374 . S
C2374 C2371 1.499 . S
C2374 C2375 1.373 . S
C2374 C2376 1.389 . S
C2375 H2354 0.950 . S
C2375 C2374 1.373 . S
C2375 C2391 1.377 . S
C2376 C2374 1.389 . S
C2376 C2377 1.524 . S
C2376 C2390 1.377 . S
C2377 C2376 1.524 . S
C2377 C2378 1.397 . S
C2377 C2382 1.363 . S
C2378 H2355 0.950 . S
C2378 C2377 1.397 . S
C2378 C2379 1.334 . S
C2379 H2356 0.950 . S
C2379 C2378 1.334 . S
C2379 C2380 1.287 . S
C2380 C2379 1.287 . S
C2380 C2381 1.524 . S
C2380 H2399 0.913 . S
C2381 H2357 0.950 . S
C2381 C2380 1.524 . S
C2381 C2382 1.415 . S
C2382 H2358 0.950 . S
C2382 C2377 1.363 . S
C2382 C2381 1.415 . S
C2383 H2359 0.951 . S
C2383 C2384 1.366 . S
C2383 C2385 1.388 . S
C2384 C2383 1.366 . S
C2384 C2388 1.385 . S
C2385 H2360 0.951 . S
C2385 C2383 1.388 . S
C2385 C2386 1.366 . S
C2386 C2385 1.366 . S
C2386 C2387 1.414 . S
C2386 C2389 1.499 . S
C2387 H2361 0.950 . S
C2387 C2386 1.414 . S
C2387 C2388 1.374 . S
C2388 H2362 0.950 . S
C2388 C2384 1.385 . S
C2388 C2387 1.374 . S
C2389 C2386 1.499 . S
C2389 C2390 1.373 . S
C2389 C2391 1.389 . S
C2390 H2363 0.950 . S
C2390 C2376 1.377 . S
C2390 C2389 1.373 . S
C2391 C2375 1.377 . S
C2391 C2389 1.389 . S
C2391 C2392 1.524 . S
C2392 C2391 1.524 . S
C2392 C2393 1.397 . S
C2392 C2397 1.363 . S
C2393 H2364 0.950 . S
C2393 C2392 1.397 . S
C2393 C2394 1.334 . S
C2394 H2365 0.950 . S
C2394 C2393 1.334 . S
C2394 C2395 1.287 . S
C2395 C2394 1.287 . S
C2395 C2396 1.524 . S
C2395 H2398 0.999 . S
C2396 H2366 0.950 . S
C2396 C2395 1.524 . S
C2396 C2397 1.415 . S
C2397 H2367 0.950 . S
C2397 C2392 1.363 . S
C2397 C2396 1.415 . S
H2398 C2395 0.999 . S
H2399 C2380 0.913 . S
H2400 C2418 0.951 . S
H2401 C2420 0.951 . S
H2402 C2422 0.950 . S
H2403 C2423 0.950 . S
H2404 C2425 0.950 . S
H2405 C2428 0.950 . S
H2406 C2429 0.950 . S
H2407 C2431 0.950 . S
H2408 C2432 0.950 . S
H2409 C2433 0.951 . S
H2410 C2435 0.951 . S
H2411 C2437 0.950 . S
H2412 C2438 0.950 . S
H2413 C2440 0.950 . S
H2414 C2443 0.950 . S
H2415 C2444 0.950 . S
H2416 C2446 0.950 . S
H2417 C2447 0.950 . S
C2418 H2400 0.951 . S
C2418 C2419 1.366 . S
C2418 C2420 1.388 . S
C2419 C2418 1.366 . S
C2419 C2423 1.385 . S
C2420 H2401 0.951 . S
C2420 C2418 1.388 . S
C2420 C2421 1.366 . S
C2421 C2420 1.366 . S
C2421 C2422 1.414 . S
C2421 C2424 1.499 . S
C2422 H2402 0.950 . S
C2422 C2421 1.414 . S
C2422 C2423 1.374 . S
C2423 H2403 0.950 . S
C2423 C2419 1.385 . S
C2423 C2422 1.374 . S
C2424 C2421 1.499 . S
C2424 C2425 1.373 . S
C2424 C2426 1.389 . S
C2425 H2404 0.950 . S
C2425 C2424 1.373 . S
C2425 C2441 1.377 . S
C2426 C2424 1.389 . S
C2426 C2427 1.524 . S
C2426 C2440 1.377 . S
C2427 C2426 1.524 . S
C2427 C2428 1.397 . S
C2427 C2432 1.363 . S
C2428 H2405 0.950 . S
C2428 C2427 1.397 . S
C2428 C2429 1.334 . S
C2429 H2406 0.950 . S
C2429 C2428 1.334 . S
C2429 C2430 1.287 . S
C2430 C2429 1.287 . S
C2430 C2431 1.524 . S
C2430 H2449 0.913 . S
C2431 H2407 0.950 . S
C2431 C2430 1.524 . S
C2431 C2432 1.415 . S
C2432 H2408 0.950 . S
C2432 C2427 1.363 . S
C2432 C2431 1.415 . S
C2433 H2409 0.951 . S
C2433 C2434 1.366 . S
C2433 C2435 1.388 . S
C2434 C2433 1.366 . S
C2434 C2438 1.385 . S
C2435 H2410 0.951 . S
C2435 C2433 1.388 . S
C2435 C2436 1.366 . S
C2436 C2435 1.366 . S
C2436 C2437 1.414 . S
C2436 C2439 1.499 . S
C2437 H2411 0.950 . S
C2437 C2436 1.414 . S
C2437 C2438 1.374 . S
C2438 H2412 0.950 . S
C2438 C2434 1.385 . S
C2438 C2437 1.374 . S
C2439 C2436 1.499 . S
C2439 C2440 1.373 . S
C2439 C2441 1.389 . S
C2440 H2413 0.950 . S
C2440 C2426 1.377 . S
C2440 C2439 1.373 . S
C2441 C2425 1.377 . S
C2441 C2439 1.389 . S
C2441 C2442 1.524 . S
C2442 C2441 1.524 . S
C2442 C2443 1.397 . S
C2442 C2447 1.363 . S
C2443 H2414 0.950 . S
C2443 C2442 1.397 . S
C2443 C2444 1.334 . S
C2444 H2415 0.950 . S
C2444 C2443 1.334 . S
C2444 C2445 1.287 . S
C2445 C2444 1.287 . S
C2445 C2446 1.524 . S
C2445 H2448 0.999 . S
C2446 H2416 0.950 . S
C2446 C2445 1.524 . S
C2446 C2447 1.415 . S
C2447 H2417 0.950 . S
C2447 C2442 1.363 . S
C2447 C2446 1.415 . S
H2448 C2445 0.999 . S
H2449 C2430 0.913 . S
H2450 C2468 0.951 . S
H2451 C2470 0.951 . S
H2452 C2472 0.950 . S
H2453 C2473 0.950 . S
H2454 C2475 0.950 . S
H2455 C2478 0.950 . S
H2456 C2479 0.950 . S
H2457 C2481 0.950 . S
H2458 C2482 0.950 . S
H2459 C2483 0.951 . S
H2460 C2485 0.951 . S
H2461 C2487 0.950 . S
H2462 C2488 0.950 . S
H2463 C2490 0.950 . S
H2464 C2493 0.950 . S
H2465 C2494 0.950 . S
H2466 C2496 0.950 . S
H2467 C2497 0.950 . S
C2468 H2450 0.951 . S
C2468 C2469 1.366 . S
C2468 C2470 1.388 . S
C2469 C2468 1.366 . S
C2469 C2473 1.385 . S
C2470 H2451 0.951 . S
C2470 C2468 1.388 . S
C2470 C2471 1.366 . S
C2471 C2470 1.366 . S
C2471 C2472 1.414 . S
C2471 C2474 1.499 . S
C2472 H2452 0.950 . S
C2472 C2471 1.414 . S
C2472 C2473 1.374 . S
C2473 H2453 0.950 . S
C2473 C2469 1.385 . S
C2473 C2472 1.374 . S
C2474 C2471 1.499 . S
C2474 C2475 1.373 . S
C2474 C2476 1.389 . S
C2475 H2454 0.950 . S
C2475 C2474 1.373 . S
C2475 C2491 1.377 . S
C2476 C2474 1.389 . S
C2476 C2477 1.524 . S
C2476 C2490 1.377 . S
C2477 C2476 1.524 . S
C2477 C2478 1.397 . S
C2477 C2482 1.363 . S
C2478 H2455 0.950 . S
C2478 C2477 1.397 . S
C2478 C2479 1.334 . S
C2479 H2456 0.950 . S
C2479 C2478 1.334 . S
C2479 C2480 1.287 . S
C2480 C2479 1.287 . S
C2480 C2481 1.524 . S
C2480 H2499 0.913 . S
C2481 H2457 0.950 . S
C2481 C2480 1.524 . S
C2481 C2482 1.415 . S
C2482 H2458 0.950 . S
C2482 C2477 1.363 . S
C2482 C2481 1.415 . S
C2483 H2459 0.951 . S
C2483 C2484 1.366 . S
C2483 C2485 1.388 . S
C2484 C2483 1.366 . S
C2484 C2488 1.385 . S
C2485 H2460 0.951 . S
C2485 C2483 1.388 . S
C2485 C2486 1.366 . S
C2486 C2485 1.366 . S
C2486 C2487 1.414 . S
C2486 C2489 1.499 . S
C2487 H2461 0.950 . S
C2487 C2486 1.414 . S
C2487 C2488 1.374 . S
C2488 H2462 0.950 . S
C2488 C2484 1.385 . S
C2488 C2487 1.374 . S
C2489 C2486 1.499 . S
C2489 C2490 1.373 . S
C2489 C2491 1.389 . S
C2490 H2463 0.950 . S
C2490 C2476 1.377 . S
C2490 C2489 1.373 . S
C2491 C2475 1.377 . S
C2491 C2489 1.389 . S
C2491 C2492 1.524 . S
C2492 C2491 1.524 . S
C2492 C2493 1.397 . S
C2492 C2497 1.363 . S
C2493 H2464 0.950 . S
C2493 C2492 1.397 . S
C2493 C2494 1.334 . S
C2494 H2465 0.950 . S
C2494 C2493 1.334 . S
C2494 C2495 1.287 . S
C2495 C2494 1.287 . S
C2495 C2496 1.524 . S
C2495 H2498 0.999 . S
C2496 H2466 0.950 . S
C2496 C2495 1.524 . S
C2496 C2497 1.415 . S
C2497 H2467 0.950 . S
C2497 C2492 1.363 . S
C2497 C2496 1.415 . S
H2498 C2495 0.999 . S
H2499 C2480 0.913 . S
H2500 C2518 0.951 . S
H2501 C2520 0.951 . S
H2502 C2522 0.950 . S
H2503 C2523 0.950 . S
H2504 C2525 0.950 1_554 S
H2505 C2528 0.950 . S
H2506 C2529 0.950 . S
H2507 C2531 0.950 . S
H2508 C2532 0.950 . S
H2509 C2533 0.951 1_554 S
H2510 C2535 0.951 . S
H2511 C2537 0.950 . S
H2512 C2538 0.950 . S
H2513 C2540 0.950 . S
H2514 C2543 0.950 . S
H2515 C2544 0.950 . S
H2516 C2546 0.950 . S
H2517 C2547 0.950 . S
C2518 H2500 0.951 . S
C2518 C2519 1.366 . S
C2518 C2520 1.388 . S
C2519 C2518 1.366 . S
C2519 C2523 1.385 . S
C2520 H2501 0.951 . S
C2520 C2518 1.388 . S
C2520 C2521 1.366 . S
C2521 C2520 1.366 . S
C2521 C2522 1.414 . S
C2521 C2524 1.499 . S
C2522 H2502 0.950 . S
C2522 C2521 1.414 . S
C2522 C2523 1.374 . S
C2523 H2503 0.950 . S
C2523 C2519 1.385 . S
C2523 C2522 1.374 . S
C2524 C2521 1.499 . S
C2524 C2525 1.373 . S
C2524 C2526 1.389 . S
C2525 H2504 0.950 1_556 S
C2525 C2524 1.373 . S
C2525 C2541 1.377 . S
C2526 C2524 1.389 . S
C2526 C2527 1.524 . S
C2526 C2540 1.377 . S
C2527 C2526 1.524 . S
C2527 C2528 1.397 . S
C2527 C2532 1.363 . S
C2528 H2505 0.950 . S
C2528 C2527 1.397 . S
C2528 C2529 1.334 . S
C2529 H2506 0.950 . S
C2529 C2528 1.334 . S
C2529 C2530 1.287 . S
C2530 C2529 1.287 . S
C2530 C2531 1.524 . S
C2530 H2549 0.913 . S
C2531 H2507 0.950 . S
C2531 C2530 1.524 . S
C2531 C2532 1.415 . S
C2532 H2508 0.950 . S
C2532 C2527 1.363 . S
C2532 C2531 1.415 . S
C2533 H2509 0.951 1_556 S
C2533 C2534 1.366 . S
C2533 C2535 1.388 . S
C2534 C2533 1.366 . S
C2534 C2538 1.385 . S
C2535 H2510 0.951 . S
C2535 C2533 1.388 . S
C2535 C2536 1.366 . S
C2536 C2535 1.366 . S
C2536 C2537 1.414 . S
C2536 C2539 1.499 . S
C2537 H2511 0.950 . S
C2537 C2536 1.414 . S
C2537 C2538 1.374 . S
C2538 H2512 0.950 . S
C2538 C2534 1.385 . S
C2538 C2537 1.374 . S
C2539 C2536 1.499 . S
C2539 C2540 1.373 . S
C2539 C2541 1.389 . S
C2540 H2513 0.950 . S
C2540 C2526 1.377 . S
C2540 C2539 1.373 . S
C2541 C2525 1.377 . S
C2541 C2539 1.389 . S
C2541 C2542 1.524 1_556 S
C2542 C2541 1.524 1_554 S
C2542 C2543 1.397 . S
C2542 C2547 1.363 . S
C2543 H2514 0.950 . S
C2543 C2542 1.397 . S
C2543 C2544 1.334 . S
C2544 H2515 0.950 . S
C2544 C2543 1.334 . S
C2544 C2545 1.287 . S
C2545 C2544 1.287 . S
C2545 C2546 1.524 . S
C2545 H2548 0.999 . S
C2546 H2516 0.950 . S
C2546 C2545 1.524 . S
C2546 C2547 1.415 . S
C2547 H2517 0.950 . S
C2547 C2542 1.363 . S
C2547 C2546 1.415 . S
H2548 C2545 0.999 . S
H2549 C2530 0.913 . S
H2550 C2568 0.951 . S
H2551 C2570 0.951 . S
H2552 C2572 0.950 . S
H2553 C2573 0.950 . S
H2554 C2575 0.950 . S
H2555 C2578 0.950 . S
H2556 C2579 0.950 . S
H2557 C2581 0.950 . S
H2558 C2582 0.950 . S
H2559 C2583 0.951 . S
H2560 C2585 0.951 . S
H2561 C2587 0.950 . S
H2562 C2588 0.950 . S
H2563 C2590 0.950 . S
H2564 C2593 0.950 . S
H2565 C2594 0.950 . S
H2566 C2596 0.950 . S
H2567 C2597 0.950 . S
C2568 H2550 0.951 . S
C2568 C2569 1.366 . S
C2568 C2570 1.388 . S
C2569 C2568 1.366 . S
C2569 C2573 1.385 . S
C2570 H2551 0.951 . S
C2570 C2568 1.388 . S
C2570 C2571 1.366 . S
C2571 C2570 1.366 . S
C2571 C2572 1.414 . S
C2571 C2574 1.499 . S
C2572 H2552 0.950 . S
C2572 C2571 1.414 . S
C2572 C2573 1.374 . S
C2573 H2553 0.950 . S
C2573 C2569 1.385 . S
C2573 C2572 1.374 . S
C2574 C2571 1.499 . S
C2574 C2575 1.373 . S
C2574 C2576 1.389 . S
C2575 H2554 0.950 . S
C2575 C2574 1.373 . S
C2575 C2591 1.377 . S
C2576 C2574 1.389 . S
C2576 C2577 1.524 . S
C2576 C2590 1.377 . S
C2577 C2576 1.524 . S
C2577 C2578 1.397 . S
C2577 C2582 1.363 . S
C2578 H2555 0.950 . S
C2578 C2577 1.397 . S
C2578 C2579 1.334 . S
C2579 H2556 0.950 . S
C2579 C2578 1.334 . S
C2579 C2580 1.287 . S
C2580 C2579 1.287 . S
C2580 C2581 1.524 . S
C2580 H2599 0.913 . S
C2581 H2557 0.950 . S
C2581 C2580 1.524 . S
C2581 C2582 1.415 . S
C2582 H2558 0.950 . S
C2582 C2577 1.363 . S
C2582 C2581 1.415 . S
C2583 H2559 0.951 . S
C2583 C2584 1.366 . S
C2583 C2585 1.388 . S
C2584 C2583 1.366 . S
C2584 C2588 1.385 . S
C2585 H2560 0.951 . S
C2585 C2583 1.388 . S
C2585 C2586 1.366 . S
C2586 C2585 1.366 . S
C2586 C2587 1.414 . S
C2586 C2589 1.499 . S
C2587 H2561 0.950 . S
C2587 C2586 1.414 . S
C2587 C2588 1.374 . S
C2588 H2562 0.950 . S
C2588 C2584 1.385 . S
C2588 C2587 1.374 . S
C2589 C2586 1.499 . S
C2589 C2590 1.373 . S
C2589 C2591 1.389 . S
C2590 H2563 0.950 . S
C2590 C2576 1.377 . S
C2590 C2589 1.373 . S
C2591 C2575 1.377 . S
C2591 C2589 1.389 . S
C2591 C2592 1.524 . S
C2592 C2591 1.524 . S
C2592 C2593 1.397 . S
C2592 C2597 1.363 . S
C2593 H2564 0.950 . S
C2593 C2592 1.397 . S
C2593 C2594 1.334 . S
C2594 H2565 0.950 . S
C2594 C2593 1.334 . S
C2594 C2595 1.287 . S
C2595 C2594 1.287 . S
C2595 C2596 1.524 . S
C2595 H2598 0.999 . S
C2596 H2566 0.950 . S
C2596 C2595 1.524 . S
C2596 C2597 1.415 . S
C2597 H2567 0.950 . S
C2597 C2592 1.363 . S
C2597 C2596 1.415 . S
H2598 C2595 0.999 . S
H2599 C2580 0.913 . S
H2600 C2618 0.951 . S
H2601 C2620 0.951 . S
H2602 C2622 0.950 . S
H2603 C2623 0.950 . S
H2604 C2625 0.950 . S
H2605 C2628 0.950 . S
H2606 C2629 0.950 . S
H2607 C2631 0.950 . S
H2608 C2632 0.950 1_554 S
H2609 C2633 0.951 . S
H2610 C2635 0.951 . S
H2611 C2637 0.950 . S
H2612 C2638 0.950 . S
H2613 C2640 0.963 . S
H2614 C2643 0.950 . S
H2615 C2644 0.950 . S
H2616 C2646 0.950 . S
H2617 C2647 0.950 . S
C2618 H2600 0.951 . S
C2618 C2619 1.366 . S
C2618 C2620 1.388 . S
C2619 C2618 1.366 . S
C2619 C2623 1.385 . S
C2620 H2601 0.951 . S
C2620 C2618 1.388 . S
C2620 C2621 1.366 . S
C2621 C2620 1.366 . S
C2621 C2622 1.414 . S
C2621 C2624 1.499 . S
C2622 H2602 0.950 . S
C2622 C2621 1.414 . S
C2622 C2623 1.374 . S
C2623 H2603 0.950 . S
C2623 C2619 1.385 . S
C2623 C2622 1.374 . S
C2624 C2621 1.499 . S
C2624 C2625 1.373 . S
C2624 C2626 1.389 . S
C2625 H2604 0.950 . S
C2625 C2624 1.373 . S
C2625 C2641 1.377 . S
C2626 C2624 1.389 . S
C2626 C2627 1.524 1_554 S
C2626 C2640 1.377 . S
C2627 C2626 1.524 1_556 S
C2627 C2628 1.397 . S
C2627 C2632 1.363 . S
C2628 H2605 0.950 . S
C2628 C2627 1.397 . S
C2628 C2629 1.334 . S
C2629 H2606 0.950 . S
C2629 C2628 1.334 . S
C2629 C2630 1.287 . S
C2630 C2629 1.287 . S
C2630 C2631 1.524 . S
C2630 H2649 0.913 . S
C2631 H2607 0.950 . S
C2631 C2630 1.524 . S
C2631 C2632 1.415 . S
C2632 H2608 0.950 1_556 S
C2632 C2627 1.363 . S
C2632 C2631 1.415 . S
C2633 H2609 0.951 . S
C2633 C2634 1.366 . S
C2633 C2635 1.388 . S
C2634 C2633 1.366 . S
C2634 C2638 1.385 . S
C2635 H2610 0.951 . S
C2635 C2633 1.388 . S
C2635 C2636 1.366 . S
C2636 C2635 1.366 . S
C2636 C2637 1.414 . S
C2636 C2639 1.499 . S
C2637 H2611 0.950 . S
C2637 C2636 1.414 . S
C2637 C2638 1.374 . S
C2638 H2612 0.950 . S
C2638 C2634 1.385 . S
C2638 C2637 1.374 . S
C2639 C2636 1.499 . S
C2639 C2640 1.373 . S
C2639 C2641 1.389 . S
C2640 H2613 0.963 . S
C2640 C2626 1.377 . S
C2640 C2639 1.373 . S
C2641 C2625 1.377 . S
C2641 C2639 1.389 . S
C2641 C2642 1.524 . S
C2642 C2641 1.524 . S
C2642 C2643 1.397 . S
C2642 C2647 1.363 . S
C2643 H2614 0.950 . S
C2643 C2642 1.397 . S
C2643 C2644 1.334 . S
C2644 H2615 0.950 . S
C2644 C2643 1.334 . S
C2644 C2645 1.287 . S
C2645 C2644 1.287 . S
C2645 C2646 1.524 . S
C2645 H2648 0.999 . S
C2646 H2616 0.950 . S
C2646 C2645 1.524 . S
C2646 C2647 1.415 . S
C2647 H2617 0.950 . S
C2647 C2642 1.363 . S
C2647 C2646 1.415 . S
H2648 C2645 0.999 . S
H2649 C2630 0.913 . S
H2650 C2668 0.951 . S
H2651 C2670 0.951 . S
H2652 C2672 0.950 . S
H2653 C2673 0.950 . S
H2654 C2675 0.950 . S
H2655 C2678 0.950 . S
H2656 C2679 0.950 . S
H2657 C2681 0.950 . S
H2658 C2682 0.950 . S
H2659 C2683 0.951 1_556 S
H2660 C2685 0.951 1_556 S
H2661 C2687 0.950 . S
H2662 C2688 0.950 . S
H2663 C2690 0.950 . S
H2664 C2693 0.950 . S
H2665 C2694 0.950 . S
H2666 C2696 0.950 1_556 S
H2667 C2697 0.950 1_556 S
C2668 H2650 0.951 . S
C2668 C2669 1.366 . S
C2668 C2670 1.388 . S
C2669 C2668 1.366 . S
C2669 C2673 1.385 . S
C2670 H2651 0.951 . S
C2670 C2668 1.388 . S
C2670 C2671 1.366 1_545 S
C2671 C2670 1.366 1_565 S
C2671 C2672 1.414 . S
C2671 C2674 1.499 . S
C2672 H2652 0.950 . S
C2672 C2671 1.414 . S
C2672 C2673 1.374 1_565 S
C2673 H2653 0.950 . S
C2673 C2669 1.385 . S
C2673 C2672 1.374 1_545 S
C2674 C2671 1.499 . S
C2674 C2675 1.373 . S
C2674 C2676 1.389 . S
C2675 H2654 0.950 . S
C2675 C2674 1.373 . S
C2675 C2691 1.377 . S
C2676 C2674 1.389 . S
C2676 C2677 1.524 1_565 S
C2676 C2690 1.377 . S
C2677 C2676 1.524 1_545 S
C2677 C2678 1.397 . S
C2677 C2682 1.363 . S
C2678 H2655 0.950 . S
C2678 C2677 1.397 . S
C2678 C2679 1.334 . S
C2679 H2656 0.950 . S
C2679 C2678 1.334 . S
C2679 C2680 1.287 . S
C2680 C2679 1.287 . S
C2680 C2681 1.524 . S
C2680 H2699 0.913 . S
C2681 H2657 0.950 . S
C2681 C2680 1.524 . S
C2681 C2682 1.415 . S
C2682 H2658 0.950 . S
C2682 C2677 1.363 . S
C2682 C2681 1.415 . S
C2683 H2659 0.951 1_554 S
C2683 C2684 1.366 . S
C2683 C2685 1.388 . S
C2684 C2683 1.366 . S
C2684 C2688 1.385 . S
C2685 H2660 0.951 1_554 S
C2685 C2683 1.388 . S
C2685 C2686 1.366 . S
C2686 C2685 1.366 . S
C2686 C2687 1.414 . S
C2686 C2689 1.499 . S
C2687 H2661 0.950 . S
C2687 C2686 1.414 . S
C2687 C2688 1.374 . S
C2688 H2662 0.950 . S
C2688 C2684 1.385 . S
C2688 C2687 1.374 . S
C2689 C2686 1.499 . S
C2689 C2690 1.373 . S
C2689 C2691 1.389 . S
C2690 H2663 0.950 . S
C2690 C2676 1.377 . S
C2690 C2689 1.373 . S
C2691 C2675 1.377 . S
C2691 C2689 1.389 . S
C2691 C2692 1.524 . S
C2692 C2691 1.524 . S
C2692 C2693 1.397 . S
C2692 C2697 1.363 . S
C2693 H2664 0.950 . S
C2693 C2692 1.397 . S
C2693 C2694 1.334 . S
C2694 H2665 0.950 . S
C2694 C2693 1.334 . S
C2694 C2695 1.287 . S
C2695 C2694 1.287 . S
C2695 C2696 1.524 . S
C2695 H2698 0.999 . S
C2696 H2666 0.950 1_554 S
C2696 C2695 1.524 . S
C2696 C2697 1.415 . S
C2697 H2667 0.950 1_554 S
C2697 C2692 1.363 . S
C2697 C2696 1.415 . S
H2698 C2695 0.999 . S
H2699 C2680 0.913 . S
C334 C154 1.418 . S
C319 C50 1.427 . S
C384 C167 1.591 . S
C369 C61 1.604 . S
C419 C67 1.463 . S
C434 C180 1.451 . S
C484 C193 1.518 . S
C469 C41 1.530 . S
C534 C201 1.460 . S
C519 C95 1.486 . S
C584 C214 1.420 . S
C569 C113 1.439 . S
C619 C106 1.510 . S
C634 C227 1.483 . S
C684 C240 1.503 . S
C669 C86 1.522 . S
C719 C104 1.434 . S
C734 C258 1.422 . S
C784 C269 1.518 . S
C769 C88 1.545 . S
C819 C94 1.470 . S
C834 C253 1.448 . S
C884 C261 1.453 . S
C869 C112 1.478 . S
C919 C70 1.491 . S
C934 C284 1.481 . S
C969 C40 1.521 . S
C984 C274 1.493 . S
C1019 C49 1.515 . S
C1034 C279 1.488 . S
C1069 C59 1.579 . S
C1084 C282 1.549 . S
C1119 C34 1.436 . S
C1134 C191 1.411 . S
C1169 C133 1.418 . S
C1184 C183 1.398 . S
C1234 C152 1.551 1_556 S
C1219 C139 1.580 . S
C1284 C157 1.501 . S
C1269 C77 1.523 . S
C1319 C43 1.542 . S
C1334 C204 1.503 . S
C1384 C243 1.510 . S
C1369 C103 1.535 . S
C1434 C196 1.500 . S
C1419 C85 1.528 . S
C1484 C222 1.436 . S
C1469 C115 1.464 . S
C1534 C232 1.418 . S
C1519 C131 1.427 . S
C1569 C142 1.604 . S
C1584 C245 1.591 . S
C1619 C76 1.463 . S
C1634 C206 1.451 . S
C1684 C219 1.518 . S
C1669 C122 1.530 . S
C1719 C32 1.486 . S
C1734 C175 1.461 . S
C1784 C188 1.419 . S
C1769 C5 1.439 . S
C1834 C149 1.484 . S
C1819 C16 1.510 . S
C1884 C162 1.503 . S
C1869 C23 1.522 . S
C1919 C14 1.434 . S
C1934 C271 1.421 . S
C1969 C25 1.545 . S
C1984 C256 1.509 1_655 S
C2019 C31 1.470 . S
C2034 C266 1.447 . S
C2069 C4 1.478 . S
C2084 C248 1.453 . S
C2134 C297 1.481 . S
C2119 C79 1.491 . S
C2184 C287 1.493 . S
C2169 C121 1.521 . S
C2234 C292 1.488 . S
C2219 C130 1.515 . S
C2269 C140 1.579 . S
C2284 C295 1.548 . S
C2319 C97 1.436 . S
C2334 C217 1.412 . S
C2384 C209 1.399 . S
C2369 C52 1.418 . S
C2434 C230 1.554 . S
C2419 C58 1.580 . S
C2484 C235 1.501 . S
C2469 C68 1.526 . S
C2519 C124 1.532 . S
C2534 C178 1.504 . S
C2584 C165 1.509 . S
C2569 C13 1.537 . S
C2619 C22 1.528 . S
C2634 C170 1.500 . S
C2684 C144 1.436 . S
C2669 C7 1.464 . S
