# Generated by pormake.
# Topology ctn, (3,4)-cn, num edge types: 1
# Building blocks:
#     Node 0, Type 0, BuildingBlock: VETTIZ_charged_linker_0, # of connection points: 3
#     Node 1, Type 0, BuildingBlock: VETTIZ_charged_linker_0, # of connection points: 3
#     Node 2, Type 0, BuildingBlock: VETTIZ_charged_linker_0, # of connection points: 3
#     Node 3, Type 0, BuildingBlock: VETTIZ_charged_linker_0, # of connection points: 3
#     Node 4, Type 0, BuildingBlock: VETTIZ_charged_linker_0, # of connection points: 3
#     Node 5, Type 0, BuildingBlock: VETTIZ_charged_linker_0, # of connection points: 3
#     Node 6, Type 0, BuildingBlock: VETTIZ_charged_linker_0, # of connection points: 3
#     Node 7, Type 0, BuildingBlock: VETTIZ_charged_linker_0, # of connection points: 3
#     Node 8, Type 0, BuildingBlock: VETTIZ_charged_linker_0, # of connection points: 3
#     Node 9, Type 0, BuildingBlock: VETTIZ_charged_linker_0, # of connection points: 3
#     Node 10, Type 0, BuildingBlock: VETTIZ_charged_linker_0, # of connection points: 3
#     Node 11, Type 0, BuildingBlock: VETTIZ_charged_linker_0, # of connection points: 3
#     Node 12, Type 0, BuildingBlock: VETTIZ_charged_linker_0, # of connection points: 3
#     Node 13, Type 0, BuildingBlock: VETTIZ_charged_linker_0, # of connection points: 3
#     Node 14, Type 0, BuildingBlock: VETTIZ_charged_linker_0, # of connection points: 3
#     Node 15, Type 0, BuildingBlock: VETTIZ_charged_linker_0, # of connection points: 3
#     Node 16, Type 1, BuildingBlock: AZAVOO_clean_sbu_0, # of connection points: 4
#     Node 17, Type 1, BuildingBlock: AZAVOO_clean_sbu_0, # of connection points: 4
#     Node 18, Type 1, BuildingBlock: AZAVOO_clean_sbu_0, # of connection points: 4
#     Node 19, Type 1, BuildingBlock: AZAVOO_clean_sbu_0, # of connection points: 4
#     Node 20, Type 1, BuildingBlock: AZAVOO_clean_sbu_0, # of connection points: 4
#     Node 21, Type 1, BuildingBlock: AZAVOO_clean_sbu_0, # of connection points: 4
#     Node 22, Type 1, BuildingBlock: AZAVOO_clean_sbu_0, # of connection points: 4
#     Node 23, Type 1, BuildingBlock: AZAVOO_clean_sbu_0, # of connection points: 4
#     Node 24, Type 1, BuildingBlock: AZAVOO_clean_sbu_0, # of connection points: 4
#     Node 25, Type 1, BuildingBlock: AZAVOO_clean_sbu_0, # of connection points: 4
#     Node 26, Type 1, BuildingBlock: AZAVOO_clean_sbu_0, # of connection points: 4
#     Node 27, Type 1, BuildingBlock: AZAVOO_clean_sbu_0, # of connection points: 4
#     Edge 28, Type (0, 1), BuildingBlock: KIFKEQ_clean_linker_1, # of connection points: 2
#     Edge 29, Type (0, 1), BuildingBlock: KIFKEQ_clean_linker_1, # of connection points: 2
#     Edge 30, Type (0, 1), BuildingBlock: KIFKEQ_clean_linker_1, # of connection points: 2
#     Edge 31, Type (0, 1), BuildingBlock: KIFKEQ_clean_linker_1, # of connection points: 2
#     Edge 32, Type (0, 1), BuildingBlock: KIFKEQ_clean_linker_1, # of connection points: 2
#     Edge 33, Type (0, 1), BuildingBlock: KIFKEQ_clean_linker_1, # of connection points: 2
#     Edge 34, Type (0, 1), BuildingBlock: KIFKEQ_clean_linker_1, # of connection points: 2
#     Edge 35, Type (0, 1), BuildingBlock: KIFKEQ_clean_linker_1, # of connection points: 2
#     Edge 36, Type (0, 1), BuildingBlock: KIFKEQ_clean_linker_1, # of connection points: 2
#     Edge 37, Type (0, 1), BuildingBlock: KIFKEQ_clean_linker_1, # of connection points: 2
#     Edge 38, Type (0, 1), BuildingBlock: KIFKEQ_clean_linker_1, # of connection points: 2
#     Edge 39, Type (0, 1), BuildingBlock: KIFKEQ_clean_linker_1, # of connection points: 2
#     Edge 40, Type (0, 1), BuildingBlock: KIFKEQ_clean_linker_1, # of connection points: 2
#     Edge 41, Type (0, 1), BuildingBlock: KIFKEQ_clean_linker_1, # of connection points: 2
#     Edge 42, Type (0, 1), BuildingBlock: KIFKEQ_clean_linker_1, # of connection points: 2
#     Edge 43, Type (0, 1), BuildingBlock: KIFKEQ_clean_linker_1, # of connection points: 2
#     Edge 44, Type (0, 1), BuildingBlock: KIFKEQ_clean_linker_1, # of connection points: 2
#     Edge 45, Type (0, 1), BuildingBlock: KIFKEQ_clean_linker_1, # of connection points: 2
#     Edge 46, Type (0, 1), BuildingBlock: KIFKEQ_clean_linker_1, # of connection points: 2
#     Edge 47, Type (0, 1), BuildingBlock: KIFKEQ_clean_linker_1, # of connection points: 2
#     Edge 48, Type (0, 1), BuildingBlock: KIFKEQ_clean_linker_1, # of connection points: 2
#     Edge 49, Type (0, 1), BuildingBlock: KIFKEQ_clean_linker_1, # of connection points: 2
#     Edge 50, Type (0, 1), BuildingBlock: KIFKEQ_clean_linker_1, # of connection points: 2
#     Edge 51, Type (0, 1), BuildingBlock: KIFKEQ_clean_linker_1, # of connection points: 2
#     Edge 52, Type (0, 1), BuildingBlock: KIFKEQ_clean_linker_1, # of connection points: 2
#     Edge 53, Type (0, 1), BuildingBlock: KIFKEQ_clean_linker_1, # of connection points: 2
#     Edge 54, Type (0, 1), BuildingBlock: KIFKEQ_clean_linker_1, # of connection points: 2
#     Edge 55, Type (0, 1), BuildingBlock: KIFKEQ_clean_linker_1, # of connection points: 2
#     Edge 56, Type (0, 1), BuildingBlock: KIFKEQ_clean_linker_1, # of connection points: 2
#     Edge 57, Type (0, 1), BuildingBlock: KIFKEQ_clean_linker_1, # of connection points: 2
#     Edge 58, Type (0, 1), BuildingBlock: KIFKEQ_clean_linker_1, # of connection points: 2
#     Edge 59, Type (0, 1), BuildingBlock: KIFKEQ_clean_linker_1, # of connection points: 2
#     Edge 60, Type (0, 1), BuildingBlock: KIFKEQ_clean_linker_1, # of connection points: 2
#     Edge 61, Type (0, 1), BuildingBlock: KIFKEQ_clean_linker_1, # of connection points: 2
#     Edge 62, Type (0, 1), BuildingBlock: KIFKEQ_clean_linker_1, # of connection points: 2
#     Edge 63, Type (0, 1), BuildingBlock: KIFKEQ_clean_linker_1, # of connection points: 2
#     Edge 64, Type (0, 1), BuildingBlock: KIFKEQ_clean_linker_1, # of connection points: 2
#     Edge 65, Type (0, 1), BuildingBlock: KIFKEQ_clean_linker_1, # of connection points: 2
#     Edge 66, Type (0, 1), BuildingBlock: KIFKEQ_clean_linker_1, # of connection points: 2
#     Edge 67, Type (0, 1), BuildingBlock: KIFKEQ_clean_linker_1, # of connection points: 2
#     Edge 68, Type (0, 1), BuildingBlock: KIFKEQ_clean_linker_1, # of connection points: 2
#     Edge 69, Type (0, 1), BuildingBlock: KIFKEQ_clean_linker_1, # of connection points: 2
#     Edge 70, Type (0, 1), BuildingBlock: KIFKEQ_clean_linker_1, # of connection points: 2
#     Edge 71, Type (0, 1), BuildingBlock: KIFKEQ_clean_linker_1, # of connection points: 2
#     Edge 72, Type (0, 1), BuildingBlock: KIFKEQ_clean_linker_1, # of connection points: 2
#     Edge 73, Type (0, 1), BuildingBlock: KIFKEQ_clean_linker_1, # of connection points: 2
#     Edge 74, Type (0, 1), BuildingBlock: KIFKEQ_clean_linker_1, # of connection points: 2
#     Edge 75, Type (0, 1), BuildingBlock: KIFKEQ_clean_linker_1, # of connection points: 2
# Relax obj value: 0.002
# Max RMSD: 0.044
# Mean RMSD: 0.024
data_MOF--net-ctn--node1-AZAVOO_clean_sbu_0--node2-VETTIZ_charged_linker_0--edge1-KIFKEQ_clean_linker_1
_symmetry_space_group_name_H-M    P1
_symmetry_Int_Tables_number       1
_symmetry_cell_setting            triclinic
loop_
_symmetry_equiv_pos_as_xyz
'x, y, z'
_cell_length_a     67.217342
_cell_length_b     68.249424
_cell_length_c     68.205753
_cell_angle_alpha  90.11587
_cell_angle_beta   92.573161
_cell_angle_gamma 92.835686
loop_
_atom_site_label
_atom_site_type_symbol
_atom_site_fract_x
_atom_site_fract_y
_atom_site_fract_z
_atom_type_partial_charge
C0 C 0.03587 0.07883 0.9732 0.0
C1 C 0.02186 0.09291 0.97677 0.0
C2 C 0.0084 0.08954 0.99179 0.0
C3 C 0.02383 0.05921 1.0003 0.0
C4 C 0.03666 0.06219 0.98519 0.0
C5 C 0.05137 0.04632 0.98424 0.0
H6 H 0.09028 0.96491 0.02387 0.0
C7 C 0.02938 0.04127 0.01085 0.0
C8 C 0.04552 0.03362 0.00154 0.0
H9 H 0.10749 0.99577 0.97144 0.0
H10 H 0.08201 0.01879 0.97587 0.0
H11 H 0.08441 0.00265 0.04972 0.0
H12 H 0.04215 0.96659 0.01448 0.0
H13 H 0.0315 0.97142 0.03698 0.0
H14 H 0.05398 0.95811 0.0368 0.0
H15 H 0.07579 0.97872 0.05747 0.0
H16 H 0.06237 0.00028 0.06256 0.0
C17 C 0.07265 0.05595 0.98736 0.0
C18 C 0.04757 0.03532 0.96443 0.0
C19 C 0.99287 0.02087 0.07165 0.0
C20 C 0.9958 0.00622 0.08576 0.0
C21 C 0.01097 0.99299 0.08333 0.0
C22 C 0.02309 0.99441 0.06711 0.0
C23 C 0.02017 0.00936 0.05326 0.0
C24 C 0.00525 0.02227 0.0557 0.0
C25 C 0.00494 0.03787 0.04021 0.0
C26 C 0.02195 0.03209 0.02788 0.0
C27 C 0.03078 0.01534 0.0355 0.0
C28 C 0.00931 0.05808 0.05043 0.0
C29 C 0.9846 0.03579 0.02858 0.0
C30 C 0.08845 0.9765 0.01322 0.0
C31 C 0.10103 0.9785 0.9973 0.0
C32 C 0.09826 0.99403 0.984 0.0
C33 C 0.08333 0.00733 0.98651 0.0
C34 C 0.07098 0.00518 0.00253 0.0
C35 C 0.07357 0.98989 0.0155 0.0
C36 C 0.05896 0.98983 0.0316 0.0
C37 C 0.04708 0.0075 0.02605 0.0
C38 C 0.05428 0.01651 0.00908 0.0
C39 C 0.07085 0.99288 0.05146 0.0
C40 C 0.04597 0.97046 0.0301 0.0
H41 H 0.99873 0.07121 0.01482 0.0
H42 H 0.04649 0.08109 0.96183 0.0
H43 H 0.03147 0.03481 0.95979 0.0
H44 H 0.05142 0.01978 0.96525 0.0
H45 H 0.05593 0.04268 0.95259 0.0
H46 H 0.07289 0.06778 0.99864 0.0
H47 H 0.07791 0.06262 0.97356 0.0
H48 H 0.08369 0.04566 0.99294 0.0
H49 H 0.98162 0.0315 0.07334 0.0
H50 H 0.01346 0.98156 0.09403 0.0
H51 H 0.03441 0.98396 0.0661 0.0
H52 H 0.01884 0.05668 0.06408 0.0
H53 H 0.99533 0.06471 0.05456 0.0
H54 H 0.01787 0.0686 0.04137 0.0
H55 H 0.97987 0.02005 0.02636 0.0
H56 H 0.98509 0.04199 0.01366 0.0
H57 H 0.97277 0.0428 0.03658 0.0
H58 H 0.99729 0.10004 0.99462 0.0
C59 C 0.00925 0.07277 0.0035 0.0
C60 C 0.26036 0.66918 0.24578 0.0
C61 C 0.24281 0.66483 0.23423 0.0
C62 C 0.23782 0.67745 0.2186 0.0
C63 C 0.2681 0.69755 0.22562 0.0
C64 C 0.27276 0.68542 0.24115 0.0
C65 C 0.2924 0.6914 0.25138 0.0
H66 H 0.37645 0.75026 0.25618 0.0
C67 C 0.28458 0.7126 0.22428 0.0
C68 C 0.29886 0.70907 0.23932 0.0
H69 H 0.35942 0.70242 0.2945 0.0
H70 H 0.32837 0.69719 0.27608 0.0
H71 H 0.33309 0.7692 0.25451 0.0
H72 H 0.35988 0.72934 0.21555 0.0
H73 H 0.34782 0.74697 0.20121 0.0
H74 H 0.36818 0.75468 0.21801 0.0
H75 H 0.3527 0.77707 0.23888 0.0
H76 H 0.32688 0.77619 0.23031 0.0
C77 C 0.28843 0.69715 0.27281 0.0
C78 C 0.30653 0.67428 0.24942 0.0
C79 C 0.28249 0.76258 0.16946 0.0
C80 C 0.29593 0.77764 0.16356 0.0
C81 C 0.31373 0.78156 0.17495 0.0
C82 C 0.31826 0.77031 0.19162 0.0
C83 C 0.30488 0.75495 0.19698 0.0
C84 C 0.28727 0.75145 0.18603 0.0
C85 C 0.27489 0.73442 0.19361 0.0
C86 C 0.28795 0.72824 0.21097 0.0
C87 C 0.30554 0.74025 0.21288 0.0
C88 C 0.25491 0.74214 0.20012 0.0
C89 C 0.27269 0.71841 0.17737 0.0
C90 C 0.36598 0.73871 0.26062 0.0
C91 C 0.37062 0.72655 0.27668 0.0
C92 C 0.35653 0.71169 0.28193 0.0
C93 C 0.33836 0.70875 0.27129 0.0
C94 C 0.33407 0.72079 0.25515 0.0
C95 C 0.34766 0.73558 0.25011 0.0
C96 C 0.34025 0.74706 0.23265 0.0
C97 C 0.32006 0.73662 0.22806 0.0
C98 C 0.31663 0.72119 0.24125 0.0
C99 C 0.3382 0.76857 0.23924 0.0
C100 C 0.35477 0.74459 0.21592 0.0
H101 H 0.24581 0.70266 0.20206 0.0
H102 H 0.26452 0.66002 0.2581 0.0
H103 H 0.30405 0.66691 0.23488 0.0
H104 H 0.32246 0.67912 0.25007 0.0
H105 H 0.30395 0.66303 0.26089 0.0
H106 H 0.27366 0.70371 0.27373 0.0
H107 H 0.28847 0.68416 0.28259 0.0
H108 H 0.29925 0.70856 0.27887 0.0
H109 H 0.26854 0.75936 0.16125 0.0
H110 H 0.3244 0.79299 0.17066 0.0
H111 H 0.33215 0.77382 0.19953 0.0
H112 H 0.25727 0.75693 0.20699 0.0
H113 H 0.24415 0.74341 0.1874 0.0
H114 H 0.24792 0.73292 0.21145 0.0
H115 H 0.28627 0.71835 0.16862 0.0
H116 H 0.27109 0.7034 0.18329 0.0
H117 H 0.25982 0.72096 0.16707 0.0
H118 H 0.22453 0.67439 0.20933 0.0
C119 C 0.25032 0.69379 0.21428 0.0
C120 C 0.00248 0.42674 0.00521 0.0
C121 C 0.99041 0.42115 0.98858 0.0
C122 C 0.9737 0.4321 0.98351 0.0
C123 C 0.98051 0.45279 0.01228 0.0
C124 C 0.99726 0.44246 0.0168 0.0
C125 C 0.00813 0.44968 0.03536 0.0
H126 H 0.01261 0.50841 0.11567 0.0
C127 C 0.97872 0.46752 0.02798 0.0
C128 C 0.99491 0.46579 0.0415 0.0
H129 H 0.05529 0.46723 0.0981 0.0
H130 H 0.0351 0.45918 0.06881 0.0
H131 H 0.97146 0.48185 0.10119 0.0
H132 H 0.00744 0.52735 0.07429 0.0
H133 H 0.98271 0.53059 0.0661 0.0
H134 H 0.98952 0.53289 0.09195 0.0
H135 H 0.97348 0.50681 0.10973 0.0
H136 H 0.95562 0.49907 0.09047 0.0
C137 C 0.00819 0.43253 0.05024 0.0
C138 C 0.02916 0.4579 0.03011 0.0
C139 C 0.91964 0.51136 0.02637 0.0
C140 C 0.91417 0.52651 0.03873 0.0
C141 C 0.92622 0.53127 0.05569 0.0
C142 C 0.94343 0.52112 0.06029 0.0
C143 C 0.9488 0.50611 0.04774 0.0
C144 C 0.93703 0.50151 0.03106 0.0
C145 C 0.94536 0.4855 0.01915 0.0
C146 C 0.9641 0.48133 0.03139 0.0
C147 C 0.96594 0.49331 0.04822 0.0
C148 C 0.93007 0.46775 0.01853 0.0
C149 C 0.95026 0.49392 0.99874 0.0
C150 C 0.01737 0.4975 0.10555 0.0
C151 C 0.0354 0.48826 0.10916 0.0
C152 C 0.04143 0.47448 0.09554 0.0
C153 C 0.02968 0.46984 0.07856 0.0
C154 C 0.01173 0.4792 0.07501 0.0
C155 C 0.00591 0.49292 0.08827 0.0
C156 C 0.98698 0.5022 0.08134 0.0
C157 C 0.98229 0.4915 0.06196 0.0
C158 C 0.99675 0.47792 0.05849 0.0
C159 C 0.97096 0.49742 0.09645 0.0
C160 C 0.99172 0.52444 0.07835 0.0
H161 H 0.95559 0.45539 0.99084 0.0
H162 H 0.01559 0.41881 0.00935 0.0
H163 H 0.02917 0.46347 0.01479 0.0
H164 H 0.03441 0.4707 0.03925 0.0
H165 H 0.04029 0.44642 0.03143 0.0
H166 H 0.99355 0.42415 0.04957 0.0
H167 H 0.01984 0.42215 0.04699 0.0
H168 H 0.01043 0.43744 0.06563 0.0
H169 H 0.91081 0.50754 0.01311 0.0
H170 H 0.92221 0.54278 0.06551 0.0
H171 H 0.95192 0.5254 0.07343 0.0
H172 H 0.92303 0.46589 0.03291 0.0
H173 H 0.91799 0.4698 0.00718 0.0
H174 H 0.93689 0.45367 0.01584 0.0
H175 H 0.95552 0.50961 0.99992 0.0
H176 H 0.96253 0.48656 0.99198 0.0
H177 H 0.9369 0.49302 0.98852 0.0
H178 H 0.96408 0.42802 0.97085 0.0
C179 C 0.96869 0.44787 0.99526 0.0
C180 C 0.66906 0.81746 0.25929 0.0
C181 C 0.65526 0.80132 0.26016 0.0
C182 C 0.65657 0.7857 0.24675 0.0
C183 C 0.68573 0.8018 0.23302 0.0
C184 C 0.68417 0.81732 0.24581 0.0
C185 C 0.70074 0.83275 0.24395 0.0
H186 H 0.78874 0.86115 0.20583 0.0
C187 C 0.70386 0.80564 0.22182 0.0
C188 C 0.71275 0.82373 0.22825 0.0
H189 H 0.75484 0.89295 0.24661 0.0
H190 H 0.72875 0.86721 0.24489 0.0
H191 H 0.75143 0.84947 0.17698 0.0
H192 H 0.78079 0.81833 0.22381 0.0
H193 H 0.77543 0.80152 0.20452 0.0
H194 H 0.79172 0.82281 0.20061 0.0
H195 H 0.77492 0.83865 0.17415 0.0
H196 H 0.75155 0.82492 0.16936 0.0
C197 C 0.69148 0.852 0.23691 0.0
C198 C 0.7126 0.83447 0.26395 0.0
C199 C 0.72357 0.75622 0.17099 0.0
C200 C 0.74015 0.75544 0.15918 0.0
C201 C 0.75521 0.77056 0.1608 0.0
C202 C 0.75372 0.78629 0.17376 0.0
C203 C 0.73703 0.78697 0.18537 0.0
C204 C 0.72238 0.77202 0.18402 0.0
C205 C 0.70606 0.77497 0.19801 0.0
C206 C 0.71304 0.79446 0.20745 0.0
C207 C 0.73118 0.80138 0.19996 0.0
C208 C 0.68619 0.77653 0.18587 0.0
C209 C 0.70609 0.75791 0.21299 0.0
C210 C 0.77574 0.86247 0.21448 0.0
C211 C 0.77389 0.87895 0.22654 0.0
C212 C 0.75655 0.88039 0.23721 0.0
C213 C 0.74148 0.86539 0.23625 0.0
C214 C 0.74372 0.8488 0.22442 0.0
C215 C 0.76048 0.84773 0.21353 0.0
C216 C 0.75993 0.8295 0.20107 0.0
C217 C 0.74027 0.81958 0.20658 0.0
C218 C 0.73095 0.83083 0.22042 0.0
C219 C 0.75958 0.83579 0.17922 0.0
C220 C 0.77793 0.81735 0.20763 0.0
H221 H 0.67198 0.77345 0.22358 0.0
H222 H 0.66837 0.82987 0.26912 0.0
H223 H 0.71446 0.81971 0.2705 0.0
H224 H 0.72787 0.84088 0.26278 0.0
H225 H 0.7047 0.84334 0.27454 0.0
H226 H 0.6778 0.8489 0.22739 0.0
H227 H 0.68725 0.86098 0.24952 0.0
H228 H 0.7015 0.86096 0.22767 0.0
H229 H 0.71188 0.7447 0.17024 0.0
H230 H 0.76802 0.77041 0.15172 0.0
H231 H 0.76563 0.79735 0.17417 0.0
H232 H 0.68848 0.78558 0.17254 0.0
H233 H 0.68008 0.76181 0.181 0.0
H234 H 0.67474 0.78384 0.19393 0.0
H235 H 0.72134 0.75255 0.21564 0.0
H236 H 0.70155 0.76236 0.22765 0.0
H237 H 0.69628 0.74526 0.20764 0.0
H238 H 0.64634 0.77296 0.24717 0.0
C239 C 0.67165 0.7859 0.23317 0.0
C240 C 0.04988 0.92586 0.51662 0.0
C241 C 0.03485 0.91116 0.51249 0.0
C242 C 0.02099 0.91382 0.49671 0.0
C243 C 0.03737 0.94516 0.48922 0.0
C244 C 0.05093 0.94262 0.50474 0.0
C245 C 0.06646 0.95929 0.50647 0.0
H246 H 0.10516 0.04486 0.4707 0.0
C247 C 0.04269 0.96398 0.47963 0.0
C248 C 0.05975 0.97237 0.48967 0.0
H249 H 0.12718 0.01195 0.52062 0.0
H250 H 0.09994 0.98789 0.5156 0.0
H251 H 0.0611 0.04248 0.48209 0.0
H252 H 0.09181 0.0071 0.44208 0.0
H253 H 0.06934 0.0143 0.43049 0.0
H254 H 0.08785 0.03274 0.43867 0.0
H255 H 0.06494 0.05023 0.45738 0.0
H256 H 0.04334 0.03505 0.46357 0.0
C257 C 0.06482 0.96934 0.52667 0.0
C258 C 0.08707 0.95093 0.50316 0.0
C259 C 0.00154 0.98593 0.41992 0.0
C260 C 0.00207 0.00314 0.40849 0.0
C261 C 0.01641 0.0183 0.41377 0.0
C262 C 0.03027 0.01612 0.4295 0.0
C263 C 0.02976 0.99869 0.4404 0.0
C264 C 0.01525 0.98417 0.43585 0.0
C265 C 0.01618 0.96719 0.44986 0.0
C266 C 0.03389 0.97378 0.46331 0.0
C267 C 0.04199 0.99208 0.45748 0.0
C268 C 0.99646 0.96578 0.46085 0.0
C269 C 0.02038 0.94857 0.43799 0.0
C270 C 0.10412 0.03257 0.48068 0.0
C271 C 0.11856 0.03037 0.49603 0.0
C272 C 0.11657 0.01392 0.50845 0.0
C273 C 0.10062 0.99999 0.5056 0.0
C274 C 0.08637 0.00245 0.49019 0.0
C275 C 0.08821 0.01862 0.47813 0.0
C276 C 0.07142 0.01919 0.46283 0.0
C277 C 0.05945 0.00043 0.46737 0.0
C278 C 0.06829 0.99064 0.48338 0.0
C279 C 0.05958 0.03772 0.46645 0.0
C280 C 0.08044 0.0184 0.44237 0.0
H281 H 0.01118 0.93177 0.47329 0.0
H282 H 0.06091 0.92411 0.52848 0.0
H283 H 0.08577 0.93898 0.49199 0.0
H284 H 0.09787 0.96188 0.49729 0.0
H285 H 0.09356 0.94475 0.51693 0.0
H286 H 0.04895 0.96991 0.53053 0.0
H287 H 0.07273 0.96117 0.53847 0.0
H288 H 0.0706 0.98476 0.52691 0.0
H289 H 0.99094 0.97384 0.41645 0.0
H290 H 0.01695 0.03201 0.40583 0.0
H291 H 0.04088 0.02811 0.43255 0.0
H292 H 0.99043 0.98052 0.46277 0.0
H293 H 0.98486 0.9565 0.45264 0.0
H294 H 0.99842 0.96009 0.47593 0.0
H295 H 0.03113 0.95214 0.42642 0.0
H296 H 0.02739 0.93719 0.44703 0.0
H297 H 0.00649 0.94214 0.43062 0.0
H298 H 0.00919 0.90278 0.49334 0.0
C299 C 0.02213 0.93071 0.48512 0.0
C300 C 0.26089 0.66058 0.77623 0.0
C301 C 0.25884 0.64609 0.76147 0.0
C302 C 0.24268 0.64671 0.74756 0.0
C303 C 0.23114 0.67577 0.76321 0.0
C304 C 0.24698 0.67517 0.77681 0.0
C305 C 0.24712 0.69158 0.79156 0.0
H306 H 0.20393 0.77083 0.82745 0.0
C307 C 0.21931 0.69271 0.76812 0.0
C308 C 0.22861 0.70198 0.78476 0.0
H309 H 0.25861 0.74526 0.84797 0.0
H310 H 0.2547 0.72081 0.82243 0.0
H311 H 0.1788 0.73081 0.8198 0.0
H312 H 0.21289 0.76757 0.78108 0.0
H313 H 0.19039 0.76024 0.76845 0.0
H314 H 0.18979 0.77452 0.79063 0.0
H315 H 0.16974 0.75333 0.81024 0.0
H316 H 0.16554 0.73043 0.79703 0.0
C317 C 0.24496 0.6824 0.81217 0.0
C318 C 0.26643 0.70466 0.78935 0.0
C319 C 0.15774 0.70851 0.72595 0.0
C320 C 0.14343 0.72282 0.7274 0.0
C321 C 0.1451 0.73585 0.74356 0.0
C322 C 0.16084 0.73499 0.75765 0.0
C323 C 0.17514 0.72087 0.75577 0.0
C324 C 0.17328 0.70772 0.7403 0.0
C325 C 0.18945 0.69318 0.7412 0.0
C326 C 0.20159 0.70014 0.75946 0.0
C327 C 0.19318 0.71646 0.76783 0.0
C328 C 0.17954 0.67243 0.74387 0.0
C329 C 0.20153 0.69554 0.72248 0.0
C330 C 0.21499 0.7599 0.82644 0.0
C331 C 0.23164 0.76002 0.8397 0.0
C332 C 0.24581 0.74566 0.83778 0.0
C333 C 0.24345 0.73138 0.82299 0.0
C334 C 0.22676 0.73141 0.80985 0.0
C335 C 0.21295 0.74559 0.8116 0.0
C336 C 0.19644 0.74359 0.79597 0.0
C337 C 0.20259 0.72582 0.78466 0.0
C338 C 0.22029 0.7187 0.79295 0.0
C339 C 0.1765 0.73946 0.80614 0.0
C340 C 0.19719 0.76245 0.78336 0.0
H341 H 0.217 0.66114 0.73728 0.0
H342 H 0.27297 0.66049 0.78728 0.0
H343 H 0.27126 0.70456 0.77396 0.0
H344 H 0.26439 0.72029 0.79259 0.0
H345 H 0.2789 0.69944 0.79888 0.0
H346 H 0.23427 0.66941 0.81146 0.0
H347 H 0.25948 0.67747 0.81821 0.0
H348 H 0.23884 0.69244 0.82281 0.0
H349 H 0.1571 0.69827 0.71377 0.0
H350 H 0.13411 0.74669 0.74546 0.0
H351 H 0.16124 0.74539 0.76949 0.0
H352 H 0.16612 0.67304 0.7528 0.0
H353 H 0.17471 0.66569 0.72949 0.0
H354 H 0.18933 0.66243 0.752 0.0
H355 H 0.2039 0.71132 0.71872 0.0
H356 H 0.21662 0.68992 0.72423 0.0
H357 H 0.19354 0.68808 0.70972 0.0
H358 H 0.24086 0.63594 0.73585 0.0
C359 C 0.22887 0.66143 0.74834 0.0
C360 C 0.90531 0.48432 0.47875 0.0
C361 C 0.90115 0.46709 0.46773 0.0
C362 C 0.9135 0.46266 0.45234 0.0
C363 C 0.9339 0.49237 0.45917 0.0
C364 C 0.92184 0.49659 0.47437 0.0
C365 C 0.92913 0.51485 0.48539 0.0
H366 H 0.99434 0.59331 0.49506 0.0
C367 C 0.95 0.50791 0.45869 0.0
C368 C 0.94739 0.52103 0.47413 0.0
H369 H 0.94572 0.57631 0.53201 0.0
H370 H 0.93798 0.54769 0.51208 0.0
H371 H 0.97184 0.58142 0.45335 0.0
H372 H 0.01074 0.55001 0.49264 0.0
H373 H 0.01685 0.54424 0.46862 0.0
H374 H 0.02002 0.56931 0.47717 0.0
H375 H 0.99789 0.58812 0.45729 0.0
H376 H 0.98928 0.56989 0.43932 0.0
C377 C 0.91271 0.52995 0.48327 0.0
C378 C 0.9347 0.50912 0.50688 0.0
C379 C 1.00046 0.50694 0.40541 0.0
C380 C 0.01718 0.51917 0.40126 0.0
C381 C 0.02218 0.53554 0.41348 0.0
C382 C 0.01065 0.53973 0.42947 0.0
C383 C 0.99396 0.52739 0.43341 0.0
C384 C 0.98918 0.51124 0.42153 0.0
C385 C 0.97128 0.49944 0.42823 0.0
C386 C 0.96595 0.51127 0.44596 0.0
C387 C 0.97922 0.52768 0.44889 0.0
C388 C 0.95481 0.49959 0.41162 0.0
C389 C 0.9779 0.4787 0.43403 0.0
C390 C 0.98214 0.58335 0.49901 0.0
C391 C 0.97048 0.58738 0.51508 0.0
C392 C 0.95468 0.57395 0.51949 0.0
C393 C 0.95026 0.55718 0.50795 0.0
C394 C 0.96182 0.55356 0.49182 0.0
C395 C 0.97762 0.56638 0.4877 0.0
C396 C 0.9886 0.55974 0.47029 0.0
C397 C 0.97663 0.54096 0.46456 0.0
C398 C 0.96088 0.53754 0.47716 0.0
C399 C 0.98702 0.57559 0.45416 0.0
C400 C 0.01025 0.5557 0.47736 0.0
H401 H 0.93859 0.47107 0.43603 0.0
H402 H 0.89625 0.48786 0.49089 0.0
H403 H 0.93923 0.49367 0.50784 0.0
H404 H 0.94774 0.51788 0.51317 0.0
H405 H 0.92191 0.51053 0.51646 0.0
H406 H 0.90609 0.52988 0.46802 0.0
H407 H 0.90049 0.52642 0.49331 0.0
H408 H 0.91838 0.5452 0.48601 0.0
H409 H 0.9964 0.49409 0.39649 0.0
H410 H 0.03489 0.54527 0.4105 0.0
H411 H 0.01517 0.55246 0.43813 0.0
H412 H 0.95422 0.51441 0.4049 0.0
H413 H 0.95774 0.48902 0.39981 0.0
H414 H 0.93972 0.49628 0.41681 0.0
H415 H 0.99378 0.47915 0.43946 0.0
H416 H 0.96957 0.47233 0.44631 0.0
H417 H 0.97636 0.46846 0.42131 0.0
H418 H 0.91049 0.44943 0.44368 0.0
C419 C 0.92978 0.47524 0.44794 0.0
C420 C 0.79717 0.73081 0.83272 0.0
C421 C 0.77999 0.72979 0.84384 0.0
C422 C 0.76466 0.74267 0.83933 0.0
C423 C 0.78393 0.75771 0.81373 0.0
C424 C 0.79877 0.74479 0.81772 0.0
C425 C 0.81594 0.74796 0.80441 0.0
H426 H 0.8583 0.7998 0.73095 0.0
C427 C 0.79052 0.77104 0.798 0.0
C428 C 0.80926 0.7654 0.79239 0.0
H429 H 0.87975 0.74825 0.76022 0.0
H430 H 0.85175 0.74755 0.78113 0.0
H431 H 0.8462 0.82139 0.76886 0.0
H432 H 0.81117 0.78456 0.72774 0.0
H433 H 0.79825 0.80589 0.73218 0.0
H434 H 0.82231 0.80812 0.72172 0.0
H435 H 0.83653 0.8308 0.74602 0.0
H436 H 0.82219 0.83042 0.76782 0.0
C437 C 0.83502 0.7532 0.8173 0.0
C438 C 0.81715 0.7293 0.79162 0.0
C439 C 0.74733 0.82692 0.77661 0.0
C440 C 0.7504 0.84319 0.76422 0.0
C441 C 0.7684 0.84495 0.75423 0.0
C442 C 0.78281 0.83085 0.7564 0.0
C443 C 0.77949 0.81484 0.76892 0.0
C444 C 0.76211 0.81323 0.77896 0.0
C445 C 0.76181 0.79611 0.79281 0.0
C446 C 0.78176 0.78757 0.7892 0.0
C447 C 0.79193 0.79842 0.77498 0.0
C448 C 0.76086 0.80422 0.81401 0.0
C449 C 0.74413 0.78179 0.78629 0.0
C450 C 0.85691 0.78828 0.74177 0.0
C451 C 0.87131 0.77404 0.74384 0.0
C452 C 0.86905 0.75954 0.75841 0.0
C453 C 0.85265 0.75903 0.77045 0.0
C454 C 0.83824 0.77315 0.76795 0.0
C455 C 0.84057 0.78753 0.75388 0.0
C456 C 0.8238 0.80135 0.75333 0.0
C457 C 0.8107 0.79252 0.76894 0.0
C458 C 0.81928 0.77606 0.77755 0.0
C459 C 0.8325 0.82213 0.75916 0.0
C460 C 0.81329 0.8001 0.73266 0.0
H461 H 0.75441 0.76601 0.82188 0.0
H462 H 0.8091 0.72098 0.83565 0.0
H463 H 0.80211 0.72208 0.7886 0.0
H464 H 0.82281 0.73252 0.77695 0.0
H465 H 0.8266 0.7184 0.79905 0.0
H466 H 0.83172 0.76343 0.82932 0.0
H467 H 0.84109 0.73986 0.82414 0.0
H468 H 0.84685 0.76087 0.80912 0.0
H469 H 0.73378 0.82481 0.78449 0.0
H470 H 0.77168 0.85748 0.74502 0.0
H471 H 0.79611 0.8331 0.74841 0.0
H472 H 0.76845 0.81905 0.81548 0.0
H473 H 0.74519 0.8055 0.81819 0.0
H474 H 0.76875 0.79527 0.82506 0.0
H475 H 0.74242 0.781 0.76999 0.0
H476 H 0.74627 0.76654 0.79101 0.0
H477 H 0.72989 0.78666 0.79184 0.0
H478 H 0.75139 0.7424 0.84778 0.0
C479 C 0.76653 0.75654 0.82438 0.0
C480 C 0.29708 0.23451 0.33463 0.0
C481 C 0.28081 0.23354 0.34696 0.0
C482 C 0.26553 0.24677 0.34398 0.0
C483 C 0.28263 0.2616 0.31686 0.0
C484 C 0.29757 0.24853 0.31957 0.0
C485 C 0.31332 0.25135 0.30462 0.0
H486 H 0.34648 0.29993 0.22462 0.0
C487 C 0.28745 0.27428 0.30006 0.0
C488 C 0.30534 0.26828 0.29263 0.0
H489 H 0.37377 0.25216 0.25545 0.0
H490 H 0.34759 0.25131 0.27866 0.0
H491 H 0.33569 0.32338 0.26363 0.0
H492 H 0.30204 0.28255 0.22533 0.0
H493 H 0.28585 0.30075 0.23157 0.0
H494 H 0.30781 0.30745 0.21834 0.0
H495 H 0.32714 0.32971 0.23926 0.0
H496 H 0.31172 0.33223 0.25998 0.0
C497 C 0.33339 0.25716 0.31563 0.0
C498 C 0.31355 0.23228 0.29231 0.0
C499 C 0.2424 0.32963 0.2814 0.0
C500 C 0.24273 0.34362 0.26631 0.0
C501 C 0.25777 0.34321 0.25257 0.0
C502 C 0.27244 0.32934 0.25401 0.0
C503 C 0.27209 0.3156 0.26932 0.0
C504 C 0.2571 0.31575 0.28254 0.0
C505 C 0.25875 0.29967 0.29747 0.0
C506 C 0.27751 0.29019 0.29135 0.0
C507 C 0.28531 0.29965 0.27494 0.0
C508 C 0.26164 0.30934 0.31805 0.0
C509 C 0.23999 0.28555 0.29483 0.0
C510 C 0.34676 0.28919 0.23628 0.0
C511 C 0.36218 0.27602 0.2381 0.0
C512 C 0.36216 0.26256 0.25377 0.0
C513 C 0.34686 0.262 0.26716 0.0
C514 C 0.33139 0.27507 0.26493 0.0
C515 C 0.33165 0.28847 0.24977 0.0
C516 C 0.31424 0.30147 0.24975 0.0
C517 C 0.30328 0.29349 0.26722 0.0
C518 C 0.31333 0.27799 0.27608 0.0
C519 C 0.32246 0.32288 0.25319 0.0
C520 C 0.30181 0.2981 0.23023 0.0
H521 H 0.25431 0.27045 0.32773 0.0
H522 H 0.30898 0.22445 0.33651 0.0
H523 H 0.29814 0.22584 0.2895 0.0
H524 H 0.31943 0.23471 0.27763 0.0
H525 H 0.32235 0.22109 0.3001 0.0
H526 H 0.33105 0.2671 0.32818 0.0
H527 H 0.34066 0.24402 0.32157 0.0
H528 H 0.3439 0.26544 0.30639 0.0
H529 H 0.23089 0.32942 0.29202 0.0
H530 H 0.25844 0.35395 0.24091 0.0
H531 H 0.28356 0.32994 0.2432 0.0
H532 H 0.27202 0.32253 0.31758 0.0
H533 H 0.24724 0.31409 0.32334 0.0
H534 H 0.26843 0.29969 0.32916 0.0
H535 H 0.23347 0.28588 0.27955 0.0
H536 H 0.24338 0.27001 0.29723 0.0
H537 H 0.22819 0.28955 0.30479 0.0
H538 H 0.25301 0.24653 0.35346 0.0
C539 C 0.26637 0.26076 0.32907 0.0
C540 C 0.49243 0.91726 0.50685 0.0
C541 C 0.4808 0.91336 0.48951 0.0
C542 C 0.46548 0.92595 0.48416 0.0
C543 C 0.47293 0.94526 0.51375 0.0
C544 C 0.48829 0.93321 0.51864 0.0
C545 C 0.49921 0.93921 0.53758 0.0
H546 H 0.51227 0.00199 0.61442 0.0
C547 C 0.47231 0.96018 0.52948 0.0
C548 C 0.48777 0.95677 0.54339 0.0
H549 H 0.54564 0.95122 0.60159 0.0
H550 H 0.52444 0.94431 0.57292 0.0
H551 H 0.46843 0.97961 0.60393 0.0
H552 H 0.50725 0.01767 0.57071 0.0
H553 H 0.48267 0.02457 0.56589 0.0
H554 H 0.49345 0.02653 0.59055 0.0
H555 H 0.47208 0.00537 0.60908 0.0
H556 H 0.45358 0.99613 0.59096 0.0
C557 C 0.49686 0.92208 0.55234 0.0
C558 C 0.52107 0.94512 0.53297 0.0
C559 C 0.41786 0.00929 0.52708 0.0
C560 C 0.41359 0.02498 0.53934 0.0
C561 C 0.4263 0.02939 0.55594 0.0
C562 C 0.44283 0.01819 0.56042 0.0
C563 C 0.44679 0.00242 0.54815 0.0
C564 C 0.43451 0.99833 0.53168 0.0
C565 C 0.44134 0.98142 0.51999 0.0
C566 C 0.45943 0.9757 0.53241 0.0
C567 C 0.46252 0.98799 0.54894 0.0
C568 C 0.42456 0.96502 0.5194 0.0
C569 C 0.44711 0.98912 0.49953 0.0
C570 C 0.51486 0.98927 0.60554 0.0
C571 C 0.53093 0.97735 0.61019 0.0
C572 C 0.53374 0.96096 0.59815 0.0
C573 C 0.52132 0.95689 0.58149 0.0
C574 C 0.50574 0.96923 0.57672 0.0
C575 C 0.50248 0.98492 0.5888 0.0
C576 C 0.48485 0.99611 0.5815 0.0
C577 C 0.4784 0.98475 0.56287 0.0
C578 C 0.49079 0.96909 0.56017 0.0
C579 C 0.46885 0.99443 0.59713 0.0
C580 C 0.49226 0.01741 0.57701 0.0
H581 H 0.4494 0.95071 0.49151 0.0
H582 H 0.50449 0.90801 0.51122 0.0
H583 H 0.52178 0.9527 0.51857 0.0
H584 H 0.52831 0.95569 0.54364 0.0
H585 H 0.5302 0.93203 0.53226 0.0
H586 H 0.48226 0.91384 0.54981 0.0
H587 H 0.50875 0.9115 0.5509 0.0
H588 H 0.49683 0.92712 0.56775 0.0
H589 H 0.40856 0.00576 0.51405 0.0
H590 H 0.42326 0.04136 0.56565 0.0
H591 H 0.45185 0.02222 0.57331 0.0
H592 H 0.41789 0.96345 0.53399 0.0
H593 H 0.41243 0.96843 0.50851 0.0
H594 H 0.42988 0.95042 0.51599 0.0
H595 H 0.45273 0.00473 0.50034 0.0
H596 H 0.45945 0.98126 0.49347 0.0
H597 H 0.43409 0.98823 0.48889 0.0
H598 H 0.45624 0.92316 0.47093 0.0
C599 C 0.46145 0.94185 0.49621 0.0
C600 C 0.16896 0.31812 0.76114 0.0
C601 C 0.15523 0.30191 0.76195 0.0
C602 C 0.15647 0.28644 0.74836 0.0
C603 C 0.18545 0.3028 0.73454 0.0
C604 C 0.18393 0.31819 0.7475 0.0
C605 C 0.20036 0.33376 0.74554 0.0
H606 H 0.28749 0.36315 0.70615 0.0
C607 C 0.20342 0.30684 0.72318 0.0
C608 C 0.21225 0.32496 0.72961 0.0
H609 H 0.25412 0.3944 0.74781 0.0
H610 H 0.22821 0.36847 0.74636 0.0
H611 H 0.24966 0.35102 0.67785 0.0
H612 H 0.28053 0.32053 0.72418 0.0
H613 H 0.27473 0.30341 0.70528 0.0
H614 H 0.29077 0.32471 0.70061 0.0
H615 H 0.27344 0.34088 0.67475 0.0
H616 H 0.25041 0.32654 0.67014 0.0
C617 C 0.19087 0.35298 0.73875 0.0
C618 C 0.21245 0.33545 0.76541 0.0
C619 C 0.22323 0.25756 0.67226 0.0
C620 C 0.23978 0.25689 0.66039 0.0
C621 C 0.25465 0.27219 0.66181 0.0
C622 C 0.25304 0.28797 0.67467 0.0
C623 C 0.23641 0.28852 0.68638 0.0
C624 C 0.22193 0.27341 0.68519 0.0
C625 C 0.20568 0.27623 0.6993 0.0
C626 C 0.21254 0.29578 0.70867 0.0
C627 C 0.23053 0.30288 0.70101 0.0
C628 C 0.18571 0.27761 0.68728 0.0
C629 C 0.20597 0.25919 0.7143 0.0
C630 C 0.27465 0.36433 0.71505 0.0
C631 C 0.27291 0.3807 0.72727 0.0
C632 C 0.25575 0.38192 0.73827 0.0
C633 C 0.24079 0.36681 0.73747 0.0
C634 C 0.24295 0.35032 0.72548 0.0
C635 C 0.25952 0.34947 0.71429 0.0
C636 C 0.25899 0.33126 0.7018 0.0
C637 C 0.23952 0.32113 0.70758 0.0
C638 C 0.23029 0.33225 0.72159 0.0
C639 C 0.25823 0.33759 0.67997 0.0
C640 C 0.27722 0.31931 0.70808 0.0
H641 H 0.17173 0.2745 0.72493 0.0
H642 H 0.1683 0.33041 0.77112 0.0
H643 H 0.21456 0.32067 0.7718 0.0
H644 H 0.22764 0.34204 0.76409 0.0
H645 H 0.2046 0.34414 0.77618 0.0
H646 H 0.17716 0.34983 0.72928 0.0
H647 H 0.18661 0.36178 0.75148 0.0
H648 H 0.20074 0.36214 0.72956 0.0
H649 H 0.21168 0.2459 0.67165 0.0
H650 H 0.26742 0.27211 0.65267 0.0
H651 H 0.26482 0.29917 0.67494 0.0
H652 H 0.18786 0.28651 0.67382 0.0
H653 H 0.1796 0.26283 0.6826 0.0
H654 H 0.17431 0.285 0.69533 0.0
H655 H 0.22132 0.25406 0.71693 0.0
H656 H 0.20138 0.26357 0.72896 0.0
H657 H 0.19635 0.24641 0.70895 0.0
H658 H 0.14629 0.27366 0.74873 0.0
C659 C 0.17143 0.28684 0.73466 0.0
C660 C 0.76644 0.16115 0.73963 0.0
C661 C 0.74934 0.15683 0.72741 0.0
C662 C 0.745 0.16945 0.71161 0.0
C663 C 0.77464 0.18993 0.7202 0.0
C664 C 0.77881 0.17764 0.73575 0.0
C665 C 0.79768 0.18408 0.74716 0.0
H666 H 0.87469 0.2507 0.76257 0.0
C667 C 0.7906 0.20564 0.72016 0.0
C668 C 0.80414 0.20231 0.7359 0.0
H669 H 0.86175 0.19705 0.79437 0.0
H670 H 0.83327 0.18961 0.77272 0.0
H671 H 0.82938 0.2637 0.75536 0.0
H672 H 0.86698 0.23015 0.71989 0.0
H673 H 0.85326 0.24514 0.704 0.0
H674 H 0.87043 0.25629 0.72237 0.0
H675 H 0.85097 0.27429 0.74403 0.0
H676 H 0.82708 0.272 0.73097 0.0
C677 C 0.79216 0.18904 0.76836 0.0
C678 C 0.81273 0.16767 0.74571 0.0
C679 C 0.78915 0.25737 0.66701 0.0
C680 C 0.80204 0.27341 0.66251 0.0
C681 C 0.81873 0.27806 0.67525 0.0
C682 C 0.82274 0.26659 0.6919 0.0
C683 C 0.80996 0.25027 0.69585 0.0
C684 C 0.79341 0.24602 0.68355 0.0
C685 C 0.78153 0.22807 0.68978 0.0
C686 C 0.79383 0.22199 0.7077 0.0
C687 C 0.81044 0.23505 0.71126 0.0
C688 C 0.7606 0.23436 0.69514 0.0
C689 C 0.7814 0.21264 0.67304 0.0
C690 C 0.86585 0.23726 0.76478 0.0
C691 C 0.87038 0.22469 0.78056 0.0
C692 C 0.85837 0.20734 0.78277 0.0
C693 C 0.84184 0.20293 0.77006 0.0
C694 C 0.83723 0.21586 0.75475 0.0
C695 C 0.84933 0.23251 0.75205 0.0
C696 C 0.84252 0.24404 0.73439 0.0
C697 C 0.82405 0.23181 0.72734 0.0
C698 C 0.82099 0.21542 0.73943 0.0
C699 C 0.83729 0.26468 0.74138 0.0
C700 C 0.85911 0.24412 0.71934 0.0
H701 H 0.75345 0.19488 0.69564 0.0
H702 H 0.77011 0.15194 0.75206 0.0
H703 H 0.81026 0.15928 0.73173 0.0
H704 H 0.82836 0.17348 0.74548 0.0
H705 H 0.81127 0.15705 0.75794 0.0
H706 H 0.77799 0.19682 0.76825 0.0
H707 H 0.79007 0.1755 0.77719 0.0
H708 H 0.80329 0.19904 0.7761 0.0
H709 H 0.77598 0.25359 0.65778 0.0
H710 H 0.82896 0.29029 0.67208 0.0
H711 H 0.83576 0.27073 0.70093 0.0
H712 H 0.76148 0.24925 0.7019 0.0
H713 H 0.75038 0.2348 0.68191 0.0
H714 H 0.75369 0.22478 0.70624 0.0
H715 H 0.79585 0.21333 0.66566 0.0
H716 H 0.77967 0.19739 0.67832 0.0
H717 H 0.76943 0.21519 0.66171 0.0
H718 H 0.73211 0.16637 0.7018 0.0
C719 C 0.75752 0.18596 0.70797 0.0
C720 C 0.53713 0.57696 0.46985 0.0
C721 C 0.52299 0.59137 0.47149 0.0
C722 C 0.50941 0.58968 0.48667 0.0
C723 C 0.52472 0.56037 0.49865 0.0
C724 C 0.53779 0.56174 0.48359 0.0
C725 C 0.55259 0.5459 0.48461 0.0
H726 H 0.59084 0.46887 0.53307 0.0
C727 C 0.53004 0.54351 0.51104 0.0
C728 C 0.54638 0.53496 0.5029 0.0
H729 H 0.61074 0.49582 0.47956 0.0
H730 H 0.58408 0.51818 0.48011 0.0
H731 H 0.58361 0.50874 0.55507 0.0
H732 H 0.54366 0.46894 0.52152 0.0
H733 H 0.53115 0.47619 0.54222 0.0
H734 H 0.5537 0.46308 0.54551 0.0
H735 H 0.57524 0.48534 0.5644 0.0
H736 H 0.56117 0.50692 0.56728 0.0
C737 C 0.57378 0.55585 0.48732 0.0
C738 C 0.54929 0.533 0.46593 0.0
C739 C 0.49238 0.52879 0.57274 0.0
C740 C 0.49491 0.51514 0.58794 0.0
C741 C 0.50973 0.50134 0.5866 0.0
C742 C 0.52205 0.50133 0.57055 0.0
C743 C 0.51968 0.51537 0.5557 0.0
C744 C 0.50495 0.52871 0.55689 0.0
C745 C 0.50503 0.54296 0.5401 0.0
C746 C 0.52216 0.53591 0.5286 0.0
C747 C 0.53068 0.51976 0.5378 0.0
C748 C 0.50952 0.56389 0.54862 0.0
C749 C 0.48482 0.54019 0.52835 0.0
C750 C 0.58958 0.47969 0.52154 0.0
C751 C 0.60305 0.4806 0.5063 0.0
C752 C 0.60053 0.49466 0.49138 0.0
C753 C 0.58509 0.50774 0.4918 0.0
C754 C 0.57201 0.50685 0.50733 0.0
C755 C 0.57429 0.49287 0.52177 0.0
C756 C 0.55904 0.49406 0.53716 0.0
C757 C 0.54723 0.51109 0.5296 0.0
C758 C 0.55495 0.51858 0.51218 0.0
C759 C 0.57019 0.49888 0.55711 0.0
C760 C 0.54621 0.47456 0.5368 0.0
H761 H 0.49956 0.57401 0.51146 0.0
H762 H 0.54766 0.57761 0.45829 0.0
H763 H 0.53318 0.53145 0.46138 0.0
H764 H 0.55386 0.51782 0.4682 0.0
H765 H 0.55732 0.53956 0.45346 0.0
H766 H 0.57363 0.56908 0.49687 0.0
H767 H 0.57958 0.56061 0.473 0.0
H768 H 0.5846 0.5464 0.49476 0.0
H769 H 0.48131 0.53974 0.57348 0.0
H770 H 0.51183 0.49056 0.59805 0.0
H771 H 0.53311 0.49052 0.57047 0.0
H772 H 0.51935 0.56354 0.56217 0.0
H773 H 0.4956 0.57081 0.55248 0.0
H774 H 0.51779 0.57366 0.5386 0.0
H775 H 0.47988 0.5244 0.52746 0.0
H776 H 0.4856 0.54502 0.51295 0.0
H777 H 0.47301 0.5481 0.53547 0.0
H778 H 0.49856 0.60067 0.48857 0.0
C779 C 0.51014 0.57426 0.50014 0.0
C780 C 0.54379 0.42928 0.02647 0.0
C781 C 0.52768 0.41535 0.02397 0.0
C782 C 0.51326 0.41811 0.00865 0.0
C783 C 0.53149 0.44756 0.99827 0.0
C784 C 0.54543 0.44512 0.01348 0.0
C785 C 0.56203 0.46078 0.01365 0.0
H786 H 0.60561 0.54023 0.97049 0.0
C787 C 0.538 0.46498 0.9869 0.0
C788 C 0.55592 0.47279 0.99584 0.0
H789 H 0.62488 0.51183 0.02424 0.0
H790 H 0.5969 0.48834 0.02069 0.0
H791 H 0.56015 0.54022 0.98064 0.0
H792 H 0.59288 0.5012 0.94615 0.0
H793 H 0.56994 0.50407 0.93342 0.0
H794 H 0.58676 0.52519 0.93786 0.0
H795 H 0.5683 0.54659 0.95668 0.0
H796 H 0.54467 0.53359 0.96005 0.0
C797 C 0.56148 0.47269 0.03296 0.0
C798 C 0.58187 0.45072 0.01085 0.0
C799 C 0.49794 0.48434 0.92532 0.0
C800 C 0.50133 0.49881 0.91102 0.0
C801 C 0.51797 0.51209 0.91357 0.0
C802 C 0.53128 0.51078 0.92985 0.0
C803 C 0.52806 0.49593 0.94375 0.0
C804 C 0.51155 0.4831 0.94145 0.0
C805 C 0.51101 0.46784 0.95738 0.0
C806 C 0.52983 0.47374 0.96963 0.0
C807 C 0.53972 0.4902 0.96154 0.0
C808 C 0.49197 0.47032 0.96893 0.0
C809 C 0.51227 0.4474 0.94768 0.0
C810 C 0.6038 0.52908 0.98163 0.0
C811 C 0.61761 0.528 0.99769 0.0
C812 C 0.61471 0.51291 0.01156 0.0
C813 C 0.59832 0.49936 0.00958 0.0
C814 C 0.58456 0.50085 0.99356 0.0
C815 C 0.58744 0.51558 0.97997 0.0
C816 C 0.57111 0.51533 0.96416 0.0
C817 C 0.55787 0.49806 0.97052 0.0
C818 C 0.56587 0.48951 0.98765 0.0
C819 C 0.56049 0.53495 0.96521 0.0
C820 C 0.58052 0.51139 0.94427 0.0
H821 H 0.5037 0.4352 0.98442 0.0
H822 H 0.55501 0.42783 0.0382 0.0
H823 H 0.5797 0.4386 0.9999 0.0
H824 H 0.5936 0.46068 0.00505 0.0
H825 H 0.58758 0.44434 0.02485 0.0
H826 H 0.5459 0.47384 0.03754 0.0
H827 H 0.56999 0.4656 0.04511 0.0
H828 H 0.56724 0.48803 0.03147 0.0
H829 H 0.48543 0.47376 0.9236 0.0
H830 H 0.5208 0.52343 0.90281 0.0
H831 H 0.54373 0.52124 0.93079 0.0
H832 H 0.48914 0.48613 0.9708 0.0
H833 H 0.47868 0.46322 0.96106 0.0
H834 H 0.49317 0.46444 0.98398 0.0
H835 H 0.52166 0.4483 0.93465 0.0
H836 H 0.51949 0.4367 0.95743 0.0
H837 H 0.49726 0.44131 0.94268 0.0
H838 H 0.50085 0.40755 0.00611 0.0
C839 C 0.51505 0.43411 0.99588 0.0
C840 C 0.76274 0.16364 0.27604 0.0
C841 C 0.76182 0.14937 0.26108 0.0
C842 C 0.74525 0.14854 0.24758 0.0
C843 C 0.73164 0.17653 0.26342 0.0
C844 C 0.74765 0.17698 0.27689 0.0
C845 C 0.74689 0.19332 0.29159 0.0
H846 H 0.70047 0.27099 0.32647 0.0
C847 C 0.71902 0.19299 0.26809 0.0
C848 C 0.72793 0.20281 0.28461 0.0
H849 H 0.75523 0.2466 0.34843 0.0
H850 H 0.75262 0.22219 0.32282 0.0
H851 H 0.67606 0.22874 0.31623 0.0
H852 H 0.71072 0.27009 0.28276 0.0
H853 H 0.69241 0.25979 0.26619 0.0
H854 H 0.68502 0.27357 0.28707 0.0
H855 H 0.66852 0.25294 0.31014 0.0
H856 H 0.66298 0.23253 0.2937 0.0
C857 C 0.74498 0.18403 0.31218 0.0
C858 C 0.76561 0.20726 0.2895 0.0
C859 C 0.65739 0.20674 0.22494 0.0
C860 C 0.64405 0.22199 0.22497 0.0
C861 C 0.64614 0.23631 0.2399 0.0
C862 C 0.66133 0.23558 0.25456 0.0
C863 C 0.67479 0.2205 0.2542 0.0
C864 C 0.67276 0.20641 0.23955 0.0
C865 C 0.68914 0.1921 0.24105 0.0
C866 C 0.70124 0.19991 0.25902 0.0
C867 C 0.69262 0.21647 0.2667 0.0
C868 C 0.67954 0.17141 0.24462 0.0
C869 C 0.7011 0.1938 0.22219 0.0
C870 C 0.71179 0.26028 0.32576 0.0
C871 C 0.72808 0.2607 0.33943 0.0
C872 C 0.74266 0.2467 0.33791 0.0
C873 C 0.74106 0.23245 0.32309 0.0
C874 C 0.72475 0.2322 0.30947 0.0
C875 C 0.71052 0.24602 0.31084 0.0
C876 C 0.69465 0.24387 0.2946 0.0
C877 C 0.7015 0.22621 0.28357 0.0
C878 C 0.71907 0.21942 0.29241 0.0
C879 C 0.67439 0.2394 0.30401 0.0
C880 C 0.69553 0.26278 0.282 0.0
H881 H 0.71808 0.16077 0.23786 0.0
H882 H 0.77504 0.16453 0.28686 0.0
H883 H 0.77022 0.2078 0.27403 0.0
H884 H 0.76299 0.22266 0.2932 0.0
H885 H 0.77845 0.20231 0.29871 0.0
H886 H 0.73551 0.17018 0.31133 0.0
H887 H 0.75981 0.18044 0.31868 0.0
H888 H 0.73757 0.19342 0.32253 0.0
H889 H 0.65625 0.1957 0.21346 0.0
H890 H 0.63594 0.24811 0.2402 0.0
H891 H 0.6621 0.24693 0.26549 0.0
H892 H 0.66711 0.17217 0.25479 0.0
H893 H 0.67335 0.16468 0.23066 0.0
H894 H 0.69002 0.16138 0.25172 0.0
H895 H 0.70251 0.20931 0.21723 0.0
H896 H 0.71658 0.1893 0.22437 0.0
H897 H 0.6936 0.18501 0.21002 0.0
H898 H 0.74419 0.13779 0.23584 0.0
C899 C 0.73017 0.16201 0.24868 0.0
C900 C 0.40824 0.98427 0.97783 0.0
C901 C 0.40207 0.96825 0.96561 0.0
C902 C 0.41253 0.96503 0.9485 0.0
C903 C 0.43516 0.99297 0.95637 0.0
C904 C 0.42469 0.99639 0.97292 0.0
C905 C 0.43317 0.01399 0.98433 0.0
H906 H 0.50036 0.09113 0.99271 0.0
C907 C 0.45173 0.00802 0.95571 0.0
C908 C 0.45058 0.02043 0.97202 0.0
H909 H 0.45288 0.07509 0.03117 0.0
H910 H 0.44393 0.04636 0.01145 0.0
H911 H 0.4759 0.08038 0.95142 0.0
H912 H 0.51554 0.04818 0.98908 0.0
H913 H 0.51981 0.04101 0.96499 0.0
H914 H 0.52475 0.0663 0.9723 0.0
H915 H 0.50208 0.08668 0.95496 0.0
H916 H 0.49289 0.06898 0.93672 0.0
C917 C 0.41703 0.02944 0.98432 0.0
C918 C 0.44024 0.00709 0.00502 0.0
C919 C 0.50091 0.00617 0.90123 0.0
C920 C 0.51823 0.01764 0.89729 0.0
C921 C 0.52401 0.03364 0.90975 0.0
C922 C 0.5128 0.03812 0.92586 0.0
C923 C 0.49562 0.02645 0.92969 0.0
C924 C 0.48996 0.01075 0.91751 0.0
C925 C 0.47158 0.99967 0.92418 0.0
C926 C 0.46722 0.01124 0.94241 0.0
C927 C 0.48128 0.02699 0.94548 0.0
C928 C 0.45489 0.00113 0.90789 0.0
C929 C 0.47717 0.97844 0.92918 0.0
C930 C 0.48798 0.08145 0.99678 0.0
C931 C 0.47722 0.08542 0.01343 0.0
C932 C 0.46146 0.07227 0.01848 0.0
C933 C 0.4562 0.05567 0.00692 0.0
C934 C 0.46684 0.05207 0.99012 0.0
C935 C 0.48263 0.06468 0.98545 0.0
C936 C 0.49267 0.05809 0.96746 0.0
C937 C 0.47989 0.03981 0.96176 0.0
C938 C 0.46473 0.03644 0.97503 0.0
C939 C 0.49099 0.07435 0.95175 0.0
C940 C 0.51437 0.05324 0.97359 0.0
H941 H 0.43633 0.97394 0.93068 0.0
H942 H 0.40071 0.98711 0.99117 0.0
H943 H 0.4461 0.99215 0.00437 0.0
H944 H 0.45274 0.01641 0.01154 0.0
H945 H 0.42779 0.00651 0.01521 0.0
H946 H 0.40841 0.02943 0.97 0.0
H947 H 0.40629 0.02629 0.99596 0.0
H948 H 0.42331 0.04461 0.98614 0.0
H949 H 0.49619 0.99366 0.89207 0.0
H950 H 0.53716 0.04283 0.9069 0.0
H951 H 0.51797 0.05051 0.93471 0.0
H952 H 0.45607 0.01554 0.90032 0.0
H953 H 0.45585 0.9895 0.89661 0.0
H954 H 0.43979 0.00037 0.91367 0.0
H955 H 0.49239 0.97833 0.9363 0.0
H956 H 0.46732 0.97123 0.9398 0.0
H957 H 0.47705 0.96923 0.91572 0.0
H958 H 0.40792 0.95306 0.9386 0.0
C959 C 0.429 0.97726 0.94384 0.0
Mg960 Mg 0.24301 0.85785 0.00497 0.0
O961 O 0.27301 0.87517 0.00099 0.0
O962 O 0.29672 0.85334 0.00386 0.0
Mg963 Mg 0.28261 0.82284 0.00886 0.0
C964 C 0.29133 0.87085 0.00116 0.0
C965 C 0.20727 0.87986 0.98865 0.0
O966 O 0.20129 0.86136 0.9862 0.0
O967 O 0.24393 0.84561 0.97372 0.0
O968 O 0.26753 0.82386 0.97805 0.0
O969 O 0.24623 0.86144 0.03766 0.0
O970 O 0.25738 0.83662 0.02137 0.0
C971 C 0.25454 0.83223 0.96715 0.0
C972 C 0.25578 0.84543 0.03787 0.0
O973 O 0.22504 0.88386 0.99516 0.0
Mg974 Mg 0.14843 0.50604 0.27158 0.0
O975 O 0.13025 0.50461 0.24184 0.0
O976 O 0.15288 0.50716 0.21876 0.0
Mg977 Mg 0.18421 0.51147 0.23266 0.0
C978 C 0.13484 0.50501 0.22383 0.0
C979 C 0.1058 0.50578 0.2876 0.0
O980 O 0.1047 0.51983 0.27452 0.0
O981 O 0.1584 0.4746 0.26698 0.0
O982 O 0.1811 0.48016 0.24439 0.0
O983 O 0.14766 0.53885 0.27239 0.0
O984 O 0.17121 0.52275 0.25895 0.0
C985 C 0.17173 0.4686 0.25589 0.0
C986 C 0.16381 0.53929 0.26274 0.0
O987 O 0.12143 0.49599 0.28886 0.0
Mg988 Mg 0.77619 0.64946 0.01667 0.0
O989 O 0.74667 0.63039 0.01439 0.0
O990 O 0.72221 0.65148 0.01392 0.0
Mg991 Mg 0.73526 0.68296 0.01519 0.0
C992 C 0.72814 0.63399 0.01371 0.0
C993 C 0.79427 0.60795 0.02031 0.0
O994 O 0.78085 0.60597 0.03369 0.0
O995 O 0.77262 0.65757 0.98422 0.0
O996 O 0.74846 0.67888 0.98493 0.0
O997 O 0.77569 0.65006 0.04946 0.0
O998 O 0.76195 0.672 0.0302 0.0
C999 C 0.76121 0.66963 0.97564 0.0
C1000 C 0.76538 0.66554 0.04768 0.0
O1001 O 0.795 0.62349 0.01005 0.0
Mg1002 Mg 0.90478 0.02811 0.24107 0.0
O1003 O 0.88515 0.99944 0.23814 0.0
O1004 O 0.90548 0.97496 0.23395 0.0
Mg1005 Mg 0.93763 0.98734 0.23539 0.0
C1006 C 0.88805 0.98129 0.23537 0.0
C1007 C 0.87723 0.06209 0.24347 0.0
O1008 O 0.89171 0.0687 0.23256 0.0
O1009 O 0.9144 0.02053 0.27266 0.0
O1010 O 0.93471 0.99613 0.26772 0.0
O1011 O 0.90414 0.03157 0.20847 0.0
O1012 O 0.92707 0.01574 0.22525 0.0
C1013 C 0.92628 0.00772 0.27913 0.0
C1014 C 0.91977 0.02123 0.20848 0.0
O1015 O 0.87801 0.04483 0.25039 0.0
Mg1016 Mg 0.27759 0.15094 0.51861 0.0
O1017 O 0.24798 0.132 0.51581 0.0
O1018 O 0.22358 0.15317 0.51536 0.0
Mg1019 Mg 0.23677 0.18459 0.51689 0.0
C1020 C 0.22947 0.13567 0.51503 0.0
C1021 C 0.29557 0.10949 0.52252 0.0
O1022 O 0.28216 0.10772 0.53592 0.0
O1023 O 0.27452 0.15927 0.48619 0.0
O1024 O 0.25034 0.18056 0.48683 0.0
O1025 O 0.27663 0.15135 0.5514 0.0
O1026 O 0.26325 0.17345 0.53208 0.0
C1027 C 0.26318 0.17138 0.47759 0.0
C1028 C 0.26641 0.16687 0.54956 0.0
O1029 O 0.29637 0.12491 0.51211 0.0
Mg1030 Mg 0.40442 0.52902 0.74528 0.0
O1031 O 0.38452 0.50083 0.74005 0.0
O1032 O 0.40441 0.47673 0.733 0.0
Mg1033 Mg 0.43667 0.48889 0.73426 0.0
C1034 C 0.38712 0.48297 0.73557 0.0
C1035 C 0.36245 0.54563 0.7454 0.0
O1036 O 0.36183 0.53598 0.72868 0.0
O1037 O 0.41448 0.51801 0.7759 0.0
O1038 O 0.43492 0.49497 0.76718 0.0
O1039 O 0.40349 0.53586 0.71301 0.0
O1040 O 0.42623 0.51818 0.72772 0.0
C1041 C 0.42692 0.50493 0.78034 0.0
C1042 C 0.41895 0.52545 0.71172 0.0
O1043 O 0.37801 0.54502 0.75668 0.0
Mg1044 Mg 0.74305 0.35479 0.50723 0.0
O1045 O 0.77225 0.37277 0.50123 0.0
O1046 O 0.79596 0.35084 0.50071 0.0
Mg1047 Mg 0.78316 0.32029 0.50773 0.0
C1048 C 0.7903 0.36836 0.49899 0.0
C1049 C 0.70878 0.38038 0.51019 0.0
O1050 O 0.70701 0.36654 0.52345 0.0
O1051 O 0.74177 0.34274 0.47568 0.0
O1052 O 0.76559 0.32104 0.47827 0.0
O1053 O 0.7486 0.35844 0.53969 0.0
O1054 O 0.75919 0.33398 0.52249 0.0
C1055 C 0.75187 0.32937 0.46832 0.0
C1056 C 0.75856 0.34272 0.53916 0.0
O1057 O 0.72352 0.38027 0.49913 0.0
Mg1058 Mg 0.65001 0.00206 0.76796 0.0
O1059 O 0.6309 0.00031 0.73877 0.0
O1060 O 0.65237 0.00298 0.71469 0.0
Mg1061 Mg 0.68421 0.00496 0.72754 0.0
C1062 C 0.6346 0.00123 0.72055 0.0
C1063 C 0.6076 0.00317 0.78448 0.0
O1064 O 0.60657 0.01692 0.77106 0.0
O1065 O 0.65896 0.97037 0.76424 0.0
O1066 O 0.68 0.97371 0.73975 0.0
O1067 O 0.6504 0.03487 0.7677 0.0
O1068 O 0.67303 0.01746 0.75428 0.0
C1069 C 0.67093 0.96323 0.75238 0.0
C1070 C 0.66631 0.03439 0.75773 0.0
O1071 O 0.62314 0.99328 0.78597 0.0
Mg1072 Mg 0.02974 0.25931 0.89705 0.0
O1073 O 1.00019 0.25411 0.87883 0.0
O1074 O 0.97708 0.24572 0.90033 0.0
Mg1075 Mg 0.99151 0.24355 0.93108 0.0
C1076 C 0.98217 0.2495 0.88287 0.0
C1077 C 0.06362 0.27318 0.87252 0.0
O1078 O 0.07174 0.26486 0.88809 0.0
O1079 O 0.019 0.28831 0.90905 0.0
O1080 O 0.99765 0.2768 0.93093 0.0
O1081 O 0.03689 0.2278 0.89365 0.0
O1082 O 0.02007 0.23909 0.9179 0.0
C1083 C 0.00697 0.29107 0.92269 0.0
C1084 C 0.0271 0.22431 0.90928 0.0
O1085 O 0.04478 0.27425 0.87132 0.0
Mg1086 Mg 0.52936 0.75804 0.39411 0.0
O1087 O 0.50078 0.75116 0.37482 0.0
O1088 O 0.47788 0.73883 0.39483 0.0
Mg1089 Mg 0.49087 0.7386 0.42624 0.0
C1090 C 0.48327 0.74393 0.37779 0.0
C1091 C 0.56309 0.77356 0.37039 0.0
O1092 O 0.57121 0.76525 0.38596 0.0
O1093 O 0.51597 0.78577 0.40588 0.0
O1094 O 0.49397 0.77222 0.42608 0.0
O1095 O 0.5388 0.72728 0.39056 0.0
O1096 O 0.52049 0.73687 0.41447 0.0
C1097 C 0.5027 0.78729 0.41858 0.0
C1098 C 0.5287 0.72282 0.40577 0.0
O1099 O 0.54421 0.77416 0.36895 0.0
Mg1100 Mg 0.99156 0.74932 0.60434 0.0
O1101 O 0.0201 0.74258 0.62263 0.0
O1102 O 0.04227 0.73247 0.60183 0.0
Mg1103 Mg 0.02857 0.73326 0.57059 0.0
C1104 C 0.03724 0.73638 0.61919 0.0
C1105 C 0.97638 0.75322 0.64628 0.0
O1106 O 0.98403 0.73587 0.64685 0.0
O1107 O 0.00634 0.77823 0.59385 0.0
O1108 O 0.02714 0.76685 0.57233 0.0
O1109 O 0.98018 0.71801 0.60587 0.0
O1110 O 0.99882 0.72969 0.58241 0.0
C1111 C 0.0193 0.7811 0.58084 0.0
C1112 C 0.98959 0.71486 0.59013 0.0
O1113 O 0.97812 0.76353 0.63087 0.0
Mg1114 Mg 0.48952 0.24561 0.10609 0.0
O1115 O 0.51905 0.23964 0.12304 0.0
O1116 O 0.54157 0.23429 0.1007 0.0
Mg1117 Mg 0.5264 0.2351 0.07005 0.0
C1118 C 0.53675 0.23599 0.1185 0.0
C1119 C 0.4622 0.26882 0.13258 0.0
O1120 O 0.45711 0.2758 0.11523 0.0
O1121 O 0.50179 0.27615 0.09708 0.0
O1122 O 0.52244 0.26813 0.07389 0.0
O1123 O 0.48051 0.21373 0.1062 0.0
O1124 O 0.49748 0.22804 0.08279 0.0
C1125 C 0.5139 0.28098 0.08376 0.0
C1126 C 0.48969 0.21218 0.09004 0.0
O1127 O 0.47619 0.25695 0.13396 0.0
H1128 H 0.26547 0.78144 0.85121 0.0
H1129 H 0.20361 0.77165 0.86459 0.0
H1130 H 0.27088 0.8025 0.88005 0.0
H1131 H 0.20905 0.79251 0.8937 0.0
H1132 H 0.22358 0.83945 0.94069 0.0
H1133 H 0.21765 0.82536 0.90774 0.0
H1134 H 0.27247 0.7951 0.91459 0.0
H1135 H 0.27855 0.80928 0.94697 0.0
C1136 C 0.25301 0.78388 0.86029 0.0
C1137 C 0.2342 0.77467 0.85583 0.0
C1138 C 0.25609 0.79594 0.87681 0.0
C1139 C 0.24046 0.79897 0.88934 0.0
C1140 C 0.22137 0.79062 0.88428 0.0
C1141 C 0.21826 0.77861 0.86764 0.0
C1142 C 0.23448 0.83001 0.935 0.0
C1143 C 0.25148 0.82541 0.94653 0.0
C1144 C 0.23102 0.82185 0.91619 0.0
C1145 C 0.24459 0.80911 0.90852 0.0
C1146 C 0.26185 0.80508 0.91987 0.0
C1147 C 0.26525 0.8131 0.93858 0.0
H1148 H 0.05778 0.51953 0.40032 0.0
H1149 H 0.0041 0.5092 0.36384 0.0
H1150 H 0.07789 0.5136 0.37216 0.0
H1151 H 0.02425 0.50307 0.33566 0.0
H1152 H 0.06965 0.52238 0.28791 0.0
H1153 H 0.04737 0.5235 0.31513 0.0
H1154 H 0.08589 0.48651 0.34929 0.0
H1155 H 0.10823 0.48536 0.32209 0.0
C1156 C 0.05029 0.51596 0.38628 0.0
C1157 C 0.02937 0.51491 0.38427 0.0
C1158 C 0.0618 0.51236 0.3702 0.0
C1159 C 0.05265 0.50781 0.3517 0.0
C1160 C 0.03171 0.50662 0.34971 0.0
C1161 C 0.0202 0.51001 0.36586 0.0
C1162 C 0.07321 0.51421 0.3011 0.0
C1163 C 0.09079 0.50389 0.30286 0.0
C1164 C 0.0604 0.51481 0.31667 0.0
C1165 C 0.06499 0.50525 0.33442 0.0
C1166 C 0.08212 0.49423 0.33588 0.0
C1167 C 0.09482 0.49346 0.32023 0.0
H1168 H 0.74731 0.70715 0.8538 0.0
H1169 H 0.80853 0.7219 0.87225 0.0
H1170 H 0.74278 0.68886 0.88408 0.0
H1171 H 0.80399 0.70363 0.9026 0.0
H1172 H 0.7919 0.66082 0.95229 0.0
H1173 H 0.79689 0.6716 0.91857 0.0
H1174 H 0.74076 0.69984 0.91794 0.0
H1175 H 0.73566 0.68897 0.95127 0.0
C1176 C 0.75985 0.70634 0.86426 0.0
C1177 C 0.7782 0.71621 0.86075 0.0
C1178 C 0.75726 0.69586 0.8816 0.0
C1179 C 0.77294 0.69501 0.89588 0.0
C1180 C 0.79164 0.70387 0.89185 0.0
C1181 C 0.79425 0.71436 0.87445 0.0
C1182 C 0.78049 0.66906 0.94482 0.0
C1183 C 0.76344 0.67413 0.95455 0.0
C1184 C 0.78342 0.67534 0.92556 0.0
C1185 C 0.76925 0.68661 0.91557 0.0
C1186 C 0.75186 0.69098 0.92507 0.0
C1187 C 0.74902 0.68486 0.94429 0.0
H1188 H 0.00893 0.02308 0.37418 0.0
H1189 H 0.96348 0.98753 0.40246 0.0
H1190 H 0.98678 0.02546 0.34521 0.0
H1191 H 0.94205 0.98886 0.37265 0.0
H1192 H 0.9353 0.97589 0.30114 0.0
H1193 H 0.95079 0.97582 0.33434 0.0
H1194 H 0.94777 0.03872 0.33739 0.0
H1195 H 0.93162 0.03879 0.30439 0.0
C1196 C 0.99419 0.01599 0.37447 0.0
C1197 C 0.98815 0.00511 0.39091 0.0
C1198 C 0.98155 0.0173 0.35775 0.0
C1199 C 0.96276 0.0074 0.35681 0.0
C1200 C 0.95653 0.99661 0.37309 0.0
C1201 C 0.96896 0.99569 0.39006 0.0
C1202 C 0.93747 0.98964 0.30911 0.0
C1203 C 0.93227 0.00735 0.30023 0.0
C1204 C 0.94627 0.98958 0.32807 0.0
C1205 C 0.95048 0.00727 0.33828 0.0
C1206 C 0.94461 0.02491 0.32975 0.0
C1207 C 0.9353 0.02492 0.31096 0.0
H1208 H 0.27245 0.2359 0.65428 0.0
H1209 H 0.21111 0.24139 0.63435 0.0
H1210 H 0.27649 0.21163 0.6286 0.0
H1211 H 0.21508 0.2169 0.60872 0.0
H1212 H 0.24323 0.19869 0.54999 0.0
H1213 H 0.23464 0.21775 0.57827 0.0
H1214 H 0.2653 0.17788 0.61676 0.0
H1215 H 0.27386 0.15861 0.58836 0.0
C1216 C 0.25978 0.23174 0.64451 0.0
C1217 C 0.24152 0.24063 0.6462 0.0
C1218 C 0.26203 0.21772 0.62994 0.0
C1219 C 0.24612 0.21241 0.61661 0.0
C1220 C 0.22764 0.22082 0.6187 0.0
C1221 C 0.22533 0.23472 0.63344 0.0
C1222 C 0.24782 0.19371 0.56446 0.0
C1223 C 0.25925 0.17711 0.56687 0.0
C1224 C 0.24284 0.20463 0.5807 0.0
C1225 C 0.24934 0.19935 0.59973 0.0
C1226 C 0.26022 0.18239 0.60224 0.0
C1227 C 0.26504 0.17132 0.58598 0.0
H1228 H 0.45452 0.51824 0.58949 0.0
H1229 H 0.50812 0.51394 0.62617 0.0
H1230 H 0.43484 0.51946 0.61873 0.0
H1231 H 0.48877 0.51581 0.6553 0.0
H1232 H 0.44916 0.5015 0.70424 0.0
H1233 H 0.46592 0.49776 0.67392 0.0
H1234 H 0.4277 0.53953 0.6459 0.0
H1235 H 0.41008 0.54243 0.67623 0.0
C1236 C 0.46208 0.51766 0.60382 0.0
C1237 C 0.48281 0.51582 0.60557 0.0
C1238 C 0.45084 0.51844 0.62059 0.0
C1239 C 0.46015 0.51759 0.63945 0.0
C1240 C 0.48096 0.51598 0.64108 0.0
C1241 C 0.49211 0.51498 0.62437 0.0
C1242 C 0.44402 0.50965 0.69159 0.0
C1243 C 0.42819 0.52222 0.69272 0.0
C1244 C 0.45386 0.50769 0.67417 0.0
C1245 C 0.44842 0.51855 0.65745 0.0
C1246 C 0.43222 0.53079 0.6584 0.0
C1247 C 0.42216 0.53253 0.67583 0.0
H1248 H 0.78988 0.25904 0.62642 0.0
H1249 H 0.8057 0.31335 0.65726 0.0
H1250 H 0.78149 0.27722 0.59696 0.0
H1251 H 0.7982 0.33167 0.62725 0.0
H1252 H 0.75677 0.35581 0.57696 0.0
H1253 H 0.7695 0.34016 0.60678 0.0
H1254 H 0.7957 0.29632 0.57162 0.0
H1255 H 0.78229 0.31137 0.54204 0.0
C1256 C 0.79164 0.2749 0.62689 0.0
C1257 C 0.79825 0.28475 0.64427 0.0
C1258 C 0.78712 0.28534 0.60987 0.0
C1259 C 0.78925 0.30593 0.60967 0.0
C1260 C 0.79623 0.31582 0.62695 0.0
C1261 C 0.80072 0.30533 0.64408 0.0
C1262 C 0.76544 0.34296 0.57561 0.0
C1263 C 0.76839 0.33478 0.55709 0.0
C1264 C 0.77284 0.33404 0.59271 0.0
C1265 C 0.78344 0.31684 0.59162 0.0
C1266 C 0.78723 0.30931 0.57303 0.0
C1267 C 0.77968 0.31808 0.556 0.0
H1268 H 0.57132 0.97498 0.61127 0.0
H1269 H 0.52312 0.99068 0.64711 0.0
H1270 H 0.59496 0.98152 0.63861 0.0
H1271 H 0.54715 0.99824 0.67448 0.0
H1272 H 0.59581 0.98724 0.72434 0.0
H1273 H 0.56983 0.98258 0.69814 0.0
H1274 H 0.60999 0.00859 0.65667 0.0
H1275 H 0.63589 0.01262 0.68245 0.0
C1276 C 0.56573 0.97982 0.62502 0.0
C1277 C 0.54526 0.98214 0.627 0.0
C1278 C 0.57937 0.98387 0.64067 0.0
C1279 C 0.57302 0.99058 0.65875 0.0
C1280 C 0.55254 0.99299 0.6608 0.0
C1281 C 0.5388 0.98886 0.64506 0.0
C1282 C 0.59898 0.99206 0.70963 0.0
C1283 C 0.61803 0.99999 0.70543 0.0
C1284 C 0.58408 0.98948 0.69464 0.0
C1285 C 0.58792 0.99491 0.67521 0.0
C1286 C 0.60666 0.00372 0.67132 0.0
C1287 C 0.62152 0.00612 0.68617 0.0
H1288 H 0.9072 0.24241 0.77385 0.0
H1289 H 0.87161 0.2184 0.82014 0.0
H1290 H 0.93435 0.25059 0.79789 0.0
H1291 H 0.89905 0.22514 0.8437 0.0
H1292 H 0.94268 0.2547 0.88608 0.0
H1293 H 0.9162 0.25075 0.86081 0.0
H1294 H 0.95941 0.23666 0.81851 0.0
H1295 H 0.98614 0.24164 0.84381 0.0
C1296 C 0.90514 0.23886 0.78911 0.0
C1297 C 0.88718 0.22967 0.79499 0.0
C1298 C 0.92083 0.24332 0.80287 0.0
C1299 C 0.91895 0.2386 0.8228 0.0
C1300 C 0.90099 0.22937 0.82859 0.0
C1301 C 0.8853 0.22514 0.81494 0.0
C1302 C 0.94655 0.25087 0.87135 0.0
C1303 C 0.96646 0.24827 0.86697 0.0
C1304 C 0.93133 0.24847 0.85685 0.0
C1305 C 0.93554 0.243 0.83763 0.0
C1306 C 0.95558 0.241 0.83309 0.0
C1307 C 0.97091 0.24376 0.84759 0.0
H1308 H 0.4828 0.91026 0.44948 0.0
H1309 H 0.486 0.87641 0.50287 0.0
H1310 H 0.48746 0.88047 0.43028 0.0
H1311 H 0.4908 0.84694 0.48384 0.0
H1312 H 0.52024 0.82352 0.41006 0.0
H1313 H 0.51456 0.85495 0.42586 0.0
H1314 H 0.46886 0.8266 0.45985 0.0
H1315 H 0.47435 0.79547 0.44429 0.0
C1316 C 0.4845 0.89648 0.45708 0.0
C1317 C 0.48404 0.89564 0.47766 0.0
C1318 C 0.4873 0.87952 0.44613 0.0
C1319 C 0.48937 0.86141 0.45558 0.0
C1320 C 0.48903 0.86066 0.47614 0.0
C1321 C 0.48646 0.87757 0.48705 0.0
C1322 C 0.50881 0.82406 0.42071 0.0
C1323 C 0.49796 0.80688 0.42607 0.0
C1324 C 0.50554 0.84205 0.42971 0.0
C1325 C 0.49149 0.8431 0.44429 0.0
C1326 C 0.48005 0.82614 0.44893 0.0
C1327 C 0.48319 0.80829 0.43992 0.0
H1328 H 0.16094 0.31322 0.80037 0.0
H1329 H 0.11633 0.28725 0.7593 0.0
H1330 H 0.13793 0.30903 0.82668 0.0
H1331 H 0.0936 0.28212 0.78595 0.0
H1332 H 0.05201 0.28851 0.83676 0.0
H1333 H 0.07331 0.29778 0.80975 0.0
H1334 H 0.12504 0.28151 0.84475 0.0
H1335 H 0.10401 0.27274 0.87166 0.0
C1336 C 0.14614 0.30682 0.79687 0.0
C1337 C 0.14054 0.30052 0.77767 0.0
C1338 C 0.13302 0.30418 0.81205 0.0
C1339 C 0.11398 0.29504 0.80849 0.0
C1340 C 0.1081 0.28931 0.78919 0.0
C1341 C 0.12123 0.29203 0.77395 0.0
C1342 C 0.06795 0.28711 0.83871 0.0
C1343 C 0.0763 0.27988 0.85637 0.0
C1344 C 0.08014 0.2923 0.8232 0.0
C1345 C 0.1009 0.29043 0.82508 0.0
C1346 C 0.10918 0.28347 0.84287 0.0
C1347 C 0.09706 0.2783 0.8583 0.0
H1348 H 0.55532 0.61185 0.45717 0.0
H1349 H 0.49088 0.61041 0.45601 0.0
H1350 H 0.55559 0.6422 0.43842 0.0
H1351 H 0.49133 0.64116 0.43782 0.0
H1352 H 0.50638 0.70884 0.43572 0.0
H1353 H 0.50397 0.67566 0.44844 0.0
H1354 H 0.54427 0.65712 0.40531 0.0
H1355 H 0.54641 0.69048 0.39215 0.0
C1356 C 0.54119 0.61774 0.45261 0.0
C1357 C 0.52307 0.60872 0.45829 0.0
C1358 C 0.54138 0.63518 0.4419 0.0
C1359 C 0.52349 0.64408 0.43681 0.0
C1360 C 0.50535 0.63472 0.44179 0.0
C1361 C 0.50513 0.61717 0.4523 0.0
C1362 C 0.51443 0.69771 0.42863 0.0
C1363 C 0.52646 0.70234 0.41278 0.0
C1364 C 0.51303 0.67864 0.43594 0.0
C1365 C 0.52386 0.66381 0.4278 0.0
C1366 C 0.53579 0.66832 0.41187 0.0
C1367 C 0.53696 0.68739 0.40432 0.0
H1368 H 0.87052 0.78087 0.70427 0.0
H1369 H 0.91037 0.76663 0.75305 0.0
H1370 H 0.89758 0.77839 0.68196 0.0
H1371 H 0.93749 0.76415 0.73069 0.0
H1372 H 0.9702 0.73455 0.68097 0.0
H1373 H 0.94612 0.74177 0.70521 0.0
H1374 H 0.92947 0.7928 0.67213 0.0
H1375 H 0.95341 0.78534 0.64757 0.0
C1376 C 0.88515 0.77754 0.7103 0.0
C1377 C 0.88822 0.77383 0.73046 0.0
C1378 C 0.9007 0.77615 0.69749 0.0
C1379 C 0.91973 0.77101 0.7045 0.0
C1380 C 0.92295 0.76783 0.72474 0.0
C1381 C 0.90739 0.76922 0.73756 0.0
C1382 C 0.9616 0.74746 0.67895 0.0
C1383 C 0.96365 0.75927 0.66223 0.0
C1384 C 0.94784 0.75167 0.69294 0.0
C1385 C 0.93574 0.7678 0.69058 0.0
C1386 C 0.93834 0.78009 0.67425 0.0
C1387 C 0.95217 0.7759 0.66025 0.0
H1388 H 0.03044 0.87383 0.49839 0.0
H1389 H 0.03719 0.90688 0.55253 0.0
H1390 H 0.02825 0.84337 0.51691 0.0
H1391 H 0.03509 0.87616 0.5712 0.0
H1392 H 0.04619 0.79228 0.55369 0.0
H1393 H 0.05123 0.82432 0.53879 0.0
H1394 H 0.00879 0.84807 0.57689 0.0
H1395 H 0.0036 0.81579 0.592 0.0
C1396 C 0.03142 0.87457 0.51428 0.0
C1397 C 0.03393 0.89273 0.52401 0.0
C1398 C 0.03034 0.85712 0.52488 0.0
C1399 C 0.03159 0.85738 0.54551 0.0
C1400 C 0.03402 0.87554 0.55532 0.0
C1401 C 0.03535 0.89306 0.54465 0.0
C1402 C 0.03803 0.80431 0.55913 0.0
C1403 C 0.02426 0.80132 0.57392 0.0
C1404 C 0.0409 0.82268 0.5505 0.0
C1405 C 0.0302 0.83862 0.55647 0.0
C1406 C 0.01727 0.83603 0.57201 0.0
C1407 C 0.01427 0.81753 0.58062 0.0
H1408 H 0.12663 0.75618 0.71326 0.0
H1409 H 0.12285 0.69303 0.70664 0.0
H1410 H 0.0999 0.75876 0.68823 0.0
H1411 H 0.09668 0.69586 0.68098 0.0
H1412 H 0.07022 0.71456 0.61956 0.0
H1413 H 0.09499 0.71078 0.64636 0.0
H1414 H 0.06251 0.74837 0.68304 0.0
H1415 H 0.03749 0.75207 0.65626 0.0
C1416 C 0.12002 0.74281 0.70667 0.0
C1417 C 0.12699 0.72437 0.7121 0.0
C1418 C 0.10473 0.74434 0.69226 0.0
C1419 C 0.09623 0.72752 0.68269 0.0
C1420 C 0.10311 0.70909 0.68802 0.0
C1421 C 0.11821 0.70751 0.70265 0.0
C1422 C 0.06829 0.72199 0.63335 0.0
C1423 C 0.0519 0.73368 0.63574 0.0
C1424 C 0.08242 0.7197 0.64872 0.0
C1425 C 0.08067 0.72929 0.66675 0.0
C1426 C 0.06427 0.74092 0.66923 0.0
C1427 C 0.04992 0.74295 0.65394 0.0
H1428 H 0.0067 0.60575 0.52601 0.0
H1429 H 0.94323 0.61044 0.53125 0.0
H1430 H 0.01284 0.63581 0.54533 0.0
H1431 H 0.9495 0.63998 0.55101 0.0
H1432 H 0.96861 0.68171 0.6012 0.0
H1433 H 0.96517 0.65018 0.58408 0.0
H1434 H 0.00591 0.67188 0.54108 0.0
H1435 H 0.00926 0.70343 0.55801 0.0
C1436 C 0.99406 0.61316 0.53119 0.0
C1437 C 0.97446 0.60556 0.52706 0.0
C1438 C 0.99761 0.63032 0.54235 0.0
C1439 C 0.98166 0.64013 0.5498 0.0
C1440 C 0.96211 0.63252 0.54578 0.0
C1441 C 0.95855 0.61554 0.53447 0.0
C1442 C 0.97703 0.6797 0.58823 0.0
C1443 C 0.9892 0.69513 0.58098 0.0
C1444 C 0.97497 0.66167 0.57838 0.0
C1445 C 0.98519 0.65862 0.5612 0.0
C1446 C 0.99797 0.67376 0.55438 0.0
C1447 C 0.99986 0.69186 0.56409 0.0
H1448 H 0.77103 0.9187 0.22367 0.0
H1449 H 0.81347 0.87391 0.23331 0.0
H1450 H 0.79818 0.94391 0.22539 0.0
H1451 H 0.84052 0.89895 0.23584 0.0
H1452 H 0.88682 0.94479 0.21902 0.0
H1453 H 0.85896 0.9208 0.2166 0.0
H1454 H 0.82237 0.9609 0.24619 0.0
H1455 H 0.85018 0.98534 0.24779 0.0
C1456 C 0.78617 0.9143 0.22638 0.0
C1457 C 0.7902 0.89438 0.22821 0.0
C1458 C 0.80174 0.92873 0.22745 0.0
C1459 C 0.82164 0.92353 0.23063 0.0
C1460 C 0.8255 0.90355 0.23288 0.0
C1461 C 0.80999 0.88916 0.23153 0.0
C1462 C 0.87283 0.94852 0.225 0.0
C1463 C 0.87076 0.96695 0.23369 0.0
C1464 C 0.85683 0.93468 0.22373 0.0
C1465 C 0.83839 0.93873 0.2314 0.0
C1466 C 0.83625 0.95729 0.23992 0.0
C1467 C 0.85223 0.97129 0.24094 0.0
H1468 H 0.80176 0.15858 0.26559 0.0
H1469 H 0.7597 0.10994 0.25228 0.0
H1470 H 0.82924 0.13707 0.26259 0.0
H1471 H 0.7874 0.08845 0.24859 0.0
H1472 H 0.84298 0.05239 0.26267 0.0
H1473 H 0.81482 0.07305 0.26754 0.0
H1474 H 0.84471 0.12017 0.23642 0.0
H1475 H 0.87277 0.09981 0.23183 0.0
C1476 C 0.79835 0.14326 0.26213 0.0
C1477 C 0.77849 0.136 0.25922 0.0
C1478 C 0.81415 0.13096 0.26019 0.0
C1479 C 0.81054 0.11105 0.25526 0.0
C1480 C 0.79068 0.10368 0.25255 0.0
C1481 C 0.77483 0.11604 0.25445 0.0
C1482 C 0.84355 0.06719 0.25696 0.0
C1483 C 0.86017 0.07446 0.24692 0.0
C1484 C 0.82736 0.07898 0.25963 0.0
C1485 C 0.82754 0.09829 0.25242 0.0
C1486 C 0.84419 0.10549 0.24242 0.0
C1487 C 0.86027 0.09374 0.2397 0.0
H1488 H 0.36678 0.97722 0.98161 0.0
H1489 H 0.39917 0.92833 0.96175 0.0
H1490 H 0.33981 0.95452 0.99137 0.0
H1491 H 0.3719 0.90586 0.97052 0.0
H1492 H 0.33149 0.86864 0.00733 0.0
H1493 H 0.35758 0.89277 0.99943 0.0
H1494 H 0.31312 0.93216 0.97825 0.0
H1495 H 0.28678 0.90805 0.98669 0.0
C1496 C 0.36815 0.96165 0.97929 0.0
C1497 C 0.38519 0.95462 0.97092 0.0
C1498 C 0.35257 0.94866 0.98468 0.0
C1499 C 0.35371 0.92834 0.98183 0.0
C1500 C 0.37065 0.92138 0.97324 0.0
C1501 C 0.38619 0.93432 0.96793 0.0
C1502 C 0.32719 0.88246 0.00106 0.0
C1503 C 0.307 0.88632 0.99749 0.0
C1504 C 0.34221 0.89628 0.99641 0.0
C1505 C 0.33749 0.9143 0.98792 0.0
C1506 C 0.31728 0.91846 0.98487 0.0
C1507 C 0.30218 0.90462 0.98965 0.0
H1508 H 0.22139 0.35553 0.2339 0.0
H1509 H 0.23071 0.36653 0.29605 0.0
H1510 H 0.19992 0.38326 0.23117 0.0
H1511 H 0.20964 0.39462 0.29331 0.0
H1512 H 0.16366 0.44061 0.28398 0.0
H1513 H 0.17702 0.40788 0.28652 0.0
H1514 H 0.2069 0.41777 0.23236 0.0
H1515 H 0.19332 0.44981 0.22959 0.0
C1516 C 0.21876 0.36386 0.24699 0.0
C1517 C 0.22792 0.35904 0.26513 0.0
C1518 C 0.20648 0.37975 0.24545 0.0
C1519 C 0.20326 0.39137 0.26197 0.0
C1520 C 0.21162 0.38591 0.28032 0.0
C1521 C 0.22377 0.36987 0.28189 0.0
C1522 C 0.17278 0.43559 0.27247 0.0
C1523 C 0.17754 0.44791 0.25668 0.0
C1524 C 0.18056 0.41691 0.27399 0.0
C1525 C 0.19309 0.41018 0.25967 0.0
C1526 C 0.19709 0.42226 0.24353 0.0
C1527 C 0.18942 0.44081 0.24204 0.0
H1528 H 0.11779 0.07021 0.49137 0.0
H1529 H 0.15753 0.02458 0.50797 0.0
H1530 H 0.14506 0.09458 0.49578 0.0
H1531 H 0.18464 0.04927 0.51378 0.0
H1532 H 0.23344 0.09769 0.50272 0.0
H1533 H 0.20708 0.07184 0.49825 0.0
H1534 H 0.16459 0.11088 0.52056 0.0
H1535 H 0.19057 0.13671 0.52418 0.0
C1536 C 0.13235 0.06532 0.49596 0.0
C1537 C 0.13537 0.04532 0.49923 0.0
C1538 C 0.14799 0.0794 0.49882 0.0
C1539 C 0.16711 0.074 0.50534 0.0
C1540 C 0.17019 0.054 0.50861 0.0
C1541 C 0.15454 0.03984 0.50554 0.0
C1542 C 0.21846 0.10067 0.50671 0.0
C1543 C 0.21407 0.11933 0.51357 0.0
C1544 C 0.20334 0.08583 0.50424 0.0
C1545 C 0.18357 0.08929 0.50879 0.0
C1546 C 0.17946 0.10778 0.51634 0.0
C1547 C 0.19444 0.12261 0.51855 0.0
H1548 H 0.70847 0.15292 0.72446 0.0
H1549 H 0.76082 0.1204 0.73822 0.0
H1550 H 0.68734 0.12346 0.72985 0.0
H1551 H 0.73977 0.09137 0.74456 0.0
H1552 H 0.69968 0.03756 0.73635 0.0
H1553 H 0.71856 0.06721 0.72757 0.0
H1554 H 0.67635 0.10219 0.75606 0.0
H1555 H 0.65693 0.07238 0.76422 0.0
C1556 C 0.71547 0.13949 0.7286 0.0
C1557 C 0.73635 0.13903 0.7309 0.0
C1558 C 0.70335 0.12267 0.7319 0.0
C1559 C 0.71185 0.10502 0.73758 0.0
C1560 C 0.73271 0.10461 0.7399 0.0
C1561 C 0.7448 0.12137 0.73655 0.0
C1562 C 0.69418 0.05154 0.74046 0.0
C1563 C 0.67676 0.05257 0.75097 0.0
C1564 C 0.70516 0.06858 0.73561 0.0
C1565 C 0.69913 0.08709 0.74131 0.0
C1566 C 0.68135 0.08818 0.7513 0.0
C1567 C 0.67026 0.07109 0.75606 0.0
H1568 H 0.41175 0.06485 0.53948 0.0
H1569 H 0.37553 0.01149 0.52924 0.0
H1570 H 0.38247 0.08412 0.53317 0.0
H1571 H 0.3462 0.03079 0.5228 0.0
H1572 H 0.29731 0.07389 0.54075 0.0
H1573 H 0.32554 0.05266 0.543 0.0
H1574 H 0.35832 0.09192 0.5052 0.0
H1575 H 0.33015 0.11314 0.50288 0.0
C1576 C 0.39752 0.05726 0.53586 0.0
C1577 C 0.3959 0.03668 0.53491 0.0
C1578 C 0.38081 0.06828 0.53206 0.0
C1579 C 0.36206 0.05895 0.52744 0.0
C1580 C 0.36044 0.03836 0.5264 0.0
C1581 C 0.37723 0.02734 0.52997 0.0
C1582 C 0.31042 0.07785 0.53268 0.0
C1583 C 0.31151 0.09528 0.52174 0.0
C1584 C 0.32656 0.06565 0.53393 0.0
C1585 C 0.3442 0.07074 0.52442 0.0
C1586 C 0.34501 0.08777 0.51288 0.0
C1587 C 0.3288 0.09984 0.51146 0.0
H1588 H 0.6175 0.46156 0.47479 0.0
H1589 H 0.62659 0.4692 0.53751 0.0
H1590 H 0.64404 0.43831 0.47507 0.0
H1591 H 0.65286 0.4459 0.53777 0.0
H1592 H 0.67824 0.38538 0.53418 0.0
H1593 H 0.65372 0.4103 0.53254 0.0
H1594 H 0.68095 0.43538 0.48157 0.0
H1595 H 0.70567 0.4101 0.48309 0.0
C1596 C 0.62529 0.45846 0.48859 0.0
C1597 C 0.61975 0.46709 0.50617 0.0
C1598 C 0.64049 0.44515 0.48873 0.0
C1599 C 0.65042 0.44014 0.50646 0.0
C1600 C 0.64524 0.44917 0.52392 0.0
C1601 C 0.63012 0.46248 0.52378 0.0
C1602 C 0.67908 0.39617 0.52258 0.0
C1603 C 0.69397 0.39575 0.50877 0.0
C1604 C 0.66507 0.41056 0.52174 0.0
C1605 C 0.66548 0.42491 0.50703 0.0
C1606 C 0.68022 0.42445 0.49303 0.0
C1607 C 0.6944 0.41004 0.49395 0.0
H1608 H 0.7608 0.28381 0.35042 0.0
H1609 H 0.69975 0.27052 0.36479 0.0
H1610 H 0.76577 0.30428 0.37972 0.0
H1611 H 0.70479 0.29072 0.39449 0.0
H1612 H 0.71942 0.33636 0.44348 0.0
H1613 H 0.71263 0.32342 0.4101 0.0
H1614 H 0.76846 0.29459 0.41372 0.0
H1615 H 0.77533 0.30756 0.44643 0.0
C1616 C 0.7484 0.28543 0.3598 0.0
C1617 C 0.73 0.27535 0.35555 0.0
C1618 C 0.75122 0.29712 0.37658 0.0
C1619 C 0.73578 0.29883 0.38963 0.0
C1620 C 0.71695 0.28978 0.3847 0.0
C1621 C 0.71408 0.27817 0.36775 0.0
C1622 C 0.73031 0.32745 0.43699 0.0
C1623 C 0.74786 0.32293 0.44768 0.0
C1624 C 0.72638 0.31998 0.41795 0.0
C1625 C 0.74006 0.30807 0.40922 0.0
C1626 C 0.75776 0.304 0.41981 0.0
C1627 C 0.7616 0.31131 0.43873 0.0
H1628 H 0.5587 0.01615 0.89681 0.0
H1629 H 0.50516 0.00855 0.85961 0.0
H1630 H 0.57886 0.00994 0.8688 0.0
H1631 H 0.52538 0.00206 0.83155 0.0
H1632 H 0.57192 0.02072 0.78469 0.0
H1633 H 0.54932 0.02189 0.81163 0.0
H1634 H 0.5864 0.98336 0.84556 0.0
H1635 H 0.60909 0.98222 0.81868 0.0
C1636 C 0.55125 0.01309 0.88264 0.0
C1637 C 0.53036 0.01296 0.88038 0.0
C1638 C 0.56278 0.00932 0.86665 0.0
C1639 C 0.55371 0.00547 0.84797 0.0
C1640 C 0.53279 0.00508 0.84574 0.0
C1641 C 0.52123 0.00867 0.86182 0.0
C1642 C 0.5751 0.01225 0.79777 0.0
C1643 C 0.59241 0.00151 0.79958 0.0
C1644 C 0.5621 0.01286 0.81318 0.0
C1645 C 0.56618 0.00287 0.83079 0.0
C1646 C 0.58301 0.99143 0.83227 0.0
C1647 C 0.59593 0.99068 0.8168 0.0
H1648 H 0.2489 0.20986 0.35642 0.0
H1649 H 0.31 0.22532 0.3746 0.0
H1650 H 0.24494 0.19075 0.38627 0.0
H1651 H 0.306 0.20637 0.40471 0.0
H1652 H 0.29429 0.16321 0.45447 0.0
H1653 H 0.29937 0.17427 0.42082 0.0
H1654 H 0.2427 0.20155 0.41996 0.0
H1655 H 0.23753 0.19041 0.45315 0.0
C1656 C 0.26155 0.20897 0.36673 0.0
C1657 C 0.27966 0.21932 0.36335 0.0
C1658 C 0.25929 0.19806 0.38384 0.0
C1659 C 0.27505 0.19732 0.39804 0.0
C1660 C 0.2936 0.20657 0.39403 0.0
C1661 C 0.29589 0.21744 0.37681 0.0
C1662 C 0.28279 0.1713 0.44694 0.0
C1663 C 0.26555 0.17602 0.45656 0.0
C1664 C 0.28577 0.17773 0.42773 0.0
C1665 C 0.27145 0.18879 0.4177 0.0
C1666 C 0.25392 0.19283 0.42711 0.0
C1667 C 0.25103 0.18656 0.44626 0.0
H1668 H 0.46041 0.49826 0.90728 0.0
H1669 H 0.51336 0.50044 0.87363 0.0
H1670 H 0.43964 0.49897 0.87663 0.0
H1671 H 0.49279 0.501 0.84331 0.0
H1672 H 0.4514 0.47712 0.79448 0.0
H1673 H 0.4674 0.47522 0.82697 0.0
H1674 H 0.43479 0.5241 0.84614 0.0
H1675 H 0.41865 0.5263 0.81323 0.0
C1676 C 0.46756 0.49886 0.89336 0.0
C1677 C 0.48848 0.49935 0.89279 0.0
C1678 C 0.45572 0.49938 0.8759 0.0
C1679 C 0.46464 0.49995 0.85766 0.0
C1680 C 0.48553 0.50041 0.85717 0.0
C1681 C 0.4973 0.50022 0.87452 0.0
C1682 C 0.44736 0.48739 0.80558 0.0
C1683 C 0.43392 0.50209 0.80107 0.0
C1684 C 0.4566 0.48628 0.82421 0.0
C1685 C 0.45254 0.49968 0.83893 0.0
C1686 C 0.43817 0.51359 0.83498 0.0
C1687 C 0.42897 0.51485 0.81615 0.0
H1688 H 0.71131 0.74039 0.13306 0.0
H1689 H 0.77262 0.73423 0.15276 0.0
H1690 H 0.71498 0.71604 0.10724 0.0
H1691 H 0.77637 0.71013 0.12687 0.0
H1692 H 0.77316 0.65728 0.08642 0.0
H1693 H 0.76498 0.67661 0.11491 0.0
H1694 H 0.73422 0.71665 0.0767 0.0
H1695 H 0.7424 0.6975 0.04831 0.0
C1696 C 0.72546 0.73361 0.13205 0.0
C1697 C 0.74172 0.73929 0.14482 0.0
C1698 C 0.72761 0.71979 0.1172 0.0
C1699 C 0.74598 0.71123 0.11498 0.0
C1700 C 0.76198 0.71633 0.12829 0.0
C1701 C 0.75989 0.73026 0.14299 0.0
C1702 C 0.7644 0.67005 0.08412 0.0
C1703 C 0.75846 0.67585 0.06506 0.0
C1704 C 0.7598 0.68115 0.10043 0.0
C1705 C 0.74901 0.69818 0.09803 0.0
C1706 C 0.74236 0.70349 0.07905 0.0
C1707 C 0.74711 0.69251 0.06275 0.0
H1708 H 0.95536 0.0075 0.08737 0.0
H1709 H 0.00906 0.00367 0.12396 0.0
H1710 H 0.93572 0.00862 0.11655 0.0
H1711 H 0.9897 0.00558 0.15316 0.0
H1712 H 0.94975 0.99619 0.20326 0.0
H1713 H 0.96666 0.98992 0.17334 0.0
H1714 H 0.92899 0.03008 0.14206 0.0
H1715 H 0.91136 0.03546 0.17183 0.0
C1716 C 0.96293 0.0069 0.1017 0.0
C1717 C 0.98371 0.00548 0.10343 0.0
C1718 C 0.95171 0.00766 0.11844 0.0
C1719 C 0.96106 0.0073 0.13732 0.0
C1720 C 0.98186 0.00552 0.13895 0.0
C1721 C 0.99302 0.00449 0.1222 0.0
C1722 C 0.94483 0.00343 0.18995 0.0
C1723 C 0.92915 0.01629 0.18997 0.0
C1724 C 0.95471 1.0 0.17277 0.0
C1725 C 0.94939 0.00961 0.15521 0.0
C1726 C 0.93337 0.02216 0.15517 0.0
C1727 C 0.9233 0.02536 0.1723 0.0
H1728 H 0.28045 0.76279 0.12873 0.0
H1729 H 0.30174 0.81716 0.15674 0.0
H1730 H 0.27215 0.7804 0.09885 0.0
H1731 H 0.2942 0.83482 0.1263 0.0
H1732 H 0.25425 0.86003 0.07524 0.0
H1733 H 0.26543 0.84454 0.10581 0.0
H1734 H 0.2881 0.79718 0.0726 0.0
H1735 H 0.27632 0.81213 0.04234 0.0
C1736 C 0.28337 0.77854 0.12851 0.0
C1737 C 0.29162 0.78859 0.14518 0.0
C1738 C 0.27887 0.78862 0.11125 0.0
C1739 C 0.28263 0.80902 0.11012 0.0
C1740 C 0.291 0.81912 0.12675 0.0
C1741 C 0.29551 0.80899 0.1441 0.0
C1742 C 0.26179 0.8464 0.07449 0.0
C1743 C 0.26434 0.83731 0.05632 0.0
C1744 C 0.26828 0.83758 0.092 0.0
C1745 C 0.27748 0.81951 0.09165 0.0
C1746 C 0.28073 0.8109 0.07342 0.0
C1747 C 0.27415 0.81961 0.056 0.0
H1748 H 0.07354 0.50289 0.10976 0.0
H1749 H 0.02664 0.48458 0.14778 0.0
H1750 H 0.09645 0.5083 0.13811 0.0
H1751 H 0.04985 0.48895 0.17641 0.0
H1752 H 0.09501 0.51252 0.2251 0.0
H1753 H 0.06993 0.51031 0.19786 0.0
H1754 H 0.11411 0.48887 0.16008 0.0
H1755 H 0.13902 0.49194 0.18676 0.0
C1756 C 0.0682 0.50003 0.12429 0.0
C1757 C 0.04845 0.49321 0.12666 0.0
C1758 C 0.08134 0.50294 0.14056 0.0
C1759 C 0.07519 0.49864 0.15962 0.0
C1760 C 0.05512 0.4925 0.16201 0.0
C1761 C 0.04183 0.48993 0.14566 0.0
C1762 C 0.09926 0.50735 0.21094 0.0
C1763 C 0.11905 0.50266 0.20802 0.0
C1764 C 0.0849 0.50601 0.19533 0.0
C1765 C 0.09002 0.49974 0.1766 0.0
C1766 C 0.10968 0.49441 0.17404 0.0
C1767 C 0.124 0.49602 0.18944 0.0
H1768 H 0.39038 0.76115 0.28827 0.0
H1769 H 0.3943 0.69821 0.29146 0.0
H1770 H 0.41975 0.7653 0.3107 0.0
H1771 H 0.42325 0.70242 0.31414 0.0
H1772 H 0.45012 0.71941 0.37596 0.0
H1773 H 0.42504 0.71538 0.34926 0.0
H1774 H 0.45758 0.75826 0.31507 0.0
H1775 H 0.48303 0.76228 0.34193 0.0
C1776 C 0.39769 0.74823 0.29345 0.0
C1777 C 0.38978 0.72933 0.28834 0.0
C1778 C 0.41449 0.75062 0.30629 0.0
C1779 C 0.42358 0.73417 0.31432 0.0
C1780 C 0.4163 0.71534 0.30842 0.0
C1781 C 0.39967 0.71295 0.29551 0.0
C1782 C 0.45203 0.72796 0.36275 0.0
C1783 C 0.46855 0.74119 0.36108 0.0
C1784 C 0.43772 0.72554 0.3474 0.0
C1785 C 0.43943 0.73645 0.33008 0.0
C1786 C 0.45592 0.7497 0.3283 0.0
C1787 C 0.47049 0.75192 0.34362 0.0
H1788 H 1.00012 0.3859 0.00373 0.0
H1789 H 0.98934 0.41543 0.94858 0.0
H1790 H 0.00476 0.3555 0.98621 0.0
H1791 H 0.99377 0.38463 0.93095 0.0
H1792 H 0.02425 0.32635 0.91055 0.0
H1793 H 0.02099 0.35886 0.92526 0.0
H1794 H 0.98007 0.33347 0.96625 0.0
H1795 H 0.98313 0.30138 0.95183 0.0
C1796 C 0.999 0.38597 0.98783 0.0
C1797 C 0.99436 0.40308 0.97754 0.0
C1798 C 0.00149 0.36851 0.97781 0.0
C1799 C 0.99947 0.36769 0.95724 0.0
C1800 C 0.99545 0.38489 0.94681 0.0
C1801 C 0.99277 0.40243 0.95689 0.0
C1802 C 0.01444 0.32777 0.92259 0.0
C1803 C 0.00413 0.31117 0.9301 0.0
C1804 C 0.01256 0.34636 0.93095 0.0
C1805 C 1.0005 0.34858 0.94706 0.0
C1806 C 0.98975 0.33213 0.95408 0.0
C1807 C 0.99148 0.31371 0.94571 0.0
H1808 H 0.66067 0.81332 0.29842 0.0
H1809 H 0.61639 0.78651 0.25752 0.0
H1810 H 0.63749 0.80964 0.32459 0.0
H1811 H 0.59351 0.78182 0.28409 0.0
H1812 H 0.55153 0.78843 0.3344 0.0
H1813 H 0.57293 0.79759 0.30744 0.0
H1814 H 0.62467 0.7826 0.34315 0.0
H1815 H 0.60353 0.77399 0.37 0.0
C1816 C 0.64591 0.80684 0.29491 0.0
C1817 C 0.64046 0.80016 0.2758 0.0
C1818 C 0.63268 0.80448 0.31003 0.0
C1819 C 0.61369 0.79523 0.30652 0.0
C1820 C 0.60796 0.78912 0.2873 0.0
C1821 C 0.62119 0.79157 0.27211 0.0
C1822 C 0.5675 0.78732 0.33652 0.0
C1823 C 0.57581 0.78047 0.35435 0.0
C1824 C 0.57975 0.79244 0.32104 0.0
C1825 C 0.60054 0.79086 0.32312 0.0
C1826 C 0.60878 0.78434 0.3411 0.0
C1827 C 0.5966 0.77925 0.3565 0.0
H1828 H 0.02358 0.09837 0.93702 0.0
H1829 H 0.02067 0.12965 0.9918 0.0
H1830 H 0.02335 0.12949 0.91923 0.0
H1831 H 0.02103 0.1606 0.97431 0.0
H1832 H 0.00353 0.21192 0.93893 0.0
H1833 H 1.00093 0.17967 0.95357 0.0
H1834 H 0.04299 0.15891 0.91313 0.0
H1835 H 0.04478 0.19116 0.89775 0.0
C1836 C 0.023 0.11192 0.94523 0.0
C1837 C 0.02192 0.11161 0.96575 0.0
C1838 C 0.02293 0.12974 0.93508 0.0
C1839 C 0.02197 0.14759 0.94529 0.0
C1840 C 0.02121 0.14717 0.96587 0.0
C1841 C 0.02108 0.12941 0.97594 0.0
C1842 C 0.012 0.20047 0.9329 0.0
C1843 C 0.02438 0.20419 0.91715 0.0
C1844 C 0.01068 0.18195 0.94147 0.0
C1845 C 0.02199 0.1667 0.93478 0.0
C1846 C 0.03393 0.17023 0.9186 0.0
C1847 C 0.03504 0.18877 0.90983 0.0
H1848 H 0.40252 0.27298 0.24461 0.0
H1849 H 0.35734 0.2791 0.1983 0.0
H1850 H 0.42813 0.27321 0.22026 0.0
H1851 H 0.38273 0.27907 0.17403 0.0
H1852 H 0.43291 0.29493 0.13522 0.0
H1853 H 0.41 0.29816 0.16157 0.0
H1854 H 0.44006 0.25345 0.19451 0.0
H1855 H 0.46337 0.25067 0.1684 0.0
C1856 C 0.39805 0.27426 0.22923 0.0
C1857 C 0.3779 0.2761 0.22341 0.0
C1858 C 0.41272 0.27439 0.21526 0.0
C1859 C 0.40756 0.27628 0.19515 0.0
C1860 C 0.38737 0.27805 0.18939 0.0
C1861 C 0.37276 0.27801 0.20332 0.0
C1862 C 0.43481 0.28597 0.1482 0.0
C1863 C 0.44989 0.27244 0.14962 0.0
C1864 C 0.42156 0.28771 0.16326 0.0
C1865 C 0.42295 0.27585 0.18008 0.0
C1866 C 0.43859 0.26292 0.18186 0.0
C1867 C 0.45194 0.26127 0.16683 0.0
H1868 H 0.55825 0.39326 0.03771 0.0
H1869 H 0.49426 0.39671 0.03848 0.0
H1870 H 0.55605 0.36255 0.05566 0.0
H1871 H 0.49198 0.36539 0.05554 0.0
H1872 H 0.49484 0.31316 0.09665 0.0
H1873 H 0.49909 0.34705 0.08532 0.0
H1874 H 0.54484 0.32979 0.0472 0.0
H1875 H 0.54101 0.29637 0.05875 0.0
C1876 C 0.54371 0.38763 0.0419 0.0
C1877 C 0.52642 0.39746 0.03646 0.0
C1878 C 0.54243 0.36985 0.05201 0.0
C1879 C 0.52381 0.36132 0.05686 0.0
C1880 C 0.50658 0.37154 0.05216 0.0
C1881 C 0.50787 0.38939 0.04212 0.0
C1882 C 0.50601 0.31669 0.08607 0.0
C1883 C 0.5175 0.30197 0.07856 0.0
C1884 C 0.50834 0.33609 0.07947 0.0
C1885 C 0.52228 0.34119 0.0653 0.0
C1886 C 0.53416 0.32655 0.05832 0.0
C1887 C 0.53184 0.30725 0.06487 0.0
H1888 H 0.61542 0.19417 0.21299 0.0
H1889 H 0.63743 0.25331 0.20152 0.0
H1890 H 0.58888 0.19735 0.18736 0.0
H1891 H 0.61126 0.25635 0.17572 0.0
H1892 H 0.57696 0.24159 0.11589 0.0
H1893 H 0.60284 0.23782 0.14173 0.0
H1894 H 0.55785 0.221 0.18248 0.0
H1895 H 0.53177 0.22516 0.15671 0.0
C1896 C 0.61462 0.20776 0.20489 0.0
C1897 C 0.62838 0.22351 0.20918 0.0
C1898 C 0.59943 0.20963 0.19038 0.0
C1899 C 0.59808 0.2271 0.17964 0.0
C1900 C 0.61204 0.24272 0.18376 0.0
C1901 C 0.62693 0.241 0.19852 0.0
C1902 C 0.57256 0.23708 0.13035 0.0
C1903 C 0.55232 0.2337 0.13427 0.0
C1904 C 0.58736 0.235 0.14512 0.0
C1905 C 0.58229 0.22909 0.16403 0.0
C1906 C 0.56211 0.22546 0.16796 0.0
C1907 C 0.54723 0.22796 0.15327 0.0
H1908 H 0.48147 0.08892 0.05334 0.0
H1909 H 0.48326 0.12274 1.0 0.0
H1910 H 0.48714 0.11895 0.07269 0.0
H1911 H 0.48822 0.15284 0.0192 0.0
H1912 H 0.51027 0.20354 0.05756 0.0
H1913 H 0.50995 0.17246 0.03999 0.0
H1914 H 0.46994 0.14656 0.08173 0.0
H1915 H 0.47108 0.17737 0.09977 0.0
C1916 C 0.48305 0.10282 0.04578 0.0
C1917 C 0.48188 0.10352 0.02518 0.0
C1918 C 0.48621 0.12005 0.05684 0.0
C1919 C 0.48803 0.13842 0.04757 0.0
C1920 C 0.48724 0.139 0.02691 0.0
C1921 C 0.48432 0.12174 0.01586 0.0
C1922 C 0.50167 0.19114 0.06317 0.0
C1923 C 0.49073 0.19296 0.0801 0.0
C1924 C 0.50131 0.17332 0.05296 0.0
C1925 C 0.4898 0.15694 0.0593 0.0
C1926 C 0.47923 0.1587 0.07652 0.0
C1927 C 0.47977 0.17645 0.08683 0.0
H1928 H 0.26978 0.42051 0.72533 0.0
H1929 H 0.31267 0.37581 0.73271 0.0
H1930 H 0.29684 0.44583 0.72669 0.0
H1931 H 0.33964 0.40094 0.73477 0.0
H1932 H 0.38515 0.44723 0.71751 0.0
H1933 H 0.35719 0.42334 0.7151 0.0
H1934 H 0.32172 0.46237 0.74735 0.0
H1935 H 0.34961 0.48671 0.74902 0.0
C1936 C 0.285 0.41615 0.72746 0.0
C1937 C 0.28916 0.39621 0.72876 0.0
C1938 C 0.30052 0.43064 0.7283 0.0
C1939 C 0.32051 0.42548 0.73069 0.0
C1940 C 0.32452 0.4055 0.73241 0.0
C1941 C 0.30906 0.39106 0.73133 0.0
C1942 C 0.37138 0.45077 0.72405 0.0
C1943 C 0.36967 0.46884 0.73357 0.0
C1944 C 0.35533 0.43698 0.72279 0.0
C1945 C 0.3372 0.44074 0.73126 0.0
C1946 C 0.33536 0.459 0.74049 0.0
C1947 C 0.35139 0.47294 0.74154 0.0
H1948 H 0.25161 0.60698 0.75316 0.0
H1949 H 0.29942 0.64993 0.76765 0.0
H1950 H 0.27581 0.58166 0.75102 0.0
H1951 H 0.32356 0.62462 0.76556 0.0
H1952 H 0.36083 0.57157 0.77607 0.0
H1953 H 0.3352 0.59495 0.78137 0.0
H1954 H 0.30191 0.57283 0.72967 0.0
H1955 H 0.32723 0.54932 0.72457 0.0
C1956 C 0.26729 0.61105 0.75578 0.0
C1957 C 0.27355 0.63052 0.76051 0.0
C1958 C 0.28116 0.59652 0.7546 0.0
C1959 C 0.30165 0.60108 0.75813 0.0
C1960 C 0.30788 0.62051 0.76308 0.0
C1961 C 0.29402 0.63504 0.76425 0.0
C1962 C 0.34792 0.57154 0.76598 0.0
C1963 C 0.34615 0.55861 0.74985 0.0
C1964 C 0.3333 0.58505 0.76893 0.0
C1965 C 0.31655 0.58587 0.75587 0.0
C1966 C 0.3145 0.5725 0.74012 0.0
C1967 C 0.32911 0.55906 0.73714 0.0
H1968 H 0.86205 0.47506 0.47142 0.0
H1969 H 0.90281 0.42824 0.47539 0.0
H1970 H 0.83436 0.45185 0.47837 0.0
H1971 H 0.87563 0.40523 0.48341 0.0
H1972 H 0.82238 0.36388 0.47712 0.0
H1973 H 0.84816 0.38824 0.46915 0.0
H1974 H 0.81875 0.43193 0.50184 0.0
H1975 H 0.79215 0.40749 0.50882 0.0
C1976 C 0.86505 0.4598 0.47401 0.0
C1977 C 0.88444 0.45332 0.47267 0.0
C1978 C 0.84924 0.44651 0.47811 0.0
C1979 C 0.85261 0.42653 0.48128 0.0
C1980 C 0.87224 0.42032 0.48048 0.0
C1981 C 0.8879 0.4335 0.47602 0.0
C1982 C 0.82138 0.37871 0.48256 0.0
C1983 C 0.80535 0.38375 0.49373 0.0
C1984 C 0.83629 0.3927 0.47812 0.0
C1985 C 0.83587 0.41207 0.48514 0.0
C1986 C 0.81955 0.41723 0.49603 0.0
C1987 C 0.80434 0.40323 0.50013 0.0
H1988 H 0.72466 0.85551 0.79167 0.0
H1989 H 0.7416 0.86598 0.73201 0.0
H1990 H 0.70094 0.88095 0.78848 0.0
H1991 H 0.71979 0.89294 0.72968 0.0
H1992 H 0.67374 0.93623 0.72349 0.0
H1993 H 0.68899 0.90467 0.7262 0.0
H1994 H 0.69859 0.914 0.78882 0.0
H1995 H 0.68171 0.94462 0.78603 0.0
C1996 C 0.72336 0.86313 0.77781 0.0
C1997 C 0.73532 0.85856 0.76215 0.0
C1998 C 0.70992 0.87811 0.77611 0.0
C1999 C 0.70837 0.88937 0.75888 0.0
C2000 C 0.72011 0.88456 0.74313 0.0
C2001 C 0.73312 0.86925 0.74463 0.0
C2002 C 0.67862 0.93113 0.73786 0.0
C2003 C 0.67655 0.94274 0.75455 0.0
C2004 C 0.68768 0.91317 0.73945 0.0
C2005 C 0.69563 0.90677 0.75768 0.0
C2006 C 0.69257 0.91809 0.77452 0.0
C2007 C 0.6829 0.93575 0.77298 0.0
H2008 H 0.61739 0.56726 0.98964 0.0
H2009 H 0.65613 0.52279 0.01158 0.0
H2010 H 0.64465 0.59172 0.9933 0.0
H2011 H 0.68325 0.54771 0.01647 0.0
H2012 H 0.73258 0.59539 0.00362 0.0
H2013 H 0.7064 0.56927 0.99982 0.0
H2014 H 0.66305 0.60941 0.01826 0.0
H2015 H 0.68885 0.63544 0.02133 0.0
C2016 C 0.63174 0.56264 0.99521 0.0
C2017 C 0.63449 0.54295 1.00023 0.0
C2018 C 0.64737 0.5768 0.99762 0.0
C2019 C 0.66618 0.5718 0.00539 0.0
C2020 C 0.66903 0.55209 0.01033 0.0
C2021 C 0.65337 0.53784 0.00777 0.0
C2022 C 0.71745 0.59857 0.0069 0.0
C2023 C 0.71279 0.61758 0.01254 0.0
C2024 C 0.70245 0.58358 0.00481 0.0
C2025 C 0.68251 0.58726 0.00848 0.0
C2026 C 0.67809 0.60612 0.01477 0.0
C2027 C 0.69296 0.62107 0.01665 0.0
H2028 H 0.25541 0.62868 0.24452 0.0
H2029 H 0.2019 0.65993 0.23223 0.0
H2030 H 0.23532 0.59907 0.2508 0.0
H2031 H 0.1817 0.6298 0.23745 0.0
H2032 H 0.15307 0.57666 0.27032 0.0
H2033 H 0.17143 0.60735 0.26293 0.0
H2034 H 0.21494 0.57478 0.23351 0.0
H2035 H 0.19722 0.54431 0.2416 0.0
C2036 C 0.23933 0.62927 0.2432 0.0
C2037 C 0.23029 0.64676 0.23796 0.0
C2038 C 0.22779 0.61216 0.2465 0.0
C2039 C 0.20687 0.61197 0.24445 0.0
C2040 C 0.19777 0.62946 0.23927 0.0
C2041 C 0.20936 0.64667 0.23606 0.0
C2042 C 0.16648 0.5761 0.26214 0.0
C2043 C 0.17367 0.558 0.25658 0.0
C2044 C 0.17695 0.59369 0.25783 0.0
C2045 C 0.19479 0.59353 0.2478 0.0
C2046 C 0.2015 0.57544 0.24162 0.0
C2047 C 0.19116 0.55792 0.24607 0.0
H2048 H 0.91097 0.56615 0.03882 0.0
H2049 H 0.87671 0.51176 0.02776 0.0
H2050 H 0.88117 0.58445 0.03185 0.0
H2051 H 0.84679 0.53013 0.02073 0.0
H2052 H 0.79642 0.57229 0.03839 0.0
H2053 H 0.82505 0.55156 0.04079 0.0
H2054 H 0.85737 0.59139 0.00318 0.0
H2055 H 0.82881 0.61209 0.00068 0.0
C2056 C 0.89705 0.55813 0.03488 0.0
C2057 C 0.89612 0.53754 0.03391 0.0
C2058 C 0.88004 0.5686 0.03071 0.0
C2059 C 0.86167 0.55871 0.02569 0.0
C2060 C 0.86074 0.53812 0.02463 0.0
C2061 C 0.87785 0.52763 0.02854 0.0
C2062 C 0.80951 0.57646 0.03037 0.0
C2063 C 0.81037 0.59393 0.01947 0.0
C2064 C 0.82587 0.56455 0.0317 0.0
C2065 C 0.8435 0.56998 0.02233 0.0
C2066 C 0.84406 0.58698 0.01076 0.0
C2067 C 0.82764 0.59877 0.00924 0.0
H2068 H 0.13916 0.9864 0.98571 0.0
H2069 H 0.09889 0.93872 0.0026 0.0
H2070 H 0.16508 0.96326 0.98107 0.0
H2071 H 0.12503 0.91576 0.99883 0.0
H2072 H 0.1689 0.87617 0.97379 0.0
H2073 H 0.14358 0.90045 0.97418 0.0
H2074 H 0.18695 0.94278 1.00018 0.0
H2075 H 0.21244 0.9186 0.99934 0.0
C2076 C 0.1358 0.97098 0.98837 0.0
C2077 C 0.11691 0.96443 0.99452 0.0
C2078 C 0.15075 0.95774 0.98591 0.0
C2079 C 0.14716 0.93763 0.98954 0.0
C2080 C 0.12825 0.93109 0.99563 0.0
C2081 C 0.11332 0.94431 0.99806 0.0
C2082 C 0.17312 0.89073 0.97937 0.0
C2083 C 0.19267 0.89539 0.98666 0.0
C2084 C 0.15854 0.90462 0.97973 0.0
C2085 C 0.16313 0.92349 0.98747 0.0
C2086 C 0.18291 0.92842 0.994 0.0
C2087 C 0.19753 0.91453 0.99357 0.0
loop_
_geom_bond_atom_site_label_1
_geom_bond_atom_site_label_2
_geom_bond_distance
_geom_bond_site_symmetry_2
_ccdc_geom_bond_type
C0 C1 1.391 . S
C0 C4 1.391 . S
C0 H42 0.948 . S
C1 C0 1.391 . S
C1 C2 1.391 . S
C2 C1 1.391 . S
C2 H58 0.907 1_455 S
C2 C59 1.392 1_556 S
C3 C4 1.391 1_554 S
C3 C7 1.397 . S
C3 C59 1.419 . S
C4 C0 1.391 . S
C4 C3 1.391 1_556 S
C4 C5 1.399 . S
C5 C4 1.399 . S
C5 C8 1.396 1_556 S
C5 C17 1.453 . S
C5 C18 1.684 . S
H6 C30 0.948 . S
C7 C3 1.397 . S
C7 C8 1.394 . S
C7 C26 1.723 . S
C8 C5 1.396 1_554 S
C8 C7 1.394 . S
C8 C38 1.723 . S
H9 C32 0.952 . S
H10 C33 0.949 1_556 S
H11 C39 0.982 . S
H12 C40 0.979 . S
H13 C40 0.980 . S
H14 C40 0.983 . S
H15 C39 0.979 1_565 S
H16 C39 0.977 . S
C17 C5 1.453 . S
C17 H46 0.982 1_556 S
C17 H47 0.979 . S
C17 H48 0.977 . S
C18 C5 1.684 . S
C18 H43 0.979 . S
C18 H44 0.980 . S
C18 H45 0.983 . S
C19 C20 1.391 . S
C19 C24 1.391 . S
C19 H49 0.948 . S
C20 C19 1.391 . S
C20 C21 1.423 . S
C21 C20 1.423 . S
C21 C22 1.363 1_655 S
C21 H50 0.945 1_645 S
C22 C21 1.363 1_455 S
C22 C23 1.419 . S
C22 H51 0.940 1_545 S
C23 C22 1.419 . S
C23 C24 1.391 1_455 S
C23 C27 1.397 . S
C24 C19 1.391 . S
C24 C23 1.391 1_655 S
C24 C25 1.406 . S
C25 C24 1.406 . S
C25 C26 1.355 1_655 S
C25 C28 1.450 1_655 S
C25 C29 1.722 . S
C26 C7 1.723 . S
C26 C25 1.355 1_455 S
C26 C27 1.394 . S
C27 C23 1.397 . S
C27 C26 1.394 . S
C27 C37 1.723 . S
C28 C25 1.450 1_455 S
C28 H52 0.982 . S
C28 H53 0.979 1_455 S
C28 H54 0.977 . S
C29 C25 1.722 . S
C29 H55 0.979 . S
C29 H56 0.980 . S
C29 H57 0.983 . S
C30 H6 0.948 . S
C30 C31 1.391 . S
C30 C35 1.391 . S
C31 C30 1.391 . S
C31 C32 1.347 1_564 S
C32 H9 0.952 . S
C32 C31 1.347 1_546 S
C32 C33 1.434 1_556 S
C33 H10 0.949 1_554 S
C33 C32 1.434 1_554 S
C33 C34 1.418 . S
C34 C33 1.418 . S
C34 C35 1.391 1_545 S
C34 C38 1.397 . S
C35 C30 1.391 . S
C35 C34 1.391 1_565 S
C35 C36 1.398 1_565 S
C36 C35 1.398 1_545 S
C36 C37 1.402 . S
C36 C39 1.453 . S
C36 C40 1.679 1_545 S
C37 C27 1.723 . S
C37 C36 1.402 . S
C37 C38 1.394 . S
C38 C8 1.723 . S
C38 C34 1.397 . S
C38 C37 1.394 . S
C39 H11 0.982 . S
C39 H15 0.979 1_545 S
C39 H16 0.977 . S
C39 C36 1.453 . S
C40 H12 0.979 . S
C40 H13 0.980 . S
C40 H14 0.983 . S
C40 C36 1.679 1_565 S
H41 C59 0.908 1_655 S
H42 C0 0.948 . S
H43 C18 0.979 . S
H44 C18 0.980 . S
H45 C18 0.983 . S
H46 C17 0.982 1_554 S
H47 C17 0.979 . S
H48 C17 0.977 . S
H49 C19 0.948 . S
H50 C21 0.945 1_465 S
H51 C22 0.940 1_565 S
H52 C28 0.982 . S
H53 C28 0.979 1_655 S
H54 C28 0.977 . S
H55 C29 0.979 . S
H56 C29 0.980 . S
H57 C29 0.983 . S
H58 C2 0.907 1_655 S
C59 C2 1.392 1_554 S
C59 C3 1.419 . S
C59 H41 0.908 1_455 S
C60 C61 1.391 . S
C60 C64 1.391 . S
C60 H102 0.948 . S
C61 C60 1.391 . S
C61 C62 1.391 . S
C62 C61 1.391 . S
C62 H118 0.947 . S
C62 C119 1.392 . S
C63 C64 1.391 . S
C63 C67 1.397 . S
C63 C119 1.419 . S
C64 C60 1.391 . S
C64 C63 1.391 . S
C64 C65 1.399 . S
C65 C64 1.399 . S
C65 C68 1.396 . S
C65 C77 1.453 . S
C65 C78 1.684 . S
H66 C90 0.948 . S
C67 C63 1.397 . S
C67 C68 1.394 . S
C67 C86 1.723 . S
C68 C65 1.396 . S
C68 C67 1.394 . S
C68 C98 1.723 . S
H69 C92 0.947 . S
H70 C93 0.948 . S
H71 C99 0.982 . S
H72 C100 0.979 . S
H73 C100 0.980 . S
H74 C100 0.983 . S
H75 C99 0.979 . S
H76 C99 0.977 . S
C77 C65 1.453 . S
C77 H106 0.982 . S
C77 H107 0.979 . S
C77 H108 0.977 . S
C78 C65 1.684 . S
C78 H103 0.979 . S
C78 H104 0.980 . S
C78 H105 0.983 . S
C79 C80 1.391 . S
C79 C84 1.391 . S
C79 H109 0.948 . S
C80 C79 1.391 . S
C80 C81 1.391 . S
C81 C80 1.391 . S
C81 C82 1.392 . S
C81 H110 0.947 . S
C82 C81 1.392 . S
C82 C83 1.419 . S
C82 H111 0.948 . S
C83 C82 1.419 . S
C83 C84 1.391 . S
C83 C87 1.397 . S
C84 C79 1.391 . S
C84 C83 1.391 . S
C84 C85 1.399 . S
C85 C84 1.399 . S
C85 C86 1.396 . S
C85 C88 1.453 . S
C85 C89 1.684 . S
C86 C67 1.723 . S
C86 C85 1.396 . S
C86 C87 1.394 . S
C87 C83 1.397 . S
C87 C86 1.394 . S
C87 C97 1.723 . S
C88 C85 1.453 . S
C88 H112 0.982 . S
C88 H113 0.979 . S
C88 H114 0.977 . S
C89 C85 1.684 . S
C89 H115 0.979 . S
C89 H116 0.980 . S
C89 H117 0.983 . S
C90 H66 0.948 . S
C90 C91 1.391 . S
C90 C95 1.391 . S
C91 C90 1.391 . S
C91 C92 1.391 . S
C92 H69 0.947 . S
C92 C91 1.391 . S
C92 C93 1.392 . S
C93 H70 0.948 . S
C93 C92 1.392 . S
C93 C94 1.419 . S
C94 C93 1.419 . S
C94 C95 1.391 . S
C94 C98 1.397 . S
C95 C90 1.391 . S
C95 C94 1.391 . S
C95 C96 1.399 . S
C96 C95 1.399 . S
C96 C97 1.396 . S
C96 C99 1.453 . S
C96 C100 1.684 . S
C97 C87 1.723 . S
C97 C96 1.396 . S
C97 C98 1.394 . S
C98 C68 1.723 . S
C98 C94 1.397 . S
C98 C97 1.394 . S
C99 H71 0.982 . S
C99 H75 0.979 . S
C99 H76 0.977 . S
C99 C96 1.453 . S
C100 H72 0.979 . S
C100 H73 0.980 . S
C100 H74 0.983 . S
C100 C96 1.684 . S
H101 C119 0.948 . S
H102 C60 0.948 . S
H103 C78 0.979 . S
H104 C78 0.980 . S
H105 C78 0.983 . S
H106 C77 0.982 . S
H107 C77 0.979 . S
H108 C77 0.977 . S
H109 C79 0.948 . S
H110 C81 0.947 . S
H111 C82 0.948 . S
H112 C88 0.982 . S
H113 C88 0.979 . S
H114 C88 0.977 . S
H115 C89 0.979 . S
H116 C89 0.980 . S
H117 C89 0.983 . S
H118 C62 0.947 . S
C119 C62 1.392 . S
C119 C63 1.419 . S
C119 H101 0.948 . S
C120 C121 1.391 1_454 S
C120 C124 1.391 1_455 S
C120 H162 0.948 . S
C121 C120 1.391 1_656 S
C121 C122 1.391 . S
C122 C121 1.391 . S
C122 H178 0.947 . S
C122 C179 1.392 . S
C123 C124 1.391 . S
C123 C127 1.397 . S
C123 C179 1.419 1_554 S
C124 C120 1.391 1_655 S
C124 C123 1.391 . S
C124 C125 1.399 1_655 S
C125 C124 1.399 1_455 S
C125 C128 1.396 1_455 S
C125 C137 1.453 . S
C125 C138 1.684 . S
H126 C150 0.948 . S
C127 C123 1.397 . S
C127 C128 1.394 . S
C127 C146 1.723 . S
C128 C125 1.396 1_655 S
C128 C127 1.394 . S
C128 C158 1.723 . S
H129 C152 0.947 . S
H130 C153 0.948 . S
H131 C159 0.982 . S
H132 C160 0.973 1_455 S
H133 C160 0.980 . S
H134 C160 0.983 . S
H135 C159 0.979 . S
H136 C159 0.977 . S
C137 C125 1.453 . S
C137 H166 0.982 1_455 S
C137 H167 0.979 . S
C137 H168 0.977 . S
C138 C125 1.684 . S
C138 H163 0.979 . S
C138 H164 0.980 . S
C138 H165 0.983 . S
C139 C140 1.391 . S
C139 C144 1.391 . S
C139 H169 0.948 . S
C140 C139 1.391 . S
C140 C141 1.391 . S
C141 C140 1.391 . S
C141 C142 1.392 . S
C141 H170 0.947 . S
C142 C141 1.392 . S
C142 C143 1.419 . S
C142 H171 0.948 . S
C143 C142 1.419 . S
C143 C144 1.391 . S
C143 C147 1.397 . S
C144 C139 1.391 . S
C144 C143 1.391 . S
C144 C145 1.399 . S
C145 C144 1.399 . S
C145 C146 1.396 . S
C145 C148 1.453 . S
C145 C149 1.684 1_554 S
C146 C127 1.723 . S
C146 C145 1.396 . S
C146 C147 1.394 . S
C147 C143 1.397 . S
C147 C146 1.394 . S
C147 C157 1.723 . S
C148 C145 1.453 . S
C148 H172 0.982 . S
C148 H173 0.979 . S
C148 H174 0.977 . S
C149 C145 1.684 1_556 S
C149 H175 0.979 . S
C149 H176 0.980 . S
C149 H177 0.983 . S
C150 H126 0.948 . S
C150 C151 1.391 . S
C150 C155 1.391 . S
C151 C150 1.391 . S
C151 C152 1.391 . S
C152 H129 0.947 . S
C152 C151 1.391 . S
C152 C153 1.392 . S
C153 H130 0.948 . S
C153 C152 1.392 . S
C153 C154 1.419 . S
C154 C153 1.419 . S
C154 C155 1.391 . S
C154 C158 1.397 1_455 S
C155 C150 1.391 . S
C155 C154 1.391 . S
C155 C156 1.399 1_455 S
C156 C155 1.399 1_655 S
C156 C157 1.396 . S
C156 C159 1.453 . S
C156 C160 1.684 . S
C157 C147 1.723 . S
C157 C156 1.396 . S
C157 C158 1.394 . S
C158 C128 1.723 . S
C158 C154 1.397 1_655 S
C158 C157 1.394 . S
C159 H131 0.982 . S
C159 H135 0.979 . S
C159 H136 0.977 . S
C159 C156 1.453 . S
C160 H132 0.973 1_655 S
C160 H133 0.980 . S
C160 H134 0.983 . S
C160 C156 1.684 . S
H161 C179 0.948 . S
H162 C120 0.948 . S
H163 C138 0.979 . S
H164 C138 0.980 . S
H165 C138 0.983 . S
H166 C137 0.982 1_655 S
H167 C137 0.979 . S
H168 C137 0.977 . S
H169 C139 0.948 . S
H170 C141 0.947 . S
H171 C142 0.948 . S
H172 C148 0.982 . S
H173 C148 0.979 . S
H174 C148 0.977 . S
H175 C149 0.979 . S
H176 C149 0.980 . S
H177 C149 0.983 . S
H178 C122 0.947 . S
C179 C122 1.392 . S
C179 C123 1.419 1_556 S
C179 H161 0.948 . S
C180 C181 1.391 . S
C180 C184 1.391 . S
C180 H222 0.948 . S
C181 C180 1.391 . S
C181 C182 1.391 . S
C182 C181 1.391 . S
C182 H238 0.947 . S
C182 C239 1.392 . S
C183 C184 1.391 . S
C183 C187 1.397 . S
C183 C239 1.419 . S
C184 C180 1.391 . S
C184 C183 1.391 . S
C184 C185 1.399 . S
C185 C184 1.399 . S
C185 C188 1.396 . S
C185 C197 1.453 . S
C185 C198 1.684 . S
H186 C210 0.948 . S
C187 C183 1.397 . S
C187 C188 1.394 . S
C187 C206 1.723 . S
C188 C185 1.396 . S
C188 C187 1.394 . S
C188 C218 1.723 . S
H189 C212 0.947 . S
H190 C213 0.948 . S
H191 C219 0.982 . S
H192 C220 0.979 . S
H193 C220 0.980 . S
H194 C220 0.983 . S
H195 C219 0.979 . S
H196 C219 0.977 . S
C197 C185 1.453 . S
C197 H226 0.982 . S
C197 H227 0.979 . S
C197 H228 0.977 . S
C198 C185 1.684 . S
C198 H223 0.979 . S
C198 H224 0.980 . S
C198 H225 0.983 . S
C199 C200 1.391 . S
C199 C204 1.391 . S
C199 H229 0.948 . S
C200 C199 1.391 . S
C200 C201 1.391 . S
C201 C200 1.391 . S
C201 C202 1.392 . S
C201 H230 0.947 . S
C202 C201 1.392 . S
C202 C203 1.419 . S
C202 H231 0.948 . S
C203 C202 1.419 . S
C203 C204 1.391 . S
C203 C207 1.397 . S
C204 C199 1.391 . S
C204 C203 1.391 . S
C204 C205 1.399 . S
C205 C204 1.399 . S
C205 C206 1.396 . S
C205 C208 1.453 . S
C205 C209 1.684 . S
C206 C187 1.723 . S
C206 C205 1.396 . S
C206 C207 1.394 . S
C207 C203 1.397 . S
C207 C206 1.394 . S
C207 C217 1.723 . S
C208 C205 1.453 . S
C208 H232 0.982 . S
C208 H233 0.979 . S
C208 H234 0.977 . S
C209 C205 1.684 . S
C209 H235 0.979 . S
C209 H236 0.980 . S
C209 H237 0.983 . S
C210 H186 0.948 . S
C210 C211 1.391 . S
C210 C215 1.391 . S
C211 C210 1.391 . S
C211 C212 1.391 . S
C212 H189 0.947 . S
C212 C211 1.391 . S
C212 C213 1.392 . S
C213 H190 0.948 . S
C213 C212 1.392 . S
C213 C214 1.419 . S
C214 C213 1.419 . S
C214 C215 1.391 . S
C214 C218 1.397 . S
C215 C210 1.391 . S
C215 C214 1.391 . S
C215 C216 1.399 . S
C216 C215 1.399 . S
C216 C217 1.396 . S
C216 C219 1.453 . S
C216 C220 1.684 . S
C217 C207 1.723 . S
C217 C216 1.396 . S
C217 C218 1.394 . S
C218 C188 1.723 . S
C218 C214 1.397 . S
C218 C217 1.394 . S
C219 H191 0.982 . S
C219 H195 0.979 . S
C219 H196 0.977 . S
C219 C216 1.453 . S
C220 H192 0.979 . S
C220 H193 0.980 . S
C220 H194 0.983 . S
C220 C216 1.684 . S
H221 C239 0.948 . S
H222 C180 0.948 . S
H223 C198 0.979 . S
H224 C198 0.980 . S
H225 C198 0.983 . S
H226 C197 0.982 . S
H227 C197 0.979 . S
H228 C197 0.977 . S
H229 C199 0.948 . S
H230 C201 0.947 . S
H231 C202 0.948 . S
H232 C208 0.982 . S
H233 C208 0.979 . S
H234 C208 0.977 . S
H235 C209 0.979 . S
H236 C209 0.980 . S
H237 C209 0.983 . S
H238 C182 0.947 . S
C239 C182 1.392 . S
C239 C183 1.419 . S
C239 H221 0.948 . S
C240 C241 1.391 . S
C240 C244 1.391 . S
C240 H282 0.948 . S
C241 C240 1.391 . S
C241 C242 1.391 . S
C242 C241 1.391 . S
C242 H298 0.947 . S
C242 C299 1.392 . S
C243 C244 1.391 . S
C243 C247 1.397 . S
C243 C299 1.419 . S
C244 C240 1.391 . S
C244 C243 1.391 . S
C244 C245 1.399 . S
C245 C244 1.399 . S
C245 C248 1.396 . S
C245 C257 1.453 . S
C245 C258 1.684 . S
H246 C270 0.948 . S
C247 C243 1.397 . S
C247 C248 1.394 . S
C247 C266 1.723 . S
C248 C245 1.396 . S
C248 C247 1.394 . S
C248 C278 1.723 . S
H249 C272 0.947 . S
H250 C273 0.948 . S
H251 C279 0.982 . S
H252 C280 0.981 1_565 S
H253 C280 0.980 . S
H254 C280 0.983 . S
H255 C279 0.979 . S
H256 C279 0.977 . S
C257 C245 1.453 . S
C257 H286 0.982 . S
C257 H287 0.979 . S
C257 H288 0.977 . S
C258 C245 1.684 . S
C258 H283 0.979 . S
C258 H284 0.980 . S
C258 H285 0.983 . S
C259 C260 1.391 . S
C259 C264 1.391 . S
C259 H289 0.948 1_455 S
C260 C259 1.391 . S
C260 C261 1.357 1_565 S
C261 C260 1.357 1_545 S
C261 C262 1.384 1_545 S
C261 H290 0.991 . S
C262 C261 1.384 1_565 S
C262 C263 1.419 . S
C262 H291 0.948 1_565 S
C263 C262 1.419 . S
C263 C264 1.391 . S
C263 C267 1.397 . S
C264 C259 1.391 . S
C264 C263 1.391 . S
C264 C265 1.399 . S
C265 C264 1.399 . S
C265 C266 1.396 . S
C265 C268 1.453 1_455 S
C265 C269 1.684 . S
C266 C247 1.723 . S
C266 C265 1.396 . S
C266 C267 1.394 . S
C267 C263 1.397 . S
C267 C266 1.394 . S
C267 C277 1.723 . S
C268 C265 1.453 1_655 S
C268 H292 0.982 . S
C268 H293 0.979 . S
C268 H294 0.977 1_655 S
C269 C265 1.684 . S
C269 H295 0.979 . S
C269 H296 0.980 . S
C269 H297 0.983 1_455 S
C270 H246 0.948 . S
C270 C271 1.391 . S
C270 C275 1.391 . S
C271 C270 1.391 . S
C271 C272 1.391 . S
C272 H249 0.947 . S
C272 C271 1.391 . S
C272 C273 1.392 1_545 S
C273 H250 0.948 . S
C273 C272 1.392 1_565 S
C273 C274 1.419 . S
C274 C273 1.419 . S
C274 C275 1.391 1_565 S
C274 C278 1.397 . S
C275 C270 1.391 . S
C275 C274 1.391 1_545 S
C275 C276 1.399 . S
C276 C275 1.399 . S
C276 C277 1.396 1_545 S
C276 C279 1.453 . S
C276 C280 1.684 . S
C277 C267 1.723 . S
C277 C276 1.396 1_565 S
C277 C278 1.394 . S
C278 C248 1.723 . S
C278 C274 1.397 . S
C278 C277 1.394 . S
C279 H251 0.982 . S
C279 H255 0.979 . S
C279 H256 0.977 . S
C279 C276 1.453 . S
C280 H252 0.981 1_545 S
C280 H253 0.980 . S
C280 H254 0.983 . S
C280 C276 1.684 . S
H281 C299 0.948 . S
H282 C240 0.948 . S
H283 C258 0.979 . S
H284 C258 0.980 . S
H285 C258 0.983 . S
H286 C257 0.982 . S
H287 C257 0.979 . S
H288 C257 0.977 . S
H289 C259 0.948 1_655 S
H290 C261 0.991 . S
H291 C262 0.948 1_545 S
H292 C268 0.982 . S
H293 C268 0.979 . S
H294 C268 0.977 1_455 S
H295 C269 0.979 . S
H296 C269 0.980 . S
H297 C269 0.983 1_655 S
H298 C242 0.947 . S
C299 C242 1.392 . S
C299 C243 1.419 . S
C299 H281 0.948 . S
C300 C301 1.391 . S
C300 C304 1.391 . S
C300 H342 0.948 . S
C301 C300 1.391 . S
C301 C302 1.391 . S
C302 C301 1.391 . S
C302 H358 0.947 . S
C302 C359 1.392 . S
C303 C304 1.391 . S
C303 C307 1.397 . S
C303 C359 1.419 . S
C304 C300 1.391 . S
C304 C303 1.391 . S
C304 C305 1.399 . S
C305 C304 1.399 . S
C305 C308 1.396 . S
C305 C317 1.453 . S
C305 C318 1.684 . S
H306 C330 0.948 . S
C307 C303 1.397 . S
C307 C308 1.394 . S
C307 C326 1.723 . S
C308 C305 1.396 . S
C308 C307 1.394 . S
C308 C338 1.723 . S
H309 C332 0.947 . S
H310 C333 0.948 . S
H311 C339 0.982 . S
H312 C340 0.979 . S
H313 C340 0.980 . S
H314 C340 0.983 . S
H315 C339 0.979 . S
H316 C339 0.977 . S
C317 C305 1.453 . S
C317 H346 0.982 . S
C317 H347 0.979 . S
C317 H348 0.977 . S
C318 C305 1.684 . S
C318 H343 0.979 . S
C318 H344 0.980 . S
C318 H345 0.983 . S
C319 C320 1.391 . S
C319 C324 1.391 . S
C319 H349 0.948 . S
C320 C319 1.391 . S
C320 C321 1.391 . S
C321 C320 1.391 . S
C321 C322 1.392 . S
C321 H350 0.947 . S
C322 C321 1.392 . S
C322 C323 1.419 . S
C322 H351 0.948 . S
C323 C322 1.419 . S
C323 C324 1.391 . S
C323 C327 1.397 . S
C324 C319 1.391 . S
C324 C323 1.391 . S
C324 C325 1.399 . S
C325 C324 1.399 . S
C325 C326 1.396 . S
C325 C328 1.453 . S
C325 C329 1.684 . S
C326 C307 1.723 . S
C326 C325 1.396 . S
C326 C327 1.394 . S
C327 C323 1.397 . S
C327 C326 1.394 . S
C327 C337 1.723 . S
C328 C325 1.453 . S
C328 H352 0.982 . S
C328 H353 0.979 . S
C328 H354 0.977 . S
C329 C325 1.684 . S
C329 H355 0.979 . S
C329 H356 0.980 . S
C329 H357 0.983 . S
C330 H306 0.948 . S
C330 C331 1.391 . S
C330 C335 1.391 . S
C331 C330 1.391 . S
C331 C332 1.391 . S
C332 H309 0.947 . S
C332 C331 1.391 . S
C332 C333 1.392 . S
C333 H310 0.948 . S
C333 C332 1.392 . S
C333 C334 1.419 . S
C334 C333 1.419 . S
C334 C335 1.391 . S
C334 C338 1.397 . S
C335 C330 1.391 . S
C335 C334 1.391 . S
C335 C336 1.399 . S
C336 C335 1.399 . S
C336 C337 1.396 . S
C336 C339 1.453 . S
C336 C340 1.684 . S
C337 C327 1.723 . S
C337 C336 1.396 . S
C337 C338 1.394 . S
C338 C308 1.723 . S
C338 C334 1.397 . S
C338 C337 1.394 . S
C339 H311 0.982 . S
C339 H315 0.979 . S
C339 H316 0.977 . S
C339 C336 1.453 . S
C340 H312 0.979 . S
C340 H313 0.980 . S
C340 H314 0.983 . S
C340 C336 1.684 . S
H341 C359 0.948 . S
H342 C300 0.948 . S
H343 C318 0.979 . S
H344 C318 0.980 . S
H345 C318 0.983 . S
H346 C317 0.982 . S
H347 C317 0.979 . S
H348 C317 0.977 . S
H349 C319 0.948 . S
H350 C321 0.947 . S
H351 C322 0.948 . S
H352 C328 0.982 . S
H353 C328 0.979 . S
H354 C328 0.977 . S
H355 C329 0.979 . S
H356 C329 0.980 . S
H357 C329 0.983 . S
H358 C302 0.947 . S
C359 C302 1.392 . S
C359 C303 1.419 . S
C359 H341 0.948 . S
C360 C361 1.391 . S
C360 C364 1.391 . S
C360 H402 0.948 . S
C361 C360 1.391 . S
C361 C362 1.391 . S
C362 C361 1.391 . S
C362 H418 0.947 . S
C362 C419 1.392 . S
C363 C364 1.391 . S
C363 C367 1.397 . S
C363 C419 1.419 . S
C364 C360 1.391 . S
C364 C363 1.391 . S
C364 C365 1.399 . S
C365 C364 1.399 . S
C365 C368 1.396 . S
C365 C377 1.453 . S
C365 C378 1.684 . S
H366 C390 0.948 1_455 S
C367 C363 1.397 . S
C367 C368 1.394 . S
C367 C386 1.723 . S
C368 C365 1.396 . S
C368 C367 1.394 . S
C368 C398 1.723 . S
H369 C392 0.947 . S
H370 C393 0.948 . S
H371 C399 0.982 . S
H372 C400 0.979 . S
H373 C400 0.980 . S
H374 C400 0.983 . S
H375 C399 0.979 1_455 S
H376 C399 0.977 1_455 S
C377 C365 1.453 . S
C377 H406 0.982 . S
C377 H407 0.979 . S
C377 H408 0.977 . S
C378 C365 1.684 . S
C378 H403 0.979 . S
C378 H404 0.980 . S
C378 H405 0.983 . S
C379 C380 1.391 . S
C379 C384 1.391 1_455 S
C379 H409 0.948 . S
C380 C379 1.391 . S
C380 C381 1.391 . S
C381 C380 1.391 . S
C381 C382 1.392 . S
C381 H410 0.947 . S
C382 C381 1.392 . S
C382 C383 1.419 1_455 S
C382 H411 0.948 . S
C383 C382 1.419 1_655 S
C383 C384 1.391 . S
C383 C387 1.397 . S
C384 C379 1.391 1_655 S
C384 C383 1.391 . S
C384 C385 1.399 . S
C385 C384 1.399 . S
C385 C386 1.396 . S
C385 C388 1.453 . S
C385 C389 1.684 . S
C386 C367 1.723 . S
C386 C385 1.396 . S
C386 C387 1.394 . S
C387 C383 1.397 . S
C387 C386 1.394 . S
C387 C397 1.723 . S
C388 C385 1.453 . S
C388 H412 0.982 . S
C388 H413 0.979 . S
C388 H414 0.977 . S
C389 C385 1.684 . S
C389 H415 0.979 . S
C389 H416 0.980 . S
C389 H417 0.983 . S
C390 H366 0.948 1_655 S
C390 C391 1.391 . S
C390 C395 1.391 . S
C391 C390 1.391 . S
C391 C392 1.391 . S
C392 H369 0.947 . S
C392 C391 1.391 . S
C392 C393 1.392 . S
C393 H370 0.948 . S
C393 C392 1.392 . S
C393 C394 1.419 . S
C394 C393 1.419 . S
C394 C395 1.391 . S
C394 C398 1.397 . S
C395 C390 1.391 . S
C395 C394 1.391 . S
C395 C396 1.399 . S
C396 C395 1.399 . S
C396 C397 1.396 . S
C396 C399 1.453 . S
C396 C400 1.684 1_655 S
C397 C387 1.723 . S
C397 C396 1.396 . S
C397 C398 1.394 . S
C398 C368 1.723 . S
C398 C394 1.397 . S
C398 C397 1.394 . S
C399 H371 0.982 . S
C399 H375 0.979 1_655 S
C399 H376 0.977 1_655 S
C399 C396 1.453 . S
C400 H372 0.979 . S
C400 H373 0.980 . S
C400 H374 0.983 . S
C400 C396 1.684 1_455 S
H401 C419 0.948 . S
H402 C360 0.948 . S
H403 C378 0.979 . S
H404 C378 0.980 . S
H405 C378 0.983 . S
H406 C377 0.982 . S
H407 C377 0.979 . S
H408 C377 0.977 . S
H409 C379 0.948 . S
H410 C381 0.947 . S
H411 C382 0.948 . S
H412 C388 0.982 . S
H413 C388 0.979 . S
H414 C388 0.977 . S
H415 C389 0.979 . S
H416 C389 0.980 . S
H417 C389 0.983 . S
H418 C362 0.947 . S
C419 C362 1.392 . S
C419 C363 1.419 . S
C419 H401 0.948 . S
C420 C421 1.391 . S
C420 C424 1.391 . S
C420 H462 0.948 . S
C421 C420 1.391 . S
C421 C422 1.391 . S
C422 C421 1.391 . S
C422 H478 0.947 . S
C422 C479 1.392 . S
C423 C424 1.391 . S
C423 C427 1.397 . S
C423 C479 1.419 . S
C424 C420 1.391 . S
C424 C423 1.391 . S
C424 C425 1.399 . S
C425 C424 1.399 . S
C425 C428 1.396 . S
C425 C437 1.453 . S
C425 C438 1.684 . S
H426 C450 0.948 . S
C427 C423 1.397 . S
C427 C428 1.394 . S
C427 C446 1.723 . S
C428 C425 1.396 . S
C428 C427 1.394 . S
C428 C458 1.723 . S
H429 C452 0.947 . S
H430 C453 0.948 . S
H431 C459 0.982 . S
H432 C460 0.979 . S
H433 C460 0.980 . S
H434 C460 0.983 . S
H435 C459 0.979 . S
H436 C459 0.977 . S
C437 C425 1.453 . S
C437 H466 0.982 . S
C437 H467 0.979 . S
C437 H468 0.977 . S
C438 C425 1.684 . S
C438 H463 0.979 . S
C438 H464 0.980 . S
C438 H465 0.983 . S
C439 C440 1.391 . S
C439 C444 1.391 . S
C439 H469 0.948 . S
C440 C439 1.391 . S
C440 C441 1.391 . S
C441 C440 1.391 . S
C441 C442 1.392 . S
C441 H470 0.947 . S
C442 C441 1.392 . S
C442 C443 1.419 . S
C442 H471 0.948 . S
C443 C442 1.419 . S
C443 C444 1.391 . S
C443 C447 1.397 . S
C444 C439 1.391 . S
C444 C443 1.391 . S
C444 C445 1.399 . S
C445 C444 1.399 . S
C445 C446 1.396 . S
C445 C448 1.453 . S
C445 C449 1.684 . S
C446 C427 1.723 . S
C446 C445 1.396 . S
C446 C447 1.394 . S
C447 C443 1.397 . S
C447 C446 1.394 . S
C447 C457 1.723 . S
C448 C445 1.453 . S
C448 H472 0.982 . S
C448 H473 0.979 . S
C448 H474 0.977 . S
C449 C445 1.684 . S
C449 H475 0.979 . S
C449 H476 0.980 . S
C449 H477 0.983 . S
C450 H426 0.948 . S
C450 C451 1.391 . S
C450 C455 1.391 . S
C451 C450 1.391 . S
C451 C452 1.391 . S
C452 H429 0.947 . S
C452 C451 1.391 . S
C452 C453 1.392 . S
C453 H430 0.948 . S
C453 C452 1.392 . S
C453 C454 1.419 . S
C454 C453 1.419 . S
C454 C455 1.391 . S
C454 C458 1.397 . S
C455 C450 1.391 . S
C455 C454 1.391 . S
C455 C456 1.399 . S
C456 C455 1.399 . S
C456 C457 1.396 . S
C456 C459 1.453 . S
C456 C460 1.684 . S
C457 C447 1.723 . S
C457 C456 1.396 . S
C457 C458 1.394 . S
C458 C428 1.723 . S
C458 C454 1.397 . S
C458 C457 1.394 . S
C459 H431 0.982 . S
C459 H435 0.979 . S
C459 H436 0.977 . S
C459 C456 1.453 . S
C460 H432 0.979 . S
C460 H433 0.980 . S
C460 H434 0.983 . S
C460 C456 1.684 . S
H461 C479 0.948 . S
H462 C420 0.948 . S
H463 C438 0.979 . S
H464 C438 0.980 . S
H465 C438 0.983 . S
H466 C437 0.982 . S
H467 C437 0.979 . S
H468 C437 0.977 . S
H469 C439 0.948 . S
H470 C441 0.947 . S
H471 C442 0.948 . S
H472 C448 0.982 . S
H473 C448 0.979 . S
H474 C448 0.977 . S
H475 C449 0.979 . S
H476 C449 0.980 . S
H477 C449 0.983 . S
H478 C422 0.947 . S
C479 C422 1.392 . S
C479 C423 1.419 . S
C479 H461 0.948 . S
C480 C481 1.391 . S
C480 C484 1.391 . S
C480 H522 0.948 . S
C481 C480 1.391 . S
C481 C482 1.391 . S
C482 C481 1.391 . S
C482 H538 0.947 . S
C482 C539 1.392 . S
C483 C484 1.391 . S
C483 C487 1.397 . S
C483 C539 1.419 . S
C484 C480 1.391 . S
C484 C483 1.391 . S
C484 C485 1.399 . S
C485 C484 1.399 . S
C485 C488 1.396 . S
C485 C497 1.453 . S
C485 C498 1.684 . S
H486 C510 0.948 . S
C487 C483 1.397 . S
C487 C488 1.394 . S
C487 C506 1.723 . S
C488 C485 1.396 . S
C488 C487 1.394 . S
C488 C518 1.723 . S
H489 C512 0.947 . S
H490 C513 0.948 . S
H491 C519 0.982 . S
H492 C520 0.979 . S
H493 C520 0.980 . S
H494 C520 0.983 . S
H495 C519 0.979 . S
H496 C519 0.977 . S
C497 C485 1.453 . S
C497 H526 0.982 . S
C497 H527 0.979 . S
C497 H528 0.977 . S
C498 C485 1.684 . S
C498 H523 0.979 . S
C498 H524 0.980 . S
C498 H525 0.983 . S
C499 C500 1.391 . S
C499 C504 1.391 . S
C499 H529 0.948 . S
C500 C499 1.391 . S
C500 C501 1.391 . S
C501 C500 1.391 . S
C501 C502 1.392 . S
C501 H530 0.947 . S
C502 C501 1.392 . S
C502 C503 1.419 . S
C502 H531 0.948 . S
C503 C502 1.419 . S
C503 C504 1.391 . S
C503 C507 1.397 . S
C504 C499 1.391 . S
C504 C503 1.391 . S
C504 C505 1.399 . S
C505 C504 1.399 . S
C505 C506 1.396 . S
C505 C508 1.453 . S
C505 C509 1.684 . S
C506 C487 1.723 . S
C506 C505 1.396 . S
C506 C507 1.394 . S
C507 C503 1.397 . S
C507 C506 1.394 . S
C507 C517 1.723 . S
C508 C505 1.453 . S
C508 H532 0.982 . S
C508 H533 0.979 . S
C508 H534 0.977 . S
C509 C505 1.684 . S
C509 H535 0.979 . S
C509 H536 0.980 . S
C509 H537 0.983 . S
C510 H486 0.948 . S
C510 C511 1.391 . S
C510 C515 1.391 . S
C511 C510 1.391 . S
C511 C512 1.391 . S
C512 H489 0.947 . S
C512 C511 1.391 . S
C512 C513 1.392 . S
C513 H490 0.948 . S
C513 C512 1.392 . S
C513 C514 1.419 . S
C514 C513 1.419 . S
C514 C515 1.391 . S
C514 C518 1.397 . S
C515 C510 1.391 . S
C515 C514 1.391 . S
C515 C516 1.399 . S
C516 C515 1.399 . S
C516 C517 1.396 . S
C516 C519 1.453 . S
C516 C520 1.684 . S
C517 C507 1.723 . S
C517 C516 1.396 . S
C517 C518 1.394 . S
C518 C488 1.723 . S
C518 C514 1.397 . S
C518 C517 1.394 . S
C519 H491 0.982 . S
C519 H495 0.979 . S
C519 H496 0.977 . S
C519 C516 1.453 . S
C520 H492 0.979 . S
C520 H493 0.980 . S
C520 H494 0.983 . S
C520 C516 1.684 . S
H521 C539 0.948 . S
H522 C480 0.948 . S
H523 C498 0.979 . S
H524 C498 0.980 . S
H525 C498 0.983 . S
H526 C497 0.982 . S
H527 C497 0.979 . S
H528 C497 0.977 . S
H529 C499 0.948 . S
H530 C501 0.947 . S
H531 C502 0.948 . S
H532 C508 0.982 . S
H533 C508 0.979 . S
H534 C508 0.977 . S
H535 C509 0.979 . S
H536 C509 0.980 . S
H537 C509 0.983 . S
H538 C482 0.947 . S
C539 C482 1.392 . S
C539 C483 1.419 . S
C539 H521 0.948 . S
C540 C541 1.391 . S
C540 C544 1.391 . S
C540 H582 0.948 . S
C541 C540 1.391 . S
C541 C542 1.391 . S
C542 C541 1.391 . S
C542 H598 0.947 . S
C542 C599 1.392 . S
C543 C544 1.391 . S
C543 C547 1.397 . S
C543 C599 1.419 . S
C544 C540 1.391 . S
C544 C543 1.391 . S
C544 C545 1.399 . S
C545 C544 1.399 . S
C545 C548 1.396 . S
C545 C557 1.453 . S
C545 C558 1.684 . S
H546 C570 0.948 . S
C547 C543 1.397 . S
C547 C548 1.394 . S
C547 C566 1.723 . S
C548 C545 1.396 . S
C548 C547 1.394 . S
C548 C578 1.723 . S
H549 C572 0.947 . S
H550 C573 0.948 . S
H551 C579 0.982 . S
H552 C580 0.979 . S
H553 C580 0.980 . S
H554 C580 0.983 . S
H555 C579 0.979 1_545 S
H556 C579 0.965 1_545 S
C557 C545 1.453 . S
C557 H586 0.982 . S
C557 H587 0.979 . S
C557 H588 0.977 . S
C558 C545 1.684 . S
C558 H583 0.979 . S
C558 H584 0.980 . S
C558 H585 0.983 . S
C559 C560 1.391 . S
C559 C564 1.391 1_545 S
C559 H589 0.948 . S
C560 C559 1.391 . S
C560 C561 1.391 . S
C561 C560 1.391 . S
C561 C562 1.392 . S
C561 H590 0.947 . S
C562 C561 1.392 . S
C562 C563 1.419 1_545 S
C562 H591 0.948 . S
C563 C562 1.419 1_565 S
C563 C564 1.391 . S
C563 C567 1.397 . S
C564 C559 1.391 1_565 S
C564 C563 1.391 . S
C564 C565 1.399 . S
C565 C564 1.399 . S
C565 C566 1.396 . S
C565 C568 1.453 . S
C565 C569 1.684 . S
C566 C547 1.723 . S
C566 C565 1.396 . S
C566 C567 1.394 . S
C567 C563 1.397 . S
C567 C566 1.394 . S
C567 C577 1.723 . S
C568 C565 1.453 . S
C568 H592 0.982 . S
C568 H593 0.979 . S
C568 H594 0.977 . S
C569 C565 1.684 . S
C569 H595 0.979 . S
C569 H596 0.980 . S
C569 H597 0.983 . S
C570 H546 0.948 . S
C570 C571 1.391 . S
C570 C575 1.391 . S
C571 C570 1.391 . S
C571 C572 1.391 . S
C572 H549 0.947 . S
C572 C571 1.391 . S
C572 C573 1.392 . S
C573 H550 0.948 . S
C573 C572 1.392 . S
C573 C574 1.419 . S
C574 C573 1.419 . S
C574 C575 1.391 . S
C574 C578 1.397 . S
C575 C570 1.391 . S
C575 C574 1.391 . S
C575 C576 1.399 . S
C576 C575 1.399 . S
C576 C577 1.396 . S
C576 C579 1.453 . S
C576 C580 1.684 1_565 S
C577 C567 1.723 . S
C577 C576 1.396 . S
C577 C578 1.394 . S
C578 C548 1.723 . S
C578 C574 1.397 . S
C578 C577 1.394 . S
C579 H551 0.982 . S
C579 H555 0.979 1_565 S
C579 H556 0.965 1_565 S
C579 C576 1.453 . S
C580 H552 0.979 . S
C580 H553 0.980 . S
C580 H554 0.983 . S
C580 C576 1.684 1_545 S
H581 C599 0.948 . S
H582 C540 0.948 . S
H583 C558 0.979 . S
H584 C558 0.980 . S
H585 C558 0.983 . S
H586 C557 0.982 . S
H587 C557 0.979 . S
H588 C557 0.977 . S
H589 C559 0.948 . S
H590 C561 0.947 . S
H591 C562 0.948 . S
H592 C568 0.982 . S
H593 C568 0.979 . S
H594 C568 0.977 . S
H595 C569 0.979 . S
H596 C569 0.980 . S
H597 C569 0.983 . S
H598 C542 0.947 . S
C599 C542 1.392 . S
C599 C543 1.419 . S
C599 H581 0.948 . S
C600 C601 1.391 . S
C600 C604 1.391 . S
C600 H642 0.948 . S
C601 C600 1.391 . S
C601 C602 1.391 . S
C602 C601 1.391 . S
C602 H658 0.947 . S
C602 C659 1.392 . S
C603 C604 1.391 . S
C603 C607 1.397 . S
C603 C659 1.419 . S
C604 C600 1.391 . S
C604 C603 1.391 . S
C604 C605 1.399 . S
C605 C604 1.399 . S
C605 C608 1.396 . S
C605 C617 1.453 . S
C605 C618 1.684 . S
H606 C630 0.948 . S
C607 C603 1.397 . S
C607 C608 1.394 . S
C607 C626 1.723 . S
C608 C605 1.396 . S
C608 C607 1.394 . S
C608 C638 1.723 . S
H609 C632 0.947 . S
H610 C633 0.948 . S
H611 C639 0.982 . S
H612 C640 0.979 . S
H613 C640 0.980 . S
H614 C640 0.983 . S
H615 C639 0.979 . S
H616 C639 0.977 . S
C617 C605 1.453 . S
C617 H646 0.982 . S
C617 H647 0.979 . S
C617 H648 0.977 . S
C618 C605 1.684 . S
C618 H643 0.979 . S
C618 H644 0.980 . S
C618 H645 0.983 . S
C619 C620 1.391 . S
C619 C624 1.391 . S
C619 H649 0.948 . S
C620 C619 1.391 . S
C620 C621 1.391 . S
C621 C620 1.391 . S
C621 C622 1.392 . S
C621 H650 0.947 . S
C622 C621 1.392 . S
C622 C623 1.419 . S
C622 H651 0.948 . S
C623 C622 1.419 . S
C623 C624 1.391 . S
C623 C627 1.397 . S
C624 C619 1.391 . S
C624 C623 1.391 . S
C624 C625 1.399 . S
C625 C624 1.399 . S
C625 C626 1.396 . S
C625 C628 1.453 . S
C625 C629 1.684 . S
C626 C607 1.723 . S
C626 C625 1.396 . S
C626 C627 1.394 . S
C627 C623 1.397 . S
C627 C626 1.394 . S
C627 C637 1.723 . S
C628 C625 1.453 . S
C628 H652 0.982 . S
C628 H653 0.979 . S
C628 H654 0.977 . S
C629 C625 1.684 . S
C629 H655 0.979 . S
C629 H656 0.980 . S
C629 H657 0.983 . S
C630 H606 0.948 . S
C630 C631 1.391 . S
C630 C635 1.391 . S
C631 C630 1.391 . S
C631 C632 1.391 . S
C632 H609 0.947 . S
C632 C631 1.391 . S
C632 C633 1.392 . S
C633 H610 0.948 . S
C633 C632 1.392 . S
C633 C634 1.419 . S
C634 C633 1.419 . S
C634 C635 1.391 . S
C634 C638 1.397 . S
C635 C630 1.391 . S
C635 C634 1.391 . S
C635 C636 1.399 . S
C636 C635 1.399 . S
C636 C637 1.396 . S
C636 C639 1.453 . S
C636 C640 1.684 . S
C637 C627 1.723 . S
C637 C636 1.396 . S
C637 C638 1.394 . S
C638 C608 1.723 . S
C638 C634 1.397 . S
C638 C637 1.394 . S
C639 H611 0.982 . S
C639 H615 0.979 . S
C639 H616 0.977 . S
C639 C636 1.453 . S
C640 H612 0.979 . S
C640 H613 0.980 . S
C640 H614 0.983 . S
C640 C636 1.684 . S
H641 C659 0.948 . S
H642 C600 0.948 . S
H643 C618 0.979 . S
H644 C618 0.980 . S
H645 C618 0.983 . S
H646 C617 0.982 . S
H647 C617 0.979 . S
H648 C617 0.977 . S
H649 C619 0.948 . S
H650 C621 0.947 . S
H651 C622 0.948 . S
H652 C628 0.982 . S
H653 C628 0.979 . S
H654 C628 0.977 . S
H655 C629 0.979 . S
H656 C629 0.980 . S
H657 C629 0.983 . S
H658 C602 0.947 . S
C659 C602 1.392 . S
C659 C603 1.419 . S
C659 H641 0.948 . S
C660 C661 1.391 . S
C660 C664 1.391 . S
C660 H702 0.948 . S
C661 C660 1.391 . S
C661 C662 1.391 . S
C662 C661 1.391 . S
C662 H718 0.947 . S
C662 C719 1.392 . S
C663 C664 1.391 . S
C663 C667 1.397 . S
C663 C719 1.419 . S
C664 C660 1.391 . S
C664 C663 1.391 . S
C664 C665 1.399 . S
C665 C664 1.399 . S
C665 C668 1.396 . S
C665 C677 1.453 . S
C665 C678 1.684 . S
H666 C690 0.948 . S
C667 C663 1.397 . S
C667 C668 1.394 . S
C667 C686 1.723 . S
C668 C665 1.396 . S
C668 C667 1.394 . S
C668 C698 1.723 . S
H669 C692 0.947 . S
H670 C693 0.948 . S
H671 C699 0.982 . S
H672 C700 0.979 . S
H673 C700 0.980 . S
H674 C700 0.983 . S
H675 C699 0.979 . S
H676 C699 0.977 . S
C677 C665 1.453 . S
C677 H706 0.982 . S
C677 H707 0.979 . S
C677 H708 0.977 . S
C678 C665 1.684 . S
C678 H703 0.979 . S
C678 H704 0.980 . S
C678 H705 0.983 . S
C679 C680 1.391 . S
C679 C684 1.391 . S
C679 H709 0.948 . S
C680 C679 1.391 . S
C680 C681 1.391 . S
C681 C680 1.391 . S
C681 C682 1.392 . S
C681 H710 0.947 . S
C682 C681 1.392 . S
C682 C683 1.419 . S
C682 H711 0.948 . S
C683 C682 1.419 . S
C683 C684 1.391 . S
C683 C687 1.397 . S
C684 C679 1.391 . S
C684 C683 1.391 . S
C684 C685 1.399 . S
C685 C684 1.399 . S
C685 C686 1.396 . S
C685 C688 1.453 . S
C685 C689 1.684 . S
C686 C667 1.723 . S
C686 C685 1.396 . S
C686 C687 1.394 . S
C687 C683 1.397 . S
C687 C686 1.394 . S
C687 C697 1.723 . S
C688 C685 1.453 . S
C688 H712 0.982 . S
C688 H713 0.979 . S
C688 H714 0.977 . S
C689 C685 1.684 . S
C689 H715 0.979 . S
C689 H716 0.980 . S
C689 H717 0.983 . S
C690 H666 0.948 . S
C690 C691 1.391 . S
C690 C695 1.391 . S
C691 C690 1.391 . S
C691 C692 1.391 . S
C692 H669 0.947 . S
C692 C691 1.391 . S
C692 C693 1.392 . S
C693 H670 0.948 . S
C693 C692 1.392 . S
C693 C694 1.419 . S
C694 C693 1.419 . S
C694 C695 1.391 . S
C694 C698 1.397 . S
C695 C690 1.391 . S
C695 C694 1.391 . S
C695 C696 1.399 . S
C696 C695 1.399 . S
C696 C697 1.396 . S
C696 C699 1.453 . S
C696 C700 1.684 . S
C697 C687 1.723 . S
C697 C696 1.396 . S
C697 C698 1.394 . S
C698 C668 1.723 . S
C698 C694 1.397 . S
C698 C697 1.394 . S
C699 H671 0.982 . S
C699 H675 0.979 . S
C699 H676 0.977 . S
C699 C696 1.453 . S
C700 H672 0.979 . S
C700 H673 0.980 . S
C700 H674 0.983 . S
C700 C696 1.684 . S
H701 C719 0.948 . S
H702 C660 0.948 . S
H703 C678 0.979 . S
H704 C678 0.980 . S
H705 C678 0.983 . S
H706 C677 0.982 . S
H707 C677 0.979 . S
H708 C677 0.977 . S
H709 C679 0.948 . S
H710 C681 0.947 . S
H711 C682 0.948 . S
H712 C688 0.982 . S
H713 C688 0.979 . S
H714 C688 0.977 . S
H715 C689 0.979 . S
H716 C689 0.980 . S
H717 C689 0.983 . S
H718 C662 0.947 . S
C719 C662 1.392 . S
C719 C663 1.419 . S
C719 H701 0.948 . S
C720 C721 1.391 . S
C720 C724 1.391 . S
C720 H762 0.948 . S
C721 C720 1.391 . S
C721 C722 1.391 . S
C722 C721 1.391 . S
C722 H778 0.947 . S
C722 C779 1.392 . S
C723 C724 1.391 . S
C723 C727 1.397 . S
C723 C779 1.419 . S
C724 C720 1.391 . S
C724 C723 1.391 . S
C724 C725 1.399 . S
C725 C724 1.399 . S
C725 C728 1.396 . S
C725 C737 1.453 . S
C725 C738 1.684 . S
H726 C750 0.948 . S
C727 C723 1.397 . S
C727 C728 1.394 . S
C727 C746 1.723 . S
C728 C725 1.396 . S
C728 C727 1.394 . S
C728 C758 1.723 . S
H729 C752 0.947 . S
H730 C753 0.948 . S
H731 C759 0.982 . S
H732 C760 0.979 . S
H733 C760 0.980 . S
H734 C760 0.983 . S
H735 C759 0.979 . S
H736 C759 0.977 . S
C737 C725 1.453 . S
C737 H766 0.982 . S
C737 H767 0.979 . S
C737 H768 0.977 . S
C738 C725 1.684 . S
C738 H763 0.979 . S
C738 H764 0.980 . S
C738 H765 0.983 . S
C739 C740 1.391 . S
C739 C744 1.391 . S
C739 H769 0.948 . S
C740 C739 1.391 . S
C740 C741 1.391 . S
C741 C740 1.391 . S
C741 C742 1.392 . S
C741 H770 0.947 . S
C742 C741 1.392 . S
C742 C743 1.419 . S
C742 H771 0.948 . S
C743 C742 1.419 . S
C743 C744 1.391 . S
C743 C747 1.397 . S
C744 C739 1.391 . S
C744 C743 1.391 . S
C744 C745 1.399 . S
C745 C744 1.399 . S
C745 C746 1.396 . S
C745 C748 1.453 . S
C745 C749 1.684 . S
C746 C727 1.723 . S
C746 C745 1.396 . S
C746 C747 1.394 . S
C747 C743 1.397 . S
C747 C746 1.394 . S
C747 C757 1.723 . S
C748 C745 1.453 . S
C748 H772 0.982 . S
C748 H773 0.979 . S
C748 H774 0.977 . S
C749 C745 1.684 . S
C749 H775 0.979 . S
C749 H776 0.980 . S
C749 H777 0.983 . S
C750 H726 0.948 . S
C750 C751 1.391 . S
C750 C755 1.391 . S
C751 C750 1.391 . S
C751 C752 1.391 . S
C752 H729 0.947 . S
C752 C751 1.391 . S
C752 C753 1.392 . S
C753 H730 0.948 . S
C753 C752 1.392 . S
C753 C754 1.419 . S
C754 C753 1.419 . S
C754 C755 1.391 . S
C754 C758 1.397 . S
C755 C750 1.391 . S
C755 C754 1.391 . S
C755 C756 1.399 . S
C756 C755 1.399 . S
C756 C757 1.396 . S
C756 C759 1.453 . S
C756 C760 1.684 . S
C757 C747 1.723 . S
C757 C756 1.396 . S
C757 C758 1.394 . S
C758 C728 1.723 . S
C758 C754 1.397 . S
C758 C757 1.394 . S
C759 H731 0.982 . S
C759 H735 0.979 . S
C759 H736 0.977 . S
C759 C756 1.453 . S
C760 H732 0.979 . S
C760 H733 0.980 . S
C760 H734 0.983 . S
C760 C756 1.684 . S
H761 C779 0.948 . S
H762 C720 0.948 . S
H763 C738 0.979 . S
H764 C738 0.980 . S
H765 C738 0.983 . S
H766 C737 0.982 . S
H767 C737 0.979 . S
H768 C737 0.977 . S
H769 C739 0.948 . S
H770 C741 0.947 . S
H771 C742 0.948 . S
H772 C748 0.982 . S
H773 C748 0.979 . S
H774 C748 0.977 . S
H775 C749 0.979 . S
H776 C749 0.980 . S
H777 C749 0.983 . S
H778 C722 0.947 . S
C779 C722 1.392 . S
C779 C723 1.419 . S
C779 H761 0.948 . S
C780 C781 1.391 . S
C780 C784 1.391 1_554 S
C780 H822 0.948 . S
C781 C780 1.391 . S
C781 C782 1.391 1_554 S
C782 C781 1.391 1_556 S
C782 H838 0.947 . S
C782 C839 1.392 . S
C783 C784 1.391 . S
C783 C787 1.397 . S
C783 C839 1.419 . S
C784 C780 1.391 1_556 S
C784 C783 1.391 . S
C784 C785 1.399 . S
C785 C784 1.399 . S
C785 C788 1.396 . S
C785 C797 1.453 1_556 S
C785 C798 1.684 1_556 S
H786 C810 0.948 . S
C787 C783 1.397 . S
C787 C788 1.394 . S
C787 C806 1.723 . S
C788 C785 1.396 . S
C788 C787 1.394 . S
C788 C818 1.723 . S
H789 C812 0.947 1_554 S
H790 C813 0.948 . S
H791 C819 0.982 . S
H792 C820 0.979 . S
H793 C820 0.980 . S
H794 C820 0.983 . S
H795 C819 0.979 . S
H796 C819 0.977 . S
C797 C785 1.453 1_554 S
C797 H826 0.982 . S
C797 H827 0.979 . S
C797 H828 0.977 . S
C798 C785 1.684 1_554 S
C798 H823 0.979 1_554 S
C798 H824 0.980 . S
C798 H825 0.983 . S
C799 C800 1.391 . S
C799 C804 1.391 . S
C799 H829 0.948 . S
C800 C799 1.391 . S
C800 C801 1.391 . S
C801 C800 1.391 . S
C801 C802 1.392 . S
C801 H830 0.947 . S
C802 C801 1.392 . S
C802 C803 1.419 . S
C802 H831 0.948 . S
C803 C802 1.419 . S
C803 C804 1.391 . S
C803 C807 1.397 . S
C804 C799 1.391 . S
C804 C803 1.391 . S
C804 C805 1.399 . S
C805 C804 1.399 . S
C805 C806 1.396 . S
C805 C808 1.453 . S
C805 C809 1.684 . S
C806 C787 1.723 . S
C806 C805 1.396 . S
C806 C807 1.394 . S
C807 C803 1.397 . S
C807 C806 1.394 . S
C807 C817 1.723 . S
C808 C805 1.453 . S
C808 H832 0.982 . S
C808 H833 0.979 . S
C808 H834 0.977 . S
C809 C805 1.684 . S
C809 H835 0.979 . S
C809 H836 0.980 . S
C809 H837 0.983 . S
C810 H786 0.948 . S
C810 C811 1.391 . S
C810 C815 1.391 . S
C811 C810 1.391 . S
C811 C812 1.391 . S
C812 H789 0.947 1_556 S
C812 C811 1.391 . S
C812 C813 1.392 . S
C813 H790 0.948 . S
C813 C812 1.392 . S
C813 C814 1.419 . S
C814 C813 1.419 . S
C814 C815 1.391 . S
C814 C818 1.397 . S
C815 C810 1.391 . S
C815 C814 1.391 . S
C815 C816 1.399 . S
C816 C815 1.399 . S
C816 C817 1.396 . S
C816 C819 1.453 . S
C816 C820 1.684 . S
C817 C807 1.723 . S
C817 C816 1.396 . S
C817 C818 1.394 . S
C818 C788 1.723 . S
C818 C814 1.397 . S
C818 C817 1.394 . S
C819 H791 0.982 . S
C819 H795 0.979 . S
C819 H796 0.977 . S
C819 C816 1.453 . S
C820 H792 0.979 . S
C820 H793 0.980 . S
C820 H794 0.983 . S
C820 C816 1.684 . S
H821 C839 0.948 . S
H822 C780 0.948 . S
H823 C798 0.979 1_556 S
H824 C798 0.980 . S
H825 C798 0.983 . S
H826 C797 0.982 . S
H827 C797 0.979 . S
H828 C797 0.977 . S
H829 C799 0.948 . S
H830 C801 0.947 . S
H831 C802 0.948 . S
H832 C808 0.982 . S
H833 C808 0.979 . S
H834 C808 0.977 . S
H835 C809 0.979 . S
H836 C809 0.980 . S
H837 C809 0.983 . S
H838 C782 0.947 . S
C839 C782 1.392 . S
C839 C783 1.419 . S
C839 H821 0.948 . S
C840 C841 1.391 . S
C840 C844 1.391 . S
C840 H882 0.948 . S
C841 C840 1.391 . S
C841 C842 1.391 . S
C842 C841 1.391 . S
C842 H898 0.947 . S
C842 C899 1.392 . S
C843 C844 1.391 . S
C843 C847 1.397 . S
C843 C899 1.419 . S
C844 C840 1.391 . S
C844 C843 1.391 . S
C844 C845 1.399 . S
C845 C844 1.399 . S
C845 C848 1.396 . S
C845 C857 1.453 . S
C845 C858 1.684 . S
H846 C870 0.948 . S
C847 C843 1.397 . S
C847 C848 1.394 . S
C847 C866 1.723 . S
C848 C845 1.396 . S
C848 C847 1.394 . S
C848 C878 1.723 . S
H849 C872 0.947 . S
H850 C873 0.948 . S
H851 C879 0.982 . S
H852 C880 0.979 . S
H853 C880 0.980 . S
H854 C880 0.983 . S
H855 C879 0.979 . S
H856 C879 0.977 . S
C857 C845 1.453 . S
C857 H886 0.982 . S
C857 H887 0.979 . S
C857 H888 0.977 . S
C858 C845 1.684 . S
C858 H883 0.979 . S
C858 H884 0.980 . S
C858 H885 0.983 . S
C859 C860 1.391 . S
C859 C864 1.391 . S
C859 H889 0.948 . S
C860 C859 1.391 . S
C860 C861 1.391 . S
C861 C860 1.391 . S
C861 C862 1.392 . S
C861 H890 0.947 . S
C862 C861 1.392 . S
C862 C863 1.419 . S
C862 H891 0.948 . S
C863 C862 1.419 . S
C863 C864 1.391 . S
C863 C867 1.397 . S
C864 C859 1.391 . S
C864 C863 1.391 . S
C864 C865 1.399 . S
C865 C864 1.399 . S
C865 C866 1.396 . S
C865 C868 1.453 . S
C865 C869 1.684 . S
C866 C847 1.723 . S
C866 C865 1.396 . S
C866 C867 1.394 . S
C867 C863 1.397 . S
C867 C866 1.394 . S
C867 C877 1.723 . S
C868 C865 1.453 . S
C868 H892 0.982 . S
C868 H893 0.979 . S
C868 H894 0.977 . S
C869 C865 1.684 . S
C869 H895 0.979 . S
C869 H896 0.980 . S
C869 H897 0.983 . S
C870 H846 0.948 . S
C870 C871 1.391 . S
C870 C875 1.391 . S
C871 C870 1.391 . S
C871 C872 1.391 . S
C872 H849 0.947 . S
C872 C871 1.391 . S
C872 C873 1.392 . S
C873 H850 0.948 . S
C873 C872 1.392 . S
C873 C874 1.419 . S
C874 C873 1.419 . S
C874 C875 1.391 . S
C874 C878 1.397 . S
C875 C870 1.391 . S
C875 C874 1.391 . S
C875 C876 1.399 . S
C876 C875 1.399 . S
C876 C877 1.396 . S
C876 C879 1.453 . S
C876 C880 1.684 . S
C877 C867 1.723 . S
C877 C876 1.396 . S
C877 C878 1.394 . S
C878 C848 1.723 . S
C878 C874 1.397 . S
C878 C877 1.394 . S
C879 H851 0.982 . S
C879 H855 0.979 . S
C879 H856 0.977 . S
C879 C876 1.453 . S
C880 H852 0.979 . S
C880 H853 0.980 . S
C880 H854 0.983 . S
C880 C876 1.684 . S
H881 C899 0.948 . S
H882 C840 0.948 . S
H883 C858 0.979 . S
H884 C858 0.980 . S
H885 C858 0.983 . S
H886 C857 0.982 . S
H887 C857 0.979 . S
H888 C857 0.977 . S
H889 C859 0.948 . S
H890 C861 0.947 . S
H891 C862 0.948 . S
H892 C868 0.982 . S
H893 C868 0.979 . S
H894 C868 0.977 . S
H895 C869 0.979 . S
H896 C869 0.980 . S
H897 C869 0.983 . S
H898 C842 0.947 . S
C899 C842 1.392 . S
C899 C843 1.419 . S
C899 H881 0.948 . S
C900 C901 1.391 . S
C900 C904 1.391 1_565 S
C900 H942 0.948 1_556 S
C901 C900 1.391 . S
C901 C902 1.391 . S
C902 C901 1.391 . S
C902 H958 0.947 . S
C902 C959 1.392 . S
C903 C904 1.391 . S
C903 C907 1.397 . S
C903 C959 1.419 1_545 S
C904 C900 1.391 1_545 S
C904 C903 1.391 . S
C904 C905 1.399 . S
C905 C904 1.399 . S
C905 C908 1.396 . S
C905 C917 1.453 . S
C905 C918 1.684 1_556 S
H906 C930 0.948 . S
C907 C903 1.397 . S
C907 C908 1.394 . S
C907 C926 1.723 . S
C908 C905 1.396 . S
C908 C907 1.394 . S
C908 C938 1.723 . S
H909 C932 0.947 . S
H910 C933 0.948 . S
H911 C939 0.982 . S
H912 C940 0.979 . S
H913 C940 0.980 . S
H914 C940 0.983 . S
H915 C939 0.979 . S
H916 C939 0.977 . S
C917 C905 1.453 . S
C917 H946 0.982 . S
C917 H947 0.979 1_556 S
C917 H948 0.977 1_556 S
C918 C905 1.684 1_554 S
C918 H943 0.979 . S
C918 H944 0.980 . S
C918 H945 0.983 . S
C919 C920 1.391 . S
C919 C924 1.391 . S
C919 H949 0.948 1_545 S
C920 C919 1.391 . S
C920 C921 1.391 . S
C921 C920 1.391 . S
C921 C922 1.392 . S
C921 H950 0.947 . S
C922 C921 1.392 . S
C922 C923 1.419 . S
C922 H951 0.948 . S
C923 C922 1.419 . S
C923 C924 1.391 . S
C923 C927 1.397 . S
C924 C919 1.391 . S
C924 C923 1.391 . S
C924 C925 1.399 . S
C925 C924 1.399 . S
C925 C926 1.396 . S
C925 C928 1.453 . S
C925 C929 1.684 1_545 S
C926 C907 1.723 . S
C926 C925 1.396 . S
C926 C927 1.394 . S
C927 C923 1.397 . S
C927 C926 1.394 . S
C927 C937 1.723 . S
C928 C925 1.453 . S
C928 H952 0.983 . S
C928 H953 0.978 1_545 S
C928 H954 0.976 1_545 S
C929 C925 1.684 1_565 S
C929 H955 0.979 . S
C929 H956 0.980 . S
C929 H957 0.983 . S
C930 H906 0.948 . S
C930 C931 1.391 . S
C930 C935 1.391 1_554 S
C931 C930 1.391 . S
C931 C932 1.391 . S
C932 H909 0.947 . S
C932 C931 1.391 . S
C932 C933 1.392 . S
C933 H910 0.948 . S
C933 C932 1.392 . S
C933 C934 1.402 1_554 S
C934 C933 1.402 1_556 S
C934 C935 1.395 . S
C934 C938 1.411 . S
C935 C930 1.391 1_556 S
C935 C934 1.395 . S
C935 C936 1.399 . S
C936 C935 1.399 . S
C936 C937 1.396 . S
C936 C939 1.453 . S
C936 C940 1.684 . S
C937 C927 1.723 . S
C937 C936 1.396 . S
C937 C938 1.394 . S
C938 C908 1.723 . S
C938 C934 1.411 . S
C938 C937 1.394 . S
C939 H911 0.982 . S
C939 H915 0.979 . S
C939 H916 0.977 . S
C939 C936 1.453 . S
C940 H912 0.979 . S
C940 H913 0.980 . S
C940 H914 0.983 . S
C940 C936 1.684 . S
H941 C959 0.948 . S
H942 C900 0.948 1_554 S
H943 C918 0.979 . S
H944 C918 0.980 . S
H945 C918 0.983 . S
H946 C917 0.982 . S
H947 C917 0.979 1_554 S
H948 C917 0.977 1_554 S
H949 C919 0.948 1_565 S
H950 C921 0.947 . S
H951 C922 0.948 . S
H952 C928 0.983 . S
H953 C928 0.978 1_565 S
H954 C928 0.976 1_565 S
H955 C929 0.979 . S
H956 C929 0.980 . S
H957 C929 0.983 . S
H958 C902 0.947 . S
C959 C902 1.392 . S
C959 C903 1.419 1_565 S
C959 H941 0.948 . S
Mg960 O961 2.030 . S
Mg960 O967 1.986 1_554 S
Mg960 O969 2.114 . S
Mg960 O970 2.251 . S
Mg960 O973 2.010 . S
O961 Mg960 2.030 . S
O961 C964 1.248 1_554 S
O962 Mg963 2.028 . S
O962 C964 1.248 . S
Mg963 O962 2.028 . S
Mg963 O968 2.032 . S
Mg963 O970 2.079 1_556 S
C964 O961 1.248 1_556 S
C964 O962 1.248 . S
C965 O966 1.264 . S
C965 O973 1.249 . S
O966 C965 1.264 . S
O967 Mg960 1.986 1_556 S
O967 C971 1.246 . S
O968 Mg963 2.032 . S
O968 C971 1.259 . S
O969 Mg960 2.114 . S
O969 C972 1.252 . S
O970 Mg960 2.251 . S
O970 Mg963 2.079 1_554 S
O970 C972 1.273 . S
C971 O967 1.246 . S
C971 O968 1.259 . S
C972 O969 1.252 . S
C972 O970 1.273 . S
O973 Mg960 2.010 . S
O973 C965 1.249 . S
Mg974 O975 2.028 . S
Mg974 O981 1.986 . S
Mg974 O983 2.114 . S
Mg974 O984 2.251 . S
Mg974 O987 2.010 . S
O975 Mg974 2.028 . S
O975 C978 1.250 . S
O976 Mg977 2.028 . S
O976 C978 1.248 . S
Mg977 O976 2.028 . S
Mg977 O982 2.032 . S
Mg977 O984 2.079 . S
C978 O975 1.250 . S
C978 O976 1.248 . S
C979 O980 1.264 . S
C979 O987 1.249 . S
O980 C979 1.264 . S
O981 Mg974 1.986 . S
O981 C985 1.246 . S
O982 Mg977 2.032 . S
O982 C985 1.259 . S
O983 Mg974 2.114 . S
O983 C986 1.252 . S
O984 Mg974 2.251 . S
O984 Mg977 2.079 . S
O984 C986 1.273 . S
C985 O981 1.246 . S
C985 O982 1.259 . S
C986 O983 1.252 . S
C986 O984 1.273 . S
O987 Mg974 2.010 . S
O987 C979 1.249 . S
Mg988 O989 2.028 . S
Mg988 O995 1.986 1_554 S
Mg988 O997 2.114 . S
Mg988 O998 2.251 . S
Mg988 O1001 2.010 . S
O989 Mg988 2.028 . S
O989 C992 1.253 . S
O990 Mg991 2.028 . S
O990 C992 1.246 1_556 S
Mg991 O990 2.028 . S
Mg991 O996 2.032 . S
Mg991 O998 2.079 1_556 S
C992 O989 1.253 . S
C992 O990 1.246 1_554 S
C993 O994 1.264 . S
C993 O1001 1.249 . S
O994 C993 1.264 . S
O995 Mg988 1.986 1_556 S
O995 C999 1.246 . S
O996 Mg991 2.032 . S
O996 C999 1.259 . S
O997 Mg988 2.114 . S
O997 C1000 1.252 . S
O998 Mg988 2.251 . S
O998 Mg991 2.079 1_554 S
O998 C1000 1.273 . S
C999 O995 1.246 . S
C999 O996 1.259 . S
C1000 O997 1.252 . S
C1000 O998 1.273 . S
O1001 Mg988 2.010 . S
O1001 C993 1.249 . S
Mg1002 O1003 2.028 . S
Mg1002 O1009 1.986 . S
Mg1002 O1011 2.114 . S
Mg1002 O1012 2.251 . S
Mg1002 O1015 2.010 . S
O1003 Mg1002 2.028 . S
O1003 C1006 1.250 1_545 S
O1004 Mg1005 2.028 . S
O1004 C1006 1.248 . S
Mg1005 O1004 2.028 . S
Mg1005 O1010 2.032 . S
Mg1005 O1012 2.079 1_565 S
C1006 O1003 1.250 1_565 S
C1006 O1004 1.248 . S
C1007 O1008 1.264 . S
C1007 O1015 1.249 . S
O1008 C1007 1.264 . S
O1009 Mg1002 1.986 . S
O1009 C1013 1.246 . S
O1010 Mg1005 2.032 . S
O1010 C1013 1.259 1_565 S
O1011 Mg1002 2.114 . S
O1011 C1014 1.252 . S
O1012 Mg1002 2.251 . S
O1012 Mg1005 2.079 1_545 S
O1012 C1014 1.273 . S
C1013 O1009 1.246 . S
C1013 O1010 1.259 1_545 S
C1014 O1011 1.252 . S
C1014 O1012 1.273 . S
O1015 Mg1002 2.010 . S
O1015 C1007 1.249 . S
Mg1016 O1017 2.028 . S
Mg1016 O1023 1.986 . S
Mg1016 O1025 2.114 . S
Mg1016 O1026 2.251 . S
Mg1016 O1029 2.010 . S
O1017 Mg1016 2.028 . S
O1017 C1020 1.250 . S
O1018 Mg1019 2.028 . S
O1018 C1020 1.248 . S
Mg1019 O1018 2.028 . S
Mg1019 O1024 2.032 . S
Mg1019 O1026 2.079 . S
C1020 O1017 1.250 . S
C1020 O1018 1.248 . S
C1021 O1022 1.264 . S
C1021 O1029 1.249 . S
O1022 C1021 1.264 . S
O1023 Mg1016 1.986 . S
O1023 C1027 1.246 . S
O1024 Mg1019 2.032 . S
O1024 C1027 1.259 . S
O1025 Mg1016 2.114 . S
O1025 C1028 1.252 . S
O1026 Mg1016 2.251 . S
O1026 Mg1019 2.079 . S
O1026 C1028 1.273 . S
C1027 O1023 1.246 . S
C1027 O1024 1.259 . S
C1028 O1025 1.252 . S
C1028 O1026 1.273 . S
O1029 Mg1016 2.010 . S
O1029 C1021 1.249 . S
Mg1030 O1031 2.028 . S
Mg1030 O1037 1.986 . S
Mg1030 O1039 2.114 . S
Mg1030 O1040 2.251 . S
Mg1030 O1043 2.010 . S
O1031 Mg1030 2.028 . S
O1031 C1034 1.250 . S
O1032 Mg1033 2.028 . S
O1032 C1034 1.248 . S
Mg1033 O1032 2.028 . S
Mg1033 O1038 2.032 . S
Mg1033 O1040 2.079 . S
C1034 O1031 1.250 . S
C1034 O1032 1.248 . S
C1035 O1036 1.264 . S
C1035 O1043 1.249 . S
O1036 C1035 1.264 . S
O1037 Mg1030 1.986 . S
O1037 C1041 1.246 . S
O1038 Mg1033 2.032 . S
O1038 C1041 1.259 . S
O1039 Mg1030 2.114 . S
O1039 C1042 1.252 . S
O1040 Mg1030 2.251 . S
O1040 Mg1033 2.079 . S
O1040 C1042 1.273 . S
C1041 O1037 1.246 . S
C1041 O1038 1.259 . S
C1042 O1039 1.252 . S
C1042 O1040 1.273 . S
O1043 Mg1030 2.010 . S
O1043 C1035 1.249 . S
Mg1044 O1045 2.028 . S
Mg1044 O1051 1.986 . S
Mg1044 O1053 2.114 . S
Mg1044 O1054 2.251 . S
Mg1044 O1057 2.010 . S
O1045 Mg1044 2.028 . S
O1045 C1048 1.250 . S
O1046 Mg1047 2.028 . S
O1046 C1048 1.248 . S
Mg1047 O1046 2.028 . S
Mg1047 O1052 2.032 . S
Mg1047 O1054 2.079 . S
C1048 O1045 1.250 . S
C1048 O1046 1.248 . S
C1049 O1050 1.264 . S
C1049 O1057 1.249 . S
O1050 C1049 1.264 . S
O1051 Mg1044 1.986 . S
O1051 C1055 1.246 . S
O1052 Mg1047 2.032 . S
O1052 C1055 1.259 . S
O1053 Mg1044 2.114 . S
O1053 C1056 1.252 . S
O1054 Mg1044 2.251 . S
O1054 Mg1047 2.079 . S
O1054 C1056 1.273 . S
C1055 O1051 1.246 . S
C1055 O1052 1.259 . S
C1056 O1053 1.252 . S
C1056 O1054 1.273 . S
O1057 Mg1044 2.010 . S
O1057 C1049 1.249 . S
Mg1058 O1059 2.028 1_545 S
Mg1058 O1065 1.986 1_545 S
Mg1058 O1067 2.114 . S
Mg1058 O1068 2.251 . S
Mg1058 O1071 2.010 . S
O1059 Mg1058 2.028 1_565 S
O1059 C1062 1.250 . S
O1060 Mg1061 2.028 . S
O1060 C1062 1.248 . S
Mg1061 O1060 2.028 . S
Mg1061 O1066 2.032 . S
Mg1061 O1068 2.079 1_565 S
C1062 O1059 1.250 . S
C1062 O1060 1.248 . S
C1063 O1064 1.264 . S
C1063 O1071 1.249 . S
O1064 C1063 1.264 . S
O1065 Mg1058 1.986 1_565 S
O1065 C1069 1.246 . S
O1066 Mg1061 2.032 . S
O1066 C1069 1.259 . S
O1067 Mg1058 2.114 . S
O1067 C1070 1.252 . S
O1068 Mg1058 2.251 . S
O1068 Mg1061 2.079 1_545 S
O1068 C1070 1.273 . S
C1069 O1065 1.246 . S
C1069 O1066 1.259 . S
C1070 O1067 1.252 . S
C1070 O1068 1.273 . S
O1071 Mg1058 2.010 . S
O1071 C1063 1.249 . S
Mg1072 O1073 2.028 . S
Mg1072 O1079 1.986 . S
Mg1072 O1081 2.114 . S
Mg1072 O1082 2.251 . S
Mg1072 O1085 2.010 . S
O1073 Mg1072 2.028 . S
O1073 C1076 1.250 1_455 S
O1074 Mg1075 2.028 . S
O1074 C1076 1.248 . S
Mg1075 O1074 2.028 . S
Mg1075 O1080 2.032 . S
Mg1075 O1082 2.079 1_655 S
C1076 O1073 1.250 1_655 S
C1076 O1074 1.248 . S
C1077 O1078 1.264 . S
C1077 O1085 1.249 . S
O1078 C1077 1.264 . S
O1079 Mg1072 1.986 . S
O1079 C1083 1.246 . S
O1080 Mg1075 2.032 . S
O1080 C1083 1.259 1_655 S
O1081 Mg1072 2.114 . S
O1081 C1084 1.252 . S
O1082 Mg1072 2.251 . S
O1082 Mg1075 2.079 1_455 S
O1082 C1084 1.273 . S
C1083 O1079 1.246 . S
C1083 O1080 1.259 1_455 S
C1084 O1081 1.252 . S
C1084 O1082 1.273 . S
O1085 Mg1072 2.010 . S
O1085 C1077 1.249 . S
Mg1086 O1087 2.028 . S
Mg1086 O1093 1.986 . S
Mg1086 O1095 2.114 . S
Mg1086 O1096 2.251 . S
Mg1086 O1099 2.010 . S
O1087 Mg1086 2.028 . S
O1087 C1090 1.250 . S
O1088 Mg1089 2.028 . S
O1088 C1090 1.248 . S
Mg1089 O1088 2.028 . S
Mg1089 O1094 2.032 . S
Mg1089 O1096 2.079 . S
C1090 O1087 1.250 . S
C1090 O1088 1.248 . S
C1091 O1092 1.264 . S
C1091 O1099 1.249 . S
O1092 C1091 1.264 . S
O1093 Mg1086 1.986 . S
O1093 C1097 1.246 . S
O1094 Mg1089 2.032 . S
O1094 C1097 1.259 . S
O1095 Mg1086 2.114 . S
O1095 C1098 1.252 . S
O1096 Mg1086 2.251 . S
O1096 Mg1089 2.079 . S
O1096 C1098 1.273 . S
C1097 O1093 1.246 . S
C1097 O1094 1.259 . S
C1098 O1095 1.252 . S
C1098 O1096 1.273 . S
O1099 Mg1086 2.010 . S
O1099 C1091 1.249 . S
Mg1100 O1101 2.028 1_655 S
Mg1100 O1107 2.000 . S
Mg1100 O1109 2.114 . S
Mg1100 O1110 2.251 1_655 S
Mg1100 O1113 2.010 . S
O1101 Mg1100 2.028 1_455 S
O1101 C1104 1.250 . S
O1102 Mg1103 2.028 . S
O1102 C1104 1.248 . S
Mg1103 O1102 2.028 . S
Mg1103 O1108 2.032 . S
Mg1103 O1110 2.079 . S
C1104 O1101 1.250 . S
C1104 O1102 1.248 . S
C1105 O1106 1.264 . S
C1105 O1113 1.249 . S
O1106 C1105 1.264 . S
O1107 Mg1100 2.000 . S
O1107 C1111 1.208 1_655 S
O1108 Mg1103 2.032 . S
O1108 C1111 1.259 . S
O1109 Mg1100 2.114 . S
O1109 C1112 1.252 . S
O1110 Mg1100 2.251 1_455 S
O1110 Mg1103 2.079 . S
O1110 C1112 1.273 1_455 S
C1111 O1107 1.208 1_455 S
C1111 O1108 1.259 . S
C1112 O1109 1.252 . S
C1112 O1110 1.273 1_655 S
O1113 Mg1100 2.010 . S
O1113 C1105 1.249 . S
Mg1114 O1115 2.028 . S
Mg1114 O1121 1.986 . S
Mg1114 O1123 2.114 . S
Mg1114 O1124 2.251 . S
Mg1114 O1127 2.010 . S
O1115 Mg1114 2.028 . S
O1115 C1118 1.250 . S
O1116 Mg1117 2.028 . S
O1116 C1118 1.248 . S
Mg1117 O1116 2.028 . S
Mg1117 O1122 2.032 . S
Mg1117 O1124 2.079 . S
C1118 O1115 1.250 . S
C1118 O1116 1.248 . S
C1119 O1120 1.264 . S
C1119 O1127 1.249 . S
O1120 C1119 1.264 . S
O1121 Mg1114 1.986 . S
O1121 C1125 1.246 . S
O1122 Mg1117 2.032 . S
O1122 C1125 1.259 . S
O1123 Mg1114 2.114 . S
O1123 C1126 1.252 . S
O1124 Mg1114 2.251 . S
O1124 Mg1117 2.079 . S
O1124 C1126 1.273 . S
C1125 O1121 1.246 . S
C1125 O1122 1.259 . S
C1126 O1123 1.252 . S
C1126 O1124 1.273 . S
O1127 Mg1114 2.010 . S
O1127 C1119 1.249 . S
H1128 C1136 0.950 . S
H1129 C1141 0.950 . S
H1130 C1138 0.950 . S
H1131 C1140 0.950 . S
H1132 C1142 0.950 . S
H1133 C1144 0.950 . S
H1134 C1146 0.950 . S
H1135 C1147 0.950 . S
C1136 H1128 0.950 . S
C1136 C1137 1.386 . S
C1136 C1138 1.391 . S
C1137 C1136 1.386 . S
C1137 C1141 1.393 . S
C1138 H1130 0.950 . S
C1138 C1136 1.391 . S
C1138 C1139 1.400 . S
C1139 C1138 1.400 . S
C1139 C1140 1.398 . S
C1139 C1145 1.491 . S
C1140 H1131 0.950 . S
C1140 C1139 1.398 . S
C1140 C1141 1.391 . S
C1141 H1129 0.950 . S
C1141 C1137 1.393 . S
C1141 C1140 1.391 . S
C1142 H1132 0.950 . S
C1142 C1143 1.386 . S
C1142 C1144 1.391 . S
C1143 C1142 1.386 . S
C1143 C1147 1.393 . S
C1144 H1133 0.950 . S
C1144 C1142 1.391 . S
C1144 C1145 1.400 . S
C1145 C1139 1.491 . S
C1145 C1144 1.400 . S
C1145 C1146 1.398 . S
C1146 H1134 0.950 . S
C1146 C1145 1.398 . S
C1146 C1147 1.391 . S
C1147 H1135 0.950 . S
C1147 C1143 1.393 . S
C1147 C1146 1.391 . S
H1148 C1156 0.950 . S
H1149 C1161 0.950 . S
H1150 C1158 0.950 . S
H1151 C1160 0.950 . S
H1152 C1162 0.950 . S
H1153 C1164 0.950 . S
H1154 C1166 0.950 . S
H1155 C1167 0.950 . S
C1156 H1148 0.950 . S
C1156 C1157 1.386 . S
C1156 C1158 1.391 . S
C1157 C1156 1.386 . S
C1157 C1161 1.393 . S
C1158 H1150 0.950 . S
C1158 C1156 1.391 . S
C1158 C1159 1.400 . S
C1159 C1158 1.400 . S
C1159 C1160 1.398 . S
C1159 C1165 1.491 . S
C1160 H1151 0.950 . S
C1160 C1159 1.398 . S
C1160 C1161 1.391 . S
C1161 H1149 0.950 . S
C1161 C1157 1.393 . S
C1161 C1160 1.391 . S
C1162 H1152 0.950 . S
C1162 C1163 1.386 . S
C1162 C1164 1.391 . S
C1163 C1162 1.386 . S
C1163 C1167 1.393 . S
C1164 H1153 0.950 . S
C1164 C1162 1.391 . S
C1164 C1165 1.400 . S
C1165 C1159 1.491 . S
C1165 C1164 1.400 . S
C1165 C1166 1.398 . S
C1166 H1154 0.950 . S
C1166 C1165 1.398 . S
C1166 C1167 1.391 . S
C1167 H1155 0.950 . S
C1167 C1163 1.393 . S
C1167 C1166 1.391 . S
H1168 C1176 0.950 . S
H1169 C1181 0.950 . S
H1170 C1178 0.950 . S
H1171 C1180 0.950 . S
H1172 C1182 0.950 . S
H1173 C1184 0.950 . S
H1174 C1186 0.950 . S
H1175 C1187 0.950 . S
C1176 H1168 0.950 . S
C1176 C1177 1.386 . S
C1176 C1178 1.391 . S
C1177 C1176 1.386 . S
C1177 C1181 1.393 . S
C1178 H1170 0.950 . S
C1178 C1176 1.391 . S
C1178 C1179 1.400 . S
C1179 C1178 1.400 . S
C1179 C1180 1.398 . S
C1179 C1185 1.491 . S
C1180 H1171 0.950 . S
C1180 C1179 1.398 . S
C1180 C1181 1.391 . S
C1181 H1169 0.950 . S
C1181 C1177 1.393 . S
C1181 C1180 1.391 . S
C1182 H1172 0.950 . S
C1182 C1183 1.386 . S
C1182 C1184 1.391 . S
C1183 C1182 1.386 . S
C1183 C1187 1.393 . S
C1184 H1173 0.950 . S
C1184 C1182 1.391 . S
C1184 C1185 1.400 . S
C1185 C1179 1.491 . S
C1185 C1184 1.400 . S
C1185 C1186 1.398 . S
C1186 H1174 0.950 . S
C1186 C1185 1.398 . S
C1186 C1187 1.391 . S
C1187 H1175 0.950 . S
C1187 C1183 1.393 . S
C1187 C1186 1.391 . S
H1188 C1196 0.950 1_455 S
H1189 C1201 0.950 . S
H1190 C1198 0.950 . S
H1191 C1200 0.950 . S
H1192 C1202 0.950 . S
H1193 C1204 0.950 . S
H1194 C1206 0.950 . S
H1195 C1207 0.950 . S
C1196 H1188 0.950 1_655 S
C1196 C1197 1.386 1_545 S
C1196 C1198 1.391 . S
C1197 C1196 1.386 1_565 S
C1197 C1201 1.393 . S
C1198 H1190 0.950 . S
C1198 C1196 1.391 . S
C1198 C1199 1.400 1_545 S
C1199 C1198 1.400 1_565 S
C1199 C1200 1.398 . S
C1199 C1205 1.498 . S
C1200 H1191 0.950 . S
C1200 C1199 1.398 . S
C1200 C1201 1.391 . S
C1201 H1189 0.950 . S
C1201 C1197 1.393 . S
C1201 C1200 1.391 . S
C1202 H1192 0.950 . S
C1202 C1203 1.386 1_565 S
C1202 C1204 1.391 . S
C1203 C1202 1.386 1_545 S
C1203 C1207 1.393 . S
C1204 H1193 0.950 . S
C1204 C1202 1.391 . S
C1204 C1205 1.414 . S
C1205 C1199 1.498 . S
C1205 C1204 1.414 . S
C1205 C1206 1.377 1_565 S
C1206 H1194 0.950 . S
C1206 C1205 1.377 1_545 S
C1206 C1207 1.391 . S
C1207 H1195 0.950 . S
C1207 C1203 1.393 . S
C1207 C1206 1.391 . S
H1208 C1216 0.950 . S
H1209 C1221 0.950 . S
H1210 C1218 0.950 . S
H1211 C1220 0.950 . S
H1212 C1222 0.950 . S
H1213 C1224 0.950 . S
H1214 C1226 0.950 . S
H1215 C1227 0.950 . S
C1216 H1208 0.950 . S
C1216 C1217 1.386 . S
C1216 C1218 1.391 . S
C1217 C1216 1.386 . S
C1217 C1221 1.393 . S
C1218 H1210 0.950 . S
C1218 C1216 1.391 . S
C1218 C1219 1.400 . S
C1219 C1218 1.400 . S
C1219 C1220 1.398 . S
C1219 C1225 1.491 . S
C1220 H1211 0.950 . S
C1220 C1219 1.398 . S
C1220 C1221 1.391 . S
C1221 H1209 0.950 . S
C1221 C1217 1.393 . S
C1221 C1220 1.391 . S
C1222 H1212 0.950 . S
C1222 C1223 1.386 . S
C1222 C1224 1.391 . S
C1223 C1222 1.386 . S
C1223 C1227 1.393 . S
C1224 H1213 0.950 . S
C1224 C1222 1.391 . S
C1224 C1225 1.400 . S
C1225 C1219 1.491 . S
C1225 C1224 1.400 . S
C1225 C1226 1.398 . S
C1226 H1214 0.950 . S
C1226 C1225 1.398 . S
C1226 C1227 1.391 . S
C1227 H1215 0.950 . S
C1227 C1223 1.393 . S
C1227 C1226 1.391 . S
H1228 C1236 0.950 . S
H1229 C1241 0.950 . S
H1230 C1238 0.950 . S
H1231 C1240 0.950 . S
H1232 C1242 0.950 . S
H1233 C1244 0.950 . S
H1234 C1246 0.950 . S
H1235 C1247 0.950 . S
C1236 H1228 0.950 . S
C1236 C1237 1.386 . S
C1236 C1238 1.391 . S
C1237 C1236 1.386 . S
C1237 C1241 1.393 . S
C1238 H1230 0.950 . S
C1238 C1236 1.391 . S
C1238 C1239 1.400 . S
C1239 C1238 1.400 . S
C1239 C1240 1.398 . S
C1239 C1245 1.491 . S
C1240 H1231 0.950 . S
C1240 C1239 1.398 . S
C1240 C1241 1.391 . S
C1241 H1229 0.950 . S
C1241 C1237 1.393 . S
C1241 C1240 1.391 . S
C1242 H1232 0.950 . S
C1242 C1243 1.386 . S
C1242 C1244 1.391 . S
C1243 C1242 1.386 . S
C1243 C1247 1.393 . S
C1244 H1233 0.950 . S
C1244 C1242 1.391 . S
C1244 C1245 1.400 . S
C1245 C1239 1.491 . S
C1245 C1244 1.400 . S
C1245 C1246 1.398 . S
C1246 H1234 0.950 . S
C1246 C1245 1.398 . S
C1246 C1247 1.391 . S
C1247 H1235 0.950 . S
C1247 C1243 1.393 . S
C1247 C1246 1.391 . S
H1248 C1256 0.950 . S
H1249 C1261 0.950 . S
H1250 C1258 0.950 . S
H1251 C1260 0.950 . S
H1252 C1262 0.950 . S
H1253 C1264 0.950 . S
H1254 C1266 0.950 . S
H1255 C1267 0.950 . S
C1256 H1248 0.950 . S
C1256 C1257 1.386 . S
C1256 C1258 1.391 . S
C1257 C1256 1.386 . S
C1257 C1261 1.393 . S
C1258 H1250 0.950 . S
C1258 C1256 1.391 . S
C1258 C1259 1.400 . S
C1259 C1258 1.400 . S
C1259 C1260 1.398 . S
C1259 C1265 1.491 . S
C1260 H1251 0.950 . S
C1260 C1259 1.398 . S
C1260 C1261 1.391 . S
C1261 H1249 0.950 . S
C1261 C1257 1.393 . S
C1261 C1260 1.391 . S
C1262 H1252 0.950 . S
C1262 C1263 1.386 . S
C1262 C1264 1.391 . S
C1263 C1262 1.386 . S
C1263 C1267 1.393 . S
C1264 H1253 0.950 . S
C1264 C1262 1.391 . S
C1264 C1265 1.400 . S
C1265 C1259 1.491 . S
C1265 C1264 1.400 . S
C1265 C1266 1.398 . S
C1266 H1254 0.950 . S
C1266 C1265 1.398 . S
C1266 C1267 1.391 . S
C1267 H1255 0.950 . S
C1267 C1263 1.393 . S
C1267 C1266 1.391 . S
H1268 C1276 0.950 . S
H1269 C1281 0.950 . S
H1270 C1278 0.950 . S
H1271 C1280 0.950 . S
H1272 C1282 0.950 . S
H1273 C1284 0.950 . S
H1274 C1286 0.948 1_545 S
H1275 C1287 0.931 1_545 S
C1276 H1268 0.950 . S
C1276 C1277 1.386 . S
C1276 C1278 1.391 . S
C1277 C1276 1.386 . S
C1277 C1281 1.393 . S
C1278 H1270 0.950 . S
C1278 C1276 1.391 . S
C1278 C1279 1.400 . S
C1279 C1278 1.400 . S
C1279 C1280 1.398 . S
C1279 C1285 1.491 . S
C1280 H1271 0.950 . S
C1280 C1279 1.398 . S
C1280 C1281 1.391 . S
C1281 H1269 0.950 . S
C1281 C1277 1.393 . S
C1281 C1280 1.391 . S
C1282 H1272 0.950 . S
C1282 C1283 1.386 . S
C1282 C1284 1.391 . S
C1283 C1282 1.386 . S
C1283 C1287 1.408 . S
C1284 H1273 0.950 . S
C1284 C1282 1.391 . S
C1284 C1285 1.400 . S
C1285 C1279 1.491 . S
C1285 C1284 1.400 . S
C1285 C1286 1.398 . S
C1286 H1274 0.948 1_565 S
C1286 C1285 1.398 . S
C1286 C1287 1.397 . S
C1287 H1275 0.931 1_565 S
C1287 C1283 1.408 . S
C1287 C1286 1.397 . S
H1288 C1296 0.950 . S
H1289 C1301 0.950 . S
H1290 C1298 0.950 . S
H1291 C1300 0.950 . S
H1292 C1302 0.950 . S
H1293 C1304 0.950 . S
H1294 C1306 0.950 . S
H1295 C1307 0.950 . S
C1296 H1288 0.950 . S
C1296 C1297 1.386 . S
C1296 C1298 1.391 . S
C1297 C1296 1.386 . S
C1297 C1301 1.393 . S
C1298 H1290 0.950 . S
C1298 C1296 1.391 . S
C1298 C1299 1.400 . S
C1299 C1298 1.400 . S
C1299 C1300 1.398 . S
C1299 C1305 1.491 . S
C1300 H1291 0.950 . S
C1300 C1299 1.398 . S
C1300 C1301 1.391 . S
C1301 H1289 0.950 . S
C1301 C1297 1.393 . S
C1301 C1300 1.391 . S
C1302 H1292 0.950 . S
C1302 C1303 1.386 . S
C1302 C1304 1.391 . S
C1303 C1302 1.386 . S
C1303 C1307 1.393 . S
C1304 H1293 0.950 . S
C1304 C1302 1.391 . S
C1304 C1305 1.400 . S
C1305 C1299 1.491 . S
C1305 C1304 1.400 . S
C1305 C1306 1.398 . S
C1306 H1294 0.950 . S
C1306 C1305 1.398 . S
C1306 C1307 1.391 . S
C1307 H1295 0.950 . S
C1307 C1303 1.393 . S
C1307 C1306 1.391 . S
H1308 C1316 0.950 . S
H1309 C1321 0.950 . S
H1310 C1318 0.950 . S
H1311 C1320 0.950 . S
H1312 C1322 0.950 . S
H1313 C1324 0.950 . S
H1314 C1326 0.950 . S
H1315 C1327 0.950 . S
C1316 H1308 0.950 . S
C1316 C1317 1.386 . S
C1316 C1318 1.391 . S
C1317 C1316 1.386 . S
C1317 C1321 1.393 . S
C1318 H1310 0.950 . S
C1318 C1316 1.391 . S
C1318 C1319 1.400 . S
C1319 C1318 1.400 . S
C1319 C1320 1.398 . S
C1319 C1325 1.491 . S
C1320 H1311 0.950 . S
C1320 C1319 1.398 . S
C1320 C1321 1.391 . S
C1321 H1309 0.950 . S
C1321 C1317 1.393 . S
C1321 C1320 1.391 . S
C1322 H1312 0.950 . S
C1322 C1323 1.386 . S
C1322 C1324 1.391 . S
C1323 C1322 1.386 . S
C1323 C1327 1.393 . S
C1324 H1313 0.950 . S
C1324 C1322 1.391 . S
C1324 C1325 1.400 . S
C1325 C1319 1.491 . S
C1325 C1324 1.400 . S
C1325 C1326 1.398 . S
C1326 H1314 0.950 . S
C1326 C1325 1.398 . S
C1326 C1327 1.391 . S
C1327 H1315 0.950 . S
C1327 C1323 1.393 . S
C1327 C1326 1.391 . S
H1328 C1336 0.950 . S
H1329 C1341 0.950 . S
H1330 C1338 0.950 . S
H1331 C1340 0.950 . S
H1332 C1342 0.950 . S
H1333 C1344 0.950 . S
H1334 C1346 0.950 . S
H1335 C1347 0.950 . S
C1336 H1328 0.950 . S
C1336 C1337 1.386 . S
C1336 C1338 1.391 . S
C1337 C1336 1.386 . S
C1337 C1341 1.393 . S
C1338 H1330 0.950 . S
C1338 C1336 1.391 . S
C1338 C1339 1.400 . S
C1339 C1338 1.400 . S
C1339 C1340 1.398 . S
C1339 C1345 1.491 . S
C1340 H1331 0.950 . S
C1340 C1339 1.398 . S
C1340 C1341 1.391 . S
C1341 H1329 0.950 . S
C1341 C1337 1.393 . S
C1341 C1340 1.391 . S
C1342 H1332 0.950 . S
C1342 C1343 1.386 . S
C1342 C1344 1.391 . S
C1343 C1342 1.386 . S
C1343 C1347 1.393 . S
C1344 H1333 0.950 . S
C1344 C1342 1.391 . S
C1344 C1345 1.400 . S
C1345 C1339 1.491 . S
C1345 C1344 1.400 . S
C1345 C1346 1.398 . S
C1346 H1334 0.950 . S
C1346 C1345 1.398 . S
C1346 C1347 1.391 . S
C1347 H1335 0.950 . S
C1347 C1343 1.393 . S
C1347 C1346 1.391 . S
H1348 C1356 0.950 . S
H1349 C1361 0.950 . S
H1350 C1358 0.950 . S
H1351 C1360 0.950 . S
H1352 C1362 0.950 . S
H1353 C1364 0.950 . S
H1354 C1366 0.950 . S
H1355 C1367 0.950 . S
C1356 H1348 0.950 . S
C1356 C1357 1.386 . S
C1356 C1358 1.391 . S
C1357 C1356 1.386 . S
C1357 C1361 1.393 . S
C1358 H1350 0.950 . S
C1358 C1356 1.391 . S
C1358 C1359 1.400 . S
C1359 C1358 1.400 . S
C1359 C1360 1.398 . S
C1359 C1365 1.491 . S
C1360 H1351 0.950 . S
C1360 C1359 1.398 . S
C1360 C1361 1.391 . S
C1361 H1349 0.950 . S
C1361 C1357 1.393 . S
C1361 C1360 1.391 . S
C1362 H1352 0.950 . S
C1362 C1363 1.386 . S
C1362 C1364 1.391 . S
C1363 C1362 1.386 . S
C1363 C1367 1.393 . S
C1364 H1353 0.950 . S
C1364 C1362 1.391 . S
C1364 C1365 1.400 . S
C1365 C1359 1.491 . S
C1365 C1364 1.400 . S
C1365 C1366 1.398 . S
C1366 H1354 0.950 . S
C1366 C1365 1.398 . S
C1366 C1367 1.391 . S
C1367 H1355 0.950 . S
C1367 C1363 1.393 . S
C1367 C1366 1.391 . S
H1368 C1376 0.950 . S
H1369 C1381 0.950 . S
H1370 C1378 0.950 . S
H1371 C1380 0.950 . S
H1372 C1382 0.950 . S
H1373 C1384 0.950 . S
H1374 C1386 0.950 . S
H1375 C1387 0.950 . S
C1376 H1368 0.950 . S
C1376 C1377 1.386 . S
C1376 C1378 1.391 . S
C1377 C1376 1.386 . S
C1377 C1381 1.393 . S
C1378 H1370 0.950 . S
C1378 C1376 1.391 . S
C1378 C1379 1.400 . S
C1379 C1378 1.400 . S
C1379 C1380 1.398 . S
C1379 C1385 1.491 . S
C1380 H1371 0.950 . S
C1380 C1379 1.398 . S
C1380 C1381 1.391 . S
C1381 H1369 0.950 . S
C1381 C1377 1.393 . S
C1381 C1380 1.391 . S
C1382 H1372 0.950 . S
C1382 C1383 1.386 . S
C1382 C1384 1.391 . S
C1383 C1382 1.386 . S
C1383 C1387 1.393 . S
C1384 H1373 0.950 . S
C1384 C1382 1.391 . S
C1384 C1385 1.400 . S
C1385 C1379 1.491 . S
C1385 C1384 1.400 . S
C1385 C1386 1.398 . S
C1386 H1374 0.950 . S
C1386 C1385 1.398 . S
C1386 C1387 1.391 . S
C1387 H1375 0.950 . S
C1387 C1383 1.393 . S
C1387 C1386 1.391 . S
H1388 C1396 0.950 . S
H1389 C1401 0.950 . S
H1390 C1398 0.950 . S
H1391 C1400 0.950 . S
H1392 C1402 0.950 . S
H1393 C1404 0.950 . S
H1394 C1406 0.950 1_655 S
H1395 C1407 0.946 1_655 S
C1396 H1388 0.950 . S
C1396 C1397 1.386 . S
C1396 C1398 1.391 . S
C1397 C1396 1.386 . S
C1397 C1401 1.393 . S
C1398 H1390 0.950 . S
C1398 C1396 1.391 . S
C1398 C1399 1.400 . S
C1399 C1398 1.400 . S
C1399 C1400 1.398 . S
C1399 C1405 1.491 . S
C1400 H1391 0.950 . S
C1400 C1399 1.398 . S
C1400 C1401 1.391 . S
C1401 H1389 0.950 . S
C1401 C1397 1.393 . S
C1401 C1400 1.391 . S
C1402 H1392 0.950 . S
C1402 C1403 1.386 . S
C1402 C1404 1.391 . S
C1403 C1402 1.386 . S
C1403 C1407 1.396 . S
C1404 H1393 0.950 . S
C1404 C1402 1.391 . S
C1404 C1405 1.400 . S
C1405 C1399 1.491 . S
C1405 C1404 1.400 . S
C1405 C1406 1.398 . S
C1406 H1394 0.950 1_455 S
C1406 C1405 1.398 . S
C1406 C1407 1.392 . S
C1407 H1395 0.946 1_455 S
C1407 C1403 1.396 . S
C1407 C1406 1.392 . S
H1408 C1416 0.950 . S
H1409 C1421 0.950 . S
H1410 C1418 0.950 . S
H1411 C1420 0.950 . S
H1412 C1422 0.950 . S
H1413 C1424 0.950 . S
H1414 C1426 0.950 . S
H1415 C1427 0.950 . S
C1416 H1408 0.950 . S
C1416 C1417 1.386 . S
C1416 C1418 1.391 . S
C1417 C1416 1.386 . S
C1417 C1421 1.393 . S
C1418 H1410 0.950 . S
C1418 C1416 1.391 . S
C1418 C1419 1.400 . S
C1419 C1418 1.400 . S
C1419 C1420 1.398 . S
C1419 C1425 1.491 . S
C1420 H1411 0.950 . S
C1420 C1419 1.398 . S
C1420 C1421 1.391 . S
C1421 H1409 0.950 . S
C1421 C1417 1.393 . S
C1421 C1420 1.391 . S
C1422 H1412 0.950 . S
C1422 C1423 1.386 . S
C1422 C1424 1.391 . S
C1423 C1422 1.386 . S
C1423 C1427 1.393 . S
C1424 H1413 0.950 . S
C1424 C1422 1.391 . S
C1424 C1425 1.400 . S
C1425 C1419 1.491 . S
C1425 C1424 1.400 . S
C1425 C1426 1.398 . S
C1426 H1414 0.950 . S
C1426 C1425 1.398 . S
C1426 C1427 1.391 . S
C1427 H1415 0.950 . S
C1427 C1423 1.393 . S
C1427 C1426 1.391 . S
H1428 C1436 0.998 . S
H1429 C1441 0.950 . S
H1430 C1438 0.950 . S
H1431 C1440 0.950 . S
H1432 C1442 0.950 . S
H1433 C1444 0.950 . S
H1434 C1446 0.950 . S
H1435 C1447 0.950 . S
C1436 H1428 0.998 . S
C1436 C1437 1.335 1_455 S
C1436 C1438 1.395 . S
C1437 C1436 1.335 1_655 S
C1437 C1441 1.393 . S
C1438 H1430 0.950 . S
C1438 C1436 1.395 . S
C1438 C1439 1.400 1_455 S
C1439 C1438 1.400 1_655 S
C1439 C1440 1.398 . S
C1439 C1445 1.491 . S
C1440 H1431 0.950 . S
C1440 C1439 1.398 . S
C1440 C1441 1.391 . S
C1441 H1429 0.950 . S
C1441 C1437 1.393 . S
C1441 C1440 1.391 . S
C1442 H1432 0.950 . S
C1442 C1443 1.386 . S
C1442 C1444 1.391 . S
C1443 C1442 1.386 . S
C1443 C1447 1.393 1_655 S
C1444 H1433 0.950 . S
C1444 C1442 1.391 . S
C1444 C1445 1.400 . S
C1445 C1439 1.491 . S
C1445 C1444 1.400 . S
C1445 C1446 1.398 1_655 S
C1446 H1434 0.950 . S
C1446 C1445 1.398 1_455 S
C1446 C1447 1.391 . S
C1447 H1435 0.950 . S
C1447 C1443 1.393 1_455 S
C1447 C1446 1.391 . S
H1448 C1456 0.950 . S
H1449 C1461 0.950 . S
H1450 C1458 0.950 . S
H1451 C1460 0.950 . S
H1452 C1462 0.950 . S
H1453 C1464 0.950 . S
H1454 C1466 0.950 . S
H1455 C1467 0.950 . S
C1456 H1448 0.950 . S
C1456 C1457 1.386 . S
C1456 C1458 1.391 . S
C1457 C1456 1.386 . S
C1457 C1461 1.393 . S
C1458 H1450 0.950 . S
C1458 C1456 1.391 . S
C1458 C1459 1.400 . S
C1459 C1458 1.400 . S
C1459 C1460 1.398 . S
C1459 C1465 1.491 . S
C1460 H1451 0.950 . S
C1460 C1459 1.398 . S
C1460 C1461 1.391 . S
C1461 H1449 0.950 . S
C1461 C1457 1.393 . S
C1461 C1460 1.391 . S
C1462 H1452 0.950 . S
C1462 C1463 1.386 . S
C1462 C1464 1.391 . S
C1463 C1462 1.386 . S
C1463 C1467 1.393 . S
C1464 H1453 0.950 . S
C1464 C1462 1.391 . S
C1464 C1465 1.400 . S
C1465 C1459 1.491 . S
C1465 C1464 1.400 . S
C1465 C1466 1.398 . S
C1466 H1454 0.950 . S
C1466 C1465 1.398 . S
C1466 C1467 1.391 . S
C1467 H1455 0.950 . S
C1467 C1463 1.393 . S
C1467 C1466 1.391 . S
H1468 C1476 0.950 . S
H1469 C1481 0.950 . S
H1470 C1478 0.950 . S
H1471 C1480 0.950 . S
H1472 C1482 0.950 . S
H1473 C1484 0.950 . S
H1474 C1486 0.950 . S
H1475 C1487 0.950 . S
C1476 H1468 0.950 . S
C1476 C1477 1.386 . S
C1476 C1478 1.391 . S
C1477 C1476 1.386 . S
C1477 C1481 1.393 . S
C1478 H1470 0.950 . S
C1478 C1476 1.391 . S
C1478 C1479 1.400 . S
C1479 C1478 1.400 . S
C1479 C1480 1.398 . S
C1479 C1485 1.491 . S
C1480 H1471 0.950 . S
C1480 C1479 1.398 . S
C1480 C1481 1.391 . S
C1481 H1469 0.950 . S
C1481 C1477 1.393 . S
C1481 C1480 1.391 . S
C1482 H1472 0.950 . S
C1482 C1483 1.386 . S
C1482 C1484 1.391 . S
C1483 C1482 1.386 . S
C1483 C1487 1.393 . S
C1484 H1473 0.950 . S
C1484 C1482 1.391 . S
C1484 C1485 1.400 . S
C1485 C1479 1.491 . S
C1485 C1484 1.400 . S
C1485 C1486 1.398 . S
C1486 H1474 0.950 . S
C1486 C1485 1.398 . S
C1486 C1487 1.391 . S
C1487 H1475 0.950 . S
C1487 C1483 1.393 . S
C1487 C1486 1.391 . S
H1488 C1496 0.950 . S
H1489 C1501 0.929 1_554 S
H1490 C1498 0.950 . S
H1491 C1500 0.950 . S
H1492 C1502 0.950 . S
H1493 C1504 0.950 . S
H1494 C1506 0.950 . S
H1495 C1507 0.950 . S
C1496 H1488 0.950 . S
C1496 C1497 1.386 . S
C1496 C1498 1.391 . S
C1497 C1496 1.386 . S
C1497 C1501 1.418 . S
C1498 H1490 0.950 . S
C1498 C1496 1.391 . S
C1498 C1499 1.400 . S
C1499 C1498 1.400 . S
C1499 C1500 1.398 1_556 S
C1499 C1505 1.491 . S
C1500 H1491 0.950 . S
C1500 C1499 1.398 1_554 S
C1500 C1501 1.386 1_554 S
C1501 H1489 0.929 1_556 S
C1501 C1497 1.418 . S
C1501 C1500 1.386 1_556 S
C1502 H1492 0.950 . S
C1502 C1503 1.386 1_554 S
C1502 C1504 1.391 . S
C1503 C1502 1.386 1_556 S
C1503 C1507 1.393 . S
C1504 H1493 0.950 . S
C1504 C1502 1.391 . S
C1504 C1505 1.400 1_554 S
C1505 C1499 1.491 . S
C1505 C1504 1.400 1_556 S
C1505 C1506 1.398 . S
C1506 H1494 0.950 . S
C1506 C1505 1.398 . S
C1506 C1507 1.391 . S
C1507 H1495 0.950 . S
C1507 C1503 1.393 . S
C1507 C1506 1.391 . S
H1508 C1516 0.950 . S
H1509 C1521 0.950 . S
H1510 C1518 0.950 . S
H1511 C1520 0.950 . S
H1512 C1522 0.950 . S
H1513 C1524 0.950 . S
H1514 C1526 0.950 . S
H1515 C1527 0.950 . S
C1516 H1508 0.950 . S
C1516 C1517 1.386 . S
C1516 C1518 1.391 . S
C1517 C1516 1.386 . S
C1517 C1521 1.393 . S
C1518 H1510 0.950 . S
C1518 C1516 1.391 . S
C1518 C1519 1.400 . S
C1519 C1518 1.400 . S
C1519 C1520 1.398 . S
C1519 C1525 1.491 . S
C1520 H1511 0.950 . S
C1520 C1519 1.398 . S
C1520 C1521 1.391 . S
C1521 H1509 0.950 . S
C1521 C1517 1.393 . S
C1521 C1520 1.391 . S
C1522 H1512 0.950 . S
C1522 C1523 1.386 . S
C1522 C1524 1.391 . S
C1523 C1522 1.386 . S
C1523 C1527 1.393 . S
C1524 H1513 0.950 . S
C1524 C1522 1.391 . S
C1524 C1525 1.400 . S
C1525 C1519 1.491 . S
C1525 C1524 1.400 . S
C1525 C1526 1.398 . S
C1526 H1514 0.950 . S
C1526 C1525 1.398 . S
C1526 C1527 1.391 . S
C1527 H1515 0.950 . S
C1527 C1523 1.393 . S
C1527 C1526 1.391 . S
H1528 C1536 0.950 . S
H1529 C1541 0.950 . S
H1530 C1538 0.950 . S
H1531 C1540 0.950 . S
H1532 C1542 0.950 . S
H1533 C1544 0.950 . S
H1534 C1546 0.950 . S
H1535 C1547 0.950 . S
C1536 H1528 0.950 . S
C1536 C1537 1.386 . S
C1536 C1538 1.391 . S
C1537 C1536 1.386 . S
C1537 C1541 1.393 . S
C1538 H1530 0.950 . S
C1538 C1536 1.391 . S
C1538 C1539 1.400 . S
C1539 C1538 1.400 . S
C1539 C1540 1.398 . S
C1539 C1545 1.491 . S
C1540 H1531 0.950 . S
C1540 C1539 1.398 . S
C1540 C1541 1.391 . S
C1541 H1529 0.950 . S
C1541 C1537 1.393 . S
C1541 C1540 1.391 . S
C1542 H1532 0.950 . S
C1542 C1543 1.386 . S
C1542 C1544 1.391 . S
C1543 C1542 1.386 . S
C1543 C1547 1.393 . S
C1544 H1533 0.950 . S
C1544 C1542 1.391 . S
C1544 C1545 1.400 . S
C1545 C1539 1.491 . S
C1545 C1544 1.400 . S
C1545 C1546 1.398 . S
C1546 H1534 0.950 . S
C1546 C1545 1.398 . S
C1546 C1547 1.391 . S
C1547 H1535 0.950 . S
C1547 C1543 1.393 . S
C1547 C1546 1.391 . S
H1548 C1556 0.950 . S
H1549 C1561 0.950 . S
H1550 C1558 0.950 . S
H1551 C1560 0.950 . S
H1552 C1562 0.950 . S
H1553 C1564 0.950 . S
H1554 C1566 0.950 . S
H1555 C1567 0.950 . S
C1556 H1548 0.950 . S
C1556 C1557 1.386 . S
C1556 C1558 1.391 . S
C1557 C1556 1.386 . S
C1557 C1561 1.393 . S
C1558 H1550 0.950 . S
C1558 C1556 1.391 . S
C1558 C1559 1.400 . S
C1559 C1558 1.400 . S
C1559 C1560 1.398 . S
C1559 C1565 1.491 . S
C1560 H1551 0.950 . S
C1560 C1559 1.398 . S
C1560 C1561 1.391 . S
C1561 H1549 0.950 . S
C1561 C1557 1.393 . S
C1561 C1560 1.391 . S
C1562 H1552 0.950 . S
C1562 C1563 1.386 . S
C1562 C1564 1.391 . S
C1563 C1562 1.386 . S
C1563 C1567 1.393 . S
C1564 H1553 0.950 . S
C1564 C1562 1.391 . S
C1564 C1565 1.400 . S
C1565 C1559 1.491 . S
C1565 C1564 1.400 . S
C1565 C1566 1.398 . S
C1566 H1554 0.950 . S
C1566 C1565 1.398 . S
C1566 C1567 1.391 . S
C1567 H1555 0.950 . S
C1567 C1563 1.393 . S
C1567 C1566 1.391 . S
H1568 C1576 0.950 . S
H1569 C1581 0.950 . S
H1570 C1578 0.950 . S
H1571 C1580 0.950 . S
H1572 C1582 0.950 . S
H1573 C1584 0.950 . S
H1574 C1586 0.950 . S
H1575 C1587 0.950 . S
C1576 H1568 0.950 . S
C1576 C1577 1.386 . S
C1576 C1578 1.391 . S
C1577 C1576 1.386 . S
C1577 C1581 1.393 . S
C1578 H1570 0.950 . S
C1578 C1576 1.391 . S
C1578 C1579 1.400 . S
C1579 C1578 1.400 . S
C1579 C1580 1.398 . S
C1579 C1585 1.491 . S
C1580 H1571 0.950 . S
C1580 C1579 1.398 . S
C1580 C1581 1.391 . S
C1581 H1569 0.950 . S
C1581 C1577 1.393 . S
C1581 C1580 1.391 . S
C1582 H1572 0.950 . S
C1582 C1583 1.386 . S
C1582 C1584 1.391 . S
C1583 C1582 1.386 . S
C1583 C1587 1.393 . S
C1584 H1573 0.950 . S
C1584 C1582 1.391 . S
C1584 C1585 1.400 . S
C1585 C1579 1.491 . S
C1585 C1584 1.400 . S
C1585 C1586 1.398 . S
C1586 H1574 0.950 . S
C1586 C1585 1.398 . S
C1586 C1587 1.391 . S
C1587 H1575 0.950 . S
C1587 C1583 1.393 . S
C1587 C1586 1.391 . S
H1588 C1596 0.950 . S
H1589 C1601 0.950 . S
H1590 C1598 0.950 . S
H1591 C1600 0.950 . S
H1592 C1602 0.950 . S
H1593 C1604 0.950 . S
H1594 C1606 0.950 . S
H1595 C1607 0.950 . S
C1596 H1588 0.950 . S
C1596 C1597 1.386 . S
C1596 C1598 1.391 . S
C1597 C1596 1.386 . S
C1597 C1601 1.393 . S
C1598 H1590 0.950 . S
C1598 C1596 1.391 . S
C1598 C1599 1.400 . S
C1599 C1598 1.400 . S
C1599 C1600 1.398 . S
C1599 C1605 1.491 . S
C1600 H1591 0.950 . S
C1600 C1599 1.398 . S
C1600 C1601 1.391 . S
C1601 H1589 0.950 . S
C1601 C1597 1.393 . S
C1601 C1600 1.391 . S
C1602 H1592 0.950 . S
C1602 C1603 1.386 . S
C1602 C1604 1.391 . S
C1603 C1602 1.386 . S
C1603 C1607 1.393 . S
C1604 H1593 0.950 . S
C1604 C1602 1.391 . S
C1604 C1605 1.400 . S
C1605 C1599 1.491 . S
C1605 C1604 1.400 . S
C1605 C1606 1.398 . S
C1606 H1594 0.950 . S
C1606 C1605 1.398 . S
C1606 C1607 1.391 . S
C1607 H1595 0.950 . S
C1607 C1603 1.393 . S
C1607 C1606 1.391 . S
H1608 C1616 0.950 . S
H1609 C1621 0.950 . S
H1610 C1618 0.950 . S
H1611 C1620 0.950 . S
H1612 C1622 0.950 . S
H1613 C1624 0.950 . S
H1614 C1626 0.950 . S
H1615 C1627 0.950 . S
C1616 H1608 0.950 . S
C1616 C1617 1.386 . S
C1616 C1618 1.391 . S
C1617 C1616 1.386 . S
C1617 C1621 1.393 . S
C1618 H1610 0.950 . S
C1618 C1616 1.391 . S
C1618 C1619 1.400 . S
C1619 C1618 1.400 . S
C1619 C1620 1.398 . S
C1619 C1625 1.491 . S
C1620 H1611 0.950 . S
C1620 C1619 1.398 . S
C1620 C1621 1.391 . S
C1621 H1609 0.950 . S
C1621 C1617 1.393 . S
C1621 C1620 1.391 . S
C1622 H1612 0.950 . S
C1622 C1623 1.386 . S
C1622 C1624 1.391 . S
C1623 C1622 1.386 . S
C1623 C1627 1.393 . S
C1624 H1613 0.950 . S
C1624 C1622 1.391 . S
C1624 C1625 1.400 . S
C1625 C1619 1.491 . S
C1625 C1624 1.400 . S
C1625 C1626 1.398 . S
C1626 H1614 0.950 . S
C1626 C1625 1.398 . S
C1626 C1627 1.391 . S
C1627 H1615 0.950 . S
C1627 C1623 1.393 . S
C1627 C1626 1.391 . S
H1628 C1636 0.950 1_565 S
H1629 C1641 0.950 . S
H1630 C1638 0.950 1_565 S
H1631 C1640 0.950 . S
H1632 C1642 0.950 . S
H1633 C1644 0.950 . S
H1634 C1646 0.950 1_565 S
H1635 C1647 0.975 . S
C1636 H1628 0.950 1_545 S
C1636 C1637 1.386 . S
C1636 C1638 1.391 . S
C1637 C1636 1.386 . S
C1637 C1641 1.393 . S
C1638 H1630 0.950 1_545 S
C1638 C1636 1.391 . S
C1638 C1639 1.400 . S
C1639 C1638 1.400 . S
C1639 C1640 1.398 . S
C1639 C1645 1.491 . S
C1640 H1631 0.950 . S
C1640 C1639 1.398 . S
C1640 C1641 1.391 . S
C1641 H1629 0.950 . S
C1641 C1637 1.393 . S
C1641 C1640 1.391 . S
C1642 H1632 0.950 . S
C1642 C1643 1.386 . S
C1642 C1644 1.391 . S
C1643 C1642 1.386 . S
C1643 C1647 1.374 1_545 S
C1644 H1633 0.950 . S
C1644 C1642 1.391 . S
C1644 C1645 1.400 . S
C1645 C1639 1.491 . S
C1645 C1644 1.400 . S
C1645 C1646 1.398 . S
C1646 H1634 0.950 1_545 S
C1646 C1645 1.398 . S
C1646 C1647 1.386 1_545 S
C1647 H1635 0.975 . S
C1647 C1643 1.374 1_565 S
C1647 C1646 1.386 1_565 S
H1648 C1656 0.950 . S
H1649 C1661 0.950 . S
H1650 C1658 0.950 . S
H1651 C1660 0.950 . S
H1652 C1662 0.950 . S
H1653 C1664 0.950 . S
H1654 C1666 0.950 . S
H1655 C1667 0.950 . S
C1656 H1648 0.950 . S
C1656 C1657 1.386 . S
C1656 C1658 1.391 . S
C1657 C1656 1.386 . S
C1657 C1661 1.393 . S
C1658 H1650 0.950 . S
C1658 C1656 1.391 . S
C1658 C1659 1.400 . S
C1659 C1658 1.400 . S
C1659 C1660 1.398 . S
C1659 C1665 1.491 . S
C1660 H1651 0.950 . S
C1660 C1659 1.398 . S
C1660 C1661 1.391 . S
C1661 H1649 0.950 . S
C1661 C1657 1.393 . S
C1661 C1660 1.391 . S
C1662 H1652 0.950 . S
C1662 C1663 1.386 . S
C1662 C1664 1.391 . S
C1663 C1662 1.386 . S
C1663 C1667 1.393 . S
C1664 H1653 0.950 . S
C1664 C1662 1.391 . S
C1664 C1665 1.400 . S
C1665 C1659 1.491 . S
C1665 C1664 1.400 . S
C1665 C1666 1.398 . S
C1666 H1654 0.950 . S
C1666 C1665 1.398 . S
C1666 C1667 1.391 . S
C1667 H1655 0.950 . S
C1667 C1663 1.393 . S
C1667 C1666 1.391 . S
H1668 C1676 0.950 . S
H1669 C1681 0.950 . S
H1670 C1678 0.950 . S
H1671 C1680 0.950 . S
H1672 C1682 0.950 . S
H1673 C1684 0.950 . S
H1674 C1686 0.950 . S
H1675 C1687 0.950 . S
C1676 H1668 0.950 . S
C1676 C1677 1.386 . S
C1676 C1678 1.391 . S
C1677 C1676 1.386 . S
C1677 C1681 1.393 . S
C1678 H1670 0.950 . S
C1678 C1676 1.391 . S
C1678 C1679 1.400 . S
C1679 C1678 1.400 . S
C1679 C1680 1.398 . S
C1679 C1685 1.491 . S
C1680 H1671 0.950 . S
C1680 C1679 1.398 . S
C1680 C1681 1.391 . S
C1681 H1669 0.950 . S
C1681 C1677 1.393 . S
C1681 C1680 1.391 . S
C1682 H1672 0.950 . S
C1682 C1683 1.386 . S
C1682 C1684 1.391 . S
C1683 C1682 1.386 . S
C1683 C1687 1.393 . S
C1684 H1673 0.950 . S
C1684 C1682 1.391 . S
C1684 C1685 1.400 . S
C1685 C1679 1.491 . S
C1685 C1684 1.400 . S
C1685 C1686 1.398 . S
C1686 H1674 0.950 . S
C1686 C1685 1.398 . S
C1686 C1687 1.391 . S
C1687 H1675 0.950 . S
C1687 C1683 1.393 . S
C1687 C1686 1.391 . S
H1688 C1696 0.950 . S
H1689 C1701 0.950 . S
H1690 C1698 0.950 . S
H1691 C1700 0.950 . S
H1692 C1702 0.950 . S
H1693 C1704 0.950 . S
H1694 C1706 0.950 . S
H1695 C1707 0.950 . S
C1696 H1688 0.950 . S
C1696 C1697 1.386 . S
C1696 C1698 1.391 . S
C1697 C1696 1.386 . S
C1697 C1701 1.393 . S
C1698 H1690 0.950 . S
C1698 C1696 1.391 . S
C1698 C1699 1.400 . S
C1699 C1698 1.400 . S
C1699 C1700 1.398 . S
C1699 C1705 1.491 . S
C1700 H1691 0.950 . S
C1700 C1699 1.398 . S
C1700 C1701 1.391 . S
C1701 H1689 0.950 . S
C1701 C1697 1.393 . S
C1701 C1700 1.391 . S
C1702 H1692 0.950 . S
C1702 C1703 1.386 . S
C1702 C1704 1.391 . S
C1703 C1702 1.386 . S
C1703 C1707 1.393 . S
C1704 H1693 0.950 . S
C1704 C1702 1.391 . S
C1704 C1705 1.400 . S
C1705 C1699 1.491 . S
C1705 C1704 1.400 . S
C1705 C1706 1.398 . S
C1706 H1694 0.950 . S
C1706 C1705 1.398 . S
C1706 C1707 1.391 . S
C1707 H1695 0.950 . S
C1707 C1703 1.393 . S
C1707 C1706 1.391 . S
H1708 C1716 0.950 . S
H1709 C1721 0.950 . S
H1710 C1718 0.950 . S
H1711 C1720 0.950 . S
H1712 C1722 0.950 . S
H1713 C1724 0.950 . S
H1714 C1726 0.950 . S
H1715 C1727 0.950 . S
C1716 H1708 0.950 . S
C1716 C1717 1.386 . S
C1716 C1718 1.391 . S
C1717 C1716 1.386 . S
C1717 C1721 1.393 . S
C1718 H1710 0.950 . S
C1718 C1716 1.391 . S
C1718 C1719 1.400 . S
C1719 C1718 1.400 . S
C1719 C1720 1.398 . S
C1719 C1725 1.491 . S
C1720 H1711 0.950 . S
C1720 C1719 1.398 . S
C1720 C1721 1.391 . S
C1721 H1709 0.950 . S
C1721 C1717 1.393 . S
C1721 C1720 1.391 . S
C1722 H1712 0.950 . S
C1722 C1723 1.386 . S
C1722 C1724 1.391 . S
C1723 C1722 1.386 . S
C1723 C1727 1.393 . S
C1724 H1713 0.950 . S
C1724 C1722 1.391 . S
C1724 C1725 1.400 . S
C1725 C1719 1.491 . S
C1725 C1724 1.400 . S
C1725 C1726 1.398 . S
C1726 H1714 0.950 . S
C1726 C1725 1.398 . S
C1726 C1727 1.391 . S
C1727 H1715 0.950 . S
C1727 C1723 1.393 . S
C1727 C1726 1.391 . S
H1728 C1736 0.950 . S
H1729 C1741 0.950 . S
H1730 C1738 0.950 . S
H1731 C1740 0.950 . S
H1732 C1742 0.950 . S
H1733 C1744 0.950 . S
H1734 C1746 0.950 . S
H1735 C1747 0.950 . S
C1736 H1728 0.950 . S
C1736 C1737 1.386 . S
C1736 C1738 1.391 . S
C1737 C1736 1.386 . S
C1737 C1741 1.393 . S
C1738 H1730 0.950 . S
C1738 C1736 1.391 . S
C1738 C1739 1.400 . S
C1739 C1738 1.400 . S
C1739 C1740 1.398 . S
C1739 C1745 1.491 . S
C1740 H1731 0.950 . S
C1740 C1739 1.398 . S
C1740 C1741 1.391 . S
C1741 H1729 0.950 . S
C1741 C1737 1.393 . S
C1741 C1740 1.391 . S
C1742 H1732 0.950 . S
C1742 C1743 1.386 . S
C1742 C1744 1.391 . S
C1743 C1742 1.386 . S
C1743 C1747 1.393 . S
C1744 H1733 0.950 . S
C1744 C1742 1.391 . S
C1744 C1745 1.400 . S
C1745 C1739 1.491 . S
C1745 C1744 1.400 . S
C1745 C1746 1.398 . S
C1746 H1734 0.950 . S
C1746 C1745 1.398 . S
C1746 C1747 1.391 . S
C1747 H1735 0.950 . S
C1747 C1743 1.393 . S
C1747 C1746 1.391 . S
H1748 C1756 0.950 . S
H1749 C1761 0.950 . S
H1750 C1758 0.950 . S
H1751 C1760 0.950 . S
H1752 C1762 0.950 . S
H1753 C1764 0.950 . S
H1754 C1766 0.950 . S
H1755 C1767 0.950 . S
C1756 H1748 0.950 . S
C1756 C1757 1.386 . S
C1756 C1758 1.391 . S
C1757 C1756 1.386 . S
C1757 C1761 1.393 . S
C1758 H1750 0.950 . S
C1758 C1756 1.391 . S
C1758 C1759 1.400 . S
C1759 C1758 1.400 . S
C1759 C1760 1.398 . S
C1759 C1765 1.491 . S
C1760 H1751 0.950 . S
C1760 C1759 1.398 . S
C1760 C1761 1.391 . S
C1761 H1749 0.950 . S
C1761 C1757 1.393 . S
C1761 C1760 1.391 . S
C1762 H1752 0.950 . S
C1762 C1763 1.386 . S
C1762 C1764 1.391 . S
C1763 C1762 1.386 . S
C1763 C1767 1.393 . S
C1764 H1753 0.950 . S
C1764 C1762 1.391 . S
C1764 C1765 1.400 . S
C1765 C1759 1.491 . S
C1765 C1764 1.400 . S
C1765 C1766 1.398 . S
C1766 H1754 0.950 . S
C1766 C1765 1.398 . S
C1766 C1767 1.391 . S
C1767 H1755 0.950 . S
C1767 C1763 1.393 . S
C1767 C1766 1.391 . S
H1768 C1776 0.950 . S
H1769 C1781 0.950 . S
H1770 C1778 0.950 . S
H1771 C1780 0.950 . S
H1772 C1782 0.950 . S
H1773 C1784 0.950 . S
H1774 C1786 0.950 . S
H1775 C1787 0.950 . S
C1776 H1768 0.950 . S
C1776 C1777 1.386 . S
C1776 C1778 1.391 . S
C1777 C1776 1.386 . S
C1777 C1781 1.393 . S
C1778 H1770 0.950 . S
C1778 C1776 1.391 . S
C1778 C1779 1.400 . S
C1779 C1778 1.400 . S
C1779 C1780 1.398 . S
C1779 C1785 1.491 . S
C1780 H1771 0.950 . S
C1780 C1779 1.398 . S
C1780 C1781 1.391 . S
C1781 H1769 0.950 . S
C1781 C1777 1.393 . S
C1781 C1780 1.391 . S
C1782 H1772 0.950 . S
C1782 C1783 1.386 . S
C1782 C1784 1.391 . S
C1783 C1782 1.386 . S
C1783 C1787 1.393 . S
C1784 H1773 0.950 . S
C1784 C1782 1.391 . S
C1784 C1785 1.400 . S
C1785 C1779 1.491 . S
C1785 C1784 1.400 . S
C1785 C1786 1.398 . S
C1786 H1774 0.950 . S
C1786 C1785 1.398 . S
C1786 C1787 1.391 . S
C1787 H1775 0.950 . S
C1787 C1783 1.393 . S
C1787 C1786 1.391 . S
H1788 C1796 0.950 . S
H1789 C1801 0.950 . S
H1790 C1798 0.950 . S
H1791 C1800 0.950 . S
H1792 C1802 0.950 . S
H1793 C1804 0.950 . S
H1794 C1806 0.950 . S
H1795 C1807 0.950 . S
C1796 H1788 0.950 . S
C1796 C1797 1.386 . S
C1796 C1798 1.391 . S
C1797 C1796 1.386 . S
C1797 C1801 1.393 1_655 S
C1798 H1790 0.950 . S
C1798 C1796 1.391 . S
C1798 C1799 1.412 . S
C1799 C1798 1.412 . S
C1799 C1800 1.392 1_655 S
C1799 C1805 1.486 1_655 S
C1800 H1791 0.950 . S
C1800 C1799 1.392 1_455 S
C1800 C1801 1.391 . S
C1801 H1789 0.950 . S
C1801 C1797 1.393 1_455 S
C1801 C1800 1.391 . S
C1802 H1792 0.950 . S
C1802 C1803 1.386 . S
C1802 C1804 1.391 . S
C1803 C1802 1.386 . S
C1803 C1807 1.393 1_455 S
C1804 H1793 0.950 . S
C1804 C1802 1.391 . S
C1804 C1805 1.400 . S
C1805 C1799 1.486 1_455 S
C1805 C1804 1.400 . S
C1805 C1806 1.398 1_455 S
C1806 H1794 0.950 . S
C1806 C1805 1.398 1_655 S
C1806 C1807 1.391 . S
C1807 H1795 0.950 . S
C1807 C1803 1.393 1_655 S
C1807 C1806 1.391 . S
H1808 C1816 0.950 . S
H1809 C1821 0.950 . S
H1810 C1818 0.950 . S
H1811 C1820 0.950 . S
H1812 C1822 0.950 . S
H1813 C1824 0.950 . S
H1814 C1826 0.950 . S
H1815 C1827 0.950 . S
C1816 H1808 0.950 . S
C1816 C1817 1.386 . S
C1816 C1818 1.391 . S
C1817 C1816 1.386 . S
C1817 C1821 1.393 . S
C1818 H1810 0.950 . S
C1818 C1816 1.391 . S
C1818 C1819 1.400 . S
C1819 C1818 1.400 . S
C1819 C1820 1.398 . S
C1819 C1825 1.491 . S
C1820 H1811 0.950 . S
C1820 C1819 1.398 . S
C1820 C1821 1.391 . S
C1821 H1809 0.950 . S
C1821 C1817 1.393 . S
C1821 C1820 1.391 . S
C1822 H1812 0.950 . S
C1822 C1823 1.386 . S
C1822 C1824 1.391 . S
C1823 C1822 1.386 . S
C1823 C1827 1.393 . S
C1824 H1813 0.950 . S
C1824 C1822 1.391 . S
C1824 C1825 1.400 . S
C1825 C1819 1.491 . S
C1825 C1824 1.400 . S
C1825 C1826 1.398 . S
C1826 H1814 0.950 . S
C1826 C1825 1.398 . S
C1826 C1827 1.391 . S
C1827 H1815 0.950 . S
C1827 C1823 1.393 . S
C1827 C1826 1.391 . S
H1828 C1836 0.950 . S
H1829 C1841 0.950 . S
H1830 C1838 0.950 . S
H1831 C1840 0.950 . S
H1832 C1842 0.950 . S
H1833 C1844 0.950 . S
H1834 C1846 0.950 . S
H1835 C1847 0.950 . S
C1836 H1828 0.950 . S
C1836 C1837 1.386 . S
C1836 C1838 1.391 . S
C1837 C1836 1.386 . S
C1837 C1841 1.393 . S
C1838 H1830 0.950 . S
C1838 C1836 1.391 . S
C1838 C1839 1.400 . S
C1839 C1838 1.400 . S
C1839 C1840 1.398 . S
C1839 C1845 1.491 . S
C1840 H1831 0.950 . S
C1840 C1839 1.398 . S
C1840 C1841 1.391 . S
C1841 H1829 0.950 . S
C1841 C1837 1.393 . S
C1841 C1840 1.391 . S
C1842 H1832 0.950 . S
C1842 C1843 1.386 . S
C1842 C1844 1.391 . S
C1843 C1842 1.386 . S
C1843 C1847 1.393 . S
C1844 H1833 0.950 . S
C1844 C1842 1.391 . S
C1844 C1845 1.400 . S
C1845 C1839 1.491 . S
C1845 C1844 1.400 . S
C1845 C1846 1.398 . S
C1846 H1834 0.950 . S
C1846 C1845 1.398 . S
C1846 C1847 1.391 . S
C1847 H1835 0.950 . S
C1847 C1843 1.393 . S
C1847 C1846 1.391 . S
H1848 C1856 0.950 . S
H1849 C1861 0.950 . S
H1850 C1858 0.950 . S
H1851 C1860 0.950 . S
H1852 C1862 0.950 . S
H1853 C1864 0.950 . S
H1854 C1866 0.950 . S
H1855 C1867 0.950 . S
C1856 H1848 0.950 . S
C1856 C1857 1.386 . S
C1856 C1858 1.391 . S
C1857 C1856 1.386 . S
C1857 C1861 1.393 . S
C1858 H1850 0.950 . S
C1858 C1856 1.391 . S
C1858 C1859 1.400 . S
C1859 C1858 1.400 . S
C1859 C1860 1.398 . S
C1859 C1865 1.491 . S
C1860 H1851 0.950 . S
C1860 C1859 1.398 . S
C1860 C1861 1.391 . S
C1861 H1849 0.950 . S
C1861 C1857 1.393 . S
C1861 C1860 1.391 . S
C1862 H1852 0.950 . S
C1862 C1863 1.386 . S
C1862 C1864 1.391 . S
C1863 C1862 1.386 . S
C1863 C1867 1.393 . S
C1864 H1853 0.950 . S
C1864 C1862 1.391 . S
C1864 C1865 1.400 . S
C1865 C1859 1.491 . S
C1865 C1864 1.400 . S
C1865 C1866 1.398 . S
C1866 H1854 0.950 . S
C1866 C1865 1.398 . S
C1866 C1867 1.391 . S
C1867 H1855 0.950 . S
C1867 C1863 1.393 . S
C1867 C1866 1.391 . S
H1868 C1876 0.950 . S
H1869 C1881 0.950 . S
H1870 C1878 0.950 . S
H1871 C1880 0.950 . S
H1872 C1882 0.950 . S
H1873 C1884 0.950 . S
H1874 C1886 0.950 . S
H1875 C1887 0.950 . S
C1876 H1868 0.950 . S
C1876 C1877 1.386 . S
C1876 C1878 1.391 . S
C1877 C1876 1.386 . S
C1877 C1881 1.393 . S
C1878 H1870 0.950 . S
C1878 C1876 1.391 . S
C1878 C1879 1.400 . S
C1879 C1878 1.400 . S
C1879 C1880 1.398 . S
C1879 C1885 1.491 . S
C1880 H1871 0.950 . S
C1880 C1879 1.398 . S
C1880 C1881 1.391 . S
C1881 H1869 0.950 . S
C1881 C1877 1.393 . S
C1881 C1880 1.391 . S
C1882 H1872 0.950 . S
C1882 C1883 1.386 . S
C1882 C1884 1.391 . S
C1883 C1882 1.386 . S
C1883 C1887 1.393 . S
C1884 H1873 0.950 . S
C1884 C1882 1.391 . S
C1884 C1885 1.400 . S
C1885 C1879 1.491 . S
C1885 C1884 1.400 . S
C1885 C1886 1.398 . S
C1886 H1874 0.950 . S
C1886 C1885 1.398 . S
C1886 C1887 1.391 . S
C1887 H1875 0.950 . S
C1887 C1883 1.393 . S
C1887 C1886 1.391 . S
H1888 C1896 0.950 . S
H1889 C1901 0.950 . S
H1890 C1898 0.950 . S
H1891 C1900 0.950 . S
H1892 C1902 0.950 . S
H1893 C1904 0.950 . S
H1894 C1906 0.950 . S
H1895 C1907 0.950 . S
C1896 H1888 0.950 . S
C1896 C1897 1.386 . S
C1896 C1898 1.391 . S
C1897 C1896 1.386 . S
C1897 C1901 1.393 . S
C1898 H1890 0.950 . S
C1898 C1896 1.391 . S
C1898 C1899 1.400 . S
C1899 C1898 1.400 . S
C1899 C1900 1.398 . S
C1899 C1905 1.491 . S
C1900 H1891 0.950 . S
C1900 C1899 1.398 . S
C1900 C1901 1.391 . S
C1901 H1889 0.950 . S
C1901 C1897 1.393 . S
C1901 C1900 1.391 . S
C1902 H1892 0.950 . S
C1902 C1903 1.386 . S
C1902 C1904 1.391 . S
C1903 C1902 1.386 . S
C1903 C1907 1.393 . S
C1904 H1893 0.950 . S
C1904 C1902 1.391 . S
C1904 C1905 1.400 . S
C1905 C1899 1.491 . S
C1905 C1904 1.400 . S
C1905 C1906 1.398 . S
C1906 H1894 0.950 . S
C1906 C1905 1.398 . S
C1906 C1907 1.391 . S
C1907 H1895 0.950 . S
C1907 C1903 1.393 . S
C1907 C1906 1.391 . S
H1908 C1916 0.950 . S
H1909 C1921 0.950 . S
H1910 C1918 0.950 . S
H1911 C1920 0.950 . S
H1912 C1922 0.950 . S
H1913 C1924 0.950 . S
H1914 C1926 0.950 . S
H1915 C1927 0.950 . S
C1916 H1908 0.950 . S
C1916 C1917 1.386 . S
C1916 C1918 1.391 . S
C1917 C1916 1.386 . S
C1917 C1921 1.393 . S
C1918 H1910 0.950 . S
C1918 C1916 1.391 . S
C1918 C1919 1.400 . S
C1919 C1918 1.400 . S
C1919 C1920 1.398 . S
C1919 C1925 1.491 . S
C1920 H1911 0.950 . S
C1920 C1919 1.398 . S
C1920 C1921 1.391 . S
C1921 H1909 0.950 . S
C1921 C1917 1.393 . S
C1921 C1920 1.391 . S
C1922 H1912 0.950 . S
C1922 C1923 1.386 . S
C1922 C1924 1.391 . S
C1923 C1922 1.386 . S
C1923 C1927 1.393 . S
C1924 H1913 0.950 . S
C1924 C1922 1.391 . S
C1924 C1925 1.400 . S
C1925 C1919 1.491 . S
C1925 C1924 1.400 . S
C1925 C1926 1.398 . S
C1926 H1914 0.950 . S
C1926 C1925 1.398 . S
C1926 C1927 1.391 . S
C1927 H1915 0.950 . S
C1927 C1923 1.393 . S
C1927 C1926 1.391 . S
H1928 C1936 0.950 . S
H1929 C1941 0.950 . S
H1930 C1938 0.950 . S
H1931 C1940 0.950 . S
H1932 C1942 0.950 . S
H1933 C1944 0.950 . S
H1934 C1946 0.950 . S
H1935 C1947 0.950 . S
C1936 H1928 0.950 . S
C1936 C1937 1.386 . S
C1936 C1938 1.391 . S
C1937 C1936 1.386 . S
C1937 C1941 1.393 . S
C1938 H1930 0.950 . S
C1938 C1936 1.391 . S
C1938 C1939 1.400 . S
C1939 C1938 1.400 . S
C1939 C1940 1.398 . S
C1939 C1945 1.491 . S
C1940 H1931 0.950 . S
C1940 C1939 1.398 . S
C1940 C1941 1.391 . S
C1941 H1929 0.950 . S
C1941 C1937 1.393 . S
C1941 C1940 1.391 . S
C1942 H1932 0.950 . S
C1942 C1943 1.386 . S
C1942 C1944 1.391 . S
C1943 C1942 1.386 . S
C1943 C1947 1.393 . S
C1944 H1933 0.950 . S
C1944 C1942 1.391 . S
C1944 C1945 1.400 . S
C1945 C1939 1.491 . S
C1945 C1944 1.400 . S
C1945 C1946 1.398 . S
C1946 H1934 0.950 . S
C1946 C1945 1.398 . S
C1946 C1947 1.391 . S
C1947 H1935 0.950 . S
C1947 C1943 1.393 . S
C1947 C1946 1.391 . S
H1948 C1956 0.950 . S
H1949 C1961 0.950 . S
H1950 C1958 0.950 . S
H1951 C1960 0.950 . S
H1952 C1962 0.950 . S
H1953 C1964 0.950 . S
H1954 C1966 0.950 . S
H1955 C1967 0.950 . S
C1956 H1948 0.950 . S
C1956 C1957 1.386 . S
C1956 C1958 1.391 . S
C1957 C1956 1.386 . S
C1957 C1961 1.393 . S
C1958 H1950 0.950 . S
C1958 C1956 1.391 . S
C1958 C1959 1.400 . S
C1959 C1958 1.400 . S
C1959 C1960 1.398 . S
C1959 C1965 1.491 . S
C1960 H1951 0.950 . S
C1960 C1959 1.398 . S
C1960 C1961 1.391 . S
C1961 H1949 0.950 . S
C1961 C1957 1.393 . S
C1961 C1960 1.391 . S
C1962 H1952 0.950 . S
C1962 C1963 1.386 . S
C1962 C1964 1.391 . S
C1963 C1962 1.386 . S
C1963 C1967 1.393 . S
C1964 H1953 0.950 . S
C1964 C1962 1.391 . S
C1964 C1965 1.400 . S
C1965 C1959 1.491 . S
C1965 C1964 1.400 . S
C1965 C1966 1.398 . S
C1966 H1954 0.950 . S
C1966 C1965 1.398 . S
C1966 C1967 1.391 . S
C1967 H1955 0.950 . S
C1967 C1963 1.393 . S
C1967 C1966 1.391 . S
H1968 C1976 0.950 . S
H1969 C1981 0.950 . S
H1970 C1978 0.950 . S
H1971 C1980 0.950 . S
H1972 C1982 0.950 . S
H1973 C1984 0.950 . S
H1974 C1986 0.950 . S
H1975 C1987 0.950 . S
C1976 H1968 0.950 . S
C1976 C1977 1.386 . S
C1976 C1978 1.391 . S
C1977 C1976 1.386 . S
C1977 C1981 1.393 . S
C1978 H1970 0.950 . S
C1978 C1976 1.391 . S
C1978 C1979 1.400 . S
C1979 C1978 1.400 . S
C1979 C1980 1.398 . S
C1979 C1985 1.491 . S
C1980 H1971 0.950 . S
C1980 C1979 1.398 . S
C1980 C1981 1.391 . S
C1981 H1969 0.950 . S
C1981 C1977 1.393 . S
C1981 C1980 1.391 . S
C1982 H1972 0.950 . S
C1982 C1983 1.386 . S
C1982 C1984 1.391 . S
C1983 C1982 1.386 . S
C1983 C1987 1.393 . S
C1984 H1973 0.950 . S
C1984 C1982 1.391 . S
C1984 C1985 1.400 . S
C1985 C1979 1.491 . S
C1985 C1984 1.400 . S
C1985 C1986 1.398 . S
C1986 H1974 0.950 . S
C1986 C1985 1.398 . S
C1986 C1987 1.391 . S
C1987 H1975 0.950 . S
C1987 C1983 1.393 . S
C1987 C1986 1.391 . S
H1988 C1996 0.950 . S
H1989 C2001 0.950 . S
H1990 C1998 0.950 . S
H1991 C2000 0.950 . S
H1992 C2002 0.950 . S
H1993 C2004 0.950 . S
H1994 C2006 0.950 . S
H1995 C2007 0.950 . S
C1996 H1988 0.950 . S
C1996 C1997 1.386 . S
C1996 C1998 1.391 . S
C1997 C1996 1.386 . S
C1997 C2001 1.393 . S
C1998 H1990 0.950 . S
C1998 C1996 1.391 . S
C1998 C1999 1.400 . S
C1999 C1998 1.400 . S
C1999 C2000 1.398 . S
C1999 C2005 1.491 . S
C2000 H1991 0.950 . S
C2000 C1999 1.398 . S
C2000 C2001 1.391 . S
C2001 H1989 0.950 . S
C2001 C1997 1.393 . S
C2001 C2000 1.391 . S
C2002 H1992 0.950 . S
C2002 C2003 1.386 . S
C2002 C2004 1.391 . S
C2003 C2002 1.386 . S
C2003 C2007 1.393 . S
C2004 H1993 0.950 . S
C2004 C2002 1.391 . S
C2004 C2005 1.400 . S
C2005 C1999 1.491 . S
C2005 C2004 1.400 . S
C2005 C2006 1.398 . S
C2006 H1994 0.950 . S
C2006 C2005 1.398 . S
C2006 C2007 1.391 . S
C2007 H1995 0.950 . S
C2007 C2003 1.393 . S
C2007 C2006 1.391 . S
H2008 C2016 0.950 1_554 S
H2009 C2021 0.950 . S
H2010 C2018 0.967 . S
H2011 C2020 0.950 . S
H2012 C2022 0.950 . S
H2013 C2024 0.950 . S
H2014 C2026 0.950 . S
H2015 C2027 0.950 . S
C2016 H2008 0.950 1_556 S
C2016 C2017 1.386 . S
C2016 C2018 1.389 1_556 S
C2017 C2016 1.386 . S
C2017 C2021 1.393 . S
C2018 H2010 0.967 . S
C2018 C2016 1.389 1_554 S
C2018 C2019 1.386 1_554 S
C2019 C2018 1.386 1_556 S
C2019 C2020 1.398 . S
C2019 C2025 1.491 . S
C2020 H2011 0.950 . S
C2020 C2019 1.398 . S
C2020 C2021 1.391 . S
C2021 H2009 0.950 . S
C2021 C2017 1.393 . S
C2021 C2020 1.391 . S
C2022 H2012 0.950 . S
C2022 C2023 1.386 . S
C2022 C2024 1.391 . S
C2023 C2022 1.386 . S
C2023 C2027 1.393 1_556 S
C2024 H2013 0.950 . S
C2024 C2022 1.391 . S
C2024 C2025 1.400 . S
C2025 C2019 1.491 . S
C2025 C2024 1.400 . S
C2025 C2026 1.398 1_556 S
C2026 H2014 0.950 . S
C2026 C2025 1.398 1_554 S
C2026 C2027 1.391 . S
C2027 H2015 0.950 . S
C2027 C2023 1.393 1_554 S
C2027 C2026 1.391 . S
H2028 C2036 0.950 . S
H2029 C2041 0.950 . S
H2030 C2038 0.950 . S
H2031 C2040 0.950 . S
H2032 C2042 0.950 . S
H2033 C2044 0.950 . S
H2034 C2046 0.950 . S
H2035 C2047 0.950 . S
C2036 H2028 0.950 . S
C2036 C2037 1.386 . S
C2036 C2038 1.391 . S
C2037 C2036 1.386 . S
C2037 C2041 1.393 . S
C2038 H2030 0.950 . S
C2038 C2036 1.391 . S
C2038 C2039 1.400 . S
C2039 C2038 1.400 . S
C2039 C2040 1.398 . S
C2039 C2045 1.491 . S
C2040 H2031 0.950 . S
C2040 C2039 1.398 . S
C2040 C2041 1.391 . S
C2041 H2029 0.950 . S
C2041 C2037 1.393 . S
C2041 C2040 1.391 . S
C2042 H2032 0.950 . S
C2042 C2043 1.386 . S
C2042 C2044 1.391 . S
C2043 C2042 1.386 . S
C2043 C2047 1.393 . S
C2044 H2033 0.950 . S
C2044 C2042 1.391 . S
C2044 C2045 1.400 . S
C2045 C2039 1.491 . S
C2045 C2044 1.400 . S
C2045 C2046 1.398 . S
C2046 H2034 0.950 . S
C2046 C2045 1.398 . S
C2046 C2047 1.391 . S
C2047 H2035 0.950 . S
C2047 C2043 1.393 . S
C2047 C2046 1.391 . S
H2048 C2056 0.950 . S
H2049 C2061 0.950 . S
H2050 C2058 0.950 . S
H2051 C2060 0.950 . S
H2052 C2062 0.950 . S
H2053 C2064 0.950 . S
H2054 C2066 0.950 . S
H2055 C2067 0.965 . S
C2056 H2048 0.950 . S
C2056 C2057 1.386 . S
C2056 C2058 1.391 . S
C2057 C2056 1.386 . S
C2057 C2061 1.393 . S
C2058 H2050 0.950 . S
C2058 C2056 1.391 . S
C2058 C2059 1.400 . S
C2059 C2058 1.400 . S
C2059 C2060 1.398 . S
C2059 C2065 1.491 . S
C2060 H2051 0.950 . S
C2060 C2059 1.398 . S
C2060 C2061 1.391 . S
C2061 H2049 0.950 . S
C2061 C2057 1.393 . S
C2061 C2060 1.391 . S
C2062 H2052 0.950 . S
C2062 C2063 1.386 . S
C2062 C2064 1.391 . S
C2063 C2062 1.386 . S
C2063 C2067 1.393 . S
C2064 H2053 0.950 . S
C2064 C2062 1.391 . S
C2064 C2065 1.400 . S
C2065 C2059 1.491 . S
C2065 C2064 1.400 . S
C2065 C2066 1.398 . S
C2066 H2054 0.950 . S
C2066 C2065 1.398 . S
C2066 C2067 1.391 . S
C2067 H2055 0.965 . S
C2067 C2063 1.393 . S
C2067 C2066 1.391 . S
H2068 C2076 0.950 . S
H2069 C2081 0.950 . S
H2070 C2078 0.950 . S
H2071 C2080 0.950 . S
H2072 C2082 0.950 . S
H2073 C2084 0.950 . S
H2074 C2086 0.950 . S
H2075 C2087 0.950 . S
C2076 H2068 0.950 . S
C2076 C2077 1.386 . S
C2076 C2078 1.391 . S
C2077 C2076 1.386 . S
C2077 C2081 1.393 . S
C2078 H2070 0.950 . S
C2078 C2076 1.391 . S
C2078 C2079 1.400 . S
C2079 C2078 1.400 . S
C2079 C2080 1.398 . S
C2079 C2085 1.491 . S
C2080 H2071 0.950 . S
C2080 C2079 1.398 . S
C2080 C2081 1.391 . S
C2081 H2069 0.950 . S
C2081 C2077 1.393 . S
C2081 C2080 1.391 . S
C2082 H2072 0.950 . S
C2082 C2083 1.386 . S
C2082 C2084 1.391 . S
C2083 C2082 1.386 . S
C2083 C2087 1.393 . S
C2084 H2073 0.950 . S
C2084 C2082 1.391 . S
C2084 C2085 1.400 . S
C2085 C2079 1.491 . S
C2085 C2084 1.400 . S
C2085 C2086 1.398 . S
C2086 H2074 0.950 . S
C2086 C2085 1.398 . S
C2086 C2087 1.391 . S
C2087 H2075 0.950 . S
C2087 C2083 1.393 . S
C2087 C2086 1.391 . S
C1143 C971 1.445 . S
C1137 C331 1.445 . S
C1163 C979 1.264 . S
C1157 C380 1.532 . S
C1177 C421 1.424 . S
C1183 C999 1.409 . S
C1203 C1013 1.510 . S
C1197 C260 1.493 1_655 S
C1223 C1028 1.528 . S
C1217 C620 1.509 . S
C1243 C1042 1.516 . S
C1237 C740 1.493 . S
C1257 C680 1.549 . S
C1263 C1056 1.568 . S
C1283 C1062 1.431 . S
C1277 C571 1.470 . S
C1297 C691 1.501 . S
C1303 C1076 1.482 . S
C1323 C1097 1.523 . S
C1317 C541 1.533 . S
C1337 C601 1.459 . S
C1343 C1077 1.236 . S
C1363 C1098 1.539 . S
C1357 C721 1.523 . S
C1377 C451 1.467 . S
C1383 C1105 1.207 . S
C1397 C241 1.478 . S
C1403 C1111 1.501 . S
C1417 C320 1.487 . S
C1423 C1104 1.477 . S
C1437 C391 1.470 . S
C1443 C1112 1.481 . S
C1457 C211 1.467 . S
C1463 C1006 1.462 . S
C1477 C841 1.486 . S
C1483 C1007 1.253 . S
C1503 C964 1.524 . S
C1497 C901 1.540 . S
C1523 C985 1.428 . S
C1517 C500 1.456 . S
C1537 C271 1.459 . S
C1543 C1020 1.442 . S
C1563 C1070 1.529 . S
C1557 C661 1.496 . S
C1583 C1021 1.197 . S
C1577 C560 1.436 . S
C1603 C1049 1.261 . S
C1597 C751 1.542 . S
C1623 C1055 1.436 . S
C1617 C871 1.455 . S
C1637 C920 1.532 . S
C1643 C1063 1.264 . S
C1657 C481 1.426 . S
C1663 C1027 1.407 . S
C1683 C1041 1.502 . S
C1677 C800 1.486 . S
C1697 C200 1.498 . S
C1703 C1000 1.530 . S
C1723 C1014 1.516 . S
C1717 C20 1.492 . S
C1743 C972 1.567 . S
C1737 C80 1.540 . S
C1763 C978 1.440 . S
C1757 C151 1.465 . S
C1777 C91 1.490 . S
C1783 C1090 1.497 . S
C1797 C121 1.526 . S
C1803 C1083 1.532 . S
C1817 C181 1.457 . S
C1823 C1091 1.250 . S
C1837 C1 1.514 . S
C1843 C1084 1.539 . S
C1863 C1119 1.244 . S
C1857 C511 1.460 . S
C1883 C1125 1.497 . S
C1877 C781 1.489 . S
C1903 C1118 1.454 . S
C1897 C860 1.475 . S
C1917 C931 1.470 . S
C1923 C1126 1.481 . S
C1937 C631 1.471 . S
C1943 C1034 1.467 . S
C1963 C1035 1.274 . S
C1957 C301 1.476 . S
C1983 C1048 1.510 . S
C1977 C361 1.547 . S
C2003 C1069 1.446 . S
C1997 C440 1.443 . S
C2017 C811 1.459 . S
C2023 C992 1.441 1_556 S
C2043 C986 1.531 . S
C2037 C61 1.513 . S
C2057 C140 1.436 . S
C2063 C993 1.194 . S
C2083 C965 1.288 . S
C2077 C31 1.548 . S
