# Generated by pormake.
# Topology pyr, (3,6)-cn, num edge types: 1
# Building blocks:
#     Node 0, Type 0, BuildingBlock: QEWDON_clean_linker_0, # of connection points: 3
#     Node 1, Type 0, BuildingBlock: QEWDON_clean_linker_0, # of connection points: 3
#     Node 2, Type 0, BuildingBlock: QEWDON_clean_linker_0, # of connection points: 3
#     Node 3, Type 0, BuildingBlock: QEWDON_clean_linker_0, # of connection points: 3
#     Node 4, Type 0, BuildingBlock: QEWDON_clean_linker_0, # of connection points: 3
#     Node 5, Type 0, BuildingBlock: QEWDON_clean_linker_0, # of connection points: 3
#     Node 6, Type 0, BuildingBlock: QEWDON_clean_linker_0, # of connection points: 3
#     Node 7, Type 0, BuildingBlock: QEWDON_clean_linker_0, # of connection points: 3
#     Node 8, Type 1, BuildingBlock: BETGAK_clean_sbu_0, # of connection points: 6
#     Node 9, Type 1, BuildingBlock: BETGAK_clean_sbu_0, # of connection points: 6
#     Node 10, Type 1, BuildingBlock: BETGAK_clean_sbu_0, # of connection points: 6
#     Node 11, Type 1, BuildingBlock: BETGAK_clean_sbu_0, # of connection points: 6
#     Edge 12, Type (0, 1), BuildingBlock: XIVTED_clean_linker_0, # of connection points: 2
#     Edge 13, Type (0, 1), BuildingBlock: XIVTED_clean_linker_0, # of connection points: 2
#     Edge 14, Type (0, 1), BuildingBlock: XIVTED_clean_linker_0, # of connection points: 2
#     Edge 15, Type (0, 1), BuildingBlock: XIVTED_clean_linker_0, # of connection points: 2
#     Edge 16, Type (0, 1), BuildingBlock: XIVTED_clean_linker_0, # of connection points: 2
#     Edge 17, Type (0, 1), BuildingBlock: XIVTED_clean_linker_0, # of connection points: 2
#     Edge 18, Type (0, 1), BuildingBlock: XIVTED_clean_linker_0, # of connection points: 2
#     Edge 19, Type (0, 1), BuildingBlock: XIVTED_clean_linker_0, # of connection points: 2
#     Edge 20, Type (0, 1), BuildingBlock: XIVTED_clean_linker_0, # of connection points: 2
#     Edge 21, Type (0, 1), BuildingBlock: XIVTED_clean_linker_0, # of connection points: 2
#     Edge 22, Type (0, 1), BuildingBlock: XIVTED_clean_linker_0, # of connection points: 2
#     Edge 23, Type (0, 1), BuildingBlock: XIVTED_clean_linker_0, # of connection points: 2
#     Edge 24, Type (0, 1), BuildingBlock: XIVTED_clean_linker_0, # of connection points: 2
#     Edge 25, Type (0, 1), BuildingBlock: XIVTED_clean_linker_0, # of connection points: 2
#     Edge 26, Type (0, 1), BuildingBlock: XIVTED_clean_linker_0, # of connection points: 2
#     Edge 27, Type (0, 1), BuildingBlock: XIVTED_clean_linker_0, # of connection points: 2
#     Edge 28, Type (0, 1), BuildingBlock: XIVTED_clean_linker_0, # of connection points: 2
#     Edge 29, Type (0, 1), BuildingBlock: XIVTED_clean_linker_0, # of connection points: 2
#     Edge 30, Type (0, 1), BuildingBlock: XIVTED_clean_linker_0, # of connection points: 2
#     Edge 31, Type (0, 1), BuildingBlock: XIVTED_clean_linker_0, # of connection points: 2
#     Edge 32, Type (0, 1), BuildingBlock: XIVTED_clean_linker_0, # of connection points: 2
#     Edge 33, Type (0, 1), BuildingBlock: XIVTED_clean_linker_0, # of connection points: 2
#     Edge 34, Type (0, 1), BuildingBlock: XIVTED_clean_linker_0, # of connection points: 2
#     Edge 35, Type (0, 1), BuildingBlock: XIVTED_clean_linker_0, # of connection points: 2
# Relax obj value: 0.173
# Max RMSD: 0.266
# Mean RMSD: 0.196
data_MOF--net-pyr--node1-BETGAK_clean_sbu_0--node2-QEWDON_clean_linker_0--edge1-XIVTED_clean_linker_0
_symmetry_space_group_name_H-M    P1
_symmetry_Int_Tables_number       1
_symmetry_cell_setting            triclinic
loop_
_symmetry_equiv_pos_as_xyz
'x, y, z'
_cell_length_a     38.793738
_cell_length_b     41.547277
_cell_length_c     39.21843
_cell_angle_alpha  91.863614
_cell_angle_beta   89.581173
_cell_angle_gamma 110.15494
loop_
_atom_site_label
_atom_site_type_symbol
_atom_site_fract_x
_atom_site_fract_y
_atom_site_fract_z
_atom_type_partial_charge
H0 H 0.43246 0.33612 0.20049 0.0
C1 C 0.41408 0.33187 0.22213 0.0
C2 C 0.4071 0.30202 0.24098 0.0
C3 C 0.39571 0.3551 0.22979 0.0
H4 H 0.37575 0.27261 0.28223 0.0
C5 C 0.38178 0.29578 0.26791 0.0
C6 C 0.3631 0.31857 0.27568 0.0
C7 C 0.37067 0.34835 0.25698 0.0
C8 C 0.40101 0.38555 0.20862 0.0
H9 H 0.35672 0.36622 0.26362 0.0
C10 C 0.37093 0.3958 0.20121 0.0
C11 C 0.37541 0.42532 0.18262 0.0
C12 C 0.43581 0.40479 0.19607 0.0
H13 H 0.45961 0.39784 0.20153 0.0
C14 C 0.44035 0.43373 0.17688 0.0
H15 H 0.3437 0.38046 0.20956 0.0
C16 C 0.41043 0.44407 0.17025 0.0
H17 H 0.41485 0.46705 0.15602 0.0
H18 H 0.4673 0.4485 0.16749 0.0
H19 H 0.22529 0.90685 0.73536 0.0
C20 C 0.24223 0.89289 0.72508 0.0
C21 C 0.27674 0.89802 0.73977 0.0
C22 C 0.22967 0.87 0.69693 0.0
H23 H 0.32474 0.88302 0.73772 0.0
C24 C 0.29854 0.88001 0.726 0.0
C25 C 0.28634 0.85709 0.69803 0.0
C26 C 0.25182 0.85203 0.68376 0.0
C27 C 0.19454 0.86618 0.67972 0.0
H28 H 0.24276 0.83495 0.66159 0.0
C29 C 0.18639 0.8954 0.67136 0.0
C30 C 0.15561 0.89257 0.65103 0.0
C31 C 0.17049 0.83362 0.66918 0.0
H32 H 0.176 0.81067 0.67555 0.0
C33 C 0.13935 0.83041 0.64992 0.0
H34 H 0.2048 0.92038 0.67996 0.0
C35 C 0.13215 0.85958 0.64048 0.0
H36 H 0.10867 0.85611 0.6242 0.0
H37 H 0.12116 0.80523 0.64159 0.0
H38 H 0.71628 0.46294 0.92434 0.0
C39 C 0.70478 0.43588 0.92957 0.0
C40 C 0.72397 0.42085 0.95096 0.0
C41 C 0.66915 0.41692 0.91746 0.0
H42 H 0.72119 0.37398 0.97525 0.0
C43 C 0.707 0.38596 0.95903 0.0
C44 C 0.67111 0.36669 0.948 0.0
C45 C 0.65281 0.38243 0.92679 0.0
C46 C 0.64546 0.43455 0.90209 0.0
H47 H 0.62499 0.36823 0.91841 0.0
C48 C 0.65221 0.45045 0.86989 0.0
C49 C 0.6281 0.46661 0.85736 0.0
C50 C 0.61474 0.43511 0.92097 0.0
H51 H 0.60897 0.42334 0.94561 0.0
C52 C 0.59127 0.45097 0.90871 0.0
H53 H 0.6757 0.45024 0.85492 0.0
C54 C 0.59786 0.46658 0.87732 0.0
H55 H 0.57896 0.47857 0.86839 0.0
H56 H 0.56778 0.45118 0.92367 0.0
H57 H 0.91694 0.81328 0.3941 0.0
C58 C 0.89673 0.79516 0.40968 0.0
C59 C 0.89082 0.8044 0.44366 0.0
C60 C 0.87495 0.76336 0.39454 0.0
H61 H 0.86028 0.78553 0.48923 0.0
C62 C 0.86324 0.78028 0.46242 0.0
C63 C 0.83842 0.75005 0.44706 0.0
C64 C 0.84527 0.74141 0.41311 0.0
C65 C 0.87787 0.75742 0.35703 0.0
H66 H 0.82637 0.71882 0.40027 0.0
C67 C 0.89575 0.73553 0.34255 0.0
C68 C 0.89969 0.73314 0.30654 0.0
C69 C 0.86337 0.77573 0.33528 0.0
H70 H 0.84961 0.79254 0.34571 0.0
C71 C 0.86661 0.7729 0.30003 0.0
H72 H 0.90735 0.72145 0.35903 0.0
C73 C 0.88473 0.75203 0.2858 0.0
H74 H 0.88699 0.75055 0.25828 0.0
H75 H 0.85528 0.78723 0.28361 0.0
H76 H 0.72513 0.81078 0.96428 0.0
C77 C 0.73965 0.83008 0.94634 0.0
C78 C 0.77748 0.83764 0.94117 0.0
C79 C 0.72086 0.84844 0.92923 0.0
H80 H 0.82482 0.86812 0.91305 0.0
C81 C 0.79591 0.86291 0.91813 0.0
C82 C 0.77738 0.88076 0.90051 0.0
C83 C 0.73986 0.87354 0.90607 0.0
C84 C 0.68149 0.84194 0.93557 0.0
H85 H 0.72547 0.88738 0.89238 0.0
C86 C 0.66951 0.8693 0.94489 0.0
C87 C 0.63192 0.86393 0.94961 0.0
C88 C 0.65573 0.80875 0.93149 0.0
H89 H 0.66443 0.78735 0.92426 0.0
C90 C 0.6184 0.80314 0.93577 0.0
H91 H 0.68981 0.89461 0.94917 0.0
C92 C 0.60648 0.83045 0.9445 0.0
H93 H 0.57727 0.82525 0.94696 0.0
H94 H 0.59855 0.77755 0.93204 0.0
H95 H 0.7642 0.18429 0.5783 0.0
C96 C 0.75617 0.18294 0.55175 0.0
C97 C 0.77731 0.17395 0.5264 0.0
C98 C 0.72522 0.19113 0.54316 0.0
H99 H 0.78254 0.16557 0.47235 0.0
C100 C 0.76727 0.17368 0.492 0.0
C101 C 0.73696 0.18276 0.48276 0.0
C102 C 0.71603 0.19133 0.5086 0.0
C103 C 0.70246 0.19941 0.57034 0.0
H104 H 0.69244 0.19811 0.50184 0.0
C105 C 0.68899 0.22646 0.56662 0.0
C106 C 0.66671 0.23404 0.59183 0.0
C107 C 0.6938 0.18015 0.60003 0.0
H108 H 0.70341 0.15889 0.60348 0.0
C109 C 0.67202 0.18776 0.62532 0.0
H110 H 0.6965 0.2421 0.54432 0.0
C111 C 0.65846 0.21447 0.6213 0.0
H112 H 0.64107 0.21944 0.641 0.0
H113 H 0.66533 0.17266 0.64799 0.0
H114 H 0.44607 0.81148 0.2702 0.0
C115 C 0.41809 0.79863 0.26151 0.0
C116 C 0.40069 0.81627 0.24133 0.0
C117 C 0.40048 0.76371 0.26874 0.0
H118 H 0.35147 0.81152 0.21347 0.0
C119 C 0.36486 0.7983 0.22909 0.0
C120 C 0.347 0.76308 0.23496 0.0
C121 C 0.36511 0.74631 0.25525 0.0
C122 C 0.42231 0.74301 0.28121 0.0
H123 H 0.35299 0.71891 0.25855 0.0
C124 C 0.42929 0.73946 0.31627 0.0
C125 C 0.45003 0.71865 0.3256 0.0
C126 C 0.43574 0.72551 0.25624 0.0
H127 H 0.43066 0.72772 0.22942 0.0
C128 C 0.45553 0.70485 0.2653 0.0
H129 H 0.41907 0.75283 0.33581 0.0
C130 C 0.46252 0.70137 0.29946 0.0
H131 H 0.47768 0.68471 0.30547 0.0
H132 H 0.46546 0.69134 0.24569 0.0
H133 H 0.25396 0.48552 0.78228 0.0
C134 C 0.23717 0.46284 0.76801 0.0
C135 C 0.24709 0.45648 0.73425 0.0
C136 C 0.20671 0.43892 0.78406 0.0
H137 H 0.23456 0.41975 0.69191 0.0
C138 C 0.22601 0.42576 0.71696 0.0
C139 C 0.19601 0.40127 0.73251 0.0
C140 C 0.18638 0.4084 0.7659 0.0
C141 C 0.20119 0.44075 0.82183 0.0
H142 H 0.1639 0.38939 0.77855 0.0
C143 C 0.18706 0.4644 0.83888 0.0
C144 C 0.18096 0.46288 0.87487 0.0
C145 C 0.20911 0.41621 0.84101 0.0
H146 H 0.21988 0.39792 0.82873 0.0
C147 C 0.20288 0.41442 0.87591 0.0
H148 H 0.18083 0.48346 0.82439 0.0
C149 C 0.18875 0.43717 0.89258 0.0
H150 H 0.18342 0.43414 0.91965 0.0
H151 H 0.20871 0.39499 0.89015 0.0
La152 La 0.05904 0.12153 0.54253 0.0
La153 La 0.04872 0.09213 0.61222 0.0
C154 C 0.06326 0.15641 0.4903 0.0
C155 C 0.09488 0.18082 0.47332 0.0
C156 C 0.13019 0.17987 0.47878 0.0
C157 C 0.16003 0.20103 0.4607 0.0
C158 C 0.15527 0.22399 0.43712 0.0
C159 C 0.11996 0.22584 0.43284 0.0
C160 C 0.08996 0.20427 0.45071 0.0
C161 C 0.11031 0.09694 0.56193 0.0
C162 C 0.09009 0.1704 0.6083 0.0
C163 C 0.04717 0.05858 0.66488 0.0
C164 C 0.01693 0.03575 0.68452 0.0
C165 C 0.98053 1.02851 0.67382 0.0
C166 C 0.95148 1.01163 0.69527 0.0
C167 C 0.9585 1.00188 0.72776 0.0
C168 C 0.99506 1.00775 0.73757 0.0
C169 C 0.02406 1.02468 0.71612 0.0
C170 C 0.99682 0.11567 0.59333 0.0
C171 C 0.01672 0.04301 0.54678 0.0
O172 O 0.06259 0.12476 0.4894 0.0
O173 O 0.05549 0.16592 0.52063 0.0
O174 O 0.10059 0.09794 0.53071 0.0
O175 O 0.09437 0.11286 0.57991 0.0
O176 O 0.0769 0.1677 0.57683 0.0
O177 O 0.08866 0.14266 0.62469 0.0
O178 O 0.04838 0.09038 0.66542 0.0
O179 O 0.05198 0.04769 0.63414 0.0
O180 O 1.00566 0.11358 0.62464 0.0
O181 O 1.01298 0.1005 0.57462 0.0
O182 O 0.02907 0.0457 0.57858 0.0
O183 O 0.01949 0.07068 0.52948 0.0
H184 H 0.13454 0.16203 0.49635 0.0
H185 H 0.18654 0.19838 0.46437 0.0
H186 H 0.11536 0.24364 0.41541 0.0
H187 H 0.06289 0.20551 0.44647 0.0
H188 H 0.97467 0.03726 0.64951 0.0
H189 H 0.92368 1.00768 0.68707 0.0
H190 H 1.00129 0.99994 0.76219 0.0
H191 H 0.05206 1.03024 0.72473 0.0
La192 La 0.56905 0.10484 0.10716 0.0
La193 La 0.49492 0.07941 0.08218 0.0
C194 C 0.63077 0.14069 0.13183 0.0
C195 C 0.64193 0.15018 0.16745 0.0
C196 C 0.61797 0.13438 0.19371 0.0
C197 C 0.62864 0.14206 0.22773 0.0
C198 C 0.66341 0.16599 0.23623 0.0
C199 C 0.68711 0.18227 0.20973 0.0
C200 C 0.67643 0.17435 0.17556 0.0
C201 C 0.52939 0.04493 0.13324 0.0
C202 C 0.50794 0.12783 0.14414 0.0
C203 C 0.43176 0.04464 0.0596 0.0
C204 C 0.41544 0.03421 1.02561 0.0
C205 C 0.43165 0.05256 0.99681 0.0
C206 C 0.41569 0.04248 0.96461 0.0
C207 C 0.38342 1.01368 0.96062 0.0
C208 C 0.36742 0.99537 0.98967 0.0
C209 C 0.38329 1.00562 1.02188 0.0
C210 C 0.53523 0.13932 0.05619 0.0
C211 C 0.55524 0.05471 0.04602 0.0
O212 O 0.62131 0.10801 0.12413 0.0
O213 O 0.60723 0.15365 0.11987 0.0
O214 O 0.56388 0.05454 0.12626 0.0
O215 O 0.5184 0.06966 0.12816 0.0
O216 O 0.54281 0.1368 0.13542 0.0
O217 O 0.48392 0.09954 0.13097 0.0
O218 O 0.44249 0.07743 0.06715 0.0
O219 O 0.45599 1.03118 0.06874 0.0
O220 O 0.50083 0.13013 0.06347 0.0
O221 O 0.54574 0.1143 0.06106 0.0
O222 O 0.52032 0.04708 0.0541 0.0
O223 O 0.58021 0.08247 0.05934 0.0
H224 H 0.59116 0.11562 0.18784 0.0
H225 H 0.6099 0.12855 0.24732 0.0
H226 H 0.71387 0.20115 0.21535 0.0
H227 H 0.69514 0.18689 0.15552 0.0
H228 H 0.45659 0.07472 0.99925 0.0
H229 H 0.42853 0.0574 0.9429 0.0
H230 H 0.34301 0.97271 0.98749 0.0
H231 H 0.37057 0.99109 0.04387 0.0
La232 La 0.54345 0.57029 0.57138 0.0
La233 La 0.5466 0.62896 0.6155 0.0
C234 C 0.55787 0.52417 0.53719 0.0
C235 C 0.56653 0.4934 0.54489 0.0
C236 C 0.55017 0.46311 0.52545 0.0
C237 C 0.55848 0.43374 0.53195 0.0
C238 C 0.58345 0.43421 0.55796 0.0
C239 C 0.59947 0.46458 0.57767 0.0
C240 C 0.59104 0.49387 0.57124 0.0
C241 C 0.48079 0.56389 0.60295 0.0
C242 C 0.57415 0.57444 0.64824 0.0
C243 C 0.53082 0.67381 0.65047 0.0
C244 C 0.50393 0.69156 0.64855 0.0
C245 C 0.47644 0.68545 0.67342 0.0
C246 C 0.45063 0.70186 0.67244 0.0
C247 C 0.45203 0.72503 0.64674 0.0
C248 C 0.47955 0.73123 0.6218 0.0
C249 C 0.50522 0.71451 0.62258 0.0
C250 C 0.60954 0.6357 0.58428 0.0
C251 C 0.51792 0.62548 0.53902 0.0
O252 O 0.52446 0.52299 0.54412 0.0
O253 O 0.58244 0.55369 0.54634 0.0
O254 O 0.48325 0.55326 0.5719 0.0
O255 O 0.51268 0.57631 0.61543 0.0
O256 O 0.56905 0.55879 0.61768 0.0
O257 O 0.56541 0.60217 0.65405 0.0
O258 O 0.55706 0.68104 0.62777 0.0
O259 O 0.51705 0.64094 0.65588 0.0
O260 O 0.6066 0.64677 0.61507 0.0
O261 O 0.57771 0.62295 0.5716 0.0
O262 O 0.51456 0.6354 0.571 0.0
O263 O 0.53404 0.60267 0.53255 0.0
H264 H 0.53103 0.46221 0.50515 0.0
H265 H 0.54521 0.41063 0.51666 0.0
H266 H 0.61916 0.46598 0.5976 0.0
H267 H 0.60404 0.51696 0.58665 0.0
H268 H 0.47502 0.66803 0.6938 0.0
H269 H 0.43007 0.69703 0.6923 0.0
H270 H 0.4811 0.7489 0.60165 0.0
H271 H 0.52604 0.71966 0.60296 0.0
La272 La 0.03581 0.55964 0.10829 0.0
La273 La 0.03543 0.6277 0.07679 0.0
C274 C 0.0518 0.50822 0.12403 0.0
C275 C 0.0859 0.50103 0.12899 0.0
C276 C 0.08472 0.47137 0.14563 0.0
C277 C 0.11697 0.46438 0.15104 0.0
C278 C 0.15099 0.48699 0.13984 0.0
C279 C 0.15198 0.51669 0.12303 0.0
C280 C 0.11971 0.52369 0.11773 0.0
C281 C 1.00217 0.59525 0.14416 0.0
C282 C 0.1061 0.62885 0.11752 0.0
C283 C 0.02096 0.68195 0.0737 0.0
C284 C 0.99863 0.69711 0.05431 0.0
C285 C 1.00311 0.73158 0.0609 0.0
C286 C 0.97915 0.74583 0.04651 0.0
C287 C 0.9502 0.72583 1.02511 0.0
C288 C 0.9464 0.69136 1.0178 0.0
C289 C 0.97046 0.67707 1.03235 0.0
C290 C 0.06093 0.59145 1.03198 0.0
C291 C 0.9684 0.55736 0.06195 0.0
O292 O 0.04551 0.52955 0.14649 0.0
O293 O 0.04484 0.51447 0.09274 0.0
O294 O 0.99219 0.56197 0.14345 0.0
O295 O 0.03095 0.6069 0.12653 0.0
O296 O 0.09188 0.59493 0.11954 0.0
O297 O 0.0881 0.64712 0.10359 0.0
O298 O 0.04924 0.67752 0.05826 0.0
O299 O 1.00237 0.65579 0.09201 0.0
O300 O 0.05656 0.6203 1.02533 0.0
O301 O 0.05021 0.58505 0.06221 0.0
O302 O 0.98121 0.59144 0.06133 0.0
O303 O 0.9863 0.53948 0.07684 0.0
H304 H 0.05884 0.45361 0.15448 0.0
H305 H 0.11521 0.44109 0.16369 0.0
H306 H 0.17777 0.53481 0.11447 0.0
H307 H 0.12121 0.54685 0.10499 0.0
H308 H 0.02442 0.74723 0.07818 0.0
H309 H 0.98256 0.77225 0.05323 0.0
H310 H 0.92467 0.67537 1.00114 0.0
H311 H 0.96651 0.65024 1.02723 0.0
H312 H 0.29408 0.32072 0.26901 0.0
H313 H 0.2283 0.25323 0.45503 0.0
H314 H 0.36467 0.29631 0.34057 0.0
H315 H 0.15406 0.24052 0.36998 0.0
H316 H 0.27992 0.28005 0.41727 0.0
H317 H 0.2439 0.30274 0.31014 0.0
C318 C 0.29912 0.31198 0.29359 0.0
C319 C 0.3335 0.30991 0.30146 0.0
C320 C 0.25226 0.27158 0.40705 0.0
C321 C 0.27627 0.28923 0.34846 0.0
C322 C 0.22274 0.25612 0.42851 0.0
C323 C 0.18662 0.24412 0.41568 0.0
C324 C 0.24565 0.27553 0.37261 0.0
C325 C 0.18123 0.24957 0.38124 0.0
C326 C 0.27044 0.30154 0.31692 0.0
C327 C 0.33844 0.29801 0.33348 0.0
N328 N 0.21043 0.26474 0.36091 0.0
N329 N 0.31009 0.28809 0.35588 0.0
H330 H 0.23818 0.90484 0.7969 0.0
H331 H 0.41926 1.01334 0.90012 0.0
H332 H 0.34581 0.94403 0.75168 0.0
H333 H 0.31038 0.98739 0.94257 0.0
H334 H 0.39217 0.99111 0.84463 0.0
H335 H 0.26302 0.9381 0.84931 0.0
C336 C 0.26689 0.92086 0.7978 0.0
C337 C 0.29008 0.92129 0.77005 0.0
C338 C 0.37415 0.9905 0.86601 0.0
C339 C 0.3188 0.95892 0.83005 0.0
C340 C 0.38963 1.00339 0.89775 0.0
C341 C 0.36712 1.00207 0.92624 0.0
C342 C 0.33582 0.97587 0.86264 0.0
C343 C 0.32886 0.98831 0.92153 0.0
C344 C 0.28112 0.93968 0.82779 0.0
C345 C 0.32713 0.94233 0.77273 0.0
N346 N 0.31443 0.9755 0.89042 0.0
N347 N 0.34039 0.96 0.80229 0.0
H348 H 0.62267 0.43816 0.79207 0.0
H349 H 0.59614 0.60365 0.71174 0.0
H350 H 0.64028 0.53401 0.84683 0.0
H351 H 0.58453 0.5117 0.65158 0.0
H352 H 0.6163 0.57905 0.76003 0.0
H353 H 0.61395 0.46502 0.73911 0.0
C354 C 0.62593 0.46513 0.79274 0.0
C355 C 0.63269 0.48397 0.82391 0.0
C356 C 0.60958 0.56419 0.73628 0.0
C357 C 0.62152 0.51466 0.76364 0.0
C358 C 0.59792 0.57828 0.70853 0.0
C359 C 0.58836 0.55982 0.67729 0.0
C360 C 0.6116 0.53104 0.73329 0.0
C361 C 0.59157 0.52703 0.67502 0.0
C362 C 0.62047 0.48037 0.76258 0.0
C363 C 0.63551 0.51861 0.82338 0.0
N364 N 0.60261 0.51363 0.70262 0.0
N365 N 0.62965 0.53262 0.79401 0.0
H366 H 0.88478 0.6631 0.30753 0.0
H367 H 0.02914 0.66489 0.15772 0.0
H368 H 0.95849 0.75516 0.26397 0.0
H369 H 0.94459 0.57247 0.18896 0.0
H370 H 1.00716 0.69782 0.2002 0.0
H371 H 0.91065 0.62892 0.26933 0.0
C372 C 0.90701 0.67614 0.29057 0.0
C373 C 0.91963 0.71208 0.28916 0.0
C374 C 0.9933 0.67034 0.19781 0.0
C375 C 0.94895 0.67316 0.24478 0.0
C376 C 1.00576 0.65151 0.17334 0.0
C377 C 0.98845 0.61583 0.16935 0.0
C378 C 0.9634 0.65349 0.21891 0.0
C379 C 0.95866 0.59993 0.1909 0.0
C380 C 0.92149 0.65663 0.26844 0.0
C381 C 0.94801 0.72754 0.26606 0.0
N382 N 0.94712 0.61878 0.21466 0.0
N383 N 0.96152 0.70812 0.24487 0.0
H384 H 0.47871 0.31272 0.22301 0.0
H385 H 0.43929 0.11583 0.1704 0.0
H386 H 0.37416 0.23226 0.23602 0.0
H387 H 0.54694 0.19359 0.16603 0.0
H388 H 0.41612 0.15764 0.19813 0.0
H389 H 0.50522 0.26936 0.20459 0.0
C390 C 0.46138 0.28595 0.22206 0.0
C391 C 0.42418 0.27612 0.23108 0.0
C392 C 0.44492 0.16552 0.19146 0.0
C393 C 0.45428 0.22639 0.21018 0.0
C394 C 0.45819 0.14159 0.17569 0.0
C395 C 0.49505 0.15128 0.16564 0.0
C396 C 0.46856 0.19953 0.19697 0.0
C397 C 0.51829 0.18502 0.17326 0.0
C398 C 0.47655 0.2612 0.21176 0.0
C399 C 0.40307 0.24102 0.22973 0.0
N400 N 0.50456 0.20805 0.18812 0.0
N401 N 0.41835 0.21751 0.2193 0.0
H402 H 0.08948 0.90093 0.63717 0.0
H403 H 0.1479 0.09668 0.62019 0.0
H404 H 0.20665 0.95634 0.63818 0.0
H405 H 0.09448 0.03299 0.53344 0.0
H406 H 0.16006 0.04711 0.64349 0.0
H407 H 0.08013 0.95155 0.61477 0.0
C408 C 0.11328 0.92345 0.63278 0.0
C409 C 0.14903 0.9239 0.63955 0.0
C410 C 0.14591 0.04434 0.61927 0.0
C411 C 0.13794 0.98217 0.61553 0.0
C412 C 0.13914 0.07238 0.606 0.0
C413 C 0.12075 0.06881 0.57474 0.0
C414 C 0.13292 1.01256 0.60163 0.0
C415 C 0.10929 0.0368 0.55739 0.0
C416 C 0.10774 0.95234 0.62029 0.0
C417 C 0.17852 0.95461 0.63421 0.0
N418 N 0.11509 1.00964 0.57135 0.0
N419 N 0.17229 0.98262 0.62273 0.0
H420 H 0.75051 0.41454 1.01477 0.0
H421 H 0.93256 0.57937 1.0122 0.0
H422 H 0.7806 0.47644 0.92557 0.0
H423 H 0.92195 0.49173 0.07288 0.0
H424 H 0.87358 0.547 0.98445 0.0
H425 H 0.80955 0.44723 0.04039 0.0
C426 C 0.76952 0.43462 1.00013 0.0
C427 C 0.76024 0.44188 0.96727 0.0
C428 C 0.88425 0.53491 1.00381 0.0
C429 C 0.82825 0.48083 0.99779 0.0
C430 C 0.91784 0.55341 1.01982 0.0
C431 C 0.93242 0.53831 0.045 0.0
C432 C 0.86458 0.50127 1.0135 0.0
C433 C 0.91203 0.50446 0.05357 0.0
C434 C 0.80332 0.45358 1.01513 0.0
C435 C 0.78606 0.46966 0.95086 0.0
N436 N 0.87917 0.48728 0.03811 0.0
N437 N 0.81872 0.4881 0.96628 0.0
H438 H 0.79612 0.68007 0.44202 0.0
H439 H 0.67405 0.68466 0.60396 0.0
H440 H 0.79996 0.77424 0.49484 0.0
H441 H 0.62354 0.61746 0.51846 0.0
H442 H 0.72916 0.70999 0.56978 0.0
H443 H 0.74007 0.64962 0.47407 0.0
C444 C 0.78559 0.69447 0.46021 0.0
C445 C 0.80398 0.72999 0.46596 0.0
C446 C 0.70612 0.68951 0.55856 0.0
C447 C 0.74022 0.69483 0.50331 0.0
C448 C 0.67464 0.67493 0.57809 0.0
C449 C 0.64395 0.64897 0.56405 0.0
C450 C 0.70754 0.6777 0.52481 0.0
C451 C 0.64653 0.63746 0.53027 0.0
C452 C 0.75359 0.67694 0.47855 0.0
C453 C 0.7884 0.74681 0.49016 0.0
N454 N 0.67784 0.65181 0.51177 0.0
N455 N 0.75801 0.72912 0.50803 0.0
H456 H 0.32159 0.42568 0.22794 0.0
H457 H 0.20855 0.49451 0.09595 0.0
H458 H 0.35651 0.45074 0.1244 0.0
H459 H 0.1716 0.46281 0.19756 0.0
H460 H 0.26441 0.48154 0.10649 0.0
H461 H 0.26788 0.44175 0.21776 0.0
C462 C 0.31789 0.43444 0.20297 0.0
C463 C 0.34348 0.43654 0.17687 0.0
C464 C 0.24409 0.47745 0.12648 0.0
C465 C 0.28202 0.45544 0.16514 0.0
C466 C 0.21228 0.48502 0.12055 0.0
C467 C 0.18527 0.47964 0.14588 0.0
C468 C 0.24902 0.46452 0.15802 0.0
C469 C 0.19139 0.46689 0.17712 0.0
C470 C 0.28726 0.44379 0.19723 0.0
C471 C 0.33762 0.44887 0.1453 0.0
N472 N 0.22257 0.45978 0.18228 0.0
N473 N 0.30743 0.45773 0.14027 0.0
H474 H 0.69851 0.31438 0.95962 0.0
H475 H 0.51032 0.19063 0.04057 0.0
H476 H 0.59903 0.3384 0.96822 0.0
H477 H 0.60746 0.16283 0.03349 0.0
H478 H 0.54306 0.24439 1.01316 0.0
H479 H 0.66663 0.25889 0.98535 0.0
C480 C 0.67 0.3081 0.96679 0.0
C481 C 0.6516 0.33146 0.96146 0.0
C482 C 0.55739 0.22666 1.01745 0.0
C483 C 0.61475 0.26749 0.99104 0.0
C484 C 0.53863 0.19581 0.03317 0.0
C485 C 0.55605 0.172 0.0393 0.0
C486 C 0.59419 0.23423 1.00763 0.0
C487 C 0.59289 0.18037 1.02919 0.0
C488 C 0.65177 0.27626 0.98142 0.0
C489 C 0.61444 0.32134 0.97108 0.0
N490 N 0.61073 0.21076 1.01388 0.0
N491 N 0.59747 0.29041 0.98537 0.0
H492 H 0.8668 0.84031 0.49389 0.0
H493 H 0.01732 1.02287 0.47944 0.0
H494 H 0.96006 0.85172 0.42813 0.0
H495 H 0.97584 0.9838 0.57767 0.0
H496 H 0.98884 0.96466 0.45396 0.0
H497 H 0.89875 0.89678 0.51901 0.0
C498 C 0.89418 0.85404 0.48488 0.0
C499 C 0.91073 0.83992 0.459 0.0
C500 C 0.98606 0.96895 0.48107 0.0
C501 C 0.94671 0.90666 0.48699 0.0
C502 C 1.002 1.00213 0.49558 0.0
C503 C 0.9988 1.00825 0.53073 0.0
C504 C 0.96581 0.94191 0.50165 0.0
C505 C 0.979 0.9803 0.55049 0.0
C506 C 0.91221 0.88676 0.49918 0.0
C507 C 0.94568 0.86092 0.44771 0.0
N508 N 0.96286 0.94852 0.53564 0.0
N509 N 0.9623 0.89322 0.46154 0.0
H510 H 0.35945 0.88287 0.68319 0.0
H511 H 0.37773 0.69888 0.6559 0.0
H512 H 0.26639 0.78865 0.68144 0.0
H513 H 0.4667 0.79357 0.63894 0.0
H514 H 0.33584 0.73112 0.66284 0.0
H515 H 0.3988 0.85068 0.66468 0.0
C516 C 0.34733 0.85538 0.67875 0.0
C517 C 0.30975 0.83828 0.68413 0.0
C518 C 0.36444 0.74483 0.65722 0.0
C519 C 0.35447 0.80131 0.663 0.0
C520 C 0.38834 0.72646 0.6534 0.0
C521 C 0.42572 0.74367 0.64713 0.0
C522 C 0.37814 0.7807 0.65516 0.0
C523 C 0.43803 0.77933 0.64364 0.0
C524 C 0.36972 0.83705 0.66801 0.0
C525 C 0.29525 0.80277 0.67752 0.0
N526 N 0.41436 0.79674 0.64811 0.0
N527 N 0.31774 0.78536 0.66765 0.0
H528 H 0.83819 0.93676 0.91206 0.0
H529 H 0.88993 0.95423 0.71512 0.0
H530 H 0.76387 0.88059 0.8323 0.0
H531 H 0.95757 1.01746 0.79583 0.0
H532 H 0.84096 0.93039 0.75658 0.0
H533 H 0.87933 0.97093 0.86909 0.0
C534 C 0.8303 0.93221 0.88541 0.0
C535 C 0.79787 0.90591 0.8755 0.0
C536 C 0.86644 0.94965 0.76513 0.0
C537 C 0.84506 0.94408 0.82612 0.0
C538 C 0.89439 0.96325 0.7415 0.0
C539 C 0.92811 0.98747 0.75214 0.0
C540 C 0.87232 0.96035 0.79961 0.0
C541 C 0.93241 0.99819 0.78663 0.0
C542 C 0.85379 0.95155 0.86086 0.0
C543 C 0.78868 0.90082 0.84078 0.0
N544 N 0.90497 0.98441 0.80912 0.0
N545 N 0.81252 0.9194 0.81718 0.0
H546 H 0.78319 0.20338 0.42804 0.0
H547 H 0.62171 0.17057 0.29188 0.0
H548 H 0.66808 0.16269 0.45384 0.0
H549 H 0.7317 0.17699 0.26375 0.0
H550 H 0.63996 0.17665 0.35182 0.0
H551 H 0.76622 0.20216 0.36801 0.0
C552 C 0.75436 0.19405 0.42116 0.0
C553 C 0.72705 0.18296 0.44619 0.0
C554 C 0.6601 0.17683 0.33249 0.0
C555 C 0.70754 0.18228 0.37751 0.0
C556 C 0.6497 0.17323 0.29823 0.0
C557 C 0.67507 0.17285 0.2726 0.0
C558 C 0.69624 0.18041 0.3413 0.0
C559 C 0.71124 0.17739 0.2825 0.0
C560 C 0.74474 0.19358 0.38688 0.0
C561 C 0.69014 0.17193 0.43566 0.0
N562 N 0.72071 0.18087 0.31608 0.0
N563 N 0.68149 0.17189 0.40215 0.0
H564 H 0.40522 0.7018 0.38304 0.0
H565 H 0.5439 0.62997 0.47404 0.0
H566 H 0.51702 0.72313 0.3504 0.0
H567 H 0.46681 0.65894 0.53663 0.0
H568 H 0.52743 0.65729 0.42577 0.0
H569 H 0.4209 0.68185 0.43773 0.0
C570 C 0.43317 0.70307 0.38759 0.0
C571 C 0.45969 0.71382 0.36173 0.0
C572 C 0.51404 0.65776 0.45002 0.0
C573 C 0.47743 0.69009 0.42368 0.0
C574 C 0.52328 0.64191 0.47767 0.0
C575 C 0.50675 0.64199 0.50965 0.0
C576 C 0.48735 0.67345 0.45369 0.0
C577 C 0.48035 0.65827 0.51252 0.0
C578 C 0.44201 0.69143 0.4187 0.0
C579 C 0.49541 0.71454 0.36915 0.0
N580 N 0.47117 0.67305 0.48483 0.0
N581 N 0.50295 0.70234 0.3989 0.0
H582 H 0.20177 0.4915 0.93889 0.0
H583 H 0.06097 0.59162 0.96238 0.0
H584 H 0.12568 0.48866 0.85821 0.0
H585 H 0.09697 0.54651 0.04618 0.0
H586 H 0.09014 0.56211 0.92234 0.0
H587 H 0.1709 0.52079 0.97633 0.0
C588 C 0.17857 0.49705 0.92884 0.0
C589 C 0.16597 0.4866 0.89523 0.0
C590 C 0.09142 0.55846 0.94945 0.0
C591 C 0.1307 0.5214 0.93851 0.0
C592 C 0.0748 0.57528 0.97238 0.0
C593 C 0.07621 0.57131 1.00779 0.0
C594 C 0.11066 0.5382 0.96196 0.0
C595 C 0.09471 0.54997 1.01919 0.0
C596 C 0.16093 0.51385 0.95044 0.0
C597 C 0.1365 0.49597 0.88376 0.0
N598 N 0.11154 0.53461 0.99645 0.0
N599 N 0.11985 0.51274 0.90534 0.0
H600 H 0.57355 0.86199 0.99082 0.0
H601 H 0.62345 0.0613 1.01983 0.0
H602 H 0.66181 0.93252 0.93386 0.0
H603 H 0.51222 0.99014 1.02572 0.0
H604 H 0.64172 1.01548 0.99264 0.0
H605 H 0.55402 0.90949 1.00909 0.0
C606 C 0.58867 0.88727 0.98173 0.0
C607 C 0.61942 0.89291 0.96052 0.0
C608 C 0.61326 1.01022 0.99954 0.0
C609 C 0.59764 0.94784 0.98251 0.0
C610 C 0.60282 0.03628 1.01501 0.0
C611 C 0.56629 1.02954 1.02523 0.0
C612 C 0.58713 0.97715 0.99502 0.0
C613 C 0.5407 0.9966 1.01839 0.0
C614 C 0.57755 0.91447 0.99241 0.0
C615 C 0.63838 0.92677 0.95067 0.0
N616 N 0.55172 0.97156 1.0042 0.0
N617 N 0.62738 0.953 0.96199 0.0
H618 H 0.78566 0.13879 0.5821 0.0
H619 H 0.97792 0.12559 0.52869 0.0
H620 H 0.84308 0.18788 0.49251 0.0
H621 H 0.94466 0.12696 0.63377 0.0
H622 H 0.92439 0.14015 0.51158 0.0
H623 H 0.8398 0.1257 0.59833 0.0
C624 C 0.80964 0.14706 0.56591 0.0
C625 C 0.80974 0.16478 0.53597 0.0
C626 C 0.92899 0.13735 0.53836 0.0
C627 C 0.87143 0.14886 0.55406 0.0
C628 C 0.95934 0.12902 0.54809 0.0
C629 C 0.96551 0.12515 0.58263 0.0
C630 C 0.90443 0.14109 0.56336 0.0
C631 C 0.9408 0.1298 0.60687 0.0
C632 C 0.84046 0.13938 0.57515 0.0
C633 C 0.84142 0.17382 0.51557 0.0
N634 N 0.9111 0.13725 0.59674 0.0
N635 N 0.87097 0.16564 0.52493 0.0
H636 H 0.32208 0.77343 0.17162 0.0
H637 H 0.1428 0.60547 0.1652 0.0
H638 H 0.28968 0.70644 0.25702 0.0
H639 H 0.15265 0.69466 0.10717 0.0
H640 H 0.20102 0.63772 0.19402 0.0
H641 H 0.26432 0.74106 0.14333 0.0
C642 C 0.30283 0.75229 0.18485 0.0
C643 C 0.31115 0.74329 0.21735 0.0
C644 C 0.19042 0.65016 0.17493 0.0
C645 C 0.24485 0.7049 0.1838 0.0
C646 C 0.15728 0.63172 0.15827 0.0
C647 C 0.14261 0.64734 0.13367 0.0
C648 C 0.20954 0.68433 0.16654 0.0
C649 C 0.1627 0.68153 0.12599 0.0
C650 C 0.26983 0.73354 0.16833 0.0
C651 C 0.28507 0.71445 0.23201 0.0
N652 N 0.19511 0.69875 0.14219 0.0
N653 N 0.25332 0.69629 0.21512 0.0
H654 H 0.3164 0.48934 0.76192 0.0
H655 H 0.41055 0.53665 0.57882 0.0
H656 H 0.25603 0.47581 0.66749 0.0
H657 H 0.47184 0.56646 0.67279 0.0
H658 H 0.35373 0.5155 0.61162 0.0
H659 H 0.3732 0.51955 0.7311 0.0
C660 C 0.31488 0.49322 0.73488 0.0
C661 C 0.28116 0.47961 0.71735 0.0
C662 C 0.3795 0.52685 0.6252 0.0
C663 C 0.34646 0.5137 0.68166 0.0
C664 C 0.41203 0.53892 0.60641 0.0
C665 C 0.44608 0.55325 0.62302 0.0
C666 C 0.38077 0.52868 0.66109 0.0
C667 C 0.44621 0.55558 0.6589 0.0
C668 C 0.34745 0.51026 0.71721 0.0
C669 C 0.28129 0.48522 0.68212 0.0
N670 N 0.41416 0.54317 0.67672 0.0
N671 N 0.31325 0.50142 0.66554 0.0
H672 H 0.75942 0.76829 0.95024 0.0
H673 H 0.96447 0.7905 1.00188 0.0
H674 H 0.84411 0.86592 0.97211 0.0
H675 H 0.87516 0.69565 1.01789 0.0
H676 H 0.9203 0.81675 0.98503 0.0
H677 H 0.80034 0.73933 0.97148 0.0
C678 C 0.78631 0.78358 0.96004 0.0
C679 C 0.79864 0.81951 0.95897 0.0
C680 C 0.9103 0.7902 0.9923 0.0
C681 C 0.84554 0.78679 0.98239 0.0
C682 C 0.93554 0.77517 1.00196 0.0
C683 C 0.92356 0.7409 1.01175 0.0
C684 C 0.87265 0.77083 0.99202 0.0
C685 C 0.88569 0.72208 1.01035 0.0
C686 C 0.80968 0.76709 0.97189 0.0
C687 C 0.83379 0.83815 0.9718 0.0
N688 N 0.86151 0.73732 1.0007 0.0
N689 N 0.8561 0.8216 0.98256 0.0
H690 H 0.47315 0.84472 0.222 0.0
H691 H 0.4576 1.02123 0.15676 0.0
H692 H 0.37435 0.86966 0.23256 0.0
H693 H 0.55532 0.99437 0.14949 0.0
H694 H 0.42646 0.9669 0.18551 0.0
H695 H 0.50387 0.90065 0.19758 0.0
C696 C 0.45796 0.86206 0.21975 0.0
C697 C 0.42089 0.85205 0.22955 0.0
C698 C 0.45475 0.97299 0.17769 0.0
C699 C 0.45607 0.91658 0.20049 0.0
C700 C 0.4725 1.00399 0.16126 0.0
C701 C 0.50918 1.01247 0.15075 0.0
C702 C 0.47381 0.95026 0.18363 0.0
C703 C 0.52709 0.98905 0.15717 0.0
C704 C 0.47551 0.89404 0.20538 0.0
C705 C 0.40274 0.8758 0.22507 0.0
N706 N 0.50933 0.95923 0.17307 0.0
N707 N 0.42038 0.90673 0.21082 0.0
H708 H 0.17414 0.33701 0.75973 0.0
H709 H 0.10287 0.23422 0.58194 0.0
H710 H 0.17607 0.38707 0.66472 0.0
H711 H 0.11359 0.18549 0.6748 0.0
H712 H 0.12688 0.29018 0.61204 0.0
H713 H 0.14819 0.28135 0.72968 0.0
C714 C 0.16867 0.3364 0.73264 0.0
C715 C 0.17736 0.36704 0.71488 0.0
C716 C 0.12406 0.26725 0.62582 0.0
C717 C 0.148 0.30289 0.67996 0.0
C718 C 0.11038 0.23521 0.6086 0.0
C719 C 0.10624 0.20488 0.62571 0.0
C720 C 0.13352 0.26919 0.66059 0.0
C721 C 0.1164 0.20802 0.66037 0.0
C722 C 0.15415 0.30449 0.71538 0.0
C723 C 0.17019 0.36428 0.67954 0.0
N724 N 0.1294 0.23943 0.67659 0.0
N725 N 0.15601 0.33292 0.66333 0.0
H726 H 0.63974 0.25083 0.53327 0.0
H727 H 0.59515 0.40919 0.61916 0.0
H728 H 0.66025 0.28148 0.63959 0.0
H729 H 0.59493 0.38922 0.51039 0.0
H730 H 0.61398 0.35968 0.62804 0.0
H731 H 0.61801 0.29859 0.52534 0.0
C732 C 0.63983 0.26769 0.55495 0.0
C733 C 0.65213 0.26227 0.58711 0.0
C734 C 0.60972 0.36612 0.60225 0.0
C735 C 0.62673 0.31679 0.57827 0.0
C736 C 0.59913 0.39447 0.59714 0.0
C737 C 0.59351 0.40347 0.56396 0.0
C738 C 0.61459 0.34652 0.574 0.0
C739 C 0.59843 0.38303 0.53644 0.0
C740 C 0.62723 0.29487 0.55042 0.0
C741 C 0.65076 0.2845 0.61442 0.0
N742 N 0.60873 0.35557 0.54208 0.0
N743 N 0.63838 0.31085 0.60936 0.0
loop_
_geom_bond_atom_site_label_1
_geom_bond_atom_site_label_2
_geom_bond_distance
_geom_bond_site_symmetry_2
_ccdc_geom_bond_type
H0 C1 0.949 . S
C1 H0 0.949 . S
C1 C2 1.395 . S
C1 C3 1.391 . S
C2 C1 1.395 . S
C2 C5 1.390 . S
C3 C1 1.391 . S
C3 C7 1.387 . S
C3 C8 1.491 . S
H4 C5 0.950 . S
C5 C2 1.390 . S
C5 H4 0.950 . S
C5 C6 1.378 . S
C6 C5 1.378 . S
C6 C7 1.409 . S
C7 C3 1.387 . S
C7 C6 1.409 . S
C7 H9 0.951 . S
C8 C3 1.491 . S
C8 C10 1.382 . S
C8 C12 1.404 . S
H9 C7 0.951 . S
C10 C8 1.382 . S
C10 C11 1.390 . S
C10 H15 0.949 . S
C11 C10 1.390 . S
C11 C16 1.399 . S
C12 C8 1.404 . S
C12 H13 0.950 . S
C12 C14 1.375 . S
H13 C12 0.950 . S
C14 C12 1.375 . S
C14 C16 1.382 . S
C14 H18 0.950 . S
H15 C10 0.949 . S
C16 C11 1.399 . S
C16 C14 1.382 . S
C16 H17 0.952 . S
H17 C16 0.952 . S
H18 C14 0.950 . S
H19 C20 0.949 . S
C20 H19 0.949 . S
C20 C21 1.395 . S
C20 C22 1.391 . S
C21 C20 1.395 . S
C21 C24 1.390 . S
C22 C20 1.391 . S
C22 C26 1.387 . S
C22 C27 1.491 . S
H23 C24 0.950 . S
C24 C21 1.390 . S
C24 H23 0.950 . S
C24 C25 1.378 . S
C25 C24 1.378 . S
C25 C26 1.409 . S
C26 C22 1.387 . S
C26 C25 1.409 . S
C26 H28 0.951 . S
C27 C22 1.491 . S
C27 C29 1.382 . S
C27 C31 1.404 . S
H28 C26 0.951 . S
C29 C27 1.382 . S
C29 C30 1.390 . S
C29 H34 0.949 . S
C30 C29 1.390 . S
C30 C35 1.399 . S
C31 C27 1.404 . S
C31 H32 0.950 . S
C31 C33 1.375 . S
H32 C31 0.950 . S
C33 C31 1.375 . S
C33 C35 1.382 . S
C33 H37 0.950 . S
H34 C29 0.949 . S
C35 C30 1.399 . S
C35 C33 1.382 . S
C35 H36 0.952 . S
H36 C35 0.952 . S
H37 C33 0.950 . S
H38 C39 0.949 . S
C39 H38 0.949 . S
C39 C40 1.395 . S
C39 C41 1.391 . S
C40 C39 1.395 . S
C40 C43 1.390 . S
C41 C39 1.391 . S
C41 C45 1.387 . S
C41 C46 1.491 . S
H42 C43 0.950 . S
C43 C40 1.390 . S
C43 H42 0.950 . S
C43 C44 1.378 . S
C44 C43 1.378 . S
C44 C45 1.409 . S
C45 C41 1.387 . S
C45 C44 1.409 . S
C45 H47 0.951 . S
C46 C41 1.491 . S
C46 C48 1.382 . S
C46 C50 1.404 . S
H47 C45 0.951 . S
C48 C46 1.382 . S
C48 C49 1.390 . S
C48 H53 0.949 . S
C49 C48 1.390 . S
C49 C54 1.399 . S
C50 C46 1.404 . S
C50 H51 0.950 . S
C50 C52 1.375 . S
H51 C50 0.950 . S
C52 C50 1.375 . S
C52 C54 1.382 . S
C52 H56 0.950 . S
H53 C48 0.949 . S
C54 C49 1.399 . S
C54 C52 1.382 . S
C54 H55 0.952 . S
H55 C54 0.952 . S
H56 C52 0.950 . S
H57 C58 0.949 . S
C58 H57 0.949 . S
C58 C59 1.395 . S
C58 C60 1.391 . S
C59 C58 1.395 . S
C59 C62 1.390 . S
C60 C58 1.391 . S
C60 C64 1.387 . S
C60 C65 1.491 . S
H61 C62 0.950 . S
C62 C59 1.390 . S
C62 H61 0.950 . S
C62 C63 1.378 . S
C63 C62 1.378 . S
C63 C64 1.409 . S
C64 C60 1.387 . S
C64 C63 1.409 . S
C64 H66 0.951 . S
C65 C60 1.491 . S
C65 C67 1.382 . S
C65 C69 1.404 . S
H66 C64 0.951 . S
C67 C65 1.382 . S
C67 C68 1.390 . S
C67 H72 0.949 . S
C68 C67 1.390 . S
C68 C73 1.399 . S
C69 C65 1.404 . S
C69 H70 0.950 . S
C69 C71 1.375 . S
H70 C69 0.950 . S
C71 C69 1.375 . S
C71 C73 1.382 . S
C71 H75 0.950 . S
H72 C67 0.949 . S
C73 C68 1.399 . S
C73 C71 1.382 . S
C73 H74 0.952 . S
H74 C73 0.952 . S
H75 C71 0.950 . S
H76 C77 0.949 . S
C77 H76 0.949 . S
C77 C78 1.395 . S
C77 C79 1.391 . S
C78 C77 1.395 . S
C78 C81 1.390 . S
C79 C77 1.391 . S
C79 C83 1.387 . S
C79 C84 1.491 . S
H80 C81 0.950 . S
C81 C78 1.390 . S
C81 H80 0.950 . S
C81 C82 1.378 . S
C82 C81 1.378 . S
C82 C83 1.409 . S
C83 C79 1.387 . S
C83 C82 1.409 . S
C83 H85 0.951 . S
C84 C79 1.491 . S
C84 C86 1.382 . S
C84 C88 1.404 . S
H85 C83 0.951 . S
C86 C84 1.382 . S
C86 C87 1.390 . S
C86 H91 0.949 . S
C87 C86 1.390 . S
C87 C92 1.399 . S
C88 C84 1.404 . S
C88 H89 0.950 . S
C88 C90 1.375 . S
H89 C88 0.950 . S
C90 C88 1.375 . S
C90 C92 1.382 . S
C90 H94 0.950 . S
H91 C86 0.949 . S
C92 C87 1.399 . S
C92 C90 1.382 . S
C92 H93 0.952 . S
H93 C92 0.952 . S
H94 C90 0.950 . S
H95 C96 0.949 . S
C96 H95 0.949 . S
C96 C97 1.395 . S
C96 C98 1.391 . S
C97 C96 1.395 . S
C97 C100 1.390 . S
C98 C96 1.391 . S
C98 C102 1.387 . S
C98 C103 1.491 . S
H99 C100 0.950 . S
C100 C97 1.390 . S
C100 H99 0.950 . S
C100 C101 1.378 . S
C101 C100 1.378 . S
C101 C102 1.409 . S
C102 C98 1.387 . S
C102 C101 1.409 . S
C102 H104 0.951 . S
C103 C98 1.491 . S
C103 C105 1.382 . S
C103 C107 1.404 . S
H104 C102 0.951 . S
C105 C103 1.382 . S
C105 C106 1.390 . S
C105 H110 0.949 . S
C106 C105 1.390 . S
C106 C111 1.399 . S
C107 C103 1.404 . S
C107 H108 0.950 . S
C107 C109 1.375 . S
H108 C107 0.950 . S
C109 C107 1.375 . S
C109 C111 1.382 . S
C109 H113 0.950 . S
H110 C105 0.949 . S
C111 C106 1.399 . S
C111 C109 1.382 . S
C111 H112 0.952 . S
H112 C111 0.952 . S
H113 C109 0.950 . S
H114 C115 0.949 . S
C115 H114 0.949 . S
C115 C116 1.395 . S
C115 C117 1.391 . S
C116 C115 1.395 . S
C116 C119 1.390 . S
C117 C115 1.391 . S
C117 C121 1.387 . S
C117 C122 1.491 . S
H118 C119 0.950 . S
C119 C116 1.390 . S
C119 H118 0.950 . S
C119 C120 1.378 . S
C120 C119 1.378 . S
C120 C121 1.409 . S
C121 C117 1.387 . S
C121 C120 1.409 . S
C121 H123 0.951 . S
C122 C117 1.491 . S
C122 C124 1.382 . S
C122 C126 1.404 . S
H123 C121 0.951 . S
C124 C122 1.382 . S
C124 C125 1.390 . S
C124 H129 0.949 . S
C125 C124 1.390 . S
C125 C130 1.399 . S
C126 C122 1.404 . S
C126 H127 0.950 . S
C126 C128 1.375 . S
H127 C126 0.950 . S
C128 C126 1.375 . S
C128 C130 1.382 . S
C128 H132 0.950 . S
H129 C124 0.949 . S
C130 C125 1.399 . S
C130 C128 1.382 . S
C130 H131 0.952 . S
H131 C130 0.952 . S
H132 C128 0.950 . S
H133 C134 0.949 . S
C134 H133 0.949 . S
C134 C135 1.395 . S
C134 C136 1.391 . S
C135 C134 1.395 . S
C135 C138 1.390 . S
C136 C134 1.391 . S
C136 C140 1.387 . S
C136 C141 1.491 . S
H137 C138 0.950 . S
C138 C135 1.390 . S
C138 H137 0.950 . S
C138 C139 1.378 . S
C139 C138 1.378 . S
C139 C140 1.409 . S
C140 C136 1.387 . S
C140 C139 1.409 . S
C140 H142 0.951 . S
C141 C136 1.491 . S
C141 C143 1.382 . S
C141 C145 1.404 . S
H142 C140 0.951 . S
C143 C141 1.382 . S
C143 C144 1.390 . S
C143 H148 0.949 . S
C144 C143 1.390 . S
C144 C149 1.399 . S
C145 C141 1.404 . S
C145 H146 0.950 . S
C145 C147 1.375 . S
H146 C145 0.950 . S
C147 C145 1.375 . S
C147 C149 1.382 . S
C147 H151 0.950 . S
H148 C143 0.949 . S
C149 C144 1.399 . S
C149 C147 1.382 . S
C149 H150 0.952 . S
H150 C149 0.952 . S
H151 C147 0.950 . S
La152 C154 2.928 . S
La152 O172 2.521 . S
La152 O173 2.628 . S
La152 O174 2.554 . S
La152 O175 2.757 . S
La152 O176 2.470 . S
La152 O181 2.482 1_455 S
La152 O183 2.504 1_445 S
La153 C163 2.928 1_545 S
La153 O175 2.482 1_655 S
La153 O177 2.503 1_655 S
La153 O178 2.521 1_545 S
La153 O179 2.628 1_545 S
La153 O180 2.554 . S
La153 O181 2.757 . S
La153 O182 2.470 1_545 S
C154 La152 2.928 . S
C154 C155 1.503 . S
C154 O172 1.261 . S
C154 O173 1.243 . S
C155 C154 1.503 . S
C155 C156 1.394 . S
C155 C160 1.373 . S
C156 C155 1.394 . S
C156 C157 1.380 . S
C156 H184 0.930 . S
C157 C156 1.380 . S
C157 C158 1.376 . S
C157 H185 0.930 . S
C158 C157 1.376 . S
C158 C159 1.370 . S
C159 C158 1.370 . S
C159 C160 1.396 . S
C159 H186 0.929 . S
C160 C155 1.373 . S
C160 C159 1.396 . S
C160 H187 0.929 . S
C161 O174 1.240 . S
C161 O175 1.289 . S
C162 O176 1.258 . S
C162 O177 1.256 . S
C163 La153 2.928 1_565 S
C163 C164 1.503 . S
C163 O178 1.261 . S
C163 O179 1.243 . S
C164 C163 1.503 . S
C164 C165 1.394 . S
C164 C169 1.373 . S
C165 C164 1.394 . S
C165 C166 1.380 . S
C165 H188 0.930 . S
C166 C165 1.380 . S
C166 C167 1.376 . S
C166 H189 0.930 . S
C167 C166 1.376 . S
C167 C168 1.370 . S
C168 C167 1.370 . S
C168 C169 1.396 . S
C168 H190 0.929 . S
C169 C164 1.373 . S
C169 C168 1.396 . S
C169 H191 0.929 . S
C170 O180 1.240 . S
C170 O181 1.289 . S
C171 O182 1.258 . S
C171 O183 1.254 . S
O172 La152 2.521 . S
O172 C154 1.261 . S
O173 La152 2.628 . S
O173 C154 1.243 . S
O174 La152 2.554 . S
O174 C161 1.240 . S
O175 La152 2.757 . S
O175 La153 2.482 1_455 S
O175 C161 1.289 . S
O176 La152 2.470 . S
O176 C162 1.258 . S
O177 La153 2.503 1_455 S
O177 C162 1.256 . S
O178 La153 2.521 1_565 S
O178 C163 1.261 . S
O179 La153 2.628 1_565 S
O179 C163 1.243 . S
O180 La153 2.554 . S
O180 C170 1.240 . S
O181 La152 2.482 1_655 S
O181 La153 2.757 . S
O181 C170 1.289 . S
O182 La153 2.470 1_565 S
O182 C171 1.258 . S
O183 La152 2.504 1_665 S
O183 C171 1.254 . S
H184 C156 0.930 . S
H185 C157 0.930 . S
H186 C159 0.929 . S
H187 C160 0.929 . S
H188 C165 0.930 . S
H189 C166 0.930 . S
H190 C168 0.929 . S
H191 C169 0.929 . S
La192 C194 2.928 . S
La192 O212 2.521 . S
La192 O213 2.628 . S
La192 O214 2.554 1_545 S
La192 O215 2.757 1_545 S
La192 O216 2.470 . S
La192 O221 2.482 . S
La192 O223 2.503 . S
La193 C203 2.928 1_544 S
La193 O215 2.482 1_545 S
La193 O217 2.503 . S
La193 O218 2.521 1_554 S
La193 O219 2.628 1_545 S
La193 O220 2.554 . S
La193 O221 2.757 . S
La193 O222 2.470 . S
C194 La192 2.928 . S
C194 C195 1.503 . S
C194 O212 1.261 . S
C194 O213 1.243 . S
C195 C194 1.503 . S
C195 C196 1.394 . S
C195 C200 1.373 . S
C196 C195 1.394 . S
C196 C197 1.380 . S
C196 H224 0.930 . S
C197 C196 1.380 . S
C197 C198 1.376 . S
C197 H225 0.930 . S
C198 C197 1.376 . S
C198 C199 1.370 . S
C199 C198 1.370 . S
C199 C200 1.396 . S
C199 H226 0.929 . S
C200 C195 1.373 . S
C200 C199 1.396 . S
C200 H227 0.929 . S
C201 O214 1.240 . S
C201 O215 1.289 . S
C202 O216 1.258 . S
C202 O217 1.256 . S
C203 La193 2.928 1_566 S
C203 C204 1.503 . S
C203 O218 1.261 1_565 S
C203 O219 1.243 1_556 S
C204 C203 1.503 . S
C204 C205 1.394 . S
C204 C209 1.373 . S
C205 C204 1.394 . S
C205 C206 1.380 . S
C205 H228 0.930 1_565 S
C206 C205 1.380 . S
C206 C207 1.376 . S
C206 H229 0.930 . S
C207 C206 1.376 . S
C207 C208 1.370 . S
C208 C207 1.370 . S
C208 C209 1.396 . S
C208 H230 0.929 . S
C209 C204 1.373 . S
C209 C208 1.396 . S
C209 H231 0.929 . S
C210 O220 1.240 . S
C210 O221 1.289 . S
C211 O222 1.258 1_565 S
C211 O223 1.256 1_565 S
O212 La192 2.521 . S
O212 C194 1.261 . S
O213 La192 2.628 . S
O213 C194 1.243 . S
O214 La192 2.554 1_565 S
O214 C201 1.240 . S
O215 La192 2.757 1_565 S
O215 La193 2.482 1_565 S
O215 C201 1.289 . S
O216 La192 2.470 . S
O216 C202 1.258 . S
O217 La193 2.503 . S
O217 C202 1.256 . S
O218 La193 2.521 1_556 S
O218 C203 1.261 1_545 S
O219 La193 2.628 1_565 S
O219 C203 1.243 1_554 S
O220 La193 2.554 . S
O220 C210 1.240 . S
O221 La192 2.482 . S
O221 La193 2.757 . S
O221 C210 1.289 . S
O222 La193 2.470 . S
O222 C211 1.258 1_545 S
O223 La192 2.503 . S
O223 C211 1.256 1_545 S
H224 C196 0.930 . S
H225 C197 0.930 . S
H226 C199 0.929 . S
H227 C200 0.929 . S
H228 C205 0.930 1_545 S
H229 C206 0.930 . S
H230 C208 0.929 . S
H231 C209 0.929 . S
La232 C234 2.928 . S
La232 O252 2.521 . S
La232 O253 2.628 . S
La232 O254 2.554 . S
La232 O255 2.757 . S
La232 O256 2.470 . S
La232 O261 2.482 . S
La232 O263 2.503 . S
La233 C243 2.928 . S
La233 O255 2.482 . S
La233 O257 2.503 . S
La233 O258 2.521 . S
La233 O259 2.628 . S
La233 O260 2.554 . S
La233 O261 2.757 . S
La233 O262 2.470 . S
C234 La232 2.928 . S
C234 C235 1.503 . S
C234 O252 1.261 . S
C234 O253 1.243 . S
C235 C234 1.503 . S
C235 C236 1.394 . S
C235 C240 1.373 . S
C236 C235 1.394 . S
C236 C237 1.380 . S
C236 H264 0.930 . S
C237 C236 1.380 . S
C237 C238 1.376 . S
C237 H265 0.930 . S
C238 C237 1.376 . S
C238 C239 1.370 . S
C239 C238 1.370 . S
C239 C240 1.396 . S
C239 H266 0.929 . S
C240 C235 1.373 . S
C240 C239 1.396 . S
C240 H267 0.929 . S
C241 O254 1.240 . S
C241 O255 1.289 . S
C242 O256 1.258 . S
C242 O257 1.256 . S
C243 La233 2.928 . S
C243 C244 1.503 . S
C243 O258 1.261 . S
C243 O259 1.243 . S
C244 C243 1.503 . S
C244 C245 1.394 . S
C244 C249 1.373 . S
C245 C244 1.394 . S
C245 C246 1.380 . S
C245 H268 0.930 . S
C246 C245 1.380 . S
C246 C247 1.376 . S
C246 H269 0.930 . S
C247 C246 1.376 . S
C247 C248 1.370 . S
C248 C247 1.370 . S
C248 C249 1.396 . S
C248 H270 0.929 . S
C249 C244 1.373 . S
C249 C248 1.396 . S
C249 H271 0.929 . S
C250 O260 1.240 . S
C250 O261 1.289 . S
C251 O262 1.258 . S
C251 O263 1.256 . S
O252 La232 2.521 . S
O252 C234 1.261 . S
O253 La232 2.628 . S
O253 C234 1.243 . S
O254 La232 2.554 . S
O254 C241 1.240 . S
O255 La232 2.757 . S
O255 La233 2.482 . S
O255 C241 1.289 . S
O256 La232 2.470 . S
O256 C242 1.258 . S
O257 La233 2.503 . S
O257 C242 1.256 . S
O258 La233 2.521 . S
O258 C243 1.261 . S
O259 La233 2.628 . S
O259 C243 1.243 . S
O260 La233 2.554 . S
O260 C250 1.240 . S
O261 La232 2.482 . S
O261 La233 2.757 . S
O261 C250 1.289 . S
O262 La233 2.470 . S
O262 C251 1.258 . S
O263 La232 2.503 . S
O263 C251 1.256 . S
H264 C236 0.930 . S
H265 C237 0.930 . S
H266 C239 0.929 . S
H267 C240 0.929 . S
H268 C245 0.930 . S
H269 C246 0.930 . S
H270 C248 0.929 . S
H271 C249 0.929 . S
La272 C274 2.928 . S
La272 O292 2.521 . S
La272 O293 2.628 . S
La272 O294 2.554 . S
La272 O295 2.757 . S
La272 O296 2.470 . S
La272 O301 2.482 1_554 S
La272 O303 2.503 1_455 S
La273 C283 2.928 1_455 S
La273 O295 2.482 1_556 S
La273 O297 2.503 1_556 S
La273 O298 2.521 . S
La273 O299 2.628 1_455 S
La273 O300 2.554 . S
La273 O301 2.757 . S
La273 O302 2.470 1_455 S
C274 La272 2.928 . S
C274 C275 1.503 . S
C274 O292 1.261 . S
C274 O293 1.243 . S
C275 C274 1.503 . S
C275 C276 1.394 . S
C275 C280 1.373 . S
C276 C275 1.394 . S
C276 C277 1.380 . S
C276 H304 0.930 . S
C277 C276 1.380 . S
C277 C278 1.376 . S
C277 H305 0.930 . S
C278 C277 1.376 . S
C278 C279 1.370 . S
C279 C278 1.370 . S
C279 C280 1.396 . S
C279 H306 0.929 . S
C280 C275 1.373 . S
C280 C279 1.396 . S
C280 H307 0.929 . S
C281 O294 1.240 . S
C281 O295 1.289 . S
C282 O296 1.258 . S
C282 O297 1.256 . S
C283 La273 2.928 1_655 S
C283 C284 1.503 . S
C283 O298 1.261 1_655 S
C283 O299 1.243 . S
C284 C283 1.503 . S
C284 C285 1.394 . S
C284 C289 1.373 . S
C285 C284 1.394 . S
C285 C286 1.380 . S
C285 H308 0.930 . S
C286 C285 1.380 . S
C286 C287 1.376 . S
C286 H309 0.930 . S
C287 C286 1.376 . S
C287 C288 1.370 . S
C288 C287 1.370 . S
C288 C289 1.396 . S
C288 H310 0.929 . S
C289 C284 1.373 . S
C289 C288 1.396 . S
C289 H311 0.929 . S
C290 O300 1.240 . S
C290 O301 1.289 . S
C291 O302 1.258 . S
C291 O303 1.256 1_556 S
O292 La272 2.521 . S
O292 C274 1.261 . S
O293 La272 2.628 . S
O293 C274 1.243 . S
O294 La272 2.554 . S
O294 C281 1.240 . S
O295 La272 2.757 . S
O295 La273 2.482 1_554 S
O295 C281 1.289 . S
O296 La272 2.470 . S
O296 C282 1.258 . S
O297 La273 2.503 1_554 S
O297 C282 1.256 . S
O298 La273 2.521 . S
O298 C283 1.261 1_455 S
O299 La273 2.628 1_655 S
O299 C283 1.243 . S
O300 La273 2.554 . S
O300 C290 1.240 . S
O301 La272 2.482 1_556 S
O301 La273 2.757 . S
O301 C290 1.289 . S
O302 La273 2.470 1_655 S
O302 C291 1.258 . S
O303 La272 2.503 1_655 S
O303 C291 1.256 1_554 S
H304 C276 0.930 . S
H305 C277 0.930 . S
H306 C279 0.929 . S
H307 C280 0.929 . S
H308 C285 0.930 . S
H309 C286 0.930 . S
H310 C288 0.929 . S
H311 C289 0.929 . S
H312 C318 0.930 . S
H313 C322 0.930 . S
H314 C327 0.929 . S
H315 C325 0.929 . S
H316 C320 0.929 . S
H317 C326 0.929 . S
C318 H312 0.930 . S
C318 C319 1.367 . S
C318 C326 1.378 . S
C319 C318 1.367 . S
C319 C327 1.433 . S
C320 H316 0.929 . S
C320 C322 1.378 . S
C320 C324 1.350 . S
C321 C324 1.463 . S
C321 C326 1.350 . S
C321 N329 1.427 . S
C322 H313 0.930 . S
C322 C320 1.378 . S
C322 C323 1.367 . S
C323 C322 1.367 . S
C323 C325 1.433 . S
C324 C320 1.350 . S
C324 C321 1.463 . S
C324 N328 1.427 . S
C325 H315 0.929 . S
C325 C323 1.433 . S
C325 N328 1.384 . S
C326 H317 0.929 . S
C326 C318 1.378 . S
C326 C321 1.350 . S
C327 H314 0.929 . S
C327 C319 1.433 . S
C327 N329 1.384 . S
N328 C324 1.427 . S
N328 C325 1.384 . S
N329 C321 1.427 . S
N329 C327 1.384 . S
H330 C336 0.930 . S
H331 C340 0.930 . S
H332 C345 0.929 . S
H333 C343 0.929 . S
H334 C338 0.929 . S
H335 C344 0.929 . S
C336 H330 0.930 . S
C336 C337 1.367 . S
C336 C344 1.378 . S
C337 C336 1.367 . S
C337 C345 1.433 . S
C338 H334 0.929 . S
C338 C340 1.378 . S
C338 C342 1.350 . S
C339 C342 1.463 . S
C339 C344 1.350 . S
C339 N347 1.427 . S
C340 H331 0.930 . S
C340 C338 1.378 . S
C340 C341 1.367 . S
C341 C340 1.367 . S
C341 C343 1.433 . S
C342 C338 1.350 . S
C342 C339 1.463 . S
C342 N346 1.427 . S
C343 H333 0.929 . S
C343 C341 1.433 . S
C343 N346 1.384 . S
C344 H335 0.929 . S
C344 C336 1.378 . S
C344 C339 1.350 . S
C345 H332 0.929 . S
C345 C337 1.433 . S
C345 N347 1.384 . S
N346 C342 1.427 . S
N346 C343 1.384 . S
N347 C339 1.427 . S
N347 C345 1.384 . S
H348 C354 0.930 . S
H349 C358 0.930 . S
H350 C363 0.929 . S
H351 C361 0.929 . S
H352 C356 0.929 . S
H353 C362 0.929 . S
C354 H348 0.930 . S
C354 C355 1.367 . S
C354 C362 1.378 . S
C355 C354 1.367 . S
C355 C363 1.433 . S
C356 H352 0.929 . S
C356 C358 1.378 . S
C356 C360 1.350 . S
C357 C360 1.463 . S
C357 C362 1.350 . S
C357 N365 1.427 . S
C358 H349 0.930 . S
C358 C356 1.378 . S
C358 C359 1.367 . S
C359 C358 1.367 . S
C359 C361 1.433 . S
C360 C356 1.350 . S
C360 C357 1.463 . S
C360 N364 1.427 . S
C361 H351 0.929 . S
C361 C359 1.433 . S
C361 N364 1.384 . S
C362 H353 0.929 . S
C362 C354 1.378 . S
C362 C357 1.350 . S
C363 H350 0.929 . S
C363 C355 1.433 . S
C363 N365 1.384 . S
N364 C360 1.427 . S
N364 C361 1.384 . S
N365 C357 1.427 . S
N365 C363 1.384 . S
H366 C372 0.930 . S
H367 C376 0.930 1_455 S
H368 C381 0.929 . S
H369 C379 0.929 . S
H370 C374 0.929 . S
H371 C380 0.929 . S
C372 H366 0.930 . S
C372 C373 1.367 . S
C372 C380 1.378 . S
C373 C372 1.367 . S
C373 C381 1.433 . S
C374 H370 0.929 . S
C374 C376 1.378 . S
C374 C378 1.350 . S
C375 C378 1.463 . S
C375 C380 1.350 . S
C375 N383 1.427 . S
C376 H367 0.930 1_655 S
C376 C374 1.378 . S
C376 C377 1.367 . S
C377 C376 1.367 . S
C377 C379 1.433 . S
C378 C374 1.350 . S
C378 C375 1.463 . S
C378 N382 1.427 . S
C379 H369 0.929 . S
C379 C377 1.433 . S
C379 N382 1.384 . S
C380 H371 0.929 . S
C380 C372 1.378 . S
C380 C375 1.350 . S
C381 H368 0.929 . S
C381 C373 1.433 . S
C381 N383 1.384 . S
N382 C378 1.427 . S
N382 C379 1.384 . S
N383 C375 1.427 . S
N383 C381 1.384 . S
H384 C390 0.930 . S
H385 C394 0.930 . S
H386 C399 0.929 . S
H387 C397 0.929 . S
H388 C392 0.929 . S
H389 C398 0.929 . S
C390 H384 0.930 . S
C390 C391 1.367 . S
C390 C398 1.378 . S
C391 C390 1.367 . S
C391 C399 1.433 . S
C392 H388 0.929 . S
C392 C394 1.378 . S
C392 C396 1.350 . S
C393 C396 1.463 . S
C393 C398 1.350 . S
C393 N401 1.427 . S
C394 H385 0.930 . S
C394 C392 1.378 . S
C394 C395 1.367 . S
C395 C394 1.367 . S
C395 C397 1.433 . S
C396 C392 1.350 . S
C396 C393 1.463 . S
C396 N400 1.427 . S
C397 H387 0.929 . S
C397 C395 1.433 . S
C397 N400 1.384 . S
C398 H389 0.929 . S
C398 C390 1.378 . S
C398 C393 1.350 . S
C399 H386 0.929 . S
C399 C391 1.433 . S
C399 N401 1.384 . S
N400 C396 1.427 . S
N400 C397 1.384 . S
N401 C393 1.427 . S
N401 C399 1.384 . S
H402 C408 0.930 . S
H403 C412 0.930 . S
H404 C417 0.929 . S
H405 C415 0.929 . S
H406 C410 0.929 1_545 S
H407 C416 0.929 . S
C408 H402 0.930 . S
C408 C409 1.367 . S
C408 C416 1.378 . S
C409 C408 1.367 . S
C409 C417 1.433 . S
C410 H406 0.929 1_565 S
C410 C412 1.378 1_565 S
C410 C414 1.350 . S
C411 C414 1.463 . S
C411 C416 1.350 . S
C411 N419 1.427 . S
C412 H403 0.930 . S
C412 C410 1.378 1_545 S
C412 C413 1.367 . S
C413 C412 1.367 . S
C413 C415 1.433 1_545 S
C414 C410 1.350 . S
C414 C411 1.463 . S
C414 N418 1.427 . S
C415 H405 0.929 . S
C415 C413 1.433 1_565 S
C415 N418 1.384 . S
C416 H407 0.929 . S
C416 C408 1.378 . S
C416 C411 1.350 . S
C417 H404 0.929 . S
C417 C409 1.433 . S
C417 N419 1.384 . S
N418 C414 1.427 . S
N418 C415 1.384 . S
N419 C411 1.427 . S
N419 C417 1.384 . S
H420 C426 0.930 . S
H421 C430 0.930 . S
H422 C435 0.929 . S
H423 C433 0.929 1_554 S
H424 C428 0.929 . S
H425 C434 0.929 . S
C426 H420 0.930 . S
C426 C427 1.367 . S
C426 C434 1.378 . S
C427 C426 1.367 . S
C427 C435 1.433 . S
C428 H424 0.929 . S
C428 C430 1.378 . S
C428 C432 1.350 . S
C429 C432 1.463 . S
C429 C434 1.350 . S
C429 N437 1.427 . S
C430 H421 0.930 . S
C430 C428 1.378 . S
C430 C431 1.367 . S
C431 C430 1.367 . S
C431 C433 1.433 . S
C432 C428 1.350 . S
C432 C429 1.463 . S
C432 N436 1.427 . S
C433 H423 0.929 1_556 S
C433 C431 1.433 . S
C433 N436 1.384 . S
C434 H425 0.929 . S
C434 C426 1.378 . S
C434 C429 1.350 . S
C435 H422 0.929 . S
C435 C427 1.433 . S
C435 N437 1.384 . S
N436 C432 1.427 . S
N436 C433 1.384 . S
N437 C429 1.427 . S
N437 C435 1.384 . S
H438 C444 0.930 . S
H439 C448 0.930 . S
H440 C453 0.929 . S
H441 C451 0.929 . S
H442 C446 0.929 . S
H443 C452 0.929 . S
C444 H438 0.930 . S
C444 C445 1.367 . S
C444 C452 1.378 . S
C445 C444 1.367 . S
C445 C453 1.433 . S
C446 H442 0.929 . S
C446 C448 1.378 . S
C446 C450 1.350 . S
C447 C450 1.463 . S
C447 C452 1.350 . S
C447 N455 1.427 . S
C448 H439 0.930 . S
C448 C446 1.378 . S
C448 C449 1.367 . S
C449 C448 1.367 . S
C449 C451 1.433 . S
C450 C446 1.350 . S
C450 C447 1.463 . S
C450 N454 1.427 . S
C451 H441 0.929 . S
C451 C449 1.433 . S
C451 N454 1.384 . S
C452 H443 0.929 . S
C452 C444 1.378 . S
C452 C447 1.350 . S
C453 H440 0.929 . S
C453 C445 1.433 . S
C453 N455 1.384 . S
N454 C450 1.427 . S
N454 C451 1.384 . S
N455 C447 1.427 . S
N455 C453 1.384 . S
H456 C462 0.930 . S
H457 C466 0.930 . S
H458 C471 0.929 . S
H459 C469 0.929 . S
H460 C464 0.929 . S
H461 C470 0.929 . S
C462 H456 0.930 . S
C462 C463 1.367 . S
C462 C470 1.378 . S
C463 C462 1.367 . S
C463 C471 1.433 . S
C464 H460 0.929 . S
C464 C466 1.378 . S
C464 C468 1.350 . S
C465 C468 1.463 . S
C465 C470 1.350 . S
C465 N473 1.427 . S
C466 H457 0.930 . S
C466 C464 1.378 . S
C466 C467 1.367 . S
C467 C466 1.367 . S
C467 C469 1.433 . S
C468 C464 1.350 . S
C468 C465 1.463 . S
C468 N472 1.427 . S
C469 H459 0.929 . S
C469 C467 1.433 . S
C469 N472 1.384 . S
C470 H461 0.929 . S
C470 C462 1.378 . S
C470 C465 1.350 . S
C471 H458 0.929 . S
C471 C463 1.433 . S
C471 N473 1.384 . S
N472 C468 1.427 . S
N472 C469 1.384 . S
N473 C465 1.427 . S
N473 C471 1.384 . S
H474 C480 0.930 . S
H475 C484 0.930 . S
H476 C489 0.929 . S
H477 C487 0.929 . S
H478 C482 0.929 . S
H479 C488 0.929 . S
C480 H474 0.930 . S
C480 C481 1.367 . S
C480 C488 1.378 . S
C481 C480 1.367 . S
C481 C489 1.433 . S
C482 H478 0.929 . S
C482 C484 1.377 1_556 S
C482 C486 1.350 . S
C483 C486 1.463 . S
C483 C488 1.350 . S
C483 N491 1.427 . S
C484 H475 0.930 . S
C484 C482 1.377 1_554 S
C484 C485 1.367 . S
C485 C484 1.367 . S
C485 C487 1.433 . S
C486 C482 1.350 . S
C486 C483 1.463 . S
C486 N490 1.427 . S
C487 H477 0.929 . S
C487 C485 1.433 . S
C487 N490 1.384 1_554 S
C488 H479 0.929 . S
C488 C480 1.378 . S
C488 C483 1.350 . S
C489 H476 0.929 . S
C489 C481 1.433 . S
C489 N491 1.384 . S
N490 C486 1.427 . S
N490 C487 1.384 1_556 S
N491 C483 1.427 . S
N491 C489 1.384 . S
H492 C498 0.930 . S
H493 C502 0.930 1_455 S
H494 C507 0.929 . S
H495 C505 0.929 . S
H496 C500 0.929 . S
H497 C506 0.929 . S
C498 H492 0.930 . S
C498 C499 1.367 . S
C498 C506 1.378 . S
C499 C498 1.367 . S
C499 C507 1.433 . S
C500 H496 0.929 . S
C500 C502 1.378 . S
C500 C504 1.350 . S
C501 C504 1.463 . S
C501 C506 1.350 . S
C501 N509 1.427 . S
C502 H493 0.930 1_655 S
C502 C500 1.378 . S
C502 C503 1.367 . S
C503 C502 1.367 . S
C503 C505 1.433 . S
C504 C500 1.350 . S
C504 C501 1.463 . S
C504 N508 1.427 . S
C505 H495 0.929 . S
C505 C503 1.433 . S
C505 N508 1.384 . S
C506 H497 0.929 . S
C506 C498 1.378 . S
C506 C501 1.350 . S
C507 H494 0.929 . S
C507 C499 1.433 . S
C507 N509 1.384 . S
N508 C504 1.427 . S
N508 C505 1.384 . S
N509 C501 1.427 . S
N509 C507 1.384 . S
H510 C516 0.930 . S
H511 C520 0.930 . S
H512 C525 0.929 . S
H513 C523 0.929 . S
H514 C518 0.929 . S
H515 C524 0.929 . S
C516 H510 0.930 . S
C516 C517 1.367 . S
C516 C524 1.378 . S
C517 C516 1.367 . S
C517 C525 1.433 . S
C518 H514 0.929 . S
C518 C520 1.378 . S
C518 C522 1.350 . S
C519 C522 1.463 . S
C519 C524 1.350 . S
C519 N527 1.427 . S
C520 H511 0.930 . S
C520 C518 1.378 . S
C520 C521 1.367 . S
C521 C520 1.367 . S
C521 C523 1.433 . S
C522 C518 1.350 . S
C522 C519 1.463 . S
C522 N526 1.427 . S
C523 H513 0.929 . S
C523 C521 1.433 . S
C523 N526 1.384 . S
C524 H515 0.929 . S
C524 C516 1.378 . S
C524 C519 1.350 . S
C525 H512 0.929 . S
C525 C517 1.433 . S
C525 N527 1.384 . S
N526 C522 1.427 . S
N526 C523 1.384 . S
N527 C519 1.427 . S
N527 C525 1.384 . S
H528 C534 0.930 . S
H529 C538 0.930 . S
H530 C543 0.929 . S
H531 C541 0.929 . S
H532 C536 0.929 . S
H533 C542 0.929 . S
C534 H528 0.930 . S
C534 C535 1.367 . S
C534 C542 1.378 . S
C535 C534 1.367 . S
C535 C543 1.433 . S
C536 H532 0.929 . S
C536 C538 1.378 . S
C536 C540 1.350 . S
C537 C540 1.463 . S
C537 C542 1.350 . S
C537 N545 1.427 . S
C538 H529 0.930 . S
C538 C536 1.378 . S
C538 C539 1.367 . S
C539 C538 1.367 . S
C539 C541 1.433 . S
C540 C536 1.350 . S
C540 C537 1.463 . S
C540 N544 1.427 . S
C541 H531 0.929 . S
C541 C539 1.433 . S
C541 N544 1.384 . S
C542 H533 0.929 . S
C542 C534 1.378 . S
C542 C537 1.350 . S
C543 H530 0.929 . S
C543 C535 1.433 . S
C543 N545 1.384 . S
N544 C540 1.427 . S
N544 C541 1.384 . S
N545 C537 1.427 . S
N545 C543 1.384 . S
H546 C552 0.930 . S
H547 C556 0.930 . S
H548 C561 0.929 . S
H549 C559 0.929 . S
H550 C554 0.929 . S
H551 C560 0.929 . S
C552 H546 0.930 . S
C552 C553 1.367 . S
C552 C560 1.378 . S
C553 C552 1.367 . S
C553 C561 1.433 . S
C554 H550 0.929 . S
C554 C556 1.378 . S
C554 C558 1.350 . S
C555 C558 1.463 . S
C555 C560 1.350 . S
C555 N563 1.427 . S
C556 H547 0.930 . S
C556 C554 1.378 . S
C556 C557 1.367 . S
C557 C556 1.367 . S
C557 C559 1.433 . S
C558 C554 1.350 . S
C558 C555 1.463 . S
C558 N562 1.427 . S
C559 H549 0.929 . S
C559 C557 1.433 . S
C559 N562 1.384 . S
C560 H551 0.929 . S
C560 C552 1.378 . S
C560 C555 1.350 . S
C561 H548 0.929 . S
C561 C553 1.433 . S
C561 N563 1.384 . S
N562 C558 1.427 . S
N562 C559 1.384 . S
N563 C555 1.427 . S
N563 C561 1.384 . S
H564 C570 0.930 . S
H565 C574 0.930 . S
H566 C579 0.929 . S
H567 C577 0.929 . S
H568 C572 0.929 . S
H569 C578 0.929 . S
C570 H564 0.930 . S
C570 C571 1.367 . S
C570 C578 1.378 . S
C571 C570 1.367 . S
C571 C579 1.433 . S
C572 H568 0.929 . S
C572 C574 1.378 . S
C572 C576 1.350 . S
C573 C576 1.463 . S
C573 C578 1.350 . S
C573 N581 1.427 . S
C574 H565 0.930 . S
C574 C572 1.378 . S
C574 C575 1.367 . S
C575 C574 1.367 . S
C575 C577 1.433 . S
C576 C572 1.350 . S
C576 C573 1.463 . S
C576 N580 1.427 . S
C577 H567 0.929 . S
C577 C575 1.433 . S
C577 N580 1.384 . S
C578 H569 0.929 . S
C578 C570 1.378 . S
C578 C573 1.350 . S
C579 H566 0.929 . S
C579 C571 1.433 . S
C579 N581 1.384 . S
N580 C576 1.427 . S
N580 C577 1.384 . S
N581 C573 1.427 . S
N581 C579 1.384 . S
H582 C588 0.930 . S
H583 C592 0.930 . S
H584 C597 0.929 . S
H585 C595 0.929 . S
H586 C590 0.929 . S
H587 C596 0.929 . S
C588 H582 0.930 . S
C588 C589 1.367 . S
C588 C596 1.378 . S
C589 C588 1.367 . S
C589 C597 1.433 . S
C590 H586 0.929 . S
C590 C592 1.378 . S
C590 C594 1.350 . S
C591 C594 1.463 . S
C591 C596 1.350 . S
C591 N599 1.427 . S
C592 H583 0.930 . S
C592 C590 1.378 . S
C592 C593 1.367 . S
C593 C592 1.367 . S
C593 C595 1.433 . S
C594 C590 1.350 . S
C594 C591 1.463 . S
C594 N598 1.427 . S
C595 H585 0.929 . S
C595 C593 1.433 . S
C595 N598 1.384 . S
C596 H587 0.929 . S
C596 C588 1.378 . S
C596 C591 1.350 . S
C597 H584 0.929 . S
C597 C589 1.433 . S
C597 N599 1.384 . S
N598 C594 1.427 . S
N598 C595 1.384 . S
N599 C591 1.427 . S
N599 C597 1.384 . S
H600 C606 0.930 . S
H601 C610 0.930 . S
H602 C615 0.929 . S
H603 C613 0.929 . S
H604 C608 0.929 . S
H605 C614 0.929 . S
C606 H600 0.930 . S
C606 C607 1.367 . S
C606 C614 1.378 . S
C607 C606 1.367 . S
C607 C615 1.433 . S
C608 H604 0.929 . S
C608 C610 1.378 . S
C608 C612 1.350 . S
C609 C612 1.463 . S
C609 C614 1.350 . S
C609 N617 1.427 . S
C610 H601 0.930 . S
C610 C608 1.378 . S
C610 C611 1.367 1_556 S
C611 C610 1.367 1_554 S
C611 C613 1.433 . S
C612 C608 1.350 . S
C612 C609 1.463 . S
C612 N616 1.427 . S
C613 H603 0.929 . S
C613 C611 1.433 . S
C613 N616 1.384 1_554 S
C614 H605 0.929 . S
C614 C606 1.378 . S
C614 C609 1.350 . S
C615 H602 0.929 . S
C615 C607 1.433 . S
C615 N617 1.384 . S
N616 C612 1.427 . S
N616 C613 1.384 1_556 S
N617 C609 1.427 . S
N617 C615 1.384 . S
H618 C624 0.930 . S
H619 C628 0.930 . S
H620 C633 0.929 . S
H621 C631 0.929 . S
H622 C626 0.929 . S
H623 C632 0.929 . S
C624 H618 0.930 . S
C624 C625 1.367 . S
C624 C632 1.378 . S
C625 C624 1.367 . S
C625 C633 1.433 . S
C626 H622 0.929 . S
C626 C628 1.378 . S
C626 C630 1.350 . S
C627 C630 1.463 . S
C627 C632 1.350 . S
C627 N635 1.427 . S
C628 H619 0.930 . S
C628 C626 1.378 . S
C628 C629 1.367 . S
C629 C628 1.367 . S
C629 C631 1.433 . S
C630 C626 1.350 . S
C630 C627 1.463 . S
C630 N634 1.427 . S
C631 H621 0.929 . S
C631 C629 1.433 . S
C631 N634 1.384 . S
C632 H623 0.929 . S
C632 C624 1.378 . S
C632 C627 1.350 . S
C633 H620 0.929 . S
C633 C625 1.433 . S
C633 N635 1.384 . S
N634 C630 1.427 . S
N634 C631 1.384 . S
N635 C627 1.427 . S
N635 C633 1.384 . S
H636 C642 0.930 . S
H637 C646 0.930 . S
H638 C651 0.929 . S
H639 C649 0.929 . S
H640 C644 0.929 . S
H641 C650 0.929 . S
C642 H636 0.930 . S
C642 C643 1.367 . S
C642 C650 1.378 . S
C643 C642 1.367 . S
C643 C651 1.433 . S
C644 H640 0.929 . S
C644 C646 1.378 . S
C644 C648 1.350 . S
C645 C648 1.463 . S
C645 C650 1.350 . S
C645 N653 1.427 . S
C646 H637 0.930 . S
C646 C644 1.378 . S
C646 C647 1.367 . S
C647 C646 1.367 . S
C647 C649 1.433 . S
C648 C644 1.350 . S
C648 C645 1.463 . S
C648 N652 1.427 . S
C649 H639 0.929 . S
C649 C647 1.433 . S
C649 N652 1.384 . S
C650 H641 0.929 . S
C650 C642 1.378 . S
C650 C645 1.350 . S
C651 H638 0.929 . S
C651 C643 1.433 . S
C651 N653 1.384 . S
N652 C648 1.427 . S
N652 C649 1.384 . S
N653 C645 1.427 . S
N653 C651 1.384 . S
H654 C660 0.930 . S
H655 C664 0.930 . S
H656 C669 0.929 . S
H657 C667 0.929 . S
H658 C662 0.929 . S
H659 C668 0.929 . S
C660 H654 0.930 . S
C660 C661 1.367 . S
C660 C668 1.378 . S
C661 C660 1.367 . S
C661 C669 1.433 . S
C662 H658 0.929 . S
C662 C664 1.378 . S
C662 C666 1.350 . S
C663 C666 1.463 . S
C663 C668 1.350 . S
C663 N671 1.427 . S
C664 H655 0.930 . S
C664 C662 1.378 . S
C664 C665 1.367 . S
C665 C664 1.367 . S
C665 C667 1.433 . S
C666 C662 1.350 . S
C666 C663 1.463 . S
C666 N670 1.427 . S
C667 H657 0.929 . S
C667 C665 1.433 . S
C667 N670 1.384 . S
C668 H659 0.929 . S
C668 C660 1.378 . S
C668 C663 1.350 . S
C669 H656 0.929 . S
C669 C661 1.433 . S
C669 N671 1.384 . S
N670 C666 1.427 . S
N670 C667 1.384 . S
N671 C663 1.427 . S
N671 C669 1.384 . S
H672 C678 0.930 . S
H673 C682 0.930 . S
H674 C687 0.929 . S
H675 C685 0.929 . S
H676 C680 0.929 . S
H677 C686 0.929 . S
C678 H672 0.930 . S
C678 C679 1.367 . S
C678 C686 1.378 . S
C679 C678 1.367 . S
C679 C687 1.433 . S
C680 H676 0.929 . S
C680 C682 1.378 . S
C680 C684 1.350 . S
C681 C684 1.463 . S
C681 C686 1.350 . S
C681 N689 1.427 . S
C682 H673 0.930 . S
C682 C680 1.378 . S
C682 C683 1.367 . S
C683 C682 1.367 . S
C683 C685 1.433 . S
C684 C680 1.350 . S
C684 C681 1.463 . S
C684 N688 1.427 . S
C685 H675 0.929 . S
C685 C683 1.433 . S
C685 N688 1.384 . S
C686 H677 0.929 . S
C686 C678 1.378 . S
C686 C681 1.350 . S
C687 H674 0.929 . S
C687 C679 1.433 . S
C687 N689 1.384 . S
N688 C684 1.427 . S
N688 C685 1.384 . S
N689 C681 1.427 . S
N689 C687 1.384 . S
H690 C696 0.930 . S
H691 C700 0.930 . S
H692 C705 0.929 . S
H693 C703 0.929 . S
H694 C698 0.929 . S
H695 C704 0.929 . S
C696 H690 0.930 . S
C696 C697 1.367 . S
C696 C704 1.378 . S
C697 C696 1.367 . S
C697 C705 1.433 . S
C698 H694 0.929 . S
C698 C700 1.378 . S
C698 C702 1.350 . S
C699 C702 1.463 . S
C699 C704 1.350 . S
C699 N707 1.427 . S
C700 H691 0.930 . S
C700 C698 1.378 . S
C700 C701 1.367 . S
C701 C700 1.367 . S
C701 C703 1.433 . S
C702 C698 1.350 . S
C702 C699 1.463 . S
C702 N706 1.427 . S
C703 H693 0.929 . S
C703 C701 1.433 . S
C703 N706 1.384 . S
C704 H695 0.929 . S
C704 C696 1.378 . S
C704 C699 1.350 . S
C705 H692 0.929 . S
C705 C697 1.433 . S
C705 N707 1.384 . S
N706 C702 1.427 . S
N706 C703 1.384 . S
N707 C699 1.427 . S
N707 C705 1.384 . S
H708 C714 0.930 . S
H709 C718 0.930 . S
H710 C723 0.929 . S
H711 C721 0.929 . S
H712 C716 0.929 . S
H713 C722 0.929 . S
C714 H708 0.930 . S
C714 C715 1.367 . S
C714 C722 1.378 . S
C715 C714 1.367 . S
C715 C723 1.433 . S
C716 H712 0.929 . S
C716 C718 1.378 . S
C716 C720 1.350 . S
C717 C720 1.463 . S
C717 C722 1.350 . S
C717 N725 1.427 . S
C718 H709 0.930 . S
C718 C716 1.378 . S
C718 C719 1.367 . S
C719 C718 1.367 . S
C719 C721 1.433 . S
C720 C716 1.350 . S
C720 C717 1.463 . S
C720 N724 1.427 . S
C721 H711 0.929 . S
C721 C719 1.433 . S
C721 N724 1.384 . S
C722 H713 0.929 . S
C722 C714 1.378 . S
C722 C717 1.350 . S
C723 H710 0.929 . S
C723 C715 1.433 . S
C723 N725 1.384 . S
N724 C720 1.427 . S
N724 C721 1.384 . S
N725 C717 1.427 . S
N725 C723 1.384 . S
H726 C732 0.930 . S
H727 C736 0.930 . S
H728 C741 0.929 . S
H729 C739 0.929 . S
H730 C734 0.929 . S
H731 C740 0.929 . S
C732 H726 0.930 . S
C732 C733 1.367 . S
C732 C740 1.378 . S
C733 C732 1.367 . S
C733 C741 1.433 . S
C734 H730 0.929 . S
C734 C736 1.378 . S
C734 C738 1.350 . S
C735 C738 1.463 . S
C735 C740 1.350 . S
C735 N743 1.427 . S
C736 H727 0.930 . S
C736 C734 1.378 . S
C736 C737 1.367 . S
C737 C736 1.367 . S
C737 C739 1.433 . S
C738 C734 1.350 . S
C738 C735 1.463 . S
C738 N742 1.427 . S
C739 H729 0.929 . S
C739 C737 1.433 . S
C739 N742 1.384 . S
C740 H731 0.929 . S
C740 C732 1.378 . S
C740 C735 1.350 . S
C741 H728 0.929 . S
C741 C733 1.433 . S
C741 N743 1.384 . S
N742 C738 1.427 . S
N742 C739 1.384 . S
N743 C735 1.427 . S
N743 C741 1.384 . S
C319 C6 1.167 . S
C323 C158 1.190 . S
C337 C21 1.454 . S
C341 C207 1.470 . S
C359 C242 1.869 . S
C355 C49 1.841 . S
C373 C68 2.092 . S
C377 C281 2.148 1_655 S
C395 C202 2.989 . S
C391 C2 2.880 . S
C413 C161 0.364 . S
C409 C30 0.410 . S
C431 C291 1.881 . S
C427 C40 1.934 . S
C449 C250 1.541 . S
C445 C63 1.547 . S
C463 C11 1.372 . S
C467 C278 1.539 . S
C485 C210 2.603 . S
C481 C44 2.698 . S
C499 C59 1.964 . S
C503 C171 1.962 . S
C517 C25 1.245 . S
C521 C247 1.225 . S
C539 C167 1.431 . S
C535 C82 1.427 . S
C553 C101 1.206 . S
C557 C198 1.210 . S
C571 C125 2.282 . S
C575 C251 2.376 . S
C589 C144 1.825 . S
C593 C290 1.913 . S
C607 C87 1.875 . S
C611 C211 2.005 . S
C629 C170 1.747 . S
C625 C97 1.799 . S
C647 C282 1.655 . S
C643 C120 1.739 . S
C665 C241 1.551 . S
C661 C135 1.637 . S
C679 C78 1.922 . S
C683 C287 2.025 . S
C701 C201 1.888 . S
C697 C116 1.947 . S
C719 C162 2.647 . S
C715 C139 2.654 . S
C733 C106 0.809 . S
C737 C238 0.910 . S
