# Generated by pormake.
# Topology nom, (4,4)-cn, num edge types: 1
# Building blocks:
#     Node 0, Type 0, BuildingBlock: MIFKUJ_clean_linker_1, # of connection points: 4
#     Node 1, Type 0, BuildingBlock: MIFKUJ_clean_linker_1, # of connection points: 4
#     Node 2, Type 0, BuildingBlock: MIFKUJ_clean_linker_1, # of connection points: 4
#     Node 3, Type 0, BuildingBlock: MIFKUJ_clean_linker_1, # of connection points: 4
#     Node 4, Type 0, BuildingBlock: MIFKUJ_clean_linker_1, # of connection points: 4
#     Node 5, Type 0, BuildingBlock: MIFKUJ_clean_linker_1, # of connection points: 4
#     Node 6, Type 1, BuildingBlock: CEKHIL_clean_sbu_0, # of connection points: 4
#     Node 7, Type 1, BuildingBlock: CEKHIL_clean_sbu_0, # of connection points: 4
#     Node 8, Type 1, BuildingBlock: CEKHIL_clean_sbu_0, # of connection points: 4
#     Node 9, Type 1, BuildingBlock: CEKHIL_clean_sbu_0, # of connection points: 4
#     Node 10, Type 1, BuildingBlock: CEKHIL_clean_sbu_0, # of connection points: 4
#     Node 11, Type 1, BuildingBlock: CEKHIL_clean_sbu_0, # of connection points: 4
#     Edge 12, Type (0, 1), None
#     Edge 13, Type (0, 1), None
#     Edge 14, Type (0, 1), None
#     Edge 15, Type (0, 1), None
#     Edge 16, Type (0, 1), None
#     Edge 17, Type (0, 1), None
#     Edge 18, Type (0, 1), None
#     Edge 19, Type (0, 1), None
#     Edge 20, Type (0, 1), None
#     Edge 21, Type (0, 1), None
#     Edge 22, Type (0, 1), None
#     Edge 23, Type (0, 1), None
#     Edge 24, Type (0, 1), None
#     Edge 25, Type (0, 1), None
#     Edge 26, Type (0, 1), None
#     Edge 27, Type (0, 1), None
#     Edge 28, Type (0, 1), None
#     Edge 29, Type (0, 1), None
#     Edge 30, Type (0, 1), None
#     Edge 31, Type (0, 1), None
#     Edge 32, Type (0, 1), None
#     Edge 33, Type (0, 1), None
#     Edge 34, Type (0, 1), None
#     Edge 35, Type (0, 1), None
# Relax obj value: 0.002
# Max RMSD: 0.103
# Mean RMSD: 0.066
data_MOF--net-nom--node1-CEKHIL_clean_sbu_0--node2-MIFKUJ_clean_linker_1--edge1-none
_symmetry_space_group_name_H-M    P1
_symmetry_Int_Tables_number       1
_symmetry_cell_setting            triclinic
loop_
_symmetry_equiv_pos_as_xyz
'x, y, z'
_cell_length_a     28.831629
_cell_length_b     28.466375
_cell_length_c     30.125381
_cell_angle_alpha  89.999257
_cell_angle_beta   90.000778
_cell_angle_gamma 121.23536
loop_
_atom_site_label
_atom_site_type_symbol
_atom_site_fract_x
_atom_site_fract_y
_atom_site_fract_z
_atom_type_partial_charge
H0 H 0.97493 0.43626 0.26335 0.0
H1 H 0.91471 0.38348 0.20286 0.0
H2 H 0.84294 0.48438 0.20699 0.0
H3 H 0.90418 0.5375 0.26859 0.0
H4 H 0.05092 0.55092 0.26495 0.0
H5 H 0.88022 0.41458 0.33509 0.0
H6 H 0.78377 0.37552 0.34894 0.0
H7 H 0.81791 0.52766 0.40972 0.0
H8 H 0.91478 0.56769 0.39381 0.0
H9 H 0.12626 0.67487 0.40059 0.0
H10 H 0.18921 0.71017 0.46346 0.0
H11 H 0.1409 0.54419 0.50036 0.0
H12 H 0.07704 0.50919 0.43777 0.0
H13 H 0.98849 0.53988 0.42004 0.0
H14 H 0.12294 0.65886 0.27609 0.0
H15 H 0.21556 0.70724 0.24834 0.0
H16 H 0.25322 0.60863 0.33265 0.0
H17 H 0.15914 0.5588 0.35961 0.0
C18 C 0.94393 0.49062 0.27055 0.0
C19 C 0.94633 0.44717 0.25125 0.0
C20 C 0.91154 0.41683 0.2167 0.0
C21 C 0.87367 0.42947 0.20007 0.0
C22 C 0.87167 0.47364 0.219 0.0
C23 C 0.90645 0.50389 0.2542 0.0
C24 C 0.98148 0.52121 0.30764 0.0
C25 C 0.03728 0.54889 0.29886 0.0
C26 C 0.96341 0.5197 0.35164 0.0
C27 C 0.90485 0.49455 0.36247 0.0
C28 C 0.86706 0.44001 0.35065 0.0
C29 C 0.8118 0.41766 0.35871 0.0
C30 C 0.79312 0.44879 0.37992 0.0
C31 C 0.83103 0.50284 0.39301 0.0
C32 C 0.88639 0.52558 0.38418 0.0
C33 C 0.09679 0.58951 0.41483 0.0
C34 C 0.12925 0.64617 0.42226 0.0
C35 C 0.16522 0.66618 0.45815 0.0
C36 C 0.17004 0.62992 0.48694 0.0
C37 C 0.13839 0.57315 0.47869 0.0
C38 C 0.10163 0.55312 0.44321 0.0
C39 C 0.058 0.56807 0.37727 0.0
C40 C 1.00206 0.54244 0.38606 0.0
C41 C 0.07584 0.57337 0.33287 0.0
C42 C 0.13402 0.60536 0.3201 0.0
C43 C 0.15111 0.64774 0.28886 0.0
C44 C 0.20419 0.67541 0.27301 0.0
C45 C 0.24169 0.66161 0.28819 0.0
C46 C 0.2252 0.62021 0.32044 0.0
C47 C 0.17158 0.59199 0.33609 0.0
H48 H 0.37683 0.9042 0.56256 0.0
H49 H 0.32473 0.80961 0.58857 0.0
H50 H 0.41528 0.76624 0.50079 0.0
H51 H 0.4687 0.86198 0.47562 0.0
H52 H 0.48413 0.97437 0.57177 0.0
H53 H 0.35757 0.90212 0.43857 0.0
H54 H 0.31822 0.84012 0.37482 0.0
H55 H 0.47858 0.88075 0.334 0.0
H56 H 0.51759 0.94362 0.3973 0.0
H57 H 0.61994 0.1484 0.50157 0.0
H58 H 0.65901 0.24512 0.48186 0.0
H59 H 0.50879 0.20547 0.41816 0.0
H60 H 0.46884 0.10944 0.43995 0.0
H61 H 0.49415 0.03664 0.41653 0.0
H62 H 0.59819 0.05001 0.57309 0.0
H63 H 0.65099 0.11117 0.63338 0.0
H64 H 0.55367 0.18638 0.62821 0.0
H65 H 0.50062 0.12428 0.56693 0.0
C66 C 0.42649 0.89021 0.517 0.0
C67 C 0.38545 0.87436 0.54878 0.0
C68 C 0.3556 0.82019 0.56355 0.0
C69 C 0.36597 0.78051 0.54673 0.0
C70 C 0.40627 0.79595 0.51416 0.0
C71 C 0.43659 0.85055 0.4996 0.0
C72 C 0.45978 0.9489 0.50416 0.0
C73 C 0.48604 0.98807 0.53784 0.0
C74 C 0.46452 0.96668 0.45975 0.0
C75 C 0.44039 0.92746 0.42241 0.0
C76 C 0.3841 0.89749 0.41589 0.0
C77 C 0.36178 0.86217 0.37948 0.0
C78 C 0.39535 0.85559 0.34935 0.0
C79 C 0.45165 0.88468 0.35671 0.0
C80 C 0.474 0.9208 0.39266 0.0
C81 C 0.54104 0.12156 0.47294 0.0
C82 C 0.5949 0.16062 0.48435 0.0
C83 C 0.61732 0.21589 0.47288 0.0
C84 C 0.5868 0.23273 0.44865 0.0
C85 C 0.53322 0.19363 0.43685 0.0
C86 C 0.51047 0.1387 0.44914 0.0
C87 C 0.51617 0.06257 0.4846 0.0
C88 C 0.49194 0.02319 0.45057 0.0
C89 C 0.51485 0.04457 0.52865 0.0
C90 C 0.54571 0.08275 0.56543 0.0
C91 C 0.58813 0.07961 0.58492 0.0
C92 C 0.61845 0.1149 0.61935 0.0
C93 C 0.60677 0.15397 0.63566 0.0
C94 C 0.56367 0.15672 0.61649 0.0
C95 C 0.53347 0.12146 0.58145 0.0
H96 H 0.54844 0.57168 0.74183 0.0
H97 H 0.54508 0.62785 0.80103 0.0
H98 H 0.36977 0.53267 0.79738 0.0
H99 H 0.37369 0.47625 0.73719 0.0
H100 H 0.50416 0.45661 0.73935 0.0
H101 H 0.47503 0.59639 0.67093 0.0
H102 H 0.42099 0.63782 0.65514 0.0
H103 H 0.29792 0.4866 0.59416 0.0
H104 H 0.35128 0.44437 0.61183 0.0
H105 H 0.45168 0.33495 0.60181 0.0
H106 H 0.47873 0.30141 0.53784 0.0
H107 H 0.59932 0.46848 0.50283 0.0
H108 H 0.57098 0.50172 0.56641 0.0
H109 H 0.4522 0.47089 0.58524 0.0
H110 H 0.46747 0.34639 0.72543 0.0
H111 H 0.51188 0.29591 0.74582 0.0
H112 H 0.64791 0.40321 0.66196 0.0
H113 H 0.6038 0.45417 0.64248 0.0
C114 C 0.46139 0.51989 0.73501 0.0
C115 C 0.50921 0.56262 0.75388 0.0
C116 C 0.50716 0.59497 0.78764 0.0
C117 C 0.45711 0.58506 0.80391 0.0
C118 C 0.40897 0.54138 0.78564 0.0
C119 C 0.41111 0.50918 0.75126 0.0
C120 C 0.46574 0.48824 0.69772 0.0
C121 C 0.4922 0.4592 0.70572 0.0
C122 C 0.44885 0.49051 0.65396 0.0
C123 C 0.41685 0.51676 0.64351 0.0
C124 C 0.43596 0.57165 0.65501 0.0
C125 C 0.40502 0.59541 0.64574 0.0
C126 C 0.35485 0.56531 0.62373 0.0
C127 C 0.33621 0.51076 0.61136 0.0
C128 C 0.36683 0.4867 0.6213 0.0
C129 C 0.50903 0.42073 0.58855 0.0
C130 C 0.48384 0.36426 0.5803 0.0
C131 C 0.49948 0.34526 0.5438 0.0
C132 C 0.54127 0.38235 0.51529 0.0
C133 C 0.56731 0.4389 0.52431 0.0
C134 C 0.55086 0.45793 0.56034 0.0
C135 C 0.49232 0.4412 0.62691 0.0
C136 C 0.4632 0.46757 0.61903 0.0
C137 C 0.505 0.4349 0.67101 0.0
C138 C 0.53193 0.40371 0.682 0.0
C139 C 0.50682 0.35896 0.71137 0.0
C140 C 0.53219 0.33002 0.7229 0.0
C141 C 0.58333 0.34536 0.70538 0.0
C142 C 0.60833 0.39006 0.67581 0.0
C143 C 0.58302 0.41911 0.66443 0.0
H144 H 0.064 0.58213 0.76335 0.0
H145 H 0.12421 0.63491 0.70286 0.0
H146 H 0.19598 0.53401 0.707 0.0
H147 H 0.13474 0.48089 0.76859 0.0
H148 H 0.988 0.46747 0.76495 0.0
H149 H 0.1587 0.60381 0.83509 0.0
H150 H 0.25515 0.64287 0.84893 0.0
H151 H 0.22101 0.49073 0.90972 0.0
H152 H 0.12414 0.4507 0.89381 0.0
H153 H 0.91267 0.34352 0.90059 0.0
H154 H 0.84972 0.30822 0.96346 0.0
H155 H 0.89802 0.4742 1.00036 0.0
H156 H 0.96188 0.5092 0.93777 0.0
H157 H 0.05043 0.47851 0.92004 0.0
H158 H 0.91598 0.35953 0.7761 0.0
H159 H 0.82337 0.31115 0.74835 0.0
H160 H 0.7857 0.40976 0.83265 0.0
H161 H 0.87978 0.45959 0.8596 0.0
C162 C 0.09499 0.52777 0.77055 0.0
C163 C 0.0926 0.57122 0.75125 0.0
C164 C 0.12738 0.60157 0.7167 0.0
C165 C 0.16526 0.58892 0.70007 0.0
C166 C 0.16725 0.54475 0.719 0.0
C167 C 0.13247 0.5145 0.7542 0.0
C168 C 0.05745 0.49718 0.80765 0.0
C169 C 1.00165 0.4695 0.79886 0.0
C170 C 0.07551 0.49869 0.85164 0.0
C171 C 0.13407 0.52384 0.86248 0.0
C172 C 0.17186 0.57838 0.85065 0.0
C173 C 0.22712 0.60073 0.85871 0.0
C174 C 0.24581 0.5696 0.87992 0.0
C175 C 0.20789 0.51555 0.89301 0.0
C176 C 0.15253 0.49281 0.88418 0.0
C177 C 0.94213 0.42889 0.91483 0.0
C178 C 0.90968 0.37222 0.92226 0.0
C179 C 0.8737 0.35221 0.95815 0.0
C180 C 0.86889 0.38848 0.98694 0.0
C181 C 0.90054 0.44524 0.97869 0.0
C182 C 0.9373 0.46527 0.94321 0.0
C183 C 0.98093 0.45032 0.87727 0.0
C184 C 0.03687 0.47595 0.88606 0.0
C185 C 0.96308 0.44502 0.83287 0.0
C186 C 0.90491 0.41303 0.8201 0.0
C187 C 0.88781 0.37065 0.78886 0.0
C188 C 0.83473 0.34298 0.77301 0.0
C189 C 0.79723 0.35677 0.78819 0.0
C190 C 0.81373 0.39818 0.82044 0.0
C191 C 0.86734 0.4264 0.83609 0.0
H192 H 0.6621 0.11419 0.06257 0.0
H193 H 0.7142 0.20878 0.08857 0.0
H194 H 0.62365 0.25215 1.00078 0.0
H195 H 0.57023 0.1564 0.97562 0.0
H196 H 0.55479 0.04402 0.07177 0.0
H197 H 0.68136 0.11627 0.93858 0.0
H198 H 0.72071 0.17827 0.87482 0.0
H199 H 0.56035 0.13763 0.834 0.0
H200 H 0.52134 0.07477 0.8973 0.0
H201 H 0.41899 0.86999 1.00157 0.0
H202 H 0.37991 0.77327 0.98186 0.0
H203 H 0.53014 0.81292 0.91815 0.0
H204 H 0.57009 0.90895 0.93995 0.0
H205 H 0.54478 0.98175 0.91653 0.0
H206 H 0.44073 0.96838 0.07308 0.0
H207 H 0.38793 0.90722 0.13338 0.0
H208 H 0.48525 0.832 0.12822 0.0
H209 H 0.5383 0.8941 0.06693 0.0
C210 C 0.61244 0.12818 0.017 0.0
C211 C 0.65348 0.14402 0.04878 0.0
C212 C 0.68333 0.1982 0.06355 0.0
C213 C 0.67295 0.23788 0.04673 0.0
C214 C 0.63266 0.22244 0.01416 0.0
C215 C 0.60233 0.16784 0.9996 0.0
C216 C 0.57915 0.06949 1.00416 0.0
C217 C 0.55289 0.03032 0.03784 0.0
C218 C 0.57441 0.05171 0.95976 0.0
C219 C 0.59854 0.09093 0.92241 0.0
C220 C 0.65483 0.1209 0.9159 0.0
C221 C 0.67715 0.15622 0.87948 0.0
C222 C 0.64358 0.16279 0.84935 0.0
C223 C 0.58727 0.13371 0.85671 0.0
C224 C 0.56492 0.09759 0.89266 0.0
C225 C 0.49789 0.89683 0.97294 0.0
C226 C 0.44403 0.85777 0.98435 0.0
C227 C 0.42161 0.8025 0.97288 0.0
C228 C 0.45213 0.78566 0.94864 0.0
C229 C 0.50571 0.82476 0.93685 0.0
C230 C 0.52846 0.87969 0.94914 0.0
C231 C 0.52276 0.95582 0.9846 0.0
C232 C 0.54699 0.9952 0.95058 0.0
C233 C 0.52408 0.97382 0.02865 0.0
C234 C 0.49321 0.93564 0.06543 0.0
C235 C 0.4508 0.93878 0.08491 0.0
C236 C 0.42047 0.90349 0.11935 0.0
C237 C 0.43216 0.86442 0.13566 0.0
C238 C 0.47526 0.86166 0.11649 0.0
C239 C 0.50546 0.89693 0.08145 0.0
H240 H 0.49049 0.44671 0.24183 0.0
H241 H 0.49384 0.39054 0.30103 0.0
H242 H 0.66916 0.48572 0.29738 0.0
H243 H 0.66524 0.54214 0.2372 0.0
H244 H 0.53477 0.56178 0.23935 0.0
H245 H 0.5639 0.42201 0.17093 0.0
H246 H 0.61793 0.38057 0.15514 0.0
H247 H 0.74101 0.53179 0.09416 0.0
H248 H 0.68764 0.57402 0.11183 0.0
H249 H 0.58725 0.68345 0.10181 0.0
H250 H 0.5602 0.71698 0.03784 0.0
H251 H 0.43961 0.54991 1.00283 0.0
H252 H 0.46795 0.51667 0.06641 0.0
H253 H 0.58672 0.5475 0.08524 0.0
H254 H 0.57146 0.672 0.22543 0.0
H255 H 0.52704 0.72248 0.24583 0.0
H256 H 0.39102 0.61518 0.16196 0.0
H257 H 0.43513 0.56422 0.14248 0.0
C258 C 0.57753 0.4985 0.23501 0.0
C259 C 0.52971 0.45577 0.25388 0.0
C260 C 0.53177 0.42342 0.28764 0.0
C261 C 0.58182 0.43333 0.30391 0.0
C262 C 0.62996 0.47701 0.28564 0.0
C263 C 0.62782 0.50921 0.25126 0.0
C264 C 0.57319 0.53015 0.19772 0.0
C265 C 0.54673 0.55919 0.20572 0.0
C266 C 0.59007 0.52788 0.15396 0.0
C267 C 0.62208 0.50164 0.14351 0.0
C268 C 0.60296 0.44674 0.15501 0.0
C269 C 0.63391 0.42298 0.14574 0.0
C270 C 0.68408 0.45308 0.12372 0.0
C271 C 0.70271 0.50763 0.11136 0.0
C272 C 0.67209 0.53169 0.1213 0.0
C273 C 0.5299 0.59766 0.08855 0.0
C274 C 0.55509 0.65413 0.0803 0.0
C275 C 0.53945 0.67314 0.0438 0.0
C276 C 0.49766 0.63604 0.01529 0.0
C277 C 0.47161 0.57949 0.02431 0.0
C278 C 0.48807 0.56046 0.06034 0.0
C279 C 0.54661 0.5772 0.12691 0.0
C280 C 0.57573 0.55082 0.11903 0.0
C281 C 0.53393 0.5835 0.17101 0.0
C282 C 0.507 0.61468 0.182 0.0
C283 C 0.5321 0.65943 0.21137 0.0
C284 C 0.50673 0.68837 0.2229 0.0
C285 C 0.45559 0.67303 0.20538 0.0
C286 C 0.43059 0.62833 0.17581 0.0
C287 C 0.45591 0.59928 0.16443 0.0
Co288 Co 0.64609 0.37743 0.41027 0.0
O289 O 0.69916 0.37706 0.37177 0.0
O290 O 0.71637 0.44379 0.41887 0.0
C291 C 0.6115 0.29019 0.43378 0.0
O292 O 0.60227 0.39049 0.45721 0.0
Co293 Co 0.52291 0.298 0.39575 0.0
O294 O 0.51712 0.31747 0.45778 0.0
C295 C 0.58258 0.3974 0.33938 0.0
C296 C 0.73457 0.42339 0.38981 0.0
C297 C 0.55475 0.3619 0.47495 0.0
O298 O 0.62599 0.414 0.36253 0.0
O299 O 0.5388 0.35115 0.34594 0.0
O300 O 0.65506 0.3301 0.45186 0.0
O301 O 0.59244 0.30357 0.4005 0.0
Co302 Co 0.28249 0.63792 0.5909 0.0
O303 O 0.33703 0.63938 0.62892 0.0
O304 O 0.28397 0.57087 0.58393 0.0
C305 C 0.33604 0.72413 0.56475 0.0
O306 O 0.22387 0.62332 0.54488 0.0
Co307 Co 0.24207 0.71925 0.60404 0.0
O308 O 0.2142 0.69681 0.5428 0.0
C309 C 0.20194 0.62257 0.66338 0.0
C310 C 0.32372 0.59194 0.61239 0.0
C311 C 0.20545 0.65154 0.52668 0.0
O312 O 0.22649 0.60392 0.64009 0.0
O313 O 0.20629 0.66899 0.65583 0.0
O314 O 0.33866 0.68374 0.54751 0.0
O315 O 0.30465 0.71182 0.59877 0.0
Co316 Co 0.65674 0.27545 0.74268 0.0
O317 O 0.65847 0.32969 0.70301 0.0
O318 O 0.59103 0.27752 0.74876 0.0
C319 C 0.74205 0.32883 0.76894 0.0
O320 O 0.64098 0.21739 0.78999 0.0
Co321 Co 0.73457 0.23114 0.73259 0.0
O322 O 0.71128 0.20421 0.79405 0.0
C323 C 0.64016 0.19117 0.67226 0.0
C324 C 0.61137 0.31631 0.71907 0.0
C325 C 0.66707 0.19756 0.80933 0.0
O326 O 0.62248 0.21736 0.69463 0.0
O327 O 0.68537 0.19454 0.68058 0.0
O328 O 0.70279 0.33337 0.78521 0.0
O329 O 0.72935 0.29606 0.73552 0.0
Co330 Co 0.39283 0.64096 0.91026 0.0
O331 O 0.33976 0.64133 0.87177 0.0
O332 O 0.32255 0.5746 0.91887 0.0
C333 C 0.42743 0.7282 0.93378 0.0
O334 O 0.43665 0.62791 0.95721 0.0
Co335 Co 0.51602 0.72039 0.89575 0.0
O336 O 0.52181 0.70092 0.95777 0.0
C337 C 0.45635 0.62099 0.83938 0.0
C338 C 0.30436 0.595 0.8898 0.0
C339 C 0.48418 0.65649 0.97495 0.0
O340 O 0.41293 0.60439 0.86253 0.0
O341 O 0.50013 0.66724 0.84594 0.0
O342 O 0.38386 0.68829 0.95185 0.0
O343 O 0.44648 0.71483 0.90049 0.0
Co344 Co 0.75644 0.38047 0.09089 0.0
O345 O 0.70189 0.37901 0.12892 0.0
O346 O 0.75495 0.44751 0.08393 0.0
C347 C 0.70289 0.29426 0.06475 0.0
O348 O 0.81506 0.39507 0.04488 0.0
Co349 Co 0.79686 0.29914 0.10404 0.0
O350 O 0.82473 0.32158 0.0428 0.0
C351 C 0.83698 0.39582 0.16338 0.0
C352 C 0.7152 0.42645 0.11239 0.0
C353 C 0.83348 0.36685 0.02668 0.0
O354 O 0.81243 0.41447 0.14009 0.0
O355 O 0.83263 0.3494 0.15583 0.0
O356 O 0.70026 0.33465 0.04751 0.0
O357 O 0.73427 0.30657 0.09877 0.0
Co358 Co 0.38219 0.74293 0.24268 0.0
O359 O 0.38046 0.68869 0.20301 0.0
O360 O 0.4479 0.74087 0.24877 0.0
C361 C 0.29687 0.68956 0.26894 0.0
O362 O 0.39794 0.80099 0.29 0.0
Co363 Co 0.30436 0.78725 0.23259 0.0
O364 O 0.32765 0.81418 0.29405 0.0
C365 C 0.39877 0.82722 0.17226 0.0
C366 C 0.42756 0.70208 0.21908 0.0
C367 C 0.37186 0.82083 0.30933 0.0
O368 O 0.41644 0.80103 0.19463 0.0
O369 O 0.35355 0.82385 0.18058 0.0
O370 O 0.33613 0.68501 0.28521 0.0
O371 O 0.30958 0.72233 0.23552 0.0
loop_
_geom_bond_atom_site_label_1
_geom_bond_atom_site_label_2
_geom_bond_distance
_geom_bond_site_symmetry_2
_ccdc_geom_bond_type
H0 C19 0.949 . S
H1 C20 0.950 . S
H2 C22 0.950 . S
H3 C23 0.950 . S
H4 C25 0.950 . S
H5 C28 0.950 . S
H6 C29 0.950 . S
H7 C31 0.951 . S
H8 C32 0.949 . S
H9 C34 0.949 . S
H10 C35 0.950 . S
H11 C37 0.950 . S
H12 C38 0.950 . S
H13 C40 0.950 . S
H14 C43 0.950 . S
H15 C44 0.950 . S
H16 C46 0.951 . S
H17 C47 0.949 . S
C18 C19 1.376 . S
C18 C23 1.386 . S
C18 C24 1.483 . S
C19 H0 0.949 . S
C19 C18 1.376 . S
C19 C20 1.397 . S
C20 H1 0.950 . S
C20 C19 1.397 . S
C20 C21 1.391 . S
C21 C20 1.391 . S
C21 C22 1.405 . S
C22 H2 0.950 . S
C22 C21 1.405 . S
C22 C23 1.367 . S
C23 H3 0.950 . S
C23 C18 1.386 . S
C23 C22 1.367 . S
C24 C18 1.483 . S
C24 C25 1.382 1_655 S
C24 C26 1.403 . S
C25 H4 0.950 . S
C25 C24 1.382 1_455 S
C25 C41 1.411 . S
C26 C24 1.403 . S
C26 C27 1.489 . S
C26 C40 1.411 . S
C27 C26 1.489 . S
C27 C28 1.383 . S
C27 C32 1.382 . S
C28 H5 0.950 . S
C28 C27 1.383 . S
C28 C29 1.395 . S
C29 H6 0.950 . S
C29 C28 1.395 . S
C29 C30 1.288 . S
C30 C29 1.288 . S
C30 C31 1.392 . S
C31 H7 0.951 . S
C31 C30 1.392 . S
C31 C32 1.392 . S
C32 H8 0.949 . S
C32 C27 1.382 . S
C32 C31 1.392 . S
C33 C34 1.376 . S
C33 C38 1.386 . S
C33 C39 1.483 . S
C34 H9 0.949 . S
C34 C33 1.376 . S
C34 C35 1.397 . S
C35 H10 0.950 . S
C35 C34 1.397 . S
C35 C36 1.391 . S
C36 C35 1.391 . S
C36 C37 1.405 . S
C37 H11 0.950 . S
C37 C36 1.405 . S
C37 C38 1.367 . S
C38 H12 0.950 . S
C38 C33 1.386 . S
C38 C37 1.367 . S
C39 C33 1.483 . S
C39 C40 1.382 1_455 S
C39 C41 1.403 . S
C40 H13 0.950 . S
C40 C26 1.411 . S
C40 C39 1.382 1_655 S
C41 C25 1.411 . S
C41 C39 1.403 . S
C41 C42 1.489 . S
C42 C41 1.489 . S
C42 C43 1.383 . S
C42 C47 1.382 . S
C43 H14 0.950 . S
C43 C42 1.383 . S
C43 C44 1.395 . S
C44 H15 0.950 . S
C44 C43 1.395 . S
C44 C45 1.288 . S
C45 C44 1.288 . S
C45 C46 1.392 . S
C46 H16 0.951 . S
C46 C45 1.392 . S
C46 C47 1.392 . S
C47 H17 0.949 . S
C47 C42 1.382 . S
C47 C46 1.392 . S
H48 C67 0.949 . S
H49 C68 0.950 . S
H50 C70 0.950 . S
H51 C71 0.950 . S
H52 C73 0.950 . S
H53 C76 0.950 . S
H54 C77 0.950 . S
H55 C79 0.951 . S
H56 C80 0.949 . S
H57 C82 0.949 . S
H58 C83 0.950 . S
H59 C85 0.950 . S
H60 C86 0.950 . S
H61 C88 0.950 . S
H62 C91 0.950 . S
H63 C92 0.950 . S
H64 C94 0.951 . S
H65 C95 0.949 . S
C66 C67 1.376 . S
C66 C71 1.386 . S
C66 C72 1.483 . S
C67 H48 0.949 . S
C67 C66 1.376 . S
C67 C68 1.397 . S
C68 H49 0.950 . S
C68 C67 1.397 . S
C68 C69 1.391 . S
C69 C68 1.391 . S
C69 C70 1.405 . S
C70 H50 0.950 . S
C70 C69 1.405 . S
C70 C71 1.367 . S
C71 H51 0.950 . S
C71 C66 1.386 . S
C71 C70 1.367 . S
C72 C66 1.483 . S
C72 C73 1.382 . S
C72 C74 1.403 . S
C73 H52 0.950 . S
C73 C72 1.382 . S
C73 C89 1.411 1_565 S
C74 C72 1.403 . S
C74 C75 1.489 . S
C74 C88 1.411 1_565 S
C75 C74 1.489 . S
C75 C76 1.383 . S
C75 C80 1.382 . S
C76 H53 0.950 . S
C76 C75 1.383 . S
C76 C77 1.395 . S
C77 H54 0.950 . S
C77 C76 1.395 . S
C77 C78 1.288 . S
C78 C77 1.288 . S
C78 C79 1.392 . S
C79 H55 0.951 . S
C79 C78 1.392 . S
C79 C80 1.392 . S
C80 H56 0.949 . S
C80 C75 1.382 . S
C80 C79 1.392 . S
C81 C82 1.376 . S
C81 C86 1.386 . S
C81 C87 1.483 . S
C82 H57 0.949 . S
C82 C81 1.376 . S
C82 C83 1.397 . S
C83 H58 0.950 . S
C83 C82 1.397 . S
C83 C84 1.391 . S
C84 C83 1.391 . S
C84 C85 1.405 . S
C85 H59 0.950 . S
C85 C84 1.405 . S
C85 C86 1.367 . S
C86 H60 0.950 . S
C86 C81 1.386 . S
C86 C85 1.367 . S
C87 C81 1.483 . S
C87 C88 1.382 . S
C87 C89 1.403 . S
C88 H61 0.950 . S
C88 C74 1.411 1_545 S
C88 C87 1.382 . S
C89 C73 1.411 1_545 S
C89 C87 1.403 . S
C89 C90 1.489 . S
C90 C89 1.489 . S
C90 C91 1.383 . S
C90 C95 1.382 . S
C91 H62 0.950 . S
C91 C90 1.383 . S
C91 C92 1.395 . S
C92 H63 0.950 . S
C92 C91 1.395 . S
C92 C93 1.288 . S
C93 C92 1.288 . S
C93 C94 1.392 . S
C94 H64 0.951 . S
C94 C93 1.392 . S
C94 C95 1.392 . S
C95 H65 0.949 . S
C95 C90 1.382 . S
C95 C94 1.392 . S
H96 C115 0.949 . S
H97 C116 0.950 . S
H98 C118 0.950 . S
H99 C119 0.950 . S
H100 C121 0.950 . S
H101 C124 0.950 . S
H102 C125 0.950 . S
H103 C127 0.951 . S
H104 C128 0.949 . S
H105 C130 0.949 . S
H106 C131 0.950 . S
H107 C133 0.950 . S
H108 C134 0.950 . S
H109 C136 0.950 . S
H110 C139 0.950 . S
H111 C140 0.950 . S
H112 C142 0.951 . S
H113 C143 0.949 . S
C114 C115 1.376 . S
C114 C119 1.386 . S
C114 C120 1.483 . S
C115 H96 0.949 . S
C115 C114 1.376 . S
C115 C116 1.397 . S
C116 H97 0.950 . S
C116 C115 1.397 . S
C116 C117 1.391 . S
C117 C116 1.391 . S
C117 C118 1.405 . S
C118 H98 0.950 . S
C118 C117 1.405 . S
C118 C119 1.367 . S
C119 H99 0.950 . S
C119 C114 1.386 . S
C119 C118 1.367 . S
C120 C114 1.483 . S
C120 C121 1.382 . S
C120 C122 1.403 . S
C121 H100 0.950 . S
C121 C120 1.382 . S
C121 C137 1.411 . S
C122 C120 1.403 . S
C122 C123 1.489 . S
C122 C136 1.411 . S
C123 C122 1.489 . S
C123 C124 1.383 . S
C123 C128 1.382 . S
C124 H101 0.950 . S
C124 C123 1.383 . S
C124 C125 1.395 . S
C125 H102 0.950 . S
C125 C124 1.395 . S
C125 C126 1.288 . S
C126 C125 1.288 . S
C126 C127 1.392 . S
C127 H103 0.951 . S
C127 C126 1.392 . S
C127 C128 1.392 . S
C128 H104 0.949 . S
C128 C123 1.382 . S
C128 C127 1.392 . S
C129 C130 1.376 . S
C129 C134 1.386 . S
C129 C135 1.483 . S
C130 H105 0.949 . S
C130 C129 1.376 . S
C130 C131 1.397 . S
C131 H106 0.950 . S
C131 C130 1.397 . S
C131 C132 1.391 . S
C132 C131 1.391 . S
C132 C133 1.405 . S
C133 H107 0.950 . S
C133 C132 1.405 . S
C133 C134 1.367 . S
C134 H108 0.950 . S
C134 C129 1.386 . S
C134 C133 1.367 . S
C135 C129 1.483 . S
C135 C136 1.382 . S
C135 C137 1.403 . S
C136 H109 0.950 . S
C136 C122 1.411 . S
C136 C135 1.382 . S
C137 C121 1.411 . S
C137 C135 1.403 . S
C137 C138 1.489 . S
C138 C137 1.489 . S
C138 C139 1.383 . S
C138 C143 1.382 . S
C139 H110 0.950 . S
C139 C138 1.383 . S
C139 C140 1.395 . S
C140 H111 0.950 . S
C140 C139 1.395 . S
C140 C141 1.288 . S
C141 C140 1.288 . S
C141 C142 1.392 . S
C142 H112 0.951 . S
C142 C141 1.392 . S
C142 C143 1.392 . S
C143 H113 0.949 . S
C143 C138 1.382 . S
C143 C142 1.392 . S
H144 C163 0.949 . S
H145 C164 0.950 . S
H146 C166 0.950 . S
H147 C167 0.950 . S
H148 C169 0.950 . S
H149 C172 0.950 . S
H150 C173 0.950 . S
H151 C175 0.951 . S
H152 C176 0.949 . S
H153 C178 0.949 . S
H154 C179 0.950 . S
H155 C181 0.950 . S
H156 C182 0.950 . S
H157 C184 0.950 . S
H158 C187 0.950 . S
H159 C188 0.950 . S
H160 C190 0.951 . S
H161 C191 0.949 . S
C162 C163 1.376 . S
C162 C167 1.386 . S
C162 C168 1.483 . S
C163 H144 0.949 . S
C163 C162 1.376 . S
C163 C164 1.397 . S
C164 H145 0.950 . S
C164 C163 1.397 . S
C164 C165 1.391 . S
C165 C164 1.391 . S
C165 C166 1.405 . S
C166 H146 0.950 . S
C166 C165 1.405 . S
C166 C167 1.367 . S
C167 H147 0.950 . S
C167 C162 1.386 . S
C167 C166 1.367 . S
C168 C162 1.483 . S
C168 C169 1.382 1_455 S
C168 C170 1.403 . S
C169 H148 0.950 . S
C169 C168 1.382 1_655 S
C169 C185 1.411 . S
C170 C168 1.403 . S
C170 C171 1.489 . S
C170 C184 1.411 . S
C171 C170 1.489 . S
C171 C172 1.383 . S
C171 C176 1.382 . S
C172 H149 0.950 . S
C172 C171 1.383 . S
C172 C173 1.395 . S
C173 H150 0.950 . S
C173 C172 1.395 . S
C173 C174 1.288 . S
C174 C173 1.288 . S
C174 C175 1.392 . S
C175 H151 0.951 . S
C175 C174 1.392 . S
C175 C176 1.392 . S
C176 H152 0.949 . S
C176 C171 1.382 . S
C176 C175 1.392 . S
C177 C178 1.376 . S
C177 C182 1.386 . S
C177 C183 1.483 . S
C178 H153 0.949 . S
C178 C177 1.376 . S
C178 C179 1.397 . S
C179 H154 0.950 . S
C179 C178 1.397 . S
C179 C180 1.391 . S
C180 C179 1.391 . S
C180 C181 1.405 . S
C181 H155 0.950 . S
C181 C180 1.405 . S
C181 C182 1.367 . S
C182 H156 0.950 . S
C182 C177 1.386 . S
C182 C181 1.367 . S
C183 C177 1.483 . S
C183 C184 1.382 1_655 S
C183 C185 1.403 . S
C184 H157 0.950 . S
C184 C170 1.411 . S
C184 C183 1.382 1_455 S
C185 C169 1.411 . S
C185 C183 1.403 . S
C185 C186 1.489 . S
C186 C185 1.489 . S
C186 C187 1.383 . S
C186 C191 1.382 . S
C187 H158 0.950 . S
C187 C186 1.383 . S
C187 C188 1.395 . S
C188 H159 0.950 . S
C188 C187 1.395 . S
C188 C189 1.288 . S
C189 C188 1.288 . S
C189 C190 1.392 . S
C190 H160 0.951 . S
C190 C189 1.392 . S
C190 C191 1.392 . S
C191 H161 0.949 . S
C191 C186 1.382 . S
C191 C190 1.392 . S
H192 C211 0.949 . S
H193 C212 0.950 . S
H194 C214 0.950 . S
H195 C215 0.950 1_556 S
H196 C217 0.950 . S
H197 C220 0.950 . S
H198 C221 0.950 . S
H199 C223 0.951 . S
H200 C224 0.949 . S
H201 C226 0.949 . S
H202 C227 0.950 . S
H203 C229 0.950 . S
H204 C230 0.950 1_554 S
H205 C232 0.950 . S
H206 C235 0.950 . S
H207 C236 0.950 . S
H208 C238 0.951 . S
H209 C239 0.949 . S
C210 C211 1.376 . S
C210 C215 1.386 . S
C210 C216 1.483 . S
C211 H192 0.949 . S
C211 C210 1.376 . S
C211 C212 1.397 . S
C212 H193 0.950 . S
C212 C211 1.397 . S
C212 C213 1.391 . S
C213 C212 1.391 . S
C213 C214 1.405 . S
C214 H194 0.950 . S
C214 C213 1.405 . S
C214 C215 1.367 . S
C215 H195 0.950 1_554 S
C215 C210 1.386 . S
C215 C214 1.367 . S
C216 C210 1.483 . S
C216 C217 1.382 . S
C216 C218 1.403 1_554 S
C217 H196 0.950 . S
C217 C216 1.382 . S
C217 C233 1.411 1_545 S
C218 C216 1.403 1_556 S
C218 C219 1.489 . S
C218 C232 1.411 1_545 S
C219 C218 1.489 . S
C219 C220 1.383 . S
C219 C224 1.382 . S
C220 H197 0.950 . S
C220 C219 1.383 . S
C220 C221 1.395 . S
C221 H198 0.950 . S
C221 C220 1.395 . S
C221 C222 1.288 . S
C222 C221 1.288 . S
C222 C223 1.392 . S
C223 H199 0.951 . S
C223 C222 1.392 . S
C223 C224 1.392 . S
C224 H200 0.949 . S
C224 C219 1.382 . S
C224 C223 1.392 . S
C225 C226 1.376 . S
C225 C230 1.386 . S
C225 C231 1.483 . S
C226 H201 0.949 . S
C226 C225 1.376 . S
C226 C227 1.397 . S
C227 H202 0.950 . S
C227 C226 1.397 . S
C227 C228 1.391 . S
C228 C227 1.391 . S
C228 C229 1.405 . S
C229 H203 0.950 . S
C229 C228 1.405 . S
C229 C230 1.367 . S
C230 H204 0.950 1_556 S
C230 C225 1.386 . S
C230 C229 1.367 . S
C231 C225 1.483 . S
C231 C232 1.382 . S
C231 C233 1.403 1_556 S
C232 H205 0.950 . S
C232 C218 1.411 1_565 S
C232 C231 1.382 . S
C233 C217 1.411 1_565 S
C233 C231 1.403 1_554 S
C233 C234 1.489 . S
C234 C233 1.489 . S
C234 C235 1.383 . S
C234 C239 1.382 . S
C235 H206 0.950 . S
C235 C234 1.383 . S
C235 C236 1.395 . S
C236 H207 0.950 . S
C236 C235 1.395 . S
C236 C237 1.288 . S
C237 C236 1.288 . S
C237 C238 1.392 . S
C238 H208 0.951 . S
C238 C237 1.392 . S
C238 C239 1.392 . S
C239 H209 0.949 . S
C239 C234 1.382 . S
C239 C238 1.392 . S
H240 C259 0.949 . S
H241 C260 0.950 . S
H242 C262 0.950 . S
H243 C263 0.950 . S
H244 C265 0.950 . S
H245 C268 0.950 . S
H246 C269 0.950 . S
H247 C271 0.951 . S
H248 C272 0.949 . S
H249 C274 0.949 . S
H250 C275 0.950 . S
H251 C277 0.950 . S
H252 C278 0.950 . S
H253 C280 0.950 . S
H254 C283 0.950 . S
H255 C284 0.950 . S
H256 C286 0.951 . S
H257 C287 0.949 . S
C258 C259 1.376 . S
C258 C263 1.386 . S
C258 C264 1.483 . S
C259 H240 0.949 . S
C259 C258 1.376 . S
C259 C260 1.397 . S
C260 H241 0.950 . S
C260 C259 1.397 . S
C260 C261 1.391 . S
C261 C260 1.391 . S
C261 C262 1.405 . S
C262 H242 0.950 . S
C262 C261 1.405 . S
C262 C263 1.367 . S
C263 H243 0.950 . S
C263 C258 1.386 . S
C263 C262 1.367 . S
C264 C258 1.483 . S
C264 C265 1.382 . S
C264 C266 1.403 . S
C265 H244 0.950 . S
C265 C264 1.382 . S
C265 C281 1.411 . S
C266 C264 1.403 . S
C266 C267 1.489 . S
C266 C280 1.411 . S
C267 C266 1.489 . S
C267 C268 1.383 . S
C267 C272 1.382 . S
C268 H245 0.950 . S
C268 C267 1.383 . S
C268 C269 1.395 . S
C269 H246 0.950 . S
C269 C268 1.395 . S
C269 C270 1.288 . S
C270 C269 1.288 . S
C270 C271 1.392 . S
C271 H247 0.951 . S
C271 C270 1.392 . S
C271 C272 1.392 . S
C272 H248 0.949 . S
C272 C267 1.382 . S
C272 C271 1.392 . S
C273 C274 1.376 . S
C273 C278 1.386 . S
C273 C279 1.483 . S
C274 H249 0.949 . S
C274 C273 1.376 . S
C274 C275 1.397 . S
C275 H250 0.950 . S
C275 C274 1.397 . S
C275 C276 1.391 . S
C276 C275 1.391 . S
C276 C277 1.405 . S
C277 H251 0.950 . S
C277 C276 1.405 . S
C277 C278 1.367 . S
C278 H252 0.950 . S
C278 C273 1.386 . S
C278 C277 1.367 . S
C279 C273 1.483 . S
C279 C280 1.382 . S
C279 C281 1.403 . S
C280 H253 0.950 . S
C280 C266 1.411 . S
C280 C279 1.382 . S
C281 C265 1.411 . S
C281 C279 1.403 . S
C281 C282 1.489 . S
C282 C281 1.489 . S
C282 C283 1.383 . S
C282 C287 1.382 . S
C283 H254 0.950 . S
C283 C282 1.383 . S
C283 C284 1.395 . S
C284 H255 0.950 . S
C284 C283 1.395 . S
C284 C285 1.288 . S
C285 C284 1.288 . S
C285 C286 1.392 . S
C286 H256 0.951 . S
C286 C285 1.392 . S
C286 C287 1.392 . S
C287 H257 0.949 . S
C287 C282 1.382 . S
C287 C286 1.392 . S
Co288 O289 2.216 . S
Co288 O290 2.091 . S
Co288 O292 2.004 . S
Co288 O298 2.021 . S
Co288 O300 2.137 . S
Co288 O301 2.244 . S
O289 Co288 2.216 . S
O289 C296 1.247 . S
O290 Co288 2.091 . S
O290 C296 1.261 . S
C291 O300 1.247 . S
C291 O301 1.272 . S
O292 Co288 2.004 . S
O292 C297 1.259 . S
Co293 O294 2.061 . S
Co293 O299 2.052 . S
Co293 O301 2.135 . S
O294 Co293 2.061 . S
O294 C297 1.235 . S
C295 O298 1.238 . S
C295 O299 1.241 . S
C296 O289 1.247 . S
C296 O290 1.261 . S
C297 O292 1.259 . S
C297 O294 1.235 . S
O298 Co288 2.021 . S
O298 C295 1.238 . S
O299 Co293 2.052 . S
O299 C295 1.241 . S
O300 Co288 2.137 . S
O300 C291 1.247 . S
O301 Co288 2.244 . S
O301 C291 1.272 . S
O301 Co293 2.135 . S
Co302 O303 2.216 . S
Co302 O304 2.091 . S
Co302 O306 2.004 . S
Co302 O312 2.021 . S
Co302 O314 2.137 . S
Co302 O315 2.244 . S
O303 Co302 2.216 . S
O303 C310 1.247 . S
O304 Co302 2.091 . S
O304 C310 1.261 . S
C305 O314 1.247 . S
C305 O315 1.272 . S
O306 Co302 2.004 . S
O306 C311 1.259 . S
Co307 O308 2.061 . S
Co307 O313 2.052 . S
Co307 O315 2.135 . S
O308 Co307 2.061 . S
O308 C311 1.235 . S
C309 O312 1.238 . S
C309 O313 1.241 . S
C310 O303 1.247 . S
C310 O304 1.261 . S
C311 O306 1.259 . S
C311 O308 1.235 . S
O312 Co302 2.021 . S
O312 C309 1.238 . S
O313 Co307 2.052 . S
O313 C309 1.241 . S
O314 Co302 2.137 . S
O314 C305 1.247 . S
O315 Co302 2.244 . S
O315 C305 1.272 . S
O315 Co307 2.135 . S
Co316 O317 2.216 . S
Co316 O318 2.091 . S
Co316 O320 2.004 . S
Co316 O326 2.021 . S
Co316 O328 2.137 . S
Co316 O329 2.244 . S
O317 Co316 2.216 . S
O317 C324 1.247 . S
O318 Co316 2.091 . S
O318 C324 1.261 . S
C319 O328 1.247 . S
C319 O329 1.272 . S
O320 Co316 2.004 . S
O320 C325 1.259 . S
Co321 O322 2.061 . S
Co321 O327 2.052 . S
Co321 O329 2.135 . S
O322 Co321 2.061 . S
O322 C325 1.235 . S
C323 O326 1.238 . S
C323 O327 1.241 . S
C324 O317 1.247 . S
C324 O318 1.261 . S
C325 O320 1.259 . S
C325 O322 1.235 . S
O326 Co316 2.021 . S
O326 C323 1.238 . S
O327 Co321 2.052 . S
O327 C323 1.241 . S
O328 Co316 2.137 . S
O328 C319 1.247 . S
O329 Co316 2.244 . S
O329 C319 1.272 . S
O329 Co321 2.135 . S
Co330 O331 2.216 . S
Co330 O332 2.091 . S
Co330 O334 2.004 . S
Co330 O340 2.021 . S
Co330 O342 2.137 . S
Co330 O343 2.244 . S
O331 Co330 2.216 . S
O331 C338 1.247 . S
O332 Co330 2.091 . S
O332 C338 1.261 . S
C333 O342 1.247 . S
C333 O343 1.272 . S
O334 Co330 2.004 . S
O334 C339 1.259 . S
Co335 O336 2.061 . S
Co335 O341 2.052 . S
Co335 O343 2.135 . S
O336 Co335 2.061 . S
O336 C339 1.235 . S
C337 O340 1.238 . S
C337 O341 1.241 . S
C338 O331 1.247 . S
C338 O332 1.261 . S
C339 O334 1.259 . S
C339 O336 1.235 . S
O340 Co330 2.021 . S
O340 C337 1.238 . S
O341 Co335 2.052 . S
O341 C337 1.241 . S
O342 Co330 2.137 . S
O342 C333 1.247 . S
O343 Co330 2.244 . S
O343 C333 1.272 . S
O343 Co335 2.135 . S
Co344 O345 2.216 . S
Co344 O346 2.091 . S
Co344 O348 2.004 . S
Co344 O354 2.021 . S
Co344 O356 2.137 . S
Co344 O357 2.244 . S
O345 Co344 2.216 . S
O345 C352 1.247 . S
O346 Co344 2.091 . S
O346 C352 1.261 . S
C347 O356 1.247 . S
C347 O357 1.272 . S
O348 Co344 2.004 . S
O348 C353 1.259 . S
Co349 O350 2.061 . S
Co349 O355 2.052 . S
Co349 O357 2.135 . S
O350 Co349 2.061 . S
O350 C353 1.235 . S
C351 O354 1.238 . S
C351 O355 1.241 . S
C352 O345 1.247 . S
C352 O346 1.261 . S
C353 O348 1.259 . S
C353 O350 1.235 . S
O354 Co344 2.021 . S
O354 C351 1.238 . S
O355 Co349 2.052 . S
O355 C351 1.241 . S
O356 Co344 2.137 . S
O356 C347 1.247 . S
O357 Co344 2.244 . S
O357 C347 1.272 . S
O357 Co349 2.135 . S
Co358 O359 2.216 . S
Co358 O360 2.091 . S
Co358 O362 2.004 . S
Co358 O368 2.021 . S
Co358 O370 2.137 . S
Co358 O371 2.244 . S
O359 Co358 2.216 . S
O359 C366 1.247 . S
O360 Co358 2.091 . S
O360 C366 1.261 . S
C361 O370 1.247 . S
C361 O371 1.272 . S
O362 Co358 2.004 . S
O362 C367 1.259 . S
Co363 O364 2.061 . S
Co363 O369 2.052 . S
Co363 O371 2.135 . S
O364 Co363 2.061 . S
O364 C367 1.235 . S
C365 O368 1.238 . S
C365 O369 1.241 . S
C366 O359 1.247 . S
C366 O360 1.261 . S
C367 O362 1.259 . S
C367 O364 1.235 . S
O368 Co358 2.021 . S
O368 C365 1.238 . S
O369 Co363 2.052 . S
O369 C365 1.241 . S
O370 Co358 2.137 . S
O370 C361 1.247 . S
O371 Co358 2.244 . S
O371 C361 1.272 . S
O371 Co363 2.135 . S
C361 C45 1.901 . S
C84 C291 1.814 . S
C126 C310 1.802 . S
C189 C319 1.902 . S
C333 C228 1.814 . S
C270 C352 1.802 . S
C69 C305 1.732 . S
C141 C324 1.918 . S
C174 C338 1.739 . S
C347 C213 1.731 . S
C366 C285 1.919 . S
C296 C30 1.739 . S
C36 C311 1.495 . S
C93 C323 1.617 . S
C337 C117 1.476 . S
C180 C353 1.495 1_556 S
C365 C237 1.617 . S
C295 C261 1.475 . S
C367 C78 1.482 . S
C132 C297 1.507 . S
C309 C165 1.504 . S
C222 C325 1.482 . S
C276 C339 1.507 1_554 S
C21 C351 1.504 . S
